drugbank_target|Q14831 Metabotropic glutamate receptor 7 (DB00142)
 OpenBabel12092119413D

  0  0  0     0  0            999 V3000
M  V30 BEGIN CTAB
M  V30 COUNTS 14391 14547 0 0 0
M  V30 BEGIN ATOM
M  V30 1 H -0.908 1.98254 -0.117106 0
M  V30 2 N 0 1.576 0 0
M  V30 3 C 0.933 2.03868 1.02534 0
M  V30 4 C 1.911 0.928543 1.3348 0
M  V30 5 O 3.095 1.19667 1.45644 0
M  V30 6 C 0.222 2.43627 2.35294 0
M  V30 7 C -0.732 3.65373 2.2001 0
M  V30 8 S 0.101 5.13292 1.52614 0
M  V30 9 C 1.257 5.56322 2.86805 0
M  V30 10 H 1.49 2.90518 0.631377 0
M  V30 11 H -0.977 1.52953 0.210867 0
M  V30 12 H 0.981 2.67203 3.11629 0
M  V30 13 H -0.358 1.57376 2.7183 0
M  V30 14 H -1.165 3.90944 3.18086 0
M  V30 15 H -1.563 3.418 1.51819 0
M  V30 16 H 0.729 5.58782 3.83104 0
M  V30 17 H 1.672 6.56266 2.65933 0
M  V30 18 H 2.08 4.83886 2.90714 0
M  V30 19 N 1.4781 -0.272755 1.55222 0
M  V30 20 C 2.7241 -1.00581 1.761 0
M  V30 21 C 3.0571 -1.85932 0.560625 0
M  V30 22 O 2.3321 -1.89416 -0.441801 0
M  V30 23 C 2.6151 -1.88816 3.06628 0
M  V30 24 C 2.4681 -1.06457 4.37021 0
M  V30 25 C 3.7871 -2.8752 3.33197 0
M  V30 26 H 0.9061 -0.364244 0.640699 0
M  V30 27 H 3.5481 -0.278189 1.87952 0
M  V30 28 H 1.6981 -2.50856 2.96654 0
M  V30 29 H 3.3701 -0.464863 4.58952 0
M  V30 30 H 1.6131 -0.368043 4.32236 0
M  V30 31 H 2.2841 -1.71514 5.24678 0
M  V30 32 H 4.7601 -2.35615 3.42965 0
M  V30 33 H 3.6361 -3.46399 4.25792 0
M  V30 34 H 3.8971 -3.62657 2.52849 0
M  V30 35 N 2.9562 -1.48159 -0.537278 0
M  V30 36 C 3.8882 -1.58218 -1.65831 0
M  V30 37 C 4.9012 -0.466948 -1.5596 0
M  V30 38 O 6.0902 -0.73747 -1.62553 0
M  V30 39 C 3.1902 -1.48906 -3.04434 0
M  V30 40 C 2.3632 -2.75343 -3.3986 0
M  V30 41 C 1.4222 -2.59588 -4.57712 0
M  V30 42 O 0.4482 -3.33457 -4.61297 0
M  V30 43 N 1.6502 -1.68724 -5.55439 0
M  V30 44 H 4.4152 -2.54891 -1.57641 0
M  V30 45 H 1.9762 -1.4479 -0.724386 0
M  V30 46 H 3.9682 -1.36072 -3.81139 0
M  V30 47 H 2.5382 -0.602368 -3.06741 0
M  V30 48 H 1.7582 -3.02795 -2.52406 0
M  V30 49 H 3.0462 -3.5924 -3.60311 0
M  V30 50 H 2.4442 -1.07898 -5.55315 0
M  V30 51 H 1.0012 -1.61832 -6.3139 0
M  V30 52 N 4.4343 0.785586 -1.36625 0
M  V30 53 C 5.3643 1.91259 -1.33949 0
M  V30 54 C 6.3453 1.68795 -0.210325 0
M  V30 55 O 7.5303 1.89854 -0.408561 0
M  V30 56 C 4.6603 3.28339 -1.13186 0
M  V30 57 C 3.6143 3.65335 -2.22967 0
M  V30 58 C 2.9403 5.00806 -1.87342 0
M  V30 59 C 4.2403 3.7352 -3.65075 0
M  V30 60 H 5.9343 1.93755 -2.28253 0
M  V30 61 H 3.4803 0.930788 -1.09874 0
M  V30 62 H 5.4333 4.06804 -1.09948 0
M  V30 63 H 4.1573 3.2624 -0.153332 0
M  V30 64 H 2.8163 2.89169 -2.25337 0
M  V30 65 H 2.4643 4.95233 -0.880545 0
M  V30 66 H 2.1643 5.26529 -2.60846 0
M  V30 67 H 3.6883 5.81687 -1.85667 0
M  V30 68 H 5.1023 4.42168 -3.64911 0
M  V30 69 H 3.4993 4.10731 -4.37516 0
M  V30 70 H 4.5693 2.74527 -3.99703 0
M  V30 71 N 5.9124 1.20967 1.01018 0
M  V30 72 C 7.3284 0.965905 1.27053 0
M  V30 73 C 7.5284 -0.350785 1.98423 0
M  V30 74 O 6.5844 -1.07773 2.28344 0
M  V30 75 C 7.8974 2.15294 2.09926 0
M  V30 76 C 9.4454 2.19463 2.23171 0
M  V30 77 C 9.9204 3.3767 3.09424 0
M  V30 78 N 11.4114 3.37724 3.17012 0
M  V30 79 C 12.1464 4.25837 3.83993 0
M  V30 80 N 11.6424 5.24138 4.53047 0
M  V30 81 N 13.4354 4.1366 3.80581 0
M  V30 82 H 5.5864 2.0565 0.531194 0
M  V30 83 H 7.8494 0.90024 0.297106 0
M  V30 84 H 7.5554 3.10684 1.64828 0
M  V30 85 H 7.4294 2.13923 3.10672 0
M  V30 86 H 9.8164 1.24632 2.6749 0
M  V30 87 H 9.8974 2.2488 1.21912 0
M  V30 88 H 9.5414 4.32791 2.65808 0
M  V30 89 H 9.4714 3.29491 4.10784 0
M  V30 90 H 11.9624 2.6658 2.6785 0
M  V30 91 H 12.2754 5.87684 5.01844 0
M  V30 92 H 10.6204 5.28068 4.5185 0
M  V30 93 H 13.8114 3.36127 3.25785 0
M  V30 94 H 13.9844 4.82538 4.32505 0
M  V30 95 N 7.3905 -1.2043 1.01659 0
M  V30 96 C 8.3375 -2.23215 0.586822 0
M  V30 97 C 9.3075 -1.61382 -0.393085 0
M  V30 98 O 10.4925 -1.88544 -0.292525 0
M  V30 99 C 7.6325 -3.45032 -0.0687464 0
M  V30 100 C 6.7455 -4.21296 0.955724 0
M  V30 101 C 5.8805 -5.30507 0.271208 0
M  V30 102 C 4.9195 -5.98515 1.28244 0
M  V30 103 N 4.0565 -6.99316 0.62459 0
M  V30 104 H 8.8965 -2.59336 1.46796 0
M  V30 105 H 6.4335 -1.27431 0.734836 0
M  V30 106 H 8.3915 -4.1459 -0.465965 0
M  V30 107 H 7.0215 -3.09604 -0.913529 0
M  V30 108 H 6.0735 -3.50803 1.4711 0
M  V30 109 H 7.3855 -4.6803 1.72479 0
M  V30 110 H 6.5395 -6.06428 -0.18151 0
M  V30 111 H 5.2785 -4.8481 -0.530163 0
M  V30 112 H 4.2835 -5.21355 1.74554 0
M  V30 113 H 5.5085 -6.46298 2.08509 0
M  V30 114 H 3.4545 -6.55812 -0.156914 0
M  V30 115 H 3.3715 -7.44178 1.33172 0
M  V30 116 H 4.6395 -7.79255 0.195462 0
M  V30 117 N 8.8686 -0.792821 -1.36206 0
M  V30 118 C 9.7986 -0.207853 -2.32573 0
M  V30 119 C 10.7796 0.659055 -1.56813 0
M  V30 120 O 11.9646 0.592176 -1.84951 0
M  V30 121 C 9.0946 0.655449 -3.41059 0
M  V30 122 C 8.0486 -0.111842 -4.27854 0
M  V30 123 C 7.3746 0.872274 -5.27537 0
M  V30 124 C 8.6746 -1.30299 -5.05786 0
M  V30 125 H 10.3686 -1.01294 -2.81744 0
M  V30 126 H 7.9146 -0.48854 -1.3546 0
M  V30 127 H 9.8676 1.07464 -4.07467 0
M  V30 128 H 8.5916 1.49328 -2.90463 0
M  V30 129 H 7.2506 -0.512053 -3.63006 0
M  V30 130 H 6.8986 1.70523 -4.73214 0
M  V30 131 H 6.5986 0.363291 -5.86476 0
M  V30 132 H 8.1226 1.28996 -5.96818 0
M  V30 133 H 9.5366 -0.959379 -5.65216 0
M  V30 134 H 7.9336 -1.7455 -5.74154 0
M  V30 135 H 9.0036 -2.09663 -4.37229 0
M  V30 136 N 10.3467 1.47872 -0.545128 0
M  V30 137 C 11.2767 2.32661 0.197793 0
M  V30 138 C 12.2577 1.43041 0.920504 0
M  V30 139 O 13.4427 1.71912 0.90333 0
M  V30 140 C 10.5727 3.24569 1.23582 0
M  V30 141 C 9.5267 4.23333 0.630323 0
M  V30 142 C 8.8527 5.0448 1.77211 0
M  V30 143 C 10.1527 5.20704 -0.407974 0
M  V30 144 H 11.8467 2.95024 -0.510045 0
M  V30 145 H 9.3927 1.4187 -0.246731 0
M  V30 146 H 11.3457 3.8272 1.76362 0
M  V30 147 H 10.0697 2.60236 1.97344 0
M  V30 148 H 8.7287 3.6639 0.123922 0
M  V30 149 H 8.3767 4.36561 2.49847 0
M  V30 150 H 8.0767 5.71339 1.37281 0
M  V30 151 H 9.6007 5.65487 2.3034 0
M  V30 152 H 11.0147 5.7329 0.033305 0
M  V30 153 H 9.4117 5.95699 -0.725486 0
M  V30 154 H 10.4817 4.66917 -1.30828 0
M  V30 155 N 11.8248 0.280983 1.55075 0
M  V30 156 C 13.2408 -0.0729964 1.59433 0
M  V30 157 C 13.4408 -1.5411 1.29817 0
M  V30 158 O 12.4968 -2.29086 1.06187 0
M  V30 159 C 13.8098 0.306921 2.9913 0
M  V30 160 C 15.3578 0.254023 3.11968 0
M  V30 161 C 15.8328 0.608467 4.5394 0
M  V30 162 N 17.3238 0.560241 4.59799 0
M  V30 163 C 18.0588 0.80722 5.6769 0
M  V30 164 N 17.5548 1.11912 6.83701 0
M  V30 165 N 19.3478 0.735623 5.57266 0
M  V30 166 H 11.4988 1.238 1.7259 0
M  V30 167 H 13.7618 0.500547 0.805082 0
M  V30 168 H 13.4678 1.32816 3.25657 0
M  V30 169 H 13.3418 -0.349363 3.75579 0
M  V30 170 H 15.7288 -0.75794 2.852 0
M  V30 171 H 15.8098 0.944649 2.37718 0
M  V30 172 H 15.4538 1.61814 4.81434 0
M  V30 173 H 15.3838 -0.104013 5.26497 0
M  V30 174 H 17.8748 0.329288 3.76463 0
M  V30 175 H 18.1878 1.29409 7.61888 0
M  V30 176 H 16.5328 1.15695 6.85303 0
M  V30 177 H 19.7238 0.491752 4.6551 0
M  V30 178 H 19.8968 0.931482 6.4127 0
M  V30 179 N 13.3029 -1.57598 0.00835791 0
M  V30 180 C 14.5489 -1.91211 -0.675732 0
M  V30 181 C 14.8819 -0.883139 -1.72958 0
M  V30 182 O 14.1569 0.097016 -1.94258 0
M  V30 183 C 14.4399 -3.35379 -1.31123 0
M  V30 184 C 14.2929 -4.48999 -0.268356 0
M  V30 185 C 15.6119 -3.7912 -2.23508 0
M  V30 186 H 12.7309 -0.695374 -0.244179 0
M  V30 187 H 15.3729 -1.89901 0.0613655 0
M  V30 188 H 13.5229 -3.36626 -1.93946 0
M  V30 189 H 15.1949 -4.59887 0.360844 0
M  V30 190 H 13.4379 -4.31873 0.408482 0
M  V30 191 H 14.1089 -5.46851 -0.752218 0
M  V30 192 H 16.5849 -3.79477 -1.70693 0
M  V30 193 H 15.4609 -4.80729 -2.64936 0
M  V30 194 H 15.7219 -3.13455 -3.11766 0
M  V30 195 N 14.781 0.264519 -1.55364 0
M  V30 196 C 15.711 1.33121 -1.91836 0
M  V30 197 C 16.692 1.51101 -0.781192 0
M  V30 198 O 17.877 1.64003 -1.04003 0
M  V30 199 C 15.007 2.68921 -2.19769 0
M  V30 200 C 13.961 2.65661 -3.35571 0
M  V30 201 C 13.287 4.05093 -3.49004 0
M  V30 202 C 14.587 2.24187 -4.71739 0
M  V30 203 H 16.281 1.02844 -2.81182 0
M  V30 204 H 13.827 0.493286 -1.35287 0
M  V30 205 H 15.78 3.43663 -2.43872 0
M  V30 206 H 14.504 3.00799 -1.27231 0
M  V30 207 H 13.163 1.93377 -3.1145 0
M  V30 208 H 12.811 4.34206 -2.53917 0
M  V30 209 H 12.511 4.03804 -4.26868 0
M  V30 210 H 14.035 4.81561 -3.75408 0
M  V30 211 H 15.449 2.88654 -4.9533 0
M  V30 212 H 13.846 2.34044 -5.52579 0
M  V30 213 H 14.916 1.19327 -4.69988 0
M  V30 214 N 16.2591 1.48442 0.529413 0
M  V30 215 C 17.4871 1.60151 1.30994 0
M  V30 216 C 17.9021 0.261985 1.86973 0
M  V30 217 O 17.2591 -0.748805 1.66431 0
M  V30 218 C 17.3101 2.64854 2.46038 0
M  V30 219 O 17.0311 3.93608 1.92365 0
M  V30 220 C 18.5321 2.87007 3.37849 0
M  V30 221 H 15.7521 0.539971 0.398338 0
M  V30 222 H 18.2961 1.94273 0.638597 0
M  V30 223 H 16.4511 2.33589 3.09055 0
M  V30 224 H 16.8651 4.51055 2.67675 0
M  V30 225 H 18.3391 3.64068 4.14919 0
M  V30 226 H 18.8161 1.95852 3.93114 0
M  V30 227 H 19.4221 3.19579 2.80623 0
M  V30 228 N 17.7372 -0.778329 1.37039 0
M  V30 229 C 18.6672 -1.90546 1.34962 0
M  V30 230 C 19.6482 -1.68681 0.219274 0
M  V30 231 O 20.8332 -1.89634 0.418624 0
M  V30 232 C 17.9632 -3.27734 1.14925 0
M  V30 233 C 16.9172 -3.64147 2.24902 0
M  V30 234 C 16.2432 -4.99806 1.89996 0
M  V30 235 C 17.5432 -3.71579 3.67051 0
M  V30 236 H 19.2372 -1.92541 2.29277 0
M  V30 237 H 16.7832 -0.924948 1.10366 0
M  V30 238 H 18.7362 -4.06215 1.12104 0
M  V30 239 H 17.4602 -3.26154 0.170631 0
M  V30 240 H 16.1192 -2.8797 2.26868 0
M  V30 241 H 15.7672 -4.94759 0.906796 0
M  V30 242 H 15.4672 -5.25139 2.63634 0
M  V30 243 H 16.9912 -5.80694 1.88749 0
M  V30 244 H 18.4052 -4.40227 3.67251 0
M  V30 245 H 16.8022 -4.08405 4.39688 0
M  V30 246 H 17.8722 -2.72404 4.01154 0
M  V30 247 N 19.2153 -1.21501 -1.00376 0
M  V30 248 C 20.1483 -0.918669 -2.08892 0
M  V30 249 C 21.1263 0.134277 -1.62045 0
M  V30 250 O 22.3103 0.00504255 -1.88499 0
M  V30 251 C 19.4373 -0.379645 -3.36566 0
M  V30 252 C 18.4833 -1.41559 -4.02323 0
M  V30 253 S 19.3163 -2.98521 -4.44574 0
M  V30 254 C 20.4723 -2.46228 -5.75433 0
M  V30 255 H 20.7053 -1.83761 -2.33707 0
M  V30 256 H 18.2383 -1.04489 -1.13673 0
M  V30 257 H 20.1963 -0.0752195 -4.10431 0
M  V30 258 H 18.8573 0.518008 -3.09799 0
M  V30 259 H 18.0503 -0.988076 -4.9422 0
M  V30 260 H 17.6523 -1.66815 -3.34737 0
M  V30 261 H 19.9443 -1.86791 -6.51241 0
M  V30 262 H 20.8873 -3.36572 -6.22997 0
M  V30 263 H 21.2953 -1.87894 -5.32312 0
M  V30 264 N 20.6934 1.19889 -1.02296 0
M  V30 265 C 21.6404 2.22901 -0.598651 0
M  V30 266 C 22.6104 1.61588 0.384521 0
M  V30 267 O 23.7954 1.88697 0.282522 0
M  V30 268 C 20.9354 3.45063 0.0504476 0
M  V30 269 C 20.0484 4.20783 -0.978053 0
M  V30 270 C 19.1834 5.30356 -0.299338 0
M  V30 271 C 18.2224 5.97826 -1.31416 0
M  V30 272 N 17.3594 6.98975 -0.661667 0
M  V30 273 H 22.1994 2.58554 -1.48169 0
M  V30 274 H 19.7364 1.27039 -0.741584 0
M  V30 275 H 21.6944 4.14831 0.443971 0
M  V30 276 H 20.3244 3.10084 0.897097 0
M  V30 277 H 19.3764 3.50018 -1.48969 0
M  V30 278 H 20.6884 4.67109 -1.74958 0
M  V30 279 H 19.8424 6.06516 0.149347 0
M  V30 280 H 18.5814 4.85084 0.504445 0
M  V30 281 H 17.5864 5.20422 -1.77317 0
M  V30 282 H 18.8114 6.45183 -2.11933 0
M  V30 283 H 16.7574 6.55886 0.122132 0
M  V30 284 H 16.6744 7.43461 -1.37117 0
M  V30 285 H 17.9424 7.7914 -0.236785 0
M  V30 286 N 22.1715 0.800033 1.35784 0
M  V30 287 C 23.4185 0.377342 1.98953 0
M  V30 288 C 23.7465 -1.05378 1.6348 0
M  V30 289 O 23.0015 -1.74459 0.886707 0
M  V30 290 C 23.3005 0.500276 3.53881 0
M  V30 291 C 22.9665 1.89375 4.09204 0
M  V30 292 C 21.6285 2.27499 4.24025 0
M  V30 293 C 23.9805 2.8057 4.39238 0
M  V30 294 C 21.3085 3.562 4.66195 0
M  V30 295 C 23.6605 4.0871 4.82844 0
M  V30 296 C 22.3245 4.46843 4.95871 0
M  V30 297 H 21.5945 0.138079 0.728021 0
M  V30 298 H 24.2415 1.01955 1.62103 0
M  V30 299 H 22.5465 -0.225405 3.91151 0
M  V30 300 H 24.2435 0.154097 4.00704 0
M  V30 301 H 20.8335 1.58753 3.98115 0
M  V30 302 H 25.0175 2.52367 4.27346 0
M  V30 303 H 20.2735 3.85602 4.74469 0
M  V30 304 H 24.4475 4.79481 5.05046 0
M  V30 305 H 22.0745 5.46623 5.28306 0
M  V30 306 N 23.6496 -1.47581 0.552962 0
M  V30 307 C 25.0606 -1.86324 0.118463 0
M  V30 308 C 25.4116 -1.46006 -1.3106 0
M  V30 309 O 24.5366 -0.861182 -1.98526 0
M  V30 310 C 25.1316 -3.3816 0.20821 0
M  V30 311 C 23.6906 -3.7601 -0.171226 0
M  V30 312 C 22.8376 -2.71634 0.557686 0
M  V30 313 H 25.7886 -1.39159 0.762928 0
M  V30 314 H 25.8096 -3.76141 -0.574278 0
M  V30 315 H 25.3216 -3.67473 1.24841 0
M  V30 316 H 23.4226 -3.52313 -1.21269 0
M  V30 317 H 23.5356 -4.78745 0.184379 0
M  V30 318 H 21.8996 -2.547 0.00125792 0
M  V30 319 H 22.6826 -3.0379 1.59896 0
M  V30 320 N 25.1277 -0.289203 -1.54924 0
M  V30 321 C 26.3677 0.324536 -2.01807 0
M  V30 322 C 26.7317 1.5199 -1.17316 0
M  V30 323 O 27.9327 2.20422 -1.53843 0
M  V30 324 C 26.2037 0.683578 -3.50802 0
M  V30 325 S 27.7627 1.28185 -4.19659 0
M  V30 326 H 24.5807 0.100236 -0.703899 0
M  V30 327 H 27.1827 -0.414325 -1.91059 0
M  V30 328 H 25.8867 -0.195073 -4.09936 0
M  V30 329 H 25.4177 1.45354 -3.65562 0
M  V30 330 H 27.4327 2.57006 -4.24456 0
M  V30 331 N 26.6058 1.57591 -0.0167156 0
M  V30 332 C 27.8458 1.93145 0.668902 0
M  V30 333 C 28.2098 0.892406 1.7 0
M  V30 334 O 29.4108 1.13373 2.43721 0
M  V30 335 C 27.6818 3.33678 1.28039 0
M  V30 336 S 29.2408 3.91142 1.9888 0
M  V30 337 H 26.0588 0.67593 0.220545 0
M  V30 338 H 28.6608 1.95347 -0.0774105 0
M  V30 339 H 27.3648 4.07126 0.517339 0
M  V30 340 H 26.8958 3.3489 2.06427 0
M  V30 341 H 28.9108 3.73571 3.26587 0
M  V30 342 N 28.0839 -0.256276 1.55502 0
M  V30 343 C 29.3299 -0.987079 1.77157 0
M  V30 344 C 29.6629 -1.85327 0.580315 0
M  V30 345 O 28.9379 -1.89874 -0.421686 0
M  V30 346 C 29.2209 -1.85553 3.08613 0
M  V30 347 C 29.0739 -1.01816 4.38125 0
M  V30 348 C 30.3929 -2.8397 3.36228 0
M  V30 349 H 27.5119 -0.357428 0.644526 0
M  V30 350 H 30.1539 -0.258239 1.88237 0
M  V30 351 H 28.3039 -2.47695 2.99298 0
M  V30 352 H 29.9759 -0.416159 4.59419 0
M  V30 353 H 28.2189 -0.322178 4.32602 0
M  V30 354 H 28.8899 -1.65939 5.26468 0
M  V30 355 H 31.3659 -2.31964 3.45445 0
M  V30 356 H 30.2419 -3.41864 4.29442 0
M  V30 357 H 30.5029 -3.59955 2.56681 0
M  V30 358 N 29.562 -1.4872 -0.521534 0
M  V30 359 C 30.492 -1.66771 -1.63431 0
M  V30 360 C 31.473 -0.516499 -1.62069 0
M  V30 361 O 32.658 -0.750013 -1.79132 0
M  V30 362 C 29.788 -1.71515 -3.01993 0
M  V30 363 C 28.742 -2.86222 -3.18216 0
M  V30 364 C 28.068 -2.76061 -4.57924 0
M  V30 365 C 29.368 -4.27419 -3.00184 0
M  V30 366 H 31.062 -2.59932 -1.48579 0
M  V30 367 H 28.608 -1.25089 -0.713358 0
M  V30 368 H 30.561 -1.82731 -3.7972 0
M  V30 369 H 29.285 -0.749393 -3.17886 0
M  V30 370 H 27.944 -2.74575 -2.42908 0
M  V30 371 H 27.592 -1.77437 -4.70665 0
M  V30 372 H 27.292 -3.53037 -4.69722 0
M  V30 373 H 28.816 -2.89256 -5.37739 0
M  V30 374 H 30.23 -4.39855 -3.67697 0
M  V30 375 H 28.627 -5.05458 -3.2347 0
M  V30 376 H 29.697 -4.43293 -1.96518 0
M  V30 377 N 31.0401 0.771051 -1.3745 0
M  V30 378 C 31.9501 1.91538 -1.35464 0
M  V30 379 C 32.9661 1.72134 -0.254123 0
M  V30 380 O 34.1421 1.95358 -0.489626 0
M  V30 381 C 31.2071 3.26671 -1.16134 0
M  V30 382 C 30.2681 3.58723 -2.35831 0
M  V30 383 C 29.5011 4.87409 -2.17413 0
M  V30 384 O 29.7241 5.58506 -1.15876 0
M  V30 385 O 28.6581 5.18539 -3.05615 0
M  V30 386 H 32.4841 1.96165 -2.31847 0
M  V30 387 H 30.0691 0.9139 -1.18187 0
M  V30 388 H 31.9511 4.07499 -1.07345 0
M  V30 389 H 30.6261 3.22894 -0.228251 0
M  V30 390 H 29.5331 2.78127 -2.50192 0
M  V30 391 H 30.8661 3.67243 -3.27709 0
M  V30 392 N 32.5182 1.22032 0.997298 0
M  V30 393 C 33.7642 1.04376 1.73878 0
M  V30 394 C 34.0972 -0.420716 1.89588 0
M  V30 395 O 33.3722 -1.31202 1.43583 0
M  V30 396 C 33.6552 1.75047 3.14691 0
M  V30 397 C 33.5082 3.29062 3.06656 0
M  V30 398 C 34.8272 1.49928 4.13775 0
M  V30 399 H 31.9462 0.380578 0.631133 0
M  V30 400 H 34.5882 1.50312 1.16217 0
M  V30 401 H 32.7382 1.35996 3.63919 0
M  V30 402 H 34.4102 3.7753 2.65083 0
M  V30 403 H 32.6532 3.58967 2.43568 0
M  V30 404 H 33.3242 3.73683 4.06282 0
M  V30 405 H 35.8002 1.83842 3.73285 0
M  V30 406 H 34.6762 2.01878 5.10428 0
M  V30 407 H 34.9372 0.430929 4.39995 0
M  V30 408 N 33.9963 -1.19345 1.0293 0
M  V30 409 C 34.9263 -2.2481 0.631105 0
M  V30 410 C 35.9073 -1.66245 -0.360104 0
M  V30 411 O 37.0923 -1.92677 -0.242726 0
M  V30 412 C 34.2223 -3.47295 -0.0184607 0
M  V30 413 C 33.1763 -4.18536 0.895073 0
M  V30 414 C 32.5023 -5.34586 0.110592 0
M  V30 415 C 33.8023 -4.73287 2.209 0
M  V30 416 H 35.4963 -2.58372 1.51275 0
M  V30 417 H 33.0423 -1.24194 0.728818 0
M  V30 418 H 34.9953 -4.20268 -0.308675 0
M  V30 419 H 33.7193 -3.12933 -0.934907 0
M  V30 420 H 32.3783 -3.47446 1.16949 0
M  V30 421 H 32.0263 -4.96469 -0.807902 0
M  V30 422 H 31.7263 -5.83183 0.719087 0
M  V30 423 H 33.2503 -6.10355 -0.172871 0
M  V30 424 H 34.6643 -5.38013 1.98028 0
M  V30 425 H 33.0613 -5.32373 2.76946 0
M  V30 426 H 34.1313 -3.91331 2.86336 0
M  V30 427 N 35.4744 -0.807222 -1.35358 0
M  V30 428 C 36.4044 -0.232509 -2.3234 0
M  V30 429 C 37.3854 0.642386 -1.57504 0
M  V30 430 O 38.5704 0.572526 -1.85569 0
M  V30 431 C 35.7004 0.619238 -3.41735 0
M  V30 432 C 34.6544 -0.157215 -4.27711 0
M  V30 433 C 33.9804 0.816273 -5.28433 0
M  V30 434 C 35.2804 -1.35656 -5.04376 0
M  V30 435 H 36.9744 -1.04276 -2.80654 0
M  V30 436 H 34.5204 -0.50288 -1.34934 0
M  V30 437 H 36.4734 1.03137 -4.08584 0
M  V30 438 H 35.1974 1.46239 -2.92031 0
M  V30 439 H 33.8564 -0.550525 -3.62443 0
M  V30 440 H 33.5044 1.65494 -4.74996 0
M  V30 441 H 33.2044 0.301067 -5.86828 0
M  V30 442 H 34.7284 1.22659 -5.98153 0
M  V30 443 H 36.1424 -1.01927 -5.64166 0
M  V30 444 H 34.5394 -1.8063 -5.7227 0
M  V30 445 H 35.6094 -2.14288 -4.34981 0
M  V30 446 N 36.9525 1.47285 -0.560781 0
M  V30 447 C 38.1925 2.0436 -0.0404627 0
M  V30 448 C 38.5565 1.42534 1.28639 0
M  V30 449 O 39.7575 1.90677 1.89462 0
M  V30 450 C 38.0285 3.57369 0.0471856 0
M  V30 451 S 39.5875 4.3579 0.513109 0
M  V30 452 H 36.4055 0.710492 -0.0268674 0
M  V30 453 H 39.0075 1.80611 -0.748323 0
M  V30 454 H 37.7115 3.9989 -0.922817 0
M  V30 455 H 37.2425 3.8562 0.778491 0
M  V30 456 H 39.2575 4.63476 1.77212 0
M  V30 457 N 38.4306 0.297415 1.54768 0
M  V30 458 C 39.3936 -0.567375 2.22066 0
M  V30 459 C 40.3936 -1.06409 1.20556 0
M  V30 460 O 41.5836 -0.960691 1.45315 0
M  V30 461 C 38.7156 -1.78517 2.90421 0
M  V30 462 H 39.9086 0.0205534 2.99893 0
M  V30 463 H 37.4616 0.0482163 1.56226 0
M  V30 464 H 38.1966 -2.41303 2.16664 0
M  V30 465 H 37.9816 -1.43669 3.64831 0
M  V30 466 H 39.4716 -2.39964 3.41771 0
M  V30 467 N 39.9087 -1.5758 0.0250728 0
M  V30 468 C 40.8387 -2.13007 -0.956575 0
M  V30 469 C 41.8197 -1.0452 -1.342 0
M  V30 470 O 43.0047 -1.32332 -1.42133 0
M  V30 471 C 40.1347 -2.65386 -2.24026 0
M  V30 472 C 39.0887 -3.78623 -1.99571 0
M  V30 473 C 38.4147 -4.17414 -3.3417 0
M  V30 474 C 39.7147 -5.04867 -1.33814 0
M  V30 475 H 41.4087 -2.9528 -0.494991 0
M  V30 476 H 38.9547 -1.42042 -0.236651 0
M  V30 477 H 40.9077 -3.02794 -2.93076 0
M  V30 478 H 39.6317 -1.80268 -2.72343 0
M  V30 479 H 38.2907 -3.41646 -1.32941 0
M  V30 480 H 37.9387 -3.29284 -3.80238 0
M  V30 481 H 37.6387 -4.93719 -3.18615 0
M  V30 482 H 39.1627 -4.57402 -4.04495 0
M  V30 483 H 40.5767 -5.39888 -1.92857 0
M  V30 484 H 38.9737 -5.86144 -1.28669 0
M  V30 485 H 40.0437 -4.83904 -0.310561 0
M  V30 486 N 41.3868 0.248026 -1.55636 0
M  V30 487 C 42.3498 1.29044 -1.89421 0
M  V30 488 C 43.3498 1.41134 -0.770581 0
M  V30 489 O 44.5398 1.39854 -1.03858 0
M  V30 490 C 41.6718 2.66831 -2.12165 0
M  V30 491 H 42.8648 1.00305 -2.82629 0
M  V30 492 H 40.4178 0.487265 -1.48511 0
M  V30 493 H 41.1528 3.00711 -1.21422 0
M  V30 494 H 40.9378 2.59438 -2.93997 0
M  V30 495 H 42.4278 3.42103 -2.3949 0
M  V30 496 N 42.8649 1.48995 0.513639 0
M  V30 497 C 43.8279 1.64229 1.59879 0
M  V30 498 C 44.8279 0.514696 1.5234 0
M  V30 499 O 46.0179 0.78087 1.55718 0
M  V30 500 C 43.1499 1.62783 2.99524 0
M  V30 501 H 44.3429 2.61004 1.47705 0
M  V30 502 H 41.8959 1.37837 0.736936 0
M  V30 503 H 42.6309 0.675461 3.17188 0
M  V30 504 H 42.4159 2.4466 3.06404 0
M  V30 505 H 43.9059 1.76669 3.78388 0
M  V30 506 N 44.343 -0.763751 1.37857 0
M  V30 507 C 45.306 -1.85889 1.34081 0
M  V30 508 C 46.306 -1.58949 0.243277 0
M  V30 509 O 47.496 -1.66882 0.499589 0
M  V30 510 C 44.628 -3.23176 1.08489 0
M  V30 511 H 45.821 -1.90648 2.31502 0
M  V30 512 H 43.374 -0.964367 1.23003 0
M  V30 513 H 44.109 -3.24091 0.116318 0
M  V30 514 H 43.894 -3.44124 1.8794 0
M  V30 515 H 45.384 -4.03254 1.08517 0
M  V30 516 N 45.8211 -1.22559 -0.990812 0
M  V30 517 C 46.7841 -0.998863 -2.0629 0
M  V30 518 C 47.7841 0.0354834 -1.60761 0
M  V30 519 O 48.9741 -0.203231 -1.7301 0
M  V30 520 C 46.1061 -0.509203 -3.37076 0
M  V30 521 H 47.2991 -1.95014 -2.27837 0
M  V30 522 H 44.8521 -1.04456 -1.16269 0
M  V30 523 H 45.5871 0.446335 -3.21214 0
M  V30 524 H 45.3721 -1.25547 -3.71457 0
M  V30 525 H 46.8621 -0.370888 -4.1595 0
M  V30 526 N 47.2992 1.18797 -1.03562 0
M  V30 527 C 48.7152 1.40671 -0.753917 0
M  V30 528 C 48.9152 1.9043 0.658686 0
M  V30 529 O 47.9712 2.08538 1.42366 0
M  V30 530 C 49.2842 2.41192 -1.79574 0
M  V30 531 C 50.8322 2.54928 -1.81606 0
M  V30 532 C 51.3072 3.58709 -2.84766 0
M  V30 533 N 52.7982 3.66212 -2.83625 0
M  V30 534 C 53.5332 4.46225 -3.60098 0
M  V30 535 N 53.0292 5.29888 -4.46308 0
M  V30 536 N 54.8222 4.40939 -3.4861 0
M  V30 537 H 46.9732 0.848221 -1.94728 0
M  V30 538 H 49.2362 0.435081 -0.842264 0
M  V30 539 H 48.9422 2.11669 -2.80872 0
M  V30 540 H 48.8162 3.40467 -1.62365 0
M  V30 541 H 51.2032 2.83771 -0.809817 0
M  V30 542 H 51.2842 1.55784 -2.02891 0
M  V30 543 H 50.9282 3.30607 -3.85566 0
M  V30 544 H 50.8582 4.57519 -2.60737 0
M  V30 545 H 53.3492 3.06466 -2.21105 0
M  V30 546 H 53.6622 5.88078 -5.01382 0
M  V30 547 H 52.0072 5.29326 -4.50377 0
M  V30 548 H 55.1982 3.74624 -2.80668 0
M  V30 549 H 55.3712 5.03056 -4.08459 0
M  V30 550 N 48.7773 0.814389 1.34928 0
M  V30 551 C 50.0253 0.397636 1.9815 0
M  V30 552 C 50.3463 -1.04069 1.64908 0
M  V30 553 O 49.6163 -1.72121 0.93548 0
M  V30 554 H 48.1963 0.144043 0.732981 0
M  V30 555 H 50.8583 1.04195 1.6471 0
M  V30 556 H 49.9543 0.509688 3.0791 0
M  V30 557 N 50.2554 -1.46986 0.568584 0
M  V30 558 C 51.1874 -2.28233 -0.210337 0
M  V30 559 C 52.2004 -1.37682 -0.868767 0
M  V30 560 O 53.3894 -1.62406 -0.740705 0
M  V30 561 C 50.4894 -3.12293 -1.3163 0
M  V30 562 C 49.6624 -4.30878 -0.7525 0
M  V30 563 C 48.7214 -4.96445 -1.74439 0
M  V30 564 O 47.7474 -5.54482 -1.286 0
M  V30 565 N 48.9494 -4.92171 -3.07812 0
M  V30 566 H 51.7144 -2.95723 0.486648 0
M  V30 567 H 49.2754 -1.56742 0.405409 0
M  V30 568 H 51.2674 -3.53022 -1.97883 0
M  V30 569 H 49.8374 -2.46971 -1.91636 0
M  V30 570 H 49.0574 -3.94104 0.0871128 0
M  V30 571 H 50.3454 -5.07558 -0.35536 0
M  V30 572 H 49.7434 -4.46239 -3.47688 0
M  V30 573 H 48.3004 -5.36884 -3.69592 0
M  V30 574 N 51.7335 -0.305618 -1.54608 0
M  V30 575 C 52.6435 0.57778 -2.27374 0
M  V30 576 C 53.6595 1.14451 -1.31061 0
M  V30 577 O 54.8355 1.16831 -1.6405 0
M  V30 578 C 51.9005 1.73123 -3.00382 0
M  V30 579 C 50.9615 1.19812 -4.12242 0
M  V30 580 C 50.1945 2.2966 -4.81759 0
M  V30 581 O 50.4175 3.49651 -4.50666 0
M  V30 582 O 49.3515 1.96091 -5.69062 0
M  V30 583 H 53.1775 -0.012624 -3.03697 0
M  V30 584 H 50.7625 -0.0719184 -1.49227 0
M  V30 585 H 52.6445 2.40315 -3.4616 0
M  V30 586 H 51.3195 2.30815 -2.26949 0
M  V30 587 H 50.2265 0.491798 -3.70853 0
M  V30 588 H 51.5595 0.666566 -4.87666 0
M  V30 589 N 53.2116 1.57565 -0.0334293 0
M  V30 590 C 54.1446 2.05997 0.981866 0
M  V30 591 C 55.1226 0.956647 1.3148 0
M  V30 592 O 56.3066 1.22729 1.43073 0
M  V30 593 C 53.4336 2.48564 2.30074 0
M  V30 594 C 52.4796 3.69958 2.12211 0
M  V30 595 S 53.3126 5.16414 1.41692 0
M  V30 596 C 54.4686 5.6228 2.7494 0
M  V30 597 H 54.7016 2.91792 0.569612 0
M  V30 598 H 52.2346 1.53366 0.178376 0
M  V30 599 H 54.1926 2.73753 3.05892 0
M  V30 600 H 52.8536 1.63106 2.68431 0
M  V30 601 H 52.0466 3.97603 3.09722 0
M  V30 602 H 51.6486 3.44943 1.44535 0
M  V30 603 H 53.9406 5.66783 3.71165 0
M  V30 604 H 54.8836 6.61759 2.51953 0
M  V30 605 H 55.2916 4.89944 2.80384 0
M  V30 606 N 54.6897 -0.239769 1.55765 0
M  V30 607 C 55.9197 -0.982743 1.8173 0
M  V30 608 C 56.3277 -1.7917 0.607835 0
M  V30 609 O 55.6707 -1.78525 -0.432973 0
M  V30 610 C 55.7327 -1.96332 3.01155 0
M  V30 611 C 55.3967 -1.34062 4.36894 0
M  V30 612 C 56.3937 -0.739539 5.14613 0
M  V30 613 C 54.0787 -1.35784 4.83599 0
M  V30 614 C 56.0727 -0.163989 6.37189 0
M  V30 615 C 53.7597 -0.778441 6.06122 0
M  V30 616 C 54.7577 -0.182548 6.82756 0
M  V30 617 O 54.4457 0.387887 8.02964 0
M  V30 618 H 54.1777 -0.294481 0.608487 0
M  V30 619 H 56.7317 -0.26572 2.03674 0
M  V30 620 H 54.9617 -2.71884 2.74984 0
M  V30 621 H 56.6507 -2.57032 3.14149 0
M  V30 622 H 57.4167 -0.718687 4.79646 0
M  V30 623 H 53.2957 -1.81105 4.23936 0
M  V30 624 H 56.8397 0.301753 6.96947 0
M  V30 625 H 52.7367 -0.796645 6.40565 0
M  V30 626 H 53.5047 0.28044 8.18019 0
M  V30 627 N 56.1678 -1.49265 -0.50573 0
M  V30 628 C 57.1308 -1.65075 -1.59006 0
M  V30 629 C 58.1308 -0.522768 -1.52065 0
M  V30 630 O 59.3208 -0.789117 -1.55302 0
M  V30 631 C 56.4528 -1.64369 -2.98656 0
M  V30 632 H 57.6458 -2.61784 -1.46319 0
M  V30 633 H 55.1988 -1.38226 -0.729616 0
M  V30 634 H 55.9338 -0.692272 -3.16825 0
M  V30 635 H 55.7188 -2.46282 -3.05103 0
M  V30 636 H 57.2088 -1.78674 -3.77446 0
M  V30 637 N 57.6459 0.756429 -1.3826 0
M  V30 638 C 59.0569 1.33359 -1.30661 0
M  V30 639 C 59.4079 1.96161 0.0388875 0
M  V30 640 O 58.5329 1.94874 0.940918 0
M  V30 641 C 59.1279 2.42477 -2.36622 0
M  V30 642 C 57.6869 2.95922 -2.3261 0
M  V30 643 C 56.8339 1.69275 -2.19639 0
M  V30 644 H 59.7849 0.55552 -1.4866 0
M  V30 645 H 59.8059 3.22345 -2.02174 0
M  V30 646 H 59.3179 1.96739 -3.34538 0
M  V30 647 H 57.4189 3.45996 -1.38267 0
M  V30 648 H 57.5319 3.50494 -3.26636 0
M  V30 649 H 55.8959 1.92793 -1.66442 0
M  V30 650 H 56.6789 1.25619 -3.19491 0
M  V30 651 N 59.124 1.23083 0.984299 0
M  V30 652 C 60.074 0.975749 2.06066 0
M  V30 653 C 61.058 -0.0768251 1.60716 0
M  V30 654 O 62.25 0.134805 1.76486 0
M  V30 655 C 59.379 0.564673 3.38624 0
M  V30 656 C 58.465 1.65244 3.90583 0
M  V30 657 N 58.856 2.88193 4.15666 0
M  V30 658 C 57.154 1.52612 4.19077 0
M  V30 659 C 57.855 3.58593 4.58024 0
M  V30 660 N 56.831 2.86093 4.62225 0
M  V30 661 H 60.633 1.90957 2.23411 0
M  V30 662 H 58.147 1.12963 1.16675 0
M  V30 663 H 60.144 0.36322 4.15315 0
M  V30 664 H 58.804 -0.362147 3.22674 0
M  V30 665 H 59.815 3.24537 4.03604 0
M  V30 666 H 56.492 0.666121 4.12152 0
M  V30 667 H 57.882 4.63974 4.85982 0
M  V30 668 N 60.6021 -1.18246 1.0419 0
M  V30 669 C 61.8271 -1.92736 0.765996 0
M  V30 670 C 62.2521 -1.75728 -0.67091 0
M  V30 671 O 61.6101 -1.06825 -1.46486 0
M  V30 672 C 61.6581 -3.42148 1.13875 0
M  V30 673 O 60.7621 -4.11548 0.264954 0
M  V30 674 H 60.1031 -0.601238 0.281797 0
M  V30 675 H 62.6331 -1.49942 1.39207 0
M  V30 676 H 62.6431 -3.92858 1.1012 0
M  V30 677 H 61.3181 -3.53848 2.18551 0
M  V30 678 H 59.8951 -3.71137 0.362226 0
M  V30 679 N 62.0802 -0.821533 -1.34494 0
M  V30 680 C 63.3292 -0.405355 -1.97585 0
M  V30 681 C 63.6422 1.03677 -1.65863 0
M  V30 682 O 64.8482 1.55679 -2.22433 0
M  V30 683 C 63.3042 -0.673861 -3.53535 0
M  V30 684 C 62.9122 -2.12951 -3.94152 0
M  V30 685 C 64.6562 -0.32378 -4.23263 0
M  V30 686 C 62.5632 -2.34298 -5.43009 0
M  V30 687 H 61.4932 -0.147836 -0.739365 0
M  V30 688 H 64.1442 -1.00769 -1.53355 0
M  V30 689 H 62.5262 -0.00137554 -3.96 0
M  V30 690 H 63.7002 -2.84104 -3.62797 0
M  V30 691 H 62.0152 -2.44089 -3.37356 0
M  V30 692 H 64.6122 -0.461126 -5.32708 0
M  V30 693 H 64.9552 0.731586 -4.09821 0
M  V30 694 H 65.4882 -0.950786 -3.8627 0
M  V30 695 H 62.2272 -3.38335 -5.61435 0
M  V30 696 H 61.7472 -1.67687 -5.75883 0
M  V30 697 H 63.4262 -2.16588 -6.09671 0
M  V30 698 N 63.5583 1.46682 -0.576371 0
M  V30 699 C 64.9743 1.57822 -0.237562 0
M  V30 700 C 65.1743 1.57237 1.26011 0
M  V30 701 O 64.2303 1.48596 2.04146 0
M  V30 702 C 65.5433 2.87499 -0.881168 0
M  V30 703 C 67.0913 3.01119 -0.85417 0
M  V30 704 C 67.5663 4.33524 -1.4772 0
M  V30 705 N 69.0573 4.40207 -1.44125 0
M  V30 706 C 69.7923 5.4126 -1.89276 0
M  V30 707 N 69.2883 6.49021 -2.42371 0
M  V30 708 N 71.0813 5.32422 -1.80231 0
M  V30 709 H 63.2323 1.45306 -1.54919 0
M  V30 710 H 65.4953 0.692733 -0.647167 0
M  V30 711 H 65.2013 2.9372 -1.93447 0
M  V30 712 H 65.0753 3.75224 -0.385592 0
M  V30 713 H 67.4623 2.94485 0.190491 0
M  V30 714 H 67.5433 2.14887 -1.3877 0
M  V30 715 H 67.1873 4.40916 -2.52103 0
M  V30 716 H 67.1173 5.1852 -0.918947 0
M  V30 717 H 69.6083 3.62931 -1.05307 0
M  V30 718 H 69.9213 7.2233 -2.74698 0
M  V30 719 H 68.2663 6.49858 -2.46393 0
M  V30 720 H 71.4573 4.47137 -1.38514 0
M  V30 721 H 71.6303 6.11034 -2.15735 0
M  V30 722 N 65.0364 0.313813 1.54444 0
M  V30 723 C 66.2854 -0.292519 1.99568 0
M  V30 724 C 66.5984 -1.54011 1.20582 0
M  V30 725 O 67.8044 -2.22183 1.56035 0
M  V30 726 C 66.2604 -0.571752 3.55329 0
M  V30 727 C 65.8684 0.658229 4.43138 0
M  V30 728 C 67.6124 -1.13857 4.08946 0
M  V30 729 C 65.5194 0.351439 5.90355 0
M  V30 730 H 64.4494 -0.113079 0.745472 0
M  V30 731 H 67.1004 0.424518 1.78522 0
M  V30 732 H 65.4824 -1.34872 3.72325 0
M  V30 733 H 66.6564 1.43403 4.37918 0
M  V30 734 H 64.9714 1.14458 4.0036 0
M  V30 735 H 67.5684 -1.38257 5.16516 0
M  V30 736 H 67.9114 -2.08489 3.6033 0
M  V30 737 H 68.4444 -0.423015 3.95544 0
M  V30 738 H 65.1834 1.26667 6.43145 0
M  V30 739 H 64.7034 -0.386842 5.98551 0
M  V30 740 H 66.3824 -0.0423134 6.46986 0
M  V30 741 N 66.5145 -1.57545 0.0417849 0
M  V30 742 C 67.4245 -2.14451 -0.951213 0
M  V30 743 C 68.4405 -1.09992 -1.34825 0
M  V30 744 O 69.6165 -1.42114 -1.42708 0
M  V30 745 C 66.6815 -2.67063 -2.21084 0
M  V30 746 C 65.7425 -3.86284 -1.87304 0
M  V30 747 C 64.9755 -4.36378 -3.07261 0
M  V30 748 O 65.1985 -3.85587 -4.20332 0
M  V30 749 O 64.1325 -5.28077 -2.88822 0
M  V30 750 H 67.9585 -2.99601 -0.497287 0
M  V30 751 H 65.5435 -1.48317 -0.179567 0
M  V30 752 H 67.4255 -3.00914 -2.95006 0
M  V30 753 H 66.1005 -1.84989 -2.65633 0
M  V30 754 H 65.0075 -3.57338 -1.10727 0
M  V30 755 H 66.3405 -4.6956 -1.47562 0
M  V30 756 N 67.9926 0.231505 -1.5589 0
M  V30 757 C 69.2406 0.955461 -1.78088 0
M  V30 758 C 69.5616 1.85262 -0.608533 0
M  V30 759 O 68.8316 1.92277 0.375035 0
M  V30 760 H 67.4116 0.355787 -0.656829 0
M  V30 761 H 70.0736 0.245751 -1.93344 0
M  V30 762 H 69.1696 1.56814 -2.69844 0
M  V30 763 N 69.4707 1.49531 0.497807 0
M  V30 764 C 70.7477 1.49682 1.25915 0
M  V30 765 C 71.1277 0.226339 2.09883 0
M  V30 766 O 70.4757 -0.791189 2.14365 0
M  V30 767 C 70.6857 2.77755 2.11313 0
M  V30 768 C 72.0337 3.27371 2.70395 0
M  V30 769 O 73.0577 2.78894 2.21578 0
M  V30 770 O 71.9167 4.11808 3.59272 0
M  V30 771 H 69.0107 0.599228 0.56996 0
M  V30 772 H 71.5567 1.61798 0.511816 0
M  V30 773 H 70.3287 3.61713 1.49264 0
M  V30 774 H 69.9517 2.68515 2.93233 0
M  V30 775 N 70.9488 -0.749086 1.3866 0
M  V30 776 C 72.1948 -1.51056 1.35314 0
M  V30 777 C 72.5278 -1.94121 -0.0553751 0
M  V30 778 O 71.8028 -1.65763 -1.01749 0
M  V30 779 C 72.0858 -2.76003 2.31288 0
M  V30 780 C 71.9388 -2.39047 3.8102 0
M  V30 781 C 73.2578 -3.78046 2.2532 0
M  V30 782 H 70.3768 -0.547972 0.492844 0
M  V30 783 H 73.0188 -0.857628 1.69543 0
M  V30 784 H 71.1688 -3.31716 2.02229 0
M  V30 785 H 72.8408 -1.89074 4.20771 0
M  V30 786 H 71.0838 -1.71449 3.98482 0
M  V30 787 H 71.7548 -3.28462 4.4364 0
M  V30 788 H 74.2308 -3.31884 2.50983 0
M  V30 789 H 73.1068 -4.63159 2.94576 0
M  V30 790 H 73.3678 -4.23957 1.25352 0
M  V30 791 N 72.4269 -1.23603 -0.977757 0
M  V30 792 C 73.6549 -1.09646 -1.75458 0
M  V30 793 C 74.0699 0.351859 -1.85492 0
M  V30 794 O 73.4269 1.24327 -1.336 0
M  V30 795 C 73.4779 -1.71895 -3.18016 0
M  V30 796 O 73.1989 -3.11063 -3.08498 0
M  V30 797 C 74.6999 -1.63415 -4.12081 0
M  V30 798 H 71.9199 -0.38359 -0.550545 0
M  V30 799 H 74.4639 -1.63507 -1.22824 0
M  V30 800 H 72.6189 -1.22061 -3.67668 0
M  V30 801 H 73.0329 -3.41305 -3.9826 0
M  V30 802 H 74.5069 -2.11669 -5.09804 0
M  V30 803 H 74.9839 -0.593462 -4.35172 0
M  V30 804 H 75.5899 -2.12628 -3.68334 0
M  V30 805 N 73.905 1.17692 -1.04816 0
M  V30 806 C 74.835 2.23777 -0.666791 0
M  V30 807 C 75.816 1.66796 0.33361 0
M  V30 808 O 77.001 1.93039 0.212042 0
M  V30 809 C 74.131 3.47281 -0.0367933 0
M  V30 810 C 73.085 4.17059 -0.961546 0
M  V30 811 C 72.411 5.34342 -0.195626 0
M  V30 812 C 73.711 4.69713 -2.28402 0
M  V30 813 H 75.405 2.55933 -1.55367 0
M  V30 814 H 72.951 1.23019 -0.748484 0
M  V30 815 H 74.904 4.20706 0.241775 0
M  V30 816 H 73.628 3.14381 0.885004 0
M  V30 817 H 72.287 3.45541 -1.22462 0
M  V30 818 H 71.935 4.97692 0.728816 0
M  V30 819 H 71.635 5.81966 -0.811775 0
M  V30 820 H 73.159 6.10553 0.0757473 0
M  V30 821 H 74.573 5.34794 -2.06563 0
M  V30 822 H 72.97 5.279 -2.8538 0
M  V30 823 H 74.04 3.86726 -2.92525 0
M  V30 824 N 75.3831 0.828654 1.34056 0
M  V30 825 C 76.6311 0.41863 1.97717 0
M  V30 826 C 76.9521 -1.02314 1.66002 0
M  V30 827 O 76.2221 -1.71119 0.953683 0
M  V30 828 H 74.8021 0.151809 0.731412 0
M  V30 829 H 77.4641 1.05936 1.63596 0
M  V30 830 H 76.5601 0.542318 3.07352 0
M  V30 831 N 76.8612 -1.46375 0.584142 0
M  V30 832 C 78.1092 -2.01978 0.0701287 0
M  V30 833 C 78.4302 -1.4579 -1.295 0
M  V30 834 O 77.7002 -0.64314 -1.85042 0
M  V30 835 H 76.2802 -0.746648 0.0229345 0
M  V30 836 H 78.9422 -1.79461 0.760245 0
M  V30 837 H 78.0382 -3.121 0.0022064 0
M  V30 838 N 78.3393 -0.321999 -1.54275 0
M  V30 839 C 79.2693 0.537411 -2.27231 0
M  V30 840 C 80.2503 1.12064 -1.27968 0
M  V30 841 O 81.4353 1.14606 -1.56777 0
M  V30 842 C 78.5653 1.69919 -3.02894 0
M  V30 843 C 77.5193 1.24534 -4.09482 0
M  V30 844 C 76.8453 2.49394 -4.72977 0
M  V30 845 C 78.1453 0.361335 -5.21049 0
M  V30 846 H 79.8393 -0.0711406 -2.99315 0
M  V30 847 H 77.3853 -0.0356555 -1.43956 0
M  V30 848 H 79.3383 2.30668 -3.52662 0
M  V30 849 H 78.0623 2.33431 -2.28424 0
M  V30 850 H 76.7213 0.660782 -3.60596 0
M  V30 851 H 76.3693 3.11265 -3.95124 0
M  V30 852 H 76.0693 2.19718 -5.44975 0
M  V30 853 H 77.5933 3.10908 -5.25517 0
M  V30 854 H 79.0073 0.875072 -5.66582 0
M  V30 855 H 77.4043 0.157428 -5.99893 0
M  V30 856 H 78.4743 -0.60822 -4.8107 0
M  V30 857 N 79.8174 1.5752 -0.0501392 0
M  V30 858 C 81.0644 1.9265 0.623874 0
M  V30 859 C 81.3924 0.928411 1.70912 0
M  V30 860 O 80.6474 -0.0594525 1.9561 0
M  V30 861 C 80.9464 3.34467 1.25963 0
M  V30 862 C 80.6124 4.49883 0.302689 0
M  V30 863 C 79.2744 4.81184 0.0393636 0
M  V30 864 C 81.6264 5.20002 -0.353205 0
M  V30 865 C 78.9544 5.79951 -0.887308 0
M  V30 866 C 81.3064 6.1976 -1.26806 0
M  V30 867 C 79.9704 6.49491 -1.54007 0
M  V30 868 H 79.2404 0.704957 0.228292 0
M  V30 869 H 81.8874 1.91146 -0.116398 0
M  V30 870 H 80.1924 3.32333 2.07514 0
M  V30 871 H 81.8894 3.58928 1.78806 0
M  V30 872 H 78.4794 4.25457 0.518109 0
M  V30 873 H 82.6634 4.96033 -0.162854 0
M  V30 874 H 77.9194 6.01322 -1.10553 0
M  V30 875 H 82.0934 6.73205 -1.78236 0
M  V30 876 H 79.7204 7.25837 -2.25976 0
M  V30 877 N 81.2955 -0.223234 1.56011 0
M  V30 878 C 82.7065 -0.790368 1.69145 0
M  V30 879 C 83.0575 -1.85055 0.651845 0
M  V30 880 O 82.1825 -2.15498 -0.197359 0
M  V30 881 C 82.7775 -1.4404 3.06656 0
M  V30 882 C 81.3365 -1.95494 3.2165 0
M  V30 883 C 80.4835 -0.814506 2.65068 0
M  V30 884 H 83.4345 0.00139011 1.587 0
M  V30 885 H 83.4555 -2.30916 3.0242 0
M  V30 886 H 82.9675 -0.668543 3.82298 0
M  V30 887 H 81.0685 -2.75487 2.50874 0
M  V30 888 H 81.1815 -2.13607 4.28846 0
M  V30 889 H 79.5455 -1.22137 2.23505 0
M  V30 890 H 80.3285 -0.0553515 3.43255 0
M  V30 891 N 82.7736 -1.49793 -0.48987 0
M  V30 892 C 84.0196 -1.60078 -1.24511 0
M  V30 893 C 84.3526 -0.291608 -1.91998 0
M  V30 894 O 83.6276 0.705647 -1.81248 0
M  V30 895 C 83.9106 -2.76791 -2.30345 0
M  V30 896 C 83.7636 -4.17535 -1.67286 0
M  V30 897 C 85.0826 -2.89111 -3.31817 0
M  V30 898 H 82.2016 -0.582645 -0.451324 0
M  V30 899 H 84.8436 -1.82117 -0.541612 0
M  V30 900 H 82.9936 -2.5813 -2.90346 0
M  V30 901 H 84.6656 -4.4774 -1.11026 0
M  V30 902 H 82.9086 -4.22665 -0.976577 0
M  V30 903 H 83.5796 -4.95094 -2.44103 0
M  V30 904 H 86.0556 -3.06133 -2.81819 0
M  V30 905 H 84.9316 -3.72433 -4.03219 0
M  V30 906 H 85.1926 -1.9893 -3.94815 0
M  V30 907 N 84.2517 0.741722 -1.39055 0
M  V30 908 C 85.2017 1.84661 -1.33732 0
M  V30 909 C 86.1857 1.59397 -0.219401 0
M  V30 910 O 87.3777 1.71015 -0.456375 0
M  V30 911 C 84.5067 3.22512 -1.17647 0
M  V30 912 C 83.5927 3.53628 -2.34112 0
M  V30 913 N 83.9837 3.55723 -3.59576 0
M  V30 914 C 82.2817 3.83956 -2.26923 0
M  V30 915 C 82.9827 3.84443 -4.36553 0
M  V30 916 N 81.9587 4.01877 -3.66055 0
M  V30 917 H 85.7607 1.84576 -2.28711 0
M  V30 918 H 83.2747 0.939647 -1.32455 0
M  V30 919 H 85.2717 4.01597 -1.11917 0
M  V30 920 H 83.9317 3.2384 -0.236124 0
M  V30 921 H 84.9427 3.37196 -3.93089 0
M  V30 922 H 81.6197 3.92929 -1.41113 0
M  V30 923 H 83.0097 3.92588 -5.45274 0
M  V30 924 N 85.7298 1.2412 0.971189 0
M  V30 925 C 86.6928 1.03156 2.04674 0
M  V30 926 C 87.6928 -0.00990322 1.60797 0
M  V30 927 O 88.8828 0.230729 1.72665 0
M  V30 928 C 86.0148 0.562765 3.36223 0
M  V30 929 H 87.2078 1.98614 2.24705 0
M  V30 930 H 84.7608 1.06293 1.14593 0
M  V30 931 H 85.4958 -0.395176 3.21883 0
M  V30 932 H 85.2808 1.31441 3.69413 0
M  V30 933 H 86.7708 0.437015 4.15307 0
M  V30 934 N 87.2079 -1.17134 1.05439 0
M  V30 935 C 88.1549 -2.21235 0.657539 0
M  V30 936 C 89.1249 -1.62551 -0.341543 0
M  V30 937 O 90.3099 -1.89379 -0.232393 0
M  V30 938 C 87.4499 -3.45076 0.0410575 0
M  V30 939 C 86.5629 -4.18042 1.08927 0
M  V30 940 C 85.6979 -5.29376 0.439848 0
M  V30 941 C 84.7369 -5.94132 1.4722 0
M  V30 942 N 83.8739 -6.96975 0.846756 0
M  V30 943 H 88.7139 -2.54534 1.54972 0
M  V30 944 H 86.2509 -1.25028 0.775006 0
M  V30 945 H 88.2089 -4.15862 -0.33383 0
M  V30 946 H 86.8389 -3.12353 -0.814568 0
M  V30 947 H 85.8909 -3.45945 1.58196 0
M  V30 948 H 87.2029 -4.62306 1.87282 0
M  V30 949 H 86.3569 -6.06699 0.0115125 0
M  V30 950 H 85.0959 -4.86251 -0.375656 0
M  V30 951 H 84.1009 -5.15538 1.91052 0
M  V30 952 H 85.3259 -6.39337 2.28965 0
M  V30 953 H 83.2719 -6.5598 0.0518075 0
M  V30 954 H 83.1889 -7.39565 1.5678 0
M  V30 955 H 84.4569 -7.78239 0.443277 0
M  V30 956 N 88.686 -0.835752 -1.33615 0
M  V30 957 C 89.934 -0.429109 -1.97492 0
M  V30 958 C 90.255 1.01433 -1.66543 0
M  V30 959 O 89.525 1.70611 -0.962744 0
M  V30 960 H 88.105 -0.155686 -0.730596 0
M  V30 961 H 90.767 -1.06802 -1.63031 0
M  V30 962 H 89.863 -0.55861 -3.0706 0
M  V30 963 N 90.1641 1.46063 -0.591896 0
M  V30 964 C 91.5751 1.85944 -0.167822 0
M  V30 965 C 91.9261 1.49429 1.27143 0
M  V30 966 O 91.0511 0.913515 1.96173 0
M  V30 967 C 91.6461 3.37489 -0.297794 0
M  V30 968 C 90.2051 3.76332 0.0714732 0
M  V30 969 C 89.3521 2.7006 -0.629509 0
M  V30 970 H 92.3031 1.37087 -0.799555 0
M  V30 971 H 92.3241 3.77532 0.474349 0
M  V30 972 H 91.8361 3.64034 -1.3454 0
M  V30 973 H 89.9371 3.55405 1.11886 0
M  V30 974 H 90.0501 4.78088 -0.311245 0
M  V30 975 H 88.4141 2.54607 -0.0687867 0
M  V30 976 H 89.1971 2.99444 -1.67894 0
M  V30 977 N 91.6422 0.330177 1.54103 0
M  V30 978 C 92.8672 -0.274893 2.0557 0
M  V30 979 C 93.2922 -1.44487 1.20437 0
M  V30 980 O 92.6502 -1.80021 0.214991 0
M  V30 981 C 92.6982 -0.68079 3.54115 0
M  V30 982 O 91.8022 -1.7824 3.71893 0
M  V30 983 H 91.1432 -0.0483849 0.662235 0
M  V30 984 H 93.6732 0.480508 1.98878 0
M  V30 985 H 93.6832 -0.961635 3.96505 0
M  V30 986 H 92.3582 0.174903 4.15532 0
M  V30 987 H 90.9352 -1.49985 3.41407 0
M  V30 988 N 93.1203 -1.57491 0.0584922 0
M  V30 989 C 94.3683 -1.92597 -0.612436 0
M  V30 990 C 94.6893 -0.938162 -1.70949 0
M  V30 991 O 93.9593 0.0158301 -1.95894 0
M  V30 992 H 92.5393 -0.710964 -0.229214 0
M  V30 993 H 95.2013 -1.94571 0.113218 0
M  V30 994 H 94.2973 -2.94038 -1.04633 0
M  V30 995 N 94.5984 0.214957 -1.56127 0
M  V30 996 C 95.8444 0.939762 -1.79712 0
M  V30 997 C 96.1774 1.83723 -0.629247 0
M  V30 998 O 95.4524 1.90925 0.371197 0
M  V30 999 C 95.7354 1.77306 -3.13424 0
M  V30 1000 C 95.5884 0.90164 -4.40671 0
M  V30 1001 C 96.9074 2.74956 -3.43638 0
M  V30 1002 H 94.0264 0.340214 -0.653776 0
M  V30 1003 H 96.6684 0.20824 -1.88855 0
M  V30 1004 H 94.8184 2.39673 -3.0576 0
M  V30 1005 H 96.4904 0.294206 -4.60361 0
M  V30 1006 H 94.7334 0.207368 -4.33304 0
M  V30 1007 H 95.4044 1.51923 -5.30682 0
M  V30 1008 H 97.8804 2.22724 -3.51473 0
M  V30 1009 H 96.7564 3.30358 -4.38355 0
M  V30 1010 H 97.0174 3.53023 -2.66134 0
M  V30 1011 N 96.0765 1.50051 0.48192 0
M  V30 1012 C 97.4875 1.5348 1.06305 0
M  V30 1013 C 97.8385 0.331997 1.93371 0
M  V30 1014 O 96.9635 -0.556256 2.09129 0
M  V30 1015 C 97.5585 2.7813 1.93466 0
M  V30 1016 C 96.1175 2.84275 2.46707 0
M  V30 1017 C 95.2645 2.47637 1.24785 0
M  V30 1018 H 98.2155 1.56472 0.264995 0
M  V30 1019 H 98.2365 2.59372 2.78399 0
M  V30 1020 H 97.7485 3.65654 1.30072 0
M  V30 1021 H 95.8495 2.01077 3.13686 0
M  V30 1022 H 95.9625 3.8691 2.82555 0
M  V30 1023 H 94.3265 1.99835 1.57918 0
M  V30 1024 H 95.1095 3.37457 0.630694 0
M  V30 1025 N 97.5546 -0.734337 1.39446 0
M  V30 1026 C 98.7946 -1.50655 1.38139 0
M  V30 1027 C 99.1586 -1.91986 -0.0228701 0
M  V30 1028 O 100.36 -2.68318 -0.160947 0
M  V30 1029 C 98.6306 -2.71251 2.32718 0
M  V30 1030 S 100.19 -3.60892 2.49605 0
M  V30 1031 H 97.0076 -0.515315 0.489869 0
M  V30 1032 H 99.6096 -0.860392 1.75549 0
M  V30 1033 H 98.3136 -2.39027 3.33608 0
M  V30 1034 H 97.8446 -3.40795 1.96526 0
M  V30 1035 H 99.8596 -4.64899 1.73446 0
M  V30 1036 N 99.0327 -1.24633 -0.964593 0
M  V30 1037 C 100.281 -1.08573 -1.70459 0
M  V30 1038 C 100.602 0.375655 -1.91347 0
M  V30 1039 O 99.8717 1.26779 -1.49345 0
M  V30 1040 H 98.4517 -0.398784 -0.631649 0
M  V30 1041 H 101.114 -1.56601 -1.16026 0
M  V30 1042 H 100.21 -1.58623 -2.68785 0
M  V30 1043 N 100.511 1.16574 -1.06058 0
M  V30 1044 C 101.788 1.83048 -0.689416 0
M  V30 1045 C 102.168 1.94122 0.829443 0
M  V30 1046 O 101.516 1.48249 1.7388 0
M  V30 1047 C 101.726 3.20186 -1.38859 0
M  V30 1048 C 103.074 3.95989 -1.53226 0
M  V30 1049 O 104.098 3.29696 -1.3483 0
M  V30 1050 O 102.957 5.14813 -1.83384 0
M  V30 1051 H 100.051 0.790258 -0.243764 0
M  V30 1052 H 102.597 1.23797 -1.16071 0
M  V30 1053 H 101.369 3.07146 -2.4244 0
M  V30 1054 H 100.992 3.87112 -0.907216 0
M  V30 1055 N 101.989 0.842826 1.3317 0
M  V30 1056 C 103.238 0.436738 1.96915 0
M  V30 1057 C 103.551 -1.01025 1.67491 0
M  V30 1058 O 104.757 -1.5212 2.24881 0
M  V30 1059 C 103.213 0.730021 3.52418 0
M  V30 1060 C 102.821 2.19195 3.90714 0
M  V30 1061 C 104.565 0.391076 4.22695 0
M  V30 1062 C 102.472 2.42907 5.39212 0
M  V30 1063 H 101.402 0.15958 0.736919 0
M  V30 1064 H 104.053 1.03196 1.51733 0
M  V30 1065 H 102.435 0.0643755 3.95948 0
M  V30 1066 H 103.609 2.8984 3.58231 0
M  V30 1067 H 101.924 2.49425 3.33431 0
M  V30 1068 H 104.521 0.545817 5.31907 0
M  V30 1069 H 104.864 -0.666294 4.10933 0
M  V30 1070 H 105.397 1.01212 3.84709 0
M  V30 1071 H 102.136 3.47224 5.55982 0
M  V30 1072 H 101.656 1.76827 5.73142 0
M  V30 1073 H 103.335 2.2626 6.06148 0
M  V30 1074 N 103.467 -1.45747 0.599634 0
M  V30 1075 C 104.414 -2.30467 -0.123849 0
M  V30 1076 C 105.384 -1.41632 -0.86774 0
M  V30 1077 O 106.569 -1.70568 -0.855056 0
M  V30 1078 C 103.709 -3.26402 -1.12051 0
M  V30 1079 C 102.822 -4.3034 -0.37832 0
M  V30 1080 C 101.957 -5.13389 -1.364 0
M  V30 1081 C 100.996 -6.09061 -0.609171 0
M  V30 1082 N 100.133 -6.84918 -1.54374 0
M  V30 1083 H 104.973 -2.91802 0.604627 0
M  V30 1084 H 102.51 -1.43797 0.309972 0
M  V30 1085 H 104.468 -3.80482 -1.7114 0
M  V30 1086 H 103.098 -2.66839 -1.8165 0
M  V30 1087 H 102.15 -3.78984 0.327929 0
M  V30 1088 H 103.462 -4.98354 0.210997 0
M  V30 1089 H 102.616 -5.7183 -2.02719 0
M  V30 1090 H 101.355 -4.45376 -1.98725 0
M  V30 1091 H 100.36 -5.49758 0.0676979 0
M  V30 1092 H 101.585 -6.79099 0.00891991 0
M  V30 1093 H 99.531 -6.19601 -2.15478 0
M  V30 1094 H 99.448 -7.49254 -1.00766 0
M  V30 1095 H 100.716 -7.47906 -2.19676 0
M  V30 1096 N 104.945 -0.338344 -1.53925 0
M  V30 1097 C 106.361 0.0137736 -1.59594 0
M  V30 1098 C 106.561 1.49186 -1.35447 0
M  V30 1099 O 105.617 2.24987 -1.14616 0
M  V30 1100 C 106.93 -0.41773 -2.97784 0
M  V30 1101 C 108.478 -0.369633 -3.1081 0
M  V30 1102 C 108.953 -0.776524 -4.51369 0
M  V30 1103 N 110.444 -0.730506 -4.57403 0
M  V30 1104 C 111.179 -1.01736 -5.64303 0
M  V30 1105 N 110.675 -1.3721 -6.79077 0
M  V30 1106 N 112.468 -0.941942 -5.54151 0
M  V30 1107 H 104.619 -1.3012 -1.67876 0
M  V30 1108 H 106.882 -0.530082 -0.78595 0
M  V30 1109 H 106.588 -1.44811 -3.20504 0
M  V30 1110 H 106.462 0.209729 -3.76616 0
M  V30 1111 H 108.849 0.651568 -2.87817 0
M  V30 1112 H 108.93 -1.03223 -2.34049 0
M  V30 1113 H 108.574 -1.79571 -4.75096 0
M  V30 1114 H 108.504 -0.0914649 -5.26521 0
M  V30 1115 H 110.995 -0.468783 -3.74981 0
M  V30 1116 H 111.308 -1.57597 -7.5656 0
M  V30 1117 H 109.653 -1.4105 -6.80536 0
M  V30 1118 H 112.844 -0.664184 -4.63364 0
M  V30 1119 H 113.017 -1.16884 -6.37371 0
M  V30 1120 N 106.423 1.57458 -0.0668435 0
M  V30 1121 C 107.333 2.15937 0.916975 0
M  V30 1122 C 108.349 1.12123 1.33058 0
M  V30 1123 O 109.525 1.44366 1.40429 0
M  V30 1124 C 106.59 2.70547 2.16807 0
M  V30 1125 C 105.651 3.89215 1.81135 0
M  V30 1126 C 104.884 4.41211 3.0028 0
M  V30 1127 O 105.107 3.92225 4.14144 0
M  V30 1128 O 104.041 5.32605 2.80384 0
M  V30 1129 H 107.867 3.00354 0.449561 0
M  V30 1130 H 105.452 1.48584 0.155949 0
M  V30 1131 H 107.334 3.0557 2.90181 0
M  V30 1132 H 106.009 1.89192 2.62656 0
M  V30 1133 H 104.916 3.59054 1.05028 0
M  V30 1134 H 106.249 4.71848 1.40073 0
M  V30 1135 N 107.901 -0.206675 1.56239 0
M  V30 1136 C 108.849 -1.27571 1.94495 0
M  V30 1137 C 109.843 -1.47737 0.828862 0
M  V30 1138 O 111.049 -1.48735 1.0138 0
M  V30 1139 H 107.424 -0.428029 0.6183 0
M  V30 1140 H 109.395 -0.925961 2.8367 0
M  V30 1141 C 108.144 -2.61568 2.29079 0
M  V30 1142 H 107.467 -2.46863 3.14482 0
M  V30 1143 H 108.907 -3.35144 2.5972 0
M  V30 1144 C 107.366 -3.17695 1.12123 0
M  V30 1145 O 107.896 -3.99801 0.390153 0
M  V30 1146 N 106.102 -2.76276 0.901097 0
M  V30 1147 H 105.649 -2.09613 1.49733 0
M  V30 1148 H 105.607 -3.1417 0.120319 0
M  V30 1149 N 109.379 -1.50304 -0.473955 0
M  V30 1150 C 110.627 -1.60832 -1.22382 0
M  V30 1151 C 110.948 -0.30939 -1.9253 0
M  V30 1152 O 110.218 0.67296 -1.83978 0
M  V30 1153 H 108.798 -0.592652 -0.454723 0
M  V30 1154 H 111.46 -1.87068 -0.546968 0
M  V30 1155 H 110.556 -2.41803 -1.97327 0
M  V30 1156 N 110.857 0.726932 -1.39834 0
M  V30 1157 C 112.106 1.48214 -1.36805 0
M  V30 1158 C 112.419 1.95576 0.0305291 0
M  V30 1159 O 113.625 2.7088 0.183417 0
M  V30 1160 C 112.081 2.67854 -2.40379 0
M  V30 1161 C 111.689 2.27408 -3.85992 0
M  V30 1162 C 113.433 3.45641 -2.46439 0
M  V30 1163 C 111.34 3.43819 -4.81189 0
M  V30 1164 H 110.27 0.556606 -0.508631 0
M  V30 1165 H 112.921 0.792216 -1.65518 0
M  V30 1166 H 111.303 3.3896 -2.04749 0
M  V30 1167 H 112.477 1.63795 -4.30706 0
M  V30 1168 H 110.792 1.62692 -3.83302 0
M  V30 1169 H 113.389 4.32244 -3.14753 0
M  V30 1170 H 113.732 3.88669 -1.49139 0
M  V30 1171 H 114.265 2.8157 -2.81004 0
M  V30 1172 H 111.004 3.05834 -5.79781 0
M  V30 1173 H 110.524 4.06385 -4.41148 0
M  V30 1174 H 112.203 4.10043 -5.00474 0
M  V30 1175 N 112.336 1.25143 0.95797 0
M  V30 1176 C 113.286 1.01924 2.0395 0
M  V30 1177 C 114.27 -0.0427175 1.60843 0
M  V30 1178 O 115.462 0.17221 1.7616 0
M  V30 1179 C 112.591 0.636373 3.3735 0
M  V30 1180 C 111.677 1.73492 3.8699 0
M  V30 1181 N 112.068 2.96945 4.0946 0
M  V30 1182 C 110.366 1.61467 4.15746 0
M  V30 1183 C 111.067 3.68228 4.50315 0
M  V30 1184 N 110.043 2.95833 4.56053 0
M  V30 1185 H 113.845 1.95653 2.19311 0
M  V30 1186 H 111.359 1.15413 1.14253 0
M  V30 1187 H 113.356 0.451233 4.14451 0
M  V30 1188 H 112.016 -0.293621 3.2337 0
M  V30 1189 H 113.027 3.33025 3.96629 0
M  V30 1190 H 109.704 0.753394 4.10646 0
M  V30 1191 H 111.094 4.74178 4.76031 0
M  V30 1192 N 113.814 -1.1601 1.06675 0
M  V30 1193 C 115.23 -1.38622 0.790948 0
M  V30 1194 C 115.43 -1.92109 -0.607965 0
M  V30 1195 O 114.486 -2.12239 -1.36787 0
M  V30 1196 C 115.799 -2.36347 1.85905 0
M  V30 1197 C 117.347 -2.50023 1.88301 0
M  V30 1198 C 117.822 -3.51033 2.94176 0
M  V30 1199 N 119.313 -3.58563 2.93235 0
M  V30 1200 C 120.048 -4.36521 3.71803 0
M  V30 1201 N 119.544 -5.17869 4.602 0
M  V30 1202 N 121.337 -4.31541 3.60178 0
M  V30 1203 H 113.488 -0.796294 1.96908 0
M  V30 1204 H 115.751 -0.412597 0.853503 0
M  V30 1205 H 115.457 -2.04147 2.86386 0
M  V30 1206 H 115.331 -3.36042 1.71334 0
M  V30 1207 H 117.718 -2.81524 0.884769 0
M  V30 1208 H 117.799 -1.5035 2.06951 0
M  V30 1209 H 117.443 -3.20268 3.94196 0
M  V30 1210 H 117.373 -4.50445 2.72776 0
M  V30 1211 H 119.864 -3.00496 2.29152 0
M  V30 1212 H 120.177 -5.74578 5.16797 0
M  V30 1213 H 118.522 -5.17199 4.64253 0
M  V30 1214 H 121.713 -3.67051 2.90502 0
M  V30 1215 H 121.886 -4.9205 4.21653 0
M  V30 1216 N 115.292 -0.849877 -1.32721 0
M  V30 1217 C 116.222 -0.306308 -2.31482 0
M  V30 1218 C 117.203 0.591952 -1.59468 0
M  V30 1219 O 118.388 0.513199 -1.87296 0
M  V30 1220 C 115.518 0.510204 -3.43532 0
M  V30 1221 C 114.472 -0.293209 -4.26994 0
M  V30 1222 C 113.798 0.647743 -5.30762 0
M  V30 1223 C 115.098 -1.51634 -4.99804 0
M  V30 1224 H 116.792 -1.13153 -2.77195 0
M  V30 1225 H 114.338 -0.545553 -1.33266 0
M  V30 1226 H 116.291 0.900856 -4.11658 0
M  V30 1227 H 115.015 1.36874 -2.96535 0
M  V30 1228 H 113.674 -0.665555 -3.60508 0
M  V30 1229 H 113.322 1.50299 -4.8002 0
M  V30 1230 H 113.022 0.11422 -5.87489 0
M  V30 1231 H 114.546 1.03567 -6.01753 0
M  V30 1232 H 115.96 -1.19824 -5.60638 0
M  V30 1233 H 114.357 -1.98745 -5.66234 0
M  V30 1234 H 115.427 -2.28018 -4.27943 0
M  V30 1235 N 116.77 1.45427 -0.607355 0
M  V30 1236 C 117.68 2.34325 0.113463 0
M  V30 1237 C 118.696 1.51226 0.860617 0
M  V30 1238 O 119.872 1.84029 0.818255 0
M  V30 1239 C 116.937 3.28839 1.09844 0
M  V30 1240 C 115.998 4.27844 0.353271 0
M  V30 1241 C 115.231 5.17842 1.29133 0
M  V30 1242 O 115.454 5.11264 2.52913 0
M  V30 1243 O 114.388 5.96713 0.788523 0
M  V30 1244 H 118.214 2.97364 -0.617094 0
M  V30 1245 H 115.799 1.44807 -0.367619 0
M  V30 1246 H 117.681 3.8708 1.66575 0
M  V30 1247 H 116.356 2.68365 1.81003 0
M  V30 1248 H 115.263 3.7322 -0.256494 0
M  V30 1249 H 116.596 4.91173 -0.317822 0
M  V30 1250 N 118.248 0.346503 1.53744 0
M  V30 1251 C 119.211 -0.496439 2.23759 0
M  V30 1252 C 120.211 -1.0252 1.2388 0
M  V30 1253 O 121.401 -0.913974 1.48297 0
M  V30 1254 C 118.533 -1.69187 2.95954 0
M  V30 1255 H 119.726 0.115952 2.99676 0
M  V30 1256 H 117.279 0.0978939 1.55993 0
M  V30 1257 H 118.014 -2.34288 2.24231 0
M  V30 1258 H 117.799 -1.31989 3.69217 0
M  V30 1259 H 119.289 -2.28969 3.49232 0
M  V30 1260 N 119.726 -1.57421 0.075193 0
M  V30 1261 C 120.659 -2.08528 -0.926904 0
M  V30 1262 C 121.637 -0.991171 -1.28898 0
M  V30 1263 O 122.821 -1.26479 -1.39769 0
M  V30 1264 C 119.948 -2.54576 -2.23402 0
M  V30 1265 C 118.994 -3.75454 -2.02327 0
M  V30 1266 S 119.827 -5.19989 -1.27951 0
M  V30 1267 C 120.983 -5.69372 -2.59935 0
M  V30 1268 H 121.216 -2.932 -0.492048 0
M  V30 1269 H 118.749 -1.53785 -0.137651 0
M  V30 1270 H 120.707 -2.81767 -2.98526 0
M  V30 1271 H 119.368 -1.70166 -2.64012 0
M  V30 1272 H 118.561 -4.05675 -2.99071 0
M  V30 1273 H 118.163 -3.48654 -1.35339 0
M  V30 1274 H 120.455 -5.76424 -3.56008 0
M  V30 1275 H 121.398 -6.68207 -2.34319 0
M  V30 1276 H 121.806 -4.97205 -2.67296 0
M  V30 1277 N 121.204 0.198386 -1.56346 0
M  V30 1278 C 122.134 1.24865 -1.9731 0
M  V30 1279 C 123.115 1.47651 -0.844576 0
M  V30 1280 O 124.3 1.59444 -1.10866 0
M  V30 1281 C 121.43 2.59358 -2.30977 0
M  V30 1282 C 120.384 2.5119 -3.46537 0
M  V30 1283 C 119.71 3.89926 -3.65871 0
M  V30 1284 C 121.01 2.03977 -4.80823 0
M  V30 1285 H 122.704 0.908252 -2.85291 0
M  V30 1286 H 120.25 0.435462 -1.37258 0
M  V30 1287 H 122.203 3.33011 -2.58228 0
M  V30 1288 H 120.927 2.95132 -1.39874 0
M  V30 1289 H 119.586 1.79993 -3.19371 0
M  V30 1290 H 119.234 4.23046 -2.72105 0
M  V30 1291 H 118.934 3.85336 -4.4361 0
M  V30 1292 H 120.458 4.65205 -3.95495 0
M  V30 1293 H 121.872 2.67386 -5.07127 0
M  V30 1294 H 120.269 2.10397 -5.62008 0
M  V30 1295 H 121.339 0.992861 -4.74626 0
M  V30 1296 N 122.682 1.50554 0.465978 0
M  V30 1297 C 123.912 1.65323 1.23903 0
M  V30 1298 C 124.32 0.338051 1.86155 0
M  V30 1299 O 123.663 -0.690518 1.70228 0
M  V30 1300 C 123.725 2.69048 2.3844 0
M  V30 1301 C 123.389 4.12462 1.96784 0
M  V30 1302 C 124.386 4.98168 1.48745 0
M  V30 1303 C 122.071 4.58407 2.05349 0
M  V30 1304 C 124.065 6.27868 1.0982 0
M  V30 1305 C 121.752 5.88112 1.66035 0
M  V30 1306 C 122.75 6.72668 1.18349 0
M  V30 1307 O 122.438 7.99951 0.795825 0
M  V30 1308 H 122.17 0.558629 0.38067 0
M  V30 1309 H 124.724 1.97561 0.562022 0
M  V30 1310 H 122.954 2.32062 3.09328 0
M  V30 1311 H 124.643 2.72985 3.0039 0
M  V30 1312 H 125.409 4.63885 1.41546 0
M  V30 1313 H 121.288 3.92735 2.41414 0
M  V30 1314 H 124.832 6.93819 0.725293 0
M  V30 1315 H 120.729 6.21914 1.72895 0
M  V30 1316 H 121.497 8.13265 0.924222 0
M  V30 1317 N 124.16 -0.719506 1.40217 0
M  V30 1318 C 125.123 -1.8153 1.39927 0
M  V30 1319 C 126.123 -1.58095 0.293723 0
M  V30 1320 O 127.313 -1.65209 0.552429 0
M  V30 1321 C 124.445 -3.19561 1.18716 0
M  V30 1322 H 125.638 -1.83186 2.37451 0
M  V30 1323 H 123.191 -0.924746 1.26008 0
M  V30 1324 H 123.926 -3.23557 0.219366 0
M  V30 1325 H 123.711 -3.3797 1.98793 0
M  V30 1326 H 125.201 -3.99598 1.21291 0
M  V30 1327 N 125.638 -1.25649 -0.95132 0
M  V30 1328 C 126.568 -1.08808 -2.06599 0
M  V30 1329 C 127.549 0.00382547 -1.701 0
M  V30 1330 O 128.734 -0.166325 -1.93486 0
M  V30 1331 C 125.864 -0.709542 -3.39975 0
M  V30 1332 C 124.818 -1.75206 -3.90496 0
M  V30 1333 C 124.144 -1.22811 -5.20405 0
M  V30 1334 C 125.444 -3.15153 -4.16504 0
M  V30 1335 H 127.138 -2.02048 -2.20946 0
M  V30 1336 H 124.684 -0.972835 -1.06169 0
M  V30 1337 H 126.637 -0.578649 -4.17408 0
M  V30 1338 H 125.361 0.258556 -3.25575 0
M  V30 1339 H 124.02 -1.87145 -3.15234 0
M  V30 1340 H 123.668 -0.250145 -5.02378 0
M  V30 1341 H 123.368 -1.92492 -5.55176 0
M  V30 1342 H 124.892 -1.10968 -6.00432 0
M  V30 1343 H 126.306 -3.06349 -4.84586 0
M  V30 1344 H 124.703 -3.82333 -4.62538 0
M  V30 1345 H 125.773 -3.61966 -3.22658 0
M  V30 1346 N 127.117 1.15442 -1.07289 0
M  V30 1347 C 128.394 1.82306 -0.708792 0
M  V30 1348 C 128.774 1.94991 0.808807 0
M  V30 1349 O 128.122 1.50085 1.72298 0
M  V30 1350 C 128.332 3.18695 -1.42247 0
M  V30 1351 C 129.68 3.94341 -1.57417 0
M  V30 1352 O 130.704 3.28247 -1.38319 0
M  V30 1353 O 129.563 5.12839 -1.88834 0
M  V30 1354 H 126.657 0.787628 -0.252132 0
M  V30 1355 H 129.203 1.22559 -1.17377 0
M  V30 1356 H 127.975 3.04557 -2.45684 0
M  V30 1357 H 127.598 3.86128 -0.948223 0
M  V30 1358 N 128.595 0.856903 1.32268 0
M  V30 1359 C 129.527 0.260412 2.27716 0
M  V30 1360 C 130.54 -0.569137 1.52528 0
M  V30 1361 O 131.729 -0.39326 1.74114 0
M  V30 1362 C 128.829 -0.650477 3.32599 0
M  V30 1363 C 128.002 0.14372 4.37164 0
M  V30 1364 C 127.061 -0.69328 5.21613 0
M  V30 1365 O 126.087 -0.12599 5.69061 0
M  V30 1366 N 127.289 -2.00761 5.44679 0
M  V30 1367 H 130.054 1.08059 2.79541 0
M  V30 1368 H 127.615 0.717103 1.45152 0
M  V30 1369 H 129.607 -1.21581 3.86005 0
M  V30 1370 H 128.177 -1.37133 2.80915 0
M  V30 1371 H 127.397 0.890486 3.8401 0
M  V30 1372 H 128.685 0.68915 5.04111 0
M  V30 1373 H 128.083 -2.49181 5.07863 0
M  V30 1374 H 126.64 -2.52103 6.01072 0
M  V30 1375 N 130.073 -1.45103 0.615059 0
M  V30 1376 C 131.322 -2.01396 0.110718 0
M  V30 1377 C 131.635 -1.48834 -1.26916 0
M  V30 1378 O 132.841 -1.97152 -1.86664 0
M  V30 1379 C 131.297 -3.59599 0.14723 0
M  V30 1380 C 130.905 -4.21158 1.52743 0
M  V30 1381 C 132.649 -4.23428 -0.30148 0
M  V30 1382 C 130.556 -5.71535 1.51992 0
M  V30 1383 H 129.486 -0.753061 0.0376241 0
M  V30 1384 H 132.137 -1.66494 0.77149 0
M  V30 1385 H 130.519 -3.91724 -0.580339 0
M  V30 1386 H 131.693 -4.00594 2.2773 0
M  V30 1387 H 130.008 -3.69552 1.91886 0
M  V30 1388 H 132.605 -5.33703 -0.326392 0
M  V30 1389 H 132.948 -3.94629 -1.32565 0
M  V30 1390 H 133.481 -3.96047 0.373065 0
M  V30 1391 H 130.22 -6.05044 2.52193 0
M  V30 1392 H 129.74 -5.94268 0.81274 0
M  V30 1393 H 131.419 -6.34873 1.24681 0
M  V30 1394 N 131.551 -0.354651 -1.53558 0
M  V30 1395 C 132.499 0.512195 -2.26891 0
M  V30 1396 C 133.493 1.09263 -1.29452 0
M  V30 1397 O 134.699 1.03709 -1.47121 0
M  V30 1398 H 131.074 0.183878 -0.729173 0
M  V30 1399 H 133.045 -0.128202 -2.98124 0
M  V30 1400 C 131.794 1.64563 -3.06291 0
M  V30 1401 H 131.117 1.20829 -3.81104 0
M  V30 1402 H 132.557 2.22711 -3.60799 0
M  V30 1403 C 131.016 2.58158 -2.16462 0
M  V30 1404 O 131.546 3.60695 -1.76811 0
M  V30 1405 N 129.752 2.27096 -1.81317 0
M  V30 1406 H 129.299 1.43751 -2.1376 0
M  V30 1407 H 129.257 2.89975 -1.21498 0
M  V30 1408 N 133.029 1.57378 -0.0835403 0
M  V30 1409 C 134.254 1.98682 0.594987 0
M  V30 1410 C 134.679 0.961969 1.61641 0
M  V30 1411 O 134.037 -0.0709989 1.81161 0
M  V30 1412 C 134.085 3.38988 1.2296 0
M  V30 1413 O 133.189 3.39208 2.34546 0
M  V30 1414 H 132.53 0.646368 0.152002 0
M  V30 1415 H 135.06 2.03961 -0.161533 0
M  V30 1416 H 135.07 3.76431 1.57366 0
M  V30 1417 H 133.745 4.13107 0.481228 0
M  V30 1418 H 132.322 3.13548 2.01846 0
M  V30 1419 N 134.507 -0.190092 1.56449 0
M  V30 1420 C 135.784 -0.935886 1.71757 0
M  V30 1421 C 136.164 -2.01173 0.639726 0
M  V30 1422 O 135.512 -2.25827 -0.348502 0
M  V30 1423 C 135.722 -1.51775 3.1427 0
M  V30 1424 C 137.07 -1.99794 3.74656 0
M  V30 1425 O 138.094 -1.61607 3.1743 0
M  V30 1426 O 136.953 -2.70079 4.751 0
M  V30 1427 H 134.047 -0.439229 0.700719 0
M  V30 1428 H 136.593 -0.179395 1.68749 0
M  V30 1429 H 135.365 -0.742505 3.84191 0
M  V30 1430 H 134.988 -2.33894 3.21527 0
M  V30 1431 N 135.985 -1.50799 -0.457987 0
M  V30 1432 C 137.396 -1.55152 -1.0385 0
M  V30 1433 C 137.747 -0.362719 -1.92818 0
M  V30 1434 O 136.872 0.522915 -2.09987 0
M  V30 1435 C 137.467 -2.81173 -1.89017 0
M  V30 1436 C 136.026 -2.88164 -2.42154 0
M  V30 1437 C 135.173 -2.49591 -1.20829 0
M  V30 1438 H 138.124 -1.56874 -0.240068 0
M  V30 1439 H 138.145 -2.63769 -2.74238 0
M  V30 1440 H 137.657 -3.67677 -1.24238 0
M  V30 1441 H 135.758 -2.06042 -3.10447 0
M  V30 1442 H 135.871 -3.91356 -2.76364 0
M  V30 1443 H 134.235 -2.02322 -1.54719 0
M  V30 1444 H 135.018 -3.38418 -0.576927 0
M  V30 1445 N 137.463 0.71206 -1.40597 0
M  V30 1446 C 138.411 1.84746 -1.41321 0
M  V30 1447 C 139.405 1.66842 -0.293268 0
M  V30 1448 O 140.611 1.73904 -0.464481 0
M  V30 1449 H 136.986 0.608522 -0.441819 0
M  V30 1450 H 138.957 1.81252 -2.37045 0
M  V30 1451 C 137.706 3.22638 -1.29614 0
M  V30 1452 H 137.029 3.37023 -2.15071 0
M  V30 1453 H 138.469 4.02209 -1.3418 0
M  V30 1454 C 136.928 3.36899 -0.00673121 0
M  V30 1455 O 137.458 3.90186 0.954859 0
M  V30 1456 N 135.664 2.9053 0.0639327 0
M  V30 1457 H 135.211 2.47353 -0.719311 0
M  V30 1458 H 135.169 3.0045 0.926118 0
M  V30 1459 N 138.941 1.26152 0.944643 0
M  V30 1460 C 139.871 1.09902 2.06019 0
M  V30 1461 C 140.852 0.00519538 1.70099 0
M  V30 1462 O 142.037 0.176583 1.93396 0
M  V30 1463 C 139.167 0.727562 3.39594 0
M  V30 1464 C 138.121 1.77274 3.89561 0
M  V30 1465 C 137.447 1.25569 5.19747 0
M  V30 1466 C 138.747 3.17357 4.14827 0
M  V30 1467 H 140.441 2.03217 2.19871 0
M  V30 1468 H 137.987 0.978452 1.05652 0
M  V30 1469 H 139.94 0.600777 4.17095 0
M  V30 1470 H 138.664 -0.241287 3.25707 0
M  V30 1471 H 137.323 1.88814 3.14237 0
M  V30 1472 H 136.971 0.276783 5.02238 0
M  V30 1473 H 136.671 1.95433 5.54148 0
M  V30 1474 H 138.195 1.1415 5.99835 0
M  V30 1475 H 139.609 3.08914 4.82954 0
M  V30 1476 H 138.006 3.84781 4.60504 0
M  V30 1477 H 139.076 3.63673 3.20734 0
M  V30 1478 N 140.419 -1.14872 1.07899 0
M  V30 1479 C 141.349 -2.2193 0.725887 0
M  V30 1480 C 142.33 -1.67622 -0.28927 0
M  V30 1481 O 143.515 -1.93533 -0.160787 0
M  V30 1482 C 140.645 -3.47061 0.128856 0
M  V30 1483 C 139.599 -4.14363 1.07178 0
M  V30 1484 C 138.925 -5.33636 0.337229 0
M  V30 1485 C 140.225 -4.63492 2.40775 0
M  V30 1486 H 141.919 -2.51724 1.62097 0
M  V30 1487 H 139.465 -1.20991 0.780838 0
M  V30 1488 H 141.418 -4.21199 -0.130147 0
M  V30 1489 H 140.142 -3.16617 -0.80134 0
M  V30 1490 H 138.801 -3.42173 1.3158 0
M  V30 1491 H 138.449 -4.99449 -0.596606 0
M  V30 1492 H 138.149 -5.79609 0.965788 0
M  V30 1493 H 139.673 -6.10539 0.0861567 0
M  V30 1494 H 141.087 -5.2913 2.20669 0
M  V30 1495 H 139.484 -5.20148 2.99276 0
M  V30 1496 H 140.554 -3.78834 3.02676 0
M  V30 1497 N 141.898 -0.863906 -1.31812 0
M  V30 1498 C 143.309 -0.52522 -1.7916 0
M  V30 1499 C 143.66 0.957518 -1.71248 0
M  V30 1500 O 142.785 1.74734 -1.27659 0
M  V30 1501 C 143.38 -0.9466 -3.25307 0
M  V30 1502 C 141.939 -0.659668 -3.70574 0
M  V30 1503 C 141.086 -1.14126 -2.52726 0
M  V30 1504 H 144.037 -1.05022 -1.1898 0
M  V30 1505 H 144.058 -0.266766 -3.79564 0
M  V30 1506 H 143.57 -2.02579 -3.31034 0
M  V30 1507 H 141.671 0.408416 -3.70355 0
M  V30 1508 H 141.784 -1.23245 -4.62977 0
M  V30 1509 H 140.148 -0.561216 -2.4844 0
M  V30 1510 H 140.931 -2.22775 -2.61201 0
M  V30 1511 N 143.376 1.44774 -0.622745 0
M  V30 1512 C 144.324 2.32387 0.0994683 0
M  V30 1513 C 145.318 1.46859 0.844326 0
M  V30 1514 O 146.524 1.63254 0.758174 0
M  V30 1515 H 142.899 0.750273 0.0509291 0
M  V30 1516 H 144.87 2.91062 -0.65767 0
M  V30 1517 C 143.619 3.30723 1.07319 0
M  V30 1518 H 142.942 3.96541 0.509462 0
M  V30 1519 H 144.382 3.94725 1.54817 0
M  V30 1520 C 142.841 2.59021 2.15429 0
M  V30 1521 O 143.371 2.38286 3.23393 0
M  V30 1522 N 141.577 2.189 1.91131 0
M  V30 1523 H 141.124 2.35964 1.03337 0
M  V30 1524 H 141.082 1.71251 2.63668 0
M  V30 1525 N 144.854 0.36279 1.53368 0
M  V30 1526 C 146.1 -0.228113 2.01513 0
M  V30 1527 C 146.433 -1.48648 1.2497 0
M  V30 1528 O 145.708 -1.91459 0.342616 0
M  V30 1529 C 145.991 -0.522884 3.56284 0
M  V30 1530 C 145.844 0.74892 4.43521 0
M  V30 1531 C 147.163 -1.32461 4.19693 0
M  V30 1532 H 144.282 -0.0814343 0.732487 0
M  V30 1533 H 146.924 0.48713 1.83649 0
M  V30 1534 H 145.074 -1.1322 3.71636 0
M  V30 1535 H 146.746 1.38648 4.39971 0
M  V30 1536 H 144.989 1.36986 4.11603 0
M  V30 1537 H 145.66 0.497667 5.49752 0
M  V30 1538 H 148.136 -0.809203 4.08156 0
M  V30 1539 H 147.012 -1.49961 5.28018 0
M  V30 1540 H 147.273 -2.33232 3.75573 0
M  V30 1541 N 146.332 -1.57332 0.0918853 0
M  V30 1542 C 147.56 -1.98574 -0.581048 0
M  V30 1543 C 147.975 -0.970903 -1.61923 0
M  V30 1544 O 147.332 0.0399054 -1.82456 0
M  V30 1545 C 147.383 -3.39872 -1.23164 0
M  V30 1546 O 147.104 -4.37469 -0.234989 0
M  V30 1547 C 148.605 -3.96099 -1.99049 0
M  V30 1548 H 145.825 -0.65261 -0.156018 0
M  V30 1549 H 148.369 -2.0379 0.170225 0
M  V30 1550 H 146.524 -3.35679 -1.93386 0
M  V30 1551 H 146.938 -5.19751 -0.70418 0
M  V30 1552 H 148.412 -4.97127 -2.39934 0
M  V30 1553 H 148.889 -3.3374 -2.85507 0
M  V30 1554 H 149.495 -4.03755 -1.3365 0
M  V30 1555 N 147.81 0.181792 -1.56548 0
M  V30 1556 C 148.74 1.22765 -1.98623 0
M  V30 1557 C 149.721 1.46747 -0.860189 0
M  V30 1558 O 150.906 1.58259 -1.12551 0
M  V30 1559 C 148.036 2.56894 -2.33715 0
M  V30 1560 C 146.99 2.475 -3.49182 0
M  V30 1561 C 146.316 3.86023 -3.69986 0
M  V30 1562 C 147.616 1.98866 -4.82959 0
M  V30 1563 H 149.31 0.877942 -2.86239 0
M  V30 1564 H 146.856 0.42088 -1.37712 0
M  V30 1565 H 148.809 3.30253 -2.61746 0
M  V30 1566 H 147.533 2.93632 -1.42997 0
M  V30 1567 H 146.192 1.76596 -3.21262 0
M  V30 1568 H 145.84 4.20136 -2.76576 0
M  V30 1569 H 145.54 3.80609 -4.47672 0
M  V30 1570 H 147.064 4.60984 -4.00407 0
M  V30 1571 H 148.478 2.61992 -5.09934 0
M  V30 1572 H 146.875 2.04424 -5.64208 0
M  V30 1573 H 147.945 0.942465 -4.75653 0
M  V30 1574 N 149.288 1.51039 0.449983 0
M  V30 1575 C 150.536 1.62759 1.19808 0
M  V30 1576 C 150.857 0.339981 1.92013 0
M  V30 1577 O 150.127 -0.643606 1.85026 0
M  V30 1578 H 148.707 0.599811 0.445237 0
M  V30 1579 H 151.369 1.87914 0.517138 0
M  V30 1580 H 150.465 2.44911 1.93455 0
M  V30 1581 N 150.766 -0.704594 1.40972 0
M  V30 1582 C 151.729 -1.80035 1.41845 0
M  V30 1583 C 152.729 -1.57774 0.310474 0
M  V30 1584 O 153.919 -1.64613 0.56992 0
M  V30 1585 C 151.051 -3.18284 1.22098 0
M  V30 1586 H 152.244 -1.80658 2.3938 0
M  V30 1587 H 149.797 -0.911329 1.26982 0
M  V30 1588 H 150.532 -3.23306 0.253672 0
M  V30 1589 H 150.317 -3.35843 2.02366 0
M  V30 1590 H 151.807 -3.98289 1.25522 0
M  V30 1591 N 152.244 -1.26651 -0.937939 0
M  V30 1592 C 153.66 -1.03834 -1.21205 0
M  V30 1593 C 153.86 0.234502 -2.00131 0
M  V30 1594 O 152.916 0.942767 -2.3424 0
M  V30 1595 C 154.229 -2.27167 -1.97017 0
M  V30 1596 C 155.777 -2.32101 -2.09996 0
M  V30 1597 C 156.252 -3.55136 -2.8921 0
M  V30 1598 N 157.743 -3.55632 -2.96783 0
M  V30 1599 C 158.478 -4.475 -3.58512 0
M  V30 1600 N 157.974 -5.4966 -4.21717 0
M  V30 1601 N 159.767 -4.35145 -3.55816 0
M  V30 1602 H 151.918 -2.08398 -0.410391 0
M  V30 1603 H 154.181 -0.916031 -0.244114 0
M  V30 1604 H 153.887 -3.19765 -1.46434 0
M  V30 1605 H 153.761 -2.31672 -2.97671 0
M  V30 1606 H 156.148 -1.40015 -2.59769 0
M  V30 1607 H 156.229 -2.31605 -1.08594 0
M  V30 1608 H 155.873 -4.47553 -2.40123 0
M  V30 1609 H 155.803 -3.5288 -3.90875 0
M  V30 1610 H 158.294 -2.81743 -2.51852 0
M  V30 1611 H 158.607 -6.15943 -4.66727 0
M  V30 1612 H 156.952 -5.53514 -4.20294 0
M  V30 1613 H 160.143 -3.5455 -3.05634 0
M  V30 1614 H 160.316 -5.06934 -4.03636 0
M  V30 1615 N 153.722 1.14298 -1.08507 0
M  V30 1616 C 154.971 1.84708 -0.810305 0
M  V30 1617 C 155.284 1.83903 0.666271 0
M  V30 1618 O 156.49 2.50112 1.05624 0
M  V30 1619 C 154.946 3.31572 -1.39957 0
M  V30 1620 C 154.554 3.40791 -2.90801 0
M  V30 1621 C 156.298 4.07087 -1.20334 0
M  V30 1622 C 154.205 4.81872 -3.4286 0
M  V30 1623 H 153.135 0.691985 -0.299454 0
M  V30 1624 H 155.786 1.28841 -1.30661 0
M  V30 1625 H 154.168 3.87183 -0.830976 0
M  V30 1626 H 155.342 2.95225 -3.53806 0
M  V30 1627 H 153.657 2.78732 -3.0935 0
M  V30 1628 H 156.254 5.11225 -1.56693 0
M  V30 1629 H 156.597 4.16054 -0.143237 0
M  V30 1630 H 157.13 3.57779 -1.73893 0
M  V30 1631 H 153.869 4.78094 -4.48449 0
M  V30 1632 H 153.389 5.27972 -2.84615 0
M  V30 1633 H 155.068 5.50765 -3.39509 0
M  V30 1634 N 155.201 0.870884 1.31352 0
M  V30 1635 C 156.131 0.343096 2.30966 0
M  V30 1636 C 157.112 -0.566507 1.60389 0
M  V30 1637 O 158.297 -0.483336 1.88089 0
M  V30 1638 C 155.427 -0.455487 3.443 0
M  V30 1639 C 154.381 0.361103 4.26474 0
M  V30 1640 C 153.707 -0.563221 5.31725 0
M  V30 1641 C 155.007 1.59566 4.97329 0
M  V30 1642 H 156.701 1.17548 2.75359 0
M  V30 1643 H 154.247 0.566686 1.32381 0
M  V30 1644 H 156.2 -0.83525 4.13039 0
M  V30 1645 H 154.924 -1.32139 2.98675 0
M  V30 1646 H 153.583 0.722825 3.59403 0
M  V30 1647 H 153.231 -1.42643 4.82351 0
M  V30 1648 H 152.931 -0.0207409 5.87596 0
M  V30 1649 H 154.455 -0.939808 6.03324 0
M  V30 1650 H 155.869 1.28728 5.58661 0
M  V30 1651 H 154.266 2.07728 5.63 0
M  V30 1652 H 155.336 2.34798 4.24262 0
M  V30 1653 N 156.679 -1.44442 0.630414 0
M  V30 1654 C 157.956 -1.9549 0.0655657 0
M  V30 1655 C 158.336 -1.5724 -1.40851 0
M  V30 1656 O 157.684 -0.846116 -2.12257 0
M  V30 1657 C 157.894 -3.47812 0.287691 0
M  V30 1658 C 159.242 -4.24216 0.180513 0
M  V30 1659 O 160.266 -3.55526 0.219019 0
M  V30 1660 O 159.125 -5.46434 0.0848493 0
M  V30 1661 H 156.219 -0.826688 -0.0227177 0
M  V30 1662 H 158.765 -1.54496 0.702068 0
M  V30 1663 H 157.537 -3.687 1.31056 0
M  V30 1664 H 157.16 -3.95751 -0.382984 0
M  V30 1665 N 158.157 -0.370918 -1.53173 0
M  V30 1666 C 159.385 0.217704 -2.05751 0
M  V30 1667 C 159.8 1.42018 -1.24404 0
M  V30 1668 O 159.157 1.80245 -0.286033 0
M  V30 1669 C 159.208 0.605954 -3.56385 0
M  V30 1670 O 158.929 -0.548734 -4.3465 0
M  V30 1671 C 160.43 1.2524 -4.25241 0
M  V30 1672 H 157.65 0.0371659 -0.66997 0
M  V30 1673 H 160.194 -0.530832 -1.9749 0
M  V30 1674 H 158.349 1.3044 -3.6478 0
M  V30 1675 H 158.763 -0.23376 -5.23979 0
M  V30 1676 H 160.237 1.47458 -5.3194 0
M  V30 1677 H 160.714 2.2143 -3.79296 0
M  V30 1678 H 161.32 0.595233 -4.21114 0
M  V30 1679 N 159.635 1.57281 -0.100228 0
M  V30 1680 C 160.875 1.96419 0.56558 0
M  V30 1681 C 161.239 0.981265 1.65031 0
M  V30 1682 O 162.44 1.26133 2.37369 0
M  V30 1683 C 160.711 3.39996 1.10171 0
M  V30 1684 S 162.27 4.01134 1.77867 0
M  V30 1685 H 159.088 0.68667 0.184406 0
M  V30 1686 H 161.69 1.94662 -0.180851 0
M  V30 1687 H 160.394 4.09296 0.300803 0
M  V30 1688 H 159.925 3.45361 1.88385 0
M  V30 1689 H 161.94 3.90358 3.06326 0
M  V30 1690 N 161.113 -0.173488 1.56642 0
M  V30 1691 C 162.338 -0.910149 1.86363 0
M  V30 1692 C 162.763 -1.75132 0.686318 0
M  V30 1693 O 162.121 -1.77595 -0.364643 0
M  V30 1694 C 162.169 -1.76447 3.14482 0
M  V30 1695 O 161.273 -2.86584 2.96553 0
M  V30 1696 H 160.614 -0.255086 0.613047 0
M  V30 1697 H 163.144 -0.172283 2.03873 0
M  V30 1698 H 163.154 -2.16483 3.45831 0
M  V30 1699 H 161.829 -1.14658 3.99783 0
M  V30 1700 H 160.406 -2.50146 2.76553 0
M  V30 1701 N 162.591 -1.51276 -0.441967 0
M  V30 1702 C 164.007 -1.39349 -0.778083 0
M  V30 1703 C 164.207 -0.472212 -1.95889 0
M  V30 1704 O 163.263 0.0743551 -2.5239 0
M  V30 1705 C 164.576 -2.81292 -1.0628 0
M  V30 1706 C 166.124 -2.9041 -1.16751 0
M  V30 1707 C 166.599 -4.33251 -1.48519 0
M  V30 1708 N 168.09 -4.36336 -1.55453 0
M  V30 1709 C 168.825 -5.43885 -1.81596 0
M  V30 1710 N 168.321 -6.61601 -2.05562 0
M  V30 1711 N 170.114 -5.3136 -1.8334 0
M  V30 1712 H 162.265 -2.09729 0.335774 0
M  V30 1713 H 164.528 -0.943925 0.0878028 0
M  V30 1714 H 164.234 -3.50678 -0.267905 0
M  V30 1715 H 164.108 -3.20334 -1.99163 0
M  V30 1716 H 166.495 -2.21225 -1.95304 0
M  V30 1717 H 166.576 -2.54871 -0.217801 0
M  V30 1718 H 166.22 -5.02984 -0.704958 0
M  V30 1719 H 166.15 -4.66299 -2.44689 0
M  V30 1720 H 168.641 -3.51466 -1.38853 0
M  V30 1721 H 168.954 -7.39361 -2.24867 0
M  V30 1722 H 167.299 -6.64725 -2.02894 0
M  V30 1723 H 170.49 -4.38382 -1.64132 0
M  V30 1724 H 170.663 -6.15258 -2.03377 0
M  V30 1725 N 164.069 0.697108 -1.41344 0
M  V30 1726 C 165.346 1.45154 -1.31109 0
M  V30 1727 C 165.726 2.11009 0.0620449 0
M  V30 1728 O 165.074 2.01571 1.07618 0
M  V30 1729 C 165.284 2.47223 -2.46337 0
M  V30 1730 C 166.632 3.1252 -2.87431 0
M  V30 1731 O 167.656 2.57547 -2.46065 0
M  V30 1732 O 166.515 4.12083 -3.58957 0
M  V30 1733 H 163.609 0.646365 -0.515889 0
M  V30 1734 H 166.155 0.727716 -1.53305 0
M  V30 1735 H 164.927 1.97204 -3.37974 0
M  V30 1736 H 164.55 3.27116 -2.2601 0
M  V30 1737 N 165.547 1.27147 0.931209 0
M  V30 1738 C 166.775 1.16082 1.71267 0
M  V30 1739 C 167.19 -0.282772 1.8667 0
M  V30 1740 O 166.547 -1.19283 1.38122 0
M  V30 1741 C 166.598 1.8358 3.11417 0
M  V30 1742 O 166.319 3.22299 2.96741 0
M  V30 1743 C 167.82 1.78597 4.05732 0
M  V30 1744 H 165.04 0.403758 0.535929 0
M  V30 1745 H 167.584 1.67953 1.16671 0
M  V30 1746 H 165.739 1.35623 3.62885 0
M  V30 1747 H 166.153 3.55851 3.85319 0
M  V30 1748 H 167.627 2.30444 5.01597 0
M  V30 1749 H 168.104 0.754564 4.3267 0
M  V30 1750 H 168.71 2.26152 3.60188 0
M  V30 1751 N 167.025 -1.13721 1.09112 0
M  V30 1752 C 168.255 -1.88499 0.845671 0
M  V30 1753 C 168.663 -1.79218 -0.606432 0
M  V30 1754 O 168.006 -1.1544 -1.42896 0
M  V30 1755 C 168.068 -3.38954 1.19793 0
M  V30 1756 C 167.732 -3.72018 2.65428 0
M  V30 1757 C 168.729 -3.7153 3.63677 0
M  V30 1758 C 166.414 -4.01775 3.01467 0
M  V30 1759 C 168.408 -4.00336 4.95994 0
M  V30 1760 C 166.095 -4.30243 4.33975 0
M  V30 1761 C 167.093 -4.29508 5.31048 0
M  V30 1762 O 166.781 -4.5728 6.61173 0
M  V30 1763 H 166.513 -0.603702 0.304171 0
M  V30 1764 H 169.067 -1.44903 1.45576 0
M  V30 1765 H 167.297 -3.83039 0.530871 0
M  V30 1766 H 168.986 -3.95052 0.932146 0
M  V30 1767 H 169.752 -3.4862 3.37179 0
M  V30 1768 H 165.631 -4.01496 2.26544 0
M  V30 1769 H 169.175 -3.99678 5.71755 0
M  V30 1770 H 165.072 -4.52625 4.60219 0
M  V30 1771 H 165.84 -4.74964 6.66597 0
M  V30 1772 N 168.503 -0.877838 -1.30888 0
M  V30 1773 C 169.466 -0.344265 -2.266 0
M  V30 1774 C 170.466 0.50922 -1.52524 0
M  V30 1775 O 171.656 0.317398 -1.71284 0
M  V30 1776 C 168.788 0.510198 -3.37061 0
M  V30 1777 H 169.981 -1.1893 -2.7531 0
M  V30 1778 H 167.534 -0.654088 -1.41956 0
M  V30 1779 H 168.269 1.37612 -2.93655 0
M  V30 1780 H 168.054 -0.101047 -3.9197 0
M  V30 1781 H 169.544 0.875537 -4.08319 0
M  V30 1782 N 169.982 1.44106 -0.638065 0
M  V30 1783 C 170.912 2.33448 0.0494287 0
M  V30 1784 C 171.893 1.48606 0.827672 0
M  V30 1785 O 173.078 1.77308 0.792173 0
M  V30 1786 C 170.208 3.31771 1.02691 0
M  V30 1787 C 169.162 4.26485 0.359823 0
M  V30 1788 C 168.488 5.14729 1.44769 0
M  V30 1789 C 169.788 5.17056 -0.738296 0
M  V30 1790 H 171.482 2.91183 -0.696636 0
M  V30 1791 H 169.028 1.40014 -0.336456 0
M  V30 1792 H 170.981 3.93161 1.51666 0
M  V30 1793 H 169.705 2.7226 1.80395 0
M  V30 1794 H 168.364 3.66437 -0.10934 0
M  V30 1795 H 168.012 4.51566 2.21578 0
M  V30 1796 H 167.712 5.78913 1.00668 0
M  V30 1797 H 169.236 5.78991 1.93911 0
M  V30 1798 H 170.65 5.72342 -0.331354 0
M  V30 1799 H 169.047 5.89879 -1.10286 0
M  V30 1800 H 170.117 4.57652 -1.60258 0
M  V30 1801 N 171.46 0.379036 1.52974 0
M  V30 1802 C 172.37 -0.468639 2.29872 0
M  V30 1803 C 173.386 -1.08067 1.36373 0
M  V30 1804 O 174.562 -1.08871 1.69438 0
M  V30 1805 C 171.627 -1.58594 3.083 0
M  V30 1806 C 170.688 -1.00007 4.17489 0
M  V30 1807 C 169.921 -2.06413 4.92168 0
M  V30 1808 O 170.144 -3.27751 4.66835 0
M  V30 1809 O 169.078 -1.68717 5.7777 0
M  V30 1810 H 172.904 0.157508 3.03291 0
M  V30 1811 H 170.489 0.143035 1.48714 0
M  V30 1812 H 172.371 -2.23525 3.57232 0
M  V30 1813 H 171.046 -2.19724 2.37703 0
M  V30 1814 H 169.953 -0.314299 3.72777 0
M  V30 1815 H 171.286 -0.433135 4.90291 0
M  V30 1816 N 172.938 -1.57226 0.108567 0
M  V30 1817 C 173.87 -2.11809 -0.875752 0
M  V30 1818 C 174.883 -1.05839 -1.23701 0
M  V30 1819 O 176.072 -1.33245 -1.18778 0
M  V30 1820 C 173.172 -2.59411 -2.18081 0
M  V30 1821 C 172.345 -3.89364 -1.99284 0
M  V30 1822 C 171.404 -4.22672 -3.13424 0
M  V30 1823 O 170.43 -4.91668 -2.86795 0
M  V30 1824 N 171.632 -3.79154 -4.3957 0
M  V30 1825 H 174.397 -2.9689 -0.409477 0
M  V30 1826 H 171.958 -1.61721 -0.076158 0
M  V30 1827 H 173.95 -2.7873 -2.93414 0
M  V30 1828 H 172.52 -1.79268 -2.5609 0
M  V30 1829 H 171.74 -3.79059 -1.08203 0
M  V30 1830 H 173.028 -4.74358 -1.84017 0
M  V30 1831 H 172.426 -3.23486 -4.64083 0
M  V30 1832 H 170.983 -4.03602 -5.11809 0
M  V30 1833 N 174.416 0.165178 -1.56732 0
M  V30 1834 C 175.641 0.900253 -1.86843 0
M  V30 1835 C 176.066 1.74766 -0.695596 0
M  V30 1836 O 175.424 1.77786 0.35522 0
M  V30 1837 C 175.472 1.74777 -3.15413 0
M  V30 1838 O 174.576 2.85007 -2.98068 0
M  V30 1839 H 173.917 0.251832 -0.614391 0
M  V30 1840 H 176.447 0.161468 -2.03962 0
M  V30 1841 H 176.457 2.14646 -3.46974 0
M  V30 1842 H 175.132 1.12537 -4.00385 0
M  V30 1843 H 173.709 2.48676 -2.77875 0
M  V30 1844 N 175.894 1.51508 0.433938 0
M  V30 1845 C 176.824 1.76016 1.53429 0
M  V30 1846 C 177.805 0.610112 1.58782 0
M  V30 1847 O 178.99 0.853177 1.74455 0
M  V30 1848 C 176.12 1.88831 2.9148 0
M  V30 1849 C 175.074 3.04288 3.00987 0
M  V30 1850 C 174.4 3.0229 4.4105 0
M  V30 1851 C 175.7 4.44193 2.74754 0
M  V30 1852 H 177.394 2.68152 1.33171 0
M  V30 1853 H 174.94 1.29035 0.639214 0
M  V30 1854 H 176.893 2.04559 3.6842 0
M  V30 1855 H 175.617 0.933455 3.12976 0
M  V30 1856 H 174.276 2.8827 2.26486 0
M  V30 1857 H 173.924 2.04576 4.59519 0
M  V30 1858 H 173.624 3.79822 4.4834 0
M  V30 1859 H 175.148 3.20116 5.1996 0
M  V30 1860 H 176.562 4.60544 3.41426 0
M  V30 1861 H 174.959 5.23457 2.9345 0
M  V30 1862 H 176.029 4.53996 1.70339 0
M  V30 1863 N 177.372 -0.689602 1.41712 0
M  V30 1864 C 178.6 -1.47827 1.44758 0
M  V30 1865 C 179.015 -1.88721 0.0545703 0
M  V30 1866 O 178.372 -1.57176 -0.927463 0
M  V30 1867 C 178.423 -2.73698 2.3616 0
M  V30 1868 O 178.144 -2.34524 3.7004 0
M  V30 1869 C 179.645 -3.67389 2.48072 0
M  V30 1870 H 176.865 -0.455357 0.49284 0
M  V30 1871 H 179.409 -0.848574 1.86063 0
M  V30 1872 H 177.564 -3.32891 1.98148 0
M  V30 1873 H 177.978 -3.15701 4.18847 0
M  V30 1874 H 179.452 -4.52475 3.16181 0
M  V30 1875 H 179.929 -4.12284 1.51388 0
M  V30 1876 H 180.535 -3.14097 2.86746 0
M  V30 1877 N 178.85 -1.27639 -0.924453 0
M  V30 1878 C 180.097 -1.14167 -1.67249 0
M  V30 1879 C 180.425 0.311863 -1.91984 0
M  V30 1880 O 179.68 1.24425 -1.51053 0
M  V30 1881 C 179.979 -1.87407 -3.04325 0
M  V30 1882 C 179.645 -3.37249 -2.99289 0
M  V30 1883 C 178.307 -3.7812 -2.97622 0
M  V30 1884 C 180.659 -4.32845 -2.90336 0
M  V30 1885 C 177.987 -5.12944 -2.8479 0
M  V30 1886 C 180.339 -5.6773 -2.79045 0
M  V30 1887 C 179.003 -6.07889 -2.7573 0
M  V30 1888 H 178.273 -0.417766 -0.612007 0
M  V30 1889 H 180.92 -1.58286 -1.07786 0
M  V30 1890 H 179.225 -1.35805 -3.67511 0
M  V30 1891 H 180.922 -1.74408 -3.61086 0
M  V30 1892 H 177.512 -3.04748 -3.01374 0
M  V30 1893 H 181.696 -4.02239 -2.90719 0
M  V30 1894 H 176.952 -5.432 -2.80612 0
M  V30 1895 H 181.126 -6.41472 -2.71083 0
M  V30 1896 H 178.753 -7.12314 -2.65544 0
M  V30 1897 N 180.328 1.1314 -1.09713 0
M  V30 1898 C 181.574 1.84757 -0.836224 0
M  V30 1899 C 181.907 1.8347 0.636598 0
M  V30 1900 O 181.182 1.27491 1.46889 0
M  V30 1901 C 181.465 3.32782 -1.37578 0
M  V30 1902 C 181.318 3.42567 -2.91493 0
M  V30 1903 C 182.637 4.28307 -1.01198 0
M  V30 1904 H 179.756 0.67082 -0.305236 0
M  V30 1905 H 182.398 1.3278 -1.35903 0
M  V30 1906 H 180.548 3.77177 -0.931097 0
M  V30 1907 H 182.22 3.06862 -3.44432 0
M  V30 1908 H 180.463 2.83349 -3.28475 0
M  V30 1909 H 181.134 4.46674 -3.24324 0
M  V30 1910 H 183.61 3.91999 -1.39556 0
M  V30 1911 H 182.486 5.30307 -1.41653 0
M  V30 1912 H 182.747 4.42029 0.0794833 0
M  V30 1913 N 181.806 0.884767 1.30421 0
M  V30 1914 C 182.738 0.308655 2.27112 0
M  V30 1915 C 183.751 -0.536655 1.53701 0
M  V30 1916 O 184.94 -0.35624 1.74909 0
M  V30 1917 C 182.04 -0.579782 3.33904 0
M  V30 1918 C 181.213 0.236417 4.36761 0
M  V30 1919 C 180.272 -0.582482 5.22966 0
M  V30 1920 O 179.298 -0.00525502 5.692 0
M  V30 1921 N 180.5 -1.89163 5.48815 0
M  V30 1922 H 183.265 1.13964 2.77186 0
M  V30 1923 H 180.826 0.747731 1.43599 0
M  V30 1924 H 182.818 -1.13366 3.88497 0
M  V30 1925 H 181.388 -1.31144 2.83761 0
M  V30 1926 H 180.608 0.97174 3.82035 0
M  V30 1927 H 181.896 0.795924 5.02536 0
M  V30 1928 H 181.294 -2.38352 5.13035 0
M  V30 1929 H 179.851 -2.39296 6.06284 0
M  V30 1930 N 183.284 -1.43765 0.645699 0
M  V30 1931 C 184.247 -2.29163 -0.0409488 0
M  V30 1932 C 185.247 -1.41813 -0.757996 0
M  V30 1933 O 186.437 -1.63527 -0.600382 0
M  V30 1934 C 183.569 -3.23716 -1.06869 0
M  V30 1935 H 184.762 -2.91366 0.710345 0
M  V30 1936 H 182.315 -1.5092 0.406547 0
M  V30 1937 H 183.05 -2.66393 -1.84947 0
M  V30 1938 H 182.835 -3.88105 -0.558277 0
M  V30 1939 H 184.325 -3.87831 -1.54845 0
M  V30 1940 N 184.763 -0.387143 -1.52771 0
M  V30 1941 C 185.693 0.440551 -2.29306 0
M  V30 1942 C 186.674 1.06535 -1.32606 0
M  V30 1943 O 187.859 1.07853 -1.61497 0
M  V30 1944 C 184.989 1.56919 -3.09829 0
M  V30 1945 C 183.943 1.07054 -4.14395 0
M  V30 1946 C 183.269 2.29109 -4.83129 0
M  V30 1947 C 184.569 0.140015 -5.22112 0
M  V30 1948 H 186.263 -0.198026 -2.98744 0
M  V30 1949 H 183.809 -0.09668 -1.43675 0
M  V30 1950 H 185.762 2.15503 -3.62128 0
M  V30 1951 H 184.486 2.23532 -2.3812 0
M  V30 1952 H 183.145 0.507247 -3.63074 0
M  V30 1953 H 182.793 2.94227 -4.0797 0
M  V30 1954 H 182.493 1.96406 -5.53804 0
M  V30 1955 H 184.017 2.88339 -5.38231 0
M  V30 1956 H 185.431 0.633978 -5.69784 0
M  V30 1957 H 183.828 -0.0971485 -6.00021 0
M  V30 1958 H 184.898 -0.811711 -4.78058 0
M  V30 1959 N 186.241 1.57166 -0.116904 0
M  V30 1960 C 187.49 1.94298 0.541407 0
M  V30 1961 C 187.803 1.00236 1.67964 0
M  V30 1962 O 189.009 1.26826 2.40057 0
M  V30 1963 C 187.465 3.45306 1.01449 0
M  V30 1964 C 187.073 4.47899 -0.0951738 0
M  V30 1965 C 188.817 3.91361 1.6443 0
M  V30 1966 C 186.724 5.90083 0.394491 0
M  V30 1967 H 185.654 0.725308 0.206019 0
M  V30 1968 H 188.305 1.82446 -0.196419 0
M  V30 1969 H 186.687 3.52385 1.80667 0
M  V30 1970 H 187.861 4.52486 -0.871374 0
M  V30 1971 H 186.176 4.11583 -0.631505 0
M  V30 1972 H 188.773 4.95004 2.02176 0
M  V30 1973 H 189.116 3.3122 2.52189 0
M  V30 1974 H 189.649 3.87073 0.917559 0
M  V30 1975 H 186.388 6.53974 -0.447004 0
M  V30 1976 H 185.908 5.88921 1.13722 0
M  V30 1977 H 187.587 6.41307 0.856399 0
M  V30 1978 N 187.719 -0.156864 1.56817 0
M  V30 1979 C 188.651 -1.21883 1.94106 0
M  V30 1980 C 189.664 -1.3971 0.835754 0
M  V30 1981 O 190.853 -1.39457 1.11418 0
M  V30 1982 C 187.953 -2.58527 2.19127 0
M  V30 1983 C 187.126 -2.61809 3.50393 0
M  V30 1984 C 186.185 -3.7992 3.64071 0
M  V30 1985 O 185.211 -3.65249 4.36557 0
M  V30 1986 N 186.413 -4.96973 2.99997 0
M  V30 1987 H 189.178 -0.901974 2.85805 0
M  V30 1988 H 186.739 -0.346513 1.58148 0
M  V30 1989 H 188.731 -3.36034 2.25529 0
M  V30 1990 H 187.301 -2.82545 1.33742 0
M  V30 1991 H 186.521 -1.7029 3.5552 0
M  V30 1992 H 187.809 -2.61024 4.36742 0
M  V30 1993 H 187.207 -5.11794 2.41004 0
M  V30 1994 H 185.764 -5.7229 3.11974 0
M  V30 1995 N 189.197 -1.51736 -0.425897 0
M  V30 1996 C 190.144 -1.73875 -1.51776 0
M  V30 1997 C 191.114 -0.580702 -1.55618 0
M  V30 1998 O 192.299 -0.81641 -1.72451 0
M  V30 1999 C 189.439 -1.88012 -2.89388 0
M  V30 2000 C 188.552 -3.15606 -2.94986 0
M  V30 2001 C 187.687 -3.20271 -4.23793 0
M  V30 2002 C 186.726 -4.42134 -4.23302 0
M  V30 2003 N 185.863 -4.44284 -5.43651 0
M  V30 2004 H 190.703 -2.67071 -1.32201 0
M  V30 2005 H 188.24 -1.32351 -0.642008 0
M  V30 2006 H 190.198 -1.9419 -3.69251 0
M  V30 2007 H 188.828 -0.98213 -3.07496 0
M  V30 2008 H 187.88 -3.18681 -2.07717 0
M  V30 2009 H 189.192 -4.05486 -2.90486 0
M  V30 2010 H 188.346 -3.25428 -5.12036 0
M  V30 2011 H 187.085 -2.28299 -4.30965 0
M  V30 2012 H 186.09 -4.3714 -3.3345 0
M  V30 2013 H 187.315 -5.35382 -4.17783 0
M  V30 2014 H 185.261 -3.55188 -5.51523 0
M  V30 2015 H 185.178 -5.27988 -5.41078 0
M  V30 2016 H 186.446 -4.53649 -6.33895 0
M  V30 2017 N 190.675 0.682077 -1.42076 0
M  V30 2018 C 191.952 1.43755 -1.32642 0
M  V30 2019 C 192.332 2.11063 0.0396611 0
M  V30 2020 O 191.68 2.02701 1.05474 0
M  V30 2021 C 191.89 2.44596 -2.48946 0
M  V30 2022 C 193.238 3.09454 -2.9073 0
M  V30 2023 O 194.262 2.54922 -2.48783 0
M  V30 2024 O 193.121 4.08253 -3.63307 0
M  V30 2025 H 190.215 0.640857 -0.522715 0
M  V30 2026 H 192.761 0.711415 -1.54068 0
M  V30 2027 H 191.533 1.93609 -3.40046 0
M  V30 2028 H 191.156 3.24701 -2.29467 0
M  V30 2029 N 192.153 1.28127 0.917671 0
M  V30 2030 C 193.381 1.17892 1.70026 0
M  V30 2031 C 193.796 -0.262958 1.8696 0
M  V30 2032 O 193.153 -1.17811 1.3938 0
M  V30 2033 C 193.204 1.86872 3.09453 0
M  V30 2034 O 192.925 3.25428 2.93306 0
M  V30 2035 C 194.426 1.8289 4.03815 0
M  V30 2036 H 191.646 0.40942 0.531617 0
M  V30 2037 H 194.19 1.69181 1.14883 0
M  V30 2038 H 192.345 1.39464 3.61426 0
M  V30 2039 H 192.759 3.59918 3.81523 0
M  V30 2040 H 194.233 2.35751 4.99125 0
M  V30 2041 H 194.71 0.800412 4.31845 0
M  V30 2042 H 195.316 2.29959 3.57769 0
M  V30 2043 N 193.631 -1.12557 1.10312 0
M  V30 2044 C 194.856 -1.88405 0.867085 0
M  V30 2045 C 195.281 -1.79038 -0.576817 0
M  V30 2046 O 194.639 -1.14439 -1.40618 0
M  V30 2047 C 194.687 -3.3563 1.31851 0
M  V30 2048 O 193.791 -4.09565 0.482734 0
M  V30 2049 H 193.132 -0.585455 0.313271 0
M  V30 2050 H 195.662 -1.42352 1.4696 0
M  V30 2051 H 195.672 -3.86469 1.3079 0
M  V30 2052 H 194.347 -3.41765 2.37001 0
M  V30 2053 H 192.924 -3.68695 0.558448 0
M  V30 2054 N 195.109 -0.891671 -1.2995 0
M  V30 2055 C 196.386 -0.433307 -1.9074 0
M  V30 2056 C 196.766 1.08646 -1.80995 0
M  V30 2057 O 196.114 1.92476 -1.23147 0
M  V30 2058 C 196.324 -0.938895 -3.36134 0
M  V30 2059 C 197.672 -0.977829 -4.13187 0
M  V30 2060 O 198.696 -0.886015 -3.45005 0
M  V30 2061 O 197.555 -1.11453 -5.35015 0
M  V30 2062 H 194.649 -0.133699 -0.816121 0
M  V30 2063 H 197.195 -0.981011 -1.38471 0
M  V30 2064 H 195.967 -1.98281 -3.37343 0
M  V30 2065 H 195.59 -0.37074 -3.95868 0
M  V30 2066 N 196.587 1.43421 -0.653314 0
M  V30 2067 C 197.833 2.02111 -0.166992 0
M  V30 2068 C 198.166 1.51423 1.21592 0
M  V30 2069 O 197.441 0.707389 1.8118 0
M  V30 2070 C 197.724 3.5966 -0.177948 0
M  V30 2071 C 197.577 4.20579 -1.59478 0
M  V30 2072 C 198.896 4.37413 0.4856 0
M  V30 2073 H 196.015 0.734374 -0.0621557 0
M  V30 2074 H 198.657 1.70717 -0.834016 0
M  V30 2075 H 196.807 3.86537 0.390032 0
M  V30 2076 H 198.479 4.04732 -2.21336 0
M  V30 2077 H 196.722 3.77226 -2.14204 0
M  V30 2078 H 197.393 5.29665 -1.5543 0
M  V30 2079 H 199.869 4.161 0.00234528 0
M  V30 2080 H 198.745 5.47075 0.447207 0
M  V30 2081 H 199.006 4.13672 1.55974 0
M  V30 2082 N 198.065 0.39524 1.52563 0
M  V30 2083 C 199.481 0.0454682 1.59535 0
M  V30 2084 C 199.681 -1.44056 1.4089 0
M  V30 2085 O 198.737 -2.20579 1.22888 0
M  V30 2086 C 200.05 0.527963 2.96029 0
M  V30 2087 C 201.598 0.484733 3.09224 0
M  V30 2088 C 202.073 0.943512 4.48176 0
M  V30 2089 N 203.564 0.899765 4.54377 0
M  V30 2090 C 204.299 1.22609 5.60138 0
M  V30 2091 N 203.795 1.62319 6.73516 0
M  V30 2092 N 205.588 1.14696 5.50274 0
M  V30 2093 H 197.739 1.36261 1.62931 0
M  V30 2094 H 200.002 0.558887 0.765735 0
M  V30 2095 H 199.708 1.56607 3.14908 0
M  V30 2096 H 199.582 -0.0698056 3.77135 0
M  V30 2097 H 201.969 -0.544298 2.90037 0
M  V30 2098 H 202.05 1.11838 2.30056 0
M  V30 2099 H 201.694 1.9708 4.68104 0
M  V30 2100 H 201.624 0.286817 5.25818 0
M  V30 2101 H 204.115 0.607632 3.72983 0
M  V30 2102 H 204.428 1.85567 7.5019 0
M  V30 2103 H 202.773 1.66211 6.74833 0
M  V30 2104 H 205.964 0.835701 4.6058 0
M  V30 2105 H 206.137 1.40459 6.32594 0
M  V30 2106 N 199.544 -1.57102 0.125237 0
M  V30 2107 C 200.784 -1.97294 -0.534259 0
M  V30 2108 C 201.148 -1.0074 -1.63449 0
M  V30 2109 O 202.349 -1.29893 -2.35332 0
M  V30 2110 C 200.62 -3.41705 -1.04748 0
M  V30 2111 S 202.179 -4.03913 -1.71463 0
M  V30 2112 H 198.997 -0.689517 -0.173458 0
M  V30 2113 H 201.599 -1.94349 0.211797 0
M  V30 2114 H 200.303 -4.09723 -0.235649 0
M  V30 2115 H 199.834 -3.48315 -1.82867 0
M  V30 2116 H 201.849 -3.95182 -3.00077 0
M  V30 2117 N 201.022 0.148545 -1.56898 0
M  V30 2118 C 202.25 0.876389 -1.87422 0
M  V30 2119 C 202.665 1.74809 -0.713256 0
M  V30 2120 O 202.022 1.79725 0.317025 0
M  V30 2121 C 202.073 1.73438 -3.17178 0
M  V30 2122 O 201.794 0.897809 -4.28802 0
M  V30 2123 C 203.295 2.56993 -3.61205 0
M  V30 2124 H 200.515 0.253489 -0.621277 0
M  V30 2125 H 203.059 0.141798 -2.04008 0
M  V30 2126 H 201.214 2.42205 -3.0235 0
M  V30 2127 H 201.628 1.48672 -5.02988 0
M  V30 2128 H 203.102 3.12773 -4.54838 0
M  V30 2129 H 203.579 3.32958 -2.86419 0
M  V30 2130 H 204.185 1.9352 -3.78722 0
M  V30 2131 N 202.5 1.5196 0.417844 0
M  V30 2132 C 203.448 1.75278 1.52907 0
M  V30 2133 C 204.442 0.619611 1.57662 0
M  V30 2134 O 205.648 0.801457 1.61173 0
M  V30 2135 H 202.023 0.554141 0.508362 0
M  V30 2136 H 203.994 2.68389 1.30422 0
M  V30 2137 C 202.743 1.91262 2.90369 0
M  V30 2138 H 202.066 2.77872 2.8745 0
M  V30 2139 H 203.506 2.11581 3.67436 0
M  V30 2140 C 201.965 0.677431 3.30019 0
M  V30 2141 O 202.495 -0.158799 4.01386 0
M  V30 2142 N 200.701 0.515851 2.85985 0
M  V30 2143 H 200.248 1.19744 2.28077 0
M  V30 2144 H 200.206 -0.309315 3.12875 0
M  V30 2145 N 203.978 -0.674533 1.42435 0
M  V30 2146 C 205.226 -1.43175 1.42637 0
M  V30 2147 C 205.547 -1.94951 0.0438992 0
M  V30 2148 O 204.817 -1.7308 -0.917607 0
M  V30 2149 H 203.397 -0.531307 0.525092 0
M  V30 2150 H 206.059 -0.797006 1.77859 0
M  V30 2151 H 205.155 -2.28463 2.12629 0
M  V30 2152 N 205.456 -1.28612 -0.910864 0
M  V30 2153 C 206.366 -1.14643 -2.0468 0
M  V30 2154 C 207.382 -0.0723121 -1.7385 0
M  V30 2155 O 208.558 -0.282178 -1.99413 0
M  V30 2156 C 205.623 -0.812561 -3.37044 0
M  V30 2157 C 204.684 -1.96935 -3.81465 0
M  V30 2158 C 203.917 -1.65131 -5.07511 0
M  V30 2159 O 204.14 -0.567013 -5.67575 0
M  V30 2160 O 203.074 -2.49585 -5.47714 0
M  V30 2161 H 206.9 -2.1001 -2.19384 0
M  V30 2162 H 204.485 -1.07958 -1.03274 0
M  V30 2163 H 206.367 -0.640441 -4.16505 0
M  V30 2164 H 205.042 0.111426 -3.23508 0
M  V30 2165 H 203.949 -2.19664 -3.02818 0
M  V30 2166 H 205.282 -2.87414 -3.99567 0
M  V30 2167 N 206.934 1.1197 -1.10907 0
M  V30 2168 C 208.345 1.65114 -0.871446 0
M  V30 2169 C 208.696 1.86885 0.597353 0
M  V30 2170 O 207.821 1.59896 1.45816 0
M  V30 2171 C 208.416 2.99944 -1.5754 0
M  V30 2172 C 206.975 3.50018 -1.38435 0
M  V30 2173 C 206.122 2.24941 -1.62164 0
M  V30 2174 H 209.073 0.956851 -1.2661 0
M  V30 2175 H 209.094 3.66651 -1.01721 0
M  V30 2176 H 208.606 2.84067 -2.64438 0
M  V30 2177 H 206.707 3.71071 -0.337214 0
M  V30 2178 H 206.82 4.29165 -2.12965 0
M  V30 2179 H 205.184 2.3229 -1.04467 0
M  V30 2180 H 205.967 2.11612 -2.70324 0
M  V30 2181 N 208.412 0.89855 1.29475 0
M  V30 2182 C 209.823 0.572537 1.77705 0
M  V30 2183 C 210.174 -0.911778 1.73727 0
M  V30 2184 O 209.299 -1.71288 1.32247 0
M  V30 2185 C 209.894 1.03252 3.22683 0
M  V30 2186 C 208.453 0.757687 3.68695 0
M  V30 2187 C 207.6 1.20787 2.49612 0
M  V30 2188 H 210.551 1.08139 1.16153 0
M  V30 2189 H 210.572 0.367307 3.78723 0
M  V30 2190 H 210.084 2.11285 3.25546 0
M  V30 2191 H 208.185 -0.310079 3.71308 0
M  V30 2192 H 208.298 1.35476 4.59547 0
M  V30 2193 H 206.662 0.626888 2.46865 0
M  V30 2194 H 207.445 2.29622 2.55203 0
M  V30 2195 N 209.89 -1.43072 0.660911 0
M  V30 2196 C 211.136 -2.0202 0.177708 0
M  V30 2197 C 211.469 -1.52066 -1.20787 0
M  V30 2198 O 210.744 -0.716987 -1.80802 0
M  V30 2199 C 211.027 -3.59561 0.197019 0
M  V30 2200 C 210.88 -4.19727 1.61706 0
M  V30 2201 C 212.199 -4.37664 -0.462396 0
M  V30 2202 H 209.318 -0.734034 0.0660494 0
M  V30 2203 H 211.96 -1.70272 0.843058 0
M  V30 2204 H 210.11 -3.86739 -0.369527 0
M  V30 2205 H 211.782 -4.03553 2.23479 0
M  V30 2206 H 210.025 -3.76084 2.16201 0
M  V30 2207 H 210.696 -5.28834 1.58237 0
M  V30 2208 H 213.172 -4.16095 0.0197215 0
M  V30 2209 H 212.048 -5.47305 -0.418188 0
M  V30 2210 H 212.309 -4.14493 -1.53778 0
M  V30 2211 N 211.368 -0.403325 -1.52352 0
M  V30 2212 C 212.615 0.174347 -2.01748 0
M  V30 2213 C 212.943 1.45636 -1.2892 0
M  V30 2214 O 212.198 1.9193 -0.382258 0
M  V30 2215 C 212.497 0.474665 -3.54234 0
M  V30 2216 C 212.163 -0.717458 -4.45155 0
M  V30 2217 C 210.825 -1.04447 -4.69728 0
M  V30 2218 C 213.177 -1.51432 -4.98716 0
M  V30 2219 C 210.505 -2.16963 -5.45109 0
M  V30 2220 C 212.857 -2.6302 -5.75329 0
M  V30 2221 C 211.521 -2.96213 -5.98175 0
M  V30 2222 H 210.791 0.0637981 -0.738248 0
M  V30 2223 H 213.438 -0.543553 -1.83624 0
M  V30 2224 H 211.743 1.27406 -3.70506 0
M  V30 2225 H 213.44 0.934496 -3.89959 0
M  V30 2226 H 210.03 -0.452596 -4.26204 0
M  V30 2227 H 214.214 -1.27491 -4.79645 0
M  V30 2228 H 209.47 -2.43034 -5.61021 0
M  V30 2229 H 213.644 -3.25158 -6.15829 0
M  V30 2230 H 211.271 -3.83516 -6.56368 0
M  V30 2231 N 212.846 1.57033 -0.133567 0
M  V30 2232 C 214.092 1.95976 0.521649 0
M  V30 2233 C 214.425 1.01779 1.65393 0
M  V30 2234 O 213.7 0.0576581 1.94415 0
M  V30 2235 C 213.983 3.44738 1.04057 0
M  V30 2236 C 213.836 4.49711 -0.0892897 0
M  V30 2237 C 215.155 3.95682 1.92675 0
M  V30 2238 H 212.274 0.712579 0.188149 0
M  V30 2239 H 214.916 1.88813 -0.212076 0
M  V30 2240 H 213.066 3.50973 1.66583 0
M  V30 2241 H 214.738 4.55565 -0.725152 0
M  V30 2242 H 212.981 4.27261 -0.750378 0
M  V30 2243 H 213.652 5.51099 0.315284 0
M  V30 2244 H 216.128 3.91841 1.39998 0
M  V30 2245 H 215.004 5.00262 2.25897 0
M  V30 2246 H 215.265 3.37239 2.85872 0
M  V30 2247 N 214.325 -0.140222 1.56975 0
M  V30 2248 C 215.272 -1.17292 1.98774 0
M  V30 2249 C 216.242 -1.4232 0.856408 0
M  V30 2250 O 217.427 -1.54541 1.119 0
M  V30 2251 C 214.567 -2.49973 2.37923 0
M  V30 2252 C 213.68 -2.32062 3.64378 0
M  V30 2253 C 212.815 -3.57825 3.926 0
M  V30 2254 C 211.854 -3.3498 5.12303 0
M  V30 2255 N 210.991 -4.52891 5.36502 0
M  V30 2256 H 215.831 -0.809472 2.86795 0
M  V30 2257 H 213.368 -0.388237 1.41884 0
M  V30 2258 H 215.326 -3.27346 2.58652 0
M  V30 2259 H 213.956 -2.84252 1.52972 0
M  V30 2260 H 213.008 -1.45711 3.51387 0
M  V30 2261 H 214.32 -2.11145 4.51906 0
M  V30 2262 H 213.474 -4.43624 4.13863 0
M  V30 2263 H 212.213 -3.81753 3.03506 0
M  V30 2264 H 211.218 -2.4757 4.90906 0
M  V30 2265 H 212.443 -3.12444 6.02956 0
M  V30 2266 H 210.389 -4.76979 4.50363 0
M  V30 2267 H 210.306 -4.35001 6.18312 0
M  V30 2268 H 211.574 -5.39884 5.62268 0
M  V30 2269 N 215.803 -1.52179 -0.40978 0
M  V30 2270 C 217.214 -1.58377 -0.988615 0
M  V30 2271 C 217.565 -0.423879 -1.91566 0
M  V30 2272 O 216.69 0.455844 -2.11544 0
M  V30 2273 C 217.285 -2.87044 -1.79976 0
M  V30 2274 C 215.844 -2.95722 -2.32863 0
M  V30 2275 C 214.991 -2.53309 -1.12828 0
M  V30 2276 H 217.942 -1.57558 -0.190039 0
M  V30 2277 H 217.963 -2.7236 -2.65707 0
M  V30 2278 H 217.475 -3.71444 -1.12478 0
M  V30 2279 H 215.576 -2.15814 -3.03735 0
M  V30 2280 H 215.689 -3.99951 -2.63773 0
M  V30 2281 H 214.053 -2.07142 -1.48204 0
M  V30 2282 H 214.836 -3.40082 -0.46897 0
M  V30 2283 N 217.281 0.66697 -1.42791 0
M  V30 2284 C 218.191 1.80962 -1.49299 0
M  V30 2285 C 219.207 1.69775 -0.381108 0
M  V30 2286 O 220.383 1.91188 -0.633188 0
M  V30 2287 C 217.448 3.17156 -1.40045 0
M  V30 2288 C 216.509 3.40242 -2.6179 0
M  V30 2289 C 215.742 4.69939 -2.52969 0
M  V30 2290 O 215.965 5.48372 -1.56985 0
M  V30 2291 O 214.899 4.94441 -3.43237 0
M  V30 2292 H 218.725 1.78427 -2.45759 0
M  V30 2293 H 216.31 0.823713 -1.24641 0
M  V30 2294 H 218.192 3.98413 -1.37276 0
M  V30 2295 H 216.867 3.20312 -0.467138 0
M  V30 2296 H 215.774 2.58802 -2.70134 0
M  V30 2297 H 217.107 3.41923 -3.54047 0
M  V30 2298 N 218.759 1.29093 0.90403 0
M  V30 2299 C 219.706 1.13853 2.00764 0
M  V30 2300 C 220.676 0.0330084 1.66067 0
M  V30 2301 O 221.861 0.199733 1.89752 0
M  V30 2302 C 219.001 0.816537 3.35301 0
M  V30 2303 C 218.114 2.00206 3.82807 0
M  V30 2304 C 217.249 1.61983 5.059 0
M  V30 2305 C 216.288 2.77143 5.45764 0
M  V30 2306 N 215.425 2.39346 6.60044 0
M  V30 2307 H 220.265 2.08276 2.13132 0
M  V30 2308 H 217.802 1.03648 1.04381 0
M  V30 2309 H 219.76 0.610557 4.12708 0
M  V30 2310 H 218.39 -0.090779 3.22672 0
M  V30 2311 H 217.442 2.31988 3.01473 0
M  V30 2312 H 218.754 2.86512 4.08304 0
M  V30 2313 H 217.908 1.37649 5.90879 0
M  V30 2314 H 216.647 0.728202 4.82233 0
M  V30 2315 H 215.652 3.02165 4.59322 0
M  V30 2316 H 216.877 3.66964 5.71414 0
M  V30 2317 H 214.823 1.52665 6.37989 0
M  V30 2318 H 214.74 3.19185 6.85315 0
M  V30 2319 H 216.008 2.1832 7.48303 0
M  V30 2320 N 220.237 -1.11381 1.11499 0
M  V30 2321 C 221.483 -1.83403 0.865512 0
M  V30 2322 C 221.816 -1.84459 -0.607329 0
M  V30 2323 O 221.091 -1.29811 -1.44842 0
M  V30 2324 C 221.374 -3.30552 1.42855 0
M  V30 2325 C 221.227 -3.37886 2.96906 0
M  V30 2326 C 222.546 -4.26643 1.08 0
M  V30 2327 H 219.665 -0.665879 0.31587 0
M  V30 2328 H 222.307 -1.30601 1.37998 0
M  V30 2329 H 220.457 -3.75648 0.990985 0
M  V30 2330 H 222.129 -3.01343 3.49271 0
M  V30 2331 H 220.372 -2.78088 3.32941 0
M  V30 2332 H 221.043 -4.41458 3.31389 0
M  V30 2333 H 223.519 -3.89729 1.45775 0
M  V30 2334 H 222.395 -5.27986 1.50072 0
M  V30 2335 H 222.656 -4.42099 -0.00915037 0
M  V30 2336 N 221.715 -0.905404 -1.28997 0
M  V30 2337 C 222.961 -0.535039 -1.95615 0
M  V30 2338 C 223.294 0.917404 -1.71165 0
M  V30 2339 O 222.569 1.65123 -1.02785 0
M  V30 2340 C 222.852 -0.834918 -3.50287 0
M  V30 2341 C 222.705 -2.33948 -3.84172 0
M  V30 2342 C 224.024 -0.325318 -4.38896 0
M  V30 2343 H 221.143 -0.195861 -0.710498 0
M  V30 2344 H 223.785 -1.13313 -1.52513 0
M  V30 2345 H 221.935 -0.325904 -3.87131 0
M  V30 2346 H 223.607 -2.91847 -3.57243 0
M  V30 2347 H 221.85 -2.79789 -3.31513 0
M  V30 2348 H 222.521 -2.49987 -4.92149 0
M  V30 2349 H 224.997 -0.761256 -4.09077 0
M  V30 2350 H 223.873 -0.564295 -5.45992 0
M  V30 2351 H 224.134 0.774144 -4.35269 0
M  V30 2352 N 223.193 1.4272 -0.668489 0
M  V30 2353 C 224.441 2.01226 -0.187769 0
M  V30 2354 C 224.762 1.53092 1.2078 0
M  V30 2355 O 224.032 0.74993 1.80977 0
M  V30 2356 H 222.612 0.744041 -0.0664272 0
M  V30 2357 H 225.274 1.74723 -0.863583 0
M  V30 2358 H 224.37 3.11556 -0.184166 0
M  V30 2359 N 224.671 0.411399 1.52136 0
M  V30 2360 C 225.917 -0.163888 2.02137 0
M  V30 2361 C 226.25 -1.44597 1.29636 0
M  V30 2362 O 225.525 -1.90272 0.403353 0
M  V30 2363 C 225.808 -0.40927 3.57767 0
M  V30 2364 C 225.661 0.889643 4.40914 0
M  V30 2365 C 226.98 -1.19042 4.23694 0
M  V30 2366 H 224.099 -0.0580896 0.734707 0
M  V30 2367 H 226.741 0.54531 1.82007 0
M  V30 2368 H 224.891 -1.0134 3.7505 0
M  V30 2369 H 226.563 1.52575 4.35337 0
M  V30 2370 H 224.806 1.50011 4.07037 0
M  V30 2371 H 225.477 0.672314 5.4789 0
M  V30 2372 H 227.953 -0.678942 4.10524 0
M  V30 2373 H 226.829 -1.33086 5.32522 0
M  V30 2374 H 227.09 -2.21166 3.82803 0
M  V30 2375 N 226.149 -1.5696 0.141893 0
M  V30 2376 C 227.398 -1.95135 -0.510427 0
M  V30 2377 C 227.711 -1.02896 -1.66348 0
M  V30 2378 O 228.917 -1.30629 -2.38009 0
M  V30 2379 C 227.373 -3.46876 -0.959427 0
M  V30 2380 C 226.981 -4.47691 0.166419 0
M  V30 2381 C 228.725 -3.93927 -1.58183 0
M  V30 2382 C 226.632 -5.90636 -0.300565 0
M  V30 2383 H 225.562 -0.728494 -0.194454 0
M  V30 2384 H 228.213 -1.8211 0.22542 0
M  V30 2385 H 226.595 -3.55215 -1.75038 0
M  V30 2386 H 227.769 -4.51043 0.94325 0
M  V30 2387 H 226.084 -4.10527 0.696905 0
M  V30 2388 H 228.681 -4.98158 -1.94275 0
M  V30 2389 H 229.024 -3.3519 -2.46888 0
M  V30 2390 H 229.557 -3.88484 -0.855863 0
M  V30 2391 H 226.296 -6.5318 0.550989 0
M  V30 2392 H 225.816 -5.90655 -1.04338 0
M  V30 2393 H 227.495 -6.42588 -0.754265 0
M  V30 2394 N 227.627 0.131896 -1.57047 0
M  V30 2395 C 228.875 0.840269 -1.83804 0
M  V30 2396 C 229.196 1.81017 -0.72512 0
M  V30 2397 O 228.466 1.94272 0.251995 0
M  V30 2398 H 227.046 0.313294 -0.678127 0
M  V30 2399 H 229.708 0.122294 -1.94516 0
M  V30 2400 H 228.804 1.39335 -2.79271 0
M  V30 2401 N 229.106 1.52395 0.401703 0
M  V30 2402 C 230.069 1.75636 1.47257 0
M  V30 2403 C 231.069 0.62628 1.48103 0
M  V30 2404 O 232.259 0.894227 1.49497 0
M  V30 2405 C 229.391 1.84553 2.86624 0
M  V30 2406 H 230.584 2.71241 1.27938 0
M  V30 2407 H 228.137 1.42923 0.632662 0
M  V30 2408 H 228.872 0.908882 3.11303 0
M  V30 2409 H 228.657 2.66715 2.87412 0
M  V30 2410 H 230.147 2.04251 3.64241 0
M  V30 2411 N 230.584 -0.659388 1.43143 0
M  V30 2412 C 231.809 -1.45221 1.48073 0
M  V30 2413 C 232.234 -1.87845 0.097995 0
M  V30 2414 O 231.592 -1.56985 -0.90694 0
M  V30 2415 C 231.64 -2.66748 2.42647 0
M  V30 2416 O 230.744 -3.65583 1.90848 0
M  V30 2417 H 230.085 -0.435669 0.501088 0
M  V30 2418 H 232.615 -0.807432 1.87994 0
M  V30 2419 H 232.625 -3.14637 2.59745 0
M  V30 2420 H 231.3 -2.35067 3.43098 0
M  V30 2421 H 229.877 -3.24693 1.83381 0
M  V30 2422 N 232.062 -1.29571 -0.897171 0
M  V30 2423 C 233.31 -1.17456 -1.64464 0
M  V30 2424 C 233.631 0.273698 -1.9307 0
M  V30 2425 O 232.901 1.18684 -1.55855 0
M  V30 2426 H 231.481 -0.431706 -0.609622 0
M  V30 2427 H 234.143 -1.62531 -1.07562 0
M  V30 2428 H 233.239 -1.72648 -2.59998 0
M  V30 2429 N 233.54 1.10788 -1.12088 0
M  V30 2430 C 234.765 1.87002 -0.896949 0
M  V30 2431 C 235.19 1.79933 0.548261 0
M  V30 2432 O 234.548 1.16662 1.38779 0
M  V30 2433 C 234.596 3.3349 -1.37174 0
M  V30 2434 O 233.7 4.08745 -0.547831 0
M  V30 2435 H 233.041 0.580397 -0.322545 0
M  V30 2436 H 235.571 1.39996 -1.49206 0
M  V30 2437 H 235.581 3.84339 -1.36922 0
M  V30 2438 H 234.256 3.37951 -2.42408 0
M  V30 2439 H 232.833 3.6776 -0.617034 0
M  V30 2440 N 235.018 0.912232 1.28515 0
M  V30 2441 C 236.243 0.559774 1.99703 0
M  V30 2442 C 236.668 -0.851393 1.67729 0
M  V30 2443 O 236.026 -1.56875 0.908834 0
M  V30 2444 C 236.074 0.773874 3.52198 0
M  V30 2445 O 235.178 -0.167842 4.12058 0
M  V30 2446 H 234.519 0.21723 0.627461 0
M  V30 2447 H 237.049 1.22725 1.63706 0
M  V30 2448 H 237.059 0.683386 4.02236 0
M  V30 2449 H 235.734 1.80261 3.74805 0
M  V30 2450 H 234.311 -0.0287509 3.72889 0
M  V30 2451 N 236.496 -1.42363 0.676048 0
M  V30 2452 C 237.742 -2.0182 0.199125 0
M  V30 2453 C 238.075 -1.53339 -1.19168 0
M  V30 2454 O 237.35 -0.736124 -1.80032 0
M  V30 2455 C 237.633 -3.59331 0.235144 0
M  V30 2456 C 237.486 -4.17989 1.66149 0
M  V30 2457 C 238.805 -4.3813 -0.41595 0
M  V30 2458 H 235.924 -0.733293 0.0738311 0
M  V30 2459 H 238.566 -1.69368 0.86107 0
M  V30 2460 H 236.716 -3.87109 -0.328487 0
M  V30 2461 H 238.388 -4.0116 2.27747 0
M  V30 2462 H 236.631 -3.7377 2.20178 0
M  V30 2463 H 237.302 -5.27126 1.63837 0
M  V30 2464 H 239.778 -4.16051 0.0638529 0
M  V30 2465 H 238.654 -5.47717 -0.360115 0
M  V30 2466 H 238.915 -4.16101 -1.49373 0
M  V30 2467 N 237.974 -0.419461 -1.51915 0
M  V30 2468 C 239.199 0.154572 -2.06823 0
M  V30 2469 C 239.624 1.3722 -1.28656 0
M  V30 2470 O 238.982 1.78461 -0.319583 0
M  V30 2471 C 239.03 0.473172 -3.57482 0
M  V30 2472 O 238.134 1.56255 -3.81652 0
M  V30 2473 H 237.475 0.0096924 -0.663929 0
M  V30 2474 H 240.005 -0.595642 -1.95738 0
M  V30 2475 H 240.015 0.728825 -4.01438 0
M  V30 2476 H 238.69 -0.416873 -4.13805 0
M  V30 2477 H 237.267 1.29825 -3.49571 0
M  V30 2478 N 239.452 1.56882 -0.150215 0
M  V30 2479 C 240.701 1.95403 0.500071 0
M  V30 2480 C 241.014 1.03777 1.658 0
M  V30 2481 O 242.22 1.31889 2.37313 0
M  V30 2482 C 240.676 3.4738 0.941018 0
M  V30 2483 C 240.284 4.47596 -0.190158 0
M  V30 2484 C 242.028 3.9476 1.56091 0
M  V30 2485 C 239.935 5.90787 0.269237 0
M  V30 2486 H 238.865 0.729515 0.190588 0
M  V30 2487 H 241.516 1.81988 -0.235074 0
M  V30 2488 H 239.898 3.56138 1.73152 0
M  V30 2489 H 241.072 4.50536 -0.967157 0
M  V30 2490 H 239.387 4.10151 -0.718666 0
M  V30 2491 H 241.984 4.99181 1.9163 0
M  V30 2492 H 242.327 3.36494 2.45107 0
M  V30 2493 H 242.86 3.88932 0.835249 0
M  V30 2494 H 239.599 6.52879 -0.585621 0
M  V30 2495 H 239.119 5.912 1.01204 0
M  V30 2496 H 240.798 6.42979 0.720176 0
M  V30 2497 N 240.93 -0.123565 1.57115 0
M  V30 2498 C 241.863 -1.18202 1.95201 0
M  V30 2499 C 242.841 -1.40349 0.821031 0
M  V30 2500 O 244.025 -1.54578 1.07879 0
M  V30 2501 C 241.152 -2.53671 2.24429 0
M  V30 2502 C 240.198 -2.4798 3.46999 0
M  V30 2503 S 241.031 -1.92389 4.99747 0
M  V30 2504 C 242.187 -3.2954 5.32123 0
M  V30 2505 H 242.42 -0.857212 2.84674 0
M  V30 2506 H 239.953 -0.33014 1.50829 0
M  V30 2507 H 241.911 -3.3162 2.41947 0
M  V30 2508 H 240.572 -2.83332 1.35579 0
M  V30 2509 H 239.765 -3.47758 3.64801 0
M  V30 2510 H 239.367 -1.7815 3.28844 0
M  V30 2511 H 241.659 -4.25736 5.27025 0
M  V30 2512 H 242.602 -3.16569 6.33395 0
M  V30 2513 H 243.01 -3.27758 4.59603 0
M  V30 2514 N 242.408 -1.52605 -0.393616 0
M  V30 2515 C 243.654 -1.67672 -1.14079 0
M  V30 2516 C 243.987 -0.413121 -1.89755 0
M  V30 2517 O 243.262 0.588952 -1.85369 0
M  V30 2518 C 243.545 -2.9088 -2.12276 0
M  V30 2519 C 243.398 -4.27329 -1.40394 0
M  V30 2520 C 244.717 -3.09628 -3.12759 0
M  V30 2521 H 241.836 -0.610168 -0.413356 0
M  V30 2522 H 244.478 -1.85193 -0.424696 0
M  V30 2523 H 242.628 -2.76073 -2.73342 0
M  V30 2524 H 244.3 -4.53894 -0.82327 0
M  V30 2525 H 242.543 -4.2802 -0.705801 0
M  V30 2526 H 243.214 -5.09615 -2.12123 0
M  V30 2527 H 245.69 -3.23436 -2.61779 0
M  V30 2528 H 244.566 -3.97322 -3.78717 0
M  V30 2529 H 244.827 -2.23637 -3.81365 0
M  V30 2530 N 243.887 0.651787 -1.4349 0
M  V30 2531 C 244.85 1.74647 -1.48429 0
M  V30 2532 C 245.85 1.56513 -0.368817 0
M  V30 2533 O 247.04 1.62385 -0.630623 0
M  V30 2534 C 244.172 3.13533 -1.33827 0
M  V30 2535 H 245.365 1.71649 -2.4592 0
M  V30 2536 H 242.918 0.863573 -1.30277 0
M  V30 2537 H 243.653 3.22142 -0.37349 0
M  V30 2538 H 243.438 3.28101 -2.14691 0
M  V30 2539 H 244.928 3.93356 -1.40218 0
M  V30 2540 N 245.365 1.30045 0.890287 0
M  V30 2541 C 246.313 1.15873 2.01683 0
M  V30 2542 C 247.307 0.0719403 1.69247 0
M  V30 2543 O 248.513 0.232414 1.78493 0
M  V30 2544 H 244.888 0.358203 0.661207 0
M  V30 2545 H 246.859 2.11229 2.10772 0
M  V30 2546 C 245.608 0.861842 3.36849 0
M  V30 2547 H 244.931 1.69016 3.62317 0
M  V30 2548 H 246.371 0.802762 4.16331 0
M  V30 2549 C 244.83 -0.435132 3.34078 0
M  V30 2550 O 245.36 -1.4583 3.74295 0
M  V30 2551 N 243.566 -0.444377 2.87182 0
M  V30 2552 H 243.113 0.388723 2.5465 0
M  V30 2553 H 243.071 -1.31213 2.85711 0
M  V30 2554 N 246.843 -1.10192 1.12674 0
M  V30 2555 C 248.092 -1.81573 0.8783 0
M  V30 2556 C 248.405 -1.86249 -0.597557 0
M  V30 2557 O 249.611 -2.5386 -0.962681 0
M  V30 2558 C 248.067 -3.26149 1.52167 0
M  V30 2559 C 247.675 -3.29763 3.03249 0
M  V30 2560 C 249.419 -4.0234 1.3536 0
M  V30 2561 C 247.326 -4.68815 3.60508 0
M  V30 2562 H 246.256 -0.680394 0.324931 0
M  V30 2563 H 248.907 -1.23902 1.35353 0
M  V30 2564 H 247.289 -3.83832 0.974104 0
M  V30 2565 H 248.463 -2.8189 3.6452 0
M  V30 2566 H 246.778 -2.67059 3.19481 0
M  V30 2567 H 249.375 -5.05058 1.75559 0
M  V30 2568 H 249.718 -4.15235 0.297554 0
M  V30 2569 H 250.251 -3.51079 1.87052 0
M  V30 2570 H 246.99 -4.61121 4.65884 0
M  V30 2571 H 246.51 -5.17045 3.04014 0
M  V30 2572 H 248.189 -5.37785 3.59717 0
M  V30 2573 N 248.321 -0.919034 -1.28029 0
M  V30 2574 C 249.251 -0.428581 -2.29533 0
M  V30 2575 C 250.232 0.50659 -1.62381 0
M  V30 2576 O 251.417 0.413195 -1.89753 0
M  V30 2577 C 248.547 0.327388 -3.45753 0
M  V30 2578 C 247.501 -0.519137 -4.2484 0
M  V30 2579 C 246.827 0.365486 -5.33449 0
M  V30 2580 C 248.127 -1.77914 -4.91064 0
M  V30 2581 H 249.821 -1.27687 -2.70807 0
M  V30 2582 H 247.367 -0.615428 -1.30186 0
M  V30 2583 H 249.32 0.681378 -4.15855 0
M  V30 2584 H 248.044 1.20963 -3.03374 0
M  V30 2585 H 246.703 -0.855717 -3.56473 0
M  V30 2586 H 246.351 1.24642 -4.87312 0
M  V30 2587 H 246.051 -0.197356 -5.87268 0
M  V30 2588 H 247.575 0.715241 -6.06396 0
M  V30 2589 H 248.989 -1.49374 -5.53498 0
M  V30 2590 H 247.386 -2.2848 -5.54903 0
M  V30 2591 H 248.456 -2.50382 -4.15255 0
M  V30 2592 N 249.799 1.42003 -0.683588 0
M  V30 2593 C 251.215 1.55625 -0.353976 0
M  V30 2594 C 251.415 1.66151 1.14 0
M  V30 2595 O 250.471 1.63329 1.92561 0
M  V30 2596 C 251.784 2.80171 -1.092 0
M  V30 2597 C 253.332 2.93954 -1.07518 0
M  V30 2598 C 253.807 4.21372 -1.79471 0
M  V30 2599 N 255.298 4.28303 -1.76381 0
M  V30 2600 C 256.033 5.25729 -2.28904 0
M  V30 2601 N 255.529 6.29254 -2.89846 0
M  V30 2602 N 257.322 5.17586 -2.19228 0
M  V30 2603 H 249.473 1.33415 -1.6527 0
M  V30 2604 H 251.736 0.64282 -0.696769 0
M  V30 2605 H 251.442 2.78561 -2.14701 0
M  V30 2606 H 251.316 3.7133 -0.662862 0
M  V30 2607 H 253.703 2.95086 -0.028475 0
M  V30 2608 H 253.784 2.04002 -1.54328 0
M  V30 2609 H 253.428 4.21001 -2.84114 0
M  V30 2610 H 253.358 5.10275 -1.30104 0
M  V30 2611 H 255.849 3.54119 -1.31939 0
M  V30 2612 H 256.162 6.99964 -3.27522 0
M  V30 2613 H 254.507 6.29791 -2.93919 0
M  V30 2614 H 257.698 4.35631 -1.71299 0
M  V30 2615 H 257.871 5.93348 -2.60466 0
M  V30 2616 N 251.277 0.427512 1.51691 0
M  V30 2617 C 252.207 -0.3796 2.30394 0
M  V30 2618 C 253.188 -1.02982 1.35384 0
M  V30 2619 O 254.373 -1.03534 1.643 0
M  V30 2620 C 251.503 -1.48649 3.1388 0
M  V30 2621 C 250.457 -0.960294 4.17088 0
M  V30 2622 C 249.783 -2.16219 4.89033 0
M  V30 2623 C 251.083 -0.00153679 5.223 0
M  V30 2624 H 252.777 0.277164 2.98114 0
M  V30 2625 H 250.323 0.134739 1.43368 0
M  V30 2626 H 252.276 -2.05826 3.67714 0
M  V30 2627 H 251 -2.1714 2.43962 0
M  V30 2628 H 249.659 -0.410806 3.64291 0
M  V30 2629 H 249.307 -2.83307 4.15628 0
M  V30 2630 H 249.007 -1.81654 5.58816 0
M  V30 2631 H 250.531 -2.73968 5.45687 0
M  V30 2632 H 251.945 -0.482687 5.71264 0
M  V30 2633 H 250.342 0.256199 5.99553 0
M  V30 2634 H 251.412 0.938174 4.75738 0
M  V30 2635 N 252.755 -1.56801 0.158532 0
M  V30 2636 C 254.002 -1.9649 -0.489679 0
M  V30 2637 C 254.33 -1.04394 -1.6411 0
M  V30 2638 O 253.585 -0.0754401 -1.95555 0
M  V30 2639 C 253.884 -3.4235 -1.02623 0
M  V30 2640 C 253.55 -4.50899 0.00794526 0
M  V30 2641 C 252.212 -4.80312 0.292207 0
M  V30 2642 C 254.564 -5.16333 0.710584 0
M  V30 2643 C 251.892 -5.72461 1.28472 0
M  V30 2644 C 254.244 -6.09553 1.69199 0
M  V30 2645 C 252.908 -6.37339 1.98383 0
M  V30 2646 H 252.178 -0.719009 -0.179186 0
M  V30 2647 H 254.825 -1.8989 0.247798 0
M  V30 2648 H 253.13 -3.45838 -1.84128 0
M  V30 2649 H 254.827 -3.70393 -1.53656 0
M  V30 2650 H 251.417 -4.28015 -0.22379 0
M  V30 2651 H 255.601 -4.93732 0.504174 0
M  V30 2652 H 250.857 -5.92278 1.51714 0
M  V30 2653 H 255.031 -6.59327 2.24189 0
M  V30 2654 H 252.658 -7.08546 2.7544 0
M  V30 2655 N 254.233 0.115231 -1.57178 0
M  V30 2656 C 255.165 1.16694 -1.97269 0
M  V30 2657 C 256.178 1.37445 -0.872502 0
M  V30 2658 O 257.367 1.36454 -1.15077 0
M  V30 2659 C 254.467 2.52627 -2.25905 0
M  V30 2660 C 253.64 2.52427 -3.57211 0
M  V30 2661 C 252.699 3.70134 -3.74016 0
M  V30 2662 O 251.725 3.53546 -4.46087 0
M  V30 2663 N 252.927 4.88844 -3.13068 0
M  V30 2664 H 255.692 0.82588 -2.88096 0
M  V30 2665 H 253.253 0.304461 -1.59011 0
M  V30 2666 H 255.245 3.29937 -2.34359 0
M  V30 2667 H 253.815 2.789 -1.41186 0
M  V30 2668 H 253.035 1.60805 -3.5991 0
M  V30 2669 H 254.323 2.49353 -4.43509 0
M  V30 2670 H 253.721 5.05225 -2.54489 0
M  V30 2671 H 252.278 5.63817 -3.27037 0
M  V30 2672 N 255.711 1.52812 0.385517 0
M  V30 2673 C 256.96 1.67249 1.12741 0
M  V30 2674 C 257.273 0.4205 1.91027 0
M  V30 2675 O 258.479 0.445064 2.67827 0
M  V30 2676 C 256.935 2.95583 2.05326 0
M  V30 2677 C 256.543 4.27974 1.32447 0
M  V30 2678 C 258.287 3.19386 2.7963 0
M  V30 2679 C 256.194 5.47412 2.23818 0
M  V30 2680 H 255.124 0.6231 0.424573 0
M  V30 2681 H 257.775 1.79309 0.389924 0
M  V30 2682 H 256.157 2.77277 2.82725 0
M  V30 2683 H 257.331 4.56844 0.602495 0
M  V30 2684 H 255.646 4.10459 0.700885 0
M  V30 2685 H 258.243 4.05801 3.48181 0
M  V30 2686 H 258.586 2.34604 3.43899 0
M  V30 2687 H 259.119 3.38274 2.09322 0
M  V30 2688 H 255.858 6.34612 1.64157 0
M  V30 2689 H 255.378 5.22849 2.93921 0
M  V30 2690 H 257.057 5.81423 2.83824 0
M  V30 2691 N 257.189 -0.644168 1.43834 0
M  V30 2692 C 258.6 -1.22554 1.40845 0
M  V30 2693 C 258.951 -1.9585 0.117115 0
M  V30 2694 O 258.076 -2.01734 -0.783086 0
M  V30 2695 C 258.671 -2.22907 2.55143 0
M  V30 2696 C 257.23 -2.76501 2.5539 0
M  V30 2697 C 256.377 -1.51287 2.32396 0
M  V30 2698 H 259.328 -0.43563 1.52604 0
M  V30 2699 H 259.349 -3.05259 2.2715 0
M  V30 2700 H 258.861 -1.69533 3.49114 0
M  V30 2701 H 256.962 -3.33914 1.65324 0
M  V30 2702 H 257.075 -3.23429 3.53455 0
M  V30 2703 H 255.439 -1.78957 1.81236 0
M  V30 2704 H 256.222 -0.998336 3.28463 0
M  V30 2705 N 258.668 -1.30515 -0.883378 0
M  V30 2706 C 259.6 -1.12846 -1.99496 0
M  V30 2707 C 260.613 -0.0712571 -1.62644 0
M  V30 2708 O 261.802 -0.317432 -1.75655 0
M  V30 2709 C 258.902 -0.699123 -3.3161 0
M  V30 2710 C 258.075 -1.83842 -3.96889 0
M  V30 2711 C 257.134 -1.39737 -5.07307 0
M  V30 2712 O 256.16 -2.10485 -5.28852 0
M  V30 2713 N 257.362 -0.277279 -5.79837 0
M  V30 2714 H 260.127 -2.08585 -2.15203 0
M  V30 2715 H 257.688 -1.22672 -1.05656 0
M  V30 2716 H 259.68 -0.387044 -4.02845 0
M  V30 2717 H 258.25 0.166276 -3.12157 0
M  V30 2718 H 257.47 -2.31853 -3.18807 0
M  V30 2719 H 258.758 -2.60187 -4.37241 0
M  V30 2720 H 258.156 0.3122 -5.64838 0
M  V30 2721 H 256.713 -0.0246623 -6.51795 0
M  V30 2722 N 260.146 1.09593 -1.13257 0
M  V30 2723 C 261.395 1.81105 -0.887917 0
M  V30 2724 C 261.708 1.86563 0.587672 0
M  V30 2725 O 262.914 2.54367 0.949204 0
M  V30 2726 C 261.37 3.25338 -1.53895 0
M  V30 2727 C 260.978 3.28151 -3.04994 0
M  V30 2728 C 262.722 4.01617 -1.37492 0
M  V30 2729 C 260.629 4.66897 -3.6299 0
M  V30 2730 H 259.559 0.678661 -0.328534 0
M  V30 2731 H 262.21 1.23183 -1.36008 0
M  V30 2732 H 260.592 3.8331 -0.994446 0
M  V30 2733 H 261.766 2.79953 -3.66009 0
M  V30 2734 H 260.081 2.65361 -3.20893 0
M  V30 2735 H 262.678 5.04119 -1.78235 0
M  V30 2736 H 263.021 4.15072 -0.31957 0
M  V30 2737 H 263.554 3.50082 -1.88912 0
M  V30 2738 H 260.293 4.58643 -4.68323 0
M  V30 2739 H 259.813 5.15426 -3.06752 0
M  V30 2740 H 261.492 5.3587 -3.62563 0
M  V30 2741 N 261.624 0.925811 1.2754 0
M  V30 2742 C 262.849 0.580924 1.99098 0
M  V30 2743 C 263.274 -0.833555 1.68622 0
M  V30 2744 O 262.632 -1.55903 0.925422 0
M  V30 2745 C 262.68 0.811186 3.51358 0
M  V30 2746 O 261.784 -0.124129 4.12213 0
M  V30 2747 H 261.125 0.223873 0.625122 0
M  V30 2748 H 263.655 1.24455 1.62395 0
M  V30 2749 H 263.665 0.72601 4.01489 0
M  V30 2750 H 262.34 1.84227 3.72872 0
M  V30 2751 H 260.917 0.0108006 3.72898 0
M  V30 2752 N 263.102 -1.41638 0.69111 0
M  V30 2753 C 264.332 -2.0533 0.228758 0
M  V30 2754 C 264.74 -1.52089 -1.12541 0
M  V30 2755 O 264.083 -0.662145 -1.71351 0
M  V30 2756 C 264.145 -3.59349 0.10407 0
M  V30 2757 C 263.809 -4.35362 1.38956 0
M  V30 2758 C 264.806 -4.64942 2.32648 0
M  V30 2759 C 262.491 -4.74714 1.64169 0
M  V30 2760 C 264.485 -5.32828 3.49818 0
M  V30 2761 C 262.172 -5.42338 2.81625 0
M  V30 2762 C 263.17 -5.71322 3.74273 0
M  V30 2763 O 262.858 -6.37554 4.89673 0
M  V30 2764 H 262.59 -0.667796 0.104997 0
M  V30 2765 H 265.144 -1.82477 0.942938 0
M  V30 2766 H 263.374 -3.80924 -0.665839 0
M  V30 2767 H 265.063 -4.04633 -0.320519 0
M  V30 2768 H 265.829 -4.35025 2.14425 0
M  V30 2769 H 261.708 -4.51538 0.929202 0
M  V30 2770 H 265.252 -5.55368 4.22152 0
M  V30 2771 H 261.149 -5.71673 2.99768 0
M  V30 2772 H 261.917 -6.56049 4.8943 0
M  V30 2773 N 264.58 -0.43555 -1.51462 0
M  V30 2774 C 265.543 0.365137 -2.26273 0
M  V30 2775 C 266.543 0.951227 -1.29647 0
M  V30 2776 O 267.733 0.825958 -1.53374 0
M  V30 2777 C 264.865 1.51645 -3.05314 0
M  V30 2778 H 266.058 -0.290474 -2.9849 0
M  V30 2779 H 263.611 -0.188676 -1.55157 0
M  V30 2780 H 264.346 2.20816 -2.3751 0
M  V30 2781 H 264.131 1.10238 -3.76284 0
M  V30 2782 H 265.621 2.08218 -3.61987 0
M  V30 2783 N 266.058 1.56714 -0.166846 0
M  V30 2784 C 267.283 2.01557 0.488833 0
M  V30 2785 C 267.708 1.0463 1.56314 0
M  V30 2786 O 267.066 0.0251304 1.81283 0
M  V30 2787 C 267.114 3.4503 1.04818 0
M  V30 2788 O 266.218 3.51163 2.16236 0
M  V30 2789 H 265.559 0.653516 0.117526 0
M  V30 2790 H 268.089 2.02818 -0.269421 0
M  V30 2791 H 268.099 3.84243 1.37191 0
M  V30 2792 H 266.774 4.15077 0.261572 0
M  V30 2793 H 265.351 3.23807 1.84942 0
M  V30 2794 N 267.536 -0.106894 1.57237 0
M  V30 2795 C 268.764 -0.826389 1.8968 0
M  V30 2796 C 269.179 -1.72856 0.759353 0
M  V30 2797 O 268.536 -1.80503 -0.269263 0
M  V30 2798 C 268.587 -1.64967 3.21665 0
M  V30 2799 O 268.308 -0.783804 4.31031 0
M  V30 2800 C 269.809 -2.47326 3.67892 0
M  V30 2801 H 267.029 -0.236927 0.627779 0
M  V30 2802 H 269.573 -0.0876593 2.04312 0
M  V30 2803 H 267.728 -2.34103 3.08666 0
M  V30 2804 H 268.142 -1.35284 5.06753 0
M  V30 2805 H 269.616 -3.00604 4.6297 0
M  V30 2806 H 270.093 -3.25247 2.95146 0
M  V30 2807 H 270.699 -1.83411 3.83719 0
M  V30 2808 N 269.014 -1.53014 -0.377408 0
M  V30 2809 C 269.977 -1.77957 -1.44444 0
M  V30 2810 C 270.977 -0.649763 -1.47087 0
M  V30 2811 O 272.167 -0.917897 -1.48055 0
M  V30 2812 C 269.299 -1.89089 -2.83651 0
M  V30 2813 H 270.492 -2.73243 -1.23606 0
M  V30 2814 H 268.045 -1.43912 -0.609844 0
M  V30 2815 H 268.78 -0.958293 -3.09818 0
M  V30 2816 H 268.565 -2.71254 -2.83132 0
M  V30 2817 H 270.055 -2.1002 -3.60945 0
M  V30 2818 N 270.492 0.636531 -1.44174 0
M  V30 2819 C 271.903 1.21806 -1.41493 0
M  V30 2820 C 272.254 1.95785 -0.1275 0
M  V30 2821 O 271.379 2.02147 0.772376 0
M  V30 2822 C 271.974 2.21551 -2.56321 0
M  V30 2823 C 270.533 2.75143 -2.56853 0
M  V30 2824 C 269.68 1.50052 -2.33195 0
M  V30 2825 H 272.631 0.427531 -1.52833 0
M  V30 2826 H 272.652 3.0405 -2.28765 0
M  V30 2827 H 272.164 1.67679 -3.50008 0
M  V30 2828 H 270.265 3.33033 -1.67093 0
M  V30 2829 H 270.378 3.2155 -3.55165 0
M  V30 2830 H 268.742 1.77993 -1.82183 0
M  V30 2831 H 269.525 0.980903 -3.28988 0
M  V30 2832 N 271.97 1.30982 0.876444 0
M  V30 2833 C 272.88 1.2003 2.01569 0
M  V30 2834 C 273.896 0.11838 1.73597 0
M  V30 2835 O 275.072 0.33495 1.98595 0
M  V30 2836 C 272.137 0.901637 3.34771 0
M  V30 2837 C 271.198 2.06979 3.76109 0
M  V30 2838 C 270.431 1.78529 5.02954 0
M  V30 2839 O 270.654 0.717296 5.65872 0
M  V30 2840 O 269.588 2.64019 5.40905 0
M  V30 2841 H 273.414 2.15753 2.13739 0
M  V30 2842 H 270.999 1.10658 1.00375 0
M  V30 2843 H 272.881 0.750645 4.1466 0
M  V30 2844 H 271.556 -0.0256141 3.2369 0
M  V30 2845 H 270.463 2.27616 2.96887 0
M  V30 2846 H 271.796 2.97907 3.91807 0
M  V30 2847 N 273.449 -1.08991 1.13837 0
M  V30 2848 C 274.379 -2.17771 0.842507 0
M  V30 2849 C 275.36 -1.6892 -0.20001 0
M  V30 2850 O 276.545 -1.94113 -0.0579731 0
M  V30 2851 C 273.675 -3.4589 0.312644 0
M  V30 2852 C 272.629 -4.08099 1.28992 0
M  V30 2853 C 271.955 -5.31098 0.619623 0
M  V30 2854 C 273.255 -4.50077 2.65005 0
M  V30 2855 H 274.949 -2.42777 1.75213 0
M  V30 2856 H 272.495 -1.16682 0.843875 0
M  V30 2857 H 274.448 -4.21297 0.0933043 0
M  V30 2858 H 273.172 -3.20419 -0.632382 0
M  V30 2859 H 271.831 -3.34717 1.49533 0
M  V30 2860 H 271.479 -5.0191 -0.33102 0
M  V30 2861 H 271.179 -5.73674 1.27167 0
M  V30 2862 H 272.703 -6.09224 0.409669 0
M  V30 2863 H 274.117 -5.16688 2.48407 0
M  V30 2864 H 272.514 -5.03553 3.26427 0
M  V30 2865 H 273.584 -3.62257 3.22332 0
M  V30 2866 N 274.927 -0.932562 -1.27047 0
M  V30 2867 C 276.152 -0.591474 -1.98787 0
M  V30 2868 C 276.577 0.824601 -1.69062 0
M  V30 2869 O 275.935 1.5541 -0.933677 0
M  V30 2870 C 275.983 -0.829808 -3.50922 0
M  V30 2871 O 275.087 0.102266 -4.12273 0
M  V30 2872 H 274.428 -0.227185 -0.623926 0
M  V30 2873 H 276.958 -1.25314 -1.61733 0
M  V30 2874 H 276.968 -0.747292 -4.01098 0
M  V30 2875 H 275.643 -1.86201 -3.7189 0
M  V30 2876 H 274.22 -0.0305761 -3.72887 0
M  V30 2877 N 276.405 1.4127 -0.698611 0
M  V30 2878 C 277.682 1.94955 -0.158762 0
M  V30 2879 C 278.062 1.63781 1.33188 0
M  V30 2880 O 277.41 0.946423 2.07979 0
M  V30 2881 C 277.62 3.46044 -0.453309 0
M  V30 2882 C 278.968 4.22872 -0.382707 0
M  V30 2883 O 279.992 3.54076 -0.388396 0
M  V30 2884 O 278.851 5.45407 -0.345463 0
M  V30 2885 H 275.945 0.82683 -0.0167505 0
M  V30 2886 H 278.491 1.50971 -0.77498 0
M  V30 2887 H 277.263 3.62028 -1.48498 0
M  V30 2888 H 276.886 3.97128 0.19373 0
M  V30 2889 N 277.883 0.443576 1.51229 0
M  V30 2890 C 279.16 -0.181038 1.9476 0
M  V30 2891 C 279.54 -1.59523 1.38259 0
M  V30 2892 O 278.888 -2.2122 0.572198 0
M  V30 2893 C 279.098 -0.152422 3.48667 0
M  V30 2894 C 280.446 -0.354923 4.23114 0
M  V30 2895 O 281.47 -0.230257 3.55455 0
M  V30 2896 O 280.329 -0.603674 5.43156 0
M  V30 2897 H 277.423 -0.1266 0.817252 0
M  V30 2898 H 279.969 0.502004 1.62105 0
M  V30 2899 H 278.741 0.836022 3.82265 0
M  V30 2900 H 278.364 -0.878107 3.87782 0
M  V30 2901 N 279.361 -1.56624 0.175154 0
M  V30 2902 C 280.777 -1.58571 -0.180966 0
M  V30 2903 C 280.977 -1.19065 -1.6256 0
M  V30 2904 O 280.033 -0.904044 -2.35761 0
M  V30 2905 C 281.346 -3.00522 0.103326 0
M  V30 2906 C 282.894 -3.12972 0.0418426 0
M  V30 2907 C 283.369 -4.57022 0.299175 0
M  V30 2908 N 284.86 -4.62541 0.247086 0
M  V30 2909 C 285.595 -5.71857 0.420318 0
M  V30 2910 N 285.091 -6.89717 0.652816 0
M  V30 2911 N 286.884 -5.60972 0.355957 0
M  V30 2912 H 279.035 -1.80589 1.11809 0
M  V30 2913 H 281.298 -0.837178 0.444788 0
M  V30 2914 H 281.004 -3.33916 1.10422 0
M  V30 2915 H 280.878 -3.72344 -0.603299 0
M  V30 2916 H 283.265 -2.79403 -0.949636 0
M  V30 2917 H 283.346 -2.43578 0.781238 0
M  V30 2918 H 282.99 -4.913 1.28788 0
M  V30 2919 H 282.92 -5.24579 -0.460876 0
M  V30 2920 H 285.411 -3.77829 0.0731895 0
M  V30 2921 H 285.724 -7.68911 0.774347 0
M  V30 2922 H 284.069 -6.91572 0.689476 0
M  V30 2923 H 287.26 -4.67773 0.174882 0
M  V30 2924 H 287.433 -6.46111 0.494388 0
M  V30 2925 N 280.839 0.0985539 -1.57292 0
M  V30 2926 C 282.255 0.45267 -1.53046 0
M  V30 2927 C 282.455 1.80713 -0.891342 0
M  V30 2928 O 281.511 2.4785 -0.482375 0
M  V30 2929 C 282.824 0.418341 -2.97776 0
M  V30 2930 C 284.372 0.500443 -3.08973 0
M  V30 2931 C 284.847 0.496297 -4.55303 0
M  V30 2932 N 286.338 0.557151 -4.59837 0
M  V30 2933 C 287.073 0.575726 -5.70502 0
M  V30 2934 N 286.569 0.550714 -6.90608 0
M  V30 2935 N 288.362 0.620277 -5.58667 0
M  V30 2936 H 280.513 -0.788673 -1.97215 0
M  V30 2937 H 282.776 -0.293188 -0.901524 0
M  V30 2938 H 282.482 -0.509659 -3.47988 0
M  V30 2939 H 282.356 1.2386 -3.56284 0
M  V30 2940 H 284.743 1.41886 -2.58751 0
M  V30 2941 H 284.824 -0.347894 -2.53423 0
M  V30 2942 H 284.468 -0.418162 -5.06176 0
M  V30 2943 H 284.398 1.3618 -5.08687 0
M  V30 2944 H 286.889 0.581816 -3.73394 0
M  V30 2945 H 287.202 0.568075 -7.70709 0
M  V30 2946 H 285.547 0.517816 -6.93068 0
M  V30 2947 H 288.738 0.637322 -4.63741 0
M  V30 2948 H 288.911 0.631283 -6.44918 0
M  V30 2949 N 282.317 1.53212 0.369288 0
M  V30 2950 C 283.547 1.72868 1.13139 0
M  V30 2951 C 283.955 0.455754 1.83629 0
M  V30 2952 O 283.298 -0.580861 1.74275 0
M  V30 2953 C 283.36 2.83667 2.20847 0
M  V30 2954 C 283.024 4.24142 1.70155 0
M  V30 2955 C 284.021 5.06619 1.16763 0
M  V30 2956 C 281.706 4.70539 1.7578 0
M  V30 2957 C 283.7 6.33581 0.696678 0
M  V30 2958 C 281.387 5.97481 1.28297 0
M  V30 2959 C 282.385 6.78833 0.753307 0
M  V30 2960 O 282.073 8.03393 0.285475 0
M  V30 2961 H 281.805 0.581707 0.344373 0
M  V30 2962 H 284.359 2.00736 0.435243 0
M  V30 2963 H 282.589 2.51265 2.93944 0
M  V30 2964 H 284.278 2.91536 2.82421 0
M  V30 2965 H 285.044 4.71948 1.11758 0
M  V30 2966 H 280.923 4.07293 2.15949 0
M  V30 2967 H 284.467 6.97027 0.282581 0
M  V30 2968 H 280.364 6.31651 1.32994 0
M  V30 2969 H 281.132 8.17497 0.405145 0
M  V30 2970 N 283.795 -0.628877 1.44509 0
M  V30 2971 C 285.072 -1.38733 1.37886 0
M  V30 2972 C 285.452 -2.11065 0.0387008 0
M  V30 2973 O 284.8 -2.06476 -0.97878 0
M  V30 2974 C 285.01 -2.35188 2.57852 0
M  V30 2975 C 286.358 -2.9845 3.02014 0
M  V30 2976 O 287.382 -2.45513 2.58073 0
M  V30 2977 O 286.241 -3.94487 3.78209 0
M  V30 2978 H 283.335 -0.621015 0.54614 0
M  V30 2979 H 285.881 -0.653744 1.56602 0
M  V30 2980 H 284.653 -1.80855 3.46998 0
M  V30 2981 H 284.276 -3.1596 2.4136 0
M  V30 2982 N 285.273 -1.31445 -0.869486 0
M  V30 2983 C 286.52 -1.21158 -1.62256 0
M  V30 2984 C 286.848 0.230155 -1.93133 0
M  V30 2985 O 286.103 1.17906 -1.56194 0
M  V30 2986 C 286.402 -2.00145 -2.96102 0
M  V30 2987 C 286.068 -3.4964 -2.84715 0
M  V30 2988 C 284.73 -3.90403 -2.81317 0
M  V30 2989 C 287.082 -4.44769 -2.71716 0
M  V30 2990 C 284.41 -5.24561 -2.62778 0
M  V30 2991 C 286.762 -5.79054 -2.54714 0
M  V30 2992 C 285.426 -6.19037 -2.49699 0
M  V30 2993 H 284.696 -0.443348 -0.593737 0
M  V30 2994 H 287.343 -1.62715 -1.00976 0
M  V30 2995 H 285.648 -1.5127 -3.6142 0
M  V30 2996 H 287.345 -1.89566 -3.53363 0
M  V30 2997 H 283.935 -3.17256 -2.88178 0
M  V30 2998 H 288.119 -4.14208 -2.73397 0
M  V30 2999 H 283.375 -5.54613 -2.57321 0
M  V30 3000 H 287.549 -6.52393 -2.43632 0
M  V30 3001 H 285.176 -7.22935 -2.35093 0
M  V30 3002 N 286.751 1.08385 -1.14413 0
M  V30 3003 C 287.998 1.80776 -0.912482 0
M  V30 3004 C 288.326 1.86236 0.560934 0
M  V30 3005 O 287.581 1.33431 1.43159 0
M  V30 3006 C 287.88 3.26273 -1.45879 0
M  V30 3007 C 287.546 3.4093 -2.95089 0
M  V30 3008 C 286.208 3.44638 -3.35824 0
M  V30 3009 C 288.56 3.44591 -3.91033 0
M  V30 3010 C 285.888 3.49597 -4.71167 0
M  V30 3011 C 288.24 3.51086 -5.26233 0
M  V30 3012 C 286.904 3.53067 -5.6648 0
M  V30 3013 H 286.174 0.661507 -0.333901 0
M  V30 3014 H 288.821 1.27613 -1.42784 0
M  V30 3015 H 287.126 3.82146 -0.864376 0
M  V30 3016 H 288.823 3.80839 -1.2555 0
M  V30 3017 H 285.413 3.38736 -2.62594 0
M  V30 3018 H 289.597 3.40957 -3.60641 0
M  V30 3019 H 284.853 3.49424 -5.0171 0
M  V30 3020 H 289.027 3.52864 -6.00383 0
M  V30 3021 H 286.654 3.56662 -6.71339 0
M  V30 3022 N 288.23 0.939286 1.26551 0
M  V30 3023 C 289.455 0.602008 1.98471 0
M  V30 3024 C 289.88 -0.815624 1.69497 0
M  V30 3025 O 289.238 -1.54912 0.941905 0
M  V30 3026 C 289.286 0.848407 3.50477 0
M  V30 3027 O 288.39 -0.0804009 4.12322 0
M  V30 3028 H 287.731 0.23049 0.622712 0
M  V30 3029 H 290.261 1.2617 1.61066 0
M  V30 3030 H 290.271 0.768553 4.00696 0
M  V30 3031 H 288.946 1.88171 3.70897 0
M  V30 3032 H 287.523 0.0503508 3.72866 0
M  V30 3033 N 289.708 -1.40897 0.706093 0
M  V30 3034 C 291.124 -1.55042 0.37869 0
M  V30 3035 C 291.324 -1.67944 -1.11342 0
M  V30 3036 O 290.38 -1.66372 -1.89938 0
M  V30 3037 C 291.693 -2.78398 1.13643 0
M  V30 3038 C 293.241 -2.92206 1.12181 0
M  V30 3039 C 293.716 -4.18463 1.86152 0
M  V30 3040 N 295.207 -4.25443 1.83173 0
M  V30 3041 C 295.942 -5.2202 2.37239 0
M  V30 3042 N 295.438 -6.24563 2.99821 0
M  V30 3043 N 297.231 -5.14033 2.27435 0
M  V30 3044 H 289.382 -1.30769 1.67372 0
M  V30 3045 H 291.645 -0.631653 0.706907 0
M  V30 3046 H 291.351 -2.7511 2.19106 0
M  V30 3047 H 291.225 -3.70228 0.721853 0
M  V30 3048 H 293.612 -2.95004 0.0754171 0
M  V30 3049 H 293.693 -2.01521 1.57554 0
M  V30 3050 H 293.337 -4.16427 2.90776 0
M  V30 3051 H 293.267 -5.08141 1.38206 0
M  V30 3052 H 295.758 -3.51976 1.37556 0
M  V30 3053 H 296.071 -6.94665 3.38616 0
M  V30 3054 H 294.416 -6.25035 3.03902 0
M  V30 3055 H 297.607 -4.3285 1.78208 0
M  V30 3056 H 297.78 -5.89129 2.69873 0
M  V30 3057 N 291.186 -0.45159 -1.50991 0
M  V30 3058 C 292.432 0.110237 -2.025 0
M  V30 3059 C 292.765 1.41109 -1.33424 0
M  V30 3060 O 292.04 1.89135 -0.453659 0
M  V30 3061 C 292.323 0.314271 -3.58726 0
M  V30 3062 C 292.176 -1.00623 -4.38401 0
M  V30 3063 C 293.495 1.07767 -4.26702 0
M  V30 3064 H 290.614 0.0385897 -0.735989 0
M  V30 3065 H 293.256 -0.593374 -1.80497 0
M  V30 3066 H 291.406 0.913601 -3.77605 0
M  V30 3067 H 293.078 -1.64064 -4.31139 0
M  V30 3068 H 291.321 -1.6075 -4.02917 0
M  V30 3069 H 291.992 -0.817341 -5.45915 0
M  V30 3070 H 294.468 0.56986 -4.12179 0
M  V30 3071 H 293.344 1.18921 -5.35863 0
M  V30 3072 H 293.605 2.10939 -3.88532 0
M  V30 3073 N 292.664 1.56529 -0.183458 0
M  V30 3074 C 293.91 1.97537 0.459036 0
M  V30 3075 C 294.243 1.06989 1.62071 0
M  V30 3076 O 293.518 0.11948 1.94133 0
M  V30 3077 C 293.801 3.47874 0.930368 0
M  V30 3078 C 293.654 4.492 -0.232317 0
M  V30 3079 C 294.973 4.01612 1.79989 0
M  V30 3080 H 292.092 0.718204 0.165383 0
M  V30 3081 H 294.734 1.88042 -0.272038 0
M  V30 3082 H 292.884 3.56095 1.55333 0
M  V30 3083 H 294.556 4.53027 -0.86972 0
M  V30 3084 H 292.799 4.24657 -0.885928 0
M  V30 3085 H 293.47 5.51823 0.139796 0
M  V30 3086 H 295.946 3.96097 1.27461 0
M  V30 3087 H 294.822 5.07195 2.09867 0
M  V30 3088 H 295.083 3.46163 2.74998 0
M  V30 3089 N 294.142 -0.090211 1.57342 0
M  V30 3090 C 295.553 -0.644173 1.75235 0
M  V30 3091 C 295.904 -1.78865 0.806335 0
M  V30 3092 O 295.029 -2.16395 -0.0140128 0
M  V30 3093 C 295.624 -1.17532 3.1776 0
M  V30 3094 C 294.183 -1.67531 3.37061 0
M  V30 3095 C 293.33 -0.58693 2.71017 0
M  V30 3096 H 296.281 0.135884 1.58117 0
M  V30 3097 H 296.302 -2.04455 3.20902 0
M  V30 3098 H 295.814 -0.342138 3.86589 0
M  V30 3099 H 293.915 -2.53234 2.73319 0
M  V30 3100 H 294.028 -1.76493 4.45406 0
M  V30 3101 H 292.392 -1.02756 2.33052 0
M  V30 3102 H 293.175 0.235758 3.4249 0
M  V30 3103 N 295.62 -1.53406 -0.361157 0
M  V30 3104 C 297.031 -1.61442 -0.937728 0
M  V30 3105 C 297.382 -0.48461 -1.90121 0
M  V30 3106 O 296.507 0.388312 -2.12888 0
M  V30 3107 C 297.102 -2.92624 -1.70753 0
M  V30 3108 C 295.661 -3.02981 -2.23337 0
M  V30 3109 C 294.808 -2.5677 -1.04712 0
M  V30 3110 H 297.759 -1.58083 -0.139816 0
M  V30 3111 H 297.78 -2.80675 -2.56908 0
M  V30 3112 H 297.292 -3.74834 -1.00604 0
M  V30 3113 H 295.393 -2.25368 -2.96715 0
M  V30 3114 H 295.506 -4.0814 -2.50916 0
M  V30 3115 H 293.87 -2.11752 -1.41539 0
M  V30 3116 H 294.653 -3.41402 -0.360539 0
M  V30 3117 N 297.098 0.621204 -1.44841 0
M  V30 3118 C 298.375 1.38 -1.38619 0
M  V30 3119 C 298.755 2.11041 -0.0498935 0
M  V30 3120 O 298.103 2.06992 0.967816 0
M  V30 3121 C 298.313 2.33817 -2.59096 0
M  V30 3122 C 299.661 2.96844 -3.03593 0
M  V30 3123 O 300.685 2.44141 -2.59371 0
M  V30 3124 O 299.544 3.92476 -3.80296 0
M  V30 3125 H 296.638 0.61811 -0.549426 0
M  V30 3126 H 299.184 0.645429 -1.56947 0
M  V30 3127 H 297.956 1.79012 -3.47952 0
M  V30 3128 H 297.579 3.14676 -2.43032 0
M  V30 3129 N 298.576 1.31904 0.862503 0
M  V30 3130 C 299.801 1.25135 1.65397 0
M  V30 3131 C 300.226 -0.179 1.87246 0
M  V30 3132 O 299.584 -1.1277 1.4196 0
M  V30 3133 C 299.632 2.00832 2.99498 0
M  V30 3134 O 298.736 1.35075 3.89652 0
M  V30 3135 H 298.077 0.431655 0.504549 0
M  V30 3136 H 300.607 1.74094 1.07483 0
M  V30 3137 H 300.617 2.10709 3.49379 0
M  V30 3138 H 299.292 3.04847 2.82916 0
M  V30 3139 H 297.869 1.33696 3.48109 0
M  V30 3140 N 300.054 -1.07777 1.14986 0
M  V30 3141 C 301.301 -1.8029 0.922056 0
M  V30 3142 C 301.629 -1.86531 -0.55105 0
M  V30 3143 O 300.884 -1.34189 -1.42449 0
M  V30 3144 C 301.183 -3.25495 1.47608 0
M  V30 3145 C 300.849 -3.39361 2.96893 0
M  V30 3146 C 299.511 -3.42852 3.37647 0
M  V30 3147 C 301.863 -3.42512 3.92854 0
M  V30 3148 C 299.191 -3.47094 4.73015 0
M  V30 3149 C 301.543 -3.4829 5.28088 0
M  V30 3150 C 300.207 -3.50058 5.68345 0
M  V30 3151 H 299.477 -0.659727 0.337404 0
M  V30 3152 H 302.124 -1.26854 1.43459 0
M  V30 3153 H 300.429 -3.81683 0.88463 0
M  V30 3154 H 302.126 -3.80168 1.27568 0
M  V30 3155 H 298.716 -3.37339 2.64387 0
M  V30 3156 H 302.9 -3.3904 3.62444 0
M  V30 3157 H 298.156 -3.46758 5.03556 0
M  V30 3158 H 302.33 -3.49675 6.02246 0
M  V30 3159 H 299.957 -3.53097 6.73221 0
M  V30 3160 N 301.532 -0.945985 -1.26051 0
M  V30 3161 C 302.464 -0.416662 -2.25381 0
M  V30 3162 C 303.477 0.462712 -1.56086 0
M  V30 3163 O 304.666 0.272383 -1.7641 0
M  V30 3164 C 301.766 0.419812 -3.3629 0
M  V30 3165 C 300.939 -0.444531 -4.35135 0
M  V30 3166 C 299.998 0.332305 -5.2515 0
M  V30 3167 O 299.024 -0.266324 -5.68577 0
M  V30 3168 N 300.226 1.62763 -5.57215 0
M  V30 3169 H 302.991 -1.27059 -2.71433 0
M  V30 3170 H 300.552 -0.815392 -1.39868 0
M  V30 3171 H 302.544 0.947013 -3.93464 0
M  V30 3172 H 301.114 1.17456 -2.89694 0
M  V30 3173 H 300.334 -1.15291 -3.76964 0
M  V30 3174 H 301.622 -1.03478 -4.98166 0
M  V30 3175 H 301.02 2.13603 -5.23823 0
M  V30 3176 H 299.577 2.10097 -6.17011 0
M  V30 3177 N 303.011 1.40521 -0.713556 0
M  V30 3178 C 303.974 2.29098 -0.0684347 0
M  V30 3179 C 304.974 1.45268 0.689472 0
M  V30 3180 O 306.164 1.66205 0.521677 0
M  V30 3181 C 303.296 3.28446 0.913024 0
M  V30 3182 H 304.489 2.87645 -0.84855 0
M  V30 3183 H 302.042 1.48809 -0.47809 0
M  V30 3184 H 302.777 2.74913 1.72027 0
M  V30 3185 H 302.562 3.90327 0.372472 0
M  V30 3186 H 304.052 3.94777 1.36165 0
M  V30 3187 N 304.489 0.459591 1.5075 0
M  V30 3188 C 305.421 -0.37665 2.26084 0
M  V30 3189 C 306.434 -0.967109 1.30961 0
M  V30 3190 O 307.623 -0.857468 1.56556 0
M  V30 3191 C 304.723 -1.54112 3.01832 0
M  V30 3192 C 303.896 -1.06553 4.24223 0
M  V30 3193 C 302.955 -2.1027 4.82362 0
M  V30 3194 O 301.981 -1.68798 5.43595 0
M  V30 3195 N 303.183 -3.42974 4.68347 0
M  V30 3196 H 305.948 0.269124 2.98489 0
M  V30 3197 H 303.509 0.28972 1.59287 0
M  V30 3198 H 305.501 -2.23165 3.37608 0
M  V30 3199 H 304.071 -2.0918 2.32298 0
M  V30 3200 H 303.291 -0.201274 3.93686 0
M  V30 3201 H 304.579 -0.725516 5.03601 0
M  V30 3202 H 303.977 -3.79385 4.19623 0
M  V30 3203 H 302.534 -4.07858 5.08424 0
M  V30 3204 N 305.967 -1.56429 0.191757 0
M  V30 3205 C 306.93 -2.17707 -0.716688 0
M  V30 3206 C 307.93 -1.13061 -1.14341 0
M  V30 3207 O 309.12 -1.38464 -1.05704 0
M  V30 3208 C 306.252 -2.77644 -1.97804 0
M  V30 3209 H 307.445 -2.99342 -0.1829 0
M  V30 3210 H 304.998 -1.56193 -0.0578566 0
M  V30 3211 H 305.733 -1.99799 -2.55443 0
M  V30 3212 H 305.518 -3.54246 -1.68083 0
M  V30 3213 H 307.008 -3.24708 -2.62592 0
M  V30 3214 N 307.445 0.0818655 -1.57387 0
M  V30 3215 C 308.378 1.12986 -1.98266 0
M  V30 3216 C 309.356 1.38123 -0.857954 0
M  V30 3217 O 310.54 1.51663 -1.1194 0
M  V30 3218 C 307.667 2.47632 -2.31076 0
M  V30 3219 C 306.713 2.38693 -3.53452 0
M  V30 3220 S 307.546 1.79071 -5.04672 0
M  V30 3221 C 308.702 3.15316 -5.40673 0
M  V30 3222 H 308.935 0.781435 -2.86846 0
M  V30 3223 H 306.468 0.290034 -1.51651 0
M  V30 3224 H 308.426 3.25089 -2.50654 0
M  V30 3225 H 307.087 2.79638 -1.43043 0
M  V30 3226 H 306.28 3.37964 -3.73893 0
M  V30 3227 H 305.882 1.69369 -3.33452 0
M  V30 3228 H 308.174 4.11613 -5.38127 0
M  V30 3229 H 309.117 2.99664 -6.41566 0
M  V30 3230 H 309.525 3.15457 -4.68132 0
M  V30 3231 N 308.923 1.53595 0.353017 0
M  V30 3232 C 310.169 1.70638 1.09593 0
M  V30 3233 C 310.502 0.463286 1.88593 0
M  V30 3234 O 309.777 -0.539597 1.86865 0
M  V30 3235 C 310.06 2.96406 2.04489 0
M  V30 3236 C 309.913 4.30901 1.29014 0
M  V30 3237 C 311.232 3.17812 3.0444 0
M  V30 3238 H 308.351 0.620913 0.397034 0
M  V30 3239 H 310.993 1.86254 0.375446 0
M  V30 3240 H 309.143 2.83223 2.65927 0
M  V30 3241 H 310.815 4.55917 0.702638 0
M  V30 3242 H 309.058 4.29741 0.592071 0
M  V30 3243 H 309.729 5.1506 1.98537 0
M  V30 3244 H 312.205 3.30263 2.53112 0
M  V30 3245 H 311.081 4.07223 3.6805 0
M  V30 3246 H 311.342 2.33669 3.75301 0
M  V30 3247 N 310.401 -0.613514 1.45168 0
M  V30 3248 C 311.678 -1.37263 1.39349 0
M  V30 3249 C 312.058 -2.11012 0.0610848 0
M  V30 3250 O 311.406 -2.07502 -0.956825 0
M  V30 3251 C 311.616 -2.3244 2.60332 0
M  V30 3252 C 312.964 -2.9523 3.05163 0
M  V30 3253 O 313.988 -2.42762 2.60663 0
M  V30 3254 O 312.847 -3.90454 3.82372 0
M  V30 3255 H 309.941 -0.615188 0.552696 0
M  V30 3256 H 312.487 -0.637097 1.57287 0
M  V30 3257 H 311.259 -1.77164 3.48896 0
M  V30 3258 H 310.882 -3.13383 2.44698 0
M  V30 3259 N 311.879 -1.3236 -0.855495 0
M  V30 3260 C 313.128 -1.22226 -1.60448 0
M  V30 3261 C 313.441 0.214733 -1.94418 0
M  V30 3262 O 314.647 0.437917 -2.67945 0
M  V30 3263 C 313.103 -2.14063 -2.89318 0
M  V30 3264 C 312.711 -3.62839 -2.62777 0
M  V30 3265 C 314.455 -2.12764 -3.67331 0
M  V30 3266 C 312.362 -4.4664 -3.87643 0
M  V30 3267 H 311.292 -0.453904 -0.602069 0
M  V30 3268 H 313.943 -1.57314 -0.944698 0
M  V30 3269 H 312.325 -1.71889 -3.5675 0
M  V30 3270 H 313.499 -4.1335 -2.03662 0
M  V30 3271 H 311.814 -3.66261 -1.98096 0
M  V30 3272 H 314.411 -2.72611 -4.59987 0
M  V30 3273 H 314.754 -1.11841 -4.00995 0
M  V30 3274 H 315.287 -2.53214 -3.06802 0
M  V30 3275 H 312.026 -5.48373 -3.5912 0
M  V30 3276 H 311.546 -4.0088 -4.46156 0
M  V30 3277 H 313.225 -4.59597 -4.55389 0
M  V30 3278 N 313.357 1.07166 -1.15556 0
M  V30 3279 C 314.603 1.80065 -0.932984 0
M  V30 3280 C 314.936 1.86586 0.53845 0
M  V30 3281 O 314.211 1.35098 1.39924 0
M  V30 3282 C 314.494 3.25022 -1.55025 0
M  V30 3283 C 314.347 3.26634 -3.09242 0
M  V30 3284 C 315.666 4.22341 -1.2376 0
M  V30 3285 H 312.785 0.653697 -0.340366 0
M  V30 3286 H 315.427 1.25389 -1.4275 0
M  V30 3287 H 313.577 3.71712 -1.12972 0
M  V30 3288 H 315.249 2.88173 -3.60214 0
M  V30 3289 H 313.492 2.65539 -3.43033 0
M  V30 3290 H 314.163 4.28854 -3.47546 0
M  V30 3291 H 316.639 3.8405 -1.60139 0
M  V30 3292 H 315.515 5.22053 -1.69564 0
M  V30 3293 H 315.776 4.41828 -0.154938 0
M  V30 3294 N 314.835 0.952656 1.25548 0
M  V30 3295 C 315.782 0.47008 2.25962 0
M  V30 3296 C 316.752 -0.476384 1.59122 0
M  V30 3297 O 317.937 -0.39007 1.8677 0
M  V30 3298 C 315.077 -0.247881 3.44209 0
M  V30 3299 C 314.19 0.735591 4.25691 0
M  V30 3300 C 313.325 -0.0047306 5.312 0
M  V30 3301 C 312.364 0.969805 6.04368 0
M  V30 3302 N 311.501 0.260486 7.01617 0
M  V30 3303 H 316.341 1.33126 2.66611 0
M  V30 3304 H 313.878 0.66765 1.31076 0
M  V30 3305 H 315.836 -0.680695 4.1161 0
M  V30 3306 H 314.466 -1.07312 3.0444 0
M  V30 3307 H 313.518 1.28689 3.57971 0
M  V30 3308 H 314.83 1.47934 4.76358 0
M  V30 3309 H 313.984 -0.496275 6.04667 0
M  V30 3310 H 312.723 -0.781282 4.81401 0
M  V30 3311 H 311.728 1.47237 5.29718 0
M  V30 3312 H 312.953 1.74655 6.56256 0
M  V30 3313 H 310.899 -0.497364 6.54112 0
M  V30 3314 H 310.816 0.943362 7.50091 0
M  V30 3315 H 312.084 -0.209587 7.79218 0
M  V30 3316 N 316.313 -1.40141 0.720998 0
M  V30 3317 C 317.276 -2.29058 0.0805834 0
M  V30 3318 C 318.276 -1.45632 -0.681758 0
M  V30 3319 O 319.466 -1.6648 -0.512856 0
M  V30 3320 C 316.598 -3.28925 -0.895593 0
M  V30 3321 H 317.791 -2.87191 0.863793 0
M  V30 3322 H 315.344 -1.48553 0.485975 0
M  V30 3323 H 316.079 -2.75822 -1.70566 0
M  V30 3324 H 315.864 -3.90519 -0.351766 0
M  V30 3325 H 317.354 -3.95494 -1.34069 0
M  V30 3326 N 317.792 -0.46758 -1.50504 0
M  V30 3327 C 318.722 0.318381 -2.31319 0
M  V30 3328 C 319.703 0.993564 -1.38066 0
M  V30 3329 O 320.888 0.991411 -1.66987 0
M  V30 3330 C 318.018 1.40275 -3.17711 0
M  V30 3331 C 316.972 0.849373 -4.19487 0
M  V30 3332 C 316.298 2.03177 -4.94594 0
M  V30 3333 C 317.598 -0.136942 -5.2212 0
M  V30 3334 H 319.292 -0.356106 -2.97275 0
M  V30 3335 H 316.838 -0.172703 -1.42961 0
M  V30 3336 H 318.791 1.96004 -3.73042 0
M  V30 3337 H 317.515 2.10596 -2.49634 0
M  V30 3338 H 316.174 0.314076 -3.65252 0
M  V30 3339 H 315.822 2.72187 -4.22993 0
M  V30 3340 H 315.522 1.66774 -5.63436 0
M  V30 3341 H 317.046 2.59403 -5.52759 0
M  V30 3342 H 318.46 0.331056 -5.72343 0
M  V30 3343 H 316.857 -0.41507 -5.98663 0
M  V30 3344 H 317.927 -1.06398 -4.73083 0
M  V30 3345 N 319.27 1.56325 -0.20005 0
M  V30 3346 C 320.518 1.97329 0.436547 0
M  V30 3347 C 320.839 1.08826 1.61808 0
M  V30 3348 O 320.109 0.160604 1.95241 0
M  V30 3349 H 318.689 0.728714 0.164272 0
M  V30 3350 H 321.351 1.92761 -0.287937 0
M  V30 3351 H 320.447 3.02264 0.777353 0
M  V30 3352 N 320.748 -0.0735177 1.57428 0
M  V30 3353 C 321.994 -0.768909 1.88307 0
M  V30 3354 C 322.349 -1.75273 0.793535 0
M  V30 3355 O 321.642 -1.90527 -0.202466 0
M  V30 3356 C 321.836 -1.51799 3.23561 0
M  V30 3357 C 321.665 -0.608217 4.45568 0
M  V30 3358 C 320.435 -0.245808 5.04702 0
M  V30 3359 C 322.633 0.0942904 5.14214 0
M  V30 3360 N 320.615 0.66987 6.10234 0
M  V30 3361 C 321.986 0.867222 6.13905 0
M  V30 3362 C 324.041 0.165943 4.97623 0
M  V30 3363 C 322.744 1.70515 6.98797 0
M  V30 3364 C 324.77 0.990837 5.83041 0
M  V30 3365 C 324.132 1.75182 6.82269 0
M  V30 3366 H 320.231 -0.25685 0.738615 0
M  V30 3367 H 322.815 -0.030499 1.94676 0
M  V30 3368 H 320.986 -2.22713 3.18203 0
M  V30 3369 H 322.718 -2.16226 3.42094 0
M  V30 3370 H 319.473 -0.598284 4.69806 0
M  V30 3371 H 319.897 1.1209 6.67656 0
M  V30 3372 H 324.539 -0.408064 4.20826 0
M  V30 3373 H 322.257 2.29013 7.7497 0
M  V30 3374 H 325.843 1.04923 5.72261 0
M  V30 3375 H 324.723 2.37983 7.47217 0
M  V30 3376 N 322.226 -1.5378 -0.344866 0
M  V30 3377 C 323.174 -1.82373 -1.4437 0
M  V30 3378 C 324.168 -0.694128 -1.54526 0
M  V30 3379 O 325.374 -0.877442 -1.57165 0
M  V30 3380 H 321.749 -0.577765 -0.481344 0
M  V30 3381 H 323.72 -2.74306 -1.17468 0
M  V30 3382 C 322.469 -2.04898 -2.80913 0
M  V30 3383 H 321.792 -2.9127 -2.73865 0
M  V30 3384 H 323.232 -2.28871 -3.56923 0
M  V30 3385 C 321.691 -0.834116 -3.26411 0
M  V30 3386 O 322.221 -0.0328885 -4.01687 0
M  V30 3387 N 320.427 -0.65171 -2.83198 0
M  V30 3388 H 319.974 -1.30489 -2.22104 0
M  V30 3389 H 319.932 0.159686 -3.13994 0
M  V30 3390 N 323.704 0.605807 -1.45491 0
M  V30 3391 C 324.934 1.38934 -1.52908 0
M  V30 3392 C 325.342 1.88513 -0.161086 0
M  V30 3393 O 324.685 1.62962 0.847891 0
M  V30 3394 C 324.747 2.62737 -2.45376 0
M  V30 3395 C 324.411 2.34785 -3.92078 0
M  V30 3396 C 325.408 1.95038 -4.8193 0
M  V30 3397 C 323.093 2.47642 -4.37011 0
M  V30 3398 C 325.087 1.68511 -6.14722 0
M  V30 3399 C 322.774 2.20728 -5.69844 0
M  V30 3400 C 323.772 1.81225 -6.58519 0
M  V30 3401 O 323.46 1.54627 -7.88889 0
M  V30 3402 H 323.192 0.431629 -0.520262 0
M  V30 3403 H 325.746 0.74573 -1.91384 0
M  V30 3404 H 323.976 3.29824 -2.01874 0
M  V30 3405 H 325.665 3.24783 -2.43456 0
M  V30 3406 H 326.431 1.84639 -4.48479 0
M  V30 3407 H 322.31 2.77356 -3.68232 0
M  V30 3408 H 325.854 1.37602 -6.83894 0
M  V30 3409 H 321.751 2.30744 -6.02849 0
M  V30 3410 H 322.519 1.68665 -8.00933 0
M  V30 3411 N 325.182 1.32811 0.848464 0
M  V30 3412 C 326.428 1.23907 1.60546 0
M  V30 3413 C 326.761 -0.197161 1.93197 0
M  V30 3414 O 326.036 -1.13596 1.5788 0
M  V30 3415 C 326.319 2.10489 2.92175 0
M  V30 3416 C 326.172 3.62522 2.66266 0
M  V30 3417 C 327.491 1.97075 3.93509 0
M  V30 3418 H 324.61 0.451459 0.58254 0
M  V30 3419 H 327.252 1.62818 0.979296 0
M  V30 3420 H 325.402 1.77434 3.45614 0
M  V30 3421 H 327.074 4.05821 2.19334 0
M  V30 3422 H 325.317 3.84879 2.00126 0
M  V30 3423 H 325.988 4.18437 3.6002 0
M  V30 3424 H 328.464 2.26045 3.49346 0
M  V30 3425 H 327.34 2.59923 4.83457 0
M  V30 3426 H 327.601 0.940186 4.31987 0
M  V30 3427 N 326.66 -1.06551 1.16123 0
M  V30 3428 C 327.885 -1.83544 0.965735 0
M  V30 3429 C 328.31 -1.81843 -0.481102 0
M  V30 3430 O 327.668 -1.21732 -1.34354 0
M  V30 3431 C 327.716 -3.28169 1.49457 0
M  V30 3432 O 326.82 -4.0643 0.699157 0
M  V30 3433 H 326.161 -0.568026 0.343864 0
M  V30 3434 H 328.691 -1.34362 1.54299 0
M  V30 3435 H 328.701 -3.78992 1.51092 0
M  V30 3436 H 327.376 -3.28722 2.54784 0
M  V30 3437 H 325.953 -3.65216 0.7531 0
M  V30 3438 N 328.138 -0.959301 -1.25041 0
M  V30 3439 C 329.366 -0.633949 -1.96948 0
M  V30 3440 C 329.781 0.794916 -1.7125 0
M  V30 3441 O 329.138 1.53231 -0.991287 0
M  V30 3442 C 329.189 -0.888805 -3.50403 0
M  V30 3443 O 328.91 -2.26149 -3.75218 0
M  V30 3444 C 330.411 -0.576482 -4.39536 0
M  V30 3445 H 327.631 -0.237263 -0.627652 0
M  V30 3446 H 330.175 -1.28495 -1.59089 0
M  V30 3447 H 328.33 -0.284145 -3.86357 0
M  V30 3448 H 328.744 -2.33514 -4.6965 0
M  V30 3449 H 330.218 -0.805314 -5.46094 0
M  V30 3450 H 330.695 0.489075 -4.36468 0
M  V30 3451 H 331.301 -1.16067 -4.09156 0
M  V30 3452 N 329.616 1.39756 -0.72842 0
M  V30 3453 C 330.546 2.33289 -0.0991354 0
M  V30 3454 C 331.527 1.53568 0.731489 0
M  V30 3455 O 332.712 1.81987 0.677807 0
M  V30 3456 C 329.842 3.3763 0.813834 0
M  V30 3457 C 328.796 4.2791 0.0878663 0
M  V30 3458 C 328.122 5.22894 1.11741 0
M  V30 3459 C 329.422 5.11314 -1.06563 0
M  V30 3460 H 331.116 2.86163 -0.880408 0
M  V30 3461 H 328.662 1.37591 -0.424819 0
M  V30 3462 H 330.615 4.0201 1.26355 0
M  V30 3463 H 329.339 2.83181 1.62715 0
M  V30 3464 H 327.998 3.65 -0.342159 0
M  V30 3465 H 327.646 4.64744 1.92412 0
M  V30 3466 H 327.346 5.84143 0.636477 0
M  V30 3467 H 328.87 5.90151 1.56697 0
M  V30 3468 H 330.284 5.69076 -0.694671 0
M  V30 3469 H 328.681 5.81671 -1.47577 0
M  V30 3470 H 329.751 4.46534 -1.89038 0
M  V30 3471 N 331.094 0.475555 1.50254 0
M  V30 3472 C 332.057 -0.305016 2.27161 0
M  V30 3473 C 333.057 -0.916519 1.32123 0
M  V30 3474 O 334.247 -0.785003 1.5551 0
M  V30 3475 C 331.379 -1.43496 3.09227 0
M  V30 3476 H 332.572 0.369511 2.97615 0
M  V30 3477 H 330.125 0.229747 1.54602 0
M  V30 3478 H 330.86 -2.14441 2.43281 0
M  V30 3479 H 330.645 -1.00223 3.79075 0
M  V30 3480 H 332.135 -1.98548 3.67381 0
M  V30 3481 N 332.573 -1.56217 0.208337 0
M  V30 3482 C 333.798 -2.02782 -0.435222 0
M  V30 3483 C 334.223 -1.08738 -1.53485 0
M  V30 3484 O 333.581 -0.0731855 -1.81152 0
M  V30 3485 C 333.629 -3.47687 -0.956335 0
M  V30 3486 O 332.733 -3.56773 -2.06849 0
M  V30 3487 H 332.074 -0.656403 -0.100158 0
M  V30 3488 H 334.604 -2.02033 0.3231 0
M  V30 3489 H 334.614 -3.87745 -1.26955 0
M  V30 3490 H 333.289 -4.15624 -0.15143 0
M  V30 3491 H 331.866 -3.28597 -1.76292 0
M  V30 3492 N 334.051 0.0651679 -1.57465 0
M  V30 3493 C 334.961 1.09448 -2.07505 0
M  V30 3494 C 335.977 1.41974 -1.00595 0
M  V30 3495 O 337.153 1.52018 -1.32107 0
M  V30 3496 C 334.218 2.38689 -2.51453 0
M  V30 3497 C 333.279 2.13073 -3.72691 0
M  V30 3498 C 332.512 3.36152 -4.14533 0
M  V30 3499 O 332.735 4.45517 -3.56189 0
M  V30 3500 O 331.669 3.23974 -5.07272 0
M  V30 3501 H 335.495 0.69935 -2.95538 0
M  V30 3502 H 333.08 0.279752 -1.46757 0
M  V30 3503 H 334.962 3.14736 -2.80212 0
M  V30 3504 H 333.637 2.77568 -1.66546 0
M  V30 3505 H 332.544 1.34709 -3.49005 0
M  V30 3506 H 333.877 1.79071 -4.5847 0
M  V30 3507 N 335.529 1.53961 0.336706 0
M  V30 3508 C 336.777 1.71197 1.07405 0
M  V30 3509 C 337.098 0.481475 1.88962 0
M  V30 3510 O 336.368 -0.504585 1.8929 0
M  V30 3511 H 334.948 0.631185 0.399517 0
M  V30 3512 H 337.61 1.91232 0.376323 0
M  V30 3513 H 336.706 2.58587 1.74755 0
M  V30 3514 N 337.007 -0.598083 1.45811 0
M  V30 3515 C 338.232 -1.3881 1.54099 0
M  V30 3516 C 338.657 -1.8726 0.177578 0
M  V30 3517 O 338.015 -1.6069 -0.839541 0
M  V30 3518 C 338.063 -2.56217 2.53743 0
M  V30 3519 O 337.167 -3.5716 2.06182 0
M  V30 3520 H 336.508 -0.414024 0.519115 0
M  V30 3521 H 339.038 -0.726971 1.91249 0
M  V30 3522 H 339.048 -3.03337 2.72856 0
M  V30 3523 H 337.723 -2.20303 3.5276 0
M  V30 3524 H 336.3 -3.16624 1.96987 0
M  V30 3525 N 338.485 -1.33259 -0.841409 0
M  V30 3526 C 339.715 -1.2742 -1.62628 0
M  V30 3527 C 340.123 0.157604 -1.88542 0
M  V30 3528 O 339.466 1.10938 -1.46419 0
M  V30 3529 C 339.528 -1.97797 -3.00194 0
M  V30 3530 C 339.192 -3.47109 -2.97261 0
M  V30 3531 C 340.189 -4.42358 -2.73159 0
M  V30 3532 C 337.874 -3.89247 -3.17478 0
M  V30 3533 C 339.868 -5.77718 -2.69296 0
M  V30 3534 C 337.555 -5.24713 -3.13241 0
M  V30 3535 C 338.553 -6.1876 -2.89181 0
M  V30 3536 O 338.241 -7.51745 -2.84843 0
M  V30 3537 H 337.973 -0.440436 -0.512827 0
M  V30 3538 H 340.527 -1.76153 -1.05638 0
M  V30 3539 H 338.757 -1.43652 -3.59028 0
M  V30 3540 H 340.446 -1.8549 -3.61038 0
M  V30 3541 H 341.212 -4.11127 -2.57294 0
M  V30 3542 H 337.091 -3.16456 -3.35226 0
M  V30 3543 H 340.635 -6.51097 -2.50436 0
M  V30 3544 H 336.532 -5.55569 -3.28654 0
M  V30 3545 H 337.3 -7.61262 -3.00702 0
M  V30 3546 N 339.963 1.05934 -1.16686 0
M  V30 3547 C 341.211 1.78447 -0.948744 0
M  V30 3548 C 341.532 1.87813 0.524523 0
M  V30 3549 O 340.802 1.38945 1.38098 0
M  V30 3550 H 339.382 0.660971 -0.348033 0
M  V30 3551 H 342.044 1.27947 -1.47022 0
M  V30 3552 H 341.14 2.80394 -1.37061 0
M  V30 3553 N 341.441 0.965919 1.2453 0
M  V30 3554 C 342.351 0.502154 2.29163 0
M  V30 3555 C 343.367 -0.436017 1.68448 0
M  V30 3556 O 344.543 -0.309497 1.99008 0
M  V30 3557 C 341.608 -0.201956 3.46111 0
M  V30 3558 C 340.669 0.775821 4.22232 0
M  V30 3559 C 339.902 0.105217 5.33596 0
M  V30 3560 O 340.125 -1.10683 5.59558 0
M  V30 3561 O 339.059 0.796475 5.96607 0
M  V30 3562 H 342.885 1.37194 2.70946 0
M  V30 3563 H 340.47 0.732875 1.30189 0
M  V30 3564 H 342.352 -0.597564 4.17142 0
M  V30 3565 H 341.027 -1.04673 3.06309 0
M  V30 3566 H 339.934 1.22185 3.53584 0
M  V30 3567 H 341.267 1.58896 4.65846 0
M  V30 3568 N 342.919 -1.39368 0.735821 0
M  V30 3569 C 343.866 -2.30599 0.0963825 0
M  V30 3570 C 344.836 -1.49257 -0.728794 0
M  V30 3571 O 346.021 -1.77941 -0.688588 0
M  V30 3572 C 343.161 -3.35596 -0.804305 0
M  V30 3573 C 342.274 -4.31987 0.0335761 0
M  V30 3574 C 341.409 -5.24053 -0.868461 0
M  V30 3575 C 340.448 -6.12095 -0.0258776 0
M  V30 3576 N 339.585 -6.96514 -0.883893 0
M  V30 3577 H 344.425 -2.8471 0.880002 0
M  V30 3578 H 341.962 -1.40188 0.445619 0
M  V30 3579 H 343.92 -3.95062 -1.34096 0
M  V30 3580 H 342.55 -2.82938 -1.55389 0
M  V30 3581 H 341.602 -3.74133 0.68766 0
M  V30 3582 H 342.914 -4.94074 0.685036 0
M  V30 3583 H 342.068 -5.88549 -1.47293 0
M  V30 3584 H 340.807 -4.62289 -1.5537 0
M  V30 3585 H 339.812 -5.4661 0.591386 0
M  V30 3586 H 341.037 -6.75923 0.656156 0
M  V30 3587 H 338.983 -6.37318 -1.55441 0
M  V30 3588 H 338.9 -7.55448 -0.288931 0
M  V30 3589 H 340.168 -7.65439 -1.4739 0
M  V30 3590 N 344.397 -0.483516 -1.5 0
M  V30 3591 C 345.645 0.067027 -2.01989 0
M  V30 3592 C 345.966 1.3909 -1.36671 0
M  V30 3593 O 345.236 1.88978 -0.516152 0
M  V30 3594 H 343.816 0.0277606 -0.746484 0
M  V30 3595 H 346.478 -0.636773 -1.84204 0
M  V30 3596 H 345.574 0.209484 -3.11396 0
M  V30 3597 N 345.875 1.56104 -0.216619 0
M  V30 3598 C 347.121 1.98466 0.417033 0
M  V30 3599 C 347.454 1.10403 1.59765 0
M  V30 3600 O 346.729 0.160632 1.93836 0
M  V30 3601 C 347.012 3.49769 0.85637 0
M  V30 3602 C 346.865 4.48606 -0.327546 0
M  V30 3603 C 348.184 4.05339 1.7143 0
M  V30 3604 H 345.303 0.721551 0.150112 0
M  V30 3605 H 347.945 1.87423 -0.311864 0
M  V30 3606 H 346.095 3.5931 1.47745 0
M  V30 3607 H 347.767 4.5108 -0.965618 0
M  V30 3608 H 346.01 4.22682 -0.975805 0
M  V30 3609 H 346.681 5.51995 0.0227149 0
M  V30 3610 H 349.157 3.98712 1.19031 0
M  V30 3611 H 348.033 5.11533 1.99061 0
M  V30 3612 H 348.294 3.51918 2.67593 0
M  V30 3613 N 347.353 -0.0568162 1.57498 0
M  V30 3614 C 348.263 -1.08346 2.08083 0
M  V30 3615 C 349.279 -1.41439 1.01346 0
M  V30 3616 O 350.455 -1.51316 1.32912 0
M  V30 3617 C 347.52 -2.37352 2.52715 0
M  V30 3618 C 346.581 -2.11093 3.73816 0
M  V30 3619 C 345.814 -3.33949 4.1631 0
M  V30 3620 O 346.037 -4.43622 3.58547 0
M  V30 3621 O 344.971 -3.21279 5.08983 0
M  V30 3622 H 348.797 -0.683667 2.95905 0
M  V30 3623 H 346.382 -0.271965 1.46904 0
M  V30 3624 H 348.264 -3.13246 2.81877 0
M  V30 3625 H 346.939 -2.76681 1.68016 0
M  V30 3626 H 345.846 -1.32856 3.49714 0
M  V30 3627 H 347.179 -1.76637 4.59413 0
M  V30 3628 N 348.832 -1.54138 -0.328536 0
M  V30 3629 C 350.057 -1.76378 -1.09112 0
M  V30 3630 C 350.482 -0.508596 -1.81094 0
M  V30 3631 O 349.84 0.539598 -1.73084 0
M  V30 3632 C 349.888 -2.95358 -2.06872 0
M  V30 3633 O 348.992 -2.66556 -3.14677 0
M  V30 3634 H 348.333 -0.584614 -0.314838 0
M  V30 3635 H 350.863 -2.01146 -0.374348 0
M  V30 3636 H 350.873 -3.22566 -2.4983 0
M  V30 3637 H 349.548 -3.86385 -1.5388 0
M  V30 3638 H 348.125 -2.50282 -2.7643 0
M  V30 3639 N 350.31 0.590341 -1.46126 0
M  V30 3640 C 351.557 1.34882 -1.5104 0
M  V30 3641 C 351.885 1.93849 -0.159021 0
M  V30 3642 O 351.14 1.76544 0.844436 0
M  V30 3643 C 351.439 2.5032 -2.55097 0
M  V30 3644 C 351.105 2.09394 -3.99331 0
M  V30 3645 C 349.767 1.97947 -4.38601 0
M  V30 3646 C 352.119 1.77712 -4.89967 0
M  V30 3647 C 349.447 1.53065 -5.66381 0
M  V30 3648 C 351.799 1.34312 -6.18177 0
M  V30 3649 C 350.463 1.21436 -6.56361 0
M  V30 3650 H 349.733 0.493568 -0.552695 0
M  V30 3651 H 352.38 0.665539 -1.79563 0
M  V30 3652 H 350.685 3.24062 -2.20207 0
M  V30 3653 H 352.382 3.08541 -2.56132 0
M  V30 3654 H 348.972 2.19235 -3.68285 0
M  V30 3655 H 353.156 1.85445 -4.60352 0
M  V30 3656 H 348.412 1.41733 -5.94745 0
M  V30 3657 H 352.586 1.08849 -6.87841 0
M  V30 3658 H 350.213 0.864345 -7.5527 0
M  V30 3659 N 351.788 1.33704 0.83433 0
M  V30 3660 C 353.016 1.28467 1.62185 0
M  V30 3661 C 353.431 -0.143526 1.88254 0
M  V30 3662 O 352.788 -1.08709 1.4659 0
M  V30 3663 C 352.839 2.06174 2.96942 0
M  V30 3664 O 352.56 3.43422 2.72016 0
M  V30 3665 C 354.061 2.08201 3.91366 0
M  V30 3666 H 351.281 0.4424 0.504503 0
M  V30 3667 H 353.825 1.76145 1.03891 0
M  V30 3668 H 351.98 1.62167 3.51825 0
M  V30 3669 H 352.394 3.83453 3.57861 0
M  V30 3670 H 353.868 2.67017 4.83121 0
M  V30 3671 H 354.345 1.07343 4.2588 0
M  V30 3672 H 354.951 2.52246 3.42421 0
M  V30 3673 N 353.266 -1.05314 1.17247 0
M  V30 3674 C 354.198 -2.13023 0.845812 0
M  V30 3675 C 355.211 -1.62096 -0.151246 0
M  V30 3676 O 356.4 -1.78343 0.0748818 0
M  V30 3677 C 353.5 -3.38047 0.240292 0
M  V30 3678 C 352.673 -4.18255 1.27991 0
M  V30 3679 C 351.732 -5.21625 0.692375 0
M  V30 3680 O 350.758 -5.52619 1.36385 0
M  V30 3681 N 351.96 -5.78201 -0.516178 0
M  V30 3682 H 354.725 -2.41642 1.77283 0
M  V30 3683 H 352.286 -1.21401 1.07115 0
M  V30 3684 H 354.278 -4.04359 -0.16603 0
M  V30 3685 H 352.848 -3.06972 -0.590487 0
M  V30 3686 H 352.068 -3.47451 1.86203 0
M  V30 3687 H 353.356 -4.68643 1.98119 0
M  V30 3688 H 352.754 -5.55301 -1.07969 0
M  V30 3689 H 351.311 -6.4604 -0.86458 0
M  V30 3690 N 354.744 -0.972509 -1.24016 0
M  V30 3691 C 355.993 -0.632603 -1.91523 0
M  V30 3692 C 356.306 0.836641 -1.76804 0
M  V30 3693 O 357.512 1.28728 -2.39043 0
M  V30 3694 C 355.968 -1.08082 -3.43287 0
M  V30 3695 C 355.576 -2.57386 -3.66683 0
M  V30 3696 C 357.32 -0.814288 -4.16617 0
M  V30 3697 C 355.227 -2.95915 -5.12043 0
M  V30 3698 H 354.157 -0.232898 -0.717129 0
M  V30 3699 H 356.808 -1.17936 -1.40582 0
M  V30 3700 H 355.19 -0.462339 -3.93292 0
M  V30 3701 H 356.364 -3.24405 -3.27258 0
M  V30 3702 H 354.679 -2.81701 -3.06649 0
M  V30 3703 H 357.276 -1.0781 -5.23718 0
M  V30 3704 H 357.619 0.24955 -4.15551 0
M  V30 3705 H 358.152 -1.39397 -3.72577 0
M  V30 3706 H 354.891 -4.0139 -5.18234 0
M  V30 3707 H 354.411 -2.33584 -5.52448 0
M  V30 3708 H 356.09 -2.86086 -5.80314 0
M  V30 3709 N 356.222 1.38976 -0.743202 0
M  V30 3710 C 357.447 2.05161 -0.303936 0
M  V30 3711 C 357.872 1.55677 1.05576 0
M  V30 3712 O 357.23 0.704131 1.67068 0
M  V30 3713 C 357.278 3.59138 -0.324373 0
M  V30 3714 O 356.382 4.06668 0.685204 0
M  V30 3715 H 355.723 0.649815 -0.136518 0
M  V30 3716 H 358.253 1.77852 -1.01142 0
M  V30 3717 H 358.263 4.07639 -0.171618 0
M  V30 3718 H 356.938 3.94515 -1.31647 0
M  V30 3719 H 355.515 3.69561 0.497913 0
M  V30 3720 N 357.7 0.491464 1.49741 0
M  V30 3721 C 358.647 -0.292027 2.28945 0
M  V30 3722 C 359.617 -0.968973 1.34908 0
M  V30 3723 O 360.802 -0.97748 1.6386 0
M  V30 3724 C 357.942 -1.35617 3.17336 0
M  V30 3725 C 357.055 -0.691957 4.26422 0
M  V30 3726 C 356.19 -1.73572 5.02042 0
M  V30 3727 C 355.229 -1.05286 6.02977 0
M  V30 3728 N 354.366 -2.0404 6.71798 0
M  V30 3729 H 359.206 0.389654 2.95442 0
M  V30 3730 H 356.743 0.204003 1.45679 0
M  V30 3731 H 358.701 -1.98502 3.66951 0
M  V30 3732 H 357.331 -2.00674 2.52844 0
M  V30 3733 H 356.383 0.0499523 3.80367 0
M  V30 3734 H 357.695 -0.153946 4.98562 0
M  V30 3735 H 356.849 -2.43987 5.55478 0
M  V30 3736 H 355.588 -2.30757 4.29654 0
M  V30 3737 H 354.593 -0.334446 5.48782 0
M  V30 3738 H 355.818 -0.487636 6.77347 0
M  V30 3739 H 353.764 -2.60205 6.02187 0
M  V30 3740 H 353.681 -1.55279 7.39881 0
M  V30 3741 H 354.949 -2.73772 7.29842 0
M  V30 3742 N 359.178 -1.55987 0.224894 0
M  V30 3743 C 360.088 -2.24066 -0.69511 0
M  V30 3744 C 361.104 -1.24939 -1.21104 0
M  V30 3745 O 362.28 -1.5776 -1.25195 0
M  V30 3746 C 359.345 -2.90983 -1.88493 0
M  V30 3747 C 358.406 -4.05462 -1.41064 0
M  V30 3748 C 357.639 -4.69179 -2.54375 0
M  V30 3749 O 357.862 -4.31895 -3.72589 0
M  V30 3750 O 356.796 -5.58108 -2.25386 0
M  V30 3751 H 360.622 -3.03353 -0.145149 0
M  V30 3752 H 358.207 -1.49399 -0.00569476 0
M  V30 3753 H 360.089 -3.33209 -2.57972 0
M  V30 3754 H 358.764 -2.14653 -2.42293 0
M  V30 3755 H 357.671 -3.67798 -0.683774 0
M  V30 3756 H 359.004 -4.83545 -0.918985 0
M  V30 3757 N 360.656 0.0484629 -1.57525 0
M  V30 3758 C 361.619 1.03956 -2.04269 0
M  V30 3759 C 362.619 1.30211 -0.943496 0
M  V30 3760 O 363.809 1.25539 -1.20771 0
M  V30 3761 C 360.941 2.37742 -2.44319 0
M  V30 3762 H 362.134 0.636182 -2.93075 0
M  V30 3763 H 359.687 0.294811 -1.53494 0
M  V30 3764 H 360.422 2.82866 -1.5861 0
M  V30 3765 H 360.207 2.20021 -3.24551 0
M  V30 3766 H 361.697 3.08936 -2.80978 0
M  V30 3767 N 362.134 1.5431 0.320358 0
M  V30 3768 C 363.382 1.72327 1.05583 0
M  V30 3769 C 363.703 0.50149 1.88441 0
M  V30 3770 O 362.973 -0.48448 1.89815 0
M  V30 3771 H 361.553 0.635387 0.3928 0
M  V30 3772 H 364.215 1.91621 0.356019 0
M  V30 3773 H 363.311 2.60426 1.72003 0
M  V30 3774 N 363.613 -0.582584 1.46437 0
M  V30 3775 C 364.861 -1.33814 1.51453 0
M  V30 3776 C 365.182 -1.94277 0.167792 0
M  V30 3777 O 364.452 -1.78566 -0.805677 0
M  V30 3778 H 363.032 -0.496838 0.557818 0
M  V30 3779 H 365.694 -0.682281 1.82568 0
M  V30 3780 H 364.79 -2.14479 2.26728 0
M  V30 3781 N 365.091 -1.34144 -0.827227 0
M  V30 3782 C 366.021 -1.28005 -1.95287 0
M  V30 3783 C 367.002 -0.158321 -1.69362 0
M  V30 3784 O 368.187 -0.349987 -1.9102 0
M  V30 3785 C 365.317 -1.03036 -3.31664 0
M  V30 3786 C 364.271 -2.11628 -3.72019 0
M  V30 3787 C 363.597 -1.71854 -5.0633 0
M  V30 3788 C 364.897 -3.53417 -3.8457 0
M  V30 3789 H 366.591 -2.22187 -2.00682 0
M  V30 3790 H 364.137 -1.0696 -0.964135 0
M  V30 3791 H 366.09 -0.973863 -4.09993 0
M  V30 3792 H 364.814 -0.0529391 -3.26557 0
M  V30 3793 H 363.473 -2.16339 -2.95961 0
M  V30 3794 H 363.121 -0.727841 -4.97706 0
M  V30 3795 H 362.821 -2.44531 -5.34302 0
M  V30 3796 H 364.345 -1.67692 -5.87122 0
M  V30 3797 H 365.759 -3.51142 -4.5318 0
M  V30 3798 H 364.156 -4.24679 -4.2399 0
M  V30 3799 H 365.226 -3.91072 -2.86689 0
M  V30 3800 N 366.569 1.04691 -1.17803 0
M  V30 3801 C 367.809 1.79352 -0.980423 0
M  V30 3802 C 368.173 1.85853 0.481958 0
M  V30 3803 O 369.374 2.56656 0.798809 0
M  V30 3804 C 367.645 3.19088 -1.6099 0
M  V30 3805 S 369.204 4.10164 -1.55918 0
M  V30 3806 H 366.022 0.617631 -0.352211 0
M  V30 3807 H 368.624 1.25575 -1.49837 0
M  V30 3808 H 367.328 3.11962 -2.66661 0
M  V30 3809 H 366.859 3.77941 -1.09197 0
M  V30 3810 H 368.874 4.92907 -0.570685 0
M  V30 3811 N 368.047 0.979072 1.23499 0
M  V30 3812 C 369.296 0.642751 1.91185 0
M  V30 3813 C 369.609 -0.827253 1.77245 0
M  V30 3814 O 370.815 -1.27458 2.39722 0
M  V30 3815 C 369.271 1.09901 3.42709 0
M  V30 3816 C 368.879 2.59327 3.65313 0
M  V30 3817 C 370.623 0.836371 4.16179 0
M  V30 3818 C 368.53 2.98627 5.10467 0
M  V30 3819 H 367.46 0.236698 0.715884 0
M  V30 3820 H 370.111 1.1868 1.39955 0
M  V30 3821 H 368.493 0.48319 3.93041 0
M  V30 3822 H 369.667 3.26136 3.25533 0
M  V30 3823 H 367.982 2.83323 3.05151 0
M  V30 3824 H 370.579 1.10586 5.23139 0
M  V30 3825 H 370.922 -0.227509 4.15678 0
M  V30 3826 H 371.455 1.41371 3.71832 0
M  V30 3827 H 368.194 4.04133 5.16098 0
M  V30 3828 H 367.714 2.3651 5.51201 0
M  V30 3829 H 369.393 2.89159 5.78788 0
M  V30 3830 N 369.525 -1.3858 0.750561 0
M  V30 3831 C 370.488 -2.28836 0.129152 0
M  V30 3832 C 371.488 -1.47045 -0.650714 0
M  V30 3833 O 372.678 -1.6753 -0.477428 0
M  V30 3834 C 369.81 -3.30751 -0.825622 0
M  V30 3835 H 371.003 -2.85294 0.924516 0
M  V30 3836 H 368.556 -1.47489 0.517376 0
M  V30 3837 H 369.291 -2.79378 -1.64677 0
M  V30 3838 H 369.076 -3.91177 -0.268852 0
M  V30 3839 H 370.566 -3.98249 -1.2565 0
M  V30 3840 N 371.003 -0.499398 -1.49478 0
M  V30 3841 C 371.935 0.316575 -2.27003 0
M  V30 3842 C 372.948 0.932047 -1.33479 0
M  V30 3843 O 374.137 0.815658 -1.58774 0
M  V30 3844 C 371.237 1.46055 -3.05812 0
M  V30 3845 C 370.41 0.952679 -4.26899 0
M  V30 3846 C 369.469 1.97407 -4.87767 0
M  V30 3847 O 368.495 1.54326 -5.4788 0
M  V30 3848 N 369.697 3.30436 -4.77276 0
M  V30 3849 H 372.462 -0.348168 -2.97671 0
M  V30 3850 H 370.023 -0.33185 -1.58463 0
M  V30 3851 H 372.015 2.14135 -3.43407 0
M  V30 3852 H 370.585 2.02948 -2.37762 0
M  V30 3853 H 369.805 0.0968248 -3.94081 0
M  V30 3854 H 371.093 0.59174 -5.05347 0
M  V30 3855 H 370.491 3.68126 -4.29534 0
M  V30 3856 H 369.048 3.94235 -5.19059 0
M  V30 3857 N 372.481 1.55866 -0.233164 0
M  V30 3858 C 373.706 2.03449 0.402906 0
M  V30 3859 C 374.131 1.11166 1.51736 0
M  V30 3860 O 373.489 0.101996 1.81013 0
M  V30 3861 C 373.537 3.49165 0.9009 0
M  V30 3862 O 372.641 3.60019 2.01147 0
M  V30 3863 H 371.982 0.657913 0.0897025 0
M  V30 3864 H 374.512 2.01493 -0.355201 0
M  V30 3865 H 374.522 3.89716 1.2077 0
M  V30 3866 H 373.197 4.15813 0.0852889 0
M  V30 3867 H 371.774 3.3136 1.71042 0
M  V30 3868 N 373.959 -0.0401083 1.57549 0
M  V30 3869 C 375.205 -0.734211 1.89043 0
M  V30 3870 C 375.538 -1.75591 0.829535 0
M  V30 3871 O 374.813 -1.93868 -0.156706 0
M  V30 3872 C 375.096 -1.41374 3.31188 0
M  V30 3873 C 374.949 -0.406299 4.47961 0
M  V30 3874 C 376.268 -2.35061 3.72068 0
M  V30 3875 H 373.387 -0.265447 0.687537 0
M  V30 3876 H 376.029 0.00294087 1.9 0
M  V30 3877 H 374.179 -2.04206 3.30503 0
M  V30 3878 H 375.851 0.219255 4.60779 0
M  V30 3879 H 374.094 0.275485 4.32924 0
M  V30 3880 H 374.765 -0.920022 5.44279 0
M  V30 3881 H 377.241 -1.82282 3.74049 0
M  V30 3882 H 376.117 -2.79593 4.72355 0
M  V30 3883 H 376.378 -3.21258 3.0372 0
M  V30 3884 N 375.437 -1.54477 -0.31217 0
M  V30 3885 C 376.853 -1.45442 -0.657185 0
M  V30 3886 C 377.053 -0.63653 -1.91182 0
M  V30 3887 O 376.109 -0.139815 -2.52113 0
M  V30 3888 C 377.422 -2.89287 -0.82058 0
M  V30 3889 C 378.97 -2.9926 -0.917188 0
M  V30 3890 C 379.445 -4.44279 -1.11267 0
M  V30 3891 N 380.936 -4.4794 -1.17914 0
M  V30 3892 C 381.671 -5.57318 -1.34848 0
M  V30 3893 N 381.167 -6.76642 -1.48752 0
M  V30 3894 N 382.96 -5.44986 -1.37647 0
M  V30 3895 H 375.111 -2.06129 0.512313 0
M  V30 3896 H 377.374 -0.933088 0.167485 0
M  V30 3897 H 377.08 -3.51687 0.0302604 0
M  V30 3898 H 376.954 -3.36061 -1.71298 0
M  V30 3899 H 379.341 -2.36981 -1.75852 0
M  V30 3900 H 379.422 -2.558 -0.00101257 0
M  V30 3901 H 379.066 -5.07149 -0.27614 0
M  V30 3902 H 378.996 -4.85359 -2.04289 0
M  V30 3903 H 381.487 -3.61969 -1.08567 0
M  V30 3904 H 381.8 -7.55758 -1.61397 0
M  V30 3905 H 380.145 -6.79529 -1.45828 0
M  V30 3906 H 383.336 -4.50715 -1.26388 0
M  V30 3907 H 383.509 -6.3028 -1.50501 0
M  V30 3908 N 376.915 0.57481 -1.46744 0
M  V30 3909 C 378.164 1.32898 -1.51727 0
M  V30 3910 C 378.477 1.948 -0.176692 0
M  V30 3911 O 379.683 2.71299 -0.104385 0
M  V30 3912 C 378.139 2.40901 -2.67385 0
M  V30 3913 C 377.747 1.85266 -4.07898 0
M  V30 3914 C 379.491 3.17609 -2.81646 0
M  V30 3915 C 377.398 2.90945 -5.14883 0
M  V30 3916 H 376.328 0.499631 -0.564699 0
M  V30 3917 H 378.979 0.612536 -1.72975 0
M  V30 3918 H 377.361 3.15379 -2.39483 0
M  V30 3919 H 378.535 1.17278 -4.45626 0
M  V30 3920 H 376.85 1.21199 -3.98371 0
M  V30 3921 H 379.447 3.96493 -3.58744 0
M  V30 3922 H 379.79 3.70696 -1.89448 0
M  V30 3923 H 380.323 2.50239 -3.09233 0
M  V30 3924 H 377.062 2.42736 -6.089 0
M  V30 3925 H 376.582 3.57398 -4.81691 0
M  V30 3926 H 378.261 3.54755 -5.41071 0
M  V30 3927 N 378.394 1.34581 0.820102 0
M  V30 3928 C 379.805 1.24298 1.39309 0
M  V30 3929 C 380.156 -0.130351 1.95767 0
M  V30 3930 O 379.281 -1.0308 1.90272 0
M  V30 3931 C 379.876 2.25054 2.53251 0
M  V30 3932 C 378.435 2.18552 3.0645 0
M  V30 3933 C 377.582 2.11503 1.79337 0
M  V30 3934 H 380.533 1.45906 0.624262 0
M  V30 3935 H 380.554 1.86917 3.31425 0
M  V30 3936 H 380.066 3.24996 2.1213 0
M  V30 3937 H 378.167 1.21976 3.52069 0
M  V30 3938 H 378.28 3.0993 3.65349 0
M  V30 3939 H 376.644 1.57268 2.00347 0
M  V30 3940 H 377.427 3.13284 1.40386 0
M  V30 3941 N 379.872 -1.04064 1.18357 0
M  V30 3942 C 380.804 -2.12114 0.868358 0
M  V30 3943 C 381.817 -1.62247 -0.134045 0
M  V30 3944 O 383.006 -1.78253 0.0937933 0
M  V30 3945 C 380.106 -3.37773 0.276132 0
M  V30 3946 C 379.279 -4.16874 1.3242 0
M  V30 3947 C 378.338 -5.20861 0.747662 0
M  V30 3948 O 377.364 -5.51141 1.42239 0
M  V30 3949 N 378.566 -5.78715 -0.454823 0
M  V30 3950 H 381.331 -2.39748 1.79836 0
M  V30 3951 H 378.892 -1.20258 1.08396 0
M  V30 3952 H 380.884 -4.04513 -0.123133 0
M  V30 3953 H 379.454 -3.07581 -0.557895 0
M  V30 3954 H 378.674 -3.45456 1.89878 0
M  V30 3955 H 379.962 -4.66516 2.03078 0
M  V30 3956 H 379.36 -5.56415 -1.02073 0
M  V30 3957 H 377.917 -6.46921 -0.79601 0
M  V30 3958 N 381.35 -0.985608 -1.22978 0
M  V30 3959 C 382.26 -0.538548 -2.28335 0
M  V30 3960 C 383.276 0.409163 -1.69121 0
M  V30 3961 O 384.452 0.277797 -1.99475 0
M  V30 3962 C 381.517 0.146867 -3.46389 0
M  V30 3963 C 380.578 -0.842896 -4.20944 0
M  V30 3964 C 379.811 -0.190095 -5.33361 0
M  V30 3965 O 380.034 1.01767 -5.61248 0
M  V30 3966 O 378.968 -0.891289 -5.95264 0
M  V30 3967 H 382.794 -1.41487 -2.68729 0
M  V30 3968 H 380.379 -0.753495 -1.29007 0
M  V30 3969 H 382.261 0.531125 -4.1804 0
M  V30 3970 H 380.936 0.997871 -3.07935 0
M  V30 3971 H 379.843 -1.27795 -3.51595 0
M  V30 3972 H 381.176 -1.66287 -4.6326 0
M  V30 3973 N 382.828 1.3818 -0.7579 0
M  V30 3974 C 384.244 1.5353 -0.435972 0
M  V30 3975 C 384.444 1.71961 1.05032 0
M  V30 3976 O 383.5 1.73307 1.83633 0
M  V30 3977 C 384.813 2.73989 -1.23898 0
M  V30 3978 C 386.361 2.87841 -1.22949 0
M  V30 3979 C 386.836 4.11266 -2.01554 0
M  V30 3980 N 388.327 4.18352 -1.98837 0
M  V30 3981 C 389.062 5.12856 -2.5645 0
M  V30 3982 N 388.558 6.13005 -3.22794 0
M  V30 3983 N 390.351 5.05238 -2.46356 0
M  V30 3984 H 382.502 1.24467 -1.7211 0
M  V30 3985 H 384.765 0.604982 -0.729864 0
M  V30 3986 H 384.471 2.66789 -2.29165 0
M  V30 3987 H 384.345 3.67294 -0.858764 0
M  V30 3988 H 386.732 2.9452 -0.184854 0
M  V30 3989 H 386.813 1.95534 -1.64924 0
M  V30 3990 H 386.457 4.05349 -3.06031 0
M  V30 3991 H 386.387 5.02661 -1.5697 0
M  V30 3992 H 388.878 3.46628 -1.50524 0
M  V30 3993 H 389.191 6.81619 -3.64165 0
M  V30 3994 H 387.536 6.13325 -3.2689 0
M  V30 3995 H 390.727 4.25938 -1.9415 0
M  V30 3996 H 390.9 5.78707 -2.91552 0
M  V30 3997 N 384.306 0.507319 1.49211 0
M  V30 3998 C 385.253 -0.267728 2.29242 0
M  V30 3999 C 386.223 -0.954609 1.35928 0
M  V30 4000 O 387.408 -0.960046 1.64887 0
M  V30 4001 C 384.548 -1.32243 3.18756 0
M  V30 4002 C 383.661 -0.64669 4.27132 0
M  V30 4003 C 382.796 -1.68238 5.03855 0
M  V30 4004 C 381.835 -0.98885 6.0406 0
M  V30 4005 N 380.972 -1.96903 6.73924 0
M  V30 4006 H 385.812 0.420968 2.95012 0
M  V30 4007 H 383.349 0.219443 1.45454 0
M  V30 4008 H 385.307 -1.94599 3.69036 0
M  V30 4009 H 383.937 -1.97981 2.54958 0
M  V30 4010 H 382.989 0.0902926 3.80293 0
M  V30 4011 H 384.301 -0.101058 4.98698 0
M  V30 4012 H 383.455 -2.38081 5.58034 0
M  V30 4013 H 382.194 -2.26187 4.32077 0
M  V30 4014 H 381.199 -0.276222 5.49106 0
M  V30 4015 H 382.424 -0.415767 6.77826 0
M  V30 4016 H 380.37 -2.53803 6.04913 0
M  V30 4017 H 380.287 -1.47423 7.41487 0
M  V30 4018 H 381.555 -2.66015 7.32705 0
M  V30 4019 N 385.784 -1.5574 0.241426 0
M  V30 4020 C 387.061 -1.90704 -0.434881 0
M  V30 4021 C 387.441 -1.16145 -1.76277 0
M  V30 4022 O 386.789 -0.277152 -2.26813 0
M  V30 4023 C 386.999 -3.43657 -0.608343 0
M  V30 4024 C 388.347 -4.14806 -0.906725 0
M  V30 4025 O 389.371 -3.49366 -0.694408 0
M  V30 4026 O 388.23 -5.30548 -1.31075 0
M  V30 4027 H 385.324 -0.793592 -0.23268 0
M  V30 4028 H 387.87 -1.67288 0.285086 0
M  V30 4029 H 386.642 -3.89927 0.327505 0
M  V30 4030 H 386.265 -3.72918 -1.37906 0
M  V30 4031 N 387.262 0.0317525 -1.57568 0
M  V30 4032 C 388.678 0.38735 -1.54828 0
M  V30 4033 C 388.878 1.7677 -0.967187 0
M  V30 4034 O 387.934 2.45581 -0.587063 0
M  V30 4035 C 389.247 0.291667 -2.99282 0
M  V30 4036 C 390.795 0.368946 -3.10818 0
M  V30 4037 C 391.27 0.302741 -4.56998 0
M  V30 4038 N 392.761 0.361617 -4.61786 0
M  V30 4039 C 393.496 0.333238 -5.72431 0
M  V30 4040 N 392.992 0.257308 -6.92322 0
M  V30 4041 N 394.785 0.382769 -5.60795 0
M  V30 4042 H 386.936 -0.871609 -1.93692 0
M  V30 4043 H 389.199 -0.331161 -0.888277 0
M  V30 4044 H 388.905 -0.656794 -3.45513 0
M  V30 4045 H 388.779 1.08638 -3.61217 0
M  V30 4046 H 391.166 1.30784 -2.64536 0
M  V30 4047 H 391.247 -0.455066 -2.5172 0
M  V30 4048 H 390.891 -0.632473 -5.03947 0
M  V30 4049 H 390.821 1.14482 -5.14005 0
M  V30 4050 H 393.312 0.422923 -3.75526 0
M  V30 4051 H 393.625 0.24068 -7.72425 0
M  V30 4052 H 391.97 0.223396 -6.94641 0
M  V30 4053 H 395.161 0.44006 -4.66027 0
M  V30 4054 H 395.334 0.357184 -6.47015 0
M  V30 4055 N 388.74 1.54641 0.303973 0
M  V30 4056 C 389.968 1.77768 1.05858 0
M  V30 4057 C 390.383 0.535722 1.8104 0
M  V30 4058 O 389.74 -0.494337 1.75677 0
M  V30 4059 C 389.791 2.9834 2.04146 0
M  V30 4060 O 389.512 4.17736 1.32015 0
M  V30 4061 C 391.013 3.33832 2.91669 0
M  V30 4062 H 388.233 0.592961 0.314067 0
M  V30 4063 H 390.777 2.01583 0.344149 0
M  V30 4064 H 388.932 2.76742 2.71096 0
M  V30 4065 H 389.346 4.85693 1.97998 0
M  V30 4066 H 390.82 4.21448 3.56491 0
M  V30 4067 H 391.297 2.51857 3.59812 0
M  V30 4068 H 391.903 3.57579 2.30254 0
M  V30 4069 N 390.218 -0.567019 1.47046 0
M  V30 4070 C 391.467 -1.32091 1.5243 0
M  V30 4071 C 391.78 -1.94704 0.187021 0
M  V30 4072 O 392.986 -2.7124 0.118771 0
M  V30 4073 C 391.442 -2.39479 2.68659 0
M  V30 4074 C 391.05 -1.831 4.08874 0
M  V30 4075 C 392.794 -3.16111 2.83327 0
M  V30 4076 C 390.701 -2.8821 5.16419 0
M  V30 4077 H 389.631 -0.496629 0.56734 0
M  V30 4078 H 392.282 -0.603354 1.73297 0
M  V30 4079 H 390.664 -3.14105 2.41152 0
M  V30 4080 H 391.838 -1.14913 4.46242 0
M  V30 4081 H 390.153 -1.19085 3.99008 0
M  V30 4082 H 392.75 -3.94585 3.60842 0
M  V30 4083 H 393.093 -3.69686 1.91411 0
M  V30 4084 H 393.626 -2.48595 3.10556 0
M  V30 4085 H 390.365 -2.39504 6.10179 0
M  V30 4086 H 389.885 -3.54839 4.8358 0
M  V30 4087 H 391.564 -3.51881 5.42945 0
M  V30 4088 N 391.696 -1.35014 -0.812953 0
M  V30 4089 C 392.973 -1.18502 -1.55617 0
M  V30 4090 C 393.353 0.238421 -2.09749 0
M  V30 4091 O 392.701 1.2411 -1.91857 0
M  V30 4092 C 392.911 -2.24783 -2.66971 0
M  V30 4093 C 394.259 -2.60268 -3.35478 0
M  V30 4094 O 395.283 -2.23648 -2.77236 0
M  V30 4095 O 394.142 -3.2321 -4.40678 0
M  V30 4096 H 391.236 -0.459984 -0.687272 0
M  V30 4097 H 393.782 -1.46677 -0.853464 0
M  V30 4098 H 392.554 -3.20284 -2.24798 0
M  V30 4099 H 392.177 -1.97841 -3.44884 0
M  V30 4100 N 393.175 1.03435 -1.18907 0
M  V30 4101 C 394.422 1.76743 -0.988334 0
M  V30 4102 C 394.75 1.88447 0.481441 0
M  V30 4103 O 394.005 1.39383 1.37371 0
M  V30 4104 C 394.304 3.19792 -1.59586 0
M  V30 4105 C 393.97 3.28108 -3.09283 0
M  V30 4106 C 392.632 3.30084 -3.5014 0
M  V30 4107 C 394.984 3.27696 -4.05296 0
M  V30 4108 C 392.312 3.29299 -4.85571 0
M  V30 4109 C 394.664 3.28451 -5.4065 0
M  V30 4110 C 393.328 3.28723 -5.80946 0
M  V30 4111 H 392.598 0.64675 -0.361657 0
M  V30 4112 H 395.245 1.21442 -1.48068 0
M  V30 4113 H 393.55 3.78136 -1.02568 0
M  V30 4114 H 395.247 3.75171 -1.41589 0
M  V30 4115 H 391.837 3.27294 -2.76725 0
M  V30 4116 H 396.021 3.25354 -3.74778 0
M  V30 4117 H 391.277 3.2783 -5.16079 0
M  V30 4118 H 395.451 3.27082 -6.14809 0
M  V30 4119 H 393.078 3.27868 -6.85862 0
M  V30 4120 N 394.653 0.992116 1.22453 0
M  V30 4121 C 395.93 0.583508 1.86694 0
M  V30 4122 C 396.31 -0.9392 1.89056 0
M  V30 4123 O 395.658 -1.82081 1.38053 0
M  V30 4124 C 395.868 1.20304 3.2761 0
M  V30 4125 C 397.216 1.30308 4.0411 0
M  V30 4126 O 398.24 1.15737 3.36873 0
M  V30 4127 O 397.099 1.53615 5.24466 0
M  V30 4128 H 394.193 0.198129 0.802916 0
M  V30 4129 H 396.739 1.08794 1.30238 0
M  V30 4130 H 395.511 2.24461 3.2052 0
M  V30 4131 H 395.134 0.684144 3.9167 0
M  V30 4132 N 396.131 -1.37776 0.765217 0
M  V30 4133 C 397.547 -1.53297 0.444108 0
M  V30 4134 C 397.747 -1.72515 -1.04119 0
M  V30 4135 O 396.803 -1.74278 -1.82711 0
M  V30 4136 C 398.116 -2.73328 1.25349 0
M  V30 4137 C 399.664 -2.87185 1.24473 0
M  V30 4138 C 400.139 -4.10191 2.03733 0
M  V30 4139 N 401.63 -4.17291 2.01053 0
M  V30 4140 C 402.365 -5.11488 2.59166 0
M  V30 4141 N 401.861 -6.11285 3.26041 0
M  V30 4142 N 403.654 -5.03924 2.49032 0
M  V30 4143 H 395.805 -1.23552 1.72768 0
M  V30 4144 H 398.068 -0.601103 0.733062 0
M  V30 4145 H 397.774 -2.6557 2.30577 0
M  V30 4146 H 397.648 -3.66834 0.87823 0
M  V30 4147 H 400.035 -2.94418 0.20047 0
M  V30 4148 H 400.116 -1.94657 1.65959 0
M  V30 4149 H 399.76 -4.0372 3.08176 0
M  V30 4150 H 399.69 -5.01821 1.59633 0
M  V30 4151 H 402.181 -3.45825 1.5236 0
M  V30 4152 H 402.494 -6.79678 3.67774 0
M  V30 4153 H 400.839 -6.11583 3.30138 0
M  V30 4154 H 404.03 -4.24902 1.96407 0
M  V30 4155 H 404.203 -5.77152 2.94617 0
M  V30 4156 N 397.609 -0.515225 -1.4894 0
M  V30 4157 C 398.858 0.0261361 -2.01683 0
M  V30 4158 C 399.171 1.36719 -1.39883 0
M  V30 4159 O 400.377 1.99606 -1.84037 0
M  V30 4160 C 398.833 0.0970111 -3.59769 0
M  V30 4161 C 398.441 -1.23825 -4.30548 0
M  V30 4162 C 400.185 0.587981 -4.20408 0
M  V30 4163 C 398.092 -1.12877 -5.80528 0
M  V30 4164 H 397.022 0.0135398 -0.753878 0
M  V30 4165 H 399.673 -0.656787 -1.71343 0
M  V30 4166 H 398.055 0.844694 -3.86886 0
M  V30 4167 H 399.229 -2.00034 -4.15118 0
M  V30 4168 H 397.544 -1.66379 -3.81716 0
M  V30 4169 H 400.141 0.68763 -5.3026 0
M  V30 4170 H 400.484 1.59026 -3.84729 0
M  V30 4171 H 401.017 -0.103582 -3.97665 0
M  V30 4172 H 397.756 -2.10575 -6.20756 0
M  V30 4173 H 397.276 -0.407799 -5.98412 0
M  V30 4174 H 398.955 -0.813332 -6.41868 0
M  V30 4175 N 399.087 1.5561 -0.249682 0
M  V30 4176 C 400.336 1.98187 0.37479 0
M  V30 4177 C 400.649 1.14111 1.58865 0
M  V30 4178 O 401.855 1.46714 2.28445 0
M  V30 4179 C 400.311 3.52661 0.718192 0
M  V30 4180 C 399.919 4.45481 -0.474428 0
M  V30 4181 C 401.663 4.03888 1.3067 0
M  V30 4182 C 399.57 5.91303 -0.107026 0
M  V30 4183 H 398.5 0.740159 0.143808 0
M  V30 4184 H 401.151 1.80125 -0.350336 0
M  V30 4185 H 399.533 3.66429 1.50152 0
M  V30 4186 H 400.707 4.43473 -1.25172 0
M  V30 4187 H 399.022 4.04751 -0.978052 0
M  V30 4188 H 401.619 5.10358 1.59496 0
M  V30 4189 H 401.962 3.51401 2.23211 0
M  V30 4190 H 402.495 3.93457 0.586211 0
M  V30 4191 H 399.234 6.47833 -0.999642 0
M  V30 4192 H 398.754 5.9644 0.634013 0
M  V30 4193 H 400.433 6.46258 0.309807 0
M  V30 4194 N 400.565 -0.0233959 1.57583 0
M  V30 4195 C 401.512 -1.02224 2.06927 0
M  V30 4196 C 402.482 -1.35575 0.959617 0
M  V30 4197 O 403.667 -1.45815 1.23055 0
M  V30 4198 C 400.807 -2.31636 2.5581 0
M  V30 4199 C 399.92 -2.04394 3.80588 0
M  V30 4200 C 399.055 -3.27717 4.18061 0
M  V30 4201 C 398.094 -2.96056 5.3574 0
M  V30 4202 N 397.231 -4.11847 5.68618 0
M  V30 4203 H 402.071 -0.594504 2.9201 0
M  V30 4204 H 399.608 -0.281921 1.44373 0
M  V30 4205 H 401.566 -3.07258 2.82221 0
M  V30 4206 H 400.196 -2.72122 1.73636 0
M  V30 4207 H 399.248 -1.19244 3.61227 0
M  V30 4208 H 400.56 -1.77042 4.66323 0
M  V30 4209 H 399.714 -4.11702 4.4563 0
M  V30 4210 H 398.453 -3.58188 3.30988 0
M  V30 4211 H 397.458 -2.10474 5.07918 0
M  V30 4212 H 398.683 -2.66857 6.24471 0
M  V30 4213 H 396.629 -4.42258 4.84504 0
M  V30 4214 H 396.546 -3.87938 6.48876 0
M  V30 4215 H 397.814 -4.96689 6.00766 0
M  V30 4216 N 402.043 -1.548 -0.295768 0
M  V30 4217 C 402.975 -1.82492 -1.3867 0
M  V30 4218 C 403.988 -0.708134 -1.46592 0
M  V30 4219 O 405.177 -0.985686 -1.48817 0
M  V30 4220 C 402.277 -1.95256 -2.76999 0
M  V30 4221 C 401.45 -3.25709 -2.91946 0
M  V30 4222 C 400.509 -3.28824 -4.10806 0
M  V30 4223 O 399.535 -4.02328 -4.02643 0
M  V30 4224 N 400.737 -2.5459 -5.21694 0
M  V30 4225 H 403.502 -2.76646 -1.15269 0
M  V30 4226 H 401.063 -1.54438 -0.485849 0
M  V30 4227 H 403.055 -1.94736 -3.54768 0
M  V30 4228 H 401.625 -1.08072 -2.93324 0
M  V30 4229 H 400.845 -3.38959 -2.01247 0
M  V30 4230 H 402.133 -4.11786 -2.98847 0
M  V30 4231 H 401.531 -1.94512 -5.31208 0
M  V30 4232 H 400.088 -2.59818 -5.97778 0
M  V30 4233 N 403.521 0.559213 -1.47345 0
M  V30 4234 C 404.451 1.67622 -1.62558 0
M  V30 4235 C 405.432 1.63331 -0.475087 0
M  V30 4236 O 406.617 1.80983 -0.704182 0
M  V30 4237 C 403.747 3.0626 -1.63774 0
M  V30 4238 C 402.701 3.25397 -2.7803 0
M  V30 4239 C 402.027 4.64801 -2.64318 0
M  V30 4240 C 403.327 3.10965 -4.19641 0
M  V30 4241 H 405.021 1.55146 -2.56067 0
M  V30 4242 H 402.567 0.744961 -1.23233 0
M  V30 4243 H 404.52 3.84247 -1.73008 0
M  V30 4244 H 403.244 3.1969 -0.66825 0
M  V30 4245 H 401.903 2.49817 -2.68304 0
M  V30 4246 H 401.551 4.75028 -1.65401 0
M  V30 4247 H 401.251 4.78555 -3.40968 0
M  V30 4248 H 402.775 5.44926 -2.75478 0
M  V30 4249 H 404.189 3.78772 -4.30354 0
M  V30 4250 H 402.586 3.36229 -4.97062 0
M  V30 4251 H 403.656 2.07736 -4.38148 0
M  V30 4252 N 404.999 1.35443 0.805782 0
M  V30 4253 C 405.929 1.31095 1.93226 0
M  V30 4254 C 406.91 0.185244 1.69088 0
M  V30 4255 O 408.095 0.380332 1.90439 0
M  V30 4256 C 405.225 1.08299 3.29983 0
M  V30 4257 C 404.179 2.17519 3.68605 0
M  V30 4258 C 403.505 1.79887 5.03532 0
M  V30 4259 C 404.805 3.5949 3.78898 0
M  V30 4260 H 406.499 2.25352 1.97122 0
M  V30 4261 H 404.045 1.0848 0.946996 0
M  V30 4262 H 405.998 1.03897 4.08391 0
M  V30 4263 H 404.722 0.104885 3.26432 0
M  V30 4264 H 403.381 2.2102 2.92482 0
M  V30 4265 H 403.029 0.80693 4.96485 0
M  V30 4266 H 402.729 2.53001 5.30344 0
M  V30 4267 H 404.253 1.77011 5.84379 0
M  V30 4268 H 405.667 3.58307 4.47536 0
M  V30 4269 H 404.064 4.31371 4.1718 0
M  V30 4270 H 405.134 3.95584 2.80431 0
M  V30 4271 N 406.477 -1.02803 1.19454 0
M  V30 4272 C 407.754 -1.73299 0.907013 0
M  V30 4273 C 408.134 -2.02772 -0.587086 0
M  V30 4274 O 407.482 -1.68304 -1.54551 0
M  V30 4275 C 407.692 -3.00912 1.76785 0
M  V30 4276 C 409.04 -3.74403 2.00268 0
M  V30 4277 O 410.064 -3.10841 1.73943 0
M  V30 4278 O 408.923 -4.88675 2.4466 0
M  V30 4279 H 406.017 -0.754727 0.338106 0
M  V30 4280 H 408.563 -1.08754 1.30271 0
M  V30 4281 H 407.335 -2.75366 2.7801 0
M  V30 4282 H 406.958 -3.73197 1.37149 0
M  V30 4283 N 407.956 -0.998596 -1.21925 0
M  V30 4284 C 409.184 -0.696286 -1.94832 0
M  V30 4285 C 409.599 0.740032 -1.73692 0
M  V30 4286 O 408.956 1.5 -1.03953 0
M  V30 4287 C 409.007 -0.999833 -3.47398 0
M  V30 4288 O 408.728 -2.37972 -3.67833 0
M  V30 4289 C 410.229 -0.716025 -4.37479 0
M  V30 4290 H 407.449 -0.257111 -0.619786 0
M  V30 4291 H 409.993 -1.33491 -1.54921 0
M  V30 4292 H 408.148 -0.406918 -3.85257 0
M  V30 4293 H 408.562 -2.48338 -4.61983 0
M  V30 4294 H 410.036 -0.978642 -5.43256 0
M  V30 4295 H 410.513 0.349968 -4.37803 0
M  V30 4296 H 411.119 -1.29025 -4.05256 0
M  V30 4297 N 409.434 1.37368 -0.772513 0
M  V30 4298 C 410.845 1.8231 -0.402493 0
M  V30 4299 C 411.196 1.6436 1.07146 0
M  V30 4300 O 410.321 1.15514 1.82991 0
M  V30 4301 C 410.916 3.30979 -0.723776 0
M  V30 4302 C 409.475 3.74195 -0.406802 0
M  V30 4303 C 408.622 2.59885 -0.967218 0
M  V30 4304 H 411.573 1.25829 -0.967099 0
M  V30 4305 H 411.594 3.80499 -0.00870832 0
M  V30 4306 H 411.106 3.44011 -1.7966 0
M  V30 4307 H 409.207 3.66732 0.658673 0
M  V30 4308 H 409.32 4.7027 -0.915588 0
M  V30 4309 H 407.684 2.51674 -0.391416 0
M  V30 4310 H 408.467 2.7571 -2.04546 0
M  V30 4311 N 410.912 0.523116 1.48665 0
M  V30 4312 C 411.86 -0.256859 2.31177 0
M  V30 4313 C 412.854 -0.94199 1.40794 0
M  V30 4314 O 414.06 -0.867157 1.57735 0
M  V30 4315 H 410.435 -0.1017 0.745091 0
M  V30 4316 H 412.406 0.458739 2.94853 0
M  V30 4317 C 411.155 -1.29503 3.22683 0
M  V30 4318 H 410.478 -0.777248 3.92172 0
M  V30 4319 H 411.918 -1.81233 3.83315 0
M  V30 4320 C 410.377 -2.32501 2.43813 0
M  V30 4321 O 410.907 -3.3881 2.15803 0
M  V30 4322 N 409.113 -2.05538 2.05432 0
M  V30 4323 H 408.66 -1.19104 2.28412 0
M  V30 4324 H 408.618 -2.74676 1.52973 0
M  V30 4325 N 412.39 -1.55475 0.257931 0
M  V30 4326 C 413.615 -2.04064 -0.370488 0
M  V30 4327 C 414.04 -1.13565 -1.49948 0
M  V30 4328 O 413.398 -0.130781 -1.80828 0
M  V30 4329 C 413.446 -3.50554 -0.845237 0
M  V30 4330 O 412.55 -3.63173 -1.95394 0
M  V30 4331 H 411.891 -0.659257 -0.0792243 0
M  V30 4332 H 414.421 -2.00903 0.387212 0
M  V30 4333 H 414.431 -3.91588 -1.14555 0
M  V30 4334 H 413.106 -4.15896 -0.0191259 0
M  V30 4335 H 411.683 -3.34039 -1.65748 0
M  V30 4336 N 413.868 0.0150385 -1.57593 0
M  V30 4337 C 415.284 0.370907 -1.5523 0
M  V30 4338 C 415.484 1.75735 -0.985882 0
M  V30 4339 O 414.54 2.44944 -0.613077 0
M  V30 4340 C 415.853 0.259908 -2.99575 0
M  V30 4341 C 417.401 0.335959 -3.11192 0
M  V30 4342 C 417.876 0.254253 -4.57294 0
M  V30 4343 N 419.367 0.312618 -4.62144 0
M  V30 4344 C 420.102 0.272505 -5.72752 0
M  V30 4345 N 419.598 0.183864 -6.92556 0
M  V30 4346 N 421.391 0.323267 -5.6117 0
M  V30 4347 H 413.542 -0.892104 -1.92757 0
M  V30 4348 H 415.805 -0.340563 -0.884715 0
M  V30 4349 H 415.511 -0.693403 -3.44797 0
M  V30 4350 H 415.385 1.048 -3.62349 0
M  V30 4351 H 417.772 1.27971 -2.65909 0
M  V30 4352 H 417.853 -0.481739 -2.51223 0
M  V30 4353 H 417.497 -0.685887 -5.03247 0
M  V30 4354 H 417.427 1.09024 -5.15191 0
M  V30 4355 H 419.918 0.38307 -3.75953 0
M  V30 4356 H 420.231 0.15874 -7.72637 0
M  V30 4357 H 418.576 0.149708 -6.94839 0
M  V30 4358 H 421.767 0.390607 -4.66467 0
M  V30 4359 H 421.94 0.288539 -6.47357 0
M  V30 4360 N 415.346 1.54954 0.287554 0
M  V30 4361 C 416.309 1.86076 1.33823 0
M  V30 4362 C 417.309 0.734414 1.43049 0
M  V30 4363 O 418.499 1.00266 1.42452 0
M  V30 4364 C 415.631 2.05305 2.72144 0
M  V30 4365 H 416.824 2.79984 1.07465 0
M  V30 4366 H 414.377 1.47223 0.524902 0
M  V30 4367 H 415.112 1.1373 3.03704 0
M  V30 4368 H 414.897 2.873 2.66836 0
M  V30 4369 H 416.387 2.30706 3.48087 0
M  V30 4370 N 416.824 -0.551391 1.4764 0
M  V30 4371 C 418.07 -1.31024 1.54792 0
M  V30 4372 C 418.403 -1.9304 0.211967 0
M  V30 4373 O 417.678 -1.78175 -0.77999 0
M  V30 4374 C 417.961 -2.41593 2.67029 0
M  V30 4375 C 417.814 -1.84408 4.10261 0
M  V30 4376 C 419.133 -3.43488 2.75143 0
M  V30 4377 H 416.252 -0.475031 0.563485 0
M  V30 4378 H 418.894 -0.616454 1.79722 0
M  V30 4379 H 417.044 -3.00772 2.45904 0
M  V30 4380 H 418.716 -1.29445 4.42766 0
M  V30 4381 H 416.959 -1.15051 4.18265 0
M  V30 4382 H 417.63 -2.64367 4.84576 0
M  V30 4383 H 420.106 -2.94236 2.94218 0
M  V30 4384 H 418.982 -4.18274 3.55441 0
M  V30 4385 H 419.243 -4.02703 1.82435 0
M  V30 4386 N 418.302 -1.35869 -0.798587 0
M  V30 4387 C 419.548 -1.2978 -1.55836 0
M  V30 4388 C 419.881 0.125322 -1.93795 0
M  V30 4389 O 419.156 1.07658 -1.61987 0
M  V30 4390 C 419.439 -2.21188 -2.84162 0
M  V30 4391 C 419.292 -3.72155 -2.52628 0
M  V30 4392 C 420.611 -2.11545 -3.85923 0
M  V30 4393 H 417.73 -0.472769 -0.565383 0
M  V30 4394 H 420.372 -1.66341 -0.918192 0
M  V30 4395 H 418.522 -1.90139 -3.38791 0
M  V30 4396 H 420.194 -4.13682 -2.04121 0
M  V30 4397 H 418.437 -3.92042 -1.85704 0
M  V30 4398 H 419.108 -4.31511 -3.44242 0
M  V30 4399 H 421.584 -2.38855 -3.40716 0
M  V30 4400 H 420.46 -2.77688 -4.73477 0
M  V30 4401 H 420.721 -1.09987 -4.282 0
M  V30 4402 N 419.78 1.02168 -1.19998 0
M  V30 4403 C 421.029 1.75091 -1.0013 0
M  V30 4404 C 421.342 1.89923 0.467835 0
M  V30 4405 O 422.548 2.59888 0.785515 0
M  V30 4406 C 421.004 3.14892 -1.74273 0
M  V30 4407 C 420.612 3.0809 -3.25245 0
M  V30 4408 C 422.356 3.9206 -1.62755 0
M  V30 4409 C 420.263 4.42867 -3.91948 0
M  V30 4410 H 419.193 0.656394 -0.37103 0
M  V30 4411 H 421.844 1.14284 -1.43567 0
M  V30 4412 H 420.226 3.7621 -1.2362 0
M  V30 4413 H 421.4 2.5611 -3.83072 0
M  V30 4414 H 419.715 2.44416 -3.3712 0
M  V30 4415 H 422.312 4.91764 -2.09934 0
M  V30 4416 H 422.655 4.12199 -0.582894 0
M  V30 4417 H 423.188 3.37359 -2.10793 0
M  V30 4418 H 419.927 4.27931 -4.96543 0
M  V30 4419 H 419.447 4.94874 -3.3891 0
M  V30 4420 H 421.126 5.11728 -3.95909 0
M  V30 4421 N 421.258 1.00505 1.21394 0
M  V30 4422 C 422.505 0.687774 1.90462 0
M  V30 4423 C 422.833 -0.78147 1.7811 0
M  V30 4424 O 422.088 -1.58208 1.1519 0
M  V30 4425 C 422.387 1.0546 3.41486 0
M  V30 4426 C 422.053 2.51812 3.74034 0
M  V30 4427 C 420.715 2.91804 3.82628 0
M  V30 4428 C 423.067 3.46614 3.8924 0
M  V30 4429 C 420.395 4.2556 4.03876 0
M  V30 4430 C 422.747 4.80044 4.11995 0
M  V30 4431 C 421.411 5.19759 4.18816 0
M  V30 4432 H 420.681 0.251674 0.696951 0
M  V30 4433 H 423.328 1.26349 1.43903 0
M  V30 4434 H 421.633 0.397133 3.89782 0
M  V30 4435 H 423.33 0.786976 3.93202 0
M  V30 4436 H 419.92 2.1982 3.67936 0
M  V30 4437 H 424.104 3.16883 3.81967 0
M  V30 4438 H 419.36 4.55901 4.07387 0
M  V30 4439 H 423.534 5.53439 4.22704 0
M  V30 4440 H 421.161 6.23418 4.35033 0
M  V30 4441 N 422.737 -1.36956 0.779787 0
M  V30 4442 C 423.7 -2.2851 0.177662 0
M  V30 4443 C 424.7 -1.48393 -0.619377 0
M  V30 4444 O 425.89 -1.68505 -0.441785 0
M  V30 4445 C 423.022 -3.32428 -0.755279 0
M  V30 4446 H 424.215 -2.83269 0.984823 0
M  V30 4447 H 421.768 -1.46358 0.548544 0
M  V30 4448 H 422.503 -2.82808 -1.58714 0
M  V30 4449 H 422.288 -3.91659 -0.185817 0
M  V30 4450 H 423.778 -4.00824 -1.17174 0
M  V30 4451 N 424.215 -0.530993 -1.48385 0
M  V30 4452 C 425.163 0.244595 -2.3131 0
M  V30 4453 C 426.157 0.93451 -1.41291 0
M  V30 4454 O 427.363 0.85878 -1.58193 0
M  V30 4455 H 423.738 0.0977472 -0.74562 0
M  V30 4456 H 425.709 -0.474369 -2.94605 0
M  V30 4457 C 424.458 1.2779 -3.23365 0
M  V30 4458 H 423.781 0.756439 -3.92579 0
M  V30 4459 H 425.221 1.79198 -3.84271 0
M  V30 4460 C 423.68 2.31205 -2.45042 0
M  V30 4461 O 424.21 3.37661 -2.17596 0
M  V30 4462 N 422.416 2.04446 -2.0652 0
M  V30 4463 H 421.963 1.17891 -2.2904 0
M  V30 4464 H 421.921 2.73861 -1.54427 0
M  V30 4465 N 425.693 1.55336 -0.266172 0
M  V30 4466 C 426.97 1.91372 0.404486 0
M  V30 4467 C 427.35 1.18935 1.74407 0
M  V30 4468 O 426.698 0.3132 2.26343 0
M  V30 4469 C 426.908 3.44581 0.553593 0
M  V30 4470 C 428.256 4.16196 0.840618 0
M  V30 4471 O 429.28 3.50426 0.638739 0
M  V30 4472 O 428.139 5.32567 1.22618 0
M  V30 4473 H 425.233 0.797194 0.220025 0
M  V30 4474 H 427.779 1.66813 -0.311664 0
M  V30 4475 H 426.551 3.89357 -0.389498 0
M  V30 4476 H 426.174 3.75065 1.31955 0
M  V30 4477 N 427.171 -0.0066808 1.57599 0
M  V30 4478 C 428.081 -1.01671 2.11424 0
M  V30 4479 C 429.097 -1.38143 1.05795 0
M  V30 4480 O 430.273 -1.47011 1.37658 0
M  V30 4481 C 427.338 -2.29192 2.60139 0
M  V30 4482 C 426.399 -1.99094 3.80342 0
M  V30 4483 C 425.632 -3.20535 4.26724 0
M  V30 4484 O 425.855 -4.3199 3.72479 0
M  V30 4485 O 424.789 -3.04924 5.18946 0
M  V30 4486 H 428.615 -0.589181 2.9793 0
M  V30 4487 H 426.2 -0.225091 1.47695 0
M  V30 4488 H 428.082 -3.0412 2.917 0
M  V30 4489 H 426.757 -2.71195 1.76733 0
M  V30 4490 H 425.664 -1.21663 3.53764 0
M  V30 4491 H 426.997 -1.61931 4.648 0
M  V30 4492 N 428.649 -1.55105 -0.279332 0
M  V30 4493 C 429.926 -1.66119 -1.03267 0
M  V30 4494 C 430.306 -0.523525 -2.04505 0
M  V30 4495 O 429.654 0.477194 -2.23462 0
M  V30 4496 C 429.864 -3.05067 -1.69515 0
M  V30 4497 C 431.212 -3.62606 -2.20912 0
M  V30 4498 O 432.236 -3.07659 -1.79512 0
M  V30 4499 O 431.095 -4.58861 -2.96831 0
M  V30 4500 H 428.189 -0.674429 -0.478618 0
M  V30 4501 H 430.735 -1.67446 -0.275694 0
M  V30 4502 H 429.507 -3.79311 -0.9612 0
M  V30 4503 H 429.13 -3.07611 -2.51915 0
M  V30 4504 N 430.127 0.543554 -1.4793 0
M  V30 4505 C 431.376 1.29649 -1.54512 0
M  V30 4506 C 431.689 1.94382 -0.217973 0
M  V30 4507 O 432.895 2.71017 -0.161908 0
M  V30 4508 C 431.351 2.35175 -2.72435 0
M  V30 4509 C 430.959 1.76572 -4.11736 0
M  V30 4510 C 432.703 3.11564 -2.8832 0
M  V30 4511 C 430.61 2.79958 -5.20939 0
M  V30 4512 H 429.54 0.487541 -0.57517 0
M  V30 4513 H 432.191 0.575708 -1.74235 0
M  V30 4514 H 430.573 3.10229 -2.46118 0
M  V30 4515 H 431.747 1.07799 -4.48013 0
M  V30 4516 H 430.062 1.12722 -4.00852 0
M  V30 4517 H 432.659 3.88794 -3.67074 0
M  V30 4518 H 433.002 3.66594 -1.97268 0
M  V30 4519 H 433.535 2.43623 -3.14472 0
M  V30 4520 H 430.274 2.29766 -6.13912 0
M  V30 4521 H 429.794 3.47101 -4.89164 0
M  V30 4522 H 431.473 3.43198 -5.48474 0
M  V30 4523 N 431.605 1.3629 0.791371 0
M  V30 4524 C 432.552 1.30458 1.90393 0
M  V30 4525 C 433.522 0.173632 1.6519 0
M  V30 4526 O 434.707 0.35983 1.87376 0
M  V30 4527 C 431.847 1.09777 3.27174 0
M  V30 4528 C 430.96 2.31929 3.64462 0
M  V30 4529 C 430.095 2.04276 4.90352 0
M  V30 4530 C 429.134 3.224 5.20312 0
M  V30 4531 N 428.271 2.94424 6.37385 0
M  V30 4532 H 433.111 2.25589 1.94714 0
M  V30 4533 H 430.648 1.12122 0.952216 0
M  V30 4534 H 432.606 0.958133 4.06049 0
M  V30 4535 H 431.236 0.183014 3.22281 0
M  V30 4536 H 430.288 2.56703 2.80727 0
M  V30 4537 H 431.6 3.20085 3.82553 0
M  V30 4538 H 430.754 1.87231 5.77087 0
M  V30 4539 H 429.493 1.13428 4.74326 0
M  V30 4540 H 428.498 3.40005 4.32061 0
M  V30 4541 H 429.723 4.14071 5.38258 0
M  V30 4542 H 427.669 2.06185 6.22755 0
M  V30 4543 H 427.586 3.76118 6.55798 0
M  V30 4544 H 428.854 2.80953 7.27108 0
M  V30 4545 N 433.083 -1.0153 1.20538 0
M  V30 4546 C 434.015 -2.10224 0.913155 0
M  V30 4547 C 435.028 -1.62495 -0.0995998 0
M  V30 4548 O 436.217 -1.78014 0.131582 0
M  V30 4549 C 433.317 -3.37111 0.347717 0
M  V30 4550 C 432.49 -4.13971 1.41233 0
M  V30 4551 C 431.549 -5.19158 0.857976 0
M  V30 4552 O 430.575 -5.48 1.53897 0
M  V30 4553 N 431.777 -5.7955 -0.331966 0
M  V30 4554 H 434.542 -2.35879 1.84881 0
M  V30 4555 H 432.103 -1.17931 1.10923 0
M  V30 4556 H 434.095 -4.04683 -0.0373026 0
M  V30 4557 H 432.665 -3.08696 -0.492527 0
M  V30 4558 H 431.885 -3.41351 1.97163 0
M  V30 4559 H 433.173 -4.62103 2.12928 0
M  V30 4560 H 432.571 -5.58455 -0.902478 0
M  V30 4561 H 431.128 -6.48464 -0.65861 0
M  V30 4562 N 434.561 -1.01147 -1.20859 0
M  V30 4563 C 435.81 -0.693214 -1.89413 0
M  V30 4564 C 436.123 0.779969 -1.79376 0
M  V30 4565 O 437.329 1.21057 -2.43017 0
M  V30 4566 C 435.785 -1.18949 -3.39675 0
M  V30 4567 C 435.393 -2.68921 -3.58309 0
M  V30 4568 C 437.137 -0.94642 -4.13815 0
M  V30 4569 C 435.044 -3.12056 -5.0237 0
M  V30 4570 H 433.974 -0.255595 -0.709357 0
M  V30 4571 H 436.625 -1.22349 -1.36759 0
M  V30 4572 H 435.007 -0.587228 -3.91622 0
M  V30 4573 H 436.181 -3.34652 -3.16772 0
M  V30 4574 H 434.496 -2.91314 -2.97532 0
M  V30 4575 H 437.093 -1.24417 -5.20023 0
M  V30 4576 H 437.436 0.117219 -4.16135 0
M  V30 4577 H 437.969 -1.5118 -3.67953 0
M  V30 4578 H 434.708 -4.17674 -5.05202 0
M  V30 4579 H 434.228 -2.51041 -5.44737 0
M  V30 4580 H 435.907 -3.04403 -5.70918 0
M  V30 4581 N 436.039 1.36541 -0.78704 0
M  V30 4582 C 436.969 2.32659 -0.197992 0
M  V30 4583 C 437.95 1.56533 0.665697 0
M  V30 4584 O 439.135 1.84698 0.60001 0
M  V30 4585 C 436.265 3.40778 0.669901 0
M  V30 4586 C 435.219 4.27897 -0.0937039 0
M  V30 4587 C 434.545 5.27163 0.894629 0
M  V30 4588 C 435.845 5.06334 -1.28154 0
M  V30 4589 H 437.539 2.82171 -1.00099 0
M  V30 4590 H 435.085 1.35665 -0.482793 0
M  V30 4591 H 437.038 4.07008 1.09191 0
M  V30 4592 H 435.762 2.89827 1.50558 0
M  V30 4593 H 434.421 3.6322 -0.49666 0
M  V30 4594 H 434.069 4.72486 1.72527 0
M  V30 4595 H 433.769 5.86317 0.388149 0
M  V30 4596 H 435.293 5.96266 1.31525 0
M  V30 4597 H 436.707 5.65617 -0.93541 0
M  V30 4598 H 435.104 5.74888 -1.72115 0
M  V30 4599 H 436.174 4.38114 -2.07807 0
M  V30 4600 N 437.518 0.538854 1.48102 0
M  V30 4601 C 438.481 -0.208395 2.28251 0
M  V30 4602 C 439.481 -0.859656 1.35892 0
M  V30 4603 O 440.671 -0.71834 1.58699 0
M  V30 4604 C 437.803 -1.30252 3.15035 0
M  V30 4605 H 438.996 0.495407 2.9578 0
M  V30 4606 H 436.549 0.295112 1.53489 0
M  V30 4607 H 437.284 -2.0393 2.52157 0
M  V30 4608 H 437.069 -0.840551 3.82985 0
M  V30 4609 H 438.559 -1.82787 3.75471 0
M  V30 4610 N 438.996 -1.55193 0.274407 0
M  V30 4611 C 439.959 -2.212 -0.600279 0
M  V30 4612 C 440.959 -1.18963 -1.08187 0
M  V30 4613 O 442.149 -1.43873 -0.982158 0
M  V30 4614 C 439.281 -2.87739 -1.82809 0
M  V30 4615 H 440.474 -2.9989 -0.0239682 0
M  V30 4616 H 438.027 -1.5628 0.0250192 0
M  V30 4617 H 438.762 -2.13058 -2.44493 0
M  V30 4618 H 438.547 -3.62658 -1.49069 0
M  V30 4619 H 440.037 -3.38171 -2.45011 0
M  V30 4620 N 440.474 -0.00167713 -1.576 0
M  V30 4621 C 441.437 0.974046 -2.07473 0
M  V30 4622 C 442.437 1.27143 -0.984444 0
M  V30 4623 O 443.627 1.21633 -1.24703 0
M  V30 4624 C 440.759 2.29849 -2.51759 0
M  V30 4625 H 441.952 0.54262 -2.9495 0
M  V30 4626 H 439.505 0.245829 -1.54355 0
M  V30 4627 H 440.24 2.77677 -1.67529 0
M  V30 4628 H 440.025 2.09584 -3.31386 0
M  V30 4629 H 441.515 2.9984 -2.90664 0
M  V30 4630 N 441.952 1.55251 0.271103 0
M  V30 4631 C 442.899 1.88261 1.33516 0
M  V30 4632 C 443.869 0.734296 1.48988 0
M  V30 4633 O 445.054 0.985741 1.63364 0
M  V30 4634 C 442.194 2.16168 2.69008 0
M  V30 4635 C 441.307 3.43678 2.61743 0
M  V30 4636 C 440.442 3.61276 3.89427 0
M  V30 4637 C 439.481 4.82472 3.7668 0
M  V30 4638 N 438.618 4.96717 4.96202 0
M  V30 4639 H 443.458 2.79015 1.04665 0
M  V30 4640 H 440.995 1.38137 0.505618 0
M  V30 4641 H 442.953 2.30349 3.47844 0
M  V30 4642 H 441.583 1.28646 2.96057 0
M  V30 4643 H 440.635 3.37959 1.74607 0
M  V30 4644 H 441.947 4.3265 2.48224 0
M  V30 4645 H 441.101 3.75284 4.76704 0
M  V30 4646 H 439.84 2.70492 4.05814 0
M  V30 4647 H 438.845 4.68465 2.87786 0
M  V30 4648 H 440.07 5.74692 3.61809 0
M  V30 4649 H 438.016 4.08865 5.12997 0
M  V30 4650 H 437.933 5.79738 4.85222 0
M  V30 4651 H 439.201 5.15113 5.85046 0
M  V30 4652 N 443.43 -0.535701 1.48216 0
M  V30 4653 C 444.846 -0.863701 1.3421 0
M  V30 4654 C 445.046 -1.98458 0.34879 0
M  V30 4655 O 444.102 -2.51432 -0.23204 0
M  V30 4656 C 445.415 -1.23662 2.74095 0
M  V30 4657 C 446.963 -1.34683 2.82541 0
M  V30 4658 C 447.438 -1.75322 4.23115 0
M  V30 4659 N 448.929 -1.82434 4.2576 0
M  V30 4660 C 449.664 -2.15252 5.31464 0
M  V30 4661 N 449.16 -2.46533 6.47452 0
M  V30 4662 N 450.953 -2.16209 5.18855 0
M  V30 4663 H 443.104 0.203965 2.11418 0
M  V30 4664 H 445.367 0.0286033 0.947568 0
M  V30 4665 H 445.073 -0.486674 3.48316 0
M  V30 4666 H 444.947 -2.18805 3.07253 0
M  V30 4667 H 447.334 -2.08756 2.08579 0
M  V30 4668 H 447.415 -0.376756 2.5301 0
M  V30 4669 H 447.059 -1.01812 4.97591 0
M  V30 4670 H 446.989 -2.7337 4.50085 0
M  V30 4671 H 449.48 -1.6056 3.42095 0
M  V30 4672 H 449.793 -2.70662 7.23852 0
M  V30 4673 H 448.138 -2.44065 6.50736 0
M  V30 4674 H 451.329 -1.91224 4.2726 0
M  V30 4675 H 451.502 -2.41453 6.01335 0
M  V30 4676 N 444.908 -1.36708 -0.784132 0
M  V30 4677 C 445.871 -1.31307 -1.87859 0
M  V30 4678 C 446.871 -0.219654 -1.59293 0
M  V30 4679 O 448.061 -0.47476 -1.67606 0
M  V30 4680 C 445.193 -1.03679 -3.24751 0
M  V30 4681 H 446.386 -2.28647 -1.94064 0
M  V30 4682 H 443.939 -1.21558 -0.98252 0
M  V30 4683 H 444.674 -0.0681936 -3.24228 0
M  V30 4684 H 444.459 -1.82811 -3.46876 0
M  V30 4685 H 445.949 -1.02518 -4.04821 0
M  V30 4686 N 446.386 1.0089 -1.21074 0
M  V30 4687 C 447.663 1.71834 -0.934469 0
M  V30 4688 C 448.043 2.0368 0.554753 0
M  V30 4689 O 447.391 1.70742 1.51854 0
M  V30 4690 C 447.601 2.98061 -1.8155 0
M  V30 4691 C 448.949 3.7117 -2.06199 0
M  V30 4692 O 449.973 3.08034 -1.78867 0
M  V30 4693 O 448.832 4.84721 -2.52404 0
M  V30 4694 H 445.926 0.749253 -0.35007 0
M  V30 4695 H 448.472 1.06668 -1.31985 0
M  V30 4696 H 447.244 2.70908 -2.82355 0
M  V30 4697 H 446.867 3.70968 -1.43068 0
M  V30 4698 N 447.864 1.01787 1.20321 0
M  V30 4699 C 448.796 0.547357 2.22568 0
M  V30 4700 C 449.809 -0.370922 1.58518 0
M  V30 4701 O 450.998 -0.169067 1.77698 0
M  V30 4702 C 448.098 -0.223031 3.38165 0
M  V30 4703 C 447.271 0.697472 4.31803 0
M  V30 4704 C 446.33 -0.025562 5.26194 0
M  V30 4705 O 445.356 0.597367 5.66057 0
M  V30 4706 N 446.558 -1.29999 5.65757 0
M  V30 4707 H 449.323 1.42668 2.63564 0
M  V30 4708 H 446.884 0.895552 1.34876 0
M  V30 4709 H 448.876 -0.716002 3.98316 0
M  V30 4710 H 447.446 -1.00366 2.9605 0
M  V30 4711 H 446.666 1.37073 3.69601 0
M  V30 4712 H 447.954 1.32347 4.91286 0
M  V30 4713 H 447.352 -1.827 5.35385 0
M  V30 4714 H 445.909 -1.73766 6.28211 0
M  V30 4715 N 449.342 -1.36122 0.79427 0
M  V30 4716 C 450.588 -1.99406 0.369452 0
M  V30 4717 C 450.921 -1.62886 -1.05743 0
M  V30 4718 O 450.196 -0.886053 -1.73145 0
M  V30 4719 C 450.479 -3.56046 0.538833 0
M  V30 4720 C 450.332 -4.02404 2.00976 0
M  V30 4721 C 451.651 -4.40079 -0.0431359 0
M  V30 4722 H 448.77 -0.724397 0.135712 0
M  V30 4723 H 451.412 -1.61461 1.00151 0
M  V30 4724 H 449.562 -3.885 0.000771004 0
M  V30 4725 H 451.234 -3.80415 2.60926 0
M  V30 4726 H 449.477 -3.53765 2.51063 0
M  V30 4727 H 450.148 -5.11344 2.07922 0
M  V30 4728 H 452.624 -4.14013 0.416228 0
M  V30 4729 H 451.5 -5.48799 0.105374 0
M  V30 4730 H 451.761 -4.27264 -1.13571 0
M  V30 4731 N 450.82 -0.546701 -1.47814 0
M  V30 4732 C 452.068 -0.0187037 -2.02091 0
M  V30 4733 C 452.389 1.33168 -1.42447 0
M  V30 4734 O 451.659 1.86619 -0.595839 0
M  V30 4735 H 450.239 -0.00392531 -0.74699 0
M  V30 4736 H 452.901 -0.714327 -1.81338 0
M  V30 4737 H 451.997 0.0772219 -3.12004 0
M  V30 4738 N 452.299 1.55045 -0.282633 0
M  V30 4739 C 453.249 2.19514 0.616249 0
M  V30 4740 C 454.233 1.16216 1.11277 0
M  V30 4741 O 455.425 1.42004 1.05659 0
M  V30 4742 C 452.554 2.92548 1.7964 0
M  V30 4743 C 451.64 4.03142 1.31671 0
M  V30 4744 N 452.031 5.0276 0.553695 0
M  V30 4745 C 450.329 4.1635 1.59903 0
M  V30 4746 C 451.03 5.80923 0.30054 0
M  V30 4747 N 450.006 5.3651 0.875116 0
M  V30 4748 H 453.808 2.93889 0.0255363 0
M  V30 4749 H 451.322 1.62169 -0.0865362 0
M  V30 4750 H 453.319 3.37188 2.45173 0
M  V30 4751 H 451.979 2.19685 2.39099 0
M  V30 4752 H 452.99 5.17512 0.20032 0
M  V30 4753 H 449.667 3.54682 2.20243 0
M  V30 4754 H 451.057 6.7118 -0.311053 0
M  V30 4755 N 453.777 0.010035 1.57597 0
M  V30 4756 C 455.024 -0.6727 1.91 0
M  V30 4757 C 455.352 -1.73219 0.884614 0
M  V30 4758 O 454.607 -1.95395 -0.109215 0
M  V30 4759 C 454.906 -1.34434 3.31153 0
M  V30 4760 C 454.572 -0.417083 4.48967 0
M  V30 4761 C 453.234 -0.161809 4.80928 0
M  V30 4762 C 455.586 0.220753 5.20732 0
M  V30 4763 C 452.914 0.739426 5.82022 0
M  V30 4764 C 455.266 1.10993 6.22787 0
M  V30 4765 C 453.93 1.37428 6.532 0
M  V30 4766 H 453.2 -0.246158 0.698918 0
M  V30 4767 H 455.847 0.0677145 1.9138 0
M  V30 4768 H 454.152 -2.15905 3.26944 0
M  V30 4769 H 455.849 -1.87883 3.54261 0
M  V30 4770 H 452.439 -0.626217 4.24001 0
M  V30 4771 H 456.623 0.0365643 4.96287 0
M  V30 4772 H 451.879 0.952139 6.03941 0
M  V30 4773 H 456.053 1.61046 6.77523 0
M  V30 4774 H 453.68 2.0743 7.31353 0
M  V30 4775 N 455.255 -1.55392 -0.262866 0
M  V30 4776 C 456.185 -1.91978 -1.32917 0
M  V30 4777 C 457.166 -0.7828 -1.51017 0
M  V30 4778 O 458.351 -1.04178 -1.63892 0
M  V30 4779 C 455.481 -2.20055 -2.68687 0
M  V30 4780 C 454.435 -3.35854 -2.65304 0
M  V30 4781 C 453.761 -3.49435 -4.04721 0
M  V30 4782 C 455.061 -4.71977 -2.23685 0
M  V30 4783 H 456.755 -2.81292 -1.02544 0
M  V30 4784 H 454.301 -1.3534 -0.491846 0
M  V30 4785 H 456.254 -2.44237 -3.43404 0
M  V30 4786 H 454.978 -1.27551 -3.00663 0
M  V30 4787 H 453.637 -3.11655 -1.93045 0
M  V30 4788 H 453.285 -2.54379 -4.33936 0
M  V30 4789 H 452.985 -4.27297 -4.0335 0
M  V30 4790 H 454.509 -3.7592 -4.81161 0
M  V30 4791 H 455.923 -4.95637 -2.88127 0
M  V30 4792 H 454.32 -5.52828 -2.33456 0
M  V30 4793 H 455.39 -4.70115 -1.18827 0
M  V30 4794 N 456.733 0.527833 -1.48498 0
M  V30 4795 C 457.979 1.28295 -1.57836 0
M  V30 4796 C 458.334 1.9077 -0.249943 0
M  V30 4797 O 457.627 1.76421 0.747402 0
M  V30 4798 C 457.821 2.39275 -2.65485 0
M  V30 4799 C 457.65 1.87679 -4.08664 0
M  V30 4800 C 456.42 1.70187 -4.75778 0
M  V30 4801 C 458.618 1.40409 -4.94762 0
M  V30 4802 N 456.6 1.13238 -6.03366 0
M  V30 4803 C 457.971 0.954216 -6.12613 0
M  V30 4804 C 460.026 1.28732 -4.8097 0
M  V30 4805 C 458.729 0.39915 -7.18192 0
M  V30 4806 C 460.755 0.746244 -5.86673 0
M  V30 4807 C 460.117 0.306457 -7.03733 0
M  V30 4808 H 456.216 0.460408 -0.632099 0
M  V30 4809 H 458.8 0.594913 -1.85388 0
M  V30 4810 H 456.971 3.05572 -2.3975 0
M  V30 4811 H 458.703 3.06308 -2.64495 0
M  V30 4812 H 455.458 1.93772 -4.32145 0
M  V30 4813 H 455.882 0.867687 -6.71417 0
M  V30 4814 H 460.524 1.61338 -3.90807 0
M  V30 4815 H 458.242 0.0607678 -8.08077 0
M  V30 4816 H 461.828 0.659041 -5.78055 0
M  V30 4817 H 460.708 -0.105708 -7.84129 0
M  V30 4818 N 458.211 1.37122 0.776871 0
M  V30 4819 C 459.457 1.32243 1.53752 0
M  V30 4820 C 459.79 -0.0944745 1.9397 0
M  V30 4821 O 459.065 -1.05068 1.6368 0
M  V30 4822 C 459.348 2.25681 2.80607 0
M  V30 4823 C 459.201 3.76127 2.46676 0
M  V30 4824 C 460.52 2.17657 3.82509 0
M  V30 4825 H 457.639 0.481704 0.557791 0
M  V30 4826 H 460.281 1.6778 0.891612 0
M  V30 4827 H 458.431 1.95505 3.35723 0
M  V30 4828 H 460.103 4.16877 1.97513 0
M  V30 4829 H 458.346 3.94946 1.79443 0
M  V30 4830 H 459.017 4.36933 3.37333 0
M  V30 4831 H 461.493 2.44245 3.36873 0
M  V30 4832 H 460.369 2.85185 4.69 0
M  V30 4833 H 460.63 1.16785 4.26396 0
M  V30 4834 N 459.689 -1.00246 1.21608 0
M  V30 4835 C 460.937 -1.73717 1.0328 0
M  V30 4836 C 461.258 -1.90102 -0.434318 0
M  V30 4837 O 460.528 -1.45376 -1.31311 0
M  V30 4838 H 459.108 -0.643613 0.379172 0
M  V30 4839 H 461.77 -1.20787 1.52959 0
M  V30 4840 H 460.866 -2.73535 1.50283 0
M  V30 4841 N 461.167 -1.02423 -1.1978 0
M  V30 4842 C 462.392 -0.7373 -1.93852 0
M  V30 4843 C 462.817 0.696923 -1.74713 0
M  V30 4844 O 462.175 1.48056 -1.04638 0
M  V30 4845 C 462.223 -1.08783 -3.438 0
M  V30 4846 O 461.327 -0.20383 -4.11896 0
M  V30 4847 H 460.668 -0.27284 -0.605355 0
M  V30 4848 H 463.198 -1.36966 -1.51992 0
M  V30 4849 H 463.208 -1.04276 -3.9445 0
M  V30 4850 H 461.883 -2.13274 -3.57053 0
M  V30 4851 H 460.46 -0.307091 -3.71633 0
M  V30 4852 N 462.645 1.35699 -0.801477 0
M  V30 4853 C 463.922 1.9324 -0.302937 0
M  V30 4854 C 464.302 1.73209 1.20672 0
M  V30 4855 O 463.65 1.09809 2.00385 0
M  V30 4856 C 463.86 3.41728 -0.708747 0
M  V30 4857 C 465.208 4.18868 -0.695328 0
M  V30 4858 O 466.232 3.5022 -0.649971 0
M  V30 4859 O 465.091 5.41342 -0.749081 0
M  V30 4860 H 462.185 0.82331 -0.0780367 0
M  V30 4861 H 464.731 1.44806 -0.884832 0
M  V30 4862 H 463.503 3.50015 -1.74944 0
M  V30 4863 H 463.126 3.97471 -0.101384 0
M  V30 4864 N 464.123 0.554532 1.47522 0
M  V30 4865 C 465.348 0.0322661 2.07375 0
M  V30 4866 C 465.773 -1.25079 1.40488 0
M  V30 4867 O 465.131 -1.74859 0.47896 0
M  V30 4868 C 465.179 -0.149397 3.6029 0
M  V30 4869 O 464.283 -1.21259 3.9417 0
M  V30 4870 H 463.624 0.0501228 0.662106 0
M  V30 4871 H 466.154 0.769452 1.8958 0
M  V30 4872 H 466.164 -0.364437 4.06369 0
M  V30 4873 H 464.839 0.787743 4.08372 0
M  V30 4874 H 463.416 -0.97825 3.5984 0
M  V30 4875 N 465.601 -1.54893 0.290851 0
M  V30 4876 C 466.847 -2.00949 -0.314784 0
M  V30 4877 C 467.202 -1.1757 -1.52299 0
M  V30 4878 O 466.495 -0.241558 -1.90071 0
M  V30 4879 C 466.689 -3.49815 -0.732397 0
M  V30 4880 C 466.518 -4.47603 0.433799 0
M  V30 4881 C 465.288 -4.96806 0.922599 0
M  V30 4882 C 467.486 -4.98233 1.27546 0
M  V30 4883 N 465.468 -5.78426 2.05662 0
M  V30 4884 C 466.839 -5.77455 2.25712 0
M  V30 4885 C 468.894 -4.80439 1.307 0
M  V30 4886 C 467.597 -6.40778 3.26796 0
M  V30 4887 C 469.623 -5.44574 2.30637 0
M  V30 4888 C 468.985 -6.23619 3.27533 0
M  V30 4889 H 465.084 -0.777905 -0.0799257 0
M  V30 4890 H 467.668 -1.9015 0.418458 0
M  V30 4891 H 465.839 -3.60925 -1.43483 0
M  V30 4892 H 467.571 -3.82681 -1.31671 0
M  V30 4893 H 464.326 -4.70961 0.49926 0
M  V30 4894 H 464.75 -6.23923 2.62772 0
M  V30 4895 H 469.392 -4.18918 0.571622 0
M  V30 4896 H 467.11 -7.01439 4.01258 0
M  V30 4897 H 470.696 -5.32739 2.33838 0
M  V30 4898 H 469.576 -6.72367 4.03599 0
M  V30 4899 N 467.08 -0.0183926 -1.57589 0
M  V30 4900 C 468.328 0.661253 -1.90976 0
M  V30 4901 C 468.649 1.73281 -0.894353 0
M  V30 4902 O 467.919 1.9579 0.0656788 0
M  V30 4903 H 466.499 0.247233 -0.704901 0
M  V30 4904 H 469.161 -0.0636639 -1.94796 0
M  V30 4905 H 468.257 1.12083 -2.9128 0
M  V30 4906 N 468.558 1.5553 0.254621 0
M  V30 4907 C 469.783 1.81383 1.00573 0
M  V30 4908 C 470.208 0.594419 1.78461 0
M  V30 4909 O 469.566 -0.456403 1.75461 0
M  V30 4910 C 469.614 3.04892 1.92545 0
M  V30 4911 O 468.718 2.81266 3.01601 0
M  V30 4912 H 468.059 0.598969 0.286587 0
M  V30 4913 H 470.589 2.02703 0.277952 0
M  V30 4914 H 470.599 3.34119 2.34155 0
M  V30 4915 H 469.274 3.93287 1.3527 0
M  V30 4916 H 467.851 2.63185 2.64174 0
M  V30 4917 N 470.036 -0.519951 1.48776 0
M  V30 4918 C 470.983 -1.62352 1.64044 0
M  V30 4919 C 471.953 -1.58945 0.482251 0
M  V30 4920 O 473.138 -1.77219 0.706971 0
M  V30 4921 C 470.278 -3.00579 1.69547 0
M  V30 4922 C 469.391 -3.14145 2.96541 0
M  V30 4923 C 468.526 -4.42991 2.93142 0
M  V30 4924 C 467.565 -4.50122 4.14797 0
M  V30 4925 N 466.702 -5.7037 4.09418 0
M  V30 4926 H 471.542 -1.48643 2.58281 0
M  V30 4927 H 469.079 -0.723516 1.28077 0
M  V30 4928 H 471.037 -3.80671 1.70719 0
M  V30 4929 H 469.667 -3.13036 0.787918 0
M  V30 4930 H 468.719 -2.27239 3.05068 0
M  V30 4931 H 470.031 -3.15275 3.86527 0
M  V30 4932 H 469.185 -5.31385 2.92772 0
M  V30 4933 H 467.924 -4.44398 2.00902 0
M  V30 4934 H 466.929 -3.60133 4.15433 0
M  V30 4935 H 468.154 -4.50445 5.08208 0
M  V30 4936 H 466.1 -5.72655 3.20004 0
M  V30 4937 H 466.017 -5.73036 4.93119 0
M  V30 4938 H 467.285 -6.61023 4.13121 0
M  V30 4939 N 471.514 -1.37532 -0.769588 0
M  V30 4940 C 472.763 -1.32183 -1.5235 0
M  V30 4941 C 473.076 0.0906555 -1.9539 0
M  V30 4942 O 474.282 0.266628 -2.70188 0
M  V30 4943 C 472.738 -2.32029 -2.75119 0
M  V30 4944 C 472.346 -3.78816 -2.3917 0
M  V30 4945 C 474.09 -2.35694 -3.53056 0
M  V30 4946 C 471.997 -4.70388 -3.58453 0
M  V30 4947 H 470.927 -0.491275 -0.571984 0
M  V30 4948 H 473.578 -1.63004 -0.842739 0
M  V30 4949 H 471.96 -1.94229 -3.45096 0
M  V30 4950 H 473.134 -4.25466 -1.76962 0
M  V30 4951 H 471.449 -3.78117 -1.74402 0
M  V30 4952 H 474.046 -3.01312 -4.41718 0
M  V30 4953 H 474.389 -1.37117 -3.93071 0
M  V30 4954 H 474.922 -2.72212 -2.90078 0
M  V30 4955 H 471.661 -5.70102 -3.23518 0
M  V30 4956 H 471.181 -4.28442 -4.19758 0
M  V30 4957 H 472.86 -4.87628 -4.25239 0
M  V30 4958 N 472.992 0.995999 -1.22138 0
M  V30 4959 C 473.94 2.10673 -0.985876 0
M  V30 4960 C 474.934 1.69255 0.0699553 0
M  V30 4961 O 476.14 1.79812 -0.0822176 0
M  V30 4962 H 472.515 0.688865 -0.30161 0
M  V30 4963 H 474.486 2.27711 -1.92848 0
M  V30 4964 C 473.235 3.42881 -0.576909 0
M  V30 4965 H 472.558 3.75191 -1.38101 0
M  V30 4966 H 473.998 4.21589 -0.451518 0
M  V30 4967 C 472.457 3.29265 0.713196 0
M  V30 4968 O 472.987 3.60777 1.76643 0
M  V30 4969 N 471.193 2.82456 0.683162 0
M  V30 4970 H 470.74 2.5701 -0.174242 0
M  V30 4971 H 470.698 2.73727 1.54663 0
M  V30 4972 N 474.47 1.03057 1.19235 0
M  V30 4973 C 475.881 0.757449 1.70645 0
M  V30 4974 C 476.232 -0.722735 1.82403 0
M  V30 4975 O 475.357 -1.56325 1.49638 0
M  V30 4976 C 475.952 1.36833 3.09939 0
M  V30 4977 C 474.511 1.14375 3.58602 0
M  V30 4978 C 473.658 1.46533 2.35422 0
M  V30 4979 H 476.609 1.19828 1.04052 0
M  V30 4980 H 476.63 0.766184 3.72706 0
M  V30 4981 H 476.142 2.44562 3.01349 0
M  V30 4982 H 474.243 0.0847542 3.72504 0
M  V30 4983 H 474.356 1.83366 4.42622 0
M  V30 4984 H 472.72 0.884712 2.38841 0
M  V30 4985 H 473.503 2.55349 2.2946 0
M  V30 4986 N 475.948 -1.35272 0.808662 0
M  V30 4987 C 476.878 -2.32315 0.234981 0
M  V30 4988 C 477.859 -1.57572 -0.64071 0
M  V30 4989 O 479.044 -1.8563 -0.570551 0
M  V30 4990 C 476.174 -3.41801 -0.615601 0
M  V30 4991 C 475.128 -4.27694 0.161767 0
M  V30 4992 C 474.454 -5.28519 -0.810649 0
M  V30 4993 C 475.754 -5.04231 1.36193 0
M  V30 4994 H 477.448 -2.80543 1.04575 0
M  V30 4995 H 474.994 -1.3488 0.504315 0
M  V30 4996 H 476.947 -4.08693 -1.02702 0
M  V30 4997 H 475.671 -2.92186 -1.45928 0
M  V30 4998 H 474.33 -3.62384 0.554382 0
M  V30 4999 H 473.978 -4.75171 -1.64988 0
M  V30 5000 H 473.678 -5.8686 -0.294822 0
M  V30 5001 H 475.202 -5.98283 -1.22023 0
M  V30 5002 H 476.616 -5.64058 1.02528 0
M  V30 5003 H 475.013 -5.72077 1.81239 0
M  V30 5004 H 476.083 -4.34753 2.14751 0
M  V30 5005 N 477.426 -0.562348 -1.47226 0
M  V30 5006 C 478.376 0.202967 -2.27095 0
M  V30 5007 C 479.36 0.880611 -1.34663 0
M  V30 5008 O 480.552 0.778069 -1.58981 0
M  V30 5009 C 477.681 1.22906 -3.20545 0
M  V30 5010 C 476.767 0.554566 -4.20459 0
M  V30 5011 N 477.158 -0.378295 -5.04383 0
M  V30 5012 C 475.456 0.807854 -4.38623 0
M  V30 5013 C 476.157 -0.770583 -5.76573 0
M  V30 5014 N 475.133 -0.124263 -5.43458 0
M  V30 5015 H 478.935 -0.514196 -2.89367 0
M  V30 5016 H 476.449 -0.382655 -1.57827 0
M  V30 5017 H 478.446 1.79134 -3.76453 0
M  V30 5018 H 477.106 1.94726 -2.59831 0
M  V30 5019 H 478.117 -0.75274 -5.124 0
M  V30 5020 H 474.794 1.51418 -3.89075 0
M  V30 5021 H 476.184 -1.53742 -6.54074 0
M  V30 5022 N 478.904 1.54736 -0.299062 0
M  V30 5023 C 479.836 2.20891 0.61153 0
M  V30 5024 C 480.849 1.20104 1.09904 0
M  V30 5025 O 482.038 1.46707 1.01683 0
M  V30 5026 C 479.138 2.84018 1.84897 0
M  V30 5027 C 478.311 4.10719 1.50428 0
M  V30 5028 C 477.37 4.57667 2.59667 0
M  V30 5029 O 476.396 5.2291 2.24842 0
M  V30 5030 N 477.598 4.29821 3.90172 0
M  V30 5031 H 480.363 2.99666 0.0452001 0
M  V30 5032 H 477.924 1.61446 -0.121178 0
M  V30 5033 H 479.916 3.1236 2.5732 0
M  V30 5034 H 478.486 2.09095 2.32375 0
M  V30 5035 H 477.706 3.89408 0.612781 0
M  V30 5036 H 478.994 4.93223 1.24934 0
M  V30 5037 H 478.392 3.77549 4.21276 0
M  V30 5038 H 476.949 4.62877 4.58899 0
M  V30 5039 N 480.382 0.0267497 1.57577 0
M  V30 5040 C 481.332 -0.965003 2.06571 0
M  V30 5041 C 482.316 -1.28694 0.965746 0
M  V30 5042 O 483.508 -1.27345 1.22932 0
M  V30 5043 C 480.637 -2.24821 2.59443 0
M  V30 5044 C 479.723 -1.95474 3.76365 0
M  V30 5045 N 480.114 -1.36387 4.87065 0
M  V30 5046 C 478.412 -2.25478 3.84806 0
M  V30 5047 C 479.113 -1.24119 5.68304 0
M  V30 5048 N 478.089 -1.7359 5.15138 0
M  V30 5049 H 481.891 -0.503095 2.89562 0
M  V30 5050 H 479.405 -0.178322 1.61418 0
M  V30 5051 H 481.402 -2.9674 2.92833 0
M  V30 5052 H 480.062 -2.7164 1.77881 0
M  V30 5053 H 481.073 -1.03919 5.07367 0
M  V30 5054 H 477.75 -2.74987 3.14147 0
M  V30 5055 H 479.14 -0.784504 6.67304 0
M  V30 5056 N 481.861 -1.55662 -0.24637 0
M  V30 5057 C 482.771 -1.93495 -1.32653 0
M  V30 5058 C 483.787 -0.835462 -1.5263 0
M  V30 5059 O 484.963 -1.1369 -1.66242 0
M  V30 5060 C 482.028 -2.22242 -2.66101 0
M  V30 5061 C 481.089 -3.45625 -2.54641 0
M  V30 5062 C 480.322 -3.72991 -3.81724 0
M  V30 5063 O 480.545 -3.02421 -4.8363 0
M  V30 5064 O 479.479 -4.66515 -3.80325 0
M  V30 5065 H 483.305 -2.85498 -1.03559 0
M  V30 5066 H 480.89 -1.42551 -0.44717 0
M  V30 5067 H 482.772 -2.42037 -3.44958 0
M  V30 5068 H 481.447 -1.33417 -2.94926 0
M  V30 5069 H 480.354 -3.31136 -1.74067 0
M  V30 5070 H 481.687 -4.34754 -2.3076 0
M  V30 5071 N 483.339 0.512053 -1.4905 0
M  V30 5072 C 484.616 1.27337 -1.48474 0
M  V30 5073 C 484.996 2.1009 -0.206301 0
M  V30 5074 O 484.344 2.136 0.811609 0
M  V30 5075 C 484.554 2.13954 -2.75726 0
M  V30 5076 C 485.902 2.73507 -3.24776 0
M  V30 5077 O 486.926 2.24229 -2.76767 0
M  V30 5078 O 485.785 3.63186 -4.08361 0
M  V30 5079 H 482.879 0.575652 -0.593762 0
M  V30 5080 H 485.425 0.527232 -1.61302 0
M  V30 5081 H 484.197 1.52709 -3.60272 0
M  V30 5082 H 483.82 2.95782 -2.65705 0
M  V30 5083 N 484.817 1.37938 0.762283 0
M  V30 5084 C 486.066 1.32989 1.51647 0
M  V30 5085 C 486.379 -0.0802922 1.95435 0
M  V30 5086 O 487.585 -0.252295 2.70325 0
M  V30 5087 C 486.041 2.33485 2.73885 0
M  V30 5088 C 485.649 3.80079 2.37157 0
M  V30 5089 C 487.393 2.37563 3.51801 0
M  V30 5090 C 485.3 4.72283 3.55954 0
M  V30 5091 H 484.23 0.494301 0.56937 0
M  V30 5092 H 486.881 1.63448 0.834083 0
M  V30 5093 H 485.263 1.96056 3.44061 0
M  V30 5094 H 486.437 4.26398 1.74704 0
M  V30 5095 H 484.752 3.79037 1.72395 0
M  V30 5096 H 487.349 3.0365 4.40114 0
M  V30 5097 H 487.692 1.39199 3.92338 0
M  V30 5098 H 488.225 2.73747 2.8863 0
M  V30 5099 H 484.964 5.7181 3.2049 0
M  V30 5100 H 484.484 4.30663 4.1748 0
M  V30 5101 H 486.163 4.89876 4.22647 0
M  V30 5102 N 486.295 -0.989507 1.22664 0
M  V30 5103 C 487.258 -2.06183 1.00106 0
M  V30 5104 C 488.258 -1.60765 -0.0337726 0
M  V30 5105 O 489.448 -1.72989 0.205072 0
M  V30 5106 C 486.58 -3.37021 0.51279 0
M  V30 5107 H 487.773 -2.27629 1.95256 0
M  V30 5108 H 485.326 -1.16158 1.0458 0
M  V30 5109 H 486.061 -3.21261 -0.442917 0
M  V30 5110 H 485.846 -3.71323 1.25942 0
M  V30 5111 H 487.336 -4.1591 0.375315 0
M  V30 5112 N 487.773 -1.03688 -1.18687 0
M  V30 5113 C 488.683 -0.634908 -2.25845 0
M  V30 5114 C 489.699 0.337065 -1.70704 0
M  V30 5115 O 490.875 0.192943 -2.00474 0
M  V30 5116 C 487.94 -0.000180054 -3.467 0
M  V30 5117 C 487.001 -1.02067 -4.1699 0
M  V30 5118 C 486.234 -0.41614 -5.32075 0
M  V30 5119 O 486.457 0.778712 -5.65059 0
M  V30 5120 O 485.391 -1.14296 -5.90948 0
M  V30 5121 H 489.217 -1.52757 -2.62486 0
M  V30 5122 H 486.802 -0.807533 -1.25695 0
M  V30 5123 H 488.684 0.353342 -4.19916 0
M  V30 5124 H 487.359 0.866367 -3.11891 0
M  V30 5125 H 486.266 -1.42592 -3.45859 0
M  V30 5126 H 487.599 -1.85786 -4.5579 0
M  V30 5127 N 489.251 1.34841 -0.815825 0
M  V30 5128 C 490.499 1.98107 -0.399744 0
M  V30 5129 C 490.82 1.65019 1.03894 0
M  V30 5130 O 490.09 0.937311 1.72021 0
M  V30 5131 H 488.67 0.732827 -0.144823 0
M  V30 5132 H 491.332 1.64599 -1.0437 0
M  V30 5133 H 490.428 3.07856 -0.512965 0
M  V30 5134 N 490.729 0.570148 1.46925 0
M  V30 5135 C 491.692 -0.159933 2.28641 0
M  V30 5136 C 492.692 -0.830638 1.37685 0
M  V30 5137 O 493.882 -0.684516 1.60187 0
M  V30 5138 C 491.014 -1.2354 3.17727 0
M  V30 5139 H 492.207 0.558035 2.94662 0
M  V30 5140 H 489.76 0.327603 1.52828 0
M  V30 5141 H 490.495 -1.98535 2.56426 0
M  V30 5142 H 490.28 -0.759125 3.84681 0
M  V30 5143 H 491.77 -1.74782 3.79264 0
M  V30 5144 N 492.207 -1.54576 0.307264 0
M  V30 5145 C 493.456 -1.99442 -0.300976 0
M  V30 5146 C 493.769 -1.19928 -1.5452 0
M  V30 5147 O 494.975 -1.55092 -2.22842 0
M  V30 5148 C 493.431 -3.55084 -0.586809 0
M  V30 5149 C 493.039 -4.43413 0.639438 0
M  V30 5150 C 494.783 -4.0846 -1.1559 0
M  V30 5151 C 492.69 -5.90499 0.326411 0
M  V30 5152 H 491.62 -0.744986 -0.116238 0
M  V30 5153 H 494.271 -1.787 0.416947 0
M  V30 5154 H 492.653 -3.71749 -1.36449 0
M  V30 5155 H 493.827 -4.38522 1.41545 0
M  V30 5156 H 492.142 -4.00842 1.1276 0
M  V30 5157 H 494.739 -5.15926 -1.40445 0
M  V30 5158 H 495.082 -3.59443 -2.10015 0
M  V30 5159 H 495.615 -3.95362 -0.439778 0
M  V30 5160 H 492.354 -6.43676 1.23939 0
M  V30 5161 H 491.874 -5.98382 -0.412212 0
M  V30 5162 H 493.553 -6.46962 -0.0697393 0
M  V30 5163 N 493.685 -0.035106 -1.57561 0
M  V30 5164 C 494.913 0.652258 -1.9635 0
M  V30 5165 C 495.328 1.65317 -0.911897 0
M  V30 5166 O 494.685 1.82194 0.105657 0
M  V30 5167 C 494.736 1.35337 -3.35211 0
M  V30 5168 O 494.457 0.392548 -4.36338 0
M  V30 5169 C 495.958 2.13199 -3.88666 0
M  V30 5170 H 493.178 0.179444 -0.646561 0
M  V30 5171 H 495.722 -0.0966459 -2.04271 0
M  V30 5172 H 493.877 2.05362 -3.28489 0
M  V30 5173 H 494.291 0.891097 -5.16875 0
M  V30 5174 H 495.765 2.577 -4.88154 0
M  V30 5175 H 496.242 2.97353 -3.23231 0
M  V30 5176 H 496.848 1.48118 -3.98674 0
M  V30 5177 N 495.163 1.55791 0.238111 0
M  V30 5178 C 496.412 1.77234 0.962868 0
M  V30 5179 C 496.725 0.600661 1.86149 0
M  V30 5180 O 497.931 0.698315 2.62366 0
M  V30 5181 C 496.387 3.13808 1.76218 0
M  V30 5182 C 495.995 4.3865 0.910518 0
M  V30 5183 C 497.739 3.44585 2.47914 0
M  V30 5184 C 495.646 5.66252 1.70623 0
M  V30 5185 H 494.576 0.660731 0.36325 0
M  V30 5186 H 497.227 1.8221 0.217242 0
M  V30 5187 H 495.609 3.02963 2.55009 0
M  V30 5188 H 496.783 4.60507 0.164316 0
M  V30 5189 H 495.098 4.15271 0.30647 0
M  V30 5190 H 497.695 4.3714 3.07917 0
M  V30 5191 H 498.038 2.66314 3.19973 0
M  V30 5192 H 498.571 3.56685 1.76127 0
M  V30 5193 H 495.31 6.47369 1.02923 0
M  V30 5194 H 494.83 5.48483 2.42748 0
M  V30 5195 H 496.509 6.05829 2.27114 0
M  V30 5196 N 496.642 -0.504142 1.49319 0
M  V30 5197 C 497.574 -1.62265 1.61872 0
M  V30 5198 C 498.587 -1.54881 0.501573 0
M  V30 5199 O 499.776 -1.6087 0.773497 0
M  V30 5200 C 496.876 -3.01042 1.55651 0
M  V30 5201 C 496.049 -3.33642 2.82845 0
M  V30 5202 C 495.108 -4.51816 2.69719 0
M  V30 5203 O 494.134 -4.53755 3.4365 0
M  V30 5204 N 495.336 -5.51543 1.81055 0
M  V30 5205 H 498.101 -1.51924 2.58339 0
M  V30 5206 H 495.662 -0.691954 1.46368 0
M  V30 5207 H 497.654 -3.78013 1.44528 0
M  V30 5208 H 496.224 -3.05323 0.670546 0
M  V30 5209 H 495.444 -2.45598 3.08343 0
M  V30 5210 H 496.732 -3.5222 3.67177 0
M  V30 5211 H 496.13 -5.52774 1.20241 0
M  V30 5212 H 494.687 -6.27629 1.75856 0
M  V30 5213 N 498.12 -1.38341 -0.754957 0
M  V30 5214 C 499.531 -1.30803 -1.3322 0
M  V30 5215 C 499.882 0.0368 -1.96165 0
M  V30 5216 O 499.007 0.938844 -1.94974 0
M  V30 5217 C 499.602 -2.3688 -2.42225 0
M  V30 5218 C 498.161 -2.32925 -2.95674 0
M  V30 5219 C 497.308 -2.19819 -1.69042 0
M  V30 5220 H 500.259 -1.48719 -0.553937 0
M  V30 5221 H 500.28 -2.02517 -3.22129 0
M  V30 5222 H 499.792 -3.34747 -1.96383 0
M  V30 5223 H 497.893 -1.38635 -3.45848 0
M  V30 5224 H 498.006 -3.27008 -3.50146 0
M  V30 5225 H 496.37 -1.66648 -1.92615 0
M  V30 5226 H 497.153 -3.19625 -1.25279 0
M  V30 5227 N 499.598 0.982988 -1.23187 0
M  V30 5228 C 500.545 2.07491 -1.01075 0
M  V30 5229 C 501.515 1.65949 0.070905 0
M  V30 5230 O 502.7 1.90629 -0.0806822 0
M  V30 5231 C 499.84 3.39751 -0.605261 0
M  V30 5232 C 498.953 3.94578 -1.75876 0
M  V30 5233 C 498.088 5.15039 -1.3003 0
M  V30 5234 C 497.127 5.62027 -2.42472 0
M  V30 5235 N 496.264 6.73719 -1.97602 0
M  V30 5236 H 501.104 2.25739 -1.9454 0
M  V30 5237 H 498.641 1.10659 -0.969179 0
M  V30 5238 H 500.599 4.15719 -0.351279 0
M  V30 5239 H 499.229 3.21473 0.292382 0
M  V30 5240 H 498.281 3.1539 -2.12681 0
M  V30 5241 H 499.593 4.25422 -2.60418 0
M  V30 5242 H 498.747 5.9833 -1.00429 0
M  V30 5243 H 497.486 4.85843 -0.425216 0
M  V30 5244 H 496.491 4.77318 -2.7285 0
M  V30 5245 H 497.716 5.93244 -3.30512 0
M  V30 5246 H 495.662 6.46287 -1.1247 0
M  V30 5247 H 495.579 7.03934 -2.75705 0
M  V30 5248 H 496.847 7.6049 -1.71098 0
M  V30 5249 N 501.076 1.04316 1.18135 0
M  V30 5250 C 502.492 0.762858 1.40188 0
M  V30 5251 C 502.692 -0.646547 1.90846 0
M  V30 5252 O 501.748 -1.41036 2.0944 0
M  V30 5253 C 503.061 1.81106 2.40044 0
M  V30 5254 C 504.609 1.83226 2.53766 0
M  V30 5255 C 505.084 2.87044 3.56889 0
M  V30 5256 N 506.575 2.85951 3.64398 0
M  V30 5257 C 507.31 3.62932 4.43923 0
M  V30 5258 N 506.806 4.49672 5.27036 0
M  V30 5259 N 508.599 3.51411 4.38711 0
M  V30 5260 H 500.75 1.95264 0.835805 0
M  V30 5261 H 503.013 0.845017 0.429709 0
M  V30 5262 H 502.719 2.82214 2.09876 0
M  V30 5263 H 502.593 1.64529 3.39426 0
M  V30 5264 H 504.98 0.827869 2.8325 0
M  V30 5265 H 505.061 2.03879 1.54489 0
M  V30 5266 H 504.705 3.87663 3.28145 0
M  V30 5267 H 504.635 2.63645 4.5585 0
M  V30 5268 H 507.126 2.23051 3.05052 0
M  V30 5269 H 507.439 5.05116 5.84874 0
M  V30 5270 H 505.784 4.53738 5.26447 0
M  V30 5271 H 508.975 2.83047 3.72829 0
M  V30 5272 H 509.148 4.11654 5.00445 0
M  V30 5273 N 502.554 -1.34406 0.822964 0
M  V30 5274 C 503.517 -2.2783 0.250271 0
M  V30 5275 C 504.517 -1.50288 -0.571854 0
M  V30 5276 O 505.707 -1.69825 -0.387952 0
M  V30 5277 C 502.839 -3.34663 -0.649137 0
M  V30 5278 H 504.032 -2.79992 1.07444 0
M  V30 5279 H 501.585 -1.44539 0.594829 0
M  V30 5280 H 502.32 -2.87714 -1.49637 0
M  V30 5281 H 502.105 -3.92052 -0.0611199 0
M  V30 5282 H 503.595 -4.04349 -1.04363 0
M  V30 5283 N 504.032 -0.577932 -1.46621 0
M  V30 5284 C 505.26 -0.0671642 -2.06791 0
M  V30 5285 C 505.675 1.23571 -1.42743 0
M  V30 5286 O 505.032 1.74602 -0.531062 0
M  V30 5287 C 505.083 0.110357 -3.61332 0
M  V30 5288 O 504.804 -1.14095 -4.22982 0
M  V30 5289 C 506.305 0.656025 -4.38419 0
M  V30 5290 H 503.525 -0.0552732 -0.66872 0
M  V30 5291 H 506.069 -0.797242 -1.8832 0
M  V30 5292 H 504.224 0.790637 -3.79246 0
M  V30 5293 H 504.638 -0.951742 -5.15793 0
M  V30 5294 H 506.112 0.729438 -5.47159 0
M  V30 5295 H 506.589 1.67195 -4.06131 0
M  V30 5296 H 507.195 0.0107692 -4.25299 0
M  V30 5297 N 505.51 1.54411 -0.315457 0
M  V30 5298 C 506.756 2.00716 0.289972 0
M  V30 5299 C 507.089 1.2034 1.5242 0
M  V30 5300 O 506.364 0.283579 1.92422 0
M  V30 5301 C 506.647 3.54507 0.632196 0
M  V30 5302 C 506.5 4.45615 -0.61218 0
M  V30 5303 C 507.819 4.15421 1.45305 0
M  V30 5304 H 504.938 0.729637 0.10392 0
M  V30 5305 H 507.58 1.8506 -0.430427 0
M  V30 5306 H 505.73 3.67979 1.24595 0
M  V30 5307 H 507.402 4.44026 -1.25053 0
M  V30 5308 H 505.645 4.15621 -1.24264 0
M  V30 5309 H 506.316 5.51022 -0.328379 0
M  V30 5310 H 508.792 4.05474 0.934331 0
M  V30 5311 H 507.668 5.23157 1.66127 0
M  V30 5312 H 507.929 3.68223 2.44671 0
M  V30 5313 N 506.988 0.0434614 1.5754 0
M  V30 5314 C 507.898 -0.94893 2.14552 0
M  V30 5315 C 508.914 -1.34707 1.10136 0
M  V30 5316 O 510.09 -1.42557 1.42266 0
M  V30 5317 C 507.155 -2.208 2.67298 0
M  V30 5318 C 506.216 -1.86893 3.86484 0
M  V30 5319 C 505.449 -3.06797 4.36705 0
M  V30 5320 O 505.672 -4.19921 3.86034 0
M  V30 5321 O 504.606 -2.8826 5.28384 0
M  V30 5322 H 508.432 -0.494099 2.99654 0
M  V30 5323 H 506.017 -0.177989 1.48336 0
M  V30 5324 H 507.899 -2.94686 3.01228 0
M  V30 5325 H 506.574 -2.65436 1.85272 0
M  V30 5326 H 505.481 -1.10347 3.57455 0
M  V30 5327 H 506.814 -1.47062 4.69716 0
M  V30 5328 N 508.466 -1.55915 -0.229846 0
M  V30 5329 C 509.714 -1.7819 -0.953565 0
M  V30 5330 C 510.035 -0.610504 -1.85197 0
M  V30 5331 O 509.305 0.372988 -1.92316 0
M  V30 5332 H 507.885 -0.657208 -0.355087 0
M  V30 5333 H 510.547 -1.9337 -0.243693 0
M  V30 5334 H 509.643 -2.70011 -1.56527 0
M  V30 5335 N 509.944 0.496216 -1.49584 0
M  V30 5336 C 511.191 1.25003 -1.59312 0
M  V30 5337 C 511.519 1.92445 -0.28198 0
M  V30 5338 O 510.774 1.81557 0.730452 0
M  V30 5339 C 511.073 2.3359 -2.705 0
M  V30 5340 C 510.739 1.83574 -4.11839 0
M  V30 5341 C 509.401 1.69653 -4.50302 0
M  V30 5342 C 511.753 1.46193 -5.00277 0
M  V30 5343 C 509.081 1.16736 -5.74969 0
M  V30 5344 C 511.433 0.947265 -6.25468 0
M  V30 5345 C 510.097 0.794485 -6.62755 0
M  V30 5346 H 509.367 0.45742 -0.582965 0
M  V30 5347 H 512.014 0.549996 -1.83432 0
M  V30 5348 H 510.319 3.09401 -2.40371 0
M  V30 5349 H 512.016 2.91627 -2.75235 0
M  V30 5350 H 508.606 1.9537 -3.81482 0
M  V30 5351 H 512.79 1.55793 -4.71214 0
M  V30 5352 H 508.046 1.03623 -6.02555 0
M  V30 5353 H 512.22 0.648846 -6.93371 0
M  V30 5354 H 509.847 0.382271 -7.59238 0
M  V30 5355 N 511.423 1.38739 0.74761 0
M  V30 5356 C 512.7 1.25791 1.49786 0
M  V30 5357 C 513.08 -0.138075 2.10648 0
M  V30 5358 O 512.428 -1.14815 1.9756 0
M  V30 5359 C 512.638 2.37265 2.55942 0
M  V30 5360 C 513.986 2.75978 3.22679 0
M  V30 5361 O 515.01 2.36621 2.6625 0
M  V30 5362 O 513.869 3.43867 4.24756 0
M  V30 5363 H 510.963 0.492251 0.664543 0
M  V30 5364 H 513.509 1.50582 0.782511 0
M  V30 5365 H 512.281 3.30644 2.0926 0
M  V30 5366 H 511.904 2.14071 3.35051 0
M  V30 5367 N 512.901 -0.976442 1.23707 0
M  V30 5368 C 513.864 -2.0511 1.02287 0
M  V30 5369 C 514.864 -1.60791 -0.0167195 0
M  V30 5370 O 516.054 -1.72761 0.223408 0
M  V30 5371 C 513.186 -3.36458 0.548507 0
M  V30 5372 H 514.379 -2.25545 1.9766 0
M  V30 5373 H 511.932 -1.15042 1.05806 0
M  V30 5374 H 512.667 -3.21713 -0.408818 0
M  V30 5375 H 512.452 -3.69967 1.29874 0
M  V30 5376 H 513.942 -4.15489 0.419406 0
M  V30 5377 N 514.379 -1.04941 -1.1758 0
M  V30 5378 C 515.609 -0.777166 -1.91425 0
M  V30 5379 C 516.017 0.670647 -1.76915 0
M  V30 5380 O 515.36 1.46965 -1.10213 0
M  V30 5381 C 515.422 -1.07495 -3.43052 0
M  V30 5382 C 515.086 -2.51844 -3.81345 0
M  V30 5383 C 516.083 -3.50047 -3.844 0
M  V30 5384 C 513.768 -2.86787 -4.12382 0
M  V30 5385 C 515.762 -4.81239 -4.17957 0
M  V30 5386 C 513.449 -4.18182 -4.45608 0
M  V30 5387 C 514.447 -5.15219 -4.48373 0
M  V30 5388 O 514.135 -6.44258 -4.80819 0
M  V30 5389 H 513.867 -0.282209 -0.614275 0
M  V30 5390 H 516.421 -1.40258 -1.50056 0
M  V30 5391 H 514.651 -0.392437 -3.84704 0
M  V30 5392 H 516.34 -0.78912 -3.98155 0
M  V30 5393 H 517.106 -3.24391 -3.60548 0
M  V30 5394 H 512.985 -2.11922 -4.09402 0
M  V30 5395 H 516.529 -5.56974 -4.2003 0
M  V30 5396 H 512.426 -4.43602 -4.68922 0
M  V30 5397 H 513.194 -6.49041 -4.98686 0
M  V30 5398 N 515.857 1.33968 -0.830081 0
M  V30 5399 C 517.104 1.98063 -0.421566 0
M  V30 5400 C 517.432 1.65787 1.0171 0
M  V30 5401 O 516.687 0.925348 1.72441 0
M  V30 5402 C 516.986 3.52679 -0.57898 0
M  V30 5403 C 516.652 4.04884 -1.98443 0
M  V30 5404 C 515.314 4.18852 -2.36888 0
M  V30 5405 C 517.666 4.32879 -2.90285 0
M  V30 5406 C 514.994 4.58145 -3.66497 0
M  V30 5407 C 517.346 4.7362 -4.19364 0
M  V30 5408 C 516.01 4.85794 -4.57778 0
M  V30 5409 H 515.28 0.724765 -0.154262 0
M  V30 5410 H 517.927 1.59792 -1.05541 0
M  V30 5411 H 516.232 3.91556 0.138219 0
M  V30 5412 H 517.929 4.00261 -0.243317 0
M  V30 5413 H 514.519 3.9448 -1.67581 0
M  V30 5414 H 518.703 4.21619 -2.61823 0
M  V30 5415 H 513.959 4.65762 -3.96075 0
M  V30 5416 H 518.133 4.9424 -4.90612 0
M  V30 5417 H 515.76 5.15998 -5.58256 0
M  V30 5418 N 517.335 0.585699 1.46312 0
M  V30 5419 C 518.563 0.0781299 2.06752 0
M  V30 5420 C 518.978 -1.22812 1.43396 0
M  V30 5421 O 518.335 -1.74318 0.540314 0
M  V30 5422 C 518.386 -0.0911927 3.61385 0
M  V30 5423 O 518.107 1.16336 4.22371 0
M  V30 5424 C 519.608 -0.632765 4.38761 0
M  V30 5425 H 516.828 0.0588188 0.668417 0
M  V30 5426 H 519.372 0.807218 1.87894 0
M  V30 5427 H 517.527 -0.770514 3.7966 0
M  V30 5428 H 517.941 0.979082 5.15281 0
M  V30 5429 H 519.415 -0.70041 5.47538 0
M  V30 5430 H 519.892 -1.65039 4.07012 0
M  V30 5431 H 520.498 0.0117856 4.25298 0
M  V30 5432 N 518.813 -1.54241 0.323641 0
M  V30 5433 C 520.038 -2.05452 -0.283605 0
M  V30 5434 C 520.463 -1.19823 -1.44997 0
M  V30 5435 O 519.821 -0.207358 -1.8011 0
M  V30 5436 C 519.869 -3.53823 -0.695795 0
M  V30 5437 O 518.973 -3.71134 -1.79815 0
M  V30 5438 H 518.314 -0.662024 -0.0511917 0
M  V30 5439 H 520.844 -1.99079 0.472073 0
M  V30 5440 H 520.854 -3.96094 -0.978434 0
M  V30 5441 H 519.529 -4.15602 0.157287 0
M  V30 5442 H 518.106 -3.40768 -1.51431 0
M  V30 5443 N 520.291 -0.0518155 -1.57515 0
M  V30 5444 C 521.707 0.304735 -1.56664 0
M  V30 5445 C 521.907 1.71395 -1.05953 0
M  V30 5446 O 520.963 2.42123 -0.716414 0
M  V30 5447 C 522.276 0.132614 -3.00407 0
M  V30 5448 C 523.824 0.20367 -3.12337 0
M  V30 5449 C 524.299 0.0600706 -4.57961 0
M  V30 5450 N 525.79 0.116326 -4.63054 0
M  V30 5451 C 526.525 0.0293363 -5.73392 0
M  V30 5452 N 526.021 -0.110038 -6.92713 0
M  V30 5453 N 527.814 0.0849651 -5.62036 0
M  V30 5454 H 519.965 -0.973056 -1.888 0
M  V30 5455 H 522.228 -0.377781 -0.869474 0
M  V30 5456 H 521.934 -0.839019 -3.41546 0
M  V30 5457 H 521.808 0.893376 -3.66468 0
M  V30 5458 H 524.195 1.16578 -2.71097 0
M  V30 5459 H 524.276 -0.587857 -2.48954 0
M  V30 5460 H 523.92 -0.898715 -4.99886 0
M  V30 5461 H 523.85 0.87075 -5.19351 0
M  V30 5462 H 526.341 0.22327 -3.7724 0
M  V30 5463 H 526.654 -0.169104 -7.72615 0
M  V30 5464 H 524.999 -0.145132 -6.94848 0
M  V30 5465 H 528.19 0.192411 -4.67704 0
M  V30 5466 H 528.363 0.0137131 -6.47999 0
M  V30 5467 N 521.769 1.56035 0.221574 0
M  V30 5468 C 522.997 1.8313 0.962864 0
M  V30 5469 C 523.412 0.630934 1.77946 0
M  V30 5470 O 522.769 -0.400519 1.78051 0
M  V30 5471 C 522.82 3.08742 1.88045 0
M  V30 5472 O 522.541 4.24147 1.09686 0
M  V30 5473 C 524.042 3.48824 2.73563 0
M  V30 5474 H 521.262 0.608775 0.282194 0
M  V30 5475 H 523.806 2.03124 0.23681 0
M  V30 5476 H 521.961 2.90723 2.56045 0
M  V30 5477 H 522.375 4.95505 1.71974 0
M  V30 5478 H 523.849 4.39752 3.3365 0
M  V30 5479 H 524.326 2.70575 3.45956 0
M  V30 5480 H 524.932 3.69282 2.10976 0
M  V30 5481 N 523.247 -0.488276 1.49845 0
M  V30 5482 C 524.177 -1.59675 1.70371 0
M  V30 5483 C 525.158 -1.60878 0.552473 0
M  V30 5484 O 526.343 -1.77417 0.78973 0
M  V30 5485 C 523.473 -2.98098 1.782 0
M  V30 5486 C 522.427 -3.11761 2.93239 0
M  V30 5487 C 521.753 -4.51661 2.86193 0
M  V30 5488 C 523.053 -2.90589 4.33999 0
M  V30 5489 H 524.747 -1.42752 2.63177 0
M  V30 5490 H 522.293 -0.685317 1.26647 0
M  V30 5491 H 524.246 -3.75555 1.91144 0
M  V30 5492 H 522.97 -3.16138 0.820018 0
M  V30 5493 H 521.629 -2.36732 2.79917 0
M  V30 5494 H 521.277 -4.66595 1.87877 0
M  V30 5495 H 520.977 -4.61742 3.63412 0
M  V30 5496 H 522.501 -5.31162 3.01163 0
M  V30 5497 H 523.915 -3.57807 4.47936 0
M  V30 5498 H 522.312 -3.1213 5.12538 0
M  V30 5499 H 523.382 -1.86595 4.4756 0
M  V30 5500 N 524.725 -1.39134 -0.740242 0
M  V30 5501 C 525.635 -1.39697 -1.88473 0
M  V30 5502 C 526.651 -0.292403 -1.71526 0
M  V30 5503 O 527.827 -0.533021 -1.94219 0
M  V30 5504 C 524.892 -1.23382 -3.24003 0
M  V30 5505 C 523.953 -2.43763 -3.53381 0
M  V30 5506 C 523.186 -2.28216 -4.82445 0
M  V30 5507 O 523.409 -1.28288 -5.55786 0
M  V30 5508 O 522.343 -3.1709 -5.11603 0
M  V30 5509 H 526.169 -2.36159 -1.90952 0
M  V30 5510 H 523.754 -1.20194 -0.887346 0
M  V30 5511 H 525.636 -1.16395 -4.05006 0
M  V30 5512 H 524.311 -0.300121 -3.22306 0
M  V30 5513 H 523.218 -2.56325 -2.72485 0
M  V30 5514 H 524.551 -3.35808 -3.59852 0
M  V30 5515 N 526.204 0.969867 -1.24223 0
M  V30 5516 C 527.152 2.08535 -1.03034 0
M  V30 5517 C 528.146 1.69366 0.0340379 0
M  V30 5518 O 529.352 1.79597 -0.12034 0
M  V30 5519 H 525.727 0.682313 -0.316154 0
M  V30 5520 H 527.698 2.23569 -1.97635 0
M  V30 5521 C 526.447 3.4158 -0.649509 0
M  V30 5522 H 525.77 3.72177 -1.46028 0
M  V30 5523 H 527.21 4.20536 -0.540841 0
M  V30 5524 C 525.669 3.30703 0.643194 0
M  V30 5525 O 526.199 3.64443 1.68951 0
M  V30 5526 N 524.405 2.83841 0.623095 0
M  V30 5527 H 523.952 2.56583 -0.228719 0
M  V30 5528 H 523.91 2.76946 1.48823 0
M  V30 5529 N 527.682 1.05563 1.17022 0
M  V30 5530 C 528.63 0.653887 2.2322 0
M  V30 5531 C 529.624 -0.326642 1.66221 0
M  V30 5532 O 530.83 -0.192301 1.7897 0
M  V30 5533 H 527.205 0.193297 0.726733 0
M  V30 5534 H 529.176 1.5596 2.54399 0
M  V30 5535 C 527.925 0.0485434 3.47666 0
M  V30 5536 H 527.248 0.79413 3.91834 0
M  V30 5537 H 528.688 -0.195133 4.23551 0
M  V30 5538 C 527.147 -1.20583 3.14581 0
M  V30 5539 O 527.677 -2.29475 3.29703 0
M  V30 5540 N 525.883 -1.10493 2.68774 0
M  V30 5541 H 525.43 -0.218795 2.56669 0
M  V30 5542 H 525.388 -1.94507 2.47011 0
M  V30 5543 N 529.16 -1.33526 0.837174 0
M  V30 5544 C 530.576 -1.50727 0.524743 0
M  V30 5545 C 530.776 -1.77792 -0.948279 0
M  V30 5546 O 529.832 -1.83719 -1.73216 0
M  V30 5547 C 531.145 -2.66299 1.39661 0
M  V30 5548 C 532.693 -2.80183 1.39521 0
M  V30 5549 C 533.168 -3.98815 2.25189 0
M  V30 5550 N 534.659 -4.06047 2.2289 0
M  V30 5551 C 535.394 -4.97032 2.85915 0
M  V30 5552 N 534.89 -5.93143 3.57985 0
M  V30 5553 N 536.683 -4.90015 2.75394 0
M  V30 5554 H 528.834 -1.1422 1.79074 0
M  V30 5555 H 531.097 -0.561399 0.763894 0
M  V30 5556 H 530.803 -2.52974 2.4433 0
M  V30 5557 H 530.677 -3.61663 1.07145 0
M  V30 5558 H 533.064 -2.92942 0.356253 0
M  V30 5559 H 533.145 -1.85586 1.76044 0
M  V30 5560 H 532.789 -3.86817 3.29143 0
M  V30 5561 H 532.719 -4.92654 1.86009 0
M  V30 5562 H 535.21 -3.37262 1.70478 0
M  V30 5563 H 535.523 -6.59227 4.03286 0
M  V30 5564 H 533.868 -5.93223 3.62093 0
M  V30 5565 H 537.059 -4.13894 2.18654 0
M  V30 5566 H 537.232 -5.60724 3.24796 0
M  V30 5567 N 530.638 -0.59345 -1.46 0
M  V30 5568 C 532.054 -0.255965 -1.57534 0
M  V30 5569 C 532.254 1.24167 -1.58697 0
M  V30 5570 O 531.31 2.02398 -1.50968 0
M  V30 5571 C 532.623 -0.91466 -2.86451 0
M  V30 5572 C 534.171 -0.889253 -3.00102 0
M  V30 5573 C 534.646 -1.52769 -4.3177 0
M  V30 5574 N 536.137 -1.49253 -4.38495 0
M  V30 5575 C 536.872 -1.9558 -5.39014 0
M  V30 5576 N 536.368 -2.49929 -6.46148 0
M  V30 5577 N 538.161 -1.86432 -5.30282 0
M  V30 5578 H 530.312 -1.56604 -1.43489 0
M  V30 5579 H 532.575 -0.655207 -0.685133 0
M  V30 5580 H 532.281 -1.96861 -2.91442 0
M  V30 5581 H 532.155 -0.429356 -3.74748 0
M  V30 5582 H 534.542 0.156111 -2.94687 0
M  V30 5583 H 534.623 -1.41268 -2.13253 0
M  V30 5584 H 534.267 -2.57231 -4.37944 0
M  V30 5585 H 534.197 -0.979398 -5.17412 0
M  V30 5586 H 536.688 -1.09536 -3.61677 0
M  V30 5587 H 537.001 -2.83109 -7.19075 0
M  V30 5588 H 535.346 -2.53961 -6.46938 0
M  V30 5589 H 538.537 -1.43722 -4.4549 0
M  V30 5590 H 538.71 -2.22852 -6.08474 0
M  V30 5591 N 532.116 1.54067 -0.331816 0
M  V30 5592 C 533.064 2.26105 0.54582 0
M  V30 5593 C 534.058 1.27816 1.11173 0
M  V30 5594 O 535.264 1.45565 1.05882 0
M  V30 5595 H 531.639 0.726363 0.194683 0
M  V30 5596 H 533.61 2.98282 -0.083931 0
M  V30 5597 C 532.359 3.03814 1.69092 0
M  V30 5598 H 531.682 3.79269 1.26473 0
M  V30 5599 H 533.122 3.57453 2.28043 0
M  V30 5600 C 531.581 2.12606 2.61343 0
M  V30 5601 O 532.111 1.71437 3.6328 0
M  V30 5602 N 530.317 1.77925 2.29763 0
M  V30 5603 H 529.864 2.11602 1.46909 0
M  V30 5604 H 529.822 1.1718 2.91747 0
M  V30 5605 N 533.594 0.0601682 1.57485 0
M  V30 5606 C 534.84 -0.612501 1.93329 0
M  V30 5607 C 535.173 -1.6996 0.939526 0
M  V30 5608 O 534.448 -1.94472 -0.0330957 0
M  V30 5609 C 534.731 -1.20025 3.39508 0
M  V30 5610 C 534.584 -0.12059 4.49638 0
M  V30 5611 C 535.903 -2.10923 3.86264 0
M  V30 5612 H 533.022 -0.221185 0.703027 0
M  V30 5613 H 535.664 0.123768 1.89596 0
M  V30 5614 H 533.814 -1.82774 3.42821 0
M  V30 5615 H 535.486 0.51185 4.58452 0
M  V30 5616 H 533.729 0.550251 4.30296 0
M  V30 5617 H 534.4 -0.572019 5.49028 0
M  V30 5618 H 536.876 -1.58124 3.84884 0
M  V30 5619 H 535.752 -2.48987 4.8918 0
M  V30 5620 H 536.013 -3.01292 3.23536 0
M  V30 5621 N 535.072 -1.5615 -0.213296 0
M  V30 5622 C 536.318 -1.80718 -0.933402 0
M  V30 5623 C 536.673 -0.634441 -1.81639 0
M  V30 5624 O 535.966 0.371182 -1.8797 0
M  V30 5625 C 536.16 -3.08772 -1.79985 0
M  V30 5626 C 535.989 -4.38389 -1.00224 0
M  V30 5627 C 534.759 -5.00513 -0.693885 0
M  V30 5628 C 536.957 -5.13013 -0.363598 0
M  V30 5629 N 534.939 -6.13774 0.124266 0
M  V30 5630 C 536.31 -6.19186 0.31757 0
M  V30 5631 C 538.365 -4.97126 -0.277468 0
M  V30 5632 C 537.068 -7.11197 1.07664 0
M  V30 5633 C 539.094 -5.89544 0.468155 0
M  V30 5634 C 538.456 -6.95149 1.13784 0
M  V30 5635 H 534.555 -0.712833 -0.321549 0
M  V30 5636 H 537.139 -1.93633 -0.203588 0
M  V30 5637 H 535.31 -2.97126 -2.50142 0
M  V30 5638 H 537.042 -3.21499 -2.45806 0
M  V30 5639 H 533.797 -4.62619 -1.01391 0
M  V30 5640 H 534.221 -6.74981 0.522418 0
M  V30 5641 H 538.863 -4.15526 -0.78087 0
M  V30 5642 H 536.581 -7.92273 1.59153 0
M  V30 5643 H 540.167 -5.79327 0.535911 0
M  V30 5644 H 539.047 -7.65428 1.70557 0
M  V30 5645 N 536.55 0.480323 -1.50102 0
M  V30 5646 C 537.797 1.23307 -1.60629 0
M  V30 5647 C 538.125 1.92135 -0.302375 0
M  V30 5648 O 537.38 1.82321 0.711154 0
M  V30 5649 C 537.679 2.30708 -2.72963 0
M  V30 5650 C 537.345 1.79195 -4.13763 0
M  V30 5651 C 536.007 1.64867 -4.52076 0
M  V30 5652 C 538.359 1.40878 -5.018 0
M  V30 5653 C 535.687 1.10631 -5.76175 0
M  V30 5654 C 538.039 0.880872 -6.26437 0
M  V30 5655 C 536.703 0.724146 -6.6356 0
M  V30 5656 H 535.973 0.451211 -0.587784 0
M  V30 5657 H 538.62 0.53051 -1.84005 0
M  V30 5658 H 536.925 3.06834 -2.43639 0
M  V30 5659 H 538.622 2.88692 -2.78313 0
M  V30 5660 H 535.212 1.91313 -3.83533 0
M  V30 5661 H 539.396 1.50786 -4.7284 0
M  V30 5662 H 534.652 0.972263 -6.0362 0
M  V30 5663 H 538.826 0.575269 -6.9402 0
M  V30 5664 H 536.453 0.301722 -7.59601 0
M  V30 5665 N 538.028 1.39524 0.732853 0
M  V30 5666 C 538.991 1.38189 1.82857 0
M  V30 5667 C 539.991 0.278624 1.58368 0
M  V30 5668 O 541.181 0.536639 1.65728 0
M  V30 5669 C 538.313 1.15661 3.2068 0
M  V30 5670 H 539.506 2.35692 1.85444 0
M  V30 5671 H 537.059 1.2512 0.936728 0
M  V30 5672 H 537.794 0.188482 3.23752 0
M  V30 5673 H 537.579 1.95559 3.39852 0
M  V30 5674 H 539.069 1.17472 4.00737 0
M  V30 5675 N 539.506 -0.963266 1.24736 0
M  V30 5676 C 540.416 -2.09246 1.06082 0
M  V30 5677 C 541.432 -1.74 0.000363101 0
M  V30 5678 O 542.608 -2.0041 0.199479 0
M  V30 5679 C 539.673 -3.40115 0.672498 0
M  V30 5680 C 538.734 -3.89282 1.80993 0
M  V30 5681 C 537.967 -5.13905 1.44004 0
M  V30 5682 O 538.19 -5.69434 0.331835 0
M  V30 5683 O 537.124 -5.57566 2.26723 0
M  V30 5684 H 540.95 -2.27881 2.00759 0
M  V30 5685 H 538.535 -1.07649 1.03595 0
M  V30 5686 H 540.417 -4.18797 0.467668 0
M  V30 5687 H 539.092 -3.22771 -0.245102 0
M  V30 5688 H 537.999 -3.11642 2.06955 0
M  V30 5689 H 539.332 -4.1111 2.70646 0
M  V30 5690 N 540.985 -1.06182 -1.16461 0
M  V30 5691 C 542.215 -0.797425 -1.9059 0
M  V30 5692 C 542.623 0.651845 -1.77616 0
M  V30 5693 O 541.966 1.45788 -1.11766 0
M  V30 5694 C 542.028 -1.11128 -3.41893 0
M  V30 5695 C 541.692 -2.55874 -3.78652 0
M  V30 5696 C 542.689 -3.54104 -3.80665 0
M  V30 5697 C 540.374 -2.91144 -4.09317 0
M  V30 5698 C 542.368 -4.85645 -4.12829 0
M  V30 5699 C 540.055 -4.22885 -4.41148 0
M  V30 5700 C 541.053 -5.19945 -4.42883 0
M  V30 5701 O 540.741 -6.49322 -4.73959 0
M  V30 5702 H 540.473 -0.288709 -0.611247 0
M  V30 5703 H 543.027 -1.41841 -1.4856 0
M  V30 5704 H 541.257 -0.433217 -3.84266 0
M  V30 5705 H 542.946 -0.831306 -3.97296 0
M  V30 5706 H 543.712 -3.28197 -3.57088 0
M  V30 5707 H 539.591 -2.16252 -4.07131 0
M  V30 5708 H 543.135 -5.61398 -4.14099 0
M  V30 5709 H 539.032 -4.48551 -4.6419 0
M  V30 5710 H 539.8 -6.54294 -4.91774 0
M  V30 5711 N 542.463 1.3308 -0.844243 0
M  V30 5712 C 543.709 1.98304 -0.452453 0
M  V30 5713 C 544.064 1.65645 0.978746 0
M  V30 5714 O 543.357 0.928849 1.6758 0
M  V30 5715 C 543.551 3.52045 -0.616354 0
M  V30 5716 C 543.38 3.99643 -2.06193 0
M  V30 5717 C 542.15 4.27224 -2.69829 0
M  V30 5718 C 544.348 4.15471 -3.03131 0
M  V30 5719 N 542.33 4.60998 -4.05406 0
M  V30 5720 C 543.701 4.52665 -4.23668 0
M  V30 5721 C 545.756 3.97776 -2.99465 0
M  V30 5722 C 544.459 4.74011 -5.41023 0
M  V30 5723 C 546.485 4.20301 -4.16055 0
M  V30 5724 C 545.847 4.57801 -5.35348 0
M  V30 5725 H 541.946 0.752122 -0.214096 0
M  V30 5726 H 544.53 1.61096 -1.09344 0
M  V30 5727 H 542.701 3.884 -0.00513205 0
M  V30 5728 H 544.433 4.04228 -0.19548 0
M  V30 5729 H 541.188 4.18911 -2.20931 0
M  V30 5730 H 541.612 4.82087 -4.75312 0
M  V30 5731 H 546.254 3.67893 -2.08362 0
M  V30 5732 H 543.972 5.02753 -6.32665 0
M  V30 5733 H 547.558 4.08122 -4.14641 0
M  V30 5734 H 546.438 4.74884 -6.24063 0
M  V30 5735 N 543.941 0.601185 1.45683 0
M  V30 5736 C 544.851 -0.123395 2.34275 0
M  V30 5737 C 545.867 -0.86702 1.5086 0
M  V30 5738 O 547.043 -0.826049 1.8368 0
M  V30 5739 C 544.108 -1.11237 3.2837 0
M  V30 5740 C 543.169 -0.371405 4.2769 0
M  V30 5741 C 542.402 -1.31327 5.1729 0
M  V30 5742 O 542.625 -2.55078 5.10188 0
M  V30 5743 O 541.559 -0.813811 5.96373 0
M  V30 5744 H 545.385 0.604483 2.97623 0
M  V30 5745 H 542.97 0.361477 1.44961 0
M  V30 5746 H 544.852 -1.68214 3.8637 0
M  V30 5747 H 543.527 -1.82139 2.67595 0
M  V30 5748 H 542.434 0.24067 3.73325 0
M  V30 5749 H 543.767 0.296998 4.91303 0
M  V30 5750 N 545.419 -1.53889 0.339982 0
M  V30 5751 C 546.329 -2.28604 -0.526988 0
M  V30 5752 C 547.345 -1.33578 -1.11503 0
M  V30 5753 O 548.521 -1.66612 -1.13148 0
M  V30 5754 C 545.586 -3.04164 -1.66389 0
M  V30 5755 C 544.647 -4.14809 -1.10599 0
M  V30 5756 C 543.88 -4.86756 -2.18871 0
M  V30 5757 O 544.103 -4.58343 -3.39526 0
M  V30 5758 O 543.037 -5.73289 -1.83366 0
M  V30 5759 H 546.863 -3.03594 0.0802707 0
M  V30 5760 H 544.448 -1.4903 0.105141 0
M  V30 5761 H 546.33 -3.51427 -2.32544 0
M  V30 5762 H 545.005 -2.32035 -2.25703 0
M  V30 5763 H 543.912 -3.71857 -0.409067 0
M  V30 5764 H 545.245 -4.89029 -0.557771 0
M  V30 5765 N 546.897 -0.0685191 -1.57451 0
M  V30 5766 C 547.845 0.917577 -2.13736 0
M  V30 5767 C 548.839 1.31049 -1.07344 0
M  V30 5768 O 550.045 1.28811 -1.25728 0
M  V30 5769 H 546.42 0.313835 -0.683382 0
M  V30 5770 H 548.391 0.417903 -2.95459 0
M  V30 5771 C 547.14 2.17686 -2.71123 0
M  V30 5772 H 546.463 1.88336 -3.52661 0
M  V30 5773 H 547.903 2.84803 -3.14107 0
M  V30 5774 C 546.362 2.9332 -1.65726 0
M  V30 5775 O 546.892 3.86901 -1.08031 0
M  V30 5776 N 545.098 2.56367 -1.36837 0
M  V30 5777 H 544.645 1.80341 -1.83943 0
M  V30 5778 H 544.603 3.07276 -0.665501 0
M  V30 5779 N 548.375 1.56261 0.205012 0
M  V30 5780 C 549.622 1.8004 0.926927 0
M  V30 5781 C 549.95 0.640086 1.83666 0
M  V30 5782 O 549.205 -0.374702 1.92079 0
M  V30 5783 C 549.504 3.09722 1.78345 0
M  V30 5784 C 549.17 4.39082 1.02555 0
M  V30 5785 C 547.832 4.74226 0.816256 0
M  V30 5786 C 550.184 5.18877 0.491559 0
M  V30 5787 C 547.512 5.86668 0.0613287 0
M  V30 5788 C 549.864 6.32105 -0.250107 0
M  V30 5789 C 548.528 6.6584 -0.470508 0
M  V30 5790 H 547.798 0.658812 0.339187 0
M  V30 5791 H 550.445 1.90515 0.19395 0
M  V30 5792 H 548.75 2.9444 2.5848 0
M  V30 5793 H 550.447 3.25324 2.34446 0
M  V30 5794 H 547.037 4.11497 1.19868 0
M  V30 5795 H 551.221 4.92147 0.640684 0
M  V30 5796 H 546.477 6.11283 -0.119501 0
M  V30 5797 H 550.651 6.93157 -0.671307 0
M  V30 5798 H 548.278 7.5281 -1.05739 0
M  V30 5799 N 549.853 -0.472356 1.50355 0
M  V30 5800 C 550.801 -1.59126 1.69651 0
M  V30 5801 C 551.795 -1.59793 0.56237 0
M  V30 5802 O 553.001 -1.63957 0.742832 0
M  V30 5803 H 549.376 -0.528008 0.535454 0
M  V30 5804 H 551.347 -1.40013 2.63513 0
M  V30 5805 C 550.096 -2.97075 1.8067 0
M  V30 5806 H 549.419 -2.9728 2.67329 0
M  V30 5807 H 550.859 -3.74825 1.98197 0
M  V30 5808 C 549.318 -3.32247 0.558016 0
M  V30 5809 O 549.848 -4.00553 -0.303399 0
M  V30 5810 N 548.054 -2.87659 0.412415 0
M  V30 5811 H 547.601 -2.32246 1.11443 0
M  V30 5812 H 547.559 -3.11556 -0.421908 0
M  V30 5813 N 551.331 -1.39911 -0.725443 0
M  V30 5814 C 552.571 -1.39096 -1.49772 0
M  V30 5815 C 552.935 0.0106452 -1.91997 0
M  V30 5816 O 554.136 0.143859 -2.68415 0
M  V30 5817 C 552.407 -2.34441 -2.69764 0
M  V30 5818 S 553.966 -2.51898 -3.59295 0
M  V30 5819 H 550.784 -0.49314 -0.512186 0
M  V30 5820 H 553.386 -1.76093 -0.849197 0
M  V30 5821 H 552.09 -3.35123 -2.36898 0
M  V30 5822 H 551.621 -1.98692 -3.39537 0
M  V30 5823 H 553.636 -1.76402 -4.63785 0
M  V30 5824 N 552.809 0.956637 -1.25245 0
M  V30 5825 C 553.756 2.053 -1.05454 0
M  V30 5826 C 554.726 1.66062 0.0356889 0
M  V30 5827 O 555.911 1.90415 -0.121099 0
M  V30 5828 C 553.051 3.38391 -0.677191 0
M  V30 5829 C 552.164 3.90758 -1.84206 0
M  V30 5830 C 551.299 5.12165 -1.40926 0
M  V30 5831 C 550.338 5.56757 -2.54338 0
M  V30 5832 N 549.475 6.69376 -2.11848 0
M  V30 5833 H 554.315 2.21562 -1.99284 0
M  V30 5834 H 551.852 1.08578 -0.992434 0
M  V30 5835 H 553.81 4.1488 -0.43938 0
M  V30 5836 H 552.44 3.22021 0.224127 0
M  V30 5837 H 551.492 3.10808 -2.19323 0
M  V30 5838 H 552.804 4.19802 -2.69383 0
M  V30 5839 H 551.958 5.96065 -1.13098 0
M  V30 5840 H 550.697 4.84832 -0.528175 0
M  V30 5841 H 549.702 4.71423 -2.82913 0
M  V30 5842 H 550.927 5.861 -3.43022 0
M  V30 5843 H 548.873 6.43756 -1.26153 0
M  V30 5844 H 548.79 6.97927 -2.90574 0
M  V30 5845 H 550.058 7.5669 -1.87191 0
M  V30 5846 N 554.287 1.06798 1.15896 0
M  V30 5847 C 555.217 0.704677 2.22613 0
M  V30 5848 C 556.198 -0.305252 1.67339 0
M  V30 5849 O 557.383 -0.179247 1.93371 0
M  V30 5850 C 554.513 0.0957325 3.47168 0
M  V30 5851 C 553.467 1.0322 4.15367 0
M  V30 5852 C 552.793 0.286293 5.33933 0
M  V30 5853 C 554.093 2.36341 4.65768 0
M  V30 5854 H 555.787 1.59688 2.53259 0
M  V30 5855 H 553.333 0.769257 1.21731 0
M  V30 5856 H 555.286 -0.170333 4.21056 0
M  V30 5857 H 554.01 -0.831516 3.15838 0
M  V30 5858 H 552.669 1.28309 3.43413 0
M  V30 5859 H 552.317 -0.644237 4.98857 0
M  V30 5860 H 552.017 0.910436 5.80504 0
M  V30 5861 H 553.541 0.0278938 6.10594 0
M  V30 5862 H 554.955 2.1561 5.31211 0
M  V30 5863 H 553.352 2.94299 5.2298 0
M  V30 5864 H 554.422 2.99047 3.81705 0
M  V30 5865 N 555.766 -1.3263 0.851289 0
M  V30 5866 C 556.994 -2.01563 0.466899 0
M  V30 5867 C 557.409 -1.63996 -0.935447 0
M  V30 5868 O 556.766 -0.85957 -1.6099 0
M  V30 5869 C 556.817 -3.56613 0.592433 0
M  V30 5870 O 556.538 -3.92828 1.93954 0
M  V30 5871 C 558.039 -4.42818 0.206612 0
M  V30 5872 H 555.259 -0.645307 0.183902 0
M  V30 5873 H 557.803 -1.69285 1.1473 0
M  V30 5874 H 555.958 -3.87379 -0.0401936 0
M  V30 5875 H 556.372 -4.87545 1.9339 0
M  V30 5876 H 557.846 -5.50918 0.345462 0
M  V30 5877 H 558.323 -4.30844 -0.85264 0
M  V30 5878 H 558.929 -4.17434 0.814176 0
M  V30 5879 N 557.244 -0.608902 -1.45362 0
M  V30 5880 C 558.493 -0.10218 -2.01441 0
M  V30 5881 C 558.806 1.27546 -1.48295 0
M  V30 5882 O 560.012 1.87498 -1.96359 0
M  V30 5883 C 558.468 -0.131985 -3.59658 0
M  V30 5884 C 558.076 -1.50956 -4.21801 0
M  V30 5885 C 559.82 0.319427 -4.23296 0
M  V30 5886 C 557.727 -1.49568 -5.72174 0
M  V30 5887 H 556.657 -0.0344314 -0.753213 0
M  V30 5888 H 559.308 -0.764426 -1.6682 0
M  V30 5889 H 557.69 0.596939 -3.91475 0
M  V30 5890 H 558.864 -2.26029 -4.01556 0
M  V30 5891 H 557.179 -1.90318 -3.70362 0
M  V30 5892 H 559.776 0.349013 -5.3356 0
M  V30 5893 H 560.119 1.34237 -3.94064 0
M  V30 5894 H 560.652 -0.356273 -3.96201 0
M  V30 5895 H 557.391 -2.49626 -6.06108 0
M  V30 5896 H 556.911 -0.787542 -5.94607 0
M  V30 5897 H 558.59 -1.21989 -6.35396 0
M  V30 5898 N 558.722 1.53707 -0.348139 0
M  V30 5899 C 559.947 2.05877 0.250883 0
M  V30 5900 C 560.372 1.22115 1.43072 0
M  V30 5901 O 559.73 0.235986 1.79758 0
M  V30 5902 C 559.778 3.54886 0.639416 0
M  V30 5903 O 558.882 3.73948 1.73888 0
M  V30 5904 H 558.223 0.662754 0.040653 0
M  V30 5905 H 560.753 1.98303 -0.503685 0
M  V30 5906 H 560.763 3.97601 0.915295 0
M  V30 5907 H 559.438 4.153 -0.223386 0
M  V30 5908 H 558.015 3.43134 1.45991 0
M  V30 5909 N 560.2 0.0768682 1.57412 0
M  V30 5910 C 561.448 -0.589918 1.93299 0
M  V30 5911 C 561.769 -1.69842 0.958049 0
M  V30 5912 O 561.039 -1.95899 0.00703261 0
M  V30 5913 H 559.619 -0.220901 0.713591 0
M  V30 5914 H 562.281 0.135917 1.94425 0
M  V30 5915 H 561.377 -1.01195 2.95239 0
M  V30 5916 N 561.678 -1.56367 -0.196722 0
M  V30 5917 C 562.903 -1.84991 -0.937714 0
M  V30 5918 C 563.328 -0.660244 -1.76132 0
M  V30 5919 O 562.686 0.390967 -1.77034 0
M  V30 5920 C 562.734 -3.11828 -1.81096 0
M  V30 5921 O 561.838 -2.92266 -2.90955 0
M  V30 5922 H 561.179 -0.609193 -0.264159 0
M  V30 5923 H 563.709 -2.03595 -0.202529 0
M  V30 5924 H 563.719 -3.42579 -2.21594 0
M  V30 5925 H 562.394 -3.98037 -1.2058 0
M  V30 5926 H 560.971 -2.72809 -2.54224 0
M  V30 5927 N 563.156 0.464375 -1.50603 0
M  V30 5928 C 564.103 1.56152 -1.69956 0
M  V30 5929 C 565.073 1.57046 -0.54091 0
M  V30 5930 O 566.258 1.74473 -0.772258 0
M  V30 5931 C 563.398 2.94079 -1.80586 0
M  V30 5932 C 562.511 3.02923 -3.07996 0
M  V30 5933 C 561.646 4.31806 -3.09382 0
M  V30 5934 C 560.685 4.34417 -4.31218 0
M  V30 5935 N 559.822 5.54782 -4.30304 0
M  V30 5936 H 564.662 1.38955 -2.6362 0
M  V30 5937 H 562.199 0.675482 -1.30674 0
M  V30 5938 H 564.157 3.74073 -1.8473 0
M  V30 5939 H 562.787 3.09896 -0.903556 0
M  V30 5940 H 561.839 2.1576 -3.13292 0
M  V30 5941 H 563.151 3.00712 -3.97962 0
M  V30 5942 H 562.305 5.20153 -3.12292 0
M  V30 5943 H 561.044 4.36636 -2.17257 0
M  V30 5944 H 560.049 3.44467 -4.28512 0
M  V30 5945 H 561.274 4.31273 -5.24576 0
M  V30 5946 H 559.22 5.60384 -3.41037 0
M  V30 5947 H 559.137 5.54339 -5.14047 0
M  V30 5948 H 560.405 6.45235 -4.3737 0
M  V30 5949 N 564.634 1.40294 0.718013 0
M  V30 5950 C 565.581 1.40367 1.8321 0
M  V30 5951 C 566.551 0.260952 1.64037 0
M  V30 5952 O 567.736 0.458648 1.85205 0
M  V30 5953 C 564.876 1.26965 3.20895 0
M  V30 5954 C 563.989 2.50922 3.51656 0
M  V30 5955 C 563.124 2.29981 4.78834 0
M  V30 5956 C 562.163 3.49527 5.02491 0
M  V30 5957 N 561.3 3.27796 6.20882 0
M  V30 5958 H 566.14 2.35593 1.82482 0
M  V30 5959 H 563.677 1.17012 0.891444 0
M  V30 5960 H 565.635 1.17202 4.00399 0
M  V30 5961 H 564.265 0.353591 3.20858 0
M  V30 5962 H 563.317 2.71223 2.66725 0
M  V30 5963 H 564.629 3.39913 3.65048 0
M  V30 5964 H 563.783 2.17558 5.66351 0
M  V30 5965 H 562.522 1.38411 4.67647 0
M  V30 5966 H 561.527 3.6243 4.1343 0
M  V30 5967 H 562.752 4.42021 5.15553 0
M  V30 5968 H 560.698 2.38906 6.1095 0
M  V30 5969 H 560.615 4.10351 6.34939 0
M  V30 5970 H 561.883 3.19101 7.11193 0
M  V30 5971 N 566.112 -0.949982 1.2575 0
M  V30 5972 C 567.022 -2.08109 1.08295 0
M  V30 5973 C 568.038 -1.7399 0.0188181 0
M  V30 5974 O 569.214 -2.00187 0.220724 0
M  V30 5975 C 566.279 -3.39383 0.708534 0
M  V30 5976 C 565.34 -3.8734 1.85111 0
M  V30 5977 C 564.573 -5.12349 1.49447 0
M  V30 5978 O 564.796 -5.6905 0.392212 0
M  V30 5979 O 563.73 -5.5513 2.32624 0
M  V30 5980 H 567.556 -2.25738 2.03165 0
M  V30 5981 H 565.141 -1.06545 1.04731 0
M  V30 5982 H 567.023 -4.18277 0.512061 0
M  V30 5983 H 565.698 -3.23013 -0.210854 0
M  V30 5984 H 564.605 -3.09429 2.10248 0
M  V30 5985 H 565.938 -4.08216 2.74991 0
M  V30 5986 N 567.59 -1.07411 -1.15328 0
M  V30 5987 C 568.867 -0.710732 -1.82231 0
M  V30 5988 C 569.247 0.806732 -1.95077 0
M  V30 5989 O 568.595 1.72139 -1.50268 0
M  V30 5990 C 568.805 -1.42586 -3.18544 0
M  V30 5991 C 570.153 -1.57836 -3.94174 0
M  V30 5992 O 571.177 -1.38669 -3.281 0
M  V30 5993 O 570.036 -1.8938 -5.12638 0
M  V30 5994 H 567.13 -0.25297 -0.78736 0
M  V30 5995 H 569.676 -1.17508 -1.22434 0
M  V30 5996 H 568.448 -2.46008 -3.04296 0
M  V30 5997 H 568.071 -0.952332 -3.86026 0
M  V30 5998 N 569.068 1.32177 -0.85831 0
M  V30 5999 C 570.296 2.01313 -0.477582 0
M  V30 6000 C 570.711 1.6449 0.926736 0
M  V30 6001 O 570.068 0.868096 1.60531 0
M  V30 6002 C 570.119 3.56293 -0.611337 0
M  V30 6003 O 569.84 3.91794 -1.96034 0
M  V30 6004 C 571.341 4.42702 -0.230093 0
M  V30 6005 H 568.561 0.644323 -0.187322 0
M  V30 6006 H 571.105 1.68674 -1.15626 0
M  V30 6007 H 569.26 3.87395 0.0196494 0
M  V30 6008 H 569.674 4.86513 -1.95973 0
M  V30 6009 H 571.148 5.50727 -0.374674 0
M  V30 6010 H 571.625 4.3129 0.829779 0
M  V30 6011 H 572.231 4.16997 -0.836302 0
M  V30 6012 N 570.547 0.616602 1.45037 0
M  V30 6013 C 571.824 0.0469086 1.95544 0
M  V30 6014 C 572.204 -1.42345 1.55888 0
M  V30 6015 O 571.552 -2.13055 0.825824 0
M  V30 6016 C 571.762 0.254489 3.48071 0
M  V30 6017 C 573.11 0.140025 4.24369 0
M  V30 6018 O 574.134 0.185084 3.55719 0
M  V30 6019 O 572.993 0.0327034 5.4649 0
M  V30 6020 H 570.087 -0.0306051 0.826433 0
M  V30 6021 H 572.633 0.687293 1.55159 0
M  V30 6022 H 571.405 1.27532 3.69934 0
M  V30 6023 H 571.028 -0.42073 3.95368 0
M  V30 6024 N 572.025 -1.5352 0.356285 0
M  V30 6025 C 573.441 -1.59599 0.00485267 0
M  V30 6026 C 573.641 -1.37179 -1.47595 0
M  V30 6027 O 572.697 -1.17234 -2.23635 0
M  V30 6028 C 574.01 -2.97277 0.452454 0
M  V30 6029 C 575.558 -3.10357 0.405881 0
M  V30 6030 C 576.033 -4.50432 0.829148 0
M  V30 6031 N 577.524 -4.5652 0.783838 0
M  V30 6032 C 578.259 -5.63077 1.08315 0
M  V30 6033 N 577.755 -6.77429 1.45126 0
M  V30 6034 N 579.548 -5.53014 1.00655 0
M  V30 6035 H 571.699 -1.66346 1.32071 0
M  V30 6036 H 573.962 -0.77971 0.539218 0
M  V30 6037 H 573.668 -3.18792 1.48542 0
M  V30 6038 H 573.542 -3.76836 -0.165762 0
M  V30 6039 H 575.929 -2.88558 -0.617934 0
M  V30 6040 H 576.01 -2.32828 1.05947 0
M  V30 6041 H 575.654 -4.72968 1.85103 0
M  V30 6042 H 575.584 -5.26378 0.152906 0
M  V30 6043 H 578.075 -3.74408 0.512513 0
M  V30 6044 H 578.388 -7.54669 1.66415 0
M  V30 6045 H 576.733 -6.78844 1.48983 0
M  V30 6046 H 579.924 -4.62557 0.718215 0
M  V30 6047 H 580.097 -6.35964 1.24315 0
M  V30 6048 N 573.503 -0.0852151 -1.57369 0
M  V30 6049 C 574.45 0.877268 -2.13478 0
M  V30 6050 C 575.42 1.28642 -1.05073 0
M  V30 6051 O 576.605 1.36992 -1.32808 0
M  V30 6052 C 573.745 2.13464 -2.71159 0
M  V30 6053 C 572.858 1.77691 -3.93764 0
M  V30 6054 C 571.993 2.98139 -4.39643 0
M  V30 6055 C 571.032 2.58447 -5.54862 0
M  V30 6056 N 570.169 3.71698 -5.95639 0
M  V30 6057 H 575.009 0.391933 -2.95411 0
M  V30 6058 H 572.546 0.181796 -1.45972 0
M  V30 6059 H 574.504 2.87086 -3.02717 0
M  V30 6060 H 573.134 2.59514 -1.91969 0
M  V30 6061 H 572.186 0.940768 -3.68583 0
M  V30 6062 H 573.498 1.44497 -4.77412 0
M  V30 6063 H 572.652 3.80026 -4.72933 0
M  V30 6064 H 571.391 3.34536 -3.54876 0
M  V30 6065 H 570.396 1.74984 -5.21211 0
M  V30 6066 H 571.621 2.23205 -6.41371 0
M  V30 6067 H 569.567 4.07831 -5.13819 0
M  V30 6068 H 569.484 3.42317 -6.74059 0
M  V30 6069 H 570.752 4.54123 -6.33555 0
M  V30 6070 N 574.981 1.5647 0.188427 0
M  V30 6071 C 576.221 1.82803 0.914469 0
M  V30 6072 C 576.585 0.663681 1.80165 0
M  V30 6073 O 577.786 0.807059 2.56398 0
M  V30 6074 C 576.057 3.14187 1.70357 0
M  V30 6075 S 577.616 3.61947 2.48072 0
M  V30 6076 H 574.434 0.641497 0.306599 0
M  V30 6077 H 577.036 1.94694 0.177361 0
M  V30 6078 H 575.74 3.96937 1.04255 0
M  V30 6079 H 575.271 3.05192 2.48237 0
M  V30 6080 H 577.286 3.27913 3.72407 0
M  V30 6081 N 576.459 -0.456382 1.50847 0
M  V30 6082 C 577.687 -1.23026 1.66349 0
M  V30 6083 C 578.102 -1.85473 0.352868 0
M  V30 6084 O 577.459 -1.69885 -0.666739 0
M  V30 6085 C 577.51 -2.32827 2.76539 0
M  V30 6086 O 577.231 -1.72938 4.02522 0
M  V30 6087 C 578.732 -3.23448 3.03144 0
M  V30 6088 H 575.952 -0.371527 0.558756 0
M  V30 6089 H 578.496 -0.543082 1.97157 0
M  V30 6090 H 576.651 -2.97294 2.48384 0
M  V30 6091 H 577.065 -2.45357 4.63573 0
M  V30 6092 H 578.539 -3.96669 3.83872 0
M  V30 6093 H 579.016 -3.83094 2.14793 0
M  V30 6094 H 579.622 -2.64702 3.32886 0
M  V30 6095 N 577.937 -1.40673 -0.710563 0
M  V30 6096 C 579.185 -1.38947 -1.46759 0
M  V30 6097 C 579.506 0.00572879 -1.94999 0
M  V30 6098 O 578.776 0.961358 -1.70689 0
M  V30 6099 H 577.356 -0.5114 -0.544499 0
M  V30 6100 H 580.018 -1.75773 -0.842012 0
M  V30 6101 H 579.114 -2.06745 -2.33801 0
M  V30 6102 N 579.415 0.9433 -1.26252 0
M  V30 6103 C 580.347 2.04542 -1.03417 0
M  V30 6104 C 581.36 1.62799 0.0046911 0
M  V30 6105 O 582.549 1.76944 -0.235146 0
M  V30 6106 C 579.649 3.34511 -0.543671 0
M  V30 6107 C 578.822 4.05033 -1.65128 0
M  V30 6108 C 577.881 5.13273 -1.1592 0
M  V30 6109 O 576.907 5.38095 -1.85586 0
M  V30 6110 N 578.109 5.805 -0.00649279 0
M  V30 6111 H 580.874 2.24699 -1.98319 0
M  V30 6112 H 578.435 1.11264 -1.1761 0
M  V30 6113 H 580.427 4.04212 -0.198703 0
M  V30 6114 H 578.997 3.11042 0.311711 0
M  V30 6115 H 578.217 3.29275 -2.16729 0
M  V30 6116 H 579.505 4.48903 -2.39508 0
M  V30 6117 H 578.903 5.62767 0.575347 0
M  V30 6118 H 577.46 6.51201 0.279416 0
M  V30 6119 N 580.893 1.08022 1.14757 0
M  V30 6120 C 581.803 0.718292 2.23333 0
M  V30 6121 C 582.819 -0.273477 1.71837 0
M  V30 6122 O 583.995 -0.118406 2.01052 0
M  V30 6123 C 581.06 0.128855 3.4646 0
M  V30 6124 C 580.121 1.17473 4.12915 0
M  V30 6125 C 579.354 0.61333 5.30164 0
M  V30 6126 O 579.577 -0.568458 5.6756 0
M  V30 6127 O 578.511 1.3615 5.86299 0
M  V30 6128 H 582.337 1.62394 2.56636 0
M  V30 6129 H 579.922 0.853628 1.22611 0
M  V30 6130 H 581.804 -0.197249 4.20938 0
M  V30 6131 H 580.479 -0.750014 3.14891 0
M  V30 6132 H 579.386 1.5533 3.40328 0
M  V30 6133 H 580.719 2.02574 4.48581 0
M  V30 6134 N 582.371 -1.3172 0.865308 0
M  V30 6135 C 583.787 -1.4958 0.556596 0
M  V30 6136 C 583.987 -1.79763 -0.910353 0
M  V30 6137 O 583.043 -1.87351 -1.6928 0
M  V30 6138 C 584.356 -2.63277 1.45279 0
M  V30 6139 C 585.904 -2.77161 1.45433 0
M  V30 6140 C 586.379 -3.93949 2.33598 0
M  V30 6141 N 587.87 -4.01228 2.31453 0
M  V30 6142 C 588.605 -4.90855 2.96393 0
M  V30 6143 N 588.101 -5.85416 3.70486 0
M  V30 6144 N 589.894 -4.84063 2.85726 0
M  V30 6145 H 582.045 -1.10396 1.81456 0
M  V30 6146 H 584.308 -0.54507 0.775631 0
M  V30 6147 H 584.014 -2.47734 2.49641 0
M  V30 6148 H 583.888 -3.59309 1.14792 0
M  V30 6149 H 586.275 -2.9212 0.41831 0
M  V30 6150 H 586.356 -1.8181 1.79941 0
M  V30 6151 H 586 -3.79748 3.37274 0
M  V30 6152 H 585.93 -4.88598 1.96417 0
M  V30 6153 H 588.421 -3.3357 1.77593 0
M  V30 6154 H 588.734 -6.50525 4.17178 0
M  V30 6155 H 587.079 -5.85409 3.74594 0
M  V30 6156 H 590.27 -4.09163 2.27384 0
M  V30 6157 H 590.443 -5.53708 3.36617 0
M  V30 6158 N 583.85 -0.624285 -1.44708 0
M  V30 6159 C 585.099 -0.123539 -2.01321 0
M  V30 6160 C 585.412 1.25966 -1.49639 0
M  V30 6161 O 586.618 1.85405 -1.98336 0
M  V30 6162 C 585.074 -0.170124 -3.59498 0
M  V30 6163 C 584.682 -1.55421 -4.20176 0
M  V30 6164 C 586.426 0.274513 -4.23611 0
M  V30 6165 C 584.332 -1.55628 -5.70556 0
M  V30 6166 H 583.263 -0.0424183 -0.752806 0
M  V30 6167 H 585.913 -0.782076 -1.65999 0
M  V30 6168 H 584.296 0.555385 -3.92086 0
M  V30 6169 H 585.47 -2.30276 -3.99136 0
M  V30 6170 H 583.784 -1.94235 -3.68323 0
M  V30 6171 H 586.382 0.292402 -5.339 0
M  V30 6172 H 586.725 1.3005 -3.95465 0
M  V30 6173 H 587.258 -0.398275 -3.95801 0
M  V30 6174 H 583.997 -2.56041 -6.03426 0
M  V30 6175 H 583.517 -0.850563 -5.93739 0
M  V30 6176 H 585.196 -1.28721 -6.34066 0
M  V30 6177 N 585.328 1.53329 -0.364422 0
M  V30 6178 C 586.576 2.00842 0.225189 0
M  V30 6179 C 586.897 1.25345 1.49378 0
M  V30 6180 O 586.167 0.366396 1.92443 0
M  V30 6181 H 584.747 0.742009 0.0862027 0
M  V30 6182 H 587.409 1.8863 -0.490389 0
M  V30 6183 H 586.505 3.08795 0.452987 0
M  V30 6184 N 586.806 0.0935595 1.57322 0
M  V30 6185 C 587.753 -0.865935 2.1394 0
M  V30 6186 C 588.723 -1.28083 1.05754 0
M  V30 6187 O 589.908 -1.36285 1.33533 0
M  V30 6188 C 587.048 -2.12023 2.72287 0
M  V30 6189 C 586.161 -1.756 3.94701 0
M  V30 6190 C 585.296 -2.95804 4.41218 0
M  V30 6191 C 584.335 -2.555 5.56225 0
M  V30 6192 N 583.472 -3.68534 5.97601 0
M  V30 6193 H 588.312 -0.376261 2.95615 0
M  V30 6194 H 585.849 -0.174052 1.46067 0
M  V30 6195 H 587.807 -2.85477 3.04235 0
M  V30 6196 H 586.437 -2.58492 1.93343 0
M  V30 6197 H 585.489 -0.921208 3.69077 0
M  V30 6198 H 586.801 -1.41964 4.78171 0
M  V30 6199 H 585.955 -3.77513 4.74941 0
M  V30 6200 H 584.694 -3.32649 3.56645 0
M  V30 6201 H 583.699 -1.72218 5.22131 0
M  V30 6202 H 584.924 -2.19801 6.42545 0
M  V30 6203 H 582.87 -4.051 5.15974 0
M  V30 6204 H 582.787 -3.38737 6.75865 0
M  V30 6205 H 584.055 -4.50757 6.35955 0
M  V30 6206 N 588.284 -1.56567 -0.180126 0
M  V30 6207 C 589.561 -1.7235 -0.924931 0
M  V30 6208 C 589.941 -0.652523 -2.00762 0
M  V30 6209 O 589.289 0.334115 -2.26044 0
M  V30 6210 C 589.499 -3.1523 -1.49771 0
M  V30 6211 C 590.847 -3.75921 -1.97405 0
M  V30 6212 O 591.871 -3.18452 -1.59583 0
M  V30 6213 O 590.73 -4.7681 -2.67048 0
M  V30 6214 H 587.824 -0.703502 -0.434758 0
M  V30 6215 H 590.37 -1.6886 -0.168647 0
M  V30 6216 H 589.142 -3.84656 -0.718027 0
M  V30 6217 H 588.765 -3.23009 -2.31842 0
M  V30 6218 N 589.762 0.448376 -1.51087 0
M  V30 6219 C 590.987 1.22605 -1.6728 0
M  V30 6220 C 591.412 1.84524 -0.365045 0
M  V30 6221 O 590.77 1.6832 0.673642 0
M  V30 6222 C 590.818 2.29393 -2.78229 0
M  V30 6223 O 589.922 3.34608 -2.41063 0
M  V30 6224 H 589.263 0.359705 -0.558129 0
M  V30 6225 H 591.793 0.530903 -1.97592 0
M  V30 6226 H 591.803 2.74352 -3.01986 0
M  V30 6227 H 590.478 1.83701 -3.73131 0
M  V30 6228 H 589.055 2.95202 -2.27838 0
M  V30 6229 N 591.24 1.41047 0.703093 0
M  V30 6230 C 592.188 1.42494 1.83843 0
M  V30 6231 C 593.182 0.303885 1.66652 0
M  V30 6232 O 594.388 0.475544 1.73605 0
M  V30 6233 H 590.763 0.445685 0.605697 0
M  V30 6234 H 592.734 2.38194 1.79739 0
M  V30 6235 C 591.483 1.31666 3.21807 0
M  V30 6236 H 590.806 2.17212 3.35647 0
M  V30 6237 H 592.246 1.36738 4.01346 0
M  V30 6238 C 590.705 0.0281828 3.36888 0
M  V30 6239 O 591.235 -0.929995 3.90786 0
M  V30 6240 N 589.441 -0.0454322 2.90564 0
M  V30 6241 H 588.988 0.735046 2.4689 0
M  V30 6242 H 588.946 -0.906968 3.01034 0
M  V30 6243 N 592.718 -0.936591 1.26751 0
M  V30 6244 C 593.948 -1.71509 1.15188 0
M  V30 6245 C 594.356 -1.86885 -0.295037 0
M  V30 6246 O 593.699 -1.37915 -1.21347 0
M  V30 6247 C 593.761 -3.13853 1.75318 0
M  V30 6248 C 593.425 -3.21845 3.24445 0
M  V30 6249 C 594.422 -3.04771 4.21201 0
M  V30 6250 C 592.107 -3.45088 3.64992 0
M  V30 6251 C 594.101 -3.10816 5.56482 0
M  V30 6252 C 591.788 -3.50767 5.00405 0
M  V30 6253 C 592.786 -3.33648 5.9596 0
M  V30 6254 O 592.474 -3.39045 7.28906 0
M  V30 6255 H 592.206 -0.543658 0.401761 0
M  V30 6256 H 594.76 -1.18234 1.67958 0
M  V30 6257 H 592.99 -3.6857 1.17016 0
M  V30 6258 H 594.679 -3.73634 1.58596 0
M  V30 6259 H 595.445 -2.86665 3.91214 0
M  V30 6260 H 591.324 -3.57467 2.91098 0
M  V30 6261 H 594.868 -2.97372 6.31043 0
M  V30 6262 H 590.765 -3.68396 5.30052 0
M  V30 6263 H 591.533 -3.55558 7.37238 0
M  V30 6264 N 594.196 -1.08629 -1.14182 0
M  V30 6265 C 595.106 -0.730126 -2.22949 0
M  V30 6266 C 596.122 0.26436 -1.7198 0
M  V30 6267 O 597.298 0.107742 -2.01112 0
M  V30 6268 C 594.363 -0.147227 -3.46387 0
M  V30 6269 C 593.424 -1.19662 -4.12286 0
M  V30 6270 C 592.657 -0.641437 -5.29831 0
M  V30 6271 O 592.88 0.538351 -5.67854 0
M  V30 6272 O 591.814 -1.39257 -5.85569 0
M  V30 6273 H 595.64 -1.63753 -2.55771 0
M  V30 6274 H 593.225 -0.860118 -1.22157 0
M  V30 6275 H 595.107 0.174923 -4.21037 0
M  V30 6276 H 593.782 0.733304 -3.15285 0
M  V30 6277 H 592.689 -1.57133 -3.395 0
M  V30 6278 H 594.022 -2.0495 -4.475 0
M  V30 6279 N 595.674 1.31259 -0.872281 0
M  V30 6280 C 596.606 2.27396 -0.28697 0
M  V30 6281 C 597.619 1.53181 0.551297 0
M  V30 6282 O 598.808 1.74561 0.372914 0
M  V30 6283 C 595.908 3.33335 0.611617 0
M  V30 6284 C 595.081 4.36966 -0.194729 0
M  V30 6285 C 594.14 5.22387 0.632358 0
M  V30 6286 O 593.166 5.69169 0.0595691 0
M  V30 6287 N 594.368 5.46985 1.94391 0
M  V30 6288 H 597.133 2.78261 -1.11314 0
M  V30 6289 H 594.694 1.44306 -0.733994 0
M  V30 6290 H 596.686 3.87398 1.17068 0
M  V30 6291 H 595.256 2.82496 1.33846 0
M  V30 6292 H 594.476 3.82945 -0.935241 0
M  V30 6293 H 595.764 5.03273 -0.747935 0
M  V30 6294 H 595.162 5.10737 2.43237 0
M  V30 6295 H 593.719 6.03973 2.45071 0
M  V30 6296 N 597.152 0.631951 1.44375 0
M  V30 6297 C 598.062 -0.073674 2.34484 0
M  V30 6298 C 599.078 -0.834825 1.52665 0
M  V30 6299 O 600.254 -0.786902 1.85391 0
M  V30 6300 C 597.319 -1.04247 3.30656 0
M  V30 6301 C 596.38 -0.280602 4.28382 0
M  V30 6302 C 595.613 -1.20325 5.19959 0
M  V30 6303 O 595.836 -2.44199 5.15484 0
M  V30 6304 O 594.77 -0.687128 5.97965 0
M  V30 6305 H 598.596 0.667477 2.96274 0
M  V30 6306 H 596.181 0.392144 1.44162 0
M  V30 6307 H 598.063 -1.59981 3.89851 0
M  V30 6308 H 596.738 -1.76422 2.71398 0
M  V30 6309 H 595.645 0.319804 3.72731 0
M  V30 6310 H 596.978 0.401144 4.90563 0
M  V30 6311 N 598.631 -1.53133 0.372548 0
M  V30 6312 C 599.879 -2.00958 -0.214534 0
M  V30 6313 C 600.2 -1.26135 -1.48711 0
M  V30 6314 O 599.47 -0.376597 -1.92246 0
M  V30 6315 H 598.05 -0.742456 -0.0822664 0
M  V30 6316 H 600.712 -1.88367 0.500385 0
M  V30 6317 H 599.808 -3.09031 -0.436605 0
M  V30 6318 N 600.109 -0.101901 -1.5727 0
M  V30 6319 C 601.056 0.854577 -2.14396 0
M  V30 6320 C 602.026 1.27521 -1.06432 0
M  V30 6321 O 603.211 1.35575 -1.34253 0
M  V30 6322 C 600.351 2.10576 -2.73408 0
M  V30 6323 C 599.464 1.73504 -3.95626 0
M  V30 6324 C 598.599 2.9346 -4.42781 0
M  V30 6325 C 597.638 2.52547 -5.57572 0
M  V30 6326 N 596.775 3.65359 -5.99547 0
M  V30 6327 H 601.615 0.360578 -2.9581 0
M  V30 6328 H 599.152 0.166303 -1.46157 0
M  V30 6329 H 601.11 2.83859 -3.05745 0
M  V30 6330 H 599.74 2.57463 -1.94711 0
M  V30 6331 H 598.792 0.901622 -3.6956 0
M  V30 6332 H 600.104 1.39426 -4.78917 0
M  V30 6333 H 599.258 3.74988 -4.76937 0
M  V30 6334 H 597.997 3.30753 -3.58404 0
M  V30 6335 H 597.002 1.69446 -5.23037 0
M  V30 6336 H 598.227 2.1639 -6.43702 0
M  V30 6337 H 596.173 4.02358 -5.18116 0
M  V30 6338 H 596.09 3.35148 -6.77652 0
M  V30 6339 H 597.358 4.47378 -6.38336 0
M  V30 6340 N 601.587 1.56661 0.17182 0
M  V30 6341 C 602.833 1.82235 0.889845 0
M  V30 6342 C 603.166 0.679673 1.81918 0
M  V30 6343 O 602.441 -0.318404 1.91876 0
M  V30 6344 C 602.724 3.18195 1.68595 0
M  V30 6345 C 602.577 4.42989 0.779773 0
M  V30 6346 C 603.896 3.5109 2.65375 0
M  V30 6347 H 601.015 0.66291 0.322056 0
M  V30 6348 H 603.657 1.89358 0.15608 0
M  V30 6349 H 601.807 3.12253 2.3115 0
M  V30 6350 H 603.479 4.60997 0.16714 0
M  V30 6351 H 601.722 4.33711 0.0877964 0
M  V30 6352 H 602.393 5.3467 1.3723 0
M  V30 6353 H 604.869 3.57482 2.12946 0
M  V30 6354 H 603.745 4.47298 3.18144 0
M  V30 6355 H 604.006 2.75768 3.45549 0
M  V30 6356 N 603.065 -0.440357 1.51323 0
M  V30 6357 C 603.997 -1.55254 1.68609 0
M  V30 6358 C 605.01 -1.52614 0.566812 0
M  V30 6359 O 606.199 -1.57445 0.841032 0
M  V30 6360 C 603.299 -2.94169 1.68279 0
M  V30 6361 C 602.472 -3.21346 2.96742 0
M  V30 6362 C 601.531 -4.3997 2.8864 0
M  V30 6363 O 600.557 -4.38771 3.62586 0
M  V30 6364 N 601.759 -5.43367 2.04285 0
M  V30 6365 H 604.524 -1.40831 2.6455 0
M  V30 6366 H 602.085 -0.629251 1.49171 0
M  V30 6367 H 604.077 -3.71543 1.60431 0
M  V30 6368 H 602.647 -3.02205 0.799441 0
M  V30 6369 H 601.867 -2.32299 3.18482 0
M  V30 6370 H 603.155 -3.3633 3.81785 0
M  V30 6371 H 602.553 -5.47176 1.43578 0
M  V30 6372 H 601.11 -6.19605 2.02318 0
M  V30 6373 N 604.543 -1.41418 -0.695603 0
M  V30 6374 C 605.79 -1.40774 -1.45564 0
M  V30 6375 C 606.118 -0.0168604 -1.94493 0
M  V30 6376 O 605.373 0.971259 -1.69897 0
M  V30 6377 C 605.672 -2.36112 -2.68302 0
M  V30 6378 C 605.338 -3.82952 -2.38031 0
M  V30 6379 C 604 -4.22954 -2.29486 0
M  V30 6380 C 606.352 -4.75662 -2.13061 0
M  V30 6381 C 603.68 -5.53674 -1.94067 0
M  V30 6382 C 606.032 -6.06702 -1.79151 0
M  V30 6383 C 604.696 -6.45725 -1.69102 0
M  V30 6384 H 603.966 -0.515128 -0.532658 0
M  V30 6385 H 606.613 -1.74216 -0.795047 0
M  V30 6386 H 604.918 -1.95924 -3.39295 0
M  V30 6387 H 606.615 -2.32887 -3.26442 0
M  V30 6388 H 603.205 -3.5127 -2.45576 0
M  V30 6389 H 607.389 -4.45561 -2.18608 0
M  V30 6390 H 602.645 -5.8279 -1.8484 0
M  V30 6391 H 606.819 -6.78041 -1.5885 0
M  V30 6392 H 604.446 -7.46929 -1.41426 0
M  V30 6393 N 606.021 0.929856 -1.27246 0
M  V30 6394 C 607.267 1.6798 -1.13625 0
M  V30 6395 C 607.6 1.91586 0.317589 0
M  V30 6396 O 606.875 1.50467 1.23247 0
M  V30 6397 C 607.158 3.04766 -1.91806 0
M  V30 6398 C 607.011 2.88415 -3.45162 0
M  V30 6399 C 608.33 4.05063 -1.72082 0
M  V30 6400 H 605.449 0.609632 -0.414147 0
M  V30 6401 H 608.091 1.0792 -1.56376 0
M  V30 6402 H 606.241 3.56034 -1.55474 0
M  V30 6403 H 607.913 2.44282 -3.91311 0
M  V30 6404 H 606.156 2.23802 -3.71611 0
M  V30 6405 H 606.827 3.85482 -3.95105 0
M  V30 6406 H 609.303 3.62798 -2.03757 0
M  V30 6407 H 608.179 4.98765 -2.29182 0
M  V30 6408 H 608.44 4.37021 -0.668206 0
M  V30 6409 N 607.499 1.09233 1.13605 0
M  V30 6410 C 608.748 0.82205 1.84188 0
M  V30 6411 C 609.061 -0.654548 1.84323 0
M  V30 6412 O 610.267 -1.04029 2.50779 0
M  V30 6413 C 608.723 1.42066 3.30674 0
M  V30 6414 C 608.331 2.92965 3.38933 0
M  V30 6415 C 610.075 1.22924 4.06313 0
M  V30 6416 C 607.982 3.45922 4.79679 0
M  V30 6417 H 606.912 0.303854 0.690064 0
M  V30 6418 H 609.563 1.31479 1.28006 0
M  V30 6419 H 607.945 0.855613 3.86646 0
M  V30 6420 H 609.119 3.55679 2.92966 0
M  V30 6421 H 607.434 3.11118 2.76757 0
M  V30 6422 H 610.031 1.59945 5.10217 0
M  V30 6423 H 610.374 0.169726 4.15954 0
M  V30 6424 H 610.907 1.76168 3.56665 0
M  V30 6425 H 607.646 4.51484 4.75229 0
M  V30 6426 H 607.166 2.87971 5.26149 0
M  V30 6427 H 608.845 3.43009 5.48592 0
M  V30 6428 N 608.977 -1.30795 0.87923 0
M  V30 6429 C 610.254 -1.91145 0.415086 0
M  V30 6430 C 610.634 -1.7995 -1.10368 0
M  V30 6431 O 609.982 -1.21305 -1.93642 0
M  V30 6432 C 610.192 -3.37014 0.906778 0
M  V30 6433 C 611.54 -4.14101 0.938358 0
M  V30 6434 O 612.564 -3.45834 0.853053 0
M  V30 6435 O 611.423 -5.36054 1.06342 0
M  V30 6436 H 608.517 -0.81736 0.125905 0
M  V30 6437 H 611.063 -1.39401 0.967753 0
M  V30 6438 H 609.835 -3.3922 1.95053 0
M  V30 6439 H 609.458 -3.96204 0.332948 0
M  V30 6440 N 610.455 -0.639598 -1.44038 0
M  V30 6441 C 611.418 0.0506628 -2.29144 0
M  V30 6442 C 612.418 0.764001 -1.41491 0
M  V30 6443 O 613.608 0.607309 -1.63271 0
M  V30 6444 C 610.74 1.0824 -3.2326 0
M  V30 6445 H 611.933 -0.697987 -2.91664 0
M  V30 6446 H 609.486 -0.400146 -1.51091 0
M  V30 6447 H 610.221 1.86075 -2.65606 0
M  V30 6448 H 610.006 0.574725 -3.87865 0
M  V30 6449 H 611.496 1.56487 -3.87171 0
M  V30 6450 N 611.933 1.52934 -0.380664 0
M  V30 6451 C 613.179 2.01765 0.20458 0
M  V30 6452 C 613.512 1.26696 1.47179 0
M  V30 6453 O 612.787 0.364936 1.91046 0
M  V30 6454 C 613.07 3.56869 0.481269 0
M  V30 6455 C 612.923 4.42617 -0.800629 0
M  V30 6456 C 614.242 4.2121 1.27554 0
M  V30 6457 H 611.361 0.733388 0.0728803 0
M  V30 6458 H 614.003 1.83068 -0.50853 0
M  V30 6459 H 612.153 3.72932 1.08875 0
M  V30 6460 H 613.825 4.38323 -1.43773 0
M  V30 6461 H 612.068 4.09977 -1.4178 0
M  V30 6462 H 612.739 5.49134 -0.561791 0
M  V30 6463 H 615.215 4.09072 0.761514 0
M  V30 6464 H 614.091 5.29732 1.43788 0
M  V30 6465 H 614.352 3.78269 2.28833 0
M  V30 6466 N 613.412 0.11024 1.57214 0
M  V30 6467 C 614.642 -0.557025 1.98949 0
M  V30 6468 C 615.05 -1.61317 0.988606 0
M  V30 6469 O 614.393 -1.83679 -0.0279159 0
M  V30 6470 C 614.455 -1.24956 3.37085 0
M  V30 6471 C 614.119 -0.342398 4.55716 0
M  V30 6472 C 615.116 0.415511 5.18237 0
M  V30 6473 C 612.801 -0.256029 5.01647 0
M  V30 6474 C 614.795 1.24761 6.25071 0
M  V30 6475 C 612.482 0.579713 6.08344 0
M  V30 6476 C 613.48 1.33017 6.69922 0
M  V30 6477 O 613.168 2.15205 7.74559 0
M  V30 6478 H 612.9 -0.152792 0.658506 0
M  V30 6479 H 615.454 0.19076 2.04512 0
M  V30 6480 H 613.684 -2.04424 3.2825 0
M  V30 6481 H 615.373 -1.81286 3.63167 0
M  V30 6482 H 616.139 0.358605 4.83672 0
M  V30 6483 H 612.018 -0.829831 4.5347 0
M  V30 6484 H 615.562 1.83386 6.73064 0
M  V30 6485 H 611.459 0.638044 6.42339 0
M  V30 6486 H 612.227 2.08052 7.91617 0
M  V30 6487 N 614.89 -1.56749 -0.16351 0
M  V30 6488 C 615.853 -1.96121 -1.18613 0
M  V30 6489 C 616.853 -0.845765 -1.36761 0
M  V30 6490 O 618.043 -1.11268 -1.34033 0
M  V30 6491 C 615.175 -2.26282 -2.54969 0
M  V30 6492 H 616.368 -2.87639 -0.848764 0
M  V30 6493 H 613.921 -1.50928 -0.406251 0
M  V30 6494 H 614.656 -1.37504 -2.93706 0
M  V30 6495 H 614.441 -3.07595 -2.43162 0
M  V30 6496 H 615.931 -2.57638 -3.28653 0
M  V30 6497 N 616.368 0.432326 -1.51554 0
M  V30 6498 C 617.301 1.54525 -1.6792 0
M  V30 6499 C 618.279 1.53831 -0.526764 0
M  V30 6500 O 619.463 1.72884 -0.751233 0
M  V30 6501 C 616.59 2.931 -1.69736 0
M  V30 6502 C 615.636 3.11799 -2.91005 0
M  V30 6503 S 616.469 2.87565 -4.51737 0
M  V30 6504 C 617.625 4.28412 -4.56305 0
M  V30 6505 H 617.858 1.4041 -2.62054 0
M  V30 6506 H 615.391 0.622357 -1.41301 0
M  V30 6507 H 617.349 3.72974 -1.71467 0
M  V30 6508 H 616.01 3.04574 -0.767705 0
M  V30 6509 H 615.203 4.13127 -2.8869 0
M  V30 6510 H 614.805 2.39757 -2.87041 0
M  V30 6511 H 617.097 5.21692 -4.32254 0
M  V30 6512 H 618.04 4.35758 -5.58141 0
M  V30 6513 H 618.448 4.12301 -3.85576 0
M  V30 6514 N 617.846 1.41785 0.688094 0
M  V30 6515 C 618.809 1.43936 1.78368 0
M  V30 6516 C 619.809 0.328866 1.57401 0
M  V30 6517 O 620.999 0.589093 1.63937 0
M  V30 6518 C 618.131 1.25804 3.16838 0
M  V30 6519 H 619.324 2.41472 1.77852 0
M  V30 6520 H 616.877 1.28037 0.896448 0
M  V30 6521 H 617.612 0.291386 3.22988 0
M  V30 6522 H 617.397 2.06272 3.33458 0
M  V30 6523 H 618.887 1.30162 3.96797 0
M  V30 6524 N 619.324 -0.923095 1.27737 0
M  V30 6525 C 620.274 -2.01061 1.0751 0
M  V30 6526 C 621.258 -1.609 0.00165451 0
M  V30 6527 O 622.45 -1.75618 0.220724 0
M  V30 6528 C 619.579 -3.35467 0.729162 0
M  V30 6529 C 618.665 -3.82059 1.84098 0
M  V30 6530 N 619.056 -4.01115 3.08124 0
M  V30 6531 C 617.354 -4.11135 1.7287 0
M  V30 6532 C 618.055 -4.39989 3.80506 0
M  V30 6533 N 617.031 -4.47721 3.08297 0
M  V30 6534 H 620.833 -2.13832 2.01626 0
M  V30 6535 H 618.347 -1.11027 1.18519 0
M  V30 6536 H 620.344 -4.13049 0.565355 0
M  V30 6537 H 619.004 -3.24056 -0.204334 0
M  V30 6538 H 620.015 -3.87294 3.43836 0
M  V30 6539 H 616.692 -4.08412 0.866352 0
M  V30 6540 H 618.082 -4.62773 4.87125 0
M  V30 6541 N 620.802 -1.09834 -1.13024 0
M  V30 6542 C 621.765 -0.745058 -2.16752 0
M  V30 6543 C 622.765 0.227435 -1.59183 0
M  V30 6544 O 623.955 0.0050786 -1.74199 0
M  V30 6545 C 621.087 -0.102543 -3.40746 0
M  V30 6546 H 622.28 -1.66375 -2.49518 0
M  V30 6547 H 619.833 -0.898061 -1.27924 0
M  V30 6548 H 620.568 0.827177 -3.13573 0
M  V30 6549 H 620.353 -0.80235 -3.83803 0
M  V30 6550 H 621.843 0.129082 -4.174 0
M  V30 6551 N 622.28 1.30327 -0.886154 0
M  V30 6552 C 623.21 2.30549 -0.370028 0
M  V30 6553 C 624.191 1.61039 0.547751 0
M  V30 6554 O 625.376 1.8864 0.461353 0
M  V30 6555 C 622.506 3.44808 0.415275 0
M  V30 6556 C 621.46 4.26024 -0.41085 0
M  V30 6557 C 620.786 5.32347 0.501128 0
M  V30 6558 C 622.086 4.95433 -1.65359 0
M  V30 6559 H 623.78 2.73969 -1.20754 0
M  V30 6560 H 621.326 1.3171 -0.582097 0
M  V30 6561 H 623.279 4.13986 0.78699 0
M  V30 6562 H 622.003 3.00197 1.28644 0
M  V30 6563 H 620.662 3.58535 -0.764719 0
M  V30 6564 H 620.31 4.83982 1.37004 0
M  V30 6565 H 620.01 5.87581 -0.0478356 0
M  V30 6566 H 621.534 6.0438 0.869333 0
M  V30 6567 H 622.948 5.5712 -1.35239 0
M  V30 6568 H 621.345 5.60537 -2.14284 0
M  V30 6569 H 622.415 4.21493 -2.39733 0
M  V30 6570 N 623.758 0.647228 1.43697 0
M  V30 6571 C 624.708 -0.0702191 2.27892 0
M  V30 6572 C 625.692 -0.800601 1.39568 0
M  V30 6573 O 626.884 -0.684055 1.63247 0
M  V30 6574 C 624.013 -1.04008 3.27165 0
M  V30 6575 C 623.099 -0.308484 4.22977 0
M  V30 6576 N 623.49 0.671721 5.0132 0
M  V30 6577 C 621.788 -0.550751 4.42586 0
M  V30 6578 C 622.489 1.10543 5.711 0
M  V30 6579 N 621.465 0.440903 5.41809 0
M  V30 6580 H 625.267 0.682031 2.85877 0
M  V30 6581 H 622.781 0.474022 1.55328 0
M  V30 6582 H 624.778 -1.56881 3.86256 0
M  V30 6583 H 623.438 -1.79246 2.70742 0
M  V30 6584 H 624.449 1.0502 5.0714 0
M  V30 6585 H 621.126 -1.28476 3.97241 0
M  V30 6586 H 622.516 1.91614 6.43998 0
M  V30 6587 N 625.236 -1.5273 0.388769 0
M  V30 6588 C 626.186 -2.23238 -0.463567 0
M  V30 6589 C 627.17 -1.23606 -1.03007 0
M  V30 6590 O 628.362 -1.48945 -0.956261 0
M  V30 6591 C 625.491 -3.04228 -1.5906 0
M  V30 6592 C 624.577 -4.11255 -1.03587 0
M  V30 6593 N 624.968 -5.0538 -0.206038 0
M  V30 6594 C 623.266 -4.26376 -1.30841 0
M  V30 6595 C 623.967 -5.81613 0.100359 0
M  V30 6596 N 622.943 -5.41264 -0.503447 0
M  V30 6597 H 626.745 -2.93367 0.176978 0
M  V30 6598 H 624.259 -1.61188 0.198046 0
M  V30 6599 H 626.256 -3.53277 -2.21362 0
M  V30 6600 H 624.916 -2.35634 -2.23398 0
M  V30 6601 H 625.927 -5.17663 0.156659 0
M  V30 6602 H 622.604 -3.69011 -1.95287 0
M  V30 6603 H 623.994 -6.67442 0.772676 0
M  V30 6604 N 626.714 -0.118576 -1.57153 0
M  V30 6605 C 627.647 0.869046 -2.11004 0
M  V30 6606 C 628.625 1.26115 -1.02634 0
M  V30 6607 O 629.809 1.36228 -1.30285 0
M  V30 6608 C 626.936 2.16297 -2.6064 0
M  V30 6609 C 625.982 1.91896 -3.80891 0
M  V30 6610 S 626.815 1.13562 -5.2332 0
M  V30 6611 C 627.971 2.44135 -5.76324 0
M  V30 6612 H 628.204 0.411005 -2.94445 0
M  V30 6613 H 625.737 0.0951891 -1.54106 0
M  V30 6614 H 627.695 2.90642 -2.89892 0
M  V30 6615 H 626.356 2.59219 -1.77382 0
M  V30 6616 H 625.549 2.8777 -4.13768 0
M  V30 6617 H 625.151 1.25672 -3.52253 0
M  V30 6618 H 627.443 3.39976 -5.86022 0
M  V30 6619 H 628.386 2.15803 -6.74414 0
M  V30 6620 H 628.794 2.53483 -5.04387 0
M  V30 6621 N 628.193 1.56834 0.155195 0
M  V30 6622 C 629.141 1.98584 1.21107 0
M  V30 6623 C 630.135 0.876987 1.44932 0
M  V30 6624 O 631.341 1.06215 1.45322 0
M  V30 6625 H 627.716 0.632039 0.407469 0
M  V30 6626 H 629.687 2.86561 0.832195 0
M  V30 6627 C 628.436 2.37555 2.53895 0
M  V30 6628 H 627.759 3.22428 2.3639 0
M  V30 6629 H 629.199 2.70598 3.26424 0
M  V30 6630 C 627.658 1.22507 3.13837 0
M  V30 6631 O 628.188 0.521388 3.98302 0
M  V30 6632 N 626.394 0.991444 2.73164 0
M  V30 6633 H 625.941 1.56544 2.04577 0
M  V30 6634 H 625.899 0.223546 3.13604 0
M  V30 6635 N 629.671 -0.424282 1.51781 0
M  V30 6636 C 630.618 -1.51591 1.74037 0
M  V30 6637 C 631.588 -1.55556 0.582358 0
M  V30 6638 O 632.773 -1.72364 0.818245 0
M  V30 6639 C 629.913 -2.89188 1.8832 0
M  V30 6640 C 629.026 -2.9465 3.1592 0
M  V30 6641 C 628.161 -4.23452 3.20721 0
M  V30 6642 C 627.2 -4.22831 4.42584 0
M  V30 6643 N 626.337 -5.43178 4.44862 0
M  V30 6644 H 631.177 -1.31917 2.67212 0
M  V30 6645 H 628.714 -0.640599 1.32419 0
M  V30 6646 H 630.672 -3.69044 1.94583 0
M  V30 6647 H 629.302 -3.07392 0.985402 0
M  V30 6648 H 628.354 -2.07378 3.18902 0
M  V30 6649 H 629.666 -2.90055 4.05795 0
M  V30 6650 H 628.82 -5.1169 3.25973 0
M  V30 6651 H 627.559 -4.30722 2.28757 0
M  V30 6652 H 626.564 -3.32984 4.37495 0
M  V30 6653 H 627.789 -4.17213 5.35826 0
M  V30 6654 H 625.735 -5.51145 3.55775 0
M  V30 6655 H 625.652 -5.40515 5.28563 0
M  V30 6656 H 626.92 -6.33412 4.54324 0
M  V30 6657 N 631.149 -1.42148 -0.680565 0
M  V30 6658 C 632.426 -1.32795 -1.43614 0
M  V30 6659 C 632.806 0.037415 -2.11067 0
M  V30 6660 O 632.154 1.05258 -2.02813 0
M  V30 6661 C 632.364 -2.49206 -2.44331 0
M  V30 6662 C 633.712 -2.91059 -3.09144 0
M  V30 6663 O 634.736 -2.49054 -2.54657 0
M  V30 6664 O 633.595 -3.63741 -4.07866 0
M  V30 6665 H 630.689 -0.523397 -0.640301 0
M  V30 6666 H 633.235 -1.54144 -0.709775 0
M  V30 6667 H 632.007 -3.40252 -1.93247 0
M  V30 6668 H 631.63 -2.29813 -3.24456 0
M  V30 6669 N 632.627 0.916307 -1.28225 0
M  V30 6670 C 633.557 2.0352 -1.14464 0
M  V30 6671 C 634.538 1.70045 -0.0430844 0
M  V30 6672 O 635.723 1.92954 -0.219619 0
M  V30 6673 C 632.853 3.37889 -0.803027 0
M  V30 6674 C 631.807 3.85516 -1.85908 0
M  V30 6675 C 631.133 5.1682 -1.37116 0
M  V30 6676 C 632.433 4.07655 -3.26519 0
M  V30 6677 H 634.127 2.1529 -2.08064 0
M  V30 6678 H 631.673 1.03446 -1.00174 0
M  V30 6679 H 633.626 4.15654 -0.693537 0
M  V30 6680 H 632.35 3.26164 0.168674 0
M  V30 6681 H 631.009 3.09953 -1.95767 0
M  V30 6682 H 630.657 5.01497 -0.38859 0
M  V30 6683 H 630.357 5.49657 -2.07728 0
M  V30 6684 H 631.881 5.97143 -1.27484 0
M  V30 6685 H 633.295 4.75953 -3.19596 0
M  V30 6686 H 631.692 4.51818 -3.94943 0
M  V30 6687 H 632.762 3.12553 -3.70727 0
M  V30 6688 N 634.105 1.10431 1.1244 0
M  V30 6689 C 635.345 0.856518 1.85589 0
M  V30 6690 C 635.709 -0.606905 1.82156 0
M  V30 6691 O 636.91 -0.97105 2.50647 0
M  V30 6692 C 635.181 1.38977 3.29272 0
M  V30 6693 S 636.74 1.27739 4.19795 0
M  V30 6694 H 633.558 0.309509 0.640098 0
M  V30 6695 H 636.16 1.40975 1.35449 0
M  V30 6696 H 634.864 2.44887 3.2933 0
M  V30 6697 H 634.395 0.833112 3.84477 0
M  V30 6698 H 636.41 0.235051 4.95643 0
M  V30 6699 N 635.583 -1.29855 0.893053 0
M  V30 6700 C 636.546 -2.26183 0.370687 0
M  V30 6701 C 637.546 -1.53108 -0.491385 0
M  V30 6702 O 638.736 -1.71643 -0.297386 0
M  V30 6703 C 635.868 -3.37633 -0.470827 0
M  V30 6704 H 637.061 -2.73903 1.22135 0
M  V30 6705 H 634.614 -1.41183 0.67061 0
M  V30 6706 H 635.349 -2.95241 -1.34175 0
M  V30 6707 H 635.134 -3.91825 0.146784 0
M  V30 6708 H 636.624 -4.09313 -0.827825 0
M  V30 6709 N 637.061 -0.65484 -1.43351 0
M  V30 6710 C 638.338 -0.0987371 -1.95351 0
M  V30 6711 C 638.718 1.38161 -1.59608 0
M  V30 6712 O 638.066 2.10791 -0.882021 0
M  V30 6713 C 638.276 -0.346684 -3.47274 0
M  V30 6714 C 639.624 -0.25249 -4.23849 0
M  V30 6715 O 640.648 -0.279332 -3.55103 0
M  V30 6716 O 639.507 -0.177584 -5.46211 0
M  V30 6717 H 636.601 0.0086829 -0.826954 0
M  V30 6718 H 639.147 -0.728189 -1.53282 0
M  V30 6719 H 637.919 -1.37296 -3.66423 0
M  V30 6720 H 637.542 0.315757 -3.96344 0
M  V30 6721 N 638.539 1.52521 -0.396863 0
M  V30 6722 C 639.769 2.05792 0.182485 0
M  V30 6723 C 640.177 1.26784 1.40436 0
M  V30 6724 O 639.52 0.309617 1.81072 0
M  V30 6725 C 639.582 3.54291 0.609781 0
M  V30 6726 C 639.246 4.5426 -0.499674 0
M  V30 6727 C 640.243 5.01812 -1.35944 0
M  V30 6728 C 637.928 4.97827 -0.668864 0
M  V30 6729 C 639.922 5.91562 -2.37346 0
M  V30 6730 C 637.609 5.87376 -1.68621 0
M  V30 6731 C 638.607 6.34137 -2.53692 0
M  V30 6732 O 638.295 7.21915 -3.53686 0
M  V30 6733 H 638.027 0.675362 0.0293583 0
M  V30 6734 H 640.581 1.97539 -0.56281 0
M  V30 6735 H 638.811 3.60188 1.40717 0
M  V30 6736 H 640.5 3.90267 1.11565 0
M  V30 6737 H 641.266 4.68879 -1.24008 0
M  V30 6738 H 637.145 4.60997 -0.0163971 0
M  V30 6739 H 640.689 6.27983 -3.03782 0
M  V30 6740 H 636.586 6.19723 -1.80593 0
M  V30 6741 H 637.354 7.39996 -3.49784 0
M  V30 6742 N 640.017 0.126909 1.57088 0
M  V30 6743 C 641.433 -0.229641 1.57939 0
M  V30 6744 C 641.633 -1.66145 1.1401 0
M  V30 6745 O 640.689 -2.3843 0.831119 0
M  V30 6746 C 642.002 0.0108648 3.00698 0
M  V30 6747 C 643.55 -0.054418 3.12953 0
M  V30 6748 C 644.025 0.158497 4.57726 0
M  V30 6749 N 645.516 0.104735 4.63082 0
M  V30 6750 C 646.251 0.24427 5.72879 0
M  V30 6751 N 645.747 0.440415 6.91399 0
M  V30 6752 N 647.54 0.183286 5.61801 0
M  V30 6753 H 639.691 1.06203 1.83942 0
M  V30 6754 H 641.954 0.418834 0.85046 0
M  V30 6755 H 641.66 1.00102 3.37154 0
M  V30 6756 H 641.534 -0.717512 3.70313 0
M  V30 6757 H 643.921 -1.0351 2.7635 0
M  V30 6758 H 644.002 0.705967 2.45865 0
M  V30 6759 H 643.646 1.13619 4.95028 0
M  V30 6760 H 643.576 -0.62197 5.22914 0
M  V30 6761 H 646.067 -0.0430298 3.77876 0
M  V30 6762 H 646.38 0.537536 7.70928 0
M  V30 6763 H 644.725 0.476488 6.93365 0
M  V30 6764 H 647.916 0.0309561 4.6809 0
M  V30 6765 H 648.089 0.295471 6.47326 0
M  V30 6766 N 641.495 -1.56914 -0.146875 0
M  V30 6767 C 642.743 -1.82994 -0.85777 0
M  V30 6768 C 643.064 -0.707814 -1.817 0
M  V30 6769 O 642.334 0.270521 -1.94023 0
M  V30 6770 H 640.914 -0.675106 -0.319751 0
M  V30 6771 H 643.576 -1.9439 -0.140849 0
M  V30 6772 H 642.672 -2.77928 -1.41994 0
M  V30 6773 N 642.974 0.416227 -1.52004 0
M  V30 6774 C 644.22 1.16555 -1.6596 0
M  V30 6775 C 644.553 1.90347 -0.384906 0
M  V30 6776 O 643.828 1.84474 0.616405 0
M  V30 6777 C 644.111 2.1657 -2.87696 0
M  V30 6778 C 643.964 1.46722 -4.25197 0
M  V30 6779 C 645.283 3.17321 -3.04951 0
M  V30 6780 H 642.402 0.422369 -0.603965 0
M  V30 6781 H 645.044 0.452141 -1.84542 0
M  V30 6782 H 643.194 2.77411 -2.71985 0
M  V30 6783 H 644.866 0.89056 -4.52622 0
M  V30 6784 H 643.109 0.769263 -4.26925 0
M  V30 6785 H 643.78 2.19665 -5.0641 0
M  V30 6786 H 646.256 2.66552 -3.19514 0
M  V30 6787 H 645.132 3.84573 -3.91656 0
M  V30 6788 H 645.393 3.84643 -2.17951 0
M  V30 6789 N 644.452 1.42507 0.673017 0
M  V30 6790 C 645.692 1.44559 1.44507 0
M  V30 6791 C 646.056 0.0606206 1.91904 0
M  V30 6792 O 647.257 -0.044139 2.68764 0
M  V30 6793 C 645.528 2.44291 2.60877 0
M  V30 6794 S 647.087 2.65059 3.49699 0
M  V30 6795 H 643.905 0.51181 0.49353 0
M  V30 6796 H 646.507 1.79124 0.783256 0
M  V30 6797 H 645.211 3.43685 2.24297 0
M  V30 6798 H 644.742 2.11157 3.31928 0
M  V30 6799 H 646.757 1.93494 4.56919 0
M  V30 6800 N 645.93 -0.909495 1.28709 0
M  V30 6801 C 647.341 -1.47419 1.14563 0
M  V30 6802 C 647.692 -1.94432 -0.262832 0
M  V30 6803 O 646.817 -1.82842 -1.15748 0
M  V30 6804 C 647.412 -2.67933 2.07358 0
M  V30 6805 C 645.971 -3.20568 1.97264 0
M  V30 6806 C 645.118 -1.93269 1.98852 0
M  V30 6807 H 648.069 -0.721787 1.41336 0
M  V30 6808 H 648.09 -3.43339 1.64007 0
M  V30 6809 H 647.602 -2.33685 3.09859 0
M  V30 6810 H 645.703 -3.59531 0.978157 0
M  V30 6811 H 645.816 -3.85529 2.84436 0
M  V30 6812 H 644.18 -2.10553 1.43317 0
M  V30 6813 H 644.963 -1.61312 3.0304 0
M  V30 6814 N 647.408 -1.11026 -1.11852 0
M  V30 6815 C 648.318 -0.777252 -2.2135 0
M  V30 6816 C 649.334 0.227821 -1.72502 0
M  V30 6817 O 650.51 0.0650587 -2.01295 0
M  V30 6818 C 647.575 -0.220668 -3.45997 0
M  V30 6819 C 646.636 -1.2838 -4.09655 0
M  V30 6820 C 645.869 -0.753678 -5.28352 0
M  V30 6821 O 646.092 0.417779 -5.68868 0
M  V30 6822 O 645.026 -1.51647 -5.82483 0
M  V30 6823 H 648.852 -1.69141 -2.5224 0
M  V30 6824 H 646.437 -0.885836 -1.20305 0
M  V30 6825 H 648.319 0.0855756 -4.21313 0
M  V30 6826 H 646.994 0.666262 -3.16769 0
M  V30 6827 H 645.901 -1.64299 -3.3609 0
M  V30 6828 H 647.234 -2.14396 -4.43052 0
M  V30 6829 N 648.886 1.2938 -0.899927 0
M  V30 6830 C 649.819 2.25911 -0.322386 0
M  V30 6831 C 650.797 1.52447 0.565567 0
M  V30 6832 O 651.981 1.81404 0.512324 0
M  V30 6833 C 649.108 3.3436 0.540455 0
M  V30 6834 C 648.154 4.25579 -0.280211 0
M  V30 6835 S 648.987 5.08526 -1.67814 0
M  V30 6836 C 650.143 6.20476 -0.822224 0
M  V30 6837 H 650.376 2.7455 -1.1406 0
M  V30 6838 H 647.909 1.37606 -0.700285 0
M  V30 6839 H 649.867 3.97303 1.0325 0
M  V30 6840 H 648.528 2.84416 1.33291 0
M  V30 6841 H 647.721 5.02574 0.378915 0
M  V30 6842 H 647.323 3.67287 -0.705405 0
M  V30 6843 H 649.615 6.77485 -0.0457138 0
M  V30 6844 H 650.558 6.90606 -1.56426 0
M  V30 6845 H 650.966 5.63243 -0.37651 0
M  V30 6846 N 650.364 0.662433 1.43002 0
M  V30 6847 C 651.274 -0.0239199 2.34588 0
M  V30 6848 C 652.29 -0.802255 1.54402 0
M  V30 6849 O 653.466 -0.747401 1.87018 0
M  V30 6850 C 650.531 -0.972098 3.32793 0
M  V30 6851 C 649.592 -0.189673 4.28881 0
M  V30 6852 C 648.825 -1.09269 5.22395 0
M  V30 6853 O 649.048 -2.33209 5.20547 0
M  V30 6854 O 647.982 -0.560136 5.99288 0
M  V30 6855 H 651.808 0.730171 2.94792 0
M  V30 6856 H 649.393 0.422635 1.43297 0
M  V30 6857 H 651.275 -1.51676 3.93157 0
M  V30 6858 H 649.95 -1.70626 2.75079 0
M  V30 6859 H 648.857 0.398794 3.71968 0
M  V30 6860 H 650.19 0.50511 4.89601 0
M  V30 6861 N 651.842 -1.52309 0.404946 0
M  V30 6862 C 652.774 -2.24579 -0.45791 0
M  V30 6863 C 653.787 -1.2739 -1.01369 0
M  V30 6864 O 654.976 -1.53363 -0.91335 0
M  V30 6865 C 652.076 -2.9608 -1.64893 0
M  V30 6866 C 651.249 -4.20106 -1.21777 0
M  V30 6867 C 650.308 -4.74468 -2.27523 0
M  V30 6868 O 649.334 -5.37157 -1.88285 0
M  V30 6869 N 650.536 -4.55678 -3.59635 0
M  V30 6870 H 653.301 -2.99265 0.161341 0
M  V30 6871 H 650.862 -1.60228 0.232107 0
M  V30 6872 H 652.854 -3.29344 -2.35191 0
M  V30 6873 H 651.424 -2.24606 -2.17419 0
M  V30 6874 H 650.644 -3.92704 -0.343071 0
M  V30 6875 H 651.932 -5.00658 -0.906596 0
M  V30 6876 H 651.33 -4.05673 -3.94266 0
M  V30 6877 H 649.887 -4.9339 -4.25922 0
M  V30 6878 N 653.32 -0.135238 -1.57019 0
M  V30 6879 C 654.283 0.794707 -2.14981 0
M  V30 6880 C 655.283 1.18342 -1.08866 0
M  V30 6881 O 656.473 1.10627 -1.34563 0
M  V30 6882 C 653.605 2.07685 -2.70333 0
M  V30 6883 H 654.798 0.290696 -2.98488 0
M  V30 6884 H 652.351 0.114128 -1.55883 0
M  V30 6885 H 653.086 2.6248 -1.9046 0
M  V30 6886 H 652.871 1.80745 -3.47957 0
M  V30 6887 H 654.361 2.74127 -3.1503 0
M  V30 6888 N 654.798 1.5699 0.138552 0
M  V30 6889 C 656.046 1.83446 0.848053 0
M  V30 6890 C 656.367 0.71744 1.81322 0
M  V30 6891 O 655.637 -0.260228 1.94164 0
M  V30 6892 H 654.217 0.676792 0.316166 0
M  V30 6893 H 656.879 1.94462 0.130538 0
M  V30 6894 H 655.975 2.78677 1.40518 0
M  V30 6895 N 656.276 -0.40816 1.52223 0
M  V30 6896 C 657.524 -1.15274 1.66001 0
M  V30 6897 C 657.845 -1.91003 0.392803 0
M  V30 6898 O 657.115 -1.8673 -0.592336 0
M  V30 6899 H 655.695 -0.428526 0.611861 0
M  V30 6900 H 658.357 -0.46512 1.89269 0
M  V30 6901 H 657.453 -1.86628 2.50153 0
M  V30 6902 N 657.755 -1.42862 -0.66545 0
M  V30 6903 C 658.702 -1.4707 -1.77874 0
M  V30 6904 C 659.672 -0.321654 -1.62956 0
M  V30 6905 O 660.857 -0.52707 -1.83376 0
M  V30 6906 C 657.997 -1.38788 -3.15962 0
M  V30 6907 C 657.11 -2.63801 -3.42101 0
M  V30 6908 C 656.245 -2.47594 -4.69969 0
M  V30 6909 C 655.284 -3.67936 -4.89172 0
M  V30 6910 N 654.421 -3.50614 -6.08288 0
M  V30 6911 H 659.261 -2.42204 -1.73613 0
M  V30 6912 H 656.798 -1.20239 -0.847401 0
M  V30 6913 H 658.756 -1.31982 -3.95773 0
M  V30 6914 H 657.386 -0.472431 -3.19324 0
M  V30 6915 H 656.438 -2.80935 -2.56475 0
M  V30 6916 H 657.75 -3.53228 -3.52181 0
M  V30 6917 H 656.904 -2.38427 -5.57886 0
M  V30 6918 H 655.643 -1.55672 -4.62188 0
M  V30 6919 H 654.648 -3.77525 -3.99694 0
M  V30 6920 H 655.873 -4.60851 -4.98792 0
M  V30 6921 H 653.819 -2.61417 -6.01662 0
M  V30 6922 H 653.736 -4.33634 -6.19272 0
M  V30 6923 H 655.004 -3.45276 -6.98859 0
M  V30 6924 N 659.233 0.902656 -1.29189 0
M  V30 6925 C 660.18 2.00643 -1.14066 0
M  V30 6926 C 661.15 1.66064 -0.0347756 0
M  V30 6927 O 662.335 1.8973 -0.201752 0
M  V30 6928 C 659.475 3.35214 -0.820104 0
M  V30 6929 C 658.588 3.82594 -2.00614 0
M  V30 6930 C 657.723 5.05727 -1.62522 0
M  V30 6931 C 656.762 5.45469 -2.77724 0
M  V30 6932 N 655.899 6.59789 -2.40048 0
M  V30 6933 H 660.739 2.1291 -2.08502 0
M  V30 6934 H 658.276 1.04271 -1.03759 0
M  V30 6935 H 660.234 4.12643 -0.614949 0
M  V30 6936 H 658.864 3.22682 0.0873452 0
M  V30 6937 H 657.916 3.01226 -2.32308 0
M  V30 6938 H 659.228 4.07999 -2.86946 0
M  V30 6939 H 658.382 5.90732 -1.38277 0
M  V30 6940 H 657.121 4.82155 -0.733333 0
M  V30 6941 H 656.126 4.59 -3.02653 0
M  V30 6942 H 657.351 5.71024 -3.67572 0
M  V30 6943 H 655.297 6.37826 -1.53343 0
M  V30 6944 H 655.214 6.84975 -3.19914 0
M  V30 6945 H 656.482 7.4807 -2.19116 0
M  V30 6946 N 660.711 1.11618 1.11262 0
M  V30 6947 C 661.641 0.79846 2.19424 0
M  V30 6948 C 662.622 -0.234003 1.68483 0
M  V30 6949 O 663.807 -0.0970704 1.93957 0
M  V30 6950 C 660.937 0.242892 3.4645 0
M  V30 6951 C 659.891 1.20744 4.10615 0
M  V30 6952 C 659.217 0.512494 5.32238 0
M  V30 6953 C 660.517 2.55884 4.55325 0
M  V30 6954 H 662.211 1.70286 2.46258 0
M  V30 6955 H 659.757 0.820195 1.18359 0
M  V30 6956 H 661.71 0.00840447 4.21399 0
M  V30 6957 H 660.434 -0.696811 3.1908 0
M  V30 6958 H 659.093 1.42759 3.37662 0
M  V30 6959 H 658.741 -0.432075 5.01141 0
M  V30 6960 H 658.441 1.15583 5.7612 0
M  V30 6961 H 659.965 0.286842 6.09926 0
M  V30 6962 H 661.379 2.37946 5.21588 0
M  V30 6963 H 659.776 3.16216 5.10027 0
M  V30 6964 H 660.846 3.14968 3.68678 0
M  V30 6965 N 662.189 -1.289 0.906776 0
M  V30 6966 C 663.119 -2.29932 0.406659 0
M  V30 6967 C 664.1 -1.6189 -0.522061 0
M  V30 6968 O 665.285 -1.8935 -0.431283 0
M  V30 6969 C 662.415 -3.45425 -0.360366 0
M  V30 6970 C 661.369 -4.25316 0.478574 0
M  V30 6971 C 660.695 -5.33076 -0.416373 0
M  V30 6972 C 661.995 -4.92739 1.7322 0
M  V30 6973 H 663.689 -2.72013 1.25097 0
M  V30 6974 H 661.235 -1.30768 0.602977 0
M  V30 6975 H 663.188 -4.15186 -0.721029 0
M  V30 6976 H 661.912 -3.02206 -1.23852 0
M  V30 6977 H 660.571 -3.57273 0.821662 0
M  V30 6978 H 660.219 -4.86101 -1.29287 0
M  V30 6979 H 659.919 -5.8743 0.141309 0
M  V30 6980 H 661.443 -6.05686 -0.773072 0
M  V30 6981 H 662.857 -5.54898 1.44086 0
M  V30 6982 H 661.254 -5.57057 2.23175 0
M  V30 6983 H 662.324 -4.17625 2.46408 0
M  V30 6984 N 663.667 -0.670007 -1.42649 0
M  V30 6985 C 664.614 0.0112928 -2.30797 0
M  V30 6986 C 665.584 0.797627 -1.45695 0
M  V30 6987 O 666.769 0.770845 -1.74535 0
M  V30 6988 C 663.909 0.95998 -3.31479 0
M  V30 6989 C 663.022 0.167975 -4.31673 0
M  V30 6990 C 662.157 1.11198 -5.19431 0
M  V30 6991 C 661.196 0.311381 -6.11307 0
M  V30 6992 N 660.333 1.20784 -6.91633 0
M  V30 6993 H 665.173 -0.746231 -2.88505 0
M  V30 6994 H 662.71 -0.379739 -1.42114 0
M  V30 6995 H 664.668 1.52379 -3.88377 0
M  V30 6996 H 663.298 1.68419 -2.75382 0
M  V30 6997 H 662.35 -0.512385 -3.76933 0
M  V30 6998 H 663.662 -0.453814 -4.96731 0
M  V30 6999 H 662.816 1.74587 -5.81037 0
M  V30 7000 H 661.555 1.76766 -4.54538 0
M  V30 7001 H 660.56 -0.335758 -5.48774 0
M  V30 7002 H 661.785 -0.340135 -6.78248 0
M  V30 7003 H 659.731 1.85001 -6.29373 0
M  V30 7004 H 659.648 0.64102 -7.53277 0
M  V30 7005 H 660.916 1.82936 -7.5773 0
M  V30 7006 N 665.145 1.52092 -0.413018 0
M  V30 7007 C 666.375 2.05974 0.160648 0
M  V30 7008 C 666.783 1.28267 1.39084 0
M  V30 7009 O 666.126 0.328805 1.80733 0
M  V30 7010 C 666.188 3.54918 0.572169 0
M  V30 7011 C 665.852 4.53705 -0.547826 0
M  V30 7012 C 666.849 5.00342 -1.41259 0
M  V30 7013 C 664.534 4.97089 -0.721627 0
M  V30 7014 C 666.528 5.89011 -2.43607 0
M  V30 7015 C 664.215 5.85554 -1.74841 0
M  V30 7016 C 665.213 6.3141 -2.60403 0
M  V30 7017 O 664.901 7.18123 -3.61323 0
M  V30 7018 H 664.633 0.675636 0.0221936 0
M  V30 7019 H 667.187 1.96931 -0.58373 0
M  V30 7020 H 665.417 3.61661 1.36889 0
M  V30 7021 H 667.106 3.91428 1.0742 0
M  V30 7022 H 667.872 4.67537 -1.28974 0
M  V30 7023 H 663.751 4.60954 -0.0652911 0
M  V30 7024 H 667.295 6.24725 -3.10425 0
M  V30 7025 H 663.192 6.17773 -1.87156 0
M  V30 7026 H 663.96 7.36244 -3.57613 0
M  V30 7027 N 666.623 0.143563 1.56945 0
M  V30 7028 C 667.872 -0.50835 1.95189 0
M  V30 7029 C 668.185 -1.66239 1.03073 0
M  V30 7030 O 669.391 -2.3787 1.30882 0
M  V30 7031 C 667.847 -0.955735 3.46978 0
M  V30 7032 C 667.455 0.171183 4.47673 0
M  V30 7033 C 669.199 -1.57763 3.94095 0
M  V30 7034 C 667.106 -0.294279 5.90667 0
M  V30 7035 H 666.036 -0.193679 0.728701 0
M  V30 7036 H 668.687 0.227357 1.82086 0
M  V30 7037 H 667.069 -1.7466 3.55401 0
M  V30 7038 H 668.243 0.948049 4.50942 0
M  V30 7039 H 666.558 0.701273 4.10452 0
M  V30 7040 H 669.155 -1.93745 4.98364 0
M  V30 7041 H 669.498 -2.46531 3.35452 0
M  V30 7042 H 670.031 -0.851728 3.88575 0
M  V30 7043 H 666.77 0.557939 6.53121 0
M  V30 7044 H 666.29 -1.0371 5.90766 0
M  V30 7045 H 667.969 -0.747426 6.42668 0
M  V30 7046 N 668.101 -1.57061 -0.130224 0
M  V30 7047 C 669.517 -1.52103 -0.483413 0
M  V30 7048 C 669.717 -0.854752 -1.82473 0
M  V30 7049 O 668.773 -0.432342 -2.48771 0
M  V30 7050 C 670.086 -2.96872 -0.47825 0
M  V30 7051 C 671.634 -3.07902 -0.562592 0
M  V30 7052 C 672.109 -4.54211 -0.587929 0
M  V30 7053 N 673.6 -4.58621 -0.649684 0
M  V30 7054 C 674.335 -5.69227 -0.690551 0
M  V30 7055 N 673.831 -6.89358 -0.689743 0
M  V30 7056 N 675.624 -5.57304 -0.732708 0
M  V30 7057 H 667.775 -1.98764 0.748779 0
M  V30 7058 H 670.038 -0.907248 0.274965 0
M  V30 7059 H 669.744 -3.48944 0.439444 0
M  V30 7060 H 669.618 -3.53716 -1.31013 0
M  V30 7061 H 672.005 -2.5584 -1.47071 0
M  V30 7062 H 672.086 -2.54073 0.296764 0
M  V30 7063 H 671.73 -5.06915 0.316096 0
M  V30 7064 H 671.66 -5.0584 -1.46401 0
M  V30 7065 H 674.151 -3.72146 -0.656927 0
M  V30 7066 H 674.464 -7.69408 -0.723239 0
M  V30 7067 H 672.809 -6.91884 -0.657347 0
M  V30 7068 H 676 -4.62363 -0.730625 0
M  V30 7069 H 676.173 -6.43515 -0.76109 0
M  V30 7070 N 669.579 0.400081 -1.52437 0
M  V30 7071 C 670.527 1.50851 -1.7705 0
M  V30 7072 C 671.521 1.56928 -0.637969 0
M  V30 7073 O 672.727 1.60226 -0.820212 0
M  V30 7074 H 669.102 0.50186 -0.560036 0
M  V30 7075 H 671.073 1.27281 -2.69893 0
M  V30 7076 C 669.822 2.88117 -1.94638 0
M  V30 7077 H 669.145 2.84187 -2.81208 0
M  V30 7078 H 670.585 3.64942 -2.15855 0
M  V30 7079 C 669.044 3.29206 -0.715899 0
M  V30 7080 O 669.574 4.01544 0.111944 0
M  V30 7081 N 667.78 2.85363 -0.549191 0
M  V30 7082 H 667.327 2.26664 -1.22397 0
M  V30 7083 H 667.285 3.13214 0.27278 0
M  V30 7084 N 671.057 1.43213 0.657864 0
M  V30 7085 C 672.303 1.44798 1.41991 0
M  V30 7086 C 672.636 0.070256 1.94073 0
M  V30 7087 O 671.911 -0.908177 1.71995 0
M  V30 7088 C 672.194 2.4865 2.60471 0
M  V30 7089 C 672.047 3.95679 2.13911 0
M  V30 7090 C 673.366 2.49292 3.62686 0
M  V30 7091 H 670.485 0.527244 0.514959 0
M  V30 7092 H 673.127 1.74733 0.74621 0
M  V30 7093 H 671.277 2.23254 3.17946 0
M  V30 7094 H 672.949 4.32116 1.61472 0
M  V30 7095 H 671.192 4.08733 1.45325 0
M  V30 7096 H 671.863 4.6395 2.99089 0
M  V30 7097 H 674.339 2.71917 3.14961 0
M  V30 7098 H 673.215 3.23907 4.43143 0
M  V30 7099 H 673.476 1.52502 4.14964 0
M  V30 7100 N 672.536 -0.895792 1.29666 0
M  V30 7101 C 673.484 -2.02173 1.15017 0
M  V30 7102 C 674.478 -1.69276 0.0647651 0
M  V30 7103 O 675.684 -1.7859 0.224846 0
M  V30 7104 H 672.059 -0.662719 0.355397 0
M  V30 7105 H 674.03 -2.11666 2.10334 0
M  V30 7106 C 672.779 -3.37212 0.847555 0
M  V30 7107 H 672.102 -3.6303 1.67479 0
M  V30 7108 H 673.542 -4.16668 0.785106 0
M  V30 7109 C 672.001 -3.33891 -0.44929 0
M  V30 7110 O 672.531 -3.73673 -1.47415 0
M  V30 7111 N 670.737 -2.86991 -0.456547 0
M  V30 7112 H 670.284 -2.54813 0.377925 0
M  V30 7113 H 670.242 -2.85152 -1.32423 0
M  V30 7114 N 674.014 -1.12206 -1.10668 0
M  V30 7115 C 675.261 -0.875875 -1.82578 0
M  V30 7116 C 675.589 0.598342 -1.85068 0
M  V30 7117 O 674.844 1.45818 -1.3052 0
M  V30 7118 C 675.143 -1.39276 -3.29146 0
M  V30 7119 C 674.809 -2.8816 -3.46806 0
M  V30 7120 C 673.471 -3.28813 -3.51334 0
M  V30 7121 C 675.823 -3.8401 -3.52399 0
M  V30 7122 C 673.151 -4.64028 -3.59019 0
M  V30 7123 C 675.503 -5.19053 -3.61617 0
M  V30 7124 C 674.167 -5.59252 -3.64408 0
M  V30 7125 H 673.437 -0.320505 -0.6681 0
M  V30 7126 H 676.084 -1.40184 -1.30464 0
M  V30 7127 H 674.389 -0.787207 -3.8381 0
M  V30 7128 H 676.086 -1.17851 -3.83291 0
M  V30 7129 H 672.676 -2.55716 -3.43958 0
M  V30 7130 H 676.86 -3.53698 -3.48154 0
M  V30 7131 H 672.116 -4.94568 -3.59461 0
M  V30 7132 H 676.29 -5.93152 -3.64889 0
M  V30 7133 H 673.917 -6.64017 -3.70116 0
M  V30 7134 N 675.492 1.28418 -0.913599 0
M  V30 7135 C 676.44 2.29272 -0.392037 0
M  V30 7136 C 677.434 1.61344 0.516198 0
M  V30 7137 O 678.64 1.75557 0.39746 0
M  V30 7138 H 675.015 0.744178 -0.108178 0
M  V30 7139 H 676.986 2.70691 -1.25574 0
M  V30 7140 C 675.735 3.45905 0.352815 0
M  V30 7141 H 675.058 3.98378 -0.336848 0
M  V30 7142 H 676.498 4.18473 0.682398 0
M  V30 7143 C 674.957 2.98572 1.56065 0
M  V30 7144 O 675.487 3.01033 2.65974 0
M  V30 7145 N 673.693 2.54235 1.40759 0
M  V30 7146 H 673.24 2.52432 0.513403 0
M  V30 7147 H 673.198 2.22925 2.21702 0
M  V30 7148 N 676.97 0.677563 1.42291 0
M  V30 7149 C 678.218 0.200578 2.01102 0
M  V30 7150 C 678.539 -1.19803 1.53858 0
M  V30 7151 O 677.809 -1.80496 0.761439 0
M  V30 7152 H 676.389 0.0711634 0.743603 0
M  V30 7153 H 679.051 0.874691 1.7417 0
M  V30 7154 H 678.147 0.204 3.11433 0
M  V30 7155 N 678.448 -1.51871 0.421078 0
M  V30 7156 C 679.673 -2.0684 -0.152371 0
M  V30 7157 C 680.098 -1.28802 -1.37083 0
M  V30 7158 O 679.456 -0.321482 -1.78427 0
M  V30 7159 C 679.504 -3.57532 -0.469368 0
M  V30 7160 O 678.608 -3.81818 -1.55848 0
M  V30 7161 H 677.949 -0.663939 -0.00898586 0
M  V30 7162 H 680.479 -1.95674 0.597724 0
M  V30 7163 H 680.489 -4.01515 -0.724553 0
M  V30 7164 H 679.164 -4.13761 0.421276 0
M  V30 7165 H 677.741 -3.49709 -1.29453 0
M  V30 7166 N 679.926 -0.151884 -1.56866 0
M  V30 7167 C 680.889 0.771861 -2.15812 0
M  V30 7168 C 681.889 1.17181 -1.10115 0
M  V30 7169 O 683.079 1.09194 -1.35729 0
M  V30 7170 C 680.211 2.04806 -2.7252 0
M  V30 7171 H 681.404 0.259021 -2.98779 0
M  V30 7172 H 678.957 0.097588 -1.55995 0
M  V30 7173 H 679.692 2.60445 -1.93233 0
M  V30 7174 H 679.477 1.77044 -3.49854 0
M  V30 7175 H 680.967 2.70771 -3.1792 0
M  V30 7176 N 681.404 1.57128 0.121893 0
M  V30 7177 C 682.652 1.84335 0.828548 0
M  V30 7178 C 682.973 0.736632 1.80551 0
M  V30 7179 O 682.243 -0.23962 1.94429 0
M  V30 7180 H 680.823 0.680108 0.30897 0
M  V30 7181 H 683.485 1.9459 0.109906 0
M  V30 7182 H 682.581 2.80152 1.37554 0
M  V30 7183 N 682.882 -0.391992 1.52647 0
M  V30 7184 C 684.11 -1.1586 1.71418 0
M  V30 7185 C 684.525 -1.8381 0.431216 0
M  V30 7186 O 683.882 -1.7256 -0.594085 0
M  V30 7187 C 683.933 -2.20888 2.86165 0
M  V30 7188 O 683.654 -1.5571 4.09495 0
M  V30 7189 C 685.155 -3.103 3.1659 0
M  V30 7190 H 682.375 -0.347494 0.574011 0
M  V30 7191 H 684.919 -0.458972 1.99283 0
M  V30 7192 H 683.074 -2.86492 2.6077 0
M  V30 7193 H 683.488 -2.25474 4.73563 0
M  V30 7194 H 684.962 -3.8003 4.00351 0
M  V30 7195 H 685.439 -3.73639 2.30848 0
M  V30 7196 H 686.045 -2.50345 3.43813 0
M  V30 7197 N 684.36 -1.4356 -0.65026 0
M  V30 7198 C 685.771 -1.40324 -1.2315 0
M  V30 7199 C 686.122 -0.108812 -1.95898 0
M  V30 7200 O 685.247 0.79163 -2.01401 0
M  V30 7201 C 685.842 -2.54195 -2.23987 0
M  V30 7202 C 684.401 -2.54215 -2.77582 0
M  V30 7203 C 683.548 -2.31752 -1.5227 0
M  V30 7204 H 686.499 -1.52418 -0.442095 0
M  V30 7205 H 686.52 -2.25854 -3.0622 0
M  V30 7206 H 686.032 -3.48392 -1.71011 0
M  V30 7207 H 684.133 -1.63907 -3.34612 0
M  V30 7208 H 684.246 -3.52081 -3.24925 0
M  V30 7209 H 682.61 -1.80476 -1.79723 0
M  V30 7210 H 683.393 -3.28037 -1.01225 0
M  V30 7211 N 685.838 0.888903 -1.30139 0
M  V30 7212 C 687.084 1.6428 -1.18912 0
M  V30 7213 C 687.417 1.92499 0.256477 0
M  V30 7214 O 686.692 1.54312 1.18397 0
M  V30 7215 C 686.975 2.9851 -2.01405 0
M  V30 7216 C 686.828 2.77288 -3.54163 0
M  V30 7217 C 688.147 3.99383 -1.84882 0
M  V30 7218 H 685.266 0.596148 -0.433333 0
M  V30 7219 H 687.908 1.0289 -1.5973 0
M  V30 7220 H 686.058 3.50907 -1.66722 0
M  V30 7221 H 687.73 2.31709 -3.98884 0
M  V30 7222 H 685.973 2.11867 -3.78543 0
M  V30 7223 H 686.644 3.72717 -4.07168 0
M  V30 7224 H 689.12 3.56132 -2.15196 0
M  V30 7225 H 687.996 4.91222 -2.44934 0
M  V30 7226 H 688.257 4.34674 -0.806902 0
M  V30 7227 N 687.317 1.12792 1.10072 0
M  V30 7228 C 688.25 0.742921 2.15768 0
M  V30 7229 C 689.228 -0.267714 1.60381 0
M  V30 7230 O 690.412 -0.160782 1.87813 0
M  V30 7231 C 687.539 0.100244 3.38552 0
M  V30 7232 C 686.585 1.07831 4.12644 0
M  V30 7233 S 687.418 2.60765 4.6772 0
M  V30 7234 C 688.574 1.97838 5.9381 0
M  V30 7235 H 688.807 1.63822 2.48092 0
M  V30 7236 H 686.34 0.947385 1.21918 0
M  V30 7237 H 688.298 -0.264175 4.09649 0
M  V30 7238 H 686.959 -0.772223 3.04459 0
M  V30 7239 H 686.152 0.576325 5.00694 0
M  V30 7240 H 685.754 1.38586 3.47376 0
M  V30 7241 H 688.046 1.32341 6.64449 0
M  V30 7242 H 688.989 2.83943 6.48677 0
M  V30 7243 H 689.397 1.43267 5.46017 0
M  V30 7244 N 688.795 -1.27931 0.920396 0
M  V30 7245 C 690.042 -1.94689 0.557007 0
M  V30 7246 C 690.37 -1.724 -0.900476 0
M  V30 7247 O 689.625 -1.04194 -1.65657 0
M  V30 7248 C 689.924 -3.47853 0.820558 0
M  V30 7249 C 689.59 -3.90252 2.25863 0
M  V30 7250 C 688.252 -4.01539 2.65179 0
M  V30 7251 C 690.604 -4.11853 3.19415 0
M  V30 7252 C 687.932 -4.3181 3.97187 0
M  V30 7253 C 690.284 -4.43606 4.50995 0
M  V30 7254 C 688.948 -4.53105 4.90155 0
M  V30 7255 H 688.218 -0.712416 0.203823 0
M  V30 7256 H 690.865 -1.52142 1.16298 0
M  V30 7257 H 689.17 -3.91578 0.131844 0
M  V30 7258 H 690.867 -3.97634 0.51847 0
M  V30 7259 H 687.457 -3.81999 1.94358 0
M  V30 7260 H 691.641 -4.0258 2.90246 0
M  V30 7261 H 686.897 -4.37371 4.2722 0
M  V30 7262 H 691.071 -4.59268 5.23494 0
M  V30 7263 H 688.698 -4.76315 5.92476 0
M  V30 7264 N 690.273 -0.685099 -1.4193 0
M  V30 7265 C 691.221 -0.00165985 -2.326 0
M  V30 7266 C 692.215 0.779678 -1.50391 0
M  V30 7267 O 693.421 0.68648 -1.66395 0
M  V30 7268 H 689.796 0.0182616 -0.751778 0
M  V30 7269 H 691.767 -0.783592 -2.87928 0
M  V30 7270 C 690.516 0.928385 -3.35077 0
M  V30 7271 H 689.839 0.336578 -3.98381 0
M  V30 7272 H 691.279 1.37509 -4.01083 0
M  V30 7273 C 689.738 2.03964 -2.68142 0
M  V30 7274 O 690.268 3.12727 -2.5212 0
M  V30 7275 N 688.474 1.81433 -2.27003 0
M  V30 7276 H 688.021 0.929807 -2.40234 0
M  V30 7277 H 687.979 2.55973 -1.82552 0
M  V30 7278 N 691.751 1.51645 -0.429126 0
M  V30 7279 C 692.698 2.27542 0.386446 0
M  V30 7280 C 693.668 1.30786 1.02393 0
M  V30 7281 O 694.853 1.59678 1.0444 0
M  V30 7282 C 691.993 3.11457 1.48623 0
M  V30 7283 C 691.106 4.23196 0.867691 0
M  V30 7284 C 690.241 4.94435 1.94183 0
M  V30 7285 C 689.28 5.98108 1.30129 0
M  V30 7286 N 688.417 6.62786 2.31644 0
M  V30 7287 H 693.257 2.968 -0.267155 0
M  V30 7288 H 690.794 1.46397 -0.143591 0
M  V30 7289 H 692.752 3.58429 2.13506 0
M  V30 7290 H 691.382 2.44329 2.10957 0
M  V30 7291 H 690.434 3.80248 0.107373 0
M  V30 7292 H 691.746 4.97499 0.35997 0
M  V30 7293 H 690.9 5.44914 2.66747 0
M  V30 7294 H 689.639 4.19744 2.48326 0
M  V30 7295 H 688.644 5.4693 0.561082 0
M  V30 7296 H 689.869 6.74751 0.767303 0
M  V30 7297 H 687.815 5.90913 2.84883 0
M  V30 7298 H 687.732 7.32828 1.85741 0
M  V30 7299 H 689 7.17897 3.03717 0
M  V30 7300 N 693.229 0.160201 1.56784 0
M  V30 7301 C 694.177 -0.791402 2.18723 0
M  V30 7302 C 695.171 -1.24567 1.14801 0
M  V30 7303 O 696.377 -1.21262 1.33025 0
M  V30 7304 H 692.752 -0.273458 0.700517 0
M  V30 7305 H 694.723 -0.244931 2.97393 0
M  V30 7306 C 693.472 -2.01509 2.83354 0
M  V30 7307 H 692.795 -1.67454 3.63041 0
M  V30 7308 H 694.235 -2.66006 3.30177 0
M  V30 7309 C 692.694 -2.83159 1.82545 0
M  V30 7310 O 693.224 -3.79944 1.30405 0
M  V30 7311 N 691.43 -2.47953 1.51552 0
M  V30 7312 H 690.977 -1.69309 1.94144 0
M  V30 7313 H 690.935 -3.02873 0.843519 0
M  V30 7314 N 694.707 -1.5719 -0.113559 0
M  V30 7315 C 695.955 -1.84772 -0.818761 0
M  V30 7316 C 696.276 -0.746196 -1.80158 0
M  V30 7317 O 695.546 0.229305 -1.94553 0
M  V30 7318 H 694.126 -0.681737 -0.305359 0
M  V30 7319 H 696.788 -1.94645 -0.0995845 0
M  V30 7320 H 695.884 -2.80878 -1.36067 0
M  V30 7321 N 696.185 0.383891 -1.52853 0
M  V30 7322 C 697.462 1.14296 -1.58732 0
M  V30 7323 C 697.842 2.07585 -0.383611 0
M  V30 7324 O 697.19 2.1971 0.627661 0
M  V30 7325 C 697.4 1.89816 -2.92867 0
M  V30 7326 C 698.748 2.44998 -3.46787 0
M  V30 7327 O 699.772 1.99966 -2.94774 0
M  V30 7328 O 698.631 3.2727 -4.37672 0
M  V30 7329 H 695.725 0.52326 -0.640413 0
M  V30 7330 H 698.271 0.388631 -1.6519 0
M  V30 7331 H 697.043 1.21626 -3.71918 0
M  V30 7332 H 696.666 2.72199 -2.89816 0
M  V30 7333 N 697.663 1.43903 0.642637 0
M  V30 7334 C 698.626 1.49538 1.73698 0
M  V30 7335 C 699.626 0.378776 1.56275 0
M  V30 7336 O 700.816 0.64095 1.6198 0
M  V30 7337 C 697.948 1.35821 3.12675 0
M  V30 7338 H 699.141 2.47008 1.70079 0
M  V30 7339 H 696.694 1.30824 0.85526 0
M  V30 7340 H 697.429 0.393994 3.21898 0
M  V30 7341 H 697.214 2.16776 3.26727 0
M  V30 7342 H 698.704 1.4272 3.92455 0
M  V30 7343 N 699.141 -0.881989 1.30609 0
M  V30 7344 C 700.552 -1.44956 1.17664 0
M  V30 7345 C 700.903 -1.94945 -0.221531 0
M  V30 7346 O 700.028 -1.85257 -1.11844 0
M  V30 7347 C 700.623 -2.63474 2.12995 0
M  V30 7348 C 699.182 -3.16312 2.04019 0
M  V30 7349 C 698.329 -1.89008 2.02907 0
M  V30 7350 H 701.28 -0.691645 1.42835 0
M  V30 7351 H 701.301 -3.39783 1.71253 0
M  V30 7352 H 700.813 -2.2706 3.14746 0
M  V30 7353 H 698.914 -3.57376 1.0542 0
M  V30 7354 H 699.027 -3.79409 2.9255 0
M  V30 7355 H 697.391 -2.07465 1.47751 0
M  V30 7356 H 698.174 -1.54848 3.06394 0
M  V30 7357 N 700.619 -1.13374 -1.09472 0
M  V30 7358 C 701.867 -0.893422 -1.8128 0
M  V30 7359 C 702.188 0.582029 -1.86111 0
M  V30 7360 O 701.458 1.42305 -1.34633 0
M  V30 7361 H 700.038 -0.327543 -0.67136 0
M  V30 7362 H 702.7 -1.43018 -1.32408 0
M  V30 7363 H 701.796 -1.28374 -2.84476 0
M  V30 7364 N 702.098 1.27442 -0.927168 0
M  V30 7365 C 703.514 1.46754 -0.627329 0
M  V30 7366 C 703.714 1.83902 0.823549 0
M  V30 7367 O 702.77 1.95215 1.60148 0
M  V30 7368 C 704.083 2.56045 -1.57674 0
M  V30 7369 C 705.631 2.69906 -1.58491 0
M  V30 7370 C 706.106 3.82355 -2.52128 0
M  V30 7371 N 707.597 3.89728 -2.50332 0
M  V30 7372 C 708.332 4.76155 -3.19475 0
M  V30 7373 N 707.828 5.67073 -3.97995 0
M  V30 7374 N 709.621 4.6988 -3.08496 0
M  V30 7375 H 701.772 1.01613 -1.86517 0
M  V30 7376 H 704.035 0.507443 -0.800753 0
M  V30 7377 H 703.741 2.35542 -2.61176 0
M  V30 7378 H 703.615 3.53423 -1.31804 0
M  V30 7379 H 706.002 2.89792 -0.557208 0
M  V30 7380 H 706.083 1.73018 -1.8841 0
M  V30 7381 H 705.727 3.63224 -3.55008 0
M  V30 7382 H 705.657 4.7867 -2.19505 0
M  V30 7383 H 708.148 3.24717 -1.93306 0
M  V30 7384 H 708.461 6.2988 -4.4774 0
M  V30 7385 H 706.806 5.6687 -4.02098 0
M  V30 7386 H 709.997 3.97848 -2.46646 0
M  V30 7387 H 710.17 5.37017 -3.62652 0
M  V30 7388 N 703.576 0.692616 1.41565 0
M  V30 7389 C 704.806 0.230943 2.05305 0
M  V30 7390 C 705.214 -1.12379 1.52209 0
M  V30 7391 O 704.557 -1.71281 0.663968 0
M  V30 7392 C 704.619 0.107894 3.59338 0
M  V30 7393 C 704.283 1.39419 4.35214 0
M  V30 7394 C 705.28 2.33143 4.64694 0
M  V30 7395 C 702.965 1.64674 4.74539 0
M  V30 7396 C 704.959 3.50385 5.32456 0
M  V30 7397 C 702.646 2.82202 5.42038 0
M  V30 7398 C 703.644 3.74881 5.70923 0
M  V30 7399 O 703.332 4.90351 6.37033 0
M  V30 7400 H 703.064 0.105708 0.667684 0
M  V30 7401 H 705.618 0.94488 1.82376 0
M  V30 7402 H 703.848 -0.661785 3.80995 0
M  V30 7403 H 705.537 -0.316213 4.04666 0
M  V30 7404 H 706.303 2.14887 4.34797 0
M  V30 7405 H 702.182 0.934007 4.51439 0
M  V30 7406 H 705.726 4.22743 5.54918 0
M  V30 7407 H 701.623 3.00376 5.71353 0
M  V30 7408 H 702.391 4.90128 6.55528 0
M  V30 7409 N 705.054 -1.51416 0.437162 0
M  V30 7410 C 706.331 -1.94682 -0.189292 0
M  V30 7411 C 706.711 -1.37581 -1.60108 0
M  V30 7412 O 706.059 -0.562815 -2.2146 0
M  V30 7413 C 706.269 -3.48599 -0.167201 0
M  V30 7414 C 707.617 -4.2296 -0.372856 0
M  V30 7415 O 708.641 -3.55354 -0.245323 0
M  V30 7416 O 707.5 -5.42895 -0.626693 0
M  V30 7417 H 704.594 -0.816708 -0.130063 0
M  V30 7418 H 707.14 -1.62316 0.495128 0
M  V30 7419 H 705.912 -3.82616 0.81981 0
M  V30 7420 H 705.535 -3.87406 -0.894537 0
M  V30 7421 N 706.532 -0.168513 -1.56696 0
M  V30 7422 C 707.781 0.477233 -1.95973 0
M  V30 7423 C 708.094 1.64578 -1.05704 0
M  V30 7424 O 709.3 2.35758 -1.3465 0
M  V30 7425 C 707.756 0.900413 -3.48455 0
M  V30 7426 C 707.364 -0.242382 -4.47344 0
M  V30 7427 C 709.108 1.51474 -3.96555 0
M  V30 7428 C 707.015 0.200272 -5.91061 0
M  V30 7429 H 705.945 0.182061 -0.73169 0
M  V30 7430 H 708.596 -0.256297 -1.81701 0
M  V30 7431 H 706.978 1.68984 -3.58135 0
M  V30 7432 H 708.152 -1.01967 -4.49377 0
M  V30 7433 H 706.467 -0.766484 -4.09285 0
M  V30 7434 H 709.064 1.85792 -5.01384 0
M  V30 7435 H 709.407 2.41163 -3.39332 0
M  V30 7436 H 709.94 0.789802 -3.89881 0
M  V30 7437 H 706.679 -0.661775 -6.52151 0
M  V30 7438 H 706.199 0.942979 -5.92341 0
M  V30 7439 H 707.878 0.645088 -6.43776 0
M  V30 7440 N 708.01 1.57248 0.105221 0
M  V30 7441 C 709.257 1.8557 0.810552 0
M  V30 7442 C 709.585 0.755595 1.79223 0
M  V30 7443 O 708.84 -0.251788 1.94073 0
M  V30 7444 C 709.139 3.20437 1.58287 0
M  V30 7445 C 708.805 4.44716 0.744235 0
M  V30 7446 C 707.467 4.78458 0.513013 0
M  V30 7447 C 709.819 5.20953 0.160578 0
M  V30 7448 C 707.147 5.8587 -0.311894 0
M  V30 7449 C 709.499 6.29235 -0.651596 0
M  V30 7450 C 708.163 6.615 -0.893005 0
M  V30 7451 H 707.433 0.67905 0.296602 0
M  V30 7452 H 710.08 1.91363 0.0723968 0
M  V30 7453 H 708.385 3.10283 2.39232 0
M  V30 7454 H 710.082 3.39576 2.13282 0
M  V30 7455 H 706.672 4.18287 0.934555 0
M  V30 7456 H 710.856 4.95226 0.3264 0
M  V30 7457 H 706.112 6.09286 -0.508012 0
M  V30 7458 H 710.286 6.87484 -1.11077 0
M  V30 7459 H 707.913 7.44562 -1.53401 0
M  V30 7460 N 709.488 -0.375779 1.53054 0
M  V30 7461 C 710.42 -1.47963 1.75042 0
M  V30 7462 C 711.433 -1.50073 0.631031 0
M  V30 7463 O 712.622 -1.53736 0.907052 0
M  V30 7464 C 709.722 -2.86767 1.80604 0
M  V30 7465 C 708.895 -3.08471 3.10104 0
M  V30 7466 C 707.954 -4.27332 3.07041 0
M  V30 7467 O 706.98 -4.22998 3.80869 0
M  V30 7468 N 708.182 -5.34214 2.27147 0
M  V30 7469 H 710.947 -1.29484 2.70285 0
M  V30 7470 H 708.508 -0.565416 1.51706 0
M  V30 7471 H 710.5 -3.64404 1.76045 0
M  V30 7472 H 709.07 -2.98542 0.926897 0
M  V30 7473 H 708.29 -2.18583 3.28048 0
M  V30 7474 H 709.578 -3.19834 3.95706 0
M  V30 7475 H 708.976 -5.40594 1.66656 0
M  V30 7476 H 707.533 -6.10467 2.28415 0
M  V30 7477 N 710.966 -1.44241 -0.634997 0
M  V30 7478 C 712.196 -1.50078 -1.41987 0
M  V30 7479 C 712.604 -0.123072 -1.88799 0
M  V30 7480 O 711.947 0.880552 -1.6122 0
M  V30 7481 C 712.009 -2.40033 -2.67628 0
M  V30 7482 C 711.673 -3.87268 -2.42637 0
M  V30 7483 C 712.67 -4.77902 -2.04708 0
M  V30 7484 C 710.355 -4.31933 -2.56396 0
M  V30 7485 C 712.349 -6.11202 -1.80862 0
M  V30 7486 C 710.036 -5.65281 -2.32164 0
M  V30 7487 C 711.034 -6.54734 -1.94455 0
M  V30 7488 O 710.722 -7.85613 -1.7049 0
M  V30 7489 H 710.454 -0.51146 -0.442023 0
M  V30 7490 H 713.008 -1.89843 -0.784138 0
M  V30 7491 H 711.238 -1.95188 -3.33824 0
M  V30 7492 H 712.927 -2.36863 -3.29622 0
M  V30 7493 H 713.693 -4.44668 -1.93638 0
M  V30 7494 H 709.572 -3.62569 -2.84719 0
M  V30 7495 H 713.116 -6.80983 -1.51353 0
M  V30 7496 H 709.013 -5.98078 -2.42843 0
M  V30 7497 H 709.781 -7.97373 -1.84767 0
M  V30 7498 N 712.444 0.87505 -1.31075 0
M  V30 7499 C 713.376 1.98773 -1.14114 0
M  V30 7500 C 714.389 1.62595 -0.0816119 0
M  V30 7501 O 715.578 1.75449 -0.32861 0
M  V30 7502 C 712.678 3.31159 -0.720224 0
M  V30 7503 C 711.851 3.9571 -1.86366 0
M  V30 7504 C 710.91 5.06407 -1.42965 0
M  V30 7505 O 709.936 5.27501 -2.13848 0
M  V30 7506 N 711.138 5.79649 -0.314194 0
M  V30 7507 H 713.903 2.1387 -2.09951 0
M  V30 7508 H 711.464 1.04873 -1.23342 0
M  V30 7509 H 713.456 4.0259 -0.412687 0
M  V30 7510 H 712.026 3.12257 0.146396 0
M  V30 7511 H 711.246 3.17324 -2.33879 0
M  V30 7512 H 712.534 4.35576 -2.62966 0
M  V30 7513 H 711.932 5.65025 0.276228 0
M  V30 7514 H 710.489 6.51766 -0.0661641 0
M  V30 7515 N 713.922 1.13953 1.08869 0
M  V30 7516 C 715.15 0.92817 1.84912 0
M  V30 7517 C 715.565 -0.523197 1.81406 0
M  V30 7518 O 714.922 -1.36237 1.21432 0
M  V30 7519 C 714.973 1.41509 3.32652 0
M  V30 7520 O 714.694 2.80959 3.36145 0
M  V30 7521 C 716.195 1.243 4.25517 0
M  V30 7522 H 713.415 0.330612 0.583898 0
M  V30 7523 H 715.959 1.51349 1.37527 0
M  V30 7524 H 714.114 0.872648 3.77444 0
M  V30 7525 H 714.528 3.02704 4.28335 0
M  V30 7526 H 716.002 1.63237 5.27312 0
M  V30 7527 H 716.479 0.18532 4.38809 0
M  V30 7528 H 717.085 1.77375 3.86546 0
M  V30 7529 N 715.4 -1.26948 0.933913 0
M  V30 7530 C 716.628 -1.98186 0.59414 0
M  V30 7531 C 717.043 -1.69614 -0.829257 0
M  V30 7532 O 716.4 -0.960213 -1.55197 0
M  V30 7533 C 716.451 -3.52123 0.818026 0
M  V30 7534 O 716.172 -3.79698 2.18543 0
M  V30 7535 C 717.673 -4.40608 0.48781 0
M  V30 7536 H 714.893 -0.632305 0.224569 0
M  V30 7537 H 717.437 -1.61646 1.25263 0
M  V30 7538 H 715.592 -3.86851 0.206246 0
M  V30 7539 H 716.006 -4.7426 2.24005 0
M  V30 7540 H 717.48 -5.47606 0.695126 0
M  V30 7541 H 717.957 -4.35394 -0.576913 0
M  V30 7542 H 718.563 -4.11411 1.078 0
M  V30 7543 N 716.879 -0.700114 -1.41195 0
M  V30 7544 C 717.827 -0.0263301 -2.32585 0
M  V30 7545 C 718.821 0.763683 -1.51209 0
M  V30 7546 O 720.027 0.668793 -1.67114 0
M  V30 7547 H 716.402 0.0102869 -0.75193 0
M  V30 7548 H 718.373 -0.814087 -2.8708 0
M  V30 7549 C 717.122 0.892793 -3.36042 0
M  V30 7550 H 716.445 0.294306 -3.98715 0
M  V30 7551 H 717.885 1.33247 -4.02518 0
M  V30 7552 C 716.344 2.01109 -2.7029 0
M  V30 7553 O 716.874 3.10035 -2.55423 0
M  V30 7554 N 715.08 1.79015 -2.28915 0
M  V30 7555 H 714.627 0.904275 -2.41207 0
M  V30 7556 H 714.585 2.54022 -1.85257 0
M  V30 7557 N 718.357 1.51182 -0.445186 0
M  V30 7558 C 719.585 2.06568 0.117091 0
M  V30 7559 C 720 1.31182 1.35781 0
M  V30 7560 O 719.357 0.373605 1.78635 0
M  V30 7561 C 719.408 3.58917 0.431408 0
M  V30 7562 O 719.129 4.31456 -0.760078 0
M  V30 7563 C 720.63 4.30843 1.0435 0
M  V30 7564 H 717.85 0.670985 0.00444436 0
M  V30 7565 H 720.394 1.94666 -0.626525 0
M  V30 7566 H 718.549 3.70708 1.12493 0
M  V30 7567 H 718.963 5.22215 -0.489048 0
M  V30 7568 H 720.437 5.38499 1.21337 0
M  V30 7569 H 720.914 3.89644 2.02667 0
M  V30 7570 H 721.52 4.23516 0.38913 0
M  V30 7571 N 719.835 0.176821 1.56605 0
M  V30 7572 C 721.06 -0.47599 2.01864 0
M  V30 7573 C 721.485 -1.55645 1.05623 0
M  V30 7574 O 720.843 -1.81263 0.0366729 0
M  V30 7575 C 720.891 -1.02619 3.4569 0
M  V30 7576 O 719.995 -2.13996 3.52533 0
M  V30 7577 H 719.336 -0.113363 0.654251 0
M  V30 7578 H 721.866 0.28233 2.02643 0
M  V30 7579 H 721.876 -1.34742 3.85109 0
M  V30 7580 H 720.551 -0.235138 4.15235 0
M  V30 7581 H 719.128 -1.82876 3.24978 0
M  V30 7582 N 721.313 -1.57302 -0.09688 0
M  V30 7583 C 722.261 -2.02942 -1.13654 0
M  V30 7584 C 723.255 -0.930173 -1.41577 0
M  V30 7585 O 724.461 -1.11535 -1.41279 0
M  V30 7586 H 720.836 -0.646726 -0.383731 0
M  V30 7587 H 722.807 -2.89452 -0.725267 0
M  V30 7588 C 721.556 -2.46815 -2.44903 0
M  V30 7589 H 720.879 -3.30979 -2.24261 0
M  V30 7590 H 722.319 -2.82527 -3.16156 0
M  V30 7591 C 720.778 -1.34071 -3.09074 0
M  V30 7592 O 721.308 -0.668856 -3.96092 0
M  V30 7593 N 719.514 -1.09214 -2.69296 0
M  V30 7594 H 719.061 -1.64029 -1.98626 0
M  V30 7595 H 719.019 -0.339785 -3.12559 0
M  V30 7596 N 722.791 0.367657 -1.53252 0
M  V30 7597 C 724.202 0.944563 -1.61043 0
M  V30 7598 C 724.553 1.90325 -0.476546 0
M  V30 7599 O 723.678 2.12721 0.397333 0
M  V30 7600 C 724.273 1.71992 -2.91898 0
M  V30 7601 C 722.832 2.2462 -3.02031 0
M  V30 7602 C 721.979 1.05799 -2.56324 0
M  V30 7603 H 724.93 0.146516 -1.58022 0
M  V30 7604 H 724.951 2.58095 -2.79584 0
M  V30 7605 H 724.463 1.02192 -3.74404 0
M  V30 7606 H 722.564 2.97668 -2.24108 0
M  V30 7607 H 722.677 2.52644 -4.07073 0
M  V30 7608 H 721.041 1.42435 -2.1115 0
M  V30 7609 H 721.824 0.375008 -3.41246 0
M  V30 7610 N 724.269 1.44576 0.627338 0
M  V30 7611 C 725.517 1.47267 1.38408 0
M  V30 7612 C 725.838 0.107971 1.94701 0
M  V30 7613 O 725.108 -0.860206 1.76004 0
M  V30 7614 H 723.688 0.542276 0.513756 0
M  V30 7615 H 726.35 1.80383 0.738099 0
M  V30 7616 H 725.446 2.20025 2.21349 0
M  V30 7617 N 725.747 -0.868086 1.31537 0
M  V30 7618 C 726.977 -1.65162 1.24118 0
M  V30 7619 C 727.385 -1.88187 -0.195558 0
M  V30 7620 O 726.728 -1.44154 -1.13866 0
M  V30 7621 C 726.79 -3.04119 1.91708 0
M  V30 7622 C 726.454 -3.04194 3.4105 0
M  V30 7623 C 727.451 -2.82016 4.36764 0
M  V30 7624 C 725.136 -3.25256 3.82772 0
M  V30 7625 C 727.13 -2.80881 5.72175 0
M  V30 7626 C 724.817 -3.23749 5.18295 0
M  V30 7627 C 725.815 -3.01589 6.12808 0
M  V30 7628 O 725.503 -2.9993 7.45853 0
M  V30 7629 H 725.235 -0.521597 0.430015 0
M  V30 7630 H 727.789 -1.09165 1.73989 0
M  V30 7631 H 726.019 -3.61849 1.36389 0
M  V30 7632 H 727.708 -3.64701 1.78179 0
M  V30 7633 H 728.474 -2.65525 4.05859 0
M  V30 7634 H 724.353 -3.41534 3.09638 0
M  V30 7635 H 727.897 -2.63503 6.45919 0
M  V30 7636 H 723.794 -3.39781 5.48834 0
M  V30 7637 H 724.562 -3.15979 7.55049 0
M  V30 7638 N 727.225 -1.14528 -1.08264 0
M  V30 7639 C 728.641 -0.885976 -1.3275 0
M  V30 7640 C 728.841 0.472096 -1.95892 0
M  V30 7641 O 727.897 1.21606 -2.21288 0
M  V30 7642 C 729.21 -2.01982 -2.22764 0
M  V30 7643 C 730.758 -2.05329 -2.36239 0
M  V30 7644 C 731.233 -3.1801 -3.29596 0
M  V30 7645 N 732.724 -3.17598 -3.37173 0
M  V30 7646 C 733.459 -4.01426 -4.09444 0
M  V30 7647 N 732.955 -4.95297 -4.8441 0
M  V30 7648 N 734.748 -3.89482 -4.0529 0
M  V30 7649 H 726.899 -2.01996 -0.656607 0
M  V30 7650 H 729.162 -0.880274 -0.351884 0
M  V30 7651 H 728.868 -2.99964 -1.83615 0
M  V30 7652 H 728.742 -1.94421 -3.23234 0
M  V30 7653 H 731.129 -1.07953 -2.74646 0
M  V30 7654 H 731.21 -2.1696 -1.35506 0
M  V30 7655 H 730.854 -4.15633 -2.9191 0
M  V30 7656 H 730.784 -3.03616 -4.30261 0
M  V30 7657 H 733.275 -2.4961 -2.83731 0
M  V30 7658 H 733.588 -5.55723 -5.37021 0
M  V30 7659 H 731.933 -4.99293 -4.83457 0
M  V30 7660 H 735.124 -3.15465 -3.45832 0
M  V30 7661 H 735.297 -4.55039 -4.6135 0
M  V30 7662 N 728.703 1.26451 -0.940633 0
M  V30 7663 C 729.633 2.28773 -0.467479 0
M  V30 7664 C 730.614 1.63218 0.478955 0
M  V30 7665 O 731.799 1.90427 0.380929 0
M  V30 7666 C 728.929 3.46259 0.268656 0
M  V30 7667 C 727.883 4.23898 -0.591171 0
M  V30 7668 C 727.209 5.33993 0.274891 0
M  V30 7669 C 728.509 4.87974 -1.86223 0
M  V30 7670 H 730.203 2.68601 -1.32265 0
M  V30 7671 H 727.749 1.29123 -0.637436 0
M  V30 7672 H 729.702 4.16951 0.610696 0
M  V30 7673 H 728.426 3.05383 1.15796 0
M  V30 7674 H 727.085 3.54969 -0.916098 0
M  V30 7675 H 726.733 4.89358 1.16353 0
M  V30 7676 H 726.433 5.86849 -0.297006 0
M  V30 7677 H 727.957 6.07523 0.612213 0
M  V30 7678 H 729.371 5.50883 -1.58747 0
M  V30 7679 H 727.768 5.50945 -2.37866 0
M  V30 7680 H 728.838 4.10945 -2.57394 0
M  V30 7681 N 730.181 0.707592 1.40822 0
M  V30 7682 C 731.43 0.240705 2.00259 0
M  V30 7683 C 731.743 -1.17027 1.56729 0
M  V30 7684 O 732.949 -1.73526 2.08809 0
M  V30 7685 C 731.405 0.379432 3.57894 0
M  V30 7686 C 731.013 1.79654 4.104 0
M  V30 7687 C 732.757 -0.0270684 4.24491 0
M  V30 7688 C 730.664 1.88628 5.60512 0
M  V30 7689 H 729.594 0.0862369 0.749052 0
M  V30 7690 H 732.245 0.877528 1.61157 0
M  V30 7691 H 730.627 -0.325842 3.94657 0
M  V30 7692 H 731.801 2.53155 3.85032 0
M  V30 7693 H 730.116 2.15379 3.56372 0
M  V30 7694 H 732.713 0.0193743 5.34696 0
M  V30 7695 H 733.056 -1.06772 4.02375 0
M  V30 7696 H 733.589 0.628361 3.92806 0
M  V30 7697 H 730.328 2.90787 5.87472 0
M  V30 7698 H 729.848 1.19528 5.8777 0
M  V30 7699 H 731.527 1.6547 6.25483 0
M  V30 7700 N 731.66 -1.50943 0.453197 0
M  V30 7701 C 732.908 -2.01813 -0.107709 0
M  V30 7702 C 733.229 -1.33841 -1.41816 0
M  V30 7703 O 732.499 -0.477973 -1.8998 0
M  V30 7704 H 731.079 -0.745773 -0.0427948 0
M  V30 7705 H 733.741 -1.8545 0.599531 0
M  V30 7706 H 732.837 -3.10911 -0.27218 0
M  V30 7707 N 733.138 -0.185124 -1.56509 0
M  V30 7708 C 734.07 0.771401 -2.15829 0
M  V30 7709 C 735.083 1.18392 -1.11747 0
M  V30 7710 O 736.272 1.12137 -1.38879 0
M  V30 7711 C 733.372 2.05169 -2.69739 0
M  V30 7712 C 732.545 1.80056 -3.98621 0
M  V30 7713 C 731.604 2.92435 -4.37456 0
M  V30 7714 O 730.63 2.62473 -5.05071 0
M  V30 7715 N 731.832 4.20554 -4.00143 0
M  V30 7716 H 734.597 0.264184 -2.98533 0
M  V30 7717 H 732.158 -0.00281069 -1.619 0
M  V30 7718 H 734.15 2.7947 -2.92709 0
M  V30 7719 H 732.72 2.47041 -1.91545 0
M  V30 7720 H 731.94 0.895862 -3.83885 0
M  V30 7721 H 733.228 1.60662 -4.82768 0
M  V30 7722 H 732.626 4.47753 -3.45736 0
M  V30 7723 H 731.183 4.91514 -4.28085 0
M  V30 7724 N 734.616 1.57351 0.0885366 0
M  V30 7725 C 735.862 1.87564 0.786842 0
M  V30 7726 C 736.217 0.776774 1.76023 0
M  V30 7727 O 735.51 -0.220637 1.90325 0
M  V30 7728 C 735.704 3.22098 1.5488 0
M  V30 7729 C 735.533 4.44967 0.650706 0
M  V30 7730 C 734.303 5.04444 0.293957 0
M  V30 7731 C 736.501 5.1428 -0.0452187 0
M  V30 7732 N 734.483 6.10846 -0.611609 0
M  V30 7733 C 735.854 6.14704 -0.808603 0
M  V30 7734 C 737.909 4.97759 -0.118451 0
M  V30 7735 C 736.612 7.00392 -1.63839 0
M  V30 7736 C 738.638 5.8396 -0.935157 0
M  V30 7737 C 738 6.83909 -1.68664 0
M  V30 7738 H 734.099 0.73613 0.263887 0
M  V30 7739 H 736.683 1.94638 0.049074 0
M  V30 7740 H 734.854 3.16064 2.2574 0
M  V30 7741 H 736.586 3.40015 2.19481 0
M  V30 7742 H 733.341 4.69214 0.643086 0
M  V30 7743 H 733.765 6.68695 -1.05714 0
M  V30 7744 H 738.407 4.20418 0.448202 0
M  V30 7745 H 736.125 7.7712 -2.21608 0
M  V30 7746 H 739.711 5.73236 -0.994579 0
M  V30 7747 H 738.591 7.49454 -2.30842 0
M  V30 7748 N 736.094 -0.359525 1.53444 0
M  V30 7749 C 737.322 -1.12198 1.73837 0
M  V30 7750 C 737.737 -1.82854 0.470107 0
M  V30 7751 O 737.094 -1.73781 -0.557349 0
M  V30 7752 C 737.145 -2.14769 2.90786 0
M  V30 7753 O 736.866 -1.46989 4.12706 0
M  V30 7754 C 738.367 -3.03514 3.231 0
M  V30 7755 H 735.587 -0.33524 0.581253 0
M  V30 7756 H 738.131 -0.416598 2.00212 0
M  V30 7757 H 736.286 -2.80896 2.66788 0
M  V30 7758 H 736.7 -2.15378 4.78239 0
M  V30 7759 H 738.174 -3.71453 4.08322 0
M  V30 7760 H 738.651 -3.68658 2.38721 0
M  V30 7761 H 739.257 -2.42996 3.49046 0
M  V30 7762 N 737.572 -1.44907 -0.619662 0
M  V30 7763 C 738.849 -1.38766 -1.37852 0
M  V30 7764 C 739.229 -0.0521393 -2.11036 0
M  V30 7765 O 738.577 0.965613 -2.07095 0
M  V30 7766 C 738.787 -2.59344 -2.33541 0
M  V30 7767 C 740.135 -3.03909 -2.96521 0
M  V30 7768 O 741.159 -2.59631 -2.43865 0
M  V30 7769 O 740.018 -3.80713 -3.92071 0
M  V30 7770 H 737.112 -0.550083 -0.617525 0
M  V30 7771 H 739.658 -1.57015 -0.643759 0
M  V30 7772 H 738.43 -3.48142 -1.78642 0
M  V30 7773 H 738.053 -2.43367 -3.14417 0
M  V30 7774 N 739.05 0.861098 -1.31996 0
M  V30 7775 C 739.96 2.00154 -1.22374 0
M  V30 7776 C 740.976 1.73447 -0.138631 0
M  V30 7777 O 742.152 1.98191 -0.358104 0
M  V30 7778 C 739.217 3.33696 -0.940645 0
M  V30 7779 C 738.278 3.73668 -2.11355 0
M  V30 7780 C 737.511 5.00837 -1.84386 0
M  V30 7781 O 737.734 5.64996 -0.783287 0
M  V30 7782 O 736.668 5.37787 -2.70313 0
M  V30 7783 H 740.494 2.11207 -2.18233 0
M  V30 7784 H 738.079 0.990768 -1.11822 0
M  V30 7785 H 739.961 4.13756 -0.798987 0
M  V30 7786 H 738.636 3.23698 -0.0121636 0
M  V30 7787 H 737.543 2.94211 -2.31065 0
M  V30 7788 H 738.876 3.88303 -3.02459 0
M  V30 7789 N 740.528 1.15101 1.07655 0
M  V30 7790 C 741.458 0.867864 2.16773 0
M  V30 7791 C 742.439 -0.180283 1.69142 0
M  V30 7792 O 743.624 -0.0353152 1.94168 0
M  V30 7793 C 740.754 0.35299 3.45501 0
M  V30 7794 C 739.708 1.33746 4.06566 0
M  V30 7795 C 739.034 0.681562 5.30338 0
M  V30 7796 C 740.334 2.7024 4.46954 0
M  V30 7797 H 742.028 1.78034 2.40716 0
M  V30 7798 H 739.574 0.857435 1.15689 0
M  V30 7799 H 741.527 0.142465 4.21159 0
M  V30 7800 H 740.251 -0.594945 3.21135 0
M  V30 7801 H 738.91 1.53429 3.32949 0
M  V30 7802 H 738.558 -0.272422 5.02262 0
M  V30 7803 H 738.258 1.33853 5.72151 0
M  V30 7804 H 739.782 0.48074 6.08705 0
M  V30 7805 H 741.196 2.5442 5.13754 0
M  V30 7806 H 739.593 3.32282 4.99709 0
M  V30 7807 H 740.663 3.26537 3.58471 0
M  V30 7808 N 742.006 -1.2595 0.947325 0
M  V30 7809 C 742.938 -2.25336 0.41906 0
M  V30 7810 C 743.951 -1.56135 -0.461051 0
M  V30 7811 O 745.14 -1.76438 -0.270505 0
M  V30 7812 C 742.24 -3.36334 -0.416233 0
M  V30 7813 C 741.413 -4.35088 0.449162 0
M  V30 7814 C 740.472 -5.25185 -0.326716 0
M  V30 7815 O 739.498 -5.68548 0.272374 0
M  V30 7816 N 740.7 -5.57388 -1.6217 0
M  V30 7817 H 743.465 -2.71298 1.27348 0
M  V30 7818 H 741.026 -1.39781 0.81688 0
M  V30 7819 H 743.018 -3.93564 -0.942826 0
M  V30 7820 H 741.588 -2.89819 -1.17148 0
M  V30 7821 H 740.808 -3.76841 1.15692 0
M  V30 7822 H 742.096 -4.98056 1.04008 0
M  V30 7823 H 741.494 -5.2405 -2.13046 0
M  V30 7824 H 740.051 -6.17234 -2.0944 0
M  V30 7825 N 743.484 -0.715051 -1.40445 0
M  V30 7826 C 744.414 -0.0768699 -2.33373 0
M  V30 7827 C 745.395 0.746109 -1.52863 0
M  V30 7828 O 746.58 0.695142 -1.81332 0
M  V30 7829 C 743.71 0.846014 -3.36838 0
M  V30 7830 C 742.664 0.128694 -4.27806 0
M  V30 7831 C 741.99 1.16726 -5.21804 0
M  V30 7832 C 743.29 -1.01679 -5.12307 0
M  V30 7833 H 744.984 -0.853061 -2.8699 0
M  V30 7834 H 742.53 -0.41167 -1.3799 0
M  V30 7835 H 744.483 1.30185 -4.00786 0
M  V30 7836 H 743.207 1.6541 -2.81615 0
M  V30 7837 H 741.866 -0.307314 -3.6531 0
M  V30 7838 H 741.514 1.96838 -4.62887 0
M  V30 7839 H 741.214 0.692188 -5.83509 0
M  V30 7840 H 742.738 1.62321 -5.88629 0
M  V30 7841 H 744.152 -0.640337 -5.69713 0
M  V30 7842 H 742.549 -1.4202 -5.83053 0
M  V30 7843 H 743.619 -1.84769 -4.48317 0
M  V30 7844 N 744.962 1.50701 -0.461195 0
M  V30 7845 C 745.91 2.29918 0.352231 0
M  V30 7846 C 746.904 1.36778 0.999403 0
M  V30 7847 O 748.11 1.54015 0.931639 0
M  V30 7848 H 744.485 0.740249 0.132423 0
M  V30 7849 H 746.456 2.96497 -0.336424 0
M  V30 7850 C 745.205 3.17052 1.42736 0
M  V30 7851 H 744.528 3.88623 0.938747 0
M  V30 7852 H 745.968 3.75493 1.96928 0
M  V30 7853 C 744.427 2.3399 2.42384 0
M  V30 7854 O 744.957 2.01608 3.47444 0
M  V30 7855 N 743.163 1.96758 2.13857 0
M  V30 7856 H 742.71 2.23292 1.28447 0
M  V30 7857 H 742.668 1.41484 2.80766 0
M  V30 7858 N 746.441 0.193421 1.56409 0
M  V30 7859 C 747.69 -0.445995 1.96707 0
M  V30 7860 C 748.003 -1.62876 1.08309 0
M  V30 7861 O 749.209 -2.33586 1.38383 0
M  V30 7862 C 747.665 -0.844863 3.49843 0
M  V30 7863 C 747.273 0.31352 4.46902 0
M  V30 7864 C 749.017 -1.45146 3.98915 0
M  V30 7865 C 746.924 -0.106214 5.91305 0
M  V30 7866 H 745.854 -0.170398 0.734493 0
M  V30 7867 H 748.505 0.285172 1.81271 0
M  V30 7868 H 746.887 -1.63265 3.60778 0
M  V30 7869 H 748.061 1.09103 4.47698 0
M  V30 7870 H 746.376 0.8315 4.08014 0
M  V30 7871 H 748.973 -1.77792 5.04276 0
M  V30 7872 H 749.316 -2.35734 3.43126 0
M  V30 7873 H 749.849 -0.727675 3.91088 0
M  V30 7874 H 746.588 0.765442 6.51016 0
M  V30 7875 H 746.108 -0.848623 5.93766 0
M  V30 7876 H 747.787 -0.542588 6.44721 0
M  V30 7877 N 747.919 -1.57396 -0.0801906 0
M  V30 7878 C 748.829 -2.06451 -1.11423 0
M  V30 7879 C 749.845 -0.992352 -1.42928 0
M  V30 7880 O 751.021 -1.30651 -1.53272 0
M  V30 7881 C 748.086 -2.49164 -2.41077 0
M  V30 7882 C 747.147 -3.70641 -2.16619 0
M  V30 7883 C 746.38 -4.11307 -3.40092 0
M  V30 7884 O 746.603 -3.51922 -4.48895 0
M  V30 7885 O 745.537 -5.04157 -3.288 0
M  V30 7886 H 749.363 -2.94857 -0.727519 0
M  V30 7887 H 746.948 -1.46484 -0.293743 0
M  V30 7888 H 748.83 -2.77196 -3.17396 0
M  V30 7889 H 747.505 -1.6389 -2.79145 0
M  V30 7890 H 746.412 -3.47703 -1.38033 0
M  V30 7891 H 747.745 -4.5674 -1.83437 0
M  V30 7892 N 749.397 0.351382 -1.53633 0
M  V30 7893 C 750.674 1.10903 -1.6112 0
M  V30 7894 C 751.054 2.06725 -0.427556 0
M  V30 7895 O 750.402 2.20992 0.580916 0
M  V30 7896 C 750.612 1.83561 -2.96827 0
M  V30 7897 C 751.96 2.37587 -3.51906 0
M  V30 7898 O 752.984 1.93669 -2.9895 0
M  V30 7899 O 751.843 3.17913 -4.44515 0
M  V30 7900 H 748.937 0.509558 -0.651368 0
M  V30 7901 H 751.483 0.353504 -1.65977 0
M  V30 7902 H 750.255 1.1371 -3.74414 0
M  V30 7903 H 749.878 2.6599 -2.95525 0
M  V30 7904 N 750.875 1.45233 0.611969 0
M  V30 7905 C 751.808 1.48056 1.73651 0
M  V30 7906 C 752.786 0.337373 1.59061 0
M  V30 7907 O 753.97 0.537222 1.80683 0
M  V30 7908 C 751.097 1.33144 3.11433 0
M  V30 7909 C 750.143 2.51272 3.44623 0
M  V30 7910 S 750.976 4.13754 3.39953 0
M  V30 7911 C 752.132 4.013 4.80322 0
M  V30 7912 H 752.365 2.43205 1.70993 0
M  V30 7913 H 749.898 1.32763 0.788246 0
M  V30 7914 H 751.856 1.25228 3.90932 0
M  V30 7915 H 750.517 0.394734 3.1161 0
M  V30 7916 H 749.71 2.36753 4.44932 0
M  V30 7917 H 749.312 2.56027 2.72629 0
M  V30 7918 H 751.604 3.66174 5.7002 0
M  V30 7919 H 752.547 5.01506 4.99897 0
M  V30 7920 H 752.955 3.3303 4.55797 0
M  V30 7921 N 752.353 -0.854086 1.3245 0
M  V30 7922 C 753.285 -1.96932 1.17262 0
M  V30 7923 C 754.298 -1.62445 0.107469 0
M  V30 7924 O 755.487 -1.74904 0.356481 0
M  V30 7925 C 752.587 -3.29971 0.772817 0
M  V30 7926 C 751.76 -3.92695 1.92638 0
M  V30 7927 C 750.819 -5.04068 1.51003 0
M  V30 7928 O 749.845 -5.24032 2.22213 0
M  V30 7929 N 751.047 -5.79076 0.406371 0
M  V30 7930 H 753.812 -2.10503 2.13327 0
M  V30 7931 H 751.373 -1.02897 1.24995 0
M  V30 7932 H 753.365 -4.01883 0.476684 0
M  V30 7933 H 751.935 -3.1245 -0.0967 0
M  V30 7934 H 751.155 -3.13563 2.38897 0
M  V30 7935 H 752.443 -4.31337 2.69863 0
M  V30 7936 H 751.841 -5.65393 -0.186302 0
M  V30 7937 H 750.398 -6.51579 0.169846 0
M  V30 7938 N 753.831 -1.1567 -1.07043 0
M  V30 7939 C 755.077 -0.944878 -1.80121 0
M  V30 7940 C 755.432 0.522239 -1.85177 0
M  V30 7941 O 754.725 1.38228 -1.32678 0
M  V30 7942 C 754.919 -1.49677 -3.24548 0
M  V30 7943 C 754.748 -3.01602 -3.33566 0
M  V30 7944 C 753.518 -3.70177 -3.43943 0
M  V30 7945 C 755.716 -3.99362 -3.24059 0
M  V30 7946 N 753.698 -5.09882 -3.41896 0
M  V30 7947 C 755.069 -5.25404 -3.29167 0
M  V30 7948 C 757.124 -3.91289 -3.07891 0
M  V30 7949 C 755.827 -6.44314 -3.19769 0
M  V30 7950 C 757.853 -5.09761 -2.99829 0
M  V30 7951 C 757.215 -6.34679 -3.05552 0
M  V30 7952 H 753.314 -0.399447 -0.672284 0
M  V30 7953 H 755.898 -1.4693 -1.27749 0
M  V30 7954 H 754.069 -0.998941 -3.75334 0
M  V30 7955 H 755.801 -1.22346 -3.85764 0
M  V30 7956 H 752.556 -3.2078 -3.48421 0
M  V30 7957 H 752.98 -5.82857 -3.44393 0
M  V30 7958 H 757.622 -2.95573 -3.02318 0
M  V30 7959 H 755.34 -7.4026 -3.24101 0
M  V30 7960 H 758.926 -5.05279 -2.88418 0
M  V30 7961 H 757.806 -7.24812 -2.99361 0
M  V30 7962 N 755.309 1.25446 -0.953992 0
M  V30 7963 C 756.557 1.92762 -0.607227 0
M  V30 7964 C 756.878 1.7509 0.858399 0
M  V30 7965 O 756.148 1.11416 1.61132 0
M  V30 7966 H 754.728 0.713377 -0.221591 0
M  V30 7967 H 757.39 1.52625 -1.21209 0
M  V30 7968 H 756.486 3.00695 -0.835998 0
M  V30 7969 N 756.787 0.722489 1.40064 0
M  V30 7970 C 757.734 0.0743738 2.3068 0
M  V30 7971 C 758.704 -0.743004 1.48555 0
M  V30 7972 O 759.889 -0.705536 1.77276 0
M  V30 7973 C 757.029 -0.836292 3.34814 0
M  V30 7974 C 756.142 -0.00764663 4.31999 0
M  V30 7975 C 755.277 -0.918428 5.232 0
M  V30 7976 C 754.316 -0.0842838 6.12042 0
M  V30 7977 N 753.453 -0.950316 6.95639 0
M  V30 7978 H 758.293 0.852794 2.85537 0
M  V30 7979 H 755.83 0.432222 1.40607 0
M  V30 7980 H 757.788 -1.3786 3.93765 0
M  V30 7981 H 756.418 -1.58082 2.81443 0
M  V30 7982 H 755.47 0.651928 3.74772 0
M  V30 7983 H 756.782 0.63786 4.94705 0
M  V30 7984 H 755.936 -1.52902 5.87116 0
M  V30 7985 H 754.675 -1.59774 4.60786 0
M  V30 7986 H 753.68 0.5392 5.4715 0
M  V30 7987 H 754.905 0.591628 6.76518 0
M  V30 7988 H 752.851 -1.61515 6.35806 0
M  V30 7989 H 752.768 -0.361004 7.55138 0
M  V30 7990 H 754.036 -1.54687 7.63997 0
M  V30 7991 N 758.265 -1.50454 0.469181 0
M  V30 7992 C 759.513 -2.01916 -0.0862982 0
M  V30 7993 C 759.834 -1.35337 -1.40388 0
M  V30 7994 O 759.104 -0.498096 -1.89462 0
M  V30 7995 H 757.684 -0.746185 -0.0348825 0
M  V30 7996 H 760.346 -1.84804 0.619167 0
M  V30 7997 H 759.442 -3.11182 -0.239189 0
M  V30 7998 N 759.743 -0.201713 -1.56304 0
M  V30 7999 C 760.989 0.435952 -1.98059 0
M  V30 8000 C 761.322 1.60811 -1.08873 0
M  V30 8001 O 760.597 1.9398 -0.142128 0
M  V30 8002 C 760.88 0.889706 -3.48936 0
M  V30 8003 C 760.733 -0.284725 -4.48898 0
M  V30 8004 C 762.052 1.7529 -4.03685 0
M  V30 8005 H 759.171 0.15699 -0.720085 0
M  V30 8006 H 761.813 -0.293965 -1.87712 0
M  V30 8007 H 759.963 1.51166 -3.57884 0
M  V30 8008 H 761.635 -0.922531 -4.51981 0
M  V30 8009 H 759.878 -0.935427 -4.23594 0
M  V30 8010 H 760.549 0.0753865 -5.51949 0
M  V30 8011 H 763.025 1.2283 -3.97558 0
M  V30 8012 H 761.901 2.03933 -5.0961 0
M  V30 8013 H 762.162 2.70939 -3.49348 0
M  V30 8014 N 761.222 1.57436 0.0718424 0
M  V30 8015 C 762.638 1.53792 0.426628 0
M  V30 8016 C 762.838 0.921887 1.79174 0
M  V30 8017 O 761.894 0.524374 2.46995 0
M  V30 8018 C 763.207 2.98443 0.367739 0
M  V30 8019 C 764.755 3.09778 0.447928 0
M  V30 8020 C 765.23 4.5608 0.418946 0
M  V30 8021 N 766.721 4.60716 0.479022 0
M  V30 8022 C 767.456 5.71397 0.47881 0
M  V30 8023 N 766.952 6.91443 0.433417 0
M  V30 8024 N 768.745 5.59639 0.525364 0
M  V30 8025 H 760.896 1.95848 -0.822033 0
M  V30 8026 H 763.159 0.896418 -0.308447 0
M  V30 8027 H 762.865 3.47072 -0.56865 0
M  V30 8028 H 762.739 3.58335 1.17795 0
M  V30 8029 H 765.126 2.61122 1.37474 0
M  V30 8030 H 765.207 2.52796 -0.390857 0
M  V30 8031 H 764.851 5.05393 -0.504016 0
M  V30 8032 H 764.781 5.10925 1.27526 0
M  V30 8033 H 767.272 3.74328 0.518355 0
M  V30 8034 H 767.585 7.71562 0.43718 0
M  V30 8035 H 765.93 6.93847 0.400106 0
M  V30 8036 H 769.121 4.64756 0.558519 0
M  V30 8037 H 769.294 6.45896 0.52173 0
M  V30 8038 N 762.7 -0.34323 1.53817 0
M  V30 8039 C 763.61 -1.44493 1.84821 0
M  V30 8040 C 764.626 -1.57556 0.738381 0
M  V30 8041 O 765.802 -1.73026 1.03072 0
M  V30 8042 C 762.867 -2.79478 2.05166 0
M  V30 8043 C 761.928 -2.75756 3.29025 0
M  V30 8044 C 761.161 -4.04302 3.4839 0
M  V30 8045 O 761.384 -5.01595 2.71586 0
M  V30 8046 O 760.318 -4.08754 4.41819 0
M  V30 8047 H 764.144 -1.21209 2.78464 0
M  V30 8048 H 761.729 -0.535437 1.39476 0
M  V30 8049 H 763.611 -3.59419 2.19991 0
M  V30 8050 H 762.286 -3.02692 1.14713 0
M  V30 8051 H 761.193 -1.94434 3.19603 0
M  V30 8052 H 762.526 -2.57495 4.19472 0
M  V30 8053 N 764.178 -1.45556 -0.604258 0
M  V30 8054 C 765.427 -1.49019 -1.35928 0
M  V30 8055 C 765.74 -0.137409 -1.95117 0
M  V30 8056 O 766.946 -0.0497032 -2.71455 0
M  V30 8057 C 765.402 -2.62477 -2.46239 0
M  V30 8058 C 765.01 -4.04082 -1.93447 0
M  V30 8059 C 766.754 -2.7519 -3.23219 0
M  V30 8060 C 764.661 -5.08917 -3.0126 0
M  V30 8061 H 763.591 -0.554518 -0.510907 0
M  V30 8062 H 766.242 -1.71705 -0.647262 0
M  V30 8063 H 764.624 -2.3308 -3.2014 0
M  V30 8064 H 765.798 -4.43173 -1.26232 0
M  V30 8065 H 764.113 -3.95849 -1.29201 0
M  V30 8066 H 766.71 -3.50683 -4.0364 0
M  V30 8067 H 767.053 -1.81941 -3.74437 0
M  V30 8068 H 767.586 -3.04129 -2.56418 0
M  V30 8069 H 764.325 -6.03886 -2.54955 0
M  V30 8070 H 763.845 -4.74393 -3.67031 0
M  V30 8071 H 765.524 -5.33814 -3.65584 0
M  V30 8072 N 765.656 0.84705 -1.32902 0
M  V30 8073 C 767.067 1.41785 -1.21466 0
M  V30 8074 C 767.418 1.95464 0.169767 0
M  V30 8075 O 766.543 1.88157 1.06892 0
M  V30 8076 C 767.138 2.57734 -2.19906 0
M  V30 8077 C 765.697 3.10791 -2.12334 0
M  V30 8078 C 764.844 1.83562 -2.07847 0
M  V30 8079 H 767.795 0.653532 -1.44619 0
M  V30 8080 H 767.816 3.35123 -1.80202 0
M  V30 8081 H 767.328 2.18635 -3.20656 0
M  V30 8082 H 765.429 3.54455 -1.14858 0
M  V30 8083 H 765.542 3.71519 -3.02506 0
M  V30 8084 H 763.906 2.03475 -1.53199 0
M  V30 8085 H 764.689 1.4667 -3.10392 0
M  V30 8086 N 767.134 1.16236 1.06428 0
M  V30 8087 C 768.097 0.870163 2.1204 0
M  V30 8088 C 769.097 -0.134239 1.60239 0
M  V30 8089 O 770.287 0.0964932 1.73933 0
M  V30 8090 C 767.419 0.301033 3.39568 0
M  V30 8091 H 768.612 1.8064 2.39394 0
M  V30 8092 H 766.165 0.971116 1.2247 0
M  V30 8093 H 766.9 -0.642948 3.17863 0
M  V30 8094 H 766.685 1.02475 3.78472 0
M  V30 8095 H 768.175 0.114494 4.17443 0
M  V30 8096 N 768.612 -1.24939 0.960631 0
M  V30 8097 C 769.837 -1.9742 0.635608 0
M  V30 8098 C 770.262 -1.70857 -0.786737 0
M  V30 8099 O 769.62 -0.968063 -1.53291 0
M  V30 8100 C 769.668 -3.48987 0.907771 0
M  V30 8101 O 768.772 -4.12399 -0.0104053 0
M  V30 8102 H 768.113 -0.61871 0.241027 0
M  V30 8103 H 770.643 -1.58901 1.28886 0
M  V30 8104 H 770.653 -3.99334 0.836453 0
M  V30 8105 H 769.328 -3.6765 1.94439 0
M  V30 8106 H 767.905 -3.72727 0.113631 0
M  V30 8107 N 770.09 -0.729906 -1.39679 0
M  V30 8108 C 771.336 -0.27603 -2.00913 0
M  V30 8109 C 771.669 1.13227 -1.57776 0
M  V30 8110 O 770.944 1.7709 -0.804319 0
M  V30 8111 C 771.227 -0.372157 -3.58172 0
M  V30 8112 C 771.08 -1.81986 -4.11341 0
M  V30 8113 C 772.399 0.248378 -4.39399 0
M  V30 8114 H 769.518 -0.101773 -0.729939 0
M  V30 8115 H 772.16 -0.925104 -1.65957 0
M  V30 8116 H 770.31 0.180459 -3.88081 0
M  V30 8117 H 771.982 -2.42896 -3.92172 0
M  V30 8118 H 770.225 -2.34287 -3.65092 0
M  V30 8119 H 770.896 -1.83842 -5.20486 0
M  V30 8120 H 773.372 -0.222645 -4.15504 0
M  V30 8121 H 772.248 0.150746 -5.48693 0
M  V30 8122 H 772.509 1.33378 -4.21501 0
M  V30 8123 N 771.568 1.50203 -0.477153 0
M  V30 8124 C 772.808 2.04265 0.0744065 0
M  V30 8125 C 773.172 1.35082 1.36443 0
M  V30 8126 O 774.373 1.79732 1.99875 0
M  V30 8127 C 772.644 3.56539 0.247874 0
M  V30 8128 S 774.203 4.32219 0.757117 0
M  V30 8129 H 771.021 0.71088 0.0130891 0
M  V30 8130 H 773.623 1.8453 -0.645678 0
M  V30 8131 H 772.327 4.04443 -0.696709 0
M  V30 8132 H 771.858 3.80638 0.993896 0
M  V30 8133 H 773.873 4.52789 2.0297 0
M  V30 8134 N 773.046 0.209999 1.56195 0
M  V30 8135 C 774.274 -0.429996 2.02382 0
M  V30 8136 C 774.689 -1.54159 1.08998 0
M  V30 8137 O 774.046 -1.82239 0.0974856 0
M  V30 8138 C 774.097 -0.972433 3.48175 0
M  V30 8139 O 773.818 0.0948231 4.37997 0
M  V30 8140 C 775.319 -1.68683 4.09952 0
M  V30 8141 H 772.539 -0.106475 0.662498 0
M  V30 8142 H 775.083 0.323072 2.01932 0
M  V30 8143 H 773.238 -1.67582 3.49278 0
M  V30 8144 H 773.652 -0.31113 5.23576 0
M  V30 8145 H 775.126 -2.01851 5.13771 0
M  V30 8146 H 775.603 -2.59587 3.54276 0
M  V30 8147 H 776.209 -1.02893 4.12666 0
M  V30 8148 N 774.524 -1.57472 -0.0634922 0
M  V30 8149 C 775.454 -2.07297 -1.07473 0
M  V30 8150 C 776.435 -0.968162 -1.39859 0
M  V30 8151 O 777.62 -1.24139 -1.49343 0
M  V30 8152 C 774.75 -2.52381 -2.38581 0
M  V30 8153 C 773.704 -3.66813 -2.20526 0
M  V30 8154 C 773.03 -3.97982 -3.57092 0
M  V30 8155 C 774.33 -4.96553 -1.61965 0
M  V30 8156 H 776.024 -2.92033 -0.660092 0
M  V30 8157 H 773.57 -1.40488 -0.316074 0
M  V30 8158 H 775.523 -2.85852 -3.09624 0
M  V30 8159 H 774.247 -1.64684 -2.8204 0
M  V30 8160 H 772.906 -3.33639 -1.51924 0
M  V30 8161 H 772.554 -3.07403 -3.98136 0
M  V30 8162 H 772.254 -4.7504 -3.45848 0
M  V30 8163 H 773.778 -4.33956 -4.29552 0
M  V30 8164 H 775.192 -5.28201 -2.22883 0
M  V30 8165 H 773.589 -5.7799 -1.61394 0
M  V30 8166 H 774.659 -4.81396 -0.581918 0
M  V30 8167 N 776.003 0.335068 -1.53997 0
M  V30 8168 C 777.414 0.910191 -1.6301 0
M  V30 8169 C 777.765 1.89271 -0.516809 0
M  V30 8170 O 776.89 2.13516 0.352123 0
M  V30 8171 C 777.485 1.65761 -2.9548 0
M  V30 8172 C 776.044 2.18163 -3.06728 0
M  V30 8173 C 775.191 1.00338 -2.5851 0
M  V30 8174 H 778.142 0.112965 -1.58297 0
M  V30 8175 H 778.163 2.52107 -2.84995 0
M  V30 8176 H 777.675 0.94227 -3.76488 0
M  V30 8177 H 775.776 2.92847 -2.30372 0
M  V30 8178 H 775.889 2.43952 -4.1234 0
M  V30 8179 H 774.253 1.37925 -2.14124 0
M  V30 8180 H 775.036 0.30254 -3.41964 0
M  V30 8181 N 777.481 1.45874 0.596531 0
M  V30 8182 C 778.721 1.52015 1.36641 0
M  V30 8183 C 779.085 0.16226 1.91313 0
M  V30 8184 O 780.286 0.0983889 2.6862 0
M  V30 8185 C 778.557 2.57776 2.4756 0
M  V30 8186 S 780.116 2.83223 3.35157 0
M  V30 8187 H 776.934 0.537251 0.465706 0
M  V30 8188 H 779.536 1.83024 0.687205 0
M  V30 8189 H 778.24 3.55091 2.05764 0
M  V30 8190 H 777.771 2.28455 3.20269 0
M  V30 8191 H 779.786 2.17442 4.4602 0
M  V30 8192 N 778.959 -0.83999 1.33349 0
M  V30 8193 C 779.906 -1.94972 1.23509 0
M  V30 8194 C 780.876 -1.65709 0.113967 0
M  V30 8195 O 782.061 -1.88552 0.292045 0
M  V30 8196 C 779.201 -3.30919 0.979105 0
M  V30 8197 C 778.314 -3.72587 2.18639 0
M  V30 8198 C 777.449 -4.97397 1.86465 0
M  V30 8199 C 776.488 -5.31597 3.03432 0
M  V30 8200 N 775.625 -6.47584 2.71254 0
M  V30 8201 H 780.465 -2.0272 2.18423 0
M  V30 8202 H 778.002 -0.992017 1.08616 0
M  V30 8203 H 779.96 -4.09239 0.811126 0
M  V30 8204 H 778.59 -3.22731 0.0667099 0
M  V30 8205 H 777.642 -2.89799 2.46416 0
M  V30 8206 H 778.954 -3.93844 3.06086 0
M  V30 8207 H 778.108 -5.83462 1.66305 0
M  V30 8208 H 776.847 -4.78107 0.96254 0
M  V30 8209 H 775.852 -4.44037 3.24208 0
M  V30 8210 H 777.077 -5.52836 3.94397 0
M  V30 8211 H 775.023 -6.29783 1.836 0
M  V30 8212 H 774.94 -6.68931 3.52231 0
M  V30 8213 H 776.208 -7.36764 2.54558 0
M  V30 8214 N 780.437 -1.16799 -1.0581 0
M  V30 8215 C 781.848 -0.95945 -1.60161 0
M  V30 8216 C 782.199 0.49543 -1.89842 0
M  V30 8217 O 781.324 1.36957 -1.67546 0
M  V30 8218 C 781.919 -1.73527 -2.90987 0
M  V30 8219 C 780.478 -1.57158 -3.42021 0
M  V30 8220 C 779.625 -1.74089 -2.15843 0
M  V30 8221 H 782.576 -1.31598 -0.886992 0
M  V30 8222 H 782.597 -1.21397 -3.60615 0
M  V30 8223 H 782.109 -2.79411 -2.69353 0
M  V30 8224 H 780.21 -0.537361 -3.68705 0
M  V30 8225 H 780.323 -2.35858 -4.17022 0
M  V30 8226 H 778.687 -1.16874 -2.26302 0
M  V30 8227 H 779.47 -2.81371 -1.96686 0
M  V30 8228 N 781.915 1.24427 -0.967243 0
M  V30 8229 C 783.163 1.92107 -0.627638 0
M  V30 8230 C 783.484 1.75991 0.83978 0
M  V30 8231 O 782.754 1.13118 1.59941 0
M  V30 8232 H 781.334 0.710986 -0.229145 0
M  V30 8233 H 783.996 1.51331 -1.22821 0
M  V30 8234 H 783.092 2.99791 -0.867844 0
M  V30 8235 N 783.393 0.737304 1.3929 0
M  V30 8236 C 784.325 0.0592106 2.29124 0
M  V30 8237 C 785.338 -0.701026 1.46934 0
M  V30 8238 O 786.527 -0.544808 1.69983 0
M  V30 8239 C 783.627 -0.940358 3.25592 0
M  V30 8240 C 782.8 -0.241163 4.36735 0
M  V30 8241 C 781.859 -1.14916 5.13498 0
M  V30 8242 O 780.885 -0.625783 5.6575 0
M  V30 8243 N 782.087 -2.47869 5.2492 0
M  V30 8244 H 784.852 0.830647 2.87959 0
M  V30 8245 H 782.413 0.586718 1.50895 0
M  V30 8246 H 784.405 -1.55046 3.73822 0
M  V30 8247 H 782.975 -1.61299 2.67771 0
M  V30 8248 H 782.195 0.549441 3.90352 0
M  V30 8249 H 783.483 0.243299 5.08218 0
M  V30 8250 H 782.881 -2.92864 4.83991 0
M  V30 8251 H 781.438 -3.03969 5.76581 0
M  V30 8252 N 784.871 -1.49948 0.485112 0
M  V30 8253 C 786.287 -1.58984 0.140096 0
M  V30 8254 C 786.487 -1.49194 -1.35438 0
M  V30 8255 O 785.543 -1.35765 -2.12894 0
M  V30 8256 C 786.856 -2.92372 0.702769 0
M  V30 8257 C 788.404 -3.05801 0.66745 0
M  V30 8258 C 788.879 -4.41785 1.20791 0
M  V30 8259 N 790.37 -4.48234 1.16792 0
M  V30 8260 C 791.105 -5.51871 1.55646 0
M  V30 8261 N 790.601 -6.62692 2.02016 0
M  V30 8262 N 792.394 -5.42494 1.47161 0
M  V30 8263 H 784.545 -1.54555 1.45693 0
M  V30 8264 H 786.808 -0.731206 0.603359 0
M  V30 8265 H 786.514 -3.05056 1.75025 0
M  V30 8266 H 786.388 -3.76885 0.154205 0
M  V30 8267 H 788.775 -2.92757 -0.371157 0
M  V30 8268 H 788.856 -2.23011 1.25298 0
M  V30 8269 H 788.5 -4.55579 2.24522 0
M  V30 8270 H 788.43 -5.23188 0.598464 0
M  V30 8271 H 790.921 -3.68718 0.827982 0
M  V30 8272 H 791.234 -7.3785 2.29775 0
M  V30 8273 H 789.579 -6.63775 2.05979 0
M  V30 8274 H 792.77 -4.54806 1.10765 0
M  V30 8275 H 792.943 -6.2314 1.77766 0
M  V30 8276 N 786.349 -0.21828 -1.56081 0
M  V30 8277 C 787.296 0.693189 -2.20144 0
M  V30 8278 C 788.266 1.19274 -1.15598 0
M  V30 8279 O 789.451 1.25243 -1.4394 0
M  V30 8280 C 786.591 1.89715 -2.88275 0
M  V30 8281 C 785.704 1.4368 -4.07407 0
M  V30 8282 C 784.839 2.59807 -4.63329 0
M  V30 8283 C 783.878 2.10492 -5.74769 0
M  V30 8284 N 783.015 3.1988 -6.24997 0
M  V30 8285 H 787.855 0.14016 -2.9767 0
M  V30 8286 H 785.392 0.0574292 -1.46988 0
M  V30 8287 H 787.35 2.60398 -3.25958 0
M  V30 8288 H 785.98 2.42311 -2.13273 0
M  V30 8289 H 785.032 0.625007 -3.7523 0
M  V30 8290 H 786.344 1.03517 -4.8794 0
M  V30 8291 H 785.498 3.38577 -5.03438 0
M  V30 8292 H 784.237 3.03256 -3.81951 0
M  V30 8293 H 783.242 1.30182 -5.34165 0
M  V30 8294 H 784.467 1.68045 -6.5798 0
M  V30 8295 H 782.413 3.62817 -5.46534 0
M  V30 8296 H 782.33 2.83958 -7.00645 0
M  V30 8297 H 783.598 3.98796 -6.69763 0
M  V30 8298 N 787.827 1.57504 0.0551401 0
M  V30 8299 C 788.774 2.04825 1.06373 0
M  V30 8300 C 789.744 0.932108 1.37481 0
M  V30 8301 O 790.929 1.20093 1.48265 0
M  V30 8302 C 788.069 2.51091 2.36743 0
M  V30 8303 C 787.182 3.76392 2.12021 0
M  V30 8304 C 786.317 4.11373 3.36074 0
M  V30 8305 C 785.356 5.29666 3.0679 0
M  V30 8306 N 784.493 5.60205 4.2322 0
M  V30 8307 H 789.333 2.90753 0.653216 0
M  V30 8308 H 786.87 1.43776 0.310951 0
M  V30 8309 H 788.828 2.75973 3.12881 0
M  V30 8310 H 787.458 1.68118 2.75565 0
M  V30 8311 H 786.51 3.58751 1.26498 0
M  V30 8312 H 787.822 4.62662 1.86401 0
M  V30 8313 H 786.976 4.37245 4.20597 0
M  V30 8314 H 785.715 3.23704 3.64784 0
M  V30 8315 H 784.72 5.03574 2.20664 0
M  V30 8316 H 785.945 6.18968 2.79385 0
M  V30 8317 H 783.891 4.75495 4.5193 0
M  V30 8318 H 783.808 6.40928 4.00933 0
M  V30 8319 H 785.076 5.90637 5.08692 0
M  V30 8320 N 789.305 -0.326896 1.54172 0
M  V30 8321 C 790.533 -1.08486 1.76177 0
M  V30 8322 C 790.948 -1.81815 0.508788 0
M  V30 8323 O 790.305 -1.74924 -0.520362 0
M  V30 8324 C 790.356 -2.08552 2.95276 0
M  V30 8325 O 790.077 -1.38202 4.15731 0
M  V30 8326 C 791.578 -2.96593 3.29466 0
M  V30 8327 H 788.798 -0.322835 0.588233 0
M  V30 8328 H 791.342 -0.374036 2.0105 0
M  V30 8329 H 789.497 -2.75174 2.72687 0
M  V30 8330 H 789.911 -2.05186 4.827 0
M  V30 8331 H 791.385 -3.62708 4.16109 0
M  V30 8332 H 791.862 -3.63511 2.46487 0
M  V30 8333 H 792.468 -2.35537 3.54122 0
M  V30 8334 N 790.784 -1.46188 -0.588786 0
M  V30 8335 C 791.716 -1.52319 -1.71265 0
M  V30 8336 C 792.729 -0.412096 -1.57498 0
M  V30 8337 O 793.918 -0.680146 -1.65034 0
M  V30 8338 C 791.018 -1.38164 -3.09458 0
M  V30 8339 C 790.191 -2.63284 -3.49286 0
M  V30 8340 C 789.25 -2.43415 -4.66514 0
M  V30 8341 O 788.276 -3.17113 -4.72682 0
M  V30 8342 N 789.478 -1.49187 -5.61002 0
M  V30 8343 H 792.243 -2.49219 -1.66463 0
M  V30 8344 H 789.804 -1.42167 -0.774601 0
M  V30 8345 H 791.796 -1.22653 -3.85666 0
M  V30 8346 H 790.366 -0.494678 -3.08661 0
M  V30 8347 H 789.586 -2.93779 -2.62845 0
M  V30 8348 H 790.874 -3.46413 -3.7266 0
M  V30 8349 H 790.272 -0.884027 -5.5875 0
M  V30 8350 H 788.829 -1.39642 -6.36666 0
M  V30 8351 N 792.262 0.832906 -1.33792 0
M  V30 8352 C 793.209 1.94314 -1.24541 0
M  V30 8353 C 794.179 1.65646 -0.122753 0
M  V30 8354 O 795.364 1.88394 -0.30204 0
M  V30 8355 C 792.504 3.30395 -0.996641 0
M  V30 8356 C 791.617 3.71422 -2.20612 0
M  V30 8357 C 790.752 4.96401 -1.89101 0
M  V30 8358 C 789.791 5.2998 -3.06247 0
M  V30 8359 N 788.928 6.46137 -2.74685 0
M  V30 8360 H 793.768 2.01559 -2.19495 0
M  V30 8361 H 791.305 0.986243 -1.09141 0
M  V30 8362 H 793.263 4.08803 -0.832817 0
M  V30 8363 H 791.893 3.22691 -0.0838242 0
M  V30 8364 H 790.945 2.88488 -2.47949 0
M  V30 8365 H 792.257 3.92215 -3.0817 0
M  V30 8366 H 791.411 5.82572 -1.69396 0
M  V30 8367 H 790.15 4.7759 -0.987882 0
M  V30 8368 H 789.155 4.42312 -3.26559 0
M  V30 8369 H 790.38 5.50737 -3.97323 0
M  V30 8370 H 788.326 6.28801 -1.86938 0
M  V30 8371 H 788.243 6.67054 -3.55774 0
M  V30 8372 H 789.511 7.35403 -2.58461 0
M  V30 8373 N 793.74 1.17359 1.05189 0
M  V30 8374 C 794.988 0.960087 1.77839 0
M  V30 8375 C 795.309 -0.512554 1.88143 0
M  V30 8376 O 794.579 -1.3721 1.39822 0
M  V30 8377 H 793.159 0.352234 0.658741 0
M  V30 8378 H 795.821 1.47834 1.27008 0
M  V30 8379 H 794.917 1.38843 2.79516 0
M  V30 8380 N 795.218 -1.23913 0.973828 0
M  V30 8381 C 796.446 -1.96195 0.656891 0
M  V30 8382 C 796.861 -1.72166 -0.774876 0
M  V30 8383 O 796.218 -1.0091 -1.52064 0
M  V30 8384 C 796.269 -3.49342 0.929638 0
M  V30 8385 O 795.99 -3.72553 2.30512 0
M  V30 8386 C 797.491 -4.38833 0.627739 0
M  V30 8387 H 794.711 -0.624841 0.244572 0
M  V30 8388 H 797.255 -1.57579 1.30343 0
M  V30 8389 H 795.41 -3.85999 0.329216 0
M  V30 8390 H 795.824 -4.66893 2.3898 0
M  V30 8391 H 797.298 -5.45117 0.868991 0
M  V30 8392 H 797.775 -4.37009 -0.438104 0
M  V30 8393 H 798.381 -4.07773 1.20834 0
M  V30 8394 N 796.696 -0.74468 -1.38897 0
M  V30 8395 C 798.107 -0.36568 -1.83084 0
M  V30 8396 C 798.458 1.10436 -1.62168 0
M  V30 8397 O 797.583 1.85281 -1.11804 0
M  V30 8398 C 798.178 -0.656946 -3.3237 0
M  V30 8399 C 796.737 -0.331329 -3.74939 0
M  V30 8400 C 795.884 -0.914661 -2.61781 0
M  V30 8401 H 798.835 -0.941551 -1.27752 0
M  V30 8402 H 798.856 0.0679546 -3.80439 0
M  V30 8403 H 798.368 -1.72693 -3.47561 0
M  V30 8404 H 796.469 0.732426 -3.6533 0
M  V30 8405 H 796.582 -0.820655 -4.72019 0
M  V30 8406 H 794.946 -0.34063 -2.52412 0
M  V30 8407 H 795.729 -1.98949 -2.79775 0
M  V30 8408 N 798.174 1.49689 -0.493057 0
M  V30 8409 C 799.414 2.04332 0.0527374 0
M  V30 8410 C 799.778 1.36522 1.35003 0
M  V30 8411 O 800.979 1.81842 1.97957 0
M  V30 8412 C 799.25 3.56782 0.210044 0
M  V30 8413 S 800.809 4.32998 0.711232 0
M  V30 8414 H 797.627 0.710978 0.00554853 0
M  V30 8415 H 800.229 1.83835 -0.665213 0
M  V30 8416 H 798.933 4.03681 -0.739566 0
M  V30 8417 H 798.464 3.81671 0.953468 0
M  V30 8418 H 800.479 4.54916 1.98156 0
M  V30 8419 N 799.652 0.226554 1.55963 0
M  V30 8420 C 800.892 -0.405574 2.00336 0
M  V30 8421 C 801.256 -1.56593 1.11097 0
M  V30 8422 O 802.457 -2.26441 1.44838 0
M  V30 8423 C 800.728 -0.82435 3.47763 0
M  V30 8424 S 802.287 -1.44988 4.14154 0
M  V30 8425 H 799.105 -0.128512 0.699289 0
M  V30 8426 H 801.707 0.337017 1.92573 0
M  V30 8427 H 800.411 0.0297636 4.10389 0
M  V30 8428 H 799.942 -1.59963 3.5941 0
M  V30 8429 H 801.957 -2.73897 4.13757 0
M  V30 8430 N 801.13 -1.57531 -0.0467866 0
M  V30 8431 C 802.376 -1.89584 -0.736837 0
M  V30 8432 C 802.731 -0.82317 -1.73901 0
M  V30 8433 O 802.024 0.170098 -1.90843 0
M  V30 8434 C 802.218 -3.26091 -1.46285 0
M  V30 8435 C 802.047 -4.46536 -0.532502 0
M  V30 8436 C 800.817 -5.05046 -0.160109 0
M  V30 8437 C 803.015 -5.13979 0.181555 0
M  V30 8438 N 800.997 -6.09009 0.773349 0
M  V30 8439 C 802.368 -6.12345 0.971297 0
M  V30 8440 C 804.423 -4.9727 0.250382 0
M  V30 8441 C 803.126 -6.95802 1.82351 0
M  V30 8442 C 805.152 -5.81275 1.08965 0
M  V30 8443 C 804.514 -6.79197 1.86737 0
M  V30 8444 H 800.613 -0.742868 -0.244277 0
M  V30 8445 H 803.197 -1.947 0.0025481 0
M  V30 8446 H 801.368 -3.21938 -2.1728 0
M  V30 8447 H 803.1 -3.45715 -2.10389 0
M  V30 8448 H 799.855 -4.70754 -0.518457 0
M  V30 8449 H 800.279 -6.65658 1.23406 0
M  V30 8450 H 804.921 -4.21458 -0.336578 0
M  V30 8451 H 802.639 -7.70971 2.42134 0
M  V30 8452 H 806.225 -5.70397 1.14621 0
M  V30 8453 H 805.105 -7.4307 2.50631 0
M  V30 8454 N 802.608 0.318715 -1.54344 0
M  V30 8455 C 803.836 1.0755 -1.7675 0
M  V30 8456 C 804.251 1.81543 -0.518422 0
M  V30 8457 O 803.608 1.75198 0.511078 0
M  V30 8458 C 803.659 2.06983 -2.96378 0
M  V30 8459 O 803.38 1.35995 -4.16458 0
M  V30 8460 C 804.881 2.94841 -3.31034 0
M  V30 8461 H 802.101 0.319711 -0.589937 0
M  V30 8462 H 804.645 0.363369 -2.01246 0
M  V30 8463 H 802.8 2.73724 -2.74142 0
M  V30 8464 H 803.214 2.02623 -4.83781 0
M  V30 8465 H 804.688 3.60496 -4.18027 0
M  V30 8466 H 805.165 3.62199 -2.48412 0
M  V30 8467 H 805.771 2.33656 -3.55366 0
M  V30 8468 N 804.086 1.46499 0.581025 0
M  V30 8469 C 805.326 1.53456 1.35021 0
M  V30 8470 C 805.69 0.182542 1.9113 0
M  V30 8471 O 806.891 0.126874 2.685 0
M  V30 8472 C 805.162 2.60387 2.44812 0
M  V30 8473 S 806.721 2.86762 3.32134 0
M  V30 8474 H 803.539 0.54216 0.459982 0
M  V30 8475 H 806.141 1.83742 0.667754 0
M  V30 8476 H 804.845 3.57253 2.01986 0
M  V30 8477 H 804.376 2.31839 3.17828 0
M  V30 8478 H 806.391 2.2216 4.43688 0
M  V30 8479 N 805.565 -0.825799 1.34232 0
M  V30 8480 C 806.475 -1.9684 1.27638 0
M  V30 8481 C 807.491 -1.73018 0.184569 0
M  V30 8482 O 808.667 -1.97172 0.410525 0
M  V30 8483 C 805.732 -3.31084 1.02879 0
M  V30 8484 C 804.793 -3.67933 2.21188 0
M  V30 8485 C 804.026 -4.95772 1.976 0
M  V30 8486 O 804.249 -5.62721 0.93281 0
M  V30 8487 O 803.183 -5.30431 2.84477 0
M  V30 8488 H 807.009 -2.05346 2.23756 0
M  V30 8489 H 804.594 -0.960772 1.1441 0
M  V30 8490 H 806.476 -4.11492 0.908406 0
M  V30 8491 H 805.151 -3.23552 0.0979821 0
M  V30 8492 H 804.058 -2.87981 2.38784 0
M  V30 8493 H 805.391 -3.80147 3.12648 0
M  V30 8494 N 807.043 -1.17915 -1.04565 0
M  V30 8495 C 808.454 -0.976383 -1.59134 0
M  V30 8496 C 808.805 0.475267 -1.90357 0
M  V30 8497 O 807.93 1.35172 -1.6899 0
M  V30 8498 C 808.525 -1.76604 -2.89131 0
M  V30 8499 C 807.084 -1.60777 -3.40335 0
M  V30 8500 C 806.231 -1.76369 -2.13985 0
M  V30 8501 H 809.182 -1.32532 -0.872985 0
M  V30 8502 H 809.203 -1.25215 -3.59307 0
M  V30 8503 H 808.715 -2.82252 -2.66375 0
M  V30 8504 H 806.816 -0.576436 -3.68114 0
M  V30 8505 H 806.929 -2.40268 -4.14497 0
M  V30 8506 H 805.293 -1.19268 -2.25049 0
M  V30 8507 H 806.076 -2.83441 -1.9369 0
M  V30 8508 N 808.521 1.23394 -0.980386 0
M  V30 8509 C 809.761 1.93543 -0.657288 0
M  V30 8510 C 810.125 1.74791 0.794477 0
M  V30 8511 O 811.326 2.39089 1.2284 0
M  V30 8512 C 809.597 3.42025 -1.03701 0
M  V30 8513 S 811.156 4.30871 -0.830379 0
M  V30 8514 H 807.974 0.669012 -0.240717 0
M  V30 8515 H 810.576 1.49478 -1.26002 0
M  V30 8516 H 809.28 3.53183 -2.09022 0
M  V30 8517 H 808.811 3.91091 -0.425559 0
M  V30 8518 H 810.826 4.95377 0.285719 0
M  V30 8519 N 809.999 0.752036 1.385 0
M  V30 8520 C 811.276 0.233075 1.94206 0
M  V30 8521 C 811.656 -1.26838 1.68746 0
M  V30 8522 O 811.004 -2.04214 1.02513 0
M  V30 8523 C 811.214 0.58509 3.44061 0
M  V30 8524 C 812.562 0.543871 4.21102 0
M  V30 8525 O 813.586 0.523291 3.52335 0
M  V30 8526 O 812.445 0.553436 5.4369 0
M  V30 8527 H 809.539 0.0483049 0.825588 0
M  V30 8528 H 812.085 0.832053 1.47902 0
M  V30 8529 H 810.857 1.62212 3.56094 0
M  V30 8530 H 810.48 -0.0419738 3.97578 0
M  V30 8531 N 811.477 -1.49425 0.500989 0
M  V30 8532 C 812.725 -2.02053 -0.0434495 0
M  V30 8533 C 813.046 -1.38285 -1.37486 0
M  V30 8534 O 812.316 -0.538171 -1.88363 0
M  V30 8535 H 810.896 -0.746757 -0.0190469 0
M  V30 8536 H 813.558 -1.83449 0.658227 0
M  V30 8537 H 812.654 -3.11619 -0.173129 0
M  V30 8538 N 812.955 -0.234822 -1.55841 0
M  V30 8539 C 814.185 0.397168 -2.02746 0
M  V30 8540 C 814.593 1.52951 -1.11367 0
M  V30 8541 O 813.936 1.8332 -0.118133 0
M  V30 8542 C 813.998 0.977748 -3.45948 0
M  V30 8543 C 813.662 -0.0208193 -4.56995 0
M  V30 8544 C 814.659 -0.826015 -5.13296 0
M  V30 8545 C 812.344 -0.143416 -5.02095 0
M  V30 8546 C 814.338 -1.74038 -6.1318 0
M  V30 8547 C 812.025 -1.0613 -6.01814 0
M  V30 8548 C 813.023 -1.85832 -6.57233 0
M  V30 8549 O 812.711 -2.76075 -7.55008 0
M  V30 8550 H 812.443 0.0999802 -0.668566 0
M  V30 8551 H 814.997 -0.352673 -2.0235 0
M  V30 8552 H 813.227 1.77693 -3.43456 0
M  V30 8553 H 814.916 1.51854 -3.76424 0
M  V30 8554 H 815.682 -0.741822 -4.79293 0
M  V30 8555 H 811.561 0.466857 -4.5863 0
M  V30 8556 H 815.105 -2.36291 -6.56363 0
M  V30 8557 H 811.002 -1.14646 -6.35237 0
M  V30 8558 H 811.77 -2.703 -7.7258 0
M  V30 8559 N 814.433 1.57553 0.0384317 0
M  V30 8560 C 815.365 2.02726 1.06934 0
M  V30 8561 C 816.378 0.938502 1.33026 0
M  V30 8562 O 817.567 1.21595 1.30678 0
M  V30 8563 C 814.667 2.37958 2.41308 0
M  V30 8564 C 813.84 3.69098 2.34703 0
M  V30 8565 C 812.899 3.91623 3.51451 0
M  V30 8566 O 811.925 4.628 3.31368 0
M  V30 8567 N 813.127 3.36538 4.72993 0
M  V30 8568 H 815.892 2.91781 0.684381 0
M  V30 8569 H 813.453 1.60307 0.226542 0
M  V30 8570 H 815.445 2.50172 3.18113 0
M  V30 8571 H 814.015 1.54621 2.71682 0
M  V30 8572 H 813.235 3.67325 1.43059 0
M  V30 8573 H 814.523 4.55144 2.27424 0
M  V30 8574 H 813.921 2.78828 4.92211 0
M  V30 8575 H 812.478 3.54148 5.47195 0
M  V30 8576 N 815.911 -0.310526 1.54511 0
M  V30 8577 C 817.141 -1.06456 1.77061 0
M  V30 8578 C 817.549 -1.81755 0.525528 0
M  V30 8579 O 816.892 -1.76365 -0.513904 0
M  V30 8580 C 816.954 -2.09856 2.91892 0
M  V30 8581 C 816.618 -1.53838 4.30329 0
M  V30 8582 C 817.615 -0.973358 5.10707 0
M  V30 8583 C 815.3 -1.57688 4.76906 0
M  V30 8584 C 817.294 -0.454283 6.35779 0
M  V30 8585 C 814.981 -1.05393 6.01943 0
M  V30 8586 C 815.979 -0.493595 6.81214 0
M  V30 8587 O 815.667 0.0214506 8.03897 0
M  V30 8588 H 815.399 -0.321913 0.594431 0
M  V30 8589 H 817.953 -0.358289 2.02251 0
M  V30 8590 H 816.183 -2.84137 2.62304 0
M  V30 8591 H 817.872 -2.71085 3.02106 0
M  V30 8592 H 818.638 -0.936588 4.75871 0
M  V30 8593 H 814.517 -2.00242 4.1524 0
M  V30 8594 H 818.061 -0.0162657 6.97598 0
M  V30 8595 H 813.958 -1.08782 6.36268 0
M  V30 8596 H 814.726 -0.0927478 8.18447 0
M  V30 8597 N 817.389 -1.46805 -0.573248 0
M  V30 8598 C 818.321 -1.54127 -1.6964 0
M  V30 8599 C 819.334 -0.428778 -1.57052 0
M  V30 8600 O 820.523 -0.697612 -1.64303 0
M  V30 8601 C 817.623 -1.41438 -3.07975 0
M  V30 8602 C 816.796 -2.66974 -3.46474 0
M  V30 8603 C 815.855 -2.48349 -4.63906 0
M  V30 8604 O 814.881 -3.22109 -4.69292 0
M  V30 8605 N 816.083 -1.55129 -5.59388 0
M  V30 8606 H 818.848 -2.50971 -1.6381 0
M  V30 8607 H 816.409 -1.42981 -0.759479 0
M  V30 8608 H 818.401 -1.26737 -3.84343 0
M  V30 8609 H 816.971 -0.527388 -3.08119 0
M  V30 8610 H 816.191 -2.9655 -2.59715 0
M  V30 8611 H 817.479 -3.50347 -3.68964 0
M  V30 8612 H 816.877 -0.94324 -5.57781 0
M  V30 8613 H 815.434 -1.46387 -6.35149 0
M  V30 8614 N 818.867 0.818669 -1.34668 0
M  V30 8615 C 820.114 1.57512 -1.27264 0
M  V30 8616 C 820.442 1.93871 0.156254 0
M  V30 8617 O 819.697 1.60582 1.11857 0
M  V30 8618 C 819.996 2.88245 -2.11304 0
M  V30 8619 C 819.662 2.71159 -3.60255 0
M  V30 8620 C 818.324 2.66207 -4.00858 0
M  V30 8621 C 820.676 2.54538 -4.54819 0
M  V30 8622 C 818.004 2.4256 -5.34211 0
M  V30 8623 C 820.356 2.32421 -5.88356 0
M  V30 8624 C 819.02 2.25884 -6.28118 0
M  V30 8625 H 818.29 0.576378 -0.465692 0
M  V30 8626 H 820.937 0.9469 -1.66451 0
M  V30 8627 H 819.242 3.55381 -1.64958 0
M  V30 8628 H 820.939 3.45869 -2.02919 0
M  V30 8629 H 817.529 2.75856 -3.28027 0
M  V30 8630 H 821.713 2.57384 -4.24343 0
M  V30 8631 H 816.969 2.35959 -5.64033 0
M  V30 8632 H 821.143 2.18548 -6.61218 0
M  V30 8633 H 818.77 2.07322 -7.31383 0
M  V30 8634 N 820.346 1.18468 1.03938 0
M  V30 8635 C 821.623 0.890435 1.74157 0
M  V30 8636 C 822.003 -0.606409 2.02203 0
M  V30 8637 O 821.351 -1.5615 1.66822 0
M  V30 8638 C 821.561 1.73906 3.02585 0
M  V30 8639 C 822.909 1.96686 3.76297 0
M  V30 8640 O 823.933 1.70969 3.12487 0
M  V30 8641 O 822.792 2.39986 4.90988 0
M  V30 8642 H 819.886 0.330889 0.757919 0
M  V30 8643 H 822.432 1.29228 1.09992 0
M  V30 8644 H 821.204 2.75369 2.78006 0
M  V30 8645 H 820.827 1.33581 3.74489 0
M  V30 8646 N 821.824 -1.22873 0.986916 0
M  V30 8647 C 822.734 -2.28277 0.540978 0
M  V30 8648 C 823.75 -1.69164 -0.407363 0
M  V30 8649 O 824.926 -1.99504 -0.275674 0
M  V30 8650 C 821.991 -3.46404 -0.143181 0
M  V30 8651 C 821.052 -4.20854 0.847375 0
M  V30 8652 C 820.285 -5.33341 0.19577 0
M  V30 8653 O 820.508 -5.61356 -1.0117 0
M  V30 8654 O 819.442 -5.95169 0.897623 0
M  V30 8655 H 823.268 -2.68578 1.41773 0
M  V30 8656 H 820.853 -1.28927 0.754867 0
M  V30 8657 H 822.735 -4.18096 -0.526676 0
M  V30 8658 H 821.41 -3.08041 -0.994593 0
M  V30 8659 H 820.317 -3.51459 1.28169 0
M  V30 8660 H 821.65 -4.63082 1.6678 0
M  V30 8661 N 823.302 -0.75937 -1.38099 0
M  V30 8662 C 824.235 -0.0838362 -2.28046 0
M  V30 8663 C 825.213 0.722229 -1.4568 0
M  V30 8664 O 826.397 0.699629 -1.75036 0
M  V30 8665 C 823.524 0.887916 -3.26854 0
M  V30 8666 C 822.57 0.167374 -4.26171 0
M  V30 8667 S 823.403 -1.13592 -5.23314 0
M  V30 8668 C 824.559 -0.167385 -6.25676 0
M  V30 8669 H 824.792 -0.846564 -2.84992 0
M  V30 8670 H 822.325 -0.552206 -1.44188 0
M  V30 8671 H 824.283 1.44322 -3.84293 0
M  V30 8672 H 822.944 1.62366 -2.68879 0
M  V30 8673 H 822.137 0.903567 -4.95834 0
M  V30 8674 H 821.739 -0.316572 -3.72658 0
M  V30 8675 H 824.031 0.664598 -6.74232 0
M  V30 8676 H 824.974 -0.831836 -7.03197 0
M  V30 8677 H 825.382 0.21589 -5.64087 0
M  V30 8678 N 824.78 1.49157 -0.508906 0
M  V30 8679 C 826.008 2.06879 0.0293734 0
M  V30 8680 C 826.423 1.36823 1.30095 0
M  V30 8681 O 825.78 0.449034 1.7689 0
M  V30 8682 C 825.831 3.60423 0.278791 0
M  V30 8683 O 825.552 4.27844 -0.942389 0
M  V30 8684 C 827.053 4.34881 0.859825 0
M  V30 8685 H 824.273 0.67057 -0.0240184 0
M  V30 8686 H 826.817 1.91834 -0.708526 0
M  V30 8687 H 824.972 3.75145 0.966689 0
M  V30 8688 H 825.386 5.19671 -0.710097 0
M  V30 8689 H 826.86 5.43161 0.983884 0
M  V30 8690 H 827.337 3.9789 1.85958 0
M  V30 8691 H 827.943 4.24785 0.209152 0
M  V30 8692 N 826.258 0.243083 1.55714 0
M  V30 8693 C 827.498 -0.384303 2.00755 0
M  V30 8694 C 827.862 -1.55406 1.12752 0
M  V30 8695 O 829.063 -2.24892 1.47231 0
M  V30 8696 C 827.334 -0.787419 3.48618 0
M  V30 8697 S 828.893 -1.40587 4.15669 0
M  V30 8698 H 825.711 -0.121088 0.700613 0
M  V30 8699 H 828.313 0.357423 1.92205 0
M  V30 8700 H 827.017 0.0732892 4.10335 0
M  V30 8701 H 826.548 -1.56142 3.61086 0
M  V30 8702 H 828.563 -2.69493 4.16639 0
M  V30 8703 N 827.736 -1.57571 -0.0300757 0
M  V30 8704 C 828.668 -2.0329 -1.05857 0
M  V30 8705 C 829.681 -0.945543 -1.32527 0
M  V30 8706 O 830.87 -1.22287 -1.30032 0
M  V30 8707 C 827.97 -2.39234 -2.40042 0
M  V30 8708 C 827.143 -3.70337 -2.32743 0
M  V30 8709 C 826.202 -3.93482 -3.49369 0
M  V30 8710 O 825.228 -4.64551 -3.28909 0
M  V30 8711 N 826.43 -3.39042 -4.71201 0
M  V30 8712 H 829.195 -2.9214 -0.668897 0
M  V30 8713 H 826.756 -1.60425 -0.218038 0
M  V30 8714 H 828.748 -2.51856 -3.16782 0
M  V30 8715 H 827.318 -1.5606 -2.70858 0
M  V30 8716 H 826.538 -3.68079 -1.41109 0
M  V30 8717 H 827.826 -4.56343 -2.25007 0
M  V30 8718 H 827.224 -2.81434 -4.90725 0
M  V30 8719 H 825.781 -3.57045 -5.45309 0
M  V30 8720 N 829.214 0.302327 -1.54673 0
M  V30 8721 C 830.164 1.37443 -1.81916 0
M  V30 8722 C 831.148 1.45999 -0.676251 0
M  V30 8723 O 832.34 1.50174 -0.93685 0
M  V30 8724 C 829.469 2.73966 -2.06876 0
M  V30 8725 C 828.555 2.69637 -3.27348 0
M  V30 8726 N 828.946 2.34926 -4.47933 0
M  V30 8727 C 827.244 3.00742 -3.29348 0
M  V30 8728 C 827.945 2.39862 -5.29944 0
M  V30 8729 N 826.921 2.77163 -4.67634 0
M  V30 8730 H 830.723 1.09567 -2.72713 0
M  V30 8731 H 828.237 0.5109 -1.54154 0
M  V30 8732 H 830.234 3.51265 -2.2454 0
M  V30 8733 H 828.894 3.02754 -1.17346 0
M  V30 8734 H 829.905 2.07403 -4.74557 0
M  V30 8735 H 826.582 3.34434 -2.49921 0
M  V30 8736 H 827.972 2.15835 -6.3629 0
M  V30 8737 N 830.692 1.47107 0.565454 0
M  V30 8738 C 831.932 1.5488 1.33385 0
M  V30 8739 C 832.296 0.202804 1.90926 0
M  V30 8740 O 833.497 0.155345 2.68351 0
M  V30 8741 C 831.768 2.62969 2.42037 0
M  V30 8742 S 833.327 2.90269 3.29074 0
M  V30 8743 H 830.145 0.547008 0.454206 0
M  V30 8744 H 832.747 1.8444 0.648228 0
M  V30 8745 H 831.451 3.59376 1.98185 0
M  V30 8746 H 830.982 2.35197 3.15351 0
M  V30 8747 H 832.997 2.26854 4.41307 0
M  V30 8748 N 832.17 -0.811516 1.35101 0
M  V30 8749 C 833.581 -1.38515 1.25182 0
M  V30 8750 C 833.932 -1.95846 -0.117883 0
M  V30 8751 O 833.057 -1.90925 -1.01866 0
M  V30 8752 C 833.652 -2.51813 2.26662 0
M  V30 8753 C 832.211 -3.05052 2.20499 0
M  V30 8754 C 831.358 -1.77987 2.12641 0
M  V30 8755 H 834.309 -0.614959 1.46301 0
M  V30 8756 H 834.33 -3.30228 1.89023 0
M  V30 8757 H 833.842 -2.10057 3.2634 0
M  V30 8758 H 831.943 -3.51285 1.24215 0
M  V30 8759 H 832.056 -3.63368 3.1225 0
M  V30 8760 H 830.42 -1.99342 1.5854 0
M  V30 8761 H 831.203 -1.38389 3.14171 0
M  V30 8762 N 833.648 -1.19017 -1.03309 0
M  V30 8763 C 834.878 -1.01387 -1.80012 0
M  V30 8764 C 835.286 0.440655 -1.83997 0
M  V30 8765 O 834.629 1.31786 -1.27977 0
M  V30 8766 C 834.691 -1.50171 -3.26633 0
M  V30 8767 C 834.355 -2.98213 -3.46292 0
M  V30 8768 C 835.352 -3.96009 -3.36857 0
M  V30 8769 C 833.037 -3.36812 -3.72643 0
M  V30 8770 C 835.031 -5.30399 -3.5349 0
M  V30 8771 C 832.718 -4.71363 -3.88922 0
M  V30 8772 C 833.716 -5.67966 -3.79347 0
M  V30 8773 O 833.404 -7.00079 -3.95151 0
M  V30 8774 H 833.136 -0.357899 -0.573484 0
M  V30 8775 H 835.69 -1.58171 -1.31039 0
M  V30 8776 H 833.92 -0.877586 -3.7661 0
M  V30 8777 H 835.609 -1.28814 -3.84918 0
M  V30 8778 H 836.375 -3.67534 -3.16455 0
M  V30 8779 H 832.254 -2.62175 -3.7919 0
M  V30 8780 H 835.798 -6.05786 -3.45933 0
M  V30 8781 H 831.695 -4.99536 -4.0882 0
M  V30 8782 H 832.463 -7.07092 -4.12266 0
M  V30 8783 N 835.127 1.22348 -0.993418 0
M  V30 8784 C 836.404 1.86632 -0.585495 0
M  V30 8785 C 836.784 1.89156 0.937187 0
M  V30 8786 O 836.132 1.38247 1.81934 0
M  V30 8787 C 836.342 3.27481 -1.20652 0
M  V30 8788 C 837.69 4.03971 -1.30738 0
M  V30 8789 O 838.714 3.3675 -1.16096 0
M  V30 8790 O 837.573 5.24302 -1.54173 0
M  V30 8791 H 834.667 0.802704 -0.198984 0
M  V30 8792 H 837.213 1.30122 -1.08933 0
M  V30 8793 H 835.985 3.20281 -2.24802 0
M  V30 8794 H 835.608 3.91597 -0.688312 0
M  V30 8795 N 836.605 0.766683 1.37694 0
M  V30 8796 C 837.537 0.107798 2.28946 0
M  V30 8797 C 838.55 -0.669701 1.48387 0
M  V30 8798 O 839.739 -0.508629 1.711 0
M  V30 8799 C 836.839 -0.871084 3.27514 0
M  V30 8800 C 836.012 -0.148471 4.37148 0
M  V30 8801 C 835.071 -1.03998 5.1582 0
M  V30 8802 O 834.097 -0.505639 5.6695 0
M  V30 8803 N 835.299 -2.36679 5.3006 0
M  V30 8804 H 838.064 0.89154 2.86132 0
M  V30 8805 H 835.625 0.618593 1.49616 0
M  V30 8806 H 837.617 -1.47081 3.77027 0
M  V30 8807 H 836.187 -1.55582 2.71133 0
M  V30 8808 H 835.407 0.632117 3.89099 0
M  V30 8809 H 836.695 0.351045 5.07588 0
M  V30 8810 H 836.093 -2.82532 4.90094 0
M  V30 8811 H 834.65 -2.9167 5.82899 0
M  V30 8812 N 838.083 -1.48885 0.516809 0
M  V30 8813 C 839.499 -1.58651 0.173788 0
M  V30 8814 C 839.699 -1.52033 -1.32243 0
M  V30 8815 O 838.755 -1.40251 -2.09967 0
M  V30 8816 C 840.068 -2.90816 0.764628 0
M  V30 8817 C 841.616 -3.04316 0.732164 0
M  V30 8818 C 842.091 -4.39123 1.30135 0
M  V30 8819 N 843.582 -4.45656 1.26273 0
M  V30 8820 C 844.317 -5.48446 1.67317 0
M  V30 8821 N 843.813 -6.58258 2.16028 0
M  V30 8822 N 845.606 -5.39251 1.58635 0
M  V30 8823 H 837.757 -1.5143 1.48939 0
M  V30 8824 H 840.02 -0.718243 0.618733 0
M  V30 8825 H 839.726 -3.01275 1.81456 0
M  V30 8826 H 839.6 -3.76473 0.234113 0
M  V30 8827 H 841.987 -2.93478 -0.308975 0
M  V30 8828 H 842.068 -2.20303 1.3 0
M  V30 8829 H 841.712 -4.50714 2.34135 0
M  V30 8830 H 841.642 -5.21801 0.709305 0
M  V30 8831 H 844.133 -3.66879 0.906006 0
M  V30 8832 H 844.446 -7.32811 2.45374 0
M  V30 8833 H 842.791 -6.59257 2.20013 0
M  V30 8834 H 845.982 -4.52354 1.20387 0
M  V30 8835 H 846.155 -6.19229 1.90944 0
M  V30 8836 N 839.561 -0.251338 -1.55583 0
M  V30 8837 C 840.972 0.25098 -1.85005 0
M  V30 8838 C 841.323 1.57259 -1.17321 0
M  V30 8839 O 840.448 2.11603 -0.453136 0
M  V30 8840 C 841.043 0.462161 -3.35633 0
M  V30 8841 C 839.602 0.908737 -3.65266 0
M  V30 8842 C 838.749 -0.0115418 -2.77298 0
M  V30 8843 H 841.7 -0.473782 -1.51463 0
M  V30 8844 H 841.721 1.30415 -3.57452 0
M  V30 8845 H 841.233 -0.499886 -3.84867 0
M  V30 8846 H 839.334 1.8831 -3.21512 0
M  V30 8847 H 839.447 0.762526 -4.72993 0
M  V30 8848 H 837.811 0.500612 -2.49732 0
M  V30 8849 H 838.594 -0.969042 -3.29339 0
M  V30 8850 N 841.039 1.57585 0.0217189 0
M  V30 8851 C 841.987 2.08134 1.03842 0
M  V30 8852 C 842.981 0.996662 1.36978 0
M  V30 8853 O 844.187 1.18149 1.35797 0
M  V30 8854 H 840.562 0.664298 0.352438 0
M  V30 8855 H 842.533 2.92583 0.58634 0
M  V30 8856 C 841.282 2.58218 2.32849 0
M  V30 8857 H 840.605 3.41302 2.08214 0
M  V30 8858 H 842.045 2.97289 3.02316 0
M  V30 8859 C 840.504 1.48664 3.02325 0
M  V30 8860 O 841.034 0.857075 3.9245 0
M  V30 8861 N 839.24 1.21938 2.63779 0
M  V30 8862 H 838.787 1.73319 1.90574 0
M  V30 8863 H 838.745 0.488523 3.10581 0
M  V30 8864 N 842.517 -0.29412 1.54831 0
M  V30 8865 C 843.427 -1.3854 1.89325 0
M  V30 8866 C 844.443 -1.55127 0.788133 0
M  V30 8867 O 845.619 -1.6966 1.08524 0
M  V30 8868 C 842.684 -2.72809 2.13954 0
M  V30 8869 C 841.745 -2.65148 3.37631 0
M  V30 8870 C 840.978 -3.93014 3.61076 0
M  V30 8871 O 841.201 -4.927 2.87406 0
M  V30 8872 O 840.135 -3.94491 4.54599 0
M  V30 8873 H 843.961 -1.12289 2.82179 0
M  V30 8874 H 841.546 -0.490793 1.41108 0
M  V30 8875 H 843.428 -3.52238 2.31315 0
M  V30 8876 H 842.103 -2.9889 1.24285 0
M  V30 8877 H 841.01 -1.84168 3.25627 0
M  V30 8878 H 842.343 -2.4402 4.27452 0
M  V30 8879 N 843.995 -1.47404 -0.557645 0
M  V30 8880 C 844.943 -1.60265 -1.68576 0
M  V30 8881 C 845.937 -0.469982 -1.6275 0
M  V30 8882 O 847.143 -0.647764 -1.67941 0
M  V30 8883 H 843.518 -0.504353 -0.557792 0
M  V30 8884 H 845.489 -2.55066 -1.54867 0
M  V30 8885 C 844.238 -1.63369 -3.0693 0
M  V30 8886 H 843.561 -2.49874 -3.12095 0
M  V30 8887 H 845.001 -1.76417 -3.85556 0
M  V30 8888 C 843.46 -0.366921 -3.34896 0
M  V30 8889 O 843.99 0.53218 -3.98159 0
M  V30 8890 N 842.196 -0.247082 -2.89548 0
M  V30 8891 H 841.743 -0.979669 -2.38244 0
M  V30 8892 H 841.701 0.599552 -3.0863 0
M  V30 8893 N 845.473 0.80434 -1.35529 0
M  V30 8894 C 846.889 1.10023 -1.15616 0
M  V30 8895 C 847.089 2.01478 0.0298535 0
M  V30 8896 O 846.145 2.42609 0.699778 0
M  V30 8897 C 847.458 1.72905 -2.46017 0
M  V30 8898 C 849.006 1.85315 -2.52245 0
M  V30 8899 C 849.481 2.51612 -3.82695 0
M  V30 8900 N 850.972 2.59095 -3.83958 0
M  V30 8901 C 851.707 3.11167 -4.81625 0
M  V30 8902 N 851.203 3.63659 -5.89681 0
M  V30 8903 N 852.996 3.09741 -4.6906 0
M  V30 8904 H 845.147 0.196428 -2.1149 0
M  V30 8905 H 847.41 0.149735 -0.9361 0
M  V30 8906 H 847.116 1.13171 -3.32994 0
M  V30 8907 H 846.99 2.72579 -2.6073 0
M  V30 8908 H 849.377 2.44191 -1.65695 0
M  V30 8909 H 849.458 0.844886 -2.41444 0
M  V30 8910 H 849.102 1.93385 -4.69643 0
M  V30 8911 H 849.032 3.5298 -3.90785 0
M  V30 8912 H 851.523 2.21908 -3.05884 0
M  V30 8913 H 851.836 4.01699 -6.60195 0
M  V30 8914 H 850.181 3.61852 -5.9337 0
M  V30 8915 H 853.372 2.68011 -3.83781 0
M  V30 8916 H 853.545 3.50016 -5.45338 0
M  V30 8917 N 846.951 1.19563 1.02676 0
M  V30 8918 C 848.179 1.02488 1.79732 0
M  V30 8919 C 848.594 -0.426302 1.83924 0
M  V30 8920 O 847.951 -1.29609 1.28483 0
M  V30 8921 C 848.002 1.58944 3.24683 0
M  V30 8922 O 847.723 2.98382 3.2078 0
M  V30 8923 C 849.224 1.46681 4.1833 0
M  V30 8924 H 846.444 0.361098 0.565552 0
M  V30 8925 H 848.988 1.58426 1.29311 0
M  V30 8926 H 847.143 1.0715 3.72287 0
M  V30 8927 H 847.557 3.24983 4.11687 0
M  V30 8928 H 849.031 1.90959 5.17918 0
M  V30 8929 H 849.508 0.417663 4.3721 0
M  V30 8930 H 850.114 1.97616 3.76601 0
M  V30 8931 N 848.429 -1.21819 0.999893 0
M  V30 8932 C 849.677 -1.90375 0.678351 0
M  V30 8933 C 849.998 -1.78155 -0.792824 0
M  V30 8934 O 849.268 -1.17319 -1.56885 0
M  V30 8935 H 847.848 -0.704661 0.247915 0
M  V30 8936 H 850.51 -1.48021 1.2679 0
M  V30 8937 H 849.606 -2.97385 0.947023 0
M  V30 8938 N 849.908 -0.773975 -1.37286 0
M  V30 8939 C 851.148 -0.344505 -2.01476 0
M  V30 8940 C 851.512 1.05966 -1.6011 0
M  V30 8941 O 852.713 1.58937 -2.16778 0
M  V30 8942 C 850.984 -0.485816 -3.54083 0
M  V30 8943 S 852.543 -0.141939 -4.3857 0
M  V30 8944 H 849.361 -0.13243 -0.698558 0
M  V30 8945 H 851.963 -1.00908 -1.67445 0
M  V30 8946 H 850.667 -1.50835 -3.81677 0
M  V30 8947 H 850.198 0.195232 -3.92915 0
M  V30 8948 H 852.213 1.06177 -4.84707 0
M  V30 8949 N 851.386 1.48609 -0.524698 0
M  V30 8950 C 852.318 2.27508 0.278 0
M  V30 8951 C 853.331 1.35042 0.909258 0
M  V30 8952 O 854.52 1.60136 0.788592 0
M  V30 8953 C 851.62 3.08247 1.40843 0
M  V30 8954 C 850.793 4.28455 0.880083 0
M  V30 8955 C 849.852 4.91048 1.891 0
M  V30 8956 O 848.878 5.5042 1.45005 0
M  V30 8957 N 850.08 4.82816 3.22288 0
M  V30 8958 H 852.845 2.97037 -0.398642 0
M  V30 8959 H 850.406 1.57876 -0.358698 0
M  V30 8960 H 852.398 3.46992 2.08276 0
M  V30 8961 H 850.968 2.41173 1.98883 0
M  V30 8962 H 850.188 3.94189 0.0299228 0
M  V30 8963 H 851.476 5.06279 0.505881 0
M  V30 8964 H 850.874 4.3572 3.60783 0
M  V30 8965 H 849.431 5.25676 3.85368 0
M  V30 8966 N 852.864 0.259585 1.55447 0
M  V30 8967 C 854.141 -0.412595 1.91199 0
M  V30 8968 C 854.521 -1.74909 1.18194 0
M  V30 8969 O 853.869 -2.26474 0.303603 0
M  V30 8970 C 854.079 -0.568195 3.44344 0
M  V30 8971 C 855.427 -0.858253 4.15836 0
M  V30 8972 O 856.451 -0.653588 3.50152 0
M  V30 8973 O 855.31 -1.24874 5.32042 0
M  V30 8974 H 852.404 -0.223403 0.796254 0
M  V30 8975 H 854.95 0.30459 1.66944 0
M  V30 8976 H 853.722 0.372989 3.89518 0
M  V30 8977 H 853.345 -1.33544 3.74502 0
M  V30 8978 N 854.342 -1.57594 -0.0133615 0
M  V30 8979 C 855.591 -1.8916 -0.700103 0
M  V30 8980 C 855.904 -0.860147 -1.75673 0
M  V30 8981 O 857.11 -1.06556 -2.49716 0
M  V30 8982 C 855.566 -3.35742 -1.29635 0
M  V30 8983 C 855.174 -4.47154 -0.275249 0
M  V30 8984 C 856.918 -3.76436 -1.96205 0
M  V30 8985 C 854.825 -5.84805 -0.880726 0
M  V30 8986 H 853.755 -0.705805 -0.265247 0
M  V30 8987 H 856.406 -1.83445 0.044993 0
M  V30 8988 H 854.788 -3.36252 -2.09167 0
M  V30 8989 H 855.962 -4.58139 0.494506 0
M  V30 8990 H 854.277 -4.15394 0.289256 0
M  V30 8991 H 856.874 -4.76606 -2.42386 0
M  V30 8992 H 857.217 -3.09249 -2.78695 0
M  V30 8993 H 857.75 -3.78168 -1.23426 0
M  V30 8994 H 854.489 -6.55431 -0.0949013 0
M  V30 8995 H 854.009 -5.7751 -1.61995 0
M  V30 8996 H 855.688 -6.32038 -1.38338 0
M  V30 8997 N 855.82 0.285905 -1.54985 0
M  V30 8998 C 857.231 0.857869 -1.65824 0
M  V30 8999 C 857.582 1.87531 -0.576763 0
M  V30 9000 O 856.707 2.14528 0.284016 0
M  V30 9001 C 857.302 1.56277 -3.00604 0
M  V30 9002 C 855.861 2.08294 -3.13513 0
M  V30 9003 C 855.008 0.920633 -2.61571 0
M  V30 9004 H 857.959 0.0625463 -1.58577 0
M  V30 9005 H 857.98 2.42912 -2.92872 0
M  V30 9006 H 857.492 0.822017 -3.79295 0
M  V30 9007 H 855.593 2.8537 -2.39572 0
M  V30 9008 H 855.706 2.3071 -4.19892 0
M  V30 9009 H 854.07 1.31043 -2.18403 0
M  V30 9010 H 854.853 0.193594 -3.42754 0
M  V30 9011 N 857.298 1.47698 0.54982 0
M  V30 9012 C 858.547 1.53961 1.30303 0
M  V30 9013 C 858.86 0.209731 1.94472 0
M  V30 9014 O 860.066 0.150418 2.71083 0
M  V30 9015 C 858.522 2.71436 2.36328 0
M  V30 9016 C 858.13 4.10983 1.78316 0
M  V30 9017 C 859.874 2.86996 3.12783 0
M  V30 9018 C 857.781 5.19747 2.82164 0
M  V30 9019 H 856.711 0.573098 0.489975 0
M  V30 9020 H 859.362 1.73989 0.583089 0
M  V30 9021 H 857.744 2.44801 3.11269 0
M  V30 9022 H 858.918 4.47552 1.09697 0
M  V30 9023 H 857.233 4.00371 1.1442 0
M  V30 9024 H 859.83 3.65422 3.90347 0
M  V30 9025 H 860.173 1.95712 3.67427 0
M  V30 9026 H 860.706 3.13436 2.44954 0
M  V30 9027 H 857.445 6.12932 2.32366 0
M  V30 9028 H 856.965 4.87688 3.49171 0
M  V30 9029 H 858.644 5.47014 3.4552 0
M  V30 9030 N 858.776 -0.797141 1.35954 0
M  V30 9031 C 860.025 -1.54983 1.29086 0
M  V30 9032 C 860.338 -1.95167 -0.130003 0
M  V30 9033 O 861.544 -2.69596 -0.32101 0
M  V30 9034 C 860 -2.79738 2.26439 0
M  V30 9035 C 859.608 -2.46753 3.73921 0
M  V30 9036 C 861.352 -3.57733 2.28533 0
M  V30 9037 C 859.259 -3.67858 4.63071 0
M  V30 9038 H 858.189 -0.581766 0.479651 0
M  V30 9039 H 860.84 -0.87541 1.61273 0
M  V30 9040 H 859.222 -3.48939 1.87236 0
M  V30 9041 H 860.396 -1.85499 4.21814 0
M  V30 9042 H 858.711 -1.81985 3.74527 0
M  V30 9043 H 861.308 -4.47699 2.92351 0
M  V30 9044 H 861.651 -3.95754 1.29169 0
M  V30 9045 H 862.184 -2.95504 2.66313 0
M  V30 9046 H 858.923 -3.34939 5.63468 0
M  V30 9047 H 858.443 -4.28305 4.19898 0
M  V30 9048 H 860.122 -4.34977 4.78961 0
M  V30 9049 N 860.254 -1.20106 -1.0204 0
M  V30 9050 C 861.201 -0.946468 -2.10501 0
M  V30 9051 C 862.171 0.121902 -1.65652 0
M  V30 9052 O 863.356 -0.0220244 -1.90787 0
M  V30 9053 C 860.496 -0.500499 -3.41451 0
M  V30 9054 C 859.609 -1.63659 -3.998 0
M  V30 9055 C 858.744 -1.14131 -5.18794 0
M  V30 9056 C 857.783 -2.25074 -5.69217 0
M  V30 9057 N 856.92 -1.76791 -6.79477 0
M  V30 9058 H 861.76 -1.87506 -2.31615 0
M  V30 9059 H 859.297 -0.934693 -1.13587 0
M  V30 9060 H 861.255 -0.223276 -4.16602 0
M  V30 9061 H 859.885 0.391099 -3.20422 0
M  V30 9062 H 858.937 -2.02882 -3.21781 0
M  V30 9063 H 860.249 -2.47213 -4.33229 0
M  V30 9064 H 859.403 -0.819826 -6.01135 0
M  V30 9065 H 858.142 -0.275615 -4.86921 0
M  V30 9066 H 857.147 -2.58043 -4.85483 0
M  V30 9067 H 858.372 -3.12114 -6.03127 0
M  V30 9068 H 856.318 -0.925428 -6.4944 0
M  V30 9069 H 856.235 -2.53928 -7.12079 0
M  V30 9070 H 857.503 -1.47631 -7.65392 0
M  V30 9071 N 861.732 1.21287 -1.00634 0
M  V30 9072 C 862.662 2.25973 -0.588089 0
M  V30 9073 C 863.643 1.65527 0.391764 0
M  V30 9074 O 864.828 1.92179 0.279452 0
M  V30 9075 C 861.958 3.47197 0.0847336 0
M  V30 9076 C 860.912 4.20168 -0.815039 0
M  V30 9077 C 860.238 5.34699 -0.00855393 0
M  V30 9078 C 861.538 4.77416 -2.11828 0
M  V30 9079 H 863.232 2.61212 -1.46317 0
M  V30 9080 H 860.778 1.25563 -0.704985 0
M  V30 9081 H 862.731 4.19602 0.388821 0
M  V30 9082 H 861.455 3.11092 0.994456 0
M  V30 9083 H 860.114 3.49614 -1.10297 0
M  V30 9084 H 859.762 4.94837 0.902499 0
M  V30 9085 H 859.462 5.84449 -0.607664 0
M  V30 9086 H 860.986 6.09914 0.289317 0
M  V30 9087 H 862.4 5.41694 -1.87725 0
M  V30 9088 H 860.797 5.37561 -2.66736 0
M  V30 9089 H 861.867 3.96724 -2.78816 0
M  V30 9090 N 863.21 0.781244 1.36873 0
M  V30 9091 C 864.12 0.174981 2.33947 0
M  V30 9092 C 865.136 -0.668512 1.60645 0
M  V30 9093 O 866.312 -0.586213 1.9268 0
M  V30 9094 C 863.377 -0.686557 3.39834 0
M  V30 9095 C 862.438 0.174489 4.28945 0
M  V30 9096 C 861.671 -0.646024 5.29776 0
M  V30 9097 O 861.894 -1.88254 5.38439 0
M  V30 9098 O 860.828 -0.0502214 6.01879 0
M  V30 9099 H 864.654 0.977382 2.87543 0
M  V30 9100 H 862.239 0.542559 1.392 0
M  V30 9101 H 864.121 -1.1781 4.04597 0
M  V30 9102 H 862.796 -1.46699 2.8855 0
M  V30 9103 H 861.703 0.712604 3.6725 0
M  V30 9104 H 863.036 0.918232 4.83559 0
M  V30 9105 N 864.689 -1.48329 0.532571 0
M  V30 9106 C 865.935 -2.03399 0.00755104 0
M  V30 9107 C 866.29 -1.40213 -1.3175 0
M  V30 9108 O 865.583 -0.539633 -1.83844 0
M  V30 9109 C 865.777 -3.57 -0.168943 0
M  V30 9110 C 865.606 -4.35077 1.13745 0
M  V30 9111 C 864.376 -4.75915 1.69803 0
M  V30 9112 C 866.574 -4.71734 2.04869 0
M  V30 9113 N 864.556 -5.38538 2.94703 0
M  V30 9114 C 865.927 -5.34403 3.14346 0
M  V30 9115 C 867.982 -4.53665 2.05164 0
M  V30 9116 C 866.685 -5.80912 4.24186 0
M  V30 9117 C 868.711 -5.01157 3.13999 0
M  V30 9118 C 868.073 -5.63853 4.22195 0
M  V30 9119 H 864.172 -0.780743 0.0443253 0
M  V30 9120 H 866.756 -1.81119 0.714423 0
M  V30 9121 H 864.927 -3.79099 -0.844903 0
M  V30 9122 H 866.659 -3.98708 -0.693804 0
M  V30 9123 H 863.414 -4.57103 1.23909 0
M  V30 9124 H 863.838 -5.74413 3.583 0
M  V30 9125 H 868.48 -4.04571 1.22808 0
M  V30 9126 H 866.198 -6.2901 5.07318 0
M  V30 9127 H 869.784 -4.88965 3.15285 0
M  V30 9128 H 868.664 -5.99935 5.05023 0
M  V30 9129 N 866.167 -0.267825 -1.55308 0
M  V30 9130 C 867.117 0.637168 -2.18916 0
M  V30 9131 C 868.101 1.12381 -1.15149 0
M  V30 9132 O 869.293 1.0701 -1.40989 0
M  V30 9133 C 866.422 1.82423 -2.90821 0
M  V30 9134 C 865.508 1.35512 -4.01867 0
M  V30 9135 N 865.899 0.601644 -5.02209 0
M  V30 9136 C 864.197 1.63868 -4.14805 0
M  V30 9137 C 864.898 0.35596 -5.8061 0
M  V30 9138 N 863.874 0.926271 -5.3565 0
M  V30 9139 H 867.676 0.0535787 -2.93851 0
M  V30 9140 H 865.19 -0.0710577 -1.62244 0
M  V30 9141 H 867.187 2.48379 -3.34834 0
M  V30 9142 H 865.847 2.41185 -2.17394 0
M  V30 9143 H 866.858 0.249693 -5.17298 0
M  V30 9144 H 863.535 2.23618 -3.52564 0
M  V30 9145 H 864.925 -0.246994 -6.71446 0
M  V30 9146 N 867.645 1.57599 0.00500368 0
M  V30 9147 C 868.87 1.95026 0.705663 0
M  V30 9148 C 869.295 0.869643 1.6679 0
M  V30 9149 O 868.653 -0.172659 1.80476 0
M  V30 9150 C 868.701 3.31545 1.4181 0
M  V30 9151 O 867.805 3.25495 2.53232 0
M  V30 9152 H 867.146 0.636808 0.188074 0
M  V30 9153 H 869.676 2.04547 -0.046696 0
M  V30 9154 H 869.686 3.66996 1.78265 0
M  V30 9155 H 868.361 4.09751 0.712543 0
M  V30 9156 H 866.938 3.01714 2.19142 0
M  V30 9157 N 869.123 -0.277682 1.55134 0
M  V30 9158 C 870.534 -0.849063 1.66276 0
M  V30 9159 C 870.885 -1.87223 0.5867 0
M  V30 9160 O 870.01 -2.14676 -0.272635 0
M  V30 9161 C 870.605 -1.54681 3.01429 0
M  V30 9162 C 869.164 -2.06628 3.14614 0
M  V30 9163 C 868.311 -0.906748 2.62056 0
M  V30 9164 H 871.262 -0.0541357 1.58608 0
M  V30 9165 H 871.283 -2.41356 2.94156 0
M  V30 9166 H 870.795 -0.80189 3.79725 0
M  V30 9167 H 868.896 -2.84095 2.41082 0
M  V30 9168 H 869.009 -2.2848 4.2111 0
M  V30 9169 H 867.373 -1.29882 2.19095 0
M  V30 9170 H 868.156 -0.175414 3.42852 0
M  V30 9171 N 870.601 -1.47988 -0.541979 0
M  V30 9172 C 871.847 -1.56604 -1.29795 0
M  V30 9173 C 872.202 -0.231728 -1.90999 0
M  V30 9174 O 871.495 0.764203 -1.757 0
M  V30 9175 C 871.689 -2.63189 -2.41798 0
M  V30 9176 C 871.518 -4.06855 -1.9157 0
M  V30 9177 C 870.288 -4.74132 -1.74719 0
M  V30 9178 C 872.486 -4.934 -1.45123 0
M  V30 9179 N 870.468 -6.02258 -1.18991 0
M  V30 9180 C 871.839 -6.11675 -1.01263 0
M  V30 9181 C 873.894 -4.7972 -1.33315 0
M  V30 9182 C 872.597 -7.17778 -0.467663 0
M  V30 9183 C 874.623 -5.85934 -0.802192 0
M  V30 9184 C 873.985 -7.03409 -0.373595 0
M  V30 9185 H 870.084 -0.627677 -0.466418 0
M  V30 9186 H 872.668 -1.84812 -0.612576 0
M  V30 9187 H 870.839 -2.36823 -3.07846 0
M  V30 9188 H 872.571 -2.6156 -3.08818 0
M  V30 9189 H 869.326 -4.30276 -1.97887 0
M  V30 9190 H 869.75 -6.70558 -0.931715 0
M  V30 9191 H 874.392 -3.89249 -1.6506 0
M  V30 9192 H 872.11 -8.07982 -0.137874 0
M  V30 9193 H 875.696 -5.774 -0.714171 0
M  V30 9194 H 874.576 -7.84194 0.0308796 0
M  V30 9195 N 872.079 0.78992 -1.36375 0
M  V30 9196 C 873.042 1.88414 -1.30509 0
M  V30 9197 C 874.042 1.59384 -0.2129 0
M  V30 9198 O 875.232 1.67805 -0.467651 0
M  V30 9199 C 872.364 3.25188 -1.02302 0
M  V30 9200 H 873.557 1.95031 -2.27822 0
M  V30 9201 H 871.11 0.987664 -1.2114 0
M  V30 9202 H 871.845 3.24254 -0.0544486 0
M  V30 9203 H 871.63 3.47647 -1.81338 0
M  V30 9204 H 873.12 4.05252 -1.00801 0
M  V30 9205 N 873.557 1.20646 1.01402 0
M  V30 9206 C 874.803 1.0197 1.753 0
M  V30 9207 C 875.136 -0.446803 1.8899 0
M  V30 9208 O 874.411 -1.33169 1.41762 0
M  V30 9209 C 874.694 1.70693 3.17074 0
M  V30 9210 C 874.547 3.24805 3.11162 0
M  V30 9211 C 875.866 1.44212 4.15802 0
M  V30 9212 H 872.985 0.371844 0.636318 0
M  V30 9213 H 875.627 1.48696 1.18277 0
M  V30 9214 H 873.777 1.30968 3.65759 0
M  V30 9215 H 875.449 3.73841 2.70261 0
M  V30 9216 H 873.692 3.55576 2.48492 0
M  V30 9217 H 874.363 3.68049 4.11393 0
M  V30 9218 H 876.839 1.7868 3.75783 0
M  V30 9219 H 875.715 1.94825 5.13161 0
M  V30 9220 H 875.976 0.370252 4.40547 0
M  V30 9221 N 875.035 -1.20752 1.01276 0
M  V30 9222 C 876.284 -1.8934 0.695229 0
M  V30 9223 C 876.597 -1.79459 -0.77806 0
M  V30 9224 O 877.803 -2.43146 -1.20799 0
M  V30 9225 C 876.259 -3.39548 1.1931 0
M  V30 9226 C 875.867 -3.58023 2.69302 0
M  V30 9227 C 877.611 -4.13714 0.950823 0
M  V30 9228 C 875.518 -5.02037 3.1259 0
M  V30 9229 H 874.448 -0.709084 0.25635 0
M  V30 9230 H 877.099 -1.36629 1.22494 0
M  V30 9231 H 875.481 -3.91559 0.591395 0
M  V30 9232 H 876.655 -3.16416 3.34989 0
M  V30 9233 H 874.97 -2.97222 2.9163 0
M  V30 9234 H 877.567 -5.19891 1.24971 0
M  V30 9235 H 877.91 -4.16147 -0.112791 0
M  V30 9236 H 878.443 -3.67792 1.51571 0
M  V30 9237 H 875.182 -5.04757 4.18211 0
M  V30 9238 H 874.702 -5.44469 2.51621 0
M  V30 9239 H 876.381 -5.70594 3.0501 0
M  V30 9240 N 876.513 -0.788492 -1.36457 0
M  V30 9241 C 877.924 -0.423742 -1.81828 0
M  V30 9242 C 878.275 1.05221 -1.65599 0
M  V30 9243 O 877.4 1.8163 -1.17641 0
M  V30 9244 C 877.995 -0.762354 -3.30112 0
M  V30 9245 C 876.554 -0.450445 -3.73695 0
M  V30 9246 C 875.701 -0.997482 -2.58738 0
M  V30 9247 H 878.652 -0.981718 -1.24692 0
M  V30 9248 H 878.673 -0.0531136 -3.80463 0
M  V30 9249 H 878.185 -1.83662 -3.41891 0
M  V30 9250 H 876.286 0.615829 -3.67476 0
M  V30 9251 H 876.399 -0.970408 -4.69169 0
M  V30 9252 H 874.763 -0.420761 -2.51201 0
M  V30 9253 H 875.546 -2.07749 -2.73304 0
M  V30 9254 N 877.991 1.48044 -0.54043 0
M  V30 9255 C 879.237 2.02797 -0.0101718 0
M  V30 9256 C 879.57 1.41565 1.32939 0
M  V30 9257 O 878.845 0.565139 1.86109 0
M  V30 9258 C 879.128 3.59959 0.100758 0
M  V30 9259 C 878.981 4.31654 -1.26471 0
M  V30 9260 C 880.3 4.32347 0.822455 0
M  V30 9261 H 877.419 0.736982 -0.00517052 0
M  V30 9262 H 880.061 1.76656 -0.69948 0
M  V30 9263 H 878.211 3.82363 0.687824 0
M  V30 9264 H 879.883 4.20639 -1.89369 0
M  V30 9265 H 878.126 3.92663 -1.84386 0
M  V30 9266 H 878.797 5.401 -1.13998 0
M  V30 9267 H 881.273 4.14835 0.324164 0
M  V30 9268 H 880.149 5.41978 0.868993 0
M  V30 9269 H 880.41 4.00369 1.87501 0
M  V30 9270 N 879.47 0.276058 1.55163 0
M  V30 9271 C 880.717 -0.340455 1.99618 0
M  V30 9272 C 881.045 -1.5579 1.16446 0
M  V30 9273 O 880.3 -1.94433 0.222359 0
M  V30 9274 C 880.599 -0.765744 3.491 0
M  V30 9275 C 880.265 0.347174 4.49561 0
M  V30 9276 C 878.927 0.65276 4.76752 0
M  V30 9277 C 881.279 1.09705 5.09523 0
M  V30 9278 C 878.607 1.71179 5.61173 0
M  V30 9279 C 880.959 2.14581 5.95095 0
M  V30 9280 C 879.623 2.45773 6.20606 0
M  V30 9281 H 878.893 -0.124581 0.730452 0
M  V30 9282 H 881.54 0.389966 1.87487 0
M  V30 9283 H 879.845 -1.57585 3.58712 0
M  V30 9284 H 881.542 -1.25352 3.80904 0
M  V30 9285 H 878.132 0.0988779 4.28486 0
M  V30 9286 H 882.316 0.874223 4.8854 0
M  V30 9287 H 877.572 1.95846 5.79184 0
M  V30 9288 H 881.746 2.7316 6.40591 0
M  V30 9289 H 879.373 3.27969 6.85813 0
M  V30 9290 N 880.948 -1.576 0.00335426 0
M  V30 9291 C 881.878 -2.11668 -0.985839 0
M  V30 9292 C 882.859 -1.02661 -1.35627 0
M  V30 9293 O 884.044 -1.30361 -1.43943 0
M  V30 9294 C 881.174 -2.62273 -2.27662 0
M  V30 9295 C 880.128 -3.75837 -2.0477 0
M  V30 9296 C 879.454 -4.12769 -3.39891 0
M  V30 9297 C 880.754 -5.02975 -1.40759 0
M  V30 9298 H 882.448 -2.9457 -0.535637 0
M  V30 9299 H 879.994 -1.41702 -0.256204 0
M  V30 9300 H 881.947 -2.98727 -2.97221 0
M  V30 9301 H 880.671 -1.76498 -2.74802 0
M  V30 9302 H 879.33 -3.39782 -1.37636 0
M  V30 9303 H 878.978 -3.24013 -3.8474 0
M  V30 9304 H 878.678 -4.89281 -3.25389 0
M  V30 9305 H 880.202 -4.51784 -4.1076 0
M  V30 9306 H 881.616 -5.37179 -2.00279 0
M  V30 9307 H 880.013 -5.84315 -1.36734 0
M  V30 9308 H 881.083 -4.83431 -0.377218 0
M  V30 9309 N 882.426 0.269451 -1.5528 0
M  V30 9310 C 883.389 1.31642 -1.87625 0
M  V30 9311 C 884.389 1.42182 -0.751058 0
M  V30 9312 O 885.579 1.41272 -1.01921 0
M  V30 9313 C 882.711 2.6973 -2.08467 0
M  V30 9314 H 883.904 1.0419 -2.81219 0
M  V30 9315 H 881.457 0.507685 -1.47825 0
M  V30 9316 H 882.192 3.02356 -1.17266 0
M  V30 9317 H 881.977 2.63465 -2.90394 0
M  V30 9318 H 883.467 3.4537 -2.34753 0
M  V30 9319 N 883.904 1.48273 0.534124 0
M  V30 9320 C 884.837 1.57053 1.65559 0
M  V30 9321 C 885.815 0.421213 1.5705 0
M  V30 9322 O 886.999 0.632242 1.77581 0
M  V30 9323 C 884.126 1.49465 3.03937 0
M  V30 9324 C 883.172 2.69186 3.30819 0
M  V30 9325 S 884.005 4.31192 3.17543 0
M  V30 9326 C 885.161 4.26197 4.58375 0
M  V30 9327 H 885.394 2.51927 1.57861 0
M  V30 9328 H 882.927 1.36755 0.716763 0
M  V30 9329 H 884.885 1.45775 3.83745 0
M  V30 9330 H 883.546 0.559357 3.09079 0
M  V30 9331 H 882.739 2.60005 4.31756 0
M  V30 9332 H 882.341 2.70118 2.58674 0
M  V30 9333 H 884.633 3.95874 5.49809 0
M  V30 9334 H 885.576 5.27299 4.72611 0
M  V30 9335 H 885.984 3.56723 4.37503 0
M  V30 9336 N 885.382 -0.782676 1.36792 0
M  V30 9337 C 886.312 -1.90973 1.34356 0
M  V30 9338 C 887.293 -1.6875 0.213917 0
M  V30 9339 O 888.478 -1.89766 0.412601 0
M  V30 9340 C 885.608 -3.28097 1.13884 0
M  V30 9341 C 884.562 -3.6486 2.23744 0
M  V30 9342 C 883.888 -5.00406 1.88408 0
M  V30 9343 C 885.188 -3.72742 3.6587 0
M  V30 9344 H 886.882 -1.93268 2.28665 0
M  V30 9345 H 884.428 -0.928447 1.10072 0
M  V30 9346 H 886.381 -4.06569 1.10813 0
M  V30 9347 H 885.105 -3.26206 0.160275 0
M  V30 9348 H 883.764 -2.88689 2.25952 0
M  V30 9349 H 883.412 -4.95044 0.891083 0
M  V30 9350 H 883.112 -5.25973 2.61966 0
M  V30 9351 H 884.636 -5.81291 1.86905 0
M  V30 9352 H 886.05 -4.4139 3.65852 0
M  V30 9353 H 884.447 -4.09798 4.38389 0
M  V30 9354 H 885.517 -2.73676 4.00287 0
M  V30 9355 N 886.86 -1.21182 -1.00761 0
M  V30 9356 C 888.108 -1.02543 -1.74153 0
M  V30 9357 C 888.429 0.442372 -1.89916 0
M  V30 9358 O 887.699 1.31927 -1.44818 0
M  V30 9359 H 886.279 -0.37644 -0.645214 0
M  V30 9360 H 888.941 -1.52446 -1.21434 0
M  V30 9361 H 888.037 -1.49122 -2.7417 0
M  V30 9362 N 888.338 1.20213 -1.01915 0
M  V30 9363 C 889.587 1.88968 -0.705261 0
M  V30 9364 C 889.9 1.79869 0.768531 0
M  V30 9365 O 891.106 2.43783 1.19508 0
M  V30 9366 C 889.562 3.38911 -1.21109 0
M  V30 9367 C 889.17 3.5659 -2.71197 0
M  V30 9368 C 890.914 4.13204 -0.97275 0
M  V30 9369 C 888.821 5.00372 -3.15248 0
M  V30 9370 H 887.751 0.707715 -0.260107 0
M  V30 9371 H 890.402 1.35977 -1.23217 0
M  V30 9372 H 888.784 3.9124 -0.612152 0
M  V30 9373 H 889.958 3.14635 -3.36662 0
M  V30 9374 H 888.273 2.95671 -2.93202 0
M  V30 9375 H 890.87 5.19221 -1.27726 0
M  V30 9376 H 891.213 4.16201 0.09072 0
M  V30 9377 H 891.746 3.66983 -1.5352 0
M  V30 9378 H 888.485 5.02532 -4.20882 0
M  V30 9379 H 888.005 5.43127 -2.54505 0
M  V30 9380 H 889.684 5.68969 -3.08032 0
M  V30 9381 N 889.816 0.795718 1.36037 0
M  V30 9382 C 891.065 0.367575 1.98322 0
M  V30 9383 C 891.378 -1.06823 1.63854 0
M  V30 9384 O 892.584 -1.59895 2.19421 0
M  V30 9385 C 891.04 0.606272 3.54757 0
M  V30 9386 C 890.648 2.0539 3.98144 0
M  V30 9387 C 892.392 0.242947 4.23804 0
M  V30 9388 C 890.299 2.23893 5.47381 0
M  V30 9389 H 889.229 0.133699 0.742052 0
M  V30 9390 H 891.88 0.978242 1.5525 0
M  V30 9391 H 890.262 -0.0741957 3.9593 0
M  V30 9392 H 891.436 2.77129 3.68152 0
M  V30 9393 H 889.751 2.37607 3.41953 0
M  V30 9394 H 892.348 0.359382 5.33491 0
M  V30 9395 H 892.691 -0.809661 4.08351 0
M  V30 9396 H 893.224 0.876899 3.88015 0
M  V30 9397 H 889.963 3.27559 5.6779 0
M  V30 9398 H 889.483 1.56666 5.78978 0
M  V30 9399 H 891.162 2.04914 6.13693 0
M  V30 9400 N 891.294 -1.47756 0.548274 0
M  V30 9401 C 892.257 -2.28379 -0.193857 0
M  V30 9402 C 893.257 -1.36436 -0.850986 0
M  V30 9403 O 894.447 -1.59154 -0.70822 0
M  V30 9404 C 891.579 -3.15858 -1.28243 0
M  V30 9405 H 892.772 -2.95458 0.514231 0
M  V30 9406 H 890.325 -1.53298 0.304879 0
M  V30 9407 H 891.06 -2.5345 -2.0232 0
M  V30 9408 H 890.845 -3.83512 -0.816148 0
M  V30 9409 H 892.335 -3.76627 -1.80393 0
M  V30 9410 N 892.772 -0.284283 -1.55015 0
M  V30 9411 C 894 0.332948 -2.04203 0
M  V30 9412 C 894.415 1.48783 -1.16229 0
M  V30 9413 O 893.772 1.81567 -0.184323 0
M  V30 9414 C 893.823 0.805207 -3.52418 0
M  V30 9415 O 893.544 -0.303689 -4.37046 0
M  V30 9416 C 895.045 1.48931 -4.17534 0
M  V30 9417 H 892.265 0.0747447 -0.666824 0
M  V30 9418 H 894.809 -0.419048 -2.00161 0
M  V30 9419 H 892.964 1.50727 -3.56876 0
M  V30 9420 H 893.378 0.0609703 -5.24465 0
M  V30 9421 H 894.852 1.77108 -5.22816 0
M  V30 9422 H 895.329 2.42389 -3.66257 0
M  V30 9423 H 895.935 0.830867 -4.17105 0
M  V30 9424 N 894.251 1.57596 -0.0117121 0
M  V30 9425 C 895.5 1.9025 0.669921 0
M  V30 9426 C 895.813 0.887986 1.74282 0
M  V30 9427 O 897.019 1.10516 2.47989 0
M  V30 9428 C 895.475 3.37762 1.24277 0
M  V30 9429 C 895.083 4.47535 0.204076 0
M  V30 9430 C 896.827 3.79509 1.90192 0
M  V30 9431 C 894.734 5.86132 0.787577 0
M  V30 9432 H 893.664 0.709935 0.253984 0
M  V30 9433 H 896.315 1.8335 -0.0741718 0
M  V30 9434 H 894.697 3.39537 2.03791 0
M  V30 9435 H 895.871 4.57294 -0.56733 0
M  V30 9436 H 894.186 4.14881 -0.355305 0
M  V30 9437 H 896.783 4.80402 2.34773 0
M  V30 9438 H 897.126 3.13643 2.7374 0
M  V30 9439 H 897.659 3.80084 1.17394 0
M  V30 9440 H 894.398 6.55499 -0.00938418 0
M  V30 9441 H 893.918 5.80014 1.52787 0
M  V30 9442 H 895.597 6.34158 1.28265 0
M  V30 9443 N 895.729 -0.261212 1.5542 0
M  V30 9444 C 896.976 -0.99123 1.76581 0
M  V30 9445 C 897.304 -1.85854 0.573457 0
M  V30 9446 O 896.559 -1.90604 -0.443705 0
M  V30 9447 C 896.858 -1.89395 3.03091 0
M  V30 9448 C 896.524 -1.18318 4.351 0
M  V30 9449 C 895.186 -0.986688 4.70975 0
M  V30 9450 C 897.538 -0.678299 5.16767 0
M  V30 9451 C 894.866 -0.272788 5.86065 0
M  V30 9452 C 897.218 0.0220646 6.32596 0
M  V30 9453 C 895.882 0.230161 6.67103 0
M  V30 9454 H 895.152 -0.362717 0.646156 0
M  V30 9455 H 897.799 -0.262506 1.89692 0
M  V30 9456 H 896.104 -2.68927 2.8493 0
M  V30 9457 H 897.801 -2.46022 3.16661 0
M  V30 9458 H 894.391 -1.34625 4.06908 0
M  V30 9459 H 898.575 -0.817691 4.89518 0
M  V30 9460 H 893.831 -0.10095 6.11317 0
M  V30 9461 H 898.005 0.420981 6.95126 0
M  V30 9462 H 895.632 0.785312 7.56133 0
M  V30 9463 N 897.207 -1.48554 -0.526253 0
M  V30 9464 C 898.453 -1.56994 -1.28378 0
M  V30 9465 C 898.786 -0.244701 -1.92652 0
M  V30 9466 O 898.061 0.749636 -1.79473 0
M  V30 9467 C 898.344 -2.71092 -2.37026 0
M  V30 9468 C 898.197 -4.13331 -1.77418 0
M  V30 9469 C 899.516 -2.80934 -3.38769 0
M  V30 9470 H 896.635 -0.571466 -0.465398 0
M  V30 9471 H 899.277 -1.80742 -0.585861 0
M  V30 9472 H 897.427 -2.50973 -2.96555 0
M  V30 9473 H 899.099 -4.44899 -1.21912 0
M  V30 9474 H 897.342 -4.20158 -1.07936 0
M  V30 9475 H 898.013 -4.88994 -2.56104 0
M  V30 9476 H 900.489 -2.9917 -2.892 0
M  V30 9477 H 899.365 -3.62489 -4.12181 0
M  V30 9478 H 899.626 -1.89244 -3.99549 0
M  V30 9479 N 898.685 0.775411 -1.37205 0
M  V30 9480 C 899.618 1.8957 -1.27037 0
M  V30 9481 C 900.596 1.61891 -0.151643 0
M  V30 9482 O 901.78 1.85673 -0.325218 0
M  V30 9483 C 898.907 3.24712 -0.963316 0
M  V30 9484 C 897.953 3.71306 -2.09842 0
M  V30 9485 S 898.786 3.8541 -3.71778 0
M  V30 9486 C 899.942 5.23406 -3.43216 0
M  V30 9487 H 900.175 1.97905 -2.21857 0
M  V30 9488 H 897.708 0.936127 -1.22784 0
M  V30 9489 H 899.666 4.02768 -0.792983 0
M  V30 9490 H 898.327 3.14083 -0.0326561 0
M  V30 9491 H 897.52 4.69271 -1.83849 0
M  V30 9492 H 897.122 3.00341 -2.2287 0
M  V30 9493 H 899.414 6.08454 -2.97977 0
M  V30 9494 H 900.357 5.54409 -4.40495 0
M  V30 9495 H 900.765 4.9117 -2.78231 0
M  V30 9496 N 900.163 1.21714 1.00117 0
M  V30 9497 C 901.126 0.981338 2.07129 0
M  V30 9498 C 902.126 -0.0491116 1.60725 0
M  V30 9499 O 903.316 0.188555 1.73177 0
M  V30 9500 C 900.448 0.480608 3.37495 0
M  V30 9501 H 901.641 1.93075 2.29482 0
M  V30 9502 H 899.194 1.03467 1.17151 0
M  V30 9503 H 899.929 -0.473552 3.20824 0
M  V30 9504 H 899.714 1.22393 3.72508 0
M  V30 9505 H 901.204 0.33561 4.16249 0
M  V30 9506 N 901.641 -1.19671 1.02551 0
M  V30 9507 C 902.869 -1.93233 0.739513 0
M  V30 9508 C 903.284 -1.75298 -0.701158 0
M  V30 9509 O 902.641 -1.07269 -1.47647 0
M  V30 9510 C 902.692 -3.45085 1.07697 0
M  V30 9511 O 902.413 -3.62441 2.46106 0
M  V30 9512 C 903.914 -4.35776 0.813298 0
M  V30 9513 H 901.134 -0.613905 0.270853 0
M  V30 9514 H 903.678 -1.51909 1.36909 0
M  V30 9515 H 901.833 -3.84255 0.492635 0
M  V30 9516 H 902.247 -4.56337 2.58567 0
M  V30 9517 H 903.721 -5.40941 1.09941 0
M  V30 9518 H 904.198 -4.38474 -0.252359 0
M  V30 9519 H 904.804 -4.02282 1.38021 0
M  V30 9520 N 903.119 -0.802921 -1.35613 0
M  V30 9521 C 904.366 -0.381576 -1.98872 0
M  V30 9522 C 904.694 1.0503 -1.63704 0
M  V30 9523 O 903.949 1.7427 -0.890418 0
M  V30 9524 C 904.248 -0.507806 -3.53774 0
M  V30 9525 C 903.914 -1.90245 -4.088 0
M  V30 9526 C 902.576 -2.28401 -4.2354 0
M  V30 9527 C 904.928 -2.81504 -4.3864 0
M  V30 9528 C 902.256 -3.57192 -4.65436 0
M  V30 9529 C 904.608 -4.09737 -4.81973 0
M  V30 9530 C 903.272 -4.47897 -4.94919 0
M  V30 9531 H 902.542 -0.139629 -0.727726 0
M  V30 9532 H 905.189 -1.023 -1.61886 0
M  V30 9533 H 903.494 0.21708 -3.91198 0
M  V30 9534 H 905.191 -0.162625 -4.0067 0
M  V30 9535 H 901.781 -1.596 -3.97776 0
M  V30 9536 H 905.965 -2.53276 -4.26808 0
M  V30 9537 H 901.221 -3.86611 -4.73648 0
M  V30 9538 H 905.395 -4.80555 -5.04024 0
M  V30 9539 H 903.022 -5.47747 -5.27141 0
M  V30 9540 N 904.597 1.47463 -0.556102 0
M  V30 9541 C 905.846 2.01678 -0.029492 0
M  V30 9542 C 906.159 1.436 1.32809 0
M  V30 9543 O 907.365 1.89472 1.94455 0
M  V30 9544 C 905.821 3.599 -0.00223937 0
M  V30 9545 C 905.429 4.26969 -1.35651 0
M  V30 9546 C 907.173 4.2187 0.471822 0
M  V30 9547 C 905.08 5.77194 -1.28843 0
M  V30 9548 H 904.01 0.753965 -0.00725504 0
M  V30 9549 H 906.661 1.69467 -0.703789 0
M  V30 9550 H 905.043 3.89068 0.737682 0
M  V30 9551 H 906.217 4.09444 -2.11406 0
M  V30 9552 H 904.532 3.76983 -1.76842 0
M  V30 9553 H 907.129 5.31955 0.541139 0
M  V30 9554 H 907.472 3.88968 1.48356 0
M  V30 9555 H 908.005 3.97228 -0.213207 0
M  V30 9556 H 904.744 6.14713 -2.27613 0
M  V30 9557 H 904.264 5.9706 -0.572668 0
M  V30 9558 H 905.943 6.3938 -0.990031 0
M  V30 9559 N 906.075 0.2925 1.54862 0
M  V30 9560 C 907.491 -0.0611461 1.59483 0
M  V30 9561 C 907.691 -1.53141 1.30958 0
M  V30 9562 O 906.747 -2.28291 1.07887 0
M  V30 9563 C 908.06 0.329143 2.98893 0
M  V30 9564 C 909.608 0.2772 3.1177 0
M  V30 9565 C 910.083 0.642185 4.53475 0
M  V30 9566 N 911.574 0.594396 4.5937 0
M  V30 9567 C 912.309 0.849385 5.67074 0
M  V30 9568 N 911.805 1.1699 6.82851 0
M  V30 9569 N 913.598 0.777016 5.56704 0
M  V30 9570 H 905.749 1.25079 1.71665 0
M  V30 9571 H 908.012 0.506516 0.80134 0
M  V30 9572 H 907.718 1.35233 3.24661 0
M  V30 9573 H 907.592 -0.321442 3.75828 0
M  V30 9574 H 909.979 -0.736725 2.85756 0
M  V30 9575 H 910.06 0.962289 2.3701 0
M  V30 9576 H 909.704 1.65388 4.80218 0
M  V30 9577 H 909.634 -0.0648831 5.2656 0
M  V30 9578 H 912.125 0.357256 3.76208 0
M  V30 9579 H 912.438 1.35067 7.60905 0
M  V30 9580 H 910.783 1.20785 6.84424 0
M  V30 9581 H 913.974 0.526333 4.65132 0
M  V30 9582 H 914.147 0.979113 6.4056 0
M  V30 9583 N 907.553 -1.57587 0.0200696 0
M  V30 9584 C 908.783 -1.95435 -0.669991 0
M  V30 9585 C 909.191 -0.894647 -1.66711 0
M  V30 9586 O 908.534 0.133009 -1.83218 0
M  V30 9587 C 908.596 -3.29379 -1.44047 0
M  V30 9588 C 908.26 -4.53008 -0.602691 0
M  V30 9589 C 909.257 -5.19766 0.118188 0
M  V30 9590 C 906.942 -4.99359 -0.542754 0
M  V30 9591 C 908.936 -6.31187 0.887774 0
M  V30 9592 C 906.623 -6.10665 0.230543 0
M  V30 9593 C 907.621 -6.76438 0.944522 0
M  V30 9594 O 907.309 -7.85608 1.70516 0
M  V30 9595 H 907.041 -0.648681 -0.190234 0
M  V30 9596 H 909.595 -2.05269 0.0733838 0
M  V30 9597 H 907.825 -3.1601 -2.22878 0
M  V30 9598 H 909.514 -3.52194 -2.01777 0
M  V30 9599 H 910.28 -4.84932 0.0811604 0
M  V30 9600 H 906.159 -4.47976 -1.08804 0
M  V30 9601 H 909.703 -6.82458 1.44558 0
M  V30 9602 H 905.6 -6.44938 0.26932 0
M  V30 9603 H 906.368 -8.02228 1.62398 0
M  V30 9604 N 909.032 0.252966 -1.55557 0
M  V30 9605 C 909.98 1.33289 -1.90622 0
M  V30 9606 C 910.974 1.50133 -0.784638 0
M  V30 9607 O 912.18 1.51679 -0.969196 0
M  V30 9608 H 908.555 0.446196 -0.605321 0
M  V30 9609 H 910.526 1.00977 -2.80796 0
M  V30 9610 C 909.275 2.68254 -2.21213 0
M  V30 9611 H 908.598 2.5609 -3.07014 0
M  V30 9612 H 910.038 3.42707 -2.49656 0
M  V30 9613 C 908.497 3.20884 -1.02642 0
M  V30 9614 O 909.027 4.00783 -0.271292 0
M  V30 9615 N 907.233 2.7883 -0.818682 0
M  V30 9616 H 906.78 2.13966 -1.43444 0
M  V30 9617 H 906.738 3.14388 -0.0269989 0
M  V30 9618 N 910.51 1.48831 0.518367 0
M  V30 9619 C 911.787 1.47933 1.27966 0
M  V30 9620 C 912.167 0.197393 2.10175 0
M  V30 9621 O 911.515 -0.820656 2.13255 0
M  V30 9622 C 911.725 2.74816 2.15121 0
M  V30 9623 C 913.073 3.23613 2.74881 0
M  V30 9624 O 914.097 2.75814 2.254 0
M  V30 9625 O 912.956 4.06818 3.64913 0
M  V30 9626 H 910.05 0.591316 0.578164 0
M  V30 9627 H 912.596 1.61077 0.534065 0
M  V30 9628 H 911.368 3.59621 1.54234 0
M  V30 9629 H 910.991 2.64449 2.96905 0
M  V30 9630 N 911.988 -0.768124 1.37614 0
M  V30 9631 C 913.216 -1.55726 1.36224 0
M  V30 9632 C 913.631 -1.8873 -0.0515357 0
M  V30 9633 O 912.988 -1.51718 -1.0143 0
M  V30 9634 C 913.039 -2.86533 2.20412 0
M  V30 9635 O 912.76 -2.54942 3.56281 0
M  V30 9636 C 914.261 -3.80745 2.27041 0
M  V30 9637 H 911.481 -0.482325 0.46648 0
M  V30 9638 H 914.025 -0.95176 1.81002 0
M  V30 9639 H 912.18 -3.43496 1.79134 0
M  V30 9640 H 912.594 -3.38732 4.00451 0
M  V30 9641 H 914.068 -4.69523 2.90263 0
M  V30 9642 H 914.545 -4.20138 1.27987 0
M  V30 9643 H 915.151 -3.2971 2.68647 0
M  V30 9644 N 913.466 -1.22244 -0.994698 0
M  V30 9645 C 914.877 -1.043 -1.5485 0
M  V30 9646 C 915.228 0.394102 -1.92201 0
M  V30 9647 O 914.353 1.27883 -1.74571 0
M  V30 9648 C 914.948 -1.88708 -2.8138 0
M  V30 9649 C 913.507 -1.75067 -3.3321 0
M  V30 9650 C 912.654 -1.85286 -2.06312 0
M  V30 9651 H 915.605 -1.36115 -0.815988 0
M  V30 9652 H 915.626 -1.40342 -3.53673 0
M  V30 9653 H 915.138 -2.93296 -2.54164 0
M  V30 9654 H 913.239 -0.732047 -3.65338 0
M  V30 9655 H 913.352 -2.57632 -4.03934 0
M  V30 9656 H 911.716 -1.28706 -2.19788 0
M  V30 9657 H 912.499 -2.91401 -1.81494 0
M  V30 9658 N 914.944 1.19125 -1.03184 0
M  V30 9659 C 916.193 1.8821 -0.725264 0
M  V30 9660 C 916.506 1.80674 0.749411 0
M  V30 9661 O 917.712 2.45037 1.16915 0
M  V30 9662 C 916.168 3.37607 -1.24697 0
M  V30 9663 C 915.776 3.53693 -2.74964 0
M  V30 9664 C 917.52 4.12149 -1.01652 0
M  V30 9665 C 915.427 4.97001 -3.20538 0
M  V30 9666 H 914.357 0.704916 -0.267599 0
M  V30 9667 H 917.008 1.34663 -1.24652 0
M  V30 9668 H 915.39 3.90569 -0.653614 0
M  V30 9669 H 916.564 3.11046 -3.39981 0
M  V30 9670 H 914.879 2.92544 -2.96322 0
M  V30 9671 H 917.476 5.17837 -1.33226 0
M  V30 9672 H 917.819 4.16274 0.0465712 0
M  V30 9673 H 918.352 3.65334 -1.57403 0
M  V30 9674 H 915.091 4.9804 -4.26189 0
M  V30 9675 H 914.611 5.40398 -2.60251 0
M  V30 9676 H 916.29 5.65669 -3.14049 0
M  V30 9677 N 916.422 0.810101 1.35185 0
M  V30 9678 C 917.668 0.392698 1.98962 0
M  V30 9679 C 918.001 -1.03835 1.64109 0
M  V30 9680 O 917.276 -1.721 0.9062 0
M  V30 9681 C 917.559 0.580349 3.55393 0
M  V30 9682 C 917.412 2.05658 4.00031 0
M  V30 9683 C 918.731 0.00822618 4.40099 0
M  V30 9684 H 915.85 0.144157 0.722764 0
M  V30 9685 H 918.492 1.02029 1.60281 0
M  V30 9686 H 916.642 0.0461106 3.88473 0
M  V30 9687 H 918.314 2.65348 3.77344 0
M  V30 9688 H 916.557 2.55174 3.50811 0
M  V30 9689 H 917.228 2.13875 5.08883 0
M  V30 9690 H 919.704 0.464517 4.13499 0
M  V30 9691 H 918.58 0.169414 5.48638 0
M  V30 9692 H 918.841 -1.08576 4.2856 0
M  V30 9693 N 917.9 -1.47166 0.563914 0
M  V30 9694 C 919.316 -1.58018 0.224173 0
M  V30 9695 C 919.516 -1.56163 -1.27339 0
M  V30 9696 O 918.572 -1.4686 -2.05398 0
M  V30 9697 C 919.885 -2.88236 0.856762 0
M  V30 9698 C 921.433 -3.01833 0.82861 0
M  V30 9699 C 921.908 -4.34761 1.44039 0
M  V30 9700 N 923.399 -4.41413 1.40388 0
M  V30 9701 C 924.134 -5.42845 1.84681 0
M  V30 9702 N 923.63 -6.51052 2.3686 0
M  V30 9703 N 925.423 -5.33931 1.75711 0
M  V30 9704 H 917.574 -1.46615 1.53681 0
M  V30 9705 H 919.837 -0.698195 0.64127 0
M  V30 9706 H 919.543 -2.95349 1.90949 0
M  V30 9707 H 919.417 -3.75537 0.353766 0
M  V30 9708 H 921.804 -2.94312 -0.215451 0
M  V30 9709 H 921.885 -2.16056 1.36943 0
M  V30 9710 H 921.529 -4.43037 2.48355 0
M  V30 9711 H 921.459 -5.1928 0.874953 0
M  V30 9712 H 923.95 -3.63811 1.02227 0
M  V30 9713 H 924.263 -7.24633 2.68564 0
M  V30 9714 H 922.608 -6.51924 2.40875 0
M  V30 9715 H 925.799 -4.48295 1.34718 0
M  V30 9716 H 925.972 -6.12841 2.10547 0
M  V30 9717 N 919.378 -0.300708 -1.54705 0
M  V30 9718 C 920.341 0.562648 -2.22187 0
M  V30 9719 C 921.341 1.06152 -1.20782 0
M  V30 9720 O 922.531 0.957596 -1.45519 0
M  V30 9721 C 919.663 1.77899 -2.908 0
M  V30 9722 H 920.856 -0.0269361 -2.99888 0
M  V30 9723 H 918.409 -0.0515412 -1.56215 0
M  V30 9724 H 919.144 2.40841 -2.17177 0
M  V30 9725 H 918.929 1.42892 -3.65136 0
M  V30 9726 H 920.419 2.39236 -3.42281 0
M  V30 9727 N 920.856 1.57574 -0.0284266 0
M  V30 9728 C 922.081 1.96479 0.664137 0
M  V30 9729 C 922.506 0.904826 1.64908 0
M  V30 9730 O 921.864 -0.134339 1.80802 0
M  V30 9731 C 921.912 3.34479 1.34745 0
M  V30 9732 O 921.016 3.30794 2.46271 0
M  V30 9733 H 920.357 0.640654 0.174524 0
M  V30 9734 H 922.887 2.04402 -0.0900729 0
M  V30 9735 H 922.897 3.70694 1.7044 0
M  V30 9736 H 921.572 4.1117 0.625468 0
M  V30 9737 H 920.149 3.06294 2.12693 0
M  V30 9738 N 922.334 -0.244713 1.55689 0
M  V30 9739 C 923.582 -0.970525 1.77272 0
M  V30 9740 C 923.903 -1.85771 0.592804 0
M  V30 9741 O 923.173 -1.91952 -0.391323 0
M  V30 9742 H 921.753 -0.361342 0.653789 0
M  V30 9743 H 924.415 -0.262134 1.93129 0
M  V30 9744 H 923.511 -1.59096 2.68505 0
M  V30 9745 N 923.813 -1.49104 -0.510467 0
M  V30 9746 C 925.229 -1.35657 -0.840797 0
M  V30 9747 C 925.429 -0.382425 -1.97838 0
M  V30 9748 O 924.485 0.189331 -2.51789 0
M  V30 9749 C 925.798 -2.76155 -1.18992 0
M  V30 9750 C 927.346 -2.84786 -1.29868 0
M  V30 9751 C 927.821 -4.2603 -1.68115 0
M  V30 9752 N 929.312 -4.28796 -1.75181 0
M  V30 9753 C 930.047 -5.35041 -2.062 0
M  V30 9754 N 929.543 -6.51543 -2.35508 0
M  V30 9755 N 931.336 -5.2245 -2.07371 0
M  V30 9756 H 923.487 -2.11042 0.23982 0
M  V30 9757 H 925.75 -0.946946 0.0446824 0
M  V30 9758 H 925.456 -3.49092 -0.427484 0
M  V30 9759 H 925.33 -3.10922 -2.13558 0
M  V30 9760 H 927.717 -2.12092 -2.05186 0
M  V30 9761 H 927.798 -2.53613 -0.333758 0
M  V30 9762 H 927.442 -4.99247 -0.933512 0
M  V30 9763 H 927.372 -4.5466 -2.65691 0
M  V30 9764 H 929.863 -3.44771 -1.5473 0
M  V30 9765 H 930.176 -7.28342 -2.58337 0
M  V30 9766 H 928.521 -6.54785 -2.32985 0
M  V30 9767 H 931.712 -4.30444 -1.83945 0
M  V30 9768 H 931.885 -6.05347 -2.31212 0
M  V30 9769 N 925.291 0.760815 -1.38019 0
M  V30 9770 C 926.201 1.90526 -1.36884 0
M  V30 9771 C 927.217 1.71941 -0.266908 0
M  V30 9772 O 928.393 1.94988 -0.50413 0
M  V30 9773 C 925.458 3.25799 -1.18558 0
M  V30 9774 C 924.519 3.56961 -2.3849 0
M  V30 9775 C 923.752 4.8578 -2.21029 0
M  V30 9776 O 923.975 5.57629 -1.20023 0
M  V30 9777 O 922.909 5.16254 -3.0946 0
M  V30 9778 H 926.735 1.94437 -2.33298 0
M  V30 9779 H 924.32 0.905091 -1.18863 0
M  V30 9780 H 926.202 4.0669 -1.1037 0
M  V30 9781 H 924.877 3.22716 -0.252241 0
M  V30 9782 H 923.784 2.7626 -2.52252 0
M  V30 9783 H 925.117 3.64798 -3.30429 0
M  V30 9784 N 926.769 1.22769 0.988202 0
M  V30 9785 C 927.699 1.02627 2.09738 0
M  V30 9786 C 928.68 -0.0543211 1.70013 0
M  V30 9787 O 929.865 0.108811 1.93895 0
M  V30 9788 C 926.995 0.608302 3.41931 0
M  V30 9789 C 925.949 1.63536 3.95525 0
M  V30 9790 C 925.275 1.07308 5.23822 0
M  V30 9791 C 926.575 3.02649 4.25677 0
M  V30 9792 H 928.269 1.954 2.26847 0
M  V30 9793 H 925.815 0.940888 1.09011 0
M  V30 9794 H 927.768 0.454478 4.18942 0
M  V30 9795 H 926.492 -0.355095 3.24664 0
M  V30 9796 H 925.151 1.77704 3.20651 0
M  V30 9797 H 924.799 0.100894 5.02899 0
M  V30 9798 H 924.499 1.75925 5.60646 0
M  V30 9799 H 926.023 0.930938 6.03462 0
M  V30 9800 H 927.437 2.91828 4.93467 0
M  V30 9801 H 925.834 3.68434 4.73684 0
M  V30 9802 H 926.904 3.52228 3.33262 0
M  V30 9803 N 928.247 -1.18576 1.03814 0
M  V30 9804 C 929.472 -1.92978 0.759873 0
M  V30 9805 C 929.897 -1.75514 -0.676486 0
M  V30 9806 O 929.255 -1.06359 -1.46824 0
M  V30 9807 C 929.303 -3.42507 1.12788 0
M  V30 9808 O 928.407 -4.1163 0.251886 0
M  V30 9809 H 927.748 -0.602129 0.279886 0
M  V30 9810 H 930.278 -1.50383 1.3873 0
M  V30 9811 H 930.288 -3.93206 1.08872 0
M  V30 9812 H 928.963 -3.5454 2.17427 0
M  V30 9813 H 927.54 -3.7125 0.350441 0
M  V30 9814 N 929.725 -0.817259 -1.34754 0
M  V30 9815 C 930.955 -0.414849 -2.02392 0
M  V30 9816 C 931.363 0.982186 -1.61709 0
M  V30 9817 O 930.706 1.64607 -0.815481 0
M  V30 9818 C 930.768 -0.430981 -3.56907 0
M  V30 9819 C 930.432 -1.78037 -4.20894 0
M  V30 9820 C 931.429 -2.74034 -4.41816 0
M  V30 9821 C 929.114 -2.0673 -4.57786 0
M  V30 9822 C 931.108 -3.96901 -4.98747 0
M  V30 9823 C 928.795 -3.29858 -5.14429 0
M  V30 9824 C 929.793 -4.24761 -5.34853 0
M  V30 9825 O 929.481 -5.45714 -5.90298 0
M  V30 9826 H 929.213 -0.165392 -0.655455 0
M  V30 9827 H 931.767 -1.10524 -1.73129 0
M  V30 9828 H 929.997 0.316074 -3.85406 0
M  V30 9829 H 931.686 -0.0494067 -4.0587 0
M  V30 9830 H 932.452 -2.53161 -4.13684 0
M  V30 9831 H 928.331 -1.33666 -4.41197 0
M  V30 9832 H 931.875 -4.70987 -5.14604 0
M  V30 9833 H 927.772 -3.50597 -5.41989 0
M  V30 9834 H 928.54 -5.47157 -6.08738 0
M  V30 9835 N 931.203 1.46865 -0.571711 0
M  V30 9836 C 932.449 2.0273 -0.0531858 0
M  V30 9837 C 932.782 1.44353 1.29907 0
M  V30 9838 O 932.057 0.604488 1.84868 0
M  V30 9839 C 932.34 3.60092 0.0243831 0
M  V30 9840 C 932.193 4.28874 -1.35599 0
M  V30 9841 C 933.512 4.33994 0.730563 0
M  V30 9842 H 930.631 0.736706 -0.0208018 0
M  V30 9843 H 933.273 1.75132 -0.736794 0
M  V30 9844 H 931.423 3.83736 0.606565 0
M  V30 9845 H 933.095 4.16527 -1.98249 0
M  V30 9846 H 931.338 3.88664 -1.92674 0
M  V30 9847 H 932.009 5.37561 -1.25429 0
M  V30 9848 H 934.485 4.1543 0.236098 0
M  V30 9849 H 933.361 5.43699 0.753836 0
M  V30 9850 H 933.622 4.04257 1.78967 0
M  V30 9851 N 932.681 0.308908 1.54543 0
M  V30 9852 C 933.611 -0.556657 2.26768 0
M  V30 9853 C 934.592 -1.13145 1.27013 0
M  V30 9854 O 935.777 -1.15931 1.558 0
M  V30 9855 C 932.907 -1.72481 3.01443 0
M  V30 9856 C 931.861 -1.28001 4.08411 0
M  V30 9857 C 931.187 -2.53395 4.70845 0
M  V30 9858 C 932.487 -0.405497 5.20724 0
M  V30 9859 H 934.181 0.0457618 2.99365 0
M  V30 9860 H 931.727 0.0234495 1.43981 0
M  V30 9861 H 933.68 -2.3365 3.50693 0
M  V30 9862 H 932.404 -2.35359 2.26437 0
M  V30 9863 H 931.063 -0.69133 3.60022 0
M  V30 9864 H 930.711 -3.14604 3.92471 0
M  V30 9865 H 930.411 -2.2433 5.43093 0
M  V30 9866 H 931.935 -3.15352 5.22863 0
M  V30 9867 H 933.349 -0.923076 5.6582 0
M  V30 9868 H 931.746 -0.208282 5.99738 0
M  V30 9869 H 932.816 0.567412 4.81569 0
M  V30 9870 N 934.159 -1.57557 0.0367827 0
M  V30 9871 C 935.089 -2.13712 -0.940719 0
M  V30 9872 C 936.07 -1.05515 -1.33419 0
M  V30 9873 O 937.255 -1.33385 -1.41146 0
M  V30 9874 C 934.385 -2.67043 -2.22048 0
M  V30 9875 C 933.339 -3.80096 -1.96752 0
M  V30 9876 C 932.665 -4.19886 -3.31059 0
M  V30 9877 C 933.965 -5.05848 -1.30058 0
M  V30 9878 H 935.659 -2.9564 -0.473033 0
M  V30 9879 H 933.205 -1.42214 -0.226089 0
M  V30 9880 H 935.158 -3.04964 -2.90818 0
M  V30 9881 H 933.882 -1.82287 -2.70996 0
M  V30 9882 H 932.541 -3.42625 -1.30398 0
M  V30 9883 H 932.189 -3.32101 -3.77781 0
M  V30 9884 H 931.889 -4.96073 -3.14937 0
M  V30 9885 H 933.413 -4.60395 -4.01084 0
M  V30 9886 H 934.827 -5.41306 -1.8884 0
M  V30 9887 H 933.224 -5.87084 -1.24309 0
M  V30 9888 H 934.294 -4.84122 -0.274591 0
M  V30 9889 N 935.637 0.236453 -1.55816 0
M  V30 9890 C 936.865 0.980295 -1.82203 0
M  V30 9891 C 937.28 1.7854 -0.613926 0
M  V30 9892 O 936.637 1.77661 0.417491 0
M  V30 9893 C 936.688 1.90982 -3.06933 0
M  V30 9894 O 936.409 1.13728 -4.23081 0
M  V30 9895 C 937.91 2.76879 -3.46198 0
M  V30 9896 H 935.13 0.28799 -0.606055 0
M  V30 9897 H 937.674 0.256182 -2.02889 0
M  V30 9898 H 935.829 2.58808 -2.88266 0
M  V30 9899 H 936.243 1.76694 -4.93842 0
M  V30 9900 H 937.717 3.37831 -4.36548 0
M  V30 9901 H 938.194 3.48522 -2.67262 0
M  V30 9902 H 938.8 2.1449 -3.67252 0
M  V30 9903 N 937.115 1.49373 0.502552 0
M  V30 9904 C 938.363 1.58467 1.25429 0
M  V30 9905 C 938.684 0.272593 1.93085 0
M  V30 9906 O 937.954 -0.707947 1.82661 0
M  V30 9907 H 936.534 0.583866 0.46595 0
M  V30 9908 H 939.196 1.8599 0.582568 0
M  V30 9909 H 938.292 2.37993 2.01906 0
M  V30 9910 N 938.594 -0.753485 1.38421 0
M  V30 9911 C 939.843 -1.50797 1.33952 0
M  V30 9912 C 940.156 -1.95482 -0.0678464 0
M  V30 9913 O 941.362 -2.7048 -0.235078 0
M  V30 9914 C 939.818 -2.72393 2.35224 0
M  V30 9915 C 939.426 -2.34733 3.81582 0
M  V30 9916 C 941.17 -3.50281 2.39798 0
M  V30 9917 C 939.077 -3.52939 4.7454 0
M  V30 9918 H 938.007 -0.566211 0.497916 0
M  V30 9919 H 940.658 -0.823659 1.63976 0
M  V30 9920 H 939.04 -3.42806 1.98243 0
M  V30 9921 H 940.214 -1.71985 4.27502 0
M  V30 9922 H 938.529 -1.69978 3.80127 0
M  V30 9923 H 941.126 -4.38172 3.06447 0
M  V30 9924 H 941.469 -3.91444 1.41695 0
M  V30 9925 H 942.002 -2.86881 2.75579 0
M  V30 9926 H 938.741 -3.16843 5.73839 0
M  V30 9927 H 938.261 -4.1473 4.33312 0
M  V30 9928 H 939.94 -4.19519 4.92557 0
M  V30 9929 N 940.072 -1.23292 -0.981677 0
M  V30 9930 C 941.319 -1.06424 -1.72279 0
M  V30 9931 C 941.647 0.399055 -1.90362 0
M  V30 9932 O 940.902 1.31181 -1.45224 0
M  V30 9933 C 941.201 -1.73339 -3.12551 0
M  V30 9934 C 940.867 -3.23256 -3.14351 0
M  V30 9935 C 939.529 -3.64159 -3.14549 0
M  V30 9936 C 941.881 -4.1916 -3.09765 0
M  V30 9937 C 939.209 -4.99428 -3.07877 0
M  V30 9938 C 941.561 -5.54419 -3.04635 0
M  V30 9939 C 940.225 -5.94688 -3.03154 0
M  V30 9940 H 939.495 -0.389434 -0.630415 0
M  V30 9941 H 942.142 -1.53208 -1.1489 0
M  V30 9942 H 940.447 -1.18911 -3.73319 0
M  V30 9943 H 942.144 -1.57767 -3.68661 0
M  V30 9944 H 938.734 -2.90693 -3.14953 0
M  V30 9945 H 942.918 -3.88569 -3.08753 0
M  V30 9946 H 938.174 -5.29844 -3.05083 0
M  V30 9947 H 942.348 -6.28448 -3.00043 0
M  V30 9948 H 939.975 -6.99468 -2.97739 0
M  V30 9949 N 941.55 1.18024 -1.04442 0
M  V30 9950 C 942.48 2.23988 -0.659683 0
M  V30 9951 C 943.461 1.6669 0.338904 0
M  V30 9952 O 944.646 1.92971 0.21817 0
M  V30 9953 C 941.776 3.4729 -0.0257672 0
M  V30 9954 C 940.73 4.17362 -0.948299 0
M  V30 9955 C 940.056 5.34401 -0.17866 0
M  V30 9956 C 941.356 4.70435 -2.26909 0
M  V30 9957 H 943.05 2.56425 -1.54553 0
M  V30 9958 H 940.596 1.23256 -0.744575 0
M  V30 9959 H 942.549 4.20627 0.255131 0
M  V30 9960 H 941.273 3.14098 0.894981 0
M  V30 9961 H 939.932 3.45928 -1.21364 0
M  V30 9962 H 939.58 4.97458 0.744614 0
M  V30 9963 H 939.28 5.8222 -0.793294 0
M  V30 9964 H 940.804 6.10526 0.0951315 0
M  V30 9965 H 942.218 5.35447 -2.04864 0
M  V30 9966 H 940.615 5.28803 -2.83703 0
M  V30 9967 H 941.685 3.87653 -2.91296 0
M  V30 9968 N 943.028 0.824394 1.34319 0
M  V30 9969 C 944.268 0.419044 2.00058 0
M  V30 9970 C 944.632 -0.999504 1.63933 0
M  V30 9971 O 945.833 -1.50781 2.22527 0
M  V30 9972 C 944.104 0.616897 3.52036 0
M  V30 9973 S 945.663 0.304614 4.37741 0
M  V30 9974 H 942.481 0.158265 0.693162 0
M  V30 9975 H 945.083 1.07053 1.63585 0
M  V30 9976 H 943.787 1.64896 3.75816 0
M  V30 9977 H 943.318 -0.0492693 3.93369 0
M  V30 9978 H 945.333 -0.88114 4.88314 0
M  V30 9979 N 944.506 -1.46559 0.579492 0
M  V30 9980 C 945.736 -2.06484 0.0692642 0
M  V30 9981 C 946.144 -1.4293 -1.23967 0
M  V30 9982 O 945.487 -0.527632 -1.75959 0
M  V30 9983 C 945.549 -3.59078 -0.174174 0
M  V30 9984 C 945.213 -4.44805 1.04867 0
M  V30 9985 C 946.21 -4.81543 1.95991 0
M  V30 9986 C 943.895 -4.8599 1.26961 0
M  V30 9987 C 945.889 -5.58288 3.0756 0
M  V30 9988 C 943.576 -5.62495 2.38836 0
M  V30 9989 C 944.574 -5.98558 3.28964 0
M  V30 9990 O 944.262 -6.73518 4.38896 0
M  V30 9991 H 943.994 -0.673917 0.0530331 0
M  V30 9992 H 946.548 -1.89223 0.79898 0
M  V30 9993 H 944.778 -3.74634 -0.958464 0
M  V30 9994 H 946.467 -4.00941 -0.632515 0
M  V30 9995 H 947.233 -4.50307 1.80136 0
M  V30 9996 H 943.112 -4.57372 0.577184 0
M  V30 9997 H 946.656 -5.86355 3.77933 0
M  V30 9998 H 942.553 -5.93145 2.54655 0
M  V30 9999 H 943.321 -6.91938 4.37223 0
M  V30 10000 N 945.984 -0.3171 -1.54377 0
M  V30 10001 C 947.233 0.288271 -1.99629 0
M  V30 10002 C 947.546 1.53754 -1.2091 0
M  V30 10003 O 948.752 2.2185 -1.56508 0
M  V30 10004 C 947.208 0.564188 -3.5545 0
M  V30 10005 C 946.816 -0.667659 -4.42997 0
M  V30 10006 C 948.56 1.12987 -4.09187 0
M  V30 10007 C 946.467 -0.364003 -5.90279 0
M  V30 10008 H 945.397 0.111492 -0.745711 0
M  V30 10009 H 948.048 -0.428317 -1.78431 0
M  V30 10010 H 946.43 1.34079 -3.72611 0
M  V30 10011 H 947.604 -1.44335 -4.37612 0
M  V30 10012 H 945.919 -1.1531 -4.00116 0
M  V30 10013 H 948.516 1.37157 -5.1681 0
M  V30 10014 H 948.859 2.07722 -3.60773 0
M  V30 10015 H 949.392 0.414595 -3.95634 0
M  V30 10016 H 946.131 -1.28035 -6.42874 0
M  V30 10017 H 945.651 0.374102 -5.98632 0
M  V30 10018 H 947.33 0.0285433 -6.46994 0
M  V30 10019 N 947.462 1.57535 -0.0451378 0
M  V30 10020 C 948.711 1.91628 0.629415 0
M  V30 10021 C 949.024 0.924754 1.72359 0
M  V30 10022 O 950.23 1.15751 2.45589 0
M  V30 10023 C 948.686 3.40322 1.17084 0
M  V30 10024 C 948.294 4.47867 0.109101 0
M  V30 10025 C 950.038 3.83458 1.82099 0
M  V30 10026 C 947.945 5.87671 0.663072 0
M  V30 10027 H 946.875 0.715163 0.238868 0
M  V30 10028 H 949.526 1.83151 -0.113046 0
M  V30 10029 H 947.908 3.43783 1.96543 0
M  V30 10030 H 949.082 4.55988 -0.664201 0
M  V30 10031 H 947.397 4.14034 -0.443227 0
M  V30 10032 H 949.994 4.85273 2.2453 0
M  V30 10033 H 950.337 3.19379 2.67026 0
M  V30 10034 H 950.87 3.82488 1.09305 0
M  V30 10035 H 947.609 6.55332 -0.148423 0
M  V30 10036 H 947.129 5.83124 1.4045 0
M  V30 10037 H 948.808 6.36737 1.14785 0
M  V30 10038 N 948.94 -0.228186 1.55939 0
M  V30 10039 C 950.168 -0.970618 1.8272 0
M  V30 10040 C 950.583 -1.78212 0.623385 0
M  V30 10041 O 949.94 -1.77879 -0.408063 0
M  V30 10042 C 949.991 -1.89352 3.07942 0
M  V30 10043 O 949.712 -1.11483 4.23678 0
M  V30 10044 C 951.213 -2.75039 3.47661 0
M  V30 10045 H 948.433 -0.284772 0.607574 0
M  V30 10046 H 950.977 -0.245419 2.03022 0
M  V30 10047 H 949.132 -2.57275 2.89635 0
M  V30 10048 H 949.546 -1.74073 4.94772 0
M  V30 10049 H 951.02 -3.35511 4.38334 0
M  V30 10050 H 951.497 -3.471 2.69106 0
M  V30 10051 H 952.103 -2.1254 3.68384 0
M  V30 10052 N 950.418 -1.49637 -0.494624 0
M  V30 10053 C 951.665 -1.59445 -1.24834 0
M  V30 10054 C 951.993 -0.284028 -1.92415 0
M  V30 10055 O 951.248 0.728519 -1.81634 0
M  V30 10056 C 951.547 -2.70749 -2.33302 0
M  V30 10057 C 951.213 -4.12034 -1.83135 0
M  V30 10058 C 949.875 -4.50482 -1.69173 0
M  V30 10059 C 952.227 -5.00432 -1.4566 0
M  V30 10060 C 949.555 -5.75093 -1.16124 0
M  V30 10061 C 951.907 -6.25568 -0.940608 0
M  V30 10062 C 950.571 -6.62839 -0.787432 0
M  V30 10063 H 949.841 -0.583451 -0.456799 0
M  V30 10064 H 952.488 -1.8349 -0.548044 0
M  V30 10065 H 950.793 -2.407 -3.09145 0
M  V30 10066 H 952.49 -2.75546 -2.91334 0
M  V30 10067 H 949.08 -3.8169 -1.94964 0
M  V30 10068 H 953.264 -4.71379 -1.55291 0
M  V30 10069 H 948.52 -6.02665 -1.02982 0
M  V30 10070 H 952.694 -6.93439 -0.641467 0
M  V30 10071 H 950.321 -7.59279 -0.374191 0
M  V30 10072 N 951.896 0.746133 -1.38819 0
M  V30 10073 C 952.826 1.87344 -1.39372 0
M  V30 10074 C 953.807 1.68123 -0.258583 0
M  V30 10075 O 954.992 1.88606 -0.462769 0
M  V30 10076 C 952.122 3.24962 -1.22543 0
M  V30 10077 C 951.076 3.58799 -2.33339 0
M  V30 10078 C 950.402 4.95235 -2.01609 0
M  V30 10079 C 951.702 3.62911 -3.75624 0
M  V30 10080 H 953.396 1.87138 -2.33709 0
M  V30 10081 H 950.942 0.898937 -1.12495 0
M  V30 10082 H 952.895 4.03488 -1.21554 0
M  V30 10083 H 951.619 3.25667 -0.246707 0
M  V30 10084 H 950.278 2.82596 -2.33527 0
M  V30 10085 H 949.926 4.92508 -1.02202 0
M  V30 10086 H 949.626 5.18843 -2.75819 0
M  V30 10087 H 951.15 5.76131 -2.02251 0
M  V30 10088 H 952.564 4.31535 -3.77426 0
M  V30 10089 H 950.961 3.98031 -4.491 0
M  V30 10090 H 952.031 2.62967 -4.07402 0
M  V30 10091 N 953.375 1.23811 0.975125 0
M  V30 10092 C 954.308 0.967173 2.06691 0
M  V30 10093 C 955.286 -0.09642 1.62314 0
M  V30 10094 O 956.47 0.0389532 1.8846 0
M  V30 10095 C 953.597 0.458094 3.35588 0
M  V30 10096 C 952.643 1.5091 3.98909 0
M  V30 10097 S 953.476 3.08815 4.37485 0
M  V30 10098 C 954.632 2.59591 5.69529 0
M  V30 10099 H 954.865 1.89166 2.29355 0
M  V30 10100 H 952.398 1.07113 1.11203 0
M  V30 10101 H 954.356 0.170991 4.10144 0
M  V30 10102 H 953.017 -0.445562 3.10924 0
M  V30 10103 H 952.21 1.10315 4.91779 0
M  V30 10104 H 951.812 1.74582 3.30752 0
M  V30 10105 H 954.104 2.0194 6.46704 0
M  V30 10106 H 955.047 3.51021 6.14971 0
M  V30 10107 H 955.455 2.00267 5.27782 0
M  V30 10108 N 954.853 -1.17469 1.05066 0
M  V30 10109 C 956.102 -1.87032 0.755114 0
M  V30 10110 C 956.415 -1.81844 -0.720572 0
M  V30 10111 O 957.621 -2.46866 -1.13002 0
M  V30 10112 C 956.077 -3.35581 1.30052 0
M  V30 10113 C 955.685 -3.49274 2.80556 0
M  V30 10114 C 957.429 -4.1048 1.08196 0
M  V30 10115 C 955.336 -4.91838 3.28404 0
M  V30 10116 H 954.266 -0.70057 0.278779 0
M  V30 10117 H 956.917 -1.32663 1.26779 0
M  V30 10118 H 955.299 -3.89479 0.715667 0
M  V30 10119 H 956.473 -3.05598 3.44886 0
M  V30 10120 H 954.788 -2.87793 3.00939 0
M  V30 10121 H 957.385 -5.15652 1.41447 0
M  V30 10122 H 957.728 -4.16295 0.0196603 0
M  V30 10123 H 958.261 -3.62784 1.63195 0
M  V30 10124 H 955 -4.91196 4.34058 0
M  V30 10125 H 954.52 -5.36189 2.68815 0
M  V30 10126 H 956.199 -5.60602 3.23009 0
M  V30 10127 N 956.331 -0.831506 -1.3388 0
M  V30 10128 C 957.294 -0.264773 -2.27666 0
M  V30 10129 C 958.294 0.562273 -1.50649 0
M  V30 10130 O 959.484 0.377131 -1.70069 0
M  V30 10131 C 956.616 0.627814 -3.35069 0
M  V30 10132 H 957.809 -1.09225 -2.79303 0
M  V30 10133 H 955.362 -0.604021 -1.44157 0
M  V30 10134 H 956.097 1.47802 -2.88661 0
M  V30 10135 H 955.882 0.0361552 -3.92083 0
M  V30 10136 H 957.372 1.01786 -4.05005 0
M  V30 10137 N 957.809 1.4625 -0.587256 0
M  V30 10138 C 958.756 2.30354 0.143384 0
M  V30 10139 C 959.726 1.40891 0.879716 0
M  V30 10140 O 960.911 1.69837 0.869486 0
M  V30 10141 C 958.051 3.25441 1.14815 0
M  V30 10142 C 957.164 4.30004 0.414792 0
M  V30 10143 C 956.299 5.12214 1.40748 0
M  V30 10144 C 955.338 6.08523 0.660786 0
M  V30 10145 N 954.475 6.83585 1.60176 0
M  V30 10146 H 959.315 2.92304 -0.579866 0
M  V30 10147 H 956.852 1.44055 -0.29777 0
M  V30 10148 H 958.81 3.79018 1.7436 0
M  V30 10149 H 957.44 2.6529 1.83906 0
M  V30 10150 H 956.492 3.79248 -0.295787 0
M  V30 10151 H 957.804 4.98515 -0.168738 0
M  V30 10152 H 956.958 5.70091 2.0756 0
M  V30 10153 H 955.697 4.43675 2.02494 0
M  V30 10154 H 954.702 5.49796 -0.0210864 0
M  V30 10155 H 955.927 6.79083 0.0486551 0
M  V30 10156 H 953.873 6.17752 2.20724 0
M  V30 10157 H 953.79 7.48373 1.07115 0
M  V30 10158 H 955.058 7.46016 2.26009 0
M  V30 10159 N 959.287 0.325282 1.54207 0
M  V30 10160 C 960.698 -0.162426 1.85992 0
M  V30 10161 C 961.049 -1.51482 1.2469 0
M  V30 10162 O 960.174 -2.092 0.553578 0
M  V30 10163 C 960.769 -0.3015 3.37456 0
M  V30 10164 C 959.328 -0.73343 3.69185 0
M  V30 10165 C 958.475 0.143831 2.76927 0
M  V30 10166 H 961.426 0.545508 1.4903 0
M  V30 10167 H 961.447 -1.13212 3.63268 0
M  V30 10168 H 960.959 0.682942 3.82044 0
M  V30 10169 H 959.06 -1.72755 3.30131 0
M  V30 10170 H 959.173 -0.535987 4.76092 0
M  V30 10171 H 957.537 -0.380892 2.51836 0
M  V30 10172 H 958.32 1.12507 3.24341 0
M  V30 10173 N 960.765 -1.57509 0.0534917 0
M  V30 10174 C 962.042 -1.84137 -0.659767 0
M  V30 10175 C 962.422 -0.942362 -1.88899 0
M  V30 10176 O 961.77 -0.00398566 -2.285 0
M  V30 10177 C 961.98 -3.33919 -1.01486 0
M  V30 10178 C 963.328 -4.00989 -1.39616 0
M  V30 10179 O 964.352 -3.38557 -1.10713 0
M  V30 10180 O 963.211 -5.11071 -1.93567 0
M  V30 10181 H 960.305 -0.760081 -0.325893 0
M  V30 10182 H 962.851 -1.69497 0.0830315 0
M  V30 10183 H 961.623 -3.91046 -0.141041 0
M  V30 10184 H 961.246 -3.53755 -1.81503 0
M  V30 10185 N 962.243 0.219913 -1.56058 0
M  V30 10186 C 963.489 0.945463 -1.79412 0
M  V30 10187 C 963.822 1.83922 -0.62341 0
M  V30 10188 O 963.097 1.90806 0.377256 0
M  V30 10189 C 963.38 1.783 -3.1286 0
M  V30 10190 C 963.233 0.915626 -4.40382 0
M  V30 10191 C 964.552 2.76045 -3.42764 0
M  V30 10192 H 961.671 0.342288 -0.652693 0
M  V30 10193 H 964.313 0.214235 -1.88788 0
M  V30 10194 H 962.463 2.40642 -3.04998 0
M  V30 10195 H 964.135 0.30882 -4.60265 0
M  V30 10196 H 962.378 0.221124 -4.33236 0
M  V30 10197 H 963.049 1.53607 -5.30197 0
M  V30 10198 H 965.525 2.23838 -3.50764 0
M  V30 10199 H 964.401 3.31748 -4.37304 0
M  V30 10200 H 964.662 3.53866 -2.65012 0
M  V30 10201 N 963.721 1.49897 0.486681 0
M  V30 10202 C 964.684 1.67086 1.56891 0
M  V30 10203 C 965.684 0.54209 1.51387 0
M  V30 10204 O 966.874 0.80883 1.54284 0
M  V30 10205 C 964.006 1.68159 2.96539 0
M  V30 10206 H 965.199 2.63626 1.42974 0
M  V30 10207 H 962.752 1.39143 0.711954 0
M  V30 10208 H 963.487 0.732562 3.15918 0
M  V30 10209 H 963.272 2.50147 3.01942 0
M  V30 10210 H 964.762 1.83466 3.7514 0
M  V30 10211 N 965.199 -0.738761 1.39212 0
M  V30 10212 C 966.445 -1.50046 1.36433 0
M  V30 10213 C 966.778 -1.94157 -0.0409474 0
M  V30 10214 O 966.053 -1.66515 -1.00514 0
M  V30 10215 C 966.336 -2.74277 2.33333 0
M  V30 10216 C 966.189 -2.36209 3.82786 0
M  V30 10217 C 967.508 -3.76361 2.28123 0
M  V30 10218 H 964.627 -0.544294 0.496903 0
M  V30 10219 H 967.269 -0.845005 1.70175 0
M  V30 10220 H 965.419 -3.30204 2.04689 0
M  V30 10221 H 967.091 -1.85942 4.22165 0
M  V30 10222 H 965.334 -1.68483 3.99745 0
M  V30 10223 H 966.005 -3.25156 4.46069 0
M  V30 10224 H 968.481 -3.30009 2.53443 0
M  V30 10225 H 967.357 -4.60957 2.9801 0
M  V30 10226 H 967.618 -4.23013 1.28499 0
M  V30 10227 N 966.677 -1.24326 -0.968545 0
M  V30 10228 C 967.917 -1.09434 -1.72637 0
M  V30 10229 C 968.281 0.360781 -1.8858 0
M  V30 10230 O 969.482 0.631188 -2.61284 0
M  V30 10231 C 967.753 -1.81285 -3.08011 0
M  V30 10232 S 969.312 -1.82113 -3.99225 0
M  V30 10233 H 966.13 -0.391409 -0.593565 0
M  V30 10234 H 968.732 -1.57643 -1.15624 0
M  V30 10235 H 967.436 -2.86274 -2.94067 0
M  V30 10236 H 966.967 -1.33405 -3.7009 0
M  V30 10237 H 968.982 -0.888196 -4.88186 0
M  V30 10238 N 968.156 1.1691 -1.05688 0
M  V30 10239 C 969.381 1.91745 -0.790478 0
M  V30 10240 C 969.806 1.76568 0.648478 0
M  V30 10241 O 969.164 1.08682 1.45114 0
M  V30 10242 C 969.212 3.4067 -1.18222 0
M  V30 10243 O 968.316 4.11177 -0.317341 0
M  V30 10244 H 967.657 0.5976 -0.28943 0
M  V30 10245 H 970.187 1.48157 -1.41105 0
M  V30 10246 H 970.197 3.91424 -1.15114 0
M  V30 10247 H 968.872 3.51036 -2.2304 0
M  V30 10248 H 967.449 3.70645 -0.409459 0
M  V30 10249 N 969.634 0.838594 1.33437 0
M  V30 10250 C 970.881 0.434169 1.97791 0
M  V30 10251 C 971.209 -1.00652 1.66431 0
M  V30 10252 O 970.464 -1.71848 0.936309 0
M  V30 10253 C 970.763 0.601425 3.52303 0
M  V30 10254 C 970.429 2.01017 4.03612 0
M  V30 10255 C 969.091 2.39551 4.17336 0
M  V30 10256 C 971.443 2.93035 4.31022 0
M  V30 10257 C 968.771 3.69406 4.55802 0
M  V30 10258 C 971.123 4.22372 4.7094 0
M  V30 10259 C 969.787 4.60862 4.82869 0
M  V30 10260 H 969.057 0.158874 0.723768 0
M  V30 10261 H 971.704 1.06556 1.59116 0
M  V30 10262 H 970.009 -0.113284 3.91636 0
M  V30 10263 H 971.706 0.268798 4.00098 0
M  V30 10264 H 968.296 1.7009 3.93405 0
M  V30 10265 H 972.48 2.64503 4.19943 0
M  V30 10266 H 967.736 3.99033 4.63231 0
M  V30 10267 H 971.91 4.93749 4.91106 0
M  V30 10268 H 969.537 5.6153 5.12433 0
M  V30 10269 N 971.112 -1.45937 0.595003 0
M  V30 10270 C 972.528 -1.57507 0.257641 0
M  V30 10271 C 972.728 -1.58829 -1.23998 0
M  V30 10272 O 971.784 -1.51183 -2.02237 0
M  V30 10273 C 973.097 -2.86354 0.917708 0
M  V30 10274 C 974.645 -3.00007 0.892446 0
M  V30 10275 C 975.12 -4.31607 1.53229 0
M  V30 10276 N 976.611 -4.38336 1.49719 0
M  V30 10277 C 977.346 -5.38805 1.96154 0
M  V30 10278 N 976.842 -6.45882 2.50617 0
M  V30 10279 N 978.635 -5.30084 1.86997 0
M  V30 10280 H 970.786 -1.43322 1.56756 0
M  V30 10281 H 973.049 -0.684436 0.655936 0
M  V30 10282 H 972.755 -2.91233 1.97171 0
M  V30 10283 H 972.629 -3.74703 0.433344 0
M  V30 10284 H 975.016 -2.94703 -0.152975 0
M  V30 10285 H 975.097 -2.13103 1.41495 0
M  V30 10286 H 974.741 -4.3767 2.57697 0
M  V30 10287 H 974.671 -5.17308 0.984903 0
M  V30 10288 H 977.162 -3.6156 1.09921 0
M  V30 10289 H 977.475 -7.18774 2.83874 0
M  V30 10290 H 975.82 -6.46668 2.54649 0
M  V30 10291 H 979.011 -4.45337 1.44196 0
M  V30 10292 H 979.184 -6.08237 2.23499 0
M  V30 10293 N 972.59 -0.333456 -1.54032 0
M  V30 10294 C 974.006 0.0188405 -1.59589 0
M  V30 10295 C 974.206 1.49615 -1.34972 0
M  V30 10296 O 973.262 2.2535 -1.13901 0
M  V30 10297 C 974.575 -0.408273 -2.97915 0
M  V30 10298 C 976.123 -0.359763 -3.10926 0
M  V30 10299 C 976.598 -0.76219 -4.51613 0
M  V30 10300 N 978.089 -0.715981 -4.57633 0
M  V30 10301 C 978.824 -0.999436 -5.64623 0
M  V30 10302 N 978.32 -1.35053 -6.79509 0
M  V30 10303 N 980.113 -0.924343 -5.54448 0
M  V30 10304 H 972.264 -1.29587 -1.68289 0
M  V30 10305 H 974.527 -0.527584 -0.787629 0
M  V30 10306 H 974.233 -1.43793 -3.20962 0
M  V30 10307 H 974.107 0.221685 -3.76548 0
M  V30 10308 H 976.494 0.660703 -2.87609 0
M  V30 10309 H 976.575 -1.02479 -2.34375 0
M  V30 10310 H 976.219 -1.78062 -4.75664 0
M  V30 10311 H 976.149 -0.0747478 -5.26547 0
M  V30 10312 H 978.64 -0.456875 -3.75128 0
M  V30 10313 H 978.953 -1.55194 -7.57057 0
M  V30 10314 H 977.298 -1.38889 -6.80981 0
M  V30 10315 H 980.489 -0.649469 -4.63573 0
M  V30 10316 H 980.662 -1.1486 -6.37739 0
M  V30 10317 N 974.068 1.57479 -0.061844 0
M  V30 10318 C 975.314 1.93395 0.610443 0
M  V30 10319 C 975.647 0.941334 1.6986 0
M  V30 10320 O 974.922 -0.0310262 1.94475 0
M  V30 10321 C 975.205 3.39636 1.19664 0
M  V30 10322 C 975.058 4.49651 0.115805 0
M  V30 10323 C 976.377 3.86488 2.10512 0
M  V30 10324 H 973.496 0.703262 0.220436 0
M  V30 10325 H 976.138 1.89583 -0.125785 0
M  V30 10326 H 974.288 3.43015 1.82409 0
M  V30 10327 H 975.96 4.58397 -0.516728 0
M  V30 10328 H 974.203 4.30237 -0.55483 0
M  V30 10329 H 974.874 5.49089 0.566176 0
M  V30 10330 H 977.35 3.85052 1.57715 0
M  V30 10331 H 976.226 4.89444 2.48466 0
M  V30 10332 H 976.487 3.23856 3.00948 0
M  V30 10333 N 975.546 -0.211634 1.56173 0
M  V30 10334 C 976.793 -0.93455 1.79645 0
M  V30 10335 C 977.121 -1.83936 0.632294 0
M  V30 10336 O 976.376 -1.91919 -0.382841 0
M  V30 10337 C 976.675 -1.79657 3.08963 0
M  V30 10338 C 976.341 -1.04415 4.38644 0
M  V30 10339 C 975.003 -0.836351 4.73876 0
M  V30 10340 C 977.355 -0.51355 5.18664 0
M  V30 10341 C 974.683 -0.0861976 5.86637 0
M  V30 10342 C 977.035 0.223309 6.32206 0
M  V30 10343 C 975.699 0.442279 6.66033 0
M  V30 10344 H 974.969 -0.341976 0.657368 0
M  V30 10345 H 977.616 -0.202024 1.90431 0
M  V30 10346 H 975.921 -2.59726 2.93342 0
M  V30 10347 H 977.618 -2.35823 3.24328 0
M  V30 10348 H 974.208 -1.21611 4.10985 0
M  V30 10349 H 978.392 -0.661541 4.91871 0
M  V30 10350 H 973.648 0.0935866 6.11328 0
M  V30 10351 H 977.822 0.641917 6.93435 0
M  V30 10352 H 975.449 1.02547 7.53252 0
M  V30 10353 N 977.024 -1.50153 -0.478725 0
M  V30 10354 C 977.954 -1.71384 -1.58587 0
M  V30 10355 C 978.935 -0.562705 -1.60523 0
M  V30 10356 O 980.12 -0.80101 -1.76911 0
M  V30 10357 C 977.25 -1.80094 -2.96957 0
M  V30 10358 C 976.204 -2.95218 -3.09888 0
M  V30 10359 C 975.53 -2.89063 -4.49829 0
M  V30 10360 C 976.83 -4.35841 -2.8782 0
M  V30 10361 H 978.524 -2.64081 -1.41073 0
M  V30 10362 H 976.07 -1.27081 -0.677239 0
M  V30 10363 H 978.023 -1.93531 -3.74331 0
M  V30 10364 H 976.747 -0.840131 -3.1561 0
M  V30 10365 H 975.406 -2.81419 -2.34944 0
M  V30 10366 H 975.054 -1.90844 -4.6539 0
M  V30 10367 H 974.754 -3.66345 -4.59418 0
M  V30 10368 H 976.278 -3.04539 -5.29234 0
M  V30 10369 H 977.692 -4.50205 -3.54948 0
M  V30 10370 H 976.089 -5.14515 -3.0886 0
M  V30 10371 H 977.159 -4.48739 -1.83742 0
M  V30 10372 N 978.502 0.731368 -1.39602 0
M  V30 10373 C 979.75 1.48805 -1.36753 0
M  V30 10374 C 980.071 1.94969 0.034676 0
M  V30 10375 O 979.341 1.69243 0.986591 0
M  V30 10376 H 977.921 0.55203 -0.503261 0
M  V30 10377 H 980.583 0.868013 -1.74504 0
M  V30 10378 H 979.679 2.36844 -2.03252 0
M  V30 10379 N 979.98 1.24838 0.961938 0
M  V30 10380 C 980.91 1.07053 2.07514 0
M  V30 10381 C 981.891 -0.0182465 1.7009 0
M  V30 10382 O 983.076 0.149915 1.9362 0
M  V30 10383 C 980.206 0.680693 3.40564 0
M  V30 10384 C 979.16 1.71889 3.91967 0
M  V30 10385 C 978.486 1.18395 5.21428 0
M  V30 10386 C 979.786 3.1161 4.19161 0
M  V30 10387 H 981.48 2.00167 2.22651 0
M  V30 10388 H 979.026 0.963799 1.0699 0
M  V30 10389 H 980.979 0.54324 4.17884 0
M  V30 10390 H 979.703 -0.28615 3.25344 0
M  V30 10391 H 978.362 1.84465 3.16809 0
M  V30 10392 H 978.01 0.207543 5.02572 0
M  V30 10393 H 977.71 1.87778 5.56788 0
M  V30 10394 H 979.234 1.05873 6.01351 0
M  V30 10395 H 980.648 3.0223 4.87165 0
M  V30 10396 H 979.045 3.78398 4.65763 0
M  V30 10397 H 980.115 3.59218 3.25715 0
M  V30 10398 N 981.458 -1.16348 1.06306 0
M  V30 10399 C 982.706 -1.86512 0.778311 0
M  V30 10400 C 983.027 -1.82107 -0.697273 0
M  V30 10401 O 982.297 -1.2547 -1.50446 0
M  V30 10402 H 980.877 -0.690529 0.284919 0
M  V30 10403 H 983.539 -1.41092 1.34458 0
M  V30 10404 H 982.635 -2.91947 1.10333 0
M  V30 10405 N 982.937 -0.845659 -1.3299 0
M  V30 10406 C 983.87 -0.228695 -2.27051 0
M  V30 10407 C 984.848 0.62812 -1.49978 0
M  V30 10408 O 986.032 0.586897 -1.79131 0
M  V30 10409 C 983.159 0.678251 -3.31839 0
M  V30 10410 C 982.205 -0.103994 -4.26373 0
M  V30 10411 S 983.038 -1.46642 -5.1503 0
M  V30 10412 C 984.194 -0.564953 -6.23345 0
M  V30 10413 H 984.427 -1.02609 -2.79032 0
M  V30 10414 H 981.96 -0.642786 -1.40384 0
M  V30 10415 H 983.918 1.1959 -3.92694 0
M  V30 10416 H 982.579 1.44937 -2.78661 0
M  V30 10417 H 981.772 0.586406 -5.00577 0
M  V30 10418 H 981.374 -0.552927 -3.6989 0
M  V30 10419 H 983.666 0.234466 -6.77094 0
M  V30 10420 H 984.609 -1.27736 -6.96483 0
M  V30 10421 H 985.017 -0.143286 -5.64318 0
M  V30 10422 N 984.415 1.45619 -0.602734 0
M  V30 10423 C 985.655 2.0416 -0.0989764 0
M  V30 10424 C 986.019 1.4616 1.24504 0
M  V30 10425 O 987.22 1.96025 1.83923 0
M  V30 10426 C 985.491 3.57357 -0.0551869 0
M  V30 10427 S 987.05 4.3708 0.388086 0
M  V30 10428 H 983.868 0.709431 -0.0472054 0
M  V30 10429 H 986.47 1.78394 -0.799745 0
M  V30 10430 H 985.174 3.97083 -1.03697 0
M  V30 10431 H 984.705 3.87692 0.667727 0
M  V30 10432 H 986.72 4.68362 1.63865 0
M  V30 10433 N 985.893 0.34162 1.53853 0
M  V30 10434 C 987.142 -0.256475 2.00063 0
M  V30 10435 C 987.455 -1.51811 1.23341 0
M  V30 10436 O 988.661 -2.19332 1.60017 0
M  V30 10437 C 987.117 -0.507567 3.56303 0
M  V30 10438 C 986.725 0.738052 4.41879 0
M  V30 10439 C 988.469 -1.06463 4.10933 0
M  V30 10440 C 986.376 0.457865 5.89625 0
M  V30 10441 H 985.306 -0.0996143 0.747391 0
M  V30 10442 H 987.957 0.456649 1.77727 0
M  V30 10443 H 986.339 -1.28134 3.74697 0
M  V30 10444 H 987.513 1.51278 4.3526 0
M  V30 10445 H 985.828 1.21661 3.98231 0
M  V30 10446 H 988.425 -1.28918 5.18926 0
M  V30 10447 H 988.768 -2.01956 3.64032 0
M  V30 10448 H 989.301 -0.351601 3.96243 0
M  V30 10449 H 986.04 1.38247 6.40756 0
M  V30 10450 H 985.56 -0.278818 5.99152 0
M  V30 10451 H 987.239 0.0743914 6.46957 0
M  V30 10452 N 987.371 -1.57444 0.0701946 0
M  V30 10453 C 988.596 -1.98171 -0.61181 0
M  V30 10454 C 989.021 -0.94823 -1.62451 0
M  V30 10455 O 988.379 0.0863553 -1.81094 0
M  V30 10456 C 988.427 -3.37934 -1.2583 0
M  V30 10457 O 987.531 -3.37207 -2.37414 0
M  V30 10458 H 986.872 -0.645056 -0.157477 0
M  V30 10459 H 989.402 -2.04091 0.144235 0
M  V30 10460 H 989.412 -3.75083 -1.60552 0
M  V30 10461 H 988.087 -4.12684 -0.516234 0
M  V30 10462 H 986.664 -3.11826 -2.04497 0
M  V30 10463 N 988.849 0.203349 -1.56283 0
M  V30 10464 C 990.079 0.940061 -1.83974 0
M  V30 10465 C 990.487 1.77703 -0.649486 0
M  V30 10466 O 989.83 1.79487 0.391189 0
M  V30 10467 C 989.892 1.89249 -3.05655 0
M  V30 10468 C 989.556 1.23828 -4.39904 0
M  V30 10469 C 990.553 0.619231 -5.16199 0
M  V30 10470 C 988.238 1.2446 -4.86636 0
M  V30 10471 C 990.232 0.0152287 -6.37398 0
M  V30 10472 C 987.919 0.636764 -6.07773 0
M  V30 10473 C 988.917 0.0231481 -6.82996 0
M  V30 10474 O 988.605 -0.575187 -8.0184 0
M  V30 10475 H 988.337 0.280199 -0.615194 0
M  V30 10476 H 990.891 0.218111 -2.04239 0
M  V30 10477 H 989.121 2.65392 -2.81254 0
M  V30 10478 H 990.81 2.4963 -3.20062 0
M  V30 10479 H 991.576 0.606545 -4.81192 0
M  V30 10480 H 987.455 1.71161 -4.28048 0
M  V30 10481 H 990.999 -0.464333 -6.96053 0
M  V30 10482 H 986.896 0.646924 -6.4225 0
M  V30 10483 H 987.664 -0.471284 -8.17142 0
M  V30 10484 N 990.327 1.50405 0.470755 0
M  V30 10485 C 991.29 1.68741 1.5511 0
M  V30 10486 C 992.29 0.558116 1.50804 0
M  V30 10487 O 993.48 0.825149 1.53418 0
M  V30 10488 C 990.612 1.71295 2.94739 0
M  V30 10489 H 991.805 2.65127 1.40169 0
M  V30 10490 H 989.358 1.39891 0.697156 0
M  V30 10491 H 990.093 0.766029 3.15123 0
M  V30 10492 H 989.878 2.53336 2.99271 0
M  V30 10493 H 991.368 1.87434 3.73173 0
M  V30 10494 N 991.805 -0.723954 1.39988 0
M  V30 10495 C 992.768 -1.81973 1.3935 0
M  V30 10496 C 993.768 -1.58187 0.288702 0
M  V30 10497 O 994.958 -1.65383 0.547181 0
M  V30 10498 C 992.09 -3.19937 1.177 0
M  V30 10499 H 993.283 -1.83939 2.36868 0
M  V30 10500 H 990.836 -0.928742 1.25714 0
M  V30 10501 H 991.571 -3.23625 0.209093 0
M  V30 10502 H 991.356 -3.386 1.97719 0
M  V30 10503 H 992.846 -3.99981 1.20022 0
M  V30 10504 N 993.283 -1.25346 -0.955304 0
M  V30 10505 C 994.213 -1.08152 -2.06943 0
M  V30 10506 C 995.194 0.00922598 -1.70097 0
M  V30 10507 O 996.379 -0.160181 -1.93538 0
M  V30 10508 C 993.509 -0.698745 -3.40198 0
M  V30 10509 C 992.463 -1.73965 -3.9105 0
M  V30 10510 C 991.789 -1.21158 -5.20792 0
M  V30 10511 C 993.089 -3.13829 -4.17503 0
M  V30 10512 H 994.783 -2.01345 -2.21586 0
M  V30 10513 H 992.329 -0.969459 -1.06478 0
M  V30 10514 H 994.282 -0.565394 -4.1759 0
M  V30 10515 H 993.006 0.268892 -3.25491 0
M  V30 10516 H 991.665 -1.86143 -3.15827 0
M  V30 10517 H 991.313 -0.234193 -5.02455 0
M  V30 10518 H 991.013 -1.90728 -5.55785 0
M  V30 10519 H 992.537 -1.09061 -6.00781 0
M  V30 10520 H 993.951 -3.04809 -4.85556 0
M  V30 10521 H 992.348 -3.80863 -4.63749 0
M  V30 10522 H 993.418 -3.6094 -3.23806 0
M  V30 10523 N 994.761 1.15782 -1.06922 0
M  V30 10524 C 995.691 2.22538 -0.707045 0
M  V30 10525 C 996.672 1.67371 0.303471 0
M  V30 10526 O 997.857 1.9339 0.177189 0
M  V30 10527 C 994.987 3.47158 -0.0994269 0
M  V30 10528 C 993.941 4.15257 -1.03661 0
M  V30 10529 C 993.267 5.33902 -0.291974 0
M  V30 10530 C 994.567 4.65516 -2.36837 0
M  V30 10531 H 996.261 2.53089 -1.59958 0
M  V30 10532 H 993.807 1.21649 -0.770552 0
M  V30 10533 H 995.76 4.21073 0.165852 0
M  V30 10534 H 994.484 3.15926 0.828155 0
M  V30 10535 H 993.143 3.43276 -1.28674 0
M  V30 10536 H 992.791 4.98926 0.638928 0
M  V30 10537 H 992.491 5.80407 -0.916613 0
M  V30 10538 H 994.015 6.1059 -0.0343915 0
M  V30 10539 H 995.429 5.30981 -2.16175 0
M  V30 10540 H 993.826 5.22666 -2.94856 0
M  V30 10541 H 994.896 3.81387 -2.99453 0
M  V30 10542 N 996.239 0.8527 1.3254 0
M  V30 10543 C 997.467 0.469044 2.01513 0
M  V30 10544 C 997.882 -0.933701 1.64096 0
M  V30 10545 O 997.239 -1.60898 0.861283 0
M  V30 10546 C 997.29 0.596228 3.56549 0
M  V30 10547 O 997.011 1.94371 3.92621 0
M  V30 10548 C 998.512 0.211324 4.42796 0
M  V30 10549 H 995.732 0.184589 0.645111 0
M  V30 10550 H 998.276 1.1491 1.69163 0
M  V30 10551 H 996.431 -0.0360712 3.87383 0
M  V30 10552 H 996.845 1.93909 4.87339 0
M  V30 10553 H 998.319 0.351324 5.50881 0
M  V30 10554 H 998.796 -0.848055 4.30935 0
M  V30 10555 H 999.402 0.818617 4.17347 0
M  V30 10556 N 997.718 -1.45297 0.610449 0
M  V30 10557 C 998.665 -2.30553 -0.106718 0
M  V30 10558 C 999.635 -1.42272 -0.85719 0
M  V30 10559 O 1000.82 -1.71199 -0.842357 0
M  V30 10560 C 997.96 -3.27226 -1.09623 0
M  V30 10561 C 997.073 -4.3061 -0.346329 0
M  V30 10562 C 996.208 -5.14389 -1.32581 0
M  V30 10563 C 995.247 -6.09497 -0.563892 0
M  V30 10564 N 994.384 -6.86047 -1.4928 0
M  V30 10565 H 999.224 -2.91344 0.626296 0
M  V30 10566 H 996.761 -1.43563 0.32065 0
M  V30 10567 H 998.719 -3.81744 -1.68308 0
M  V30 10568 H 997.349 -2.68182 -1.79662 0
M  V30 10569 H 996.401 -3.7873 0.356084 0
M  V30 10570 H 997.713 -4.98183 0.248026 0
M  V30 10571 H 996.867 -5.73321 -1.98464 0
M  V30 10572 H 995.606 -4.4684 -1.9541 0
M  V30 10573 H 994.611 -5.49693 0.108551 0
M  V30 10574 H 995.836 -6.79074 0.0593872 0
M  V30 10575 H 993.782 -6.21185 -2.10868 0
M  V30 10576 H 993.699 -7.49983 -0.951953 0
M  V30 10577 H 994.967 -7.49518 -2.14112 0
M  V30 10578 N 999.196 -0.349774 -1.5367 0
M  V30 10579 C 1000.42 0.246038 -2.05432 0
M  V30 10580 C 1000.84 1.43719 -1.22435 0
M  V30 10581 O 1000.2 1.80622 -0.261166 0
M  V30 10582 C 1000.25 0.65501 -3.55516 0
M  V30 10583 O 999.968 -0.488782 -4.35365 0
M  V30 10584 C 1001.47 1.31088 -4.23475 0
M  V30 10585 H 998.689 0.0463952 -0.669394 0
M  V30 10586 H 1001.23 -0.503566 -1.98203 0
M  V30 10587 H 999.388 1.35455 -3.62947 0
M  V30 10588 H 999.802 -0.161528 -5.24251 0
M  V30 10589 H 1001.28 1.54774 -5.29857 0
M  V30 10590 H 1001.75 2.26636 -3.76208 0
M  V30 10591 H 1002.36 0.653211 -4.20254 0
M  V30 10592 N 1000.67 1.57404 -0.0785433 0
M  V30 10593 C 1001.62 2.14316 0.903949 0
M  V30 10594 C 1002.62 1.08176 1.30362 0
M  V30 10595 O 1003.82 1.26546 1.28008 0
M  V30 10596 H 1000.2 0.685367 0.309477 0
M  V30 10597 H 1002.17 2.95719 0.399081 0
M  V30 10598 C 1000.92 2.72504 2.15956 0
M  V30 10599 H 1000.24 3.53853 1.86087 0
M  V30 10600 H 1001.68 3.15914 2.82798 0
M  V30 10601 C 1000.14 1.6759 2.92259 0
M  V30 10602 O 1000.67 1.10492 3.86205 0
M  V30 10603 N 998.875 1.38467 2.5549 0
M  V30 10604 H 998.422 1.85088 1.79166 0
M  V30 10605 H 998.38 0.685053 3.06846 0
M  V30 10606 N 1002.15 -0.195058 1.56388 0
M  V30 10607 C 1003.57 -0.545894 1.49974 0
M  V30 10608 C 1003.77 -1.85851 0.778568 0
M  V30 10609 O 1002.82 -2.50346 0.329105 0
M  V30 10610 C 1004.14 -0.600599 2.94641 0
M  V30 10611 C 1005.68 -0.689429 3.05313 0
M  V30 10612 C 1006.16 -0.775243 4.51391 0
M  V30 10613 N 1007.65 -0.838769 4.55542 0
M  V30 10614 C 1008.39 -0.925337 5.65884 0
M  V30 10615 N 1007.88 -0.974204 6.85916 0
M  V30 10616 N 1009.67 -0.962528 5.53798 0
M  V30 10617 H 1001.83 0.66595 2.0169 0
M  V30 10618 H 1004.09 0.237215 0.917842 0
M  V30 10619 H 1003.79 0.29478 3.50462 0
M  V30 10620 H 1003.67 -1.45528 3.47996 0
M  V30 10621 H 1006.06 -1.57524 2.4954 0
M  V30 10622 H 1006.14 0.191451 2.55083 0
M  V30 10623 H 1005.78 0.106215 5.07789 0
M  V30 10624 H 1005.71 -1.67193 4.99354 0
M  V30 10625 H 1008.2 -0.810249 3.69112 0
M  V30 10626 H 1008.51 -1.04077 7.6576 0
M  V30 10627 H 1006.86 -0.942881 6.88574 0
M  V30 10628 H 1010.05 -0.921188 4.58946 0
M  V30 10629 H 1010.22 -1.02653 6.39817 0
M  V30 10630 N 1003.63 -1.50653 -0.462772 0
M  V30 10631 C 1004.88 -1.61296 -1.21105 0
M  V30 10632 C 1005.19 -0.322757 -1.92919 0
M  V30 10633 O 1006.4 -0.308211 -2.69745 0
M  V30 10634 C 1004.85 -2.84752 -2.201 0
M  V30 10635 C 1004.46 -4.20681 -1.54051 0
M  V30 10636 C 1006.21 -3.04744 -2.95518 0
M  V30 10637 C 1004.11 -5.35314 -2.51381 0
M  V30 10638 H 1003.04 -0.60069 -0.455728 0
M  V30 10639 H 1005.69 -1.77093 -0.480656 0
M  V30 10640 H 1004.08 -2.62532 -2.96467 0
M  V30 10641 H 1005.25 -4.53187 -0.834168 0
M  V30 10642 H 1003.56 -4.06361 -0.908828 0
M  V30 10643 H 1006.16 -3.87559 -3.68378 0
M  V30 10644 H 1006.5 -2.16802 -3.55391 0
M  V30 10645 H 1007.04 -3.27185 -2.26263 0
M  V30 10646 H 1003.78 -6.25437 -1.96235 0
M  V30 10647 H 1003.3 -5.07216 -3.20144 0
M  V30 10648 H 1004.98 -5.66229 -3.1304 0
M  V30 10649 N 1005.11 0.71652 -1.4037 0
M  V30 10650 C 1006.34 1.50344 -1.41704 0
M  V30 10651 C 1006.75 1.89194 -0.0148011 0
M  V30 10652 O 1006.09 1.55916 0.971391 0
M  V30 10653 C 1006.15 2.80928 -2.2432 0
M  V30 10654 C 1005.82 2.64406 -3.72744 0
M  V30 10655 C 1006.81 2.31727 -4.65401 0
M  V30 10656 C 1004.5 2.807 -4.16549 0
M  V30 10657 C 1006.49 2.15551 -5.99847 0
M  V30 10658 C 1004.18 2.64141 -5.51065 0
M  V30 10659 C 1005.18 2.31614 -6.42529 0
M  V30 10660 O 1004.86 2.15179 -7.74566 0
M  V30 10661 H 1004.6 0.470574 -0.48532 0
M  V30 10662 H 1007.15 0.89152 -1.85043 0
M  V30 10663 H 1005.38 3.4445 -1.75759 0
M  V30 10664 H 1007.07 3.4264 -2.17607 0
M  V30 10665 H 1007.84 2.18773 -4.32855 0
M  V30 10666 H 1003.71 3.05005 -3.45677 0
M  V30 10667 H 1007.26 1.90084 -6.71203 0
M  V30 10668 H 1003.16 2.76679 -5.83197 0
M  V30 10669 H 1003.92 2.30106 -7.85489 0
M  V30 10670 N 1006.59 1.25851 0.948643 0
M  V30 10671 C 1008 1.02802 1.22081 0
M  V30 10672 C 1008.2 -0.251461 1.99925 0
M  V30 10673 O 1007.26 -0.962592 2.33432 0
M  V30 10674 C 1008.57 2.25489 1.98936 0
M  V30 10675 C 1010.12 2.30312 2.11956 0
M  V30 10676 C 1010.59 3.52671 2.92211 0
M  V30 10677 N 1012.09 3.53103 2.99787 0
M  V30 10678 C 1012.82 4.44445 3.62294 0
M  V30 10679 N 1012.32 5.46065 4.26362 0
M  V30 10680 N 1014.11 4.32113 3.59493 0
M  V30 10681 H 1006.26 2.08042 0.428044 0
M  V30 10682 H 1008.52 0.913928 0.251872 0
M  V30 10683 H 1008.23 3.18513 1.4914 0
M  V30 10684 H 1008.1 2.2914 2.99624 0
M  V30 10685 H 1010.49 1.37808 2.60946 0
M  V30 10686 H 1010.57 2.30676 1.10554 0
M  V30 10687 H 1010.22 4.45501 2.43909 0
M  V30 10688 H 1010.15 3.49554 3.93853 0
M  V30 10689 H 1012.64 2.79597 2.54232 0
M  V30 10690 H 1012.95 6.11964 4.71932 0
M  V30 10691 H 1011.29 5.49931 4.24972 0
M  V30 10692 H 1014.49 3.51946 3.08629 0
M  V30 10693 H 1014.66 5.03493 4.0792 0
M  V30 10694 N 1008.06 -1.15214 1.07534 0
M  V30 10695 C 1009.31 -1.85388 0.794617 0
M  V30 10696 C 1009.63 -1.83331 -0.681838 0
M  V30 10697 O 1010.83 -2.49207 -1.0774 0
M  V30 10698 C 1009.29 -3.32747 1.37141 0
M  V30 10699 C 1008.9 -3.43244 2.87902 0
M  V30 10700 C 1010.64 -4.08093 1.16879 0
M  V30 10701 C 1008.55 -4.84762 3.38763 0
M  V30 10702 H 1007.48 -0.694499 0.293577 0
M  V30 10703 H 1010.13 -1.29944 1.29564 0
M  V30 10704 H 1008.51 -3.87874 0.798121 0
M  V30 10705 H 1009.68 -2.98214 3.51291 0
M  V30 10706 H 1008 -2.81345 3.06975 0
M  V30 10707 H 1010.6 -5.12535 1.52353 0
M  V30 10708 H 1010.94 -4.1616 0.107958 0
M  V30 10709 H 1011.47 -3.59241 1.70854 0
M  V30 10710 H 1008.21 -4.81879 4.4438 0
M  V30 10711 H 1007.73 -5.30366 2.80128 0
M  V30 10712 H 1009.41 -5.53624 3.34827 0
M  V30 10713 N 1009.54 -0.859717 -1.32086 0
M  V30 10714 C 1010.79 -0.465581 -1.97075 0
M  V30 10715 C 1011.12 0.979917 -1.68012 0
M  V30 10716 O 1010.37 1.70337 -0.96353 0
M  V30 10717 C 1010.67 -0.657397 -3.51302 0
M  V30 10718 C 1010.34 -2.07413 -4.00363 0
M  V30 10719 C 1009 -2.4616 -4.13472 0
M  V30 10720 C 1011.35 -2.99855 -4.26305 0
M  V30 10721 C 1008.68 -3.76611 -4.49868 0
M  V30 10722 C 1011.03 -4.2981 -4.64161 0
M  V30 10723 C 1009.7 -4.68485 -4.75476 0
M  V30 10724 H 1008.97 -0.170368 -0.721149 0
M  V30 10725 H 1011.61 -1.09074 -1.57401 0
M  V30 10726 H 1009.92 0.0509638 -3.91767 0
M  V30 10727 H 1011.61 -0.332416 -3.9962 0
M  V30 10728 H 1008.2 -1.76327 -3.90649 0
M  V30 10729 H 1012.39 -2.7115 -4.15682 0
M  V30 10730 H 1007.64 -4.06352 -4.56824 0
M  V30 10731 H 1011.82 -5.015 -4.83188 0
M  V30 10732 H 1009.45 -5.69612 -5.03435 0
M  V30 10733 N 1011.02 1.44971 -0.618145 0
M  V30 10734 C 1011.93 2.34403 0.0960457 0
M  V30 10735 C 1012.95 1.51862 0.849355 0
M  V30 10736 O 1014.12 1.84632 0.804557 0
M  V30 10737 C 1011.19 3.29646 1.07397 0
M  V30 10738 C 1010.25 4.28095 0.321466 0
M  V30 10739 C 1009.48 5.18787 1.25281 0
M  V30 10740 O 1009.7 5.1313 2.49106 0
M  V30 10741 O 1008.64 5.97282 0.744156 0
M  V30 10742 H 1012.46 2.96898 -0.639176 0
M  V30 10743 H 1010.05 1.44529 -0.37837 0
M  V30 10744 H 1011.93 3.88307 1.63694 0
M  V30 10745 H 1010.61 2.69702 1.79004 0
M  V30 10746 H 1009.51 3.73019 -0.284223 0
M  V30 10747 H 1010.85 4.90923 -0.354315 0
M  V30 10748 N 1012.5 0.357919 1.53482 0
M  V30 10749 C 1013.43 -0.526753 2.23065 0
M  V30 10750 C 1014.44 -1.05239 1.24212 0
M  V30 10751 O 1015.63 -0.960078 1.50482 0
M  V30 10752 C 1012.73 -1.73919 2.9087 0
M  V30 10753 C 1011.91 -1.34638 4.16163 0
M  V30 10754 C 1010.96 -2.42005 4.67247 0
M  V30 10755 O 1009.99 -2.04714 5.31113 0
M  V30 10756 N 1011.19 -3.73478 4.44404 0
M  V30 10757 H 1013.96 0.0692386 2.9962 0
M  V30 10758 H 1011.52 0.182726 1.60866 0
M  V30 10759 H 1013.51 -2.45207 3.21956 0
M  V30 10760 H 1012.08 -2.24223 2.17814 0
M  V30 10761 H 1011.3 -0.463667 3.91464 0
M  V30 10762 H 1012.59 -1.06012 4.97633 0
M  V30 10763 H 1011.99 -4.06555 3.93357 0
M  V30 10764 H 1010.54 -4.40893 4.80059 0
M  V30 10765 N 1013.98 -1.5736 0.0868897 0
M  V30 10766 C 1015.22 -1.9367 -0.577598 0
M  V30 10767 C 1015.55 -0.968844 -1.69229 0
M  V30 10768 O 1014.82 -0.0195061 -1.9589 0
M  V30 10769 H 1013.4 -0.714983 -0.216353 0
M  V30 10770 H 1016.06 -1.94335 0.148294 0
M  V30 10771 H 1015.15 -2.95877 -0.993128 0
M  V30 10772 N 1015.45 0.186762 -1.56489 0
M  V30 10773 C 1016.4 1.23141 -1.95205 0
M  V30 10774 C 1017.37 1.44799 -0.81378 0
M  V30 10775 O 1018.56 1.57795 -1.07263 0
M  V30 10776 C 1015.7 2.56926 -2.30397 0
M  V30 10777 C 1014.81 2.42777 -3.57328 0
M  V30 10778 C 1013.94 3.69323 -3.81804 0
M  V30 10779 C 1012.98 3.50041 -5.02133 0
M  V30 10780 N 1012.12 4.68619 -5.2282 0
M  V30 10781 H 1016.96 0.894256 -2.84266 0
M  V30 10782 H 1014.5 0.430187 -1.40669 0
M  V30 10783 H 1016.46 3.3488 -2.4882 0
M  V30 10784 H 1015.09 2.88668 -1.44466 0
M  V30 10785 H 1014.14 1.56078 -3.46906 0
M  V30 10786 H 1015.45 2.24468 -4.45439 0
M  V30 10787 H 1014.6 4.55715 -4.00511 0
M  V30 10788 H 1013.34 3.90595 -2.92039 0
M  V30 10789 H 1012.35 2.62034 -4.8334 0
M  V30 10790 H 1013.57 3.30206 -5.93414 0
M  V30 10791 H 1011.52 4.90139 -4.36005 0
M  V30 10792 H 1011.44 4.53165 -6.05126 0
M  V30 10793 H 1012.7 5.56338 -5.45993 0
M  V30 10794 N 1016.93 1.50896 0.454776 0
M  V30 10795 C 1017.88 1.70947 1.55067 0
M  V30 10796 C 1018.85 0.550899 1.56698 0
M  V30 10797 O 1020.03 0.783352 1.73978 0
M  V30 10798 C 1017.17 1.82455 2.92924 0
M  V30 10799 C 1016.29 3.09919 3.00956 0
M  V30 10800 C 1015.42 3.12125 4.29827 0
M  V30 10801 C 1014.46 4.33975 4.31662 0
M  V30 10802 N 1013.6 4.33828 5.5203 0
M  V30 10803 H 1018.44 2.645 1.37273 0
M  V30 10804 H 1015.98 1.31101 0.667148 0
M  V30 10805 H 1017.93 1.87108 3.72889 0
M  V30 10806 H 1016.56 0.92327 3.09315 0
M  V30 10807 H 1015.62 3.14659 2.13761 0
M  V30 10808 H 1016.93 3.99869 2.98172 0
M  V30 10809 H 1016.08 3.15598 5.18154 0
M  V30 10810 H 1014.82 2.20033 4.35243 0
M  V30 10811 H 1013.83 4.30697 3.41731 0
M  V30 10812 H 1015.05 5.27312 4.27924 0
M  V30 10813 H 1013 3.44598 5.58201 0
M  V30 10814 H 1012.91 5.17566 5.51055 0
M  V30 10815 H 1014.18 4.4147 6.42437 0
M  V30 10816 N 1018.41 -0.709066 1.40748 0
M  V30 10817 C 1019.64 -1.50313 1.42901 0
M  V30 10818 C 1020.06 -1.88072 0.032213 0
M  V30 10819 O 1019.42 -1.53716 -0.96131 0
M  V30 10820 C 1019.47 -2.75074 2.33166 0
M  V30 10821 O 1018.57 -3.72036 1.7794 0
M  V30 10822 H 1017.91 -0.452934 0.485538 0
M  V30 10823 H 1020.44 -0.872712 1.85054 0
M  V30 10824 H 1020.45 -3.23532 2.48578 0
M  V30 10825 H 1019.13 -2.46927 3.34664 0
M  V30 10826 H 1017.7 -3.30911 1.71908 0
M  V30 10827 N 1019.89 -1.26353 -0.941956 0
M  V30 10828 C 1021.14 -1.12017 -1.69056 0
M  V30 10829 C 1021.47 0.335856 -1.91274 0
M  V30 10830 O 1020.74 1.24677 -1.49285 0
M  V30 10831 C 1021.03 -1.88889 -3.06583 0
M  V30 10832 C 1020.88 -3.42394 -2.91696 0
M  V30 10833 C 1022.2 -1.68209 -4.06686 0
M  V30 10834 H 1019.32 -0.408311 -0.613556 0
M  V30 10835 H 1021.96 -1.55339 -1.09407 0
M  V30 10836 H 1020.11 -1.5207 -3.57501 0
M  V30 10837 H 1021.78 -3.88962 -2.48005 0
M  V30 10838 H 1020.02 -3.69459 -2.27338 0
M  V30 10839 H 1020.7 -3.91408 -3.89235 0
M  V30 10840 H 1023.17 -2.00286 -3.64726 0
M  V30 10841 H 1022.05 -2.24412 -5.00929 0
M  V30 10842 H 1022.31 -0.626474 -4.37639 0
M  V30 10843 N 1021.37 1.14642 -1.08144 0
M  V30 10844 C 1022.6 1.89484 -0.830864 0
M  V30 10845 C 1023.01 1.78443 0.616722 0
M  V30 10846 O 1022.37 1.14191 1.42361 0
M  V30 10847 C 1022.42 3.39554 -1.24039 0
M  V30 10848 O 1022.14 3.50286 -2.63119 0
M  V30 10849 C 1023.64 4.31399 -1.02029 0
M  V30 10850 H 1020.86 0.600283 -0.299835 0
M  V30 10851 H 1023.4 1.45204 -1.44001 0
M  V30 10852 H 1021.56 3.81467 -0.675407 0
M  V30 10853 H 1021.97 4.43481 -2.80045 0
M  V30 10854 H 1023.45 5.35079 -1.35625 0
M  V30 10855 H 1023.92 4.39179 0.0428697 0
M  V30 10856 H 1024.53 3.95238 -1.57057 0
M  V30 10857 N 1022.85 0.866709 1.31628 0
M  V30 10858 C 1023.81 0.325041 2.26883 0
M  V30 10859 C 1024.81 -0.522133 1.52087 0
M  V30 10860 O 1026 -0.331908 1.71009 0
M  V30 10861 C 1023.13 -0.538756 3.36616 0
M  V30 10862 H 1024.32 1.16592 2.76308 0
M  V30 10863 H 1021.88 0.642029 1.42505 0
M  V30 10864 H 1022.61 -1.40096 2.92478 0
M  V30 10865 H 1022.4 0.0678115 3.92041 0
M  V30 10866 H 1023.89 -0.910123 4.07562 0
M  V30 10867 N 1024.32 -1.44642 0.625825 0
M  V30 10868 C 1025.73 -1.85502 0.211175 0
M  V30 10869 C 1026.09 -1.52356 -1.2362 0
M  V30 10870 O 1025.21 -0.959051 -1.93988 0
M  V30 10871 C 1025.81 -3.36702 0.37648 0
M  V30 10872 C 1024.36 -3.76396 0.0163795 0
M  V30 10873 C 1023.51 -2.68517 0.692368 0
M  V30 10874 H 1026.46 -1.35183 0.831333 0
M  V30 10875 H 1026.48 -3.78536 -0.386106 0
M  V30 10876 H 1026 -3.60795 1.42999 0
M  V30 10877 H 1024.1 -3.57919 -1.0356 0
M  V30 10878 H 1024.21 -4.77231 0.422742 0
M  V30 10879 H 1022.57 -2.54377 0.128191 0
M  V30 10880 H 1023.36 -2.95444 1.74837 0
M  V30 10881 N 1025.8 -0.366053 -1.5329 0
M  V30 10882 C 1027.22 -0.0150149 -1.59593 0
M  V30 10883 C 1027.42 1.46719 -1.38116 0
M  V30 10884 O 1026.47 2.22884 -1.18656 0
M  V30 10885 C 1027.79 -0.471374 -2.96982 0
M  V30 10886 C 1029.33 -0.425634 -3.10092 0
M  V30 10887 C 1029.81 -0.857812 -4.49895 0
M  V30 10888 N 1031.3 -0.81289 -4.56011 0
M  V30 10889 C 1032.04 -1.11898 -5.62376 0
M  V30 10890 N 1031.53 -1.49436 -6.76491 0
M  V30 10891 N 1033.32 -1.04174 -5.52362 0
M  V30 10892 H 1025.48 -1.33127 -1.65502 0
M  V30 10893 H 1027.74 -0.544172 -0.776261 0
M  V30 10894 H 1027.44 -1.50569 -3.1784 0
M  V30 10895 H 1027.32 0.141764 -3.76934 0
M  V30 10896 H 1029.71 0.599548 -2.88945 0
M  V30 10897 H 1029.79 -1.07427 -2.32149 0
M  V30 10898 H 1029.43 -1.88111 -4.7178 0
M  V30 10899 H 1029.36 -0.186419 -5.2627 0
M  V30 10900 H 1031.85 -0.536343 -3.74075 0
M  V30 10901 H 1032.16 -1.71217 -7.53594 0
M  V30 10902 H 1030.51 -1.53302 -6.77882 0
M  V30 10903 H 1033.7 -0.747654 -4.62091 0
M  V30 10904 H 1033.87 -1.28362 -6.35159 0
M  V30 10905 N 1027.28 1.57312 -0.0952337 0
M  V30 10906 C 1028.21 2.17056 0.860753 0
M  V30 10907 C 1029.19 1.10394 1.29411 0
M  V30 10908 O 1030.38 1.38532 1.36098 0
M  V30 10909 C 1027.51 2.751 2.11984 0
M  V30 10910 C 1026.46 3.87136 1.8251 0
M  V30 10911 C 1025.79 4.31883 3.15247 0
M  V30 10912 C 1027.09 5.10326 1.11194 0
M  V30 10913 H 1028.78 2.97192 0.362983 0
M  V30 10914 H 1026.33 1.42955 0.173151 0
M  V30 10915 H 1028.28 3.15547 2.79299 0
M  V30 10916 H 1027 1.92219 2.64044 0
M  V30 10917 H 1025.66 3.47229 1.17592 0
M  V30 10918 H 1025.31 3.45893 3.65195 0
M  V30 10919 H 1025.01 5.0742 2.96309 0
M  V30 10920 H 1026.53 4.74964 3.83721 0
M  V30 10921 H 1027.95 5.47942 1.6862 0
M  V30 10922 H 1026.34 5.91293 1.02435 0
M  V30 10923 H 1027.41 4.84807 0.0947227 0
M  V30 10924 N 1028.76 -0.17846 1.56586 0
M  V30 10925 C 1030.01 -0.894502 1.8078 0
M  V30 10926 C 1030.32 -1.8372 0.67129 0
M  V30 10927 O 1031.53 -2.59509 0.797971 0
M  V30 10928 C 1029.98 -1.64109 3.20306 0
M  V30 10929 C 1029.59 -0.742387 4.41806 0
M  V30 10930 C 1031.33 -2.34578 3.53798 0
M  V30 10931 C 1029.24 -1.4888 5.72354 0
M  V30 10932 H 1028.17 -0.33776 0.674117 0
M  V30 10933 H 1030.82 -0.14752 1.82906 0
M  V30 10934 H 1029.2 -2.43257 3.12477 0
M  V30 10935 H 1030.38 0.011615 4.60799 0
M  V30 10936 H 1028.69 -0.147705 4.16138 0
M  V30 10937 H 1031.29 -2.91004 4.48577 0
M  V30 10938 H 1031.63 -3.09572 2.78336 0
M  V30 10939 H 1032.17 -1.62381 3.63149 0
M  V30 10940 H 1028.9 -0.781325 6.50827 0
M  V30 10941 H 1028.42 -2.21631 5.57351 0
M  V30 10942 H 1030.1 -2.03819 6.14058 0
M  V30 10943 N 1030.24 -1.51135 -0.446768 0
M  V30 10944 C 1031.46 -1.67411 -1.22427 0
M  V30 10945 C 1031.89 -0.367009 -1.84485 0
M  V30 10946 O 1031.24 0.67185 -1.68392 0
M  V30 10947 C 1031.29 -2.78473 -2.29096 0
M  V30 10948 O 1030.4 -2.41419 -3.34351 0
M  V30 10949 H 1029.74 -0.558512 -0.359111 0
M  V30 10950 H 1032.27 -1.97648 -0.5288 0
M  V30 10951 H 1032.28 -3.02277 -2.7403 0
M  V30 10952 H 1030.95 -3.73326 -1.83304 0
M  V30 10953 H 1029.53 -2.28152 -2.9496 0
M  V30 10954 N 1031.71 0.701592 -1.41122 0
M  V30 10955 C 1033.12 1.28129 -1.35793 0
M  V30 10956 C 1033.48 1.96163 -0.0381185 0
M  V30 10957 O 1032.6 1.98416 0.863723 0
M  V30 10958 C 1033.2 2.33005 -2.45955 0
M  V30 10959 C 1031.75 2.86566 -2.44043 0
M  V30 10960 C 1030.9 1.60526 -2.26112 0
M  V30 10961 H 1033.85 0.496756 -1.50725 0
M  V30 10962 H 1033.87 3.14163 -2.14667 0
M  V30 10963 H 1033.39 1.8346 -3.42 0
M  V30 10964 H 1031.49 3.40304 -1.51737 0
M  V30 10965 H 1031.6 3.37406 -3.40138 0
M  V30 10966 H 1029.96 1.86113 -1.7388 0
M  V30 10967 H 1030.75 1.12985 -3.24175 0
M  V30 10968 N 1033.19 1.2685 0.935242 0
M  V30 10969 C 1034.42 1.15538 1.71635 0
M  V30 10970 C 1034.83 -0.288698 1.8658 0
M  V30 10971 O 1034.19 -1.19721 1.37743 0
M  V30 10972 C 1034.24 1.8259 3.11999 0
M  V30 10973 O 1033.96 3.21355 2.97763 0
M  V30 10974 C 1035.46 1.77307 4.06297 0
M  V30 10975 H 1032.68 0.402055 0.537208 0
M  V30 10976 H 1035.23 1.67582 1.17203 0
M  V30 10977 H 1033.38 1.3447 3.63313 0
M  V30 10978 H 1033.8 3.54626 3.86446 0
M  V30 10979 H 1035.27 2.28851 5.02326 0
M  V30 10980 H 1035.75 0.740823 4.32907 0
M  V30 10981 H 1036.35 2.25007 3.60904 0
M  V30 10982 N 1034.67 -1.14067 1.0875 0
M  V30 10983 C 1035.9 -1.89582 0.841038 0
M  V30 10984 C 1036.32 -1.78226 -0.601436 0
M  V30 10985 O 1035.68 -1.12491 -1.42181 0
M  V30 10986 C 1035.73 -3.37415 1.27213 0
M  V30 10987 O 1034.83 -4.10191 0.426246 0
M  V30 10988 H 1034.17 -0.589716 0.305173 0
M  V30 10989 H 1036.7 -1.44364 1.44984 0
M  V30 10990 H 1036.71 -3.88234 1.25451 0
M  V30 10991 H 1035.39 -3.44999 2.32268 0
M  V30 10992 H 1033.96 -3.69429 0.507585 0
M  V30 10993 N 1036.15 -0.873678 -1.31166 0
M  V30 10994 C 1037.08 -0.289389 -2.27366 0
M  V30 10995 C 1038.09 0.549667 -1.5324 0
M  V30 10996 O 1039.28 0.371056 -1.74601 0
M  V30 10997 C 1036.38 0.60807 -3.334 0
M  V30 10998 C 1035.56 -0.199379 -4.36945 0
M  V30 10999 C 1034.61 0.626798 -5.22454 0
M  V30 11000 O 1033.64 0.0535121 -5.69175 0
M  V30 11001 N 1034.84 1.93809 -5.47191 0
M  V30 11002 H 1037.61 -1.1161 -2.78143 0
M  V30 11003 H 1035.17 -0.735529 -1.44228 0
M  V30 11004 H 1037.16 1.16656 -3.87522 0
M  V30 11005 H 1035.73 1.33545 -2.82638 0
M  V30 11006 H 1034.95 -0.939316 -3.82845 0
M  V30 11007 H 1036.24 -0.75329 -5.03193 0
M  V30 11008 H 1035.64 2.42693 -5.10995 0
M  V30 11009 H 1034.19 2.44428 -6.04234 0
M  V30 11010 N 1037.63 1.44308 -0.633487 0
M  V30 11011 C 1038.56 2.33431 0.0568402 0
M  V30 11012 C 1039.54 1.48342 0.832386 0
M  V30 11013 O 1040.72 1.77056 0.797798 0
M  V30 11014 C 1037.85 3.31443 1.03743 0
M  V30 11015 C 1036.81 4.26368 0.373362 0
M  V30 11016 C 1036.13 5.14267 1.46403 0
M  V30 11017 C 1037.43 5.17287 -0.721876 0
M  V30 11018 H 1039.13 2.91402 -0.687388 0
M  V30 11019 H 1036.67 1.4012 -0.332009 0
M  V30 11020 H 1038.63 3.92677 1.52913 0
M  V30 11021 H 1037.35 2.71686 1.81258 0
M  V30 11022 H 1036.01 3.6647 -0.0977053 0
M  V30 11023 H 1035.66 4.50861 2.23011 0
M  V30 11024 H 1035.36 5.7859 1.02506 0
M  V30 11025 H 1036.88 5.78373 1.95748 0
M  V30 11026 H 1038.29 5.72444 -0.313181 0
M  V30 11027 H 1036.69 5.90226 -1.08413 0
M  V30 11028 H 1037.76 4.58159 -1.58804 0
M  V30 11029 N 1039.1 0.374177 1.53094 0
M  V30 11030 C 1040.07 -0.455999 2.24618 0
M  V30 11031 C 1041.07 -1.00269 1.25709 0
M  V30 11032 O 1042.26 -0.887077 1.49922 0
M  V30 11033 C 1039.39 -1.63822 2.98957 0
M  V30 11034 H 1040.58 0.169986 2.99418 0
M  V30 11035 H 1038.14 0.126015 1.55791 0
M  V30 11036 H 1038.87 -2.30205 2.28421 0
M  V30 11037 H 1038.66 -1.25308 3.71538 0
M  V30 11038 H 1040.15 -2.22633 3.53305 0
M  V30 11039 N 1040.58 -1.57259 0.103575 0
M  V30 11040 C 1041.83 -1.93832 -0.55786 0
M  V30 11041 C 1042.14 -0.988087 -1.68808 0
M  V30 11042 O 1043.35 -1.24786 -2.41124 0
M  V30 11043 C 1041.81 -3.44433 -1.04373 0
M  V30 11044 C 1041.41 -4.47963 0.0571971 0
M  V30 11045 C 1043.16 -3.89953 -1.67742 0
M  V30 11046 C 1041.07 -5.89727 -0.444505 0
M  V30 11047 H 1040 -0.723536 -0.212161 0
M  V30 11048 H 1042.65 -1.82606 0.180944 0
M  V30 11049 H 1041.03 -3.50841 -1.83648 0
M  V30 11050 H 1042.2 -4.53209 0.83298 0
M  V30 11051 H 1040.52 -4.12104 0.596588 0
M  V30 11052 H 1043.11 -4.93272 -2.06365 0
M  V30 11053 H 1043.46 -3.2907 -2.54988 0
M  V30 11054 H 1043.99 -3.86281 -0.950342 0
M  V30 11055 H 1040.73 -6.5433 0.391543 0
M  V30 11056 H 1040.25 -5.87935 -1.18711 0
M  V30 11057 H 1041.93 -6.40558 -0.910739 0
M  V30 11058 N 1042.06 0.170153 -1.56679 0
M  V30 11059 C 1043.29 0.902134 -1.86197 0
M  V30 11060 C 1043.7 1.75775 -0.689098 0
M  V30 11061 O 1043.06 1.79271 0.341763 0
M  V30 11062 C 1043.11 1.77792 -3.14757 0
M  V30 11063 O 1042.83 0.956817 -4.27524 0
M  V30 11064 C 1044.33 2.61947 -3.57629 0
M  V30 11065 H 1041.55 0.262026 -0.617724 0
M  V30 11066 H 1044.1 0.169899 -2.03793 0
M  V30 11067 H 1042.25 2.46348 -2.98984 0
M  V30 11068 H 1042.67 1.5559 -5.00891 0
M  V30 11069 H 1044.14 3.19011 -4.50484 0
M  V30 11070 H 1044.62 3.36873 -2.81803 0
M  V30 11071 H 1045.22 1.98721 -3.76019 0
M  V30 11072 N 1043.54 1.5137 0.438746 0
M  V30 11073 C 1044.76 1.68058 1.21537 0
M  V30 11074 C 1045.19 0.376787 1.84288 0
M  V30 11075 O 1044.55 -0.662911 1.68746 0
M  V30 11076 C 1044.59 2.79684 2.27616 0
M  V30 11077 O 1043.7 2.43189 3.33066 0
M  V30 11078 H 1043.04 0.560408 0.356144 0
M  V30 11079 H 1045.57 1.97926 0.518311 0
M  V30 11080 H 1045.58 3.03726 2.72423 0
M  V30 11081 H 1044.25 3.74293 1.81321 0
M  V30 11082 H 1042.83 2.29713 2.93746 0
M  V30 11083 N 1045.02 -0.694098 1.41492 0
M  V30 11084 C 1046.24 -1.48789 1.44488 0
M  V30 11085 C 1046.67 -1.88028 0.0521588 0
M  V30 11086 O 1046.02 -1.54727 -0.944952 0
M  V30 11087 C 1046.07 -2.72586 2.3607 0
M  V30 11088 O 1045.18 -3.70128 1.81876 0
M  V30 11089 H 1044.52 -0.447758 0.490315 0
M  V30 11090 H 1047.05 -0.853036 1.85969 0
M  V30 11091 H 1047.06 -3.20877 2.51995 0
M  V30 11092 H 1045.73 -2.43363 3.37264 0
M  V30 11093 H 1044.31 -3.29069 1.75408 0
M  V30 11094 N 1046.49 -1.27344 -0.928501 0
M  V30 11095 C 1047.42 -1.12517 -2.04602 0
M  V30 11096 C 1048.41 -0.0268563 -1.70079 0
M  V30 11097 O 1049.59 -0.201197 -1.93155 0
M  V30 11098 C 1046.72 -0.770749 -3.3864 0
M  V30 11099 C 1045.67 -1.8222 -3.87272 0
M  V30 11100 C 1045 -1.32178 -5.18105 0
M  V30 11101 C 1046.3 -3.22614 -4.10752 0
M  V30 11102 H 1047.99 -2.06 -2.17265 0
M  V30 11103 H 1045.54 -0.991827 -1.04397 0
M  V30 11104 H 1047.49 -0.653843 -4.16297 0
M  V30 11105 H 1046.22 0.19979 -3.25988 0
M  V30 11106 H 1044.88 -1.928 -3.11807 0
M  V30 11107 H 1044.52 -0.340719 -5.01845 0
M  V30 11108 H 1044.22 -2.02474 -5.51614 0
M  V30 11109 H 1045.75 -1.2178 -5.98333 0
M  V30 11110 H 1047.16 -3.1504 -4.78981 0
M  V30 11111 H 1045.56 -3.90614 -4.55566 0
M  V30 11112 H 1046.63 -3.67727 -3.16077 0
M  V30 11113 N 1047.97 1.13488 -1.09353 0
M  V30 11114 C 1049.22 1.841 -0.82401 0
M  V30 11115 C 1049.53 1.84393 0.652586 0
M  V30 11116 O 1050.74 2.5089 1.03762 0
M  V30 11117 C 1049.2 3.30523 -1.42418 0
M  V30 11118 C 1048.8 3.38621 -2.93326 0
M  V30 11119 C 1050.55 4.06182 -1.23356 0
M  V30 11120 C 1048.46 4.79311 -3.46432 0
M  V30 11121 H 1047.39 0.68974 -0.304589 0
M  V30 11122 H 1050.04 1.27866 -1.31615 0
M  V30 11123 H 1048.42 3.86555 -0.859727 0
M  V30 11124 H 1049.59 2.92587 -3.5599 0
M  V30 11125 H 1047.91 2.76426 -3.11412 0
M  V30 11126 H 1050.5 5.10047 -1.60488 0
M  V30 11127 H 1050.85 4.15936 -0.174152 0
M  V30 11128 H 1051.38 3.56477 -1.76547 0
M  V30 11129 H 1048.12 4.74748 -4.5199 0
M  V30 11130 H 1047.64 5.25842 -2.8853 0
M  V30 11131 H 1049.32 5.48227 -3.43593 0
M  V30 11132 N 1049.45 0.880621 1.30701 0
M  V30 11133 C 1050.68 0.510909 2.01009 0
M  V30 11134 C 1051.1 -0.892041 1.65603 0
M  V30 11135 O 1050.46 -1.59045 0.870309 0
M  V30 11136 C 1050.51 0.687759 3.53981 0
M  V30 11137 O 1049.61 -0.268275 4.11526 0
M  V30 11138 H 1048.95 0.201864 0.632572 0
M  V30 11139 H 1051.48 1.18697 1.6665 0
M  V30 11140 H 1051.49 0.585095 4.03783 0
M  V30 11141 H 1050.17 1.71068 3.79089 0
M  V30 11142 H 1048.74 -0.119673 3.72708 0
M  V30 11143 N 1050.93 -1.4397 0.641131 0
M  V30 11144 C 1052.18 -2.02246 0.14985 0
M  V30 11145 C 1052.51 -1.50387 -1.22871 0
M  V30 11146 O 1051.78 -0.692003 -1.81773 0
M  V30 11147 C 1052.07 -3.59798 0.147449 0
M  V30 11148 C 1051.92 -4.21916 1.55907 0
M  V30 11149 C 1053.24 -4.36985 -0.522667 0
M  V30 11150 H 1050.36 -0.734875 0.0559274 0
M  V30 11151 H 1053 -1.71418 0.819513 0
M  V30 11152 H 1051.15 -3.86193 -0.422789 0
M  V30 11153 H 1052.82 -4.06594 2.17896 0
M  V30 11154 H 1051.06 -3.79028 2.10998 0
M  V30 11155 H 1051.74 -5.30964 1.50934 0
M  V30 11156 H 1054.21 -4.16083 -0.0376226 0
M  V30 11157 H 1053.09 -5.46676 -0.493572 0
M  V30 11158 H 1053.35 -4.12335 -1.59475 0
M  V30 11159 N 1052.41 -0.382291 -1.52893 0
M  V30 11160 C 1053.34 0.491199 -2.23875 0
M  V30 11161 C 1054.35 1.03249 -1.25871 0
M  V30 11162 O 1055.54 0.936016 -1.5199 0
M  V30 11163 C 1052.64 1.6927 -2.936 0
M  V30 11164 C 1051.81 1.28 -4.18252 0
M  V30 11165 C 1050.87 2.34541 -4.71038 0
M  V30 11166 O 1049.9 1.96239 -5.34302 0
M  V30 11167 N 1051.1 3.6636 -4.50289 0
M  V30 11168 H 1053.87 -0.116897 -2.99472 0
M  V30 11169 H 1051.43 -0.208296 -1.60554 0
M  V30 11170 H 1053.42 2.40054 -3.25816 0
M  V30 11171 H 1051.99 2.20729 -2.21354 0
M  V30 11172 H 1051.21 0.40133 -3.92152 0
M  V30 11173 H 1052.5 0.98082 -4.99257 0
M  V30 11174 H 1051.9 4.00245 -3.99775 0
M  V30 11175 H 1050.45 4.332 -4.87013 0
M  V30 11176 N 1053.89 1.57202 -0.111913 0
M  V30 11177 C 1054.82 2.17957 0.837683 0
M  V30 11178 C 1055.8 1.1176 1.28233 0
M  V30 11179 O 1056.98 1.39967 1.34621 0
M  V30 11180 C 1054.11 2.77333 2.09054 0
M  V30 11181 C 1053.07 3.8905 1.78393 0
M  V30 11182 C 1052.39 4.35203 3.10649 0
M  V30 11183 C 1053.69 5.11477 1.05775 0
M  V30 11184 H 1055.39 2.9756 0.331441 0
M  V30 11185 H 1052.93 1.43131 0.157979 0
M  V30 11186 H 1054.88 3.18492 2.75936 0
M  V30 11187 H 1053.61 1.95009 2.6199 0
M  V30 11188 H 1052.27 3.48456 1.13903 0
M  V30 11189 H 1051.92 3.49747 3.61506 0
M  V30 11190 H 1051.62 5.10534 2.9091 0
M  V30 11191 H 1053.14 4.79007 3.78661 0
M  V30 11192 H 1054.55 5.497 1.62798 0
M  V30 11193 H 1052.95 5.92346 0.961573 0
M  V30 11194 H 1054.02 4.84881 0.043297 0
M  V30 11195 N 1055.36 -0.161842 1.56767 0
M  V30 11196 C 1056.29 -1.20226 2.0017 0
M  V30 11197 C 1057.27 -1.4564 0.878807 0
M  V30 11198 O 1058.46 -1.56813 1.14557 0
M  V30 11199 C 1055.59 -2.53897 2.36968 0
M  V30 11200 C 1054.54 -2.43033 3.52305 0
M  V30 11201 C 1053.87 -3.81281 3.74872 0
M  V30 11202 C 1055.17 -1.927 4.85453 0
M  V30 11203 H 1056.86 -0.84142 2.87333 0
M  V30 11204 H 1054.41 -0.403309 1.38237 0
M  V30 11205 H 1056.36 -3.26893 2.6593 0
M  V30 11206 H 1055.09 -2.91787 1.46724 0
M  V30 11207 H 1053.75 -1.7249 3.23485 0
M  V30 11208 H 1053.39 -4.1658 2.81904 0
M  V30 11209 H 1053.09 -3.74877 4.52483 0
M  V30 11210 H 1054.62 -4.55848 4.06245 0
M  V30 11211 H 1056.03 -2.55477 5.13229 0
M  V30 11212 H 1054.43 -1.97222 5.66766 0
M  V30 11213 H 1055.5 -0.881816 4.76814 0
M  V30 11214 N 1056.84 -1.516 -0.430713 0
M  V30 11215 C 1058.09 -1.64271 -1.17726 0
M  V30 11216 C 1058.41 -0.364406 -1.91565 0
M  V30 11217 O 1057.68 0.619991 -1.8583 0
M  V30 11218 H 1056.26 -0.605432 -0.437562 0
M  V30 11219 H 1058.92 -1.88557 -0.493166 0
M  V30 11220 H 1058.02 -2.47355 -1.90321 0
M  V30 11221 N 1058.32 0.686584 -1.41858 0
M  V30 11222 C 1059.57 1.44879 -1.41908 0
M  V30 11223 C 1059.9 1.94175 -0.0311408 0
M  V30 11224 O 1059.17 1.70131 0.942646 0
M  V30 11225 C 1059.46 2.65428 -2.43352 0
M  V30 11226 C 1059.31 2.2184 -3.91289 0
M  V30 11227 C 1060.63 3.67635 -2.41934 0
M  V30 11228 H 1057.75 0.525477 -0.516762 0
M  V30 11229 H 1060.39 0.781263 -1.73194 0
M  V30 11230 H 1058.54 3.2238 -2.16803 0
M  V30 11231 H 1060.21 1.70146 -4.28775 0
M  V30 11232 H 1058.45 1.53531 -4.05722 0
M  V30 11233 H 1059.13 3.08376 -4.5783 0
M  V30 11234 H 1061.6 3.20376 -2.65516 0
M  V30 11235 H 1060.48 4.49579 -3.14913 0
M  V30 11236 H 1060.74 4.17953 -1.44111 0
M  V30 11237 N 1059.8 1.27835 0.921735 0
M  V30 11238 C 1061.04 1.14523 1.67005 0
M  V30 11239 C 1061.37 -0.307776 1.92049 0
M  V30 11240 O 1060.63 -1.24103 1.51317 0
M  V30 11241 C 1060.93 1.88054 3.03925 0
M  V30 11242 C 1060.59 3.37886 2.9857 0
M  V30 11243 C 1059.25 3.78752 2.96817 0
M  V30 11244 C 1061.61 4.33462 2.89414 0
M  V30 11245 C 1058.93 5.13549 2.83698 0
M  V30 11246 C 1061.29 5.68322 2.77836 0
M  V30 11247 C 1059.95 6.08475 2.74436 0
M  V30 11248 H 1059.22 0.419068 0.611116 0
M  V30 11249 H 1061.87 1.58515 1.07449 0
M  V30 11250 H 1060.17 1.36587 3.67221 0
M  V30 11251 H 1061.87 1.75176 3.60714 0
M  V30 11252 H 1058.46 3.05389 3.00725 0
M  V30 11253 H 1062.64 4.02857 2.89862 0
M  V30 11254 H 1057.9 5.43796 2.79456 0
M  V30 11255 H 1062.07 6.42048 2.69717 0
M  V30 11256 H 1059.7 7.12877 2.64027 0
M  V30 11257 N 1061.28 -1.12907 1.09954 0
M  V30 11258 C 1062.52 -1.83661 0.833761 0
M  V30 11259 C 1062.84 -1.84736 -0.642798 0
M  V30 11260 O 1064.04 -2.51437 -1.0243 0
M  V30 11261 C 1062.5 -3.29763 1.44168 0
M  V30 11262 C 1062.11 -3.3706 2.95118 0
M  V30 11263 C 1063.85 -4.05522 1.25509 0
M  V30 11264 C 1061.76 -4.77467 3.48969 0
M  V30 11265 H 1060.69 -0.688115 0.308242 0
M  V30 11266 H 1063.34 -1.27166 1.32291 0
M  V30 11267 H 1061.72 -3.86094 0.880215 0
M  V30 11268 H 1062.9 -2.90695 3.57537 0
M  V30 11269 H 1061.21 -2.7477 3.12874 0
M  V30 11270 H 1063.81 -5.09188 1.63191 0
M  V30 11271 H 1064.15 -4.15837 0.196208 0
M  V30 11272 H 1064.68 -3.55536 1.78435 0
M  V30 11273 H 1061.42 -4.72344 4.54501 0
M  V30 11274 H 1060.94 -5.24305 2.91315 0
M  V30 11275 H 1062.62 -5.46397 3.46495 0
M  V30 11276 N 1062.75 -0.88754 -1.30232 0
M  V30 11277 C 1064 -0.517406 -1.96709 0
M  V30 11278 C 1064.35 0.923757 -1.68774 0
M  V30 11279 O 1063.65 1.64435 -0.983443 0
M  V30 11280 C 1063.84 -0.731765 -3.49828 0
M  V30 11281 C 1063.67 -2.19221 -3.92648 0
M  V30 11282 C 1062.44 -2.83729 -4.18122 0
M  V30 11283 C 1064.64 -3.16627 -4.0528 0
M  V30 11284 N 1062.62 -4.20343 -4.4742 0
M  V30 11285 C 1063.99 -4.38322 -4.38491 0
M  V30 11286 C 1066.05 -3.12381 -3.87715 0
M  V30 11287 C 1064.75 -5.56315 -4.55967 0
M  V30 11288 C 1066.78 -4.29648 -4.06394 0
M  V30 11289 C 1066.14 -5.5011 -4.39953 0
M  V30 11290 H 1062.24 -0.238709 -0.744676 0
M  V30 11291 H 1064.82 -1.14581 -1.57414 0
M  V30 11292 H 1062.99 -0.132827 -3.88173 0
M  V30 11293 H 1064.72 -0.328276 -4.03366 0
M  V30 11294 H 1061.48 -2.34584 -4.11421 0
M  V30 11295 H 1061.9 -4.90905 -4.66199 0
M  V30 11296 H 1066.54 -2.20345 -3.60843 0
M  V30 11297 H 1064.26 -6.48853 -4.8168 0
M  V30 11298 H 1067.85 -4.27835 -3.94269 0
M  V30 11299 H 1066.73 -6.39339 -4.54109 0
M  V30 11300 N 1064.23 1.43628 -0.648757 0
M  V30 11301 C 1065.48 2.01864 -0.160336 0
M  V30 11302 C 1065.81 1.51148 1.22412 0
M  V30 11303 O 1065.06 0.693168 1.83013 0
M  V30 11304 C 1065.36 3.57214 -0.115282 0
M  V30 11305 C 1065.03 4.27258 -1.44088 0
M  V30 11306 C 1063.69 4.46109 -1.8039 0
M  V30 11307 C 1066.04 4.66962 -2.31508 0
M  V30 11308 C 1063.37 5.01928 -3.03785 0
M  V30 11309 C 1065.72 5.24148 -3.54191 0
M  V30 11310 C 1064.39 5.41216 -3.90694 0
M  V30 11311 H 1063.66 0.738674 -0.0586712 0
M  V30 11312 H 1066.3 1.72163 -0.838578 0
M  V30 11313 H 1064.61 3.86431 0.646395 0
M  V30 11314 H 1066.3 4.00025 0.279425 0
M  V30 11315 H 1062.89 4.12928 -1.14842 0
M  V30 11316 H 1067.08 4.52095 -2.04753 0
M  V30 11317 H 1062.33 5.13328 -3.32122 0
M  V30 11318 H 1066.51 5.53861 -4.22151 0
M  V30 11319 H 1064.14 5.84234 -4.8639 0
M  V30 11320 N 1065.71 0.390394 1.52688 0
M  V30 11321 C 1066.96 -0.191067 2.01195 0
M  V30 11322 C 1067.28 -1.47229 1.27862 0
M  V30 11323 O 1066.55 -1.91793 0.399007 0
M  V30 11324 H 1065.13 -0.073596 0.743366 0
M  V30 11325 H 1067.79 0.522334 1.8777 0
M  V30 11326 H 1066.89 -0.40051 3.0952 0
M  V30 11327 N 1067.19 -1.57141 0.120249 0
M  V30 11328 C 1068.43 -1.95527 -0.538245 0
M  V30 11329 C 1068.77 -1.00373 -1.6625 0
M  V30 11330 O 1068.04 -0.0411734 -1.94456 0
M  V30 11331 C 1068.33 -3.43843 -1.06976 0
M  V30 11332 C 1068.18 -4.49771 0.0511596 0
M  V30 11333 C 1069.5 -3.94035 -1.96022 0
M  V30 11334 H 1066.62 -0.710958 -0.194183 0
M  V30 11335 H 1069.26 -1.88986 0.196061 0
M  V30 11336 H 1067.41 -3.49548 -1.69553 0
M  V30 11337 H 1069.08 -4.56163 0.686503 0
M  V30 11338 H 1067.32 -4.27882 0.714127 0
M  V30 11339 H 1067.99 -5.50812 -0.361995 0
M  V30 11340 H 1070.47 -3.9064 -1.43315 0
M  V30 11341 H 1069.35 -4.98329 -2.3013 0
M  V30 11342 H 1069.61 -3.34803 -2.8872 0
M  V30 11343 N 1068.67 0.153526 -1.5685 0
M  V30 11344 C 1069.94 0.895545 -1.73895 0
M  V30 11345 C 1070.32 1.99625 -0.686504 0
M  V30 11346 O 1069.67 2.26579 0.2957 0
M  V30 11347 C 1069.88 1.44399 -3.17726 0
M  V30 11348 C 1071.23 1.90996 -3.79217 0
M  V30 11349 O 1072.25 1.54155 -3.21115 0
M  V30 11350 O 1071.11 2.58917 -4.81274 0
M  V30 11351 H 1068.21 0.422755 -0.710779 0
M  V30 11352 H 1070.75 0.139961 -1.69122 0
M  V30 11353 H 1069.52 0.652635 -3.85819 0
M  V30 11354 H 1069.15 2.26326 -3.26898 0
M  V30 11355 N 1070.14 1.51827 0.422667 0
M  V30 11356 C 1071.56 1.57533 1.00201 0
M  V30 11357 C 1071.91 0.407623 1.91919 0
M  V30 11358 O 1071.03 -0.473763 2.1115 0
M  V30 11359 C 1071.63 2.85508 1.82403 0
M  V30 11360 C 1070.19 2.93737 2.35362 0
M  V30 11361 C 1069.33 2.52343 1.14971 0
M  V30 11362 H 1072.28 1.57391 0.20339 0
M  V30 11363 H 1072.3 2.70097 2.68007 0
M  V30 11364 H 1071.82 3.70477 1.15623 0
M  V30 11365 H 1069.92 2.13231 3.05554 0
M  V30 11366 H 1070.03 3.977 2.67155 0
M  V30 11367 H 1068.39 2.05878 1.49955 0
M  V30 11368 H 1069.18 3.39672 0.497786 0
M  V30 11369 N 1071.62 -0.679052 1.4222 0
M  V30 11370 C 1073.03 -1.25953 1.37815 0
M  V30 11371 C 1073.38 -1.96077 0.0693215 0
M  V30 11372 O 1072.51 -1.99765 -0.832047 0
M  V30 11373 C 1073.1 -2.29063 2.49631 0
M  V30 11374 C 1071.66 -2.82647 2.48571 0
M  V30 11375 C 1070.81 -1.56909 2.28637 0
M  V30 11376 H 1073.76 -0.472714 1.51496 0
M  V30 11377 H 1073.78 -3.10708 2.19638 0
M  V30 11378 H 1073.29 -1.77996 3.44876 0
M  V30 11379 H 1071.4 -3.37846 1.57132 0
M  V30 11380 H 1071.51 -3.31952 3.45463 0
M  V30 11381 H 1069.87 -1.83323 1.76819 0
M  V30 11382 H 1070.66 -1.07814 3.25931 0
M  V30 11383 N 1073.1 -1.28322 -0.914942 0
M  V30 11384 C 1074.05 -1.12003 -2.03858 0
M  V30 11385 C 1075.04 -0.0396287 -1.69354 0
M  V30 11386 O 1076.25 -0.198309 -1.78904 0
M  V30 11387 H 1072.62 -0.34552 -0.667922 0
M  V30 11388 H 1074.59 -2.07168 -2.14765 0
M  V30 11389 C 1073.34 -0.797402 -3.38433 0
M  V30 11390 H 1072.67 -1.62071 -3.65476 0
M  V30 11391 H 1074.11 -0.723165 -4.17787 0
M  V30 11392 C 1072.57 0.498807 -3.33187 0
M  V30 11393 O 1073.1 1.52946 -3.71444 0
M  V30 11394 N 1071.3 0.499101 -2.86282 0
M  V30 11395 H 1070.85 -0.340056 -2.55346 0
M  V30 11396 H 1070.81 1.36641 -2.83155 0
M  V30 11397 N 1074.58 1.12322 -1.10551 0
M  V30 11398 C 1075.83 1.83216 -0.84349 0
M  V30 11399 C 1076.14 1.85075 0.632992 0
M  V30 11400 O 1077.35 2.51976 1.01095 0
M  V30 11401 C 1075.8 3.28994 -1.45915 0
M  V30 11402 C 1075.41 3.3549 -2.96901 0
M  V30 11403 C 1077.15 4.0485 -1.27657 0
M  V30 11404 C 1075.06 4.7561 -3.51496 0
M  V30 11405 H 1073.99 0.686471 -0.311887 0
M  V30 11406 H 1076.64 1.26463 -1.32964 0
M  V30 11407 H 1075.02 3.85621 -0.900678 0
M  V30 11408 H 1076.2 2.88795 -3.59074 0
M  V30 11409 H 1074.51 2.73107 -3.14327 0
M  V30 11410 H 1077.11 5.08316 -1.65889 0
M  V30 11411 H 1077.45 4.15727 -0.218258 0
M  V30 11412 H 1077.99 3.54584 -1.80318 0
M  V30 11413 H 1074.73 4.69927 -4.56999 0
M  V30 11414 H 1074.25 5.22753 -2.94091 0
M  V30 11415 H 1075.92 5.44552 -3.49388 0
M  V30 11416 N 1076.06 0.894434 1.2976 0
M  V30 11417 C 1077.31 0.513673 1.95049 0
M  V30 11418 C 1077.62 -0.943744 1.71327 0
M  V30 11419 O 1078.82 -1.43179 2.30678 0
M  V30 11420 C 1077.28 0.867751 3.49282 0
M  V30 11421 C 1076.89 2.34358 3.81812 0
M  V30 11422 C 1078.63 0.556645 4.20835 0
M  V30 11423 C 1076.54 2.63879 5.29265 0
M  V30 11424 H 1075.47 0.188375 0.73009 0
M  V30 11425 H 1078.12 1.09071 1.47566 0
M  V30 11426 H 1076.5 0.2197 3.9539 0
M  V30 11427 H 1077.68 3.03674 3.46581 0
M  V30 11428 H 1075.99 2.62318 3.23386 0
M  V30 11429 H 1078.59 0.754123 5.29355 0
M  V30 11430 H 1078.93 -0.504526 4.13231 0
M  V30 11431 H 1079.46 1.1623 3.80441 0
M  V30 11432 H 1076.2 3.68774 5.41928 0
M  V30 11433 H 1075.72 1.99182 5.65762 0
M  V30 11434 H 1077.4 2.49871 5.96803 0
M  V30 11435 N 1077.53 -1.43282 0.656365 0
M  V30 11436 C 1078.78 -2.00996 0.168354 0
M  V30 11437 C 1079.1 -1.52408 -1.22601 0
M  V30 11438 O 1080.3 -2.02417 -1.80941 0
M  V30 11439 C 1078.76 -3.5903 0.250161 0
M  V30 11440 C 1078.37 -4.1661 1.64742 0
M  V30 11441 C 1080.11 -4.24118 -0.180084 0
M  V30 11442 C 1078.02 -5.66948 1.68299 0
M  V30 11443 H 1076.95 -0.751674 0.0591769 0
M  V30 11444 H 1079.6 -1.64216 0.818859 0
M  V30 11445 H 1077.98 -3.93226 -0.467908 0
M  V30 11446 H 1079.15 -3.93908 2.3911 0
M  V30 11447 H 1077.47 -3.63905 2.02391 0
M  V30 11448 H 1080.07 -5.34419 -0.173401 0
M  V30 11449 H 1080.41 -3.98264 -1.21208 0
M  V30 11450 H 1080.94 -3.94816 0.486343 0
M  V30 11451 H 1077.68 -5.97573 2.69419 0
M  V30 11452 H 1077.2 -5.91697 0.98261 0
M  V30 11453 H 1078.88 -6.31041 1.42813 0
M  V30 11454 N 1079.01 -0.398486 -1.52479 0
M  V30 11455 C 1080.29 0.238776 -1.94137 0
M  V30 11456 C 1080.67 1.63558 -1.33462 0
M  V30 11457 O 1080.02 2.22821 -0.506272 0
M  V30 11458 C 1080.23 0.255863 -3.48061 0
M  V30 11459 C 1081.58 0.480376 -4.21874 0
M  V30 11460 O 1082.6 0.335679 -3.54615 0
M  V30 11461 O 1081.46 0.764654 -5.41124 0
M  V30 11462 H 1078.55 0.150806 -0.813134 0
M  V30 11463 H 1081.1 -0.453659 -1.63524 0
M  V30 11464 H 1079.87 -0.722171 -3.84578 0
M  V30 11465 H 1079.49 0.99284 -3.85004 0
M  V30 11466 N 1080.49 1.57075 -0.12858 0
M  V30 11467 C 1081.72 1.99586 0.533769 0
M  V30 11468 C 1082.13 1.00737 1.60152 0
M  V30 11469 O 1081.47 -0.00647783 1.83699 0
M  V30 11470 C 1081.53 3.3852 1.21014 0
M  V30 11471 C 1081.2 4.56084 0.289191 0
M  V30 11472 C 1082.2 5.17717 -0.475963 0
M  V30 11473 C 1079.88 5.01912 0.197467 0
M  V30 11474 C 1081.87 6.23572 -1.32048 0
M  V30 11475 C 1079.56 6.07626 -0.65067 0
M  V30 11476 C 1080.56 6.68324 -1.40826 0
M  V30 11477 O 1080.25 7.71995 -2.2423 0
M  V30 11478 H 1079.98 0.660245 0.145096 0
M  V30 11479 H 1082.53 2.04276 -0.214615 0
M  V30 11480 H 1080.76 3.30613 2.00579 0
M  V30 11481 H 1082.45 3.65258 1.77036 0
M  V30 11482 H 1083.22 4.83221 -0.415027 0
M  V30 11483 H 1079.1 4.54407 0.776853 0
M  V30 11484 H 1082.64 6.70878 -1.91228 0
M  V30 11485 H 1078.54 6.41551 -0.712965 0
M  V30 11486 H 1079.31 7.89135 -2.17276 0
M  V30 11487 N 1081.97 -0.145205 1.5693 0
M  V30 11488 C 1083.25 -0.88631 1.74367 0
M  V30 11489 C 1083.63 -1.99259 0.697081 0
M  V30 11490 O 1082.97 -2.26732 -0.28368 0
M  V30 11491 C 1083.18 -1.42712 3.18488 0
M  V30 11492 C 1084.53 -1.88982 3.80225 0
M  V30 11493 O 1085.56 -1.5245 3.21928 0
M  V30 11494 O 1084.42 -2.56361 4.8264 0
M  V30 11495 H 1081.51 -0.418979 0.713011 0
M  V30 11496 H 1084.06 -0.130991 1.69194 0
M  V30 11497 H 1082.83 -0.632165 3.8616 0
M  V30 11498 H 1082.45 -2.24589 3.28094 0
M  V30 11499 N 1083.45 -1.52049 -0.414609 0
M  V30 11500 C 1084.36 -1.7788 -1.52958 0
M  V30 11501 C 1085.37 -0.66408 -1.60829 0
M  V30 11502 O 1086.55 -0.948882 -1.77646 0
M  V30 11503 C 1083.61 -1.91906 -2.88744 0
M  V30 11504 C 1082.68 -3.15803 -2.90804 0
M  V30 11505 C 1081.91 -3.29151 -4.20114 0
M  V30 11506 O 1082.13 -2.47892 -5.13718 0
M  V30 11507 O 1081.07 -4.2227 -4.28919 0
M  V30 11508 H 1084.89 -2.72506 -1.34067 0
M  V30 11509 H 1082.48 -1.36826 -0.599918 0
M  V30 11510 H 1084.36 -2.02986 -3.6929 0
M  V30 11511 H 1083.03 -1.00468 -3.07714 0
M  V30 11512 H 1081.94 -3.10185 -2.09131 0
M  V30 11513 H 1083.27 -4.07004 -2.76783 0
M  V30 11514 N 1084.93 0.6715 -1.42579 0
M  V30 11515 C 1085.88 1.77767 -1.42769 0
M  V30 11516 C 1086.86 1.58106 -0.298568 0
M  V30 11517 O 1088.05 1.68528 -0.541037 0
M  V30 11518 C 1085.18 3.16248 -1.33574 0
M  V30 11519 C 1084.27 3.41521 -2.51445 0
M  V30 11520 N 1084.66 3.37361 -3.76857 0
M  V30 11521 C 1082.96 3.7217 -2.45776 0
M  V30 11522 C 1083.66 3.62209 -4.5517 0
M  V30 11523 N 1082.63 3.83134 -3.85628 0
M  V30 11524 H 1086.43 1.72949 -2.37626 0
M  V30 11525 H 1083.95 0.872467 -1.36974 0
M  V30 11526 H 1085.95 3.9552 -1.31793 0
M  V30 11527 H 1084.61 3.22261 -0.397223 0
M  V30 11528 H 1085.62 3.17187 -4.09406 0
M  V30 11529 H 1082.29 3.85408 -1.6052 0
M  V30 11530 H 1083.68 3.64925 -5.64162 0
M  V30 11531 N 1086.4 1.28806 0.908124 0
M  V30 11532 C 1087.35 1.13215 2.01125 0
M  V30 11533 C 1088.32 0.0277357 1.66077 0
M  V30 11534 O 1089.51 0.193707 1.89814 0
M  V30 11535 C 1086.65 0.805887 3.35558 0
M  V30 11536 C 1085.76 1.9899 3.83441 0
M  V30 11537 C 1084.89 1.60376 5.06412 0
M  V30 11538 C 1083.93 2.75409 5.46641 0
M  V30 11539 N 1083.07 2.37249 6.60801 0
M  V30 11540 H 1087.91 2.07598 2.13792 0
M  V30 11541 H 1085.45 1.03316 1.0471 0
M  V30 11542 H 1087.4 0.597451 4.129 0
M  V30 11543 H 1086.03 -0.101023 3.22642 0
M  V30 11544 H 1085.09 2.31029 3.02208 0
M  V30 11545 H 1086.4 2.85214 4.09212 0
M  V30 11546 H 1085.55 1.35772 5.91313 0
M  V30 11547 H 1084.29 0.712888 4.82462 0
M  V30 11548 H 1083.3 3.00705 4.60279 0
M  V30 11549 H 1084.52 3.65148 5.72577 0
M  V30 11550 H 1082.47 1.50638 6.3847 0
M  V30 11551 H 1082.38 3.17008 6.86325 0
M  V30 11552 H 1083.65 2.15943 7.48992 0
M  V30 11553 N 1087.88 -1.11734 1.11145 0
M  V30 11554 C 1089.11 -1.87215 0.880811 0
M  V30 11555 C 1089.52 -1.80016 -0.569195 0
M  V30 11556 O 1088.88 -1.17926 -1.39283 0
M  V30 11557 C 1088.93 -3.36146 1.32998 0
M  V30 11558 O 1088.65 -3.43187 2.72313 0
M  V30 11559 C 1090.15 -4.28542 1.1343 0
M  V30 11560 H 1087.37 -0.592123 0.315645 0
M  V30 11561 H 1089.92 -1.41335 1.478 0
M  V30 11562 H 1088.07 -3.79542 0.776308 0
M  V30 11563 H 1088.49 -4.359 2.91705 0
M  V30 11564 H 1089.96 -5.31295 1.49764 0
M  V30 11565 H 1090.44 -4.39138 0.0735859 0
M  V30 11566 H 1091.04 -3.90935 1.67481 0
M  V30 11567 N 1089.36 -0.901303 -1.29284 0
M  V30 11568 C 1090.29 -0.32479 -2.25877 0
M  V30 11569 C 1091.27 0.563944 -1.52507 0
M  V30 11570 O 1092.45 0.510393 -1.81459 0
M  V30 11571 C 1089.58 0.536897 -3.34418 0
M  V30 11572 C 1088.63 -0.28474 -4.25548 0
M  V30 11573 S 1089.46 -1.68355 -5.08347 0
M  V30 11574 C 1090.62 -0.828826 -6.20388 0
M  V30 11575 H 1090.85 -1.14352 -2.74428 0
M  V30 11576 H 1088.38 -0.701749 -1.37531 0
M  V30 11577 H 1090.34 1.02827 -3.97413 0
M  V30 11578 H 1089 1.32988 -2.84558 0
M  V30 11579 H 1088.19 0.373566 -5.02614 0
M  V30 11580 H 1087.8 -0.709313 -3.67212 0
M  V30 11581 H 1090.09 -0.0529234 -6.77479 0
M  V30 11582 H 1091.03 -1.57161 -6.90439 0
M  V30 11583 H 1091.44 -0.382503 -5.63203 0
M  V30 11584 N 1090.84 1.42931 -0.663954 0
M  V30 11585 C 1091.79 2.32577 0.03287 0
M  V30 11586 C 1092.78 1.49217 0.801918 0
M  V30 11587 O 1093.99 1.65358 0.711106 0
M  V30 11588 H 1090.36 0.751424 0.0294198 0
M  V30 11589 H 1092.33 2.89059 -0.740763 0
M  V30 11590 C 1091.08 3.33661 0.978025 0
M  V30 11591 H 1090.4 3.97837 0.395681 0
M  V30 11592 H 1091.84 3.98997 1.43448 0
M  V30 11593 C 1090.3 2.65085 2.07922 0
M  V30 11594 O 1090.83 2.4745 3.16435 0
M  V30 11595 N 1089.04 2.24285 1.84783 0
M  V30 11596 H 1088.59 2.38827 0.965368 0
M  V30 11597 H 1088.54 1.78732 2.58655 0
M  V30 11598 N 1092.32 0.406567 1.52266 0
M  V30 11599 C 1093.73 -0.063607 1.86592 0
M  V30 11600 C 1094.08 -1.4466 1.32544 0
M  V30 11601 O 1093.2 -2.05971 0.663692 0
M  V30 11602 C 1093.8 -0.122198 3.3858 0
M  V30 11603 C 1092.36 -0.536701 3.72554 0
M  V30 11604 C 1091.5 0.290422 2.75775 0
M  V30 11605 H 1094.45 0.623738 1.45929 0
M  V30 11606 H 1094.48 -0.937964 3.68758 0
M  V30 11607 H 1093.99 0.884495 3.77887 0
M  V30 11608 H 1092.09 -1.55013 3.38824 0
M  V30 11609 H 1092.2 -0.282867 4.78264 0
M  V30 11610 H 1090.57 -0.246864 2.53501 0
M  V30 11611 H 1091.35 1.29541 3.17921 0
M  V30 11612 N 1093.79 -1.57004 0.136909 0
M  V30 11613 C 1094.7 -2.19807 -0.819887 0
M  V30 11614 C 1095.72 -1.17939 -1.27932 0
M  V30 11615 O 1096.9 -1.50478 -1.3386 0
M  V30 11616 C 1093.96 -2.79935 -2.04542 0
M  V30 11617 C 1093.02 -3.96897 -1.6362 0
M  V30 11618 C 1092.26 -4.54148 -2.80331 0
M  V30 11619 O 1092.48 -4.10282 -3.96264 0
M  V30 11620 O 1091.41 -5.44565 -2.56384 0
M  V30 11621 H 1095.24 -3.02058 -0.315337 0
M  V30 11622 H 1092.82 -1.49131 -0.0896151 0
M  V30 11623 H 1094.71 -3.18191 -2.76283 0
M  V30 11624 H 1093.38 -2.00703 -2.53969 0
M  V30 11625 H 1092.29 -3.63376 -0.889316 0
M  V30 11626 H 1093.62 -4.77618 -1.18918 0
M  V30 11627 N 1095.27 0.136881 -1.57004 0
M  V30 11628 C 1096.2 1.19402 -1.95642 0
M  V30 11629 C 1097.22 1.38635 -0.853478 0
M  V30 11630 O 1098.41 1.38027 -1.13185 0
M  V30 11631 C 1095.51 2.55716 -2.22402 0
M  V30 11632 C 1094.68 2.57325 -3.53698 0
M  V30 11633 C 1093.74 3.75253 -3.68879 0
M  V30 11634 O 1092.76 3.5966 -4.41173 0
M  V30 11635 N 1093.97 4.93112 -3.06302 0
M  V30 11636 H 1096.73 0.865504 -2.8693 0
M  V30 11637 H 1094.29 0.326346 -1.58577 0
M  V30 11638 H 1096.28 3.33135 -2.29789 0
M  V30 11639 H 1094.85 2.80819 -1.37329 0
M  V30 11640 H 1094.07 1.65749 -3.5766 0
M  V30 11641 H 1095.36 2.55441 -4.40031 0
M  V30 11642 H 1094.76 5.08684 -2.47502 0
M  V30 11643 H 1093.32 5.68271 -3.19236 0
M  V30 11644 N 1096.75 1.52266 0.40654 0
M  V30 11645 C 1097.71 1.75168 1.47814 0
M  V30 11646 C 1098.71 0.621575 1.48301 0
M  V30 11647 O 1099.9 0.889476 1.4978 0
M  V30 11648 C 1097.04 1.83642 2.87208 0
M  V30 11649 H 1098.23 2.70834 1.28798 0
M  V30 11650 H 1095.78 1.42722 0.637196 0
M  V30 11651 H 1096.52 0.898994 3.1159 0
M  V30 11652 H 1096.3 2.65801 2.88257 0
M  V30 11653 H 1097.79 2.03093 3.64888 0
M  V30 11654 N 1098.23 -0.663929 1.42933 0
M  V30 11655 C 1099.64 -0.978346 1.26097 0
M  V30 11656 C 1099.84 -2.00756 0.172968 0
M  V30 11657 O 1098.9 -2.48418 -0.452184 0
M  V30 11658 C 1100.21 -1.4728 2.62162 0
M  V30 11659 C 1101.76 -1.59001 2.69606 0
M  V30 11660 C 1102.24 -2.1184 4.06064 0
M  V30 11661 N 1103.73 -2.19158 4.08074 0
M  V30 11662 C 1104.46 -2.61141 5.10483 0
M  V30 11663 N 1103.96 -3.02498 6.23271 0
M  V30 11664 N 1105.75 -2.60986 4.97838 0
M  V30 11665 H 1097.9 0.0173096 2.12393 0
M  V30 11666 H 1100.17 -0.0548116 0.946414 0
M  V30 11667 H 1099.87 -0.791008 3.42689 0
M  V30 11668 H 1099.75 -2.4497 2.86827 0
M  V30 11669 H 1102.13 -2.26284 1.89418 0
M  V30 11670 H 1102.21 -0.597728 2.48718 0
M  V30 11671 H 1101.86 -1.45162 4.86714 0
M  V30 11672 H 1101.79 -3.1188 4.2431 0
M  V30 11673 H 1104.28 -1.90013 3.26655 0
M  V30 11674 H 1104.59 -3.33251 6.97254 0
M  V30 11675 H 1102.94 -3.00328 6.2676 0
M  V30 11676 H 1106.13 -2.28046 4.08794 0
M  V30 11677 H 1106.3 -2.93384 5.7778 0
M  V30 11678 N 1099.71 -1.29285 -0.901281 0
M  V30 11679 C 1100.95 -1.16934 -1.64836 0
M  V30 11680 C 1101.28 0.279826 -1.92982 0
M  V30 11681 O 1100.55 1.19179 -1.55478 0
M  V30 11682 H 1099.13 -0.429768 -0.61099 0
M  V30 11683 H 1101.79 -1.62189 -1.08077 0
M  V30 11684 H 1100.88 -1.71821 -2.60545 0
M  V30 11685 N 1101.18 1.11143 -1.11736 0
M  V30 11686 C 1102.43 1.83219 -0.869413 0
M  V30 11687 C 1102.76 1.84588 0.603402 0
M  V30 11688 O 1102.04 1.30119 1.44566 0
M  V30 11689 C 1102.32 3.30247 -1.43559 0
M  V30 11690 C 1102.17 3.37253 -2.97624 0
M  V30 11691 C 1103.49 4.26412 -1.08907 0
M  V30 11692 H 1100.61 0.665205 -0.317286 0
M  V30 11693 H 1103.25 1.30307 -1.38275 0
M  V30 11694 H 1101.4 3.75437 -0.998978 0
M  V30 11695 H 1103.08 3.00599 -3.49911 0
M  V30 11696 H 1101.32 2.77378 -3.33532 0
M  V30 11697 H 1101.99 4.40752 -3.32328 0
M  V30 11698 H 1104.47 3.89418 -1.46604 0
M  V30 11699 H 1103.34 5.27666 -1.51195 0
M  V30 11700 H 1103.6 4.421 -0.000259009 0
M  V30 11701 N 1102.66 0.908147 1.28804 0
M  V30 11702 C 1103.59 0.409106 2.29888 0
M  V30 11703 C 1104.57 -0.520338 1.61946 0
M  V30 11704 O 1105.76 -0.429268 1.89396 0
M  V30 11705 C 1102.89 -0.35669 3.45463 0
M  V30 11706 C 1101.84 0.4831 4.25265 0
M  V30 11707 C 1101.17 -0.4107 5.3312 0
M  V30 11708 C 1102.47 1.73744 4.92555 0
M  V30 11709 H 1104.16 1.25386 2.7188 0
M  V30 11710 H 1101.71 0.604368 1.30703 0
M  V30 11711 H 1103.66 -0.71661 4.15262 0
M  V30 11712 H 1102.39 -1.2353 3.02337 0
M  V30 11713 H 1101.04 0.825464 3.57186 0
M  V30 11714 H 1100.69 -1.28769 4.86238 0
M  V30 11715 H 1100.39 0.14756 5.87415 0
M  V30 11716 H 1101.92 -0.766626 6.05768 0
M  V30 11717 H 1103.33 1.44676 5.54745 0
M  V30 11718 H 1101.73 2.23767 5.5682 0
M  V30 11719 H 1102.8 2.46853 4.17363 0
M  V30 11720 N 1104.14 -1.42577 0.671525 0
M  V30 11721 C 1105.09 -2.30798 -0.00883676 0
M  V30 11722 C 1106.06 -1.4578 -0.796076 0
M  V30 11723 O 1107.24 -1.74617 -0.768987 0
M  V30 11724 C 1104.38 -3.31581 -0.956452 0
M  V30 11725 C 1103.5 -4.31691 -0.163381 0
M  V30 11726 C 1102.63 -5.19549 -1.10645 0
M  V30 11727 C 1101.67 -6.1134 -0.304876 0
M  V30 11728 N 1100.81 -6.91761 -1.20048 0
M  V30 11729 H 1105.65 -2.88426 0.749301 0
M  V30 11730 H 1103.18 -1.42074 0.381251 0
M  V30 11731 H 1105.14 -3.88539 -1.51966 0
M  V30 11732 H 1103.77 -2.75561 -1.68126 0
M  V30 11733 H 1102.82 -3.76879 0.516396 0
M  V30 11734 H 1104.14 -4.96683 0.459099 0
M  V30 11735 H 1103.29 -5.81223 -1.73969 0
M  V30 11736 H 1102.03 -4.54726 -1.76282 0
M  V30 11737 H 1101.03 -5.48738 0.341597 0
M  V30 11738 H 1102.26 -6.78211 0.347352 0
M  V30 11739 H 1100.2 -6.2957 -1.84331 0
M  V30 11740 H 1100.12 -7.53345 -0.633003 0
M  V30 11741 H 1101.39 -7.57924 -1.82129 0
M  V30 11742 N 1105.62 -0.414636 -1.52048 0
M  V30 11743 C 1106.86 0.158807 -2.03782 0
M  V30 11744 C 1107.22 1.41912 -1.29325 0
M  V30 11745 O 1108.42 2.07136 -1.71313 0
M  V30 11746 C 1106.69 0.395092 -3.55209 0
M  V30 11747 S 1108.25 0.935193 -4.28719 0
M  V30 11748 H 1105.07 0.0424729 -0.70973 0
M  V30 11749 H 1107.67 -0.568822 -1.87042 0
M  V30 11750 H 1106.38 -0.528875 -4.06978 0
M  V30 11751 H 1105.91 1.15044 -3.76203 0
M  V30 11752 H 1107.92 2.21519 -4.44009 0
M  V30 11753 N 1107.1 1.56929 -0.145233 0
M  V30 11754 C 1108.37 1.8767 0.551288 0
M  V30 11755 C 1108.75 1.05089 1.83083 0
M  V30 11756 O 1108.1 0.137201 2.28088 0
M  V30 11757 C 1108.31 3.39268 0.818445 0
M  V30 11758 C 1109.66 4.08447 1.16 0
M  V30 11759 O 1110.68 3.44436 0.907857 0
M  V30 11760 O 1109.54 5.21488 1.63441 0
M  V30 11761 H 1106.64 0.777788 0.281024 0
M  V30 11762 H 1109.18 1.68724 -0.181712 0
M  V30 11763 H 1107.95 3.91203 -0.0871897 0
M  V30 11764 H 1107.58 3.63735 1.60569 0
M  V30 11765 N 1108.58 -0.128553 1.57075 0
M  V30 11766 C 1109.82 -0.836536 1.83535 0
M  V30 11767 C 1110.14 -1.81491 0.7294 0
M  V30 11768 O 1111.34 -2.56838 0.880128 0
M  V30 11769 C 1109.8 -1.53836 3.25365 0
M  V30 11770 C 1109.41 -0.601454 4.43944 0
M  V30 11771 C 1111.15 -2.23204 3.61082 0
M  V30 11772 C 1109.06 -1.30596 5.768 0
M  V30 11773 H 1107.99 -0.316142 0.684522 0
M  V30 11774 H 1110.64 -0.0892555 1.83283 0
M  V30 11775 H 1109.02 -2.33192 3.20058 0
M  V30 11776 H 1110.2 0.158209 4.60528 0
M  V30 11777 H 1108.51 -0.0152393 4.16397 0
M  V30 11778 H 1111.11 -2.76585 4.57608 0
M  V30 11779 H 1111.45 -3.0056 2.88044 0
M  V30 11780 H 1111.98 -1.50746 3.68131 0
M  V30 11781 H 1108.72 -0.573874 6.52983 0
M  V30 11782 H 1108.24 -2.03787 5.6412 0
M  V30 11783 H 1109.92 -1.8418 6.20231 0
M  V30 11784 N 1110.05 -1.5248 -0.398459 0
M  V30 11785 C 1111.28 -1.70925 -1.16586 0
M  V30 11786 C 1111.7 -0.42342 -1.83991 0
M  V30 11787 O 1111.05 0.601395 -1.72306 0
M  V30 11788 C 1111.1 -2.85226 -2.22099 0
M  V30 11789 O 1110.83 -4.08831 -1.57444 0
M  V30 11790 C 1112.33 -3.15272 -3.11639 0
M  V30 11791 H 1109.55 -0.572533 -0.349924 0
M  V30 11792 H 1112.09 -1.99087 -0.467416 0
M  V30 11793 H 1110.25 -2.59553 -2.87595 0
M  V30 11794 H 1110.66 -4.72603 -2.2748 0
M  V30 11795 H 1112.13 -3.98737 -3.81724 0
M  V30 11796 H 1112.61 -2.29262 -3.74614 0
M  V30 11797 H 1113.22 -3.42749 -2.518 0
M  V30 11798 N 1111.53 0.65634 -1.43283 0
M  V30 11799 C 1112.81 1.41339 -1.35213 0
M  V30 11800 C 1113.19 2.111 0.00158494 0
M  V30 11801 O 1112.54 2.0457 1.018 0
M  V30 11802 C 1112.75 2.40066 -2.53317 0
M  V30 11803 C 1114.09 3.04159 -2.96264 0
M  V30 11804 O 1115.12 2.50393 -2.53341 0
M  V30 11805 O 1113.98 4.01633 -3.70612 0
M  V30 11806 H 1111.07 0.631325 -0.534189 0
M  V30 11807 H 1113.62 0.68351 -1.55326 0
M  V30 11808 H 1112.39 1.87444 -3.43483 0
M  V30 11809 H 1112.01 3.20509 -2.35287 0
M  V30 11810 N 1113.01 1.29761 0.894412 0
M  V30 11811 C 1113.94 1.17902 2.01547 0
M  V30 11812 C 1114.92 0.0719402 1.69948 0
M  V30 11813 O 1116.11 0.252338 1.92554 0
M  V30 11814 C 1113.24 0.860262 3.36477 0
M  V30 11815 C 1112.19 1.92424 3.82305 0
M  V30 11816 C 1111.52 1.45868 5.14419 0
M  V30 11817 C 1112.82 3.33391 4.02054 0
M  V30 11818 H 1114.51 2.11688 2.11727 0
M  V30 11819 H 1112.06 1.01916 1.01731 0
M  V30 11820 H 1114.01 0.763987 4.14417 0
M  V30 11821 H 1112.73 -0.113289 3.26403 0
M  V30 11822 H 1111.39 2.00999 3.06586 0
M  V30 11823 H 1111.04 0.473654 5.00765 0
M  V30 11824 H 1110.74 2.17028 5.46052 0
M  V30 11825 H 1112.26 1.37601 5.94894 0
M  V30 11826 H 1113.68 3.27628 4.7046 0
M  V30 11827 H 1112.07 4.02555 4.4505 0
M  V30 11828 H 1113.14 3.75978 3.06216 0
M  V30 11829 N 1114.49 -1.10549 1.12324 0
M  V30 11830 C 1115.42 -2.16657 0.747826 0
M  V30 11831 C 1116.43 -1.61238 -0.224981 0
M  V30 11832 O 1117.62 -1.78499 -0.00649408 0
M  V30 11833 C 1114.72 -3.38791 0.0859421 0
M  V30 11834 C 1113.89 -4.23655 1.08792 0
M  V30 11835 C 1112.95 -5.24239 0.453871 0
M  V30 11836 O 1111.98 -5.58262 1.11052 0
M  V30 11837 N 1113.18 -5.75246 -0.779215 0
M  V30 11838 H 1115.95 -2.49472 1.66084 0
M  V30 11839 H 1113.51 -1.26157 1.01469 0
M  V30 11840 H 1115.5 -4.03182 -0.350186 0
M  V30 11841 H 1114.07 -3.03961 -0.729807 0
M  V30 11842 H 1113.29 -3.55578 1.70171 0
M  V30 11843 H 1114.58 -4.77187 1.76549 0
M  V30 11844 H 1113.98 -5.49802 -1.3317 0
M  V30 11845 H 1112.53 -6.41428 -1.15818 0
M  V30 11846 N 1115.97 -0.914965 -1.28321 0
M  V30 11847 C 1117.21 -0.544639 -1.94208 0
M  V30 11848 C 1117.53 0.916368 -1.72806 0
M  V30 11849 O 1118.73 1.39491 -2.32926 0
M  V30 11850 C 1117.19 -0.923209 -3.47858 0
M  V30 11851 C 1116.8 -2.40403 -3.78035 0
M  V30 11852 C 1118.54 -0.623526 -4.19896 0
M  V30 11853 C 1116.45 -2.72266 -5.25 0
M  V30 11854 H 1115.38 -0.199966 -0.727 0
M  V30 11855 H 1118.03 -1.11405 -1.45812 0
M  V30 11856 H 1116.41 -0.282576 -3.94991 0
M  V30 11857 H 1117.59 -3.09149 -3.41706 0
M  V30 11858 H 1115.9 -2.67429 -3.19172 0
M  V30 11859 H 1118.5 -0.838243 -5.28089 0
M  V30 11860 H 1118.84 0.438721 -4.13982 0
M  V30 11861 H 1119.37 -1.22268 -3.78544 0
M  V30 11862 H 1116.11 -3.77349 -5.35993 0
M  V30 11863 H 1115.63 -2.08157 -5.62522 0
M  V30 11864 H 1117.31 -2.59334 -5.92752 0
M  V30 11865 N 1117.44 1.42219 -0.679077 0
M  V30 11866 C 1118.69 2.00703 -0.200309 0
M  V30 11867 C 1119.01 1.54339 1.20161 0
M  V30 11868 O 1120.21 2.0527 1.77698 0
M  V30 11869 C 1118.67 3.58586 -0.307248 0
M  V30 11870 C 1118.28 4.13937 -1.71349 0
M  V30 11871 C 1120.02 4.24351 0.112588 0
M  V30 11872 C 1117.93 5.64198 -1.77297 0
M  V30 11873 H 1116.86 0.750638 -0.0711279 0
M  V30 11874 H 1119.51 1.62893 -0.844881 0
M  V30 11875 H 1117.89 3.93921 0.40529 0
M  V30 11876 H 1119.06 3.90054 -2.45346 0
M  V30 11877 H 1117.38 3.60639 -2.08155 0
M  V30 11878 H 1119.98 5.34627 0.0883578 0
M  V30 11879 H 1120.32 4.00142 1.14857 0
M  V30 11880 H 1120.85 3.93992 -0.549093 0
M  V30 11881 H 1117.59 5.93211 -2.78892 0
M  V30 11882 H 1117.11 5.90058 -1.07662 0
M  V30 11883 H 1118.79 6.2869 -1.52835 0
M  V30 11884 N 1118.92 0.422693 1.51826 0
M  V30 11885 C 1120.16 -0.147997 2.03864 0
M  V30 11886 C 1120.53 -1.41224 1.30076 0
M  V30 11887 O 1121.73 -2.06224 1.72409 0
M  V30 11888 C 1120 -0.376248 3.55414 0
M  V30 11889 S 1121.56 -0.912444 4.29208 0
M  V30 11890 H 1118.37 -0.0387084 0.709946 0
M  V30 11891 H 1120.98 0.578733 1.86738 0
M  V30 11892 H 1119.68 0.550451 4.06692 0
M  V30 11893 H 1119.21 -1.13047 3.76807 0
M  V30 11894 H 1121.23 -2.19161 4.45177 0
M  V30 11895 N 1120.4 -1.5685 0.153553 0
M  V30 11896 C 1121.62 -2.01135 -0.505904 0
M  V30 11897 C 1122.05 -1.03301 -1.57196 0
M  V30 11898 O 1121.41 -0.00976022 -1.81297 0
M  V30 11899 C 1121.46 -3.44129 -1.0774 0
M  V30 11900 O 1120.56 -3.49318 -2.19205 0
M  V30 11901 H 1119.9 -0.652496 -0.123062 0
M  V30 11902 H 1122.43 -2.03039 0.252216 0
M  V30 11903 H 1122.44 -3.83066 -1.40444 0
M  V30 11904 H 1121.12 -4.1484 -0.296754 0
M  V30 11905 H 1119.69 -3.22227 -1.8768 0
M  V30 11906 N 1121.88 0.120221 -1.57141 0
M  V30 11907 C 1122.81 1.14876 -2.03287 0
M  V30 11908 C 1123.79 1.43259 -0.917112 0
M  V30 11909 O 1124.97 1.53721 -1.18674 0
M  V30 11910 C 1122.1 2.47525 -2.43616 0
M  V30 11911 C 1121.06 2.33607 -3.58625 0
M  V30 11912 C 1120.38 3.71207 -3.84849 0
M  V30 11913 C 1121.68 1.79761 -4.90391 0
M  V30 11914 H 1123.38 0.764943 -2.89463 0
M  V30 11915 H 1120.92 0.366516 -1.39258 0
M  V30 11916 H 1122.88 3.19728 -2.74504 0
M  V30 11917 H 1121.6 2.87794 -1.54409 0
M  V30 11918 H 1120.26 1.63853 -3.27945 0
M  V30 11919 H 1119.91 4.0896 -2.9285 0
M  V30 11920 H 1119.61 3.62749 -4.62263 0
M  V30 11921 H 1121.13 4.44917 -4.18188 0
M  V30 11922 H 1122.55 2.4178 -5.19822 0
M  V30 11923 H 1120.94 1.82126 -5.71795 0
M  V30 11924 H 1122.01 0.755087 -4.78985 0
M  V30 11925 N 1123.36 1.52689 0.390367 0
M  V30 11926 C 1124.6 1.67335 1.13329 0
M  V30 11927 C 1124.93 0.415068 1.90531 0
M  V30 11928 O 1124.2 -0.570504 1.87409 0
M  V30 11929 H 1122.78 0.616821 0.421356 0
M  V30 11930 H 1125.44 1.89799 0.443 0
M  V30 11931 H 1124.53 2.52314 1.83696 0
M  V30 11932 N 1124.83 -0.648732 1.43629 0
M  V30 11933 C 1126.06 -1.43412 1.48716 0
M  V30 11934 C 1126.47 -1.88908 0.105051 0
M  V30 11935 O 1125.82 -1.60373 -0.895896 0
M  V30 11936 C 1125.88 -2.69906 2.37468 0
M  V30 11937 C 1125.54 -2.46321 3.84935 0
M  V30 11938 C 1126.54 -2.09259 4.75927 0
M  V30 11939 C 1124.22 -2.60506 4.29467 0
M  V30 11940 C 1126.22 -1.86686 6.09448 0
M  V30 11941 C 1123.9 -2.37548 5.6304 0
M  V30 11942 C 1124.9 -2.00694 6.52848 0
M  V30 11943 O 1124.59 -1.77979 7.83951 0
M  V30 11944 H 1124.32 -0.446883 0.507219 0
M  V30 11945 H 1126.88 -0.802218 1.89086 0
M  V30 11946 H 1125.11 -3.35672 1.91993 0
M  V30 11947 H 1126.8 -3.31867 2.33707 0
M  V30 11948 H 1127.56 -1.97872 4.428 0
M  V30 11949 H 1123.44 -2.88165 3.59836 0
M  V30 11950 H 1126.98 -1.57844 6.79508 0
M  V30 11951 H 1122.88 -2.48539 5.95734 0
M  V30 11952 H 1123.65 -1.92368 7.95573 0
M  V30 11953 N 1126.31 -1.30234 -0.887518 0
M  V30 11954 C 1127.54 -1.21955 -1.67755 0
M  V30 11955 C 1127.96 0.214701 -1.86871 0
M  V30 11956 O 1127.32 1.15459 -1.39782 0
M  V30 11957 C 1127.37 -1.95079 -3.03276 0
M  V30 11958 O 1126.47 -1.27615 -3.92158 0
M  V30 11959 H 1125.81 -0.421948 -0.512695 0
M  V30 11960 H 1128.34 -1.72011 -1.10785 0
M  V30 11961 H 1128.35 -2.04004 -3.53336 0
M  V30 11962 H 1127.03 -2.99392 -2.88682 0
M  V30 11963 H 1125.61 -1.27029 -3.50597 0
M  V30 11964 N 1127.79 1.09952 -1.12909 0
M  V30 11965 C 1129.04 1.81386 -0.882163 0
M  V30 11966 C 1129.35 1.86376 0.593592 0
M  V30 11967 O 1130.56 2.54064 0.957275 0
M  V30 11968 C 1129.01 3.25824 -1.52861 0
M  V30 11969 C 1128.62 3.29117 -3.0395 0
M  V30 11970 C 1130.37 4.02051 -1.36216 0
M  V30 11971 C 1128.27 4.68047 -3.61505 0
M  V30 11972 H 1127.2 0.679701 -0.326378 0
M  V30 11973 H 1129.85 1.23614 -1.35616 0
M  V30 11974 H 1128.24 3.83624 -0.982271 0
M  V30 11975 H 1129.41 2.81114 -3.65119 0
M  V30 11976 H 1127.73 2.66379 -3.20049 0
M  V30 11977 H 1130.32 5.04683 -1.76633 0
M  V30 11978 H 1130.67 4.15171 -0.306391 0
M  V30 11979 H 1131.2 3.5068 -1.87799 0
M  V30 11980 H 1127.94 4.60128 -4.66865 0
M  V30 11981 H 1127.46 5.16397 -3.05114 0
M  V30 11982 H 1129.14 5.37018 -3.6086 0
M  V30 11983 N 1129.27 0.921757 1.27833 0
M  V30 11984 C 1130.2 0.433466 2.29441 0
M  V30 11985 C 1131.18 -0.503133 1.62489 0
M  V30 11986 O 1132.36 -0.409156 1.89841 0
M  V30 11987 C 1129.49 -0.320029 3.45822 0
M  V30 11988 C 1128.45 0.528178 4.24728 0
M  V30 11989 C 1127.77 -0.354132 5.33526 0
M  V30 11990 C 1129.07 1.78959 4.90684 0
M  V30 11991 H 1130.77 1.28263 2.70535 0
M  V30 11992 H 1128.31 0.618197 1.30055 0
M  V30 11993 H 1130.27 -0.672526 4.15999 0
M  V30 11994 H 1128.99 -1.20317 3.0363 0
M  V30 11995 H 1127.65 0.863302 3.5629 0
M  V30 11996 H 1127.3 -1.23605 4.87576 0
M  V30 11997 H 1127 0.209855 5.87225 0
M  V30 11998 H 1128.52 -0.702333 6.06547 0
M  V30 11999 H 1129.94 1.50552 5.53179 0
M  V30 12000 H 1128.33 2.29661 5.54415 0
M  V30 12001 H 1129.4 2.51265 4.14721 0
M  V30 12002 N 1130.75 -1.41857 0.686609 0
M  V30 12003 C 1131.68 -2.33481 0.0298353 0
M  V30 12004 C 1132.66 -1.51329 -0.776756 0
M  V30 12005 O 1133.84 -1.79895 -0.731535 0
M  V30 12006 C 1130.97 -3.35065 -0.913707 0
M  V30 12007 C 1129.93 -4.2746 -0.214861 0
M  V30 12008 C 1129.25 -5.19346 -1.27215 0
M  V30 12009 C 1130.55 -5.14252 0.913367 0
M  V30 12010 H 1132.25 -2.8865 0.795067 0
M  V30 12011 H 1129.79 -1.38792 0.383785 0
M  V30 12012 H 1131.75 -3.98082 -1.38234 0
M  V30 12013 H 1130.47 -2.78226 -1.7105 0
M  V30 12014 H 1129.13 -3.65855 0.233651 0
M  V30 12015 H 1128.78 -4.58827 -2.06124 0
M  V30 12016 H 1128.48 -5.81996 -0.80961 0
M  V30 12017 H 1130 -5.85239 -1.74147 0
M  V30 12018 H 1131.41 -5.70887 0.525424 0
M  V30 12019 H 1129.81 -5.85796 1.30244 0
M  V30 12020 H 1130.88 -4.51949 1.75699 0
M  V30 12021 N 1132.22 -0.430739 -1.51599 0
M  V30 12022 C 1133.16 0.429107 -2.24129 0
M  V30 12023 C 1134.14 1.03019 -1.25801 0
M  V30 12024 O 1135.32 1.07392 -1.54917 0
M  V30 12025 C 1132.45 1.59749 -2.9866 0
M  V30 12026 C 1131.49 1.11773 -4.11593 0
M  V30 12027 S 1132.33 0.0651468 -5.3546 0
M  V30 12028 C 1133.48 1.23835 -6.13527 0
M  V30 12029 H 1133.71 -0.186683 -2.96713 0
M  V30 12030 H 1131.25 -0.215201 -1.52893 0
M  V30 12031 H 1133.21 2.26735 -3.42201 0
M  V30 12032 H 1131.87 2.18468 -2.25678 0
M  V30 12033 H 1131.06 1.99125 -4.62996 0
M  V30 12034 H 1130.66 0.526209 -3.7028 0
M  V30 12035 H 1132.95 2.15796 -6.42214 0
M  V30 12036 H 1133.9 0.76443 -7.03962 0
M  V30 12037 H 1134.3 1.47393 -5.44918 0
M  V30 12038 N 1133.7 1.56767 -0.161869 0
M  V30 12039 C 1134.95 1.96885 0.486215 0
M  V30 12040 C 1135.28 1.04745 1.6353 0
M  V30 12041 O 1134.56 0.0927156 1.94279 0
M  V30 12042 C 1134.84 3.46559 0.97822 0
M  V30 12043 C 1134.69 4.49477 -0.17039 0
M  V30 12044 C 1136.01 3.99093 1.85506 0
M  V30 12045 H 1133.13 0.715857 0.175265 0
M  V30 12046 H 1135.77 1.88399 -0.246098 0
M  V30 12047 H 1133.92 3.53921 1.60225 0
M  V30 12048 H 1135.59 4.54183 -0.807205 0
M  V30 12049 H 1133.84 4.25838 -0.827322 0
M  V30 12050 H 1134.51 5.51578 0.21583 0
M  V30 12051 H 1136.98 3.94303 1.32908 0
M  V30 12052 H 1135.86 5.04255 2.16837 0
M  V30 12053 H 1136.12 3.4234 2.79742 0
M  V30 12054 N 1135.18 -0.111886 1.57202 0
M  V30 12055 C 1136.41 -0.832407 1.89416 0
M  V30 12056 C 1136.82 -1.73096 0.753861 0
M  V30 12057 O 1136.18 -1.80416 -0.274992 0
M  V30 12058 C 1136.23 -1.65988 3.21139 0
M  V30 12059 O 1135.95 -0.797485 4.3078 0
M  V30 12060 C 1137.45 -2.48493 3.67105 0
M  V30 12061 H 1134.67 -0.238919 0.627024 0
M  V30 12062 H 1137.22 -0.0941456 2.04283 0
M  V30 12063 H 1135.37 -2.35082 3.07921 0
M  V30 12064 H 1135.79 -1.36892 5.06321 0
M  V30 12065 H 1137.26 -3.02072 4.62014 0
M  V30 12066 H 1137.74 -3.26182 2.94112 0
M  V30 12067 H 1138.34 -1.84628 3.83135 0
M  V30 12068 N 1136.66 -1.52894 -0.382264 0
M  V30 12069 C 1137.9 -1.69958 -1.1355 0
M  V30 12070 C 1138.26 -0.433602 -1.8704 0
M  V30 12071 O 1139.46 -0.480701 -2.64467 0
M  V30 12072 C 1137.73 -2.90465 -2.08242 0
M  V30 12073 S 1139.29 -3.28151 -2.91311 0
M  V30 12074 H 1136.11 -0.598209 -0.384275 0
M  V30 12075 H 1138.71 -1.90957 -0.418998 0
M  V30 12076 H 1137.42 -3.80819 -1.52987 0
M  V30 12077 H 1136.95 -2.71819 -2.84391 0
M  V30 12078 H 1138.96 -2.78863 -4.10426 0
M  V30 12079 N 1138.14 0.641106 -1.43971 0
M  V30 12080 C 1139.37 1.42829 -1.49692 0
M  V30 12081 C 1139.78 1.88427 -0.118594 0
M  V30 12082 O 1139.14 1.60234 0.873581 0
M  V30 12083 C 1139.19 2.65524 -2.45314 0
M  V30 12084 O 1138.91 2.2183 -3.77787 0
M  V30 12085 C 1140.41 3.58758 -2.60399 0
M  V30 12086 H 1137.63 0.438367 -0.508011 0
M  V30 12087 H 1140.17 0.784933 -1.88836 0
M  V30 12088 H 1138.33 3.25973 -2.09332 0
M  V30 12089 H 1138.74 3.01303 -4.29321 0
M  V30 12090 H 1140.22 4.41483 -3.31357 0
M  V30 12091 H 1140.69 4.06909 -1.65294 0
M  V30 12092 H 1141.3 3.04184 -2.97241 0
M  V30 12093 N 1139.62 1.30703 0.880598 0
M  V30 12094 C 1140.86 1.19955 1.63519 0
M  V30 12095 C 1141.19 -0.244214 1.92658 0
M  V30 12096 O 1140.47 -1.17412 1.55063 0
M  V30 12097 C 1140.75 2.03302 2.97221 0
M  V30 12098 C 1140.61 3.55921 2.75028 0
M  V30 12099 C 1141.92 1.87421 3.98198 0
M  V30 12100 H 1139.04 0.43712 0.593376 0
M  V30 12101 H 1141.69 1.60382 1.01871 0
M  V30 12102 H 1139.84 1.68953 3.49839 0
M  V30 12103 H 1141.51 4.00352 2.29164 0
M  V30 12104 H 1139.75 3.79885 2.09452 0
M  V30 12105 H 1140.42 4.09533 3.70117 0
M  V30 12106 H 1142.9 2.17459 3.54755 0
M  V30 12107 H 1141.77 2.48057 4.89652 0
M  V30 12108 H 1142.03 0.834563 4.34151 0
M  V30 12109 N 1141.09 -1.09351 1.1349 0
M  V30 12110 C 1142.32 -1.85036 0.918989 0
M  V30 12111 C 1142.73 -1.8146 -0.535638 0
M  V30 12112 O 1142.07 -1.20958 -1.38256 0
M  V30 12113 C 1142.14 -3.33992 1.33001 0
M  V30 12114 C 1141.8 -3.61315 2.79822 0
M  V30 12115 C 1142.8 -3.56973 3.77976 0
M  V30 12116 C 1140.48 -3.89636 3.17001 0
M  V30 12117 C 1142.48 -3.80564 5.11321 0
M  V30 12118 C 1140.16 -4.12882 4.50524 0
M  V30 12119 C 1141.16 -4.08338 5.47494 0
M  V30 12120 O 1140.85 -4.30983 6.78608 0
M  V30 12121 H 1140.58 -0.591301 0.327627 0
M  V30 12122 H 1143.14 -1.39078 1.5115 0
M  V30 12123 H 1141.37 -3.8066 0.68077 0
M  V30 12124 H 1143.05 -3.9109 1.08645 0
M  V30 12125 H 1143.82 -3.3512 3.50599 0
M  V30 12126 H 1139.7 -3.92297 2.42124 0
M  V30 12127 H 1143.24 -3.76933 5.86998 0
M  V30 12128 H 1139.14 -4.34216 4.77626 0
M  V30 12129 H 1139.91 -4.4844 6.84722 0
M  V30 12130 N 1142.57 -0.928524 -1.27343 0
M  V30 12131 C 1143.53 -0.43292 -2.25074 0
M  V30 12132 C 1144.53 0.448976 -1.54405 0
M  V30 12133 O 1145.72 0.249939 -1.72398 0
M  V30 12134 C 1142.86 0.377539 -3.38803 0
M  V30 12135 H 1144.05 -1.29642 -2.70431 0
M  V30 12136 H 1141.6 -0.709289 -1.3928 0
M  V30 12137 H 1142.34 1.25982 -2.98829 0
M  V30 12138 H 1142.12 -0.254782 -3.91271 0
M  V30 12139 H 1143.61 0.714634 -4.1144 0
M  V30 12140 N 1144.05 1.41491 -0.694123 0
M  V30 12141 C 1145.3 2.00479 -0.221585 0
M  V30 12142 C 1145.61 1.55605 1.18518 0
M  V30 12143 O 1146.82 2.07143 1.7551 0
M  V30 12144 C 1145.27 3.5824 -0.345264 0
M  V30 12145 C 1144.88 4.12096 -1.7573 0
M  V30 12146 C 1146.63 4.24446 0.0675731 0
M  V30 12147 C 1144.53 5.62286 -1.83271 0
M  V30 12148 H 1143.46 0.749841 -0.0790854 0
M  V30 12149 H 1146.11 1.61987 -0.86211 0
M  V30 12150 H 1144.5 3.94328 0.363487 0
M  V30 12151 H 1145.67 3.8743 -2.49469 0
M  V30 12152 H 1143.98 3.58411 -2.11969 0
M  V30 12153 H 1146.58 5.34691 0.0316485 0
M  V30 12154 H 1146.92 4.01338 1.10606 0
M  V30 12155 H 1147.46 3.93388 -0.59085 0
M  V30 12156 H 1144.2 5.9022 -2.85168 0
M  V30 12157 H 1143.72 5.88883 -1.13914 0
M  V30 12158 H 1145.4 6.27033 -1.59494 0
M  V30 12159 N 1145.53 0.438773 1.51369 0
M  V30 12160 C 1146.47 -0.37195 2.27783 0
M  V30 12161 C 1147.44 -1.01558 1.31435 0
M  V30 12162 O 1148.63 -1.03421 1.60339 0
M  V30 12163 C 1145.77 -1.46636 3.12397 0
M  V30 12164 C 1144.88 -0.840727 4.2374 0
M  V30 12165 C 1144.02 -1.91031 4.95662 0
M  V30 12166 C 1143.06 -1.26318 5.98924 0
M  V30 12167 N 1142.19 -2.27419 6.64248 0
M  V30 12168 H 1147.03 0.286048 2.96624 0
M  V30 12169 H 1144.57 0.152909 1.46303 0
M  V30 12170 H 1146.53 -2.11219 3.59781 0
M  V30 12171 H 1145.16 -2.09397 2.45668 0
M  V30 12172 H 1144.21 -0.0831588 3.80309 0
M  V30 12173 H 1145.52 -0.328285 4.97719 0
M  V30 12174 H 1144.68 -2.63272 5.46601 0
M  V30 12175 H 1143.42 -2.45649 4.21317 0
M  V30 12176 H 1142.42 -0.526246 5.47276 0
M  V30 12177 H 1143.65 -0.724324 6.75226 0
M  V30 12178 H 1141.59 -2.81114 5.92715 0
M  V30 12179 H 1141.51 -1.81071 7.33996 0
M  V30 12180 H 1142.78 -2.99139 7.19817 0
M  V30 12181 N 1147.01 -1.56678 0.170181 0
M  V30 12182 C 1148.23 -2.01223 -0.481362 0
M  V30 12183 C 1148.65 -1.05039 -1.56883 0
M  V30 12184 O 1148.01 -0.0510751 -1.82429 0
M  V30 12185 C 1148.06 -3.45588 -1.06073 0
M  V30 12186 O 1147.78 -4.38097 -0.0166754 0
M  V30 12187 C 1149.28 -4.05527 -1.79061 0
M  V30 12188 H 1146.5 -0.659574 -0.1233 0
M  V30 12189 H 1149.04 -2.02689 0.271576 0
M  V30 12190 H 1147.2 -3.449 -1.76417 0
M  V30 12191 H 1147.61 -5.22615 -0.444276 0
M  V30 12192 H 1149.09 -5.08467 -2.1486 0
M  V30 12193 H 1149.56 -3.47554 -2.68519 0
M  V30 12194 H 1150.17 -4.09914 -1.13361 0
M  V30 12195 N 1148.48 0.103547 -1.57259 0
M  V30 12196 C 1149.9 0.457527 -1.52901 0
M  V30 12197 C 1150.1 1.80995 -0.8856 0
M  V30 12198 O 1149.16 2.48001 -0.474504 0
M  V30 12199 C 1150.47 0.427793 -2.97641 0
M  V30 12200 C 1152.02 0.51025 -3.08813 0
M  V30 12201 C 1152.49 0.51075 -4.55143 0
M  V30 12202 N 1153.98 0.571748 -4.59658 0
M  V30 12203 C 1154.72 0.593836 -5.70317 0
M  V30 12204 N 1154.21 0.572638 -6.90429 0
M  V30 12205 N 1156.01 0.638011 -5.58467 0
M  V30 12206 H 1148.16 -0.782408 -1.97464 0
M  V30 12207 H 1150.42 -0.290324 -0.90245 0
M  V30 12208 H 1150.13 -0.498608 -3.48148 0
M  V30 12209 H 1150 1.24991 -3.55889 0
M  V30 12210 H 1152.39 1.42707 -2.583 0
M  V30 12211 H 1152.47 -0.339846 -2.53532 0
M  V30 12212 H 1152.11 -0.40209 -5.06306 0
M  V30 12213 H 1152.04 1.37794 -5.08252 0
M  V30 12214 H 1154.53 0.593668 -3.73208 0
M  V30 12215 H 1154.85 0.592542 -7.70525 0
M  V30 12216 H 1153.19 0.539818 -6.929 0
M  V30 12217 H 1156.38 0.652042 -4.63536 0
M  V30 12218 H 1156.56 0.651756 -6.44714 0
M  V30 12219 N 1149.96 1.53094 0.37415 0
M  V30 12220 C 1151.21 1.68527 1.11548 0
M  V30 12221 C 1151.53 0.435253 1.9008 0
M  V30 12222 O 1150.8 -0.550594 1.88003 0
M  V30 12223 H 1149.38 0.621255 0.41479 0
M  V30 12224 H 1152.04 1.90258 0.422844 0
M  V30 12225 H 1151.14 2.54248 1.81009 0
M  V30 12226 N 1151.44 -0.633461 1.44309 0
M  V30 12227 C 1152.69 -1.39513 1.47187 0
M  V30 12228 C 1153.02 -1.93926 0.103186 0
M  V30 12229 O 1152.29 -1.73512 -0.878853 0
M  V30 12230 C 1152.58 -2.56213 2.53036 0
M  V30 12231 C 1152.43 -2.07164 3.99253 0
M  V30 12232 C 1153.75 -3.58403 2.55412 0
M  V30 12233 H 1150.87 -0.505936 0.535908 0
M  V30 12234 H 1153.51 -0.716445 1.75975 0
M  V30 12235 H 1151.66 -3.14111 2.28619 0
M  V30 12236 H 1153.33 -1.54115 4.34795 0
M  V30 12237 H 1151.57 -1.38367 4.11141 0
M  V30 12238 H 1152.25 -2.91172 4.6896 0
M  V30 12239 H 1154.72 -3.103 2.77224 0
M  V30 12240 H 1153.6 -4.37581 3.31382 0
M  V30 12241 H 1153.86 -4.12316 1.59523 0
M  V30 12242 N 1152.92 -1.31168 -0.873655 0
M  V30 12243 C 1154.33 -1.18584 -1.44203 0
M  V30 12244 C 1154.68 0.209114 -1.95082 0
M  V30 12245 O 1153.81 1.10662 -1.85965 0
M  V30 12246 C 1154.4 -2.14668 -2.62112 0
M  V30 12247 C 1152.96 -2.06029 -3.15006 0
M  V30 12248 C 1152.11 -2.04106 -1.87712 0
M  V30 12249 H 1155.06 -1.43273 -0.682536 0
M  V30 12250 H 1155.08 -1.73413 -3.38686 0
M  V30 12251 H 1154.59 -3.16186 -2.25051 0
M  V30 12252 H 1152.69 -1.07693 -3.56697 0
M  V30 12253 H 1152.8 -2.9496 -3.77539 0
M  V30 12254 H 1151.17 -1.49069 -2.0652 0
M  V30 12255 H 1151.95 -3.07373 -1.52894 0
M  V30 12256 N 1154.4 1.08748 -1.14068 0
M  V30 12257 C 1155.31 2.19123 -0.837998 0
M  V30 12258 C 1156.32 1.73065 0.180164 0
M  V30 12259 O 1157.5 2.01398 0.00952285 0
M  V30 12260 C 1154.56 3.45257 -0.316 0
M  V30 12261 C 1153.62 4.05959 -1.39628 0
M  V30 12262 C 1152.86 5.26072 -0.899095 0
M  V30 12263 O 1153.08 5.69804 0.260744 0
M  V30 12264 O 1152.01 5.7808 -1.67652 0
M  V30 12265 H 1155.84 2.4748 -1.76033 0
M  V30 12266 H 1153.43 1.17816 -0.918675 0
M  V30 12267 H 1155.31 4.21389 -0.0306425 0
M  V30 12268 H 1153.98 3.18486 0.578654 0
M  V30 12269 H 1152.89 3.31432 -1.73505 0
M  V30 12270 H 1154.22 4.36971 -2.26533 0
M  V30 12271 N 1155.87 0.935264 1.26849 0
M  V30 12272 C 1156.82 0.430895 2.28574 0
M  V30 12273 C 1157.82 -0.488739 1.62196 0
M  V30 12274 O 1159.02 -0.367605 1.76206 0
M  V30 12275 H 1155.4 0.120793 0.742235 0
M  V30 12276 H 1157.37 1.3015 2.68521 0
M  V30 12277 C 1156.12 -0.294053 3.46454 0
M  V30 12278 H 1155.44 0.404416 3.97749 0
M  V30 12279 H 1156.88 -0.611272 4.19571 0
M  V30 12280 C 1155.34 -1.50975 3.01178 0
M  V30 12281 O 1155.87 -2.60826 3.05504 0
M  V30 12282 N 1154.08 -1.36423 2.56587 0
M  V30 12283 H 1153.62 -0.470483 2.53267 0
M  V30 12284 H 1153.58 -2.17886 2.26656 0
M  V30 12285 N 1157.35 -1.41121 0.701616 0
M  V30 12286 C 1158.6 -2.0113 0.235147 0
M  V30 12287 C 1158.93 -1.55587 -1.16718 0
M  V30 12288 O 1158.18 -0.760615 -1.80314 0
M  V30 12289 C 1158.48 -3.5654 0.247781 0
M  V30 12290 C 1158.15 -4.21616 1.59846 0
M  V30 12291 C 1156.81 -4.39106 1.96822 0
M  V30 12292 C 1159.16 -4.58048 2.48679 0
M  V30 12293 C 1156.49 -4.90307 3.22205 0
M  V30 12294 C 1158.84 -5.10642 3.734 0
M  V30 12295 C 1157.51 -5.26343 4.10512 0
M  V30 12296 H 1156.78 -0.735987 0.0860462 0
M  V30 12297 H 1159.42 -1.68932 0.901898 0
M  V30 12298 H 1157.73 -3.88564 -0.502528 0
M  V30 12299 H 1159.42 -4.00787 -0.130766 0
M  V30 12300 H 1156.01 -4.08381 1.30088 0
M  V30 12301 H 1160.2 -4.44184 2.21391 0
M  V30 12302 H 1155.45 -5.00647 3.50945 0
M  V30 12303 H 1159.63 -5.37811 4.42416 0
M  V30 12304 H 1157.26 -5.65779 5.07738 0
M  V30 12305 N 1158.83 -0.446794 -1.51134 0
M  V30 12306 C 1159.78 0.374154 -2.29571 0
M  V30 12307 C 1160.77 1.01241 -1.35818 0
M  V30 12308 O 1161.98 0.946293 -1.53119 0
M  V30 12309 H 1158.35 0.13948 -0.738951 0
M  V30 12310 H 1160.32 -0.308117 -2.96805 0
M  V30 12311 C 1159.07 1.45754 -3.15675 0
M  V30 12312 H 1158.4 0.975787 -3.87709 0
M  V30 12313 H 1159.84 2.00502 -3.73597 0
M  V30 12314 C 1158.3 2.44606 -2.31667 0
M  V30 12315 O 1158.83 3.49352 -1.98284 0
M  V30 12316 N 1157.03 2.15725 -1.94708 0
M  V30 12317 H 1156.58 1.30572 -2.22056 0
M  V30 12318 H 1156.54 2.82103 -1.38798 0
M  V30 12319 N 1160.31 1.56586 -0.178487 0
M  V30 12320 C 1161.22 2.21903 0.761321 0
M  V30 12321 C 1162.23 1.21289 1.2476 0
M  V30 12322 O 1163.41 1.53974 1.29823 0
M  V30 12323 C 1160.48 2.85259 1.97048 0
M  V30 12324 C 1159.54 4.01095 1.53039 0
M  V30 12325 C 1158.77 4.61421 2.68191 0
M  V30 12326 O 1158.99 4.20644 3.85247 0
M  V30 12327 O 1157.93 5.51171 2.41855 0
M  V30 12328 H 1161.75 3.02788 0.235141 0
M  V30 12329 H 1159.34 1.49316 0.0500442 0
M  V30 12330 H 1161.22 3.25404 2.6775 0
M  V30 12331 H 1159.89 2.07366 2.48558 0
M  V30 12332 H 1158.8 3.65606 0.792661 0
M  V30 12333 H 1160.13 4.80603 1.06213 0
M  V30 12334 N 1161.79 -0.095206 1.57312 0
M  V30 12335 C 1162.75 -1.09974 2.01093 0
M  V30 12336 C 1163.75 -1.32954 0.904424 0
M  V30 12337 O 1164.94 -1.29069 1.16991 0
M  V30 12338 C 1162.07 -2.4489 2.37153 0
M  V30 12339 H 1163.26 -0.722906 2.91057 0
M  V30 12340 H 1160.82 -0.340249 1.52552 0
M  V30 12341 H 1161.55 -2.8745 1.50143 0
M  V30 12342 H 1161.34 -2.29559 3.17876 0
M  V30 12343 H 1162.83 -3.17141 2.71683 0
M  V30 12344 N 1163.26 -1.53291 -0.366026 0
M  V30 12345 C 1164.21 -1.79697 -1.44836 0
M  V30 12346 C 1165.18 -0.641321 -1.5322 0
M  V30 12347 O 1166.37 -0.883453 -1.69115 0
M  V30 12348 C 1163.51 -1.99223 -2.81788 0
M  V30 12349 C 1162.62 -3.26938 -2.82375 0
M  V30 12350 C 1161.75 -3.36654 -4.10898 0
M  V30 12351 C 1160.79 -4.58404 -4.05626 0
M  V30 12352 N 1159.93 -4.65275 -5.25798 0
M  V30 12353 H 1164.77 -2.72053 -1.21619 0
M  V30 12354 H 1162.31 -1.34768 -0.589577 0
M  V30 12355 H 1164.27 -2.0853 -3.61346 0
M  V30 12356 H 1162.9 -1.10204 -3.03406 0
M  V30 12357 H 1161.95 -3.26587 -1.95052 0
M  V30 12358 H 1163.26 -4.16573 -2.74351 0
M  V30 12359 H 1162.41 -3.4527 -4.98872 0
M  V30 12360 H 1161.15 -2.45035 -4.21674 0
M  V30 12361 H 1160.16 -4.49888 -3.16039 0
M  V30 12362 H 1161.38 -5.51364 -3.96453 0
M  V30 12363 H 1159.33 -3.76557 -5.3716 0
M  V30 12364 H 1159.25 -5.48814 -5.19942 0
M  V30 12365 H 1160.51 -4.78175 -6.15605 0
M  V30 12366 N 1164.74 0.6258 -1.44643 0
M  V30 12367 C 1166.15 1.20751 -1.42394 0
M  V30 12368 C 1166.5 1.95685 -0.142047 0
M  V30 12369 O 1165.63 2.02715 0.757332 0
M  V30 12370 C 1166.22 2.1964 -2.57961 0
M  V30 12371 C 1164.78 2.73227 -2.5889 0
M  V30 12372 C 1163.93 1.48315 -2.34303 0
M  V30 12373 H 1166.88 0.416162 -1.53146 0
M  V30 12374 H 1166.9 3.02342 -2.31019 0
M  V30 12375 H 1166.41 1.65073 -3.51244 0
M  V30 12376 H 1164.52 3.31782 -1.69563 0
M  V30 12377 H 1164.63 3.18902 -3.57545 0
M  V30 12378 H 1162.99 1.76634 -1.83501 0
M  V30 12379 H 1163.78 0.956427 -3.29708 0
M  V30 12380 N 1166.22 1.31629 0.866686 0
M  V30 12381 C 1167.47 1.20861 1.61479 0
M  V30 12382 C 1167.78 -0.231208 1.94229 0
M  V30 12383 O 1168.99 -0.460618 2.67564 0
M  V30 12384 C 1167.44 2.11602 2.91123 0
M  V30 12385 C 1167.05 3.60598 2.65844 0
M  V30 12386 C 1168.8 2.09642 3.69121 0
M  V30 12387 C 1166.7 4.43337 3.91415 0
M  V30 12388 H 1165.63 0.448783 0.605896 0
M  V30 12389 H 1168.28 1.56507 0.958001 0
M  V30 12390 H 1166.67 1.68858 3.58194 0
M  V30 12391 H 1167.84 4.11609 2.07159 0
M  V30 12392 H 1166.16 3.64568 2.01194 0
M  V30 12393 H 1168.75 2.68701 4.62281 0
M  V30 12394 H 1169.1 1.08438 4.01929 0
M  V30 12395 H 1169.63 2.50603 3.08938 0
M  V30 12396 H 1166.37 5.45309 3.63756 0
M  V30 12397 H 1165.89 3.97083 4.49539 0
M  V30 12398 H 1167.57 4.5572 4.5927 0
M  V30 12399 N 1167.7 -1.08142 1.14644 0
M  V30 12400 C 1168.95 -1.80225 0.914517 0
M  V30 12401 C 1169.27 -1.86778 -0.560269 0
M  V30 12402 O 1168.54 -1.36284 -1.40724 0
M  V30 12403 H 1167.12 -0.667492 0.335356 0
M  V30 12404 H 1169.78 -1.30729 1.44554 0
M  V30 12405 H 1168.88 -2.82958 1.31685 0
M  V30 12406 N 1169.18 -0.941978 -1.26351 0
M  V30 12407 C 1170.42 -0.589971 -1.93715 0
M  V30 12408 C 1170.75 0.871085 -1.73903 0
M  V30 12409 O 1170.01 1.63864 -1.06991 0
M  V30 12410 C 1170.31 -0.879481 -3.4641 0
M  V30 12411 C 1169.97 -2.32454 -3.86362 0
M  V30 12412 C 1168.63 -2.71957 -3.9698 0
M  V30 12413 C 1170.99 -3.2636 -4.06373 0
M  V30 12414 C 1168.31 -4.04459 -4.25006 0
M  V30 12415 C 1170.67 -4.58459 -4.35887 0
M  V30 12416 C 1169.33 -4.97775 -4.4472 0
M  V30 12417 H 1168.6 -0.215886 -0.708854 0
M  V30 12418 H 1171.25 -1.18863 -1.50146 0
M  V30 12419 H 1169.55 -0.198289 -3.91298 0
M  V30 12420 H 1171.25 -0.585887 -3.96697 0
M  V30 12421 H 1167.84 -2.00814 -3.78645 0
M  V30 12422 H 1172.02 -2.97037 -3.97596 0
M  V30 12423 H 1167.28 -4.34582 -4.30057 0
M  V30 12424 H 1171.45 -5.31213 -4.50317 0
M  V30 12425 H 1169.08 -6.00475 -4.66191 0
M  V30 12426 N 1170.66 1.40747 -0.709091 0
M  V30 12427 C 1171.88 2.05319 -0.255258 0
M  V30 12428 C 1172.3 1.53406 1.10054 0
M  V30 12429 O 1171.66 0.687905 1.69039 0
M  V30 12430 C 1171.71 3.60835 -0.219251 0
M  V30 12431 O 1171.43 4.1083 -1.52151 0
M  V30 12432 C 1172.93 4.42572 0.253927 0
M  V30 12433 H 1170.15 0.660904 -0.115959 0
M  V30 12434 H 1172.69 1.80274 -0.965474 0
M  V30 12435 H 1170.85 3.84872 0.441882 0
M  V30 12436 H 1171.26 5.04979 -1.41764 0
M  V30 12437 H 1172.74 5.51529 0.22798 0
M  V30 12438 H 1173.21 4.19673 1.29504 0
M  V30 12439 H 1173.82 4.23629 -0.376694 0
M  V30 12440 N 1172.13 0.454803 1.50895 0
M  V30 12441 C 1173.07 -0.393395 2.24784 0
M  V30 12442 C 1174.04 -1.01005 1.27424 0
M  V30 12443 O 1175.23 -1.04914 1.56605 0
M  V30 12444 C 1172.36 -1.54978 3.01164 0
M  V30 12445 C 1171.4 -1.0521 4.1332 0
M  V30 12446 S 1172.23 0.0200486 5.35496 0
M  V30 12447 C 1173.39 -1.14059 6.1542 0
M  V30 12448 H 1173.62 0.233864 2.96379 0
M  V30 12449 H 1171.16 0.239498 1.52531 0
M  V30 12450 H 1173.11 -2.21262 3.45765 0
M  V30 12451 H 1171.78 -2.1485 2.29125 0
M  V30 12452 H 1170.97 -1.91734 4.66105 0
M  V30 12453 H 1170.57 -0.467234 3.7107 0
M  V30 12454 H 1172.86 -2.05552 6.45565 0
M  V30 12455 H 1173.81 -0.652339 7.05089 0
M  V30 12456 H 1174.21 -1.38705 5.47194 0
M  V30 12457 N 1173.61 -1.56489 0.186789 0
M  V30 12458 C 1174.84 -2.01429 -0.459326 0
M  V30 12459 C 1175.25 -1.06611 -1.56303 0
M  V30 12460 O 1174.59 -0.0617053 -1.83596 0
M  V30 12461 C 1174.65 -3.42778 -1.08367 0
M  V30 12462 C 1174.32 -4.56843 -0.119719 0
M  V30 12463 C 1175.32 -5.15594 0.667782 0
M  V30 12464 C 1173 -5.02299 -0.0110494 0
M  V30 12465 C 1174.99 -6.18242 1.551 0
M  V30 12466 C 1172.68 -6.04793 0.875738 0
M  V30 12467 C 1173.68 -6.62637 1.65534 0
M  V30 12468 O 1173.37 -7.63141 2.52728 0
M  V30 12469 H 1173.1 -0.665175 -0.120492 0
M  V30 12470 H 1175.65 -2.03338 0.290283 0
M  V30 12471 H 1173.88 -3.3783 -1.8817 0
M  V30 12472 H 1175.57 -3.71577 -1.63357 0
M  V30 12473 H 1176.34 -4.81348 0.594085 0
M  V30 12474 H 1172.22 -4.56977 -0.607667 0
M  V30 12475 H 1175.76 -6.63319 2.15995 0
M  V30 12476 H 1171.66 -6.38462 0.950581 0
M  V30 12477 H 1172.43 -7.80527 2.46415 0
M  V30 12478 N 1175.09 0.086862 -1.5736 0
M  V30 12479 C 1176.32 0.802167 -1.90717 0
M  V30 12480 C 1176.73 1.71875 -0.781304 0
M  V30 12481 O 1176.09 1.80831 0.246255 0
M  V30 12482 C 1176.14 1.60858 -3.23739 0
M  V30 12483 O 1175.86 0.728851 -4.31995 0
M  V30 12484 C 1177.36 2.42621 -3.71012 0
M  V30 12485 H 1174.58 0.228914 -0.630745 0
M  V30 12486 H 1177.13 0.061634 -2.04407 0
M  V30 12487 H 1175.28 2.30153 -3.11622 0
M  V30 12488 H 1175.7 1.2882 -5.08435 0
M  V30 12489 H 1177.17 2.94683 -4.66761 0
M  V30 12490 H 1177.65 3.21462 -2.99264 0
M  V30 12491 H 1178.25 1.78509 -3.86024 0
M  V30 12492 N 1176.57 1.53483 0.357892 0
M  V30 12493 C 1177.8 1.73956 1.12013 0
M  V30 12494 C 1178.21 0.472053 1.82803 0
M  V30 12495 O 1177.57 -0.555499 1.7384 0
M  V30 12496 C 1177.62 2.91015 2.14459 0
M  V30 12497 O 1177.34 4.12862 1.4655 0
M  V30 12498 C 1178.84 3.23423 3.0317 0
M  V30 12499 H 1176.06 0.58161 0.334621 0
M  V30 12500 H 1178.6 2.00256 0.414467 0
M  V30 12501 H 1176.76 2.67087 2.80612 0
M  V30 12502 H 1177.17 4.78468 2.14869 0
M  V30 12503 H 1178.65 4.08717 3.71018 0
M  V30 12504 H 1179.12 2.39114 3.68404 0
M  V30 12505 H 1179.73 3.49305 2.42624 0
M  V30 12506 N 1178.05 -0.61812 1.44973 0
M  V30 12507 C 1179.29 -1.38882 1.4997 0
M  V30 12508 C 1179.65 -1.91533 0.133841 0
M  V30 12509 O 1180.85 -2.68736 0.0585012 0
M  V30 12510 C 1179.12 -2.5136 2.54073 0
M  V30 12511 S 1180.68 -3.39324 2.78216 0
M  V30 12512 H 1177.5 -0.473631 0.530278 0
M  V30 12513 H 1180.1 -0.714299 1.81984 0
M  V30 12514 H 1178.8 -2.11012 3.51997 0
M  V30 12515 H 1178.34 -3.23625 2.23675 0
M  V30 12516 H 1180.35 -4.49198 2.10797 0
M  V30 12517 N 1179.52 -1.32087 -0.859693 0
M  V30 12518 C 1180.77 -1.21716 -1.60836 0
M  V30 12519 C 1181.09 0.220904 -1.94349 0
M  V30 12520 O 1182.29 0.446422 -2.67805 0
M  V30 12521 C 1180.75 -2.13143 -2.89997 0
M  V30 12522 C 1180.36 -3.62003 -2.63928 0
M  V30 12523 C 1182.1 -2.11596 -3.68004 0
M  V30 12524 C 1180.01 -4.45407 -3.89059 0
M  V30 12525 H 1178.94 -0.45199 -0.603507 0
M  V30 12526 H 1181.59 -1.57013 -0.949687 0
M  V30 12527 H 1179.97 -1.70755 -3.57294 0
M  V30 12528 H 1181.14 -4.12701 -2.04974 0
M  V30 12529 H 1179.46 -3.6563 -1.99258 0
M  V30 12530 H 1182.06 -2.71149 -4.6085 0
M  V30 12531 H 1182.4 -1.10568 -4.01348 0
M  V30 12532 H 1182.93 -2.52238 -3.07605 0
M  V30 12533 H 1179.67 -5.4723 -3.60859 0
M  V30 12534 H 1179.19 -3.99462 -4.47427 0
M  V30 12535 H 1180.87 -4.58149 -4.56846 0
M  V30 12536 N 1181 1.07532 -1.15215 0
M  V30 12537 C 1182.25 1.8036 -0.927263 0
M  V30 12538 C 1182.58 1.86414 0.544371 0
M  V30 12539 O 1181.86 1.34653 1.40353 0
M  V30 12540 C 1182.14 3.25512 -1.53992 0
M  V30 12541 C 1181.99 3.27614 -3.08203 0
M  V30 12542 C 1183.31 4.22731 -1.22418 0
M  V30 12543 H 1180.43 0.654775 -0.338289 0
M  V30 12544 H 1183.07 1.25842 -1.42351 0
M  V30 12545 H 1181.22 3.72068 -1.11791 0
M  V30 12546 H 1182.89 2.89315 -3.59297 0
M  V30 12547 H 1181.14 2.66627 -3.42188 0
M  V30 12548 H 1181.81 4.29956 -3.46182 0
M  V30 12549 H 1184.28 3.84557 -1.58919 0
M  V30 12550 H 1183.16 5.22589 -1.67906 0
M  V30 12551 H 1183.42 4.41875 -0.14091 0
M  V30 12552 N 1182.48 0.948665 1.2585 0
M  V30 12553 C 1183.73 0.610669 1.94016 0
M  V30 12554 C 1184.08 -0.842181 1.72989 0
M  V30 12555 O 1183.37 -1.59556 1.06078 0
M  V30 12556 C 1183.57 0.89784 3.45939 0
M  V30 12557 C 1183.4 2.37705 3.81741 0
M  V30 12558 C 1182.17 3.03355 4.04109 0
M  V30 12559 C 1184.37 3.35602 3.89712 0
M  V30 12560 N 1182.35 4.41211 4.26856 0
M  V30 12561 C 1183.72 4.58743 4.17079 0
M  V30 12562 C 1185.77 3.30523 3.72369 0
M  V30 12563 C 1184.48 5.77436 4.28906 0
M  V30 12564 C 1186.5 4.48548 3.85433 0
M  V30 12565 C 1185.86 5.70474 4.13205 0
M  V30 12566 H 1181.96 0.273966 0.732439 0
M  V30 12567 H 1184.55 1.21961 1.51768 0
M  V30 12568 H 1182.72 0.317878 3.87097 0
M  V30 12569 H 1184.45 0.520353 4.01341 0
M  V30 12570 H 1181.21 2.53947 3.9976 0
M  V30 12571 H 1181.63 5.12589 4.42247 0
M  V30 12572 H 1186.27 2.3731 3.4992 0
M  V30 12573 H 1183.99 6.71095 4.50174 0
M  V30 12574 H 1187.58 4.46159 3.73408 0
M  V30 12575 H 1186.46 6.60277 4.23088 0
M  V30 12576 N 1183.96 -1.40369 0.716545 0
M  V30 12577 C 1184.89 -2.33365 0.0793533 0
M  V30 12578 C 1185.87 -1.52943 -0.744482 0
M  V30 12579 O 1187.05 -1.81406 -0.693212 0
M  V30 12580 C 1184.18 -3.36928 -0.842429 0
M  V30 12581 C 1183.14 -4.2782 -0.124142 0
M  V30 12582 C 1182.46 -5.21928 -1.1617 0
M  V30 12583 C 1183.76 -5.12199 1.02224 0
M  V30 12584 H 1185.46 -2.86899 0.856115 0
M  V30 12585 H 1183 -1.37946 0.413138 0
M  V30 12586 H 1184.96 -4.00925 -1.29759 0
M  V30 12587 H 1183.68 -2.81791 -1.6511 0
M  V30 12588 H 1182.34 -3.65277 0.311201 0
M  V30 12589 H 1181.99 -4.63096 -1.96345 0
M  V30 12590 H 1181.69 -5.83582 -0.685978 0
M  V30 12591 H 1183.21 -5.88802 -1.61694 0
M  V30 12592 H 1184.63 -5.69644 0.646399 0
M  V30 12593 H 1183.02 -5.82901 1.4264 0
M  V30 12594 H 1184.09 -4.4812 1.85246 0
M  V30 12595 N 1185.44 -0.462799 -1.50652 0
M  V30 12596 C 1186.4 0.324264 -2.26895 0
M  V30 12597 C 1187.4 0.927687 -1.31342 0
M  V30 12598 O 1188.59 0.798159 -1.54839 0
M  V30 12599 C 1185.72 1.46113 -3.08 0
M  V30 12600 H 1186.91 -0.344266 -2.97917 0
M  V30 12601 H 1184.47 -0.216631 -1.54791 0
M  V30 12602 H 1185.2 2.16496 -2.41454 0
M  V30 12603 H 1184.99 1.03433 -3.78212 0
M  V30 12604 H 1186.48 2.01655 -3.65684 0
M  V30 12605 N 1186.91 1.56388 -0.195085 0
M  V30 12606 C 1188.16 1.9758 0.443686 0
M  V30 12607 C 1188.49 1.08196 1.61629 0
M  V30 12608 O 1187.74 0.121061 1.95325 0
M  V30 12609 C 1188.04 3.44651 0.946051 0
M  V30 12610 C 1187.71 4.50758 -0.11318 0
M  V30 12611 C 1186.37 4.79499 -0.404229 0
M  V30 12612 C 1188.72 5.14534 -0.830899 0
M  V30 12613 C 1186.05 5.69307 -1.41797 0
M  V30 12614 C 1188.4 6.05438 -1.83379 0
M  V30 12615 C 1187.07 6.32535 -2.13204 0
M  V30 12616 H 1186.34 0.722995 0.162356 0
M  V30 12617 H 1188.98 1.8926 -0.292049 0
M  V30 12618 H 1187.29 3.50042 1.76006 0
M  V30 12619 H 1188.99 3.73878 1.44969 0
M  V30 12620 H 1185.58 4.28421 0.123833 0
M  V30 12621 H 1189.76 4.92421 -0.61927 0
M  V30 12622 H 1185.02 5.88575 -1.65496 0
M  V30 12623 H 1189.19 6.53915 -2.39516 0
M  V30 12624 H 1186.82 7.01924 -2.91902 0
M  V30 12625 N 1188.39 -0.0785156 1.57404 0
M  V30 12626 C 1189.64 -0.777722 1.86103 0
M  V30 12627 C 1189.95 -1.79079 0.786771 0
M  V30 12628 O 1191.16 -2.53908 0.961393 0
M  V30 12629 C 1189.62 -1.43407 3.30095 0
M  V30 12630 C 1189.22 -0.459912 4.45633 0
M  V30 12631 C 1190.97 -2.11603 3.68 0
M  V30 12632 C 1188.88 -1.12179 5.80663 0
M  V30 12633 H 1187.81 -0.294205 0.694233 0
M  V30 12634 H 1190.46 -0.0309003 1.83474 0
M  V30 12635 H 1188.84 -2.22892 3.27315 0
M  V30 12636 H 1190.01 0.304642 4.59792 0
M  V30 12637 H 1188.33 0.117242 4.16235 0
M  V30 12638 H 1190.92 -2.61887 4.66175 0
M  V30 12639 H 1191.27 -2.91244 2.9746 0
M  V30 12640 H 1191.8 -1.38958 3.72741 0
M  V30 12641 H 1188.54 -0.365842 6.54478 0
M  V30 12642 H 1188.06 -1.85737 5.70317 0
M  V30 12643 H 1189.74 -1.64355 6.25777 0
M  V30 12644 N 1189.87 -1.5367 -0.349747 0
M  V30 12645 C 1191.28 -1.62135 -0.925704 0
M  V30 12646 C 1191.63 -0.498725 -1.89756 0
M  V30 12647 O 1190.76 0.372481 -2.1317 0
M  V30 12648 C 1191.35 -2.93885 -1.68573 0
M  V30 12649 C 1189.91 -3.04632 -2.2108 0
M  V30 12650 C 1189.06 -2.57541 -1.02801 0
M  V30 12651 H 1192.01 -1.58182 -0.128065 0
M  V30 12652 H 1192.03 -2.82577 -2.54815 0
M  V30 12653 H 1191.54 -3.75571 -0.978153 0
M  V30 12654 H 1189.64 -2.27567 -2.95032 0
M  V30 12655 H 1189.76 -4.09993 -2.47876 0
M  V30 12656 H 1188.12 -2.12798 -1.39962 0
M  V30 12657 H 1188.9 -3.4166 -0.335157 0
M  V30 12658 N 1191.35 0.610423 -1.45298 0
M  V30 12659 C 1192.6 1.36558 -1.48441 0
M  V30 12660 C 1192.91 1.95173 -0.129137 0
M  V30 12661 O 1194.12 2.71473 -0.0381956 0
M  V30 12662 C 1192.57 2.47349 -2.61431 0
M  V30 12663 C 1192.18 1.95158 -4.03258 0
M  V30 12664 C 1193.92 3.24383 -2.73817 0
M  V30 12665 C 1191.83 3.03414 -5.07635 0
M  V30 12666 H 1190.76 0.513253 -0.552347 0
M  V30 12667 H 1193.41 0.654535 -1.7143 0
M  V30 12668 H 1191.79 3.21125 -2.31721 0
M  V30 12669 H 1192.97 1.2811 -4.42634 0
M  V30 12670 H 1191.28 1.30878 -3.95297 0
M  V30 12671 H 1193.88 4.05123 -3.48969 0
M  V30 12672 H 1194.22 3.75205 -1.80352 0
M  V30 12673 H 1194.76 2.57705 -3.03039 0
M  V30 12674 H 1191.5 2.57512 -6.028 0
M  V30 12675 H 1191.02 3.69039 -4.72833 0
M  V30 12676 H 1192.69 3.67844 -5.32259 0
M  V30 12677 N 1192.83 1.32541 0.852676 0
M  V30 12678 C 1194.07 1.23214 1.607 0
M  V30 12679 C 1194.4 -0.205542 1.93411 0
M  V30 12680 O 1193.66 -1.15907 1.57683 0
M  V30 12681 C 1193.96 2.039 2.9353 0
M  V30 12682 C 1193.62 3.53237 2.8024 0
M  V30 12683 C 1192.28 3.93953 2.76323 0
M  V30 12684 C 1194.64 4.48194 2.6603 0
M  V30 12685 C 1191.96 5.27865 2.56077 0
M  V30 12686 C 1194.32 5.82251 2.47319 0
M  V30 12687 C 1192.98 6.22166 2.41796 0
M  V30 12688 H 1192.25 0.450873 0.588043 0
M  V30 12689 H 1194.9 1.63988 0.988954 0
M  V30 12690 H 1193.2 1.55861 3.59464 0
M  V30 12691 H 1194.9 1.94051 3.50921 0
M  V30 12692 H 1191.49 3.209 2.84114 0
M  V30 12693 H 1195.67 4.17656 2.681 0
M  V30 12694 H 1190.93 5.57845 2.50237 0
M  V30 12695 H 1195.1 6.55442 2.35305 0
M  V30 12696 H 1192.73 7.2587 2.25868 0
M  V30 12697 N 1194.3 -1.0692 1.15784 0
M  V30 12698 C 1195.55 -1.796 0.935429 0
M  V30 12699 C 1195.88 -1.86935 -0.537173 0
M  V30 12700 O 1195.13 -1.35244 -1.41448 0
M  V30 12701 C 1195.43 -3.24389 1.50022 0
M  V30 12702 C 1195.1 -3.37145 2.99406 0
M  V30 12703 C 1193.76 -3.40334 3.40186 0
M  V30 12704 C 1196.11 -3.39584 3.95389 0
M  V30 12705 C 1193.44 -3.43569 4.75581 0
M  V30 12706 C 1195.79 -3.44356 5.30661 0
M  V30 12707 C 1194.46 -3.45824 5.70931 0
M  V30 12708 H 1193.73 -0.657201 0.342298 0
M  V30 12709 H 1196.37 -1.25784 1.44397 0
M  V30 12710 H 1194.68 -3.81015 0.91297 0
M  V30 12711 H 1196.38 -3.79209 1.30389 0
M  V30 12712 H 1192.97 -3.35365 2.66887 0
M  V30 12713 H 1197.15 -3.36337 3.64954 0
M  V30 12714 H 1192.41 -3.43006 5.06119 0
M  V30 12715 H 1196.58 -3.4519 6.04828 0
M  V30 12716 H 1194.21 -3.48084 6.75826 0
M  V30 12717 N 1195.78 -0.955326 -1.25345 0
M  V30 12718 C 1197.03 -0.609278 -1.92697 0
M  V30 12719 C 1197.35 0.856535 -1.75181 0
M  V30 12720 O 1196.62 1.61013 -1.11587 0
M  V30 12721 H 1195.2 -0.22235 -0.713141 0
M  V30 12722 H 1197.86 -1.21372 -1.52496 0
M  V30 12723 H 1196.96 -0.839198 -3.00606 0
M  V30 12724 N 1197.26 1.39987 -0.723979 0
M  V30 12725 C 1198.49 2.05037 -0.27702 0
M  V30 12726 C 1198.9 1.54565 1.08421 0
M  V30 12727 O 1198.26 0.705795 1.683 0
M  V30 12728 C 1198.31 3.60582 -0.25751 0
M  V30 12729 O 1198.03 4.09194 -1.565 0
M  V30 12730 C 1199.53 4.42817 0.206972 0
M  V30 12731 H 1196.75 0.659637 -0.122963 0
M  V30 12732 H 1199.3 1.7924 -0.98454 0
M  V30 12733 H 1197.45 3.85319 0.401037 0
M  V30 12734 H 1197.87 5.03447 -1.47112 0
M  V30 12735 H 1199.34 5.5174 0.16947 0
M  V30 12736 H 1199.82 4.21023 1.25045 0
M  V30 12737 H 1200.42 4.23205 -0.421604 0
M  V30 12738 N 1198.74 0.470782 1.50404 0
M  V30 12739 C 1199.7 -0.312227 2.27063 0
M  V30 12740 C 1200.7 -0.920709 1.31832 0
M  V30 12741 O 1201.89 -0.789937 1.5526 0
M  V30 12742 C 1199.02 -1.44477 3.0877 0
M  V30 12743 H 1200.22 0.36006 2.97731 0
M  V30 12744 H 1197.77 0.224837 1.54674 0
M  V30 12745 H 1198.51 -2.15212 2.42599 0
M  V30 12746 H 1198.29 -1.01426 3.78755 0
M  V30 12747 H 1199.78 -1.99713 3.66749 0
M  V30 12748 N 1200.22 -1.56282 0.203376 0
M  V30 12749 C 1201.15 -2.16714 -0.74616 0
M  V30 12750 C 1202.16 -1.13121 -1.17079 0
M  V30 12751 O 1203.35 -1.40179 -1.10509 0
M  V30 12752 C 1200.45 -2.72115 -2.02007 0
M  V30 12753 C 1199.62 -4.00695 -1.75391 0
M  V30 12754 C 1198.68 -4.40839 -2.8731 0
M  V30 12755 O 1197.71 -5.081 -2.56561 0
M  V30 12756 N 1198.91 -4.05024 -4.15856 0
M  V30 12757 H 1201.68 -2.98821 -0.229326 0
M  V30 12758 H 1199.24 -1.61885 0.0217049 0
M  V30 12759 H 1201.23 -2.95951 -2.76035 0
M  V30 12760 H 1199.8 -1.94415 -2.44789 0
M  V30 12761 H 1199.02 -3.84905 -0.851 0
M  V30 12762 H 1200.31 -4.8461 -1.55017 0
M  V30 12763 H 1199.71 -3.50938 -4.43688 0
M  V30 12764 H 1198.26 -4.33792 -4.86485 0
M  V30 12765 N 1201.7 0.070167 -1.57444 0
M  V30 12766 C 1202.92 0.785703 -1.91941 0
M  V30 12767 C 1203.35 1.70243 -0.799932 0
M  V30 12768 O 1202.7 1.79608 0.247139 0
M  V30 12769 C 1202.75 1.55398 -3.25398 0
M  V30 12770 O 1201.86 2.66475 -3.14746 0
M  V30 12771 H 1201.2 0.214245 -0.628486 0
M  V30 12772 H 1203.73 0.0379243 -2.04565 0
M  V30 12773 H 1203.74 1.93287 -3.5931 0
M  V30 12774 H 1202.41 0.881366 -4.06454 0
M  V30 12775 H 1200.99 2.3143 -2.92394 0
M  V30 12776 N 1203.17 1.53854 0.341593 0
M  V30 12777 C 1204.14 1.8128 1.40251 0
M  V30 12778 C 1205.14 0.683915 1.45531 0
M  V30 12779 O 1206.33 0.952202 1.45872 0
M  V30 12780 C 1203.46 1.95658 2.79161 0
M  V30 12781 H 1204.65 2.76053 1.17195 0
M  V30 12782 H 1202.2 1.45296 0.57609 0
M  V30 12783 H 1202.94 1.03034 3.07497 0
M  V30 12784 H 1202.72 2.77788 2.76724 0
M  V30 12785 H 1204.21 2.18387 3.55945 0
M  V30 12786 N 1204.65 -0.602709 1.4562 0
M  V30 12787 C 1205.56 -1.74132 1.5721 0
M  V30 12788 C 1206.58 -1.67909 0.456347 0
M  V30 12789 O 1207.75 -1.88178 0.717714 0
M  V30 12790 C 1204.82 -3.10604 1.54032 0
M  V30 12791 C 1203.88 -3.28244 2.76685 0
M  V30 12792 C 1203.11 -4.58205 2.73649 0
M  V30 12793 O 1203.34 -5.40836 1.81254 0
M  V30 12794 O 1202.27 -4.78663 3.64919 0
M  V30 12795 H 1206.1 -1.67304 2.53462 0
M  V30 12796 H 1203.68 -0.767381 1.28186 0
M  V30 12797 H 1205.56 -3.91904 1.54885 0
M  V30 12798 H 1204.24 -3.17913 0.60934 0
M  V30 12799 H 1203.14 -2.46514 2.81393 0
M  V30 12800 H 1204.48 -3.25814 3.68925 0
M  V30 12801 N 1206.13 -1.32992 -0.845635 0
M  V30 12802 C 1207.08 -1.22682 -1.95494 0
M  V30 12803 C 1208.05 -0.106942 -1.65755 0
M  V30 12804 O 1209.23 -0.28405 -1.88674 0
M  V30 12805 C 1206.37 -0.965068 -3.31331 0
M  V30 12806 C 1205.48 -2.17058 -3.7351 0
M  V30 12807 C 1204.62 -1.84355 -4.98183 0
M  V30 12808 C 1203.66 -3.01176 -5.32878 0
M  V30 12809 N 1202.8 -2.68506 -6.48729 0
M  V30 12810 H 1207.64 -2.17562 -2.03644 0
M  V30 12811 H 1205.17 -1.08194 -0.996613 0
M  V30 12812 H 1207.13 -0.793771 -4.09579 0
M  V30 12813 H 1205.76 -0.0530285 -3.22756 0
M  V30 12814 H 1204.81 -2.45185 -2.90841 0
M  V30 12815 H 1206.12 -3.04413 -3.95138 0
M  V30 12816 H 1205.28 -1.6383 -5.84162 0
M  V30 12817 H 1204.02 -0.942264 -4.78511 0
M  V30 12818 H 1203.02 -3.22323 -4.45408 0
M  V30 12819 H 1204.25 -3.9205 -5.54503 0
M  V30 12820 H 1202.19 -1.80929 -6.30556 0
M  V30 12821 H 1202.11 -3.49392 -6.70419 0
M  V30 12822 H 1203.38 -2.51432 -7.37836 0
M  V30 12823 N 1207.61 1.06304 -1.1635 0
M  V30 12824 C 1208.54 2.15745 -0.893103 0
M  V30 12825 C 1209.52 1.69341 0.160531 0
M  V30 12826 O 1210.7 1.94196 0.0126526 0
M  V30 12827 C 1207.83 3.45066 -0.393287 0
M  V30 12828 C 1206.79 4.04978 -1.38482 0
M  V30 12829 C 1206.11 5.29507 -0.743409 0
M  V30 12830 C 1207.41 4.4377 -2.75438 0
M  V30 12831 H 1209.11 2.38622 -1.80831 0
M  V30 12832 H 1206.65 1.14681 -0.870878 0
M  V30 12833 H 1208.61 4.20964 -0.191607 0
M  V30 12834 H 1207.33 3.21808 0.557426 0
M  V30 12835 H 1205.99 3.31136 -1.57304 0
M  V30 12836 H 1205.64 5.02545 0.213787 0
M  V30 12837 H 1205.34 5.7055 -1.40521 0
M  V30 12838 H 1206.86 6.08102 -0.551746 0
M  V30 12839 H 1208.28 5.1075 -2.60398 0
M  V30 12840 H 1206.67 4.95797 -3.38091 0
M  V30 12841 H 1207.74 3.54636 -3.30699 0
M  V30 12842 N 1209.09 0.96196 1.24836 0
M  V30 12843 C 1210.32 0.637214 1.96528 0
M  V30 12844 C 1210.72 -0.79638 1.71623 0
M  V30 12845 O 1210.07 -1.54524 0.993372 0
M  V30 12846 C 1210.13 0.824972 3.49906 0
M  V30 12847 C 1209.79 2.23711 3.985 0
M  V30 12848 C 1210.79 3.21439 4.08623 0
M  V30 12849 C 1208.47 2.56327 4.31974 0
M  V30 12850 C 1210.47 4.49872 4.51546 0
M  V30 12851 C 1208.16 3.84987 4.74582 0
M  V30 12852 C 1209.15 4.81572 4.84332 0
M  V30 12853 O 1208.84 6.07938 5.25991 0
M  V30 12854 H 1208.57 0.237214 0.633013 0
M  V30 12855 H 1211.13 1.29081 1.59773 0
M  V30 12856 H 1209.36 0.114219 3.86531 0
M  V30 12857 H 1211.05 0.500179 4.02806 0
M  V30 12858 H 1211.81 2.97569 3.82985 0
M  V30 12859 H 1207.69 1.81872 4.23608 0
M  V30 12860 H 1211.24 5.25261 4.59071 0
M  V30 12861 H 1207.13 4.08661 4.99666 0
M  V30 12862 H 1207.9 6.11421 5.44157 0
M  V30 12863 N 1210.56 -1.39601 0.731392 0
M  V30 12864 C 1211.81 -1.99821 0.274661 0
M  V30 12865 C 1212.13 -1.58693 -1.1435 0
M  V30 12866 O 1213.33 -2.11724 -1.69957 0
M  V30 12867 C 1211.79 -3.57199 0.440124 0
M  V30 12868 C 1211.4 -4.07292 1.86594 0
M  V30 12869 C 1213.14 -4.24476 0.0449851 0
M  V30 12870 C 1211.05 -5.57229 1.98115 0
M  V30 12871 H 1209.98 -0.747481 0.0989383 0
M  V30 12872 H 1212.63 -1.59645 0.904755 0
M  V30 12873 H 1211.01 -3.95153 -0.25881 0
M  V30 12874 H 1212.18 -3.80679 2.59654 0
M  V30 12875 H 1210.5 -3.52665 2.21397 0
M  V30 12876 H 1213.1 -5.34587 0.110126 0
M  V30 12877 H 1213.44 -4.04129 -0.999269 0
M  V30 12878 H 1213.97 -3.91683 0.694942 0
M  V30 12879 H 1210.71 -5.82452 3.00716 0
M  V30 12880 H 1210.23 -5.85656 1.29487 0
M  V30 12881 H 1211.91 -6.22584 1.76063 0
M  V30 12882 N 1212.04 -0.478751 -1.50152 0
M  V30 12883 C 1212.97 0.347829 -2.26545 0
M  V30 12884 C 1213.99 0.950354 -1.32182 0
M  V30 12885 O 1215.18 0.837462 -1.57635 0
M  V30 12886 C 1212.28 1.50255 -3.0377 0
M  V30 12887 C 1211.45 1.01142 -4.25546 0
M  V30 12888 C 1210.51 2.0411 -4.85 0
M  V30 12889 O 1209.53 1.61862 -5.45701 0
M  V30 12890 N 1210.74 3.36982 -4.72677 0
M  V30 12891 H 1213.5 -0.307113 -2.98122 0
M  V30 12892 H 1211.06 -0.309981 -1.58905 0
M  V30 12893 H 1213.05 2.18848 -3.40423 0
M  V30 12894 H 1211.62 2.06205 -2.34943 0
M  V30 12895 H 1210.84 0.151124 -3.9391 0
M  V30 12896 H 1212.13 0.661326 -5.04484 0
M  V30 12897 H 1211.53 3.74011 -4.2442 0
M  V30 12898 H 1210.09 4.0135 -5.13577 0
M  V30 12899 N 1213.52 1.56172 -0.211661 0
M  V30 12900 C 1214.75 2.02428 0.427843 0
M  V30 12901 C 1215.16 1.09162 1.54043 0
M  V30 12902 O 1214.52 0.0994249 1.82229 0
M  V30 12903 C 1214.57 3.48279 0.968728 0
M  V30 12904 O 1214.29 4.37987 -0.0994841 0
M  V30 12905 C 1215.79 4.10132 1.68246 0
M  V30 12906 H 1213.01 0.662611 0.10577 0
M  V30 12907 H 1215.56 2.01897 -0.32522 0
M  V30 12908 H 1213.71 3.49456 1.6721 0
M  V30 12909 H 1214.13 5.23609 0.305558 0
M  V30 12910 H 1215.6 5.13985 2.01304 0
M  V30 12911 H 1216.08 3.54552 2.5921 0
M  V30 12912 H 1216.68 4.12775 1.02453 0
M  V30 12913 N 1215 -0.0618163 1.57479 0
M  V30 12914 C 1216.23 -0.771724 1.91969 0
M  V30 12915 C 1216.64 -1.7061 0.808549 0
M  V30 12916 O 1216 -1.812 -0.217455 0
M  V30 12917 C 1216.05 -1.55687 3.26257 0
M  V30 12918 O 1215.77 -0.660032 4.331 0
M  V30 12919 C 1217.27 -2.36688 3.74825 0
M  V30 12920 H 1214.49 -0.21885 0.634307 0
M  V30 12921 H 1217.04 -0.0291068 2.04479 0
M  V30 12922 H 1215.19 -2.25167 3.15244 0
M  V30 12923 H 1215.6 -1.20715 5.1042 0
M  V30 12924 H 1217.08 -2.8722 4.7139 0
M  V30 12925 H 1217.56 -3.1666 3.0434 0
M  V30 12926 H 1218.16 -1.72346 3.88815 0
M  V30 12927 N 1216.48 -1.54033 -0.333429 0
M  V30 12928 C 1217.7 -1.75716 -1.09232 0
M  V30 12929 C 1218.12 -0.501076 -1.82029 0
M  V30 12930 O 1217.48 0.527772 -1.74702 0
M  V30 12931 C 1217.53 -2.9439 -2.09802 0
M  V30 12932 O 1217.25 -4.15141 -1.39963 0
M  V30 12933 C 1218.75 -3.28206 -2.97987 0
M  V30 12934 H 1215.97 -0.586859 -0.325326 0
M  V30 12935 H 1218.51 -2.0089 -0.382555 0
M  V30 12936 H 1216.67 -2.71518 -2.76327 0
M  V30 12937 H 1217.08 -4.81826 -2.0723 0
M  V30 12938 H 1218.56 -4.14568 -3.64469 0
M  V30 12939 H 1219.03 -2.44944 -3.64553 0
M  V30 12940 H 1219.64 -3.5312 -2.37036 0
M  V30 12941 N 1217.95 0.594978 -1.45938 0
M  V30 12942 C 1218.88 1.71536 -1.58422 0
M  V30 12943 C 1219.87 1.64441 -0.435116 0
M  V30 12944 O 1221.05 1.82647 -0.659839 0
M  V30 12945 C 1218.18 3.10163 -1.56257 0
M  V30 12946 C 1217.13 3.3208 -2.70013 0
M  V30 12947 C 1216.46 4.71108 -2.52905 0
M  V30 12948 C 1217.76 3.21105 -4.11933 0
M  V30 12949 H 1219.45 1.61344 -2.52207 0
M  V30 12950 H 1217 0.774791 -1.2138 0
M  V30 12951 H 1218.95 3.88352 -1.63587 0
M  V30 12952 H 1217.68 3.21225 -0.590093 0
M  V30 12953 H 1216.34 2.56286 -2.62132 0
M  V30 12954 H 1215.98 4.7892 -1.53768 0
M  V30 12955 H 1215.68 4.86727 -3.29197 0
M  V30 12956 H 1217.21 5.51482 -2.62107 0
M  V30 12957 H 1218.62 3.89153 -4.2099 0
M  V30 12958 H 1217.02 3.4825 -4.88715 0
M  V30 12959 H 1218.09 2.18359 -4.32952 0
M  V30 12960 N 1219.43 1.33438 0.838571 0
M  V30 12961 C 1220.66 1.27951 1.62592 0
M  V30 12962 C 1221.08 -0.149502 1.88207 0
M  V30 12963 O 1220.43 -1.09174 1.46244 0
M  V30 12964 C 1220.48 2.0523 2.97595 0
M  V30 12965 O 1220.2 3.42557 2.73105 0
M  V30 12966 C 1221.71 2.06957 3.92025 0
M  V30 12967 H 1218.93 0.440796 0.505905 0
M  V30 12968 H 1221.47 1.75814 1.0445 0
M  V30 12969 H 1219.62 1.61049 3.52338 0
M  V30 12970 H 1220.04 3.82314 3.59076 0
M  V30 12971 H 1221.51 2.65481 4.83967 0
M  V30 12972 H 1221.99 1.0599 4.26219 0
M  V30 12973 H 1222.6 2.51158 3.4322 0
M  V30 12974 N 1220.91 -1.05686 1.16912 0
M  V30 12975 C 1222.16 -1.77987 0.948875 0
M  V30 12976 C 1222.47 -1.8845 -0.524011 0
M  V30 12977 O 1223.68 -2.57442 -0.862322 0
M  V30 12978 C 1222.13 -3.19927 1.64848 0
M  V30 12979 C 1221.74 -3.1761 3.15956 0
M  V30 12980 C 1223.49 -3.96719 1.51044 0
M  V30 12981 C 1221.39 -4.54307 3.78628 0
M  V30 12982 H 1220.32 -0.667119 0.35138 0
M  V30 12983 H 1222.97 -1.18496 1.40111 0
M  V30 12984 H 1221.36 -3.79714 1.12397 0
M  V30 12985 H 1222.53 -2.67369 3.75301 0
M  V30 12986 H 1220.85 -2.54317 3.29715 0
M  V30 12987 H 1223.44 -4.97779 1.95243 0
M  V30 12988 H 1223.79 -4.13748 0.460268 0
M  V30 12989 H 1224.32 -3.43468 2.00685 0
M  V30 12990 H 1221.06 -4.42484 4.8362 0
M  V30 12991 H 1220.58 -5.04717 3.24069 0
M  V30 12992 H 1222.26 -5.23255 3.80543 0
M  V30 12993 N 1222.39 -0.968567 -1.24324 0
M  V30 12994 C 1223.61 -0.648166 -1.97012 0
M  V30 12995 C 1224.04 0.775842 -1.71354 0
M  V30 12996 O 1223.4 1.52672 -0.977804 0
M  V30 12997 C 1223.44 -0.929974 -3.48402 0
M  V30 12998 O 1222.55 -0.015854 -4.12397 0
M  V30 12999 H 1221.89 -0.244961 -0.617163 0
M  V30 13000 H 1224.42 -1.29895 -1.58077 0
M  V30 13001 H 1224.43 -0.861863 -3.98793 0
M  V30 13002 H 1223.1 -1.96776 -3.66404 0
M  V30 13003 H 1221.68 -0.137361 -3.72647 0
M  V30 13004 N 1223.87 1.39211 -0.738786 0
M  V30 13005 C 1224.8 2.28145 -0.0499733 0
M  V30 13006 C 1225.78 1.44592 0.743776 0
M  V30 13007 O 1226.96 1.73978 0.725536 0
M  V30 13008 C 1224.09 3.255 0.93634 0
M  V30 13009 C 1223.13 4.25876 0.230621 0
M  V30 13010 S 1223.97 5.24942 -1.0581 0
M  V30 13011 C 1225.12 6.25856 -0.0744844 0
M  V30 13012 H 1225.36 2.86218 -0.804163 0
M  V30 13013 H 1222.89 1.44991 -0.53074 0
M  V30 13014 H 1224.85 3.82109 1.50011 0
M  V30 13015 H 1223.51 2.66439 1.66339 0
M  V30 13016 H 1222.7 4.94438 0.977075 0
M  V30 13017 H 1222.3 3.73087 -0.261216 0
M  V30 13018 H 1224.6 6.73172 0.764616 0
M  V30 13019 H 1225.54 7.04354 -0.727354 0
M  V30 13020 H 1225.95 5.63704 0.299605 0
M  V30 13021 N 1225.34 0.486708 1.49896 0
M  V30 13022 C 1226.29 -0.313156 2.30482 0
M  V30 13023 C 1227.29 -0.976043 1.38455 0
M  V30 13024 O 1228.49 -0.905364 1.55574 0
M  V30 13025 H 1224.87 -0.119839 0.74239 0
M  V30 13026 H 1226.84 0.386701 2.95884 0
M  V30 13027 C 1225.59 -1.37334 3.19429 0
M  V30 13028 H 1224.91 -0.87265 3.9016 0
M  V30 13029 H 1226.35 -1.90526 3.78782 0
M  V30 13030 C 1224.81 -2.38378 2.38071 0
M  V30 13031 O 1225.34 -3.43972 2.07476 0
M  V30 13032 N 1223.55 -2.10486 2.00359 0
M  V30 13033 H 1223.09 -1.24638 2.2544 0
M  V30 13034 H 1223.05 -2.78324 1.46229 0
M  V30 13035 N 1226.82 -1.56058 0.219941 0
M  V30 13036 C 1227.75 -2.2321 -0.685547 0
M  V30 13037 C 1228.73 -1.20328 -1.20229 0
M  V30 13038 O 1229.92 -1.48909 -1.24659 0
M  V30 13039 C 1227.05 -2.91076 -1.89452 0
M  V30 13040 C 1226 -4.00415 -1.51169 0
M  V30 13041 C 1225.33 -4.55569 -2.79931 0
M  V30 13042 C 1226.63 -5.17549 -0.702896 0
M  V30 13043 H 1228.32 -2.99136 -0.125671 0
M  V30 13044 H 1225.87 -1.43879 -0.0590043 0
M  V30 13045 H 1227.82 -3.36744 -2.53341 0
M  V30 13046 H 1226.55 -2.12594 -2.47934 0
M  V30 13047 H 1225.21 -3.55475 -0.896275 0
M  V30 13048 H 1224.85 -3.73819 -3.36553 0
M  V30 13049 H 1224.55 -5.29361 -2.55049 0
M  V30 13050 H 1226.08 -5.03955 -3.44764 0
M  V30 13051 H 1227.49 -5.59608 -1.24544 0
M  V30 13052 H 1225.89 -5.97563 -0.551234 0
M  V30 13053 H 1226.96 -4.84027 0.29083 0
M  V30 13054 N 1228.3 0.053464 -1.57509 0
M  V30 13055 C 1229.53 0.765301 -1.92764 0
M  V30 13056 C 1229.95 1.69385 -0.817943 0
M  V30 13057 O 1229.31 1.7986 0.228075 0
M  V30 13058 C 1229.36 1.51938 -3.27028 0
M  V30 13059 O 1228.46 2.63121 -3.17555 0
M  V30 13060 H 1227.8 0.207567 -0.630723 0
M  V30 13061 H 1230.33 0.0162254 -2.04594 0
M  V30 13062 H 1230.34 1.89466 -3.6134 0
M  V30 13063 H 1229.02 0.838207 -4.07366 0
M  V30 13064 H 1227.59 2.28316 -2.94832 0
M  V30 13065 N 1229.78 1.54207 0.325255 0
M  V30 13066 C 1230.74 1.82757 1.38321 0
M  V30 13067 C 1231.74 0.699312 1.44797 0
M  V30 13068 O 1232.93 0.96762 1.44854 0
M  V30 13069 C 1230.06 1.98608 2.7707 0
M  V30 13070 H 1231.26 2.7728 1.14261 0
M  V30 13071 H 1228.81 1.45899 0.560647 0
M  V30 13072 H 1229.55 1.0629 3.06387 0
M  V30 13073 H 1229.33 2.80707 2.73763 0
M  V30 13074 H 1230.82 2.2215 3.53609 0
M  V30 13075 N 1231.26 -0.58723 1.46251 0
M  V30 13076 C 1232.48 -1.37661 1.55126 0
M  V30 13077 C 1232.91 -1.87123 0.191489 0
M  V30 13078 O 1232.27 -1.6131 -0.827576 0
M  V30 13079 C 1232.31 -2.54324 2.5564 0
M  V30 13080 O 1231.42 -3.55617 2.0883 0
M  V30 13081 H 1230.76 -0.410154 0.522178 0
M  V30 13082 H 1233.29 -0.712738 1.91784 0
M  V30 13083 H 1233.3 -3.01301 2.75103 0
M  V30 13084 H 1231.97 -2.17675 3.54387 0
M  V30 13085 H 1230.55 -3.15151 1.99335 0
M  V30 13086 N 1232.74 -1.33881 -0.831482 0
M  V30 13087 C 1233.98 -1.25942 -1.58955 0
M  V30 13088 C 1234.31 0.172542 -1.93432 0
M  V30 13089 O 1233.59 1.11577 -1.59314 0
M  V30 13090 C 1233.87 -2.14193 -2.89471 0
M  V30 13091 C 1233.73 -3.65883 -2.61628 0
M  V30 13092 C 1235.04 -2.02071 -3.90967 0
M  V30 13093 H 1232.16 -0.458841 -0.576744 0
M  V30 13094 H 1234.81 -1.64052 -0.958482 0
M  V30 13095 H 1232.96 -1.81821 -3.43327 0
M  V30 13096 H 1234.63 -4.08581 -2.14148 0
M  V30 13097 H 1232.87 -3.87397 -1.95208 0
M  V30 13098 H 1233.54 -4.22988 -3.54662 0
M  V30 13099 H 1236.02 -2.30476 -3.46439 0
M  V30 13100 H 1234.89 -2.66059 -4.80108 0
M  V30 13101 H 1235.15 -0.995121 -4.30755 0
M  V30 13102 N 1234.21 1.05064 -1.1747 0
M  V30 13103 C 1235.18 2.1101 -0.89485 0
M  V30 13104 C 1236.18 1.60384 0.11553 0
M  V30 13105 O 1237.37 1.73808 -0.116785 0
M  V30 13106 C 1234.5 3.39194 -0.340642 0
M  V30 13107 H 1235.69 2.37269 -1.83421 0
M  V30 13108 H 1233.24 1.21329 -0.985343 0
M  V30 13109 H 1233.98 3.18591 0.605808 0
M  V30 13110 H 1233.76 3.77251 -1.06885 0
M  V30 13111 H 1235.25 4.17281 -0.163204 0
M  V30 13112 N 1235.69 0.975146 1.23809 0
M  V30 13113 C 1236.62 0.530389 2.27396 0
M  V30 13114 C 1237.6 -0.433763 1.64476 0
M  V30 13115 O 1238.79 -0.32827 1.91405 0
M  V30 13116 C 1235.92 -0.173066 3.46869 0
M  V30 13117 C 1234.87 0.707844 4.22106 0
M  V30 13118 C 1234.2 -0.127527 5.34548 0
M  V30 13119 C 1235.5 1.99609 4.82652 0
M  V30 13120 H 1237.19 1.39622 2.64851 0
M  V30 13121 H 1234.74 0.672802 1.27316 0
M  V30 13122 H 1236.69 -0.495481 4.18477 0
M  V30 13123 H 1235.41 -1.0733 3.0846 0
M  V30 13124 H 1234.07 1.01364 3.52308 0
M  V30 13125 H 1233.72 -1.02814 4.9238 0
M  V30 13126 H 1233.42 0.458728 5.85807 0
M  V30 13127 H 1234.95 -0.444443 6.0898 0
M  V30 13128 H 1236.36 1.73878 5.46296 0
M  V30 13129 H 1234.76 2.52969 5.44175 0
M  V30 13130 H 1235.83 2.68629 4.03691 0
M  V30 13131 N 1237.17 -1.38817 0.746158 0
M  V30 13132 C 1238.42 -1.99885 0.298425 0
M  V30 13133 C 1238.74 -1.59518 -1.12156 0
M  V30 13134 O 1238.01 -0.848568 -1.76568 0
M  V30 13135 H 1236.59 -0.739247 0.107347 0
M  V30 13136 H 1239.25 -1.69696 0.9586 0
M  V30 13137 H 1238.35 -3.10067 0.355656 0
M  V30 13138 N 1238.65 -0.49465 -1.49636 0
M  V30 13139 C 1239.58 0.33366 -2.25748 0
M  V30 13140 C 1240.56 0.97591 -1.30057 0
M  V30 13141 O 1241.74 1.00725 -1.59332 0
M  V30 13142 C 1238.87 1.46938 -3.05167 0
M  V30 13143 C 1237.92 0.942149 -4.15964 0
M  V30 13144 S 1238.75 -0.162019 -5.35255 0
M  V30 13145 C 1239.9 0.977022 -6.18227 0
M  V30 13146 H 1240.14 -0.312361 -2.95655 0
M  V30 13147 H 1237.67 -0.279854 -1.51843 0
M  V30 13148 H 1239.63 2.12017 -3.5151 0
M  V30 13149 H 1238.29 2.087 -2.34741 0
M  V30 13150 H 1237.48 1.79309 -4.71025 0
M  V30 13151 H 1237.08 0.368687 -3.72178 0
M  V30 13152 H 1239.38 1.88363 -6.50788 0
M  V30 13153 H 1240.32 0.465168 -7.0657 0
M  V30 13154 H 1240.73 1.24149 -5.50679 0
M  V30 13155 N 1240.13 1.55939 -0.228214 0
M  V30 13156 C 1241.06 2.2357 0.6737 0
M  V30 13157 C 1242.04 1.20964 1.1959 0
M  V30 13158 O 1243.22 1.49568 1.23867 0
M  V30 13159 C 1240.35 2.92076 1.87906 0
M  V30 13160 C 1239.31 4.01211 1.49043 0
M  V30 13161 C 1238.63 4.57047 2.77511 0
M  V30 13162 C 1239.93 5.17914 0.67544 0
M  V30 13163 H 1241.63 2.99199 0.109806 0
M  V30 13164 H 1239.17 1.43908 0.0513732 0
M  V30 13165 H 1241.12 3.38083 2.51551 0
M  V30 13166 H 1239.85 2.13906 2.46803 0
M  V30 13167 H 1238.51 3.55945 0.877411 0
M  V30 13168 H 1238.16 3.75599 3.34566 0
M  V30 13169 H 1237.86 5.30707 2.52239 0
M  V30 13170 H 1239.38 5.05776 3.42087 0
M  V30 13171 H 1240.79 5.60261 1.21575 0
M  V30 13172 H 1239.19 5.97847 0.519536 0
M  V30 13173 H 1240.26 4.83866 -0.316495 0
M  V30 13174 N 1241.6 -0.0451101 1.57535 0
M  V30 13175 C 1242.83 -0.750231 1.92497 0
M  V30 13176 C 1243.24 -1.70268 0.824946 0
M  V30 13177 O 1242.59 -1.82511 -0.208656 0
M  V30 13178 C 1242.65 -1.57543 3.23141 0
M  V30 13179 C 1242.31 -0.789495 4.50129 0
M  V30 13180 C 1243.31 -0.0968367 5.1981 0
M  V30 13181 C 1240.99 -0.748776 4.96688 0
M  V30 13182 C 1242.99 0.626018 6.34318 0
M  V30 13183 C 1240.67 -0.0221652 6.11096 0
M  V30 13184 C 1241.67 0.664006 6.79765 0
M  V30 13185 O 1241.36 1.37885 7.91987 0
M  V30 13186 H 1241.09 -0.216895 0.64026 0
M  V30 13187 H 1243.65 -0.011558 2.05397 0
M  V30 13188 H 1241.88 -2.35754 3.06524 0
M  V30 13189 H 1243.57 -2.16168 3.4355 0
M  V30 13190 H 1244.33 -0.119429 4.84853 0
M  V30 13191 H 1240.21 -1.27235 4.43094 0
M  V30 13192 H 1243.75 1.16215 6.87852 0
M  V30 13193 H 1239.65 0.00240707 6.455 0
M  V30 13194 H 1240.42 1.29087 8.08257 0
M  V30 13195 N 1243.08 -1.54377 -0.317073 0
M  V30 13196 C 1244.02 -1.7907 -1.41453 0
M  V30 13197 C 1244.99 -0.641012 -1.49432 0
M  V30 13198 O 1246.18 -0.879179 -1.66741 0
M  V30 13199 C 1243.3 -1.91307 -2.79498 0
M  V30 13200 C 1242.35 -3.13639 -2.8902 0
M  V30 13201 S 1243.18 -4.72093 -2.52762 0
M  V30 13202 C 1244.34 -4.87245 -3.92866 0
M  V30 13203 H 1244.57 -2.71875 -1.20296 0
M  V30 13204 H 1242.11 -1.45583 -0.514279 0
M  V30 13205 H 1244.06 -1.99043 -3.59015 0
M  V30 13206 H 1242.72 -0.994687 -2.97934 0
M  V30 13207 H 1241.92 -3.18955 -3.90235 0
M  V30 13208 H 1241.52 -3.04266 -2.17481 0
M  V30 13209 H 1243.81 -4.7028 -4.87691 0
M  V30 13210 H 1244.75 -5.89344 -3.92529 0
M  V30 13211 H 1245.16 -4.15504 -3.82122 0
M  V30 13212 N 1244.56 0.579466 -1.4656 0
M  V30 13213 C 1245.97 1.1616 -1.46164 0
M  V30 13214 C 1246.32 1.95134 -0.20423 0
M  V30 13215 O 1245.45 2.05022 0.692457 0
M  V30 13216 C 1246.04 2.11322 -2.64818 0
M  V30 13217 C 1244.6 2.64852 -2.67452 0
M  V30 13218 C 1243.75 1.40786 -2.38903 0
M  V30 13219 H 1246.7 0.367229 -1.54393 0
M  V30 13220 H 1246.72 2.94839 -2.4052 0
M  V30 13221 H 1246.23 1.53815 -3.56318 0
M  V30 13222 H 1244.33 3.26219 -1.80032 0
M  V30 13223 H 1244.45 3.07366 -3.67509 0
M  V30 13224 H 1242.81 1.70707 -1.89027 0
M  V30 13225 H 1243.59 0.851049 -3.32584 0
M  V30 13226 N 1246.04 1.3432 0.824371 0
M  V30 13227 C 1246.99 1.25776 1.93517 0
M  V30 13228 C 1247.96 0.133298 1.65564 0
M  V30 13229 O 1249.14 0.31403 1.88198 0
M  V30 13230 C 1246.28 1.01766 3.29754 0
M  V30 13231 C 1245.39 2.22973 3.7001 0
M  V30 13232 C 1244.53 1.92258 4.95187 0
M  V30 13233 C 1243.57 3.09616 5.2802 0
M  V30 13234 N 1242.7 2.78793 6.44375 0
M  V30 13235 H 1247.54 2.20774 2.00157 0
M  V30 13236 H 1245.08 1.09766 0.979274 0
M  V30 13237 H 1247.04 0.858831 4.08265 0
M  V30 13238 H 1245.67 0.10437 3.22631 0
M  V30 13239 H 1244.72 2.49781 2.86903 0
M  V30 13240 H 1246.03 3.10661 3.90245 0
M  V30 13241 H 1245.19 1.73102 5.81481 0
M  V30 13242 H 1243.93 1.01827 4.76951 0
M  V30 13243 H 1242.93 3.29368 4.40223 0
M  V30 13244 H 1244.16 4.00822 5.48196 0
M  V30 13245 H 1242.1 1.90938 6.27598 0
M  V30 13246 H 1242.02 3.60014 6.64775 0
M  V30 13247 H 1243.29 2.63139 7.33743 0
M  V30 13248 N 1247.52 -1.0444 1.18026 0
M  V30 13249 C 1248.76 -1.77838 0.974756 0
M  V30 13250 C 1249.1 -1.87792 -0.494755 0
M  V30 13251 O 1248.37 -1.38327 -1.36733 0
M  V30 13252 C 1248.65 -3.21315 1.62569 0
M  V30 13253 C 1248.51 -3.19327 3.16781 0
M  V30 13254 C 1249.83 -4.19337 1.33583 0
M  V30 13255 H 1246.94 -0.645575 0.35553 0
M  V30 13256 H 1249.59 -1.22023 1.45638 0
M  V30 13257 H 1247.74 -3.68974 1.21617 0
M  V30 13258 H 1249.41 -2.79687 3.66842 0
M  V30 13259 H 1247.65 -2.57461 3.49137 0
M  V30 13260 H 1248.32 -4.20626 3.5746 0
M  V30 13261 H 1250.8 -3.80208 1.69059 0
M  V30 13262 H 1249.67 -5.17953 1.81702 0
M  V30 13263 H 1249.94 -4.41346 0.258016 0
M  V30 13264 N 1248.99 -0.981699 -1.2329 0
M  V30 13265 C 1250.22 -0.668399 -1.95489 0
M  V30 13266 C 1250.63 0.768976 -1.72868 0
M  V30 13267 O 1249.98 1.52925 -1.01783 0
M  V30 13268 C 1250.04 -0.880535 -3.4855 0
M  V30 13269 C 1249.7 -2.30023 -3.9489 0
M  V30 13270 C 1250.7 -3.27899 -4.03458 0
M  V30 13271 C 1248.38 -2.63167 -4.27842 0
M  V30 13272 C 1250.38 -4.56999 -4.44332 0
M  V30 13273 C 1248.06 -3.92489 -4.68397 0
M  V30 13274 C 1249.06 -4.89216 -4.76609 0
M  V30 13275 O 1248.75 -6.16229 -5.16253 0
M  V30 13276 H 1248.48 -0.247255 -0.629159 0
M  V30 13277 H 1251.04 -1.31606 -1.57699 0
M  V30 13278 H 1249.27 -0.175698 -3.86301 0
M  V30 13279 H 1250.96 -0.564198 -4.0196 0
M  V30 13280 H 1251.72 -3.03624 -3.78203 0
M  V30 13281 H 1247.6 -1.88588 -4.20661 0
M  V30 13282 H 1251.14 -5.32498 -4.50656 0
M  V30 13283 H 1247.04 -4.16558 -4.93102 0
M  V30 13284 H 1247.81 -6.20001 -5.34361 0
M  V30 13285 N 1250.47 1.3842 -0.753509 0
M  V30 13286 C 1251.72 1.99359 -0.306416 0
M  V30 13287 C 1252.03 1.60492 1.11811 0
M  V30 13288 O 1253.24 2.14401 1.66567 0
M  V30 13289 C 1251.7 3.56453 -0.496895 0
M  V30 13290 C 1251.3 4.04272 -1.9305 0
M  V30 13291 C 1253.05 4.24351 -0.11251 0
M  V30 13292 C 1250.96 5.54007 -2.06955 0
M  V30 13293 H 1249.89 0.745812 -0.110818 0
M  V30 13294 H 1252.54 1.58185 -0.930039 0
M  V30 13295 H 1250.92 3.95515 0.195912 0
M  V30 13296 H 1252.09 3.765 -2.65677 0
M  V30 13297 H 1250.41 3.49098 -2.26979 0
M  V30 13298 H 1253 5.34344 -0.195161 0
M  V30 13299 H 1253.35 4.05668 0.934849 0
M  V30 13300 H 1253.88 3.90528 -0.757168 0
M  V30 13301 H 1250.62 5.77594 -3.09944 0
M  V30 13302 H 1250.14 5.83522 -1.38788 0
M  V30 13303 H 1251.82 6.19704 -1.85945 0
M  V30 13304 N 1251.95 0.502579 1.49372 0
M  V30 13305 C 1253.2 -0.0432341 2.01654 0
M  V30 13306 C 1253.51 -1.379 1.38719 0
M  V30 13307 O 1254.72 -2.01159 1.82338 0
M  V30 13308 C 1253.17 -0.127509 3.59674 0
M  V30 13309 C 1252.78 1.20171 4.31582 0
M  V30 13310 C 1254.53 -0.623603 4.19895 0
M  V30 13311 C 1252.43 1.07951 5.81464 0
M  V30 13312 H 1251.36 -0.0199308 0.753737 0
M  V30 13313 H 1254.01 0.642237 1.71894 0
M  V30 13314 H 1252.4 -0.877465 3.86156 0
M  V30 13315 H 1253.57 1.96508 4.16799 0
M  V30 13316 H 1251.89 1.63136 3.83113 0
M  V30 13317 H 1254.48 -0.732562 5.29658 0
M  V30 13318 H 1254.83 -1.62282 3.83367 0
M  V30 13319 H 1255.36 0.0698641 3.97739 0
M  V30 13320 H 1252.1 2.05304 6.22519 0
M  V30 13321 H 1251.62 0.357051 5.98736 0
M  V30 13322 H 1253.3 0.758885 6.42534 0
M  V30 13323 N 1253.43 -1.55816 0.23648 0
M  V30 13324 C 1254.68 -1.97862 -0.391579 0
M  V30 13325 C 1254.99 -1.1276 -1.59827 0
M  V30 13326 O 1256.2 -1.44772 -2.29681 0
M  V30 13327 C 1254.65 -3.5204 -0.748065 0
M  V30 13328 C 1254.26 -4.45867 0.436643 0
M  V30 13329 C 1256 -4.02766 -1.3409 0
M  V30 13330 C 1253.91 -5.91373 0.0568909 0
M  V30 13331 H 1252.84 -0.738913 -0.150078 0
M  V30 13332 H 1255.49 -1.80415 0.335052 0
M  V30 13333 H 1253.87 -3.65143 -1.53254 0
M  V30 13334 H 1255.05 -4.44519 1.21408 0
M  V30 13335 H 1253.36 -4.05565 0.943702 0
M  V30 13336 H 1255.96 -5.08987 -1.63817 0
M  V30 13337 H 1256.3 -3.49496 -2.26182 0
M  V30 13338 H 1256.84 -3.92946 -0.619548 0
M  V30 13339 H 1253.58 -6.48657 0.944682 0
M  V30 13340 H 1253.1 -5.95881 -0.684557 0
M  V30 13341 H 1254.77 -6.45972 -0.364586 0
M  V30 13342 N 1254.91 0.036755 -1.57557 0
M  V30 13343 C 1256.15 0.729106 -1.88919 0
M  V30 13344 C 1256.48 1.75769 -0.832801 0
M  V30 13345 O 1255.74 1.94985 0.167173 0
M  V30 13346 C 1256.04 1.44206 -3.27016 0
M  V30 13347 C 1255.7 0.550184 -4.47531 0
M  V30 13348 C 1254.36 0.304511 -4.80236 0
M  V30 13349 C 1256.72 -0.0660664 -5.21158 0
M  V30 13350 C 1254.04 -0.566316 -5.8396 0
M  V30 13351 C 1256.4 -0.92455 -6.25807 0
M  V30 13352 C 1255.06 -1.17976 -6.56992 0
M  V30 13353 H 1254.33 0.266799 -0.691303 0
M  V30 13354 H 1256.98 -0.0108698 -1.91497 0
M  V30 13355 H 1255.28 2.25516 -3.2039 0
M  V30 13356 H 1256.98 1.98317 -3.48527 0
M  V30 13357 H 1253.57 0.751814 -4.21955 0
M  V30 13358 H 1257.75 0.110784 -4.96176 0
M  V30 13359 H 1253.01 -0.772428 -6.06501 0
M  V30 13360 H 1257.18 -1.40861 -6.82005 0
M  V30 13361 H 1254.81 -1.85627 -7.37188 0
M  V30 13362 N 1256.39 1.54543 0.308881 0
M  V30 13363 C 1257.34 1.81332 1.38212 0
M  V30 13364 C 1258.32 0.670056 1.46284 0
M  V30 13365 O 1259.51 0.930476 1.50569 0
M  V30 13366 C 1256.64 2.05713 2.7484 0
M  V30 13367 C 1255.73 3.26202 2.71023 0
M  V30 13368 N 1256.12 4.46933 2.36822 0
M  V30 13369 C 1254.42 3.28071 3.02135 0
M  V30 13370 C 1255.12 5.28923 2.42106 0
M  V30 13371 N 1254.09 4.66455 2.79143 0
M  V30 13372 H 1257.89 2.72246 1.10722 0
M  V30 13373 H 1255.41 1.53936 0.51743 0
M  V30 13374 H 1257.41 2.23049 3.52214 0
M  V30 13375 H 1256.07 1.16062 3.03249 0
M  V30 13376 H 1257.08 4.73674 2.09413 0
M  V30 13377 H 1253.75 2.48501 3.3549 0
M  V30 13378 H 1255.14 6.35369 2.1853 0
M  V30 13379 N 1257.86 -0.571685 1.46866 0
M  V30 13380 C 1259.27 -1.15383 1.46778 0
M  V30 13381 C 1259.63 -1.95023 0.214576 0
M  V30 13382 O 1258.75 -2.05386 -0.681574 0
M  V30 13383 C 1259.35 -2.09915 2.65935 0
M  V30 13384 C 1257.9 -2.6343 2.68852 0
M  V30 13385 C 1257.05 -1.39517 2.39646 0
M  V30 13386 H 1260 -0.359036 1.54585 0
M  V30 13387 H 1260.02 -2.9356 2.42081 0
M  V30 13388 H 1259.54 -1.51923 3.57129 0
M  V30 13389 H 1257.64 -3.2526 1.8176 0
M  V30 13390 H 1257.75 -3.05412 3.69134 0
M  V30 13391 H 1256.11 -1.69702 1.8993 0
M  V30 13392 H 1256.9 -0.833399 3.33031 0
M  V30 13393 N 1259.34 -1.34755 -0.817236 0
M  V30 13394 C 1260.25 -1.28888 -1.96023 0
M  V30 13395 C 1261.27 -0.195582 -1.72897 0
M  V30 13396 O 1262.44 -0.423071 -1.96906 0
M  V30 13397 C 1259.51 -1.04985 -3.30423 0
M  V30 13398 C 1258.57 -2.23526 -3.66517 0
M  V30 13399 C 1257.8 -2.00753 -4.94504 0
M  V30 13400 O 1258.03 -0.968622 -5.62116 0
M  V30 13401 O 1256.96 -2.87848 -5.28608 0
M  V30 13402 H 1260.79 -2.25059 -2.03917 0
M  V30 13403 H 1258.37 -1.15019 -0.953467 0
M  V30 13404 H 1260.25 -0.934589 -4.10906 0
M  V30 13405 H 1258.93 -0.118582 -3.23483 0
M  V30 13406 H 1257.83 -2.40613 -2.86455 0
M  V30 13407 H 1259.17 -3.15062 -3.78149 0
M  V30 13408 N 1260.82 1.03812 -1.18578 0
M  V30 13409 C 1261.75 2.13802 -0.938665 0
M  V30 13410 C 1262.73 1.69643 0.124575 0
M  V30 13411 O 1263.92 1.94179 -0.0285421 0
M  V30 13412 C 1261.05 3.44154 -0.466392 0
M  V30 13413 C 1260 4.01949 -1.47041 0
M  V30 13414 C 1259.33 5.27811 -0.855558 0
M  V30 13415 C 1260.63 4.37827 -2.84789 0
M  V30 13416 H 1262.32 2.34732 -1.85852 0
M  V30 13417 H 1259.87 1.12808 -0.895007 0
M  V30 13418 H 1261.82 4.20463 -0.280856 0
M  V30 13419 H 1260.54 3.22918 0.489041 0
M  V30 13420 H 1259.2 3.27725 -1.64293 0
M  V30 13421 H 1258.85 5.02886 0.107142 0
M  V30 13422 H 1258.55 5.67441 -1.52592 0
M  V30 13423 H 1260.07 6.06795 -0.680609 0
M  V30 13424 H 1261.49 5.05112 -2.71173 0
M  V30 13425 H 1259.88 4.88514 -3.48532 0
M  V30 13426 H 1260.95 3.47541 -3.38147 0
M  V30 13427 N 1262.3 0.988223 1.22768 0
M  V30 13428 C 1263.25 0.527454 2.26541 0
M  V30 13429 C 1264.24 -0.419506 1.64123 0
M  V30 13430 O 1265.45 -0.292539 1.77607 0
M  V30 13431 H 1261.82 0.152165 0.736444 0
M  V30 13432 H 1263.79 1.41422 2.62759 0
M  V30 13433 C 1262.54 -0.146845 3.4739 0
M  V30 13434 H 1261.86 0.572752 3.95676 0
M  V30 13435 H 1263.3 -0.432768 4.21786 0
M  V30 13436 C 1261.76 -1.38065 3.0731 0
M  V30 13437 O 1262.29 -2.47634 3.16291 0
M  V30 13438 N 1260.5 -1.25418 2.62143 0
M  V30 13439 H 1260.05 -0.362641 2.55035 0
M  V30 13440 H 1260 -2.08077 2.35694 0
M  V30 13441 N 1263.78 -1.38018 0.760839 0
M  V30 13442 C 1265.02 -2.00248 0.320716 0
M  V30 13443 C 1265.35 -1.60259 -1.09684 0
M  V30 13444 O 1264.63 -0.843567 -1.75255 0
M  V30 13445 C 1264.91 -3.57254 0.451849 0
M  V30 13446 C 1264.77 -4.07185 1.91103 0
M  V30 13447 C 1266.08 -4.39843 -0.150439 0
M  V30 13448 H 1263.2 -0.727491 0.118007 0
M  V30 13449 H 1265.85 -1.63855 0.961842 0
M  V30 13450 H 1264 -3.88386 -0.0939672 0
M  V30 13451 H 1265.67 -3.86665 2.51571 0
M  V30 13452 H 1263.91 -3.59782 2.42362 0
M  V30 13453 H 1264.58 -5.16262 1.9539 0
M  V30 13454 H 1267.06 -4.14905 0.315145 0
M  V30 13455 H 1265.93 -5.48893 -0.0284853 0
M  V30 13456 H 1266.19 -4.24367 -1.23956 0
M  V30 13457 N 1265.25 -0.510493 -1.49103 0
M  V30 13458 C 1266.19 0.299697 -2.27232 0
M  V30 13459 C 1267.2 0.922102 -1.34168 0
M  V30 13460 O 1268.39 0.803836 -1.59376 0
M  V30 13461 C 1265.49 1.43778 -3.06889 0
M  V30 13462 C 1264.66 0.920927 -4.27595 0
M  V30 13463 C 1263.72 1.93777 -4.89221 0
M  V30 13464 O 1262.75 1.5025 -5.49011 0
M  V30 13465 N 1263.95 3.2688 -4.79718 0
M  V30 13466 H 1266.71 -0.37028 -2.97404 0
M  V30 13467 H 1264.27 -0.343617 -1.58212 0
M  V30 13468 H 1266.27 2.11577 -3.44988 0
M  V30 13469 H 1264.84 2.01175 -2.39264 0
M  V30 13470 H 1264.06 0.0675358 -3.94142 0
M  V30 13471 H 1265.34 0.554168 -5.05773 0
M  V30 13472 H 1264.74 3.64924 -4.32258 0
M  V30 13473 H 1263.3 3.90366 -5.21974 0
M  V30 13474 N 1266.73 1.55688 -0.24474 0
M  V30 13475 C 1267.68 2.21289 0.655723 0
M  V30 13476 C 1268.65 1.17606 1.17295 0
M  V30 13477 O 1269.83 1.46045 1.22782 0
M  V30 13478 C 1266.97 2.91453 1.84794 0
M  V30 13479 C 1266.09 4.09787 1.36744 0
M  V30 13480 C 1265.22 4.67672 2.51905 0
M  V30 13481 C 1264.26 5.78259 2.00706 0
M  V30 13482 N 1263.4 6.30336 3.09225 0
M  V30 13483 H 1268.24 2.97865 0.0896156 0
M  V30 13484 H 1265.77 1.47064 0.0324725 0
M  V30 13485 H 1267.73 3.30331 2.54828 0
M  V30 13486 H 1266.36 2.17355 2.38656 0
M  V30 13487 H 1265.41 3.76237 0.561228 0
M  V30 13488 H 1266.73 4.89627 0.952199 0
M  V30 13489 H 1265.88 5.09113 3.29984 0
M  V30 13490 H 1264.62 3.87044 2.9673 0
M  V30 13491 H 1263.62 5.36298 1.21097 0
M  V30 13492 H 1264.85 6.60737 1.56853 0
M  V30 13493 H 1262.8 5.52614 3.53489 0
M  V30 13494 H 1262.71 7.05364 2.72025 0
M  V30 13495 H 1263.98 6.76435 3.8737 0
M  V30 13496 N 1268.21 -0.0283989 1.57574 0
M  V30 13497 C 1269.63 -0.384054 1.5491 0
M  V30 13498 C 1269.83 -1.76564 0.970947 0
M  V30 13499 O 1268.88 -2.45455 0.592288 0
M  V30 13500 C 1270.19 -0.285297 2.99344 0
M  V30 13501 C 1271.74 -0.36233 3.10896 0
M  V30 13502 C 1272.22 -0.293014 4.57062 0
M  V30 13503 N 1273.71 -0.351788 4.61862 0
M  V30 13504 C 1274.44 -0.321054 5.725 0
M  V30 13505 N 1273.94 -0.242573 6.92375 0
M  V30 13506 N 1275.73 -0.370832 5.60875 0
M  V30 13507 H 1267.88 0.87573 1.93506 0
M  V30 13508 H 1270.15 0.33305 0.887571 0
M  V30 13509 H 1269.85 0.664146 3.45372 0
M  V30 13510 H 1269.73 -1.07869 3.61447 0
M  V30 13511 H 1272.11 -1.30221 2.64814 0
M  V30 13512 H 1272.19 0.460422 2.51622 0
M  V30 13513 H 1271.84 0.643197 5.03811 0
M  V30 13514 H 1271.77 -1.13388 5.14248 0
M  V30 13515 H 1274.26 -0.414929 3.75615 0
M  V30 13516 H 1274.57 -0.224239 7.72475 0
M  V30 13517 H 1272.92 -0.208612 6.94687 0
M  V30 13518 H 1276.11 -0.430141 4.6612 0
M  V30 13519 H 1276.28 -0.343412 6.47089 0
M  V30 13520 N 1269.69 -1.54705 -0.300681 0
M  V30 13521 C 1270.63 -1.85678 -1.37084 0
M  V30 13522 C 1271.6 -0.70573 -1.50362 0
M  V30 13523 O 1272.79 -0.954385 -1.65215 0
M  V30 13524 C 1269.93 -2.10995 -2.73084 0
M  V30 13525 C 1269.04 -3.38621 -2.68254 0
M  V30 13526 C 1268.18 -3.53779 -3.9625 0
M  V30 13527 C 1267.22 -4.75195 -3.85818 0
M  V30 13528 N 1266.35 -4.87157 -5.05591 0
M  V30 13529 H 1271.19 -2.76967 -1.09971 0
M  V30 13530 H 1268.73 -1.37147 -0.531887 0
M  V30 13531 H 1270.69 -2.23669 -3.52176 0
M  V30 13532 H 1269.32 -1.22973 -2.98458 0
M  V30 13533 H 1268.37 -3.34566 -1.81025 0
M  V30 13534 H 1269.68 -4.27834 -2.56436 0
M  V30 13535 H 1268.84 -3.66119 -4.83779 0
M  V30 13536 H 1267.58 -2.62699 -4.10902 0
M  V30 13537 H 1266.58 -4.62888 -2.96673 0
M  V30 13538 H 1267.81 -5.67683 -3.72711 0
M  V30 13539 H 1265.75 -3.99001 -5.20706 0
M  V30 13540 H 1265.67 -5.70372 -4.96197 0
M  V30 13541 H 1266.94 -5.03854 -5.9477 0
M  V30 13542 N 1271.17 0.563888 -1.47167 0
M  V30 13543 C 1272.58 0.889156 -1.32537 0
M  V30 13544 C 1272.78 1.99088 -0.310854 0
M  V30 13545 O 1271.84 2.50943 0.27998 0
M  V30 13546 C 1273.15 1.28871 -2.71685 0
M  V30 13547 C 1274.7 1.40051 -2.79919 0
M  V30 13548 C 1275.17 1.83364 -4.19692 0
M  V30 13549 N 1276.67 1.90526 -4.22201 0
M  V30 13550 C 1277.4 2.25355 -5.2726 0
M  V30 13551 N 1276.9 2.58844 -6.42629 0
M  V30 13552 N 1278.69 2.26071 -5.14634 0
M  V30 13553 H 1270.84 -0.163581 -2.11769 0
M  V30 13554 H 1273.1 -0.0105151 -0.947942 0
M  V30 13555 H 1272.81 0.553057 -3.47324 0
M  V30 13556 H 1272.68 2.24629 -3.03021 0
M  V30 13557 H 1275.07 2.12698 -2.04557 0
M  V30 13558 H 1275.15 0.424971 -2.52245 0
M  V30 13559 H 1274.8 1.11289 -4.95557 0
M  V30 13560 H 1274.73 2.81909 -4.44786 0
M  V30 13561 H 1277.22 1.67059 -3.38968 0
M  V30 13562 H 1277.53 2.84427 -7.18555 0
M  V30 13563 H 1275.87 2.56439 -6.4596 0
M  V30 13564 H 1279.07 1.99343 -4.23533 0
M  V30 13565 H 1279.24 2.52885 -5.96618 0
M  V30 13566 N 1272.64 1.35187 0.810078 0
M  V30 13567 C 1273.87 1.31528 1.60359 0
M  V30 13568 C 1274.29 -0.105385 1.87805 0
M  V30 13569 O 1273.65 -1.07113 1.46276 0
M  V30 13570 C 1273.7 2.12429 2.91386 0
M  V30 13571 O 1272.8 1.50262 3.84051 0
M  V30 13572 H 1272.15 0.451122 0.487222 0
M  V30 13573 H 1274.68 1.78178 1.00568 0
M  V30 13574 H 1274.69 2.24257 3.40841 0
M  V30 13575 H 1273.36 3.15714 2.70735 0
M  V30 13576 H 1271.94 1.47253 3.42594 0
M  V30 13577 N 1274.12 -1.03182 1.19127 0
M  V30 13578 C 1275.37 -1.76533 0.992093 0
M  V30 13579 C 1275.7 -1.88549 -0.477429 0
M  V30 13580 O 1274.95 -1.39675 -1.37074 0
M  V30 13581 C 1275.25 -3.19452 1.60267 0
M  V30 13582 C 1274.92 -3.27449 3.09981 0
M  V30 13583 C 1273.58 -3.29338 3.50841 0
M  V30 13584 C 1275.93 -3.26833 4.05992 0
M  V30 13585 C 1273.26 -3.28265 4.86271 0
M  V30 13586 C 1275.61 -3.27299 5.41348 0
M  V30 13587 C 1274.28 -3.27485 5.81644 0
M  V30 13588 H 1273.55 -0.645979 0.363033 0
M  V30 13589 H 1276.19 -1.21127 1.48326 0
M  V30 13590 H 1274.5 -3.77917 1.03372 0
M  V30 13591 H 1276.19 -3.74869 1.42388 0
M  V30 13592 H 1272.78 -3.26704 2.77421 0
M  V30 13593 H 1276.97 -3.24556 3.75469 0
M  V30 13594 H 1272.22 -3.26731 5.16775 0
M  V30 13595 H 1276.4 -3.25773 6.15504 0
M  V30 13596 H 1274.03 -3.26407 6.86558 0
M  V30 13597 N 1275.6 -0.99472 -1.22242 0
M  V30 13598 C 1276.55 -0.546504 -2.24236 0
M  V30 13599 C 1277.52 0.422101 -1.60647 0
M  V30 13600 O 1278.7 0.326452 -1.87987 0
M  V30 13601 C 1275.84 0.130909 -3.44852 0
M  V30 13602 C 1274.96 -0.879653 -4.22949 0
M  V30 13603 C 1274.09 -0.175569 -5.3091 0
M  V30 13604 C 1273.13 -1.17438 -6.00729 0
M  V30 13605 N 1272.27 -0.498474 -7.00328 0
M  V30 13606 H 1277.11 -1.42099 -2.61939 0
M  V30 13607 H 1274.64 -0.711755 -1.28734 0
M  V30 13608 H 1276.6 0.540596 -4.13683 0
M  V30 13609 H 1275.23 0.96917 -3.07907 0
M  V30 13610 H 1274.28 -1.40765 -3.53397 0
M  V30 13611 H 1275.6 -1.64017 -4.71062 0
M  V30 13612 H 1274.75 0.290756 -6.06003 0
M  V30 13613 H 1273.49 0.617438 -4.83776 0
M  V30 13614 H 1272.49 -1.65131 -5.24416 0
M  V30 13615 H 1273.72 -1.96829 -6.4995 0
M  V30 13616 H 1271.66 0.275063 -6.55423 0
M  V30 13617 H 1271.58 -1.19741 -7.46457 0
M  V30 13618 H 1272.85 -0.0550119 -7.79481 0
M  V30 13619 N 1277.08 1.37613 -0.768148 0
M  V30 13620 C 1278.04 2.28653 -0.158283 0
M  V30 13621 C 1279.04 1.47862 0.631936 0
M  V30 13622 O 1280.23 1.68124 0.456055 0
M  V30 13623 C 1277.36 3.31776 0.783435 0
M  V30 13624 H 1278.56 2.84094 -0.960772 0
M  V30 13625 H 1276.11 1.46818 -0.536116 0
M  V30 13626 H 1276.84 2.81452 1.61106 0
M  V30 13627 H 1276.63 3.91488 0.219016 0
M  V30 13628 H 1278.12 3.99816 1.20568 0
M  V30 13629 N 1278.56 0.518393 1.4883 0
M  V30 13630 C 1279.8 -0.0199348 2.0279 0
M  V30 13631 C 1280.14 -1.35026 1.39576 0
M  V30 13632 O 1279.41 -1.86927 0.537449 0
M  V30 13633 C 1279.69 -0.154184 3.5977 0
M  V30 13634 C 1279.55 1.2005 4.33484 0
M  V30 13635 C 1280.87 -0.886547 4.31078 0
M  V30 13636 H 1277.98 -0.00577061 0.736977 0
M  V30 13637 H 1280.63 0.673178 1.77675 0
M  V30 13638 H 1278.78 -0.74451 3.81299 0
M  V30 13639 H 1280.45 1.83104 4.23404 0
M  V30 13640 H 1278.69 1.78537 3.95357 0
M  V30 13641 H 1279.36 1.05968 5.41733 0
M  V30 13642 H 1281.84 -0.385711 4.14308 0
M  V30 13643 H 1280.71 -0.949355 5.40628 0
M  V30 13644 H 1280.98 -1.93424 3.97542 0
M  V30 13645 N 1280.03 -1.55556 0.252993 0
M  V30 13646 C 1281.28 -1.99385 -0.370599 0
M  V30 13647 C 1281.61 -1.14101 -1.57145 0
M  V30 13648 O 1280.89 -0.205828 -1.93408 0
M  V30 13649 C 1281.17 -3.51672 -0.774503 0
M  V30 13650 C 1281.02 -4.47719 0.432159 0
M  V30 13651 C 1282.34 -4.0923 -1.61923 0
M  V30 13652 H 1279.46 -0.724858 -0.133231 0
M  V30 13653 H 1282.1 -1.86644 0.355522 0
M  V30 13654 H 1280.25 -3.62661 -1.39318 0
M  V30 13655 H 1281.93 -4.48704 1.07063 0
M  V30 13656 H 1280.17 -4.2029 1.07419 0
M  V30 13657 H 1280.84 -5.51898 0.106123 0
M  V30 13658 H 1283.32 -4.01381 -1.09693 0
M  V30 13659 H 1282.19 -5.16039 -1.87068 0
M  V30 13660 H 1282.45 -3.58067 -2.59307 0
M  V30 13661 N 1281.51 0.0200419 -1.57587 0
M  V30 13662 C 1282.74 0.720556 -1.93947 0
M  V30 13663 C 1283.16 1.68407 -0.853499 0
M  V30 13664 O 1282.51 1.81713 0.169337 0
M  V30 13665 C 1282.56 1.46982 -3.3027 0
M  V30 13666 O 1282.28 0.544971 -4.34697 0
M  V30 13667 C 1283.79 2.26667 -3.80968 0
M  V30 13668 H 1281.01 0.201956 -0.639887 0
M  V30 13669 H 1283.55 -0.0251175 -2.04485 0
M  V30 13670 H 1281.7 2.16729 -3.21103 0
M  V30 13671 H 1282.12 1.07139 -5.13441 0
M  V30 13672 H 1283.59 2.74621 -4.78839 0
M  V30 13673 H 1284.07 3.0848 -3.12629 0
M  V30 13674 H 1284.68 1.61976 -3.93248 0
M  V30 13675 N 1282.99 1.54862 0.292472 0
M  V30 13676 C 1283.95 1.8565 1.34413 0
M  V30 13677 C 1284.95 0.729868 1.43281 0
M  V30 13678 O 1286.14 0.998128 1.42769 0
M  V30 13679 C 1283.28 2.0444 2.72795 0
M  V30 13680 H 1284.47 2.79642 1.08354 0
M  V30 13681 H 1282.02 1.47055 0.529574 0
M  V30 13682 H 1282.76 1.12765 3.04063 0
M  V30 13683 H 1282.54 2.86451 2.67747 0
M  V30 13684 H 1284.03 2.296 3.48817 0
M  V30 13685 N 1284.47 -0.556076 1.47464 0
M  V30 13686 C 1285.43 -1.64515 1.59586 0
M  V30 13687 C 1286.43 -1.53751 0.470881 0
M  V30 13688 O 1287.62 -1.57889 0.735979 0
M  V30 13689 C 1284.75 -3.0406 1.54143 0
M  V30 13690 H 1285.95 -1.55116 2.56669 0
M  V30 13691 H 1283.5 -0.776087 1.35671 0
M  V30 13692 H 1284.23 -3.18991 0.584395 0
M  V30 13693 H 1284.02 -3.13282 2.3579 0
M  V30 13694 H 1285.51 -3.8329 1.65766 0
M  V30 13695 N 1285.95 -1.35615 -0.802897 0
M  V30 13696 C 1287.18 -1.32217 -1.59142 0
M  V30 13697 C 1287.59 0.0995496 -1.88537 0
M  V30 13698 O 1286.95 1.05258 -1.49087 0
M  V30 13699 C 1287 -2.13048 -2.92049 0
M  V30 13700 O 1286.72 -3.49677 -2.63927 0
M  V30 13701 C 1288.22 -2.17278 -3.864 0
M  V30 13702 H 1285.44 -0.454054 -0.49404 0
M  V30 13703 H 1287.98 -1.78521 -0.997516 0
M  V30 13704 H 1286.14 -1.70334 -3.47944 0
M  V30 13705 H 1286.55 -3.917 -3.48814 0
M  V30 13706 H 1288.03 -2.7822 -4.76758 0
M  V30 13707 H 1288.5 -1.17253 -4.23259 0
M  V30 13708 H 1289.11 -2.6017 -3.3644 0
M  V30 13709 N 1287.43 1.02549 -1.19673 0
M  V30 13710 C 1288.36 2.10513 -0.880879 0
M  V30 13711 C 1289.34 1.61776 0.163455 0
M  V30 13712 O 1290.52 1.8846 0.0390085 0
M  V30 13713 C 1287.65 3.37195 -0.318936 0
M  V30 13714 C 1286.69 4.04808 -1.34286 0
M  V30 13715 S 1287.53 4.49881 -2.90461 0
M  V30 13716 C 1288.68 5.79776 -2.35819 0
M  V30 13717 H 1288.92 2.3698 -1.7952 0
M  V30 13718 H 1286.45 1.15537 -1.02423 0
M  V30 13719 H 1288.41 4.105 -0.00124931 0
M  V30 13720 H 1287.07 3.08815 0.573749 0
M  V30 13721 H 1286.26 4.9592 -0.898859 0
M  V30 13722 H 1285.86 3.37688 -1.60756 0
M  V30 13723 H 1288.15 6.54501 -1.75026 0
M  V30 13724 H 1289.1 6.2896 -3.25292 0
M  V30 13725 H 1289.51 5.35611 -1.78272 0
M  V30 13726 N 1288.9 1.00119 1.21713 0
M  V30 13727 C 1290.13 0.700172 1.95224 0
M  V30 13728 C 1290.55 -0.730138 1.73351 0
M  V30 13729 O 1289.91 -1.50026 1.01794 0
M  V30 13730 C 1289.96 1.02202 3.45814 0
M  V30 13731 O 1289.06 0.125188 4.1221 0
M  V30 13732 H 1288.4 0.261238 0.610451 0
M  V30 13733 H 1290.93 1.34041 1.54578 0
M  V30 13734 H 1290.94 0.967293 3.96368 0
M  V30 13735 H 1289.62 2.06422 3.61058 0
M  V30 13736 H 1288.2 0.236114 3.72152 0
M  V30 13737 N 1290.38 -1.37203 0.775435 0
M  V30 13738 C 1291.61 -2.04396 0.351737 0
M  V30 13739 C 1292.03 -1.58099 -1.01913 0
M  V30 13740 O 1291.39 -0.742932 -1.65379 0
M  V30 13741 C 1291.44 -3.58283 0.408105 0
M  V30 13742 O 1290.54 -4.08156 -0.590104 0
M  V30 13743 H 1289.88 -0.646451 0.151647 0
M  V30 13744 H 1292.41 -1.75443 1.05265 0
M  V30 13745 H 1292.42 -4.07127 0.266711 0
M  V30 13746 H 1291.1 -3.91335 1.40819 0
M  V30 13747 H 1289.67 -3.70622 -0.411524 0
M  V30 13748 N 1291.86 -0.526279 -1.48553 0
M  V30 13749 C 1293.28 -0.183886 -1.58537 0
M  V30 13750 C 1293.48 1.31272 -1.52872 0
M  V30 13751 O 1292.53 2.09069 -1.41585 0
M  V30 13752 C 1293.84 -0.78313 -2.90323 0
M  V30 13753 C 1295.39 -0.751527 -3.03844 0
M  V30 13754 C 1295.87 -1.32928 -4.38285 0
M  V30 13755 N 1297.36 -1.29109 -4.44843 0
M  V30 13756 C 1298.09 -1.70806 -5.47369 0
M  V30 13757 N 1297.59 -2.20215 -6.56869 0
M  V30 13758 N 1299.38 -1.62065 -5.3823 0
M  V30 13759 H 1291.53 -1.499 -1.50478 0
M  V30 13760 H 1293.8 -0.623294 -0.714289 0
M  V30 13761 H 1293.5 -1.83371 -3.00113 0
M  V30 13762 H 1293.38 -0.25808 -3.76316 0
M  V30 13763 H 1295.76 0.290282 -2.93669 0
M  V30 13764 H 1295.84 -1.314 -2.19471 0
M  V30 13765 H 1295.49 -2.37 -4.49214 0
M  V30 13766 H 1295.42 -0.742516 -5.21339 0
M  V30 13767 H 1297.91 -0.929348 -3.66294 0
M  V30 13768 H 1298.22 -2.50035 -7.31233 0
M  V30 13769 H 1296.57 -2.24206 -6.57842 0
M  V30 13770 H 1299.76 -1.23265 -4.51579 0
M  V30 13771 H 1299.93 -1.94883 -6.18001 0
M  V30 13772 N 1293.34 1.5542 -0.261239 0
M  V30 13773 C 1294.27 2.24949 0.626126 0
M  V30 13774 C 1295.25 1.23474 1.16997 0
M  V30 13775 O 1296.43 1.52161 1.20667 0
M  V30 13776 C 1293.56 2.95996 1.81669 0
M  V30 13777 C 1292.52 4.04282 1.40499 0
M  V30 13778 C 1291.84 4.62831 2.67753 0
M  V30 13779 C 1293.14 5.1923 0.56543 0
M  V30 13780 H 1294.84 2.99364 0.0463164 0
M  V30 13781 H 1292.38 1.43985 0.0208366 0
M  V30 13782 H 1294.34 3.43343 2.44323 0
M  V30 13783 H 1293.06 2.19093 2.42211 0
M  V30 13784 H 1291.72 3.57726 0.801712 0
M  V30 13785 H 1291.37 3.82611 3.26524 0
M  V30 13786 H 1291.07 5.35938 2.40925 0
M  V30 13787 H 1292.59 5.12918 3.31281 0
M  V30 13788 H 1294.01 5.62714 1.09663 0
M  V30 13789 H 1292.4 5.98814 0.392607 0
M  V30 13790 H 1293.47 4.83086 -0.419059 0
M  V30 13791 N 1294.82 -0.0116844 1.57596 0
M  V30 13792 C 1296.04 -0.713924 1.94725 0
M  V30 13793 C 1296.47 -1.67157 0.862565 0
M  V30 13794 O 1295.82 -1.80401 -0.180308 0
M  V30 13795 C 1295.87 -1.43214 3.30941 0
M  V30 13796 O 1294.98 -2.5461 3.24419 0
M  V30 13797 H 1294.32 -0.190772 0.636005 0
M  V30 13798 H 1296.85 0.0380247 2.04565 0
M  V30 13799 H 1296.86 -1.79819 3.66237 0
M  V30 13800 H 1295.53 -0.729906 4.09445 0
M  V30 13801 H 1294.11 -2.20419 3.00782 0
M  V30 13802 N 1296.29 -1.55015 -0.284256 0
M  V30 13803 C 1297.24 -1.83508 -1.3531 0
M  V30 13804 C 1298.23 -0.693244 -1.452 0
M  V30 13805 O 1299.42 -0.954312 -1.4907 0
M  V30 13806 C 1296.55 -2.10059 -2.71533 0
M  V30 13807 C 1295.63 -3.30472 -2.65799 0
M  V30 13808 N 1296.03 -4.50644 -2.29682 0
M  V30 13809 C 1294.32 -3.32836 -2.96878 0
M  V30 13810 C 1295.02 -5.32708 -2.33661 0
M  V30 13811 N 1294 -4.70837 -2.71687 0
M  V30 13812 H 1297.8 -2.73973 -1.06377 0
M  V30 13813 H 1295.32 -1.5474 -0.492875 0
M  V30 13814 H 1297.31 -2.28624 -3.48621 0
M  V30 13815 H 1295.97 -1.20872 -3.01364 0
M  V30 13816 H 1296.98 -4.76945 -2.0185 0
M  V30 13817 H 1293.66 -2.53807 -3.31494 0
M  V30 13818 H 1295.05 -6.38766 -2.08394 0
M  V30 13819 N 1297.77 0.548248 -1.47757 0
M  V30 13820 C 1298.72 1.65453 -1.60916 0
M  V30 13821 C 1299.69 1.59836 -0.451831 0
M  V30 13822 O 1300.87 1.78536 -0.673023 0
M  V30 13823 C 1298.01 3.0376 -1.6378 0
M  V30 13824 C 1297.13 3.19747 -2.90492 0
M  V30 13825 C 1296.26 4.48505 -2.84635 0
M  V30 13826 C 1295.3 4.57956 -4.06132 0
M  V30 13827 N 1294.44 5.78079 -3.98458 0
M  V30 13828 H 1299.28 1.53545 -2.55398 0
M  V30 13829 H 1296.81 0.747826 -1.26673 0
M  V30 13830 H 1298.77 3.8386 -1.63424 0
M  V30 13831 H 1297.4 3.14483 -0.728036 0
M  V30 13832 H 1296.45 2.3302 -3.00676 0
M  V30 13833 H 1297.77 3.22594 -3.8044 0
M  V30 13834 H 1296.92 5.36875 -2.82577 0
M  V30 13835 H 1295.66 4.48151 -1.92385 0
M  V30 13836 H 1294.66 3.67995 -4.08484 0
M  V30 13837 H 1295.89 4.60062 -4.9952 0
M  V30 13838 H 1293.84 5.78657 -3.09017 0
M  V30 13839 H 1293.75 5.82342 -4.82093 0
M  V30 13840 H 1295.02 6.68786 -4.00431 0
M  V30 13841 N 1299.25 1.36039 0.795694 0
M  V30 13842 C 1300.66 1.2679 1.37044 0
M  V30 13843 C 1301.01 -0.0950192 1.9597 0
M  V30 13844 O 1300.14 -0.996311 1.921 0
M  V30 13845 C 1300.73 2.29585 2.49151 0
M  V30 13846 C 1299.29 2.24044 3.02458 0
M  V30 13847 C 1298.44 2.14703 1.75493 0
M  V30 13848 H 1301.39 1.47009 0.597843 0
M  V30 13849 H 1301.41 1.92864 3.27999 0
M  V30 13850 H 1300.92 3.28769 2.06234 0
M  V30 13851 H 1299.02 1.28307 3.49812 0
M  V30 13852 H 1299.14 3.1647 3.597 0
M  V30 13853 H 1297.5 1.60856 1.97478 0
M  V30 13854 H 1298.28 3.15765 1.34713 0
M  V30 13855 N 1300.73 -1.01913 1.20215 0
M  V30 13856 C 1301.95 -1.79613 1.03702 0
M  V30 13857 C 1302.38 -1.83591 -0.409374 0
M  V30 13858 O 1301.74 -1.26911 -1.29473 0
M  V30 13859 C 1301.78 -3.22052 1.62219 0
M  V30 13860 O 1300.89 -4.03374 0.858106 0
M  V30 13861 H 1300.23 -0.554095 0.365889 0
M  V30 13862 H 1302.76 -1.28203 1.59452 0
M  V30 13863 H 1302.77 -3.72772 1.65847 0
M  V30 13864 H 1301.44 -3.18471 2.67487 0
M  V30 13865 H 1300.02 -3.6198 0.895835 0
M  V30 13866 N 1302.21 -1.00763 -1.2118 0
M  V30 13867 C 1303.48 -0.607236 -1.85935 0
M  V30 13868 C 1303.86 0.915048 -1.90237 0
M  V30 13869 O 1303.21 1.80308 -1.40361 0
M  V30 13870 C 1303.42 -1.24466 -3.26051 0
M  V30 13871 C 1304.77 -1.35443 -4.02418 0
M  V30 13872 O 1305.79 -1.20018 -3.35372 0
M  V30 13873 O 1304.65 -1.60282 -5.22467 0
M  V30 13874 H 1301.75 -0.208338 -0.800328 0
M  V30 13875 H 1304.29 -1.10444 -1.28842 0
M  V30 13876 H 1303.06 -2.28524 -3.17635 0
M  V30 13877 H 1302.69 -0.733966 -3.90767 0
M  V30 13878 N 1303.68 1.3679 -0.7827 0
M  V30 13879 C 1305.1 1.52719 -0.463594 0
M  V30 13880 C 1305.3 1.73827 1.01914 0
M  V30 13881 O 1304.36 1.76591 1.80477 0
M  V30 13882 C 1305.67 2.71709 -1.2882 0
M  V30 13883 C 1307.22 2.85577 -1.2812 0
M  V30 13884 C 1307.69 4.07564 -2.0894 0
M  V30 13885 N 1309.18 4.14697 -2.0635 0
M  V30 13886 C 1309.92 5.08147 -2.65659 0
M  V30 13887 N 1309.41 6.07083 -3.33799 0
M  V30 13888 N 1311.21 5.00712 -2.55429 0
M  V30 13889 H 1303.36 1.21342 -1.74327 0
M  V30 13890 H 1305.62 0.591719 -0.740657 0
M  V30 13891 H 1305.33 2.62612 -2.3394 0
M  V30 13892 H 1305.2 3.65686 -0.924873 0
M  V30 13893 H 1307.59 2.94139 -0.237947 0
M  V30 13894 H 1307.67 1.92528 -1.68424 0
M  V30 13895 H 1307.31 3.99763 -3.13293 0
M  V30 13896 H 1307.24 4.99748 -1.66011 0
M  V30 13897 H 1309.73 3.43856 -1.56752 0
M  V30 13898 H 1310.05 6.74939 -3.764 0
M  V30 13899 H 1308.39 6.07329 -3.379 0
M  V30 13900 H 1311.58 4.22367 -2.01802 0
M  V30 13901 H 1311.76 5.73354 -3.01943 0
M  V30 13902 N 1305.16 0.53415 1.48272 0
M  V30 13903 C 1306.57 0.0947592 1.86459 0
M  V30 13904 C 1306.92 -1.32906 1.44328 0
M  V30 13905 O 1306.05 -1.99605 0.835866 0
M  V30 13906 C 1306.64 0.16519 3.38397 0
M  V30 13907 C 1305.2 -0.219029 3.75762 0
M  V30 13908 C 1304.35 0.523097 2.72321 0
M  V30 13909 H 1307.3 0.74517 1.40117 0
M  V30 13910 H 1307.32 -0.622065 3.75381 0
M  V30 13911 H 1306.83 1.20157 3.69031 0
M  V30 13912 H 1304.94 -1.2574 3.50742 0
M  V30 13913 H 1305.05 0.123482 4.78941 0
M  V30 13914 H 1303.41 -0.0311323 2.54681 0
M  V30 13915 H 1304.2 1.56019 3.05799 0
M  V30 13916 N 1306.64 -1.55279 0.269478 0
M  V30 13917 C 1307.59 -2.23723 -0.636468 0
M  V30 13918 C 1308.58 -1.23234 -1.16232 0
M  V30 13919 O 1309.79 -1.41181 -1.1166 0
M  V30 13920 H 1306.16 -0.71793 -0.223788 0
M  V30 13921 H 1308.13 -2.98378 -0.0363057 0
M  V30 13922 C 1306.88 -2.96755 -1.81195 0
M  V30 13923 H 1306.21 -3.73865 -1.4165 0
M  V30 13924 H 1307.65 -3.47975 -2.42258 0
M  V30 13925 C 1306.11 -2.01905 -2.69696 0
M  V30 13926 O 1306.64 -1.56662 -3.69892 0
M  V30 13927 N 1304.84 -1.68524 -2.36744 0
M  V30 13928 H 1304.39 -2.05512 -1.55314 0
M  V30 13929 H 1304.35 -1.05331 -2.96231 0
M  V30 13930 N 1308.12 0.00332656 -1.576 0
M  V30 13931 C 1309.37 0.687508 -1.90047 0
M  V30 13932 C 1309.69 1.74497 -0.870388 0
M  V30 13933 O 1308.96 1.95681 0.0926544 0
M  V30 13934 H 1307.54 0.256924 -0.701426 0
M  V30 13935 H 1310.2 -0.0368129 -1.94865 0
M  V30 13936 H 1309.3 1.16086 -2.89707 0
M  V30 13937 N 1309.6 1.55164 0.276031 0
M  V30 13938 C 1310.51 1.90928 1.36321 0
M  V30 13939 C 1311.52 0.806183 1.54197 0
M  V30 13940 O 1312.7 1.10497 1.68382 0
M  V30 13941 C 1309.76 2.17123 2.70293 0
M  V30 13942 C 1308.82 3.40703 2.6119 0
M  V30 13943 C 1308.06 3.65638 3.88773 0
M  V30 13944 O 1308.28 2.93137 4.89313 0
M  V30 13945 O 1307.21 4.59172 3.89159 0
M  V30 13946 H 1311.04 2.8347 1.08988 0
M  V30 13947 H 1308.63 1.41672 0.474292 0
M  V30 13948 H 1310.51 2.3541 3.49514 0
M  V30 13949 H 1309.18 1.27765 2.97419 0
M  V30 13950 H 1308.09 3.27754 1.80355 0
M  V30 13951 H 1309.42 4.30271 2.39014 0
M  V30 13952 N 1311.07 -0.540404 1.48045 0
M  V30 13953 C 1312.04 -1.62813 1.61322 0
M  V30 13954 C 1313.04 -1.53243 0.487161 0
M  V30 13955 O 1314.23 -1.571 0.752684 0
M  V30 13956 C 1311.36 -3.02408 1.5736 0
M  V30 13957 H 1312.55 -1.52385 2.583 0
M  V30 13958 H 1310.11 -0.761654 1.36486 0
M  V30 13959 H 1310.84 -3.18353 0.618195 0
M  V30 13960 H 1310.63 -3.10763 2.39099 0
M  V30 13961 H 1312.12 -3.8151 1.69822 0
M  V30 13962 N 1312.55 -1.36459 -0.788468 0
M  V30 13963 C 1313.5 -1.30863 -1.90115 0
M  V30 13964 C 1314.47 -0.177148 -1.65153 0
M  V30 13965 O 1315.65 -0.363817 -1.87299 0
M  V30 13966 C 1312.79 -1.10473 -3.2694 0
M  V30 13967 C 1311.91 -2.32704 -3.63968 0
M  V30 13968 C 1311.04 -2.05319 -4.89916 0
M  V30 13969 C 1310.08 -3.23506 -5.19625 0
M  V30 13970 N 1309.22 -2.9578 -6.36756 0
M  V30 13971 H 1314.06 -2.26003 -1.94233 0
M  V30 13972 H 1311.6 -1.12324 -0.949827 0
M  V30 13973 H 1313.55 -0.966773 -4.05844 0
M  V30 13974 H 1312.18 -0.189873 -3.22241 0
M  V30 13975 H 1311.24 -2.573 -2.8018 0
M  V30 13976 H 1312.55 -3.20899 -3.81871 0
M  V30 13977 H 1311.7 -1.88459 -5.76687 0
M  V30 13978 H 1310.44 -1.14437 -4.74084 0
M  V30 13979 H 1309.45 -3.40924 -4.31336 0
M  V30 13980 H 1310.67 -4.15216 -5.37376 0
M  V30 13981 H 1308.62 -2.0751 -6.22315 0
M  V30 13982 H 1308.53 -3.77513 -6.54996 0
M  V30 13983 H 1309.8 -2.825 -7.26508 0
M  V30 13984 N 1314.03 1.01274 -1.20754 0
M  V30 13985 C 1315.26 1.78524 -1.04579 0
M  V30 13986 C 1315.67 1.84409 0.404809 0
M  V30 13987 O 1315.03 1.29987 1.281 0
M  V30 13988 C 1315.08 3.22806 -1.62722 0
M  V30 13989 O 1314.8 3.17276 -3.02106 0
M  V30 13990 C 1316.3 4.16589 -1.51553 0
M  V30 13991 H 1313.52 0.561299 -0.367674 0
M  V30 13992 H 1316.07 1.27454 -1.59924 0
M  V30 13993 H 1314.22 3.71011 -1.11487 0
M  V30 13994 H 1314.64 4.07866 -3.29766 0
M  V30 13995 H 1316.11 5.15654 -1.9699 0
M  V30 13996 H 1316.59 4.36692 -0.468659 0
M  V30 13997 H 1317.19 3.74269 -2.01998 0
M  V30 13998 N 1315.51 1.01404 1.20644 0
M  V30 13999 C 1316.42 0.591693 2.27016 0
M  V30 14000 C 1317.44 -0.36958 1.7003 0
M  V30 14001 O 1318.61 -0.231165 2.00069 0
M  V30 14002 C 1315.68 -0.0659827 3.46637 0
M  V30 14003 C 1314.74 0.940911 4.18862 0
M  V30 14004 C 1313.97 0.314526 5.32772 0
M  V30 14005 O 1314.19 -0.886404 5.63471 0
M  V30 14006 O 1313.13 1.02998 5.93022 0
M  V30 14007 H 1316.95 1.4772 2.65353 0
M  V30 14008 H 1314.54 0.783399 1.27213 0
M  V30 14009 H 1316.42 -0.433412 4.19165 0
M  V30 14010 H 1315.1 -0.925729 3.10181 0
M  V30 14011 H 1314 1.35966 3.48517 0
M  V30 14012 H 1315.34 1.77054 4.59252 0
M  V30 14013 N 1316.99 -1.36373 0.789944 0
M  V30 14014 C 1317.92 -2.32616 0.202944 0
M  V30 14015 C 1318.9 -1.56674 -0.662364 0
M  V30 14016 O 1320.08 -1.84826 -0.596078 0
M  V30 14017 C 1317.21 -3.4092 -0.662646 0
M  V30 14018 C 1316.17 -4.27877 0.102811 0
M  V30 14019 C 1315.49 -5.27352 -0.883407 0
M  V30 14020 C 1316.79 -5.0606 1.29231 0
M  V30 14021 H 1318.49 -2.81958 1.00699 0
M  V30 14022 H 1316.03 -1.35562 0.48568 0
M  V30 14023 H 1317.99 -4.07239 -1.08324 0
M  V30 14024 H 1316.71 -2.90147 -1.4994 0
M  V30 14025 H 1315.37 -3.63114 0.504389 0
M  V30 14026 H 1315.02 -4.72853 -1.71521 0
M  V30 14027 H 1314.72 -5.86398 -0.375669 0
M  V30 14028 H 1316.24 -5.96545 -1.30256 0
M  V30 14029 H 1317.66 -5.65417 0.947446 0
M  V30 14030 H 1316.05 -5.74521 1.73338 0
M  V30 14031 H 1317.12 -4.37671 2.08739 0
M  V30 14032 N 1318.47 -0.542005 -1.47987 0
M  V30 14033 C 1319.71 -0.0144711 -2.04395 0
M  V30 14034 C 1320.07 1.30441 -1.40887 0
M  V30 14035 O 1321.27 1.91872 -1.88252 0
M  V30 14036 C 1319.54 0.0926282 -3.5728 0
M  V30 14037 S 1321.1 0.568487 -4.35102 0
M  V30 14038 H 1317.92 -0.0178299 -0.710776 0
M  V30 14039 H 1320.52 -0.725294 -1.81548 0
M  V30 14040 H 1319.22 -0.871888 -4.01032 0
M  V30 14041 H 1318.76 0.827468 -3.84599 0
M  V30 14042 H 1320.77 1.83092 -4.61185 0
M  V30 14043 N 1319.94 1.55134 -0.277709 0
M  V30 14044 C 1320.85 2.26296 0.618658 0
M  V30 14045 C 1321.87 1.28978 1.16794 0
M  V30 14046 O 1323.05 1.61918 1.19768 0
M  V30 14047 C 1320.11 2.97214 1.78508 0
M  V30 14048 C 1319.17 4.10016 1.27221 0
M  V30 14049 C 1318.4 4.77543 2.38304 0
M  V30 14050 O 1318.63 4.44293 3.57715 0
M  V30 14051 O 1317.56 5.65437 2.06313 0
M  V30 14052 H 1321.39 3.03671 0.0421031 0
M  V30 14053 H 1318.97 1.49332 -0.0450166 0
M  V30 14054 H 1320.85 3.41773 2.46513 0
M  V30 14055 H 1319.53 2.22753 2.34867 0
M  V30 14056 H 1318.44 3.69907 0.558544 0
M  V30 14057 H 1319.77 4.86385 0.754333 0
M  V30 14058 N 1321.42 0.00503138 1.57599 0
M  V30 14059 C 1322.37 -1.00294 2.09866 0
M  V30 14060 C 1323.36 -1.35267 1.01977 0
M  V30 14061 O 1324.57 -1.33772 1.20437 0
M  V30 14062 H 1320.94 -0.341112 0.670184 0
M  V30 14063 H 1322.92 -0.536595 2.93536 0
M  V30 14064 C 1321.66 -2.28432 2.62133 0
M  V30 14065 H 1320.99 -2.02391 3.44787 0
M  V30 14066 H 1322.43 -2.97227 3.02378 0
M  V30 14067 C 1320.89 -2.99758 1.53774 0
M  V30 14068 O 1321.42 -3.90939 0.923563 0
M  V30 14069 N 1319.62 -2.61671 1.26398 0
M  V30 14070 H 1319.17 -1.87605 1.76528 0
M  V30 14071 H 1319.13 -3.09707 0.541168 0
M  V30 14072 N 1322.9 -1.55308 -0.267798 0
M  V30 14073 C 1324.15 -1.7642 -1.00019 0
M  V30 14074 C 1324.48 -0.566559 -1.85752 0
M  V30 14075 O 1323.75 0.435752 -1.89556 0
M  V30 14076 C 1324.04 -3.07229 -1.87836 0
M  V30 14077 C 1323.89 -4.37358 -1.05061 0
M  V30 14078 C 1325.21 -3.34113 -2.86455 0
M  V30 14079 H 1322.33 -0.641859 -0.362197 0
M  V30 14080 H 1324.97 -1.8804 -0.272188 0
M  V30 14081 H 1323.12 -2.97454 -2.49907 0
M  V30 14082 H 1324.79 -4.59098 -0.450208 0
M  V30 14083 H 1323.03 -4.32351 -0.354242 0
M  V30 14084 H 1323.71 -5.25223 -1.69838 0
M  V30 14085 H 1326.18 -3.43715 -2.34519 0
M  V30 14086 H 1325.06 -4.26896 -3.45038 0
M  V30 14087 H 1325.32 -2.54005 -3.61848 0
M  V30 14088 N 1324.38 0.532545 -1.4833 0
M  V30 14089 C 1325.65 1.29371 -1.46705 0
M  V30 14090 C 1326.03 2.10354 -0.177329 0
M  V30 14091 O 1325.38 2.12462 0.840968 0
M  V30 14092 C 1325.59 2.17733 -2.72751 0
M  V30 14093 C 1326.94 2.77956 -3.20976 0
M  V30 14094 O 1327.96 2.28022 -2.7365 0
M  V30 14095 O 1326.82 3.68779 -4.03317 0
M  V30 14096 H 1323.92 0.58378 -0.585773 0
M  V30 14097 H 1326.46 0.549411 -1.6056 0
M  V30 14098 H 1325.24 1.57659 -3.58133 0
M  V30 14099 H 1324.86 2.99415 -2.61603 0
M  V30 14100 N 1325.86 1.36875 0.78122 0
M  V30 14101 C 1327.27 1.28236 1.35692 0
M  V30 14102 C 1327.62 -0.0742286 1.9606 0
M  V30 14103 O 1326.74 -0.97588 1.93146 0
M  V30 14104 C 1327.34 2.32215 2.46702 0
M  V30 14105 C 1325.9 2.2724 3.00065 0
M  V30 14106 C 1325.04 2.16553 1.73206 0
M  V30 14107 H 1327.99 1.47634 0.582217 0
M  V30 14108 H 1328.02 1.96333 3.25935 0
M  V30 14109 H 1327.53 3.30938 2.02735 0
M  V30 14110 H 1325.63 1.3201 3.48431 0
M  V30 14111 H 1325.74 3.20267 3.56323 0
M  V30 14112 H 1324.11 1.62941 1.95761 0
M  V30 14113 H 1324.89 3.17176 1.31356 0
M  V30 14114 N 1327.33 -1.00632 1.21289 0
M  V30 14115 C 1328.28 -2.11502 0.96798 0
M  V30 14116 C 1329.28 -1.6919 -0.0843024 0
M  V30 14117 O 1330.48 -1.79875 0.06697 0
M  V30 14118 H 1326.86 -0.691398 0.295759 0
M  V30 14119 H 1328.83 -2.29337 1.90911 0
M  V30 14120 C 1327.58 -3.43357 0.547818 0
M  V30 14121 H 1326.9 -3.76348 1.34915 0
M  V30 14122 H 1328.34 -4.21957 0.415759 0
M  V30 14123 C 1326.8 -3.28648 -0.741086 0
M  V30 14124 O 1327.33 -3.59267 -1.79695 0
M  V30 14125 N 1325.53 -2.81866 -0.707084 0
M  V30 14126 H 1325.08 -2.57149 0.152447 0
M  V30 14127 H 1325.04 -2.72406 -1.56979 0
M  V30 14128 N 1328.81 -1.02043 -1.20104 0
M  V30 14129 C 1330.04 -0.731142 -1.94085 0
M  V30 14130 C 1330.46 0.702467 -1.74491 0
M  V30 14131 O 1329.82 1.48387 -1.04168 0
M  V30 14132 C 1329.87 -1.07691 -3.44144 0
M  V30 14133 O 1328.97 -0.190751 -4.11959 0
M  V30 14134 H 1328.31 -0.270917 -0.606218 0
M  V30 14135 H 1330.84 -1.36483 -1.52426 0
M  V30 14136 H 1330.85 -1.03023 -3.94779 0
M  V30 14137 H 1329.53 -2.1214 -3.57728 0
M  V30 14138 H 1328.1 -0.29529 -3.71729 0
M  V30 14139 N 1330.29 1.35952 -0.797165 0
M  V30 14140 C 1331.7 1.81554 -0.435311 0
M  V30 14141 C 1332.05 1.66266 1.04164 0
M  V30 14142 O 1331.18 1.18796 1.80877 0
M  V30 14143 C 1331.77 3.29619 -0.783358 0
M  V30 14144 C 1330.33 3.73401 -0.47423 0
M  V30 14145 C 1329.48 2.58098 -1.01394 0
M  V30 14146 H 1332.43 1.24064 -0.989638 0
M  V30 14147 H 1332.45 3.80421 -0.0773381 0
M  V30 14148 H 1331.96 3.40715 -1.85836 0
M  V30 14149 H 1330.06 3.6786 0.592418 0
M  V30 14150 H 1330.18 4.68542 -1.00026 0
M  V30 14151 H 1328.54 2.50927 -0.436747 0
M  V30 14152 H 1329.32 2.71976 -2.09485 0
M  V30 14153 N 1331.77 0.549846 1.47697 0
M  V30 14154 C 1332.73 -0.191427 2.28399 0
M  V30 14155 C 1333.73 -0.849533 1.36527 0
M  V30 14156 O 1334.92 -0.706526 1.59229 0
M  V30 14157 C 1332.05 -1.27907 3.15995 0
M  V30 14158 H 1333.25 0.517375 2.95404 0
M  V30 14159 H 1330.8 0.30651 1.53265 0
M  V30 14160 H 1331.53 -2.0205 2.53665 0
M  V30 14161 H 1331.32 -0.812066 3.83599 0
M  V30 14162 H 1332.81 -1.79992 3.76819 0
M  V30 14163 N 1333.25 -1.54984 0.285932 0
M  V30 14164 C 1334.21 -2.2164 -0.583824 0
M  V30 14165 C 1335.21 -1.19764 -1.073 0
M  V30 14166 O 1336.4 -1.44598 -0.971439 0
M  V30 14167 C 1333.53 -2.8909 -1.80665 0
M  V30 14168 H 1334.72 -2.999 -0.00168109 0
M  V30 14169 H 1332.28 -1.56257 0.0366325 0
M  V30 14170 H 1333.01 -2.14869 -2.42903 0
M  V30 14171 H 1332.8 -3.63756 -1.4637 0
M  V30 14172 H 1334.29 -3.39982 -2.42491 0
M  V30 14173 N 1334.72 -0.0133892 -1.57594 0
M  V30 14174 C 1335.67 0.97367 -2.09257 0
M  V30 14175 C 1336.64 1.33298 -0.990998 0
M  V30 14176 O 1337.83 1.42903 -1.26425 0
M  V30 14177 C 1334.97 2.25603 -2.61147 0
M  V30 14178 C 1334.08 1.95456 -3.85254 0
M  V30 14179 C 1333.21 3.17871 -4.25596 0
M  V30 14180 C 1332.25 2.83471 -5.42504 0
M  V30 14181 N 1331.39 3.98464 -5.78075 0
M  V30 14182 H 1336.23 0.526189 -2.93318 0
M  V30 14183 H 1333.77 0.248148 -1.44992 0
M  V30 14184 H 1335.73 3.00587 -2.89315 0
M  V30 14185 H 1334.36 2.67995 -1.7994 0
M  V30 14186 H 1333.41 1.10781 -3.63912 0
M  V30 14187 H 1334.72 1.6611 -4.70328 0
M  V30 14188 H 1333.87 4.0119 -4.55117 0
M  V30 14189 H 1332.61 3.50365 -3.39257 0
M  V30 14190 H 1331.62 1.98562 -5.12692 0
M  V30 14191 H 1332.84 2.5221 -6.30529 0
M  V30 14192 H 1330.79 4.3083 -4.94694 0
M  V30 14193 H 1330.71 3.72688 -6.57753 0
M  V30 14194 H 1331.97 4.82532 -6.12195 0
M  V30 14195 N 1336.2 1.55448 0.259558 0
M  V30 14196 C 1337.15 1.89248 1.32113 0
M  V30 14197 C 1338.12 0.745348 1.48438 0
M  V30 14198 O 1339.3 0.997854 1.62627 0
M  V30 14199 C 1336.44 2.18161 2.67394 0
M  V30 14200 C 1335.56 3.45614 2.59182 0
M  V30 14201 C 1334.69 3.6416 3.86731 0
M  V30 14202 C 1333.73 4.85258 3.73084 0
M  V30 14203 N 1332.87 5.00391 4.92497 0
M  V30 14204 H 1337.71 2.79785 1.02589 0
M  V30 14205 H 1335.25 1.38509 0.495338 0
M  V30 14206 H 1337.2 2.32927 3.46122 0
M  V30 14207 H 1335.83 1.30843 2.95093 0
M  V30 14208 H 1334.89 3.39248 1.72091 0
M  V30 14209 H 1336.2 4.34483 2.45002 0
M  V30 14210 H 1335.35 3.78817 4.73902 0
M  V30 14211 H 1334.09 2.73501 4.03793 0
M  V30 14212 H 1333.1 4.70591 2.84296 0
M  V30 14213 H 1334.32 5.77365 3.57528 0
M  V30 14214 H 1332.27 4.12666 5.09944 0
M  V30 14215 H 1332.18 5.83328 4.809 0
M  V30 14216 H 1333.45 5.19446 5.81202 0
M  V30 14217 N 1337.68 -0.524672 1.4861 0
M  V30 14218 C 1338.63 -1.62872 1.63527 0
M  V30 14219 C 1339.6 -1.59097 0.477202 0
M  V30 14220 O 1340.78 -1.77443 0.701341 0
M  V30 14221 C 1337.92 -3.01116 1.68592 0
M  V30 14222 C 1337.04 -3.15085 2.95542 0
M  V30 14223 C 1336.17 -4.4392 2.91734 0
M  V30 14224 C 1335.21 -4.51436 4.13366 0
M  V30 14225 N 1334.35 -5.71667 4.07605 0
M  V30 14226 H 1339.19 -1.49462 2.57808 0
M  V30 14227 H 1336.72 -0.727578 1.27846 0
M  V30 14228 H 1338.68 -3.81212 1.6951 0
M  V30 14229 H 1337.31 -3.13285 0.777975 0
M  V30 14230 H 1336.36 -2.28207 3.04345 0
M  V30 14231 H 1337.68 -3.165 3.85524 0
M  V30 14232 H 1336.83 -5.32312 2.91083 0
M  V30 14233 H 1335.57 -4.45034 1.9949 0
M  V30 14234 H 1334.57 -3.6145 4.14287 0
M  V30 14235 H 1335.8 -4.52057 5.06776 0
M  V30 14236 H 1333.74 -5.73668 3.18184 0
M  V30 14237 H 1333.66 -5.74599 4.91297 0
M  V30 14238 H 1334.93 -6.62331 4.1102 0
M  V30 14239 N 1339.16 -1.37287 -0.77395 0
M  V30 14240 C 1340.39 -1.35366 -1.56075 0
M  V30 14241 C 1340.8 0.0634437 -1.89094 0
M  V30 14242 O 1340.14 1.03503 -1.51766 0
M  V30 14243 C 1340.2 -2.12512 -2.89964 0
M  V30 14244 C 1339.87 -3.61492 -2.79593 0
M  V30 14245 C 1340.86 -4.55421 -2.50774 0
M  V30 14246 C 1338.55 -4.04585 -2.97684 0
M  V30 14247 C 1340.54 -5.90421 -2.4017 0
M  V30 14248 C 1338.23 -5.39672 -2.86701 0
M  V30 14249 C 1339.23 -6.32403 -2.57984 0
M  V30 14250 O 1338.91 -7.65006 -2.47024 0
M  V30 14251 H 1338.65 -0.465447 -0.49024 0
M  V30 14252 H 1341.2 -1.81199 -0.967273 0
M  V30 14253 H 1339.43 -1.61366 -3.51423 0
M  V30 14254 H 1341.12 -2.03253 -3.51345 0
M  V30 14255 H 1341.89 -4.23438 -2.36485 0
M  V30 14256 H 1337.76 -3.32769 -3.19038 0
M  V30 14257 H 1341.31 -6.62769 -2.17676 0
M  V30 14258 H 1337.21 -5.71258 -3.00558 0
M  V30 14259 H 1337.97 -7.75302 -2.6239 0
M  V30 14260 N 1340.64 0.999871 -1.21821 0
M  V30 14261 C 1341.88 1.74098 -1.04009 0
M  V30 14262 C 1342.22 1.89499 0.424716 0
M  V30 14263 O 1341.49 1.43306 1.31505 0
M  V30 14264 C 1341.77 3.1506 -1.74382 0
M  V30 14265 C 1341.63 3.0735 -3.28414 0
M  V30 14266 C 1342.95 4.1409 -1.49055 0
M  V30 14267 H 1340.06 0.631935 -0.379245 0
M  V30 14268 H 1342.71 1.16534 -1.50066 0
M  V30 14269 H 1340.86 3.64206 -1.35227 0
M  V30 14270 H 1342.53 2.65879 -3.76969 0
M  V30 14271 H 1340.77 2.44325 -3.58452 0
M  V30 14272 H 1341.44 4.07069 -3.72825 0
M  V30 14273 H 1343.92 3.73672 -1.83054 0
M  V30 14274 H 1342.79 5.10853 -2.008 0
M  V30 14275 H 1343.06 4.40085 -0.421641 0
M  V30 14276 N 1342.11 1.02678 1.19562 0
M  V30 14277 C 1343.34 0.741424 1.93695 0
M  V30 14278 C 1343.76 -0.693203 1.74861 0
M  V30 14279 O 1343.12 -1.47833 1.04953 0
M  V30 14280 C 1343.17 1.09514 3.43568 0
M  V30 14281 O 1342.27 0.212596 4.11852 0
M  V30 14282 H 1341.62 0.274128 0.604773 0
M  V30 14283 H 1344.15 1.37289 1.517 0
M  V30 14284 H 1344.16 1.05115 3.94227 0
M  V30 14285 H 1342.83 2.14034 3.56598 0
M  V30 14286 H 1341.41 0.315 3.71567 0
M  V30 14287 N 1343.59 -1.35528 0.804364 0
M  V30 14288 C 1344.82 -2.02779 0.395517 0
M  V30 14289 C 1345.23 -1.60764 -0.997572 0
M  V30 14290 O 1344.57 -0.799737 -1.65378 0
M  V30 14291 C 1344.64 -3.57302 0.396904 0
M  V30 14292 C 1344.3 -4.22574 1.74012 0
M  V30 14293 C 1345.3 -4.44411 2.69806 0
M  V30 14294 C 1342.98 -4.59738 2.02352 0
M  V30 14295 C 1344.98 -5.02511 3.92124 0
M  V30 14296 C 1342.66 -5.17553 3.24934 0
M  V30 14297 C 1343.66 -5.38881 4.19638 0
M  V30 14298 O 1343.35 -5.95478 5.40056 0
M  V30 14299 H 1343.08 -0.657003 0.15913 0
M  V30 14300 H 1345.63 -1.74176 1.08867 0
M  V30 14301 H 1343.86 -3.85087 -0.352836 0
M  V30 14302 H 1345.55 -4.05899 0.0106754 0
M  V30 14303 H 1346.32 -4.16081 2.49202 0
M  V30 14304 H 1342.2 -4.42452 1.2945 0
M  V30 14305 H 1345.74 -5.19075 4.66055 0
M  V30 14306 H 1341.64 -5.4531 3.45409 0
M  V30 14307 H 1342.41 -6.13931 5.41323 0
M  V30 14308 N 1345.07 -0.557671 -1.47404 0
M  V30 14309 C 1346.02 0.202834 -2.31714 0
M  V30 14310 C 1347.01 0.908873 -1.42954 0
M  V30 14311 O 1348.22 0.830106 -1.59716 0
M  V30 14312 H 1344.59 0.0842824 -0.747262 0
M  V30 14313 H 1346.57 -0.527431 -2.93702 0
M  V30 14314 C 1345.31 1.21937 -3.25617 0
M  V30 14315 H 1344.64 0.685506 -3.93879 0
M  V30 14316 H 1346.08 1.72237 -3.87441 0
M  V30 14317 C 1344.54 2.26748 -2.49173 0
M  V30 14318 O 1345.07 3.33681 -2.23651 0
M  V30 14319 N 1343.27 2.00687 -2.10174 0
M  V30 14320 H 1342.82 1.13741 -2.3113 0
M  V30 14321 H 1342.78 2.71031 -1.59342 0
M  V30 14322 N 1346.55 1.54831 -0.294147 0
M  V30 14323 C 1347.5 2.24707 0.600795 0
M  V30 14324 C 1348.49 1.25067 1.14257 0
M  V30 14325 O 1349.7 1.42939 1.094 0
M  V30 14326 H 1346.07 0.721399 0.212338 0
M  V30 14327 H 1348.04 2.98398 -0.0111682 0
M  V30 14328 C 1346.79 2.996 1.76451 0
M  V30 14329 H 1346.12 3.76072 1.35684 0
M  V30 14330 H 1347.56 3.51785 2.36692 0
M  V30 14331 C 1346.01 2.0617 2.6645 0
M  V30 14332 O 1346.54 1.62527 3.67353 0
M  V30 14333 N 1344.75 1.7227 2.34033 0
M  V30 14334 H 1344.3 2.07957 1.52025 0
M  V30 14335 H 1344.26 1.10031 2.94518 0
M  V30 14336 N 1348.03 0.0217466 1.57585 0
M  V30 14337 C 1348.96 -0.961069 2.12804 0
M  V30 14338 C 1349.94 -1.3442 1.04237 0
M  V30 14339 O 1351.12 -1.42412 1.32032 0
M  V30 14340 C 1348.25 -2.24586 2.64912 0
M  V30 14341 C 1347.21 -2.0037 3.78201 0
M  V30 14342 C 1346.53 -3.35051 4.16708 0
M  V30 14343 C 1347.83 -1.34879 5.04584 0
M  V30 14344 H 1349.53 -0.501222 2.95175 0
M  V30 14345 H 1347.07 -0.239649 1.41992 0
M  V30 14346 H 1349.03 -2.93715 3.02175 0
M  V30 14347 H 1347.75 -2.72723 1.79693 0
M  V30 14348 H 1346.41 -1.33662 3.41365 0
M  V30 14349 H 1346.06 -3.80932 3.28481 0
M  V30 14350 H 1345.76 -3.19656 4.93045 0
M  V30 14351 H 1347.28 -4.05459 4.56547 0
M  V30 14352 H 1348.7 -1.93997 5.3948 0
M  V30 14353 H 1347.09 -1.29906 5.85871 0
M  V30 14354 H 1348.16 -0.320774 4.83838 0
M  V30 14355 N 1349.51 -1.55583 -0.251311 0
M  V30 14356 C 1350.75 -1.77471 -0.981418 0
M  V30 14357 C 1351.08 -0.586228 -1.85141 0
M  V30 14358 O 1350.36 0.415623 -1.90007 0
M  V30 14359 C 1350.64 -3.09204 -1.84567 0
M  V30 14360 C 1350.5 -4.38448 -1.00417 0
M  V30 14361 C 1351.81 -3.37133 -2.82895 0
M  V30 14362 H 1348.93 -0.645664 -0.355369 0
M  V30 14363 H 1351.58 -1.88318 -0.252228 0
M  V30 14364 H 1349.73 -3.00087 -2.46738 0
M  V30 14365 H 1351.4 -4.5955 -0.40149 0
M  V30 14366 H 1349.64 -4.32703 -0.308365 0
M  V30 14367 H 1350.31 -5.26995 -1.64258 0
M  V30 14368 H 1352.79 -3.46183 -2.3086 0
M  V30 14369 H 1351.66 -4.30531 -3.40491 0
M  V30 14370 H 1351.92 -2.57829 -3.59133 0
M  V30 14371 N 1350.98 0.516783 -1.48886 0
M  V30 14372 C 1352.23 1.26841 -1.56825 0
M  V30 14373 C 1352.55 1.93957 -0.252998 0
M  V30 14374 O 1353.75 2.70681 -0.210765 0
M  V30 14375 C 1352.21 2.30223 -2.76633 0
M  V30 14376 C 1351.82 1.69117 -4.14853 0
M  V30 14377 C 1353.56 3.06313 -2.93893 0
M  V30 14378 C 1351.47 2.70516 -5.25904 0
M  V30 14379 H 1350.4 0.477087 -0.58387 0
M  V30 14380 H 1353.05 0.544187 -1.75245 0
M  V30 14381 H 1351.43 3.05739 -2.51674 0
M  V30 14382 H 1352.6 0.997003 -4.49885 0
M  V30 14383 H 1350.92 1.05473 -4.0282 0
M  V30 14384 H 1353.52 3.8211 -3.74027 0
M  V30 14385 H 1353.86 3.62976 -2.03848 0
M  V30 14386 H 1354.39 2.37911 -3.18815 0
M  V30 14387 H 1351.13 2.18655 -6.17956 0
M  V30 14388 H 1350.65 3.38221 -4.95345 0
M  V30 14389 H 1352.33 3.3325 -5.54575 0
M  V30 14390 O 1352.5 1.47313 0.661911 0
M  V30 14391 H 1353.19 1.42217 1.31507 0
M  V30 END ATOM
M  V30 BEGIN BOND
M  V30 END BOND
M  V30 END CTAB
M  END
$$$$
