drugbank_target|Q14833 Metabotropic glutamate receptor 4 (DB00142)
 OpenBabel12092119413D

  0  0  0     0  0            999 V3000
M  V30 BEGIN CTAB
M  V30 COUNTS 14370 14542 0 0 0
M  V30 BEGIN ATOM
M  V30 1 H -0.908 1.98254 -0.117106 0
M  V30 2 N 0 1.576 0 0
M  V30 3 C 0.933 2.03868 1.02534 0
M  V30 4 C 1.911 0.928543 1.3348 0
M  V30 5 O 3.095 1.19667 1.45644 0
M  V30 6 C 0.222 2.43627 2.35294 0
M  V30 7 C -0.732 3.65373 2.2001 0
M  V30 8 S 0.101 5.13292 1.52614 0
M  V30 9 C 1.257 5.56322 2.86805 0
M  V30 10 H 1.49 2.90518 0.631377 0
M  V30 11 H -0.977 1.52953 0.210867 0
M  V30 12 H 0.981 2.67203 3.11629 0
M  V30 13 H -0.358 1.57376 2.7183 0
M  V30 14 H -1.165 3.90944 3.18086 0
M  V30 15 H -1.563 3.418 1.51819 0
M  V30 16 H 0.729 5.58782 3.83104 0
M  V30 17 H 1.672 6.56266 2.65933 0
M  V30 18 H 2.08 4.83886 2.90714 0
M  V30 19 N 1.4781 -0.272755 1.55222 0
M  V30 20 C 2.8891 -0.84378 1.66545 0
M  V30 21 C 3.2401 -1.87035 0.592641 0
M  V30 22 O 2.3651 -2.14761 -0.265818 0
M  V30 23 C 2.9601 -1.53723 3.01918 0
M  V30 24 C 1.5191 -2.05628 3.15268 0
M  V30 25 C 0.6661 -0.898424 2.62343 0
M  V30 26 H 3.6171 -0.0490998 1.58624 0
M  V30 27 H 3.6381 -2.40421 2.94921 0
M  V30 28 H 3.1501 -0.78983 3.79978 0
M  V30 29 H 1.2511 -2.83329 2.41983 0
M  V30 30 H 1.3641 -2.27142 4.21833 0
M  V30 31 H -0.2719 -1.29186 2.19506 0
M  V30 32 H 0.5111 -0.164528 3.42906 0
M  V30 33 N 2.9562 -1.48159 -0.537278 0
M  V30 34 C 4.2042 -1.55497 -1.29094 0
M  V30 35 C 4.5252 -0.227454 -1.93669 0
M  V30 36 O 3.7952 0.750386 -1.80959 0
M  V30 37 H 2.3752 -0.572832 -0.47945 0
M  V30 38 H 5.0372 -1.84579 -0.625818 0
M  V30 39 H 4.1332 -2.33216 -2.07405 0
M  V30 40 N 4.4343 0.785586 -1.36625 0
M  V30 41 C 5.3813 1.89838 -1.31264 0
M  V30 42 C 6.3513 1.65115 -0.180633 0
M  V30 43 O 7.5363 1.87222 -0.36777 0
M  V30 44 C 4.6763 3.26706 -1.11163 0
M  V30 45 C 3.7893 3.63476 -2.33472 0
M  V30 46 C 2.9243 4.89481 -2.06353 0
M  V30 47 C 1.9633 5.18941 -3.24602 0
M  V30 48 N 1.1003 6.36131 -2.97123 0
M  V30 49 H 5.9403 1.93756 -2.26413 0
M  V30 50 H 3.4773 0.947454 -1.12524 0
M  V30 51 H 5.4353 4.05639 -0.975337 0
M  V30 52 H 4.0653 3.222 -0.196674 0
M  V30 53 H 3.1173 2.79636 -2.57891 0
M  V30 54 H 4.4293 3.81193 -3.21704 0
M  V30 55 H 3.5833 5.76288 -1.89675 0
M  V30 56 H 2.3223 4.73841 -1.15437 0
M  V30 57 H 1.3273 4.30615 -3.41834 0
M  V30 58 H 2.5523 5.36498 -4.16349 0
M  V30 59 H 0.4983 6.21875 -2.08823 0
M  V30 60 H 0.4153 6.54198 -3.78894 0
M  V30 61 H 1.6833 7.2591 -2.84033 0
M  V30 62 N 5.9124 1.20967 1.01018 0
M  V30 63 C 7.3284 0.965905 1.27053 0
M  V30 64 C 7.5284 -0.350785 1.98423 0
M  V30 65 O 6.5844 -1.07773 2.28344 0
M  V30 66 C 7.8974 2.15294 2.09926 0
M  V30 67 C 9.4454 2.19463 2.23171 0
M  V30 68 C 9.9204 3.3767 3.09424 0
M  V30 69 N 11.4114 3.37724 3.17012 0
M  V30 70 C 12.1464 4.25837 3.83993 0
M  V30 71 N 11.6424 5.24138 4.53047 0
M  V30 72 N 13.4354 4.1366 3.80581 0
M  V30 73 H 5.5864 2.0565 0.531194 0
M  V30 74 H 7.8494 0.90024 0.297106 0
M  V30 75 H 7.5554 3.10684 1.64828 0
M  V30 76 H 7.4294 2.13923 3.10672 0
M  V30 77 H 9.8164 1.24632 2.6749 0
M  V30 78 H 9.8974 2.2488 1.21912 0
M  V30 79 H 9.5414 4.32791 2.65808 0
M  V30 80 H 9.4714 3.29491 4.10784 0
M  V30 81 H 11.9624 2.6658 2.6785 0
M  V30 82 H 12.2754 5.87684 5.01844 0
M  V30 83 H 10.6204 5.28068 4.5185 0
M  V30 84 H 13.8114 3.36127 3.25785 0
M  V30 85 H 13.9844 4.82538 4.32505 0
M  V30 86 N 7.3905 -1.2043 1.01659 0
M  V30 87 C 8.6385 -1.89423 0.704522 0
M  V30 88 C 8.9595 -1.79231 -0.768197 0
M  V30 89 O 8.2295 -1.1947 -1.55254 0
M  V30 90 H 6.8095 -0.701178 0.257602 0
M  V30 91 H 9.4715 -1.4626 1.28818 0
M  V30 92 H 8.5675 -2.96052 0.987916 0
M  V30 93 N 8.8686 -0.792821 -1.36206 0
M  V30 94 C 9.7986 -0.207853 -2.32573 0
M  V30 95 C 10.7796 0.659055 -1.56813 0
M  V30 96 O 11.9646 0.592176 -1.84951 0
M  V30 97 C 9.0946 0.655449 -3.41059 0
M  V30 98 C 8.0486 -0.111842 -4.27854 0
M  V30 99 C 7.3746 0.872274 -5.27537 0
M  V30 100 C 8.6746 -1.30299 -5.05786 0
M  V30 101 H 10.3686 -1.01294 -2.81744 0
M  V30 102 H 7.9146 -0.48854 -1.3546 0
M  V30 103 H 9.8676 1.07464 -4.07467 0
M  V30 104 H 8.5916 1.49328 -2.90463 0
M  V30 105 H 7.2506 -0.512053 -3.63006 0
M  V30 106 H 6.8986 1.70523 -4.73214 0
M  V30 107 H 6.5986 0.363291 -5.86476 0
M  V30 108 H 8.1226 1.28996 -5.96818 0
M  V30 109 H 9.5366 -0.959379 -5.65216 0
M  V30 110 H 7.9336 -1.7455 -5.74154 0
M  V30 111 H 9.0036 -2.09663 -4.37229 0
M  V30 112 N 10.3467 1.47872 -0.545128 0
M  V30 113 C 11.5947 2.02093 -0.016553 0
M  V30 114 C 11.9157 1.42305 1.3332 0
M  V30 115 O 11.1857 0.593853 1.86682 0
M  V30 116 H 9.7657 0.746993 -0.00313038 0
M  V30 117 H 12.4277 1.81414 -0.712397 0
M  V30 118 H 11.5237 3.11996 0.0805422 0
M  V30 119 N 11.8248 0.280983 1.55075 0
M  V30 120 C 13.0708 -0.327573 2.00745 0
M  V30 121 C 13.4258 -1.53045 1.16598 0
M  V30 122 O 12.7188 -1.90221 0.229451 0
M  V30 123 C 12.9128 -0.754656 3.49342 0
M  V30 124 C 12.7418 0.40529 4.4787 0
M  V30 125 C 11.5118 0.890947 4.97383 0
M  V30 126 C 13.7098 1.24371 4.99035 0
M  V30 127 N 11.6918 2.01975 5.79724 0
M  V30 128 C 13.0628 2.22031 5.7888 0
M  V30 129 C 15.1178 1.27638 4.81262 0
M  V30 130 C 13.8208 3.22709 6.42846 0
M  V30 131 C 15.8468 2.27164 5.46031 0
M  V30 132 C 15.2088 3.23556 6.25692 0
M  V30 133 H 11.3078 -0.0848774 0.77738 0
M  V30 134 H 13.8918 0.406342 1.90413 0
M  V30 135 H 12.0628 -1.45778 3.60005 0
M  V30 136 H 13.7948 -1.34105 3.81835 0
M  V30 137 H 10.5498 0.469262 4.71269 0
M  V30 138 H 10.9738 2.58794 6.25584 0
M  V30 139 H 15.6158 0.544936 4.19274 0
M  V30 140 H 13.3338 3.96784 7.0398 0
M  V30 141 H 16.9198 2.30441 5.34217 0
M  V30 142 H 15.7998 3.99309 6.74924 0
M  V30 143 N 13.3029 -1.57598 0.00835791 0
M  V30 144 C 14.5489 -1.92046 -0.670055 0
M  V30 145 C 14.9039 -0.88351 -1.70915 0
M  V30 146 O 14.1969 0.103223 -1.91322 0
M  V30 147 C 14.3909 -3.3101 -1.34787 0
M  V30 148 C 14.2199 -4.48126 -0.375945 0
M  V30 149 C 12.9899 -5.05297 0.0166914 0
M  V30 150 C 15.1879 -5.1303 0.361272 0
M  V30 151 N 13.1699 -6.05931 0.985952 0
M  V30 152 C 14.5409 -6.08571 1.18495 0
M  V30 153 C 16.5959 -4.9609 0.42421 0
M  V30 154 C 15.2989 -6.88996 2.06584 0
M  V30 155 C 17.3249 -5.77107 1.29236 0
M  V30 156 C 16.6869 -6.72248 2.10386 0
M  V30 157 H 12.7859 -0.75096 -0.218136 0
M  V30 158 H 15.3699 -1.94572 0.0706669 0
M  V30 159 H 13.5409 -3.29342 -2.05884 0
M  V30 160 H 15.2729 -3.52864 -1.98164 0
M  V30 161 H 12.0279 -4.72279 -0.353435 0
M  V30 162 H 12.4519 -6.60932 1.4662 0
M  V30 163 H 17.0939 -4.22378 -0.188915 0
M  V30 164 H 14.8119 -7.62028 2.6896 0
M  V30 165 H 18.3979 -5.66038 1.34508 0
M  V30 166 H 17.2779 -7.33846 2.76476 0
M  V30 167 N 14.781 0.264519 -1.55364 0
M  V30 168 C 16.027 0.992314 -1.77552 0
M  V30 169 C 16.382 1.83626 -0.574379 0
M  V30 170 O 15.675 1.86648 0.432782 0
M  V30 171 C 15.869 1.9004 -3.02687 0
M  V30 172 C 15.698 1.14583 -4.34857 0
M  V30 173 C 14.468 0.858068 -4.97961 0
M  V30 174 C 16.666 0.532069 -5.1154 0
M  V30 175 N 14.648 0.0775974 -6.13851 0
M  V30 176 C 16.019 -0.113823 -6.19896 0
M  V30 177 C 18.074 0.440763 -4.95945 0
M  V30 178 C 16.777 -0.842231 -7.14352 0
M  V30 179 C 18.803 -0.274072 -5.90765 0
M  V30 180 C 18.165 -0.90867 -6.98515 0
M  V30 181 H 14.264 0.344811 -0.701875 0
M  V30 182 H 16.848 0.267141 -1.92859 0
M  V30 183 H 15.019 2.59775 -2.88741 0
M  V30 184 H 16.751 2.56243 -3.13243 0
M  V30 185 H 13.506 1.16547 -4.59036 0
M  V30 186 H 13.93 -0.300216 -6.76334 0
M  V30 187 H 18.572 0.917064 -4.12735 0
M  V30 188 H 16.29 -1.33019 -7.97077 0
M  V30 189 H 19.876 -0.345151 -5.80775 0
M  V30 190 H 18.756 -1.45299 -7.70622 0
M  V30 191 N 16.2591 1.48442 0.529413 0
M  V30 192 C 17.2221 1.62524 1.61612 0
M  V30 193 C 18.2221 0.498509 1.52877 0
M  V30 194 O 19.4121 0.76431 1.56537 0
M  V30 195 C 16.5441 1.59597 3.01233 0
M  V30 196 H 17.7371 2.59423 1.50465 0
M  V30 197 H 15.2901 1.37047 0.751514 0
M  V30 198 H 16.0251 0.641781 3.17886 0
M  V30 199 H 15.8101 2.41397 3.08982 0
M  V30 200 H 17.3001 1.72646 3.80241 0
M  V30 201 N 17.7372 -0.778329 1.37039 0
M  V30 202 C 19.1532 -1.07796 1.17695 0
M  V30 203 C 19.3532 -2.01498 0.00860115 0
M  V30 204 O 18.4092 -2.43901 -0.653352 0
M  V30 205 C 19.7222 -1.68178 2.49272 0
M  V30 206 C 21.2702 -1.80467 2.55735 0
M  V30 207 C 21.7452 -2.44263 3.87427 0
M  V30 208 N 23.2362 -2.51721 3.88833 0
M  V30 209 C 23.9712 -3.01919 4.87476 0
M  V30 210 N 23.4672 -3.5234 5.96513 0
M  V30 211 N 25.2602 -3.00733 4.74885 0
M  V30 212 H 17.4112 -0.156032 2.11826 0
M  V30 213 H 19.6742 -0.131844 0.938787 0
M  V30 214 H 19.3802 -1.06796 3.35093 0
M  V30 215 H 19.2542 -2.67554 2.65885 0
M  V30 216 H 21.6412 -2.40984 1.70325 0
M  V30 217 H 21.7222 -0.798656 2.43013 0
M  V30 218 H 21.3662 -1.84388 4.73248 0
M  V30 219 H 21.2962 -3.45458 3.9745 0
M  V30 220 H 23.7872 -2.1603 3.10063 0
M  V30 221 H 24.1002 -3.89027 6.67741 0
M  V30 222 H 22.4452 -3.50462 6.00168 0
M  V30 223 H 25.6362 -2.60638 3.88826 0
M  V30 224 H 25.8092 -3.39545 5.51918 0
M  V30 225 N 19.2153 -1.21501 -1.00376 0
M  V30 226 C 20.1453 -0.999478 -2.11028 0
M  V30 227 C 21.1263 0.0759671 -1.6993 0
M  V30 228 O 22.3113 -0.0841106 -1.94018 0
M  V30 229 C 19.4413 -0.564709 -3.42678 0
M  V30 230 C 18.3953 -1.58486 -3.97576 0
M  V30 231 C 17.7213 -1.00628 -5.25146 0
M  V30 232 C 19.0213 -2.97204 -4.29496 0
M  V30 233 H 20.7153 -1.92495 -2.29317 0
M  V30 234 H 18.2613 -0.92693 -1.102 0
M  V30 235 H 20.2143 -0.401091 -4.19487 0
M  V30 236 H 18.9383 0.396411 -3.24185 0
M  V30 237 H 17.5973 -1.73606 -3.22888 0
M  V30 238 H 17.2453 -0.0368439 -5.02987 0
M  V30 239 H 16.9453 -1.68771 -5.62841 0
M  V30 240 H 18.4693 -0.854015 -6.04598 0
M  V30 241 H 19.8833 -2.8552 -4.97143 0
M  V30 242 H 18.2803 -3.62372 -4.78338 0
M  V30 243 H 19.3503 -3.47956 -3.3772 0
M  V30 244 N 20.6934 1.19889 -1.02296 0
M  V30 245 C 22.1044 1.71124 -0.746568 0
M  V30 246 C 22.4554 1.81939 0.734335 0
M  V30 247 O 21.5804 1.48639 1.57275 0
M  V30 248 C 22.1754 3.10804 -1.34857 0
M  V30 249 C 20.7344 3.59323 -1.1209 0
M  V30 250 C 19.8814 2.3635 -1.45031 0
M  V30 251 H 22.8324 1.04813 -1.19163 0
M  V30 252 H 22.8534 3.73186 -0.742437 0
M  V30 253 H 22.3654 3.029 -2.42638 0
M  V30 254 H 20.4664 3.7255 -0.0610337 0
M  V30 255 H 20.5794 4.4378 -1.80544 0
M  V30 256 H 18.9434 2.39399 -0.869487 0
M  V30 257 H 19.7264 2.31081 -2.53883 0
M  V30 258 N 22.1715 0.800033 1.35784 0
M  V30 259 C 23.1015 0.220184 2.3246 0
M  V30 260 C 24.0825 -0.65073 1.57161 0
M  V30 261 O 25.2675 -0.582359 1.85263 0
M  V30 262 C 22.3975 -0.637353 3.41402 0
M  V30 263 C 21.3515 0.134531 4.27789 0
M  V30 264 C 20.6775 -0.844285 5.27992 0
M  V30 265 C 21.9775 1.32979 5.05088 0
M  V30 266 H 23.6715 1.02787 2.81203 0
M  V30 267 H 21.2175 0.495717 1.35199 0
M  V30 268 H 23.1705 -1.05302 4.08031 0
M  V30 269 H 21.8945 -1.47785 2.91251 0
M  V30 270 H 20.5535 0.531296 3.6273 0
M  V30 271 H 20.2015 -1.68011 4.74111 0
M  V30 272 H 19.9015 -0.332184 5.8666 0
M  V30 273 H 21.4255 -1.2583 5.97494 0
M  V30 274 H 22.8395 0.98934 5.64699 0
M  V30 275 H 21.2365 1.77593 5.7322 0
M  V30 276 H 22.3065 2.11978 4.36111 0
M  V30 277 N 23.6496 -1.47581 0.552962 0
M  V30 278 C 24.8896 -2.04379 0.0296245 0
M  V30 279 C 25.2536 -1.4185 -1.29393 0
M  V30 280 O 26.4546 -1.89669 -1.90471 0
M  V30 281 C 24.7256 -3.57339 -0.0661371 0
M  V30 282 S 26.2846 -4.35511 -0.536213 0
M  V30 283 H 23.1026 -0.710625 0.0230991 0
M  V30 284 H 25.7046 -1.81005 0.738734 0
M  V30 285 H 24.4086 -4.00374 0.901596 0
M  V30 286 H 23.9396 -3.85202 -0.798931 0
M  V30 287 H 25.9546 -4.6253 -1.79668 0
M  V30 288 N 25.1277 -0.289203 -1.54924 0
M  V30 289 C 26.0577 0.58549 -2.2604 0
M  V30 290 C 27.0387 1.14753 -1.25562 0
M  V30 291 O 28.2237 1.17906 -1.54311 0
M  V30 292 C 25.3537 1.76305 -2.99222 0
M  V30 293 C 24.3077 1.33191 -4.06748 0
M  V30 294 C 23.6337 2.5937 -4.6758 0
M  V30 295 C 24.9337 0.471775 -5.20165 0
M  V30 296 H 26.6277 -0.00763532 -2.99399 0
M  V30 297 H 24.1737 -0.00511229 -1.43999 0
M  V30 298 H 26.1267 2.38097 -3.47689 0
M  V30 299 H 24.8507 2.38223 -2.23422 0
M  V30 300 H 23.5097 0.737121 -3.59113 0
M  V30 301 H 23.1577 3.19576 -3.88433 0
M  V30 302 H 22.8577 2.31228 -5.40192 0
M  V30 303 H 24.3817 3.21985 -5.18804 0
M  V30 304 H 25.7957 0.995056 -5.64599 0
M  V30 305 H 24.1927 0.284639 -5.99425 0
M  V30 306 H 25.2627 -0.506041 -4.82252 0
M  V30 307 N 26.6058 1.57591 -0.0167156 0
M  V30 308 C 27.5358 2.12496 0.967858 0
M  V30 309 C 28.5168 1.03807 1.34752 0
M  V30 310 O 29.7018 1.31577 1.42833 0
M  V30 311 C 26.8318 2.64194 2.25431 0
M  V30 312 C 25.7858 3.77559 2.01576 0
M  V30 313 C 25.1118 4.15636 3.36379 0
M  V30 314 C 26.4118 5.04151 1.36489 0
M  V30 315 H 28.1058 2.95013 0.510643 0
M  V30 316 H 25.6518 1.41915 0.244181 0
M  V30 317 H 27.6048 3.01236 2.94678 0
M  V30 318 H 26.3288 1.78821 2.73296 0
M  V30 319 H 24.9878 3.40937 1.34751 0
M  V30 320 H 24.6358 3.27263 3.81979 0
M  V30 321 H 24.3358 4.92022 3.21229 0
M  V30 322 H 25.8598 4.5525 4.06915 0
M  V30 323 H 27.2738 5.38857 1.95718 0
M  V30 324 H 25.6708 5.85453 1.31776 0
M  V30 325 H 26.7408 4.83733 0.336219 0
M  V30 326 N 28.0839 -0.256276 1.55502 0
M  V30 327 C 29.0139 -1.32102 1.92539 0
M  V30 328 C 29.9949 -1.50684 0.789194 0
M  V30 329 O 31.1799 -1.63449 1.04872 0
M  V30 330 C 28.3099 -2.67752 2.21192 0
M  V30 331 C 27.2639 -2.63878 3.36975 0
M  V30 332 C 26.5899 -4.03236 3.51147 0
M  V30 333 C 27.8899 -2.21682 4.72921 0
M  V30 334 H 29.5839 -1.01351 2.81724 0
M  V30 335 H 27.1299 -0.486105 1.35547 0
M  V30 336 H 29.0829 -3.42365 2.45691 0
M  V30 337 H 27.8069 -3.0012 1.28824 0
M  V30 338 H 26.4659 -1.91722 3.12471 0
M  V30 339 H 26.1139 -4.32854 2.56216 0
M  V30 340 H 25.8139 -4.01535 4.29003 0
M  V30 341 H 27.3379 -4.79563 3.77957 0
M  V30 342 H 28.7519 -2.86023 4.96854 0
M  V30 343 H 27.1489 -2.3111 5.53812 0
M  V30 344 H 28.2189 -1.16833 4.70615 0
M  V30 345 N 29.562 -1.4872 -0.521534 0
M  V30 346 C 30.787 -1.61101 -1.30618 0
M  V30 347 C 31.212 -0.274611 -1.86085 0
M  V30 348 O 30.57 0.754937 -1.64834 0
M  V30 349 C 30.618 -2.66709 -2.4269 0
M  V30 350 O 29.722 -2.24456 -3.45967 0
M  V30 351 H 29.063 -0.539921 -0.386499 0
M  V30 352 H 31.593 -1.94767 -0.626645 0
M  V30 353 H 31.603 -2.88245 -2.88754 0
M  V30 354 H 30.278 -3.63727 -2.01682 0
M  V30 355 H 28.855 -2.13168 -3.05964 0
M  V30 356 N 31.0401 0.771051 -1.3745 0
M  V30 357 C 31.9701 1.89827 -1.3597 0
M  V30 358 C 32.9511 1.68562 -0.228216 0
M  V30 359 O 34.1361 1.8941 -0.428675 0
M  V30 360 C 31.2661 3.2712 -1.16662 0
M  V30 361 C 30.2201 3.6295 -2.2683 0
M  V30 362 C 29.5461 4.98791 -1.92644 0
M  V30 363 C 30.8461 3.69627 -3.69017 0
M  V30 364 H 32.5401 1.91323 -2.30295 0
M  V30 365 H 30.0861 0.919082 -1.10855 0
M  V30 366 H 32.0391 4.05615 -1.14256 0
M  V30 367 H 30.7631 3.26059 -0.187926 0
M  V30 368 H 29.4221 2.86763 -2.28392 0
M  V30 369 H 29.0701 4.94271 -0.933021 0
M  V30 370 H 28.7701 5.23733 -2.66416 0
M  V30 371 H 30.2941 5.79685 -1.91826 0
M  V30 372 H 31.7081 4.38273 -3.69581 0
M  V30 373 H 30.1051 4.06067 -4.41848 0
M  V30 374 H 31.1751 2.70273 -4.02592 0
M  V30 375 N 32.5182 1.22032 0.997298 0
M  V30 376 C 33.7482 1.06686 1.76923 0
M  V30 377 C 34.1562 -0.385838 1.85224 0
M  V30 378 O 33.4992 -1.27929 1.31833 0
M  V30 379 C 33.5612 1.59802 3.22031 0
M  V30 380 C 33.2252 3.08362 3.37286 0
M  V30 381 C 34.2222 4.05835 3.24952 0
M  V30 382 C 31.9072 3.47727 3.6248 0
M  V30 383 C 33.9012 5.4066 3.37588 0
M  V30 384 C 31.5882 4.82701 3.74757 0
M  V30 385 C 32.5862 5.78977 3.62319 0
M  V30 386 O 32.2742 7.11502 3.74193 0
M  V30 387 H 32.0062 0.374767 0.562606 0
M  V30 388 H 34.5602 1.61991 1.26286 0
M  V30 389 H 32.7902 0.989003 3.73839 0
M  V30 390 H 34.4792 1.40184 3.80924 0
M  V30 391 H 35.2452 3.76766 3.05405 0
M  V30 392 H 31.1242 2.73317 3.7124 0
M  V30 393 H 34.6682 6.15788 3.27796 0
M  V30 394 H 30.5652 5.11453 3.9381 0
M  V30 395 H 31.3332 7.19019 3.91093 0
M  V30 396 N 33.9963 -1.19345 1.0293 0
M  V30 397 C 35.2443 -1.88665 0.724574 0
M  V30 398 C 35.5653 -1.80036 -0.749144 0
M  V30 399 O 34.8353 -1.2111 -1.53978 0
M  V30 400 H 33.4153 -0.698406 0.265025 0
M  V30 401 H 36.0773 -1.44885 1.30362 0
M  V30 402 H 35.1733 -2.94987 1.01926 0
M  V30 403 N 35.4744 -0.807222 -1.35358 0
M  V30 404 C 36.8854 -0.44876 -1.81226 0
M  V30 405 C 37.2364 1.02929 -1.67033 0
M  V30 406 O 36.3614 1.79991 -1.20133 0
M  V30 407 C 36.9564 -0.807774 -3.2903 0
M  V30 408 C 35.5154 -0.501901 -3.73039 0
M  V30 409 C 34.6624 -1.03304 -2.57339 0
M  V30 410 H 37.6134 -0.998808 -1.23327 0
M  V30 411 H 37.6344 -0.10554 -3.80354 0
M  V30 412 H 37.1464 -1.88357 -3.39328 0
M  V30 413 H 35.2474 0.565128 -3.68289 0
M  V30 414 H 35.3604 -1.03497 -4.67787 0
M  V30 415 H 33.7244 -0.455339 -2.50597 0
M  V30 416 H 34.5074 -2.11496 -2.70415 0
M  V30 417 N 36.9525 1.47285 -0.560781 0
M  V30 418 C 38.1985 2.03347 -0.0463654 0
M  V30 419 C 38.5535 1.42702 1.2905 0
M  V30 420 O 37.8465 0.574619 1.8278 0
M  V30 421 C 38.0405 3.57258 0.100784 0
M  V30 422 C 37.8695 4.32827 -1.22027 0
M  V30 423 C 36.6395 4.72588 -1.78854 0
M  V30 424 C 38.8375 4.67739 -2.13834 0
M  V30 425 N 36.8195 5.32816 -3.04927 0
M  V30 426 C 38.1905 5.28307 -3.24487 0
M  V30 427 C 40.2455 4.49667 -2.13784 0
M  V30 428 C 38.9485 5.72711 -4.35194 0
M  V30 429 C 40.9745 4.95073 -3.23506 0
M  V30 430 C 40.3365 5.55693 -4.32879 0
M  V30 431 H 36.4355 0.779755 -0.0592166 0
M  V30 432 H 39.0195 1.79723 -0.748857 0
M  V30 433 H 37.1905 3.80642 0.772404 0
M  V30 434 H 38.9225 3.9996 0.617589 0
M  V30 435 H 35.6775 4.54656 -1.32609 0
M  V30 436 H 36.1015 5.67471 -3.69197 0
M  V30 437 H 40.7435 4.02154 -1.30507 0
M  V30 438 H 38.4615 6.19214 -5.1923 0
M  V30 439 H 42.0475 4.82859 -3.24559 0
M  V30 440 H 40.9275 5.90188 -5.1638 0
M  V30 441 N 38.4306 0.297415 1.54768 0
M  V30 442 C 39.3636 -0.622188 2.19554 0
M  V30 443 C 40.3416 -1.13558 1.16376 0
M  V30 444 O 41.5256 -1.20444 1.45002 0
M  V30 445 C 38.6526 -1.8509 2.83653 0
M  V30 446 C 37.6986 -1.47106 4.00328 0
M  V30 447 S 38.5316 -0.53006 5.3287 0
M  V30 448 C 39.6876 -1.76665 6.0045 0
M  V30 449 H 39.9206 -0.0717806 2.97213 0
M  V30 450 H 37.4536 0.0815678 1.54184 0
M  V30 451 H 39.4116 -2.55605 3.21211 0
M  V30 452 H 38.0726 -2.37247 2.05846 0
M  V30 453 H 37.2656 -2.38594 4.43947 0
M  V30 454 H 36.8676 -0.845885 3.64309 0
M  V30 455 H 39.1596 -2.7077 6.21039 0
M  V30 456 H 40.1026 -1.37308 6.9466 0
M  V30 457 H 40.5106 -1.94174 5.30054 0
M  V30 458 N 39.9087 -1.5758 0.0250728 0
M  V30 459 C 41.3197 -1.79476 -0.514323 0
M  V30 460 C 41.6707 -0.934956 -1.72491 0
M  V30 461 O 40.7957 -0.144245 -2.15919 0
M  V30 462 C 41.3907 -3.25503 -0.939842 0
M  V30 463 C 39.9497 -3.48408 -1.42438 0
M  V30 464 C 39.0967 -2.74583 -0.387201 0
M  V30 465 H 42.0477 -1.567 0.25113 0
M  V30 466 H 42.0687 -3.34992 -1.80445 0
M  V30 467 H 41.5807 -3.88056 -0.0585628 0
M  V30 468 H 39.6817 -2.91103 -2.32572 0
M  V30 469 H 39.7947 -4.57119 -1.43455 0
M  V30 470 H 38.1587 -2.39942 -0.854409 0
M  V30 471 H 38.9417 -3.39849 0.485543 0
M  V30 472 N 41.3868 0.248026 -1.55636 0
M  V30 473 C 42.6118 0.998028 -1.81808 0
M  V30 474 C 43.0368 1.78207 -0.601979 0
M  V30 475 O 42.3948 1.75653 0.448961 0
M  V30 476 C 42.4428 1.9125 -3.05705 0
M  V30 477 O 41.5468 3.00406 -2.82542 0
M  V30 478 H 40.8878 0.284045 -0.600179 0
M  V30 479 H 43.4178 0.269357 -2.02819 0
M  V30 480 H 43.4278 2.32737 -3.35108 0
M  V30 481 H 42.1028 1.33602 -3.93857 0
M  V30 482 H 40.6798 2.63056 -2.64303 0
M  V30 483 N 42.8649 1.48995 0.513639 0
M  V30 484 C 44.0899 1.61792 1.29762 0
M  V30 485 C 44.5149 0.284475 1.85936 0
M  V30 486 O 43.8729 -0.746185 1.65232 0
M  V30 487 C 43.9209 2.67993 2.41272 0
M  V30 488 O 43.0249 2.26287 3.44772 0
M  V30 489 H 42.3659 0.541963 0.38363 0
M  V30 490 H 44.8959 1.95097 0.616307 0
M  V30 491 H 44.9059 2.89772 2.87221 0
M  V30 492 H 43.5809 3.64791 1.9975 0
M  V30 493 H 42.1579 2.14788 3.04829 0
M  V30 494 N 44.343 -0.763751 1.37857 0
M  V30 495 C 45.273 -1.89103 1.36975 0
M  V30 496 C 46.254 -1.68439 0.237152 0
M  V30 497 O 47.439 -1.8918 0.438713 0
M  V30 498 C 44.569 -3.26496 1.18395 0
M  V30 499 C 43.523 -3.61741 2.28751 0
M  V30 500 C 42.849 -4.97762 1.95286 0
M  V30 501 C 44.149 -3.67665 3.70972 0
M  V30 502 H 45.843 -1.90099 2.31307 0
M  V30 503 H 43.389 -0.91319 1.11341 0
M  V30 504 H 45.342 -4.05003 1.16406 0
M  V30 505 H 44.066 -3.25955 0.205215 0
M  V30 506 H 42.725 -2.85547 2.29909 0
M  V30 507 H 42.373 -4.93769 0.959221 0
M  V30 508 H 42.073 -5.22313 2.69189 0
M  V30 509 H 43.597 -5.7866 1.94898 0
M  V30 510 H 45.011 -4.36307 3.719 0
M  V30 511 H 43.408 -4.03718 4.43995 0
M  V30 512 H 44.478 -2.68134 4.0402 0
M  V30 513 N 45.8211 -1.22559 -0.990812 0
M  V30 514 C 47.0691 -1.04933 -1.72724 0
M  V30 515 C 47.3901 0.416158 -1.90508 0
M  V30 516 O 46.6601 1.29918 -1.46622 0
M  V30 517 H 45.2401 -0.385296 -0.639965 0
M  V30 518 H 47.9021 -1.54105 -1.19322 0
M  V30 519 H 46.9981 -1.52886 -2.72089 0
M  V30 520 N 47.2992 1.18797 -1.03562 0
M  V30 521 C 48.2462 2.22253 -0.622259 0
M  V30 522 C 49.2162 1.61987 0.36736 0
M  V30 523 O 50.4012 1.88986 0.262492 0
M  V30 524 C 47.5412 3.45097 0.0138462 0
M  V30 525 C 46.6542 4.19722 -1.02263 0
M  V30 526 C 45.7892 5.30009 -0.355573 0
M  V30 527 C 44.8282 5.96399 -1.37749 0
M  V30 528 N 43.9652 6.98234 -0.735766 0
M  V30 529 H 48.8052 2.56968 -1.50903 0
M  V30 530 H 46.3422 1.26245 -0.755017 0
M  V30 531 H 48.3002 4.15279 0.399948 0
M  V30 532 H 46.9302 3.11018 0.864158 0
M  V30 533 H 45.9822 3.48418 -1.52673 0
M  V30 534 H 47.2942 4.65227 -1.79903 0
M  V30 535 H 46.4482 6.0664 0.0850095 0
M  V30 536 H 45.1872 4.85592 0.452967 0
M  V30 537 H 44.1922 5.18512 -1.82826 0
M  V30 538 H 45.4172 6.42899 -2.18764 0
M  V30 539 H 43.3632 6.55979 0.0525597 0
M  V30 540 H 43.2802 7.41965 -1.44995 0
M  V30 541 H 44.5482 7.78845 -0.31941 0
M  V30 542 N 48.7773 0.814389 1.34928 0
M  V30 543 C 50.1883 0.458364 1.80986 0
M  V30 544 C 50.5393 -1.02042 1.67577 0
M  V30 545 O 49.6643 -1.79352 1.21086 0
M  V30 546 C 50.2593 0.825212 3.28597 0
M  V30 547 C 48.8183 0.521677 3.72767 0
M  V30 548 C 47.9653 1.04668 2.56788 0
M  V30 549 H 50.9163 1.00533 1.22795 0
M  V30 550 H 50.9373 0.12571 3.80292 0
M  V30 551 H 50.4493 1.90154 3.38324 0
M  V30 552 H 48.5503 -0.545589 3.68584 0
M  V30 553 H 48.6633 1.05977 4.67232 0
M  V30 554 H 47.0273 0.468622 2.50352 0
M  V30 555 H 47.8103 2.12927 2.6929 0
M  V30 556 N 50.2554 -1.46986 0.568584 0
M  V30 557 C 51.2024 -2.30153 -0.172707 0
M  V30 558 C 52.1724 -1.39759 -0.897586 0
M  V30 559 O 53.3574 -1.68716 -0.891044 0
M  V30 560 C 50.4974 -3.23952 -1.1895 0
M  V30 561 C 49.6104 -4.29441 -0.469517 0
M  V30 562 C 48.7454 -5.1038 -1.47259 0
M  V30 563 C 47.7844 -6.07632 -0.738225 0
M  V30 564 N 46.9214 -6.8149 -1.68868 0
M  V30 565 H 51.7614 -2.93019 0.542596 0
M  V30 566 H 49.2984 -1.44422 0.279401 0
M  V30 567 H 51.2564 -3.76767 -1.79173 0
M  V30 568 H 49.8864 -2.62926 -1.87269 0
M  V30 569 H 48.9384 -3.79594 0.247467 0
M  V30 570 H 50.2504 -4.98689 0.105241 0
M  V30 571 H 49.4044 -5.67402 -2.14803 0
M  V30 572 H 48.1434 -4.4106 -2.08128 0
M  V30 573 H 47.1484 -5.49778 -0.0489293 0
M  V30 574 H 48.3734 -6.78966 -0.135129 0
M  V30 575 H 46.3194 -6.14891 -2.28573 0
M  V30 576 H 46.2364 -7.46948 -1.16636 0
M  V30 577 H 47.5044 -7.43078 -2.3549 0
M  V30 578 N 51.7335 -0.305618 -1.54608 0
M  V30 579 C 52.9815 0.301701 -1.99835 0
M  V30 580 C 53.3025 1.54054 -1.19551 0
M  V30 581 O 52.5725 1.93702 -0.292658 0
M  V30 582 H 51.1525 0.114468 -0.738178 0
M  V30 583 H 53.8145 -0.418016 -1.90364 0
M  V30 584 H 52.9105 0.570548 -3.06841 0
M  V30 585 N 53.2116 1.57565 -0.0334293 0
M  V30 586 C 54.1616 2.06978 0.956237 0
M  V30 587 C 55.1456 0.971193 1.28283 0
M  V30 588 O 56.3376 1.23471 1.26822 0
M  V30 589 C 53.4666 2.60393 2.23719 0
M  V30 590 C 52.5526 3.7719 1.93877 0
M  V30 591 N 52.9436 4.87639 1.34321 0
M  V30 592 C 51.2416 3.85758 2.23845 0
M  V30 593 C 51.9426 5.68825 1.21709 0
M  V30 594 N 50.9186 5.1587 1.71404 0
M  V30 595 H 54.7206 2.89773 0.490815 0
M  V30 596 H 52.2346 1.61492 0.171478 0
M  V30 597 H 54.2316 2.94088 2.95496 0
M  V30 598 H 52.8916 1.79031 2.70884 0
M  V30 599 H 53.9026 5.07803 1.01767 0
M  V30 600 H 50.5796 3.1531 2.73653 0
M  V30 601 H 51.9696 6.67631 0.75621 0
M  V30 602 N 54.6897 -0.239769 1.55765 0
M  V30 603 C 56.1007 -0.808263 1.68297 0
M  V30 604 C 56.4517 -1.85736 0.632181 0
M  V30 605 O 55.5767 -2.15277 -0.220204 0
M  V30 606 C 56.1717 -1.47284 3.05111 0
M  V30 607 C 54.7307 -1.98895 3.19559 0
M  V30 608 C 53.8777 -0.842575 2.64189 0
M  V30 609 H 56.8287 -0.0154422 1.58692 0
M  V30 610 H 56.8497 -2.34111 2.99954 0
M  V30 611 H 56.3617 -0.709053 3.81568 0
M  V30 612 H 54.4627 -2.78132 2.47938 0
M  V30 613 H 54.5757 -2.18143 4.26556 0
M  V30 614 H 52.9397 -1.24501 2.22197 0
M  V30 615 H 53.7227 -0.0917552 3.43177 0
M  V30 616 N 56.1678 -1.49265 -0.50573 0
M  V30 617 C 57.1178 -1.6198 -1.60457 0
M  V30 618 C 58.1018 -0.47568 -1.53708 0
M  V30 619 O 59.2938 -0.728392 -1.61318 0
M  V30 620 C 56.4228 -1.68526 -2.99089 0
M  V30 621 C 55.5088 -2.885 -3.10852 0
M  V30 622 N 55.8998 -4.12635 -2.92517 0
M  V30 623 C 54.1978 -2.86338 -3.41945 0
M  V30 624 C 54.8988 -4.93258 -3.08337 0
M  V30 625 N 53.8748 -4.26533 -3.37003 0
M  V30 626 H 57.6768 -2.55681 -1.44928 0
M  V30 627 H 55.1908 -1.45972 -0.711752 0
M  V30 628 H 57.1878 -1.75732 -3.78053 0
M  V30 629 H 55.8478 -0.759584 -3.1569 0
M  V30 630 H 56.8588 -4.42689 -2.68787 0
M  V30 631 H 53.5358 -2.03129 -3.64753 0
M  V30 632 H 54.9258 -6.01856 -2.98695 0
M  V30 633 N 57.6459 0.756429 -1.3826 0
M  V30 634 C 58.5789 1.87802 -1.29637 0
M  V30 635 C 59.5569 1.61667 -0.173939 0
M  V30 636 O 60.7409 1.85208 -0.350775 0
M  V30 637 C 57.8679 3.23354 -1.00797 0
M  V30 638 C 56.9139 3.68379 -2.14939 0
M  V30 639 S 57.7469 3.8025 -3.77054 0
M  V30 640 C 58.9029 5.18626 -3.50396 0
M  V30 641 H 59.1359 1.94829 -2.24564 0
M  V30 642 H 56.6689 0.919117 -1.24063 0
M  V30 643 H 58.6269 4.01637 -0.848413 0
M  V30 644 H 57.2879 3.14008 -0.0759369 0
M  V30 645 H 56.4809 4.66693 -1.90299 0
M  V30 646 H 56.0829 2.97242 -2.26988 0
M  V30 647 H 58.3749 6.04289 -3.06334 0
M  V30 648 H 59.3179 5.48286 -4.48094 0
M  V30 649 H 59.7259 4.87289 -2.84973 0
M  V30 650 N 59.124 1.23083 0.984299 0
M  V30 651 C 60.072 1.00593 2.09723 0
M  V30 652 C 61.066 -0.0538014 1.69315 0
M  V30 653 O 62.272 0.0993719 1.79725 0
M  V30 654 H 58.647 0.30817 0.685956 0
M  V30 655 H 60.618 1.95012 2.2586 0
M  V30 656 C 59.367 0.609601 3.42314 0
M  V30 657 H 58.69 1.41675 3.73856 0
M  V30 658 H 60.13 0.491726 4.21139 0
M  V30 659 C 58.589 -0.681745 3.2993 0
M  V30 660 O 59.119 -1.73192 3.62446 0
M  V30 661 N 57.325 -0.656178 2.83095 0
M  V30 662 H 56.872 0.198759 2.56832 0
M  V30 663 H 56.83 -1.52044 2.75191 0
M  V30 664 N 60.6021 -1.18246 1.0419 0
M  V30 665 C 61.8271 -1.92736 0.765996 0
M  V30 666 C 62.2521 -1.75728 -0.67091 0
M  V30 667 O 61.6101 -1.06825 -1.46486 0
M  V30 668 C 61.6581 -3.42148 1.13875 0
M  V30 669 O 60.7621 -4.11548 0.264954 0
M  V30 670 H 60.1031 -0.601238 0.281797 0
M  V30 671 H 62.6331 -1.49942 1.39207 0
M  V30 672 H 62.6431 -3.92858 1.1012 0
M  V30 673 H 61.3181 -3.53848 2.18551 0
M  V30 674 H 59.8951 -3.71137 0.362226 0
M  V30 675 N 62.0802 -0.821533 -1.34494 0
M  V30 676 C 63.3292 -0.405355 -1.97585 0
M  V30 677 C 63.6422 1.03677 -1.65863 0
M  V30 678 O 64.8482 1.55679 -2.22433 0
M  V30 679 C 63.3042 -0.673861 -3.53535 0
M  V30 680 C 62.9122 -2.12951 -3.94152 0
M  V30 681 C 64.6562 -0.32378 -4.23263 0
M  V30 682 C 62.5632 -2.34298 -5.43009 0
M  V30 683 H 61.4932 -0.147836 -0.739365 0
M  V30 684 H 64.1442 -1.00769 -1.53355 0
M  V30 685 H 62.5262 -0.00137554 -3.96 0
M  V30 686 H 63.7002 -2.84104 -3.62797 0
M  V30 687 H 62.0152 -2.44089 -3.37356 0
M  V30 688 H 64.6122 -0.461126 -5.32708 0
M  V30 689 H 64.9552 0.731586 -4.09821 0
M  V30 690 H 65.4882 -0.950786 -3.8627 0
M  V30 691 H 62.2272 -3.38335 -5.61435 0
M  V30 692 H 61.7472 -1.67687 -5.75883 0
M  V30 693 H 63.4262 -2.16588 -6.09671 0
M  V30 694 N 63.5583 1.46682 -0.576371 0
M  V30 695 C 64.9743 1.57822 -0.237562 0
M  V30 696 C 65.1743 1.57237 1.26011 0
M  V30 697 O 64.2303 1.48596 2.04146 0
M  V30 698 C 65.5433 2.87499 -0.881168 0
M  V30 699 C 67.0913 3.01119 -0.85417 0
M  V30 700 C 67.5663 4.33524 -1.4772 0
M  V30 701 N 69.0573 4.40207 -1.44125 0
M  V30 702 C 69.7923 5.4126 -1.89276 0
M  V30 703 N 69.2883 6.49021 -2.42371 0
M  V30 704 N 71.0813 5.32422 -1.80231 0
M  V30 705 H 63.2323 1.45306 -1.54919 0
M  V30 706 H 65.4953 0.692733 -0.647167 0
M  V30 707 H 65.2013 2.9372 -1.93447 0
M  V30 708 H 65.0753 3.75224 -0.385592 0
M  V30 709 H 67.4623 2.94485 0.190491 0
M  V30 710 H 67.5433 2.14887 -1.3877 0
M  V30 711 H 67.1873 4.40916 -2.52103 0
M  V30 712 H 67.1173 5.1852 -0.918947 0
M  V30 713 H 69.6083 3.62931 -1.05307 0
M  V30 714 H 69.9213 7.2233 -2.74698 0
M  V30 715 H 68.2663 6.49858 -2.46393 0
M  V30 716 H 71.4573 4.47137 -1.38514 0
M  V30 717 H 71.6303 6.11034 -2.15735 0
M  V30 718 N 65.0364 0.313813 1.54444 0
M  V30 719 C 66.2854 -0.292519 1.99568 0
M  V30 720 C 66.5984 -1.54011 1.20582 0
M  V30 721 O 67.8044 -2.22183 1.56035 0
M  V30 722 C 66.2604 -0.571752 3.55329 0
M  V30 723 C 65.8684 0.658229 4.43138 0
M  V30 724 C 67.6124 -1.13857 4.08946 0
M  V30 725 C 65.5194 0.351439 5.90355 0
M  V30 726 H 64.4494 -0.113079 0.745472 0
M  V30 727 H 67.1004 0.424518 1.78522 0
M  V30 728 H 65.4824 -1.34872 3.72325 0
M  V30 729 H 66.6564 1.43403 4.37918 0
M  V30 730 H 64.9714 1.14458 4.0036 0
M  V30 731 H 67.5684 -1.38257 5.16516 0
M  V30 732 H 67.9114 -2.08489 3.6033 0
M  V30 733 H 68.4444 -0.423015 3.95544 0
M  V30 734 H 65.1834 1.26667 6.43145 0
M  V30 735 H 64.7034 -0.386842 5.98551 0
M  V30 736 H 66.3824 -0.0423134 6.46986 0
M  V30 737 N 66.5145 -1.57545 0.0417849 0
M  V30 738 C 67.7915 -1.83642 -0.673433 0
M  V30 739 C 68.1715 -0.928298 -1.89594 0
M  V30 740 O 67.5195 0.0129955 -2.28496 0
M  V30 741 C 67.7295 -3.33155 -1.03964 0
M  V30 742 C 69.0775 -3.99941 -1.42592 0
M  V30 743 O 70.1015 -3.37725 -1.13226 0
M  V30 744 O 68.9605 -5.09619 -1.9736 0
M  V30 745 H 66.0545 -0.757638 -0.331533 0
M  V30 746 H 68.6005 -1.69554 0.070433 0
M  V30 747 H 67.3725 -3.9093 -0.170098 0
M  V30 748 H 66.9955 -3.52396 -1.84126 0
M  V30 749 N 67.9926 0.231505 -1.5589 0
M  V30 750 C 69.2406 0.955461 -1.78088 0
M  V30 751 C 69.5616 1.85262 -0.608533 0
M  V30 752 O 68.8316 1.92277 0.375035 0
M  V30 753 H 67.4116 0.355787 -0.656829 0
M  V30 754 H 70.0736 0.245751 -1.93344 0
M  V30 755 H 69.1696 1.56814 -2.69844 0
M  V30 756 N 69.4707 1.49531 0.497807 0
M  V30 757 C 70.7477 1.49682 1.25915 0
M  V30 758 C 71.1277 0.226339 2.09883 0
M  V30 759 O 70.4757 -0.791189 2.14365 0
M  V30 760 C 70.6857 2.77755 2.11313 0
M  V30 761 C 72.0337 3.27371 2.70395 0
M  V30 762 O 73.0577 2.78894 2.21578 0
M  V30 763 O 71.9167 4.11808 3.59272 0
M  V30 764 H 69.0107 0.599228 0.56996 0
M  V30 765 H 71.5567 1.61798 0.511816 0
M  V30 766 H 70.3287 3.61713 1.49264 0
M  V30 767 H 69.9517 2.68515 2.93233 0
M  V30 768 N 70.9488 -0.749086 1.3866 0
M  V30 769 C 72.1978 -1.50371 1.3443 0
M  V30 770 C 72.5108 -1.95503 -0.0616397 0
M  V30 771 O 73.7168 -2.70554 -0.226489 0
M  V30 772 C 72.1728 -2.71644 2.36088 0
M  V30 773 C 71.7808 -2.3352 3.82325 0
M  V30 774 C 73.5248 -3.49518 2.40909 0
M  V30 775 C 71.4318 -3.51431 4.75658 0
M  V30 776 H 70.3618 -0.564628 0.499712 0
M  V30 777 H 73.0128 -0.818449 1.64237 0
M  V30 778 H 71.3948 -3.42175 1.9933 0
M  V30 779 H 72.5688 -1.70627 4.28046 0
M  V30 780 H 70.8838 -1.6877 3.80665 0
M  V30 781 H 73.4808 -4.37197 3.07836 0
M  V30 782 H 73.8238 -3.90992 1.42937 0
M  V30 783 H 74.3568 -2.86005 2.76489 0
M  V30 784 H 71.0958 -3.15019 5.74842 0
M  V30 785 H 70.6158 -4.13352 4.34627 0
M  V30 786 H 72.2948 -4.17953 4.93887 0
M  V30 787 N 72.4269 -1.23603 -0.977757 0
M  V30 788 C 73.6549 -1.09646 -1.75458 0
M  V30 789 C 74.0699 0.351859 -1.85492 0
M  V30 790 O 73.4269 1.24327 -1.336 0
M  V30 791 C 73.4779 -1.71895 -3.18016 0
M  V30 792 O 73.1989 -3.11063 -3.08498 0
M  V30 793 C 74.6999 -1.63415 -4.12081 0
M  V30 794 H 71.9199 -0.38359 -0.550545 0
M  V30 795 H 74.4639 -1.63507 -1.22824 0
M  V30 796 H 72.6189 -1.22061 -3.67668 0
M  V30 797 H 73.0329 -3.41305 -3.9826 0
M  V30 798 H 74.5069 -2.11669 -5.09804 0
M  V30 799 H 74.9839 -0.593462 -4.35172 0
M  V30 800 H 75.5899 -2.12628 -3.68334 0
M  V30 801 N 73.905 1.17692 -1.04816 0
M  V30 802 C 74.835 2.23777 -0.666791 0
M  V30 803 C 75.816 1.66796 0.33361 0
M  V30 804 O 77.001 1.93039 0.212042 0
M  V30 805 C 74.131 3.47281 -0.0367933 0
M  V30 806 C 73.085 4.17059 -0.961546 0
M  V30 807 C 72.411 5.34342 -0.195626 0
M  V30 808 C 73.711 4.69713 -2.28402 0
M  V30 809 H 75.405 2.55933 -1.55367 0
M  V30 810 H 72.951 1.23019 -0.748484 0
M  V30 811 H 74.904 4.20706 0.241775 0
M  V30 812 H 73.628 3.14381 0.885004 0
M  V30 813 H 72.287 3.45541 -1.22462 0
M  V30 814 H 71.935 4.97692 0.728816 0
M  V30 815 H 71.635 5.81966 -0.811775 0
M  V30 816 H 73.159 6.10553 0.0757473 0
M  V30 817 H 74.573 5.34794 -2.06563 0
M  V30 818 H 72.97 5.279 -2.8538 0
M  V30 819 H 74.04 3.86726 -2.92525 0
M  V30 820 N 75.3831 0.828654 1.34056 0
M  V30 821 C 76.6311 0.41863 1.97717 0
M  V30 822 C 76.9521 -1.02314 1.66002 0
M  V30 823 O 76.2221 -1.71119 0.953683 0
M  V30 824 H 74.8021 0.151809 0.731412 0
M  V30 825 H 77.4641 1.05936 1.63596 0
M  V30 826 H 76.5601 0.542318 3.07352 0
M  V30 827 N 76.8612 -1.46375 0.584142 0
M  V30 828 C 78.1092 -2.01978 0.0701287 0
M  V30 829 C 78.4302 -1.4579 -1.295 0
M  V30 830 O 77.7002 -0.64314 -1.85042 0
M  V30 831 H 76.2802 -0.746648 0.0229345 0
M  V30 832 H 78.9422 -1.79461 0.760245 0
M  V30 833 H 78.0382 -3.121 0.0022064 0
M  V30 834 N 78.3393 -0.321999 -1.54275 0
M  V30 835 C 79.2693 0.537411 -2.27231 0
M  V30 836 C 80.2503 1.12064 -1.27968 0
M  V30 837 O 81.4353 1.14606 -1.56777 0
M  V30 838 C 78.5653 1.69919 -3.02894 0
M  V30 839 C 77.5193 1.24534 -4.09482 0
M  V30 840 C 76.8453 2.49394 -4.72977 0
M  V30 841 C 78.1453 0.361335 -5.21049 0
M  V30 842 H 79.8393 -0.0711406 -2.99315 0
M  V30 843 H 77.3853 -0.0356555 -1.43956 0
M  V30 844 H 79.3383 2.30668 -3.52662 0
M  V30 845 H 78.0623 2.33431 -2.28424 0
M  V30 846 H 76.7213 0.660782 -3.60596 0
M  V30 847 H 76.3693 3.11265 -3.95124 0
M  V30 848 H 76.0693 2.19718 -5.44975 0
M  V30 849 H 77.5933 3.10908 -5.25517 0
M  V30 850 H 79.0073 0.875072 -5.66582 0
M  V30 851 H 77.4043 0.157428 -5.99893 0
M  V30 852 H 78.4743 -0.60822 -4.8107 0
M  V30 853 N 79.8174 1.5752 -0.0501392 0
M  V30 854 C 81.0644 1.9265 0.623874 0
M  V30 855 C 81.3924 0.928411 1.70912 0
M  V30 856 O 80.6474 -0.0594525 1.9561 0
M  V30 857 C 80.9464 3.34467 1.25963 0
M  V30 858 C 80.6124 4.49883 0.302689 0
M  V30 859 C 79.2744 4.81184 0.0393636 0
M  V30 860 C 81.6264 5.20002 -0.353205 0
M  V30 861 C 78.9544 5.79951 -0.887308 0
M  V30 862 C 81.3064 6.1976 -1.26806 0
M  V30 863 C 79.9704 6.49491 -1.54007 0
M  V30 864 H 79.2404 0.704957 0.228292 0
M  V30 865 H 81.8874 1.91146 -0.116398 0
M  V30 866 H 80.1924 3.32333 2.07514 0
M  V30 867 H 81.8894 3.58928 1.78806 0
M  V30 868 H 78.4794 4.25457 0.518109 0
M  V30 869 H 82.6634 4.96033 -0.162854 0
M  V30 870 H 77.9194 6.01322 -1.10553 0
M  V30 871 H 82.0934 6.73205 -1.78236 0
M  V30 872 H 79.7204 7.25837 -2.25976 0
M  V30 873 N 81.2955 -0.223234 1.56011 0
M  V30 874 C 82.7065 -0.790368 1.69145 0
M  V30 875 C 83.0575 -1.85055 0.651845 0
M  V30 876 O 82.1825 -2.15498 -0.197359 0
M  V30 877 C 82.7775 -1.4404 3.06656 0
M  V30 878 C 81.3365 -1.95494 3.2165 0
M  V30 879 C 80.4835 -0.814506 2.65068 0
M  V30 880 H 83.4345 0.00139011 1.587 0
M  V30 881 H 83.4555 -2.30916 3.0242 0
M  V30 882 H 82.9675 -0.668543 3.82298 0
M  V30 883 H 81.0685 -2.75487 2.50874 0
M  V30 884 H 81.1815 -2.13607 4.28846 0
M  V30 885 H 79.5455 -1.22137 2.23505 0
M  V30 886 H 80.3285 -0.0553515 3.43255 0
M  V30 887 N 82.7736 -1.49793 -0.48987 0
M  V30 888 C 84.0196 -1.60078 -1.24511 0
M  V30 889 C 84.3526 -0.291608 -1.91998 0
M  V30 890 O 83.6276 0.705647 -1.81248 0
M  V30 891 C 83.9106 -2.76791 -2.30345 0
M  V30 892 C 83.7636 -4.17535 -1.67286 0
M  V30 893 C 85.0826 -2.89111 -3.31817 0
M  V30 894 H 82.2016 -0.582645 -0.451324 0
M  V30 895 H 84.8436 -1.82117 -0.541612 0
M  V30 896 H 82.9936 -2.5813 -2.90346 0
M  V30 897 H 84.6656 -4.4774 -1.11026 0
M  V30 898 H 82.9086 -4.22665 -0.976577 0
M  V30 899 H 83.5796 -4.95094 -2.44103 0
M  V30 900 H 86.0556 -3.06133 -2.81819 0
M  V30 901 H 84.9316 -3.72433 -4.03219 0
M  V30 902 H 85.1926 -1.9893 -3.94815 0
M  V30 903 N 84.2517 0.741722 -1.39055 0
M  V30 904 C 85.2017 1.84661 -1.33732 0
M  V30 905 C 86.1857 1.59397 -0.219401 0
M  V30 906 O 87.3777 1.71015 -0.456375 0
M  V30 907 C 84.5067 3.22512 -1.17647 0
M  V30 908 C 83.5927 3.53628 -2.34112 0
M  V30 909 N 83.9837 3.55723 -3.59576 0
M  V30 910 C 82.2817 3.83956 -2.26923 0
M  V30 911 C 82.9827 3.84443 -4.36553 0
M  V30 912 N 81.9587 4.01877 -3.66055 0
M  V30 913 H 85.7607 1.84576 -2.28711 0
M  V30 914 H 83.2747 0.939647 -1.32455 0
M  V30 915 H 85.2717 4.01597 -1.11917 0
M  V30 916 H 83.9317 3.2384 -0.236124 0
M  V30 917 H 84.9427 3.37196 -3.93089 0
M  V30 918 H 81.6197 3.92929 -1.41113 0
M  V30 919 H 83.0097 3.92588 -5.45274 0
M  V30 920 N 85.7298 1.2412 0.971189 0
M  V30 921 C 86.9778 1.07668 1.71032 0
M  V30 922 C 87.2988 -0.385797 1.91146 0
M  V30 923 O 86.5688 -1.27569 1.4867 0
M  V30 924 H 85.1488 0.395429 0.633755 0
M  V30 925 H 87.8108 1.55984 1.16855 0
M  V30 926 H 86.9068 1.57195 2.69622 0
M  V30 927 N 87.2079 -1.17134 1.05439 0
M  V30 928 C 88.6239 -1.39454 0.776201 0
M  V30 929 C 88.8239 -1.91454 -0.628307 0
M  V30 930 O 87.8799 -2.10777 -1.39031 0
M  V30 931 C 89.1929 -2.38305 1.83388 0
M  V30 932 C 90.7409 -2.52006 1.85639 0
M  V30 933 C 91.2159 -3.54133 2.90437 0
M  V30 934 N 92.7069 -3.61653 2.89415 0
M  V30 935 C 93.4419 -4.4044 3.67152 0
M  V30 936 N 92.9379 -5.22721 4.54681 0
M  V30 937 N 94.7309 -4.35337 3.55581 0
M  V30 938 H 86.8819 -0.817134 1.96053 0
M  V30 939 H 89.1449 -0.421626 0.849079 0
M  V30 940 H 88.8509 -2.07173 2.84204 0
M  V30 941 H 88.7249 -3.37841 1.67761 0
M  V30 942 H 91.1119 -2.82447 0.85486 0
M  V30 943 H 91.1929 -1.52537 2.05344 0
M  V30 944 H 90.8369 -3.24431 3.90777 0
M  V30 945 H 90.7669 -4.53313 2.67983 0
M  V30 946 H 93.2579 -3.02909 2.25952 0
M  V30 947 H 93.5709 -5.80027 5.10674 0
M  V30 948 H 91.9159 -5.22093 4.58741 0
M  V30 949 H 95.1069 -3.70112 2.86592 0
M  V30 950 H 95.2799 -4.96494 4.1641 0
M  V30 951 N 88.686 -0.835752 -1.33615 0
M  V30 952 C 89.934 -0.429109 -1.97492 0
M  V30 953 C 90.255 1.01433 -1.66543 0
M  V30 954 O 89.525 1.70611 -0.962744 0
M  V30 955 H 88.105 -0.155686 -0.730596 0
M  V30 956 H 90.767 -1.06802 -1.63031 0
M  V30 957 H 89.863 -0.55861 -3.0706 0
M  V30 958 N 90.1641 1.46063 -0.591896 0
M  V30 959 C 91.3891 2.07226 -0.0850314 0
M  V30 960 C 91.8141 1.43625 1.21463 0
M  V30 961 O 91.1721 0.523305 1.73583 0
M  V30 962 C 91.2201 3.60554 0.0576567 0
M  V30 963 O 90.3241 3.97128 1.11188 0
M  V30 964 H 89.6651 0.660615 -0.0669568 0
M  V30 965 H 92.1951 1.8756 -0.81745 0
M  V30 966 H 92.2051 4.07165 0.2609 0
M  V30 967 H 90.8801 4.06235 -0.891416 0
M  V30 968 H 89.4571 3.62213 0.886356 0
M  V30 969 N 91.6422 0.330177 1.54103 0
M  V30 970 C 92.5522 -0.541534 2.28264 0
M  V30 971 C 93.5682 -1.12351 1.32866 0
M  V30 972 O 94.7442 -1.14206 1.65888 0
M  V30 973 C 91.8092 -1.68322 3.03098 0
M  V30 974 C 90.8702 -1.13238 4.14096 0
M  V30 975 C 90.1032 -2.21966 4.85352 0
M  V30 976 O 90.3262 -3.42437 4.56172 0
M  V30 977 O 89.2602 -1.87013 5.7211 0
M  V30 978 H 93.0862 0.060938 3.03639 0
M  V30 979 H 90.6712 0.09565 1.49093 0
M  V30 980 H 92.5532 -2.34777 3.49939 0
M  V30 981 H 91.2282 -2.27176 2.30593 0
M  V30 982 H 90.1352 -0.432736 3.71589 0
M  V30 983 H 91.4682 -0.588898 4.88664 0
M  V30 984 N 93.1203 -1.57491 0.0584922 0
M  V30 985 C 94.3683 -1.92597 -0.612436 0
M  V30 986 C 94.6893 -0.938162 -1.70949 0
M  V30 987 O 93.9593 0.0158301 -1.95894 0
M  V30 988 H 92.5393 -0.710964 -0.229214 0
M  V30 989 H 95.2013 -1.94571 0.113218 0
M  V30 990 H 94.2973 -2.94038 -1.04633 0
M  V30 991 N 94.5984 0.214957 -1.56127 0
M  V30 992 C 95.5454 1.26642 -1.92952 0
M  V30 993 C 96.5154 1.46244 -0.78753 0
M  V30 994 O 97.7004 1.59704 -1.04399 0
M  V30 995 C 94.8404 2.6104 -2.25726 0
M  V30 996 C 93.9534 2.49183 -3.52891 0
M  V30 997 C 93.0884 3.76149 -3.7508 0
M  V30 998 C 92.1274 3.59041 -4.95738 0
M  V30 999 N 91.2644 4.77972 -5.14283 0
M  V30 1000 H 96.1044 0.945384 -2.82607 0
M  V30 1001 H 93.6414 0.455489 -1.3987 0
M  V30 1002 H 95.5994 3.39313 -2.42739 0
M  V30 1003 H 94.2294 2.91227 -1.39236 0
M  V30 1004 H 93.2814 1.6231 -3.44034 0
M  V30 1005 H 94.5934 2.32466 -4.41318 0
M  V30 1006 H 93.7474 4.62865 -3.92226 0
M  V30 1007 H 92.4864 3.95799 -2.84947 0
M  V30 1008 H 91.4914 2.7071 -4.78535 0
M  V30 1009 H 92.7164 3.40856 -5.87362 0
M  V30 1010 H 90.6624 4.97923 -4.27093 0
M  V30 1011 H 90.5794 4.64006 -5.96853 0
M  V30 1012 H 91.8474 5.66096 -5.35869 0
M  V30 1013 N 96.0765 1.50051 0.48192 0
M  V30 1014 C 97.4875 1.5348 1.06305 0
M  V30 1015 C 97.8385 0.331997 1.93371 0
M  V30 1016 O 96.9635 -0.556256 2.09129 0
M  V30 1017 C 97.5585 2.7813 1.93466 0
M  V30 1018 C 96.1175 2.84275 2.46707 0
M  V30 1019 C 95.2645 2.47637 1.24785 0
M  V30 1020 H 98.2155 1.56472 0.264995 0
M  V30 1021 H 98.2365 2.59372 2.78399 0
M  V30 1022 H 97.7485 3.65654 1.30072 0
M  V30 1023 H 95.8495 2.01077 3.13686 0
M  V30 1024 H 95.9625 3.8691 2.82555 0
M  V30 1025 H 94.3265 1.99835 1.57918 0
M  V30 1026 H 95.1095 3.37457 0.630694 0
M  V30 1027 N 97.5546 -0.734337 1.39446 0
M  V30 1028 C 98.7946 -1.50655 1.38139 0
M  V30 1029 C 99.1586 -1.91986 -0.0228701 0
M  V30 1030 O 100.36 -2.68318 -0.160947 0
M  V30 1031 C 98.6306 -2.71251 2.32718 0
M  V30 1032 S 100.19 -3.60892 2.49605 0
M  V30 1033 H 97.0076 -0.515315 0.489869 0
M  V30 1034 H 99.6096 -0.860392 1.75549 0
M  V30 1035 H 98.3136 -2.39027 3.33608 0
M  V30 1036 H 97.8446 -3.40795 1.96526 0
M  V30 1037 H 99.8596 -4.64899 1.73446 0
M  V30 1038 N 99.0327 -1.24633 -0.964593 0
M  V30 1039 C 100.281 -1.08573 -1.70459 0
M  V30 1040 C 100.602 0.375655 -1.91347 0
M  V30 1041 O 99.8717 1.26779 -1.49345 0
M  V30 1042 H 98.4517 -0.398784 -0.631649 0
M  V30 1043 H 101.114 -1.56601 -1.16026 0
M  V30 1044 H 100.21 -1.58623 -2.68785 0
M  V30 1045 N 100.511 1.16574 -1.06058 0
M  V30 1046 C 101.421 2.2452 -0.680282 0
M  V30 1047 C 102.437 1.71348 0.302604 0
M  V30 1048 O 103.613 2.00822 0.152513 0
M  V30 1049 C 100.678 3.46629 -0.0700315 0
M  V30 1050 C 99.7388 4.14849 -1.10448 0
M  V30 1051 C 98.9718 5.31129 -0.523256 0
M  V30 1052 O 99.1948 5.66514 0.664709 0
M  V30 1053 O 98.1288 5.88526 -1.26179 0
M  V30 1054 H 101.955 2.59355 -1.58015 0
M  V30 1055 H 99.5398 1.24043 -0.832694 0
M  V30 1056 H 101.422 4.20543 0.268667 0
M  V30 1057 H 100.097 3.13573 0.803353 0
M  V30 1058 H 99.0038 3.42916 -1.49532 0
M  V30 1059 H 100.337 4.51954 -1.94931 0
M  V30 1060 N 101.989 0.842826 1.3317 0
M  V30 1061 C 102.919 0.294028 2.31641 0
M  V30 1062 C 103.9 -0.600401 1.59151 0
M  V30 1063 O 105.085 -0.523124 1.87022 0
M  V30 1064 C 102.215 -0.528416 3.43257 0
M  V30 1065 C 101.169 0.27056 4.27144 0
M  V30 1066 C 100.495 -0.675881 5.30411 0
M  V30 1067 C 101.795 1.48981 5.00602 0
M  V30 1068 H 103.489 1.11681 2.77791 0
M  V30 1069 H 101.035 0.538478 1.33553 0
M  V30 1070 H 102.988 -0.922674 4.11175 0
M  V30 1071 H 101.712 -1.38445 2.95805 0
M  V30 1072 H 100.371 0.646427 3.60856 0
M  V30 1073 H 100.019 -1.52842 4.79216 0
M  V30 1074 H 99.7189 -0.145374 5.8742 0
M  V30 1075 H 101.243 -1.06757 6.01195 0
M  V30 1076 H 102.657 1.16849 5.61266 0
M  V30 1077 H 101.054 1.95739 5.6728 0
M  V30 1078 H 102.124 2.25746 4.29147 0
M  V30 1079 N 103.467 -1.45747 0.599634 0
M  V30 1080 C 104.414 -2.30467 -0.123849 0
M  V30 1081 C 105.384 -1.41632 -0.86774 0
M  V30 1082 O 106.569 -1.70568 -0.855056 0
M  V30 1083 C 103.709 -3.26402 -1.12051 0
M  V30 1084 C 102.822 -4.3034 -0.37832 0
M  V30 1085 C 101.957 -5.13389 -1.364 0
M  V30 1086 C 100.996 -6.09061 -0.609171 0
M  V30 1087 N 100.133 -6.84918 -1.54374 0
M  V30 1088 H 104.973 -2.91802 0.604627 0
M  V30 1089 H 102.51 -1.43797 0.309972 0
M  V30 1090 H 104.468 -3.80482 -1.7114 0
M  V30 1091 H 103.098 -2.66839 -1.8165 0
M  V30 1092 H 102.15 -3.78984 0.327929 0
M  V30 1093 H 103.462 -4.98354 0.210997 0
M  V30 1094 H 102.616 -5.7183 -2.02719 0
M  V30 1095 H 101.355 -4.45376 -1.98725 0
M  V30 1096 H 100.36 -5.49758 0.0676979 0
M  V30 1097 H 101.585 -6.79099 0.00891991 0
M  V30 1098 H 99.531 -6.19601 -2.15478 0
M  V30 1099 H 99.448 -7.49254 -1.00766 0
M  V30 1100 H 100.716 -7.47906 -2.19676 0
M  V30 1101 N 104.945 -0.338344 -1.53925 0
M  V30 1102 C 105.892 0.520845 -2.24846 0
M  V30 1103 C 106.862 1.09976 -1.24477 0
M  V30 1104 O 108.047 1.13735 -1.53196 0
M  V30 1105 C 105.187 1.6685 -3.02084 0
M  V30 1106 C 104.3 1.11739 -4.17299 0
M  V30 1107 C 103.435 2.23193 -4.82036 0
M  V30 1108 C 102.474 1.65407 -5.89328 0
M  V30 1109 N 101.611 2.70582 -6.47866 0
M  V30 1110 H 106.451 -0.0904881 -2.97863 0
M  V30 1111 H 103.988 -0.0564282 -1.46992 0
M  V30 1112 H 105.946 2.34407 -3.45122 0
M  V30 1113 H 104.576 2.2509 -2.31375 0
M  V30 1114 H 103.628 0.332919 -3.7894 0
M  V30 1115 H 104.94 0.654677 -4.94485 0
M  V30 1116 H 104.094 2.98626 -5.28117 0
M  V30 1117 H 102.833 2.72807 -4.04262 0
M  V30 1118 H 101.838 0.884779 -5.42634 0
M  V30 1119 H 103.063 1.16652 -6.69006 0
M  V30 1120 H 101.009 3.1946 -5.72959 0
M  V30 1121 H 100.926 2.28917 -7.20509 0
M  V30 1122 H 102.194 3.45799 -6.98601 0
M  V30 1123 N 106.423 1.57458 -0.0668435 0
M  V30 1124 C 107.333 2.15937 0.916975 0
M  V30 1125 C 108.349 1.12123 1.33058 0
M  V30 1126 O 109.525 1.44366 1.40429 0
M  V30 1127 C 106.59 2.70547 2.16807 0
M  V30 1128 C 105.651 3.89215 1.81135 0
M  V30 1129 C 104.884 4.41211 3.0028 0
M  V30 1130 O 105.107 3.92225 4.14144 0
M  V30 1131 O 104.041 5.32605 2.80384 0
M  V30 1132 H 107.867 3.00354 0.449561 0
M  V30 1133 H 105.452 1.48584 0.155949 0
M  V30 1134 H 107.334 3.0557 2.90181 0
M  V30 1135 H 106.009 1.89192 2.62656 0
M  V30 1136 H 104.916 3.59054 1.05028 0
M  V30 1137 H 106.249 4.71848 1.40073 0
M  V30 1138 N 107.901 -0.206675 1.56239 0
M  V30 1139 C 108.848 -1.25617 1.93621 0
M  V30 1140 C 109.818 -1.45824 0.795274 0
M  V30 1141 O 111.003 -1.59148 1.05245 0
M  V30 1142 C 108.143 -2.59839 2.27107 0
M  V30 1143 C 107.256 -2.47308 3.54207 0
M  V30 1144 C 106.391 -3.74155 3.7707 0
M  V30 1145 C 105.43 -3.56407 4.97635 0
M  V30 1146 N 104.567 -4.75238 5.1681 0
M  V30 1147 H 109.407 -0.930383 2.83104 0
M  V30 1148 H 106.944 -0.448065 1.4011 0
M  V30 1149 H 108.902 -3.38021 2.44535 0
M  V30 1150 H 107.532 -2.90485 1.40778 0
M  V30 1151 H 106.584 -1.60483 3.4489 0
M  V30 1152 H 107.896 -2.30122 4.42544 0
M  V30 1153 H 107.05 -4.60778 3.94675 0
M  V30 1154 H 105.789 -3.94282 2.87042 0
M  V30 1155 H 104.794 -2.68168 4.79964 0
M  V30 1156 H 106.019 -3.37736 5.89161 0
M  V30 1157 H 103.965 -4.95651 4.29728 0
M  V30 1158 H 103.882 -4.60835 5.99306 0
M  V30 1159 H 105.15 -5.63246 5.38864 0
M  V30 1160 N 109.379 -1.50304 -0.473955 0
M  V30 1161 C 110.627 -1.60832 -1.22382 0
M  V30 1162 C 110.948 -0.30939 -1.9253 0
M  V30 1163 O 110.218 0.67296 -1.83978 0
M  V30 1164 H 108.798 -0.592652 -0.454723 0
M  V30 1165 H 111.46 -1.87068 -0.546968 0
M  V30 1166 H 110.556 -2.41803 -1.97327 0
M  V30 1167 N 110.857 0.726932 -1.39834 0
M  V30 1168 C 112.106 1.48214 -1.36805 0
M  V30 1169 C 112.419 1.95576 0.0305291 0
M  V30 1170 O 113.625 2.7088 0.183417 0
M  V30 1171 C 112.081 2.67854 -2.40379 0
M  V30 1172 C 111.689 2.27408 -3.85992 0
M  V30 1173 C 113.433 3.45641 -2.46439 0
M  V30 1174 C 111.34 3.43819 -4.81189 0
M  V30 1175 H 110.27 0.556606 -0.508631 0
M  V30 1176 H 112.921 0.792216 -1.65518 0
M  V30 1177 H 111.303 3.3896 -2.04749 0
M  V30 1178 H 112.477 1.63795 -4.30706 0
M  V30 1179 H 110.792 1.62692 -3.83302 0
M  V30 1180 H 113.389 4.32244 -3.14753 0
M  V30 1181 H 113.732 3.88669 -1.49139 0
M  V30 1182 H 114.265 2.8157 -2.81004 0
M  V30 1183 H 111.004 3.05834 -5.79781 0
M  V30 1184 H 110.524 4.06385 -4.41148 0
M  V30 1185 H 112.203 4.10043 -5.00474 0
M  V30 1186 N 112.336 1.25143 0.95797 0
M  V30 1187 C 113.286 1.01924 2.0395 0
M  V30 1188 C 114.27 -0.0427175 1.60843 0
M  V30 1189 O 115.462 0.17221 1.7616 0
M  V30 1190 C 112.591 0.636373 3.3735 0
M  V30 1191 C 111.677 1.73492 3.8699 0
M  V30 1192 N 112.068 2.96945 4.0946 0
M  V30 1193 C 110.366 1.61467 4.15746 0
M  V30 1194 C 111.067 3.68228 4.50315 0
M  V30 1195 N 110.043 2.95833 4.56053 0
M  V30 1196 H 113.845 1.95653 2.19311 0
M  V30 1197 H 111.359 1.15413 1.14253 0
M  V30 1198 H 113.356 0.451233 4.14451 0
M  V30 1199 H 112.016 -0.293621 3.2337 0
M  V30 1200 H 113.027 3.33025 3.96629 0
M  V30 1201 H 109.704 0.753394 4.10646 0
M  V30 1202 H 111.094 4.74178 4.76031 0
M  V30 1203 N 113.814 -1.1601 1.06675 0
M  V30 1204 C 115.23 -1.38622 0.790948 0
M  V30 1205 C 115.43 -1.92109 -0.607965 0
M  V30 1206 O 114.486 -2.12239 -1.36787 0
M  V30 1207 C 115.799 -2.36347 1.85905 0
M  V30 1208 C 117.347 -2.50023 1.88301 0
M  V30 1209 C 117.822 -3.51033 2.94176 0
M  V30 1210 N 119.313 -3.58563 2.93235 0
M  V30 1211 C 120.048 -4.36521 3.71803 0
M  V30 1212 N 119.544 -5.17869 4.602 0
M  V30 1213 N 121.337 -4.31541 3.60178 0
M  V30 1214 H 113.488 -0.796294 1.96908 0
M  V30 1215 H 115.751 -0.412597 0.853503 0
M  V30 1216 H 115.457 -2.04147 2.86386 0
M  V30 1217 H 115.331 -3.36042 1.71334 0
M  V30 1218 H 117.718 -2.81524 0.884769 0
M  V30 1219 H 117.799 -1.5035 2.06951 0
M  V30 1220 H 117.443 -3.20268 3.94196 0
M  V30 1221 H 117.373 -4.50445 2.72776 0
M  V30 1222 H 119.864 -3.00496 2.29152 0
M  V30 1223 H 120.177 -5.74578 5.16797 0
M  V30 1224 H 118.522 -5.17199 4.64253 0
M  V30 1225 H 121.713 -3.67051 2.90502 0
M  V30 1226 H 121.886 -4.9205 4.21653 0
M  V30 1227 N 115.292 -0.849877 -1.32721 0
M  V30 1228 C 116.222 -0.306308 -2.31482 0
M  V30 1229 C 117.203 0.591952 -1.59468 0
M  V30 1230 O 118.388 0.513199 -1.87296 0
M  V30 1231 C 115.518 0.510204 -3.43532 0
M  V30 1232 C 114.472 -0.293209 -4.26994 0
M  V30 1233 C 113.798 0.647743 -5.30762 0
M  V30 1234 C 115.098 -1.51634 -4.99804 0
M  V30 1235 H 116.792 -1.13153 -2.77195 0
M  V30 1236 H 114.338 -0.545553 -1.33266 0
M  V30 1237 H 116.291 0.900856 -4.11658 0
M  V30 1238 H 115.015 1.36874 -2.96535 0
M  V30 1239 H 113.674 -0.665555 -3.60508 0
M  V30 1240 H 113.322 1.50299 -4.8002 0
M  V30 1241 H 113.022 0.11422 -5.87489 0
M  V30 1242 H 114.546 1.03567 -6.01753 0
M  V30 1243 H 115.96 -1.19824 -5.60638 0
M  V30 1244 H 114.357 -1.98745 -5.66234 0
M  V30 1245 H 115.427 -2.28018 -4.27943 0
M  V30 1246 N 116.77 1.45427 -0.607355 0
M  V30 1247 C 117.68 2.34325 0.113463 0
M  V30 1248 C 118.696 1.51226 0.860617 0
M  V30 1249 O 119.872 1.84029 0.818255 0
M  V30 1250 C 116.937 3.28839 1.09844 0
M  V30 1251 C 115.998 4.27844 0.353271 0
M  V30 1252 C 115.231 5.17842 1.29133 0
M  V30 1253 O 115.454 5.11264 2.52913 0
M  V30 1254 O 114.388 5.96713 0.788523 0
M  V30 1255 H 118.214 2.97364 -0.617094 0
M  V30 1256 H 115.799 1.44807 -0.367619 0
M  V30 1257 H 117.681 3.8708 1.66575 0
M  V30 1258 H 116.356 2.68365 1.81003 0
M  V30 1259 H 115.263 3.7322 -0.256494 0
M  V30 1260 H 116.596 4.91173 -0.317822 0
M  V30 1261 N 118.248 0.346503 1.53744 0
M  V30 1262 C 119.211 -0.496439 2.23759 0
M  V30 1263 C 120.211 -1.0252 1.2388 0
M  V30 1264 O 121.401 -0.913974 1.48297 0
M  V30 1265 C 118.533 -1.69187 2.95954 0
M  V30 1266 H 119.726 0.115952 2.99676 0
M  V30 1267 H 117.279 0.0978939 1.55993 0
M  V30 1268 H 118.014 -2.34288 2.24231 0
M  V30 1269 H 117.799 -1.31989 3.69217 0
M  V30 1270 H 119.289 -2.28969 3.49232 0
M  V30 1271 N 119.726 -1.57421 0.075193 0
M  V30 1272 C 120.659 -2.08528 -0.926904 0
M  V30 1273 C 121.637 -0.991171 -1.28898 0
M  V30 1274 O 122.821 -1.26479 -1.39769 0
M  V30 1275 C 119.948 -2.54576 -2.23402 0
M  V30 1276 C 118.994 -3.75454 -2.02327 0
M  V30 1277 S 119.827 -5.19989 -1.27951 0
M  V30 1278 C 120.983 -5.69372 -2.59935 0
M  V30 1279 H 121.216 -2.932 -0.492048 0
M  V30 1280 H 118.749 -1.53785 -0.137651 0
M  V30 1281 H 120.707 -2.81767 -2.98526 0
M  V30 1282 H 119.368 -1.70166 -2.64012 0
M  V30 1283 H 118.561 -4.05675 -2.99071 0
M  V30 1284 H 118.163 -3.48654 -1.35339 0
M  V30 1285 H 120.455 -5.76424 -3.56008 0
M  V30 1286 H 121.398 -6.68207 -2.34319 0
M  V30 1287 H 121.806 -4.97205 -2.67296 0
M  V30 1288 N 121.204 0.198386 -1.56346 0
M  V30 1289 C 122.134 1.24865 -1.9731 0
M  V30 1290 C 123.115 1.47651 -0.844576 0
M  V30 1291 O 124.3 1.59444 -1.10866 0
M  V30 1292 C 121.43 2.59358 -2.30977 0
M  V30 1293 C 120.384 2.5119 -3.46537 0
M  V30 1294 C 119.71 3.89926 -3.65871 0
M  V30 1295 C 121.01 2.03977 -4.80823 0
M  V30 1296 H 122.704 0.908252 -2.85291 0
M  V30 1297 H 120.25 0.435462 -1.37258 0
M  V30 1298 H 122.203 3.33011 -2.58228 0
M  V30 1299 H 120.927 2.95132 -1.39874 0
M  V30 1300 H 119.586 1.79993 -3.19371 0
M  V30 1301 H 119.234 4.23046 -2.72105 0
M  V30 1302 H 118.934 3.85336 -4.4361 0
M  V30 1303 H 120.458 4.65205 -3.95495 0
M  V30 1304 H 121.872 2.67386 -5.07127 0
M  V30 1305 H 120.269 2.10397 -5.62008 0
M  V30 1306 H 121.339 0.992861 -4.74626 0
M  V30 1307 N 122.682 1.50554 0.465978 0
M  V30 1308 C 123.929 1.61798 1.21768 0
M  V30 1309 C 124.257 0.320696 1.91838 0
M  V30 1310 O 123.512 -0.693724 1.82992 0
M  V30 1311 C 123.811 2.75152 2.28093 0
M  V30 1312 C 123.477 4.15454 1.75239 0
M  V30 1313 C 122.139 4.53628 1.60546 0
M  V30 1314 C 124.491 5.03121 1.36083 0
M  V30 1315 C 121.819 5.77204 1.05128 0
M  V30 1316 C 124.171 6.27249 0.821056 0
M  V30 1317 C 122.835 6.64221 0.660795 0
M  V30 1318 H 122.105 0.592063 0.445582 0
M  V30 1319 H 124.752 1.84503 0.512927 0
M  V30 1320 H 123.057 2.46556 3.04496 0
M  V30 1321 H 124.754 2.81055 2.86023 0
M  V30 1322 H 121.344 3.85341 1.87644 0
M  V30 1323 H 125.528 4.74257 1.46267 0
M  V30 1324 H 120.784 6.0452 0.91462 0
M  V30 1325 H 124.958 6.94537 0.509018 0
M  V30 1326 H 122.585 7.59854 0.229226 0
M  V30 1327 N 124.16 -0.719506 1.40217 0
M  V30 1328 C 125.123 -1.8153 1.39927 0
M  V30 1329 C 126.123 -1.58095 0.293723 0
M  V30 1330 O 127.313 -1.65209 0.552429 0
M  V30 1331 C 124.445 -3.19561 1.18716 0
M  V30 1332 H 125.638 -1.83186 2.37451 0
M  V30 1333 H 123.191 -0.924746 1.26008 0
M  V30 1334 H 123.926 -3.23557 0.219366 0
M  V30 1335 H 123.711 -3.3797 1.98793 0
M  V30 1336 H 125.201 -3.99598 1.21291 0
M  V30 1337 N 125.638 -1.25649 -0.95132 0
M  V30 1338 C 126.568 -1.08808 -2.06599 0
M  V30 1339 C 127.549 0.00382547 -1.701 0
M  V30 1340 O 128.734 -0.166325 -1.93486 0
M  V30 1341 C 125.864 -0.709542 -3.39975 0
M  V30 1342 C 124.818 -1.75206 -3.90496 0
M  V30 1343 C 124.144 -1.22811 -5.20405 0
M  V30 1344 C 125.444 -3.15153 -4.16504 0
M  V30 1345 H 127.138 -2.02048 -2.20946 0
M  V30 1346 H 124.684 -0.972835 -1.06169 0
M  V30 1347 H 126.637 -0.578649 -4.17408 0
M  V30 1348 H 125.361 0.258556 -3.25575 0
M  V30 1349 H 124.02 -1.87145 -3.15234 0
M  V30 1350 H 123.668 -0.250145 -5.02378 0
M  V30 1351 H 123.368 -1.92492 -5.55176 0
M  V30 1352 H 124.892 -1.10968 -6.00432 0
M  V30 1353 H 126.306 -3.06349 -4.84586 0
M  V30 1354 H 124.703 -3.82333 -4.62538 0
M  V30 1355 H 125.773 -3.61966 -3.22658 0
M  V30 1356 N 127.117 1.15442 -1.07289 0
M  V30 1357 C 128.394 1.82306 -0.708792 0
M  V30 1358 C 128.774 1.94991 0.808807 0
M  V30 1359 O 128.122 1.50085 1.72298 0
M  V30 1360 C 128.332 3.18695 -1.42247 0
M  V30 1361 C 129.68 3.94341 -1.57417 0
M  V30 1362 O 130.704 3.28247 -1.38319 0
M  V30 1363 O 129.563 5.12839 -1.88834 0
M  V30 1364 H 126.657 0.787628 -0.252132 0
M  V30 1365 H 129.203 1.22559 -1.17377 0
M  V30 1366 H 127.975 3.04557 -2.45684 0
M  V30 1367 H 127.598 3.86128 -0.948223 0
M  V30 1368 N 128.595 0.856903 1.32268 0
M  V30 1369 C 130.011 0.547061 1.49931 0
M  V30 1370 C 130.211 -0.921781 1.7918 0
M  V30 1371 O 129.267 -1.70469 1.8627 0
M  V30 1372 C 130.58 1.43599 2.64196 0
M  V30 1373 C 132.128 1.43665 2.78081 0
M  V30 1374 C 132.603 2.31085 3.95428 0
M  V30 1375 N 134.094 2.28893 4.02694 0
M  V30 1376 C 134.829 2.93262 4.92732 0
M  V30 1377 N 134.325 3.66751 5.87763 0
M  V30 1378 N 136.118 2.82638 4.85873 0
M  V30 1379 H 128.269 1.8075 1.11549 0
M  V30 1380 H 130.532 0.772144 0.549997 0
M  V30 1381 H 130.238 2.48058 2.49319 0
M  V30 1382 H 130.112 1.12502 3.60032 0
M  V30 1383 H 132.499 0.399701 2.92381 0
M  V30 1384 H 132.58 1.7878 1.82952 0
M  V30 1385 H 132.224 3.34849 3.81888 0
M  V30 1386 H 132.154 1.93302 4.89839 0
M  V30 1387 H 134.645 1.75466 3.34694 0
M  V30 1388 H 134.958 4.13027 6.53168 0
M  V30 1389 H 133.303 3.70859 5.87783 0
M  V30 1390 H 136.494 2.24774 4.10602 0
M  V30 1391 H 136.667 3.33084 5.55841 0
M  V30 1392 N 130.073 -1.45103 0.615059 0
M  V30 1393 C 131.322 -2.01396 0.110718 0
M  V30 1394 C 131.635 -1.48834 -1.26916 0
M  V30 1395 O 132.841 -1.97152 -1.86664 0
M  V30 1396 C 131.297 -3.59599 0.14723 0
M  V30 1397 C 130.905 -4.21158 1.52743 0
M  V30 1398 C 132.649 -4.23428 -0.30148 0
M  V30 1399 C 130.556 -5.71535 1.51992 0
M  V30 1400 H 129.486 -0.753061 0.0376241 0
M  V30 1401 H 132.137 -1.66494 0.77149 0
M  V30 1402 H 130.519 -3.91724 -0.580339 0
M  V30 1403 H 131.693 -4.00594 2.2773 0
M  V30 1404 H 130.008 -3.69552 1.91886 0
M  V30 1405 H 132.605 -5.33703 -0.326392 0
M  V30 1406 H 132.948 -3.94629 -1.32565 0
M  V30 1407 H 133.481 -3.96047 0.373065 0
M  V30 1408 H 130.22 -6.05044 2.52193 0
M  V30 1409 H 129.74 -5.94268 0.81274 0
M  V30 1410 H 131.419 -6.34873 1.24681 0
M  V30 1411 N 131.551 -0.354651 -1.53558 0
M  V30 1412 C 132.499 0.512195 -2.26891 0
M  V30 1413 C 133.493 1.09263 -1.29452 0
M  V30 1414 O 134.699 1.03709 -1.47121 0
M  V30 1415 H 131.074 0.183878 -0.729173 0
M  V30 1416 H 133.045 -0.128202 -2.98124 0
M  V30 1417 C 131.794 1.64563 -3.06291 0
M  V30 1418 H 131.117 1.20829 -3.81104 0
M  V30 1419 H 132.557 2.22711 -3.60799 0
M  V30 1420 C 131.016 2.58158 -2.16462 0
M  V30 1421 O 131.546 3.60695 -1.76811 0
M  V30 1422 N 129.752 2.27096 -1.81317 0
M  V30 1423 H 129.299 1.43751 -2.1376 0
M  V30 1424 H 129.257 2.89975 -1.21498 0
M  V30 1425 N 133.029 1.57378 -0.0835403 0
M  V30 1426 C 133.977 2.14602 0.89714 0
M  V30 1427 C 134.971 1.08589 1.30018 0
M  V30 1428 O 136.177 1.26952 1.27606 0
M  V30 1429 H 132.552 0.686346 0.3073 0
M  V30 1430 H 134.523 2.95845 0.38969 0
M  V30 1431 C 133.272 2.73188 2.15089 0
M  V30 1432 H 132.595 3.54442 1.84962 0
M  V30 1433 H 134.035 3.1681 2.81793 0
M  V30 1434 C 132.494 1.68517 2.91725 0
M  V30 1435 O 133.024 1.11718 3.85852 0
M  V30 1436 N 131.23 1.39277 2.55049 0
M  V30 1437 H 130.777 1.85655 1.78577 0
M  V30 1438 H 130.735 0.694791 3.06627 0
M  V30 1439 N 134.507 -0.190092 1.56449 0
M  V30 1440 C 135.784 -0.935886 1.71757 0
M  V30 1441 C 136.164 -2.01173 0.639726 0
M  V30 1442 O 135.512 -2.25827 -0.348502 0
M  V30 1443 C 135.722 -1.51775 3.1427 0
M  V30 1444 C 137.07 -1.99794 3.74656 0
M  V30 1445 O 138.094 -1.61607 3.1743 0
M  V30 1446 O 136.953 -2.70079 4.751 0
M  V30 1447 H 134.047 -0.439229 0.700719 0
M  V30 1448 H 136.593 -0.179395 1.68749 0
M  V30 1449 H 135.365 -0.742505 3.84191 0
M  V30 1450 H 134.988 -2.33894 3.21527 0
M  V30 1451 N 135.985 -1.50799 -0.457987 0
M  V30 1452 C 137.396 -1.55152 -1.0385 0
M  V30 1453 C 137.747 -0.362719 -1.92818 0
M  V30 1454 O 136.872 0.522915 -2.09987 0
M  V30 1455 C 137.467 -2.81173 -1.89017 0
M  V30 1456 C 136.026 -2.88164 -2.42154 0
M  V30 1457 C 135.173 -2.49591 -1.20829 0
M  V30 1458 H 138.124 -1.56874 -0.240068 0
M  V30 1459 H 138.145 -2.63769 -2.74238 0
M  V30 1460 H 137.657 -3.67677 -1.24238 0
M  V30 1461 H 135.758 -2.06042 -3.10447 0
M  V30 1462 H 135.871 -3.91356 -2.76364 0
M  V30 1463 H 134.235 -2.02322 -1.54719 0
M  V30 1464 H 135.018 -3.38418 -0.576927 0
M  V30 1465 N 137.463 0.71206 -1.40597 0
M  V30 1466 C 138.74 1.46536 -1.29563 0
M  V30 1467 C 139.12 2.10931 0.0844217 0
M  V30 1468 O 138.468 2.00418 1.0975 0
M  V30 1469 C 138.678 2.49821 -2.43701 0
M  V30 1470 C 140.026 3.15551 -2.841 0
M  V30 1471 O 141.05 2.60142 -2.4332 0
M  V30 1472 O 139.909 4.15867 -3.54566 0
M  V30 1473 H 137.003 0.651801 -0.509004 0
M  V30 1474 H 139.549 0.743935 -1.52524 0
M  V30 1475 H 138.321 2.00778 -3.35863 0
M  V30 1476 H 137.944 3.29495 -2.22528 0
M  V30 1477 N 138.941 1.26152 0.944643 0
M  V30 1478 C 139.871 1.09902 2.06019 0
M  V30 1479 C 140.852 0.00519538 1.70099 0
M  V30 1480 O 142.037 0.176583 1.93396 0
M  V30 1481 C 139.167 0.727562 3.39594 0
M  V30 1482 C 138.121 1.77274 3.89561 0
M  V30 1483 C 137.447 1.25569 5.19747 0
M  V30 1484 C 138.747 3.17357 4.14827 0
M  V30 1485 H 140.441 2.03217 2.19871 0
M  V30 1486 H 137.987 0.978452 1.05652 0
M  V30 1487 H 139.94 0.600777 4.17095 0
M  V30 1488 H 138.664 -0.241287 3.25707 0
M  V30 1489 H 137.323 1.88814 3.14237 0
M  V30 1490 H 136.971 0.276783 5.02238 0
M  V30 1491 H 136.671 1.95433 5.54148 0
M  V30 1492 H 138.195 1.1415 5.99835 0
M  V30 1493 H 139.609 3.08914 4.82954 0
M  V30 1494 H 138.006 3.84781 4.60504 0
M  V30 1495 H 139.076 3.63673 3.20734 0
M  V30 1496 N 140.419 -1.14872 1.07899 0
M  V30 1497 C 141.349 -2.2193 0.725887 0
M  V30 1498 C 142.33 -1.67622 -0.28927 0
M  V30 1499 O 143.515 -1.93533 -0.160787 0
M  V30 1500 C 140.645 -3.47061 0.128856 0
M  V30 1501 C 139.599 -4.14363 1.07178 0
M  V30 1502 C 138.925 -5.33636 0.337229 0
M  V30 1503 C 140.225 -4.63492 2.40775 0
M  V30 1504 H 141.919 -2.51724 1.62097 0
M  V30 1505 H 139.465 -1.20991 0.780838 0
M  V30 1506 H 141.418 -4.21199 -0.130147 0
M  V30 1507 H 140.142 -3.16617 -0.80134 0
M  V30 1508 H 138.801 -3.42173 1.3158 0
M  V30 1509 H 138.449 -4.99449 -0.596606 0
M  V30 1510 H 138.149 -5.79609 0.965788 0
M  V30 1511 H 139.673 -6.10539 0.0861567 0
M  V30 1512 H 141.087 -5.2913 2.20669 0
M  V30 1513 H 139.484 -5.20148 2.99276 0
M  V30 1514 H 140.554 -3.78834 3.02676 0
M  V30 1515 N 141.898 -0.863906 -1.31812 0
M  V30 1516 C 143.309 -0.52522 -1.7916 0
M  V30 1517 C 143.66 0.957518 -1.71248 0
M  V30 1518 O 142.785 1.74734 -1.27659 0
M  V30 1519 C 143.38 -0.9466 -3.25307 0
M  V30 1520 C 141.939 -0.659668 -3.70574 0
M  V30 1521 C 141.086 -1.14126 -2.52726 0
M  V30 1522 H 144.037 -1.05022 -1.1898 0
M  V30 1523 H 144.058 -0.266766 -3.79564 0
M  V30 1524 H 143.57 -2.02579 -3.31034 0
M  V30 1525 H 141.671 0.408416 -3.70355 0
M  V30 1526 H 141.784 -1.23245 -4.62977 0
M  V30 1527 H 140.148 -0.561216 -2.4844 0
M  V30 1528 H 140.931 -2.22775 -2.61201 0
M  V30 1529 N 143.376 1.44774 -0.622745 0
M  V30 1530 C 144.324 2.32387 0.0994683 0
M  V30 1531 C 145.318 1.46859 0.844326 0
M  V30 1532 O 146.524 1.63254 0.758174 0
M  V30 1533 H 142.899 0.750273 0.0509291 0
M  V30 1534 H 144.87 2.91062 -0.65767 0
M  V30 1535 C 143.619 3.30723 1.07319 0
M  V30 1536 H 142.942 3.96541 0.509462 0
M  V30 1537 H 144.382 3.94725 1.54817 0
M  V30 1538 C 142.841 2.59021 2.15429 0
M  V30 1539 O 143.371 2.38286 3.23393 0
M  V30 1540 N 141.577 2.189 1.91131 0
M  V30 1541 H 141.124 2.35964 1.03337 0
M  V30 1542 H 141.082 1.71251 2.63668 0
M  V30 1543 N 144.854 0.36279 1.53368 0
M  V30 1544 C 146.103 -0.22888 2.00397 0
M  V30 1545 C 146.416 -1.50096 1.25421 0
M  V30 1546 O 147.622 -2.17106 1.63025 0
M  V30 1547 C 146.078 -0.458417 3.56969 0
M  V30 1548 C 145.686 0.798877 4.4082 0
M  V30 1549 C 147.43 -1.00789 4.12361 0
M  V30 1550 C 145.337 0.539078 5.88938 0
M  V30 1551 H 144.267 -0.089305 0.748693 0
M  V30 1552 H 146.918 0.481099 1.77081 0
M  V30 1553 H 145.3 -1.22959 3.76427 0
M  V30 1554 H 146.474 1.57262 4.33134 0
M  V30 1555 H 144.789 1.27137 3.96516 0
M  V30 1556 H 147.386 -1.21754 5.20653 0
M  V30 1557 H 147.729 -1.9692 3.66781 0
M  V30 1558 H 148.262 -0.296961 3.9669 0
M  V30 1559 H 145.001 1.47064 6.3879 0
M  V30 1560 H 144.521 -0.196222 5.99479 0
M  V30 1561 H 146.2 0.163542 6.46793 0
M  V30 1562 N 146.332 -1.57332 0.0918853 0
M  V30 1563 C 147.56 -1.98574 -0.581048 0
M  V30 1564 C 147.975 -0.970903 -1.61923 0
M  V30 1565 O 147.332 0.0399054 -1.82456 0
M  V30 1566 C 147.383 -3.39872 -1.23164 0
M  V30 1567 O 147.104 -4.37469 -0.234989 0
M  V30 1568 C 148.605 -3.96099 -1.99049 0
M  V30 1569 H 145.825 -0.65261 -0.156018 0
M  V30 1570 H 148.369 -2.0379 0.170225 0
M  V30 1571 H 146.524 -3.35679 -1.93386 0
M  V30 1572 H 146.938 -5.19751 -0.70418 0
M  V30 1573 H 148.412 -4.97127 -2.39934 0
M  V30 1574 H 148.889 -3.3374 -2.85507 0
M  V30 1575 H 149.495 -4.03755 -1.3365 0
M  V30 1576 N 147.81 0.181792 -1.56548 0
M  V30 1577 C 148.74 1.22765 -1.98623 0
M  V30 1578 C 149.721 1.46747 -0.860189 0
M  V30 1579 O 150.906 1.58259 -1.12551 0
M  V30 1580 C 148.036 2.56894 -2.33715 0
M  V30 1581 C 146.99 2.475 -3.49182 0
M  V30 1582 C 146.316 3.86023 -3.69986 0
M  V30 1583 C 147.616 1.98866 -4.82959 0
M  V30 1584 H 149.31 0.877942 -2.86239 0
M  V30 1585 H 146.856 0.42088 -1.37712 0
M  V30 1586 H 148.809 3.30253 -2.61746 0
M  V30 1587 H 147.533 2.93632 -1.42997 0
M  V30 1588 H 146.192 1.76596 -3.21262 0
M  V30 1589 H 145.84 4.20136 -2.76576 0
M  V30 1590 H 145.54 3.80609 -4.47672 0
M  V30 1591 H 147.064 4.60984 -4.00407 0
M  V30 1592 H 148.478 2.61992 -5.09934 0
M  V30 1593 H 146.875 2.04424 -5.64208 0
M  V30 1594 H 147.945 0.942465 -4.75653 0
M  V30 1595 N 149.288 1.51039 0.449983 0
M  V30 1596 C 150.536 1.62759 1.19808 0
M  V30 1597 C 150.857 0.339981 1.92013 0
M  V30 1598 O 150.127 -0.643606 1.85026 0
M  V30 1599 H 148.707 0.599811 0.445237 0
M  V30 1600 H 151.369 1.87914 0.517138 0
M  V30 1601 H 150.465 2.44911 1.93455 0
M  V30 1602 N 150.766 -0.704594 1.40972 0
M  V30 1603 C 151.729 -1.80035 1.41845 0
M  V30 1604 C 152.729 -1.57774 0.310474 0
M  V30 1605 O 153.919 -1.64613 0.56992 0
M  V30 1606 C 151.051 -3.18284 1.22098 0
M  V30 1607 H 152.244 -1.80658 2.3938 0
M  V30 1608 H 149.797 -0.911329 1.26982 0
M  V30 1609 H 150.532 -3.23306 0.253672 0
M  V30 1610 H 150.317 -3.35843 2.02366 0
M  V30 1611 H 151.807 -3.98289 1.25522 0
M  V30 1612 N 152.244 -1.26651 -0.937939 0
M  V30 1613 C 153.66 -1.03834 -1.21205 0
M  V30 1614 C 153.86 0.234502 -2.00131 0
M  V30 1615 O 152.916 0.942767 -2.3424 0
M  V30 1616 C 154.229 -2.27167 -1.97017 0
M  V30 1617 C 155.777 -2.32101 -2.09996 0
M  V30 1618 C 156.252 -3.55136 -2.8921 0
M  V30 1619 N 157.743 -3.55632 -2.96783 0
M  V30 1620 C 158.478 -4.475 -3.58512 0
M  V30 1621 N 157.974 -5.4966 -4.21717 0
M  V30 1622 N 159.767 -4.35145 -3.55816 0
M  V30 1623 H 151.918 -2.08398 -0.410391 0
M  V30 1624 H 154.181 -0.916031 -0.244114 0
M  V30 1625 H 153.887 -3.19765 -1.46434 0
M  V30 1626 H 153.761 -2.31672 -2.97671 0
M  V30 1627 H 156.148 -1.40015 -2.59769 0
M  V30 1628 H 156.229 -2.31605 -1.08594 0
M  V30 1629 H 155.873 -4.47553 -2.40123 0
M  V30 1630 H 155.803 -3.5288 -3.90875 0
M  V30 1631 H 158.294 -2.81743 -2.51852 0
M  V30 1632 H 158.607 -6.15943 -4.66727 0
M  V30 1633 H 156.952 -5.53514 -4.20294 0
M  V30 1634 H 160.143 -3.5455 -3.05634 0
M  V30 1635 H 160.316 -5.06934 -4.03636 0
M  V30 1636 N 153.722 1.14298 -1.08507 0
M  V30 1637 C 154.971 1.84708 -0.810305 0
M  V30 1638 C 155.284 1.83903 0.666271 0
M  V30 1639 O 156.49 2.50112 1.05624 0
M  V30 1640 C 154.946 3.31572 -1.39957 0
M  V30 1641 C 154.554 3.40791 -2.90801 0
M  V30 1642 C 156.298 4.07087 -1.20334 0
M  V30 1643 C 154.205 4.81872 -3.4286 0
M  V30 1644 H 153.135 0.691985 -0.299454 0
M  V30 1645 H 155.786 1.28841 -1.30661 0
M  V30 1646 H 154.168 3.87183 -0.830976 0
M  V30 1647 H 155.342 2.95225 -3.53806 0
M  V30 1648 H 153.657 2.78732 -3.0935 0
M  V30 1649 H 156.254 5.11225 -1.56693 0
M  V30 1650 H 156.597 4.16054 -0.143237 0
M  V30 1651 H 157.13 3.57779 -1.73893 0
M  V30 1652 H 153.869 4.78094 -4.48449 0
M  V30 1653 H 153.389 5.27972 -2.84615 0
M  V30 1654 H 155.068 5.50765 -3.39509 0
M  V30 1655 N 155.201 0.870884 1.31352 0
M  V30 1656 C 156.131 0.343096 2.30966 0
M  V30 1657 C 157.112 -0.566507 1.60389 0
M  V30 1658 O 158.297 -0.483336 1.88089 0
M  V30 1659 C 155.427 -0.455487 3.443 0
M  V30 1660 C 154.381 0.361103 4.26474 0
M  V30 1661 C 153.707 -0.563221 5.31725 0
M  V30 1662 C 155.007 1.59566 4.97329 0
M  V30 1663 H 156.701 1.17548 2.75359 0
M  V30 1664 H 154.247 0.566686 1.32381 0
M  V30 1665 H 156.2 -0.83525 4.13039 0
M  V30 1666 H 154.924 -1.32139 2.98675 0
M  V30 1667 H 153.583 0.722825 3.59403 0
M  V30 1668 H 153.231 -1.42643 4.82351 0
M  V30 1669 H 152.931 -0.0207409 5.87596 0
M  V30 1670 H 154.455 -0.939808 6.03324 0
M  V30 1671 H 155.869 1.28728 5.58661 0
M  V30 1672 H 154.266 2.07728 5.63 0
M  V30 1673 H 155.336 2.34798 4.24262 0
M  V30 1674 N 156.679 -1.44442 0.630414 0
M  V30 1675 C 157.956 -1.9549 0.0655657 0
M  V30 1676 C 158.336 -1.5724 -1.40851 0
M  V30 1677 O 157.684 -0.846116 -2.12257 0
M  V30 1678 C 157.894 -3.47812 0.287691 0
M  V30 1679 C 159.242 -4.24216 0.180513 0
M  V30 1680 O 160.266 -3.55526 0.219019 0
M  V30 1681 O 159.125 -5.46434 0.0848493 0
M  V30 1682 H 156.219 -0.826688 -0.0227177 0
M  V30 1683 H 158.765 -1.54496 0.702068 0
M  V30 1684 H 157.537 -3.687 1.31056 0
M  V30 1685 H 157.16 -3.95751 -0.382984 0
M  V30 1686 N 158.157 -0.370918 -1.53173 0
M  V30 1687 C 159.385 0.217704 -2.05751 0
M  V30 1688 C 159.8 1.42018 -1.24404 0
M  V30 1689 O 159.157 1.80245 -0.286033 0
M  V30 1690 C 159.208 0.605954 -3.56385 0
M  V30 1691 O 158.929 -0.548734 -4.3465 0
M  V30 1692 C 160.43 1.2524 -4.25241 0
M  V30 1693 H 157.65 0.0371659 -0.66997 0
M  V30 1694 H 160.194 -0.530832 -1.9749 0
M  V30 1695 H 158.349 1.3044 -3.6478 0
M  V30 1696 H 158.763 -0.23376 -5.23979 0
M  V30 1697 H 160.237 1.47458 -5.3194 0
M  V30 1698 H 160.714 2.2143 -3.79296 0
M  V30 1699 H 161.32 0.595233 -4.21114 0
M  V30 1700 N 159.635 1.57281 -0.100228 0
M  V30 1701 C 160.875 1.96419 0.56558 0
M  V30 1702 C 161.239 0.981265 1.65031 0
M  V30 1703 O 162.44 1.26133 2.37369 0
M  V30 1704 C 160.711 3.39996 1.10171 0
M  V30 1705 S 162.27 4.01134 1.77867 0
M  V30 1706 H 159.088 0.68667 0.184406 0
M  V30 1707 H 161.69 1.94662 -0.180851 0
M  V30 1708 H 160.394 4.09296 0.300803 0
M  V30 1709 H 159.925 3.45361 1.88385 0
M  V30 1710 H 161.94 3.90358 3.06326 0
M  V30 1711 N 161.113 -0.173488 1.56642 0
M  V30 1712 C 162.338 -0.910149 1.86363 0
M  V30 1713 C 162.763 -1.75132 0.686318 0
M  V30 1714 O 162.121 -1.77595 -0.364643 0
M  V30 1715 C 162.169 -1.76447 3.14482 0
M  V30 1716 O 161.273 -2.86584 2.96553 0
M  V30 1717 H 160.614 -0.255086 0.613047 0
M  V30 1718 H 163.144 -0.172283 2.03873 0
M  V30 1719 H 163.154 -2.16483 3.45831 0
M  V30 1720 H 161.829 -1.14658 3.99783 0
M  V30 1721 H 160.406 -2.50146 2.76553 0
M  V30 1722 N 162.591 -1.51276 -0.441967 0
M  V30 1723 C 164.007 -1.39349 -0.778083 0
M  V30 1724 C 164.207 -0.472212 -1.95889 0
M  V30 1725 O 163.263 0.0743551 -2.5239 0
M  V30 1726 C 164.576 -2.81292 -1.0628 0
M  V30 1727 C 166.124 -2.9041 -1.16751 0
M  V30 1728 C 166.599 -4.33251 -1.48519 0
M  V30 1729 N 168.09 -4.36336 -1.55453 0
M  V30 1730 C 168.825 -5.43885 -1.81596 0
M  V30 1731 N 168.321 -6.61601 -2.05562 0
M  V30 1732 N 170.114 -5.3136 -1.8334 0
M  V30 1733 H 162.265 -2.09729 0.335774 0
M  V30 1734 H 164.528 -0.943925 0.0878028 0
M  V30 1735 H 164.234 -3.50678 -0.267905 0
M  V30 1736 H 164.108 -3.20334 -1.99163 0
M  V30 1737 H 166.495 -2.21225 -1.95304 0
M  V30 1738 H 166.576 -2.54871 -0.217801 0
M  V30 1739 H 166.22 -5.02984 -0.704958 0
M  V30 1740 H 166.15 -4.66299 -2.44689 0
M  V30 1741 H 168.641 -3.51466 -1.38853 0
M  V30 1742 H 168.954 -7.39361 -2.24867 0
M  V30 1743 H 167.299 -6.64725 -2.02894 0
M  V30 1744 H 170.49 -4.38382 -1.64132 0
M  V30 1745 H 170.663 -6.15258 -2.03377 0
M  V30 1746 N 164.069 0.697108 -1.41344 0
M  V30 1747 C 165.346 1.45154 -1.31109 0
M  V30 1748 C 165.726 2.11009 0.0620449 0
M  V30 1749 O 165.074 2.01571 1.07618 0
M  V30 1750 C 165.284 2.47223 -2.46337 0
M  V30 1751 C 166.632 3.1252 -2.87431 0
M  V30 1752 O 167.656 2.57547 -2.46065 0
M  V30 1753 O 166.515 4.12083 -3.58957 0
M  V30 1754 H 163.609 0.646365 -0.515889 0
M  V30 1755 H 166.155 0.727716 -1.53305 0
M  V30 1756 H 164.927 1.97204 -3.37974 0
M  V30 1757 H 164.55 3.27116 -2.2601 0
M  V30 1758 N 165.547 1.27147 0.931209 0
M  V30 1759 C 166.775 1.16082 1.71267 0
M  V30 1760 C 167.19 -0.282772 1.8667 0
M  V30 1761 O 166.547 -1.19283 1.38122 0
M  V30 1762 C 166.598 1.8358 3.11417 0
M  V30 1763 O 166.319 3.22299 2.96741 0
M  V30 1764 C 167.82 1.78597 4.05732 0
M  V30 1765 H 165.04 0.403758 0.535929 0
M  V30 1766 H 167.584 1.67953 1.16671 0
M  V30 1767 H 165.739 1.35623 3.62885 0
M  V30 1768 H 166.153 3.55851 3.85319 0
M  V30 1769 H 167.627 2.30444 5.01597 0
M  V30 1770 H 168.104 0.754564 4.3267 0
M  V30 1771 H 168.71 2.26152 3.60188 0
M  V30 1772 N 167.025 -1.13721 1.09112 0
M  V30 1773 C 167.975 -2.17082 0.697091 0
M  V30 1774 C 168.959 -1.58321 -0.286923 0
M  V30 1775 O 170.151 -1.7673 -0.0978008 0
M  V30 1776 C 167.28 -3.43105 0.115729 0
M  V30 1777 C 166.366 -4.0888 1.12596 0
M  V30 1778 N 166.757 -4.4987 2.31195 0
M  V30 1779 C 165.055 -4.35471 0.963366 0
M  V30 1780 C 165.756 -5.01094 2.95431 0
M  V30 1781 N 164.732 -4.95751 2.23006 0
M  V30 1782 H 168.534 -2.46524 1.6001 0
M  V30 1783 H 166.048 -1.30481 0.966869 0
M  V30 1784 H 168.045 -4.16491 -0.184555 0
M  V30 1785 H 166.705 -3.15138 -0.78217 0
M  V30 1786 H 167.716 -4.42678 2.68806 0
M  V30 1787 H 164.393 -4.17328 0.119878 0
M  V30 1788 H 165.783 -5.4263 3.96236 0
M  V30 1789 N 168.503 -0.877838 -1.30888 0
M  V30 1790 C 169.466 -0.344265 -2.266 0
M  V30 1791 C 170.466 0.50922 -1.52524 0
M  V30 1792 O 171.656 0.317398 -1.71284 0
M  V30 1793 C 168.788 0.510198 -3.37061 0
M  V30 1794 H 169.981 -1.1893 -2.7531 0
M  V30 1795 H 167.534 -0.654088 -1.41956 0
M  V30 1796 H 168.269 1.37612 -2.93655 0
M  V30 1797 H 168.054 -0.101047 -3.9197 0
M  V30 1798 H 169.544 0.875537 -4.08319 0
M  V30 1799 N 169.982 1.44106 -0.638065 0
M  V30 1800 C 170.912 2.33448 0.0494287 0
M  V30 1801 C 171.893 1.48606 0.827672 0
M  V30 1802 O 173.078 1.77308 0.792173 0
M  V30 1803 C 170.208 3.31771 1.02691 0
M  V30 1804 C 169.162 4.26485 0.359823 0
M  V30 1805 C 168.488 5.14729 1.44769 0
M  V30 1806 C 169.788 5.17056 -0.738296 0
M  V30 1807 H 171.482 2.91183 -0.696636 0
M  V30 1808 H 169.028 1.40014 -0.336456 0
M  V30 1809 H 170.981 3.93161 1.51666 0
M  V30 1810 H 169.705 2.7226 1.80395 0
M  V30 1811 H 168.364 3.66437 -0.10934 0
M  V30 1812 H 168.012 4.51566 2.21578 0
M  V30 1813 H 167.712 5.78913 1.00668 0
M  V30 1814 H 169.236 5.78991 1.93911 0
M  V30 1815 H 170.65 5.72342 -0.331354 0
M  V30 1816 H 169.047 5.89879 -1.10286 0
M  V30 1817 H 170.117 4.57652 -1.60258 0
M  V30 1818 N 171.46 0.379036 1.52974 0
M  V30 1819 C 172.37 -0.468639 2.29872 0
M  V30 1820 C 173.386 -1.08067 1.36373 0
M  V30 1821 O 174.562 -1.08871 1.69438 0
M  V30 1822 C 171.627 -1.58594 3.083 0
M  V30 1823 C 170.688 -1.00007 4.17489 0
M  V30 1824 C 169.921 -2.06413 4.92168 0
M  V30 1825 O 170.144 -3.27751 4.66835 0
M  V30 1826 O 169.078 -1.68717 5.7777 0
M  V30 1827 H 172.904 0.157508 3.03291 0
M  V30 1828 H 170.489 0.143035 1.48714 0
M  V30 1829 H 172.371 -2.23525 3.57232 0
M  V30 1830 H 171.046 -2.19724 2.37703 0
M  V30 1831 H 169.953 -0.314299 3.72777 0
M  V30 1832 H 171.286 -0.433135 4.90291 0
M  V30 1833 N 172.938 -1.57226 0.108567 0
M  V30 1834 C 173.87 -2.11809 -0.875752 0
M  V30 1835 C 174.883 -1.05839 -1.23701 0
M  V30 1836 O 176.072 -1.33245 -1.18778 0
M  V30 1837 C 173.172 -2.59411 -2.18081 0
M  V30 1838 C 172.345 -3.89364 -1.99284 0
M  V30 1839 C 171.404 -4.22672 -3.13424 0
M  V30 1840 O 170.43 -4.91668 -2.86795 0
M  V30 1841 N 171.632 -3.79154 -4.3957 0
M  V30 1842 H 174.397 -2.9689 -0.409477 0
M  V30 1843 H 171.958 -1.61721 -0.076158 0
M  V30 1844 H 173.95 -2.7873 -2.93414 0
M  V30 1845 H 172.52 -1.79268 -2.5609 0
M  V30 1846 H 171.74 -3.79059 -1.08203 0
M  V30 1847 H 173.028 -4.74358 -1.84017 0
M  V30 1848 H 172.426 -3.23486 -4.64083 0
M  V30 1849 H 170.983 -4.03602 -5.11809 0
M  V30 1850 N 174.416 0.165178 -1.56732 0
M  V30 1851 C 175.641 0.900253 -1.86843 0
M  V30 1852 C 176.066 1.74766 -0.695596 0
M  V30 1853 O 175.424 1.77786 0.35522 0
M  V30 1854 C 175.472 1.74777 -3.15413 0
M  V30 1855 O 174.576 2.85007 -2.98068 0
M  V30 1856 H 173.917 0.251832 -0.614391 0
M  V30 1857 H 176.447 0.161468 -2.03962 0
M  V30 1858 H 176.457 2.14646 -3.46974 0
M  V30 1859 H 175.132 1.12537 -4.00385 0
M  V30 1860 H 173.709 2.48676 -2.77875 0
M  V30 1861 N 175.894 1.51508 0.433938 0
M  V30 1862 C 176.824 1.76016 1.53429 0
M  V30 1863 C 177.805 0.610112 1.58782 0
M  V30 1864 O 178.99 0.853177 1.74455 0
M  V30 1865 C 176.12 1.88831 2.9148 0
M  V30 1866 C 175.074 3.04288 3.00987 0
M  V30 1867 C 174.4 3.0229 4.4105 0
M  V30 1868 C 175.7 4.44193 2.74754 0
M  V30 1869 H 177.394 2.68152 1.33171 0
M  V30 1870 H 174.94 1.29035 0.639214 0
M  V30 1871 H 176.893 2.04559 3.6842 0
M  V30 1872 H 175.617 0.933455 3.12976 0
M  V30 1873 H 174.276 2.8827 2.26486 0
M  V30 1874 H 173.924 2.04576 4.59519 0
M  V30 1875 H 173.624 3.79822 4.4834 0
M  V30 1876 H 175.148 3.20116 5.1996 0
M  V30 1877 H 176.562 4.60544 3.41426 0
M  V30 1878 H 174.959 5.23457 2.9345 0
M  V30 1879 H 176.029 4.53996 1.70339 0
M  V30 1880 N 177.372 -0.689602 1.41712 0
M  V30 1881 C 178.6 -1.47827 1.44758 0
M  V30 1882 C 179.015 -1.88721 0.0545703 0
M  V30 1883 O 178.372 -1.57176 -0.927463 0
M  V30 1884 C 178.423 -2.73698 2.3616 0
M  V30 1885 O 178.144 -2.34524 3.7004 0
M  V30 1886 C 179.645 -3.67389 2.48072 0
M  V30 1887 H 176.865 -0.455357 0.49284 0
M  V30 1888 H 179.409 -0.848574 1.86063 0
M  V30 1889 H 177.564 -3.32891 1.98148 0
M  V30 1890 H 177.978 -3.15701 4.18847 0
M  V30 1891 H 179.452 -4.52475 3.16181 0
M  V30 1892 H 179.929 -4.12284 1.51388 0
M  V30 1893 H 180.535 -3.14097 2.86746 0
M  V30 1894 N 178.85 -1.27639 -0.924453 0
M  V30 1895 C 180.097 -1.14167 -1.67249 0
M  V30 1896 C 180.425 0.311863 -1.91984 0
M  V30 1897 O 179.68 1.24425 -1.51053 0
M  V30 1898 C 179.979 -1.87407 -3.04325 0
M  V30 1899 C 179.645 -3.37249 -2.99289 0
M  V30 1900 C 178.307 -3.7812 -2.97622 0
M  V30 1901 C 180.659 -4.32845 -2.90336 0
M  V30 1902 C 177.987 -5.12944 -2.8479 0
M  V30 1903 C 180.339 -5.6773 -2.79045 0
M  V30 1904 C 179.003 -6.07889 -2.7573 0
M  V30 1905 H 178.273 -0.417766 -0.612007 0
M  V30 1906 H 180.92 -1.58286 -1.07786 0
M  V30 1907 H 179.225 -1.35805 -3.67511 0
M  V30 1908 H 180.922 -1.74408 -3.61086 0
M  V30 1909 H 177.512 -3.04748 -3.01374 0
M  V30 1910 H 181.696 -4.02239 -2.90719 0
M  V30 1911 H 176.952 -5.432 -2.80612 0
M  V30 1912 H 181.126 -6.41472 -2.71083 0
M  V30 1913 H 178.753 -7.12314 -2.65544 0
M  V30 1914 N 180.328 1.1314 -1.09713 0
M  V30 1915 C 181.574 1.84757 -0.836224 0
M  V30 1916 C 181.907 1.8347 0.636598 0
M  V30 1917 O 181.182 1.27491 1.46889 0
M  V30 1918 C 181.465 3.32782 -1.37578 0
M  V30 1919 C 181.318 3.42567 -2.91493 0
M  V30 1920 C 182.637 4.28307 -1.01198 0
M  V30 1921 H 179.756 0.67082 -0.305236 0
M  V30 1922 H 182.398 1.3278 -1.35903 0
M  V30 1923 H 180.548 3.77177 -0.931097 0
M  V30 1924 H 182.22 3.06862 -3.44432 0
M  V30 1925 H 180.463 2.83349 -3.28475 0
M  V30 1926 H 181.134 4.46674 -3.24324 0
M  V30 1927 H 183.61 3.91999 -1.39556 0
M  V30 1928 H 182.486 5.30307 -1.41653 0
M  V30 1929 H 182.747 4.42029 0.0794833 0
M  V30 1930 N 181.806 0.884767 1.30421 0
M  V30 1931 C 182.738 0.308655 2.27112 0
M  V30 1932 C 183.751 -0.536655 1.53701 0
M  V30 1933 O 184.94 -0.35624 1.74909 0
M  V30 1934 C 182.04 -0.579782 3.33904 0
M  V30 1935 C 181.213 0.236417 4.36761 0
M  V30 1936 C 180.272 -0.582482 5.22966 0
M  V30 1937 O 179.298 -0.00525502 5.692 0
M  V30 1938 N 180.5 -1.89163 5.48815 0
M  V30 1939 H 183.265 1.13964 2.77186 0
M  V30 1940 H 180.826 0.747731 1.43599 0
M  V30 1941 H 182.818 -1.13366 3.88497 0
M  V30 1942 H 181.388 -1.31144 2.83761 0
M  V30 1943 H 180.608 0.97174 3.82035 0
M  V30 1944 H 181.896 0.795924 5.02536 0
M  V30 1945 H 181.294 -2.38352 5.13035 0
M  V30 1946 H 179.851 -2.39296 6.06284 0
M  V30 1947 N 183.284 -1.43765 0.645699 0
M  V30 1948 C 184.247 -2.29163 -0.0409488 0
M  V30 1949 C 185.247 -1.41813 -0.757996 0
M  V30 1950 O 186.437 -1.63527 -0.600382 0
M  V30 1951 C 183.569 -3.23716 -1.06869 0
M  V30 1952 H 184.762 -2.91366 0.710345 0
M  V30 1953 H 182.315 -1.5092 0.406547 0
M  V30 1954 H 183.05 -2.66393 -1.84947 0
M  V30 1955 H 182.835 -3.88105 -0.558277 0
M  V30 1956 H 184.325 -3.87831 -1.54845 0
M  V30 1957 N 184.763 -0.387143 -1.52771 0
M  V30 1958 C 185.693 0.440551 -2.29306 0
M  V30 1959 C 186.674 1.06535 -1.32606 0
M  V30 1960 O 187.859 1.07853 -1.61497 0
M  V30 1961 C 184.989 1.56919 -3.09829 0
M  V30 1962 C 183.943 1.07054 -4.14395 0
M  V30 1963 C 183.269 2.29109 -4.83129 0
M  V30 1964 C 184.569 0.140015 -5.22112 0
M  V30 1965 H 186.263 -0.198026 -2.98744 0
M  V30 1966 H 183.809 -0.09668 -1.43675 0
M  V30 1967 H 185.762 2.15503 -3.62128 0
M  V30 1968 H 184.486 2.23532 -2.3812 0
M  V30 1969 H 183.145 0.507247 -3.63074 0
M  V30 1970 H 182.793 2.94227 -4.0797 0
M  V30 1971 H 182.493 1.96406 -5.53804 0
M  V30 1972 H 184.017 2.88339 -5.38231 0
M  V30 1973 H 185.431 0.633978 -5.69784 0
M  V30 1974 H 183.828 -0.0971485 -6.00021 0
M  V30 1975 H 184.898 -0.811711 -4.78058 0
M  V30 1976 N 186.241 1.57166 -0.116904 0
M  V30 1977 C 187.49 1.94298 0.541407 0
M  V30 1978 C 187.803 1.00236 1.67964 0
M  V30 1979 O 189.009 1.26826 2.40057 0
M  V30 1980 C 187.465 3.45306 1.01449 0
M  V30 1981 C 187.073 4.47899 -0.0951738 0
M  V30 1982 C 188.817 3.91361 1.6443 0
M  V30 1983 C 186.724 5.90083 0.394491 0
M  V30 1984 H 185.654 0.725308 0.206019 0
M  V30 1985 H 188.305 1.82446 -0.196419 0
M  V30 1986 H 186.687 3.52385 1.80667 0
M  V30 1987 H 187.861 4.52486 -0.871374 0
M  V30 1988 H 186.176 4.11583 -0.631505 0
M  V30 1989 H 188.773 4.95004 2.02176 0
M  V30 1990 H 189.116 3.3122 2.52189 0
M  V30 1991 H 189.649 3.87073 0.917559 0
M  V30 1992 H 186.388 6.53974 -0.447004 0
M  V30 1993 H 185.908 5.88921 1.13722 0
M  V30 1994 H 187.587 6.41307 0.856399 0
M  V30 1995 N 187.719 -0.156864 1.56817 0
M  V30 1996 C 188.629 -1.2136 2.00771 0
M  V30 1997 C 189.645 -1.47598 0.921459 0
M  V30 1998 O 190.821 -1.59462 1.2302 0
M  V30 1999 C 187.886 -2.52943 2.37109 0
M  V30 2000 C 186.947 -2.34439 3.59634 0
M  V30 2001 C 186.18 -3.59748 3.94229 0
M  V30 2002 O 186.403 -4.65526 3.29609 0
M  V30 2003 O 185.337 -3.52998 4.8752 0
M  V30 2004 H 189.163 -0.870468 2.90958 0
M  V30 2005 H 186.748 -0.36484 1.44877 0
M  V30 2006 H 188.63 -3.30538 2.61386 0
M  V30 2007 H 187.305 -2.86806 1.5008 0
M  V30 2008 H 186.212 -1.54828 3.40557 0
M  V30 2009 H 187.545 -2.05496 4.4725 0
M  V30 2010 N 189.197 -1.51736 -0.425897 0
M  V30 2011 C 190.144 -1.73875 -1.51776 0
M  V30 2012 C 191.114 -0.580702 -1.55618 0
M  V30 2013 O 192.299 -0.81641 -1.72451 0
M  V30 2014 C 189.439 -1.88012 -2.89388 0
M  V30 2015 C 188.552 -3.15606 -2.94986 0
M  V30 2016 C 187.687 -3.20271 -4.23793 0
M  V30 2017 C 186.726 -4.42134 -4.23302 0
M  V30 2018 N 185.863 -4.44284 -5.43651 0
M  V30 2019 H 190.703 -2.67071 -1.32201 0
M  V30 2020 H 188.24 -1.32351 -0.642008 0
M  V30 2021 H 190.198 -1.9419 -3.69251 0
M  V30 2022 H 188.828 -0.98213 -3.07496 0
M  V30 2023 H 187.88 -3.18681 -2.07717 0
M  V30 2024 H 189.192 -4.05486 -2.90486 0
M  V30 2025 H 188.346 -3.25428 -5.12036 0
M  V30 2026 H 187.085 -2.28299 -4.30965 0
M  V30 2027 H 186.09 -4.3714 -3.3345 0
M  V30 2028 H 187.315 -5.35382 -4.17783 0
M  V30 2029 H 185.261 -3.55188 -5.51523 0
M  V30 2030 H 185.178 -5.27988 -5.41078 0
M  V30 2031 H 186.446 -4.53649 -6.33895 0
M  V30 2032 N 190.675 0.682077 -1.42076 0
M  V30 2033 C 191.952 1.43755 -1.32642 0
M  V30 2034 C 192.332 2.11063 0.0396611 0
M  V30 2035 O 191.68 2.02701 1.05474 0
M  V30 2036 C 191.89 2.44596 -2.48946 0
M  V30 2037 C 193.238 3.09454 -2.9073 0
M  V30 2038 O 194.262 2.54922 -2.48783 0
M  V30 2039 O 193.121 4.08253 -3.63307 0
M  V30 2040 H 190.215 0.640857 -0.522715 0
M  V30 2041 H 192.761 0.711415 -1.54068 0
M  V30 2042 H 191.533 1.93609 -3.40046 0
M  V30 2043 H 191.156 3.24701 -2.29467 0
M  V30 2044 N 192.153 1.28127 0.917671 0
M  V30 2045 C 193.401 1.14825 1.66312 0
M  V30 2046 C 193.722 -0.304379 1.9261 0
M  V30 2047 O 192.992 -1.21149 1.53947 0
M  V30 2048 H 191.572 0.421953 0.616413 0
M  V30 2049 H 194.234 1.608 1.10134 0
M  V30 2050 H 193.33 1.68489 2.62712 0
M  V30 2051 N 193.631 -1.12557 1.10312 0
M  V30 2052 C 194.859 -1.87864 0.866873 0
M  V30 2053 C 195.274 -1.79588 -0.582557 0
M  V30 2054 O 194.631 -1.16887 -1.40156 0
M  V30 2055 C 194.682 -3.37125 1.30496 0
M  V30 2056 O 194.403 -3.45201 2.69755 0
M  V30 2057 C 195.904 -4.29373 1.10243 0
M  V30 2058 H 193.124 -0.594452 0.311236 0
M  V30 2059 H 195.668 -1.42429 1.46745 0
M  V30 2060 H 193.823 -3.80109 0.748081 0
M  V30 2061 H 194.237 -4.38056 2.88457 0
M  V30 2062 H 195.711 -5.32394 1.45811 0
M  V30 2063 H 196.188 -4.39181 0.0409492 0
M  V30 2064 H 196.794 -3.92169 1.64571 0
M  V30 2065 N 195.109 -0.891671 -1.2995 0
M  V30 2066 C 196.019 -0.367691 -2.31701 0
M  V30 2067 C 197.035 0.533486 -1.6562 0
M  V30 2068 O 198.211 0.424997 -1.96865 0
M  V30 2069 C 195.276 0.403406 -3.44345 0
M  V30 2070 C 194.337 -0.528328 -4.26037 0
M  V30 2071 C 193.57 0.206063 -5.33302 0
M  V30 2072 O 193.793 1.43119 -5.52153 0
M  V30 2073 O 192.727 -0.447281 -6.00236 0
M  V30 2074 H 196.553 -1.21163 -2.78484 0
M  V30 2075 H 194.138 -0.655725 -1.34241 0
M  V30 2076 H 196.02 0.839753 -4.12948 0
M  V30 2077 H 194.695 1.22354 -2.99685 0
M  V30 2078 H 193.602 -1.01362 -3.60106 0
M  V30 2079 H 194.935 -1.31465 -4.74318 0
M  V30 2080 N 196.587 1.43421 -0.653314 0
M  V30 2081 C 197.833 2.02111 -0.166992 0
M  V30 2082 C 198.166 1.51423 1.21592 0
M  V30 2083 O 197.441 0.707389 1.8118 0
M  V30 2084 C 197.724 3.5966 -0.177948 0
M  V30 2085 C 197.577 4.20579 -1.59478 0
M  V30 2086 C 198.896 4.37413 0.4856 0
M  V30 2087 H 196.015 0.734374 -0.0621557 0
M  V30 2088 H 198.657 1.70717 -0.834016 0
M  V30 2089 H 196.807 3.86537 0.390032 0
M  V30 2090 H 198.479 4.04732 -2.21336 0
M  V30 2091 H 196.722 3.77226 -2.14204 0
M  V30 2092 H 197.393 5.29665 -1.5543 0
M  V30 2093 H 199.869 4.161 0.00234528 0
M  V30 2094 H 198.745 5.47075 0.447207 0
M  V30 2095 H 199.006 4.13672 1.55974 0
M  V30 2096 N 198.065 0.39524 1.52563 0
M  V30 2097 C 199.481 0.0454682 1.59535 0
M  V30 2098 C 199.681 -1.44056 1.4089 0
M  V30 2099 O 198.737 -2.20579 1.22888 0
M  V30 2100 C 200.05 0.527963 2.96029 0
M  V30 2101 C 201.598 0.484733 3.09224 0
M  V30 2102 C 202.073 0.943512 4.48176 0
M  V30 2103 N 203.564 0.899765 4.54377 0
M  V30 2104 C 204.299 1.22609 5.60138 0
M  V30 2105 N 203.795 1.62319 6.73516 0
M  V30 2106 N 205.588 1.14696 5.50274 0
M  V30 2107 H 197.739 1.36261 1.62931 0
M  V30 2108 H 200.002 0.558887 0.765735 0
M  V30 2109 H 199.708 1.56607 3.14908 0
M  V30 2110 H 199.582 -0.0698056 3.77135 0
M  V30 2111 H 201.969 -0.544298 2.90037 0
M  V30 2112 H 202.05 1.11838 2.30056 0
M  V30 2113 H 201.694 1.9708 4.68104 0
M  V30 2114 H 201.624 0.286817 5.25818 0
M  V30 2115 H 204.115 0.607632 3.72983 0
M  V30 2116 H 204.428 1.85567 7.5019 0
M  V30 2117 H 202.773 1.66211 6.74833 0
M  V30 2118 H 205.964 0.835701 4.6058 0
M  V30 2119 H 206.137 1.40459 6.32594 0
M  V30 2120 N 199.544 -1.57102 0.125237 0
M  V30 2121 C 200.784 -1.97294 -0.534259 0
M  V30 2122 C 201.148 -1.0074 -1.63449 0
M  V30 2123 O 202.349 -1.29893 -2.35332 0
M  V30 2124 C 200.62 -3.41705 -1.04748 0
M  V30 2125 S 202.179 -4.03913 -1.71463 0
M  V30 2126 H 198.997 -0.689517 -0.173458 0
M  V30 2127 H 201.599 -1.94349 0.211797 0
M  V30 2128 H 200.303 -4.09723 -0.235649 0
M  V30 2129 H 199.834 -3.48315 -1.82867 0
M  V30 2130 H 201.849 -3.95182 -3.00077 0
M  V30 2131 N 201.022 0.148545 -1.56898 0
M  V30 2132 C 202.27 0.859717 -1.82902 0
M  V30 2133 C 202.591 1.81775 -0.70588 0
M  V30 2134 O 201.861 1.93994 0.272586 0
M  V30 2135 H 200.441 0.320469 -0.674766 0
M  V30 2136 H 203.103 0.142918 -1.94375 0
M  V30 2137 H 202.199 1.4229 -2.77777 0
M  V30 2138 N 202.5 1.5196 0.417844 0
M  V30 2139 C 203.725 1.69717 1.1921 0
M  V30 2140 C 204.15 0.402148 1.83751 0
M  V30 2141 O 203.508 -0.639593 1.69643 0
M  V30 2142 C 203.556 2.82794 2.2374 0
M  V30 2143 O 202.66 2.47756 3.29683 0
M  V30 2144 H 202.001 0.565263 0.348387 0
M  V30 2145 H 204.531 1.98621 0.490985 0
M  V30 2146 H 204.541 3.07452 2.68212 0
M  V30 2147 H 203.216 3.76756 1.76146 0
M  V30 2148 H 201.793 2.33739 2.90552 0
M  V30 2149 N 203.978 -0.674533 1.42435 0
M  V30 2150 C 205.226 -1.43175 1.42637 0
M  V30 2151 C 205.547 -1.94951 0.0438992 0
M  V30 2152 O 204.817 -1.7308 -0.917607 0
M  V30 2153 H 203.397 -0.531307 0.525092 0
M  V30 2154 H 206.059 -0.797006 1.77859 0
M  V30 2155 H 205.155 -2.28463 2.12629 0
M  V30 2156 N 205.456 -1.28612 -0.910864 0
M  V30 2157 C 206.704 -1.15705 -1.65701 0
M  V30 2158 C 207.025 0.29416 -1.92769 0
M  V30 2159 O 206.295 1.20331 -1.54588 0
M  V30 2160 H 204.875 -0.425216 -0.614167 0
M  V30 2161 H 207.537 -1.61381 -1.0928 0
M  V30 2162 H 206.633 -1.6988 -2.61815 0
M  V30 2163 N 206.934 1.1197 -1.10907 0
M  V30 2164 C 208.345 1.65114 -0.871446 0
M  V30 2165 C 208.696 1.86885 0.597353 0
M  V30 2166 O 207.821 1.59896 1.45816 0
M  V30 2167 C 208.416 2.99944 -1.5754 0
M  V30 2168 C 206.975 3.50018 -1.38435 0
M  V30 2169 C 206.122 2.24941 -1.62164 0
M  V30 2170 H 209.073 0.956851 -1.2661 0
M  V30 2171 H 209.094 3.66651 -1.01721 0
M  V30 2172 H 208.606 2.84067 -2.64438 0
M  V30 2173 H 206.707 3.71071 -0.337214 0
M  V30 2174 H 206.82 4.29165 -2.12965 0
M  V30 2175 H 205.184 2.3229 -1.04467 0
M  V30 2176 H 205.967 2.11612 -2.70324 0
M  V30 2177 N 208.412 0.89855 1.29475 0
M  V30 2178 C 209.823 0.572537 1.77705 0
M  V30 2179 C 210.174 -0.911778 1.73727 0
M  V30 2180 O 209.299 -1.71288 1.32247 0
M  V30 2181 C 209.894 1.03252 3.22683 0
M  V30 2182 C 208.453 0.757687 3.68695 0
M  V30 2183 C 207.6 1.20787 2.49612 0
M  V30 2184 H 210.551 1.08139 1.16153 0
M  V30 2185 H 210.572 0.367307 3.78723 0
M  V30 2186 H 210.084 2.11285 3.25546 0
M  V30 2187 H 208.185 -0.310079 3.71308 0
M  V30 2188 H 208.298 1.35476 4.59547 0
M  V30 2189 H 206.662 0.626888 2.46865 0
M  V30 2190 H 207.445 2.29622 2.55203 0
M  V30 2191 N 209.89 -1.43072 0.660911 0
M  V30 2192 C 211.139 -2.00942 0.174735 0
M  V30 2193 C 211.452 -1.52797 -1.22117 0
M  V30 2194 O 212.658 -2.02991 -1.80297 0
M  V30 2195 C 211.114 -3.58948 0.261559 0
M  V30 2196 C 210.722 -4.16085 1.66064 0
M  V30 2197 C 212.466 -4.24173 -0.166617 0
M  V30 2198 C 210.373 -5.6641 1.70098 0
M  V30 2199 H 209.303 -0.751483 0.0615631 0
M  V30 2200 H 211.954 -1.63955 0.824069 0
M  V30 2201 H 210.336 -3.93372 -0.455421 0
M  V30 2202 H 211.51 -3.93147 2.40359 0
M  V30 2203 H 209.825 -3.6326 2.03546 0
M  V30 2204 H 212.422 -5.34471 -0.156433 0
M  V30 2205 H 212.765 -3.98647 -1.19943 0
M  V30 2206 H 213.298 -3.94659 0.498875 0
M  V30 2207 H 210.037 -5.96715 2.71315 0
M  V30 2208 H 209.557 -5.91382 1.00139 0
M  V30 2209 H 211.236 -6.30585 1.44816 0
M  V30 2210 N 211.368 -0.403325 -1.52352 0
M  V30 2211 C 212.617 0.175668 -2.00934 0
M  V30 2212 C 212.93 1.46718 -1.29356 0
M  V30 2213 O 214.136 2.12708 -1.68724 0
M  V30 2214 C 212.592 0.363612 -3.58058 0
M  V30 2215 C 212.2 -0.915472 -4.38547 0
M  V30 2216 C 213.944 0.89821 -4.14888 0
M  V30 2217 C 211.851 -0.695035 -5.87302 0
M  V30 2218 H 210.781 0.0694234 -0.750797 0
M  V30 2219 H 213.432 -0.527879 -1.75743 0
M  V30 2220 H 211.814 1.12935 -3.79555 0
M  V30 2221 H 212.988 -1.68691 -4.28812 0
M  V30 2222 H 211.303 -1.37606 -3.93006 0
M  V30 2223 H 213.9 1.07907 -5.23699 0
M  V30 2224 H 214.243 1.87126 -3.71873 0
M  V30 2225 H 214.776 0.191681 -3.97338 0
M  V30 2226 H 211.515 -1.63948 -6.34666 0
M  V30 2227 H 211.035 0.0372116 -5.99788 0
M  V30 2228 H 212.714 -0.33497 -6.46132 0
M  V30 2229 N 212.846 1.57033 -0.133567 0
M  V30 2230 C 214.074 2.00044 0.528195 0
M  V30 2231 C 214.489 1.01349 1.59291 0
M  V30 2232 O 213.846 0.00848369 1.82498 0
M  V30 2233 C 213.897 3.43018 1.1411 0
M  V30 2234 O 213.618 4.37939 0.11892 0
M  V30 2235 C 215.119 4.01237 1.88477 0
M  V30 2236 H 212.339 0.656517 0.138661 0
M  V30 2237 H 214.883 2.03267 -0.224196 0
M  V30 2238 H 213.038 3.40688 1.84418 0
M  V30 2239 H 213.452 5.21436 0.56613 0
M  V30 2240 H 214.926 5.03314 2.26669 0
M  V30 2241 H 215.403 3.41193 2.76558 0
M  V30 2242 H 216.009 4.07156 1.22898 0
M  V30 2243 N 214.325 -0.140222 1.56975 0
M  V30 2244 C 215.272 -1.17292 1.98774 0
M  V30 2245 C 216.242 -1.4232 0.856408 0
M  V30 2246 O 217.427 -1.54541 1.119 0
M  V30 2247 C 214.567 -2.49973 2.37923 0
M  V30 2248 C 213.68 -2.32062 3.64378 0
M  V30 2249 C 212.815 -3.57825 3.926 0
M  V30 2250 C 211.854 -3.3498 5.12303 0
M  V30 2251 N 210.991 -4.52891 5.36502 0
M  V30 2252 H 215.831 -0.809472 2.86795 0
M  V30 2253 H 213.368 -0.388237 1.41884 0
M  V30 2254 H 215.326 -3.27346 2.58652 0
M  V30 2255 H 213.956 -2.84252 1.52972 0
M  V30 2256 H 213.008 -1.45711 3.51387 0
M  V30 2257 H 214.32 -2.11145 4.51906 0
M  V30 2258 H 213.474 -4.43624 4.13863 0
M  V30 2259 H 212.213 -3.81753 3.03506 0
M  V30 2260 H 211.218 -2.4757 4.90906 0
M  V30 2261 H 212.443 -3.12444 6.02956 0
M  V30 2262 H 210.389 -4.76979 4.50363 0
M  V30 2263 H 210.306 -4.35001 6.18312 0
M  V30 2264 H 211.574 -5.39884 5.62268 0
M  V30 2265 N 215.803 -1.52179 -0.40978 0
M  V30 2266 C 217.214 -1.58377 -0.988615 0
M  V30 2267 C 217.565 -0.423879 -1.91566 0
M  V30 2268 O 216.69 0.455844 -2.11544 0
M  V30 2269 C 217.285 -2.87044 -1.79976 0
M  V30 2270 C 215.844 -2.95722 -2.32863 0
M  V30 2271 C 214.991 -2.53309 -1.12828 0
M  V30 2272 H 217.942 -1.57558 -0.190039 0
M  V30 2273 H 217.963 -2.7236 -2.65707 0
M  V30 2274 H 217.475 -3.71444 -1.12478 0
M  V30 2275 H 215.576 -2.15814 -3.03735 0
M  V30 2276 H 215.689 -3.99951 -2.63773 0
M  V30 2277 H 214.053 -2.07142 -1.48204 0
M  V30 2278 H 214.836 -3.40082 -0.46897 0
M  V30 2279 N 217.281 0.66697 -1.42791 0
M  V30 2280 C 218.191 1.80962 -1.49299 0
M  V30 2281 C 219.207 1.69775 -0.381108 0
M  V30 2282 O 220.383 1.91188 -0.633188 0
M  V30 2283 C 217.448 3.17156 -1.40045 0
M  V30 2284 C 216.509 3.40242 -2.6179 0
M  V30 2285 C 215.742 4.69939 -2.52969 0
M  V30 2286 O 215.965 5.48372 -1.56985 0
M  V30 2287 O 214.899 4.94441 -3.43237 0
M  V30 2288 H 218.725 1.78427 -2.45759 0
M  V30 2289 H 216.31 0.823713 -1.24641 0
M  V30 2290 H 218.192 3.98413 -1.37276 0
M  V30 2291 H 216.867 3.20312 -0.467138 0
M  V30 2292 H 215.774 2.58802 -2.70134 0
M  V30 2293 H 217.107 3.41923 -3.54047 0
M  V30 2294 N 218.759 1.29093 0.90403 0
M  V30 2295 C 220.175 1.07011 1.1841 0
M  V30 2296 C 220.375 -0.181358 2.00682 0
M  V30 2297 O 219.431 -0.880331 2.36657 0
M  V30 2298 C 220.744 2.32311 1.90924 0
M  V30 2299 C 222.292 2.37587 2.03768 0
M  V30 2300 C 222.767 3.62679 2.79693 0
M  V30 2301 N 224.258 3.63376 2.87249 0
M  V30 2302 C 224.993 4.56848 3.46522 0
M  V30 2303 N 224.489 5.60648 4.06996 0
M  V30 2304 N 226.282 4.44426 3.44154 0
M  V30 2305 H 218.433 2.09412 0.354993 0
M  V30 2306 H 220.696 0.922181 0.219742 0
M  V30 2307 H 220.402 3.23536 1.37905 0
M  V30 2308 H 220.276 2.39483 2.91424 0
M  V30 2309 H 222.663 1.46853 2.55965 0
M  V30 2310 H 222.744 2.34403 1.02415 0
M  V30 2311 H 222.388 4.53762 2.28173 0
M  V30 2312 H 222.318 3.63119 3.81381 0
M  V30 2313 H 224.809 2.88321 2.44293 0
M  V30 2314 H 225.122 6.28101 4.50232 0
M  V30 2315 H 223.467 5.64463 4.05471 0
M  V30 2316 H 226.658 3.62529 2.96126 0
M  V30 2317 H 226.831 5.17457 3.90054 0
M  V30 2318 N 220.237 -1.11381 1.11499 0
M  V30 2319 C 221.483 -1.83403 0.865512 0
M  V30 2320 C 221.816 -1.84459 -0.607329 0
M  V30 2321 O 221.091 -1.29811 -1.44842 0
M  V30 2322 C 221.374 -3.30552 1.42855 0
M  V30 2323 C 221.227 -3.37886 2.96906 0
M  V30 2324 C 222.546 -4.26643 1.08 0
M  V30 2325 H 219.665 -0.665879 0.31587 0
M  V30 2326 H 222.307 -1.30601 1.37998 0
M  V30 2327 H 220.457 -3.75648 0.990985 0
M  V30 2328 H 222.129 -3.01343 3.49271 0
M  V30 2329 H 220.372 -2.78088 3.32941 0
M  V30 2330 H 221.043 -4.41458 3.31389 0
M  V30 2331 H 223.519 -3.89729 1.45775 0
M  V30 2332 H 222.395 -5.27986 1.50072 0
M  V30 2333 H 222.656 -4.42099 -0.00915037 0
M  V30 2334 N 221.715 -0.905404 -1.28997 0
M  V30 2335 C 222.961 -0.535039 -1.95615 0
M  V30 2336 C 223.294 0.917404 -1.71165 0
M  V30 2337 O 222.569 1.65123 -1.02785 0
M  V30 2338 C 222.852 -0.834918 -3.50287 0
M  V30 2339 C 222.705 -2.33948 -3.84172 0
M  V30 2340 C 224.024 -0.325318 -4.38896 0
M  V30 2341 H 221.143 -0.195861 -0.710498 0
M  V30 2342 H 223.785 -1.13313 -1.52513 0
M  V30 2343 H 221.935 -0.325904 -3.87131 0
M  V30 2344 H 223.607 -2.91847 -3.57243 0
M  V30 2345 H 221.85 -2.79789 -3.31513 0
M  V30 2346 H 222.521 -2.49987 -4.92149 0
M  V30 2347 H 224.997 -0.761256 -4.09077 0
M  V30 2348 H 223.873 -0.564295 -5.45992 0
M  V30 2349 H 224.134 0.774144 -4.35269 0
M  V30 2350 N 223.193 1.4272 -0.668489 0
M  V30 2351 C 224.441 2.01226 -0.187769 0
M  V30 2352 C 224.762 1.53092 1.2078 0
M  V30 2353 O 224.032 0.74993 1.80977 0
M  V30 2354 H 222.612 0.744041 -0.0664272 0
M  V30 2355 H 225.274 1.74723 -0.863583 0
M  V30 2356 H 224.37 3.11556 -0.184166 0
M  V30 2357 N 224.671 0.411399 1.52136 0
M  V30 2358 C 225.917 -0.163888 2.02137 0
M  V30 2359 C 226.25 -1.44597 1.29636 0
M  V30 2360 O 225.525 -1.90272 0.403353 0
M  V30 2361 C 225.808 -0.40927 3.57767 0
M  V30 2362 C 225.661 0.889643 4.40914 0
M  V30 2363 C 226.98 -1.19042 4.23694 0
M  V30 2364 H 224.099 -0.0580896 0.734707 0
M  V30 2365 H 226.741 0.54531 1.82007 0
M  V30 2366 H 224.891 -1.0134 3.7505 0
M  V30 2367 H 226.563 1.52575 4.35337 0
M  V30 2368 H 224.806 1.50011 4.07037 0
M  V30 2369 H 225.477 0.672314 5.4789 0
M  V30 2370 H 227.953 -0.678942 4.10524 0
M  V30 2371 H 226.829 -1.33086 5.32522 0
M  V30 2372 H 227.09 -2.21166 3.82803 0
M  V30 2373 N 226.149 -1.5696 0.141893 0
M  V30 2374 C 227.398 -1.95135 -0.510427 0
M  V30 2375 C 227.711 -1.02896 -1.66348 0
M  V30 2376 O 228.917 -1.30629 -2.38009 0
M  V30 2377 C 227.373 -3.46876 -0.959427 0
M  V30 2378 C 226.981 -4.47691 0.166419 0
M  V30 2379 C 228.725 -3.93927 -1.58183 0
M  V30 2380 C 226.632 -5.90636 -0.300565 0
M  V30 2381 H 225.562 -0.728494 -0.194454 0
M  V30 2382 H 228.213 -1.8211 0.22542 0
M  V30 2383 H 226.595 -3.55215 -1.75038 0
M  V30 2384 H 227.769 -4.51043 0.94325 0
M  V30 2385 H 226.084 -4.10527 0.696905 0
M  V30 2386 H 228.681 -4.98158 -1.94275 0
M  V30 2387 H 229.024 -3.3519 -2.46888 0
M  V30 2388 H 229.557 -3.88484 -0.855863 0
M  V30 2389 H 226.296 -6.5318 0.550989 0
M  V30 2390 H 225.816 -5.90655 -1.04338 0
M  V30 2391 H 227.495 -6.42588 -0.754265 0
M  V30 2392 N 227.627 0.131896 -1.57047 0
M  V30 2393 C 228.875 0.840269 -1.83804 0
M  V30 2394 C 229.196 1.81017 -0.72512 0
M  V30 2395 O 228.466 1.94272 0.251995 0
M  V30 2396 H 227.046 0.313294 -0.678127 0
M  V30 2397 H 229.708 0.122294 -1.94516 0
M  V30 2398 H 228.804 1.39335 -2.79271 0
M  V30 2399 N 229.106 1.52395 0.401703 0
M  V30 2400 C 230.069 1.75636 1.47257 0
M  V30 2401 C 231.069 0.62628 1.48103 0
M  V30 2402 O 232.259 0.894227 1.49497 0
M  V30 2403 C 229.391 1.84553 2.86624 0
M  V30 2404 H 230.584 2.71241 1.27938 0
M  V30 2405 H 228.137 1.42923 0.632662 0
M  V30 2406 H 228.872 0.908882 3.11303 0
M  V30 2407 H 228.657 2.66715 2.87412 0
M  V30 2408 H 230.147 2.04251 3.64241 0
M  V30 2409 N 230.584 -0.659388 1.43143 0
M  V30 2410 C 231.809 -1.45221 1.48073 0
M  V30 2411 C 232.234 -1.87845 0.097995 0
M  V30 2412 O 231.592 -1.56985 -0.90694 0
M  V30 2413 C 231.64 -2.66748 2.42647 0
M  V30 2414 O 230.744 -3.65583 1.90848 0
M  V30 2415 H 230.085 -0.435669 0.501088 0
M  V30 2416 H 232.615 -0.807432 1.87994 0
M  V30 2417 H 232.625 -3.14637 2.59745 0
M  V30 2418 H 231.3 -2.35067 3.43098 0
M  V30 2419 H 229.877 -3.24693 1.83381 0
M  V30 2420 N 232.062 -1.29571 -0.897171 0
M  V30 2421 C 233.31 -1.17456 -1.64464 0
M  V30 2422 C 233.631 0.273698 -1.9307 0
M  V30 2423 O 232.901 1.18684 -1.55855 0
M  V30 2424 H 231.481 -0.431706 -0.609622 0
M  V30 2425 H 234.143 -1.62531 -1.07562 0
M  V30 2426 H 233.239 -1.72648 -2.59998 0
M  V30 2427 N 233.54 1.10788 -1.12088 0
M  V30 2428 C 234.765 1.87002 -0.896949 0
M  V30 2429 C 235.19 1.79933 0.548261 0
M  V30 2430 O 234.548 1.16662 1.38779 0
M  V30 2431 C 234.596 3.3349 -1.37174 0
M  V30 2432 O 233.7 4.08745 -0.547831 0
M  V30 2433 H 233.041 0.580397 -0.322545 0
M  V30 2434 H 235.571 1.39996 -1.49206 0
M  V30 2435 H 235.581 3.84339 -1.36922 0
M  V30 2436 H 234.256 3.37951 -2.42408 0
M  V30 2437 H 232.833 3.6776 -0.617034 0
M  V30 2438 N 235.018 0.912232 1.28515 0
M  V30 2439 C 236.243 0.559774 1.99703 0
M  V30 2440 C 236.668 -0.851393 1.67729 0
M  V30 2441 O 236.026 -1.56875 0.908834 0
M  V30 2442 C 236.074 0.773874 3.52198 0
M  V30 2443 O 235.178 -0.167842 4.12058 0
M  V30 2444 H 234.519 0.21723 0.627461 0
M  V30 2445 H 237.049 1.22725 1.63706 0
M  V30 2446 H 237.059 0.683386 4.02236 0
M  V30 2447 H 235.734 1.80261 3.74805 0
M  V30 2448 H 234.311 -0.0287509 3.72889 0
M  V30 2449 N 236.496 -1.42363 0.676048 0
M  V30 2450 C 237.742 -2.0182 0.199125 0
M  V30 2451 C 238.075 -1.53339 -1.19168 0
M  V30 2452 O 237.35 -0.736124 -1.80032 0
M  V30 2453 C 237.633 -3.59331 0.235144 0
M  V30 2454 C 237.486 -4.17989 1.66149 0
M  V30 2455 C 238.805 -4.3813 -0.41595 0
M  V30 2456 H 235.924 -0.733293 0.0738311 0
M  V30 2457 H 238.566 -1.69368 0.86107 0
M  V30 2458 H 236.716 -3.87109 -0.328487 0
M  V30 2459 H 238.388 -4.0116 2.27747 0
M  V30 2460 H 236.631 -3.7377 2.20178 0
M  V30 2461 H 237.302 -5.27126 1.63837 0
M  V30 2462 H 239.778 -4.16051 0.0638529 0
M  V30 2463 H 238.654 -5.47717 -0.360115 0
M  V30 2464 H 238.915 -4.16101 -1.49373 0
M  V30 2465 N 237.974 -0.419461 -1.51915 0
M  V30 2466 C 239.199 0.154572 -2.06823 0
M  V30 2467 C 239.624 1.3722 -1.28656 0
M  V30 2468 O 238.982 1.78461 -0.319583 0
M  V30 2469 C 239.03 0.473172 -3.57482 0
M  V30 2470 O 238.134 1.56255 -3.81652 0
M  V30 2471 H 237.475 0.0096924 -0.663929 0
M  V30 2472 H 240.005 -0.595642 -1.95738 0
M  V30 2473 H 240.015 0.728825 -4.01438 0
M  V30 2474 H 238.69 -0.416873 -4.13805 0
M  V30 2475 H 237.267 1.29825 -3.49571 0
M  V30 2476 N 239.452 1.56882 -0.150215 0
M  V30 2477 C 240.701 1.95403 0.500071 0
M  V30 2478 C 241.014 1.03777 1.658 0
M  V30 2479 O 242.22 1.31889 2.37313 0
M  V30 2480 C 240.676 3.4738 0.941018 0
M  V30 2481 C 240.284 4.47596 -0.190158 0
M  V30 2482 C 242.028 3.9476 1.56091 0
M  V30 2483 C 239.935 5.90787 0.269237 0
M  V30 2484 H 238.865 0.729515 0.190588 0
M  V30 2485 H 241.516 1.81988 -0.235074 0
M  V30 2486 H 239.898 3.56138 1.73152 0
M  V30 2487 H 241.072 4.50536 -0.967157 0
M  V30 2488 H 239.387 4.10151 -0.718666 0
M  V30 2489 H 241.984 4.99181 1.9163 0
M  V30 2490 H 242.327 3.36494 2.45107 0
M  V30 2491 H 242.86 3.88932 0.835249 0
M  V30 2492 H 239.599 6.52879 -0.585621 0
M  V30 2493 H 239.119 5.912 1.01204 0
M  V30 2494 H 240.798 6.42979 0.720176 0
M  V30 2495 N 240.93 -0.123565 1.57115 0
M  V30 2496 C 241.863 -1.18202 1.95201 0
M  V30 2497 C 242.841 -1.40349 0.821031 0
M  V30 2498 O 244.025 -1.54578 1.07879 0
M  V30 2499 C 241.152 -2.53671 2.24429 0
M  V30 2500 C 240.198 -2.4798 3.46999 0
M  V30 2501 S 241.031 -1.92389 4.99747 0
M  V30 2502 C 242.187 -3.2954 5.32123 0
M  V30 2503 H 242.42 -0.857212 2.84674 0
M  V30 2504 H 239.953 -0.33014 1.50829 0
M  V30 2505 H 241.911 -3.3162 2.41947 0
M  V30 2506 H 240.572 -2.83332 1.35579 0
M  V30 2507 H 239.765 -3.47758 3.64801 0
M  V30 2508 H 239.367 -1.7815 3.28844 0
M  V30 2509 H 241.659 -4.25736 5.27025 0
M  V30 2510 H 242.602 -3.16569 6.33395 0
M  V30 2511 H 243.01 -3.27758 4.59603 0
M  V30 2512 N 242.408 -1.52605 -0.393616 0
M  V30 2513 C 243.654 -1.67672 -1.14079 0
M  V30 2514 C 243.987 -0.413121 -1.89755 0
M  V30 2515 O 243.262 0.588952 -1.85369 0
M  V30 2516 C 243.545 -2.9088 -2.12276 0
M  V30 2517 C 243.398 -4.27329 -1.40394 0
M  V30 2518 C 244.717 -3.09628 -3.12759 0
M  V30 2519 H 241.836 -0.610168 -0.413356 0
M  V30 2520 H 244.478 -1.85193 -0.424696 0
M  V30 2521 H 242.628 -2.76073 -2.73342 0
M  V30 2522 H 244.3 -4.53894 -0.82327 0
M  V30 2523 H 242.543 -4.2802 -0.705801 0
M  V30 2524 H 243.214 -5.09615 -2.12123 0
M  V30 2525 H 245.69 -3.23436 -2.61779 0
M  V30 2526 H 244.566 -3.97322 -3.78717 0
M  V30 2527 H 244.827 -2.23637 -3.81365 0
M  V30 2528 N 243.887 0.651787 -1.4349 0
M  V30 2529 C 244.85 1.74647 -1.48429 0
M  V30 2530 C 245.85 1.56513 -0.368817 0
M  V30 2531 O 247.04 1.62385 -0.630623 0
M  V30 2532 C 244.172 3.13533 -1.33827 0
M  V30 2533 H 245.365 1.71649 -2.4592 0
M  V30 2534 H 242.918 0.863573 -1.30277 0
M  V30 2535 H 243.653 3.22142 -0.37349 0
M  V30 2536 H 243.438 3.28101 -2.14691 0
M  V30 2537 H 244.928 3.93356 -1.40218 0
M  V30 2538 N 245.365 1.30045 0.890287 0
M  V30 2539 C 246.313 1.15873 2.01683 0
M  V30 2540 C 247.307 0.0719403 1.69247 0
M  V30 2541 O 248.513 0.232414 1.78493 0
M  V30 2542 H 244.888 0.358203 0.661207 0
M  V30 2543 H 246.859 2.11229 2.10772 0
M  V30 2544 C 245.608 0.861842 3.36849 0
M  V30 2545 H 244.931 1.69016 3.62317 0
M  V30 2546 H 246.371 0.802762 4.16331 0
M  V30 2547 C 244.83 -0.435132 3.34078 0
M  V30 2548 O 245.36 -1.4583 3.74295 0
M  V30 2549 N 243.566 -0.444377 2.87182 0
M  V30 2550 H 243.113 0.388723 2.5465 0
M  V30 2551 H 243.071 -1.31213 2.85711 0
M  V30 2552 N 246.843 -1.10192 1.12674 0
M  V30 2553 C 248.092 -1.81573 0.8783 0
M  V30 2554 C 248.405 -1.86249 -0.597557 0
M  V30 2555 O 249.611 -2.5386 -0.962681 0
M  V30 2556 C 248.067 -3.26149 1.52167 0
M  V30 2557 C 247.675 -3.29763 3.03249 0
M  V30 2558 C 249.419 -4.0234 1.3536 0
M  V30 2559 C 247.326 -4.68815 3.60508 0
M  V30 2560 H 246.256 -0.680394 0.324931 0
M  V30 2561 H 248.907 -1.23902 1.35353 0
M  V30 2562 H 247.289 -3.83832 0.974104 0
M  V30 2563 H 248.463 -2.8189 3.6452 0
M  V30 2564 H 246.778 -2.67059 3.19481 0
M  V30 2565 H 249.375 -5.05058 1.75559 0
M  V30 2566 H 249.718 -4.15235 0.297554 0
M  V30 2567 H 250.251 -3.51079 1.87052 0
M  V30 2568 H 246.99 -4.61121 4.65884 0
M  V30 2569 H 246.51 -5.17045 3.04014 0
M  V30 2570 H 248.189 -5.37785 3.59717 0
M  V30 2571 N 248.321 -0.919034 -1.28029 0
M  V30 2572 C 249.251 -0.428581 -2.29533 0
M  V30 2573 C 250.232 0.50659 -1.62381 0
M  V30 2574 O 251.417 0.413195 -1.89753 0
M  V30 2575 C 248.547 0.327388 -3.45753 0
M  V30 2576 C 247.501 -0.519137 -4.2484 0
M  V30 2577 C 246.827 0.365486 -5.33449 0
M  V30 2578 C 248.127 -1.77914 -4.91064 0
M  V30 2579 H 249.821 -1.27687 -2.70807 0
M  V30 2580 H 247.367 -0.615428 -1.30186 0
M  V30 2581 H 249.32 0.681378 -4.15855 0
M  V30 2582 H 248.044 1.20963 -3.03374 0
M  V30 2583 H 246.703 -0.855717 -3.56473 0
M  V30 2584 H 246.351 1.24642 -4.87312 0
M  V30 2585 H 246.051 -0.197356 -5.87268 0
M  V30 2586 H 247.575 0.715241 -6.06396 0
M  V30 2587 H 248.989 -1.49374 -5.53498 0
M  V30 2588 H 247.386 -2.2848 -5.54903 0
M  V30 2589 H 248.456 -2.50382 -4.15255 0
M  V30 2590 N 249.799 1.42003 -0.683588 0
M  V30 2591 C 251.215 1.55625 -0.353976 0
M  V30 2592 C 251.415 1.66151 1.14 0
M  V30 2593 O 250.471 1.63329 1.92561 0
M  V30 2594 C 251.784 2.80171 -1.092 0
M  V30 2595 C 253.332 2.93954 -1.07518 0
M  V30 2596 C 253.807 4.21372 -1.79471 0
M  V30 2597 N 255.298 4.28303 -1.76381 0
M  V30 2598 C 256.033 5.25729 -2.28904 0
M  V30 2599 N 255.529 6.29254 -2.89846 0
M  V30 2600 N 257.322 5.17586 -2.19228 0
M  V30 2601 H 249.473 1.33415 -1.6527 0
M  V30 2602 H 251.736 0.64282 -0.696769 0
M  V30 2603 H 251.442 2.78561 -2.14701 0
M  V30 2604 H 251.316 3.7133 -0.662862 0
M  V30 2605 H 253.703 2.95086 -0.028475 0
M  V30 2606 H 253.784 2.04002 -1.54328 0
M  V30 2607 H 253.428 4.21001 -2.84114 0
M  V30 2608 H 253.358 5.10275 -1.30104 0
M  V30 2609 H 255.849 3.54119 -1.31939 0
M  V30 2610 H 256.162 6.99964 -3.27522 0
M  V30 2611 H 254.507 6.29791 -2.93919 0
M  V30 2612 H 257.698 4.35631 -1.71299 0
M  V30 2613 H 257.871 5.93348 -2.60466 0
M  V30 2614 N 251.277 0.427512 1.51691 0
M  V30 2615 C 252.207 -0.3796 2.30394 0
M  V30 2616 C 253.188 -1.02982 1.35384 0
M  V30 2617 O 254.373 -1.03534 1.643 0
M  V30 2618 C 251.503 -1.48649 3.1388 0
M  V30 2619 C 250.457 -0.960294 4.17088 0
M  V30 2620 C 249.783 -2.16219 4.89033 0
M  V30 2621 C 251.083 -0.00153679 5.223 0
M  V30 2622 H 252.777 0.277164 2.98114 0
M  V30 2623 H 250.323 0.134739 1.43368 0
M  V30 2624 H 252.276 -2.05826 3.67714 0
M  V30 2625 H 251 -2.1714 2.43962 0
M  V30 2626 H 249.659 -0.410806 3.64291 0
M  V30 2627 H 249.307 -2.83307 4.15628 0
M  V30 2628 H 249.007 -1.81654 5.58816 0
M  V30 2629 H 250.531 -2.73968 5.45687 0
M  V30 2630 H 251.945 -0.482687 5.71264 0
M  V30 2631 H 250.342 0.256199 5.99553 0
M  V30 2632 H 251.412 0.938174 4.75738 0
M  V30 2633 N 252.755 -1.56801 0.158532 0
M  V30 2634 C 254.002 -1.9649 -0.489679 0
M  V30 2635 C 254.33 -1.04394 -1.6411 0
M  V30 2636 O 253.585 -0.0754401 -1.95555 0
M  V30 2637 C 253.884 -3.4235 -1.02623 0
M  V30 2638 C 253.55 -4.50899 0.00794526 0
M  V30 2639 C 252.212 -4.80312 0.292207 0
M  V30 2640 C 254.564 -5.16333 0.710584 0
M  V30 2641 C 251.892 -5.72461 1.28472 0
M  V30 2642 C 254.244 -6.09553 1.69199 0
M  V30 2643 C 252.908 -6.37339 1.98383 0
M  V30 2644 H 252.178 -0.719009 -0.179186 0
M  V30 2645 H 254.825 -1.8989 0.247798 0
M  V30 2646 H 253.13 -3.45838 -1.84128 0
M  V30 2647 H 254.827 -3.70393 -1.53656 0
M  V30 2648 H 251.417 -4.28015 -0.22379 0
M  V30 2649 H 255.601 -4.93732 0.504174 0
M  V30 2650 H 250.857 -5.92278 1.51714 0
M  V30 2651 H 255.031 -6.59327 2.24189 0
M  V30 2652 H 252.658 -7.08546 2.7544 0
M  V30 2653 N 254.233 0.115231 -1.57178 0
M  V30 2654 C 255.18 1.14115 -2.00615 0
M  V30 2655 C 256.15 1.40939 -0.878941 0
M  V30 2656 O 257.335 1.52741 -1.14345 0
M  V30 2657 C 254.475 2.46156 -2.4187 0
M  V30 2658 C 253.588 2.26236 -3.68024 0
M  V30 2659 C 252.723 3.51534 -3.98243 0
M  V30 2660 C 251.762 3.26787 -5.17568 0
M  V30 2661 N 250.899 4.44298 -5.43639 0
M  V30 2662 H 255.739 0.763743 -2.88047 0
M  V30 2663 H 253.276 0.365615 -1.42484 0
M  V30 2664 H 255.234 3.23189 -2.63827 0
M  V30 2665 H 253.864 2.81783 -1.57475 0
M  V30 2666 H 252.916 1.40102 -3.5366 0
M  V30 2667 H 254.228 2.03929 -4.55208 0
M  V30 2668 H 253.382 4.36984 -4.20868 0
M  V30 2669 H 252.121 3.76876 -3.09541 0
M  V30 2670 H 251.126 2.39729 -4.94783 0
M  V30 2671 H 252.351 3.02812 -6.0785 0
M  V30 2672 H 250.297 4.69754 -4.57895 0
M  V30 2673 H 250.214 4.25109 -6.25154 0
M  V30 2674 H 251.482 5.3087 -5.70786 0
M  V30 2675 N 255.711 1.52812 0.385517 0
M  V30 2676 C 256.96 1.67249 1.12741 0
M  V30 2677 C 257.273 0.4205 1.91027 0
M  V30 2678 O 258.479 0.445064 2.67827 0
M  V30 2679 C 256.935 2.95583 2.05326 0
M  V30 2680 C 256.543 4.27974 1.32447 0
M  V30 2681 C 258.287 3.19386 2.7963 0
M  V30 2682 C 256.194 5.47412 2.23818 0
M  V30 2683 H 255.124 0.6231 0.424573 0
M  V30 2684 H 257.775 1.79309 0.389924 0
M  V30 2685 H 256.157 2.77277 2.82725 0
M  V30 2686 H 257.331 4.56844 0.602495 0
M  V30 2687 H 255.646 4.10459 0.700885 0
M  V30 2688 H 258.243 4.05801 3.48181 0
M  V30 2689 H 258.586 2.34604 3.43899 0
M  V30 2690 H 259.119 3.38274 2.09322 0
M  V30 2691 H 255.858 6.34612 1.64157 0
M  V30 2692 H 255.378 5.22849 2.93921 0
M  V30 2693 H 257.057 5.81423 2.83824 0
M  V30 2694 N 257.189 -0.644168 1.43834 0
M  V30 2695 C 258.6 -1.22554 1.40845 0
M  V30 2696 C 258.951 -1.9585 0.117115 0
M  V30 2697 O 258.076 -2.01734 -0.783086 0
M  V30 2698 C 258.671 -2.22907 2.55143 0
M  V30 2699 C 257.23 -2.76501 2.5539 0
M  V30 2700 C 256.377 -1.51287 2.32396 0
M  V30 2701 H 259.328 -0.43563 1.52604 0
M  V30 2702 H 259.349 -3.05259 2.2715 0
M  V30 2703 H 258.861 -1.69533 3.49114 0
M  V30 2704 H 256.962 -3.33914 1.65324 0
M  V30 2705 H 257.075 -3.23429 3.53455 0
M  V30 2706 H 255.439 -1.78957 1.81236 0
M  V30 2707 H 256.222 -0.998336 3.28463 0
M  V30 2708 N 258.668 -1.30515 -0.883378 0
M  V30 2709 C 259.6 -1.12846 -1.99496 0
M  V30 2710 C 260.613 -0.0712571 -1.62644 0
M  V30 2711 O 261.802 -0.317432 -1.75655 0
M  V30 2712 C 258.902 -0.699123 -3.3161 0
M  V30 2713 C 258.075 -1.83842 -3.96889 0
M  V30 2714 C 257.134 -1.39737 -5.07307 0
M  V30 2715 O 256.16 -2.10485 -5.28852 0
M  V30 2716 N 257.362 -0.277279 -5.79837 0
M  V30 2717 H 260.127 -2.08585 -2.15203 0
M  V30 2718 H 257.688 -1.22672 -1.05656 0
M  V30 2719 H 259.68 -0.387044 -4.02845 0
M  V30 2720 H 258.25 0.166276 -3.12157 0
M  V30 2721 H 257.47 -2.31853 -3.18807 0
M  V30 2722 H 258.758 -2.60187 -4.37241 0
M  V30 2723 H 258.156 0.3122 -5.64838 0
M  V30 2724 H 256.713 -0.0246623 -6.51795 0
M  V30 2725 N 260.146 1.09593 -1.13257 0
M  V30 2726 C 261.395 1.81105 -0.887917 0
M  V30 2727 C 261.708 1.86563 0.587672 0
M  V30 2728 O 262.914 2.54367 0.949204 0
M  V30 2729 C 261.37 3.25338 -1.53895 0
M  V30 2730 C 260.978 3.28151 -3.04994 0
M  V30 2731 C 262.722 4.01617 -1.37492 0
M  V30 2732 C 260.629 4.66897 -3.6299 0
M  V30 2733 H 259.559 0.678661 -0.328534 0
M  V30 2734 H 262.21 1.23183 -1.36008 0
M  V30 2735 H 260.592 3.8331 -0.994446 0
M  V30 2736 H 261.766 2.79953 -3.66009 0
M  V30 2737 H 260.081 2.65361 -3.20893 0
M  V30 2738 H 262.678 5.04119 -1.78235 0
M  V30 2739 H 263.021 4.15072 -0.31957 0
M  V30 2740 H 263.554 3.50082 -1.88912 0
M  V30 2741 H 260.293 4.58643 -4.68323 0
M  V30 2742 H 259.813 5.15426 -3.06752 0
M  V30 2743 H 261.492 5.3587 -3.62563 0
M  V30 2744 N 261.624 0.925811 1.2754 0
M  V30 2745 C 262.849 0.580924 1.99098 0
M  V30 2746 C 263.274 -0.833555 1.68622 0
M  V30 2747 O 262.632 -1.55903 0.925422 0
M  V30 2748 C 262.68 0.811186 3.51358 0
M  V30 2749 O 261.784 -0.124129 4.12213 0
M  V30 2750 H 261.125 0.223873 0.625122 0
M  V30 2751 H 263.655 1.24455 1.62395 0
M  V30 2752 H 263.665 0.72601 4.01489 0
M  V30 2753 H 262.34 1.84227 3.72872 0
M  V30 2754 H 260.917 0.0108006 3.72898 0
M  V30 2755 N 263.102 -1.41638 0.69111 0
M  V30 2756 C 264.332 -2.0533 0.228758 0
M  V30 2757 C 264.74 -1.52089 -1.12541 0
M  V30 2758 O 264.083 -0.662145 -1.71351 0
M  V30 2759 C 264.145 -3.59349 0.10407 0
M  V30 2760 C 263.809 -4.35362 1.38956 0
M  V30 2761 C 264.806 -4.64942 2.32648 0
M  V30 2762 C 262.491 -4.74714 1.64169 0
M  V30 2763 C 264.485 -5.32828 3.49818 0
M  V30 2764 C 262.172 -5.42338 2.81625 0
M  V30 2765 C 263.17 -5.71322 3.74273 0
M  V30 2766 O 262.858 -6.37554 4.89673 0
M  V30 2767 H 262.59 -0.667796 0.104997 0
M  V30 2768 H 265.144 -1.82477 0.942938 0
M  V30 2769 H 263.374 -3.80924 -0.665839 0
M  V30 2770 H 265.063 -4.04633 -0.320519 0
M  V30 2771 H 265.829 -4.35025 2.14425 0
M  V30 2772 H 261.708 -4.51538 0.929202 0
M  V30 2773 H 265.252 -5.55368 4.22152 0
M  V30 2774 H 261.149 -5.71673 2.99768 0
M  V30 2775 H 261.917 -6.56049 4.8943 0
M  V30 2776 N 264.58 -0.43555 -1.51462 0
M  V30 2777 C 265.543 0.365137 -2.26273 0
M  V30 2778 C 266.543 0.951227 -1.29647 0
M  V30 2779 O 267.733 0.825958 -1.53374 0
M  V30 2780 C 264.865 1.51645 -3.05314 0
M  V30 2781 H 266.058 -0.290474 -2.9849 0
M  V30 2782 H 263.611 -0.188676 -1.55157 0
M  V30 2783 H 264.346 2.20816 -2.3751 0
M  V30 2784 H 264.131 1.10238 -3.76284 0
M  V30 2785 H 265.621 2.08218 -3.61987 0
M  V30 2786 N 266.058 1.56714 -0.166846 0
M  V30 2787 C 267.283 2.01557 0.488833 0
M  V30 2788 C 267.708 1.0463 1.56314 0
M  V30 2789 O 267.066 0.0251304 1.81283 0
M  V30 2790 C 267.114 3.4503 1.04818 0
M  V30 2791 O 266.218 3.51163 2.16236 0
M  V30 2792 H 265.559 0.653516 0.117526 0
M  V30 2793 H 268.089 2.02818 -0.269421 0
M  V30 2794 H 268.099 3.84243 1.37191 0
M  V30 2795 H 266.774 4.15077 0.261572 0
M  V30 2796 H 265.351 3.23807 1.84942 0
M  V30 2797 N 267.536 -0.106894 1.57237 0
M  V30 2798 C 268.764 -0.826389 1.8968 0
M  V30 2799 C 269.179 -1.72856 0.759353 0
M  V30 2800 O 268.536 -1.80503 -0.269263 0
M  V30 2801 C 268.587 -1.64967 3.21665 0
M  V30 2802 O 268.308 -0.783804 4.31031 0
M  V30 2803 C 269.809 -2.47326 3.67892 0
M  V30 2804 H 267.029 -0.236927 0.627779 0
M  V30 2805 H 269.573 -0.0876593 2.04312 0
M  V30 2806 H 267.728 -2.34103 3.08666 0
M  V30 2807 H 268.142 -1.35284 5.06753 0
M  V30 2808 H 269.616 -3.00604 4.6297 0
M  V30 2809 H 270.093 -3.25247 2.95146 0
M  V30 2810 H 270.699 -1.83411 3.83719 0
M  V30 2811 N 269.014 -1.53014 -0.377408 0
M  V30 2812 C 269.977 -1.77957 -1.44444 0
M  V30 2813 C 270.977 -0.649763 -1.47087 0
M  V30 2814 O 272.167 -0.917897 -1.48055 0
M  V30 2815 C 269.299 -1.89089 -2.83651 0
M  V30 2816 H 270.492 -2.73243 -1.23606 0
M  V30 2817 H 268.045 -1.43912 -0.609844 0
M  V30 2818 H 268.78 -0.958293 -3.09818 0
M  V30 2819 H 268.565 -2.71254 -2.83132 0
M  V30 2820 H 270.055 -2.1002 -3.60945 0
M  V30 2821 N 270.492 0.636531 -1.44174 0
M  V30 2822 C 271.903 1.21806 -1.41493 0
M  V30 2823 C 272.254 1.95785 -0.1275 0
M  V30 2824 O 271.379 2.02147 0.772376 0
M  V30 2825 C 271.974 2.21551 -2.56321 0
M  V30 2826 C 270.533 2.75143 -2.56853 0
M  V30 2827 C 269.68 1.50052 -2.33195 0
M  V30 2828 H 272.631 0.427531 -1.52833 0
M  V30 2829 H 272.652 3.0405 -2.28765 0
M  V30 2830 H 272.164 1.67679 -3.50008 0
M  V30 2831 H 270.265 3.33033 -1.67093 0
M  V30 2832 H 270.378 3.2155 -3.55165 0
M  V30 2833 H 268.742 1.77993 -1.82183 0
M  V30 2834 H 269.525 0.980903 -3.28988 0
M  V30 2835 N 271.97 1.30982 0.876444 0
M  V30 2836 C 273.247 1.10942 1.61094 0
M  V30 2837 C 273.627 -0.338223 2.08373 0
M  V30 2838 O 272.975 -1.33122 1.85717 0
M  V30 2839 C 273.185 2.11789 2.77392 0
M  V30 2840 C 274.533 2.43965 3.47514 0
M  V30 2841 O 275.557 2.10166 2.87591 0
M  V30 2842 O 274.416 3.01817 4.55597 0
M  V30 2843 H 271.51 0.42667 0.708436 0
M  V30 2844 H 274.056 1.42438 0.922474 0
M  V30 2845 H 272.828 3.09194 2.39823 0
M  V30 2846 H 272.451 1.81161 3.5393 0
M  V30 2847 N 273.449 -1.08991 1.13837 0
M  V30 2848 C 274.379 -2.17771 0.842507 0
M  V30 2849 C 275.36 -1.6892 -0.20001 0
M  V30 2850 O 276.545 -1.94113 -0.0579731 0
M  V30 2851 C 273.675 -3.4589 0.312644 0
M  V30 2852 C 272.629 -4.08099 1.28992 0
M  V30 2853 C 271.955 -5.31098 0.619623 0
M  V30 2854 C 273.255 -4.50077 2.65005 0
M  V30 2855 H 274.949 -2.42777 1.75213 0
M  V30 2856 H 272.495 -1.16682 0.843875 0
M  V30 2857 H 274.448 -4.21297 0.0933043 0
M  V30 2858 H 273.172 -3.20419 -0.632382 0
M  V30 2859 H 271.831 -3.34717 1.49533 0
M  V30 2860 H 271.479 -5.0191 -0.33102 0
M  V30 2861 H 271.179 -5.73674 1.27167 0
M  V30 2862 H 272.703 -6.09224 0.409669 0
M  V30 2863 H 274.117 -5.16688 2.48407 0
M  V30 2864 H 272.514 -5.03553 3.26427 0
M  V30 2865 H 273.584 -3.62257 3.22332 0
M  V30 2866 N 274.927 -0.932562 -1.27047 0
M  V30 2867 C 276.152 -0.591474 -1.98787 0
M  V30 2868 C 276.577 0.824601 -1.69062 0
M  V30 2869 O 275.935 1.5541 -0.933677 0
M  V30 2870 C 275.983 -0.829808 -3.50922 0
M  V30 2871 O 275.087 0.102266 -4.12273 0
M  V30 2872 H 274.428 -0.227185 -0.623926 0
M  V30 2873 H 276.958 -1.25314 -1.61733 0
M  V30 2874 H 276.968 -0.747292 -4.01098 0
M  V30 2875 H 275.643 -1.86201 -3.7189 0
M  V30 2876 H 274.22 -0.0305761 -3.72887 0
M  V30 2877 N 276.405 1.4127 -0.698611 0
M  V30 2878 C 277.682 1.94955 -0.158762 0
M  V30 2879 C 278.062 1.63781 1.33188 0
M  V30 2880 O 277.41 0.946423 2.07979 0
M  V30 2881 C 277.62 3.46044 -0.453309 0
M  V30 2882 C 278.968 4.22872 -0.382707 0
M  V30 2883 O 279.992 3.54076 -0.388396 0
M  V30 2884 O 278.851 5.45407 -0.345463 0
M  V30 2885 H 275.945 0.82683 -0.0167505 0
M  V30 2886 H 278.491 1.50971 -0.77498 0
M  V30 2887 H 277.263 3.62028 -1.48498 0
M  V30 2888 H 276.886 3.97128 0.19373 0
M  V30 2889 N 277.883 0.443576 1.51229 0
M  V30 2890 C 278.831 -0.37904 2.29491 0
M  V30 2891 C 279.825 -1.0153 1.35603 0
M  V30 2892 O 281.031 -0.94955 1.52917 0
M  V30 2893 H 277.406 -0.141053 0.738653 0
M  V30 2894 H 279.377 0.301799 2.9687 0
M  V30 2895 C 278.126 -1.46426 3.15364 0
M  V30 2896 H 277.449 -0.984037 3.87501 0
M  V30 2897 H 278.889 -2.01297 3.7317 0
M  V30 2898 C 277.348 -2.45099 2.31146 0
M  V30 2899 O 277.878 -3.49773 1.9754 0
M  V30 2900 N 276.084 -2.16139 1.94249 0
M  V30 2901 H 275.631 -1.31044 2.21777 0
M  V30 2902 H 275.589 -2.82398 1.38198 0
M  V30 2903 N 279.361 -1.56624 0.175154 0
M  V30 2904 C 280.586 -2.01813 -0.478137 0
M  V30 2905 C 281.011 -1.05457 -1.55757 0
M  V30 2906 O 280.369 -0.0347439 -1.81267 0
M  V30 2907 C 280.417 -3.45581 -1.02987 0
M  V30 2908 O 279.521 -3.52305 -2.14371 0
M  V30 2909 H 278.862 -0.65413 -0.114059 0
M  V30 2910 H 281.392 -2.02673 0.280173 0
M  V30 2911 H 281.402 -3.84965 -1.35151 0
M  V30 2912 H 280.077 -4.1521 -0.239556 0
M  V30 2913 H 278.654 -3.24783 -1.83222 0
M  V30 2914 N 280.839 0.0985539 -1.57292 0
M  V30 2915 C 282.255 0.45267 -1.53046 0
M  V30 2916 C 282.455 1.80713 -0.891342 0
M  V30 2917 O 281.511 2.4785 -0.482375 0
M  V30 2918 C 282.824 0.418341 -2.97776 0
M  V30 2919 C 284.372 0.500443 -3.08973 0
M  V30 2920 C 284.847 0.496297 -4.55303 0
M  V30 2921 N 286.338 0.557151 -4.59837 0
M  V30 2922 C 287.073 0.575726 -5.70502 0
M  V30 2923 N 286.569 0.550714 -6.90608 0
M  V30 2924 N 288.362 0.620277 -5.58667 0
M  V30 2925 H 280.513 -0.788673 -1.97215 0
M  V30 2926 H 282.776 -0.293188 -0.901524 0
M  V30 2927 H 282.482 -0.509659 -3.47988 0
M  V30 2928 H 282.356 1.2386 -3.56284 0
M  V30 2929 H 284.743 1.41886 -2.58751 0
M  V30 2930 H 284.824 -0.347894 -2.53423 0
M  V30 2931 H 284.468 -0.418162 -5.06176 0
M  V30 2932 H 284.398 1.3618 -5.08687 0
M  V30 2933 H 286.889 0.581816 -3.73394 0
M  V30 2934 H 287.202 0.568075 -7.70709 0
M  V30 2935 H 285.547 0.517816 -6.93068 0
M  V30 2936 H 288.738 0.637322 -4.63741 0
M  V30 2937 H 288.911 0.631283 -6.44918 0
M  V30 2938 N 282.317 1.53212 0.369288 0
M  V30 2939 C 283.547 1.72868 1.13139 0
M  V30 2940 C 283.955 0.455754 1.83629 0
M  V30 2941 O 283.298 -0.580861 1.74275 0
M  V30 2942 C 283.36 2.83667 2.20847 0
M  V30 2943 C 283.024 4.24142 1.70155 0
M  V30 2944 C 284.021 5.06619 1.16763 0
M  V30 2945 C 281.706 4.70539 1.7578 0
M  V30 2946 C 283.7 6.33581 0.696678 0
M  V30 2947 C 281.387 5.97481 1.28297 0
M  V30 2948 C 282.385 6.78833 0.753307 0
M  V30 2949 O 282.073 8.03393 0.285475 0
M  V30 2950 H 281.805 0.581707 0.344373 0
M  V30 2951 H 284.359 2.00736 0.435243 0
M  V30 2952 H 282.589 2.51265 2.93944 0
M  V30 2953 H 284.278 2.91536 2.82421 0
M  V30 2954 H 285.044 4.71948 1.11758 0
M  V30 2955 H 280.923 4.07293 2.15949 0
M  V30 2956 H 284.467 6.97027 0.282581 0
M  V30 2957 H 280.364 6.31651 1.32994 0
M  V30 2958 H 281.132 8.17497 0.405145 0
M  V30 2959 N 283.795 -0.628877 1.44509 0
M  V30 2960 C 285.072 -1.38733 1.37886 0
M  V30 2961 C 285.452 -2.11065 0.0387008 0
M  V30 2962 O 284.8 -2.06476 -0.97878 0
M  V30 2963 C 285.01 -2.35188 2.57852 0
M  V30 2964 C 286.358 -2.9845 3.02014 0
M  V30 2965 O 287.382 -2.45513 2.58073 0
M  V30 2966 O 286.241 -3.94487 3.78209 0
M  V30 2967 H 283.335 -0.621015 0.54614 0
M  V30 2968 H 285.881 -0.653744 1.56602 0
M  V30 2969 H 284.653 -1.80855 3.46998 0
M  V30 2970 H 284.276 -3.1596 2.4136 0
M  V30 2971 N 285.273 -1.31445 -0.869486 0
M  V30 2972 C 286.52 -1.21158 -1.62256 0
M  V30 2973 C 286.848 0.230155 -1.93133 0
M  V30 2974 O 286.103 1.17906 -1.56194 0
M  V30 2975 C 286.402 -2.00145 -2.96102 0
M  V30 2976 C 286.068 -3.4964 -2.84715 0
M  V30 2977 C 284.73 -3.90403 -2.81317 0
M  V30 2978 C 287.082 -4.44769 -2.71716 0
M  V30 2979 C 284.41 -5.24561 -2.62778 0
M  V30 2980 C 286.762 -5.79054 -2.54714 0
M  V30 2981 C 285.426 -6.19037 -2.49699 0
M  V30 2982 H 284.696 -0.443348 -0.593737 0
M  V30 2983 H 287.343 -1.62715 -1.00976 0
M  V30 2984 H 285.648 -1.5127 -3.6142 0
M  V30 2985 H 287.345 -1.89566 -3.53363 0
M  V30 2986 H 283.935 -3.17256 -2.88178 0
M  V30 2987 H 288.119 -4.14208 -2.73397 0
M  V30 2988 H 283.375 -5.54613 -2.57321 0
M  V30 2989 H 287.549 -6.52393 -2.43632 0
M  V30 2990 H 285.176 -7.22935 -2.35093 0
M  V30 2991 N 286.751 1.08385 -1.14413 0
M  V30 2992 C 287.998 1.80776 -0.912482 0
M  V30 2993 C 288.326 1.86236 0.560934 0
M  V30 2994 O 287.581 1.33431 1.43159 0
M  V30 2995 C 287.88 3.26273 -1.45879 0
M  V30 2996 C 287.546 3.4093 -2.95089 0
M  V30 2997 C 286.208 3.44638 -3.35824 0
M  V30 2998 C 288.56 3.44591 -3.91033 0
M  V30 2999 C 285.888 3.49597 -4.71167 0
M  V30 3000 C 288.24 3.51086 -5.26233 0
M  V30 3001 C 286.904 3.53067 -5.6648 0
M  V30 3002 H 286.174 0.661507 -0.333901 0
M  V30 3003 H 288.821 1.27613 -1.42784 0
M  V30 3004 H 287.126 3.82146 -0.864376 0
M  V30 3005 H 288.823 3.80839 -1.2555 0
M  V30 3006 H 285.413 3.38736 -2.62594 0
M  V30 3007 H 289.597 3.40957 -3.60641 0
M  V30 3008 H 284.853 3.49424 -5.0171 0
M  V30 3009 H 289.027 3.52864 -6.00383 0
M  V30 3010 H 286.654 3.56662 -6.71339 0
M  V30 3011 N 288.23 0.939286 1.26551 0
M  V30 3012 C 289.455 0.602008 1.98471 0
M  V30 3013 C 289.88 -0.815624 1.69497 0
M  V30 3014 O 289.238 -1.54912 0.941905 0
M  V30 3015 C 289.286 0.848407 3.50477 0
M  V30 3016 O 288.39 -0.0804009 4.12322 0
M  V30 3017 H 287.731 0.23049 0.622712 0
M  V30 3018 H 290.261 1.2617 1.61066 0
M  V30 3019 H 290.271 0.768553 4.00696 0
M  V30 3020 H 288.946 1.88171 3.70897 0
M  V30 3021 H 287.523 0.0503508 3.72866 0
M  V30 3022 N 289.708 -1.40897 0.706093 0
M  V30 3023 C 291.124 -1.55042 0.37869 0
M  V30 3024 C 291.324 -1.67944 -1.11342 0
M  V30 3025 O 290.38 -1.66372 -1.89938 0
M  V30 3026 C 291.693 -2.78398 1.13643 0
M  V30 3027 C 293.241 -2.92206 1.12181 0
M  V30 3028 C 293.716 -4.18463 1.86152 0
M  V30 3029 N 295.207 -4.25443 1.83173 0
M  V30 3030 C 295.942 -5.2202 2.37239 0
M  V30 3031 N 295.438 -6.24563 2.99821 0
M  V30 3032 N 297.231 -5.14033 2.27435 0
M  V30 3033 H 289.382 -1.30769 1.67372 0
M  V30 3034 H 291.645 -0.631653 0.706907 0
M  V30 3035 H 291.351 -2.7511 2.19106 0
M  V30 3036 H 291.225 -3.70228 0.721853 0
M  V30 3037 H 293.612 -2.95004 0.0754171 0
M  V30 3038 H 293.693 -2.01521 1.57554 0
M  V30 3039 H 293.337 -4.16427 2.90776 0
M  V30 3040 H 293.267 -5.08141 1.38206 0
M  V30 3041 H 295.758 -3.51976 1.37556 0
M  V30 3042 H 296.071 -6.94665 3.38616 0
M  V30 3043 H 294.416 -6.25035 3.03902 0
M  V30 3044 H 297.607 -4.3285 1.78208 0
M  V30 3045 H 297.78 -5.89129 2.69873 0
M  V30 3046 N 291.186 -0.45159 -1.50991 0
M  V30 3047 C 292.432 0.110237 -2.025 0
M  V30 3048 C 292.765 1.41109 -1.33424 0
M  V30 3049 O 292.04 1.89135 -0.453659 0
M  V30 3050 C 292.323 0.314271 -3.58726 0
M  V30 3051 C 292.176 -1.00623 -4.38401 0
M  V30 3052 C 293.495 1.07767 -4.26702 0
M  V30 3053 H 290.614 0.0385897 -0.735989 0
M  V30 3054 H 293.256 -0.593374 -1.80497 0
M  V30 3055 H 291.406 0.913601 -3.77605 0
M  V30 3056 H 293.078 -1.64064 -4.31139 0
M  V30 3057 H 291.321 -1.6075 -4.02917 0
M  V30 3058 H 291.992 -0.817341 -5.45915 0
M  V30 3059 H 294.468 0.56986 -4.12179 0
M  V30 3060 H 293.344 1.18921 -5.35863 0
M  V30 3061 H 293.605 2.10939 -3.88532 0
M  V30 3062 N 292.664 1.56529 -0.183458 0
M  V30 3063 C 293.91 1.97537 0.459036 0
M  V30 3064 C 294.243 1.06989 1.62071 0
M  V30 3065 O 293.518 0.11948 1.94133 0
M  V30 3066 C 293.801 3.47874 0.930368 0
M  V30 3067 C 293.654 4.492 -0.232317 0
M  V30 3068 C 294.973 4.01612 1.79989 0
M  V30 3069 H 292.092 0.718204 0.165383 0
M  V30 3070 H 294.734 1.88042 -0.272038 0
M  V30 3071 H 292.884 3.56095 1.55333 0
M  V30 3072 H 294.556 4.53027 -0.86972 0
M  V30 3073 H 292.799 4.24657 -0.885928 0
M  V30 3074 H 293.47 5.51823 0.139796 0
M  V30 3075 H 295.946 3.96097 1.27461 0
M  V30 3076 H 294.822 5.07195 2.09867 0
M  V30 3077 H 295.083 3.46163 2.74998 0
M  V30 3078 N 294.142 -0.090211 1.57342 0
M  V30 3079 C 295.553 -0.644173 1.75235 0
M  V30 3080 C 295.904 -1.78865 0.806335 0
M  V30 3081 O 295.029 -2.16395 -0.0140128 0
M  V30 3082 C 295.624 -1.17532 3.1776 0
M  V30 3083 C 294.183 -1.67531 3.37061 0
M  V30 3084 C 293.33 -0.58693 2.71017 0
M  V30 3085 H 296.281 0.135884 1.58117 0
M  V30 3086 H 296.302 -2.04455 3.20902 0
M  V30 3087 H 295.814 -0.342138 3.86589 0
M  V30 3088 H 293.915 -2.53234 2.73319 0
M  V30 3089 H 294.028 -1.76493 4.45406 0
M  V30 3090 H 292.392 -1.02756 2.33052 0
M  V30 3091 H 293.175 0.235758 3.4249 0
M  V30 3092 N 295.62 -1.53406 -0.361157 0
M  V30 3093 C 296.845 -1.74024 -1.12829 0
M  V30 3094 C 297.27 -0.470069 -1.82132 0
M  V30 3095 O 296.628 0.57619 -1.719 0
M  V30 3096 C 296.676 -2.90903 -2.13091 0
M  V30 3097 O 295.78 -2.59821 -3.20261 0
M  V30 3098 H 295.121 -0.577804 -0.327168 0
M  V30 3099 H 297.651 -2.00307 -0.41693 0
M  V30 3100 H 297.661 -3.17194 -2.56616 0
M  V30 3101 H 296.336 -3.83034 -1.62042 0
M  V30 3102 H 294.913 -2.44362 -2.81677 0
M  V30 3103 N 297.098 0.621204 -1.44841 0
M  V30 3104 C 298.375 1.38 -1.38619 0
M  V30 3105 C 298.755 2.11041 -0.0498935 0
M  V30 3106 O 298.103 2.06992 0.967816 0
M  V30 3107 C 298.313 2.33817 -2.59096 0
M  V30 3108 C 299.661 2.96844 -3.03593 0
M  V30 3109 O 300.685 2.44141 -2.59371 0
M  V30 3110 O 299.544 3.92476 -3.80296 0
M  V30 3111 H 296.638 0.61811 -0.549426 0
M  V30 3112 H 299.184 0.645429 -1.56947 0
M  V30 3113 H 297.956 1.79012 -3.47952 0
M  V30 3114 H 297.579 3.14676 -2.43032 0
M  V30 3115 N 298.576 1.31904 0.862503 0
M  V30 3116 C 299.804 1.24998 1.64873 0
M  V30 3117 C 300.219 -0.183425 1.87907 0
M  V30 3118 O 299.576 -1.11794 1.44251 0
M  V30 3119 C 299.627 1.99829 3.01248 0
M  V30 3120 O 299.348 3.37575 2.79239 0
M  V30 3121 C 300.849 1.99852 3.95694 0
M  V30 3122 H 298.069 0.431599 0.513773 0
M  V30 3123 H 300.613 1.73901 1.07604 0
M  V30 3124 H 298.768 1.54668 3.55185 0
M  V30 3125 H 299.182 3.75776 3.65914 0
M  V30 3126 H 300.656 2.56709 4.88676 0
M  V30 3127 H 301.133 0.982852 4.28062 0
M  V30 3128 H 301.739 2.44926 3.47694 0
M  V30 3129 N 300.054 -1.07777 1.14986 0
M  V30 3130 C 301.284 -1.83752 0.944402 0
M  V30 3131 C 301.692 -1.8218 -0.51058 0
M  V30 3132 O 301.035 -1.22852 -1.36576 0
M  V30 3133 C 301.097 -3.32128 1.37592 0
M  V30 3134 C 300.761 -3.57425 2.84775 0
M  V30 3135 C 301.758 -3.5173 3.8286 0
M  V30 3136 C 299.443 -3.8523 3.2234 0
M  V30 3137 C 301.437 -3.73482 5.16517 0
M  V30 3138 C 299.124 -4.06634 4.56171 0
M  V30 3139 C 300.122 -4.00754 5.53069 0
M  V30 3140 O 299.81 -4.2159 6.84483 0
M  V30 3141 H 299.542 -0.58673 0.335744 0
M  V30 3142 H 302.096 -1.36982 1.53052 0
M  V30 3143 H 300.326 -3.79686 0.733165 0
M  V30 3144 H 302.015 -3.89555 1.14024 0
M  V30 3145 H 302.781 -3.30256 3.55184 0
M  V30 3146 H 298.66 -3.88923 2.47508 0
M  V30 3147 H 302.204 -3.68808 5.92137 0
M  V30 3148 H 298.101 -4.27593 4.83564 0
M  V30 3149 H 298.869 -4.38961 6.90837 0
M  V30 3150 N 301.532 -0.945985 -1.26051 0
M  V30 3151 C 302.464 -0.416662 -2.25381 0
M  V30 3152 C 303.477 0.462712 -1.56086 0
M  V30 3153 O 304.666 0.272383 -1.7641 0
M  V30 3154 C 301.766 0.419812 -3.3629 0
M  V30 3155 C 300.939 -0.444531 -4.35135 0
M  V30 3156 C 299.998 0.332305 -5.2515 0
M  V30 3157 O 299.024 -0.266324 -5.68577 0
M  V30 3158 N 300.226 1.62763 -5.57215 0
M  V30 3159 H 302.991 -1.27059 -2.71433 0
M  V30 3160 H 300.552 -0.815392 -1.39868 0
M  V30 3161 H 302.544 0.947013 -3.93464 0
M  V30 3162 H 301.114 1.17456 -2.89694 0
M  V30 3163 H 300.334 -1.15291 -3.76964 0
M  V30 3164 H 301.622 -1.03478 -4.98166 0
M  V30 3165 H 301.02 2.13603 -5.23823 0
M  V30 3166 H 299.577 2.10097 -6.17011 0
M  V30 3167 N 303.011 1.40521 -0.713556 0
M  V30 3168 C 303.974 2.29098 -0.0684347 0
M  V30 3169 C 304.974 1.45268 0.689472 0
M  V30 3170 O 306.164 1.66205 0.521677 0
M  V30 3171 C 303.296 3.28446 0.913024 0
M  V30 3172 H 304.489 2.87645 -0.84855 0
M  V30 3173 H 302.042 1.48809 -0.47809 0
M  V30 3174 H 302.777 2.74913 1.72027 0
M  V30 3175 H 302.562 3.90327 0.372472 0
M  V30 3176 H 304.052 3.94777 1.36165 0
M  V30 3177 N 304.489 0.459591 1.5075 0
M  V30 3178 C 305.421 -0.37665 2.26084 0
M  V30 3179 C 306.434 -0.967109 1.30961 0
M  V30 3180 O 307.623 -0.857468 1.56556 0
M  V30 3181 C 304.723 -1.54112 3.01832 0
M  V30 3182 C 303.896 -1.06553 4.24223 0
M  V30 3183 C 302.955 -2.1027 4.82362 0
M  V30 3184 O 301.981 -1.68798 5.43595 0
M  V30 3185 N 303.183 -3.42974 4.68347 0
M  V30 3186 H 305.948 0.269124 2.98489 0
M  V30 3187 H 303.509 0.28972 1.59287 0
M  V30 3188 H 305.501 -2.23165 3.37608 0
M  V30 3189 H 304.071 -2.0918 2.32298 0
M  V30 3190 H 303.291 -0.201274 3.93686 0
M  V30 3191 H 304.579 -0.725516 5.03601 0
M  V30 3192 H 303.977 -3.79385 4.19623 0
M  V30 3193 H 302.534 -4.07858 5.08424 0
M  V30 3194 N 305.967 -1.56429 0.191757 0
M  V30 3195 C 306.93 -2.17707 -0.716688 0
M  V30 3196 C 307.93 -1.13061 -1.14341 0
M  V30 3197 O 309.12 -1.38464 -1.05704 0
M  V30 3198 C 306.252 -2.77644 -1.97804 0
M  V30 3199 H 307.445 -2.99342 -0.1829 0
M  V30 3200 H 304.998 -1.56193 -0.0578566 0
M  V30 3201 H 305.733 -1.99799 -2.55443 0
M  V30 3202 H 305.518 -3.54246 -1.68083 0
M  V30 3203 H 307.008 -3.24708 -2.62592 0
M  V30 3204 N 307.445 0.0818655 -1.57387 0
M  V30 3205 C 308.378 1.12986 -1.98266 0
M  V30 3206 C 309.356 1.38123 -0.857954 0
M  V30 3207 O 310.54 1.51663 -1.1194 0
M  V30 3208 C 307.667 2.47632 -2.31076 0
M  V30 3209 C 306.713 2.38693 -3.53452 0
M  V30 3210 S 307.546 1.79071 -5.04672 0
M  V30 3211 C 308.702 3.15316 -5.40673 0
M  V30 3212 H 308.935 0.781435 -2.86846 0
M  V30 3213 H 306.468 0.290034 -1.51651 0
M  V30 3214 H 308.426 3.25089 -2.50654 0
M  V30 3215 H 307.087 2.79638 -1.43043 0
M  V30 3216 H 306.28 3.37964 -3.73893 0
M  V30 3217 H 305.882 1.69369 -3.33452 0
M  V30 3218 H 308.174 4.11613 -5.38127 0
M  V30 3219 H 309.117 2.99664 -6.41566 0
M  V30 3220 H 309.525 3.15457 -4.68132 0
M  V30 3221 N 308.923 1.53595 0.353017 0
M  V30 3222 C 310.169 1.70638 1.09593 0
M  V30 3223 C 310.502 0.463286 1.88593 0
M  V30 3224 O 309.777 -0.539597 1.86865 0
M  V30 3225 C 310.06 2.96406 2.04489 0
M  V30 3226 C 309.913 4.30901 1.29014 0
M  V30 3227 C 311.232 3.17812 3.0444 0
M  V30 3228 H 308.351 0.620913 0.397034 0
M  V30 3229 H 310.993 1.86254 0.375446 0
M  V30 3230 H 309.143 2.83223 2.65927 0
M  V30 3231 H 310.815 4.55917 0.702638 0
M  V30 3232 H 309.058 4.29741 0.592071 0
M  V30 3233 H 309.729 5.1506 1.98537 0
M  V30 3234 H 312.205 3.30263 2.53112 0
M  V30 3235 H 311.081 4.07223 3.6805 0
M  V30 3236 H 311.342 2.33669 3.75301 0
M  V30 3237 N 310.401 -0.613514 1.45168 0
M  V30 3238 C 311.678 -1.37263 1.39349 0
M  V30 3239 C 312.058 -2.11012 0.0610848 0
M  V30 3240 O 311.406 -2.07502 -0.956825 0
M  V30 3241 C 311.616 -2.3244 2.60332 0
M  V30 3242 C 312.964 -2.9523 3.05163 0
M  V30 3243 O 313.988 -2.42762 2.60663 0
M  V30 3244 O 312.847 -3.90454 3.82372 0
M  V30 3245 H 309.941 -0.615188 0.552696 0
M  V30 3246 H 312.487 -0.637097 1.57287 0
M  V30 3247 H 311.259 -1.77164 3.48896 0
M  V30 3248 H 310.882 -3.13383 2.44698 0
M  V30 3249 N 311.879 -1.3236 -0.855495 0
M  V30 3250 C 313.128 -1.22226 -1.60448 0
M  V30 3251 C 313.441 0.214733 -1.94418 0
M  V30 3252 O 314.647 0.437917 -2.67945 0
M  V30 3253 C 313.103 -2.14063 -2.89318 0
M  V30 3254 C 312.711 -3.62839 -2.62777 0
M  V30 3255 C 314.455 -2.12764 -3.67331 0
M  V30 3256 C 312.362 -4.4664 -3.87643 0
M  V30 3257 H 311.292 -0.453904 -0.602069 0
M  V30 3258 H 313.943 -1.57314 -0.944698 0
M  V30 3259 H 312.325 -1.71889 -3.5675 0
M  V30 3260 H 313.499 -4.1335 -2.03662 0
M  V30 3261 H 311.814 -3.66261 -1.98096 0
M  V30 3262 H 314.411 -2.72611 -4.59987 0
M  V30 3263 H 314.754 -1.11841 -4.00995 0
M  V30 3264 H 315.287 -2.53214 -3.06802 0
M  V30 3265 H 312.026 -5.48373 -3.5912 0
M  V30 3266 H 311.546 -4.0088 -4.46156 0
M  V30 3267 H 313.225 -4.59597 -4.55389 0
M  V30 3268 N 313.357 1.07166 -1.15556 0
M  V30 3269 C 314.603 1.80065 -0.932984 0
M  V30 3270 C 314.936 1.86586 0.53845 0
M  V30 3271 O 314.211 1.35098 1.39924 0
M  V30 3272 C 314.494 3.25022 -1.55025 0
M  V30 3273 C 314.347 3.26634 -3.09242 0
M  V30 3274 C 315.666 4.22341 -1.2376 0
M  V30 3275 H 312.785 0.653697 -0.340366 0
M  V30 3276 H 315.427 1.25389 -1.4275 0
M  V30 3277 H 313.577 3.71712 -1.12972 0
M  V30 3278 H 315.249 2.88173 -3.60214 0
M  V30 3279 H 313.492 2.65539 -3.43033 0
M  V30 3280 H 314.163 4.28854 -3.47546 0
M  V30 3281 H 316.639 3.8405 -1.60139 0
M  V30 3282 H 315.515 5.22053 -1.69564 0
M  V30 3283 H 315.776 4.41828 -0.154938 0
M  V30 3284 N 314.835 0.952656 1.25548 0
M  V30 3285 C 316.251 0.656769 1.4546 0
M  V30 3286 C 316.451 -0.78633 1.85524 0
M  V30 3287 O 315.507 -1.56183 1.98402 0
M  V30 3288 C 316.82 1.62801 2.52817 0
M  V30 3289 C 318.368 1.63897 2.66659 0
M  V30 3290 C 318.843 2.5978 3.77198 0
M  V30 3291 N 320.334 2.58133 3.84606 0
M  V30 3292 C 321.069 3.29003 4.69621 0
M  V30 3293 N 320.565 4.09339 5.58939 0
M  V30 3294 N 322.358 3.179 4.63569 0
M  V30 3295 H 314.509 1.88526 0.978344 0
M  V30 3296 H 316.772 0.810815 0.491206 0
M  V30 3297 H 316.478 2.65869 2.30232 0
M  V30 3298 H 316.352 1.38898 3.50695 0
M  V30 3299 H 318.739 0.615481 2.8861 0
M  V30 3300 H 318.82 1.91858 1.69187 0
M  V30 3301 H 318.464 3.62254 3.55997 0
M  V30 3302 H 318.394 2.29105 4.7415 0
M  V30 3303 H 320.885 1.99809 3.20757 0
M  V30 3304 H 321.198 4.6034 6.20731 0
M  V30 3305 H 319.543 4.13438 5.58654 0
M  V30 3306 H 322.734 2.54612 3.92798 0
M  V30 3307 H 322.907 3.73398 5.29602 0
M  V30 3308 N 316.313 -1.40141 0.720998 0
M  V30 3309 C 317.276 -2.29058 0.0805834 0
M  V30 3310 C 318.276 -1.45632 -0.681758 0
M  V30 3311 O 319.466 -1.6648 -0.512856 0
M  V30 3312 C 316.598 -3.28925 -0.895593 0
M  V30 3313 H 317.791 -2.87191 0.863793 0
M  V30 3314 H 315.344 -1.48553 0.485975 0
M  V30 3315 H 316.079 -2.75822 -1.70566 0
M  V30 3316 H 315.864 -3.90519 -0.351766 0
M  V30 3317 H 317.354 -3.95494 -1.34069 0
M  V30 3318 N 317.792 -0.46758 -1.50504 0
M  V30 3319 C 318.722 0.318381 -2.31319 0
M  V30 3320 C 319.703 0.993564 -1.38066 0
M  V30 3321 O 320.888 0.991411 -1.66987 0
M  V30 3322 C 318.018 1.40275 -3.17711 0
M  V30 3323 C 316.972 0.849373 -4.19487 0
M  V30 3324 C 316.298 2.03177 -4.94594 0
M  V30 3325 C 317.598 -0.136942 -5.2212 0
M  V30 3326 H 319.292 -0.356106 -2.97275 0
M  V30 3327 H 316.838 -0.172703 -1.42961 0
M  V30 3328 H 318.791 1.96004 -3.73042 0
M  V30 3329 H 317.515 2.10596 -2.49634 0
M  V30 3330 H 316.174 0.314076 -3.65252 0
M  V30 3331 H 315.822 2.72187 -4.22993 0
M  V30 3332 H 315.522 1.66774 -5.63436 0
M  V30 3333 H 317.046 2.59403 -5.52759 0
M  V30 3334 H 318.46 0.331056 -5.72343 0
M  V30 3335 H 316.857 -0.41507 -5.98663 0
M  V30 3336 H 317.927 -1.06398 -4.73083 0
M  V30 3337 N 319.27 1.56325 -0.20005 0
M  V30 3338 C 320.217 2.1932 0.718833 0
M  V30 3339 C 321.187 1.14198 1.20615 0
M  V30 3340 O 322.372 1.42469 1.26914 0
M  V30 3341 C 319.512 2.86041 1.93066 0
M  V30 3342 C 318.625 4.05702 1.48425 0
M  V30 3343 C 317.76 4.60266 2.65196 0
M  V30 3344 C 316.799 5.72273 2.17185 0
M  V30 3345 N 315.936 6.21221 3.27152 0
M  V30 3346 H 320.776 2.97486 0.17489 0
M  V30 3347 H 318.313 1.46911 0.0745794 0
M  V30 3348 H 320.271 3.22897 2.64184 0
M  V30 3349 H 318.901 2.1043 2.44783 0
M  V30 3350 H 317.953 3.74475 0.668755 0
M  V30 3351 H 319.265 4.86699 1.09204 0
M  V30 3352 H 318.419 4.99453 3.4443 0
M  V30 3353 H 317.158 3.78386 3.07693 0
M  V30 3354 H 316.163 5.3261 1.36407 0
M  V30 3355 H 317.388 6.55974 1.75713 0
M  V30 3356 H 315.334 5.42263 3.69171 0
M  V30 3357 H 315.251 6.97284 2.92116 0
M  V30 3358 H 316.519 6.65063 4.06585 0
M  V30 3359 N 320.748 -0.0735177 1.57428 0
M  V30 3360 C 321.994 -0.768909 1.88307 0
M  V30 3361 C 322.349 -1.75273 0.793535 0
M  V30 3362 O 321.642 -1.90527 -0.202466 0
M  V30 3363 C 321.836 -1.51799 3.23561 0
M  V30 3364 C 321.665 -0.608217 4.45568 0
M  V30 3365 C 320.435 -0.245808 5.04702 0
M  V30 3366 C 322.633 0.0942904 5.14214 0
M  V30 3367 N 320.615 0.66987 6.10234 0
M  V30 3368 C 321.986 0.867222 6.13905 0
M  V30 3369 C 324.041 0.165943 4.97623 0
M  V30 3370 C 322.744 1.70515 6.98797 0
M  V30 3371 C 324.77 0.990837 5.83041 0
M  V30 3372 C 324.132 1.75182 6.82269 0
M  V30 3373 H 320.231 -0.25685 0.738615 0
M  V30 3374 H 322.815 -0.030499 1.94676 0
M  V30 3375 H 320.986 -2.22713 3.18203 0
M  V30 3376 H 322.718 -2.16226 3.42094 0
M  V30 3377 H 319.473 -0.598284 4.69806 0
M  V30 3378 H 319.897 1.1209 6.67656 0
M  V30 3379 H 324.539 -0.408064 4.20826 0
M  V30 3380 H 322.257 2.29013 7.7497 0
M  V30 3381 H 325.843 1.04923 5.72261 0
M  V30 3382 H 324.723 2.37983 7.47217 0
M  V30 3383 N 322.226 -1.5378 -0.344866 0
M  V30 3384 C 323.174 -1.82373 -1.4437 0
M  V30 3385 C 324.168 -0.694128 -1.54526 0
M  V30 3386 O 325.374 -0.877442 -1.57165 0
M  V30 3387 H 321.749 -0.577765 -0.481344 0
M  V30 3388 H 323.72 -2.74306 -1.17468 0
M  V30 3389 C 322.469 -2.04898 -2.80913 0
M  V30 3390 H 321.792 -2.9127 -2.73865 0
M  V30 3391 H 323.232 -2.28871 -3.56923 0
M  V30 3392 C 321.691 -0.834116 -3.26411 0
M  V30 3393 O 322.221 -0.0328885 -4.01687 0
M  V30 3394 N 320.427 -0.65171 -2.83198 0
M  V30 3395 H 319.974 -1.30489 -2.22104 0
M  V30 3396 H 319.932 0.159686 -3.13994 0
M  V30 3397 N 323.704 0.605807 -1.45491 0
M  V30 3398 C 324.934 1.38934 -1.52908 0
M  V30 3399 C 325.342 1.88513 -0.161086 0
M  V30 3400 O 324.685 1.62962 0.847891 0
M  V30 3401 C 324.747 2.62737 -2.45376 0
M  V30 3402 C 324.411 2.34785 -3.92078 0
M  V30 3403 C 325.408 1.95038 -4.8193 0
M  V30 3404 C 323.093 2.47642 -4.37011 0
M  V30 3405 C 325.087 1.68511 -6.14722 0
M  V30 3406 C 322.774 2.20728 -5.69844 0
M  V30 3407 C 323.772 1.81225 -6.58519 0
M  V30 3408 O 323.46 1.54627 -7.88889 0
M  V30 3409 H 323.192 0.431629 -0.520262 0
M  V30 3410 H 325.746 0.74573 -1.91384 0
M  V30 3411 H 323.976 3.29824 -2.01874 0
M  V30 3412 H 325.665 3.24783 -2.43456 0
M  V30 3413 H 326.431 1.84639 -4.48479 0
M  V30 3414 H 322.31 2.77356 -3.68232 0
M  V30 3415 H 325.854 1.37602 -6.83894 0
M  V30 3416 H 321.751 2.30744 -6.02849 0
M  V30 3417 H 322.519 1.68665 -8.00933 0
M  V30 3418 N 325.182 1.32811 0.848464 0
M  V30 3419 C 326.428 1.23907 1.60546 0
M  V30 3420 C 326.761 -0.197161 1.93197 0
M  V30 3421 O 326.036 -1.13596 1.5788 0
M  V30 3422 C 326.319 2.10489 2.92175 0
M  V30 3423 C 326.172 3.62522 2.66266 0
M  V30 3424 C 327.491 1.97075 3.93509 0
M  V30 3425 H 324.61 0.451459 0.58254 0
M  V30 3426 H 327.252 1.62818 0.979296 0
M  V30 3427 H 325.402 1.77434 3.45614 0
M  V30 3428 H 327.074 4.05821 2.19334 0
M  V30 3429 H 325.317 3.84879 2.00126 0
M  V30 3430 H 325.988 4.18437 3.6002 0
M  V30 3431 H 328.464 2.26045 3.49346 0
M  V30 3432 H 327.34 2.59923 4.83457 0
M  V30 3433 H 327.601 0.940186 4.31987 0
M  V30 3434 N 326.66 -1.06551 1.16123 0
M  V30 3435 C 327.885 -1.83544 0.965735 0
M  V30 3436 C 328.31 -1.81843 -0.481102 0
M  V30 3437 O 327.668 -1.21732 -1.34354 0
M  V30 3438 C 327.716 -3.28169 1.49457 0
M  V30 3439 O 326.82 -4.0643 0.699157 0
M  V30 3440 H 326.161 -0.568026 0.343864 0
M  V30 3441 H 328.691 -1.34362 1.54299 0
M  V30 3442 H 328.701 -3.78992 1.51092 0
M  V30 3443 H 327.376 -3.28722 2.54784 0
M  V30 3444 H 325.953 -3.65216 0.7531 0
M  V30 3445 N 328.138 -0.959301 -1.25041 0
M  V30 3446 C 329.366 -0.633949 -1.96948 0
M  V30 3447 C 329.781 0.794916 -1.7125 0
M  V30 3448 O 329.138 1.53231 -0.991287 0
M  V30 3449 C 329.189 -0.888805 -3.50403 0
M  V30 3450 O 328.91 -2.26149 -3.75218 0
M  V30 3451 C 330.411 -0.576482 -4.39536 0
M  V30 3452 H 327.631 -0.237263 -0.627652 0
M  V30 3453 H 330.175 -1.28495 -1.59089 0
M  V30 3454 H 328.33 -0.284145 -3.86357 0
M  V30 3455 H 328.744 -2.33514 -4.6965 0
M  V30 3456 H 330.218 -0.805314 -5.46094 0
M  V30 3457 H 330.695 0.489075 -4.36468 0
M  V30 3458 H 331.301 -1.16067 -4.09156 0
M  V30 3459 N 329.616 1.39756 -0.72842 0
M  V30 3460 C 330.862 2.00942 -0.273892 0
M  V30 3461 C 331.195 1.57656 1.13394 0
M  V30 3462 O 330.47 0.802434 1.77176 0
M  V30 3463 C 330.753 3.58211 -0.368346 0
M  V30 3464 C 330.606 4.11534 -1.81548 0
M  V30 3465 C 331.925 4.39372 0.253054 0
M  V30 3466 H 329.044 0.730047 -0.100996 0
M  V30 3467 H 331.686 1.66056 -0.923337 0
M  V30 3468 H 329.836 3.88061 0.184588 0
M  V30 3469 H 331.508 3.92431 -2.42478 0
M  V30 3470 H 329.751 3.65341 -2.33898 0
M  V30 3471 H 330.422 5.20682 -1.83288 0
M  V30 3472 H 332.898 4.15527 -0.218224 0
M  V30 3473 H 331.774 5.48677 0.156585 0
M  V30 3474 H 332.035 4.21358 1.33826 0
M  V30 3475 N 331.094 0.475555 1.50254 0
M  V30 3476 C 332.057 -0.305016 2.27161 0
M  V30 3477 C 333.057 -0.916519 1.32123 0
M  V30 3478 O 334.247 -0.785003 1.5551 0
M  V30 3479 C 331.379 -1.43496 3.09227 0
M  V30 3480 H 332.572 0.369511 2.97615 0
M  V30 3481 H 330.125 0.229747 1.54602 0
M  V30 3482 H 330.86 -2.14441 2.43281 0
M  V30 3483 H 330.645 -1.00223 3.79075 0
M  V30 3484 H 332.135 -1.98548 3.67381 0
M  V30 3485 N 332.573 -1.56217 0.208337 0
M  V30 3486 C 333.798 -2.02782 -0.435222 0
M  V30 3487 C 334.223 -1.08738 -1.53485 0
M  V30 3488 O 333.581 -0.0731855 -1.81152 0
M  V30 3489 C 333.629 -3.47687 -0.956335 0
M  V30 3490 O 332.733 -3.56773 -2.06849 0
M  V30 3491 H 332.074 -0.656403 -0.100158 0
M  V30 3492 H 334.604 -2.02033 0.3231 0
M  V30 3493 H 334.614 -3.87745 -1.26955 0
M  V30 3494 H 333.289 -4.15624 -0.15143 0
M  V30 3495 H 331.866 -3.28597 -1.76292 0
M  V30 3496 N 334.051 0.0651679 -1.57465 0
M  V30 3497 C 334.961 1.09448 -2.07505 0
M  V30 3498 C 335.977 1.41974 -1.00595 0
M  V30 3499 O 337.153 1.52018 -1.32107 0
M  V30 3500 C 334.218 2.38689 -2.51453 0
M  V30 3501 C 333.279 2.13073 -3.72691 0
M  V30 3502 C 332.512 3.36152 -4.14533 0
M  V30 3503 O 332.735 4.45517 -3.56189 0
M  V30 3504 O 331.669 3.23974 -5.07272 0
M  V30 3505 H 335.495 0.69935 -2.95538 0
M  V30 3506 H 333.08 0.279752 -1.46757 0
M  V30 3507 H 334.962 3.14736 -2.80212 0
M  V30 3508 H 333.637 2.77568 -1.66546 0
M  V30 3509 H 332.544 1.34709 -3.49005 0
M  V30 3510 H 333.877 1.79071 -4.5847 0
M  V30 3511 N 335.529 1.53961 0.336706 0
M  V30 3512 C 336.777 1.71197 1.07405 0
M  V30 3513 C 337.098 0.481475 1.88962 0
M  V30 3514 O 336.368 -0.504585 1.8929 0
M  V30 3515 H 334.948 0.631185 0.399517 0
M  V30 3516 H 337.61 1.91232 0.376323 0
M  V30 3517 H 336.706 2.58587 1.74755 0
M  V30 3518 N 337.007 -0.598083 1.45811 0
M  V30 3519 C 338.232 -1.3881 1.54099 0
M  V30 3520 C 338.657 -1.8726 0.177578 0
M  V30 3521 O 338.015 -1.6069 -0.839541 0
M  V30 3522 C 338.063 -2.56217 2.53743 0
M  V30 3523 O 337.167 -3.5716 2.06182 0
M  V30 3524 H 336.508 -0.414024 0.519115 0
M  V30 3525 H 339.038 -0.726971 1.91249 0
M  V30 3526 H 339.048 -3.03337 2.72856 0
M  V30 3527 H 337.723 -2.20303 3.5276 0
M  V30 3528 H 336.3 -3.16624 1.96987 0
M  V30 3529 N 338.485 -1.33259 -0.841409 0
M  V30 3530 C 339.715 -1.2742 -1.62628 0
M  V30 3531 C 340.123 0.157604 -1.88542 0
M  V30 3532 O 339.466 1.10938 -1.46419 0
M  V30 3533 C 339.528 -1.97797 -3.00194 0
M  V30 3534 C 339.192 -3.47109 -2.97261 0
M  V30 3535 C 340.189 -4.42358 -2.73159 0
M  V30 3536 C 337.874 -3.89247 -3.17478 0
M  V30 3537 C 339.868 -5.77718 -2.69296 0
M  V30 3538 C 337.555 -5.24713 -3.13241 0
M  V30 3539 C 338.553 -6.1876 -2.89181 0
M  V30 3540 O 338.241 -7.51745 -2.84843 0
M  V30 3541 H 337.973 -0.440436 -0.512827 0
M  V30 3542 H 340.527 -1.76153 -1.05638 0
M  V30 3543 H 338.757 -1.43652 -3.59028 0
M  V30 3544 H 340.446 -1.8549 -3.61038 0
M  V30 3545 H 341.212 -4.11127 -2.57294 0
M  V30 3546 H 337.091 -3.16456 -3.35226 0
M  V30 3547 H 340.635 -6.51097 -2.50436 0
M  V30 3548 H 336.532 -5.55569 -3.28654 0
M  V30 3549 H 337.3 -7.61262 -3.00702 0
M  V30 3550 N 339.963 1.05934 -1.16686 0
M  V30 3551 C 341.211 1.78447 -0.948744 0
M  V30 3552 C 341.532 1.87813 0.524523 0
M  V30 3553 O 340.802 1.38945 1.38098 0
M  V30 3554 H 339.382 0.660971 -0.348033 0
M  V30 3555 H 342.044 1.27947 -1.47022 0
M  V30 3556 H 341.14 2.80394 -1.37061 0
M  V30 3557 N 341.441 0.965919 1.2453 0
M  V30 3558 C 342.351 0.502154 2.29163 0
M  V30 3559 C 343.367 -0.436017 1.68448 0
M  V30 3560 O 344.543 -0.309497 1.99008 0
M  V30 3561 C 341.608 -0.201956 3.46111 0
M  V30 3562 C 340.669 0.775821 4.22232 0
M  V30 3563 C 339.902 0.105217 5.33596 0
M  V30 3564 O 340.125 -1.10683 5.59558 0
M  V30 3565 O 339.059 0.796475 5.96607 0
M  V30 3566 H 342.885 1.37194 2.70946 0
M  V30 3567 H 340.47 0.732875 1.30189 0
M  V30 3568 H 342.352 -0.597564 4.17142 0
M  V30 3569 H 341.027 -1.04673 3.06309 0
M  V30 3570 H 339.934 1.22185 3.53584 0
M  V30 3571 H 341.267 1.58896 4.65846 0
M  V30 3572 N 342.919 -1.39368 0.735821 0
M  V30 3573 C 344.144 -2.05319 0.293052 0
M  V30 3574 C 344.569 -1.55115 -1.064 0
M  V30 3575 O 343.927 -0.695261 -1.67439 0
M  V30 3576 C 343.975 -3.59305 0.305323 0
M  V30 3577 O 343.079 -4.06299 -0.706761 0
M  V30 3578 H 342.42 -0.650529 0.13307 0
M  V30 3579 H 344.95 -1.78386 1.00197 0
M  V30 3580 H 344.96 -4.07724 0.149997 0
M  V30 3581 H 343.635 -3.95207 1.29553 0
M  V30 3582 H 342.212 -3.69292 -0.517504 0
M  V30 3583 N 344.397 -0.483516 -1.5 0
M  V30 3584 C 345.645 0.067027 -2.01989 0
M  V30 3585 C 345.966 1.3909 -1.36671 0
M  V30 3586 O 345.236 1.88978 -0.516152 0
M  V30 3587 H 343.816 0.0277606 -0.746484 0
M  V30 3588 H 346.478 -0.636773 -1.84204 0
M  V30 3589 H 345.574 0.209484 -3.11396 0
M  V30 3590 N 345.875 1.56104 -0.216619 0
M  V30 3591 C 347.121 1.98466 0.417033 0
M  V30 3592 C 347.454 1.10403 1.59765 0
M  V30 3593 O 346.729 0.160632 1.93836 0
M  V30 3594 C 347.012 3.49769 0.85637 0
M  V30 3595 C 346.865 4.48606 -0.327546 0
M  V30 3596 C 348.184 4.05339 1.7143 0
M  V30 3597 H 345.303 0.721551 0.150112 0
M  V30 3598 H 347.945 1.87423 -0.311864 0
M  V30 3599 H 346.095 3.5931 1.47745 0
M  V30 3600 H 347.767 4.5108 -0.965618 0
M  V30 3601 H 346.01 4.22682 -0.975805 0
M  V30 3602 H 346.681 5.51995 0.0227149 0
M  V30 3603 H 349.157 3.98712 1.19031 0
M  V30 3604 H 348.033 5.11533 1.99061 0
M  V30 3605 H 348.294 3.51918 2.67593 0
M  V30 3606 N 347.353 -0.0568162 1.57498 0
M  V30 3607 C 348.263 -1.08346 2.08083 0
M  V30 3608 C 349.279 -1.41439 1.01346 0
M  V30 3609 O 350.455 -1.51316 1.32912 0
M  V30 3610 C 347.52 -2.37352 2.52715 0
M  V30 3611 C 346.581 -2.11093 3.73816 0
M  V30 3612 C 345.814 -3.33949 4.1631 0
M  V30 3613 O 346.037 -4.43622 3.58547 0
M  V30 3614 O 344.971 -3.21279 5.08983 0
M  V30 3615 H 348.797 -0.683667 2.95905 0
M  V30 3616 H 346.382 -0.271965 1.46904 0
M  V30 3617 H 348.264 -3.13246 2.81877 0
M  V30 3618 H 346.939 -2.76681 1.68016 0
M  V30 3619 H 345.846 -1.32856 3.49714 0
M  V30 3620 H 347.179 -1.76637 4.59413 0
M  V30 3621 N 348.832 -1.54138 -0.328536 0
M  V30 3622 C 349.795 -1.82462 -1.38709 0
M  V30 3623 C 350.795 -0.696229 -1.44946 0
M  V30 3624 O 351.985 -0.964535 -1.4506 0
M  V30 3625 C 349.117 -1.98018 -2.77492 0
M  V30 3626 H 350.31 -2.77037 -1.14851 0
M  V30 3627 H 347.863 -1.45779 -0.563751 0
M  V30 3628 H 348.598 -1.05637 -3.06613 0
M  V30 3629 H 348.383 -2.80124 -2.74359 0
M  V30 3630 H 349.873 -2.21396 -3.54081 0
M  V30 3631 N 350.31 0.590341 -1.46126 0
M  V30 3632 C 351.557 1.34882 -1.5104 0
M  V30 3633 C 351.885 1.93849 -0.159021 0
M  V30 3634 O 351.14 1.76544 0.844436 0
M  V30 3635 C 351.439 2.5032 -2.55097 0
M  V30 3636 C 351.105 2.09394 -3.99331 0
M  V30 3637 C 349.767 1.97947 -4.38601 0
M  V30 3638 C 352.119 1.77712 -4.89967 0
M  V30 3639 C 349.447 1.53065 -5.66381 0
M  V30 3640 C 351.799 1.34312 -6.18177 0
M  V30 3641 C 350.463 1.21436 -6.56361 0
M  V30 3642 H 349.733 0.493568 -0.552695 0
M  V30 3643 H 352.38 0.665539 -1.79563 0
M  V30 3644 H 350.685 3.24062 -2.20207 0
M  V30 3645 H 352.382 3.08541 -2.56132 0
M  V30 3646 H 348.972 2.19235 -3.68285 0
M  V30 3647 H 353.156 1.85445 -4.60352 0
M  V30 3648 H 348.412 1.41733 -5.94745 0
M  V30 3649 H 352.586 1.08849 -6.87841 0
M  V30 3650 H 350.213 0.864345 -7.5527 0
M  V30 3651 N 351.788 1.33704 0.83433 0
M  V30 3652 C 353.037 1.24763 1.58484 0
M  V30 3653 C 353.35 -0.183775 1.94735 0
M  V30 3654 O 354.556 -0.395234 2.68608 0
M  V30 3655 C 353.012 2.18638 2.85876 0
M  V30 3656 C 352.62 3.66974 2.56971 0
M  V30 3657 C 354.364 2.18581 3.63899 0
M  V30 3658 C 352.271 4.5275 3.80488 0
M  V30 3659 H 351.201 0.463425 0.594772 0
M  V30 3660 H 353.852 1.58797 0.919551 0
M  V30 3661 H 352.234 1.77542 3.5397 0
M  V30 3662 H 353.408 4.16538 1.9706 0
M  V30 3663 H 351.723 3.69366 1.92244 0
M  V30 3664 H 354.32 2.79894 4.55591 0
M  V30 3665 H 354.663 1.18207 3.99165 0
M  V30 3666 H 355.196 2.58062 3.02735 0
M  V30 3667 H 351.935 5.54017 3.5035 0
M  V30 3668 H 351.455 4.07927 4.39722 0
M  V30 3669 H 353.134 4.66784 4.4802 0
M  V30 3670 N 353.266 -1.05314 1.17247 0
M  V30 3671 C 354.198 -2.13023 0.845812 0
M  V30 3672 C 355.211 -1.62096 -0.151246 0
M  V30 3673 O 356.4 -1.78343 0.0748818 0
M  V30 3674 C 353.5 -3.38047 0.240292 0
M  V30 3675 C 352.673 -4.18255 1.27991 0
M  V30 3676 C 351.732 -5.21625 0.692375 0
M  V30 3677 O 350.758 -5.52619 1.36385 0
M  V30 3678 N 351.96 -5.78201 -0.516178 0
M  V30 3679 H 354.725 -2.41642 1.77283 0
M  V30 3680 H 352.286 -1.21401 1.07115 0
M  V30 3681 H 354.278 -4.04359 -0.16603 0
M  V30 3682 H 352.848 -3.06972 -0.590487 0
M  V30 3683 H 352.068 -3.47451 1.86203 0
M  V30 3684 H 353.356 -4.68643 1.98119 0
M  V30 3685 H 352.754 -5.55301 -1.07969 0
M  V30 3686 H 351.311 -6.4604 -0.86458 0
M  V30 3687 N 354.744 -0.972509 -1.24016 0
M  V30 3688 C 355.691 -0.505969 -2.25186 0
M  V30 3689 C 356.661 0.451009 -1.5986 0
M  V30 3690 O 357.846 0.360307 -1.87367 0
M  V30 3691 C 354.986 0.193089 -3.44559 0
M  V30 3692 C 354.099 -0.803222 -4.24467 0
M  V30 3693 C 353.234 -0.0797793 -5.3114 0
M  V30 3694 C 352.273 -1.06583 -6.02749 0
M  V30 3695 N 351.41 -0.372074 -7.01113 0
M  V30 3696 H 356.25 -1.37351 -2.64459 0
M  V30 3697 H 353.787 -0.688419 -1.29997 0
M  V30 3698 H 355.745 0.615125 -4.1264 0
M  V30 3699 H 354.375 1.02455 -3.06109 0
M  V30 3700 H 353.427 -1.34368 -3.55878 0
M  V30 3701 H 354.739 -1.55494 -4.73944 0
M  V30 3702 H 353.893 0.400015 -6.0538 0
M  V30 3703 H 352.632 0.704597 -4.82583 0
M  V30 3704 H 351.637 -1.55645 -5.27309 0
M  V30 3705 H 352.862 -1.85074 -6.53395 0
M  V30 3706 H 350.808 0.393238 -6.5482 0
M  V30 3707 H 350.725 -1.06258 -7.48495 0
M  V30 3708 H 351.993 0.0855932 -7.79453 0
M  V30 3709 N 356.222 1.38976 -0.743202 0
M  V30 3710 C 357.447 2.05161 -0.303936 0
M  V30 3711 C 357.872 1.55677 1.05576 0
M  V30 3712 O 357.23 0.704131 1.67068 0
M  V30 3713 C 357.278 3.59138 -0.324373 0
M  V30 3714 O 356.382 4.06668 0.685204 0
M  V30 3715 H 355.723 0.649815 -0.136518 0
M  V30 3716 H 358.253 1.77852 -1.01142 0
M  V30 3717 H 358.263 4.07639 -0.171618 0
M  V30 3718 H 356.938 3.94515 -1.31647 0
M  V30 3719 H 355.515 3.69561 0.497913 0
M  V30 3720 N 357.7 0.491464 1.49741 0
M  V30 3721 C 359.116 0.146835 1.58923 0
M  V30 3722 C 359.316 -1.34804 1.49767 0
M  V30 3723 O 358.372 -2.12317 1.36667 0
M  V30 3724 C 359.685 0.715157 2.92072 0
M  V30 3725 C 361.233 0.680407 3.05515 0
M  V30 3726 C 361.708 1.22663 4.41269 0
M  V30 3727 N 363.199 1.18691 4.47735 0
M  V30 3728 C 363.934 1.57984 5.51207 0
M  V30 3729 N 363.43 2.04824 6.6183 0
M  V30 3730 N 365.223 1.49459 5.41866 0
M  V30 3731 H 357.374 1.46347 1.53936 0
M  V30 3732 H 359.637 0.606453 0.728642 0
M  V30 3733 H 359.343 1.76317 3.04311 0
M  V30 3734 H 359.217 0.17018 3.76816 0
M  V30 3735 H 361.604 -0.358743 2.92911 0
M  V30 3736 H 361.685 1.26242 2.22478 0
M  V30 3737 H 361.329 2.26451 4.54623 0
M  V30 3738 H 361.259 0.620637 5.2293 0
M  V30 3739 H 363.75 0.843605 3.68364 0
M  V30 3740 H 364.063 2.32901 7.3687 0
M  V30 3741 H 362.408 2.08791 6.62896 0
M  V30 3742 H 365.599 1.12692 4.54333 0
M  V30 3743 H 365.772 1.80406 6.22381 0
M  V30 3744 N 359.178 -1.55987 0.224894 0
M  V30 3745 C 360.088 -2.24066 -0.69511 0
M  V30 3746 C 361.104 -1.24939 -1.21104 0
M  V30 3747 O 362.28 -1.5776 -1.25195 0
M  V30 3748 C 359.345 -2.90983 -1.88493 0
M  V30 3749 C 358.406 -4.05462 -1.41064 0
M  V30 3750 C 357.639 -4.69179 -2.54375 0
M  V30 3751 O 357.862 -4.31895 -3.72589 0
M  V30 3752 O 356.796 -5.58108 -2.25386 0
M  V30 3753 H 360.622 -3.03353 -0.145149 0
M  V30 3754 H 358.207 -1.49399 -0.00569476 0
M  V30 3755 H 360.089 -3.33209 -2.57972 0
M  V30 3756 H 358.764 -2.14653 -2.42293 0
M  V30 3757 H 357.671 -3.67798 -0.683774 0
M  V30 3758 H 359.004 -4.83545 -0.918985 0
M  V30 3759 N 360.656 0.0484629 -1.57525 0
M  V30 3760 C 361.933 0.777447 -1.79486 0
M  V30 3761 C 362.313 1.94597 -0.818251 0
M  V30 3762 O 361.661 2.28047 0.143767 0
M  V30 3763 C 361.871 1.22864 -3.26658 0
M  V30 3764 C 363.219 1.65251 -3.91123 0
M  V30 3765 O 364.243 1.32372 -3.3069 0
M  V30 3766 O 363.102 2.26207 -4.97486 0
M  V30 3767 H 360.196 0.374357 -0.737419 0
M  V30 3768 H 362.742 0.0267359 -1.69679 0
M  V30 3769 H 361.514 0.393589 -3.89316 0
M  V30 3770 H 361.137 2.03996 -3.41279 0
M  V30 3771 N 362.134 1.5431 0.320358 0
M  V30 3772 C 363.382 1.72327 1.05583 0
M  V30 3773 C 363.703 0.50149 1.88441 0
M  V30 3774 O 362.973 -0.48448 1.89815 0
M  V30 3775 H 361.553 0.635387 0.3928 0
M  V30 3776 H 364.215 1.91621 0.356019 0
M  V30 3777 H 363.311 2.60426 1.72003 0
M  V30 3778 N 363.613 -0.582584 1.46437 0
M  V30 3779 C 364.861 -1.33814 1.51453 0
M  V30 3780 C 365.182 -1.94277 0.167792 0
M  V30 3781 O 364.452 -1.78566 -0.805677 0
M  V30 3782 H 363.032 -0.496838 0.557818 0
M  V30 3783 H 365.694 -0.682281 1.82568 0
M  V30 3784 H 364.79 -2.14479 2.26728 0
M  V30 3785 N 365.091 -1.34144 -0.827227 0
M  V30 3786 C 366.337 -1.26446 -1.58554 0
M  V30 3787 C 366.67 0.1664 -1.93486 0
M  V30 3788 O 365.945 1.1107 -1.59667 0
M  V30 3789 C 366.228 -2.15111 -2.8879 0
M  V30 3790 C 366.081 -3.66712 -2.60465 0
M  V30 3791 C 367.4 -2.03311 -3.90324 0
M  V30 3792 H 364.519 -0.46067 -0.575284 0
M  V30 3793 H 367.161 -1.64356 -0.953269 0
M  V30 3794 H 365.311 -1.8291 -3.42748 0
M  V30 3795 H 366.983 -4.09259 -2.1285 0
M  V30 3796 H 365.226 -3.88014 -1.93978 0
M  V30 3797 H 365.897 -4.24112 -3.53317 0
M  V30 3798 H 368.373 -2.31574 -3.45706 0
M  V30 3799 H 367.249 -2.67582 -4.79261 0
M  V30 3800 H 367.51 -1.00879 -4.30437 0
M  V30 3801 N 366.569 1.04691 -1.17803 0
M  V30 3802 C 367.809 1.79352 -0.980423 0
M  V30 3803 C 368.173 1.85853 0.481958 0
M  V30 3804 O 369.374 2.56656 0.798809 0
M  V30 3805 C 367.645 3.19088 -1.6099 0
M  V30 3806 S 369.204 4.10164 -1.55918 0
M  V30 3807 H 366.022 0.617631 -0.352211 0
M  V30 3808 H 368.624 1.25575 -1.49837 0
M  V30 3809 H 367.328 3.11962 -2.66661 0
M  V30 3810 H 366.859 3.77941 -1.09197 0
M  V30 3811 H 368.874 4.92907 -0.570685 0
M  V30 3812 N 368.047 0.979072 1.23499 0
M  V30 3813 C 369.296 0.642751 1.91185 0
M  V30 3814 C 369.609 -0.827253 1.77245 0
M  V30 3815 O 370.815 -1.27458 2.39722 0
M  V30 3816 C 369.271 1.09901 3.42709 0
M  V30 3817 C 368.879 2.59327 3.65313 0
M  V30 3818 C 370.623 0.836371 4.16179 0
M  V30 3819 C 368.53 2.98627 5.10467 0
M  V30 3820 H 367.46 0.236698 0.715884 0
M  V30 3821 H 370.111 1.1868 1.39955 0
M  V30 3822 H 368.493 0.48319 3.93041 0
M  V30 3823 H 369.667 3.26136 3.25533 0
M  V30 3824 H 367.982 2.83323 3.05151 0
M  V30 3825 H 370.579 1.10586 5.23139 0
M  V30 3826 H 370.922 -0.227509 4.15678 0
M  V30 3827 H 371.455 1.41371 3.71832 0
M  V30 3828 H 368.194 4.04133 5.16098 0
M  V30 3829 H 367.714 2.3651 5.51201 0
M  V30 3830 H 369.393 2.89159 5.78788 0
M  V30 3831 N 369.525 -1.3858 0.750561 0
M  V30 3832 C 370.488 -2.28836 0.129152 0
M  V30 3833 C 371.488 -1.47045 -0.650714 0
M  V30 3834 O 372.678 -1.6753 -0.477428 0
M  V30 3835 C 369.81 -3.30751 -0.825622 0
M  V30 3836 H 371.003 -2.85294 0.924516 0
M  V30 3837 H 368.556 -1.47489 0.517376 0
M  V30 3838 H 369.291 -2.79378 -1.64677 0
M  V30 3839 H 369.076 -3.91177 -0.268852 0
M  V30 3840 H 370.566 -3.98249 -1.2565 0
M  V30 3841 N 371.003 -0.499398 -1.49478 0
M  V30 3842 C 371.935 0.316575 -2.27003 0
M  V30 3843 C 372.948 0.932047 -1.33479 0
M  V30 3844 O 374.137 0.815658 -1.58774 0
M  V30 3845 C 371.237 1.46055 -3.05812 0
M  V30 3846 C 370.41 0.952679 -4.26899 0
M  V30 3847 C 369.469 1.97407 -4.87767 0
M  V30 3848 O 368.495 1.54326 -5.4788 0
M  V30 3849 N 369.697 3.30436 -4.77276 0
M  V30 3850 H 372.462 -0.348168 -2.97671 0
M  V30 3851 H 370.023 -0.33185 -1.58463 0
M  V30 3852 H 372.015 2.14135 -3.43407 0
M  V30 3853 H 370.585 2.02948 -2.37762 0
M  V30 3854 H 369.805 0.0968248 -3.94081 0
M  V30 3855 H 371.093 0.59174 -5.05347 0
M  V30 3856 H 370.491 3.68126 -4.29534 0
M  V30 3857 H 369.048 3.94235 -5.19059 0
M  V30 3858 N 372.481 1.55866 -0.233164 0
M  V30 3859 C 373.706 2.03449 0.402906 0
M  V30 3860 C 374.131 1.11166 1.51736 0
M  V30 3861 O 373.489 0.101996 1.81013 0
M  V30 3862 C 373.537 3.49165 0.9009 0
M  V30 3863 O 372.641 3.60019 2.01147 0
M  V30 3864 H 371.982 0.657913 0.0897025 0
M  V30 3865 H 374.512 2.01493 -0.355201 0
M  V30 3866 H 374.522 3.89716 1.2077 0
M  V30 3867 H 373.197 4.15813 0.0852889 0
M  V30 3868 H 371.774 3.3136 1.71042 0
M  V30 3869 N 373.959 -0.0401083 1.57549 0
M  V30 3870 C 375.205 -0.734211 1.89043 0
M  V30 3871 C 375.538 -1.75591 0.829535 0
M  V30 3872 O 374.813 -1.93868 -0.156706 0
M  V30 3873 C 375.096 -1.41374 3.31188 0
M  V30 3874 C 374.949 -0.406299 4.47961 0
M  V30 3875 C 376.268 -2.35061 3.72068 0
M  V30 3876 H 373.387 -0.265447 0.687537 0
M  V30 3877 H 376.029 0.00294087 1.9 0
M  V30 3878 H 374.179 -2.04206 3.30503 0
M  V30 3879 H 375.851 0.219255 4.60779 0
M  V30 3880 H 374.094 0.275485 4.32924 0
M  V30 3881 H 374.765 -0.920022 5.44279 0
M  V30 3882 H 377.241 -1.82282 3.74049 0
M  V30 3883 H 376.117 -2.79593 4.72355 0
M  V30 3884 H 376.378 -3.21258 3.0372 0
M  V30 3885 N 375.437 -1.54477 -0.31217 0
M  V30 3886 C 376.384 -1.84655 -1.38461 0
M  V30 3887 C 377.354 -0.694536 -1.50882 0
M  V30 3888 O 378.539 -0.942081 -1.6592 0
M  V30 3889 C 375.679 -2.0896 -2.74645 0
M  V30 3890 C 374.792 -3.36618 -2.70763 0
M  V30 3891 C 373.927 -3.50824 -3.98868 0
M  V30 3892 C 372.966 -4.72315 -3.89339 0
M  V30 3893 N 372.103 -4.83387 -5.09197 0
M  V30 3894 H 376.943 -2.76142 -1.12026 0
M  V30 3895 H 374.48 -1.36748 -0.542065 0
M  V30 3896 H 376.438 -2.21045 -3.53829 0
M  V30 3897 H 375.068 -1.20752 -2.99364 0
M  V30 3898 H 374.12 -3.33211 -1.83506 0
M  V30 3899 H 375.432 -4.25917 -2.59608 0
M  V30 3900 H 374.586 -3.62513 -4.86486 0
M  V30 3901 H 373.325 -2.59638 -4.12843 0
M  V30 3902 H 372.33 -4.6067 -3.00105 0
M  V30 3903 H 373.555 -5.64897 -3.76919 0
M  V30 3904 H 371.501 -3.9512 -5.23657 0
M  V30 3905 H 371.418 -5.66669 -5.00422 0
M  V30 3906 H 372.686 -4.9942 -5.98498 0
M  V30 3907 N 376.915 0.57481 -1.46744 0
M  V30 3908 C 378.164 1.32898 -1.51727 0
M  V30 3909 C 378.477 1.948 -0.176692 0
M  V30 3910 O 379.683 2.71299 -0.104385 0
M  V30 3911 C 378.139 2.40901 -2.67385 0
M  V30 3912 C 377.747 1.85266 -4.07898 0
M  V30 3913 C 379.491 3.17609 -2.81646 0
M  V30 3914 C 377.398 2.90945 -5.14883 0
M  V30 3915 H 376.328 0.499631 -0.564699 0
M  V30 3916 H 378.979 0.612536 -1.72975 0
M  V30 3917 H 377.361 3.15379 -2.39483 0
M  V30 3918 H 378.535 1.17278 -4.45626 0
M  V30 3919 H 376.85 1.21199 -3.98371 0
M  V30 3920 H 379.447 3.96493 -3.58744 0
M  V30 3921 H 379.79 3.70696 -1.89448 0
M  V30 3922 H 380.323 2.50239 -3.09233 0
M  V30 3923 H 377.062 2.42736 -6.089 0
M  V30 3924 H 376.582 3.57398 -4.81691 0
M  V30 3925 H 378.261 3.54755 -5.41071 0
M  V30 3926 N 378.394 1.34581 0.820102 0
M  V30 3927 C 379.805 1.24298 1.39309 0
M  V30 3928 C 380.156 -0.130351 1.95767 0
M  V30 3929 O 379.281 -1.0308 1.90272 0
M  V30 3930 C 379.876 2.25054 2.53251 0
M  V30 3931 C 378.435 2.18552 3.0645 0
M  V30 3932 C 377.582 2.11503 1.79337 0
M  V30 3933 H 380.533 1.45906 0.624262 0
M  V30 3934 H 380.554 1.86917 3.31425 0
M  V30 3935 H 380.066 3.24996 2.1213 0
M  V30 3936 H 378.167 1.21976 3.52069 0
M  V30 3937 H 378.28 3.0993 3.65349 0
M  V30 3938 H 376.644 1.57268 2.00347 0
M  V30 3939 H 377.427 3.13284 1.40386 0
M  V30 3940 N 379.872 -1.04064 1.18357 0
M  V30 3941 C 381.288 -1.2947 0.933258 0
M  V30 3942 C 381.488 -1.97466 -0.401169 0
M  V30 3943 O 380.544 -2.25528 -1.13549 0
M  V30 3944 C 381.857 -2.15337 2.09882 0
M  V30 3945 C 383.405 -2.28683 2.13712 0
M  V30 3946 C 383.88 -3.17917 3.29686 0
M  V30 3947 N 385.371 -3.25504 3.29547 0
M  V30 3948 C 386.106 -3.94706 4.15926 0
M  V30 3949 N 385.602 -4.66239 5.12439 0
M  V30 3950 N 387.395 -3.90986 4.0384 0
M  V30 3951 H 379.546 -0.583359 2.04232 0
M  V30 3952 H 381.809 -0.319921 0.892387 0
M  V30 3953 H 381.515 -1.72682 3.06389 0
M  V30 3954 H 381.389 -3.16015 2.05947 0
M  V30 3955 H 383.776 -2.70575 1.17784 0
M  V30 3956 H 383.857 -1.27596 2.21705 0
M  V30 3957 H 383.501 -2.76736 4.25887 0
M  V30 3958 H 383.431 -4.19036 3.1893 0
M  V30 3959 H 385.922 -2.74547 2.59677 0
M  V30 3960 H 386.235 -5.16638 5.74722 0
M  V30 3961 H 384.58 -4.65143 5.16398 0
M  V30 3962 H 387.771 -3.34234 3.27727 0
M  V30 3963 H 387.944 -4.44646 4.71375 0
M  V30 3964 N 381.35 -0.985608 -1.22978 0
M  V30 3965 C 382.26 -0.538548 -2.28335 0
M  V30 3966 C 383.276 0.409163 -1.69121 0
M  V30 3967 O 384.452 0.277797 -1.99475 0
M  V30 3968 C 381.517 0.146867 -3.46389 0
M  V30 3969 C 380.578 -0.842896 -4.20944 0
M  V30 3970 C 379.811 -0.190095 -5.33361 0
M  V30 3971 O 380.034 1.01767 -5.61248 0
M  V30 3972 O 378.968 -0.891289 -5.95264 0
M  V30 3973 H 382.794 -1.41487 -2.68729 0
M  V30 3974 H 380.379 -0.753495 -1.29007 0
M  V30 3975 H 382.261 0.531125 -4.1804 0
M  V30 3976 H 380.936 0.997871 -3.07935 0
M  V30 3977 H 379.843 -1.27795 -3.51595 0
M  V30 3978 H 381.176 -1.66287 -4.6326 0
M  V30 3979 N 382.828 1.3818 -0.7579 0
M  V30 3980 C 384.239 1.82726 -0.383134 0
M  V30 3981 C 384.59 1.63214 1.08884 0
M  V30 3982 O 383.715 1.13566 1.84205 0
M  V30 3983 C 384.31 3.31728 -0.688631 0
M  V30 3984 C 382.869 3.74606 -0.367091 0
M  V30 3985 C 382.016 2.60896 -0.939599 0
M  V30 3986 H 384.967 1.26847 -0.953699 0
M  V30 3987 H 384.988 3.80487 0.0316492 0
M  V30 3988 H 384.5 3.45898 -1.76001 0
M  V30 3989 H 382.601 3.66013 0.697532 0
M  V30 3990 H 382.714 4.71215 -0.865658 0
M  V30 3991 H 381.078 2.52075 -0.3647 0
M  V30 3992 H 381.861 2.77864 -2.0161 0
M  V30 3993 N 384.306 0.507319 1.49211 0
M  V30 3994 C 385.253 -0.267728 2.29242 0
M  V30 3995 C 386.223 -0.954609 1.35928 0
M  V30 3996 O 387.408 -0.960046 1.64887 0
M  V30 3997 C 384.548 -1.32243 3.18756 0
M  V30 3998 C 383.661 -0.64669 4.27132 0
M  V30 3999 C 382.796 -1.68238 5.03855 0
M  V30 4000 C 381.835 -0.98885 6.0406 0
M  V30 4001 N 380.972 -1.96903 6.73924 0
M  V30 4002 H 385.812 0.420968 2.95012 0
M  V30 4003 H 383.349 0.219443 1.45454 0
M  V30 4004 H 385.307 -1.94599 3.69036 0
M  V30 4005 H 383.937 -1.97981 2.54958 0
M  V30 4006 H 382.989 0.0902926 3.80293 0
M  V30 4007 H 384.301 -0.101058 4.98698 0
M  V30 4008 H 383.455 -2.38081 5.58034 0
M  V30 4009 H 382.194 -2.26187 4.32077 0
M  V30 4010 H 381.199 -0.276222 5.49106 0
M  V30 4011 H 382.424 -0.415767 6.77826 0
M  V30 4012 H 380.37 -2.53803 6.04913 0
M  V30 4013 H 380.287 -1.47423 7.41487 0
M  V30 4014 H 381.555 -2.66015 7.32705 0
M  V30 4015 N 385.784 -1.5574 0.241426 0
M  V30 4016 C 386.747 -2.19877 -0.647063 0
M  V30 4017 C 387.747 -1.16642 -1.10686 0
M  V30 4018 O 388.937 -1.41757 -1.01245 0
M  V30 4019 C 386.069 -2.83797 -1.88871 0
M  V30 4020 H 387.262 -2.99772 -0.087574 0
M  V30 4021 H 384.815 -1.56298 -0.00813574 0
M  V30 4022 H 385.55 -2.07824 -2.48957 0
M  V30 4023 H 385.335 -3.59414 -1.56728 0
M  V30 4024 H 386.825 -3.32898 -2.52129 0
M  V30 4025 N 387.262 0.0317525 -1.57568 0
M  V30 4026 C 388.51 0.721676 -1.88776 0
M  V30 4027 C 388.831 1.76039 -0.838772 0
M  V30 4028 O 388.101 1.95482 0.127935 0
M  V30 4029 H 386.681 0.269534 -0.696678 0
M  V30 4030 H 389.343 -0.00165879 -1.949 0
M  V30 4031 H 388.439 1.21293 -2.87566 0
M  V30 4032 N 388.74 1.54641 0.303973 0
M  V30 4033 C 389.65 1.88439 1.39743 0
M  V30 4034 C 390.666 0.778239 1.55626 0
M  V30 4035 O 391.842 1.07442 1.70347 0
M  V30 4036 C 388.907 2.12212 2.74166 0
M  V30 4037 C 387.968 3.35936 2.67293 0
M  V30 4038 C 387.201 3.58566 3.95305 0
M  V30 4039 O 387.424 2.84263 4.9452 0
M  V30 4040 O 386.358 4.52078 3.97378 0
M  V30 4041 H 390.184 2.81458 1.14083 0
M  V30 4042 H 387.769 1.40793 0.499768 0
M  V30 4043 H 389.651 2.29067 3.53704 0
M  V30 4044 H 388.326 1.22379 2.99675 0
M  V30 4045 H 387.233 3.24448 1.86237 0
M  V30 4046 H 388.566 4.2589 2.46736 0
M  V30 4047 N 390.218 -0.567019 1.47046 0
M  V30 4048 C 391.465 -1.32462 1.53167 0
M  V30 4049 C 391.793 -1.93571 0.189841 0
M  V30 4050 O 391.048 -1.77865 -0.816243 0
M  V30 4051 C 391.347 -2.4623 2.59047 0
M  V30 4052 C 391.013 -2.03014 4.02612 0
M  V30 4053 C 389.675 -1.90944 4.41694 0
M  V30 4054 C 392.027 -1.69895 4.92732 0
M  V30 4055 C 389.355 -1.44035 5.68745 0
M  V30 4056 C 391.707 -1.2446 6.20236 0
M  V30 4057 C 390.371 -1.10979 6.5821 0
M  V30 4058 H 389.641 -0.484713 0.560477 0
M  V30 4059 H 392.288 -0.636888 1.80599 0
M  V30 4060 H 390.593 -3.20517 2.25335 0
M  V30 4061 H 392.29 -3.04427 2.61008 0
M  V30 4062 H 388.88 -2.13348 3.71726 0
M  V30 4063 H 393.064 -1.78098 4.63244 0
M  V30 4064 H 388.32 -1.32254 5.96925 0
M  V30 4065 H 392.494 -0.978924 6.89485 0
M  V30 4066 H 390.121 -0.744078 7.5655 0
M  V30 4067 N 391.696 -1.35014 -0.812953 0
M  V30 4068 C 392.973 -1.18502 -1.55617 0
M  V30 4069 C 393.353 0.238421 -2.09749 0
M  V30 4070 O 392.701 1.2411 -1.91857 0
M  V30 4071 C 392.911 -2.24783 -2.66971 0
M  V30 4072 C 394.259 -2.60268 -3.35478 0
M  V30 4073 O 395.283 -2.23648 -2.77236 0
M  V30 4074 O 394.142 -3.2321 -4.40678 0
M  V30 4075 H 391.236 -0.459984 -0.687272 0
M  V30 4076 H 393.782 -1.46677 -0.853464 0
M  V30 4077 H 392.554 -3.20284 -2.24798 0
M  V30 4078 H 392.177 -1.97841 -3.44884 0
M  V30 4079 N 393.175 1.03435 -1.18907 0
M  V30 4080 C 394.122 2.11591 -0.921837 0
M  V30 4081 C 395.092 1.65499 0.141226 0
M  V30 4082 O 396.277 1.908 0.000242829 0
M  V30 4083 C 393.417 3.42012 -0.460616 0
M  V30 4084 C 392.53 4.01682 -1.58982 0
M  V30 4085 C 391.665 5.20091 -1.08069 0
M  V30 4086 C 390.704 5.71805 -2.18416 0
M  V30 4087 N 389.841 6.81494 -1.68849 0
M  V30 4088 H 394.681 2.33787 -1.8479 0
M  V30 4089 H 392.218 1.1467 -0.921373 0
M  V30 4090 H 394.176 4.16834 -0.174642 0
M  V30 4091 H 392.806 3.19944 0.428467 0
M  V30 4092 H 391.858 3.24127 -1.99113 0
M  V30 4093 H 393.17 4.36084 -2.4214 0
M  V30 4094 H 392.324 6.02051 -0.749615 0
M  V30 4095 H 391.063 4.87209 -0.218771 0
M  V30 4096 H 390.068 4.88461 -2.5236 0
M  V30 4097 H 391.293 6.06728 -3.05054 0
M  V30 4098 H 389.239 6.50475 -0.849572 0
M  V30 4099 H 389.156 7.14994 -2.45601 0
M  V30 4100 H 390.424 7.67063 -1.38689 0
M  V30 4101 N 394.653 0.992116 1.22453 0
M  V30 4102 C 395.902 0.662992 1.90492 0
M  V30 4103 C 396.215 -0.808407 1.78113 0
M  V30 4104 O 397.421 -1.24908 2.41061 0
M  V30 4105 C 395.877 1.1353 3.41524 0
M  V30 4106 C 395.485 2.63187 3.62542 0
M  V30 4107 C 397.229 0.880465 4.15269 0
M  V30 4108 C 395.136 3.04024 5.0727 0
M  V30 4109 H 394.066 0.244278 0.713333 0
M  V30 4110 H 396.717 1.20157 1.38688 0
M  V30 4111 H 395.099 0.52485 3.92506 0
M  V30 4112 H 396.273 3.2957 3.22056 0
M  V30 4113 H 394.588 2.86543 3.02129 0
M  V30 4114 H 397.185 1.16128 5.21937 0
M  V30 4115 H 397.528 -0.183408 4.15896 0
M  V30 4116 H 398.061 1.45307 3.70312 0
M  V30 4117 H 394.8 4.09584 5.11782 0
M  V30 4118 H 394.32 2.42343 5.48662 0
M  V30 4119 H 395.999 2.95282 5.75689 0
M  V30 4120 N 396.131 -1.37776 0.765217 0
M  V30 4121 C 397.38 -1.99092 0.323307 0
M  V30 4122 C 397.693 -1.61434 -1.10446 0
M  V30 4123 O 398.899 -2.15805 -1.64743 0
M  V30 4124 C 397.355 -3.56019 0.527098 0
M  V30 4125 C 396.963 -4.0262 1.96471 0
M  V30 4126 C 398.707 -4.2424 0.148483 0
M  V30 4127 C 396.614 -5.52233 2.11644 0
M  V30 4128 H 395.544 -0.744846 0.117137 0
M  V30 4129 H 398.195 -1.57391 0.943417 0
M  V30 4130 H 396.577 -3.95667 -0.162372 0
M  V30 4131 H 397.751 -3.74234 2.68859 0
M  V30 4132 H 396.066 -3.47161 2.29931 0
M  V30 4133 H 398.663 -5.34159 0.240456 0
M  V30 4134 H 399.006 -4.06446 -0.900422 0
M  V30 4135 H 399.539 -3.89872 0.79025 0
M  V30 4136 H 396.278 -5.74945 3.1483 0
M  V30 4137 H 395.798 -5.82324 1.4373 0
M  V30 4138 H 397.477 -6.18106 1.91193 0
M  V30 4139 N 397.609 -0.515225 -1.4894 0
M  V30 4140 C 399.025 -0.172099 -1.58669 0
M  V30 4141 C 399.225 1.32405 -1.51892 0
M  V30 4142 O 398.281 2.10116 -1.40027 0
M  V30 4143 C 399.594 -0.761533 -2.90897 0
M  V30 4144 C 401.142 -0.728926 -3.04394 0
M  V30 4145 C 401.617 -1.29667 -4.39261 0
M  V30 4146 N 403.108 -1.25799 -4.4579 0
M  V30 4147 C 403.843 -1.66733 -5.48623 0
M  V30 4148 N 403.339 -2.15327 -6.58488 0
M  V30 4149 N 405.132 -1.58061 -5.39419 0
M  V30 4150 H 397.283 -1.48778 -1.51588 0
M  V30 4151 H 399.546 -0.617968 -0.718901 0
M  V30 4152 H 399.252 -1.81136 -3.01468 0
M  V30 4153 H 399.126 -0.230106 -3.76497 0
M  V30 4154 H 401.513 0.312098 -2.93445 0
M  V30 4155 H 401.594 -1.29766 -2.20442 0
M  V30 4156 H 401.238 -2.33655 -4.50963 0
M  V30 4157 H 401.168 -0.703752 -5.21876 0
M  V30 4158 H 403.659 -0.902102 -3.66975 0
M  V30 4159 H 403.972 -2.44594 -7.33071 0
M  V30 4160 H 402.317 -2.19311 -6.59491 0
M  V30 4161 H 405.508 -1.19906 -4.52482 0
M  V30 4162 H 405.681 -1.90284 -6.19432 0
M  V30 4163 N 399.087 1.5561 -0.249682 0
M  V30 4164 C 400.503 1.59254 0.105103 0
M  V30 4165 C 400.703 1.26685 1.56694 0
M  V30 4166 O 399.759 1.0155 2.31179 0
M  V30 4167 C 401.072 2.99687 -0.246592 0
M  V30 4168 C 402.62 3.12416 -0.191118 0
M  V30 4169 C 403.095 4.55074 -0.516885 0
M  V30 4170 N 404.586 4.60835 -0.467489 0
M  V30 4171 C 405.321 5.69201 -0.69268 0
M  V30 4172 N 404.817 6.85817 -0.981146 0
M  V30 4173 N 406.61 5.58635 -0.623198 0
M  V30 4174 H 398.761 1.75049 -1.20298 0
M  V30 4175 H 401.024 0.815003 -0.484225 0
M  V30 4176 H 400.73 3.28267 -1.26228 0
M  V30 4177 H 400.604 3.74798 0.424962 0
M  V30 4178 H 402.991 2.83615 0.815247 0
M  V30 4179 H 403.072 2.39573 -0.896563 0
M  V30 4180 H 402.716 4.84596 -1.52082 0
M  V30 4181 H 402.646 5.26181 0.210068 0
M  V30 4182 H 405.137 3.7705 -0.253373 0
M  V30 4183 H 405.45 7.64341 -1.14032 0
M  V30 4184 H 403.795 6.87494 -1.01865 0
M  V30 4185 H 406.986 4.66406 -0.397863 0
M  V30 4186 H 407.159 6.43017 -0.802093 0
M  V30 4187 N 400.565 -0.0233959 1.57583 0
M  V30 4188 C 401.495 -1.02162 2.09965 0
M  V30 4189 C 402.476 -1.3735 1.00344 0
M  V30 4190 O 403.661 -1.46135 1.27899 0
M  V30 4191 C 400.791 -2.32081 2.58371 0
M  V30 4192 C 399.745 -2.1112 3.72307 0
M  V30 4193 C 399.071 -3.46848 4.06941 0
M  V30 4194 C 400.371 -1.49276 5.00514 0
M  V30 4195 H 402.065 -0.585557 2.93618 0
M  V30 4196 H 399.611 -0.280218 1.41247 0
M  V30 4197 H 401.564 -3.02249 2.93639 0
M  V30 4198 H 400.288 -2.77758 1.71808 0
M  V30 4199 H 398.947 -1.43384 3.37397 0
M  V30 4200 H 398.595 -3.90184 3.17436 0
M  V30 4201 H 398.295 -3.33646 4.83688 0
M  V30 4202 H 399.819 -4.18369 4.44747 0
M  V30 4203 H 401.233 -2.09368 5.33702 0
M  V30 4204 H 399.63 -1.46632 5.8191 0
M  V30 4205 H 400.7 -0.459217 4.82721 0
M  V30 4206 N 402.043 -1.548 -0.295768 0
M  V30 4207 C 402.973 -1.89115 -1.36959 0
M  V30 4208 C 403.954 -0.75059 -1.52644 0
M  V30 4209 O 405.139 -1.00678 -1.66065 0
M  V30 4210 C 402.269 -2.14307 -2.73295 0
M  V30 4211 C 401.223 -3.30151 -2.72368 0
M  V30 4212 C 400.549 -3.40772 -4.12042 0
M  V30 4213 C 401.849 -4.67126 -2.33646 0
M  V30 4214 H 403.543 -2.79053 -1.08488 0
M  V30 4215 H 401.089 -1.34266 -0.520443 0
M  V30 4216 H 403.042 -2.36898 -3.48507 0
M  V30 4217 H 401.766 -1.21145 -3.03301 0
M  V30 4218 H 400.425 -3.0749 -1.99613 0
M  V30 4219 H 400.073 -2.45117 -4.39234 0
M  V30 4220 H 399.773 -4.18645 -4.12322 0
M  V30 4221 H 401.297 -3.6563 -4.89027 0
M  V30 4222 H 402.711 -4.89414 -2.98575 0
M  V30 4223 H 401.108 -5.47751 -2.45129 0
M  V30 4224 H 402.178 -4.67489 -1.28772 0
M  V30 4225 N 403.521 0.559213 -1.47345 0
M  V30 4226 C 404.431 1.69388 -1.62311 0
M  V30 4227 C 405.447 1.6648 -0.505993 0
M  V30 4228 O 406.623 1.85964 -0.773262 0
M  V30 4229 C 403.688 3.05894 -1.63185 0
M  V30 4230 C 402.749 3.19885 -2.86307 0
M  V30 4231 C 401.982 4.49879 -2.87131 0
M  V30 4232 O 402.205 5.35217 -1.97229 0
M  V30 4233 O 401.139 4.67618 -3.78968 0
M  V30 4234 H 404.965 1.59706 -2.58317 0
M  V30 4235 H 402.55 0.728989 -1.30407 0
M  V30 4236 H 404.432 3.87133 -1.66451 0
M  V30 4237 H 403.107 3.15964 -0.70345 0
M  V30 4238 H 402.014 2.38052 -2.88587 0
M  V30 4239 H 403.347 3.14718 -3.78435 0
M  V30 4240 N 404.999 1.35443 0.805782 0
M  V30 4241 C 406.227 1.31878 1.59423 0
M  V30 4242 C 406.642 -0.103562 1.88516 0
M  V30 4243 O 405.999 -1.05575 1.48863 0
M  V30 4244 C 406.05 2.12426 2.92502 0
M  V30 4245 O 405.771 3.49115 2.6467 0
M  V30 4246 C 407.272 2.16455 3.86862 0
M  V30 4247 H 404.492 0.453002 0.495005 0
M  V30 4248 H 407.036 1.78309 1.00131 0
M  V30 4249 H 405.191 1.69593 3.48306 0
M  V30 4250 H 405.605 3.90957 3.49647 0
M  V30 4251 H 407.079 2.77204 4.77349 0
M  V30 4252 H 407.556 1.16352 4.23508 0
M  V30 4253 H 408.162 2.59453 3.36993 0
M  V30 4254 N 406.477 -1.02803 1.19454 0
M  V30 4255 C 407.702 -1.80378 1.02364 0
M  V30 4256 C 408.127 -1.83282 -0.423007 0
M  V30 4257 O 407.485 -1.25945 -1.30413 0
M  V30 4258 C 407.533 -3.23248 1.59821 0
M  V30 4259 O 406.637 -4.04 0.828105 0
M  V30 4260 H 405.978 -0.556799 0.361761 0
M  V30 4261 H 408.508 -1.29385 1.58495 0
M  V30 4262 H 408.518 -3.73994 1.63073 0
M  V30 4263 H 407.193 -3.2045 2.65113 0
M  V30 4264 H 405.77 -3.62635 0.86891 0
M  V30 4265 N 407.956 -0.998596 -1.21925 0
M  V30 4266 C 408.904 -0.546641 -2.26085 0
M  V30 4267 C 409.898 0.405576 -1.64473 0
M  V30 4268 O 411.104 0.277471 -1.77849 0
M  V30 4269 H 407.479 -0.158403 -0.735127 0
M  V30 4270 H 409.45 -1.43645 -2.61551 0
M  V30 4271 C 408.199 0.117388 -3.47502 0
M  V30 4272 H 407.522 -0.606277 -3.95176 0
M  V30 4273 H 408.962 0.396993 -4.22137 0
M  V30 4274 C 407.421 1.35455 -3.0847 0
M  V30 4275 O 407.951 2.44944 -3.18379 0
M  V30 4276 N 406.157 1.23191 -2.63196 0
M  V30 4277 H 405.704 0.341006 -2.55333 0
M  V30 4278 H 405.662 2.06071 -2.37449 0
M  V30 4279 N 409.434 1.37368 -0.772513 0
M  V30 4280 C 410.397 2.28601 -0.165541 0
M  V30 4281 C 411.397 1.48062 0.627238 0
M  V30 4282 O 412.587 1.68268 0.450715 0
M  V30 4283 C 409.719 3.32023 0.772897 0
M  V30 4284 H 410.912 2.83787 -0.969787 0
M  V30 4285 H 408.465 1.46647 -0.540775 0
M  V30 4286 H 409.2 2.81962 1.60212 0
M  V30 4287 H 408.985 3.91555 0.206585 0
M  V30 4288 H 410.475 4.00197 1.19298 0
M  V30 4289 N 410.912 0.523116 1.48665 0
M  V30 4290 C 412.328 0.180511 1.58576 0
M  V30 4291 C 412.528 -1.31597 1.52592 0
M  V30 4292 O 411.584 -2.0937 1.4114 0
M  V30 4293 C 412.897 0.776949 2.90489 0
M  V30 4294 C 414.445 0.745058 3.04003 0
M  V30 4295 C 414.92 1.31995 4.38567 0
M  V30 4296 N 416.411 1.28162 4.45117 0
M  V30 4297 C 417.146 1.6964 5.47731 0
M  V30 4298 N 416.642 2.18816 6.57337 0
M  V30 4299 N 418.435 1.6092 5.38573 0
M  V30 4300 H 410.586 1.4958 1.50797 0
M  V30 4301 H 412.849 0.621772 0.715614 0
M  V30 4302 H 412.555 1.82732 3.00503 0
M  V30 4303 H 412.429 0.25007 3.7637 0
M  V30 4304 H 414.816 -0.296532 2.93606 0
M  V30 4305 H 414.897 1.30933 2.1975 0
M  V30 4306 H 414.541 2.36043 4.49718 0
M  V30 4307 H 414.471 0.731418 5.21496 0
M  V30 4308 H 416.962 0.92155 3.66491 0
M  V30 4309 H 417.275 2.48478 7.31764 0
M  V30 4310 H 415.62 2.22805 6.58318 0
M  V30 4311 H 418.811 1.22304 4.5184 0
M  V30 4312 H 418.984 1.93567 6.18414 0
M  V30 4313 N 412.39 -1.55475 0.257931 0
M  V30 4314 C 413.353 -2.20551 -0.623706 0
M  V30 4315 C 414.353 -1.17809 -1.09443 0
M  V30 4316 O 415.543 -1.42823 -0.997362 0
M  V30 4317 C 412.675 -2.85784 -1.8585 0
M  V30 4318 H 413.868 -2.99848 -0.0557743 0
M  V30 4319 H 411.421 -1.56298 0.0084422 0
M  V30 4320 H 412.156 -2.10453 -2.46739 0
M  V30 4321 H 411.941 -3.61057 -1.52907 0
M  V30 4322 H 413.431 -3.35553 -2.48584 0
M  V30 4323 N 413.868 0.0150385 -1.57593 0
M  V30 4324 C 415.114 0.704043 -1.90187 0
M  V30 4325 C 415.447 1.74249 -0.857366 0
M  V30 4326 O 414.722 1.94092 0.125843 0
M  V30 4327 C 415.005 1.36087 -3.33395 0
M  V30 4328 C 414.858 0.334981 -4.48551 0
M  V30 4329 C 416.177 2.29112 -3.7576 0
M  V30 4330 H 413.296 0.254475 -0.691673 0
M  V30 4331 H 415.938 -0.0331678 -1.89971 0
M  V30 4332 H 414.088 1.98922 -3.3371 0
M  V30 4333 H 415.76 -0.292534 -4.60372 0
M  V30 4334 H 414.003 -0.344325 -4.32431 0
M  V30 4335 H 414.674 0.833316 -5.45674 0
M  V30 4336 H 417.15 1.76308 -3.76902 0
M  V30 4337 H 416.026 2.72043 -4.76743 0
M  V30 4338 H 416.287 3.16385 -3.08793 0
M  V30 4339 N 415.346 1.54954 0.287554 0
M  V30 4340 C 416.595 1.74081 1.01877 0
M  V30 4341 C 416.908 0.541135 1.87966 0
M  V30 4342 O 418.114 0.614491 2.64455 0
M  V30 4343 C 416.57 3.08042 1.86113 0
M  V30 4344 C 416.178 4.35531 1.04961 0
M  V30 4345 C 417.922 3.36523 2.58752 0
M  V30 4346 C 415.829 5.60538 1.88551 0
M  V30 4347 H 414.759 0.64884 0.384087 0
M  V30 4348 H 417.41 1.81426 0.275101 0
M  V30 4349 H 415.792 2.94696 2.64519 0
M  V30 4350 H 416.966 4.59751 0.31074 0
M  V30 4351 H 415.281 4.14085 0.43843 0
M  V30 4352 H 417.878 4.27122 3.21668 0
M  V30 4353 H 418.221 2.56 3.28283 0
M  V30 4354 H 418.754 3.50901 1.87386 0
M  V30 4355 H 415.493 6.43767 1.23466 0
M  V30 4356 H 415.013 5.40483 2.60074 0
M  V30 4357 H 416.692 5.98297 2.46273 0
M  V30 4358 N 416.824 -0.551391 1.4764 0
M  V30 4359 C 418.073 -1.30467 1.53822 0
M  V30 4360 C 418.386 -1.94495 0.207661 0
M  V30 4361 O 419.592 -2.71099 0.147533 0
M  V30 4362 C 418.048 -2.36616 2.71184 0
M  V30 4363 C 417.656 -1.78754 4.10793 0
M  V30 4364 C 419.4 -3.13088 2.86663 0
M  V30 4365 C 417.307 -2.82717 5.19447 0
M  V30 4366 H 416.237 -0.490584 0.572576 0
M  V30 4367 H 418.888 -0.58494 1.73927 0
M  V30 4368 H 417.27 -3.11529 2.4447 0
M  V30 4369 H 418.444 -1.10173 4.47435 0
M  V30 4370 H 416.759 -1.14846 4.00249 0
M  V30 4371 H 419.356 -3.90736 3.65007 0
M  V30 4372 H 419.699 -3.67635 1.95321 0
M  V30 4373 H 420.232 -2.45288 3.13175 0
M  V30 4374 H 416.971 -2.33018 6.12685 0
M  V30 4375 H 416.491 -3.4969 4.87316 0
M  V30 4376 H 418.17 -3.46102 5.46646 0
M  V30 4377 N 418.302 -1.35869 -0.798587 0
M  V30 4378 C 419.549 -1.29588 -1.55606 0
M  V30 4379 C 419.877 0.127456 -1.94082 0
M  V30 4380 O 419.132 1.09461 -1.62225 0
M  V30 4381 C 419.431 -2.1556 -2.85077 0
M  V30 4382 C 419.097 -3.6424 -2.65781 0
M  V30 4383 C 417.759 -4.04766 -2.60227 0
M  V30 4384 C 420.111 -4.58547 -2.47758 0
M  V30 4385 C 417.439 -5.37753 -2.34603 0
M  V30 4386 C 419.791 -5.91742 -2.23662 0
M  V30 4387 C 418.455 -6.31402 -2.16534 0
M  V30 4388 H 417.725 -0.474197 -0.569402 0
M  V30 4389 H 420.372 -1.67839 -0.922086 0
M  V30 4390 H 418.677 -1.70216 -3.52893 0
M  V30 4391 H 420.374 -2.08031 -3.42818 0
M  V30 4392 H 416.964 -3.32086 -2.70956 0
M  V30 4393 H 421.148 -4.28117 -2.51056 0
M  V30 4394 H 416.404 -5.67474 -2.2756 0
M  V30 4395 H 420.578 -6.6439 -2.08708 0
M  V30 4396 H 418.205 -7.34381 -1.96441 0
M  V30 4397 N 419.78 1.02168 -1.19998 0
M  V30 4398 C 420.743 2.08765 -0.94604 0
M  V30 4399 C 421.743 1.60618 0.0763846 0
M  V30 4400 O 422.933 1.73472 -0.159135 0
M  V30 4401 C 420.065 3.38262 -0.423255 0
M  V30 4402 H 421.258 2.32726 -1.89153 0
M  V30 4403 H 418.811 1.1889 -1.01464 0
M  V30 4404 H 419.546 3.19974 0.527938 0
M  V30 4405 H 419.331 3.74532 -1.16053 0
M  V30 4406 H 420.821 4.16759 -0.264911 0
M  V30 4407 N 421.258 1.00505 1.21394 0
M  V30 4408 C 422.206 0.558623 2.25792 0
M  V30 4409 C 423.2 -0.396848 1.64686 0
M  V30 4410 O 424.406 -0.268035 1.77993 0
M  V30 4411 H 420.781 0.1623 0.734277 0
M  V30 4412 H 422.752 1.4503 2.60785 0
M  V30 4413 C 421.501 -0.0989574 3.47559 0
M  V30 4414 H 420.824 0.627225 3.94849 0
M  V30 4415 H 422.264 -0.3746 4.22342 0
M  V30 4416 C 420.723 -1.33817 3.09184 0
M  V30 4417 O 421.253 -2.43252 3.19674 0
M  V30 4418 N 419.459 -1.21793 2.63846 0
M  V30 4419 H 419.006 -0.32746 2.5551 0
M  V30 4420 H 418.964 -2.04809 2.38539 0
M  V30 4421 N 422.737 -1.36956 0.779787 0
M  V30 4422 C 423.647 -2.33965 0.172491 0
M  V30 4423 C 424.663 -1.60574 -0.670222 0
M  V30 4424 O 425.839 -1.92617 -0.588263 0
M  V30 4425 C 422.904 -3.39761 -0.690173 0
M  V30 4426 C 421.965 -4.28964 0.169924 0
M  V30 4427 C 421.198 -5.29707 -0.651662 0
M  V30 4428 O 421.421 -5.38238 -1.88827 0
M  V30 4429 O 420.355 -6.01873 -0.0566264 0
M  V30 4430 H 424.181 -2.87647 0.974321 0
M  V30 4431 H 421.766 -1.39258 0.541078 0
M  V30 4432 H 423.648 -4.04471 -1.1824 0
M  V30 4433 H 422.323 -2.88394 -1.47006 0
M  V30 4434 H 421.23 -3.67326 0.708696 0
M  V30 4435 H 422.563 -4.83656 0.913085 0
M  V30 4436 N 424.215 -0.530993 -1.48385 0
M  V30 4437 C 425.492 0.0671788 -1.95485 0
M  V30 4438 C 425.872 1.51191 -1.47324 0
M  V30 4439 O 425.22 2.17507 -0.700202 0
M  V30 4440 C 425.43 -0.0511206 -3.48963 0
M  V30 4441 C 426.778 0.107632 -4.24464 0
M  V30 4442 O 427.802 0.0226248 -3.56193 0
M  V30 4443 O 426.661 0.285972 -5.45751 0
M  V30 4444 H 423.755 0.0787365 -0.823243 0
M  V30 4445 H 426.301 -0.595662 -1.58902 0
M  V30 4446 H 425.073 -1.05747 -3.7674 0
M  V30 4447 H 424.696 0.650525 -3.92242 0
M  V30 4448 N 425.693 1.55336 -0.266172 0
M  V30 4449 C 426.97 1.91372 0.404486 0
M  V30 4450 C 427.35 1.18935 1.74407 0
M  V30 4451 O 426.698 0.3132 2.26343 0
M  V30 4452 C 426.908 3.44581 0.553593 0
M  V30 4453 C 428.256 4.16196 0.840618 0
M  V30 4454 O 429.28 3.50426 0.638739 0
M  V30 4455 O 428.139 5.32567 1.22618 0
M  V30 4456 H 425.233 0.797194 0.220025 0
M  V30 4457 H 427.779 1.66813 -0.311664 0
M  V30 4458 H 426.551 3.89357 -0.389498 0
M  V30 4459 H 426.174 3.75065 1.31955 0
M  V30 4460 N 427.171 -0.0066808 1.57599 0
M  V30 4461 C 428.42 -0.692078 1.89455 0
M  V30 4462 C 428.733 -1.75306 0.867586 0
M  V30 4463 O 429.939 -2.49262 1.07614 0
M  V30 4464 C 428.395 -1.2821 3.36289 0
M  V30 4465 C 428.003 -0.256291 4.47266 0
M  V30 4466 C 429.747 -1.94608 3.77264 0
M  V30 4467 C 427.654 -0.855927 5.85173 0
M  V30 4468 H 426.584 -0.262252 0.706923 0
M  V30 4469 H 429.235 0.052769 1.83424 0
M  V30 4470 H 427.617 -2.0774 3.37135 0
M  V30 4471 H 428.791 0.513923 4.57925 0
M  V30 4472 H 427.106 0.306862 4.15268 0
M  V30 4473 H 429.703 -2.40364 4.77629 0
M  V30 4474 H 430.046 -2.77382 3.10427 0
M  V30 4475 H 430.579 -1.21822 3.78688 0
M  V30 4476 H 427.318 -0.0671161 6.55466 0
M  V30 4477 H 426.838 -1.59546 5.78191 0
M  V30 4478 H 428.517 -1.35658 6.32618 0
M  V30 4479 N 428.649 -1.55105 -0.279332 0
M  V30 4480 C 430.065 -1.46803 -0.626187 0
M  V30 4481 C 430.265 -0.676939 -1.89789 0
M  V30 4482 O 429.321 -0.19326 -2.51759 0
M  V30 4483 C 430.634 -2.90962 -0.759034 0
M  V30 4484 C 432.182 -3.01138 -0.853504 0
M  V30 4485 C 432.657 -4.46539 -1.01818 0
M  V30 4486 N 434.148 -4.50341 -1.08386 0
M  V30 4487 C 434.883 -5.60053 -1.22996 0
M  V30 4488 N 434.379 -6.79645 -1.34366 0
M  V30 4489 N 436.172 -5.47783 -1.26056 0
M  V30 4490 H 428.323 -2.04996 0.555921 0
M  V30 4491 H 430.586 -0.929325 0.187239 0
M  V30 4492 H 430.292 -3.51544 0.104852 0
M  V30 4493 H 430.166 -3.39619 -1.64131 0
M  V30 4494 H 432.553 -2.40658 -1.70786 0
M  V30 4495 H 432.634 -2.55745 0.0532466 0
M  V30 4496 H 432.278 -5.0762 -0.168504 0
M  V30 4497 H 432.208 -4.89583 -1.93948 0
M  V30 4498 H 434.699 -3.64191 -1.00864 0
M  V30 4499 H 435.012 -7.59012 -1.4533 0
M  V30 4500 H 433.357 -6.82469 -1.31382 0
M  V30 4501 H 436.548 -4.53294 -1.168 0
M  V30 4502 H 436.721 -6.33331 -1.37098 0
M  V30 4503 N 430.127 0.543554 -1.4793 0
M  V30 4504 C 431.543 0.870806 -1.3375 0
M  V30 4505 C 431.743 1.9864 -0.338261 0
M  V30 4506 O 430.799 2.51305 0.245371 0
M  V30 4507 C 432.112 1.25114 -2.73435 0
M  V30 4508 C 433.66 1.3618 -2.81823 0
M  V30 4509 C 434.135 1.77563 -4.22179 0
M  V30 4510 N 435.626 1.8469 -4.24787 0
M  V30 4511 C 436.361 2.18067 -5.30315 0
M  V30 4512 N 435.857 2.49963 -6.46135 0
M  V30 4513 N 437.65 2.18958 -5.17701 0
M  V30 4514 H 429.801 -0.19275 -2.11524 0
M  V30 4515 H 432.064 -0.0235777 -0.947707 0
M  V30 4516 H 431.77 0.50514 -3.48053 0
M  V30 4517 H 431.644 2.20431 -3.06088 0
M  V30 4518 H 434.031 2.09859 -2.07468 0
M  V30 4519 H 434.112 0.390169 -2.52807 0
M  V30 4520 H 433.756 1.04449 -4.97044 0
M  V30 4521 H 433.686 2.75753 -4.48629 0
M  V30 4522 H 436.177 1.62372 -3.41239 0
M  V30 4523 H 436.49 2.74497 -7.22406 0
M  V30 4524 H 434.835 2.47513 -6.49432 0
M  V30 4525 H 438.026 1.93488 -4.2624 0
M  V30 4526 H 438.199 2.44639 -6.00047 0
M  V30 4527 N 431.605 1.3629 0.791371 0
M  V30 4528 C 432.851 1.30605 1.55146 0
M  V30 4529 C 433.184 -0.115042 1.93859 0
M  V30 4530 O 432.459 -1.06798 1.62556 0
M  V30 4531 C 432.742 2.22692 2.82985 0
M  V30 4532 C 432.595 3.73489 2.50651 0
M  V30 4533 C 433.914 2.13588 3.84796 0
M  V30 4534 H 431.033 0.475761 0.562868 0
M  V30 4535 H 433.675 1.66825 0.909358 0
M  V30 4536 H 431.825 1.91933 3.37778 0
M  V30 4537 H 433.497 4.14758 2.01924 0
M  V30 4538 H 431.74 3.93021 1.83622 0
M  V30 4539 H 432.411 4.3333 3.41949 0
M  V30 4540 H 434.887 2.40659 3.39445 0
M  V30 4541 H 433.763 2.80195 4.71998 0
M  V30 4542 H 434.024 1.12256 4.27611 0
M  V30 4543 N 433.083 -1.0153 1.20538 0
M  V30 4544 C 434.013 -2.11972 0.979295 0
M  V30 4545 C 434.994 -1.6985 -0.0921787 0
M  V30 4546 O 436.179 -1.94089 0.0655932 0
M  V30 4547 C 433.309 -3.43201 0.531984 0
M  V30 4548 C 432.263 -3.9907 1.54685 0
M  V30 4549 C 431.589 -5.26082 0.956127 0
M  V30 4550 C 432.889 -4.32313 2.93092 0
M  V30 4551 H 434.583 -2.31143 1.90298 0
M  V30 4552 H 432.129 -1.11079 0.916372 0
M  V30 4553 H 434.082 -4.1985 0.361044 0
M  V30 4554 H 432.806 -3.23792 -0.427327 0
M  V30 4555 H 431.465 -3.2453 1.70517 0
M  V30 4556 H 431.113 -5.02999 -0.0111538 0
M  V30 4557 H 430.813 -5.64426 1.63393 0
M  V30 4558 H 432.337 -6.05386 0.796284 0
M  V30 4559 H 433.751 -4.99845 2.80763 0
M  V30 4560 H 432.148 -4.81774 3.57791 0
M  V30 4561 H 433.218 -3.41025 3.44717 0
M  V30 4562 N 434.561 -1.01147 -1.20859 0
M  V30 4563 C 435.471 -0.58686 -2.27141 0
M  V30 4564 C 436.487 0.373198 -1.69951 0
M  V30 4565 O 437.663 0.235423 -2.00019 0
M  V30 4566 C 434.728 0.0733602 -3.46622 0
M  V30 4567 C 433.789 -0.931995 -4.19061 0
M  V30 4568 C 433.022 -0.303186 -5.32838 0
M  V30 4569 O 433.245 0.898395 -5.63281 0
M  V30 4570 O 432.179 -1.01735 -5.9324 0
M  V30 4571 H 436.005 -1.47155 -2.65667 0
M  V30 4572 H 433.59 -0.780689 -1.2738 0
M  V30 4573 H 435.472 0.442333 -4.19072 0
M  V30 4574 H 434.147 0.932329 -3.09983 0
M  V30 4575 H 433.054 -1.35224 -3.48805 0
M  V30 4576 H 434.387 -1.76076 -4.59628 0
M  V30 4577 N 436.039 1.36541 -0.78704 0
M  V30 4578 C 437.002 2.28413 -0.189778 0
M  V30 4579 C 438.002 1.48719 0.611499 0
M  V30 4580 O 439.192 1.68737 0.432842 0
M  V30 4581 C 436.324 3.32824 0.737638 0
M  V30 4582 H 437.517 2.82743 -0.999831 0
M  V30 4583 H 435.07 1.46065 -0.556298 0
M  V30 4584 H 435.805 2.83646 1.57212 0
M  V30 4585 H 435.59 3.91752 0.165044 0
M  V30 4586 H 437.08 4.0144 1.15047 0
M  V30 4587 N 437.518 0.538854 1.48102 0
M  V30 4588 C 438.481 -0.208395 2.28251 0
M  V30 4589 C 439.481 -0.859656 1.35892 0
M  V30 4590 O 440.671 -0.71834 1.58699 0
M  V30 4591 C 437.803 -1.30252 3.15035 0
M  V30 4592 H 438.996 0.495407 2.9578 0
M  V30 4593 H 436.549 0.295112 1.53489 0
M  V30 4594 H 437.284 -2.0393 2.52157 0
M  V30 4595 H 437.069 -0.840551 3.82985 0
M  V30 4596 H 438.559 -1.82787 3.75471 0
M  V30 4597 N 438.996 -1.55193 0.274407 0
M  V30 4598 C 440.412 -1.59401 -0.0797543 0
M  V30 4599 C 440.612 -1.29162 -1.54659 0
M  V30 4600 O 439.668 -1.05215 -2.29534 0
M  V30 4601 C 440.981 -2.99257 0.294238 0
M  V30 4602 C 442.529 -3.12072 0.240796 0
M  V30 4603 C 443.004 -4.54194 0.589218 0
M  V30 4604 N 444.495 -4.60033 0.540744 0
M  V30 4605 C 445.23 -5.68027 0.783147 0
M  V30 4606 N 444.726 -6.8417 1.09013 0
M  V30 4607 N 446.519 -5.57572 0.711993 0
M  V30 4608 H 438.67 -1.73113 1.23067 0
M  V30 4609 H 440.933 -0.807197 0.497129 0
M  V30 4610 H 440.639 -3.26217 1.31435 0
M  V30 4611 H 440.513 -3.75427 -0.365281 0
M  V30 4612 H 442.9 -2.84877 -0.770024 0
M  V30 4613 H 442.981 -2.38117 0.934563 0
M  V30 4614 H 442.625 -4.82115 1.59772 0
M  V30 4615 H 442.555 -5.26448 -0.126331 0
M  V30 4616 H 445.046 -3.76599 0.313327 0
M  V30 4617 H 445.359 -7.6243 1.26178 0
M  V30 4618 H 443.704 -6.85787 1.12789 0
M  V30 4619 H 446.895 -4.65714 0.472014 0
M  V30 4620 H 447.068 -6.41659 0.90429 0
M  V30 4621 N 440.474 -0.00167713 -1.576 0
M  V30 4622 C 441.89 0.354422 -1.55615 0
M  V30 4623 C 442.09 1.74679 -1.00447 0
M  V30 4624 O 441.146 2.4428 -0.639022 0
M  V30 4625 C 442.459 0.22812 -2.99833 0
M  V30 4626 C 444.007 0.302934 -3.11531 0
M  V30 4627 C 444.482 0.205737 -4.57538 0
M  V30 4628 N 445.973 0.263584 -4.62449 0
M  V30 4629 C 446.708 0.211742 -5.73009 0
M  V30 4630 N 446.204 0.110399 -6.92712 0
M  V30 4631 N 447.997 0.263729 -5.61481 0
M  V30 4632 H 440.148 -0.912498 -1.918 0
M  V30 4633 H 442.411 -0.349928 -0.881053 0
M  V30 4634 H 442.117 -0.729934 -3.44042 0
M  V30 4635 H 441.991 1.00951 -3.6344 0
M  V30 4636 H 444.378 1.25143 -2.67251 0
M  V30 4637 H 444.459 -0.508357 -2.50698 0
M  V30 4638 H 444.103 -0.739225 -5.02492 0
M  V30 4639 H 444.033 1.03554 -5.16318 0
M  V30 4640 H 446.524 0.343173 -3.76339 0
M  V30 4641 H 446.837 0.0767828 -7.72762 0
M  V30 4642 H 445.182 0.0760025 -6.94958 0
M  V30 4643 H 448.373 0.34111 -4.66855 0
M  V30 4644 H 448.546 0.219862 -6.47627 0
M  V30 4645 N 441.952 1.55251 0.271103 0
M  V30 4646 C 442.915 1.87484 1.31842 0
M  V30 4647 C 443.915 0.749545 1.42262 0
M  V30 4648 O 445.105 1.01771 1.4138 0
M  V30 4649 C 442.237 2.0818 2.69951 0
M  V30 4650 H 443.43 2.81108 1.0449 0
M  V30 4651 H 440.983 1.47771 0.509258 0
M  V30 4652 H 441.718 1.16944 3.02481 0
M  V30 4653 H 441.503 2.90114 2.63774 0
M  V30 4654 H 442.993 2.34385 3.4562 0
M  V30 4655 N 443.43 -0.535701 1.48216 0
M  V30 4656 C 444.378 -1.66179 1.62749 0
M  V30 4657 C 445.372 -1.62034 0.49409 0
M  V30 4658 O 446.578 -1.6696 0.672624 0
M  V30 4659 H 442.953 -0.550244 0.512578 0
M  V30 4660 H 444.924 -1.51063 2.57337 0
M  V30 4661 C 443.673 -3.04471 1.67907 0
M  V30 4662 H 442.996 -3.08351 2.54479 0
M  V30 4663 H 444.436 -3.82894 1.82121 0
M  V30 4664 C 442.895 -3.34314 0.416596 0
M  V30 4665 O 443.425 -3.98905 -0.473014 0
M  V30 4666 N 441.631 -2.89149 0.290038 0
M  V30 4667 H 441.178 -2.36764 1.01493 0
M  V30 4668 H 441.136 -3.09486 -0.55367 0
M  V30 4669 N 444.908 -1.36708 -0.784132 0
M  V30 4670 C 445.84 -1.27333 -1.90575 0
M  V30 4671 C 446.853 -0.191706 -1.61667 0
M  V30 4672 O 448.042 -0.446854 -1.72816 0
M  V30 4673 C 445.142 -0.943177 -3.25511 0
M  V30 4674 C 444.315 -2.12776 -3.82158 0
M  V30 4675 C 443.374 -1.76983 -4.95544 0
M  V30 4676 O 442.4 -2.49134 -5.11782 0
M  V30 4677 N 443.602 -0.706624 -5.76183 0
M  V30 4678 H 446.367 -2.23974 -1.99138 0
M  V30 4679 H 443.928 -1.30171 -0.962656 0
M  V30 4680 H 445.92 -0.684799 -3.98864 0
M  V30 4681 H 444.49 -0.0657333 -3.12531 0
M  V30 4682 H 443.71 -2.54863 -3.0073 0
M  V30 4683 H 444.998 -2.91904 -4.16737 0
M  V30 4684 H 444.396 -0.107643 -5.65598 0
M  V30 4685 H 442.953 -0.50808 -6.49817 0
M  V30 4686 N 446.386 1.0089 -1.21074 0
M  V30 4687 C 447.614 1.78191 -1.05145 0
M  V30 4688 C 448.029 1.84537 0.398952 0
M  V30 4689 O 447.386 1.30393 1.27687 0
M  V30 4690 C 447.437 3.22288 -1.63746 0
M  V30 4691 O 447.158 3.16315 -3.03111 0
M  V30 4692 C 448.659 4.16106 -1.52875 0
M  V30 4693 H 445.879 0.560129 -0.369454 0
M  V30 4694 H 448.423 1.26945 -1.60328 0
M  V30 4695 H 446.578 3.70655 -1.12664 0
M  V30 4696 H 446.992 4.06817 -3.31059 0
M  V30 4697 H 448.466 5.15026 -1.98626 0
M  V30 4698 H 448.943 4.36541 -0.482521 0
M  V30 4699 H 449.549 3.73625 -2.03185 0
M  V30 4700 N 447.864 1.01787 1.20321 0
M  V30 4701 C 449.112 0.706538 1.89347 0
M  V30 4702 C 449.433 -0.766289 1.79313 0
M  V30 4703 O 448.703 -1.55126 1.19635 0
M  V30 4704 H 447.283 0.258348 0.700903 0
M  V30 4705 H 449.945 1.28974 1.46122 0
M  V30 4706 H 449.041 0.991066 2.95946 0
M  V30 4707 N 449.342 -1.36122 0.79427 0
M  V30 4708 C 450.292 -2.27373 0.169017 0
M  V30 4709 C 451.276 -1.4719 -0.649913 0
M  V30 4710 O 452.468 -1.69518 -0.50919 0
M  V30 4711 C 449.597 -3.36264 -0.691455 0
M  V30 4712 C 448.683 -4.2388 0.13653 0
M  V30 4713 N 449.074 -4.91519 1.19345 0
M  V30 4714 C 447.372 -4.45921 -0.0838499 0
M  V30 4715 C 448.073 -5.56369 1.6979 0
M  V30 4716 N 447.049 -5.34204 1.00634 0
M  V30 4717 H 450.851 -2.77154 0.977897 0
M  V30 4718 H 448.365 -1.49504 0.634208 0
M  V30 4719 H 450.362 -4.00572 -1.15534 0
M  V30 4720 H 449.022 -2.88037 -1.49883 0
M  V30 4721 H 450.033 -4.9334 1.57594 0
M  V30 4722 H 446.71 -4.08518 -0.861341 0
M  V30 4723 H 448.1 -6.20368 2.58055 0
M  V30 4724 N 450.82 -0.546701 -1.47814 0
M  V30 4725 C 452.067 -0.0187407 -2.02491 0
M  V30 4726 C 452.395 1.32685 -1.42215 0
M  V30 4727 O 451.65 1.87413 -0.563454 0
M  V30 4728 C 451.949 0.134869 -3.57145 0
M  V30 4729 C 451.615 -1.13849 -4.3629 0
M  V30 4730 C 450.277 -1.48743 -4.57634 0
M  V30 4731 C 452.629 -1.98277 -4.82012 0
M  V30 4732 C 449.957 -2.67932 -5.21948 0
M  V30 4733 C 452.309 -3.16659 -5.4764 0
M  V30 4734 C 450.973 -3.51879 -5.67219 0
M  V30 4735 H 450.243 -0.0068577 -0.740968 0
M  V30 4736 H 452.89 -0.716097 -1.77607 0
M  V30 4737 H 451.195 0.915118 -3.80963 0
M  V30 4738 H 452.892 0.558556 -3.97091 0
M  V30 4739 H 449.482 -0.856767 -4.19949 0
M  V30 4740 H 453.666 -1.72628 -4.6531 0
M  V30 4741 H 448.922 -2.95401 -5.35302 0
M  V30 4742 H 453.096 -3.82374 -5.82033 0
M  V30 4743 H 450.723 -4.44331 -6.16825 0
M  V30 4744 N 452.299 1.55045 -0.282633 0
M  V30 4745 C 453.546 1.9976 0.33199 0
M  V30 4746 C 453.874 1.17105 1.55295 0
M  V30 4747 O 453.129 0.230599 1.94337 0
M  V30 4748 C 453.428 3.49422 0.750938 0
M  V30 4749 C 453.094 4.4941 -0.366228 0
M  V30 4750 C 451.756 4.76471 -0.672964 0
M  V30 4751 C 454.108 5.09054 -1.11864 0
M  V30 4752 C 451.436 5.60442 -1.73556 0
M  V30 4753 C 453.788 5.9418 -2.17102 0
M  V30 4754 C 452.452 6.19558 -2.48402 0
M  V30 4755 H 451.722 0.730974 0.121484 0
M  V30 4756 H 454.369 1.8732 -0.39791 0
M  V30 4757 H 452.674 3.59377 1.56063 0
M  V30 4758 H 454.371 3.81432 1.23736 0
M  V30 4759 H 450.961 4.2844 -0.117041 0
M  V30 4760 H 455.145 4.88165 -0.894925 0
M  V30 4761 H 450.401 5.78349 -1.983 0
M  V30 4762 H 454.575 6.39427 -2.75873 0
M  V30 4763 H 452.202 6.84417 -3.30874 0
M  V30 4764 N 453.777 0.010035 1.57597 0
M  V30 4765 C 455.023 -0.668011 1.92118 0
M  V30 4766 C 455.378 -1.70821 0.885328 0
M  V30 4767 O 454.671 -1.91333 -0.101187 0
M  V30 4768 C 454.865 -1.34434 3.31153 0
M  V30 4769 C 454.694 -0.371176 4.48166 0
M  V30 4770 C 453.464 0.0220686 5.05295 0
M  V30 4771 C 455.662 0.366731 5.12991 0
M  V30 4772 N 453.644 0.9924 6.05826 0
M  V30 4773 C 455.015 1.19142 6.08445 0
M  V30 4774 C 457.07 0.429489 4.96044 0
M  V30 4775 C 455.773 2.07317 6.88776 0
M  V30 4776 C 457.799 1.2985 5.76969 0
M  V30 4777 C 457.161 2.11101 6.72023 0
M  V30 4778 H 453.26 -0.217337 0.751192 0
M  V30 4779 H 455.844 0.0727375 1.94564 0
M  V30 4780 H 454.015 -2.05533 3.29561 0
M  V30 4781 H 455.747 -1.97789 3.53075 0
M  V30 4782 H 452.502 -0.348409 4.72317 0
M  V30 4783 H 452.926 1.47324 6.60776 0
M  V30 4784 H 457.568 -0.18442 4.22398 0
M  V30 4785 H 455.286 2.69771 7.61741 0
M  V30 4786 H 458.872 1.3511 5.65894 0
M  V30 4787 H 457.752 2.77257 7.33552 0
M  V30 4788 N 455.255 -1.55392 -0.262866 0
M  V30 4789 C 456.188 -1.8391 -1.35101 0
M  V30 4790 C 457.166 -0.692901 -1.47097 0
M  V30 4791 O 458.35 -0.936979 -1.63563 0
M  V30 4792 C 455.477 -2.00969 -2.72634 0
M  V30 4793 C 454.523 -3.23559 -2.7787 0
M  V30 4794 S 455.356 -4.80647 -2.3609 0
M  V30 4795 C 456.512 -5.00692 -3.75578 0
M  V30 4796 H 456.745 -2.75918 -1.1071 0
M  V30 4797 H 454.278 -1.47294 -0.463029 0
M  V30 4798 H 456.236 -2.11482 -3.51832 0
M  V30 4799 H 454.897 -1.09832 -2.94272 0
M  V30 4800 H 454.09 -3.32413 -3.78837 0
M  V30 4801 H 453.692 -3.11689 -2.06702 0
M  V30 4802 H 455.984 -4.87055 -4.70939 0
M  V30 4803 H 456.927 -6.02717 -3.71669 0
M  V30 4804 H 457.335 -4.28619 -3.6735 0
M  V30 4805 N 456.733 0.527833 -1.48498 0
M  V30 4806 C 457.981 1.28101 -1.56316 0
M  V30 4807 C 458.302 1.9352 -0.239781 0
M  V30 4808 O 457.572 1.81433 0.738849 0
M  V30 4809 H 456.152 0.475793 -0.575873 0
M  V30 4810 H 458.814 0.614052 -1.84974 0
M  V30 4811 H 457.91 2.05916 -2.34532 0
M  V30 4812 N 458.211 1.37122 0.776871 0
M  V30 4813 C 459.436 1.354 1.57104 0
M  V30 4814 C 459.861 -0.0595562 1.88006 0
M  V30 4815 O 459.219 -1.03514 1.48844 0
M  V30 4816 C 459.267 2.19472 2.8612 0
M  V30 4817 O 458.371 1.59582 3.80273 0
M  V30 4818 H 457.712 0.462869 0.476076 0
M  V30 4819 H 460.242 1.80577 0.961932 0
M  V30 4820 H 460.252 2.32502 3.35271 0
M  V30 4821 H 458.927 3.22222 2.62956 0
M  V30 4822 H 457.504 1.55564 3.38902 0
M  V30 4823 N 459.689 -1.00246 1.21608 0
M  V30 4824 C 460.966 -1.71336 0.943568 0
M  V30 4825 C 461.346 -2.03972 -0.543943 0
M  V30 4826 O 460.694 -1.71545 -1.50946 0
M  V30 4827 C 460.904 -2.97094 1.83128 0
M  V30 4828 C 462.252 -3.70071 2.08165 0
M  V30 4829 O 463.276 -3.07081 1.80498 0
M  V30 4830 O 462.135 -4.83376 2.54971 0
M  V30 4831 H 459.229 -0.747386 0.354039 0
M  V30 4832 H 461.775 -1.05967 1.32549 0
M  V30 4833 H 460.547 -2.69407 2.83788 0
M  V30 4834 H 460.17 -3.70204 1.45034 0
M  V30 4835 N 461.167 -1.02423 -1.1978 0
M  V30 4836 C 462.392 -0.7373 -1.93852 0
M  V30 4837 C 462.817 0.696923 -1.74713 0
M  V30 4838 O 462.175 1.48056 -1.04638 0
M  V30 4839 C 462.223 -1.08783 -3.438 0
M  V30 4840 O 461.327 -0.20383 -4.11896 0
M  V30 4841 H 460.668 -0.27284 -0.605355 0
M  V30 4842 H 463.198 -1.36966 -1.51992 0
M  V30 4843 H 463.208 -1.04276 -3.9445 0
M  V30 4844 H 461.883 -2.13274 -3.57053 0
M  V30 4845 H 460.46 -0.307091 -3.71633 0
M  V30 4846 N 462.645 1.35699 -0.801477 0
M  V30 4847 C 463.891 1.99643 -0.389135 0
M  V30 4848 C 464.246 1.62447 1.03095 0
M  V30 4849 O 463.539 0.875064 1.7045 0
M  V30 4850 C 463.733 3.53828 -0.504041 0
M  V30 4851 C 463.562 4.06 -1.93375 0
M  V30 4852 C 462.332 4.35592 -2.561 0
M  V30 4853 C 464.53 4.24905 -2.89759 0
M  V30 4854 N 462.512 4.73663 -3.90534 0
M  V30 4855 C 463.883 4.65914 -4.09052 0
M  V30 4856 C 465.938 4.07101 -2.86658 0
M  V30 4857 C 464.641 4.90984 -5.25669 0
M  V30 4858 C 466.667 4.33324 -4.02472 0
M  V30 4859 C 466.029 4.74601 -5.20512 0
M  V30 4860 H 462.128 0.758552 -0.19006 0
M  V30 4861 H 464.712 1.64493 -1.04164 0
M  V30 4862 H 462.883 3.88219 0.118437 0
M  V30 4863 H 464.615 4.04645 -0.0667794 0
M  V30 4864 H 461.37 4.25728 -2.07492 0
M  V30 4865 H 461.794 4.96965 -4.59734 0
M  V30 4866 H 466.436 3.74335 -1.96552 0
M  V30 4867 H 464.154 5.22626 -6.1635 0
M  V30 4868 H 467.74 4.21107 -4.01447 0
M  V30 4869 H 466.62 4.94497 -6.08639 0
M  V30 4870 N 464.123 0.554532 1.47522 0
M  V30 4871 C 465.371 0.0294208 2.02079 0
M  V30 4872 C 465.692 -1.32411 1.43151 0
M  V30 4873 O 464.962 -1.863 0.605728 0
M  V30 4874 H 463.542 0.00788672 0.746958 0
M  V30 4875 H 466.204 0.723934 1.80956 0
M  V30 4876 H 465.3 -0.0606745 3.12041 0
M  V30 4877 N 465.601 -1.54893 0.290851 0
M  V30 4878 C 466.826 -2.04804 -0.32712 0
M  V30 4879 C 467.251 -1.16721 -1.47506 0
M  V30 4880 O 466.609 -0.169107 -1.8051 0
M  V30 4881 C 466.657 -3.52268 -0.770689 0
M  V30 4882 O 465.761 -3.67236 -1.87647 0
M  V30 4883 H 465.102 -0.660789 -0.0652227 0
M  V30 4884 H 467.632 -2.00036 0.429739 0
M  V30 4885 H 467.642 -3.9393 -1.06223 0
M  V30 4886 H 466.317 -4.15843 0.069096 0
M  V30 4887 H 464.894 -3.37479 -1.58626 0
M  V30 4888 N 467.08 -0.0183926 -1.57589 0
M  V30 4889 C 468.027 0.967022 -2.09565 0
M  V30 4890 C 468.997 1.32983 -0.995225 0
M  V30 4891 O 470.182 1.42501 -1.26878 0
M  V30 4892 C 467.322 2.24772 -2.61861 0
M  V30 4893 C 466.435 1.94232 -3.85873 0
M  V30 4894 C 465.57 3.16518 -4.26603 0
M  V30 4895 C 464.609 2.81748 -5.43401 0
M  V30 4896 N 463.746 3.96626 -5.79338 0
M  V30 4897 H 468.586 0.516874 -2.93483 0
M  V30 4898 H 466.123 0.243544 -1.4507 0
M  V30 4899 H 468.081 2.99667 -2.90268 0
M  V30 4900 H 466.711 2.67423 -1.8079 0
M  V30 4901 H 465.763 1.09625 -3.64262 0
M  V30 4902 H 467.075 1.64616 -4.70853 0
M  V30 4903 H 466.229 3.99743 -4.56389 0
M  V30 4904 H 464.968 3.49286 -3.40368 0
M  V30 4905 H 463.973 1.96933 -5.1332 0
M  V30 4906 H 465.198 2.50207 -6.31327 0
M  V30 4907 H 463.144 4.29257 -4.96059 0
M  V30 4908 H 463.061 3.70598 -6.58933 0
M  V30 4909 H 464.329 4.80586 -6.13724 0
M  V30 4910 N 468.558 1.5553 0.254621 0
M  V30 4911 C 469.807 1.76202 0.981612 0
M  V30 4912 C 470.12 0.580883 1.86776 0
M  V30 4913 O 471.326 0.670448 2.63092 0
M  V30 4914 C 469.782 3.11921 1.79537 0
M  V30 4915 C 469.39 4.37659 0.956991 0
M  V30 4916 C 471.134 3.41936 2.51555 0
M  V30 4917 C 469.041 5.64411 1.76619 0
M  V30 4918 H 467.971 0.656841 0.370237 0
M  V30 4919 H 470.622 1.81969 0.236556 0
M  V30 4920 H 469.004 3.00241 2.58208 0
M  V30 4921 H 470.178 4.60307 0.21315 0
M  V30 4922 H 468.493 4.14922 0.350497 0
M  V30 4923 H 471.09 4.33849 3.12536 0
M  V30 4924 H 471.433 2.62905 3.22779 0
M  V30 4925 H 471.966 3.54797 1.799 0
M  V30 4926 H 468.705 6.46241 1.09783 0
M  V30 4927 H 468.225 5.45877 2.48551 0
M  V30 4928 H 469.904 6.03386 2.33527 0
M  V30 4929 N 470.036 -0.519951 1.48776 0
M  V30 4930 C 470.999 -1.60574 1.6355 0
M  V30 4931 C 471.999 -1.52557 0.508234 0
M  V30 4932 O 473.189 -1.56047 0.774262 0
M  V30 4933 C 470.321 -3.00211 1.61512 0
M  V30 4934 H 471.514 -1.4881 2.60376 0
M  V30 4935 H 469.067 -0.742772 1.37523 0
M  V30 4936 H 469.802 -3.17471 0.662009 0
M  V30 4937 H 469.587 -3.07439 2.43359 0
M  V30 4938 H 471.077 -3.79134 1.75064 0
M  V30 4939 N 471.514 -1.37532 -0.769588 0
M  V30 4940 C 472.925 -1.29382 -1.346 0
M  V30 4941 C 473.276 0.0576039 -1.96115 0
M  V30 4942 O 472.401 0.95947 -1.93967 0
M  V30 4943 C 472.996 -2.34298 -2.44724 0
M  V30 4944 C 471.555 -2.29776 -2.98128 0
M  V30 4945 C 470.702 -2.18013 -1.71364 0
M  V30 4946 H 473.653 -1.48123 -0.56968 0
M  V30 4947 H 473.674 -1.99089 -3.24259 0
M  V30 4948 H 473.186 -3.32645 -1.99922 0
M  V30 4949 H 471.287 -1.34959 -3.47299 0
M  V30 4950 H 471.4 -3.23276 -3.53595 0
M  V30 4951 H 469.764 -1.64595 -1.94372 0
M  V30 4952 H 470.547 -3.18278 -1.28662 0
M  V30 4953 N 472.992 0.995999 -1.22138 0
M  V30 4954 C 474.238 1.73767 -1.04561 0
M  V30 4955 C 474.571 1.89633 0.418698 0
M  V30 4956 O 473.846 1.43723 1.3105 0
M  V30 4957 C 474.129 3.14505 -1.75382 0
M  V30 4958 C 473.982 3.06306 -3.29388 0
M  V30 4959 C 475.301 4.13615 -1.50369 0
M  V30 4960 H 472.42 0.630728 -0.38125 0
M  V30 4961 H 475.062 1.16057 -1.50435 0
M  V30 4962 H 473.212 3.63775 -1.36383 0
M  V30 4963 H 474.884 2.64681 -3.77812 0
M  V30 4964 H 473.127 2.43186 -3.59226 0
M  V30 4965 H 473.798 4.05884 -3.74116 0
M  V30 4966 H 476.274 3.73089 -1.84239 0
M  V30 4967 H 475.15 5.10212 -2.02421 0
M  V30 4968 H 475.411 4.39949 -0.435611 0
M  V30 4969 N 474.47 1.03057 1.19235 0
M  V30 4970 C 475.4 0.633497 2.24742 0
M  V30 4971 C 476.381 -0.358335 1.66283 0
M  V30 4972 O 477.566 -0.240676 1.92703 0
M  V30 4973 C 474.696 -0.0147648 3.47297 0
M  V30 4974 C 473.65 0.899527 4.18441 0
M  V30 4975 C 472.976 0.116281 5.34574 0
M  V30 4976 C 474.276 2.21404 4.73051 0
M  V30 4977 H 475.97 1.5155 2.58211 0
M  V30 4978 H 473.516 0.73014 1.24117 0
M  V30 4979 H 475.469 -0.304202 4.20301 0
M  V30 4980 H 474.193 -0.931577 3.13032 0
M  V30 4981 H 472.852 1.17319 3.47321 0
M  V30 4982 H 472.5 -0.802619 4.96555 0
M  V30 4983 H 472.2 0.725293 5.83107 0
M  V30 4984 H 473.724 -0.166376 6.10373 0
M  V30 4985 H 475.138 1.98601 5.37802 0
M  V30 4986 H 473.535 2.77512 5.32078 0
M  V30 4987 H 474.605 2.86752 3.91026 0
M  V30 4988 N 475.948 -1.35272 0.808662 0
M  V30 4989 C 476.898 -2.27181 0.193124 0
M  V30 4990 C 477.882 -1.47871 -0.634265 0
M  V30 4991 O 479.074 -1.70048 -0.491182 0
M  V30 4992 C 476.203 -3.36979 -0.655751 0
M  V30 4993 C 475.289 -4.23712 0.181481 0
M  V30 4994 N 475.68 -4.90225 1.24551 0
M  V30 4995 C 473.978 -4.45985 -0.0365493 0
M  V30 4996 C 474.679 -5.54537 1.75682 0
M  V30 4997 N 473.655 -5.33107 1.06294 0
M  V30 4998 H 477.457 -2.76101 1.00724 0
M  V30 4999 H 474.971 -1.48823 0.650029 0
M  V30 5000 H 476.968 -4.01774 -1.11279 0
M  V30 5001 H 475.628 -2.89611 -1.46819 0
M  V30 5002 H 476.639 -4.91641 1.62818 0
M  V30 5003 H 473.316 -4.09409 -0.817964 0
M  V30 5004 H 474.706 -6.17597 2.64621 0
M  V30 5005 N 477.426 -0.562348 -1.47226 0
M  V30 5006 C 478.356 0.170627 -2.32876 0
M  V30 5007 C 479.337 0.903748 -1.44106 0
M  V30 5008 O 480.522 0.883206 -1.72954 0
M  V30 5009 C 477.652 1.19786 -3.25989 0
M  V30 5010 C 476.606 0.580875 -4.2404 0
M  V30 5011 C 475.932 1.71311 -5.06514 0
M  V30 5012 C 477.232 -0.468714 -5.20193 0
M  V30 5013 H 478.926 -0.544441 -2.94408 0
M  V30 5014 H 476.472 -0.263271 -1.41573 0
M  V30 5015 H 478.425 1.71884 -3.84752 0
M  V30 5016 H 477.149 1.94294 -2.62521 0
M  V30 5017 H 475.808 0.0811538 -3.6651 0
M  V30 5018 H 475.456 2.44736 -4.39447 0
M  V30 5019 H 475.156 1.30604 -5.72902 0
M  V30 5020 H 476.68 2.23725 -5.68137 0
M  V30 5021 H 478.094 -0.0336028 -5.7329 0
M  V30 5022 H 476.491 -0.794957 -5.94811 0
M  V30 5023 H 477.561 -1.36269 -4.65359 0
M  V30 5024 N 478.904 1.54736 -0.299062 0
M  V30 5025 C 479.814 2.27127 0.587413 0
M  V30 5026 C 480.83 1.30575 1.15005 0
M  V30 5027 O 482.006 1.63554 1.17525 0
M  V30 5028 C 479.071 2.99645 1.74395 0
M  V30 5029 C 478.132 4.11731 1.21559 0
M  V30 5030 C 477.365 4.80781 2.317 0
M  V30 5031 O 477.588 4.4918 3.51558 0
M  V30 5032 O 476.522 5.68226 1.98501 0
M  V30 5033 H 480.348 3.037 0.000250109 0
M  V30 5034 H 477.933 1.49256 -0.0655919 0
M  V30 5035 H 479.815 3.45138 2.4178 0
M  V30 5036 H 478.49 2.25969 2.31775 0
M  V30 5037 H 477.397 3.70641 0.507514 0
M  V30 5038 H 478.73 4.87379 0.687233 0
M  V30 5039 N 480.382 0.0267497 1.57577 0
M  V30 5040 C 481.292 -0.971633 2.13533 0
M  V30 5041 C 482.308 -1.35868 1.08701 0
M  V30 5042 O 483.484 -1.44058 1.40746 0
M  V30 5043 C 480.549 -2.23622 2.64941 0
M  V30 5044 C 479.61 -1.90982 3.8448 0
M  V30 5045 C 478.843 -3.11411 4.33427 0
M  V30 5046 O 479.066 -4.23992 3.81558 0
M  V30 5047 O 478 -2.93848 5.25297 0
M  V30 5048 H 481.826 -0.525853 2.99113 0
M  V30 5049 H 479.411 -0.193712 1.48139 0
M  V30 5050 H 481.293 -2.97864 2.98086 0
M  V30 5051 H 479.968 -2.67386 1.82446 0
M  V30 5052 H 478.875 -1.14132 3.56265 0
M  V30 5053 H 480.208 -1.52036 4.6813 0
M  V30 5054 N 481.861 -1.55662 -0.24637 0
M  V30 5055 C 483.107 -1.77782 -0.975779 0
M  V30 5056 C 483.44 -0.592103 -1.84953 0
M  V30 5057 O 482.715 0.409588 -1.90138 0
M  V30 5058 C 482.998 -3.09788 -1.83584 0
M  V30 5059 C 482.851 -4.38764 -0.990241 0
M  V30 5060 C 484.17 -3.38029 -2.81823 0
M  V30 5061 H 481.289 -0.646789 -0.353317 0
M  V30 5062 H 483.931 -1.88398 -0.246248 0
M  V30 5063 H 482.081 -3.00869 -2.45784 0
M  V30 5064 H 483.753 -4.59675 -0.386897 0
M  V30 5065 H 481.996 -4.32798 -0.294626 0
M  V30 5066 H 482.667 -5.27514 -1.62584 0
M  V30 5067 H 485.143 -3.46915 -2.2976 0
M  V30 5068 H 484.019 -4.3161 -3.39122 0
M  V30 5069 H 484.28 -2.58968 -3.58313 0
M  V30 5070 N 483.339 0.512053 -1.4905 0
M  V30 5071 C 484.302 1.59704 -1.64399 0
M  V30 5072 C 485.302 1.52285 -0.516317 0
M  V30 5073 O 486.492 1.55635 -0.782527 0
M  V30 5074 C 483.624 2.9935 -1.63102 0
M  V30 5075 H 484.817 1.47428 -2.61161 0
M  V30 5076 H 482.37 0.735469 -1.37915 0
M  V30 5077 H 483.105 3.17116 -0.678836 0
M  V30 5078 H 482.89 3.06144 -2.44986 0
M  V30 5079 H 484.38 3.782 -1.77072 0
M  V30 5080 N 484.817 1.37938 0.762283 0
M  V30 5081 C 485.727 1.36681 1.90671 0
M  V30 5082 C 486.743 0.265078 1.71969 0
M  V30 5083 O 487.919 0.502055 1.95042 0
M  V30 5084 C 484.984 1.18211 3.25925 0
M  V30 5085 C 484.045 2.3811 3.57214 0
M  V30 5086 C 483.278 2.20512 4.86014 0
M  V30 5087 O 483.501 1.19429 5.57757 0
M  V30 5088 O 482.435 3.08911 5.16583 0
M  V30 5089 H 486.261 2.33091 1.94685 0
M  V30 5090 H 483.846 1.18767 0.906356 0
M  V30 5091 H 485.728 1.09937 4.06807 0
M  V30 5092 H 484.403 0.248807 3.22742 0
M  V30 5093 H 483.31 2.51958 2.76529 0
M  V30 5094 H 484.643 3.30041 3.65149 0
M  V30 5095 N 486.295 -0.989507 1.22664 0
M  V30 5096 C 487.543 -1.72612 1.05117 0
M  V30 5097 C 487.864 -1.90552 -0.414131 0
M  V30 5098 O 487.134 -1.4676 -1.29762 0
M  V30 5099 H 485.714 -0.639555 0.385977 0
M  V30 5100 H 488.376 -1.19158 1.54232 0
M  V30 5101 H 487.472 -2.71926 1.53175 0
M  V30 5102 N 487.773 -1.03688 -1.18687 0
M  V30 5103 C 488.736 -0.629115 -2.20397 0
M  V30 5104 C 489.736 0.311495 -1.57754 0
M  V30 5105 O 490.926 0.0974107 -1.73927 0
M  V30 5106 C 488.058 0.0782231 -3.4081 0
M  V30 5107 H 489.251 -1.52915 -2.57987 0
M  V30 5108 H 486.804 -0.828988 -1.32505 0
M  V30 5109 H 487.539 0.992233 -3.08748 0
M  V30 5110 H 487.324 -0.597776 -3.87517 0
M  V30 5111 H 488.814 0.350156 -4.16129 0
M  V30 5112 N 489.251 1.34841 -0.815825 0
M  V30 5113 C 490.497 1.98793 -0.401129 0
M  V30 5114 C 490.83 1.64548 1.03139 0
M  V30 5115 O 490.105 0.913487 1.71714 0
M  V30 5116 C 490.388 3.55143 -0.595409 0
M  V30 5117 C 490.241 3.99155 -2.07352 0
M  V30 5118 C 491.56 4.40092 -0.0268823 0
M  V30 5119 H 488.679 0.722146 -0.14722 0
M  V30 5120 H 491.321 1.59847 -1.02707 0
M  V30 5121 H 489.471 3.8845 -0.0625779 0
M  V30 5122 H 491.143 3.76216 -2.66945 0
M  V30 5123 H 489.386 3.49726 -2.56659 0
M  V30 5124 H 490.057 5.07971 -2.1603 0
M  V30 5125 H 492.533 4.13298 -0.482042 0
M  V30 5126 H 491.409 5.48562 -0.19267 0
M  V30 5127 H 491.67 4.29016 1.06759 0
M  V30 5128 N 490.729 0.570148 1.46925 0
M  V30 5129 C 491.957 0.0561966 2.06824 0
M  V30 5130 C 492.372 -1.24326 1.42086 0
M  V30 5131 O 491.729 -1.74882 0.521794 0
M  V30 5132 C 491.78 -0.129517 3.61268 0
M  V30 5133 O 491.501 1.1185 4.23581 0
M  V30 5134 C 493.002 -0.679266 4.38065 0
M  V30 5135 H 490.222 0.0517261 0.669003 0
M  V30 5136 H 492.766 0.787243 1.8874 0
M  V30 5137 H 490.921 -0.810739 3.78822 0
M  V30 5138 H 491.335 0.924375 5.1629 0
M  V30 5139 H 492.809 -0.758445 5.46765 0
M  V30 5140 H 493.286 -1.69346 4.05239 0
M  V30 5141 H 493.892 -0.0333237 4.25287 0
M  V30 5142 N 492.207 -1.54576 0.307264 0
M  V30 5143 C 493.456 -1.99442 -0.300976 0
M  V30 5144 C 493.769 -1.19928 -1.5452 0
M  V30 5145 O 494.975 -1.55092 -2.22842 0
M  V30 5146 C 493.431 -3.55084 -0.586809 0
M  V30 5147 C 493.039 -4.43413 0.639438 0
M  V30 5148 C 494.783 -4.0846 -1.1559 0
M  V30 5149 C 492.69 -5.90499 0.326411 0
M  V30 5150 H 491.62 -0.744986 -0.116238 0
M  V30 5151 H 494.271 -1.787 0.416947 0
M  V30 5152 H 492.653 -3.71749 -1.36449 0
M  V30 5153 H 493.827 -4.38522 1.41545 0
M  V30 5154 H 492.142 -4.00842 1.1276 0
M  V30 5155 H 494.739 -5.15926 -1.40445 0
M  V30 5156 H 495.082 -3.59443 -2.10015 0
M  V30 5157 H 495.615 -3.95362 -0.439778 0
M  V30 5158 H 492.354 -6.43676 1.23939 0
M  V30 5159 H 491.874 -5.98382 -0.412212 0
M  V30 5160 H 493.553 -6.46962 -0.0697393 0
M  V30 5161 N 493.685 -0.035106 -1.57561 0
M  V30 5162 C 494.615 0.942993 -2.13612 0
M  V30 5163 C 495.596 1.33531 -1.05373 0
M  V30 5164 O 496.781 1.41287 -1.33235 0
M  V30 5165 C 493.911 2.22332 -2.66807 0
M  V30 5166 C 492.865 1.97156 -3.79886 0
M  V30 5167 C 492.191 3.31506 -4.19533 0
M  V30 5168 C 493.491 1.30596 -5.05709 0
M  V30 5169 H 495.185 0.476179 -2.95589 0
M  V30 5170 H 492.731 0.227602 -1.4219 0
M  V30 5171 H 494.684 2.91142 -3.04654 0
M  V30 5172 H 493.408 2.7119 -1.81999 0
M  V30 5173 H 492.067 1.30763 -3.42486 0
M  V30 5174 H 491.715 3.78134 -3.31698 0
M  V30 5175 H 491.415 3.15465 -4.95738 0
M  V30 5176 H 492.939 4.01574 -4.59968 0
M  V30 5177 H 494.353 1.89416 -5.41105 0
M  V30 5178 H 492.75 1.24934 -5.86951 0
M  V30 5179 H 493.82 0.279742 -4.84092 0
M  V30 5180 N 495.163 1.55791 0.238111 0
M  V30 5181 C 496.574 1.68383 0.806472 0
M  V30 5182 C 496.925 0.634157 1.85669 0
M  V30 5183 O 496.05 -0.217913 2.153 0
M  V30 5184 C 496.645 3.05268 1.46959 0
M  V30 5185 C 495.204 3.1977 1.98555 0
M  V30 5186 C 494.351 2.64279 0.839763 0
M  V30 5187 H 497.302 1.58694 0.0137535 0
M  V30 5188 H 497.323 3.00203 2.33792 0
M  V30 5189 H 496.835 3.81643 0.704993 0
M  V30 5190 H 494.936 2.48234 2.77868 0
M  V30 5191 H 495.049 4.26788 2.17689 0
M  V30 5192 H 493.413 2.22329 1.24265 0
M  V30 5193 H 494.196 3.43187 0.0881032 0
M  V30 5194 N 496.642 -0.504142 1.49319 0
M  V30 5195 C 497.589 -1.60603 1.65756 0
M  V30 5196 C 498.559 -1.58425 0.499082 0
M  V30 5197 O 499.744 -1.76459 0.725728 0
M  V30 5198 C 496.884 -2.98764 1.72726 0
M  V30 5199 C 495.997 -3.10982 2.99857 0
M  V30 5200 C 495.132 -4.39857 2.97824 0
M  V30 5201 C 494.171 -4.45697 4.19548 0
M  V30 5202 N 493.308 -5.65995 4.15444 0
M  V30 5203 H 498.148 -1.45895 2.59843 0
M  V30 5204 H 495.685 -0.709891 1.28837 0
M  V30 5205 H 497.643 -3.78839 1.74747 0
M  V30 5206 H 496.273 -3.12183 0.821075 0
M  V30 5207 H 495.325 -2.23991 3.07461 0
M  V30 5208 H 496.637 -3.11157 3.89849 0
M  V30 5209 H 495.791 -5.2825 2.98391 0
M  V30 5210 H 494.53 -4.42242 2.05604 0
M  V30 5211 H 493.535 -3.55707 4.19229 0
M  V30 5212 H 494.76 -4.4503 5.12957 0
M  V30 5213 H 492.706 -5.69229 3.26059 0
M  V30 5214 H 492.623 -5.67773 4.99169 0
M  V30 5215 H 493.891 -6.56604 4.20109 0
M  V30 5216 N 498.12 -1.38341 -0.754957 0
M  V30 5217 C 499.536 -1.19508 -1.05783 0
M  V30 5218 C 499.736 -0.0428005 -2.01455 0
M  V30 5219 O 498.792 0.611861 -2.44975 0
M  V30 5220 C 500.105 -2.52091 -1.63923 0
M  V30 5221 C 501.653 -2.58762 -1.76101 0
M  V30 5222 C 502.128 -3.91517 -2.37652 0
M  V30 5223 N 503.619 -3.93049 -2.45085 0
M  V30 5224 C 504.354 -4.9253 -2.93602 0
M  V30 5225 N 503.85 -6.02408 -3.42165 0
M  V30 5226 N 505.643 -4.79921 -2.92629 0
M  V30 5227 H 497.794 -2.1206 -0.120056 0
M  V30 5228 H 500.057 -0.94089 -0.11589 0
M  V30 5229 H 499.763 -3.36858 -1.01093 0
M  V30 5230 H 499.637 -2.70388 -2.63003 0
M  V30 5231 H 502.024 -1.74391 -2.38058 0
M  V30 5232 H 502.105 -2.44333 -0.757294 0
M  V30 5233 H 501.749 -4.76309 -1.76329 0
M  V30 5234 H 501.679 -4.03256 -3.38662 0
M  V30 5235 H 504.17 -3.13685 -2.10736 0
M  V30 5236 H 504.483 -6.74248 -3.77637 0
M  V30 5237 H 502.828 -6.0603 -3.40225 0
M  V30 5238 H 506.019 -3.93194 -2.54001 0
M  V30 5239 H 506.192 -5.57601 -3.30128 0
M  V30 5240 N 499.598 0.982988 -1.23187 0
M  V30 5241 C 500.531 2.07302 -0.953993 0
M  V30 5242 C 501.509 1.62249 0.106753 0
M  V30 5243 O 502.693 1.88481 -0.0269525 0
M  V30 5244 C 499.82 3.35873 -0.436716 0
M  V30 5245 C 498.866 3.99862 -1.48367 0
M  V30 5246 S 499.699 4.39443 -3.06023 0
M  V30 5247 C 500.855 5.7117 -2.55959 0
M  V30 5248 H 501.088 2.30554 -1.87702 0
M  V30 5249 H 498.621 1.11883 -1.06403 0
M  V30 5250 H 500.579 4.10244 -0.144872 0
M  V30 5251 H 499.24 3.10634 0.465351 0
M  V30 5252 H 498.433 4.92471 -1.07182 0
M  V30 5253 H 498.035 3.31857 -1.72473 0
M  V30 5254 H 500.327 6.47977 -1.97818 0
M  V30 5255 H 501.27 6.17194 -3.47098 0
M  V30 5256 H 501.678 5.29046 -1.96902 0
M  V30 5257 N 501.076 1.04316 1.18135 0
M  V30 5258 C 502.301 0.768047 1.92655 0
M  V30 5259 C 502.726 -0.66904 1.758 0
M  V30 5260 O 502.084 -1.46372 1.06981 0
M  V30 5261 C 502.132 1.14239 3.42026 0
M  V30 5262 O 501.236 0.269333 4.1152 0
M  V30 5263 H 500.577 0.282436 0.600937 0
M  V30 5264 H 503.107 1.39367 1.49793 0
M  V30 5265 H 503.117 1.10538 3.92741 0
M  V30 5266 H 501.792 2.18928 3.53615 0
M  V30 5267 H 500.369 0.366175 3.71098 0
M  V30 5268 N 502.554 -1.34406 0.822964 0
M  V30 5269 C 503.8 -1.98578 0.411666 0
M  V30 5270 C 504.133 -1.65093 -1.02264 0
M  V30 5271 O 503.408 -0.92258 -1.71227 0
M  V30 5272 C 503.691 -3.54823 0.614235 0
M  V30 5273 C 503.544 -3.9805 2.09466 0
M  V30 5274 C 504.863 -4.40071 0.050221 0
M  V30 5275 H 501.982 -0.721355 0.151047 0
M  V30 5276 H 504.624 -1.59301 1.03554 0
M  V30 5277 H 502.774 -3.88411 0.0831774 0
M  V30 5278 H 504.446 -3.74795 2.68936 0
M  V30 5279 H 502.689 -3.4836 2.5851 0
M  V30 5280 H 503.36 -5.06819 2.18721 0
M  V30 5281 H 505.836 -4.13037 0.503953 0
M  V30 5282 H 504.712 -5.48452 0.221759 0
M  V30 5283 H 504.973 -4.29576 -1.04482 0
M  V30 5284 N 504.032 -0.577932 -1.46621 0
M  V30 5285 C 505.448 -0.239242 -1.57797 0
M  V30 5286 C 505.648 1.25843 -1.57371 0
M  V30 5287 O 504.704 2.03988 -1.48813 0
M  V30 5288 C 506.017 -0.884227 -2.87405 0
M  V30 5289 C 507.565 -0.857373 -3.01028 0
M  V30 5290 C 508.04 -1.48181 -4.33366 0
M  V30 5291 N 509.531 -1.44593 -4.40053 0
M  V30 5292 C 510.266 -1.89852 -5.41058 0
M  V30 5293 N 509.762 -2.43062 -6.48762 0
M  V30 5294 N 511.555 -1.80797 -5.3223 0
M  V30 5295 H 503.706 -1.55073 -1.45142 0
M  V30 5296 H 505.969 -0.647903 -0.692044 0
M  V30 5297 H 505.675 -1.93759 -2.93514 0
M  V30 5298 H 505.549 -0.389585 -3.75183 0
M  V30 5299 H 507.936 0.187357 -2.94505 0
M  V30 5300 H 508.017 -1.38999 -2.14739 0
M  V30 5301 H 507.661 -2.52572 -4.40647 0
M  V30 5302 H 507.591 -0.924464 -5.18422 0
M  V30 5303 H 510.082 -1.05694 -3.62819 0
M  V30 5304 H 510.395 -2.75466 -7.22038 0
M  V30 5305 H 508.74 -2.47085 -6.49595 0
M  V30 5306 H 511.931 -1.38989 -4.46989 0
M  V30 5307 H 512.104 -2.16385 -6.10804 0
M  V30 5308 N 505.51 1.54411 -0.315457 0
M  V30 5309 C 506.758 2.00023 0.288971 0
M  V30 5310 C 507.079 1.20529 1.5329 0
M  V30 5311 O 506.349 0.304986 1.93511 0
M  V30 5312 H 504.929 0.738891 0.109766 0
M  V30 5313 H 507.591 1.90094 -0.430129 0
M  V30 5314 H 506.687 3.07198 0.550999 0
M  V30 5315 N 506.988 0.0434614 1.5754 0
M  V30 5316 C 508.235 -0.632035 1.92384 0
M  V30 5317 C 508.563 -1.71304 0.921157 0
M  V30 5318 O 507.818 -1.95583 -0.067744 0
M  V30 5319 C 508.117 -1.2738 3.3393 0
M  V30 5320 C 507.783 -0.321757 4.49751 0
M  V30 5321 C 506.445 -0.0597611 4.81163 0
M  V30 5322 C 508.797 0.331158 5.20147 0
M  V30 5323 C 506.125 0.862715 5.80322 0
M  V30 5324 C 508.477 1.24178 6.20292 0
M  V30 5325 C 507.141 1.51252 6.50138 0
M  V30 5326 H 506.411 -0.231278 0.703983 0
M  V30 5327 H 509.058 0.108294 1.91194 0
M  V30 5328 H 507.363 -2.08921 3.3145 0
M  V30 5329 H 509.06 -1.80326 3.58167 0
M  V30 5330 H 505.65 -0.53614 4.25233 0
M  V30 5331 H 509.834 0.141826 4.96097 0
M  V30 5332 H 505.09 1.08003 6.01785 0
M  V30 5333 H 509.264 1.75381 6.73954 0
M  V30 5334 H 506.891 2.22897 7.26788 0
M  V30 5335 N 508.466 -1.55915 -0.229846 0
M  V30 5336 C 509.743 -1.6932 -0.979295 0
M  V30 5337 C 510.123 -0.588321 -2.02736 0
M  V30 5338 O 509.471 0.40586 -2.24867 0
M  V30 5339 C 509.681 -3.10305 -1.59724 0
M  V30 5340 C 511.029 -3.6945 -2.09264 0
M  V30 5341 O 512.053 -3.13214 -1.69633 0
M  V30 5342 O 510.912 -4.68072 -2.82082 0
M  V30 5343 H 508.006 -0.689314 -0.456919 0
M  V30 5344 H 510.552 -1.68238 -0.222283 0
M  V30 5345 H 509.324 -3.82177 -0.840039 0
M  V30 5346 H 508.947 -3.1547 -2.42001 0
M  V30 5347 N 509.944 0.496216 -1.49584 0
M  V30 5348 C 511.36 0.827814 -1.36453 0
M  V30 5349 C 511.56 1.97464 -0.401285 0
M  V30 5350 O 510.616 2.51958 0.165296 0
M  V30 5351 C 511.929 1.16352 -2.77277 0
M  V30 5352 C 513.477 1.27145 -2.86013 0
M  V30 5353 C 513.952 1.64042 -4.27615 0
M  V30 5354 N 515.443 1.71082 -4.30448 0
M  V30 5355 C 516.178 2.01085 -5.36984 0
M  V30 5356 N 515.674 2.2928 -6.5376 0
M  V30 5357 N 517.467 2.02376 -5.24405 0
M  V30 5358 H 509.618 -0.259947 -2.10803 0
M  V30 5359 H 511.881 -0.0537163 -0.946477 0
M  V30 5360 H 511.587 0.394153 -3.49484 0
M  V30 5361 H 511.461 2.10582 -3.12946 0
M  V30 5362 H 513.848 2.03152 -2.1404 0
M  V30 5363 H 513.929 0.309542 -2.5392 0
M  V30 5364 H 513.573 0.88583 -5.00115 0
M  V30 5365 H 513.503 2.6134 -4.57175 0
M  V30 5366 H 515.994 1.51434 -3.46232 0
M  V30 5367 H 516.307 2.51376 -7.30774 0
M  V30 5368 H 514.652 2.26726 -6.56978 0
M  V30 5369 H 517.843 1.79829 -4.32179 0
M  V30 5370 H 518.016 2.25425 -6.07526 0
M  V30 5371 N 511.423 1.38739 0.74761 0
M  V30 5372 C 512.653 1.3832 1.53464 0
M  V30 5373 C 513.061 -0.0273464 1.8918 0
M  V30 5374 O 512.404 -1.00588 1.53713 0
M  V30 5375 C 512.466 2.18007 2.85855 0
M  V30 5376 C 512.13 3.66762 2.72644 0
M  V30 5377 C 513.127 4.60124 2.42037 0
M  V30 5378 C 510.812 4.10193 2.89909 0
M  V30 5379 C 512.806 5.94897 2.28859 0
M  V30 5380 C 510.493 5.45045 2.7635 0
M  V30 5381 C 511.491 6.37211 2.45869 0
M  V30 5382 O 511.179 7.69581 2.3238 0
M  V30 5383 H 510.911 0.474718 0.481268 0
M  V30 5384 H 513.465 1.83012 0.932518 0
M  V30 5385 H 511.695 1.68043 3.48279 0
M  V30 5386 H 513.384 2.09921 3.47402 0
M  V30 5387 H 514.15 4.27874 2.28361 0
M  V30 5388 H 510.029 3.38797 3.1263 0
M  V30 5389 H 513.573 6.66802 2.04989 0
M  V30 5390 H 509.47 5.76889 2.89601 0
M  V30 5391 H 510.238 7.80169 2.47546 0
M  V30 5392 N 512.901 -0.976442 1.23707 0
M  V30 5393 C 514.148 -1.71827 1.07153 0
M  V30 5394 C 514.476 -1.9053 -0.390982 0
M  V30 5395 O 513.731 -1.45779 -1.30564 0
M  V30 5396 C 514.03 -3.11814 1.74662 0
M  V30 5397 C 513.696 -3.12978 3.24585 0
M  V30 5398 C 512.358 -3.13003 3.6549 0
M  V30 5399 C 514.71 -3.07986 4.20469 0
M  V30 5400 C 512.038 -3.05757 5.00729 0
M  V30 5401 C 514.39 -3.02282 5.55705 0
M  V30 5402 C 513.054 -3.00631 5.95968 0
M  V30 5403 H 512.324 -0.628758 0.392102 0
M  V30 5404 H 514.971 -1.14239 1.53693 0
M  V30 5405 H 513.276 -3.72812 1.20492 0
M  V30 5406 H 514.973 -3.67989 1.59328 0
M  V30 5407 H 511.563 -3.13718 2.92026 0
M  V30 5408 H 515.747 -3.07103 3.89874 0
M  V30 5409 H 511.003 -3.02834 5.31132 0
M  V30 5410 H 515.177 -2.97376 6.29714 0
M  V30 5411 H 512.804 -2.94771 7.00724 0
M  V30 5412 N 514.379 -1.04941 -1.1758 0
M  V30 5413 C 515.604 -0.778253 -1.92245 0
M  V30 5414 C 516.029 0.659707 -1.76152 0
M  V30 5415 O 515.387 1.45803 -1.07755 0
M  V30 5416 C 515.435 -1.16051 -3.41416 0
M  V30 5417 O 514.539 -0.291153 -4.11371 0
M  V30 5418 H 513.88 -0.285619 -0.599431 0
M  V30 5419 H 516.41 -1.40159 -1.49052 0
M  V30 5420 H 516.42 -1.12619 -3.92149 0
M  V30 5421 H 515.095 -2.208 -3.52449 0
M  V30 5422 H 513.672 -0.385851 -3.70898 0
M  V30 5423 N 515.857 1.33968 -0.830081 0
M  V30 5424 C 517.082 2.02813 -0.433796 0
M  V30 5425 C 517.507 1.62076 0.954614 0
M  V30 5426 O 516.865 0.808955 1.62252 0
M  V30 5427 C 516.913 3.56348 -0.552115 0
M  V30 5428 O 516.017 4.10202 0.425191 0
M  V30 5429 H 515.358 0.639817 -0.177567 0
M  V30 5430 H 517.888 1.7106 -1.12248 0
M  V30 5431 H 517.898 4.05722 -0.430513 0
M  V30 5432 H 516.573 3.85344 -1.56471 0
M  V30 5433 H 515.15 3.71979 0.261878 0
M  V30 5434 N 517.335 0.585699 1.46312 0
M  V30 5435 C 518.751 0.247607 1.57668 0
M  V30 5436 C 518.951 -1.25007 1.58037 0
M  V30 5437 O 518.007 -2.03196 1.49893 0
M  V30 5438 C 519.32 0.899456 2.86933 0
M  V30 5439 C 520.868 0.873326 3.00569 0
M  V30 5440 C 521.343 1.50477 4.32574 0
M  V30 5441 N 522.834 1.46925 4.3928 0
M  V30 5442 C 523.569 1.92719 5.40044 0
M  V30 5443 N 523.065 2.46499 6.47464 0
M  V30 5444 N 524.858 1.83617 5.31264 0
M  V30 5445 H 517.009 1.55841 1.44317 0
M  V30 5446 H 519.272 0.651564 0.688599 0
M  V30 5447 H 518.978 1.95313 2.92482 0
M  V30 5448 H 518.852 0.409476 3.74971 0
M  V30 5449 H 521.239 -0.171736 2.946 0
M  V30 5450 H 521.32 1.40136 2.13999 0
M  V30 5451 H 520.964 2.54905 4.39302 0
M  V30 5452 H 520.894 0.951944 5.17924 0
M  V30 5453 H 523.385 1.07616 3.62253 0
M  V30 5454 H 523.698 2.79291 7.20567 0
M  V30 5455 H 522.043 2.50526 6.48276 0
M  V30 5456 H 525.234 1.41358 4.46246 0
M  V30 5457 H 525.407 2.19622 6.09648 0
M  V30 5458 N 518.813 -1.54241 0.323641 0
M  V30 5459 C 520.041 -2.04985 -0.280871 0
M  V30 5460 C 520.456 -1.19978 -1.45777 0
M  V30 5461 O 519.813 -0.230471 -1.81039 0
M  V30 5462 C 519.864 -3.54353 -0.715258 0
M  V30 5463 O 519.585 -4.36132 0.414817 0
M  V30 5464 C 521.086 -4.21189 -1.38257 0
M  V30 5465 H 518.306 -0.66851 -0.0577502 0
M  V30 5466 H 520.85 -1.99029 0.469852 0
M  V30 5467 H 519.005 -3.60596 -1.41596 0
M  V30 5468 H 519.419 -5.2445 0.0725227 0
M  V30 5469 H 520.893 -5.27154 -1.63745 0
M  V30 5470 H 521.37 -3.72307 -2.32989 0
M  V30 5471 H 521.976 -4.19085 -0.724447 0
M  V30 5472 N 520.291 -0.0518155 -1.57515 0
M  V30 5473 C 521.221 0.920283 -2.146 0
M  V30 5474 C 522.202 1.32406 -1.06783 0
M  V30 5475 O 523.387 1.39866 -1.34726 0
M  V30 5476 C 520.517 2.1949 -2.6915 0
M  V30 5477 C 519.471 1.93116 -3.81956 0
M  V30 5478 C 518.797 3.27037 -4.23026 0
M  V30 5479 C 520.097 1.25225 -5.07066 0
M  V30 5480 H 521.791 0.444801 -2.96077 0
M  V30 5481 H 519.337 0.212508 -1.42423 0
M  V30 5482 H 521.29 2.87894 -3.07725 0
M  V30 5483 H 520.014 2.69244 -1.84865 0
M  V30 5484 H 518.673 1.27123 -3.43854 0
M  V30 5485 H 518.321 3.74595 -3.3569 0
M  V30 5486 H 518.021 3.10189 -4.99056 0
M  V30 5487 H 519.545 3.96673 -4.64202 0
M  V30 5488 H 520.959 1.83666 -5.43083 0
M  V30 5489 H 519.356 1.18702 -5.88243 0
M  V30 5490 H 520.426 0.228382 -4.84362 0
M  V30 5491 N 521.769 1.56035 0.221574 0
M  V30 5492 C 523.046 1.69837 0.970301 0
M  V30 5493 C 523.426 0.599065 2.02421 0
M  V30 5494 O 522.774 -0.393929 2.25079 0
M  V30 5495 C 522.984 3.11148 1.58076 0
M  V30 5496 C 524.332 3.70555 2.07302 0
M  V30 5497 O 525.356 3.14109 1.6797 0
M  V30 5498 O 524.215 4.69562 2.79596 0
M  V30 5499 H 521.309 0.691727 0.453257 0
M  V30 5500 H 523.855 1.68353 0.213358 0
M  V30 5501 H 522.627 3.82617 0.819759 0
M  V30 5502 H 522.25 3.16749 2.40324 0
M  V30 5503 N 523.247 -0.488276 1.49845 0
M  V30 5504 C 524.195 -1.60917 1.67954 0
M  V30 5505 C 525.189 -1.6038 0.54539 0
M  V30 5506 O 526.395 -1.64736 0.7254 0
M  V30 5507 H 522.77 -0.533658 0.529824 0
M  V30 5508 H 524.741 -1.428 2.62013 0
M  V30 5509 C 523.49 -2.98975 1.77509 0
M  V30 5510 H 522.813 -3.00099 2.6416 0
M  V30 5511 H 524.253 -3.76906 1.9421 0
M  V30 5512 C 522.712 -3.3282 0.522745 0
M  V30 5513 O 523.242 -4.00208 -0.345866 0
M  V30 5514 N 521.448 -2.8808 0.381882 0
M  V30 5515 H 520.995 -2.33415 1.08974 0
M  V30 5516 H 520.953 -3.11091 -0.454929 0
M  V30 5517 N 524.725 -1.39134 -0.740242 0
M  V30 5518 C 525.673 -1.3757 -1.87556 0
M  V30 5519 C 526.667 -0.259593 -1.67399 0
M  V30 5520 O 527.873 -0.429349 -1.74804 0
M  V30 5521 H 524.248 -0.42947 -0.6173 0
M  V30 5522 H 526.219 -2.33345 -1.85991 0
M  V30 5523 C 524.968 -1.23087 -3.25184 0
M  V30 5524 H 524.291 -2.08237 -3.41288 0
M  V30 5525 H 525.731 -1.26049 -4.0483 0
M  V30 5526 C 524.19 0.0611471 -3.36845 0
M  V30 5527 O 524.72 1.03328 -3.88183 0
M  V30 5528 N 522.926 0.122454 -2.90342 0
M  V30 5529 H 522.473 -0.669329 -2.48752 0
M  V30 5530 H 522.431 0.986463 -2.98523 0
M  V30 5531 N 526.204 0.969867 -1.24223 0
M  V30 5532 C 527.62 1.23809 -1.00716 0
M  V30 5533 C 527.82 1.99469 0.285358 0
M  V30 5534 O 526.876 2.31764 1.00207 0
M  V30 5535 C 528.189 2.02734 -2.2208 0
M  V30 5536 C 529.737 2.15834 -2.26681 0
M  V30 5537 C 530.212 2.98154 -3.47661 0
M  V30 5538 N 531.703 3.05737 -3.47964 0
M  V30 5539 C 532.438 3.69785 -4.38231 0
M  V30 5540 N 531.934 4.35569 -5.3875 0
M  V30 5541 N 533.727 3.66775 -4.25949 0
M  V30 5542 H 525.878 0.463294 -2.07286 0
M  V30 5543 H 528.141 0.267348 -0.909521 0
M  V30 5544 H 527.847 1.54524 -3.15935 0
M  V30 5545 H 527.721 3.0347 -2.24021 0
M  V30 5546 H 530.108 2.63248 -1.33359 0
M  V30 5547 H 530.189 1.14453 -2.28767 0
M  V30 5548 H 529.833 2.51435 -4.41297 0
M  V30 5549 H 529.763 3.99729 -3.42818 0
M  V30 5550 H 532.254 2.58941 -2.75242 0
M  V30 5551 H 532.567 4.82251 -6.03866 0
M  V30 5552 H 530.912 4.34244 -5.42639 0
M  V30 5553 H 534.103 3.14558 -3.46657 0
M  V30 5554 H 534.276 4.16407 -4.96497 0
M  V30 5555 N 527.682 1.05563 1.17022 0
M  V30 5556 C 529.098 0.777684 1.39371 0
M  V30 5557 C 529.298 -0.626269 1.91521 0
M  V30 5558 O 528.354 -1.38806 2.10924 0
M  V30 5559 C 529.667 1.83642 2.3811 0
M  V30 5560 C 531.215 1.85907 2.51809 0
M  V30 5561 C 531.69 2.90813 3.53824 0
M  V30 5562 N 533.181 2.898 3.61345 0
M  V30 5563 C 533.916 3.6762 4.40049 0
M  V30 5564 N 533.412 4.55237 5.22237 0
M  V30 5565 N 535.205 3.56044 4.34959 0
M  V30 5566 H 527.356 1.9614 0.815047 0
M  V30 5567 H 529.619 0.849527 0.420722 0
M  V30 5568 H 529.325 2.84425 2.06871 0
M  V30 5569 H 529.199 1.6812 3.37662 0
M  V30 5570 H 531.586 0.857865 2.82356 0
M  V30 5571 H 531.667 2.05506 1.52318 0
M  V30 5572 H 531.311 3.91122 3.24015 0
M  V30 5573 H 531.241 2.68465 4.53028 0
M  V30 5574 H 533.732 2.26274 3.02669 0
M  V30 5575 H 534.045 5.11291 5.79484 0
M  V30 5576 H 532.39 4.59296 5.21605 0
M  V30 5577 H 535.581 2.86986 3.69806 0
M  V30 5578 H 535.754 4.16938 4.96051 0
M  V30 5579 N 529.16 -1.33526 0.837174 0
M  V30 5580 C 530.108 -2.31168 0.257698 0
M  V30 5581 C 531.102 -1.5806 -0.609388 0
M  V30 5582 O 532.308 -1.72941 -0.499139 0
M  V30 5583 H 528.683 -0.74922 0.0646058 0
M  V30 5584 H 530.654 -2.77552 1.09578 0
M  V30 5585 C 529.403 -3.4326 -0.553887 0
M  V30 5586 H 528.726 -3.99665 0.104008 0
M  V30 5587 H 530.166 -4.13782 -0.925219 0
M  V30 5588 C 528.625 -2.88965 -1.73207 0
M  V30 5589 O 529.155 -2.85013 -2.83073 0
M  V30 5590 N 527.361 -2.45596 -1.55342 0
M  V30 5591 H 526.908 -2.49009 -0.659705 0
M  V30 5592 H 526.866 -2.0962 -2.34322 0
M  V30 5593 N 530.638 -0.59345 -1.46 0
M  V30 5594 C 531.887 -0.0808084 -2.01538 0
M  V30 5595 C 532.2 1.29112 -1.46934 0
M  V30 5596 O 533.406 1.8957 -1.94359 0
M  V30 5597 C 531.862 -0.0938311 -3.59778 0
M  V30 5598 C 531.47 -1.46474 -4.23379 0
M  V30 5599 C 533.214 0.364306 -4.22934 0
M  V30 5600 C 531.121 -1.4349 -5.73729 0
M  V30 5601 H 530.051 -0.0264407 -0.753536 0
M  V30 5602 H 532.702 -0.746689 -1.67621 0
M  V30 5603 H 531.084 0.638427 -3.9082 0
M  V30 5604 H 532.258 -2.21758 -4.03931 0
M  V30 5605 H 530.573 -1.86379 -3.7236 0
M  V30 5606 H 533.17 0.405584 -5.3316 0
M  V30 5607 H 533.513 1.38409 -3.92618 0
M  V30 5608 H 534.046 -0.31423 -3.96557 0
M  V30 5609 H 530.785 -2.43184 -6.08722 0
M  V30 5610 H 530.305 -0.724431 -5.95409 0
M  V30 5611 H 531.984 -1.15243 -6.36654 0
M  V30 5612 N 532.116 1.54067 -0.331816 0
M  V30 5613 C 533.362 2.01713 0.261395 0
M  V30 5614 C 533.717 1.21566 1.49129 0
M  V30 5615 O 533.01 0.291867 1.89364 0
M  V30 5616 C 533.204 3.51634 0.639392 0
M  V30 5617 C 533.033 4.46295 -0.552321 0
M  V30 5618 C 531.803 4.94185 -1.05399 0
M  V30 5619 C 534.001 4.94677 -1.40711 0
M  V30 5620 N 531.983 5.7277 -2.20925 0
M  V30 5621 C 533.354 5.71267 -2.40943 0
M  V30 5622 C 535.409 4.76805 -1.43392 0
M  V30 5623 C 534.112 6.31889 -3.4367 0
M  V30 5624 C 536.138 5.38268 -2.44994 0
M  V30 5625 C 535.5 6.14716 -3.43952 0
M  V30 5626 H 531.599 0.77975 0.0592729 0
M  V30 5627 H 534.183 1.88974 -0.468726 0
M  V30 5628 H 532.354 3.64603 1.33863 0
M  V30 5629 H 534.086 3.86038 1.21478 0
M  V30 5630 H 530.841 4.69472 -0.623952 0
M  V30 5631 H 531.265 6.16737 -2.79222 0
M  V30 5632 H 535.907 4.17255 -0.682489 0
M  V30 5633 H 533.625 6.90554 -4.19715 0
M  V30 5634 H 537.211 5.26352 -2.4788 0
M  V30 5635 H 536.091 6.6143 -4.21283 0
M  V30 5636 N 533.594 0.0601682 1.57485 0
M  V30 5637 C 534.841 -0.611594 1.93043 0
M  V30 5638 C 535.169 -1.70317 0.939274 0
M  V30 5639 O 534.424 -1.95644 -0.046996 0
M  V30 5640 C 534.723 -1.23831 3.35262 0
M  V30 5641 C 534.389 -0.274037 4.50066 0
M  V30 5642 C 533.051 -0.00872394 4.81199 0
M  V30 5643 C 535.403 0.386308 5.19766 0
M  V30 5644 C 532.731 0.924218 5.79375 0
M  V30 5645 C 535.083 1.3075 6.1894 0
M  V30 5646 C 533.747 1.58139 6.48497 0
M  V30 5647 H 533.017 -0.223798 0.706396 0
M  V30 5648 H 535.664 0.128566 1.91068 0
M  V30 5649 H 533.969 -2.05394 3.33647 0
M  V30 5650 H 535.666 -1.76517 3.60059 0
M  V30 5651 H 532.256 -0.491008 4.25778 0
M  V30 5652 H 536.44 0.194436 4.95919 0
M  V30 5653 H 531.696 1.1438 6.00606 0
M  V30 5654 H 535.87 1.82519 6.72056 0
M  V30 5655 H 533.497 2.30593 7.24383 0
M  V30 5656 N 535.072 -1.5615 -0.213296 0
M  V30 5657 C 536.035 -1.92249 -1.24792 0
M  V30 5658 C 537.035 -0.801828 -1.39382 0
M  V30 5659 O 538.225 -1.06948 -1.37506 0
M  V30 5660 C 535.357 -2.18056 -2.62039 0
M  V30 5661 H 536.55 -2.84793 -0.939845 0
M  V30 5662 H 534.103 -1.49559 -0.454062 0
M  V30 5663 H 534.838 -1.2809 -2.97932 0
M  V30 5664 H 534.623 -2.99703 -2.52825 0
M  V30 5665 H 536.113 -2.47051 -3.36683 0
M  V30 5666 N 536.55 0.480323 -1.50102 0
M  V30 5667 C 537.46 1.60547 -1.71061 0
M  V30 5668 C 538.476 1.63564 -0.593529 0
M  V30 5669 O 539.652 1.81604 -0.870751 0
M  V30 5670 C 536.717 2.96814 -1.79171 0
M  V30 5671 C 535.778 3.04259 -3.02861 0
M  V30 5672 C 535.011 4.34027 -3.10574 0
M  V30 5673 O 535.234 5.24009 -2.25323 0
M  V30 5674 O 534.168 4.46873 -4.03223 0
M  V30 5675 H 537.994 1.45788 -2.6642 0
M  V30 5676 H 535.579 0.658838 -1.34088 0
M  V30 5677 H 537.461 3.77765 -1.86738 0
M  V30 5678 H 536.136 3.11791 -0.869947 0
M  V30 5679 H 535.043 2.22419 -3.008 0
M  V30 5680 H 536.376 2.94216 -3.94586 0
M  V30 5681 N 538.028 1.39524 0.732853 0
M  V30 5682 C 539.275 1.36865 1.49246 0
M  V30 5683 C 539.603 -0.0347118 1.94469 0
M  V30 5684 O 538.858 -1.01596 1.67262 0
M  V30 5685 C 539.157 2.28916 2.74468 0
M  V30 5686 C 538.823 3.76506 2.481 0
M  V30 5687 C 537.485 4.16721 2.40619 0
M  V30 5688 C 539.837 4.69846 2.25598 0
M  V30 5689 C 537.165 5.48334 2.08679 0
M  V30 5690 C 539.517 6.01739 1.95174 0
M  V30 5691 C 538.181 6.41015 1.86163 0
M  V30 5692 H 537.451 0.500824 0.546129 0
M  V30 5693 H 540.098 1.72047 0.840958 0
M  V30 5694 H 538.403 1.86859 3.4437 0
M  V30 5695 H 540.1 2.2415 3.32502 0
M  V30 5696 H 536.69 3.44635 2.54803 0
M  V30 5697 H 540.874 4.39608 2.30344 0
M  V30 5698 H 536.13 5.77685 2.00226 0
M  V30 5699 H 540.304 6.73591 1.76771 0
M  V30 5700 H 537.931 7.42917 1.61179 0
M  V30 5701 N 539.506 -0.963266 1.24736 0
M  V30 5702 C 540.752 -1.71 1.10139 0
M  V30 5703 C 541.107 -1.89089 -0.35541 0
M  V30 5704 O 540.4 -1.44451 -1.25875 0
M  V30 5705 C 540.594 -3.09944 1.7796 0
M  V30 5706 C 540.423 -3.05408 3.30085 0
M  V30 5707 C 539.193 -3.09643 3.99311 0
M  V30 5708 C 541.391 -2.87241 4.26611 0
M  V30 5709 N 539.373 -2.95174 5.3828 0
M  V30 5710 C 540.744 -2.81114 5.52607 0
M  V30 5711 C 542.799 -2.71856 4.17132 0
M  V30 5712 C 541.502 -2.61174 6.70209 0
M  V30 5713 C 543.528 -2.53284 5.34417 0
M  V30 5714 C 542.89 -2.4787 6.59348 0
M  V30 5715 H 538.989 -0.634078 0.457678 0
M  V30 5716 H 541.573 -1.14169 1.57713 0
M  V30 5717 H 539.744 -3.64958 1.32893 0
M  V30 5718 H 541.476 -3.73348 1.56183 0
M  V30 5719 H 538.231 -3.18498 3.50508 0
M  V30 5720 H 538.655 -2.91168 6.11188 0
M  V30 5721 H 543.297 -2.74821 3.21299 0
M  V30 5722 H 541.015 -2.56952 7.6616 0
M  V30 5723 H 544.601 -2.42317 5.28936 0
M  V30 5724 H 543.481 -2.33685 7.48573 0
M  V30 5725 N 540.985 -1.06182 -1.16461 0
M  V30 5726 C 541.895 -0.682671 -2.24448 0
M  V30 5727 C 542.911 0.30078 -1.71381 0
M  V30 5728 O 544.087 0.150376 -2.00838 0
M  V30 5729 C 541.152 -0.0737202 -3.46622 0
M  V30 5730 C 540.213 -1.10889 -4.14731 0
M  V30 5731 C 539.446 -0.528908 -5.31073 0
M  V30 5732 O 539.669 0.65868 -5.66584 0
M  V30 5733 O 538.603 -1.26805 -5.88391 0
M  V30 5734 H 542.429 -1.58291 -2.59187 0
M  V30 5735 H 540.014 -0.834013 -1.23954 0
M  V30 5736 H 541.896 0.264192 -4.20571 0
M  V30 5737 H 540.571 0.800015 -3.13658 0
M  V30 5738 H 539.478 -1.49896 -3.42756 0
M  V30 5739 H 540.811 -1.95412 -4.51747 0
M  V30 5740 N 542.463 1.3308 -0.844243 0
M  V30 5741 C 543.74 1.92178 -0.364261 0
M  V30 5742 C 544.12 1.76961 1.15101 0
M  V30 5743 O 543.468 1.16128 1.9679 0
M  V30 5744 C 543.678 3.393 -0.817106 0
M  V30 5745 C 545.026 4.16444 -0.828236 0
M  V30 5746 O 546.05 3.47975 -0.761062 0
M  V30 5747 O 544.909 5.38685 -0.920926 0
M  V30 5748 H 542.003 0.820411 -0.10419 0
M  V30 5749 H 544.549 1.41918 -0.930453 0
M  V30 5750 H 543.321 3.44272 -1.85991 0
M  V30 5751 H 542.944 3.96947 -0.227785 0
M  V30 5752 N 543.941 0.601185 1.45683 0
M  V30 5753 C 544.889 -0.133955 2.32214 0
M  V30 5754 C 545.883 -0.866034 1.45589 0
M  V30 5755 O 547.089 -0.782326 1.6211 0
M  V30 5756 H 543.464 -0.0620613 0.749435 0
M  V30 5757 H 545.435 0.614389 2.92007 0
M  V30 5758 C 544.184 -1.12216 3.29094 0
M  V30 5759 H 543.507 -0.568273 3.95741 0
M  V30 5760 H 544.947 -1.60659 3.92383 0
M  V30 5761 C 543.406 -2.19251 2.55794 0
M  V30 5762 O 543.936 -3.26894 2.33459 0
M  V30 5763 N 542.142 -1.9436 2.16039 0
M  V30 5764 H 541.689 -1.06829 2.34404 0
M  V30 5765 H 541.647 -2.66181 1.67318 0
M  V30 5766 N 545.419 -1.53889 0.339982 0
M  V30 5767 C 546.666 -2.00855 -0.257621 0
M  V30 5768 C 546.994 -1.22788 -1.50842 0
M  V30 5769 O 546.249 -0.302567 -1.93347 0
M  V30 5770 C 546.548 -3.51968 -0.620735 0
M  V30 5771 C 546.214 -4.47741 0.532771 0
M  V30 5772 C 544.876 -4.73645 0.849339 0
M  V30 5773 C 547.228 -5.04551 1.3068 0
M  V30 5774 C 544.556 -5.53614 1.94237 0
M  V30 5775 C 546.908 -5.85713 2.39005 0
M  V30 5776 C 545.572 -6.09912 2.71225 0
M  V30 5777 H 544.842 -0.734979 -0.0942703 0
M  V30 5778 H 547.489 -1.85714 0.467159 0
M  V30 5779 H 545.794 -3.64921 -1.42618 0
M  V30 5780 H 547.491 -3.85762 -1.09495 0
M  V30 5781 H 544.081 -4.27711 0.275973 0
M  V30 5782 H 548.265 -4.84507 1.07549 0
M  V30 5783 H 543.521 -5.7059 2.19628 0
M  V30 5784 H 547.695 -6.28748 2.99415 0
M  V30 5785 H 545.322 -6.71665 3.56047 0
M  V30 5786 N 546.897 -0.0685191 -1.57451 0
M  V30 5787 C 547.847 0.909895 -2.09057 0
M  V30 5788 C 548.831 1.26088 -0.999528 0
M  V30 5789 O 550.023 1.24041 -1.26265 0
M  V30 5790 C 547.152 2.17863 -2.65312 0
M  V30 5791 C 546.238 1.85427 -3.81415 0
M  V30 5792 N 546.629 1.23426 -4.9051 0
M  V30 5793 C 544.927 2.15196 -3.90649 0
M  V30 5794 C 545.628 1.09008 -5.71395 0
M  V30 5795 N 544.604 1.59871 -5.1956 0
M  V30 5796 H 548.406 0.426145 -2.90794 0
M  V30 5797 H 545.92 0.135462 -1.61834 0
M  V30 5798 H 547.917 2.88872 -3.00597 0
M  V30 5799 H 546.577 2.66829 -1.85021 0
M  V30 5800 H 547.588 0.904305 -5.09944 0
M  V30 5801 H 544.265 2.66562 -3.21327 0
M  V30 5802 H 545.655 0.607305 -6.6915 0
M  V30 5803 N 548.375 1.56261 0.205012 0
M  V30 5804 C 549.615 1.81823 0.933806 0
M  V30 5805 C 549.979 0.644534 1.80858 0
M  V30 5806 O 551.18 0.779819 2.5724 0
M  V30 5807 C 549.451 3.12362 1.7368 0
M  V30 5808 S 551.01 3.59296 2.51897 0
M  V30 5809 H 547.828 0.638209 0.313386 0
M  V30 5810 H 550.43 1.94495 0.198001 0
M  V30 5811 H 549.134 3.95809 1.08459 0
M  V30 5812 H 548.665 3.02542 2.5146 0
M  V30 5813 H 550.68 3.23945 3.75864 0
M  V30 5814 N 549.853 -0.472356 1.50355 0
M  V30 5815 C 550.8 -1.57051 1.69126 0
M  V30 5816 C 551.77 -1.5733 0.532574 0
M  V30 5817 O 552.955 -1.7488 0.762994 0
M  V30 5818 C 550.095 -2.95033 1.79024 0
M  V30 5819 C 549.208 -3.04552 3.06386 0
M  V30 5820 C 548.343 -4.33441 3.07087 0
M  V30 5821 C 547.382 -4.36697 4.28908 0
M  V30 5822 N 546.519 -5.57056 4.27356 0
M  V30 5823 H 551.359 -1.40351 2.62879 0
M  V30 5824 H 548.896 -0.682403 1.30314 0
M  V30 5825 H 550.854 -3.75048 1.82744 0
M  V30 5826 H 549.484 -3.10371 0.887109 0
M  V30 5827 H 548.536 -2.17419 3.12143 0
M  V30 5828 H 549.848 -3.02818 3.96362 0
M  V30 5829 H 549.002 -5.21801 3.09529 0
M  V30 5830 H 547.741 -4.37782 2.14939 0
M  V30 5831 H 546.746 -3.46734 4.2668 0
M  V30 5832 H 547.971 -4.34049 5.22282 0
M  V30 5833 H 545.917 -5.62184 3.3806 0
M  V30 5834 H 545.834 -5.57058 5.111 0
M  V30 5835 H 547.102 -6.47545 4.33942 0
M  V30 5836 N 551.331 -1.39911 -0.725443 0
M  V30 5837 C 552.261 -1.42138 -1.85254 0
M  V30 5838 C 553.242 -0.283513 -1.67721 0
M  V30 5839 O 554.427 -0.490717 -1.87898 0
M  V30 5840 C 551.557 -1.27354 -3.23107 0
M  V30 5841 C 550.511 -2.3864 -3.55296 0
M  V30 5842 C 549.837 -2.08939 -4.92188 0
M  V30 5843 C 551.137 -3.8097 -3.57295 0
M  V30 5844 H 552.831 -2.36461 -1.83648 0
M  V30 5845 H 550.377 -1.13817 -0.882138 0
M  V30 5846 H 552.33 -1.2753 -4.01639 0
M  V30 5847 H 551.054 -0.295025 -3.25265 0
M  V30 5848 H 549.713 -2.37696 -2.79099 0
M  V30 5849 H 549.361 -1.09502 -4.90936 0
M  V30 5850 H 549.061 -2.83491 -5.14691 0
M  V30 5851 H 550.585 -2.10781 -5.73065 0
M  V30 5852 H 551.999 -3.8379 -4.25885 0
M  V30 5853 H 550.396 -4.5496 -3.9132 0
M  V30 5854 H 551.466 -4.11261 -2.5689 0
M  V30 5855 N 552.809 0.956637 -1.25245 0
M  V30 5856 C 554.034 1.74104 -1.12706 0
M  V30 5857 C 554.459 1.85436 0.315429 0
M  V30 5858 O 553.817 1.33334 1.22848 0
M  V30 5859 C 553.865 3.1338 -1.78396 0
M  V30 5860 O 552.969 3.98485 -1.06224 0
M  V30 5861 H 552.31 0.53476 -0.393609 0
M  V30 5862 H 554.84 1.19924 -1.65769 0
M  V30 5863 H 554.85 3.6385 -1.846 0
M  V30 5864 H 553.525 3.04448 -2.83345 0
M  V30 5865 H 552.102 3.56952 -1.07886 0
M  V30 5866 N 554.287 1.06798 1.15896 0
M  V30 5867 C 555.703 0.792423 1.38538 0
M  V30 5868 C 555.903 -0.60592 1.92174 0
M  V30 5869 O 554.959 -1.36561 2.12385 0
M  V30 5870 C 556.272 1.86157 2.36149 0
M  V30 5871 C 557.82 1.88567 2.49823 0
M  V30 5872 C 558.295 2.9455 3.5072 0
M  V30 5873 N 559.786 2.93616 3.58251 0
M  V30 5874 C 560.521 3.72267 4.36125 0
M  V30 5875 N 560.017 4.60751 5.17379 0
M  V30 5876 N 561.81 3.60637 4.31158 0
M  V30 5877 H 553.961 1.96993 0.794198 0
M  V30 5878 H 556.224 0.853942 0.411688 0
M  V30 5879 H 555.93 2.86603 2.03843 0
M  V30 5880 H 555.804 1.71692 3.3586 0
M  V30 5881 H 558.191 0.887765 2.8143 0
M  V30 5882 H 558.272 2.0711 1.5013 0
M  V30 5883 H 557.916 3.94537 3.19849 0
M  V30 5884 H 557.846 2.73255 4.50155 0
M  V30 5885 H 560.337 2.29472 3.00252 0
M  V30 5886 H 560.65 5.17408 5.74028 0
M  V30 5887 H 558.995 4.64803 5.16704 0
M  V30 5888 H 562.186 2.90892 3.66742 0
M  V30 5889 H 562.359 4.22176 4.91601 0
M  V30 5890 N 555.766 -1.3263 0.851289 0
M  V30 5891 C 556.716 -2.26451 0.265302 0
M  V30 5892 C 557.7 -1.49814 -0.586899 0
M  V30 5893 O 558.892 -1.71525 -0.436834 0
M  V30 5894 C 556.021 -3.38895 -0.548212 0
M  V30 5895 C 555.107 -4.2292 0.316189 0
M  V30 5896 N 555.498 -4.86014 1.40084 0
M  V30 5897 C 553.796 -4.45876 0.105356 0
M  V30 5898 C 554.497 -5.48667 1.93235 0
M  V30 5899 N 553.473 -5.29455 1.232 0
M  V30 5900 H 557.275 -2.72757 1.09457 0
M  V30 5901 H 554.789 -1.4668 0.697047 0
M  V30 5902 H 556.786 -4.05111 -0.984402 0
M  V30 5903 H 555.446 -2.94135 -1.37531 0
M  V30 5904 H 556.457 -4.86212 1.78377 0
M  V30 5905 H 553.134 -4.11804 -0.687299 0
M  V30 5906 H 554.524 -6.08865 2.84135 0
M  V30 5907 N 557.244 -0.608902 -1.45362 0
M  V30 5908 C 558.207 0.0992563 -2.28985 0
M  V30 5909 C 559.207 0.793841 -1.39838 0
M  V30 5910 O 560.397 0.641804 -1.61946 0
M  V30 5911 C 557.529 1.15073 -3.20891 0
M  V30 5912 H 558.722 -0.635964 -2.93079 0
M  V30 5913 H 556.275 -0.368007 -1.51906 0
M  V30 5914 H 557.01 1.91667 -2.616 0
M  V30 5915 H 556.795 0.656867 -3.86559 0
M  V30 5916 H 558.285 1.64665 -3.83765 0
M  V30 5917 N 558.722 1.53707 -0.348139 0
M  V30 5918 C 559.652 2.28111 0.498766 0
M  V30 5919 C 560.633 1.29851 1.09876 0
M  V30 5920 O 561.818 1.587 1.11928 0
M  V30 5921 C 558.948 3.05735 1.64753 0
M  V30 5922 C 557.902 4.11537 1.17565 0
M  V30 5923 C 557.228 4.77142 2.4133 0
M  V30 5924 C 558.528 5.21587 0.272844 0
M  V30 5925 H 560.222 2.99152 -0.121934 0
M  V30 5926 H 557.768 1.43875 -0.0600842 0
M  V30 5927 H 559.721 3.56526 2.24649 0
M  V30 5928 H 558.445 2.32354 2.2952 0
M  V30 5929 H 557.104 3.61665 0.599483 0
M  V30 5930 H 556.752 4.0035 3.04514 0
M  V30 5931 H 556.452 5.48626 2.10436 0
M  V30 5932 H 557.976 5.30719 3.01943 0
M  V30 5933 H 559.39 5.67986 0.778779 0
M  V30 5934 H 557.787 6.00074 0.0555849 0
M  V30 5935 H 558.857 4.79969 -0.689785 0
M  V30 5936 N 560.2 0.0768682 1.57412 0
M  V30 5937 C 561.147 -0.888577 2.13009 0
M  V30 5938 C 562.117 -1.29198 1.0439 0
M  V30 5939 O 563.302 -1.37694 1.3208 0
M  V30 5940 C 560.442 -2.14899 2.70023 0
M  V30 5941 C 559.555 -1.79777 3.92816 0
M  V30 5942 C 558.69 -3.00467 4.38056 0
M  V30 5943 C 557.729 -2.61385 5.53484 0
M  V30 5944 N 556.866 -3.74851 5.93659 0
M  V30 5945 H 561.706 -0.407593 2.95199 0
M  V30 5946 H 559.243 -0.189534 1.45874 0
M  V30 5947 H 561.201 -2.88688 3.0119 0
M  V30 5948 H 559.831 -2.60529 1.9059 0
M  V30 5949 H 558.883 -0.960301 3.68079 0
M  V30 5950 H 560.195 -1.47027 4.76639 0
M  V30 5951 H 559.349 -3.82529 4.7091 0
M  V30 5952 H 558.088 -3.36413 3.53097 0
M  V30 5953 H 557.093 -1.77746 5.20275 0
M  V30 5954 H 558.318 -2.26603 6.40178 0
M  V30 5955 H 556.264 -4.1055 5.11649 0
M  V30 5956 H 556.181 -3.45887 6.72234 0
M  V30 5957 H 557.449 -4.57477 6.31138 0
M  V30 5958 N 561.678 -1.56367 -0.196722 0
M  V30 5959 C 562.625 -1.94417 -1.24382 0
M  V30 5960 C 563.595 -0.804543 -1.45315 0
M  V30 5961 O 564.78 -1.06256 -1.58475 0
M  V30 5962 C 561.92 -2.28757 -2.58388 0
M  V30 5963 C 561.033 -3.55775 -2.45047 0
M  V30 5964 C 560.168 -3.79445 -3.71746 0
M  V30 5965 C 559.207 -4.99894 -3.53231 0
M  V30 5966 N 558.344 -5.19826 -4.71938 0
M  V30 5967 H 563.184 -2.83691 -0.912338 0
M  V30 5968 H 560.721 -1.40392 -0.439135 0
M  V30 5969 H 562.679 -2.46682 -3.36457 0
M  V30 5970 H 561.309 -1.42625 -2.89582 0
M  V30 5971 H 560.361 -3.45905 -1.58284 0
M  V30 5972 H 561.673 -4.44 -2.27299 0
M  V30 5973 H 560.827 -3.97601 -4.58256 0
M  V30 5974 H 559.566 -2.89546 -3.92446 0
M  V30 5975 H 558.571 -4.81662 -2.65107 0
M  V30 5976 H 559.796 -5.913 -3.33978 0
M  V30 5977 H 557.742 -4.32875 -4.92905 0
M  V30 5978 H 557.659 -6.02228 -4.57009 0
M  V30 5979 H 558.927 -5.42439 -5.59803 0
M  V30 5980 N 563.156 0.464375 -1.50603 0
M  V30 5981 C 564.404 1.21356 -1.61608 0
M  V30 5982 C 564.725 1.92329 -0.321643 0
M  V30 5983 O 563.995 1.84403 0.661232 0
M  V30 5984 H 562.575 0.45094 -0.595535 0
M  V30 5985 H 565.237 0.535046 -1.87412 0
M  V30 5986 H 564.333 1.95783 -2.43054 0
M  V30 5987 N 564.634 1.40294 0.718013 0
M  V30 5988 C 565.859 1.41941 1.5122 0
M  V30 5989 C 566.284 0.0202371 1.88089 0
M  V30 5990 O 565.642 -0.971078 1.53101 0
M  V30 5991 C 565.69 2.3141 2.76554 0
M  V30 5992 O 564.794 1.75567 3.73162 0
M  V30 5993 H 564.135 0.482644 0.456016 0
M  V30 5994 H 566.665 1.84494 0.884478 0
M  V30 5995 H 566.675 2.46513 3.25108 0
M  V30 5996 H 565.35 3.33085 2.49053 0
M  V30 5997 H 563.927 1.69798 3.31999 0
M  V30 5998 N 566.112 -0.949982 1.2575 0
M  V30 5999 C 567.062 -2.03297 1.03221 0
M  V30 6000 C 568.046 -1.60867 -0.0324751 0
M  V30 6001 O 569.238 -1.76047 0.183423 0
M  V30 6002 C 566.367 -3.36938 0.657841 0
M  V30 6003 C 565.453 -3.85878 1.75952 0
M  V30 6004 N 565.844 -4.0756 2.99547 0
M  V30 6005 C 564.142 -4.14709 1.64111 0
M  V30 6006 C 564.843 -4.47961 3.71087 0
M  V30 6007 N 563.819 -4.5416 2.98731 0
M  V30 6008 H 567.621 -2.1806 1.97045 0
M  V30 6009 H 565.135 -1.13516 1.16138 0
M  V30 6010 H 567.132 -4.14155 0.477614 0
M  V30 6011 H 565.792 -3.2355 -0.273025 0
M  V30 6012 H 566.803 -3.94501 3.35544 0
M  V30 6013 H 563.48 -4.10158 0.779527 0
M  V30 6014 H 564.87 -4.73002 4.77199 0
M  V30 6015 N 567.59 -1.07411 -1.15328 0
M  V30 6016 C 568.836 -0.798831 -1.86404 0
M  V30 6017 C 569.169 0.673433 -1.8215 0
M  V30 6018 O 568.444 1.49428 -1.24505 0
M  V30 6019 C 568.727 -1.30846 -3.35487 0
M  V30 6020 C 568.58 -2.84532 -3.4837 0
M  V30 6021 C 569.899 -0.925486 -4.30259 0
M  V30 6022 H 567.018 -0.291659 -0.676834 0
M  V30 6023 H 569.66 -1.332 -1.35491 0
M  V30 6024 H 567.81 -0.854916 -3.78977 0
M  V30 6025 H 569.482 -3.3818 -3.13739 0
M  V30 6026 H 567.725 -3.22699 -2.8991 0
M  V30 6027 H 568.396 -3.15259 -4.53118 0
M  V30 6028 H 570.872 -1.3163 -3.94731 0
M  V30 6029 H 569.748 -1.3094 -5.33053 0
M  V30 6030 H 570.009 0.168525 -4.41779 0
M  V30 6031 N 569.068 1.32177 -0.85831 0
M  V30 6032 C 570.015 2.28794 -0.303607 0
M  V30 6033 C 570.985 1.55213 0.591453 0
M  V30 6034 O 572.17 1.83418 0.525585 0
M  V30 6035 C 569.31 3.41475 0.49889 0
M  V30 6036 C 568.423 4.2993 -0.422373 0
M  V30 6037 C 567.558 5.29743 0.393111 0
M  V30 6038 C 566.597 6.09842 -0.525317 0
M  V30 6039 N 565.734 7.01643 0.253208 0
M  V30 6040 H 570.574 2.75631 -1.13276 0
M  V30 6041 H 568.111 1.35606 -0.570026 0
M  V30 6042 H 570.069 4.05531 0.979826 0
M  V30 6043 H 568.699 2.95779 1.29284 0
M  V30 6044 H 567.751 3.66422 -1.02171 0
M  V30 6045 H 569.063 4.85899 -1.12709 0
M  V30 6046 H 568.217 5.9942 0.937056 0
M  V30 6047 H 566.956 4.744 1.13117 0
M  V30 6048 H 565.961 5.39066 -1.08112 0
M  V30 6049 H 567.186 6.6727 -1.26205 0
M  V30 6050 H 565.132 6.48725 0.974295 0
M  V30 6051 H 565.049 7.54981 -0.392398 0
M  V30 6052 H 566.317 7.756 0.778761 0
M  V30 6053 N 570.547 0.616602 1.45037 0
M  V30 6054 C 571.494 -0.0969439 2.30596 0
M  V30 6055 C 572.464 -0.851151 1.42635 0
M  V30 6056 O 573.649 -0.835092 1.71554 0
M  V30 6057 C 570.789 -1.08234 3.27688 0
M  V30 6058 C 569.902 -0.328072 4.30752 0
M  V30 6059 C 569.037 -1.30399 5.14946 0
M  V30 6060 C 568.076 -0.538049 6.09731 0
M  V30 6061 N 567.213 -1.46371 6.86673 0
M  V30 6062 H 572.053 0.63864 2.91076 0
M  V30 6063 H 569.59 0.326733 1.43425 0
M  V30 6064 H 571.548 -1.66688 3.82454 0
M  V30 6065 H 570.178 -1.78523 2.68941 0
M  V30 6066 H 569.23 0.372136 3.78575 0
M  V30 6067 H 570.542 0.269142 4.98073 0
M  V30 6068 H 569.696 -1.96032 5.74157 0
M  V30 6069 H 568.435 -1.93514 4.47665 0
M  V30 6070 H 567.44 0.131852 5.49642 0
M  V30 6071 H 568.665 0.0881732 6.79043 0
M  V30 6072 H 566.611 -2.08233 6.22073 0
M  V30 6073 H 566.528 -0.920152 7.50379 0
M  V30 6074 H 567.796 -2.10932 7.50418 0
M  V30 6075 N 572.025 -1.5352 0.356285 0
M  V30 6076 C 573.265 -2.03027 -0.23649 0
M  V30 6077 C 573.629 -1.23813 -1.46746 0
M  V30 6078 O 574.83 -1.63281 -2.13525 0
M  V30 6079 C 573.101 -3.53442 -0.530415 0
M  V30 6080 S 574.66 -4.24836 -1.09819 0
M  V30 6081 H 571.478 -0.707591 -0.0695378 0
M  V30 6082 H 574.08 -1.89077 0.496999 0
M  V30 6083 H 572.784 -4.087 0.373114 0
M  V30 6084 H 572.315 -3.71536 -1.29323 0
M  V30 6085 H 574.33 -4.35228 -2.38309 0
M  V30 6086 N 573.503 -0.0852151 -1.57369 0
M  V30 6087 C 574.731 0.58946 -1.98325 0
M  V30 6088 C 575.146 1.62333 -0.96403 0
M  V30 6089 O 574.503 1.82438 0.0476395 0
M  V30 6090 C 574.554 1.24604 -3.39347 0
M  V30 6091 O 574.275 0.253532 -4.37366 0
M  V30 6092 C 575.776 2.00726 -3.95252 0
M  V30 6093 H 572.996 0.158783 -0.651942 0
M  V30 6094 H 575.54 -0.161584 -2.03861 0
M  V30 6095 H 573.695 1.94808 -3.34856 0
M  V30 6096 H 574.109 0.726207 -5.19448 0
M  V30 6097 H 575.583 2.42039 -4.96106 0
M  V30 6098 H 576.06 2.86919 -3.32527 0
M  V30 6099 H 576.666 1.3536 -4.03185 0
M  V30 6100 N 574.981 1.5647 0.188427 0
M  V30 6101 C 575.929 1.95971 1.25293 0
M  V30 6102 C 576.923 0.846047 1.4676 0
M  V30 6103 O 578.129 1.03109 1.47542 0
M  V30 6104 H 574.504 0.623253 0.420784 0
M  V30 6105 H 576.475 2.84731 0.892792 0
M  V30 6106 C 575.224 2.32116 2.58877 0
M  V30 6107 H 574.547 3.17341 2.43176 0
M  V30 6108 H 575.987 2.63613 3.3209 0
M  V30 6109 C 574.446 1.15823 3.16365 0
M  V30 6110 O 574.976 0.436785 3.99318 0
M  V30 6111 N 573.182 0.933278 2.75206 0
M  V30 6112 H 572.729 1.52169 2.07852 0
M  V30 6113 H 572.687 0.156976 3.14008 0
M  V30 6114 N 576.459 -0.456382 1.50847 0
M  V30 6115 C 577.875 -0.791345 1.386 0
M  V30 6116 C 578.075 -1.9633 0.453498 0
M  V30 6117 O 577.131 -2.52308 -0.0984353 0
M  V30 6118 C 578.444 -1.08959 2.80265 0
M  V30 6119 C 579.992 -1.19517 2.89283 0
M  V30 6120 C 580.467 -1.52647 4.31814 0
M  V30 6121 N 581.958 -1.59609 4.34832 0
M  V30 6122 C 582.693 -1.86777 5.42127 0
M  V30 6123 N 582.189 -2.11866 6.59609 0
M  V30 6124 N 583.982 -1.88402 5.29586 0
M  V30 6125 H 576.133 0.315746 2.1004 0
M  V30 6126 H 578.396 0.0787916 0.94472 0
M  V30 6127 H 578.102 -0.301355 3.50407 0
M  V30 6128 H 577.976 -2.02211 3.18419 0
M  V30 6129 H 580.363 -1.97406 2.19351 0
M  V30 6130 H 580.444 -0.242111 2.54652 0
M  V30 6131 H 580.088 -0.752922 5.02288 0
M  V30 6132 H 580.018 -2.49127 4.63943 0
M  V30 6133 H 582.509 -1.42201 3.50125 0
M  V30 6134 H 582.822 -2.31912 7.37182 0
M  V30 6135 H 581.167 -2.09228 6.62758 0
M  V30 6136 H 584.358 -1.68307 4.36795 0
M  V30 6137 H 584.531 -2.09238 6.13289 0
M  V30 6138 N 577.937 -1.40673 -0.710563 0
M  V30 6139 C 578.847 -1.43663 -1.85467 0
M  V30 6140 C 579.863 -0.328721 -1.70867 0
M  V30 6141 O 581.039 -0.574098 -1.93044 0
M  V30 6142 C 578.104 -1.30226 -3.21313 0
M  V30 6143 C 577.165 -2.51204 -3.48131 0
M  V30 6144 C 576.398 -2.38398 -4.77495 0
M  V30 6145 O 576.621 -1.40048 -5.5294 0
M  V30 6146 O 575.555 -3.2787 -5.04762 0
M  V30 6147 H 579.381 -2.40156 -1.859 0
M  V30 6148 H 576.966 -1.22049 -0.861652 0
M  V30 6149 H 578.848 -1.2496 -4.02446 0
M  V30 6150 H 577.523 -0.368419 -3.21597 0
M  V30 6151 H 576.43 -2.62048 -2.66987 0
M  V30 6152 H 577.763 -3.43366 -3.52648 0
M  V30 6153 N 579.415 0.9433 -1.26252 0
M  V30 6154 C 580.831 1.21644 -1.03319 0
M  V30 6155 C 581.031 2.0003 0.242983 0
M  V30 6156 O 580.087 2.33838 0.952688 0
M  V30 6157 C 581.4 1.97978 -2.2633 0
M  V30 6158 C 582.948 2.10978 -2.31209 0
M  V30 6159 C 583.423 2.90713 -3.53907 0
M  V30 6160 N 584.914 2.98287 -3.54371 0
M  V30 6161 C 585.649 3.60406 -4.45976 0
M  V30 6162 N 585.145 4.24043 -5.47868 0
M  V30 6163 N 586.938 3.57658 -4.33633 0
M  V30 6164 H 579.089 0.419221 -2.08222 0
M  V30 6165 H 581.352 0.247995 -0.914988 0
M  V30 6166 H 581.058 1.47788 -3.19142 0
M  V30 6167 H 580.932 2.9865 -2.30408 0
M  V30 6168 H 583.319 2.6036 -1.38913 0
M  V30 6169 H 583.4 1.09575 -2.31143 0
M  V30 6170 H 583.044 2.42018 -4.46531 0
M  V30 6171 H 582.974 3.92367 -3.5122 0
M  V30 6172 H 585.465 2.53044 -2.80673 0
M  V30 6173 H 585.778 4.69334 -6.13959 0
M  V30 6174 H 584.123 4.22637 -5.51728 0
M  V30 6175 H 587.314 3.07134 -3.53251 0
M  V30 6176 H 587.487 4.05782 -5.05218 0
M  V30 6177 N 580.893 1.08022 1.14757 0
M  V30 6178 C 582.142 0.802468 1.8505 0
M  V30 6179 C 582.455 -0.674061 1.83619 0
M  V30 6180 O 583.661 -1.06683 2.49662 0
M  V30 6181 C 582.117 1.38551 3.32162 0
M  V30 6182 C 581.725 2.89354 3.42021 0
M  V30 6183 C 583.469 1.18608 4.07594 0
M  V30 6184 C 581.376 3.40815 4.83321 0
M  V30 6185 H 580.306 0.296518 0.693248 0
M  V30 6186 H 582.957 1.30114 1.29393 0
M  V30 6187 H 581.339 0.814556 3.87532 0
M  V30 6188 H 582.513 3.52552 2.96722 0
M  V30 6189 H 580.828 3.08165 2.80041 0
M  V30 6190 H 583.425 1.54525 5.11885 0
M  V30 6191 H 583.768 0.125599 4.1611 0
M  V30 6192 H 584.301 1.72375 3.58513 0
M  V30 6193 H 581.04 4.46418 4.79991 0
M  V30 6194 H 580.56 2.82374 5.29174 0
M  V30 6195 H 582.239 3.37171 5.522 0
M  V30 6196 N 582.371 -1.3172 0.865308 0
M  V30 6197 C 583.619 -1.96487 0.472995 0
M  V30 6198 C 583.94 -1.68761 -0.976975 0
M  V30 6199 O 583.21 -1.00051 -1.68424 0
M  V30 6200 H 581.79 -0.726947 0.171922 0
M  V30 6201 H 584.452 -1.60612 1.10407 0
M  V30 6202 H 583.548 -3.0574 0.62687 0
M  V30 6203 N 583.85 -0.624285 -1.44708 0
M  V30 6204 C 584.782 0.12305 -2.28869 0
M  V30 6205 C 585.795 0.81557 -1.40898 0
M  V30 6206 O 586.984 0.678162 -1.65116 0
M  V30 6207 C 584.084 1.19612 -3.1709 0
M  V30 6208 C 583.257 0.587452 -4.33437 0
M  V30 6209 C 582.316 1.55358 -5.02743 0
M  V30 6210 O 581.341 1.07338 -5.58988 0
M  V30 6211 N 582.543 2.88798 -5.03563 0
M  V30 6212 H 585.308 -0.599193 -2.93649 0
M  V30 6213 H 582.87 -0.464954 -1.5508 0
M  V30 6214 H 584.861 1.84261 -3.60319 0
M  V30 6215 H 583.432 1.82067 -2.54107 0
M  V30 6216 H 582.652 -0.237509 -3.93484 0
M  V30 6217 H 583.94 0.161326 -5.08544 0
M  V30 6218 H 583.338 3.30399 -4.59188 0
M  V30 6219 H 581.894 3.48826 -5.50603 0
M  V30 6220 N 585.328 1.53329 -0.364422 0
M  V30 6221 C 586.605 1.93557 0.281962 0
M  V30 6222 C 586.985 1.29786 1.6649 0
M  V30 6223 O 586.333 0.456512 2.23893 0
M  V30 6224 C 586.543 3.47405 0.333331 0
M  V30 6225 C 587.891 4.20699 0.574231 0
M  V30 6226 O 588.915 3.53779 0.414588 0
M  V30 6227 O 587.774 5.39287 0.885002 0
M  V30 6228 H 584.868 0.809573 0.168881 0
M  V30 6229 H 587.414 1.64494 -0.417121 0
M  V30 6230 H 586.186 3.86091 -0.636326 0
M  V30 6231 H 585.809 3.82697 1.07836 0
M  V30 6232 N 586.806 0.0935595 1.57322 0
M  V30 6233 C 588.031 -0.582324 1.99057 0
M  V30 6234 C 588.456 -1.61025 0.972242 0
M  V30 6235 O 587.814 -1.81202 -0.0594622 0
M  V30 6236 C 587.862 -1.20799 3.39765 0
M  V30 6237 O 586.966 -2.32382 3.40694 0
M  V30 6238 H 586.307 -0.147884 0.647323 0
M  V30 6239 H 588.837 0.174516 2.03854 0
M  V30 6240 H 588.847 -1.54966 3.77425 0
M  V30 6241 H 587.522 -0.454914 4.13405 0
M  V30 6242 H 586.099 -1.99845 3.14827 0
M  V30 6243 N 588.284 -1.56567 -0.180126 0
M  V30 6244 C 589.247 -1.94852 -1.20686 0
M  V30 6245 C 590.247 -0.831212 -1.3765 0
M  V30 6246 O 591.437 -1.09841 -1.35206 0
M  V30 6247 C 588.569 -2.23565 -2.57355 0
M  V30 6248 H 589.762 -2.86722 -0.879225 0
M  V30 6249 H 587.315 -1.50489 -0.422237 0
M  V30 6250 H 588.05 -1.34381 -2.95148 0
M  V30 6251 H 587.835 -3.04999 -2.46411 0
M  V30 6252 H 589.325 -2.54137 -3.31367 0
M  V30 6253 N 589.762 0.448376 -1.51087 0
M  V30 6254 C 590.992 1.21965 -1.66757 0
M  V30 6255 C 591.4 1.85748 -0.359753 0
M  V30 6256 O 590.743 1.71022 0.670604 0
M  V30 6257 C 590.805 2.35284 -2.71812 0
M  V30 6258 C 590.469 1.91957 -4.1473 0
M  V30 6259 C 591.466 1.42921 -4.9987 0
M  V30 6260 C 589.151 1.99985 -4.60772 0
M  V30 6261 C 591.145 1.02485 -6.29107 0
M  V30 6262 C 588.832 1.5916 -5.90009 0
M  V30 6263 C 589.83 1.10491 -6.74004 0
M  V30 6264 O 589.518 0.702413 -8.00825 0
M  V30 6265 H 589.25 0.374125 -0.563034 0
M  V30 6266 H 591.804 0.538927 -1.98204 0
M  V30 6267 H 590.034 3.06599 -2.35657 0
M  V30 6268 H 591.723 2.97184 -2.76472 0
M  V30 6269 H 592.489 1.36123 -4.65506 0
M  V30 6270 H 588.368 2.36814 -3.95525 0
M  V30 6271 H 591.912 0.644271 -6.94619 0
M  V30 6272 H 587.809 1.65626 -6.2389 0
M  V30 6273 H 588.577 0.829248 -8.14288 0
M  V30 6274 N 591.24 1.41047 0.703093 0
M  V30 6275 C 592.15 1.44645 1.84703 0
M  V30 6276 C 593.166 0.337778 1.7069 0
M  V30 6277 O 594.342 0.584327 1.92737 0
M  V30 6278 C 591.407 1.31928 3.20618 0
M  V30 6279 C 590.468 2.53047 3.46794 0
M  V30 6280 C 589.701 2.40927 4.76224 0
M  V30 6281 O 589.924 1.42978 5.5219 0
M  V30 6282 O 588.858 3.30543 5.03016 0
M  V30 6283 H 592.684 2.41139 1.84624 0
M  V30 6284 H 590.269 1.22504 0.855167 0
M  V30 6285 H 592.151 1.27092 4.01778 0
M  V30 6286 H 590.826 0.385469 3.21397 0
M  V30 6287 H 589.733 2.6346 2.65593 0
M  V30 6288 H 591.066 3.45231 3.50822 0
M  V30 6289 N 592.718 -0.936591 1.26751 0
M  V30 6290 C 593.65 -2.03991 1.045 0
M  V30 6291 C 594.663 -1.628 0.00394261 0
M  V30 6292 O 595.852 -1.76817 0.244526 0
M  V30 6293 C 592.952 -3.34218 0.561403 0
M  V30 6294 C 592.125 -4.04151 1.67274 0
M  V30 6295 C 591.184 -5.12651 1.1864 0
M  V30 6296 O 590.21 -5.37104 1.88437 0
M  V30 6297 N 591.412 -5.80488 0.037278 0
M  V30 6298 H 594.177 -2.23644 1.99508 0
M  V30 6299 H 591.738 -1.10638 1.18198 0
M  V30 6300 H 593.73 -4.04101 0.220136 0
M  V30 6301 H 592.3 -3.11203 -0.295211 0
M  V30 6302 H 591.52 -3.28121 2.18472 0
M  V30 6303 H 592.808 -4.47626 2.41885 0
M  V30 6304 H 592.206 -5.63064 -0.545494 0
M  V30 6305 H 590.763 -6.5134 -0.244877 0
M  V30 6306 N 594.196 -1.08629 -1.14182 0
M  V30 6307 C 595.106 -0.730126 -2.22949 0
M  V30 6308 C 596.122 0.26436 -1.7198 0
M  V30 6309 O 597.298 0.107742 -2.01112 0
M  V30 6310 C 594.363 -0.147227 -3.46387 0
M  V30 6311 C 593.424 -1.19662 -4.12286 0
M  V30 6312 C 592.657 -0.641437 -5.29831 0
M  V30 6313 O 592.88 0.538351 -5.67854 0
M  V30 6314 O 591.814 -1.39257 -5.85569 0
M  V30 6315 H 595.64 -1.63753 -2.55771 0
M  V30 6316 H 593.225 -0.860118 -1.22157 0
M  V30 6317 H 595.107 0.174923 -4.21037 0
M  V30 6318 H 593.782 0.733304 -3.15285 0
M  V30 6319 H 592.689 -1.57133 -3.395 0
M  V30 6320 H 594.022 -2.0495 -4.475 0
M  V30 6321 N 595.674 1.31259 -0.872281 0
M  V30 6322 C 596.922 1.96233 -0.483409 0
M  V30 6323 C 597.243 1.69276 0.968012 0
M  V30 6324 O 596.513 1.00943 1.67891 0
M  V30 6325 H 595.093 0.726025 -0.175774 0
M  V30 6326 H 597.755 1.60024 -1.11258 0
M  V30 6327 H 596.851 3.05403 -0.643075 0
M  V30 6328 N 597.152 0.631951 1.44375 0
M  V30 6329 C 598.099 -0.0724807 2.30686 0
M  V30 6330 C 599.069 -0.835975 1.43529 0
M  V30 6331 O 600.254 -0.816849 1.7243 0
M  V30 6332 C 597.394 -1.04753 3.28817 0
M  V30 6333 C 596.507 -0.282367 4.31076 0
M  V30 6334 C 595.642 -1.2493 5.163 0
M  V30 6335 C 594.681 -0.473349 6.10267 0
M  V30 6336 N 593.818 -1.39079 6.88187 0
M  V30 6337 H 598.658 0.669477 2.90383 0
M  V30 6338 H 596.195 0.341927 1.43071 0
M  V30 6339 H 598.153 -1.62623 3.842 0
M  V30 6340 H 596.783 -1.75661 2.70819 0
M  V30 6341 H 595.835 0.412268 3.78159 0
M  V30 6342 H 597.147 0.321955 4.9776 0
M  V30 6343 H 596.301 -1.89931 5.76204 0
M  V30 6344 H 595.04 -1.88755 4.49692 0
M  V30 6345 H 594.045 0.190142 5.49471 0
M  V30 6346 H 595.27 0.16019 6.78911 0
M  V30 6347 H 593.216 -2.01623 6.24247 0
M  V30 6348 H 593.133 -0.840513 7.51313 0
M  V30 6349 H 594.401 -2.02961 7.52613 0
M  V30 6350 N 598.631 -1.53133 0.372548 0
M  V30 6351 C 599.877 -2.01654 -0.215277 0
M  V30 6352 C 600.21 -1.25914 -1.47849 0
M  V30 6353 O 599.485 -0.3548 -1.91237 0
M  V30 6354 C 599.768 -3.56609 -0.500187 0
M  V30 6355 C 599.621 -4.43036 0.777145 0
M  V30 6356 C 600.94 -4.20528 -1.29786 0
M  V30 6357 H 598.059 -0.732991 -0.0767686 0
M  V30 6358 H 600.701 -1.83335 0.498814 0
M  V30 6359 H 598.851 -3.7235 -1.10852 0
M  V30 6360 H 600.523 -4.39079 1.41447 0
M  V30 6361 H 598.766 -4.10723 1.39604 0
M  V30 6362 H 599.437 -5.49424 0.532662 0
M  V30 6363 H 601.913 -4.08663 -0.783198 0
M  V30 6364 H 600.789 -5.28962 -1.46596 0
M  V30 6365 H 601.05 -3.77051 -2.30836 0
M  V30 6366 N 600.109 -0.101901 -1.5727 0
M  V30 6367 C 601.041 0.884723 -2.11436 0
M  V30 6368 C 602.054 1.24149 -1.05314 0
M  V30 6369 O 603.243 1.19341 -1.3274 0
M  V30 6370 C 600.343 2.19179 -2.58484 0
M  V30 6371 C 599.516 2.00933 -3.88516 0
M  V30 6372 C 598.575 3.15213 -4.2134 0
M  V30 6373 O 597.601 2.88877 -4.90448 0
M  V30 6374 N 598.803 4.41174 -3.77288 0
M  V30 6375 H 601.568 0.422058 -2.96713 0
M  V30 6376 H 599.129 0.0830128 -1.61687 0
M  V30 6377 H 601.121 2.94593 -2.77484 0
M  V30 6378 H 599.691 2.56847 -1.7818 0
M  V30 6379 H 598.911 1.09809 -3.78597 0
M  V30 6380 H 600.199 1.86026 -4.73573 0
M  V30 6381 H 599.597 4.6545 -3.21516 0
M  V30 6382 H 598.154 5.13515 -4.01429 0
M  V30 6383 N 601.587 1.56661 0.17182 0
M  V30 6384 C 602.834 1.81965 0.888529 0
M  V30 6385 C 603.162 0.6789 1.82267 0
M  V30 6386 O 602.417 -0.333875 1.92831 0
M  V30 6387 C 602.716 3.13435 1.71736 0
M  V30 6388 C 602.382 4.41159 0.932184 0
M  V30 6389 C 601.044 4.75851 0.715481 0
M  V30 6390 C 603.396 5.19803 0.381387 0
M  V30 6391 C 600.724 5.86666 -0.063126 0
M  V30 6392 C 603.076 6.31433 -0.384129 0
M  V30 6393 C 601.74 6.64692 -0.611637 0
M  V30 6394 H 601.01 0.665859 0.325136 0
M  V30 6395 H 603.657 1.90884 0.153495 0
M  V30 6396 H 601.962 2.99857 2.52177 0
M  V30 6397 H 603.659 3.30224 2.27493 0
M  V30 6398 H 600.249 4.13947 1.11112 0
M  V30 6399 H 604.433 4.93396 0.536148 0
M  V30 6400 H 599.689 6.10892 -0.249136 0
M  V30 6401 H 603.863 6.91577 -0.818185 0
M  V30 6402 H 601.49 7.50398 -1.21684 0
M  V30 6403 N 603.065 -0.440357 1.51323 0
M  V30 6404 C 604.311 -1.19181 1.64085 0
M  V30 6405 C 604.644 -1.90936 0.354575 0
M  V30 6406 O 603.919 -1.8347 -0.645675 0
M  V30 6407 C 604.202 -2.2112 2.84215 0
M  V30 6408 C 604.055 -1.53468 4.22809 0
M  V30 6409 C 605.374 -3.22133 2.99864 0
M  V30 6410 H 602.493 -0.431924 0.597169 0
M  V30 6411 H 605.135 -0.481443 1.83799 0
M  V30 6412 H 603.285 -2.81703 2.67537 0
M  V30 6413 H 604.957 -0.962455 4.51148 0
M  V30 6414 H 603.2 -0.837086 4.25647 0
M  V30 6415 H 603.871 -2.27694 5.02852 0
M  V30 6416 H 606.347 -2.71601 3.15233 0
M  V30 6417 H 605.223 -3.90756 3.85488 0
M  V30 6418 H 605.484 -3.88061 2.11804 0
M  V30 6419 N 604.543 -1.41418 -0.695603 0
M  V30 6420 C 605.792 -1.40073 -1.4513 0
M  V30 6421 C 606.105 -0.0130439 -1.95596 0
M  V30 6422 O 607.311 0.123032 -2.71221 0
M  V30 6423 C 605.767 -2.46286 -2.62433 0
M  V30 6424 C 605.375 -3.90962 -2.18753 0
M  V30 6425 C 607.119 -2.54077 -3.40066 0
M  V30 6426 C 605.026 -4.88728 -3.33015 0
M  V30 6427 H 603.956 -0.520903 -0.545138 0
M  V30 6428 H 606.607 -1.67242 -0.75515 0
M  V30 6429 H 604.989 -2.12248 -3.34315 0
M  V30 6430 H 606.163 -4.34248 -1.54161 0
M  V30 6431 H 604.478 -3.86831 -1.54114 0
M  V30 6432 H 607.075 -3.24303 -4.25125 0
M  V30 6433 H 607.418 -1.5776 -3.8525 0
M  V30 6434 H 607.951 -2.87206 -2.75241 0
M  V30 6435 H 604.69 -5.86449 -2.92844 0
M  V30 6436 H 604.21 -4.50091 -3.96457 0
M  V30 6437 H 605.889 -5.09483 -3.98793 0
M  V30 6438 N 606.021 0.929856 -1.27246 0
M  V30 6439 C 607.298 1.65544 -1.04186 0
M  V30 6440 C 607.678 2.06796 0.424097 0
M  V30 6441 O 607.026 1.80053 1.40688 0
M  V30 6442 C 607.236 2.85912 -2.00138 0
M  V30 6443 C 608.584 3.57305 -2.29387 0
M  V30 6444 O 609.608 2.96036 -1.98094 0
M  V30 6445 O 608.467 4.67688 -2.82719 0
M  V30 6446 H 605.561 0.725473 -0.397011 0
M  V30 6447 H 608.107 0.980583 -1.38501 0
M  V30 6448 H 606.879 2.52403 -2.99013 0
M  V30 6449 H 606.502 3.61118 -1.66371 0
M  V30 6450 N 607.499 1.09233 1.13605 0
M  V30 6451 C 608.462 0.733553 2.17144 0
M  V30 6452 C 609.462 -0.235873 1.59061 0
M  V30 6453 O 610.652 -0.0143167 1.74194 0
M  V30 6454 C 607.784 0.084471 3.40795 0
M  V30 6455 H 608.977 1.65049 2.50397 0
M  V30 6456 H 606.53 0.891264 1.28399 0
M  V30 6457 H 607.265 -0.843795 3.1313 0
M  V30 6458 H 607.05 0.781985 3.84223 0
M  V30 6459 H 608.54 -0.151216 4.17326 0
M  V30 6460 N 608.977 -1.30795 0.87923 0
M  V30 6461 C 610.223 -1.96653 0.495519 0
M  V30 6462 C 610.556 -1.69282 -0.951703 0
M  V30 6463 O 609.831 -0.994374 -1.6716 0
M  V30 6464 C 610.114 -3.51898 0.764174 0
M  V30 6465 C 609.967 -3.88808 2.2616 0
M  V30 6466 C 611.286 -4.39462 0.236825 0
M  V30 6467 H 608.405 -0.7143 0.181507 0
M  V30 6468 H 611.047 -1.54765 1.10217 0
M  V30 6469 H 609.197 -3.87709 0.247841 0
M  V30 6470 H 610.869 -3.63051 2.8459 0
M  V30 6471 H 609.112 -3.37082 2.73053 0
M  V30 6472 H 609.783 -4.97086 2.4002 0
M  V30 6473 H 612.259 -4.10528 0.678683 0
M  V30 6474 H 611.135 -5.47018 0.454176 0
M  V30 6475 H 611.396 -4.33621 -0.861683 0
M  V30 6476 N 610.455 -0.639598 -1.44038 0
M  V30 6477 C 611.685 -0.154586 -2.06021 0
M  V30 6478 C 612.093 1.17951 -1.47933 0
M  V30 6479 O 611.436 1.73627 -0.59994 0
M  V30 6480 C 611.498 0.0255459 -3.59491 0
M  V30 6481 C 611.162 -1.2317 -4.40089 0
M  V30 6482 C 612.159 -2.15735 -4.73027 0
M  V30 6483 C 609.844 -1.46949 -4.80324 0
M  V30 6484 C 611.838 -3.30382 -5.45093 0
M  V30 6485 C 609.525 -2.61891 -5.52138 0
M  V30 6486 C 610.523 -3.53433 -5.84443 0
M  V30 6487 O 610.211 -4.6637 -6.54793 0
M  V30 6488 H 609.943 -0.0808543 -0.671147 0
M  V30 6489 H 612.497 -0.876541 -1.85758 0
M  V30 6490 H 610.727 0.802733 -3.78276 0
M  V30 6491 H 612.416 0.466184 -4.03214 0
M  V30 6492 H 613.182 -1.98602 -4.42473 0
M  V30 6493 H 609.061 -0.765815 -4.54595 0
M  V30 6494 H 612.605 -4.01856 -5.70226 0
M  V30 6495 H 608.502 -2.78964 -5.82108 0
M  V30 6496 H 609.27 -4.6546 -6.73267 0
M  V30 6497 N 611.933 1.52934 -0.380664 0
M  V30 6498 C 612.896 2.24809 0.446473 0
M  V30 6499 C 613.896 1.26133 0.997347 0
M  V30 6500 O 615.086 1.50297 0.880714 0
M  V30 6501 C 612.218 2.99649 1.62553 0
M  V30 6502 H 613.411 2.99343 -0.182677 0
M  V30 6503 H 610.964 1.55736 -0.132618 0
M  V30 6504 H 611.699 2.29395 2.29235 0
M  V30 6505 H 611.484 3.72066 1.23732 0
M  V30 6506 H 612.974 3.54246 2.21133 0
M  V30 6507 N 613.412 0.11024 1.57214 0
M  V30 6508 C 614.345 -0.880224 2.1054 0
M  V30 6509 C 615.323 -1.26658 1.01964 0
M  V30 6510 O 616.507 -1.36917 1.29561 0
M  V30 6511 C 613.634 -2.17676 2.59489 0
M  V30 6512 C 612.68 -1.93914 3.79868 0
M  V30 6513 S 613.513 -1.16336 5.2271 0
M  V30 6514 C 614.669 -2.47188 5.75021 0
M  V30 6515 H 614.902 -0.426614 2.94223 0
M  V30 6516 H 612.435 -0.10336 1.54054 0
M  V30 6517 H 614.393 -2.92175 2.88347 0
M  V30 6518 H 613.054 -2.60156 1.76005 0
M  V30 6519 H 612.247 -2.8996 4.12236 0
M  V30 6520 H 611.849 -1.27539 3.51582 0
M  V30 6521 H 614.141 -3.43079 5.84211 0
M  V30 6522 H 615.084 -2.19377 6.7326 0
M  V30 6523 H 615.492 -2.56154 5.03036 0
M  V30 6524 N 614.89 -1.56749 -0.16351 0
M  V30 6525 C 616.138 -1.82074 -0.87713 0
M  V30 6526 C 616.459 -0.688503 -1.82441 0
M  V30 6527 O 615.729 0.291085 -1.93725 0
M  V30 6528 H 614.309 -0.671677 -0.326893 0
M  V30 6529 H 616.971 -1.9423 -0.161459 0
M  V30 6530 H 616.067 -2.76407 -1.44934 0
M  V30 6531 N 616.368 0.432326 -1.51554 0
M  V30 6532 C 617.318 1.52366 -1.69614 0
M  V30 6533 C 618.302 1.51205 -0.550083 0
M  V30 6534 O 619.494 1.57573 -0.806206 0
M  V30 6535 C 616.623 2.90513 -1.82913 0
M  V30 6536 C 615.709 2.9641 -3.03318 0
M  V30 6537 N 616.1 2.72043 -4.26411 0
M  V30 6538 C 614.398 3.27572 -3.02675 0
M  V30 6539 C 615.099 2.83912 -5.07709 0
M  V30 6540 N 614.075 3.15798 -4.42462 0
M  V30 6541 H 617.877 1.32285 -2.62446 0
M  V30 6542 H 615.391 0.639708 -1.4927 0
M  V30 6543 H 617.388 3.69032 -1.93962 0
M  V30 6544 H 616.048 3.1161 -0.912655 0
M  V30 6545 H 617.059 2.46876 -4.55272 0
M  V30 6546 H 613.736 3.54411 -2.20678 0
M  V30 6547 H 615.126 2.68984 -6.15709 0
M  V30 6548 N 617.846 1.41785 0.688094 0
M  V30 6549 C 618.809 1.43936 1.78368 0
M  V30 6550 C 619.809 0.328866 1.57401 0
M  V30 6551 O 620.999 0.589093 1.63937 0
M  V30 6552 C 618.131 1.25804 3.16838 0
M  V30 6553 H 619.324 2.41472 1.77852 0
M  V30 6554 H 616.877 1.28037 0.896448 0
M  V30 6555 H 617.612 0.291386 3.22988 0
M  V30 6556 H 617.397 2.06272 3.33458 0
M  V30 6557 H 618.887 1.30162 3.96797 0
M  V30 6558 N 619.324 -0.923095 1.27737 0
M  V30 6559 C 620.254 -2.04124 1.13383 0
M  V30 6560 C 621.235 -1.70066 0.0340658 0
M  V30 6561 O 622.42 -1.93068 0.209383 0
M  V30 6562 C 619.55 -3.3831 0.785097 0
M  V30 6563 C 618.504 -3.86496 1.8386 0
M  V30 6564 C 617.83 -5.1754 1.34373 0
M  V30 6565 C 619.13 -4.09381 3.24353 0
M  V30 6566 H 620.824 -2.1639 2.06919 0
M  V30 6567 H 618.37 -1.03976 0.996243 0
M  V30 6568 H 620.323 -4.16016 0.671485 0
M  V30 6569 H 619.047 -3.2607 -0.185969 0
M  V30 6570 H 617.706 -3.10987 1.9412 0
M  V30 6571 H 617.354 -5.01696 0.361989 0
M  V30 6572 H 617.054 -5.50751 2.04811 0
M  V30 6573 H 618.578 -5.97811 1.24315 0
M  V30 6574 H 619.992 -4.77641 3.17067 0
M  V30 6575 H 618.389 -4.53906 3.92542 0
M  V30 6576 H 619.459 -3.14515 3.69064 0
M  V30 6577 N 620.802 -1.09834 -1.13024 0
M  V30 6578 C 621.752 -0.710899 -2.16634 0
M  V30 6579 C 622.736 0.276836 -1.58501 0
M  V30 6580 O 623.928 0.0865457 -1.76788 0
M  V30 6581 C 621.057 -0.137574 -3.43024 0
M  V30 6582 C 620.143 -1.15198 -4.08155 0
M  V30 6583 N 620.534 -2.34054 -4.48388 0
M  V30 6584 C 618.832 -0.991074 -4.34849 0
M  V30 6585 C 619.533 -2.98616 -4.99203 0
M  V30 6586 N 618.509 -2.26159 -4.94321 0
M  V30 6587 H 622.311 -1.61576 -2.455 0
M  V30 6588 H 619.825 -0.975158 -1.29863 0
M  V30 6589 H 621.822 0.158031 -4.166 0
M  V30 6590 H 620.482 0.762088 -3.1563 0
M  V30 6591 H 621.493 -2.7162 -4.40957 0
M  V30 6592 H 618.17 -0.146448 -4.17243 0
M  V30 6593 H 619.56 -3.99683 -5.40096 0
M  V30 6594 N 622.28 1.30327 -0.886154 0
M  V30 6595 C 623.243 2.26376 -0.358687 0
M  V30 6596 C 624.243 1.52845 0.499498 0
M  V30 6597 O 625.433 1.71483 0.306485 0
M  V30 6598 C 622.565 3.37379 0.488726 0
M  V30 6599 H 623.758 2.74547 -1.20681 0
M  V30 6600 H 621.311 1.41536 -0.663113 0
M  V30 6601 H 622.046 2.94526 1.35739 0
M  V30 6602 H 621.831 3.91897 -0.126003 0
M  V30 6603 H 623.321 4.08868 0.84952 0
M  V30 6604 N 623.758 0.647228 1.43697 0
M  V30 6605 C 624.691 -0.097646 2.27991 0
M  V30 6606 C 625.669 -0.83571 1.3948 0
M  V30 6607 O 626.853 -0.836509 1.68922 0
M  V30 6608 C 623.98 -1.14484 3.18765 0
M  V30 6609 C 623.026 -0.505503 4.23494 0
M  V30 6610 S 623.859 0.716471 5.30685 0
M  V30 6611 C 625.015 -0.330339 6.25028 0
M  V30 6612 H 625.248 0.617417 2.90818 0
M  V30 6613 H 622.781 0.435881 1.4812 0
M  V30 6614 H 624.739 -1.74403 3.7161 0
M  V30 6615 H 623.4 -1.83219 2.55127 0
M  V30 6616 H 622.593 -1.29473 4.87086 0
M  V30 6617 H 622.195 0.0194377 3.73995 0
M  V30 6618 H 624.487 -1.19828 6.66819 0
M  V30 6619 H 625.43 0.270409 7.07583 0
M  V30 6620 H 625.838 -0.663459 5.60588 0
M  V30 6621 N 625.236 -1.5273 0.388769 0
M  V30 6622 C 626.186 -2.23238 -0.463567 0
M  V30 6623 C 627.17 -1.23606 -1.03007 0
M  V30 6624 O 628.362 -1.48945 -0.956261 0
M  V30 6625 C 625.491 -3.04228 -1.5906 0
M  V30 6626 C 624.577 -4.11255 -1.03587 0
M  V30 6627 N 624.968 -5.0538 -0.206038 0
M  V30 6628 C 623.266 -4.26376 -1.30841 0
M  V30 6629 C 623.967 -5.81613 0.100359 0
M  V30 6630 N 622.943 -5.41264 -0.503447 0
M  V30 6631 H 626.745 -2.93367 0.176978 0
M  V30 6632 H 624.259 -1.61188 0.198046 0
M  V30 6633 H 626.256 -3.53277 -2.21362 0
M  V30 6634 H 624.916 -2.35634 -2.23398 0
M  V30 6635 H 625.927 -5.17663 0.156659 0
M  V30 6636 H 622.604 -3.69011 -1.95287 0
M  V30 6637 H 623.994 -6.67442 0.772676 0
M  V30 6638 N 626.714 -0.118576 -1.57153 0
M  V30 6639 C 628.13 0.238014 -1.57815 0
M  V30 6640 C 628.33 1.66747 -1.13127 0
M  V30 6641 O 627.386 2.38867 -0.818462 0
M  V30 6642 C 628.699 0.00508207 -3.007 0
M  V30 6643 C 630.247 0.0710139 -3.12919 0
M  V30 6644 C 630.722 -0.13422 -4.57803 0
M  V30 6645 N 632.213 -0.0801755 -4.63131 0
M  V30 6646 C 632.948 -0.213885 -5.73001 0
M  V30 6647 N 632.444 -0.403742 -6.91623 0
M  V30 6648 N 634.237 -0.15349 -5.6189 0
M  V30 6649 H 626.388 -1.05226 -1.84503 0
M  V30 6650 H 628.651 -0.414318 -0.852669 0
M  V30 6651 H 628.357 -0.983125 -3.3768 0
M  V30 6652 H 628.231 0.73714 -3.69927 0
M  V30 6653 H 630.618 1.04975 -2.75798 0
M  V30 6654 H 630.699 -0.692918 -2.46236 0
M  V30 6655 H 630.343 -1.10992 -4.95624 0
M  V30 6656 H 630.273 0.649692 -5.22577 0
M  V30 6657 H 632.764 0.0630689 -3.77847 0
M  V30 6658 H 633.077 -0.496645 -7.71202 0
M  V30 6659 H 631.422 -0.43971 -6.93608 0
M  V30 6660 H 634.613 -0.00613174 -4.681 0
M  V30 6661 H 634.786 -0.261138 -6.47474 0
M  V30 6662 N 628.193 1.56834 0.155195 0
M  V30 6663 C 629.47 1.73799 0.897395 0
M  V30 6664 C 629.85 0.684379 1.99698 0
M  V30 6665 O 629.198 -0.298111 2.26547 0
M  V30 6666 C 629.408 3.17572 1.44737 0
M  V30 6667 C 630.756 3.79014 1.91399 0
M  V30 6668 O 631.78 3.20951 1.54496 0
M  V30 6669 O 630.639 4.80998 2.59429 0
M  V30 6670 H 627.733 0.710329 0.423511 0
M  V30 6671 H 630.279 1.69107 0.141761 0
M  V30 6672 H 629.051 3.85749 0.656741 0
M  V30 6673 H 628.674 3.26657 2.26674 0
M  V30 6674 N 629.671 -0.424282 1.51781 0
M  V30 6675 C 630.601 -1.52305 1.7699 0
M  V30 6676 C 631.582 -1.5839 0.620209 0
M  V30 6677 O 632.767 -1.73908 0.864268 0
M  V30 6678 C 629.897 -2.90271 1.90683 0
M  V30 6679 C 628.851 -2.99043 3.06198 0
M  V30 6680 C 628.177 -4.39116 3.05092 0
M  V30 6681 C 629.477 -2.7192 4.45934 0
M  V30 6682 H 631.171 -1.31461 2.68995 0
M  V30 6683 H 628.717 -0.630985 1.29439 0
M  V30 6684 H 630.67 -3.6711 2.06901 0
M  V30 6685 H 629.394 -3.12376 0.953365 0
M  V30 6686 H 628.053 -2.24646 2.89706 0
M  V30 6687 H 627.701 -4.58207 2.07498 0
M  V30 6688 H 627.401 -4.45912 3.82669 0
M  V30 6689 H 628.925 -5.17911 3.2342 0
M  V30 6690 H 630.339 -3.38487 4.62709 0
M  V30 6691 H 628.736 -2.90111 5.25315 0
M  V30 6692 H 629.806 -1.67445 4.55072 0
M  V30 6693 N 631.149 -1.42148 -0.680565 0
M  V30 6694 C 632.389 -1.4379 -1.45271 0
M  V30 6695 C 632.753 -0.0504426 -1.91934 0
M  V30 6696 O 633.954 0.0583916 -2.68737 0
M  V30 6697 C 632.225 -2.42904 -2.62168 0
M  V30 6698 S 633.784 -2.63201 -3.51099 0
M  V30 6699 H 630.602 -0.509185 -0.496237 0
M  V30 6700 H 633.204 -1.78706 -0.792744 0
M  V30 6701 H 631.908 -3.4249 -2.26116 0
M  V30 6702 H 631.439 -2.09394 -3.33043 0
M  V30 6703 H 633.454 -1.91068 -4.57938 0
M  V30 6704 N 632.627 0.916307 -1.28225 0
M  V30 6705 C 634.038 1.48024 -1.13779 0
M  V30 6706 C 634.389 1.94289 0.273139 0
M  V30 6707 O 633.514 1.82226 1.16716 0
M  V30 6708 C 634.109 2.69029 -2.05935 0
M  V30 6709 C 632.668 3.2161 -1.95561 0
M  V30 6710 C 631.815 1.94321 -1.97825 0
M  V30 6711 H 634.766 0.729272 -1.40951 0
M  V30 6712 H 634.787 3.44204 -1.62184 0
M  V30 6713 H 634.299 2.35325 -3.08616 0
M  V30 6714 H 632.4 3.60045 -0.959076 0
M  V30 6715 H 632.513 3.87032 -2.82388 0
M  V30 6716 H 630.877 2.1131 -1.42198 0
M  V30 6717 H 631.66 1.62917 -3.0218 0
M  V30 6718 N 634.105 1.10431 1.1244 0
M  V30 6719 C 635.353 0.845045 1.83585 0
M  V30 6720 C 635.674 -0.631168 1.84503 0
M  V30 6721 O 634.944 -1.45825 1.30813 0
M  V30 6722 H 633.524 0.309628 0.679809 0
M  V30 6723 H 636.186 1.39458 1.36153 0
M  V30 6724 H 635.282 1.20786 2.8778 0
M  V30 6725 N 635.583 -1.29855 0.893053 0
M  V30 6726 C 636.999 -1.48366 0.588199 0
M  V30 6727 C 637.199 -1.81654 -0.872018 0
M  V30 6728 O 636.255 -1.909 -1.65268 0
M  V30 6729 C 637.568 -2.60136 1.5083 0
M  V30 6730 C 639.116 -2.74014 1.51279 0
M  V30 6731 C 639.591 -3.88905 2.41902 0
M  V30 6732 N 641.082 -3.96228 2.39911 0
M  V30 6733 C 641.817 -4.84458 3.06738 0
M  V30 6734 N 641.313 -5.77426 3.8282 0
M  V30 6735 N 643.106 -4.77894 2.95929 0
M  V30 6736 H 635.257 -1.06522 1.83757 0
M  V30 6737 H 637.52 -0.528495 0.787018 0
M  V30 6738 H 637.226 -2.42383 2.54839 0
M  V30 6739 H 637.1 -3.56793 1.22388 0
M  V30 6740 H 639.487 -2.91167 0.480179 0
M  V30 6741 H 639.568 -1.77952 1.83757 0
M  V30 6742 H 639.212 -3.72508 3.45253 0
M  V30 6743 H 639.142 -4.84322 2.06737 0
M  V30 6744 H 641.633 -3.29728 1.84629 0
M  V30 6745 H 641.946 -6.41529 4.30883 0
M  V30 6746 H 640.291 -5.77332 3.86927 0
M  V30 6747 H 643.482 -4.04248 2.36012 0
M  V30 6748 H 643.655 -5.46444 3.48286 0
M  V30 6749 N 637.061 -0.65484 -1.43351 0
M  V30 6750 C 638.307 -0.169142 -2.02093 0
M  V30 6751 C 638.64 1.21431 -1.51553 0
M  V30 6752 O 637.915 1.81105 -0.709317 0
M  V30 6753 C 638.198 -0.181775 -3.59641 0
M  V30 6754 C 638.051 -1.59926 -4.20409 0
M  V30 6755 C 639.37 0.480945 -4.37464 0
M  V30 6756 H 636.489 -0.0629371 -0.734308 0
M  V30 6757 H 639.131 -0.835833 -1.70628 0
M  V30 6758 H 637.281 0.385918 -3.86578 0
M  V30 6759 H 638.953 -2.21766 -4.04497 0
M  V30 6760 H 637.196 -2.14605 -3.76998 0
M  V30 6761 H 637.867 -1.55994 -5.295 0
M  V30 6762 H 640.343 -0.00208273 -4.161 0
M  V30 6763 H 639.219 0.441384 -5.47122 0
M  V30 6764 H 639.48 1.55533 -4.13838 0
M  V30 6765 N 638.539 1.52521 -0.396863 0
M  V30 6766 C 639.787 2.01274 0.182536 0
M  V30 6767 C 640.108 1.28485 1.46685 0
M  V30 6768 O 639.378 0.407134 1.91623 0
M  V30 6769 H 637.958 0.743671 0.0704442 0
M  V30 6770 H 640.62 1.87547 -0.530289 0
M  V30 6771 H 639.716 3.09687 0.387385 0
M  V30 6772 N 640.017 0.126909 1.57088 0
M  V30 6773 C 640.947 -0.816847 2.18746 0
M  V30 6774 C 641.928 -1.27161 1.12979 0
M  V30 6775 O 643.113 -1.33279 1.41246 0
M  V30 6776 C 640.243 -2.06398 2.79315 0
M  V30 6777 C 639.197 -1.74673 3.90735 0
M  V30 6778 C 638.523 -3.06482 4.38147 0
M  V30 6779 C 639.823 -1.0089 5.12463 0
M  V30 6780 H 641.517 -0.303032 2.97863 0
M  V30 6781 H 639.063 -0.144314 1.43275 0
M  V30 6782 H 641.016 -2.72885 3.2111 0
M  V30 6783 H 639.74 -2.60118 1.975 0
M  V30 6784 H 638.399 -1.10572 3.49527 0
M  V30 6785 H 638.047 -3.58152 3.5318 0
M  V30 6786 H 637.747 -2.86025 5.13287 0
M  V30 6787 H 639.271 -3.74073 4.82599 0
M  V30 6788 H 640.685 -1.57546 5.51228 0
M  V30 6789 H 639.082 -0.905006 5.93237 0
M  V30 6790 H 640.152 0.00297335 4.849 0
M  V30 6791 N 641.495 -1.56914 -0.146875 0
M  V30 6792 C 642.735 -1.85163 -0.86568 0
M  V30 6793 C 643.099 -0.711215 -1.78342 0
M  V30 6794 O 644.3 -0.874754 -2.54168 0
M  V30 6795 C 642.571 -3.18593 -1.61967 0
M  V30 6796 S 644.13 -3.68397 -2.38388 0
M  V30 6797 H 640.948 -0.6494 -0.289483 0
M  V30 6798 H 643.55 -1.95096 -0.125679 0
M  V30 6799 H 642.254 -3.99562 -0.93694 0
M  V30 6800 H 641.785 -3.11666 -2.40058 0
M  V30 6801 H 643.8 -3.37672 -3.63582 0
M  V30 6802 N 642.974 0.416227 -1.52004 0
M  V30 6803 C 644.385 0.995319 -1.57957 0
M  V30 6804 C 644.736 1.91744 -0.415754 0
M  V30 6805 O 643.861 2.11349 0.464808 0
M  V30 6806 C 644.456 1.81191 -2.86278 0
M  V30 6807 C 643.015 2.34115 -2.94732 0
M  V30 6808 C 642.162 1.139 -2.52828 0
M  V30 6809 H 645.113 0.196716 -1.57476 0
M  V30 6810 H 645.134 2.66859 -2.71231 0
M  V30 6811 H 644.646 1.14051 -3.70963 0
M  V30 6812 H 642.747 3.04647 -2.14525 0
M  V30 6813 H 642.86 2.65466 -3.98829 0
M  V30 6814 H 641.224 1.49081 -2.06511 0
M  V30 6815 H 642.007 0.483383 -3.3988 0
M  V30 6816 N 644.452 1.42507 0.673017 0
M  V30 6817 C 645.868 1.25472 0.986355 0
M  V30 6818 C 646.068 0.160181 2.00862 0
M  V30 6819 O 645.124 -0.467993 2.48125 0
M  V30 6820 C 646.437 2.61219 1.48947 0
M  V30 6821 C 647.985 2.68589 1.60715 0
M  V30 6822 C 648.46 4.04707 2.14422 0
M  V30 6823 N 649.951 4.0667 2.21752 0
M  V30 6824 C 650.686 5.0881 2.64386 0
M  V30 6825 N 650.182 6.21332 3.0646 0
M  V30 6826 N 651.975 4.96166 2.64151 0
M  V30 6827 H 644.126 2.124 -0.00378532 0
M  V30 6828 H 646.389 0.946046 0.0608367 0
M  V30 6829 H 646.095 3.42179 0.812812 0
M  V30 6830 H 645.969 2.85261 2.46791 0
M  V30 6831 H 648.356 1.87974 2.27486 0
M  V30 6832 H 648.437 2.48333 0.613552 0
M  V30 6833 H 648.081 4.8578 1.48258 0
M  V30 6834 H 648.011 4.22315 3.14575 0
M  V30 6835 H 650.502 3.25438 1.92089 0
M  V30 6836 H 650.815 6.95118 3.37684 0
M  V30 6837 H 649.16 6.24835 3.04313 0
M  V30 6838 H 652.351 4.07334 2.30644 0
M  V30 6839 H 652.524 5.759 2.97057 0
M  V30 6840 N 645.93 -0.909495 1.28709 0
M  V30 6841 C 646.863 -2.01388 1.07323 0
M  V30 6842 C 647.841 -1.62596 -0.0119757 0
M  V30 6843 O 649.025 -1.88003 0.136796 0
M  V30 6844 C 646.152 -3.32755 0.631797 0
M  V30 6845 C 645.198 -3.90532 1.71428 0
M  V30 6846 S 646.031 -4.20853 3.31124 0
M  V30 6847 C 647.187 -5.55276 2.88825 0
M  V30 6848 H 647.42 -2.19219 2.00824 0
M  V30 6849 H 644.953 -1.05489 1.12745 0
M  V30 6850 H 646.911 -4.08702 0.38381 0
M  V30 6851 H 645.572 -3.12818 -0.283451 0
M  V30 6852 H 644.765 -4.85385 1.35712 0
M  V30 6853 H 644.367 -3.21237 1.91528 0
M  V30 6854 H 646.659 -6.35341 2.3526 0
M  V30 6855 H 647.602 -5.95907 3.82492 0
M  V30 6856 H 648.01 -5.16666 2.27412 0
M  V30 6857 N 647.408 -1.11026 -1.11852 0
M  V30 6858 C 648.685 -0.768347 -1.79877 0
M  V30 6859 C 649.065 0.744261 -1.97545 0
M  V30 6860 O 648.413 1.67271 -1.55669 0
M  V30 6861 C 648.623 -1.52648 -3.13846 0
M  V30 6862 C 649.971 -1.70297 -3.88953 0
M  V30 6863 O 650.995 -1.49037 -3.23522 0
M  V30 6864 O 649.854 -2.05593 -5.06353 0
M  V30 6865 H 646.948 -0.277891 -0.778913 0
M  V30 6866 H 649.494 -1.21343 -1.18633 0
M  V30 6867 H 648.266 -2.55564 -2.96315 0
M  V30 6868 H 647.889 -1.07466 -3.82801 0
M  V30 6869 N 648.886 1.2938 -0.899927 0
M  V30 6870 C 650.297 1.77644 -0.574427 0
M  V30 6871 C 650.648 1.73824 0.909928 0
M  V30 6872 O 649.773 1.32429 1.71147 0
M  V30 6873 C 650.368 3.22573 -1.03595 0
M  V30 6874 C 648.927 3.68614 -0.76161 0
M  V30 6875 C 648.074 2.49483 -1.21052 0
M  V30 6876 H 651.025 1.16038 -1.08263 0
M  V30 6877 H 651.046 3.78684 -0.371337 0
M  V30 6878 H 650.558 3.25321 -2.11631 0
M  V30 6879 H 648.659 3.7134 0.306127 0
M  V30 6880 H 648.772 4.59402 -1.35965 0
M  V30 6881 H 647.136 2.46798 -0.629515 0
M  V30 6882 H 647.919 2.54959 -2.29893 0
M  V30 6883 N 650.364 0.662433 1.43002 0
M  V30 6884 C 651.61 0.179857 2.02001 0
M  V30 6885 C 651.943 -1.20625 1.52195 0
M  V30 6886 O 651.218 -1.80726 0.718911 0
M  V30 6887 C 651.501 0.200845 3.59539 0
M  V30 6888 C 651.354 1.62153 4.19555 0
M  V30 6889 C 652.673 -0.457738 4.37713 0
M  V30 6890 H 649.792 0.0668305 0.733964 0
M  V30 6891 H 652.434 0.84487 1.70182 0
M  V30 6892 H 650.584 -0.365411 3.86778 0
M  V30 6893 H 652.256 2.23908 4.03315 0
M  V30 6894 H 650.499 2.16601 3.75854 0
M  V30 6895 H 651.17 1.58799 5.28665 0
M  V30 6896 H 653.646 0.0241495 4.16093 0
M  V30 6897 H 652.522 -0.412363 5.47349 0
M  V30 6898 H 652.783 -1.53336 4.14657 0
M  V30 6899 N 651.842 -1.52309 0.404946 0
M  V30 6900 C 653.119 -1.94237 -0.230544 0
M  V30 6901 C 653.499 -1.34154 -1.6299 0
M  V30 6902 O 652.847 -0.515713 -2.22604 0
M  V30 6903 C 653.057 -3.48166 -0.241106 0
M  V30 6904 C 654.405 -4.22074 -0.462488 0
M  V30 6905 O 655.429 -3.54754 -0.320644 0
M  V30 6906 O 654.288 -5.41443 -0.741708 0
M  V30 6907 H 651.382 -0.813766 -0.147358 0
M  V30 6908 H 653.928 -1.6333 0.460587 0
M  V30 6909 H 652.7 -3.84269 0.738467 0
M  V30 6910 H 652.323 -3.85422 -0.97651 0
M  V30 6911 N 653.32 -0.135238 -1.57019 0
M  V30 6912 C 654.568 0.51777 -1.95355 0
M  V30 6913 C 654.889 1.6617 -1.02042 0
M  V30 6914 O 654.159 1.95738 -0.0797343 0
M  V30 6915 H 652.739 0.194264 -0.721298 0
M  V30 6916 H 655.401 -0.207983 -1.93787 0
M  V30 6917 H 654.497 0.901675 -2.98791 0
M  V30 6918 N 654.798 1.5699 0.138552 0
M  V30 6919 C 656.026 1.87976 0.864437 0
M  V30 6920 C 656.441 0.724372 1.74351 0
M  V30 6921 O 655.798 -0.305575 1.79924 0
M  V30 6922 C 655.849 3.18276 1.71414 0
M  V30 6923 O 655.57 4.29365 0.870487 0
M  V30 6924 C 657.071 3.62834 2.54688 0
M  V30 6925 H 654.291 0.622878 0.249528 0
M  V30 6926 H 656.835 2.04094 0.128805 0
M  V30 6927 H 654.99 3.03886 2.40274 0
M  V30 6928 H 655.404 5.03924 1.45466 0
M  V30 6929 H 656.878 4.5682 3.0987 0
M  V30 6930 H 657.355 2.88533 3.31127 0
M  V30 6931 H 657.961 3.79946 1.91105 0
M  V30 6932 N 656.276 -0.40816 1.52223 0
M  V30 6933 C 657.208 -1.51642 1.71864 0
M  V30 6934 C 658.221 -1.51378 0.599056 0
M  V30 6935 O 659.41 -1.55626 0.874239 0
M  V30 6936 C 656.51 -2.90534 1.74481 0
M  V30 6937 C 655.683 -3.14979 3.03491 0
M  V30 6938 C 654.742 -4.33749 2.97907 0
M  V30 6939 O 653.768 -4.30982 3.71811 0
M  V30 6940 N 654.97 -5.38912 2.15764 0
M  V30 6941 H 657.735 -1.35188 2.67478 0
M  V30 6942 H 655.296 -0.597468 1.50472 0
M  V30 6943 H 657.288 -3.68056 1.68275 0
M  V30 6944 H 655.858 -3.00441 0.863363 0
M  V30 6945 H 655.078 -2.25492 3.23337 0
M  V30 6946 H 656.366 -3.28156 3.88833 0
M  V30 6947 H 655.764 -5.44008 1.55152 0
M  V30 6948 H 654.321 -6.15174 2.15415 0
M  V30 6949 N 657.755 -1.42862 -0.66545 0
M  V30 6950 C 658.685 -1.49867 -1.79059 0
M  V30 6951 C 659.666 -0.354394 -1.66367 0
M  V30 6952 O 660.851 -0.569969 -1.85647 0
M  V30 6953 C 657.981 -1.40943 -3.17415 0
M  V30 6954 C 656.935 -2.53495 -3.44854 0
M  V30 6955 C 656.261 -2.29626 -4.82883 0
M  V30 6956 C 657.561 -3.95781 -3.40815 0
M  V30 6957 H 659.255 -2.44037 -1.73453 0
M  V30 6958 H 656.801 -1.17456 -0.833071 0
M  V30 6959 H 658.754 -1.4445 -3.95869 0
M  V30 6960 H 657.478 -0.432716 -3.23721 0
M  V30 6961 H 656.137 -2.4932 -2.68766 0
M  V30 6962 H 655.785 -1.30226 -4.8585 0
M  V30 6963 H 655.485 -3.05065 -5.02204 0
M  V30 6964 H 657.009 -2.34897 -5.63609 0
M  V30 6965 H 658.423 -4.01508 -4.09224 0
M  V30 6966 H 656.82 -4.71148 -3.71672 0
M  V30 6967 H 657.89 -4.21786 -2.39216 0
M  V30 6968 N 659.233 0.902656 -1.29189 0
M  V30 6969 C 660.163 2.02294 -1.16616 0
M  V30 6970 C 661.144 1.6999 -0.0611175 0
M  V30 6971 O 662.329 1.9271 -0.240072 0
M  V30 6972 C 659.459 3.37018 -0.83882 0
M  V30 6973 C 658.413 3.83522 -1.89986 0
M  V30 6974 C 657.739 5.15337 -1.42589 0
M  V30 6975 C 659.039 4.04169 -3.30824 0
M  V30 6976 H 660.733 2.13071 -2.10336 0
M  V30 6977 H 658.279 1.02378 -1.01266 0
M  V30 6978 H 660.232 4.14895 -0.737584 0
M  V30 6979 H 658.956 3.26325 0.134071 0
M  V30 6980 H 657.615 3.07859 -1.99043 0
M  V30 6981 H 657.263 5.01056 -0.441759 0
M  V30 6982 H 656.963 5.47423 -2.13547 0
M  V30 6983 H 658.487 5.95758 -1.3381 0
M  V30 6984 H 659.901 4.72537 -3.24626 0
M  V30 6985 H 658.298 4.47604 -3.99713 0
M  V30 6986 H 659.368 3.08604 -3.74021 0
M  V30 6987 N 660.711 1.11618 1.11262 0
M  V30 6988 C 661.658 0.7762 2.17356 0
M  V30 6989 C 662.628 -0.253152 1.6416 0
M  V30 6990 O 663.813 -0.129655 1.90359 0
M  V30 6991 C 660.953 0.227581 3.44349 0
M  V30 6992 C 660.066 1.31372 4.1154 0
M  V30 6993 C 659.201 0.72544 5.26223 0
M  V30 6994 C 658.24 1.7913 5.85302 0
M  V30 6995 N 657.377 1.22237 6.91377 0
M  V30 6996 H 662.217 1.68508 2.45783 0
M  V30 6997 H 659.754 0.841475 1.20655 0
M  V30 6998 H 661.712 -0.108483 4.17059 0
M  V30 6999 H 660.342 -0.644486 3.16301 0
M  V30 7000 H 659.394 1.7667 3.36885 0
M  V30 7001 H 660.706 2.12005 4.51504 0
M  V30 7002 H 659.86 0.339541 6.05749 0
M  V30 7003 H 658.599 -0.112188 4.87571 0
M  V30 7004 H 657.604 2.18648 5.04453 0
M  V30 7005 H 658.829 2.63199 6.26022 0
M  V30 7006 H 656.775 0.406423 6.5474 0
M  V30 7007 H 656.692 1.9654 7.30006 0
M  V30 7008 H 657.96 0.863426 7.74703 0
M  V30 7009 N 662.189 -1.289 0.906776 0
M  V30 7010 C 663.419 -1.99112 0.551168 0
M  V30 7011 C 663.827 -1.67998 -0.870243 0
M  V30 7012 O 663.17 -0.92525 -1.58697 0
M  V30 7013 C 663.232 -3.53162 0.672065 0
M  V30 7014 C 662.896 -4.07849 2.06174 0
M  V30 7015 C 663.893 -4.22212 3.0337 0
M  V30 7016 C 661.578 -4.4271 2.37304 0
M  V30 7017 C 663.572 -4.70678 4.29815 0
M  V30 7018 C 661.259 -4.90871 3.6399 0
M  V30 7019 C 662.257 -5.04811 4.6006 0
M  V30 7020 O 661.945 -5.51925 5.84495 0
M  V30 7021 H 661.677 -0.642728 0.209469 0
M  V30 7022 H 664.231 -1.65234 1.22012 0
M  V30 7023 H 662.461 -3.86662 -0.05394 0
M  V30 7024 H 664.15 -4.046 0.324579 0
M  V30 7025 H 664.916 -3.9556 2.80637 0
M  V30 7026 H 660.795 -4.31114 1.63283 0
M  V30 7027 H 664.339 -4.81474 5.04806 0
M  V30 7028 H 660.236 -5.16961 3.86551 0
M  V30 7029 H 661.004 -5.70225 5.87185 0
M  V30 7030 N 663.667 -0.670007 -1.42649 0
M  V30 7031 C 664.916 -0.187526 -2.00826 0
M  V30 7032 C 665.229 1.21142 -1.53571 0
M  V30 7033 O 666.435 1.79001 -2.04134 0
M  V30 7034 C 664.891 -0.284409 -3.58774 0
M  V30 7035 C 664.499 -1.6871 -4.15019 0
M  V30 7036 C 666.243 0.139605 -4.2427 0
M  V30 7037 C 664.15 -1.73701 -5.65316 0
M  V30 7038 H 663.08 -0.0663468 -0.751075 0
M  V30 7039 H 665.731 -0.834492 -1.63427 0
M  V30 7040 H 664.113 0.430364 -3.93655 0
M  V30 7041 H 665.287 -2.42857 -3.91608 0
M  V30 7042 H 663.602 -2.05855 -3.61957 0
M  V30 7043 H 666.199 0.122398 -5.3456 0
M  V30 7044 H 666.542 1.17403 -3.99402 0
M  V30 7045 H 667.075 -0.523995 -3.94334 0
M  V30 7046 H 663.814 -2.75109 -5.94975 0
M  V30 7047 H 663.334 -1.03903 -5.90732 0
M  V30 7048 H 665.013 -1.48829 -6.2965 0
M  V30 7049 N 665.145 1.52092 -0.413018 0
M  V30 7050 C 666.561 1.59471 -0.0640836 0
M  V30 7051 C 666.761 1.42562 1.42402 0
M  V30 7052 O 665.817 1.25453 2.19129 0
M  V30 7053 C 667.13 2.95392 -0.562474 0
M  V30 7054 C 668.678 3.08637 -0.520788 0
M  V30 7055 C 669.153 4.47044 -0.995752 0
M  V30 7056 N 670.644 4.53296 -0.952732 0
M  V30 7057 C 671.379 5.58669 -1.29138 0
M  V30 7058 N 670.875 6.71576 -1.70168 0
M  V30 7059 N 672.668 5.48898 -1.2111 0
M  V30 7060 H 664.819 1.6133 -1.38153 0
M  V30 7061 H 667.082 0.75916 -0.567785 0
M  V30 7062 H 666.788 3.13059 -1.60271 0
M  V30 7063 H 666.662 3.77191 0.0257875 0
M  V30 7064 H 669.049 2.90652 0.510412 0
M  V30 7065 H 669.13 2.28735 -1.14515 0
M  V30 7066 H 668.774 4.65773 -2.0253 0
M  V30 7067 H 668.704 5.25448 -0.348162 0
M  V30 7068 H 671.195 3.72248 -0.651119 0
M  V30 7069 H 671.508 7.47973 -1.9431 0
M  V30 7070 H 669.853 6.72847 -1.74075 0
M  V30 7071 H 673.044 4.59573 -0.889396 0
M  V30 7072 H 673.217 6.30912 -1.47833 0
M  V30 7073 N 666.623 0.143563 1.56945 0
M  V30 7074 C 667.571 -0.814556 2.17871 0
M  V30 7075 C 668.565 -1.25778 1.13474 0
M  V30 7076 O 669.771 -1.22666 1.31731 0
M  V30 7077 H 666.146 -0.280873 0.697578 0
M  V30 7078 H 668.117 -0.276459 2.97117 0
M  V30 7079 C 666.866 -2.04503 2.81201 0
M  V30 7080 H 666.189 -1.71296 3.61245 0
M  V30 7081 H 667.629 -2.69493 3.27337 0
M  V30 7082 C 666.088 -2.85079 1.79532 0
M  V30 7083 O 666.618 -3.81306 1.26368 0
M  V30 7084 N 664.824 -2.49546 1.48913 0
M  V30 7085 H 664.371 -1.71359 1.92338 0
M  V30 7086 H 664.329 -3.03751 0.811348 0
M  V30 7087 N 668.101 -1.57061 -0.130224 0
M  V30 7088 C 669.347 -1.8453 -0.841216 0
M  V30 7089 C 669.68 -0.727666 -1.80052 0
M  V30 7090 O 668.955 0.267419 -1.92653 0
M  V30 7091 C 669.238 -3.22553 -1.60099 0
M  V30 7092 C 669.091 -4.44901 -0.662048 0
M  V30 7093 C 670.41 -3.58003 -2.55973 0
M  V30 7094 H 667.529 -0.671215 -0.304366 0
M  V30 7095 H 670.171 -1.89705 -0.105821 0
M  V30 7096 H 668.321 -3.18272 -2.22789 0
M  V30 7097 H 669.993 -4.61278 -0.0448559 0
M  V30 7098 H 668.236 -4.33791 0.0272253 0
M  V30 7099 H 668.907 -5.3812 -1.23006 0
M  V30 7100 H 671.383 -3.63002 -2.03393 0
M  V30 7101 H 670.259 -4.55576 -3.06172 0
M  V30 7102 H 670.52 -2.84833 -3.38116 0
M  V30 7103 N 669.579 0.400081 -1.52437 0
M  V30 7104 C 670.527 1.50851 -1.7705 0
M  V30 7105 C 671.521 1.56928 -0.637969 0
M  V30 7106 O 672.727 1.60226 -0.820212 0
M  V30 7107 H 669.102 0.50186 -0.560036 0
M  V30 7108 H 671.073 1.27281 -2.69893 0
M  V30 7109 C 669.822 2.88117 -1.94638 0
M  V30 7110 H 669.145 2.84187 -2.81208 0
M  V30 7111 H 670.585 3.64942 -2.15855 0
M  V30 7112 C 669.044 3.29206 -0.715899 0
M  V30 7113 O 669.574 4.01544 0.111944 0
M  V30 7114 N 667.78 2.85363 -0.549191 0
M  V30 7115 H 667.327 2.26664 -1.22397 0
M  V30 7116 H 667.285 3.13214 0.27278 0
M  V30 7117 N 671.057 1.43213 0.657864 0
M  V30 7118 C 672.304 1.44584 1.41781 0
M  V30 7119 C 672.632 0.0684208 1.9438 0
M  V30 7120 O 671.887 -0.925872 1.72413 0
M  V30 7121 C 672.186 2.43143 2.61947 0
M  V30 7122 C 671.852 3.89128 2.27794 0
M  V30 7123 C 670.514 4.28889 2.18191 0
M  V30 7124 C 672.866 4.81144 2.00375 0
M  V30 7125 C 670.194 5.58625 1.79319 0
M  V30 7126 C 672.546 6.11239 1.63003 0
M  V30 7127 C 671.21 6.49981 1.51922 0
M  V30 7128 H 670.48 0.529069 0.518813 0
M  V30 7129 H 673.127 1.76263 0.748577 0
M  V30 7130 H 671.432 2.04851 3.33981 0
M  V30 7131 H 673.129 2.4146 3.20153 0
M  V30 7132 H 669.719 3.57657 2.36176 0
M  V30 7133 H 673.903 4.512 2.06718 0
M  V30 7134 H 669.159 5.87486 1.69323 0
M  V30 7135 H 673.333 6.82014 1.40817 0
M  V30 7136 H 670.96 7.50416 1.21572 0
M  V30 7137 N 672.536 -0.895792 1.29666 0
M  V30 7138 C 673.761 -1.68528 1.20885 0
M  V30 7139 C 674.186 -1.8673 -0.226595 0
M  V30 7140 O 673.544 -1.39044 -1.16347 0
M  V30 7141 C 673.592 -3.04512 1.93144 0
M  V30 7142 O 672.696 -3.92963 1.25115 0
M  V30 7143 H 672.037 -0.515371 0.418675 0
M  V30 7144 H 674.567 -1.11878 1.71302 0
M  V30 7145 H 674.577 -3.54628 2.0175 0
M  V30 7146 H 673.252 -2.90582 2.97548 0
M  V30 7147 H 671.829 -3.51399 1.24794 0
M  V30 7148 N 674.014 -1.12206 -1.10668 0
M  V30 7149 C 675.262 -0.874144 -1.82217 0
M  V30 7150 C 675.583 0.601736 -1.85484 0
M  V30 7151 O 674.853 1.43725 -1.33116 0
M  V30 7152 H 673.433 -0.320404 -0.674797 0
M  V30 7153 H 676.095 -1.41606 -1.33917 0
M  V30 7154 H 675.191 -1.25349 -2.85822 0
M  V30 7155 N 675.492 1.28418 -0.913599 0
M  V30 7156 C 676.741 1.94265 -0.542572 0
M  V30 7157 C 677.054 1.72709 0.918207 0
M  V30 7158 O 678.26 2.32778 1.39738 0
M  V30 7159 C 676.716 3.47956 -0.919507 0
M  V30 7160 C 676.324 3.78291 -2.4 0
M  V30 7161 C 678.068 4.19962 -0.619057 0
M  V30 7162 C 675.975 5.2529 -2.71707 0
M  V30 7163 H 674.905 0.727213 -0.199192 0
M  V30 7164 H 677.556 1.45931 -1.11249 0
M  V30 7165 H 675.938 3.9502 -0.278372 0
M  V30 7166 H 677.112 3.42035 -3.08786 0
M  V30 7167 H 675.427 3.19456 -2.67089 0
M  V30 7168 H 678.024 5.28178 -0.832623 0
M  V30 7169 H 678.367 4.13935 0.443126 0
M  V30 7170 H 678.9 3.78674 -1.21865 0
M  V30 7171 H 675.639 5.36394 -3.76778 0
M  V30 7172 H 675.159 5.62743 -2.07559 0
M  V30 7173 H 676.838 5.93027 -2.58703 0
M  V30 7174 N 676.97 0.677563 1.42291 0
M  V30 7175 C 677.933 0.0101085 2.29198 0
M  V30 7176 C 678.933 -0.726219 1.43467 0
M  V30 7177 O 680.123 -0.563807 1.64824 0
M  V30 7178 C 677.255 -0.996316 3.26016 0
M  V30 7179 H 678.448 0.775071 2.89711 0
M  V30 7180 H 676.001 0.440065 1.49977 0
M  V30 7181 H 676.736 -1.78967 2.70446 0
M  V30 7182 H 676.521 -0.471687 3.89253 0
M  V30 7183 H 678.011 -1.46167 3.91184 0
M  V30 7184 N 678.448 -1.51871 0.421078 0
M  V30 7185 C 679.696 -2.01539 -0.150492 0
M  V30 7186 C 680.017 -1.30803 -1.44623 0
M  V30 7187 O 679.287 -0.437568 -1.90951 0
M  V30 7188 H 677.867 -0.744698 -0.0586041 0
M  V30 7189 H 680.529 -1.8668 0.560059 0
M  V30 7190 H 679.625 -3.10264 -0.338068 0
M  V30 7191 N 679.926 -0.151884 -1.56866 0
M  V30 7192 C 680.874 0.80299 -2.183 0
M  V30 7193 C 681.868 1.25174 -1.14139 0
M  V30 7194 O 683.074 1.21966 -1.3238 0
M  V30 7195 H 679.449 0.277169 -0.699057 0
M  V30 7196 H 681.42 0.260699 -2.97259 0
M  V30 7197 C 680.169 2.03009 -2.82281 0
M  V30 7198 H 679.492 1.69377 -3.62148 0
M  V30 7199 H 680.932 2.67753 -3.28762 0
M  V30 7200 C 679.391 2.84123 -1.81041 0
M  V30 7201 O 679.921 3.8063 -1.28388 0
M  V30 7202 N 678.127 2.48753 -1.50234 0
M  V30 7203 H 677.674 1.70337 -1.93244 0
M  V30 7204 H 677.632 3.03316 -0.827445 0
M  V30 7205 N 681.404 1.57128 0.121893 0
M  V30 7206 C 682.815 1.73902 0.679348 0
M  V30 7207 C 683.166 0.770135 1.80453 0
M  V30 7208 O 682.291 -0.0576083 2.16323 0
M  V30 7209 C 682.886 3.15328 1.2391 0
M  V30 7210 C 681.445 3.33618 1.74288 0
M  V30 7211 C 680.592 2.6978 0.641414 0
M  V30 7212 H 683.543 1.58359 -0.104 0
M  V30 7213 H 683.564 3.16718 2.10879 0
M  V30 7214 H 683.076 3.85821 0.419957 0
M  V30 7215 H 681.177 2.68162 2.58689 0
M  V30 7216 H 681.29 4.4176 1.85432 0
M  V30 7217 H 679.654 2.30935 1.0743 0
M  V30 7218 H 680.437 3.42895 -0.166707 0
M  V30 7219 N 682.882 -0.391992 1.52647 0
M  V30 7220 C 684.128 -1.139 1.67793 0
M  V30 7221 C 684.461 -1.89711 0.41514 0
M  V30 7222 O 683.736 -1.85431 -0.586979 0
M  V30 7223 C 684.019 -2.11966 2.91105 0
M  V30 7224 C 683.872 -1.39939 4.27478 0
M  V30 7225 C 685.191 -3.1243 3.09961 0
M  V30 7226 H 682.31 -0.412707 0.610608 0
M  V30 7227 H 684.952 -0.422725 1.85238 0
M  V30 7228 H 683.102 -2.73048 2.76364 0
M  V30 7229 H 684.774 -0.818439 4.53982 0
M  V30 7230 H 683.017 -0.701246 4.28095 0
M  V30 7231 H 683.688 -2.1158 5.09841 0
M  V30 7232 H 686.164 -2.61435 3.23714 0
M  V30 7233 H 685.04 -3.78294 3.97725 0
M  V30 7234 H 685.301 -3.81127 2.24042 0
M  V30 7235 N 684.36 -1.4356 -0.65026 0
M  V30 7236 C 685.588 -1.48779 -1.43779 0
M  V30 7237 C 686.003 -0.106593 -1.88499 0
M  V30 7238 O 685.36 0.883766 -1.59674 0
M  V30 7239 C 685.411 -2.43618 -2.67081 0
M  V30 7240 O 685.132 -3.76367 -2.24231 0
M  V30 7241 C 686.633 -2.5811 -3.60409 0
M  V30 7242 H 683.853 -0.50521 -0.441593 0
M  V30 7243 H 686.397 -1.88332 -0.796941 0
M  V30 7244 H 684.552 -2.07253 -3.273 0
M  V30 7245 H 684.966 -4.27394 -3.0403 0
M  V30 7246 H 686.44 -3.28539 -4.43583 0
M  V30 7247 H 686.917 -1.627 -4.07953 0
M  V30 7248 H 687.523 -2.95298 -3.0607 0
M  V30 7249 N 685.838 0.888903 -1.30139 0
M  V30 7250 C 687.085 1.64037 -1.18736 0
M  V30 7251 C 687.413 1.92771 0.258801 0
M  V30 7252 O 686.668 1.54427 1.20212 0
M  V30 7253 C 686.967 2.99041 -1.95728 0
M  V30 7254 C 686.633 2.89874 -3.45375 0
M  V30 7255 C 685.295 2.87082 -3.86183 0
M  V30 7256 C 687.647 2.78289 -4.40687 0
M  V30 7257 C 684.975 2.70536 -5.20603 0
M  V30 7258 C 687.327 2.63282 -5.75209 0
M  V30 7259 C 685.991 2.58861 -6.15262 0
M  V30 7260 H 685.261 0.600253 -0.434485 0
M  V30 7261 H 687.908 1.0338 -1.61198 0
M  V30 7262 H 686.213 3.63626 -1.45888 0
M  V30 7263 H 687.91 3.56139 -1.843 0
M  V30 7264 H 684.5 2.92856 -3.12943 0
M  V30 7265 H 688.684 2.79516 -4.10103 0
M  V30 7266 H 683.94 2.65526 -5.50732 0
M  V30 7267 H 688.114 2.5329 -6.48704 0
M  V30 7268 H 685.741 2.45799 -7.19366 0
M  V30 7269 N 687.317 1.12792 1.10072 0
M  V30 7270 C 688.265 0.794523 2.18609 0
M  V30 7271 C 689.259 -0.220271 1.67962 0
M  V30 7272 O 690.465 -0.0780938 1.79831 0
M  V30 7273 H 686.84 0.239123 0.712969 0
M  V30 7274 H 688.811 1.71823 2.43966 0
M  V30 7275 C 687.56 0.269548 3.46654 0
M  V30 7276 H 686.883 1.04171 3.8599 0
M  V30 7277 H 688.323 0.0746242 4.23934 0
M  V30 7278 C 686.782 -1.00333 3.21613 0
M  V30 7279 O 687.312 -2.08042 3.4363 0
M  V30 7280 N 685.518 -0.931763 2.75257 0
M  V30 7281 H 685.065 -0.0551197 2.57541 0
M  V30 7282 H 685.023 -1.78405 2.58881 0
M  V30 7283 N 688.795 -1.27931 0.920396 0
M  V30 7284 C 689.705 -2.30824 0.419212 0
M  V30 7285 C 690.721 -1.66767 -0.496461 0
M  V30 7286 O 691.897 -1.97763 -0.38104 0
M  V30 7287 C 688.962 -3.45158 -0.326601 0
M  V30 7288 C 688.023 -4.24754 0.623098 0
M  V30 7289 C 687.256 -5.33629 -0.0872172 0
M  V30 7290 O 687.479 -5.55204 -1.30784 0
M  V30 7291 O 686.413 -5.99091 0.580875 0
M  V30 7292 H 690.239 -2.75716 1.27337 0
M  V30 7293 H 687.824 -1.32747 0.685465 0
M  V30 7294 H 689.706 -4.14716 -0.747559 0
M  V30 7295 H 688.381 -3.02336 -1.15648 0
M  V30 7296 H 687.288 -3.57759 1.09359 0
M  V30 7297 H 688.621 -4.71272 1.41998 0
M  V30 7298 N 690.273 -0.685099 -1.4193 0
M  V30 7299 C 691.221 -0.00165985 -2.326 0
M  V30 7300 C 692.215 0.779678 -1.50391 0
M  V30 7301 O 693.421 0.68648 -1.66395 0
M  V30 7302 H 689.796 0.0182616 -0.751778 0
M  V30 7303 H 691.767 -0.783592 -2.87928 0
M  V30 7304 C 690.516 0.928385 -3.35077 0
M  V30 7305 H 689.839 0.336578 -3.98381 0
M  V30 7306 H 691.279 1.37509 -4.01083 0
M  V30 7307 C 689.738 2.03964 -2.68142 0
M  V30 7308 O 690.268 3.12727 -2.5212 0
M  V30 7309 N 688.474 1.81433 -2.27003 0
M  V30 7310 H 688.021 0.929807 -2.40234 0
M  V30 7311 H 687.979 2.55973 -1.82552 0
M  V30 7312 N 691.751 1.51645 -0.429126 0
M  V30 7313 C 692.999 2.01616 0.139802 0
M  V30 7314 C 693.32 1.31568 1.43927 0
M  V30 7315 O 692.59 0.447688 1.90716 0
M  V30 7316 H 691.17 0.744998 0.054654 0
M  V30 7317 H 693.832 1.8638 -0.569952 0
M  V30 7318 H 692.928 3.10439 0.321609 0
M  V30 7319 N 693.229 0.160201 1.56784 0
M  V30 7320 C 694.506 -0.533355 1.88188 0
M  V30 7321 C 694.886 -1.82072 1.06831 0
M  V30 7322 O 694.234 -2.27946 0.158959 0
M  V30 7323 C 694.444 -0.786034 3.40033 0
M  V30 7324 C 695.792 -1.12097 4.09536 0
M  V30 7325 O 696.816 -0.874949 3.45287 0
M  V30 7326 O 695.675 -1.58457 5.23023 0
M  V30 7327 H 692.769 -0.273589 0.780434 0
M  V30 7328 H 695.315 0.197803 1.68543 0
M  V30 7329 H 694.087 0.124515 3.91102 0
M  V30 7330 H 693.71 -1.57091 3.65251 0
M  V30 7331 N 694.707 -1.5719 -0.113559 0
M  V30 7332 C 695.67 -1.99796 -1.12314 0
M  V30 7333 C 696.67 -0.888847 -1.34001 0
M  V30 7334 O 697.86 -1.15476 -1.30426 0
M  V30 7335 C 694.992 -2.34279 -2.47641 0
M  V30 7336 H 696.185 -2.90193 -0.756825 0
M  V30 7337 H 693.738 -1.52144 -0.358029 0
M  V30 7338 H 694.473 -1.46778 -2.89183 0
M  V30 7339 H 694.258 -3.15175 -2.33253 0
M  V30 7340 H 695.748 -2.67963 -3.2029 0
M  V30 7341 N 696.185 0.383891 -1.52853 0
M  V30 7342 C 697.596 0.961591 -1.60032 0
M  V30 7343 C 697.947 1.90819 -0.456333 0
M  V30 7344 O 697.072 2.12288 0.419873 0
M  V30 7345 C 697.667 1.75078 -2.90057 0
M  V30 7346 C 696.226 2.2781 -2.99632 0
M  V30 7347 C 695.373 1.08512 -2.55187 0
M  V30 7348 H 698.324 0.163269 -1.57858 0
M  V30 7349 H 698.345 2.61046 -2.7683 0
M  V30 7350 H 697.857 1.06157 -3.73299 0
M  V30 7351 H 695.958 3.00028 -2.20939 0
M  V30 7352 H 696.071 2.56947 -4.0437 0
M  V30 7353 H 694.435 1.44667 -2.09627 0
M  V30 7354 H 695.218 0.41118 -3.40829 0
M  V30 7355 N 697.663 1.43903 0.642637 0
M  V30 7356 C 698.911 1.45791 1.39962 0
M  V30 7357 C 699.232 0.0873144 1.94804 0
M  V30 7358 O 698.502 -0.878825 1.75081 0
M  V30 7359 H 697.082 0.536797 0.519479 0
M  V30 7360 H 699.744 1.7959 0.757189 0
M  V30 7361 H 698.84 2.17665 2.2367 0
M  V30 7362 N 699.141 -0.881989 1.30609 0
M  V30 7363 C 700.557 -1.16576 1.09005 0
M  V30 7364 C 700.757 -2.00961 -0.14727 0
M  V30 7365 O 699.813 -2.38117 -0.840036 0
M  V30 7366 C 701.126 -1.86954 2.35518 0
M  V30 7367 C 702.674 -1.99706 2.41011 0
M  V30 7368 C 703.149 -2.73497 3.67374 0
M  V30 7369 N 704.64 -2.8104 3.68199 0
M  V30 7370 C 705.375 -3.38718 4.62664 0
M  V30 7371 N 704.871 -3.97421 5.67475 0
M  V30 7372 N 706.664 -3.36561 4.50203 0
M  V30 7373 H 698.815 -0.319398 2.09985 0
M  V30 7374 H 701.078 -0.204058 0.925778 0
M  V30 7375 H 700.784 -1.32393 3.2583 0
M  V30 7376 H 700.658 -2.87317 2.44395 0
M  V30 7377 H 703.045 -2.53436 1.51176 0
M  V30 7378 H 703.126 -0.984218 2.36108 0
M  V30 7379 H 702.77 -2.20438 4.57569 0
M  V30 7380 H 702.7 -3.75163 3.6954 0
M  V30 7381 H 705.191 -2.39365 2.92426 0
M  V30 7382 H 705.504 -4.39507 6.35652 0
M  V30 7383 H 703.849 -3.95832 5.71264 0
M  V30 7384 H 707.04 -2.8993 3.67503 0
M  V30 7385 H 707.213 -3.81215 5.24003 0
M  V30 7386 N 700.619 -1.13374 -1.09472 0
M  V30 7387 C 701.849 -0.917019 -1.85133 0
M  V30 7388 C 702.257 0.537568 -1.81402 0
M  V30 7389 O 701.6 1.38385 -1.20811 0
M  V30 7390 C 701.662 -1.32646 -3.34134 0
M  V30 7391 C 701.326 -2.79437 -3.61613 0
M  V30 7392 C 702.323 -3.77596 -3.57375 0
M  V30 7393 C 700.008 -3.16586 -3.89973 0
M  V30 7394 C 702.002 -5.10916 -3.81108 0
M  V30 7395 C 699.689 -4.50085 -4.13361 0
M  V30 7396 C 700.687 -5.47059 -4.0892 0
M  V30 7397 O 700.375 -6.78149 -4.31705 0
M  V30 7398 H 700.107 -0.326997 -0.591649 0
M  V30 7399 H 702.661 -1.51002 -1.39239 0
M  V30 7400 H 700.891 -0.676719 -3.80733 0
M  V30 7401 H 702.58 -1.08229 -3.91205 0
M  V30 7402 H 703.346 -3.50242 -3.35493 0
M  V30 7403 H 699.225 -2.41707 -3.92554 0
M  V30 7404 H 702.769 -5.86597 -3.77558 0
M  V30 7405 H 698.666 -4.77163 -4.34724 0
M  V30 7406 H 699.434 -6.84244 -4.49168 0
M  V30 7407 N 702.098 1.27442 -0.927168 0
M  V30 7408 C 703.375 1.89473 -0.485742 0
M  V30 7409 C 703.755 1.83922 1.03614 0
M  V30 7410 O 703.103 1.28409 1.89007 0
M  V30 7411 C 703.313 3.33417 -1.03123 0
M  V30 7412 C 704.661 4.10333 -1.0914 0
M  V30 7413 O 705.685 3.4243 -0.98082 0
M  V30 7414 O 704.544 5.31737 -1.26165 0
M  V30 7415 H 701.638 0.812124 -0.156154 0
M  V30 7416 H 704.184 1.35713 -1.01882 0
M  V30 7417 H 702.956 3.31747 -2.07508 0
M  V30 7418 H 702.579 3.94695 -0.479767 0
M  V30 7419 N 703.576 0.692616 1.41565 0
M  V30 7420 C 704.825 0.219452 2.00503 0
M  V30 7421 C 705.138 -1.18683 1.55479 0
M  V30 7422 O 706.344 -1.75731 2.06956 0
M  V30 7423 C 704.8 0.341451 3.58277 0
M  V30 7424 C 704.408 1.75291 4.12283 0
M  V30 7425 C 706.152 -0.0720899 4.24439 0
M  V30 7426 C 704.059 1.82673 5.62481 0
M  V30 7427 H 702.989 0.0782874 0.749925 0
M  V30 7428 H 705.64 0.860386 1.62079 0
M  V30 7429 H 704.022 -0.367683 3.94289 0
M  V30 7430 H 705.196 2.49057 3.87695 0
M  V30 7431 H 703.511 2.11587 3.58636 0
M  V30 7432 H 706.108 -0.0373385 5.34687 0
M  V30 7433 H 706.451 -1.11034 4.0122 0
M  V30 7434 H 706.984 0.586663 3.9345 0
M  V30 7435 H 703.723 2.84539 5.90523 0
M  V30 7436 H 703.243 1.13288 5.89004 0
M  V30 7437 H 704.922 1.58827 6.27203 0
M  V30 7438 N 705.054 -1.51416 0.437162 0
M  V30 7439 C 706.284 -2.06204 -0.127859 0
M  V30 7440 C 706.692 -1.30463 -1.37026 0
M  V30 7441 O 706.035 -0.357516 -1.80187 0
M  V30 7442 C 706.097 -3.55783 -0.515632 0
M  V30 7443 C 705.761 -4.52776 0.619937 0
M  V30 7444 C 706.758 -4.98031 1.49201 0
M  V30 7445 C 704.443 -4.95878 0.800618 0
M  V30 7446 C 706.437 -5.85061 2.52947 0
M  V30 7447 C 704.124 -5.82699 1.84135 0
M  V30 7448 C 705.122 -6.27188 2.70416 0
M  V30 7449 O 704.81 -7.12284 3.72702 0
M  V30 7450 H 704.542 -0.675903 -0.011442 0
M  V30 7451 H 707.096 -1.95977 0.614986 0
M  V30 7452 H 705.326 -3.63793 -1.31118 0
M  V30 7453 H 707.015 -3.93087 -1.01179 0
M  V30 7454 H 707.781 -4.65426 1.36395 0
M  V30 7455 H 703.66 -4.60792 0.138617 0
M  V30 7456 H 707.204 -6.19708 3.20325 0
M  V30 7457 H 703.101 -6.14717 1.9696 0
M  V30 7458 H 703.869 -7.30462 3.69281 0
M  V30 7459 N 706.532 -0.168513 -1.56696 0
M  V30 7460 C 707.464 0.794249 -2.14998 0
M  V30 7461 C 708.477 1.1957 -1.10485 0
M  V30 7462 O 709.666 1.13604 -1.37682 0
M  V30 7463 C 706.766 2.08018 -2.67547 0
M  V30 7464 C 705.939 1.84274 -3.96689 0
M  V30 7465 C 704.998 2.97059 -4.3433 0
M  V30 7466 O 704.024 2.67815 -5.02259 0
M  V30 7467 N 705.226 4.24775 -3.9566 0
M  V30 7468 H 707.991 0.295832 -2.98236 0
M  V30 7469 H 705.552 0.0143611 -1.61894 0
M  V30 7470 H 707.544 2.82559 -2.89729 0
M  V30 7471 H 706.114 2.49059 -1.88914 0
M  V30 7472 H 705.334 0.936528 -3.82914 0
M  V30 7473 H 706.622 1.65773 -4.81037 0
M  V30 7474 H 706.02 4.51395 -3.40968 0
M  V30 7475 H 704.577 4.96027 -4.22848 0
M  V30 7476 N 708.01 1.57248 0.105221 0
M  V30 7477 C 709.24 1.89492 0.823175 0
M  V30 7478 C 709.648 0.75934 1.73294 0
M  V30 7479 O 708.991 -0.278182 1.81581 0
M  V30 7480 C 709.053 3.16891 1.69765 0
M  V30 7481 C 708.717 4.46787 0.960769 0
M  V30 7482 C 709.714 5.19061 0.295218 0
M  V30 7483 C 707.399 4.93467 0.937854 0
M  V30 7484 C 709.393 6.36246 -0.383393 0
M  V30 7485 C 707.08 6.10566 0.255452 0
M  V30 7486 C 708.078 6.81804 -0.404003 0
M  V30 7487 O 707.766 7.96673 -1.07549 0
M  V30 7488 H 707.498 0.631512 0.24118 0
M  V30 7489 H 710.052 2.05203 0.0899655 0
M  V30 7490 H 708.282 2.973 2.47285 0
M  V30 7491 H 709.971 3.35046 2.29126 0
M  V30 7492 H 710.737 4.84044 0.304448 0
M  V30 7493 H 706.616 4.37913 1.44058 0
M  V30 7494 H 710.16 6.91787 -0.898696 0
M  V30 7495 H 706.057 6.45039 0.244032 0
M  V30 7496 H 706.825 8.12596 -0.981355 0
M  V30 7497 N 709.488 -0.375779 1.53054 0
M  V30 7498 C 710.42 -1.47963 1.75042 0
M  V30 7499 C 711.433 -1.50073 0.631031 0
M  V30 7500 O 712.622 -1.53736 0.907052 0
M  V30 7501 C 709.722 -2.86767 1.80604 0
M  V30 7502 C 708.895 -3.08471 3.10104 0
M  V30 7503 C 707.954 -4.27332 3.07041 0
M  V30 7504 O 706.98 -4.22998 3.80869 0
M  V30 7505 N 708.182 -5.34214 2.27147 0
M  V30 7506 H 710.947 -1.29484 2.70285 0
M  V30 7507 H 708.508 -0.565416 1.51706 0
M  V30 7508 H 710.5 -3.64404 1.76045 0
M  V30 7509 H 709.07 -2.98542 0.926897 0
M  V30 7510 H 708.29 -2.18583 3.28048 0
M  V30 7511 H 709.578 -3.19834 3.95706 0
M  V30 7512 H 708.976 -5.40594 1.66656 0
M  V30 7513 H 707.533 -6.10467 2.28415 0
M  V30 7514 N 710.966 -1.44241 -0.634997 0
M  V30 7515 C 711.896 -1.53632 -1.7584 0
M  V30 7516 C 712.877 -0.389603 -1.65578 0
M  V30 7517 O 714.062 -0.609219 -1.84397 0
M  V30 7518 C 711.192 -1.47644 -3.14354 0
M  V30 7519 C 710.146 -2.60752 -3.394 0
M  V30 7520 C 709.472 -2.39817 -4.77904 0
M  V30 7521 C 710.772 -4.02921 -3.32343 0
M  V30 7522 H 712.466 -2.47662 -1.68238 0
M  V30 7523 H 710.012 -1.19197 -0.807969 0
M  V30 7524 H 711.965 -1.52815 -3.92716 0
M  V30 7525 H 710.689 -0.501284 -3.2273 0
M  V30 7526 H 709.348 -2.54965 -2.63417 0
M  V30 7527 H 708.996 -1.40502 -4.82978 0
M  V30 7528 H 708.696 -3.15649 -4.9562 0
M  V30 7529 H 710.22 -2.46799 -5.585 0
M  V30 7530 H 711.634 -4.10098 -4.00615 0
M  V30 7531 H 710.031 -4.78925 -3.61595 0
M  V30 7532 H 711.101 -4.26766 -2.30215 0
M  V30 7533 N 712.444 0.87505 -1.31075 0
M  V30 7534 C 713.86 1.15997 -1.09622 0
M  V30 7535 C 714.06 2.01036 0.136611 0
M  V30 7536 O 713.116 2.38559 0.827397 0
M  V30 7537 C 714.429 1.85702 -2.36506 0
M  V30 7538 C 715.977 1.98425 -2.42067 0
M  V30 7539 C 716.452 2.71544 -3.68819 0
M  V30 7540 N 717.943 2.79084 -3.69684 0
M  V30 7541 C 718.678 3.36259 -4.64454 0
M  V30 7542 N 718.174 3.94406 -5.69575 0
M  V30 7543 N 719.967 3.34169 -4.51982 0
M  V30 7544 H 712.118 0.308258 -2.10151 0
M  V30 7545 H 714.381 0.199145 -0.926847 0
M  V30 7546 H 714.087 1.30663 -3.26527 0
M  V30 7547 H 713.961 2.86017 -2.45915 0
M  V30 7548 H 716.348 2.5263 -1.52518 0
M  V30 7549 H 716.429 0.971682 -2.36626 0
M  V30 7550 H 716.073 2.18008 -4.58732 0
M  V30 7551 H 716.003 3.73198 -3.71525 0
M  V30 7552 H 718.494 2.3781 -2.93691 0
M  V30 7553 H 718.807 4.36129 -6.37974 0
M  V30 7554 H 717.152 3.92797 -5.73355 0
M  V30 7555 H 720.343 2.87977 -3.69035 0
M  V30 7556 H 720.516 3.78431 -5.26017 0
M  V30 7557 N 713.922 1.13953 1.08869 0
M  V30 7558 C 714.87 0.817664 2.17754 0
M  V30 7559 C 715.864 -0.202444 1.68186 0
M  V30 7560 O 717.07 -0.0590159 1.79903 0
M  V30 7561 H 713.445 0.246671 0.710392 0
M  V30 7562 H 715.416 1.74401 2.4213 0
M  V30 7563 C 714.165 0.3063 3.46348 0
M  V30 7564 H 713.488 1.08259 3.84864 0
M  V30 7565 H 714.928 0.119584 4.23831 0
M  V30 7566 C 713.387 -0.969158 3.22659 0
M  V30 7567 O 713.917 -2.04386 3.45817 0
M  V30 7568 N 712.123 -0.902516 2.7623 0
M  V30 7569 H 711.67 -0.027801 2.57585 0
M  V30 7570 H 711.628 -1.75649 2.60758 0
M  V30 7571 N 715.4 -1.26948 0.933913 0
M  V30 7572 C 716.677 -1.89212 0.495784 0
M  V30 7573 C 717.057 -1.84469 -1.02637 0
M  V30 7574 O 716.405 -1.29409 -1.88323 0
M  V30 7575 C 716.615 -3.32865 1.0489 0
M  V30 7576 C 717.963 -4.09749 1.11315 0
M  V30 7577 O 718.987 -3.41905 0.998966 0
M  V30 7578 O 717.846 -5.31061 1.28983 0
M  V30 7579 H 714.94 -0.811284 0.160459 0
M  V30 7580 H 717.486 -1.35171 1.02601 0
M  V30 7581 H 716.258 -3.30642 2.09265 0
M  V30 7582 H 715.881 -3.94435 0.500692 0
M  V30 7583 N 716.879 -0.700114 -1.41195 0
M  V30 7584 C 718.104 -0.240704 -2.05998 0
M  V30 7585 C 718.529 1.10313 -1.52357 0
M  V30 7586 O 717.887 1.69154 -0.652424 0
M  V30 7587 C 717.935 -0.213783 -3.59966 0
M  V30 7588 O 717.039 0.809933 -4.04368 0
M  V30 7589 H 716.38 -0.116471 -0.653705 0
M  V30 7590 H 718.91 -0.956251 -1.80878 0
M  V30 7591 H 718.92 -0.0461852 -4.07974 0
M  V30 7592 H 717.595 -1.19454 -3.98376 0
M  V30 7593 H 716.172 0.611319 -3.67855 0
M  V30 7594 N 718.357 1.51182 -0.445186 0
M  V30 7595 C 719.32 2.26501 0.350722 0
M  V30 7596 C 720.32 1.3025 0.942952 0
M  V30 7597 O 721.51 1.53897 0.816175 0
M  V30 7598 C 718.642 3.06274 1.49697 0
M  V30 7599 H 719.835 2.98299 -0.309474 0
M  V30 7600 H 717.388 1.55034 -0.198551 0
M  V30 7601 H 718.123 2.38911 2.19299 0
M  V30 7602 H 717.908 3.76979 1.0784 0
M  V30 7603 H 719.398 3.63306 2.05909 0
M  V30 7604 N 719.835 0.176821 1.56605 0
M  V30 7605 C 720.745 -0.763682 2.21822 0
M  V30 7606 C 721.761 -1.24889 1.21156 0
M  V30 7607 O 722.937 -1.29987 1.53836 0
M  V30 7608 C 720.002 -1.97352 2.8505 0
M  V30 7609 C 719.063 -1.53466 4.00932 0
M  V30 7610 C 718.296 -2.68682 4.61135 0
M  V30 7611 O 718.519 -3.85694 4.20234 0
M  V30 7612 O 717.453 -2.42442 5.50913 0
M  V30 7613 H 721.279 -0.238363 3.02763 0
M  V30 7614 H 718.864 -0.0516331 1.49311 0
M  V30 7615 H 720.746 -2.68096 3.25119 0
M  V30 7616 H 719.421 -2.48779 2.07101 0
M  V30 7617 H 718.328 -0.796551 3.65521 0
M  V30 7618 H 719.661 -1.06724 4.8049 0
M  V30 7619 N 721.313 -1.57302 -0.09688 0
M  V30 7620 C 722.543 -1.89926 -0.813114 0
M  V30 7621 C 722.951 -0.76852 -1.72888 0
M  V30 7622 O 722.294 0.268549 -1.81726 0
M  V30 7623 C 722.356 -3.17787 -1.68082 0
M  V30 7624 C 722.02 -4.4729 -0.937061 0
M  V30 7625 C 723.017 -5.1921 -0.267687 0
M  V30 7626 C 720.702 -4.93957 -0.911671 0
M  V30 7627 C 722.696 -6.36034 0.417129 0
M  V30 7628 C 720.383 -6.10693 -0.223068 0
M  V30 7629 C 721.381 -6.8158 0.440155 0
M  V30 7630 O 721.069 -7.96092 1.11772 0
M  V30 7631 H 720.801 -0.632783 -0.237828 0
M  V30 7632 H 723.355 -2.05248 -0.0790818 0
M  V30 7633 H 721.585 -2.98607 -2.45705 0
M  V30 7634 H 723.274 -3.36257 -2.27346 0
M  V30 7635 H 724.04 -4.84198 -0.278774 0
M  V30 7636 H 719.919 -4.38671 -1.41734 0
M  V30 7637 H 723.463 -6.91301 0.93537 0
M  V30 7638 H 719.36 -6.45159 -0.209821 0
M  V30 7639 H 720.128 -8.12064 1.02443 0
M  V30 7640 N 722.791 0.367657 -1.53252 0
M  V30 7641 C 723.738 1.45028 -1.79543 0
M  V30 7642 C 724.708 1.53288 -0.63969 0
M  V30 7643 O 725.893 1.69209 -0.881653 0
M  V30 7644 C 723.033 2.82 -1.98923 0
M  V30 7645 C 722.146 2.82722 -3.26638 0
M  V30 7646 C 721.281 4.11257 -3.36216 0
M  V30 7647 C 720.32 4.06113 -4.57972 0
M  V30 7648 N 719.457 5.26293 -4.64715 0
M  V30 7649 H 724.297 1.21908 -2.71923 0
M  V30 7650 H 721.834 0.591011 -1.34705 0
M  V30 7651 H 723.792 3.61568 -2.08146 0
M  V30 7652 H 722.422 3.03523 -1.09881 0
M  V30 7653 H 721.474 1.95399 -3.26379 0
M  V30 7654 H 722.786 2.74794 -4.16281 0
M  V30 7655 H 721.94 4.99239 -3.44739 0
M  V30 7656 H 720.679 4.21935 -2.44586 0
M  V30 7657 H 719.684 3.16517 -4.49552 0
M  V30 7658 H 720.909 3.97039 -5.50942 0
M  V30 7659 H 718.855 5.37561 -3.75985 0
M  V30 7660 H 718.772 5.20526 -5.4826 0
M  V30 7661 H 720.04 6.16113 -4.77519 0
M  V30 7662 N 724.269 1.44576 0.627338 0
M  V30 7663 C 725.515 1.47777 1.38888 0
M  V30 7664 C 725.848 0.111406 1.9388 0
M  V30 7665 O 725.123 -0.87149 1.73883 0
M  V30 7666 C 725.406 2.54119 2.55138 0
M  V30 7667 C 725.259 4.00128 2.0547 0
M  V30 7668 C 726.578 2.56929 3.57317 0
M  V30 7669 H 723.697 0.538048 0.50366 0
M  V30 7670 H 726.339 1.76277 0.708978 0
M  V30 7671 H 724.489 2.29948 3.13139 0
M  V30 7672 H 726.161 4.35444 1.5227 0
M  V30 7673 H 724.404 4.11724 1.36623 0
M  V30 7674 H 725.075 4.7019 2.89181 0
M  V30 7675 H 727.551 2.78536 3.09122 0
M  V30 7676 H 726.427 3.33234 4.36173 0
M  V30 7677 H 726.688 1.6127 4.11636 0
M  V30 7678 N 725.747 -0.868086 1.31537 0
M  V30 7679 C 726.996 -1.61607 1.20689 0
M  V30 7680 C 727.309 -1.94204 -0.233275 0
M  V30 7681 O 728.515 -2.67515 -0.463465 0
M  V30 7682 C 726.971 -2.91348 2.11292 0
M  V30 7683 C 726.579 -2.66227 3.60315 0
M  V30 7684 C 728.323 -3.69344 2.09249 0
M  V30 7685 C 726.23 -3.91887 4.42921 0
M  V30 7686 H 725.16 -0.606373 0.448138 0
M  V30 7687 H 727.811 -0.959666 1.56405 0
M  V30 7688 H 726.193 -3.58374 1.68477 0
M  V30 7689 H 727.367 -2.07597 4.11388 0
M  V30 7690 H 725.682 -2.01582 3.64354 0
M  V30 7691 H 728.279 -4.62567 2.68209 0
M  V30 7692 H 728.622 -4.02044 1.0801 0
M  V30 7693 H 729.155 -3.09205 2.50274 0
M  V30 7694 H 725.894 -3.64336 5.44922 0
M  V30 7695 H 725.414 -4.49961 3.96605 0
M  V30 7696 H 727.093 -4.59754 4.55231 0
M  V30 7697 N 727.225 -1.14528 -1.08264 0
M  V30 7698 C 728.473 -0.912599 -1.80322 0
M  V30 7699 C 728.794 0.562256 -1.86718 0
M  V30 7700 O 728.064 1.40869 -1.36135 0
M  V30 7701 H 726.644 -0.334645 -0.667849 0
M  V30 7702 H 729.306 -1.44415 -1.30883 0
M  V30 7703 H 728.402 -1.31384 -2.83098 0
M  V30 7704 N 728.703 1.26451 -0.940633 0
M  V30 7705 C 729.928 1.98407 -0.60412 0
M  V30 7706 C 730.353 1.69584 0.81382 0
M  V30 7707 O 729.711 0.943553 1.54812 0
M  V30 7708 C 729.759 3.50387 -0.852136 0
M  V30 7709 O 728.863 4.1233 0.076013 0
M  V30 7710 H 728.204 0.622466 -0.231153 0
M  V30 7711 H 730.734 1.60932 -1.26342 0
M  V30 7712 H 730.744 4.00614 -0.772816 0
M  V30 7713 H 729.419 3.70696 -1.88566 0
M  V30 7714 H 727.996 3.7286 -0.0543187 0
M  V30 7715 N 730.181 0.707592 1.40822 0
M  V30 7716 C 731.427 0.252828 2.01823 0
M  V30 7717 C 731.782 -1.13876 1.55081 0
M  V30 7718 O 731.075 -1.75993 0.757439 0
M  V30 7719 C 731.269 0.262892 3.56432 0
M  V30 7720 C 731.098 1.65392 4.18181 0
M  V30 7721 C 729.868 2.25966 4.5196 0
M  V30 7722 C 732.066 2.60272 4.4358 0
M  V30 7723 N 730.048 3.57508 4.9906 0
M  V30 7724 C 731.419 3.76509 4.92586 0
M  V30 7725 C 733.474 2.58386 4.25607 0
M  V30 7726 C 732.177 4.91157 5.25507 0
M  V30 7727 C 734.203 3.72155 4.59625 0
M  V30 7728 C 733.565 4.87123 5.08813 0
M  V30 7729 H 729.664 0.138172 0.769696 0
M  V30 7730 H 732.248 0.927667 1.7118 0
M  V30 7731 H 730.419 -0.381479 3.86522 0
M  V30 7732 H 732.151 -0.20783 4.04166 0
M  V30 7733 H 728.906 1.78138 4.38821 0
M  V30 7734 H 729.33 4.24968 5.27002 0
M  V30 7735 H 733.972 1.7071 3.86805 0
M  V30 7736 H 731.69 5.79483 5.63227 0
M  V30 7737 H 735.276 3.71961 4.47366 0
M  V30 7738 H 734.156 5.73698 5.3464 0
M  V30 7739 N 731.66 -1.50943 0.453197 0
M  V30 7740 C 732.888 -2.06628 -0.106135 0
M  V30 7741 C 733.303 -1.31901 -1.35084 0
M  V30 7742 O 732.66 -0.383074 -1.78434 0
M  V30 7743 C 732.711 -3.5914 -0.412368 0
M  V30 7744 O 732.432 -4.31047 0.782948 0
M  V30 7745 C 733.933 -4.31391 -1.02064 0
M  V30 7746 H 731.153 -0.670999 -0.000885896 0
M  V30 7747 H 733.697 -1.94331 0.63684 0
M  V30 7748 H 731.852 -3.71299 -1.10526 0
M  V30 7749 H 732.266 -5.21948 0.516736 0
M  V30 7750 H 733.74 -5.39135 -1.1848 0
M  V30 7751 H 734.217 -3.90714 -2.00598 0
M  V30 7752 H 734.823 -4.23716 -0.366664 0
M  V30 7753 N 733.138 -0.185124 -1.56509 0
M  V30 7754 C 734.415 0.503348 -1.89013 0
M  V30 7755 C 734.795 1.80349 -1.09715 0
M  V30 7756 O 734.143 2.27665 -0.195203 0
M  V30 7757 C 734.353 0.731839 -3.41241 0
M  V30 7758 C 735.701 1.05568 -4.11267 0
M  V30 7759 O 736.725 0.819906 -3.46635 0
M  V30 7760 O 735.584 1.50116 -5.25478 0
M  V30 7761 H 732.678 0.261139 -0.784688 0
M  V30 7762 H 735.224 -0.224592 -1.68207 0
M  V30 7763 H 733.996 -0.18672 -3.90854 0
M  V30 7764 H 733.619 1.5126 -3.67704 0
M  V30 7765 N 734.616 1.57351 0.0885366 0
M  V30 7766 C 735.566 1.98963 1.11346 0
M  V30 7767 C 736.55 0.869065 1.35411 0
M  V30 7768 O 737.742 1.13292 1.35992 0
M  V30 7769 C 734.871 2.4231 2.43189 0
M  V30 7770 C 733.957 3.61065 2.22469 0
M  V30 7771 N 734.348 4.75789 1.71635 0
M  V30 7772 C 732.646 3.6729 2.5301 0
M  V30 7773 C 733.347 5.57708 1.65339 0
M  V30 7774 N 732.323 5.01067 2.1079 0
M  V30 7775 H 736.125 2.85109 0.713465 0
M  V30 7776 H 733.639 1.59682 0.295868 0
M  V30 7777 H 735.636 2.70352 3.17357 0
M  V30 7778 H 734.296 1.57544 2.83919 0
M  V30 7779 H 735.307 4.98411 1.40738 0
M  V30 7780 H 731.984 2.932 2.9722 0
M  V30 7781 H 733.374 6.59782 1.27031 0
M  V30 7782 N 736.094 -0.359525 1.53444 0
M  V30 7783 C 737.024 -1.44662 1.8329 0
M  V30 7784 C 738.005 -1.55617 0.68683 0
M  V30 7785 O 739.19 -1.70086 0.93725 0
M  V30 7786 C 736.32 -2.81923 2.02822 0
M  V30 7787 C 735.274 -2.85787 3.18606 0
M  V30 7788 C 734.6 -4.25781 3.23442 0
M  V30 7789 C 735.9 -2.52762 4.57065 0
M  V30 7790 H 737.594 -1.19934 2.74329 0
M  V30 7791 H 735.14 -0.575517 1.31999 0
M  V30 7792 H 737.093 -3.58005 2.22285 0
M  V30 7793 H 735.817 -3.08051 1.085 0
M  V30 7794 H 734.476 -2.12157 2.98973 0
M  V30 7795 H 734.124 -4.48994 2.26745 0
M  V30 7796 H 733.824 -4.29281 4.01238 0
M  V30 7797 H 735.348 -5.03727 3.45096 0
M  V30 7798 H 736.762 -3.18557 4.76649 0
M  V30 7799 H 735.159 -2.67569 5.37147 0
M  V30 7800 H 736.229 -1.47993 4.61764 0
M  V30 7801 N 737.572 -1.44907 -0.619662 0
M  V30 7802 C 738.522 -1.49085 -1.72504 0
M  V30 7803 C 739.506 -0.355372 -1.56926 0
M  V30 7804 O 740.698 -0.601441 -1.66468 0
M  V30 7805 C 737.827 -1.44889 -3.11227 0
M  V30 7806 C 736.913 -2.63593 -3.32234 0
M  V30 7807 N 737.304 -3.88775 -3.23555 0
M  V30 7808 C 735.602 -2.59033 -3.63067 0
M  V30 7809 C 736.303 -4.67932 -3.45564 0
M  V30 7810 N 735.279 -3.9919 -3.68983 0
M  V30 7811 H 739.081 -2.43706 -1.6427 0
M  V30 7812 H 736.595 -1.4003 -0.82252 0
M  V30 7813 H 738.592 -1.45966 -3.90512 0
M  V30 7814 H 737.252 -0.513143 -3.2062 0
M  V30 7815 H 738.263 -4.20574 -3.02221 0
M  V30 7816 H 734.94 -1.7431 -3.79371 0
M  V30 7817 H 736.33 -5.76952 -3.44349 0
M  V30 7818 N 739.05 0.861098 -1.31996 0
M  V30 7819 C 739.98 1.98482 -1.22993 0
M  V30 7820 C 740.961 1.6971 -0.115168 0
M  V30 7821 O 742.146 1.91849 -0.30126 0
M  V30 7822 C 739.276 3.34179 -0.945615 0
M  V30 7823 C 738.23 3.77284 -2.02091 0
M  V30 7824 C 737.556 5.1054 -1.58912 0
M  V30 7825 C 738.856 3.93439 -3.43515 0
M  V30 7826 H 740.55 2.06271 -2.17008 0
M  V30 7827 H 738.096 0.991043 -1.04472 0
M  V30 7828 H 740.049 4.12338 -0.869206 0
M  V30 7829 H 738.773 3.26586 0.0301849 0
M  V30 7830 H 737.432 3.01371 -2.08737 0
M  V30 7831 H 737.08 4.99397 -0.600942 0
M  V30 7832 H 736.78 5.40352 -2.30854 0
M  V30 7833 H 738.304 5.91199 -1.52696 0
M  V30 7834 H 739.718 4.6197 -3.39495 0
M  V30 7835 H 738.115 4.34661 -4.13751 0
M  V30 7836 H 739.185 2.96548 -3.8365 0
M  V30 7837 N 740.528 1.15101 1.07655 0
M  V30 7838 C 741.944 0.893004 1.32279 0
M  V30 7839 C 742.144 -0.461701 1.96139 0
M  V30 7840 O 741.2 -1.20431 2.21929 0
M  V30 7841 C 742.513 2.03161 2.21689 0
M  V30 7842 C 744.061 2.06579 2.35147 0
M  V30 7843 C 744.536 3.19754 3.27905 0
M  V30 7844 N 746.027 3.19382 3.35484 0
M  V30 7845 C 746.762 4.03592 4.07309 0
M  V30 7846 N 746.258 4.97859 4.81776 0
M  V30 7847 N 748.051 3.91626 4.03219 0
M  V30 7848 H 740.202 2.02341 0.645886 0
M  V30 7849 H 742.465 0.882127 0.347211 0
M  V30 7850 H 742.171 3.00934 1.82021 0
M  V30 7851 H 742.045 1.96132 3.22199 0
M  V30 7852 H 744.432 1.09408 2.74069 0
M  V30 7853 H 744.513 2.17676 1.34353 0
M  V30 7854 H 744.157 4.17175 2.89702 0
M  V30 7855 H 744.087 3.05893 4.28645 0
M  V30 7856 H 746.578 2.51112 2.82403 0
M  V30 7857 H 746.891 5.58563 5.34067 0
M  V30 7858 H 745.236 5.0185 4.80803 0
M  V30 7859 H 748.427 3.17295 3.44154 0
M  V30 7860 H 748.6 4.57479 4.5893 0
M  V30 7861 N 742.006 -1.2595 0.947325 0
M  V30 7862 C 743.255 -1.92759 0.593887 0
M  V30 7863 C 743.568 -1.75083 -0.872093 0
M  V30 7864 O 744.774 -2.36401 -1.33518 0
M  V30 7865 C 743.23 -3.45395 1.01144 0
M  V30 7866 C 742.838 -3.71795 2.49946 0
M  V30 7867 C 744.582 -4.18173 0.730185 0
M  V30 7868 C 742.489 -5.17901 2.85539 0
M  V30 7869 H 741.419 -0.721676 0.218403 0
M  V30 7870 H 744.07 -1.4293 1.15079 0
M  V30 7871 H 742.452 -3.94143 0.383007 0
M  V30 7872 H 743.626 -3.33728 3.17746 0
M  V30 7873 H 741.941 -3.12263 2.75465 0
M  V30 7874 H 744.538 -5.25784 0.972367 0
M  V30 7875 H 744.881 -4.14964 -0.333223 0
M  V30 7876 H 745.414 -3.75309 1.31862 0
M  V30 7877 H 742.153 -5.26216 3.90867 0
M  V30 7878 H 741.673 -5.57042 2.22406 0
M  V30 7879 H 743.352 -5.8596 2.74336 0
M  V30 7880 N 743.484 -0.715051 -1.40445 0
M  V30 7881 C 744.394 -0.0631624 -2.34515 0
M  V30 7882 C 745.41 0.744397 -1.57273 0
M  V30 7883 O 746.586 0.677475 -1.89663 0
M  V30 7884 C 743.651 0.847915 -3.36172 0
M  V30 7885 C 742.712 0.0303655 -4.29289 0
M  V30 7886 C 741.945 0.898051 -5.2609 0
M  V30 7887 O 742.168 2.13729 -5.28844 0
M  V30 7888 O 741.102 0.337328 -6.00954 0
M  V30 7889 H 744.928 -0.839078 -2.91879 0
M  V30 7890 H 742.513 -0.475527 -1.4163 0
M  V30 7891 H 744.395 1.3698 -3.98515 0
M  V30 7892 H 743.07 1.60299 -2.81222 0
M  V30 7893 H 741.977 -0.536573 -3.70232 0
M  V30 7894 H 743.31 -0.686474 -4.87389 0
M  V30 7895 N 744.962 1.50701 -0.461195 0
M  V30 7896 C 746.378 1.59187 -0.114786 0
M  V30 7897 C 746.578 1.4702 1.37794 0
M  V30 7898 O 745.634 1.32361 2.15027 0
M  V30 7899 C 746.947 2.93453 -0.656167 0
M  V30 7900 C 748.495 3.06824 -0.618715 0
M  V30 7901 C 748.97 4.4365 -1.13747 0
M  V30 7902 N 750.461 4.50035 -1.09646 0
M  V30 7903 C 751.196 5.54278 -1.46846 0
M  V30 7904 N 750.692 6.65822 -1.91448 0
M  V30 7905 N 752.485 5.44767 -1.38512 0
M  V30 7906 H 744.636 1.56853 -1.43216 0
M  V30 7907 H 746.899 0.740712 -0.59165 0
M  V30 7908 H 746.605 3.07802 -1.7015 0
M  V30 7909 H 746.479 3.77082 -0.0942261 0
M  V30 7910 H 748.866 2.92129 0.417685 0
M  V30 7911 H 748.947 2.24976 -1.21734 0
M  V30 7912 H 748.591 4.59093 -2.17245 0
M  V30 7913 H 748.521 5.24074 -0.515153 0
M  V30 7914 H 751.012 3.69988 -0.769217 0
M  V30 7915 H 751.325 7.41413 -2.18007 0
M  V30 7916 H 749.67 6.66968 -1.95393 0
M  V30 7917 H 752.861 4.56511 -1.03516 0
M  V30 7918 H 753.034 6.25889 -1.6783 0
M  V30 7919 N 746.441 0.193421 1.56409 0
M  V30 7920 C 747.374 -0.767384 2.1491 0
M  V30 7921 C 748.352 -1.21075 1.08534 0
M  V30 7922 O 749.536 -1.29856 1.36637 0
M  V30 7923 C 746.663 -2.03615 2.70663 0
M  V30 7924 C 745.709 -1.73505 3.89613 0
M  V30 7925 S 746.542 -0.884645 5.28142 0
M  V30 7926 C 747.698 -2.1636 5.87315 0
M  V30 7927 H 747.931 -0.270053 2.96071 0
M  V30 7928 H 745.464 -0.0215546 1.54385 0
M  V30 7929 H 747.422 -2.7648 3.03429 0
M  V30 7930 H 746.083 -2.50461 1.89547 0
M  V30 7931 H 745.276 -2.67701 4.27027 0
M  V30 7932 H 744.878 -1.08723 3.57848 0
M  V30 7933 H 747.17 -3.11629 6.01576 0
M  V30 7934 H 748.113 -1.8338 6.83943 0
M  V30 7935 H 748.521 -2.29129 5.15907 0
M  V30 7936 N 747.919 -1.57396 -0.0801906 0
M  V30 7937 C 748.869 -1.9955 -1.10289 0
M  V30 7938 C 749.853 -0.876234 -1.34948 0
M  V30 7939 O 751.045 -1.14012 -1.35389 0
M  V30 7940 C 748.174 -2.43596 -2.419 0
M  V30 7941 C 747.26 -3.6224 -2.20551 0
M  V30 7942 N 747.651 -4.76693 -1.69109 0
M  V30 7943 C 745.949 -3.68627 -2.51059 0
M  V30 7944 C 746.65 -5.58577 -1.62379 0
M  V30 7945 N 745.626 -5.02178 -2.0813 0
M  V30 7946 H 749.428 -2.85483 -0.698335 0
M  V30 7947 H 746.942 -1.59837 -0.287395 0
M  V30 7948 H 748.939 -2.72031 -3.15919 0
M  V30 7949 H 747.599 -1.59047 -2.8308 0
M  V30 7950 H 748.61 -4.9915 -1.38092 0
M  V30 7951 H 745.287 -2.94772 -2.95661 0
M  V30 7952 H 746.677 -6.60447 -1.2353 0
M  V30 7953 N 749.397 0.351382 -1.53633 0
M  V30 7954 C 750.643 1.09049 -1.71697 0
M  V30 7955 C 750.998 1.86563 -0.470314 0
M  V30 7956 O 750.291 1.83922 0.536954 0
M  V30 7957 C 750.485 2.06744 -2.91533 0
M  V30 7958 C 750.314 1.38832 -4.27733 0
M  V30 7959 C 749.084 1.13646 -4.92354 0
M  V30 7960 C 751.282 0.818602 -5.07743 0
M  V30 7961 N 749.264 0.422324 -6.12446 0
M  V30 7962 C 750.635 0.234602 -6.19556 0
M  V30 7963 C 752.69 0.718679 -4.92686 0
M  V30 7964 C 751.393 -0.439592 -7.17955 0
M  V30 7965 C 753.419 0.0582402 -5.91371 0
M  V30 7966 C 752.781 -0.514823 -7.02516 0
M  V30 7967 H 748.88 0.383697 -0.681396 0
M  V30 7968 H 751.464 0.375063 -1.91053 0
M  V30 7969 H 749.635 2.75586 -2.73691 0
M  V30 7970 H 751.367 2.73436 -2.98353 0
M  V30 7971 H 748.122 1.4215 -4.51764 0
M  V30 7972 H 748.546 0.0802092 -6.76952 0
M  V30 7973 H 753.188 1.14748 -4.06931 0
M  V30 7974 H 750.906 -0.880307 -8.03291 0
M  V30 7975 H 754.492 -0.0183382 -5.81797 0
M  V30 7976 H 753.372 -1.01777 -7.77567 0
M  V30 7977 N 750.875 1.45233 0.611969 0
M  V30 7978 C 752.286 1.4354 1.19387 0
M  V30 7979 C 752.637 0.160713 1.95541 0
M  V30 7980 O 751.762 -0.737954 2.03429 0
M  V30 7981 C 752.357 2.60045 2.17169 0
M  V30 7982 C 750.916 2.61486 2.70744 0
M  V30 7983 C 750.063 2.35708 1.46072 0
M  V30 7984 H 753.014 1.53536 0.401529 0
M  V30 7985 H 753.035 2.33893 3.00124 0
M  V30 7986 H 752.547 3.52803 1.61714 0
M  V30 7987 H 750.648 1.72721 3.30149 0
M  V30 7988 H 750.761 3.60572 3.15476 0
M  V30 7989 H 749.125 1.85178 1.74875 0
M  V30 7990 H 749.908 3.30606 0.924922 0
M  V30 7991 N 752.353 -0.854086 1.3245 0
M  V30 7992 C 753.601 -1.60513 1.228 0
M  V30 7993 C 753.922 -1.93865 -0.210073 0
M  V30 7994 O 753.192 -1.59673 -1.13496 0
M  V30 7995 H 751.772 -0.595099 0.451516 0
M  V30 7996 H 754.434 -1.0216 1.6598 0
M  V30 7997 H 753.53 -2.54182 1.81102 0
M  V30 7998 N 753.831 -1.1567 -1.07043 0
M  V30 7999 C 755.056 -0.957946 -1.83952 0
M  V30 8000 C 755.481 0.488807 -1.81638 0
M  V30 8001 O 754.839 1.34869 -1.21162 0
M  V30 8002 C 754.887 -1.48064 -3.288 0
M  V30 8003 O 753.991 -0.681921 -4.06723 0
M  V30 8004 H 753.332 -0.341453 -0.569479 0
M  V30 8005 H 755.862 -1.53728 -1.35015 0
M  V30 8006 H 755.872 -1.49484 -3.7963 0
M  V30 8007 H 754.547 -2.53388 -3.29799 0
M  V30 8008 H 753.124 -0.737612 -3.65532 0
M  V30 8009 N 755.309 1.25446 -0.953992 0
M  V30 8010 C 756.557 1.92762 -0.607227 0
M  V30 8011 C 756.878 1.7509 0.858399 0
M  V30 8012 O 756.148 1.11416 1.61132 0
M  V30 8013 H 754.728 0.713377 -0.221591 0
M  V30 8014 H 757.39 1.52625 -1.21209 0
M  V30 8015 H 756.486 3.00695 -0.835998 0
M  V30 8016 N 756.787 0.722489 1.40064 0
M  V30 8017 C 757.719 0.0349057 2.29173 0
M  V30 8018 C 758.732 -0.716571 1.46182 0
M  V30 8019 O 759.921 -0.562806 1.69395 0
M  V30 8020 C 757.021 -0.974839 3.24577 0
M  V30 8021 C 756.194 -0.287471 4.36454 0
M  V30 8022 C 755.253 -1.20356 5.12251 0
M  V30 8023 O 754.279 -0.685753 5.65054 0
M  V30 8024 N 755.481 -2.53422 5.22262 0
M  V30 8025 H 758.246 0.800058 2.88824 0
M  V30 8026 H 755.807 0.57068 1.51509 0
M  V30 8027 H 757.799 -1.59002 3.72157 0
M  V30 8028 H 756.369 -1.6413 2.66046 0
M  V30 8029 H 755.589 0.508008 3.90913 0
M  V30 8030 H 756.877 0.189382 5.08447 0
M  V30 8031 H 756.275 -2.97981 4.80857 0
M  V30 8032 H 754.832 -3.10067 5.73325 0
M  V30 8033 N 758.265 -1.50454 0.469181 0
M  V30 8034 C 759.197 -2.26319 -0.362247 0
M  V30 8035 C 760.21 -1.31574 -0.958751 0
M  V30 8036 O 761.399 -1.57099 -0.847482 0
M  V30 8037 C 758.499 -3.02808 -1.52187 0
M  V30 8038 C 757.672 -4.24893 -1.03849 0
M  V30 8039 C 756.731 -4.83691 -2.07194 0
M  V30 8040 O 755.757 -5.44659 -1.65333 0
M  V30 8041 N 756.959 -4.70522 -3.39985 0
M  V30 8042 H 759.724 -2.98312 0.288124 0
M  V30 8043 H 757.285 -1.59099 0.299856 0
M  V30 8044 H 759.277 -3.39023 -2.21011 0
M  V30 8045 H 757.847 -2.33625 -2.07697 0
M  V30 8046 H 757.067 -3.93806 -0.176203 0
M  V30 8047 H 758.355 -5.04053 -0.693435 0
M  V30 8048 H 757.753 -4.2203 -3.76706 0
M  V30 8049 H 756.31 -5.11011 -4.04612 0
M  V30 8050 N 759.743 -0.201713 -1.56304 0
M  V30 8051 C 760.673 0.71155 -2.22394 0
M  V30 8052 C 761.654 1.21625 -1.18917 0
M  V30 8053 O 762.839 1.26388 -1.47444 0
M  V30 8054 C 759.969 1.92837 -2.88845 0
M  V30 8055 C 758.923 1.55831 -3.98623 0
M  V30 8056 C 758.249 2.85228 -4.52271 0
M  V30 8057 C 759.549 0.763249 -5.16693 0
M  V30 8058 H 761.243 0.160573 -2.98969 0
M  V30 8059 H 758.789 0.0757916 -1.438 0
M  V30 8060 H 760.742 2.57253 -3.33764 0
M  V30 8061 H 759.466 2.50398 -2.09686 0
M  V30 8062 H 758.125 0.9377 -3.54405 0
M  V30 8063 H 757.773 3.40893 -3.69866 0
M  V30 8064 H 757.473 2.6121 -5.26349 0
M  V30 8065 H 758.997 3.50622 -4.99897 0
M  V30 8066 H 760.411 1.31066 -5.58117 0
M  V30 8067 H 758.808 0.620935 -5.96879 0
M  V30 8068 H 759.878 -0.234322 -4.84334 0
M  V30 8069 N 761.222 1.57436 0.0718424 0
M  V30 8070 C 762.633 1.75975 0.623678 0
M  V30 8071 C 762.984 0.827155 1.77912 0
M  V30 8072 O 762.109 0.0112425 2.16397 0
M  V30 8073 C 762.704 3.1911 1.13816 0
M  V30 8074 C 761.263 3.38994 1.63586 0
M  V30 8075 C 760.41 2.71684 0.555261 0
M  V30 8076 H 763.361 1.57948 -0.154328 0
M  V30 8077 H 763.382 3.23267 2.00696 0
M  V30 8078 H 762.894 3.86962 0.296998 0
M  V30 8079 H 760.995 2.76256 2.50027 0
M  V30 8080 H 761.108 4.47436 1.71283 0
M  V30 8081 H 759.472 2.34236 1.00029 0
M  V30 8082 H 760.255 3.42191 -0.275712 0
M  V30 8083 N 762.7 -0.34323 1.53817 0
M  V30 8084 C 764.116 -0.686355 1.44088 0
M  V30 8085 C 764.316 -1.92426 0.597882 0
M  V30 8086 O 763.372 -2.52343 0.0889918 0
M  V30 8087 C 764.685 -0.878698 2.87575 0
M  V30 8088 C 766.233 -0.977296 2.97352 0
M  V30 8089 C 766.708 -1.20195 4.41947 0
M  V30 8090 N 768.199 -1.26915 4.45474 0
M  V30 8091 C 768.934 -1.46049 5.54488 0
M  V30 8092 N 768.43 -1.62354 6.73508 0
M  V30 8093 N 770.223 -1.48599 5.42102 0
M  V30 8094 H 762.374 0.470679 2.07119 0
M  V30 8095 H 764.637 0.148652 0.936273 0
M  V30 8096 H 764.343 -0.040602 3.51677 0
M  V30 8097 H 764.217 -1.78034 3.32541 0
M  V30 8098 H 766.604 -1.80591 2.3339 0
M  V30 8099 H 766.685 -0.0525498 2.55746 0
M  V30 8100 H 766.329 -0.378262 5.06489 0
M  V30 8101 H 766.259 -2.14027 4.81145 0
M  V30 8102 H 768.75 -1.15837 3.59708 0
M  V30 8103 H 769.063 -1.76591 7.52353 0
M  V30 8104 H 767.408 -1.5949 6.76453 0
M  V30 8105 H 770.599 -1.35443 4.48077 0
M  V30 8106 H 770.772 -1.6317 6.2712 0
M  V30 8107 N 764.178 -1.45556 -0.604258 0
M  V30 8108 C 765.403 -1.53509 -1.39462 0
M  V30 8109 C 765.828 -0.169638 -1.87333 0
M  V30 8110 O 765.186 0.846346 -1.60333 0
M  V30 8111 C 765.234 -2.52654 -2.5729 0
M  V30 8112 O 764.338 -2.04666 -3.5803 0
M  V30 8113 H 763.679 -0.517355 -0.416221 0
M  V30 8114 H 766.209 -1.90939 -0.735072 0
M  V30 8115 H 766.219 -2.71568 -3.04491 0
M  V30 8116 H 764.894 -3.51823 -2.21797 0
M  V30 8117 H 763.471 -1.95643 -3.17456 0
M  V30 8118 N 765.656 0.84705 -1.32902 0
M  V30 8119 C 766.905 1.59667 -1.23245 0
M  V30 8120 C 767.218 1.94551 0.202349 0
M  V30 8121 O 768.424 2.68218 0.420847 0
M  V30 8122 C 766.88 2.8795 -2.15901 0
M  V30 8123 C 766.488 2.60461 -3.64505 0
M  V30 8124 C 768.232 3.65968 -2.15098 0
M  V30 8125 C 766.139 3.84791 -4.49099 0
M  V30 8126 H 765.069 0.599167 -0.457728 0
M  V30 8127 H 767.72 0.934662 -1.57912 0
M  V30 8128 H 766.102 3.55648 -1.74157 0
M  V30 8129 H 767.276 2.01026 -4.14639 0
M  V30 8130 H 765.591 1.9576 -3.67515 0
M  V30 8131 H 768.188 4.58241 -2.75534 0
M  V30 8132 H 768.531 4.00275 -1.14392 0
M  V30 8133 H 769.064 3.05184 -2.55162 0
M  V30 8134 H 765.803 3.55621 -5.50649 0
M  V30 8135 H 765.323 4.43594 -4.03713 0
M  V30 8136 H 767.002 4.52454 -4.62487 0
M  V30 8137 N 767.134 1.16236 1.06428 0
M  V30 8138 C 768.374 0.95369 1.80787 0
M  V30 8139 C 768.738 -0.509495 1.85117 0
M  V30 8140 O 769.939 -0.836822 2.55442 0
M  V30 8141 C 768.21 1.56235 3.21443 0
M  V30 8142 S 769.769 1.49812 4.12434 0
M  V30 8143 H 766.587 0.343004 0.622792 0
M  V30 8144 H 769.189 1.47957 1.27785 0
M  V30 8145 H 767.893 2.62 3.15886 0
M  V30 8146 H 767.424 1.03574 3.79521 0
M  V30 8147 H 769.439 0.49745 4.937 0
M  V30 8148 N 768.612 -1.24939 0.960631 0
M  V30 8149 C 769.837 -1.9742 0.635608 0
M  V30 8150 C 770.262 -1.70857 -0.786737 0
M  V30 8151 O 769.62 -0.968063 -1.53291 0
M  V30 8152 C 769.668 -3.48987 0.907771 0
M  V30 8153 O 768.772 -4.12399 -0.0104053 0
M  V30 8154 H 768.113 -0.61871 0.241027 0
M  V30 8155 H 770.643 -1.58901 1.28886 0
M  V30 8156 H 770.653 -3.99334 0.836453 0
M  V30 8157 H 769.328 -3.6765 1.94439 0
M  V30 8158 H 767.905 -3.72727 0.113631 0
M  V30 8159 N 770.09 -0.729906 -1.39679 0
M  V30 8160 C 771.02 -0.101618 -2.33279 0
M  V30 8161 C 772.001 0.729854 -1.53646 0
M  V30 8162 O 773.186 0.67587 -1.82059 0
M  V30 8163 C 770.316 0.81024 -3.37716 0
M  V30 8164 C 769.27 0.0833126 -4.27919 0
M  V30 8165 C 768.596 1.11185 -5.23012 0
M  V30 8166 C 769.896 -1.07107 -5.112 0
M  V30 8167 H 771.59 -0.883452 -2.86069 0
M  V30 8168 H 769.136 -0.426283 -1.37546 0
M  V30 8169 H 771.089 1.25927 -4.02145 0
M  V30 8170 H 769.813 1.62413 -2.83354 0
M  V30 8171 H 768.472 -0.346043 -3.64963 0
M  V30 8172 H 768.12 1.91917 -4.64948 0
M  V30 8173 H 767.82 0.63026 -5.8421 0
M  V30 8174 H 769.344 1.56068 -5.90318 0
M  V30 8175 H 770.758 -0.700726 -5.69002 0
M  V30 8176 H 769.155 -1.48196 -5.81514 0
M  V30 8177 H 770.225 -1.89513 -4.46332 0
M  V30 8178 N 771.568 1.50203 -0.477153 0
M  V30 8179 C 772.979 1.86685 -0.0235041 0
M  V30 8180 C 773.33 1.39148 1.38319 0
M  V30 8181 O 772.455 0.759051 2.02651 0
M  V30 8182 C 773.05 3.38781 -0.0358767 0
M  V30 8183 C 771.609 3.74652 0.362327 0
M  V30 8184 C 770.756 2.7412 -0.41875 0
M  V30 8185 H 773.707 1.4286 -0.691133 0
M  V30 8186 H 773.728 3.72732 0.764924 0
M  V30 8187 H 773.24 3.73349 -1.05981 0
M  V30 8188 H 771.341 3.45686 1.39039 0
M  V30 8189 H 771.454 4.79063 0.059457 0
M  V30 8190 H 769.818 2.54376 0.128341 0
M  V30 8191 H 770.601 3.11532 -1.44231 0
M  V30 8192 N 773.046 0.209999 1.56195 0
M  V30 8193 C 774.286 -0.4268 1.99894 0
M  V30 8194 C 774.65 -1.57763 1.0943 0
M  V30 8195 O 775.851 -2.27964 1.42428 0
M  V30 8196 C 774.122 -0.861188 3.46869 0
M  V30 8197 S 775.681 -1.49372 4.12593 0
M  V30 8198 H 772.499 -0.135922 0.697887 0
M  V30 8199 H 775.101 0.316573 1.9292 0
M  V30 8200 H 773.805 -0.0137653 4.10398 0
M  V30 8201 H 773.336 -1.63766 3.57693 0
M  V30 8202 H 775.351 -2.7827 4.10829 0
M  V30 8203 N 774.524 -1.57472 -0.0634922 0
M  V30 8204 C 775.456 -2.00999 -1.10145 0
M  V30 8205 C 776.469 -0.917219 -1.34503 0
M  V30 8206 O 777.658 -1.19501 -1.32596 0
M  V30 8207 C 774.758 -2.34089 -2.45063 0
M  V30 8208 C 773.931 -3.65317 -2.40546 0
M  V30 8209 C 772.99 -3.85982 -3.57637 0
M  V30 8210 O 772.016 -4.5747 -3.38689 0
M  V30 8211 N 773.218 -3.28971 -4.78287 0
M  V30 8212 H 775.983 -2.90656 -0.730714 0
M  V30 8213 H 773.544 -1.59926 -0.252017 0
M  V30 8214 H 775.536 -2.4508 -3.22053 0
M  V30 8215 H 774.106 -1.50279 -2.74107 0
M  V30 8216 H 773.326 -3.65003 -1.48885 0
M  V30 8217 H 774.614 -4.51468 -2.34636 0
M  V30 8218 H 774.012 -2.70962 -4.96584 0
M  V30 8219 H 772.569 -3.45398 -5.5276 0
M  V30 8220 N 776.003 0.335068 -1.53997 0
M  V30 8221 C 777.414 0.910191 -1.6301 0
M  V30 8222 C 777.765 1.89271 -0.516809 0
M  V30 8223 O 776.89 2.13516 0.352123 0
M  V30 8224 C 777.485 1.65761 -2.9548 0
M  V30 8225 C 776.044 2.18163 -3.06728 0
M  V30 8226 C 775.191 1.00338 -2.5851 0
M  V30 8227 H 778.142 0.112965 -1.58297 0
M  V30 8228 H 778.163 2.52107 -2.84995 0
M  V30 8229 H 777.675 0.94227 -3.76488 0
M  V30 8230 H 775.776 2.92847 -2.30372 0
M  V30 8231 H 775.889 2.43952 -4.1234 0
M  V30 8232 H 774.253 1.37925 -2.14124 0
M  V30 8233 H 775.036 0.30254 -3.41964 0
M  V30 8234 N 777.481 1.45874 0.596531 0
M  V30 8235 C 778.729 1.5017 1.35253 0
M  V30 8236 C 779.05 0.149246 1.94428 0
M  V30 8237 O 778.32 -0.82268 1.77789 0
M  V30 8238 H 776.9 0.553052 0.502138 0
M  V30 8239 H 779.562 1.81908 0.699671 0
M  V30 8240 H 778.658 2.24671 2.16632 0
M  V30 8241 N 778.959 -0.83999 1.33349 0
M  V30 8242 C 779.869 -1.98182 1.25543 0
M  V30 8243 C 780.885 -1.73204 0.166208 0
M  V30 8244 O 782.061 -1.97596 0.389589 0
M  V30 8245 C 779.126 -3.32157 0.993614 0
M  V30 8246 C 778.187 -3.70258 2.17273 0
M  V30 8247 C 777.42 -4.9784 1.92331 0
M  V30 8248 O 777.643 -5.63679 0.873074 0
M  V30 8249 O 776.577 -5.33418 2.78835 0
M  V30 8250 H 780.403 -2.07708 2.21565 0
M  V30 8251 H 777.988 -0.972852 1.13384 0
M  V30 8252 H 779.87 -4.12433 0.864711 0
M  V30 8253 H 778.545 -3.23637 0.0636596 0
M  V30 8254 H 777.452 -2.90497 2.35716 0
M  V30 8255 H 778.785 -3.83442 3.08598 0
M  V30 8256 N 780.437 -1.16799 -1.0581 0
M  V30 8257 C 781.853 -0.913935 -1.30841 0
M  V30 8258 C 782.053 0.430439 -1.96849 0
M  V30 8259 O 781.109 1.16885 -2.23817 0
M  V30 8260 C 782.422 -2.06662 -2.18429 0
M  V30 8261 C 783.97 -2.10294 -2.31831 0
M  V30 8262 C 784.445 -3.2493 -3.22776 0
M  V30 8263 N 785.936 -3.24678 -3.30361 0
M  V30 8264 C 786.671 -4.10021 -4.00837 0
M  V30 8265 N 786.167 -5.05461 -4.73795 0
M  V30 8266 N 787.96 -3.97991 -3.96937 0
M  V30 8267 H 780.111 -2.03343 -0.613613 0
M  V30 8268 H 782.374 -0.88754 -0.333133 0
M  V30 8269 H 782.08 -3.03791 -1.77211 0
M  V30 8270 H 781.954 -2.01233 -3.19038 0
M  V30 8271 H 784.341 -1.13754 -2.72294 0
M  V30 8272 H 784.422 -2.19786 -1.30873 0
M  V30 8273 H 784.066 -4.21731 -2.83028 0
M  V30 8274 H 783.996 -3.12674 -4.23725 0
M  V30 8275 H 786.487 -2.55573 -2.78372 0
M  V30 8276 H 786.8 -5.66989 -5.25113 0
M  V30 8277 H 785.145 -5.09436 -4.72758 0
M  V30 8278 H 788.336 -3.2273 -3.39062 0
M  V30 8279 H 788.509 -4.64722 -4.51594 0
M  V30 8280 N 781.915 1.24427 -0.967243 0
M  V30 8281 C 782.862 2.25398 -0.496419 0
M  V30 8282 C 783.832 1.59667 0.457781 0
M  V30 8283 O 785.017 1.87213 0.368246 0
M  V30 8284 C 782.157 3.44474 0.207693 0
M  V30 8285 C 781.27 4.24804 -0.785221 0
M  V30 8286 C 780.405 5.31169 -0.0572631 0
M  V30 8287 C 779.444 6.03195 -1.04027 0
M  V30 8288 N 778.581 7.01265 -0.34235 0
M  V30 8289 H 783.421 2.65039 -1.36229 0
M  V30 8290 H 780.958 1.30288 -0.682902 0
M  V30 8291 H 782.916 4.12376 0.632612 0
M  V30 8292 H 781.546 3.05672 1.03752 0
M  V30 8293 H 780.598 3.56445 -1.32858 0
M  V30 8294 H 781.91 4.74599 -1.53483 0
M  V30 8295 H 781.064 6.05205 0.425674 0
M  V30 8296 H 779.803 4.8228 0.725047 0
M  V30 8297 H 778.808 5.27964 -1.53409 0
M  V30 8298 H 780.033 6.54173 -1.82302 0
M  V30 8299 H 777.979 6.54648 0.420993 0
M  V30 8300 H 777.896 7.48939 -1.03084 0
M  V30 8301 H 779.164 7.7941 0.118634 0
M  V30 8302 N 783.393 0.737304 1.3929 0
M  V30 8303 C 784.34 0.0988364 2.30588 0
M  V30 8304 C 785.31 -0.727206 1.49335 0
M  V30 8305 O 786.495 -0.686694 1.78014 0
M  V30 8306 C 783.635 -0.800734 3.35682 0
M  V30 8307 C 782.748 0.0381731 4.31983 0
M  V30 8308 C 781.883 -0.862884 5.24145 0
M  V30 8309 C 780.922 -0.0193639 6.12097 0
M  V30 8310 N 780.059 -0.87648 6.96608 0
M  V30 8311 H 784.899 0.883031 2.84617 0
M  V30 8312 H 782.436 0.447111 1.4014 0
M  V30 8313 H 784.394 -1.33676 3.95205 0
M  V30 8314 H 783.024 -1.55088 2.83103 0
M  V30 8315 H 782.076 0.691641 3.74059 0
M  V30 8316 H 783.388 0.690294 4.94 0
M  V30 8317 H 782.542 -1.46667 5.88705 0
M  V30 8318 H 781.281 -1.54878 4.62454 0
M  V30 8319 H 780.286 0.597202 5.46547 0
M  V30 8320 H 781.511 0.663348 6.75852 0
M  V30 8321 H 779.457 -1.54762 6.37483 0
M  V30 8322 H 779.374 -0.280892 7.55478 0
M  V30 8323 H 780.642 -1.46575 7.65595 0
M  V30 8324 N 784.871 -1.49948 0.485112 0
M  V30 8325 C 786.099 -2.06806 -0.0622824 0
M  V30 8326 C 786.514 -1.34736 -1.32256 0
M  V30 8327 O 785.871 -0.420836 -1.77582 0
M  V30 8328 C 785.922 -3.59934 -0.336096 0
M  V30 8329 O 785.643 -4.29289 0.874203 0
M  V30 8330 C 787.144 -4.33459 -0.928903 0
M  V30 8331 H 784.364 -0.670867 0.0133472 0
M  V30 8332 H 786.908 -1.92937 0.677917 0
M  V30 8333 H 785.063 -3.7356 -1.02625 0
M  V30 8334 H 785.477 -5.20735 0.627332 0
M  V30 8335 H 786.951 -5.41527 -1.07017 0
M  V30 8336 H 787.428 -3.94881 -1.92265 0
M  V30 8337 H 788.034 -4.24399 -0.276705 0
M  V30 8338 N 786.349 -0.21828 -1.56081 0
M  V30 8339 C 787.595 0.414921 -1.9851 0
M  V30 8340 C 787.928 1.59648 -1.10573 0
M  V30 8341 O 787.203 1.93818 -0.162695 0
M  V30 8342 C 787.486 0.852647 -3.4986 0
M  V30 8343 C 787.339 -0.33232 -4.48571 0
M  V30 8344 C 788.658 1.70998 -4.05521 0
M  V30 8345 H 785.777 0.149344 -0.72171 0
M  V30 8346 H 788.419 -0.313858 -1.8739 0
M  V30 8347 H 786.569 1.47362 -3.59467 0
M  V30 8348 H 788.241 -0.970418 -4.50977 0
M  V30 8349 H 786.484 -0.980302 -4.22578 0
M  V30 8350 H 787.155 0.0168407 -5.51997 0
M  V30 8351 H 789.631 1.18606 -3.98838 0
M  V30 8352 H 788.507 1.98517 -5.11744 0
M  V30 8353 H 788.768 2.67219 -3.52202 0
M  V30 8354 N 787.827 1.57504 0.0551401 0
M  V30 8355 C 788.774 2.04825 1.06373 0
M  V30 8356 C 789.744 0.932108 1.37481 0
M  V30 8357 O 790.929 1.20093 1.48265 0
M  V30 8358 C 788.069 2.51091 2.36743 0
M  V30 8359 C 787.182 3.76392 2.12021 0
M  V30 8360 C 786.317 4.11373 3.36074 0
M  V30 8361 C 785.356 5.29666 3.0679 0
M  V30 8362 N 784.493 5.60205 4.2322 0
M  V30 8363 H 789.333 2.90753 0.653216 0
M  V30 8364 H 786.87 1.43776 0.310951 0
M  V30 8365 H 788.828 2.75973 3.12881 0
M  V30 8366 H 787.458 1.68118 2.75565 0
M  V30 8367 H 786.51 3.58751 1.26498 0
M  V30 8368 H 787.822 4.62662 1.86401 0
M  V30 8369 H 786.976 4.37245 4.20597 0
M  V30 8370 H 785.715 3.23704 3.64784 0
M  V30 8371 H 784.72 5.03574 2.20664 0
M  V30 8372 H 785.945 6.18968 2.79385 0
M  V30 8373 H 783.891 4.75495 4.5193 0
M  V30 8374 H 783.808 6.40928 4.00933 0
M  V30 8375 H 785.076 5.90637 5.08692 0
M  V30 8376 N 789.305 -0.326896 1.54172 0
M  V30 8377 C 790.553 -1.06313 1.71878 0
M  V30 8378 C 790.874 -1.88652 0.493498 0
M  V30 8379 O 790.144 -1.89608 -0.492522 0
M  V30 8380 H 788.724 -0.39549 0.633716 0
M  V30 8381 H 791.386 -0.364139 1.91468 0
M  V30 8382 H 790.482 -1.73105 2.59694 0
M  V30 8383 N 790.784 -1.46188 -0.588786 0
M  V30 8384 C 791.717 -1.508 -1.71274 0
M  V30 8385 C 792.695 -0.362635 -1.58505 0
M  V30 8386 O 793.879 -0.565899 -1.79805 0
M  V30 8387 C 791.006 -1.38082 -3.09275 0
M  V30 8388 C 790.052 -2.56723 -3.40581 0
M  V30 8389 S 790.885 -4.1911 -3.33327 0
M  V30 8390 C 792.041 -4.08891 -4.73877 0
M  V30 8391 H 792.274 -2.45895 -1.67102 0
M  V30 8392 H 789.807 -1.34 -0.767025 0
M  V30 8393 H 791.765 -1.31432 -3.88891 0
M  V30 8394 H 790.426 -0.444259 -3.10942 0
M  V30 8395 H 789.619 -2.43801 -4.41109 0
M  V30 8396 H 789.221 -2.60332 -2.68521 0
M  V30 8397 H 791.513 -3.75196 -5.64123 0
M  V30 8398 H 792.456 -5.09395 -4.91856 0
M  V30 8399 H 792.864 -3.40239 -4.50441 0
M  V30 8400 N 792.262 0.832906 -1.33792 0
M  V30 8401 C 793.673 1.40489 -1.22963 0
M  V30 8402 C 794.024 1.95633 0.149026 0
M  V30 8403 O 793.149 1.8928 1.04891 0
M  V30 8404 C 793.744 2.55387 -2.22627 0
M  V30 8405 C 792.303 3.08522 -2.15618 0
M  V30 8406 C 791.45 1.81347 -2.09782 0
M  V30 8407 H 794.401 0.638156 -1.45304 0
M  V30 8408 H 794.422 3.33193 -1.83746 0
M  V30 8409 H 793.934 2.15222 -3.22957 0
M  V30 8410 H 792.035 3.53217 -1.18611 0
M  V30 8411 H 792.148 3.6829 -3.0643 0
M  V30 8412 H 790.512 2.01839 -1.55349 0
M  V30 8413 H 791.295 1.43369 -3.1193 0
M  V30 8414 N 793.74 1.17359 1.05189 0
M  V30 8415 C 794.98 0.972812 1.79766 0
M  V30 8416 C 795.344 -0.489832 1.85647 0
M  V30 8417 O 796.545 -0.809682 2.56315 0
M  V30 8418 C 794.816 1.59636 3.19767 0
M  V30 8419 S 796.375 1.54178 4.10822 0
M  V30 8420 H 793.193 0.34959 0.619119 0
M  V30 8421 H 795.795 1.49304 1.26209 0
M  V30 8422 H 794.499 2.65336 3.13089 0
M  V30 8423 H 794.03 1.07594 3.78401 0
M  V30 8424 H 796.045 0.549785 4.93145 0
M  V30 8425 N 795.218 -1.23913 0.973828 0
M  V30 8426 C 796.458 -1.93889 0.647015 0
M  V30 8427 C 796.822 -1.74368 -0.803735 0
M  V30 8428 O 798.023 -2.38435 -1.24106 0
M  V30 8429 C 796.294 -3.4257 1.01885 0
M  V30 8430 S 797.853 -4.31306 0.807517 0
M  V30 8431 H 794.671 -0.670279 0.237165 0
M  V30 8432 H 797.273 -1.50144 1.25208 0
M  V30 8433 H 795.977 -3.54286 2.07146 0
M  V30 8434 H 795.508 -3.91312 0.404812 0
M  V30 8435 H 797.523 -4.95218 -0.311986 0
M  V30 8436 N 796.696 -0.74468 -1.38897 0
M  V30 8437 C 797.942 -0.306249 -2.01081 0
M  V30 8438 C 798.297 1.09724 -1.58046 0
M  V30 8439 O 797.59 1.73923 -0.803834 0
M  V30 8440 C 797.784 -0.357302 -3.55609 0
M  V30 8441 C 797.613 -1.76421 -4.13649 0
M  V30 8442 C 796.383 -2.3787 -4.4581 0
M  V30 8443 C 798.581 -2.71942 -4.36523 0
M  V30 8444 N 796.563 -3.70614 -4.89406 0
M  V30 8445 C 797.934 -3.89437 -4.8243 0
M  V30 8446 C 799.989 -2.69579 -4.18607 0
M  V30 8447 C 798.692 -5.04917 -5.123 0
M  V30 8448 C 800.718 -3.8421 -4.49596 0
M  V30 8449 C 800.08 -5.00442 -4.95719 0
M  V30 8450 H 796.179 -0.158531 -0.765762 0
M  V30 8451 H 798.763 -0.972726 -1.6866 0
M  V30 8452 H 796.934 0.278865 -3.87398 0
M  V30 8453 H 798.666 0.100599 -4.04575 0
M  V30 8454 H 795.421 -1.8971 -4.33943 0
M  V30 8455 H 795.845 -4.38791 -5.1555 0
M  V30 8456 H 800.487 -1.80905 -3.82143 0
M  V30 8457 H 798.205 -5.94213 -5.47665 0
M  V30 8458 H 801.791 -3.83691 -4.37347 0
M  V30 8459 H 800.671 -5.87671 -5.19242 0
M  V30 8460 N 798.174 1.49689 -0.493057 0
M  V30 8461 C 799.124 2.25901 0.308682 0
M  V30 8462 C 800.108 1.30408 0.94247 0
M  V30 8463 O 801.3 1.55179 0.851384 0
M  V30 8464 C 798.429 3.14463 1.37725 0
M  V30 8465 C 797.515 4.17414 0.7501 0
M  V30 8466 N 797.906 5.05599 -0.142597 0
M  V30 8467 C 796.204 4.34377 1.01159 0
M  V30 8468 C 796.905 5.7954 -0.500782 0
M  V30 8469 N 795.881 5.43446 0.129386 0
M  V30 8470 H 799.683 2.91451 -0.378652 0
M  V30 8471 H 797.197 1.59441 -0.308614 0
M  V30 8472 H 799.194 3.67687 1.965 0
M  V30 8473 H 797.854 2.50464 2.06635 0
M  V30 8474 H 798.865 5.15354 -0.512894 0
M  V30 8475 H 795.542 3.81588 1.69402 0
M  V30 8476 H 796.932 6.60534 -1.23063 0
M  V30 8477 N 799.652 0.226554 1.55963 0
M  V30 8478 C 800.892 -0.405574 2.00336 0
M  V30 8479 C 801.256 -1.56593 1.11097 0
M  V30 8480 O 802.457 -2.26441 1.44838 0
M  V30 8481 C 800.728 -0.82435 3.47763 0
M  V30 8482 S 802.287 -1.44988 4.14154 0
M  V30 8483 H 799.105 -0.128512 0.699289 0
M  V30 8484 H 801.707 0.337017 1.92573 0
M  V30 8485 H 800.411 0.0297636 4.10389 0
M  V30 8486 H 799.942 -1.59963 3.5941 0
M  V30 8487 H 801.957 -2.73897 4.13757 0
M  V30 8488 N 801.13 -1.57531 -0.0467866 0
M  V30 8489 C 802.04 -2.08768 -1.07018 0
M  V30 8490 C 803.056 -1.02245 -1.40791 0
M  V30 8491 O 804.232 -1.33873 -1.50466 0
M  V30 8492 C 801.297 -2.54221 -2.35738 0
M  V30 8493 C 800.358 -3.75152 -2.08709 0
M  V30 8494 C 799.591 -4.18428 -3.31291 0
M  V30 8495 O 799.814 -3.61365 -4.4133 0
M  V30 8496 O 798.748 -5.11018 -3.18032 0
M  V30 8497 H 802.574 -2.96334 -0.664812 0
M  V30 8498 H 800.159 -1.47074 -0.262605 0
M  V30 8499 H 802.041 -2.83866 -3.11445 0
M  V30 8500 H 800.716 -1.69774 -2.75605 0
M  V30 8501 H 799.623 -3.50553 -1.30627 0
M  V30 8502 H 800.956 -4.60528 -1.73708 0
M  V30 8503 N 802.608 0.318715 -1.54344 0
M  V30 8504 C 804.019 0.89285 -1.63967 0
M  V30 8505 C 804.37 1.88712 -0.536855 0
M  V30 8506 O 803.495 2.13877 0.329457 0
M  V30 8507 C 804.09 1.62618 -2.97222 0
M  V30 8508 C 802.649 2.14897 -3.09025 0
M  V30 8509 C 801.796 0.975909 -2.5956 0
M  V30 8510 H 804.747 0.0961687 -1.58408 0
M  V30 8511 H 804.768 2.4907 -2.87653 0
M  V30 8512 H 804.28 0.902286 -3.77466 0
M  V30 8513 H 802.381 2.90387 -2.33465 0
M  V30 8514 H 802.494 2.39565 -4.14904 0
M  V30 8515 H 800.858 1.35646 -2.15574 0
M  V30 8516 H 801.641 0.266253 -3.42266 0
M  V30 8517 N 804.086 1.46499 0.581025 0
M  V30 8518 C 805.326 1.53456 1.35021 0
M  V30 8519 C 805.69 0.182542 1.9113 0
M  V30 8520 O 806.891 0.126874 2.685 0
M  V30 8521 C 805.162 2.60387 2.44812 0
M  V30 8522 S 806.721 2.86762 3.32134 0
M  V30 8523 H 803.539 0.54216 0.459982 0
M  V30 8524 H 806.141 1.83742 0.667754 0
M  V30 8525 H 804.845 3.57253 2.01986 0
M  V30 8526 H 804.376 2.31839 3.17828 0
M  V30 8527 H 806.391 2.2216 4.43688 0
M  V30 8528 N 805.565 -0.825799 1.34232 0
M  V30 8529 C 806.793 -1.61363 1.29497 0
M  V30 8530 C 807.208 -1.88341 -0.131536 0
M  V30 8531 O 806.565 -1.47279 -1.07773 0
M  V30 8532 C 806.616 -2.95623 2.08061 0
M  V30 8533 O 806.337 -2.69824 3.45147 0
M  V30 8534 C 807.838 -3.90032 2.10688 0
M  V30 8535 H 805.058 -0.501676 0.445603 0
M  V30 8536 H 807.602 -1.02767 1.76803 0
M  V30 8537 H 805.757 -3.50785 1.64404 0
M  V30 8538 H 806.171 -3.55412 3.85723 0
M  V30 8539 H 807.645 -4.81411 2.70087 0
M  V30 8540 H 808.122 -4.25188 1.10052 0
M  V30 8541 H 808.728 -3.40807 2.54422 0
M  V30 8542 N 807.043 -1.17915 -1.04565 0
M  V30 8543 C 808.291 -0.969505 -1.77327 0
M  V30 8544 C 808.612 0.502569 -1.88412 0
M  V30 8545 O 807.882 1.36467 -1.40547 0
M  V30 8546 H 806.462 -0.355723 -0.656864 0
M  V30 8547 H 809.124 -1.48506 -1.26223 0
M  V30 8548 H 808.22 -1.40324 -2.78775 0
M  V30 8549 N 808.521 1.23394 -0.980386 0
M  V30 8550 C 809.751 1.9556 -0.666319 0
M  V30 8551 C 810.159 1.72786 0.770815 0
M  V30 8552 O 809.502 1.0162 1.53033 0
M  V30 8553 C 809.564 3.48643 -0.876825 0
M  V30 8554 C 809.228 3.95135 -2.29602 0
M  V30 8555 C 810.225 4.03806 -3.2747 0
M  V30 8556 C 807.91 4.28122 -2.62711 0
M  V30 8557 C 809.904 4.44818 -4.56526 0
M  V30 8558 C 807.591 4.68814 -3.9199 0
M  V30 8559 C 808.589 4.77129 -4.88709 0
M  V30 8560 O 808.277 5.16908 -6.15679 0
M  V30 8561 H 808.009 0.629422 -0.246585 0
M  V30 8562 H 810.563 1.57839 -1.31438 0
M  V30 8563 H 808.793 3.86319 -0.171587 0
M  V30 8564 H 810.482 4.0202 -0.55992 0
M  V30 8565 H 811.248 3.78526 -3.03222 0
M  V30 8566 H 807.127 4.20861 -1.8814 0
M  V30 8567 H 810.671 4.51223 -5.32018 0
M  V30 8568 H 806.568 4.93545 -4.16033 0
M  V30 8569 H 807.336 5.3502 -6.19432 0
M  V30 8570 N 809.999 0.752036 1.385 0
M  V30 8571 C 810.931 0.0835089 2.29048 0
M  V30 8572 C 811.944 -0.685402 1.47669 0
M  V30 8573 O 813.133 -0.526748 1.70551 0
M  V30 8574 C 810.233 -0.905772 3.26572 0
M  V30 8575 C 809.406 -0.194828 4.36966 0
M  V30 8576 C 808.465 -1.09464 5.14688 0
M  V30 8577 O 807.491 -0.565743 5.66381 0
M  V30 8578 N 808.693 -2.42287 5.2752 0
M  V30 8579 H 811.458 0.861142 2.87062 0
M  V30 8580 H 809.019 0.602689 1.50264 0
M  V30 8581 H 811.011 -1.51072 3.75446 0
M  V30 8582 H 809.581 -1.58449 2.69467 0
M  V30 8583 H 808.801 0.590812 3.89747 0
M  V30 8584 H 810.089 0.297189 5.07931 0
M  V30 8585 H 809.487 -2.87715 4.8707 0
M  V30 8586 H 808.044 -2.97836 5.79773 0
M  V30 8587 N 811.477 -1.49425 0.500989 0
M  V30 8588 C 812.707 -2.06561 -0.0402858 0
M  V30 8589 C 813.115 -1.36157 -1.31369 0
M  V30 8590 O 812.458 -0.433618 -1.78509 0
M  V30 8591 C 812.52 -3.5765 -0.364269 0
M  V30 8592 C 812.184 -4.49739 0.811417 0
M  V30 8593 C 813.181 -4.91255 1.7019 0
M  V30 8594 C 810.866 -4.92036 1.01022 0
M  V30 8595 C 812.86 -5.73806 2.77534 0
M  V30 8596 C 810.547 -5.74364 2.08683 0
M  V30 8597 C 811.545 -6.15154 2.96774 0
M  V30 8598 O 811.233 -6.95836 4.02577 0
M  V30 8599 H 810.965 -0.67578 0.0172357 0
M  V30 8600 H 813.519 -1.93193 0.697553 0
M  V30 8601 H 811.749 -3.69026 -1.1557 0
M  V30 8602 H 813.438 -3.97025 -0.844156 0
M  V30 8603 H 814.204 -4.59222 1.56013 0
M  V30 8604 H 810.083 -4.59789 0.333929 0
M  V30 8605 H 813.627 -6.05564 3.4632 0
M  V30 8606 H 809.524 -6.0581 2.22855 0
M  V30 8607 H 810.292 -7.14142 3.9993 0
M  V30 8608 N 812.955 -0.234822 -1.55841 0
M  V30 8609 C 813.887 0.702346 -2.18174 0
M  V30 8610 C 814.9 1.14776 -1.15457 0
M  V30 8611 O 816.089 1.07662 -1.42377 0
M  V30 8612 C 813.189 1.96483 -2.76129 0
M  V30 8613 C 812.362 1.67283 -4.04148 0
M  V30 8614 C 811.421 2.7837 -4.46539 0
M  V30 8615 O 810.447 2.46272 -5.13166 0
M  V30 8616 N 811.649 4.07611 -4.1332 0
M  V30 8617 H 814.414 0.169074 -2.99223 0
M  V30 8618 H 811.975 -0.0543164 -1.61809 0
M  V30 8619 H 813.967 2.70016 -3.01452 0
M  V30 8620 H 812.537 2.40822 -1.99307 0
M  V30 8621 H 811.757 0.773278 -3.86541 0
M  V30 8622 H 813.045 1.45222 -4.87635 0
M  V30 8623 H 812.443 4.36527 -3.59806 0
M  V30 8624 H 811 4.77646 -4.43506 0
M  V30 8625 N 814.433 1.57553 0.0384317 0
M  V30 8626 C 815.679 1.89121 0.732199 0
M  V30 8627 C 816.012 0.831404 1.75503 0
M  V30 8628 O 815.287 -0.154642 1.93884 0
M  V30 8629 C 815.57 3.31338 1.41021 0
M  V30 8630 C 815.423 4.48004 0.401532 0
M  V30 8631 C 816.742 3.72318 2.34665 0
M  V30 8632 H 813.861 0.687819 0.264715 0
M  V30 8633 H 816.503 1.89999 -0.00496279 0
M  V30 8634 H 814.653 3.3072 2.03854 0
M  V30 8635 H 816.325 4.60755 -0.224159 0
M  V30 8636 H 814.568 4.32895 -0.280092 0
M  V30 8637 H 815.239 5.44377 0.91423 0
M  V30 8638 H 817.715 3.74243 1.81883 0
M  V30 8639 H 816.591 4.72652 2.7909 0
M  V30 8640 H 816.852 3.04062 3.20934 0
M  V30 8641 N 815.911 -0.310526 1.54511 0
M  V30 8642 C 817.188 -1.06593 1.64004 0
M  V30 8643 C 817.568 -2.05519 0.482216 0
M  V30 8644 O 816.916 -2.22455 -0.52212 0
M  V30 8645 C 817.126 -1.75627 3.01589 0
M  V30 8646 C 818.474 -2.28173 3.58081 0
M  V30 8647 O 819.498 -1.85674 3.03979 0
M  V30 8648 O 818.357 -3.06015 4.52788 0
M  V30 8649 H 815.451 -0.492109 0.664649 0
M  V30 8650 H 817.997 -0.309374 1.66856 0
M  V30 8651 H 816.769 -1.03743 3.77297 0
M  V30 8652 H 816.392 -2.58061 3.02473 0
M  V30 8653 N 817.389 -1.46805 -0.573248 0
M  V30 8654 C 818.805 -1.31969 -0.897577 0
M  V30 8655 C 819.005 -0.298171 -1.99282 0
M  V30 8656 O 818.061 0.295953 -2.5076 0
M  V30 8657 C 819.374 -2.70859 -1.30598 0
M  V30 8658 C 820.922 -2.79022 -1.4183 0
M  V30 8659 C 821.397 -4.18516 -1.86033 0
M  V30 8660 N 822.888 -4.2098 -1.9321 0
M  V30 8661 C 823.623 -5.25814 -2.28707 0
M  V30 8662 N 823.119 -6.40968 -2.6293 0
M  V30 8663 N 824.912 -5.13184 -2.29343 0
M  V30 8664 H 817.063 -2.11869 0.150094 0
M  V30 8665 H 819.326 -0.947989 0.00447895 0
M  V30 8666 H 819.032 -3.46965 -0.575161 0
M  V30 8667 H 818.906 -3.01585 -2.26554 0
M  V30 8668 H 821.293 -2.03198 -2.13996 0
M  V30 8669 H 821.374 -2.51969 -0.441024 0
M  V30 8670 H 821.018 -4.94839 -1.14442 0
M  V30 8671 H 820.948 -4.42982 -2.84735 0
M  V30 8672 H 823.439 -3.37898 -1.69214 0
M  V30 8673 H 823.752 -7.16729 -2.88996 0
M  V30 8674 H 822.097 -6.44314 -2.60547 0
M  V30 8675 H 825.288 -4.22255 -2.02036 0
M  V30 8676 H 825.461 -5.94996 -2.56679 0
M  V30 8677 N 818.867 0.818669 -1.34668 0
M  V30 8678 C 820.097 1.60441 -1.30162 0
M  V30 8679 C 820.505 1.88783 0.125579 0
M  V30 8680 O 819.848 1.48281 1.08437 0
M  V30 8681 C 819.91 2.96794 -2.02864 0
M  V30 8682 C 819.574 2.91327 -3.52105 0
M  V30 8683 C 820.571 2.65611 -4.4693 0
M  V30 8684 C 818.256 3.10825 -3.9458 0
M  V30 8685 C 820.25 2.59452 -5.82206 0
M  V30 8686 C 817.937 3.0429 -5.29954 0
M  V30 8687 C 818.935 2.78637 -6.23579 0
M  V30 8688 O 818.623 2.72042 -7.56471 0
M  V30 8689 H 818.355 0.505278 -0.449077 0
M  V30 8690 H 820.909 1.02632 -1.77921 0
M  V30 8691 H 819.139 3.56538 -1.49725 0
M  V30 8692 H 820.828 3.57837 -1.91592 0
M  V30 8693 H 821.594 2.50278 -4.15434 0
M  V30 8694 H 817.473 3.29807 -3.221 0
M  V30 8695 H 821.017 2.39349 -6.55254 0
M  V30 8696 H 816.914 3.19177 -5.61067 0
M  V30 8697 H 817.682 2.87738 -7.66257 0
M  V30 8698 N 820.346 1.18468 1.03938 0
M  V30 8699 C 821.574 1.00576 1.80809 0
M  V30 8700 C 821.989 -0.445786 1.83462 0
M  V30 8701 O 821.346 -1.30964 1.27101 0
M  V30 8702 C 821.397 1.55491 3.26351 0
M  V30 8703 O 821.118 2.94963 3.23926 0
M  V30 8704 C 822.619 1.42236 4.19862 0
M  V30 8705 H 819.839 0.35508 0.56935 0
M  V30 8706 H 822.383 1.57046 1.30984 0
M  V30 8707 H 820.538 1.03195 3.73403 0
M  V30 8708 H 820.952 3.20598 4.15111 0
M  V30 8709 H 822.426 1.85455 5.19914 0
M  V30 8710 H 822.903 0.371267 4.37628 0
M  V30 8711 H 823.509 1.9361 3.78675 0
M  V30 8712 N 821.824 -1.22873 0.986916 0
M  V30 8713 C 823.064 -1.93192 0.667543 0
M  V30 8714 C 823.428 -1.7521 -0.785196 0
M  V30 8715 O 824.629 -2.39737 -1.2157 0
M  V30 8716 C 822.9 -3.4147 1.05513 0
M  V30 8717 S 824.459 -4.30425 0.853218 0
M  V30 8718 H 821.277 -0.667726 0.244261 0
M  V30 8719 H 823.879 -1.48808 1.26793 0
M  V30 8720 H 822.583 -3.52069 2.10892 0
M  V30 8721 H 822.114 -3.9086 0.446293 0
M  V30 8722 H 824.129 -4.95521 -0.259444 0
M  V30 8723 N 823.302 -0.75937 -1.38099 0
M  V30 8724 C 824.249 -0.135508 -2.30402 0
M  V30 8725 C 825.219 0.703356 -1.50473 0
M  V30 8726 O 826.404 0.658287 -1.79084 0
M  V30 8727 C 823.544 0.747228 -3.36913 0
M  V30 8728 C 822.657 -0.106893 -4.31868 0
M  V30 8729 C 821.792 0.779388 -5.25451 0
M  V30 8730 C 820.831 -0.0780179 -6.1205 0
M  V30 8731 N 819.968 0.765545 -6.97914 0
M  V30 8732 H 824.808 -0.9282 -2.83176 0
M  V30 8733 H 822.345 -0.46935 -1.39411 0
M  V30 8734 H 824.303 1.27371 -3.97281 0
M  V30 8735 H 822.933 1.50565 -2.85535 0
M  V30 8736 H 821.985 -0.751063 -3.72912 0
M  V30 8737 H 823.297 -0.768798 -4.9284 0
M  V30 8738 H 822.451 1.37282 -5.90964 0
M  V30 8739 H 821.19 1.47501 -4.6486 0
M  V30 8740 H 820.195 -0.684078 -5.45528 0
M  V30 8741 H 821.42 -0.770786 -6.74712 0
M  V30 8742 H 819.366 1.44601 -6.39864 0
M  V30 8743 H 819.283 0.160666 -7.55829 0
M  V30 8744 H 820.551 1.34377 -7.6783 0
M  V30 8745 N 824.78 1.49157 -0.508906 0
M  V30 8746 C 826.008 2.06879 0.0293734 0
M  V30 8747 C 826.423 1.36823 1.30095 0
M  V30 8748 O 825.78 0.449034 1.7689 0
M  V30 8749 C 825.831 3.60423 0.278791 0
M  V30 8750 O 825.552 4.27844 -0.942389 0
M  V30 8751 C 827.053 4.34881 0.859825 0
M  V30 8752 H 824.273 0.67057 -0.0240184 0
M  V30 8753 H 826.817 1.91834 -0.708526 0
M  V30 8754 H 824.972 3.75145 0.966689 0
M  V30 8755 H 825.386 5.19671 -0.710097 0
M  V30 8756 H 826.86 5.43161 0.983884 0
M  V30 8757 H 827.337 3.9789 1.85958 0
M  V30 8758 H 827.943 4.24785 0.209152 0
M  V30 8759 N 826.258 0.243083 1.55714 0
M  V30 8760 C 827.498 -0.384303 2.00755 0
M  V30 8761 C 827.862 -1.55406 1.12752 0
M  V30 8762 O 829.063 -2.24892 1.47231 0
M  V30 8763 C 827.334 -0.787419 3.48618 0
M  V30 8764 S 828.893 -1.40587 4.15669 0
M  V30 8765 H 825.711 -0.121088 0.700613 0
M  V30 8766 H 828.313 0.357423 1.92205 0
M  V30 8767 H 827.017 0.0732892 4.10335 0
M  V30 8768 H 826.548 -1.56142 3.61086 0
M  V30 8769 H 828.563 -2.69493 4.16639 0
M  V30 8770 N 827.736 -1.57571 -0.0300757 0
M  V30 8771 C 829.147 -1.77567 -0.576802 0
M  V30 8772 C 829.498 -0.874034 -1.75656 0
M  V30 8773 O 828.623 -0.0686124 -2.16291 0
M  V30 8774 C 829.218 -3.22016 -1.05315 0
M  V30 8775 C 827.777 -3.43212 -1.5454 0
M  V30 8776 C 826.924 -2.73061 -0.483033 0
M  V30 8777 H 829.875 -1.57483 0.196151 0
M  V30 8778 H 829.896 -3.28474 -1.92055 0
M  V30 8779 H 829.408 -3.87613 -0.194298 0
M  V30 8780 H 827.509 -2.82788 -2.42615 0
M  V30 8781 H 827.622 -4.5182 -1.5936 0
M  V30 8782 H 825.986 -2.36805 -0.937835 0
M  V30 8783 H 826.769 -3.4134 0.366341 0
M  V30 8784 N 829.214 0.302327 -1.54673 0
M  V30 8785 C 830.444 1.05516 -1.77623 0
M  V30 8786 C 830.852 1.81474 -0.535159 0
M  V30 8787 O 830.195 1.76635 0.504543 0
M  V30 8788 C 830.257 2.08305 -2.93001 0
M  V30 8789 C 829.921 1.51554 -4.31139 0
M  V30 8790 C 830.918 0.946261 -5.11216 0
M  V30 8791 C 828.603 1.55157 -4.77736 0
M  V30 8792 C 830.597 0.420559 -6.36011 0
M  V30 8793 C 828.284 1.022 -6.02494 0
M  V30 8794 C 829.282 0.457461 -6.81466 0
M  V30 8795 O 828.97 -0.064083 -8.03874 0
M  V30 8796 H 828.702 0.318756 -0.59613 0
M  V30 8797 H 831.256 0.347558 -2.02438 0
M  V30 8798 H 829.486 2.82742 -2.63807 0
M  V30 8799 H 831.175 2.69479 -3.03539 0
M  V30 8800 H 831.941 0.911338 -4.76361 0
M  V30 8801 H 827.82 1.98037 -4.16296 0
M  V30 8802 H 831.364 -0.0207298 -6.97597 0
M  V30 8803 H 827.261 1.05406 -6.36836 0
M  V30 8804 H 828.029 0.0493422 -8.18485 0
M  V30 8805 N 830.692 1.47107 0.565454 0
M  V30 8806 C 831.969 1.43787 1.32607 0
M  V30 8807 C 832.349 0.130428 2.10697 0
M  V30 8808 O 831.697 -0.888086 2.10536 0
M  V30 8809 C 831.907 2.67833 2.23755 0
M  V30 8810 C 833.255 3.14704 2.85037 0
M  V30 8811 O 834.279 2.68503 2.34061 0
M  V30 8812 O 833.138 3.95002 3.77671 0
M  V30 8813 H 830.232 0.572623 0.596684 0
M  V30 8814 H 832.778 1.59296 0.58504 0
M  V30 8815 H 831.55 3.54532 1.65597 0
M  V30 8816 H 831.173 2.54869 3.05168 0
M  V30 8817 N 832.17 -0.811516 1.35101 0
M  V30 8818 C 833.103 -1.92872 1.21966 0
M  V30 8819 C 834.081 -1.62236 0.108667 0
M  V30 8820 O 835.265 -1.8647 0.275875 0
M  V30 8821 C 832.392 -3.27152 0.876886 0
M  V30 8822 C 831.438 -3.7674 1.99924 0
M  V30 8823 S 832.271 -3.95132 3.61429 0
M  V30 8824 C 833.427 -5.32322 3.29218 0
M  V30 8825 H 833.66 -2.03718 2.16532 0
M  V30 8826 H 831.193 -0.968352 1.20259 0
M  V30 8827 H 833.151 -4.04729 0.685917 0
M  V30 8828 H 831.812 -3.14059 -0.0506289 0
M  V30 8829 H 831.005 -4.73981 1.71343 0
M  V30 8830 H 830.607 -3.06145 2.14829 0
M  V30 8831 H 832.899 -6.1614 2.8174 0
M  V30 8832 H 833.842 -5.65893 4.25641 0
M  V30 8833 H 834.25 -4.98374 2.65111 0
M  V30 8834 N 833.648 -1.19017 -1.03309 0
M  V30 8835 C 835.064 -0.941483 -1.28873 0
M  V30 8836 C 835.264 0.388587 -1.97718 0
M  V30 8837 O 834.32 1.12111 -2.26246 0
M  V30 8838 C 835.633 -2.11249 -2.13996 0
M  V30 8839 C 837.181 -2.15164 -2.27318 0
M  V30 8840 C 837.656 -3.31704 -3.15811 0
M  V30 8841 N 839.147 -3.31613 -3.23399 0
M  V30 8842 C 839.882 -4.18431 -3.9205 0
M  V30 8843 N 839.378 -5.15397 -4.62966 0
M  V30 8844 N 841.171 -4.06321 -3.88406 0
M  V30 8845 H 833.322 -2.04599 -0.570343 0
M  V30 8846 H 835.585 -0.894406 -0.314232 0
M  V30 8847 H 835.291 -3.07482 -1.70727 0
M  V30 8848 H 835.165 -2.07955 -3.14697 0
M  V30 8849 H 837.552 -1.19504 -2.6982 0
M  V30 8850 H 837.633 -2.22513 -1.26182 0
M  V30 8851 H 837.277 -4.2764 -2.74019 0
M  V30 8852 H 837.207 -3.21592 -4.16997 0
M  V30 8853 H 839.698 -2.6142 -2.72888 0
M  V30 8854 H 840.011 -5.78 -5.12968 0
M  V30 8855 H 838.356 -5.19349 -4.61846 0
M  V30 8856 H 841.547 -3.29849 -3.3214 0
M  V30 8857 H 841.72 -4.74196 -4.41635 0
M  V30 8858 N 835.127 1.22348 -0.993418 0
M  V30 8859 C 836.538 1.72893 -0.704616 0
M  V30 8860 C 836.889 1.80095 0.778483 0
M  V30 8861 O 836.014 1.4476 1.60853 0
M  V30 8862 C 836.609 3.14 -1.27237 0
M  V30 8863 C 835.168 3.61949 -1.03294 0
M  V30 8864 C 834.315 2.39816 -1.39225 0
M  V30 8865 H 837.266 1.07688 -1.16572 0
M  V30 8866 H 837.287 3.74886 -0.651212 0
M  V30 8867 H 836.799 3.08727 -2.3518 0
M  V30 8868 H 834.9 3.72588 0.0298329 0
M  V30 8869 H 835.013 4.48051 -1.69668 0
M  V30 8870 H 833.377 2.41448 -0.810849 0
M  V30 8871 H 834.16 2.37203 -2.48172 0
M  V30 8872 N 836.605 0.766683 1.37694 0
M  V30 8873 C 837.833 0.339939 2.04088 0
M  V30 8874 C 838.248 -1.03617 1.57826 0
M  V30 8875 O 837.605 -1.6605 0.757214 0
M  V30 8876 C 837.656 0.368269 3.59619 0
M  V30 8877 O 837.377 1.69009 4.04188 0
M  V30 8878 C 838.878 -0.0707053 4.43244 0
M  V30 8879 H 836.098 0.143189 0.655544 0
M  V30 8880 H 838.642 1.03919 1.76128 0
M  V30 8881 H 836.797 -0.282359 3.8637 0
M  V30 8882 H 837.211 1.62523 4.98685 0
M  V30 8883 H 838.685 0.000273538 5.52 0
M  V30 8884 H 839.162 -1.1204 4.24669 0
M  V30 8885 H 839.768 0.551543 4.21709 0
M  V30 8886 N 838.083 -1.48885 0.516809 0
M  V30 8887 C 838.993 -2.33185 -0.257293 0
M  V30 8888 C 840.009 -1.4565 -0.951952 0
M  V30 8889 O 841.185 -1.78651 -0.929834 0
M  V30 8890 C 838.25 -3.21465 -1.29851 0
M  V30 8891 C 837.311 -4.24863 -0.615608 0
M  V30 8892 C 836.544 -5.08925 -1.60722 0
M  V30 8893 O 836.767 -4.9475 -2.83863 0
M  V30 8894 O 835.701 -5.90737 -1.15384 0
M  V30 8895 H 839.527 -3.00596 0.433131 0
M  V30 8896 H 837.112 -1.46792 0.277908 0
M  V30 8897 H 838.994 -3.76108 -1.90055 0
M  V30 8898 H 837.669 -2.5673 -1.97158 0
M  V30 8899 H 836.576 -3.74091 0.0265829 0
M  V30 8900 H 837.909 -4.92198 0.0152871 0
M  V30 8901 N 839.561 -0.251338 -1.55583 0
M  V30 8902 C 840.509 0.662534 -2.22965 0
M  V30 8903 C 841.503 1.17662 -1.21869 0
M  V30 8904 O 842.709 1.133 -1.39868 0
M  V30 8905 H 839.084 0.232151 -0.715269 0
M  V30 8906 H 841.055 0.0711252 -2.98315 0
M  V30 8907 C 839.804 1.84646 -2.94621 0
M  V30 8908 H 839.127 1.46003 -3.72187 0
M  V30 8909 H 840.567 2.46303 -3.45124 0
M  V30 8910 C 839.026 2.72034 -1.98744 0
M  V30 8911 O 839.556 3.71695 -1.52335 0
M  V30 8912 N 837.762 2.38695 -1.6575 0
M  V30 8913 H 837.309 1.57702 -2.03685 0
M  V30 8914 H 837.267 2.9744 -1.01867 0
M  V30 8915 N 841.039 1.57585 0.0217189 0
M  V30 8916 C 842.455 1.55072 0.377484 0
M  V30 8917 C 842.655 0.978423 1.76151 0
M  V30 8918 O 841.711 0.602688 2.45202 0
M  V30 8919 C 843.024 2.99462 0.272605 0
M  V30 8920 C 844.572 3.11047 0.349148 0
M  V30 8921 C 845.047 4.57182 0.273636 0
M  V30 8922 N 846.538 4.62007 0.332206 0
M  V30 8923 C 847.273 5.72631 0.296782 0
M  V30 8924 N 846.769 6.92472 0.21322 0
M  V30 8925 N 848.562 5.61028 0.347053 0
M  V30 8926 H 840.713 1.93133 -0.883925 0
M  V30 8927 H 842.976 0.886151 -0.33681 0
M  V30 8928 H 842.682 3.45088 -0.67878 0
M  V30 8929 H 842.556 3.61901 1.06335 0
M  V30 8930 H 844.943 2.65364 1.29097 0
M  V30 8931 H 845.024 2.51425 -0.471085 0
M  V30 8932 H 844.668 5.03534 -0.664548 0
M  V30 8933 H 844.598 5.14724 1.11207 0
M  V30 8934 H 847.089 3.75788 0.399003 0
M  V30 8935 H 847.402 7.72563 0.191492 0
M  V30 8936 H 845.747 6.94769 0.179161 0
M  V30 8937 H 848.938 4.66298 0.410378 0
M  V30 8938 H 849.111 6.47229 0.315979 0
M  V30 8939 N 842.517 -0.29412 1.54831 0
M  V30 8940 C 843.745 -1.04724 1.78439 0
M  V30 8941 C 844.16 -1.80695 0.547239 0
M  V30 8942 O 843.517 -1.75989 -0.483141 0
M  V30 8943 C 843.568 -2.02242 2.99634 0
M  V30 8944 O 843.289 -1.29352 4.18568 0
M  V30 8945 C 844.79 -2.89537 3.35683 0
M  V30 8946 H 842.01 -0.310285 0.594949 0
M  V30 8947 H 844.554 -0.331306 2.01798 0
M  V30 8948 H 842.709 -2.69328 2.78462 0
M  V30 8949 H 843.123 -1.94901 4.86943 0
M  V30 8950 H 844.597 -3.538 4.23709 0
M  V30 8951 H 845.074 -3.58201 2.54143 0
M  V30 8952 H 845.68 -2.27973 3.59038 0
M  V30 8953 N 843.995 -1.47404 -0.557645 0
M  V30 8954 C 845.243 -1.53703 -1.31224 0
M  V30 8955 C 845.564 -0.200742 -1.93964 0
M  V30 8956 O 844.834 0.775253 -1.79907 0
M  V30 8957 H 843.414 -0.566171 -0.487299 0
M  V30 8958 H 846.076 -1.83699 -0.651195 0
M  V30 8959 H 845.172 -2.30335 -2.10599 0
M  V30 8960 N 845.473 0.80434 -1.35529 0
M  V30 8961 C 846.713 1.57489 -1.30295 0
M  V30 8962 C 847.077 1.91621 0.120528 0
M  V30 8963 O 848.278 2.67151 0.297265 0
M  V30 8964 C 846.549 2.82741 -2.18615 0
M  V30 8965 S 848.108 3.73125 -2.30918 0
M  V30 8966 H 844.926 0.539573 -0.463014 0
M  V30 8967 H 847.528 0.948601 -1.70944 0
M  V30 8968 H 846.232 2.55692 -3.21014 0
M  V30 8969 H 845.763 3.50353 -1.78931 0
M  V30 8970 H 847.778 4.73122 -1.49566 0
M  V30 8971 N 846.951 1.19563 1.02676 0
M  V30 8972 C 848.367 0.948304 1.28372 0
M  V30 8973 C 848.567 -0.378096 1.97921 0
M  V30 8974 O 847.623 -1.1091 2.26838 0
M  V30 8975 C 848.936 2.12381 2.12873 0
M  V30 8976 C 850.484 2.16366 2.26174 0
M  V30 8977 C 850.959 3.33374 3.14048 0
M  V30 8978 N 852.45 3.33323 3.21636 0
M  V30 8979 C 853.185 4.20504 3.89825 0
M  V30 8980 N 852.681 5.17845 4.60227 0
M  V30 8981 N 854.474 4.08375 3.86246 0
M  V30 8982 H 846.625 2.04899 0.559485 0
M  V30 8983 H 848.888 0.89606 0.309484 0
M  V30 8984 H 848.594 3.08383 1.69094 0
M  V30 8985 H 848.468 2.09621 3.1359 0
M  V30 8986 H 850.855 1.20933 2.69182 0
M  V30 8987 H 850.936 2.23179 1.25 0
M  V30 8988 H 850.58 4.29087 2.71747 0
M  V30 8989 H 850.51 3.23798 4.15286 0
M  V30 8990 H 853.001 2.62863 2.71498 0
M  V30 8991 H 853.314 5.80712 5.09896 0
M  V30 8992 H 851.659 5.21791 4.59085 0
M  V30 8993 H 854.85 3.31606 3.30386 0
M  V30 8994 H 855.023 4.76532 4.39114 0
M  V30 8995 N 848.429 -1.21819 0.999893 0
M  V30 8996 C 849.84 -1.72517 0.713775 0
M  V30 8997 C 850.191 -1.80505 -0.768922 0
M  V30 8998 O 849.316 -1.45611 -1.60083 0
M  V30 8999 C 849.911 -3.13321 1.28901 0
M  V30 9000 C 848.47 -3.61396 1.05212 0
M  V30 9001 C 847.617 -2.39074 1.40494 0
M  V30 9002 H 850.568 -1.07068 1.17141 0
M  V30 9003 H 850.589 -3.74535 0.671084 0
M  V30 9004 H 850.101 -3.07475 2.36814 0
M  V30 9005 H 848.202 -3.72599 -0.0100732 0
M  V30 9006 H 848.315 -4.47145 1.72042 0
M  V30 9007 H 846.679 -2.41015 0.823642 0
M  V30 9008 H 847.462 -2.35884 2.49427 0
M  V30 9009 N 849.908 -0.773975 -1.37286 0
M  V30 9010 C 851.157 -0.335977 -1.98882 0
M  V30 9011 C 851.47 1.09416 -1.62134 0
M  V30 9012 O 852.676 1.63366 -2.1685 0
M  V30 9013 C 851.132 -0.549756 -3.55676 0
M  V30 9014 C 850.74 -1.9903 -4.01361 0
M  V30 9015 C 852.484 -0.175493 -4.24137 0
M  V30 9016 C 850.391 -2.15156 -5.50874 0
M  V30 9017 H 849.321 -0.121877 -0.744085 0
M  V30 9018 H 851.972 -0.953419 -1.56787 0
M  V30 9019 H 850.354 0.137175 -3.95762 0
M  V30 9020 H 851.528 -2.71237 -3.72515 0
M  V30 9021 H 849.843 -2.32137 -3.4569 0
M  V30 9022 H 852.44 -0.274463 -5.33995 0
M  V30 9023 H 852.783 0.874524 -4.07011 0
M  V30 9024 H 853.316 -0.815058 -3.89361 0
M  V30 9025 H 850.055 -3.18485 -5.72929 0
M  V30 9026 H 849.575 -1.47435 -5.81397 0
M  V30 9027 H 851.254 -1.95124 -6.16876 0
M  V30 9028 N 851.386 1.48609 -0.524698 0
M  V30 9029 C 852.797 1.86516 -0.0828846 0
M  V30 9030 C 853.148 1.43478 1.33822 0
M  V30 9031 O 852.273 0.823139 2.00133 0
M  V30 9032 C 852.868 3.38495 -0.143639 0
M  V30 9033 C 851.427 3.75615 0.242951 0
M  V30 9034 C 850.574 2.72649 -0.505747 0
M  V30 9035 H 853.525 1.40589 -0.736233 0
M  V30 9036 H 853.546 3.74977 0.645955 0
M  V30 9037 H 853.058 3.69789 -1.17805 0
M  V30 9038 H 851.159 3.49935 1.27971 0
M  V30 9039 H 851.272 4.7901 -0.0929834 0
M  V30 9040 H 849.636 2.54656 0.0473482 0
M  V30 9041 H 850.419 3.06786 -1.54069 0
M  V30 9042 N 852.864 0.259585 1.55447 0
M  V30 9043 C 854.113 -0.362163 1.98422 0
M  V30 9044 C 854.426 -1.58135 1.1512 0
M  V30 9045 O 855.632 -2.27506 1.48166 0
M  V30 9046 C 854.088 -0.695722 3.53111 0
M  V30 9047 C 853.696 0.502784 4.4517 0
M  V30 9048 C 855.44 -1.28096 4.04712 0
M  V30 9049 C 853.347 0.144674 5.91223 0
M  V30 9050 H 852.277 -0.139092 0.74106 0
M  V30 9051 H 854.928 0.361798 1.79898 0
M  V30 9052 H 853.31 -1.47816 3.67378 0
M  V30 9053 H 854.484 1.27994 4.42667 0
M  V30 9054 H 852.799 1.0038 4.0412 0
M  V30 9055 H 855.396 -1.56243 5.11363 0
M  V30 9056 H 855.739 -2.20969 3.52815 0
M  V30 9057 H 856.272 -0.561146 3.93822 0
M  V30 9058 H 853.011 1.04087 6.47183 0
M  V30 9059 H 852.531 -0.596023 5.96831 0
M  V30 9060 H 854.21 -0.268651 6.46442 0
M  V30 9061 N 854.342 -1.57594 -0.0133615 0
M  V30 9062 C 855.591 -1.8916 -0.700103 0
M  V30 9063 C 855.904 -0.860147 -1.75673 0
M  V30 9064 O 857.11 -1.06556 -2.49716 0
M  V30 9065 C 855.566 -3.35742 -1.29635 0
M  V30 9066 C 855.174 -4.47154 -0.275249 0
M  V30 9067 C 856.918 -3.76436 -1.96205 0
M  V30 9068 C 854.825 -5.84805 -0.880726 0
M  V30 9069 H 853.755 -0.705805 -0.265247 0
M  V30 9070 H 856.406 -1.83445 0.044993 0
M  V30 9071 H 854.788 -3.36252 -2.09167 0
M  V30 9072 H 855.962 -4.58139 0.494506 0
M  V30 9073 H 854.277 -4.15394 0.289256 0
M  V30 9074 H 856.874 -4.76606 -2.42386 0
M  V30 9075 H 857.217 -3.09249 -2.78695 0
M  V30 9076 H 857.75 -3.78168 -1.23426 0
M  V30 9077 H 854.489 -6.55431 -0.0949013 0
M  V30 9078 H 854.009 -5.7751 -1.61995 0
M  V30 9079 H 855.688 -6.32038 -1.38338 0
M  V30 9080 N 855.82 0.285905 -1.54985 0
M  V30 9081 C 856.767 1.35306 -1.86978 0
M  V30 9082 C 857.737 1.49682 -0.720046 0
M  V30 9083 O 858.922 1.64297 -0.970107 0
M  V30 9084 C 856.062 2.71059 -2.13591 0
M  V30 9085 C 855.175 2.6501 -3.41165 0
M  V30 9086 C 854.31 3.92856 -3.57544 0
M  V30 9087 C 853.349 3.81266 -4.78855 0
M  V30 9088 N 852.486 5.00919 -4.9196 0
M  V30 9089 H 857.326 1.07323 -2.78003 0
M  V30 9090 H 854.863 0.518776 -1.37649 0
M  V30 9091 H 856.821 3.50026 -2.27019 0
M  V30 9092 H 855.451 2.97271 -1.25816 0
M  V30 9093 H 854.503 1.77824 -3.36278 0
M  V30 9094 H 855.815 2.52342 -4.30262 0
M  V30 9095 H 854.969 4.80263 -3.70718 0
M  V30 9096 H 853.708 4.08377 -2.66608 0
M  V30 9097 H 852.713 2.92243 -4.65698 0
M  V30 9098 H 853.938 3.67277 -5.71213 0
M  V30 9099 H 851.884 5.16875 -4.03951 0
M  V30 9100 H 851.801 4.90732 -5.75081 0
M  V30 9101 H 853.069 5.89935 -5.09507 0
M  V30 9102 N 857.298 1.47698 0.54982 0
M  V30 9103 C 858.228 1.63622 1.66583 0
M  V30 9104 C 859.209 0.485477 1.63025 0
M  V30 9105 O 860.394 0.715692 1.80531 0
M  V30 9106 C 857.524 1.65721 3.05211 0
M  V30 9107 C 856.478 2.80097 3.2362 0
M  V30 9108 C 855.804 2.67272 4.63109 0
M  V30 9109 C 857.104 4.21612 3.08286 0
M  V30 9110 H 858.798 2.57049 1.53512 0
M  V30 9111 H 856.344 1.23705 0.737099 0
M  V30 9112 H 858.297 1.75451 3.83138 0
M  V30 9113 H 857.021 0.688593 3.19258 0
M  V30 9114 H 855.68 2.69889 2.48104 0
M  V30 9115 H 855.328 1.68422 4.73965 0
M  V30 9116 H 855.028 3.44008 4.76374 0
M  V30 9117 H 856.552 2.78942 5.43161 0
M  V30 9118 H 857.966 4.32758 3.76024 0
M  V30 9119 H 856.363 4.99193 3.33057 0
M  V30 9120 H 857.433 4.39462 2.04942 0
M  V30 9121 N 858.776 -0.797141 1.35954 0
M  V30 9122 C 859.686 -1.94088 1.31784 0
M  V30 9123 C 860.702 -1.72588 0.221227 0
M  V30 9124 O 861.878 -1.96256 0.452255 0
M  V30 9125 C 858.943 -3.28828 1.09878 0
M  V30 9126 C 858.004 -3.63158 2.28942 0
M  V30 9127 C 857.237 -4.91469 2.08072 0
M  V30 9128 O 857.46 -5.60616 1.05196 0
M  V30 9129 O 856.394 -5.24277 2.95664 0
M  V30 9130 H 860.22 -2.00554 2.28061 0
M  V30 9131 H 857.805 -0.936288 1.16422 0
M  V30 9132 H 859.687 -4.09473 0.995485 0
M  V30 9133 H 858.362 -3.23271 0.16659 0
M  V30 9134 H 857.269 -2.82851 2.44839 0
M  V30 9135 H 858.602 -3.7343 3.20641 0
M  V30 9136 N 860.254 -1.20106 -1.0204 0
M  V30 9137 C 861.5 -1.02042 -1.75951 0
M  V30 9138 C 861.855 0.443229 -1.87225 0
M  V30 9139 O 861.148 1.32477 -1.38421 0
M  V30 9140 C 861.342 -1.63308 -3.17908 0
M  V30 9141 C 861.171 -3.15478 -3.20474 0
M  V30 9142 C 859.941 -3.84432 -3.27933 0
M  V30 9143 C 862.139 -4.12747 -3.06829 0
M  V30 9144 N 860.121 -5.23925 -3.19963 0
M  V30 9145 C 861.492 -5.38892 -3.06586 0
M  V30 9146 C 863.547 -4.03996 -2.91018 0
M  V30 9147 C 862.25 -6.57296 -2.92154 0
M  V30 9148 C 864.276 -5.22019 -2.77938 0
M  V30 9149 C 863.638 -6.47067 -2.78358 0
M  V30 9150 H 859.737 -0.427602 -0.654737 0
M  V30 9151 H 862.321 -1.52216 -1.21402 0
M  V30 9152 H 860.492 -1.15723 -3.7076 0
M  V30 9153 H 862.224 -1.38597 -3.80227 0
M  V30 9154 H 858.979 -3.35269 -3.34502 0
M  V30 9155 H 859.403 -5.9694 -3.19362 0
M  V30 9156 H 864.045 -3.0813 -2.8951 0
M  V30 9157 H 861.763 -7.5334 -2.92412 0
M  V30 9158 H 865.349 -5.17057 -2.66728 0
M  V30 9159 H 864.229 -7.36857 -2.6835 0
M  V30 9160 N 861.732 1.21287 -1.00634 0
M  V30 9161 C 862.98 1.90013 -0.688438 0
M  V30 9162 C 863.301 1.78573 0.783365 0
M  V30 9163 O 862.571 1.1815 1.56261 0
M  V30 9164 H 861.151 0.703336 -0.251648 0
M  V30 9165 H 863.813 1.47346 -1.27574 0
M  V30 9166 H 862.909 2.96879 -0.962781 0
M  V30 9167 N 863.21 0.781244 1.36873 0
M  V30 9168 C 864.435 0.360398 2.04245 0
M  V30 9169 C 864.86 -1.01242 1.58529 0
M  V30 9170 O 864.218 -1.65063 0.749936 0
M  V30 9171 C 864.266 0.42329 3.58107 0
M  V30 9172 O 863.37 -0.572796 4.08403 0
M  V30 9173 H 862.711 0.154386 0.645803 0
M  V30 9174 H 865.241 1.06008 1.74996 0
M  V30 9175 H 865.251 0.283967 4.07011 0
M  V30 9176 H 863.926 1.42477 3.90734 0
M  V30 9177 H 862.503 -0.395809 3.70793 0
M  V30 9178 N 864.689 -1.48329 0.532571 0
M  V30 9179 C 866.1 -1.86469 0.0927749 0
M  V30 9180 C 866.451 -1.44186 -1.3306 0
M  V30 9181 O 865.576 -0.833741 -1.99694 0
M  V30 9182 C 866.171 -3.38414 0.161588 0
M  V30 9183 C 864.73 -3.75739 -0.223028 0
M  V30 9184 C 863.877 -2.72377 0.520199 0
M  V30 9185 H 866.828 -1.40197 0.743678 0
M  V30 9186 H 866.849 -3.75314 -0.626059 0
M  V30 9187 H 866.361 -3.69159 1.19765 0
M  V30 9188 H 864.462 -3.50608 -1.26113 0
M  V30 9189 H 864.575 -4.78954 0.118385 0
M  V30 9190 H 862.939 -2.54678 -0.0338425 0
M  V30 9191 H 863.722 -3.05965 1.55694 0
M  V30 9192 N 866.167 -0.267825 -1.55308 0
M  V30 9193 C 867.413 0.34458 -2.0046 0
M  V30 9194 C 867.768 1.54028 -1.15296 0
M  V30 9195 O 867.061 1.90409 -0.213316 0
M  V30 9196 C 867.255 0.784247 -3.48689 0
M  V30 9197 C 867.084 -0.367304 -4.48197 0
M  V30 9198 C 865.854 -0.848746 -4.98121 0
M  V30 9199 C 868.052 -1.20136 -5.00072 0
M  V30 9200 N 866.034 -1.97052 -5.81415 0
M  V30 9201 C 867.405 -2.17115 -5.80742 0
M  V30 9202 C 869.46 -1.23553 -4.82327 0
M  V30 9203 C 868.163 -3.17248 -6.45559 0
M  V30 9204 C 870.189 -2.22527 -5.47938 0
M  V30 9205 C 869.551 -3.1824 -6.28413 0
M  V30 9206 H 865.65 0.091465 -0.776633 0
M  V30 9207 H 868.234 -0.390184 -1.9075 0
M  V30 9208 H 866.405 1.48825 -3.58756 0
M  V30 9209 H 868.137 1.37337 -3.80684 0
M  V30 9210 H 864.892 -0.429291 -4.7165 0
M  V30 9211 H 865.316 -2.53481 -6.27755 0
M  V30 9212 H 869.958 -0.50937 -4.1972 0
M  V30 9213 H 867.676 -3.90801 -7.07319 0
M  V30 9214 H 871.262 -2.25904 -5.36152 0
M  V30 9215 H 870.142 -3.93573 -6.78285 0
M  V30 9216 N 867.645 1.57599 0.00500368 0
M  V30 9217 C 868.608 2.07058 0.982832 0
M  V30 9218 C 869.608 0.979045 1.27559 0
M  V30 9219 O 870.798 1.24187 1.22161 0
M  V30 9220 C 867.93 2.50782 2.30914 0
M  V30 9221 H 869.123 2.94718 0.555119 0
M  V30 9222 H 866.676 1.54249 0.25237 0
M  V30 9223 H 867.411 1.66351 2.78385 0
M  V30 9224 H 867.196 3.30495 2.10987 0
M  V30 9225 H 868.686 2.89391 3.0107 0
M  V30 9226 N 869.123 -0.277682 1.55134 0
M  V30 9227 C 870.369 -1.0114 1.7578 0
M  V30 9228 C 870.702 -1.86109 0.554719 0
M  V30 9229 O 869.977 -1.89275 -0.447813 0
M  V30 9230 C 870.26 -1.89789 3.06027 0
M  V30 9231 C 870.113 -1.07844 4.3668 0
M  V30 9232 C 871.432 -2.88577 3.32282 0
M  V30 9233 H 868.551 -0.366277 0.639539 0
M  V30 9234 H 871.193 -0.284155 1.87863 0
M  V30 9235 H 869.343 -2.51796 2.95856 0
M  V30 9236 H 871.015 -0.479432 4.58802 0
M  V30 9237 H 869.258 -0.381764 4.32117 0
M  V30 9238 H 869.929 -1.73179 5.24131 0
M  V30 9239 H 872.405 -2.36702 3.42215 0
M  V30 9240 H 871.281 -3.47749 4.2469 0
M  V30 9241 H 871.542 -3.63458 2.51696 0
M  V30 9242 N 870.601 -1.47988 -0.541979 0
M  V30 9243 C 871.531 -1.64503 -1.65713 0
M  V30 9244 C 872.512 -0.494116 -1.62765 0
M  V30 9245 O 873.697 -0.725256 -1.80149 0
M  V30 9246 C 870.827 -1.67337 -3.04328 0
M  V30 9247 C 869.781 -2.81809 -3.2213 0
M  V30 9248 C 869.107 -2.69724 -4.61685 0
M  V30 9249 C 870.407 -4.23241 -3.06046 0
M  V30 9250 H 872.101 -2.5786 -1.52147 0
M  V30 9251 H 869.647 -1.24094 -0.730529 0
M  V30 9252 H 871.6 -1.77481 -3.82202 0
M  V30 9253 H 870.324 -0.705514 -3.18889 0
M  V30 9254 H 868.983 -2.71201 -2.46669 0
M  V30 9255 H 868.631 -1.70934 -4.73065 0
M  V30 9256 H 868.331 -3.4653 -4.74543 0
M  V30 9257 H 869.855 -2.81818 -5.41674 0
M  V30 9258 H 871.269 -4.34746 -3.73723 0
M  V30 9259 H 869.666 -5.00952 -3.30405 0
M  V30 9260 H 870.736 -4.40543 -2.02609 0
M  V30 9261 N 872.079 0.78992 -1.36375 0
M  V30 9262 C 873.49 1.36506 -1.2737 0
M  V30 9263 C 873.841 1.96008 0.086711 0
M  V30 9264 O 872.966 1.92521 0.988159 0
M  V30 9265 C 873.561 2.48175 -2.30639 0
M  V30 9266 C 872.12 3.01506 -2.25325 0
M  V30 9267 C 871.267 1.74581 -2.15445 0
M  V30 9268 H 874.218 0.591606 -1.47261 0
M  V30 9269 H 874.239 3.27179 -1.94253 0
M  V30 9270 H 873.751 2.04838 -3.2964 0
M  V30 9271 H 871.852 3.49265 -1.29788 0
M  V30 9272 H 871.965 3.58355 -3.17992 0
M  V30 9273 H 870.329 1.96794 -1.61692 0
M  V30 9274 H 871.112 1.33373 -3.16333 0
M  V30 9275 N 873.557 1.20646 1.01402 0
M  V30 9276 C 874.487 0.98155 2.11867 0
M  V30 9277 C 875.468 -0.0903712 1.6986 0
M  V30 9278 O 876.653 0.0676586 1.94082 0
M  V30 9279 C 873.783 0.535636 3.43145 0
M  V30 9280 C 872.737 1.55109 3.98905 0
M  V30 9281 C 872.063 0.961725 5.2598 0
M  V30 9282 C 873.363 2.93552 4.32001 0
M  V30 9283 H 875.057 1.90544 2.3094 0
M  V30 9284 H 872.603 0.917554 1.10982 0
M  V30 9285 H 874.556 0.365512 4.19812 0
M  V30 9286 H 873.28 -0.423882 3.23838 0
M  V30 9287 H 871.939 1.70862 3.24348 0
M  V30 9288 H 871.587 -0.00580108 5.03 0
M  V30 9289 H 871.287 1.63993 5.64252 0
M  V30 9290 H 872.811 0.802726 6.053 0
M  V30 9291 H 874.225 2.81295 4.99546 0
M  V30 9292 H 872.622 3.58303 4.81393 0
M  V30 9293 H 873.692 3.4508 3.40658 0
M  V30 9294 N 875.035 -1.20752 1.01276 0
M  V30 9295 C 876.282 -1.90021 0.699887 0
M  V30 9296 C 876.61 -1.78604 -0.770113 0
M  V30 9297 O 875.865 -1.16195 -1.57471 0
M  V30 9298 C 876.164 -3.40808 1.07633 0
M  V30 9299 C 875.83 -3.72423 2.54189 0
M  V30 9300 C 874.492 -3.80762 2.94234 0
M  V30 9301 C 876.844 -3.87025 3.49086 0
M  V30 9302 C 874.172 -4.01158 4.28123 0
M  V30 9303 C 876.524 -4.0893 4.82658 0
M  V30 9304 C 875.188 -4.15498 5.22415 0
M  V30 9305 H 874.458 -0.695335 0.256107 0
M  V30 9306 H 877.105 -1.43096 1.27263 0
M  V30 9307 H 875.41 -3.89521 0.421944 0
M  V30 9308 H 877.107 -3.92693 0.811997 0
M  V30 9309 H 873.697 -3.66529 2.22158 0
M  V30 9310 H 877.881 -3.79942 3.19309 0
M  V30 9311 H 873.137 -4.04476 4.58486 0
M  V30 9312 H 877.311 -4.19172 5.56119 0
M  V30 9313 H 874.938 -4.31055 6.26176 0
M  V30 9314 N 876.513 -0.788492 -1.36457 0
M  V30 9315 C 877.443 -0.200468 -2.32638 0
M  V30 9316 C 878.424 0.664031 -1.56603 0
M  V30 9317 O 879.609 0.598045 -1.84762 0
M  V30 9318 C 876.739 0.666274 -3.40849 0
M  V30 9319 C 875.693 -0.0982574 -4.27887 0
M  V30 9320 C 875.019 0.889018 -5.27258 0
M  V30 9321 C 876.319 -1.28692 -5.06197 0
M  V30 9322 H 878.013 -1.00399 -2.82065 0
M  V30 9323 H 875.559 -0.484237 -1.35614 0
M  V30 9324 H 877.512 1.08757 -4.07124 0
M  V30 9325 H 876.236 1.50249 -2.89987 0
M  V30 9326 H 874.895 -0.500525 -3.63167 0
M  V30 9327 H 874.543 1.72024 -4.7267 0
M  V30 9328 H 874.243 0.381909 -5.86358 0
M  V30 9329 H 875.767 1.30891 -5.96406 0
M  V30 9330 H 877.181 -0.941429 -5.65517 0
M  V30 9331 H 875.578 -1.72726 -5.74705 0
M  V30 9332 H 876.648 -2.08273 -4.37893 0
M  V30 9333 N 877.991 1.48044 -0.54043 0
M  V30 9334 C 878.954 2.28273 0.205966 0
M  V30 9335 C 879.954 1.35983 0.858209 0
M  V30 9336 O 881.144 1.58776 0.716651 0
M  V30 9337 C 878.276 3.15174 1.29917 0
M  V30 9338 H 879.469 2.95727 -0.498555 0
M  V30 9339 H 877.022 1.53457 -0.296745 0
M  V30 9340 H 877.757 2.52374 2.03661 0
M  V30 9341 H 877.542 3.83074 0.836475 0
M  V30 9342 H 879.032 3.75666 1.82387 0
M  V30 9343 N 879.47 0.276058 1.55163 0
M  V30 9344 C 880.716 -0.340959 1.99913 0
M  V30 9345 C 881.049 -1.55434 1.16422 0
M  V30 9346 O 880.324 -1.93081 0.234517 0
M  V30 9347 C 880.607 -0.722211 3.52783 0
M  V30 9348 C 880.46 0.498575 4.47028 0
M  V30 9349 C 881.779 -1.5583 4.11589 0
M  V30 9350 H 878.898 -0.122455 0.726756 0
M  V30 9351 H 881.54 0.38319 1.86096 0
M  V30 9352 H 879.69 -1.33919 3.64689 0
M  V30 9353 H 881.362 1.13713 4.47065 0
M  V30 9354 H 879.605 1.13646 4.18649 0
M  V30 9355 H 880.276 0.188041 5.5168 0
M  V30 9356 H 882.752 -1.03722 4.02965 0
M  V30 9357 H 881.628 -1.79387 5.1876 0
M  V30 9358 H 881.889 -2.53963 3.61877 0
M  V30 9359 N 880.948 -1.576 0.00335426 0
M  V30 9360 C 882.194 -1.90996 -0.681799 0
M  V30 9361 C 882.527 -0.877643 -1.73237 0
M  V30 9362 O 881.802 0.103183 -1.94226 0
M  V30 9363 C 882.085 -3.34961 -1.32187 0
M  V30 9364 C 881.938 -4.48911 -0.28261 0
M  V30 9365 C 883.257 -3.78408 -2.24711 0
M  V30 9366 H 880.376 -0.694596 -0.246386 0
M  V30 9367 H 883.018 -1.89919 0.055336 0
M  V30 9368 H 881.168 -3.36008 -1.95014 0
M  V30 9369 H 882.84 -4.59999 0.346241 0
M  V30 9370 H 881.083 -4.32 0.394768 0
M  V30 9371 H 881.754 -5.46609 -0.769576 0
M  V30 9372 H 884.23 -3.78934 -1.71897 0
M  V30 9373 H 883.106 -4.79885 -2.66461 0
M  V30 9374 H 883.367 -3.12464 -3.1276 0
M  V30 9375 N 882.426 0.269451 -1.5528 0
M  V30 9376 C 883.674 0.998604 -1.75705 0
M  V30 9377 C 883.995 1.86691 -0.563175 0
M  V30 9378 O 883.265 1.91305 0.421811 0
M  V30 9379 H 881.845 0.371698 -0.647958 0
M  V30 9380 H 884.507 0.292826 -1.92688 0
M  V30 9381 H 883.603 1.63348 -2.6594 0
M  V30 9382 N 883.904 1.48273 0.534124 0
M  V30 9383 C 885.153 1.55334 1.28663 0
M  V30 9384 C 885.466 0.230345 1.94239 0
M  V30 9385 O 886.672 0.179161 2.70908 0
M  V30 9386 C 885.128 2.73927 2.33435 0
M  V30 9387 C 884.736 4.12852 1.73947 0
M  V30 9388 C 886.48 2.90298 3.09722 0
M  V30 9389 C 884.387 5.22711 2.76636 0
M  V30 9390 H 883.317 0.578262 0.483869 0
M  V30 9391 H 885.968 1.74598 0.564602 0
M  V30 9392 H 884.35 2.48089 3.08655 0
M  V30 9393 H 885.524 4.48691 1.04944 0
M  V30 9394 H 883.839 4.01562 1.10167 0
M  V30 9395 H 886.436 3.69542 3.86449 0
M  V30 9396 H 886.779 1.99598 3.6533 0
M  V30 9397 H 887.312 3.16017 2.41616 0
M  V30 9398 H 884.051 6.15362 2.25852 0
M  V30 9399 H 883.571 4.91364 3.43979 0
M  V30 9400 H 885.25 5.50648 3.39699 0
M  V30 9401 N 885.382 -0.782676 1.36792 0
M  V30 9402 C 886.345 -1.8772 1.31507 0
M  V30 9403 C 887.345 -1.59269 0.221349 0
M  V30 9404 O 888.535 -1.67555 0.476544 0
M  V30 9405 C 885.667 -3.24641 1.04025 0
M  V30 9406 H 886.86 -1.9382 2.28853 0
M  V30 9407 H 884.413 -0.981226 1.21662 0
M  V30 9408 H 885.148 -3.24221 0.0716439 0
M  V30 9409 H 884.933 -3.46681 1.8318 0
M  V30 9410 H 886.423 -4.04711 1.02949 0
M  V30 9411 N 886.86 -1.21182 -1.00761 0
M  V30 9412 C 887.823 -0.970339 -2.07646 0
M  V30 9413 C 888.823 0.0576345 -1.60697 0
M  V30 9414 O 890.013 -0.179369 -1.73274 0
M  V30 9415 C 887.145 -0.462703 -3.37745 0
M  V30 9416 H 888.338 -1.91856 -2.30502 0
M  V30 9417 H 885.891 -1.02844 -1.17698 0
M  V30 9418 H 886.626 0.490559 -3.20568 0
M  V30 9419 H 886.411 -1.20416 -3.73152 0
M  V30 9420 H 887.901 -0.313531 -4.16421 0
M  V30 9421 N 888.338 1.20213 -1.01915 0
M  V30 9422 C 889.566 1.93622 -0.729255 0
M  V30 9423 C 889.981 1.74923 0.710444 0
M  V30 9424 O 889.338 1.06484 1.48214 0
M  V30 9425 C 889.389 3.45651 -1.05865 0
M  V30 9426 O 889.11 3.63741 -2.44181 0
M  V30 9427 C 890.611 4.36201 -0.790176 0
M  V30 9428 H 887.831 0.615333 -0.267594 0
M  V30 9429 H 890.375 1.52633 -1.36101 0
M  V30 9430 H 888.53 3.84511 -0.47225 0
M  V30 9431 H 888.944 4.57702 -2.56143 0
M  V30 9432 H 890.418 5.41516 -1.07071 0
M  V30 9433 H 890.895 4.38334 0.275609 0
M  V30 9434 H 891.501 4.03008 -1.35885 0
M  V30 9435 N 889.816 0.795718 1.36037 0
M  V30 9436 C 890.746 0.212803 2.32528 0
M  V30 9437 C 891.727 -0.655716 1.56953 0
M  V30 9438 O 892.912 -0.588238 1.85077 0
M  V30 9439 C 890.042 -0.648189 3.41198 0
M  V30 9440 C 888.996 0.120948 4.27829 0
M  V30 9441 C 888.322 -0.861044 5.27722 0
M  V30 9442 C 889.622 1.31375 5.05508 0
M  V30 9443 H 891.316 1.01893 2.81528 0
M  V30 9444 H 888.862 0.491422 1.35355 0
M  V30 9445 H 890.815 -1.06597 4.07695 0
M  V30 9446 H 889.539 -1.48709 2.9078 0
M  V30 9447 H 888.198 0.519777 3.62897 0
M  V30 9448 H 887.846 -1.69515 4.73575 0
M  V30 9449 H 887.546 -0.350808 5.86552 0
M  V30 9450 H 889.07 -1.27726 5.97092 0
M  V30 9451 H 890.484 0.971406 5.6501 0
M  V30 9452 H 888.881 1.75772 5.73781 0
M  V30 9453 H 889.951 2.10593 4.36782 0
M  V30 9454 N 891.294 -1.47756 0.548274 0
M  V30 9455 C 892.541 -2.02489 0.0208955 0
M  V30 9456 C 892.869 -1.42356 -1.32533 0
M  V30 9457 O 892.124 -0.565448 -1.87353 0
M  V30 9458 C 892.423 -3.5716 -0.131069 0
M  V30 9459 C 892.089 -4.36169 1.14313 0
M  V30 9460 C 890.751 -4.57476 1.4923 0
M  V30 9461 C 893.103 -4.81801 1.9879 0
M  V30 9462 C 890.431 -5.21662 2.68487 0
M  V30 9463 C 892.783 -5.47303 3.17242 0
M  V30 9464 C 891.447 -5.66844 3.52483 0
M  V30 9465 H 890.717 -0.740961 0.00764621 0
M  V30 9466 H 893.364 -1.77531 0.717987 0
M  V30 9467 H 891.669 -3.8106 -0.911063 0
M  V30 9468 H 893.366 -3.9715 -0.55433 0
M  V30 9469 H 889.956 -4.19858 0.861235 0
M  V30 9470 H 894.14 -4.65126 1.73123 0
M  V30 9471 H 889.396 -5.34987 2.95971 0
M  V30 9472 H 893.57 -5.81626 3.82994 0
M  V30 9473 H 891.197 -6.16352 4.44988 0
M  V30 9474 N 892.772 -0.284283 -1.55015 0
M  V30 9475 C 894.018 0.330352 -2.00091 0
M  V30 9476 C 894.351 1.54814 -1.17244 0
M  V30 9477 O 893.626 1.92954 -0.244753 0
M  V30 9478 C 893.909 0.703492 -3.53161 0
M  V30 9479 C 893.762 -0.522275 -4.46758 0
M  V30 9480 C 895.081 1.53645 -4.12409 0
M  V30 9481 H 892.2 0.118599 -0.727395 0
M  V30 9482 H 894.842 -0.393054 -1.8589 0
M  V30 9483 H 892.992 1.31983 -3.65394 0
M  V30 9484 H 894.664 -1.16082 -4.46456 0
M  V30 9485 H 892.907 -1.15865 -4.1804 0
M  V30 9486 H 893.578 -0.217295 -5.51572 0
M  V30 9487 H 896.054 1.01583 -4.0351 0
M  V30 9488 H 894.93 1.76633 -5.19704 0
M  V30 9489 H 895.191 2.5204 -3.63219 0
M  V30 9490 N 894.251 1.57596 -0.0117121 0
M  V30 9491 C 895.497 1.91355 0.671661 0
M  V30 9492 C 895.83 0.886818 1.72769 0
M  V30 9493 O 895.105 -0.0928813 1.94278 0
M  V30 9494 C 895.388 3.35657 1.30409 0
M  V30 9495 C 895.241 4.49055 0.2588 0
M  V30 9496 C 896.56 3.79595 2.22701 0
M  V30 9497 H 893.679 0.695893 0.242698 0
M  V30 9498 H 896.321 1.89887 -0.0654071 0
M  V30 9499 H 894.471 3.37038 1.9323 0
M  V30 9500 H 896.143 4.59809 -0.370631 0
M  V30 9501 H 894.386 4.31785 -0.417672 0
M  V30 9502 H 895.057 5.4701 0.740578 0
M  V30 9503 H 897.533 3.7984 1.69885 0
M  V30 9504 H 896.409 4.81292 2.63912 0
M  V30 9505 H 896.67 3.14118 3.11098 0
M  V30 9506 N 895.729 -0.261212 1.5542 0
M  V30 9507 C 896.978 -0.989072 1.75785 0
M  V30 9508 C 897.291 -1.8702 0.572961 0
M  V30 9509 O 898.497 -2.63374 0.659289 0
M  V30 9510 C 896.953 -1.80857 3.11157 0
M  V30 9511 C 896.561 -0.975535 4.3725 0
M  V30 9512 C 898.305 -2.53003 3.40866 0
M  V30 9513 C 896.212 -1.7901 5.63657 0
M  V30 9514 H 895.142 -0.373019 0.655266 0
M  V30 9515 H 897.793 -0.244267 1.81867 0
M  V30 9516 H 896.175 -2.59479 2.99144 0
M  V30 9517 H 897.349 -0.232661 4.60212 0
M  V30 9518 H 895.664 -0.368083 4.1477 0
M  V30 9519 H 898.261 -3.14372 4.32521 0
M  V30 9520 H 898.604 -3.23891 2.61535 0
M  V30 9521 H 899.137 -1.81403 3.54031 0
M  V30 9522 H 895.876 -1.12522 6.4577 0
M  V30 9523 H 895.396 -2.50863 5.44819 0
M  V30 9524 H 897.075 -2.36082 6.0239 0
M  V30 9525 N 897.207 -1.48554 -0.526253 0
M  V30 9526 C 898.435 -1.60429 -1.30652 0
M  V30 9527 C 898.85 -0.265963 -1.86917 0
M  V30 9528 O 898.207 0.745262 -1.6659 0
M  V30 9529 C 898.258 -2.65377 -2.45473 0
M  V30 9530 O 897.979 -3.94017 -1.91527 0
M  V30 9531 C 899.48 -2.87726 -3.37237 0
M  V30 9532 H 896.7 -0.540817 -0.397187 0
M  V30 9533 H 899.244 -1.94409 -0.634461 0
M  V30 9534 H 897.399 -2.34246 -3.08557 0
M  V30 9535 H 897.813 -4.51623 -2.66715 0
M  V30 9536 H 899.287 -3.64951 -4.14144 0
M  V30 9537 H 899.764 -1.96688 -3.92696 0
M  V30 9538 H 900.37 -3.20176 -2.79942 0
M  V30 9539 N 898.685 0.775411 -1.37205 0
M  V30 9540 C 899.932 1.53384 -1.32211 0
M  V30 9541 C 900.26 1.9427 0.0944958 0
M  V30 9542 O 899.515 1.64059 1.06692 0
M  V30 9543 C 899.814 2.81377 -2.20367 0
M  V30 9544 C 899.48 2.59561 -3.68699 0
M  V30 9545 C 898.142 2.53319 -4.09124 0
M  V30 9546 C 900.494 2.39939 -4.62686 0
M  V30 9547 C 897.822 2.25442 -5.41658 0
M  V30 9548 C 900.174 2.13586 -5.95453 0
M  V30 9549 C 898.838 2.05786 -6.34987 0
M  V30 9550 H 898.108 0.561271 -0.483793 0
M  V30 9551 H 900.755 0.893466 -1.6938 0
M  V30 9552 H 899.06 3.49954 -1.76181 0
M  V30 9553 H 900.757 3.39238 -2.13819 0
M  V30 9554 H 897.347 2.6528 -3.36637 0
M  V30 9555 H 901.531 2.43753 -4.32317 0
M  V30 9556 H 896.787 2.17896 -5.71254 0
M  V30 9557 H 900.961 1.97401 -6.67837 0
M  V30 9558 H 898.588 1.83948 -7.37609 0
M  V30 9559 N 900.163 1.21714 1.00117 0
M  V30 9560 C 901.409 1.03823 1.74208 0
M  V30 9561 C 901.742 -0.426733 1.89454 0
M  V30 9562 O 901.017 -1.31658 1.43166 0
M  V30 9563 C 901.3 1.74047 3.15246 0
M  V30 9564 C 901.153 3.28087 3.077 0
M  V30 9565 C 902.472 1.48614 4.14249 0
M  V30 9566 H 899.591 0.378573 0.632338 0
M  V30 9567 H 902.233 1.49942 1.16694 0
M  V30 9568 H 900.383 1.3484 3.64349 0
M  V30 9569 H 902.055 3.76686 2.6628 0
M  V30 9570 H 900.298 3.58191 2.44707 0
M  V30 9571 H 900.969 3.72392 4.07466 0
M  V30 9572 H 903.445 1.82656 3.73866 0
M  V30 9573 H 902.321 2.00257 5.11066 0
M  V30 9574 H 902.582 0.416957 4.40129 0
M  V30 9575 N 901.641 -1.19671 1.02551 0
M  V30 9576 C 903.057 -1.41305 0.741963 0
M  V30 9577 C 903.257 -1.89865 -0.674807 0
M  V30 9578 O 902.313 -2.07323 -1.44129 0
M  V30 9579 C 903.626 -2.42706 1.77522 0
M  V30 9580 C 905.174 -2.56458 1.79438 0
M  V30 9581 C 905.649 -3.61111 2.81715 0
M  V30 9582 N 907.14 -3.68603 2.8051 0
M  V30 9583 C 907.875 -4.49262 3.56302 0
M  V30 9584 N 907.371 -5.33653 4.41799 0
M  V30 9585 N 909.164 -4.43879 3.44859 0
M  V30 9586 H 901.315 -0.8647 1.94002 0
M  V30 9587 H 903.578 -0.442206 0.838545 0
M  V30 9588 H 903.284 -2.14042 2.79068 0
M  V30 9589 H 903.158 -3.41831 1.59472 0
M  V30 9590 H 905.545 -2.84447 0.78573 0
M  V30 9591 H 905.626 -1.57499 2.01563 0
M  V30 9592 H 905.27 -3.33864 3.82749 0
M  V30 9593 H 905.2 -4.59713 2.56849 0
M  V30 9594 H 907.691 -3.08329 2.18498 0
M  V30 9595 H 908.004 -5.92308 4.96378 0
M  V30 9596 H 906.349 -5.33125 4.45873 0
M  V30 9597 H 909.54 -3.7699 2.77482 0
M  V30 9598 H 909.713 -5.06501 4.04179 0
M  V30 9599 N 903.119 -0.802921 -1.35613 0
M  V30 9600 C 904.349 -0.393359 -2.02821 0
M  V30 9601 C 904.757 0.999282 -1.60658 0
M  V30 9602 O 904.1 1.65463 -0.797977 0
M  V30 9603 C 904.162 -0.393102 -3.57344 0
M  V30 9604 C 903.826 -1.73563 -4.22759 0
M  V30 9605 C 904.823 -2.69333 -4.44698 0
M  V30 9606 C 902.508 -2.01863 -4.59953 0
M  V30 9607 C 904.502 -3.91589 -5.02928 0
M  V30 9608 C 902.189 -3.24383 -5.17898 0
M  V30 9609 C 903.187 -4.19064 -5.39328 0
M  V30 9610 O 902.875 -5.39422 -5.96053 0
M  V30 9611 H 902.607 -0.158431 -0.657172 0
M  V30 9612 H 905.161 -1.08682 -1.74291 0
M  V30 9613 H 903.391 0.356934 -3.85049 0
M  V30 9614 H 905.08 -0.00635596 -4.059 0
M  V30 9615 H 905.846 -2.48759 -4.16346 0
M  V30 9616 H 901.725 -1.28979 -4.42589 0
M  V30 9617 H 905.269 -4.65502 -5.1957 0
M  V30 9618 H 901.166 -3.44829 -5.45677 0
M  V30 9619 H 901.934 -5.40669 -6.14507 0
M  V30 9620 N 904.597 1.47463 -0.556102 0
M  V30 9621 C 905.545 2.31692 0.205299 0
M  V30 9622 C 906.539 1.42857 0.910394 0
M  V30 9623 O 907.745 1.59628 0.831806 0
M  V30 9624 H 904.12 0.747172 0.0850775 0
M  V30 9625 H 906.091 2.93758 -0.524305 0
M  V30 9626 C 904.84 3.25487 1.22283 0
M  V30 9627 H 904.163 3.93806 0.689697 0
M  V30 9628 H 905.603 3.87257 1.7265 0
M  V30 9629 C 904.062 2.48931 2.27013 0
M  V30 9630 O 904.592 2.23296 3.33919 0
M  V30 9631 N 902.798 2.0996 2.00911 0
M  V30 9632 H 902.345 2.31008 1.13986 0
M  V30 9633 H 902.303 1.59053 2.712 0
M  V30 9634 N 906.075 0.2925 1.54862 0
M  V30 9635 C 907.352 -0.371946 1.92031 0
M  V30 9636 C 907.732 -1.72363 1.21878 0
M  V30 9637 O 907.08 -2.25779 0.351573 0
M  V30 9638 C 907.29 -0.495027 3.45471 0
M  V30 9639 C 908.638 -0.769855 4.17562 0
M  V30 9640 O 909.662 -0.579168 3.5146 0
M  V30 9641 O 908.521 -1.13561 5.34571 0
M  V30 9642 H 905.615 -0.206463 0.800813 0
M  V30 9643 H 908.161 0.339933 1.6626 0
M  V30 9644 H 906.933 0.455528 3.88639 0
M  V30 9645 H 906.556 -1.2557 3.7725 0
M  V30 9646 N 907.553 -1.57587 0.0200696 0
M  V30 9647 C 908.781 -1.95718 -0.670964 0
M  V30 9648 C 909.196 -0.896081 -1.6618 0
M  V30 9649 O 908.553 0.123037 -1.82085 0
M  V30 9650 C 908.604 -3.33904 -1.38529 0
M  V30 9651 O 908.325 -4.35943 -0.434167 0
M  V30 9652 C 909.826 -3.86614 -2.16898 0
M  V30 9653 H 907.046 -0.644819 -0.185606 0
M  V30 9654 H 909.59 -2.04354 0.0771495 0
M  V30 9655 H 907.745 -3.26515 -2.08487 0
M  V30 9656 H 908.159 -5.16001 -0.940378 0
M  V30 9657 H 909.633 -4.85673 -2.62346 0
M  V30 9658 H 910.11 -3.20379 -3.00423 0
M  V30 9659 H 910.716 -3.97243 -1.51916 0
M  V30 9660 N 909.032 0.252966 -1.55557 0
M  V30 9661 C 910.443 0.822503 -1.67606 0
M  V30 9662 C 910.794 1.86265 -0.616411 0
M  V30 9663 O 909.919 2.15082 0.238447 0
M  V30 9664 C 910.514 1.49866 -3.03852 0
M  V30 9665 C 909.073 2.01597 -3.17861 0
M  V30 9666 C 908.22 0.864943 -2.63465 0
M  V30 9667 H 911.171 0.0288958 -1.58674 0
M  V30 9668 H 911.192 2.36646 -2.97958 0
M  V30 9669 H 910.704 0.741378 -3.80953 0
M  V30 9670 H 908.805 2.80224 -2.45571 0
M  V30 9671 H 908.918 2.21752 -4.24692 0
M  V30 9672 H 907.282 1.2638 -2.21134 0
M  V30 9673 H 908.065 0.120847 -3.43087 0
M  V30 9674 N 910.51 1.48831 0.518367 0
M  V30 9675 C 911.759 1.5669 1.27008 0
M  V30 9676 C 912.072 0.250934 1.93984 0
M  V30 9677 O 913.278 0.207884 2.70703 0
M  V30 9678 C 911.734 2.76387 2.30517 0
M  V30 9679 C 911.342 4.14673 1.69559 0
M  V30 9680 C 913.086 2.93566 3.06625 0
M  V30 9681 C 910.993 5.25616 2.71076 0
M  V30 9682 H 909.923 0.583362 0.477708 0
M  V30 9683 H 912.574 1.75187 0.546052 0
M  V30 9684 H 910.956 2.51348 3.06006 0
M  V30 9685 H 912.13 4.49779 1.00179 0
M  V30 9686 H 910.445 4.02708 1.05902 0
M  V30 9687 H 913.042 3.7362 3.82508 0
M  V30 9688 H 913.385 2.03462 3.63193 0
M  V30 9689 H 913.918 3.18562 2.38251 0
M  V30 9690 H 910.657 6.17723 2.19313 0
M  V30 9691 H 910.177 4.94985 3.38748 0
M  V30 9692 H 911.856 5.5422 3.3384 0
M  V30 9693 N 911.988 -0.768124 1.37614 0
M  V30 9694 C 913.234 -1.52907 1.33219 0
M  V30 9695 C 913.567 -1.94026 -0.0821218 0
M  V30 9696 O 912.842 -1.64345 -1.04023 0
M  V30 9697 C 913.125 -2.79164 2.27463 0
M  V30 9698 C 912.978 -2.44276 3.7769 0
M  V30 9699 C 914.297 -3.81115 2.20089 0
M  V30 9700 H 911.416 -0.554712 0.485246 0
M  V30 9701 H 914.058 -0.880911 1.68345 0
M  V30 9702 H 912.208 -3.34472 1.97639 0
M  V30 9703 H 913.88 -1.94855 4.18126 0
M  V30 9704 H 912.123 -1.76925 3.96081 0
M  V30 9705 H 912.794 -3.34544 4.39072 0
M  V30 9706 H 915.27 -3.35311 2.46386 0
M  V30 9707 H 914.146 -4.67174 2.88166 0
M  V30 9708 H 914.407 -4.25644 1.19498 0
M  V30 9709 N 913.466 -1.22244 -0.994698 0
M  V30 9710 C 914.413 -0.990906 -2.08446 0
M  V30 9711 C 915.383 0.086737 -1.65873 0
M  V30 9712 O 916.568 -0.0624882 -1.90698 0
M  V30 9713 C 913.708 -0.572813 -3.40313 0
M  V30 9714 C 912.821 -1.72103 -3.96238 0
M  V30 9715 C 911.956 -1.2511 -5.16257 0
M  V30 9716 C 910.995 -2.37098 -5.64315 0
M  V30 9717 N 910.132 -1.91164 -6.75574 0
M  V30 9718 H 914.972 -1.92377 -2.27585 0
M  V30 9719 H 912.509 -0.958576 -1.11578 0
M  V30 9720 H 914.467 -0.311594 -4.16035 0
M  V30 9721 H 913.097 0.323044 -3.21179 0
M  V30 9722 H 912.149 -2.09662 -3.17405 0
M  V30 9723 H 913.461 -2.56347 -4.27888 0
M  V30 9724 H 912.615 -0.947152 -5.99261 0
M  V30 9725 H 911.354 -0.378836 -4.86226 0
M  V30 9726 H 910.359 -2.68283 -4.799 0
M  V30 9727 H 911.584 -3.24837 -5.96371 0
M  V30 9728 H 909.53 -1.06298 -6.47331 0
M  V30 9729 H 909.447 -2.68975 -7.06533 0
M  V30 9730 H 910.715 -1.63833 -7.62088 0
M  V30 9731 N 914.944 1.19125 -1.03184 0
M  V30 9732 C 915.907 2.20662 -0.619766 0
M  V30 9733 C 916.907 1.57621 0.318179 0
M  V30 9734 O 918.097 1.73885 0.104783 0
M  V30 9735 C 915.229 3.40774 0.0926696 0
M  V30 9736 H 916.422 2.58633 -1.5182 0
M  V30 9737 H 913.975 1.32855 -0.823364 0
M  V30 9738 H 914.71 3.08324 1.00531 0
M  V30 9739 H 914.495 3.87766 -0.581344 0
M  V30 9740 H 915.985 4.15977 0.367792 0
M  V30 9741 N 916.422 0.810101 1.35185 0
M  V30 9742 C 917.647 0.40364 2.03434 0
M  V30 9743 C 918.072 -0.97857 1.60641 0
M  V30 9744 O 917.43 -1.63435 0.784779 0
M  V30 9745 C 917.478 0.499154 3.57129 0
M  V30 9746 O 916.582 -0.486039 4.09526 0
M  V30 9747 H 915.923 0.168049 0.642383 0
M  V30 9748 H 918.453 1.09696 1.72708 0
M  V30 9749 H 918.463 0.370236 4.06317 0
M  V30 9750 H 917.138 1.50733 3.87624 0
M  V30 9751 H 915.715 -0.31707 3.7155 0
M  V30 9752 N 917.9 -1.47166 0.563914 0
M  V30 9753 C 919.148 -2.02056 0.0422873 0
M  V30 9754 C 919.469 -1.43992 -1.31497 0
M  V30 9755 O 918.739 -0.617578 -1.85911 0
M  V30 9756 H 917.319 -0.746893 0.0126427 0
M  V30 9757 H 919.981 -1.80492 0.735441 0
M  V30 9758 H 919.077 -3.12073 -0.0408044 0
M  V30 9759 N 919.378 -0.300708 -1.54705 0
M  V30 9760 C 920.794 0.0526874 -1.59513 0
M  V30 9761 C 920.994 1.52444 -1.31769 0
M  V30 9762 O 920.05 2.27716 -1.09096 0
M  V30 9763 C 921.363 -0.344989 -2.98714 0
M  V30 9764 C 922.911 -0.29373 -3.11619 0
M  V30 9765 C 923.386 -0.666225 -4.53129 0
M  V30 9766 N 924.877 -0.618749 -4.59049 0
M  V30 9767 C 925.612 -0.879447 -5.66616 0
M  V30 9768 N 925.108 -1.2061 -6.82221 0
M  V30 9769 N 926.901 -0.806528 -5.56284 0
M  V30 9770 H 919.052 -1.25988 -1.71 0
M  V30 9771 H 921.315 -0.510758 -0.798643 0
M  V30 9772 H 921.021 -1.36953 -3.2394 0
M  V30 9773 H 920.895 0.301507 -3.75993 0
M  V30 9774 H 923.282 0.72156 -2.86142 0
M  V30 9775 H 923.363 -0.974844 -2.36496 0
M  V30 9776 H 923.007 -1.67932 -4.79334 0
M  V30 9777 H 922.937 0.0369575 -5.26587 0
M  V30 9778 H 925.428 -0.377202 -3.76013 0
M  V30 9779 H 925.741 -1.391 -7.60178 0
M  V30 9780 H 924.086 -1.24413 -6.83774 0
M  V30 9781 H 927.277 -0.550993 -4.64846 0
M  V30 9782 H 927.45 -1.01307 -6.40032 0
M  V30 9783 N 920.856 1.57574 -0.0284266 0
M  V30 9784 C 921.766 2.13637 0.96936 0
M  V30 9785 C 922.782 1.08845 1.35752 0
M  V30 9786 O 923.958 1.40899 1.43908 0
M  V30 9787 C 921.023 2.65179 2.2334 0
M  V30 9788 C 920.084 3.84683 1.90572 0
M  V30 9789 C 919.317 4.33758 3.1095 0
M  V30 9790 O 919.54 3.82009 4.23586 0
M  V30 9791 O 918.474 5.2561 2.93288 0
M  V30 9792 H 922.3 2.99169 0.52267 0
M  V30 9793 H 919.885 1.48159 0.192135 0
M  V30 9794 H 921.767 2.98402 2.97547 0
M  V30 9795 H 920.442 1.82731 2.67191 0
M  V30 9796 H 919.349 3.56386 1.13753 0
M  V30 9797 H 920.682 4.68292 1.51538 0
M  V30 9798 N 922.334 -0.244713 1.55689 0
M  V30 9799 C 923.264 -1.30667 1.93516 0
M  V30 9800 C 924.245 -1.50094 0.800371 0
M  V30 9801 O 925.43 -1.62665 1.06083 0
M  V30 9802 C 922.56 -2.66101 2.23176 0
M  V30 9803 C 921.514 -2.61366 3.38927 0
M  V30 9804 C 920.84 -4.00616 3.54134 0
M  V30 9805 C 922.14 -2.18161 4.74555 0
M  V30 9806 H 923.834 -0.992546 2.82469 0
M  V30 9807 H 921.38 -0.476018 1.35905 0
M  V30 9808 H 923.333 -3.4053 2.48228 0
M  V30 9809 H 922.057 -2.99154 1.31051 0
M  V30 9810 H 920.716 -1.89395 3.13887 0
M  V30 9811 H 920.364 -4.30938 2.59426 0
M  V30 9812 H 920.064 -3.98335 4.31975 0
M  V30 9813 H 921.588 -4.76741 3.8151 0
M  V30 9814 H 923.002 -2.82323 4.98965 0
M  V30 9815 H 921.399 -2.26988 5.55515 0
M  V30 9816 H 922.469 -1.13333 4.7147 0
M  V30 9817 N 923.813 -1.49104 -0.510467 0
M  V30 9818 C 925.038 -1.62068 -1.29417 0
M  V30 9819 C 925.463 -0.288432 -1.85875 0
M  V30 9820 O 924.821 0.742667 -1.65391 0
M  V30 9821 C 924.869 -2.68506 -2.40701 0
M  V30 9822 O 923.973 -2.27021 -3.4429 0
M  V30 9823 H 923.314 -0.542778 -0.382476 0
M  V30 9824 H 925.844 -1.95228 -0.612154 0
M  V30 9825 H 925.854 -2.90383 -2.86604 0
M  V30 9826 H 924.529 -3.65216 -1.98973 0
M  V30 9827 H 923.106 -2.15436 -3.04371 0
M  V30 9828 N 925.291 0.760815 -1.38019 0
M  V30 9829 C 926.521 1.54776 -1.3685 0
M  V30 9830 C 926.929 1.89146 0.0453971 0
M  V30 9831 O 926.272 1.52746 1.0205 0
M  V30 9832 C 926.334 2.87923 -2.15269 0
M  V30 9833 C 925.998 2.76131 -3.64144 0
M  V30 9834 C 926.995 2.46417 -4.57794 0
M  V30 9835 C 924.68 2.9381 -4.07408 0
M  V30 9836 C 926.674 2.34525 -5.92686 0
M  V30 9837 C 924.361 2.81539 -5.42383 0
M  V30 9838 C 925.359 2.51938 -6.34836 0
M  V30 9839 O 925.047 2.39713 -7.67329 0
M  V30 9840 H 924.779 0.485776 -0.470104 0
M  V30 9841 H 927.333 0.949939 -1.82113 0
M  V30 9842 H 925.563 3.49867 -1.64712 0
M  V30 9843 H 927.252 3.49389 -2.06596 0
M  V30 9844 H 928.018 2.32433 -4.25676 0
M  V30 9845 H 923.897 3.15849 -3.35799 0
M  V30 9846 H 927.441 2.11342 -6.64816 0
M  V30 9847 H 923.338 2.95093 -5.741 0
M  V30 9848 H 924.106 2.5498 -7.77771 0
M  V30 9849 N 926.769 1.22769 0.988202 0
M  V30 9850 C 928.015 1.05665 1.73097 0
M  V30 9851 C 928.348 -0.406615 1.89895 0
M  V30 9852 O 927.623 -1.30132 1.44554 0
M  V30 9853 C 927.906 1.77381 3.13382 0
M  V30 9854 C 927.759 3.31332 3.04203 0
M  V30 9855 C 929.078 1.52999 4.12649 0
M  V30 9856 H 926.197 0.385258 0.628288 0
M  V30 9857 H 928.839 1.51171 1.15097 0
M  V30 9858 H 926.989 1.38696 3.62899 0
M  V30 9859 H 928.661 3.79489 2.6227 0
M  V30 9860 H 926.904 3.60767 2.40894 0
M  V30 9861 H 927.575 3.76692 4.03493 0
M  V30 9862 H 930.051 1.86611 3.71908 0
M  V30 9863 H 928.927 2.05666 5.08913 0
M  V30 9864 H 929.188 0.463615 4.39662 0
M  V30 9865 N 928.247 -1.18576 1.03814 0
M  V30 9866 C 929.177 -2.24334 0.647795 0
M  V30 9867 C 930.158 -1.66508 -0.34774 0
M  V30 9868 O 931.343 -1.92852 -0.228401 0
M  V30 9869 C 928.473 -3.47299 0.00734922 0
M  V30 9870 C 927.427 -4.17859 0.926152 0
M  V30 9871 C 926.753 -5.34489 0.150317 0
M  V30 9872 C 928.053 -4.71632 2.24411 0
M  V30 9873 H 929.747 -2.57241 1.53191 0
M  V30 9874 H 927.293 -1.23649 0.738028 0
M  V30 9875 H 929.246 -4.20486 -0.277434 0
M  V30 9876 H 927.97 -3.13619 -0.911626 0
M  V30 9877 H 926.629 -3.46567 1.19528 0
M  V30 9878 H 926.277 -4.97056 -0.770985 0
M  V30 9879 H 925.977 -5.82633 0.762407 0
M  V30 9880 H 927.501 -6.10467 -0.127508 0
M  V30 9881 H 928.915 -5.36526 2.02021 0
M  V30 9882 H 927.312 -5.303 2.80894 0
M  V30 9883 H 928.382 -3.89192 2.89236 0
M  V30 9884 N 929.725 -0.817259 -1.34754 0
M  V30 9885 C 930.655 -0.249769 -2.3216 0
M  V30 9886 C 931.636 0.630663 -1.57977 0
M  V30 9887 O 932.821 0.558719 -1.85989 0
M  V30 9888 C 929.951 0.593825 -3.42186 0
M  V30 9889 C 928.905 -0.188997 -4.27583 0
M  V30 9890 C 928.231 0.776979 -5.29025 0
M  V30 9891 C 929.531 -1.39401 -5.03354 0
M  V30 9892 H 931.225 -1.06359 -2.79872 0
M  V30 9893 H 928.771 -0.512894 -1.34556 0
M  V30 9894 H 930.724 1.00097 -4.09339 0
M  V30 9895 H 929.448 1.44064 -2.93109 0
M  V30 9896 H 928.107 -0.577445 -3.62024 0
M  V30 9897 H 927.755 1.61959 -4.76212 0
M  V30 9898 H 927.455 0.257448 -5.87036 0
M  V30 9899 H 928.979 1.18211 -5.99048 0
M  V30 9900 H 930.393 -1.06117 -5.63393 0
M  V30 9901 H 928.79 -1.84878 -5.70912 0
M  V30 9902 H 929.86 -2.17515 -4.33377 0
M  V30 9903 N 931.203 1.46865 -0.571711 0
M  V30 9904 C 932.166 2.28658 0.157499 0
M  V30 9905 C 933.166 1.37773 0.829172 0
M  V30 9906 O 934.356 1.6026 0.682811 0
M  V30 9907 C 931.488 3.17859 1.23202 0
M  V30 9908 H 932.681 2.94603 -0.561171 0
M  V30 9909 H 930.234 1.52793 -0.329229 0
M  V30 9910 H 930.969 2.56637 1.98262 0
M  V30 9911 H 930.754 3.84762 0.755031 0
M  V30 9912 H 932.244 3.7945 1.74378 0
M  V30 9913 N 932.681 0.308908 1.54543 0
M  V30 9914 C 933.929 -0.297447 1.99899 0
M  V30 9915 C 934.25 -1.53799 1.19878 0
M  V30 9916 O 933.52 -1.93639 0.29678 0
M  V30 9917 H 932.1 -0.112897 0.738419 0
M  V30 9918 H 934.762 0.422067 1.90275 0
M  V30 9919 H 933.858 -0.564016 3.06961 0
M  V30 9920 N 934.159 -1.57557 0.0367827 0
M  V30 9921 C 935.408 -1.91291 -0.639569 0
M  V30 9922 C 935.721 -0.915601 -1.72847 0
M  V30 9923 O 936.927 -1.14447 -2.46199 0
M  V30 9924 C 935.383 -3.39697 -1.18888 0
M  V30 9925 C 934.991 -4.47803 -0.132851 0
M  V30 9926 C 936.735 -3.82487 -1.8413 0
M  V30 9927 C 934.642 -5.87311 -0.694229 0
M  V30 9928 H 933.572 -0.713886 -0.242658 0
M  V30 9929 H 936.223 -1.83209 0.103332 0
M  V30 9930 H 934.605 -3.42736 -1.98363 0
M  V30 9931 H 935.779 -4.56334 0.640009 0
M  V30 9932 H 934.094 -4.14264 0.421264 0
M  V30 9933 H 936.691 -4.84076 -2.27101 0
M  V30 9934 H 937.034 -3.17959 -2.68716 0
M  V30 9935 H 937.567 -3.81903 -1.11332 0
M  V30 9936 H 934.306 -6.55401 0.113667 0
M  V30 9937 H 933.826 -5.82371 -1.4354 0
M  V30 9938 H 935.505 -6.36119 -1.1816 0
M  V30 9939 N 935.637 0.236453 -1.55816 0
M  V30 9940 C 936.884 0.963012 -1.78136 0
M  V30 9941 C 937.212 1.84918 -0.602952 0
M  V30 9942 O 936.467 1.91285 0.413325 0
M  V30 9943 C 936.766 1.84549 -3.06066 0
M  V30 9944 C 936.432 1.11381 -4.36927 0
M  V30 9945 C 935.094 0.911635 -4.72486 0
M  V30 9946 C 937.446 0.596 -5.17781 0
M  V30 9947 C 934.774 0.179515 -5.86425 0
M  V30 9948 C 937.126 -0.122702 -6.32481 0
M  V30 9949 C 935.79 -0.336263 -6.66652 0
M  V30 9950 H 935.06 0.352391 -0.651845 0
M  V30 9951 H 937.707 0.232295 -1.90086 0
M  V30 9952 H 936.012 2.6436 -2.89173 0
M  V30 9953 H 937.709 2.40953 -3.20535 0
M  V30 9954 H 934.299 1.28134 -4.08998 0
M  V30 9955 H 938.483 0.73971 -4.90757 0
M  V30 9956 H 933.739 0.00368224 -6.114 0
M  V30 9957 H 937.913 -0.531516 -6.94369 0
M  V30 9958 H 935.54 -0.905507 -7.54788 0
M  V30 9959 N 937.115 1.49373 0.502552 0
M  V30 9960 C 938.045 1.68839 1.61294 0
M  V30 9961 C 939.026 0.537096 1.61398 0
M  V30 9962 O 940.211 0.772764 1.78163 0
M  V30 9963 C 937.341 1.75347 2.99784 0
M  V30 9964 C 936.295 2.90251 3.14545 0
M  V30 9965 C 935.621 2.8187 4.54371 0
M  V30 9966 C 936.921 4.31207 2.94717 0
M  V30 9967 H 938.615 2.61803 1.45257 0
M  V30 9968 H 936.161 1.25987 0.697371 0
M  V30 9969 H 938.114 1.87552 3.77362 0
M  V30 9970 H 936.838 0.789814 3.16906 0
M  V30 9971 H 935.497 2.77646 2.39392 0
M  V30 9972 H 935.145 1.83416 4.68367 0
M  V30 9973 H 934.845 3.5899 4.65188 0
M  V30 9974 H 936.369 2.96081 5.34012 0
M  V30 9975 H 937.783 4.44501 3.62065 0
M  V30 9976 H 936.18 5.09536 3.17007 0
M  V30 9977 H 937.25 4.45759 1.90857 0
M  V30 9978 N 938.594 -0.753485 1.38421 0
M  V30 9979 C 939.834 -1.52544 1.3605 0
M  V30 9980 C 940.198 -1.91937 -0.0493257 0
M  V30 9981 O 941.399 -2.6807 -0.197908 0
M  V30 9982 C 939.67 -2.74432 2.28958 0
M  V30 9983 S 941.229 -3.64297 2.44607 0
M  V30 9984 H 938.047 -0.522017 0.48272 0
M  V30 9985 H 940.649 -0.884503 1.74347 0
M  V30 9986 H 939.353 -2.43602 3.30282 0
M  V30 9987 H 938.884 -3.43471 1.91811 0
M  V30 9988 H 940.899 -4.67245 1.67022 0
M  V30 9989 N 940.072 -1.23292 -0.981677 0
M  V30 9990 C 941.302 -1.0893 -1.7555 0
M  V30 9991 C 941.71 0.362219 -1.857 0
M  V30 9992 O 941.053 1.2624 -1.33451 0
M  V30 9993 C 941.115 -1.6389 -3.19969 0
M  V30 9994 C 940.779 -3.12632 -3.33332 0
M  V30 9995 C 941.776 -4.0994 -3.19758 0
M  V30 9996 C 939.461 -3.52314 -3.58022 0
M  V30 9997 C 941.455 -5.44915 -3.30676 0
M  V30 9998 C 939.142 -4.87434 -3.6858 0
M  V30 9999 C 940.14 -5.83544 -3.54916 0
M  V30 10000 O 939.828 -7.16209 -3.65102 0
M  V30 10001 H 939.56 -0.381901 -0.557788 0
M  V30 10002 H 942.114 -1.63586 -1.24213 0
M  V30 10003 H 940.344 -1.03653 -3.72549 0
M  V30 10004 H 942.033 -1.45023 -3.79108 0
M  V30 10005 H 942.799 -3.80625 -3.00582 0
M  V30 10006 H 938.678 -2.78022 -3.67729 0
M  V30 10007 H 942.222 -6.19913 -3.19928 0
M  V30 10008 H 938.119 -5.16426 -3.87265 0
M  V30 10009 H 938.887 -7.23941 -3.81905 0
M  V30 10010 N 941.55 1.18024 -1.04442 0
M  V30 10011 C 942.513 2.19992 -0.643136 0
M  V30 10012 C 943.513 1.57949 0.301444 0
M  V30 10013 O 944.703 1.73986 0.0863341 0
M  V30 10014 C 941.835 3.40853 0.0565208 0
M  V30 10015 H 943.028 2.57008 -1.54554 0
M  V30 10016 H 940.581 1.31974 -0.837408 0
M  V30 10017 H 941.316 3.09373 0.972553 0
M  V30 10018 H 941.101 3.87128 -0.622439 0
M  V30 10019 H 942.591 4.16344 0.323652 0
M  V30 10020 N 943.028 0.824394 1.34319 0
M  V30 10021 C 944.256 0.426194 2.02463 0
M  V30 10022 C 944.671 -0.968298 1.62078 0
M  V30 10023 O 944.028 -1.62689 0.82696 0
M  V30 10024 C 944.079 0.520465 3.57734 0
M  V30 10025 O 943.8 1.86 3.96656 0
M  V30 10026 C 945.301 0.117353 4.43145 0
M  V30 10027 H 942.521 0.170864 0.648881 0
M  V30 10028 H 945.065 1.11296 1.71562 0
M  V30 10029 H 943.22 -0.118233 3.8722 0
M  V30 10030 H 943.634 1.83528 4.91343 0
M  V30 10031 H 945.108 0.234395 5.51502 0
M  V30 10032 H 945.585 -0.939271 4.29039 0
M  V30 10033 H 946.191 0.729908 4.1899 0
M  V30 10034 N 944.506 -1.46559 0.579492 0
M  V30 10035 C 945.734 -2.06784 0.0693648 0
M  V30 10036 C 946.149 -1.42875 -1.23419 0
M  V30 10037 O 945.506 -0.532919 -1.74546 0
M  V30 10038 C 945.557 -3.61343 -0.106511 0
M  V30 10039 O 945.278 -4.22861 1.14545 0
M  V30 10040 C 946.779 -4.38489 -0.651359 0
M  V30 10041 H 943.999 -0.66866 0.0559848 0
M  V30 10042 H 946.543 -1.88235 0.799245 0
M  V30 10043 H 944.698 -3.7933 -0.786601 0
M  V30 10044 H 945.112 -5.15691 0.95723 0
M  V30 10045 H 946.586 -5.47237 -0.723615 0
M  V30 10046 H 947.063 -4.06309 -1.66763 0
M  V30 10047 H 947.669 -4.253 -0.0062433 0
M  V30 10048 N 945.984 -0.3171 -1.54377 0
M  V30 10049 C 947.231 0.28741 -2.0045 0
M  V30 10050 C 947.559 1.52648 -1.20535 0
M  V30 10051 O 946.814 1.93775 -0.273831 0
M  V30 10052 C 947.113 0.672917 -3.51008 0
M  V30 10053 C 946.779 -0.466245 -4.48483 0
M  V30 10054 C 945.441 -0.778933 -4.74854 0
M  V30 10055 C 947.793 -1.23176 -5.06436 0
M  V30 10056 C 945.121 -1.85997 -5.56437 0
M  V30 10057 C 947.473 -2.30284 -5.89196 0
M  V30 10058 C 946.137 -2.62141 -6.13872 0
M  V30 10059 H 945.407 0.105171 -0.733499 0
M  V30 10060 H 948.054 -0.439538 -1.86388 0
M  V30 10061 H 946.359 1.48019 -3.62764 0
M  V30 10062 H 948.056 1.15209 -3.84094 0
M  V30 10063 H 944.646 -0.212449 -4.28073 0
M  V30 10064 H 948.83 -1.00344 -4.8605 0
M  V30 10065 H 944.086 -2.11134 -5.73788 0
M  V30 10066 H 948.26 -2.90048 -6.33123 0
M  V30 10067 H 945.887 -3.46037 -6.76877 0
M  V30 10068 N 947.462 1.57535 -0.0451378 0
M  V30 10069 C 948.392 2.14208 0.929372 0
M  V30 10070 C 949.373 1.06221 1.32858 0
M  V30 10071 O 950.558 1.34132 1.40436 0
M  V30 10072 C 947.688 2.68217 2.20629 0
M  V30 10073 C 946.642 3.81134 1.94734 0
M  V30 10074 C 945.968 4.21636 3.28828 0
M  V30 10075 C 947.268 5.06531 1.27374 0
M  V30 10076 H 948.962 2.95886 0.457348 0
M  V30 10077 H 946.508 1.42332 0.218544 0
M  V30 10078 H 948.461 3.06502 2.89196 0
M  V30 10079 H 947.185 1.83722 2.70026 0
M  V30 10080 H 945.844 3.43312 1.28579 0
M  V30 10081 H 945.492 3.34099 3.76014 0
M  V30 10082 H 945.192 4.97736 3.12302 0
M  V30 10083 H 946.716 4.62516 3.98637 0
M  V30 10084 H 948.13 5.423 1.85967 0
M  V30 10085 H 946.527 5.87735 1.21194 0
M  V30 10086 H 947.597 4.84261 0.248913 0
M  V30 10087 N 948.94 -0.228186 1.55939 0
M  V30 10088 C 949.873 -1.30971 1.86874 0
M  V30 10089 C 950.851 -1.45517 0.725496 0
M  V30 10090 O 952.035 -1.61436 0.973181 0
M  V30 10091 C 949.162 -2.68089 2.06992 0
M  V30 10092 C 948.208 -2.70594 3.29669 0
M  V30 10093 S 949.041 -2.25325 4.85787 0
M  V30 10094 C 950.197 -3.64331 5.08934 0
M  V30 10095 H 950.43 -1.04536 2.78315 0
M  V30 10096 H 947.963 -0.430103 1.48288 0
M  V30 10097 H 949.921 -3.47033 2.19267 0
M  V30 10098 H 948.582 -2.91752 1.16359 0
M  V30 10099 H 947.775 -3.71338 3.4077 0
M  V30 10100 H 947.377 -1.99708 3.16216 0
M  V30 10101 H 949.669 -4.59972 4.97425 0
M  V30 10102 H 950.612 -3.58151 6.10847 0
M  V30 10103 H 951.02 -3.57711 4.36695 0
M  V30 10104 N 950.418 -1.49637 -0.494624 0
M  V30 10105 C 951.667 -1.58691 -1.24499 0
M  V30 10106 C 951.98 -0.281763 -1.9356 0
M  V30 10107 O 953.186 -0.250925 -2.70338 0
M  V30 10108 C 951.642 -2.8002 -2.26091 0
M  V30 10109 C 951.25 -4.17318 -1.6294 0
M  V30 10110 C 952.994 -2.98407 -3.01916 0
M  V30 10111 C 950.901 -5.29862 -2.62679 0
M  V30 10112 H 949.831 -0.590888 -0.468367 0
M  V30 10113 H 952.482 -1.76034 -0.518112 0
M  V30 10114 H 950.864 -2.56185 -3.01969 0
M  V30 10115 H 952.038 -4.51315 -0.930108 0
M  V30 10116 H 950.353 -4.04342 -0.994819 0
M  V30 10117 H 952.95 -3.79658 -3.76516 0
M  V30 10118 H 953.293 -2.09214 -3.5991 0
M  V30 10119 H 953.826 -3.22312 -2.33152 0
M  V30 10120 H 950.565 -6.21134 -2.09458 0
M  V30 10121 H 950.085 -5.00311 -3.3083 0
M  V30 10122 H 951.764 -5.59461 -3.2498 0
M  V30 10123 N 951.896 0.746133 -1.38819 0
M  V30 10124 C 952.859 1.84167 -1.36437 0
M  V30 10125 C 953.859 1.58626 -0.263499 0
M  V30 10126 O 955.049 1.66233 -0.520801 0
M  V30 10127 C 952.181 3.21769 -1.12596 0
M  V30 10128 H 953.374 1.87684 -2.33912 0
M  V30 10129 H 950.927 0.948625 -1.24221 0
M  V30 10130 H 951.662 3.23917 -0.15758 0
M  V30 10131 H 951.447 3.41702 -1.92307 0
M  V30 10132 H 952.937 4.0184 -1.13643 0
M  V30 10133 N 953.375 1.23811 0.975125 0
M  V30 10134 C 954.285 1.0408 2.10249 0
M  V30 10135 C 955.301 -0.0162404 1.73992 0
M  V30 10136 O 956.477 0.180346 2.00591 0
M  V30 10137 C 953.542 0.640013 3.40741 0
M  V30 10138 C 952.603 1.7727 3.90991 0
M  V30 10139 C 951.836 1.39094 5.15256 0
M  V30 10140 O 952.059 0.277483 5.69725 0
M  V30 10141 O 950.993 2.21392 5.59704 0
M  V30 10142 H 954.819 1.98575 2.29786 0
M  V30 10143 H 952.404 1.02563 1.08633 0
M  V30 10144 H 954.286 0.427684 4.19224 0
M  V30 10145 H 952.961 -0.27589 3.22522 0
M  V30 10146 H 951.868 2.03971 3.13602 0
M  V30 10147 H 953.201 2.66711 4.13674 0
M  V30 10148 N 954.853 -1.17469 1.05066 0
M  V30 10149 C 956.264 -1.69334 0.786304 0
M  V30 10150 C 956.615 -1.83604 -0.691671 0
M  V30 10151 O 955.74 -1.52269 -1.53763 0
M  V30 10152 C 956.335 -3.07572 1.42074 0
M  V30 10153 C 954.894 -3.56609 1.20446 0
M  V30 10154 C 954.041 -2.329 1.50508 0
M  V30 10155 H 956.992 -1.02003 1.21577 0
M  V30 10156 H 957.013 -3.71352 0.829334 0
M  V30 10157 H 956.525 -2.97154 2.49642 0
M  V30 10158 H 954.626 -3.72306 0.147968 0
M  V30 10159 H 954.739 -4.39446 1.90852 0
M  V30 10160 H 953.103 -2.37305 0.925124 0
M  V30 10161 H 953.886 -2.25093 2.59207 0
M  V30 10162 N 956.331 -0.831506 -1.3388 0
M  V30 10163 C 957.608 -0.345907 -1.92517 0
M  V30 10164 C 957.988 1.16784 -1.75854 0
M  V30 10165 O 957.336 1.97889 -1.14245 0
M  V30 10166 C 957.546 -0.784692 -3.40064 0
M  V30 10167 C 958.894 -0.78846 -4.17215 0
M  V30 10168 O 959.918 -0.727823 -3.48685 0
M  V30 10169 O 958.777 -0.869481 -5.39539 0
M  V30 10170 H 955.871 -0.0963568 -0.821367 0
M  V30 10171 H 958.417 -0.916868 -1.42799 0
M  V30 10172 H 957.189 -1.82697 -3.46031 0
M  V30 10173 H 956.812 -0.189897 -3.97146 0
M  V30 10174 N 957.809 1.4625 -0.587256 0
M  V30 10175 C 958.739 2.33132 0.131076 0
M  V30 10176 C 959.72 1.45619 0.879158 0
M  V30 10177 O 960.905 1.74428 0.853723 0
M  V30 10178 C 958.035 3.27975 1.14236 0
M  V30 10179 C 956.989 4.24965 0.508819 0
M  V30 10180 C 956.315 5.09349 1.62689 0
M  V30 10181 C 957.615 5.19322 -0.55694 0
M  V30 10182 H 959.309 2.93442 -0.594333 0
M  V30 10183 H 956.855 1.41106 -0.287263 0
M  V30 10184 H 958.808 3.87614 1.65328 0
M  V30 10185 H 957.532 2.65781 1.8981 0
M  V30 10186 H 956.191 3.66595 0.0189337 0
M  V30 10187 H 955.839 4.43537 2.37242 0
M  V30 10188 H 955.539 5.75036 1.20861 0
M  V30 10189 H 957.063 5.71852 2.14049 0
M  V30 10190 H 958.477 5.73151 -0.130903 0
M  V30 10191 H 956.874 5.93376 -0.895801 0
M  V30 10192 H 957.944 4.62979 -1.44148 0
M  V30 10193 N 959.287 0.325282 1.54207 0
M  V30 10194 C 960.535 -0.276229 2.00203 0
M  V30 10195 C 960.856 -1.52519 1.21503 0
M  V30 10196 O 960.126 -1.93313 0.317302 0
M  V30 10197 H 958.706 -0.105059 0.739575 0
M  V30 10198 H 961.368 0.442225 1.89817 0
M  V30 10199 H 960.464 -0.531427 3.07542 0
M  V30 10200 N 960.765 -1.57509 0.0534917 0
M  V30 10201 C 961.993 -1.97098 -0.629298 0
M  V30 10202 C 962.408 -0.931128 -1.64242 0
M  V30 10203 O 961.765 0.0843866 -1.82305 0
M  V30 10204 C 961.816 -3.36767 -1.31415 0
M  V30 10205 O 961.537 -4.36766 -0.341599 0
M  V30 10206 C 963.038 -3.91127 -2.08649 0
M  V30 10207 H 960.258 -0.648611 -0.171886 0
M  V30 10208 H 962.802 -2.04145 0.120479 0
M  V30 10209 H 960.957 -3.30863 -2.01515 0
M  V30 10210 H 961.371 -5.1788 -0.830715 0
M  V30 10211 H 962.845 -4.91129 -2.51985 0
M  V30 10212 H 963.322 -3.26679 -2.9356 0
M  V30 10213 H 963.928 -4.00376 -1.43456 0
M  V30 10214 N 962.243 0.219913 -1.56058 0
M  V30 10215 C 963.483 0.951113 -1.80923 0
M  V30 10216 C 963.847 1.81465 -0.627247 0
M  V30 10217 O 965.048 2.57972 -0.755237 0
M  V30 10218 C 963.319 1.76652 -3.10691 0
M  V30 10219 S 964.878 2.55314 -3.56876 0
M  V30 10220 H 961.696 0.319461 -0.635189 0
M  V30 10221 H 964.298 0.216551 -1.94297 0
M  V30 10222 H 963.002 1.12231 -3.94756 0
M  V30 10223 H 962.533 2.54335 -3.00128 0
M  V30 10224 H 964.548 3.78938 -3.20344 0
M  V30 10225 N 963.721 1.49897 0.486681 0
M  V30 10226 C 964.946 1.64106 1.26823 0
M  V30 10227 C 965.371 0.317967 1.85393 0
M  V30 10228 O 964.729 -0.71626 1.66551 0
M  V30 10229 C 964.777 2.72301 2.36399 0
M  V30 10230 O 963.881 2.32469 3.40634 0
M  V30 10231 H 963.222 0.548794 0.373793 0
M  V30 10232 H 965.752 1.96177 0.581017 0
M  V30 10233 H 965.762 2.94906 2.81948 0
M  V30 10234 H 964.437 3.68335 1.93137 0
M  V30 10235 H 963.014 2.20251 3.00905 0
M  V30 10236 N 965.199 -0.738761 1.39212 0
M  V30 10237 C 966.129 -1.86602 1.40364 0
M  V30 10238 C 967.11 -1.67984 0.267495 0
M  V30 10239 O 968.295 -1.88358 0.472765 0
M  V30 10240 C 965.425 -3.24308 1.24265 0
M  V30 10241 C 964.379 -3.57557 2.35239 0
M  V30 10242 C 963.705 -4.94159 2.04233 0
M  V30 10243 C 965.005 -3.60914 3.77543 0
M  V30 10244 H 966.699 -1.85896 2.34698 0
M  V30 10245 H 964.245 -0.892959 1.1297 0
M  V30 10246 H 966.198 -4.02838 1.23692 0
M  V30 10247 H 964.922 -3.25531 0.263974 0
M  V30 10248 H 963.581 -2.81354 2.35022 0
M  V30 10249 H 963.229 -4.91959 1.04813 0
M  V30 10250 H 962.929 -5.17373 2.78567 0
M  V30 10251 H 964.453 -5.7505 2.05303 0
M  V30 10252 H 965.867 -4.29528 3.79709 0
M  V30 10253 H 964.264 -3.95644 4.51205 0
M  V30 10254 H 965.334 -2.60803 4.08791 0
M  V30 10255 N 966.677 -1.24326 -0.968545 0
M  V30 10256 C 968.093 -1.00847 -1.23701 0
M  V30 10257 C 968.293 0.283235 -1.99499 0
M  V30 10258 O 967.349 0.999607 -2.31871 0
M  V30 10259 C 968.662 -2.22295 -2.02498 0
M  V30 10260 C 970.21 -2.26911 -2.15593 0
M  V30 10261 C 970.685 -3.47978 -2.97784 0
M  V30 10262 N 972.176 -3.48289 -3.05367 0
M  V30 10263 C 972.911 -4.38625 -3.69318 0
M  V30 10264 N 972.407 -5.39213 -4.34995 0
M  V30 10265 N 974.2 -4.26339 -3.66322 0
M  V30 10266 H 966.351 -2.07335 -0.461087 0
M  V30 10267 H 968.614 -0.909805 -0.26638 0
M  V30 10268 H 968.32 -3.161 -1.54188 0
M  V30 10269 H 968.194 -2.24344 -3.03232 0
M  V30 10270 H 970.581 -1.33639 -2.63106 0
M  V30 10271 H 970.662 -2.28888 -1.14209 0
M  V30 10272 H 970.306 -4.41564 -2.50965 0
M  V30 10273 H 970.236 -3.43244 -3.99364 0
M  V30 10274 H 972.727 -2.75517 -2.58648 0
M  V30 10275 H 973.04 -6.04378 -4.81608 0
M  V30 10276 H 971.385 -5.43101 -4.33667 0
M  V30 10277 H 974.576 -3.46991 -3.14189 0
M  V30 10278 H 974.749 -4.9694 -4.15878 0
M  V30 10279 N 968.156 1.1691 -1.05688 0
M  V30 10280 C 969.572 1.39288 -0.779167 0
M  V30 10281 C 969.772 1.91587 0.624231 0
M  V30 10282 O 968.828 2.11072 1.38582 0
M  V30 10283 C 970.141 2.37914 -1.83895 0
M  V30 10284 C 971.689 2.51611 -1.86175 0
M  V30 10285 C 972.164 3.53514 -2.9119 0
M  V30 10286 N 973.655 3.61036 -2.90184 0
M  V30 10287 C 974.39 4.39657 -3.68088 0
M  V30 10288 N 973.886 5.21752 -4.55793 0
M  V30 10289 N 975.679 4.3458 -3.56507 0
M  V30 10290 H 967.83 0.81296 -1.96226 0
M  V30 10291 H 970.093 0.419818 -0.849975 0
M  V30 10292 H 969.799 2.06568 -2.84645 0
M  V30 10293 H 969.673 3.37483 -1.68479 0
M  V30 10294 H 972.06 2.82264 -0.86087 0
M  V30 10295 H 972.141 1.52099 -2.05668 0
M  V30 10296 H 971.785 3.23599 -3.91467 0
M  V30 10297 H 971.715 4.52742 -2.68947 0
M  V30 10298 H 974.206 3.02428 -2.26596 0
M  V30 10299 H 974.519 5.78939 -5.11907 0
M  V30 10300 H 972.864 5.21116 -4.59851 0
M  V30 10301 H 976.055 3.69501 -2.87379 0
M  V30 10302 H 976.228 4.95607 -4.17466 0
M  V30 10303 N 969.634 0.838594 1.33437 0
M  V30 10304 C 970.883 0.430484 1.97053 0
M  V30 10305 C 971.196 -1.01556 1.6717 0
M  V30 10306 O 972.402 -1.52834 2.24397 0
M  V30 10307 C 970.858 0.718828 3.52648 0
M  V30 10308 C 970.466 2.17953 3.91408 0
M  V30 10309 C 972.21 0.377654 4.22817 0
M  V30 10310 C 970.117 2.41194 5.39981 0
M  V30 10311 H 969.047 0.157239 0.737422 0
M  V30 10312 H 971.698 1.02714 1.5206 0
M  V30 10313 H 970.08 0.0518042 3.95966 0
M  V30 10314 H 971.254 2.88701 3.59149 0
M  V30 10315 H 969.569 2.48366 3.34221 0
M  V30 10316 H 972.166 0.528926 5.32077 0
M  V30 10317 H 972.509 -0.679338 4.1072 0
M  V30 10318 H 973.042 0.999899 3.85028 0
M  V30 10319 H 969.781 3.45457 5.57081 0
M  V30 10320 H 969.301 1.75007 5.73701 0
M  V30 10321 H 970.98 2.24334 6.06863 0
M  V30 10322 N 971.112 -1.45937 0.595003 0
M  V30 10323 C 972.359 -2.0232 0.0853053 0
M  V30 10324 C 972.687 -1.465 -1.27937 0
M  V30 10325 O 971.942 -0.624767 -1.85459 0
M  V30 10326 C 972.241 -3.57396 -0.0173747 0
M  V30 10327 C 971.907 -4.32311 1.28131 0
M  V30 10328 C 970.569 -4.52496 1.63708 0
M  V30 10329 C 972.921 -4.75233 2.14017 0
M  V30 10330 C 970.249 -5.12857 2.84947 0
M  V30 10331 C 972.601 -5.36933 3.34493 0
M  V30 10332 C 971.265 -5.55343 3.70338 0
M  V30 10333 H 970.535 -0.740342 0.0312154 0
M  V30 10334 H 973.182 -1.75157 0.774103 0
M  V30 10335 H 971.487 -3.83766 -0.789371 0
M  V30 10336 H 973.184 -3.98713 -0.427699 0
M  V30 10337 H 969.774 -4.16905 0.994374 0
M  V30 10338 H 973.958 -4.59383 1.87833 0
M  V30 10339 H 969.214 -5.253 3.12841 0
M  V30 10340 H 973.388 -5.69147 4.01304 0
M  V30 10341 H 971.015 -6.01883 4.64371 0
M  V30 10342 N 972.59 -0.333456 -1.54032 0
M  V30 10343 C 973.52 0.52051 -2.27625 0
M  V30 10344 C 974.501 1.1111 -1.28797 0
M  V30 10345 O 975.686 1.13438 -1.57625 0
M  V30 10346 C 972.816 1.67663 -3.04149 0
M  V30 10347 C 971.77 1.21487 -4.10396 0
M  V30 10348 C 971.096 2.45872 -4.74817 0
M  V30 10349 C 972.396 0.322603 -5.21303 0
M  V30 10350 H 974.09 -0.0933823 -2.99254 0
M  V30 10351 H 971.636 -0.0463526 -1.43925 0
M  V30 10352 H 973.589 2.28041 -3.54366 0
M  V30 10353 H 972.313 2.31727 -2.30153 0
M  V30 10354 H 970.972 0.633966 -3.61077 0
M  V30 10355 H 970.62 3.0832 -3.97426 0
M  V30 10356 H 970.32 2.15662 -5.46593 0
M  V30 10357 H 971.844 3.06994 -5.27814 0
M  V30 10358 H 973.258 0.832942 -5.67217 0
M  V30 10359 H 971.655 0.112843 -5.99994 0
M  V30 10360 H 972.725 -0.643954 -4.80605 0
M  V30 10361 N 974.068 1.57479 -0.061844 0
M  V30 10362 C 975.316 1.92727 0.608336 0
M  V30 10363 C 975.637 0.941799 1.70749 0
M  V30 10364 O 974.907 -0.0116608 1.95897 0
M  V30 10365 H 973.487 0.71145 0.2277 0
M  V30 10366 H 976.149 1.94546 -0.117359 0
M  V30 10367 H 975.245 2.9426 1.04007 0
M  V30 10368 N 975.546 -0.211634 1.56173 0
M  V30 10369 C 976.476 -1.26533 1.96244 0
M  V30 10370 C 977.457 -1.48362 0.832028 0
M  V30 10371 O 978.642 -1.60378 1.0951 0
M  V30 10372 C 975.772 -2.61307 2.2877 0
M  V30 10373 C 974.726 -2.54119 3.44395 0
M  V30 10374 C 974.052 -3.93014 3.62552 0
M  V30 10375 C 975.352 -2.08046 4.79076 0
M  V30 10376 H 977.046 -0.932407 2.84511 0
M  V30 10377 H 974.592 -0.447084 1.36884 0
M  V30 10378 H 976.545 -3.35188 2.55396 0
M  V30 10379 H 975.269 -2.96307 1.37367 0
M  V30 10380 H 973.928 -1.82694 3.17834 0
M  V30 10381 H 973.576 -4.25338 2.68508 0
M  V30 10382 H 973.276 -3.89083 4.40327 0
M  V30 10383 H 974.8 -4.68542 3.91537 0
M  V30 10384 H 976.214 -2.71676 5.04842 0
M  V30 10385 H 974.611 -2.15154 5.60204 0
M  V30 10386 H 975.681 -1.03306 4.73768 0
M  V30 10387 N 977.024 -1.50153 -0.478725 0
M  V30 10388 C 978.272 -1.60443 -1.22892 0
M  V30 10389 C 978.593 -0.303276 -1.92627 0
M  V30 10390 O 977.863 0.678798 -1.83764 0
M  V30 10391 H 976.443 -0.591205 -0.456602 0
M  V30 10392 H 979.105 -1.86893 -0.552905 0
M  V30 10393 H 978.201 -2.41175 -1.98094 0
M  V30 10394 N 978.502 0.731368 -1.39602 0
M  V30 10395 C 979.435 1.85433 -1.33004 0
M  V30 10396 C 980.413 1.61327 -0.20307 0
M  V30 10397 O 981.597 1.84545 -0.384124 0
M  V30 10398 C 978.724 3.21483 -1.06613 0
M  V30 10399 C 977.77 3.64443 -2.21549 0
M  V30 10400 S 978.603 3.73387 -3.83852 0
M  V30 10401 C 979.759 5.12222 -3.59694 0
M  V30 10402 H 979.992 1.90747 -2.28041 0
M  V30 10403 H 977.525 0.89659 -1.25701 0
M  V30 10404 H 979.483 4.00041 -0.920719 0
M  V30 10405 H 978.144 3.1382 -0.132563 0
M  V30 10406 H 977.337 4.63185 -1.98686 0
M  V30 10407 H 976.939 2.93099 -2.32312 0
M  V30 10408 H 979.231 5.98666 -3.17184 0
M  V30 10409 H 980.174 5.40115 -4.5791 0
M  V30 10410 H 980.582 4.8207 -2.93716 0
M  V30 10411 N 979.98 1.24838 0.961938 0
M  V30 10412 C 981.205 1.11967 1.7458 0
M  V30 10413 C 981.63 -0.323287 1.85301 0
M  V30 10414 O 980.988 -1.23412 1.32812 0
M  V30 10415 C 981.036 1.77066 3.14134 0
M  V30 10416 O 980.14 1.04534 3.98932 0
M  V30 10417 H 979.481 0.391338 0.536424 0
M  V30 10418 H 982.011 1.65259 1.20626 0
M  V30 10419 H 982.021 1.83056 3.64629 0
M  V30 10420 H 980.696 2.82052 3.05646 0
M  V30 10421 H 979.273 1.06372 3.57407 0
M  V30 10422 N 981.458 -1.16348 1.06306 0
M  V30 10423 C 982.707 -1.8622 0.774909 0
M  V30 10424 C 983.02 -1.82598 -0.701245 0
M  V30 10425 O 984.226 -2.48051 -1.10377 0
M  V30 10426 C 982.682 -3.34182 1.33604 0
M  V30 10427 C 982.29 -3.46279 2.84245 0
M  V30 10428 C 984.034 -4.09309 1.12544 0
M  V30 10429 C 981.941 -4.88327 3.33602 0
M  V30 10430 H 980.871 -0.697574 0.286194 0
M  V30 10431 H 983.522 -1.31311 1.28179 0
M  V30 10432 H 981.904 -3.88698 0.756937 0
M  V30 10433 H 983.078 -3.01923 3.48108 0
M  V30 10434 H 981.393 -2.84585 3.03974 0
M  V30 10435 H 983.99 -5.14123 1.46909 0
M  V30 10436 H 984.333 -4.16251 0.0638129 0
M  V30 10437 H 984.866 -3.61032 1.67034 0
M  V30 10438 H 981.605 -4.86565 4.39244 0
M  V30 10439 H 981.125 -5.33307 2.74487 0
M  V30 10440 H 982.804 -5.57144 3.28937 0
M  V30 10441 N 982.937 -0.845659 -1.3299 0
M  V30 10442 C 984.162 -0.457435 -2.02293 0
M  V30 10443 C 984.587 0.935634 -1.63179 0
M  V30 10444 O 983.945 1.61297 -0.827835 0
M  V30 10445 C 983.993 -0.593665 -3.5568 0
M  V30 10446 O 983.097 0.37729 -4.10671 0
M  V30 10447 H 982.438 -0.185022 -0.637701 0
M  V30 10448 H 984.968 -1.14237 -1.69738 0
M  V30 10449 H 984.978 -0.477834 -4.05192 0
M  V30 10450 H 983.653 -1.60957 -3.83491 0
M  V30 10451 H 982.23 0.218448 -3.7226 0
M  V30 10452 N 984.415 1.45619 -0.602734 0
M  V30 10453 C 985.645 2.06348 -0.102105 0
M  V30 10454 C 986.053 1.44884 1.21677 0
M  V30 10455 O 985.396 0.555559 1.75098 0
M  V30 10456 C 985.458 3.59309 0.117026 0
M  V30 10457 C 985.122 4.43081 -1.11931 0
M  V30 10458 C 986.119 4.78364 -2.03627 0
M  V30 10459 C 983.804 4.83908 -1.34677 0
M  V30 10460 C 985.798 5.53325 -3.16403 0
M  V30 10461 C 983.485 5.58624 -2.47754 0
M  V30 10462 C 984.483 5.93249 -3.38445 0
M  V30 10463 O 984.171 6.6645 -4.49555 0
M  V30 10464 H 983.903 0.672988 -0.0637478 0
M  V30 10465 H 986.457 1.87928 -0.828983 0
M  V30 10466 H 984.687 3.76111 0.898742 0
M  V30 10467 H 986.376 4.01897 0.568649 0
M  V30 10468 H 987.142 4.47384 -1.87277 0
M  V30 10469 H 983.021 4.56396 -0.649875 0
M  V30 10470 H 986.565 5.80268 -3.87214 0
M  V30 10471 H 982.462 5.89019 -2.64059 0
M  V30 10472 H 983.23 6.84895 -4.48175 0
M  V30 10473 N 985.893 0.34162 1.53853 0
M  V30 10474 C 986.856 -0.503541 2.236 0
M  V30 10475 C 987.856 -1.02912 1.23554 0
M  V30 10476 O 989.046 -0.918678 1.48007 0
M  V30 10477 C 986.178 -1.70126 2.95415 0
M  V30 10478 H 987.371 0.106437 2.99711 0
M  V30 10479 H 984.924 0.0929408 1.56023 0
M  V30 10480 H 985.659 -2.34999 2.23486 0
M  V30 10481 H 985.444 -1.33161 3.68796 0
M  V30 10482 H 986.934 -2.30077 3.48503 0
M  V30 10483 N 987.371 -1.57444 0.0701946 0
M  V30 10484 C 988.334 -2.11511 -0.882923 0
M  V30 10485 C 989.334 -1.03879 -1.22743 0
M  V30 10486 O 990.524 -1.29874 -1.16097 0
M  V30 10487 C 987.656 -2.61514 -2.18686 0
M  V30 10488 H 988.849 -2.9703 -0.413873 0
M  V30 10489 H 986.402 -1.55278 -0.178488 0
M  V30 10490 H 987.137 -1.79443 -2.70131 0
M  V30 10491 H 986.922 -3.40185 -1.94978 0
M  V30 10492 H 988.412 -3.03425 -2.86919 0
M  V30 10493 N 988.849 0.203349 -1.56283 0
M  V30 10494 C 989.779 1.2549 -1.96912 0
M  V30 10495 C 990.76 1.47919 -0.839884 0
M  V30 10496 O 991.945 1.59795 -1.10359 0
M  V30 10497 C 989.075 2.6009 -2.30153 0
M  V30 10498 C 988.029 2.52289 -3.45738 0
M  V30 10499 C 987.355 3.91086 -3.64632 0
M  V30 10500 C 988.655 2.05503 -4.80173 0
M  V30 10501 H 990.349 0.917306 -2.85002 0
M  V30 10502 H 987.895 0.439818 -1.37119 0
M  V30 10503 H 989.848 3.33829 -2.5717 0
M  V30 10504 H 988.572 2.95574 -1.38937 0
M  V30 10505 H 987.231 1.81006 -3.18798 0
M  V30 10506 H 986.879 4.23908 -2.7076 0
M  V30 10507 H 986.579 3.86742 -4.42385 0
M  V30 10508 H 988.103 4.66459 -3.94016 0
M  V30 10509 H 989.517 2.68995 -5.06275 0
M  V30 10510 H 987.914 2.1218 -5.61337 0
M  V30 10511 H 988.984 1.00793 -4.74309 0
M  V30 10512 N 990.327 1.50405 0.470755 0
M  V30 10513 C 991.257 1.72222 1.57676 0
M  V30 10514 C 992.238 0.57121 1.60222 0
M  V30 10515 O 993.423 0.810381 1.76484 0
M  V30 10516 C 990.553 1.81666 2.95998 0
M  V30 10517 C 989.507 2.96857 3.08318 0
M  V30 10518 C 988.833 2.91445 4.4829 0
M  V30 10519 C 990.133 4.37361 2.85504 0
M  V30 10520 H 991.827 2.64825 1.39671 0
M  V30 10521 H 989.373 1.27438 0.67049 0
M  V30 10522 H 991.326 1.95514 3.73299 0
M  V30 10523 H 990.05 0.856856 3.1516 0
M  V30 10524 H 988.709 2.82661 2.33449 0
M  V30 10525 H 988.357 1.93309 4.64371 0
M  V30 10526 H 988.057 3.68776 4.57469 0
M  V30 10527 H 989.581 3.07341 5.27611 0
M  V30 10528 H 990.995 4.52081 3.52555 0
M  V30 10529 H 989.392 5.16145 3.06127 0
M  V30 10530 H 990.462 4.49708 1.81359 0
M  V30 10531 N 991.805 -0.723954 1.39988 0
M  V30 10532 C 993.033 -1.51313 1.4111 0
M  V30 10533 C 993.448 -1.88798 0.00853333 0
M  V30 10534 O 992.805 -1.54868 -0.965516 0
M  V30 10535 C 992.856 -2.79375 2.29416 0
M  V30 10536 O 992.577 -2.43478 3.64211 0
M  V30 10537 C 994.078 -3.7333 2.3904 0
M  V30 10538 H 991.298 -0.46724 0.481589 0
M  V30 10539 H 993.842 -0.893694 1.83938 0
M  V30 10540 H 991.997 -3.37624 1.89971 0
M  V30 10541 H 992.411 -3.25821 4.11024 0
M  V30 10542 H 993.885 -4.60051 3.05053 0
M  V30 10543 H 994.362 -4.15854 1.41289 0
M  V30 10544 H 994.968 -3.20996 2.79001 0
M  V30 10545 N 993.283 -1.25346 -0.955304 0
M  V30 10546 C 994.23 -1.05672 -2.05188 0
M  V30 10547 C 995.2 0.0339217 -1.66065 0
M  V30 10548 O 996.385 -0.123126 -1.90402 0
M  V30 10549 C 993.525 -0.680791 -3.38318 0
M  V30 10550 C 992.638 -1.84622 -3.90562 0
M  V30 10551 C 991.773 -1.41471 -5.12015 0
M  V30 10552 C 990.812 -2.54931 -5.56486 0
M  V30 10553 N 989.949 -2.1256 -6.69151 0
M  V30 10554 H 994.789 -1.9952 -2.2135 0
M  V30 10555 H 992.326 -0.993588 -1.08472 0
M  V30 10556 H 994.284 -0.443794 -4.14833 0
M  V30 10557 H 992.914 0.2207 -3.22045 0
M  V30 10558 H 991.966 -2.19654 -3.10574 0
M  V30 10559 H 993.278 -2.6983 -4.19515 0
M  V30 10560 H 992.432 -1.13732 -5.95945 0
M  V30 10561 H 991.171 -0.533334 -4.84775 0
M  V30 10562 H 990.176 -2.83415 -4.71122 0
M  V30 10563 H 991.401 -3.43645 -5.85734 0
M  V30 10564 H 989.347 -1.26838 -6.43621 0
M  V30 10565 H 989.264 -2.91317 -6.97618 0
M  V30 10566 H 990.532 -1.87996 -7.5649 0
M  V30 10567 N 994.761 1.15782 -1.06922 0
M  V30 10568 C 995.989 1.90355 -0.81072 0
M  V30 10569 C 996.404 1.77779 0.635614 0
M  V30 10570 O 995.761 1.12675 1.43564 0
M  V30 10571 C 995.812 3.4085 -1.2043 0
M  V30 10572 O 995.533 3.53057 -2.59388 0
M  V30 10573 C 997.034 4.32457 -0.974473 0
M  V30 10574 H 994.254 0.60343 -0.293451 0
M  V30 10575 H 996.798 1.46723 -1.42452 0
M  V30 10576 H 994.953 3.82162 -0.634909 0
M  V30 10577 H 995.367 4.46426 -2.75326 0
M  V30 10578 H 996.841 5.36488 -1.29942 0
M  V30 10579 H 997.318 4.39109 0.0894481 0
M  V30 10580 H 997.924 3.96882 -1.52856 0
M  V30 10581 N 996.239 0.8527 1.3254 0
M  V30 10582 C 997.187 0.284659 2.30852 0
M  V30 10583 C 998.181 -0.5909 1.5876 0
M  V30 10584 O 999.387 -0.478922 1.73512 0
M  V30 10585 H 995.762 0.0733452 0.748415 0
M  V30 10586 H 997.733 1.1281 2.76254 0
M  V30 10587 C 996.482 -0.51379 3.43883 0
M  V30 10588 H 995.805 0.150644 3.99516 0
M  V30 10589 H 997.245 -0.876866 4.14834 0
M  V30 10590 C 995.704 -1.69823 2.90967 0
M  V30 10591 O 996.234 -2.79727 2.88298 0
M  V30 10592 N 994.44 -1.52465 2.47392 0
M  V30 10593 H 993.987 -0.630599 2.49762 0
M  V30 10594 H 993.945 -2.31859 2.12341 0
M  V30 10595 N 997.718 -1.45297 0.610449 0
M  V30 10596 C 999.134 -1.57225 0.274332 0
M  V30 10597 C 999.334 -1.60136 -1.22306 0
M  V30 10598 O 998.39 -1.5332 -2.00622 0
M  V30 10599 C 999.703 -2.85365 0.948028 0
M  V30 10600 C 1001.25 -2.99044 0.924216 0
M  V30 10601 C 1001.73 -4.29958 1.57798 0
M  V30 10602 N 1003.22 -4.36723 1.5436 0
M  V30 10603 C 1003.95 -5.36695 2.01857 0
M  V30 10604 N 1003.45 -6.43187 2.57453 0
M  V30 10605 N 1005.24 -5.28071 1.92608 0
M  V30 10606 H 997.392 -1.41651 1.58268 0
M  V30 10607 H 999.655 -0.67744 0.663158 0
M  V30 10608 H 999.361 -2.89125 2.00249 0
M  V30 10609 H 999.235 -3.74222 0.473062 0
M  V30 10610 H 1001.62 -2.94849 -0.121709 0
M  V30 10611 H 1001.7 -2.1159 1.43748 0
M  V30 10612 H 1001.35 -4.34912 2.62325 0
M  V30 10613 H 1001.28 -5.16234 1.03972 0
M  V30 10614 H 1003.77 -3.60374 1.13749 0
M  V30 10615 H 1004.08 -7.15722 2.91482 0
M  V30 10616 H 1002.43 -6.4393 2.61493 0
M  V30 10617 H 1005.62 -4.43783 1.48912 0
M  V30 10618 H 1005.79 -6.05832 2.29938 0
M  V30 10619 N 999.196 -0.349774 -1.5367 0
M  V30 10620 C 1000.44 0.245862 -2.00196 0
M  V30 10621 C 1000.76 1.51154 -1.24144 0
M  V30 10622 O 1001.96 2.18481 -1.61178 0
M  V30 10623 C 1000.42 0.488665 -3.56567 0
M  V30 10624 C 1000.03 -0.761475 -4.41481 0
M  V30 10625 C 1001.77 1.04282 -4.11492 0
M  V30 10626 C 999.679 -0.489128 -5.89374 0
M  V30 10627 H 998.609 0.0956493 -0.747909 0
M  V30 10628 H 1001.26 -0.466068 -1.77483 0
M  V30 10629 H 999.642 1.26145 -3.75371 0
M  V30 10630 H 1000.82 -1.53585 -4.34452 0
M  V30 10631 H 999.131 -1.23771 -3.9758 0
M  V30 10632 H 1001.73 1.26164 -5.19603 0
M  V30 10633 H 1002.07 2.00023 -3.65098 0
M  V30 10634 H 1002.6 0.330582 -3.96424 0
M  V30 10635 H 999.343 -1.41643 -6.40014 0
M  V30 10636 H 998.863 0.247039 -5.99291 0
M  V30 10637 H 1000.54 -0.1087 -6.46909 0
M  V30 10638 N 1000.67 1.57404 -0.0785433 0
M  V30 10639 C 1001.9 1.97787 0.596995 0
M  V30 10640 C 1002.31 0.955904 1.63276 0
M  V30 10641 O 1001.65 -0.0649169 1.83585 0
M  V30 10642 C 1001.72 3.34499 1.31723 0
M  V30 10643 C 1001.38 4.54933 0.434144 0
M  V30 10644 C 1002.38 5.18969 -0.311015 0
M  V30 10645 C 1000.06 5.01029 0.357046 0
M  V30 10646 C 1002.06 6.27457 -1.12142 0
M  V30 10647 C 999.744 6.09389 -0.457029 0
M  V30 10648 C 1000.74 6.72466 -1.19493 0
M  V30 10649 O 1000.43 7.78738 -1.99556 0
M  V30 10650 H 1000.16 0.655294 0.166028 0
M  V30 10651 H 1002.72 2.04855 -0.149517 0
M  V30 10652 H 1000.95 3.24064 2.10996 0
M  V30 10653 H 1002.63 3.5944 1.88567 0
M  V30 10654 H 1003.4 4.84297 -0.261084 0
M  V30 10655 H 999.28 4.51706 0.921026 0
M  V30 10656 H 1002.82 6.76622 -1.69788 0
M  V30 10657 H 998.721 6.43494 -0.508499 0
M  V30 10658 H 999.489 7.95648 -1.9206 0
M  V30 10659 N 1002.15 -0.195058 1.56388 0
M  V30 10660 C 1003.57 -0.545894 1.49974 0
M  V30 10661 C 1003.77 -1.85851 0.778568 0
M  V30 10662 O 1002.82 -2.50346 0.329105 0
M  V30 10663 C 1004.14 -0.600599 2.94641 0
M  V30 10664 C 1005.68 -0.689429 3.05313 0
M  V30 10665 C 1006.16 -0.775243 4.51391 0
M  V30 10666 N 1007.65 -0.838769 4.55542 0
M  V30 10667 C 1008.39 -0.925337 5.65884 0
M  V30 10668 N 1007.88 -0.974204 6.85916 0
M  V30 10669 N 1009.67 -0.962528 5.53798 0
M  V30 10670 H 1001.83 0.66595 2.0169 0
M  V30 10671 H 1004.09 0.237215 0.917842 0
M  V30 10672 H 1003.79 0.29478 3.50462 0
M  V30 10673 H 1003.67 -1.45528 3.47996 0
M  V30 10674 H 1006.06 -1.57524 2.4954 0
M  V30 10675 H 1006.14 0.191451 2.55083 0
M  V30 10676 H 1005.78 0.106215 5.07789 0
M  V30 10677 H 1005.71 -1.67193 4.99354 0
M  V30 10678 H 1008.2 -0.810249 3.69112 0
M  V30 10679 H 1008.51 -1.04077 7.6576 0
M  V30 10680 H 1006.86 -0.942881 6.88574 0
M  V30 10681 H 1010.05 -0.921188 4.58946 0
M  V30 10682 H 1010.22 -1.02653 6.39817 0
M  V30 10683 N 1003.63 -1.50653 -0.462772 0
M  V30 10684 C 1004.88 -1.61296 -1.21105 0
M  V30 10685 C 1005.19 -0.322757 -1.92919 0
M  V30 10686 O 1006.4 -0.308211 -2.69745 0
M  V30 10687 C 1004.85 -2.84752 -2.201 0
M  V30 10688 C 1004.46 -4.20681 -1.54051 0
M  V30 10689 C 1006.21 -3.04744 -2.95518 0
M  V30 10690 C 1004.11 -5.35314 -2.51381 0
M  V30 10691 H 1003.04 -0.60069 -0.455728 0
M  V30 10692 H 1005.69 -1.77093 -0.480656 0
M  V30 10693 H 1004.08 -2.62532 -2.96467 0
M  V30 10694 H 1005.25 -4.53187 -0.834168 0
M  V30 10695 H 1003.56 -4.06361 -0.908828 0
M  V30 10696 H 1006.16 -3.87559 -3.68378 0
M  V30 10697 H 1006.5 -2.16802 -3.55391 0
M  V30 10698 H 1007.04 -3.27185 -2.26263 0
M  V30 10699 H 1003.78 -6.25437 -1.96235 0
M  V30 10700 H 1003.3 -5.07216 -3.20144 0
M  V30 10701 H 1004.98 -5.66229 -3.1304 0
M  V30 10702 N 1005.11 0.71652 -1.4037 0
M  V30 10703 C 1006.36 1.47638 -1.38597 0
M  V30 10704 C 1006.68 1.94496 0.0120141 0
M  V30 10705 O 1005.94 1.68437 0.996373 0
M  V30 10706 C 1006.24 2.71777 -2.32103 0
M  V30 10707 C 1005.9 2.43689 -3.79376 0
M  V30 10708 C 1004.57 2.35739 -4.195 0
M  V30 10709 C 1006.92 2.20099 -4.72447 0
M  V30 10710 C 1004.25 2.02265 -5.50732 0
M  V30 10711 C 1006.6 1.88138 -6.03976 0
M  V30 10712 C 1005.26 1.78669 -6.43143 0
M  V30 10713 H 1004.53 0.540246 -0.507163 0
M  V30 10714 H 1007.18 0.820822 -1.73017 0
M  V30 10715 H 1005.48 3.42166 -1.90865 0
M  V30 10716 H 1007.18 3.29864 -2.28015 0
M  V30 10717 H 1003.77 2.50763 -3.47585 0
M  V30 10718 H 1007.95 2.25198 -4.42266 0
M  V30 10719 H 1003.21 1.93471 -5.79982 0
M  V30 10720 H 1007.38 1.68898 -6.75608 0
M  V30 10721 H 1005.01 1.52498 -7.44747 0
M  V30 10722 N 1006.59 1.25851 0.948643 0
M  V30 10723 C 1007.5 1.08516 2.07994 0
M  V30 10724 C 1008.51 0.0206696 1.73988 0
M  V30 10725 O 1009.69 0.222854 2.00163 0
M  V30 10726 C 1006.75 0.712145 3.39307 0
M  V30 10727 C 1005.81 1.85523 3.87143 0
M  V30 10728 C 1005.05 1.49992 5.1219 0
M  V30 10729 O 1005.27 0.398268 5.69008 0
M  V30 10730 O 1004.2 2.33215 5.54882 0
M  V30 10731 H 1008.03 2.03405 2.25522 0
M  V30 10732 H 1005.62 1.04844 1.06433 0
M  V30 10733 H 1007.5 0.516512 4.18223 0
M  V30 10734 H 1006.17 -0.207416 3.23035 0
M  V30 10735 H 1005.08 2.10578 3.09205 0
M  V30 10736 H 1006.41 2.75425 4.07924 0
M  V30 10737 N 1008.06 -1.15214 1.07534 0
M  V30 10738 C 1009 -2.19634 0.655261 0
M  V30 10739 C 1010.01 -1.60139 -0.293165 0
M  V30 10740 O 1011.2 -1.78311 -0.0821957 0
M  V30 10741 C 1008.3 -3.38851 -0.0578281 0
M  V30 10742 C 1007.47 -4.27888 0.90725 0
M  V30 10743 C 1006.53 -5.25692 0.231115 0
M  V30 10744 O 1005.56 -5.62469 0.872746 0
M  V30 10745 N 1006.76 -5.71424 -1.0225 0
M  V30 10746 H 1009.52 -2.56292 1.55353 0
M  V30 10747 H 1007.08 -1.30347 0.960271 0
M  V30 10748 H 1009.08 -4.01334 -0.520874 0
M  V30 10749 H 1007.65 -3.00593 -0.858071 0
M  V30 10750 H 1006.87 -3.62475 1.54937 0
M  V30 10751 H 1008.15 -4.84246 1.56151 0
M  V30 10752 H 1007.55 -5.43659 -1.56369 0
M  V30 10753 H 1006.11 -6.35938 -1.42919 0
M  V30 10754 N 1009.54 -0.859717 -1.32086 0
M  V30 10755 C 1010.79 -0.464662 -1.96686 0
M  V30 10756 C 1011.11 0.98412 -1.68345 0
M  V30 10757 O 1010.38 1.68847 -0.993361 0
M  V30 10758 H 1008.96 -0.168838 -0.727669 0
M  V30 10759 H 1011.62 -1.09726 -1.61079 0
M  V30 10760 H 1010.72 -0.613904 -3.06003 0
M  V30 10761 N 1011.02 1.44971 -0.618145 0
M  V30 10762 C 1011.97 2.30606 0.09449 0
M  V30 10763 C 1012.94 1.42725 0.849633 0
M  V30 10764 O 1014.12 1.71643 0.833266 0
M  V30 10765 C 1011.26 3.27803 1.07886 0
M  V30 10766 C 1010.38 4.30787 0.323488 0
M  V30 10767 C 1009.51 5.15085 1.29851 0
M  V30 10768 C 1008.55 6.09788 0.531561 0
M  V30 10769 N 1007.69 6.86829 1.4564 0
M  V30 10770 H 1012.53 2.91008 -0.641738 0
M  V30 10771 H 1010.06 1.43391 -0.328259 0
M  V30 10772 H 1012.02 3.82631 1.66281 0
M  V30 10773 H 1010.65 2.69131 1.78237 0
M  V30 10774 H 1009.7 3.78536 -0.376164 0
M  V30 10775 H 1011.02 4.98044 -0.274443 0
M  V30 10776 H 1010.17 5.74365 1.95421 0
M  V30 10777 H 1008.91 4.4787 1.93037 0
M  V30 10778 H 1007.91 5.49628 -0.137702 0
M  V30 10779 H 1009.14 6.79033 -0.0953993 0
M  V30 10780 H 1007.08 6.22295 2.07571 0
M  V30 10781 H 1007 7.50477 0.912167 0
M  V30 10782 H 1008.27 7.50642 2.10134 0
M  V30 10783 N 1012.5 0.357919 1.53482 0
M  V30 10784 C 1013.91 0.00655107 1.59599 0
M  V30 10785 C 1014.11 -1.47449 1.37336 0
M  V30 10786 O 1013.17 -2.2351 1.17472 0
M  V30 10787 C 1014.48 0.455617 2.97228 0
M  V30 10788 C 1016.03 0.409183 3.10314 0
M  V30 10789 C 1016.51 0.833941 4.50344 0
M  V30 10790 N 1018 0.788695 4.56436 0
M  V30 10791 C 1018.73 1.08914 5.62961 0
M  V30 10792 N 1018.23 1.45847 6.77274 0
M  V30 10793 N 1020.02 1.01243 5.52907 0
M  V30 10794 H 1012.17 1.32248 1.66206 0
M  V30 10795 H 1014.44 0.540047 0.779136 0
M  V30 10796 H 1014.14 1.48881 3.18634 0
M  V30 10797 H 1014.02 -0.161751 3.76853 0
M  V30 10798 H 1016.4 -0.614863 2.88623 0
M  V30 10799 H 1016.48 1.06195 2.32715 0
M  V30 10800 H 1016.13 1.85607 4.72771 0
M  V30 10801 H 1016.06 0.158507 5.26361 0
M  V30 10802 H 1018.55 0.516497 3.74354 0
M  V30 10803 H 1018.86 1.67218 7.54492 0
M  V30 10804 H 1017.21 1.49705 6.78685 0
M  V30 10805 H 1020.4 0.723137 4.62481 0
M  V30 10806 H 1020.57 1.24991 6.35831 0
M  V30 10807 N 1013.98 -1.5736 0.0868897 0
M  V30 10808 C 1015.2 -1.98809 -0.590757 0
M  V30 10809 C 1015.63 -0.965407 -1.61436 0
M  V30 10810 O 1014.98 0.067143 -1.81176 0
M  V30 10811 C 1015.03 -3.39249 -1.22238 0
M  V30 10812 O 1014.14 -3.39706 -2.33824 0
M  V30 10813 H 1013.48 -0.64669 -0.150626 0
M  V30 10814 H 1016.01 -2.03927 0.165873 0
M  V30 10815 H 1016.02 -3.76765 -1.56564 0
M  V30 10816 H 1014.69 -4.13208 -0.472434 0
M  V30 10817 H 1013.27 -3.13977 -2.01178 0
M  V30 10818 N 1015.45 0.186762 -1.56489 0
M  V30 10819 C 1016.7 0.907194 -1.81378 0
M  V30 10820 C 1017.03 1.82558 -0.662283 0
M  V30 10821 O 1016.31 1.91564 0.336699 0
M  V30 10822 C 1016.59 1.71624 -3.16571 0
M  V30 10823 C 1016.44 0.822009 -4.42225 0
M  V30 10824 C 1017.76 2.68713 -3.48542 0
M  V30 10825 H 1014.88 0.328366 -0.659806 0
M  V30 10826 H 1017.52 0.174142 -1.892 0
M  V30 10827 H 1015.67 2.34119 -3.10033 0
M  V30 10828 H 1017.35 0.211122 -4.60817 0
M  V30 10829 H 1015.59 0.129178 -4.33608 0
M  V30 10830 H 1016.26 1.42326 -5.33336 0
M  V30 10831 H 1018.74 2.16348 -3.55433 0
M  V30 10832 H 1017.61 3.22397 -4.44242 0
M  V30 10833 H 1017.87 3.48165 -2.72459 0
M  V30 10834 N 1016.93 1.50896 0.454776 0
M  V30 10835 C 1018.16 1.66759 1.23313 0
M  V30 10836 C 1018.58 0.35722 1.84677 0
M  V30 10837 O 1017.94 -0.680771 1.68033 0
M  V30 10838 C 1017.99 2.77254 2.3057 0
M  V30 10839 O 1017.09 2.39642 3.35627 0
M  V30 10840 H 1016.43 0.556599 0.362068 0
M  V30 10841 H 1018.96 1.97365 0.539274 0
M  V30 10842 H 1018.97 3.0082 2.75629 0
M  V30 10843 H 1017.65 3.72349 1.85281 0
M  V30 10844 H 1016.23 2.26584 2.96165 0
M  V30 10845 N 1018.41 -0.709066 1.40748 0
M  V30 10846 C 1019.37 -1.80485 1.41272 0
M  V30 10847 C 1020.37 -1.57872 0.305463 0
M  V30 10848 O 1021.56 -1.64793 0.564691 0
M  V30 10849 C 1018.7 -3.1867 1.21087 0
M  V30 10850 H 1019.89 -1.81417 2.38805 0
M  V30 10851 H 1017.44 -0.915356 1.26692 0
M  V30 10852 H 1018.18 -3.23385 0.243406 0
M  V30 10853 H 1017.96 -3.36484 2.01299 0
M  V30 10854 H 1019.45 -3.98685 1.24257 0
M  V30 10855 N 1019.89 -1.26353 -0.941956 0
M  V30 10856 C 1021.3 -1.10774 -1.50287 0
M  V30 10857 C 1021.65 0.312229 -1.937 0
M  V30 10858 O 1020.78 1.20364 -1.79838 0
M  V30 10859 C 1021.37 -2.00473 -2.73123 0
M  V30 10860 C 1019.93 -1.89042 -3.25485 0
M  V30 10861 C 1019.08 -1.93869 -1.98267 0
M  V30 10862 H 1022.03 -1.39454 -0.757523 0
M  V30 10863 H 1022.05 -1.55216 -3.47402 0
M  V30 10864 H 1021.56 -3.03812 -2.41495 0
M  V30 10865 H 1019.66 -0.886341 -3.61904 0
M  V30 10866 H 1019.78 -2.74533 -3.92643 0
M  V30 10867 H 1018.14 -1.37912 -2.14132 0
M  V30 10868 H 1018.92 -2.98837 -1.68972 0
M  V30 10869 N 1021.37 1.14642 -1.08144 0
M  V30 10870 C 1022.78 1.37604 -0.808537 0
M  V30 10871 C 1022.98 1.92868 0.583452 0
M  V30 10872 O 1022.04 2.13964 1.34073 0
M  V30 10873 C 1023.35 2.3396 -1.889 0
M  V30 10874 C 1024.9 2.47605 -1.9147 0
M  V30 10875 C 1025.38 3.47258 -2.98623 0
M  V30 10876 N 1026.87 3.548 -2.97777 0
M  V30 10877 C 1027.6 4.31751 -3.77331 0
M  V30 10878 N 1027.1 5.11966 -4.66757 0
M  V30 10879 N 1028.89 4.2692 -3.65645 0
M  V30 10880 H 1021.04 0.771154 -1.97906 0
M  V30 10881 H 1023.3 0.401694 -0.858688 0
M  V30 10882 H 1023.01 2.00484 -2.88962 0
M  V30 10883 H 1022.88 3.33833 -1.756 0
M  V30 10884 H 1025.27 2.80375 -0.920548 0
M  V30 10885 H 1025.35 1.47702 -2.08848 0
M  V30 10886 H 1025 3.15223 -3.98243 0
M  V30 10887 H 1024.93 4.46935 -2.7849 0
M  V30 10888 H 1027.42 2.97553 -2.3296 0
M  V30 10889 H 1027.73 5.67951 -5.24072 0
M  V30 10890 H 1026.08 5.11245 -4.70801 0
M  V30 10891 H 1029.27 3.63322 -2.95152 0
M  V30 10892 H 1029.44 4.8664 -4.27885 0
M  V30 10893 N 1022.85 0.866709 1.31628 0
M  V30 10894 C 1024.09 0.476026 1.96825 0
M  V30 10895 C 1024.42 -0.970994 1.68529 0
M  V30 10896 O 1023.68 -1.69823 0.97255 0
M  V30 10897 C 1023.97 0.676018 3.50948 0
M  V30 10898 C 1023.64 2.09533 3.99258 0
M  V30 10899 C 1022.3 2.48349 4.1216 0
M  V30 10900 C 1024.65 3.02112 4.24709 0
M  V30 10901 C 1021.98 3.78991 4.47864 0
M  V30 10902 C 1024.33 4.32266 4.61875 0
M  V30 10903 C 1023 4.71 4.72985 0
M  V30 10904 H 1022.27 0.17419 0.720235 0
M  V30 10905 H 1024.92 1.09907 1.5682 0
M  V30 10906 H 1023.22 -0.0301867 3.91788 0
M  V30 10907 H 1024.92 0.353604 3.99438 0
M  V30 10908 H 1021.51 1.78396 3.89709 0
M  V30 10909 H 1025.69 2.73351 4.14238 0
M  V30 10910 H 1020.95 4.08769 4.54663 0
M  V30 10911 H 1025.12 5.04055 4.80522 0
M  V30 10912 H 1022.75 5.72273 5.00407 0
M  V30 10913 N 1024.32 -1.44642 0.625825 0
M  V30 10914 C 1025.57 -2.01308 0.125682 0
M  V30 10915 C 1025.89 -1.49773 -1.25807 0
M  V30 10916 O 1027.09 -1.98533 -1.85194 0
M  V30 10917 C 1025.55 -3.59479 0.17395 0
M  V30 10918 C 1025.16 -4.20011 1.55868 0
M  V30 10919 C 1026.9 -4.2364 -0.270005 0
M  V30 10920 C 1024.81 -5.7039 1.56235 0
M  V30 10921 H 1023.74 -0.75276 0.0432194 0
M  V30 10922 H 1026.39 -1.65916 0.783842 0
M  V30 10923 H 1024.77 -3.92145 -0.551212 0
M  V30 10924 H 1025.94 -3.98891 2.307 0
M  V30 10925 H 1024.26 -3.68116 1.94627 0
M  V30 10926 H 1026.86 -5.33931 -0.28672 0
M  V30 10927 H 1027.2 -3.95603 -1.29629 0
M  V30 10928 H 1027.73 -3.95759 0.402487 0
M  V30 10929 H 1024.47 -6.03154 2.56683 0
M  V30 10930 H 1023.99 -5.93648 0.856881 0
M  V30 10931 H 1025.67 -6.33929 1.29396 0
M  V30 10932 N 1025.8 -0.366053 -1.5329 0
M  V30 10933 C 1027.03 0.226839 -2.06156 0
M  V30 10934 C 1027.45 1.41637 -1.23776 0
M  V30 10935 O 1026.81 1.7947 -0.256948 0
M  V30 10936 C 1026.86 0.597956 -3.55608 0
M  V30 10937 O 1025.96 1.69512 -3.75951 0
M  V30 10938 H 1025.3 0.0329156 -0.663184 0
M  V30 10939 H 1027.83 -0.526793 -1.97702 0
M  V30 10940 H 1027.84 0.868831 -3.98642 0
M  V30 10941 H 1026.52 -0.271838 -4.15011 0
M  V30 10942 H 1025.09 1.41976 -3.44815 0
M  V30 10943 N 1027.28 1.57312 -0.0952337 0
M  V30 10944 C 1028.69 1.81589 0.433875 0
M  V30 10945 C 1029.04 1.01086 1.68155 0
M  V30 10946 O 1028.17 0.240272 2.15062 0
M  V30 10947 C 1028.76 3.29366 0.793931 0
M  V30 10948 C 1027.32 3.54407 1.26778 0
M  V30 10949 C 1026.47 2.76035 0.264518 0
M  V30 10950 H 1029.42 1.55426 -0.320675 0
M  V30 10951 H 1029.44 3.42697 1.65345 0
M  V30 10952 H 1028.95 3.87932 -0.114334 0
M  V30 10953 H 1027.05 3.01173 2.19376 0
M  V30 10954 H 1027.17 4.63055 1.22952 0
M  V30 10955 H 1025.53 2.43509 0.746691 0
M  V30 10956 H 1026.31 3.37349 -0.636429 0
M  V30 10957 N 1028.76 -0.17846 1.56586 0
M  V30 10958 C 1029.72 -1.20479 1.94981 0
M  V30 10959 C 1030.72 -1.37561 0.832677 0
M  V30 10960 O 1031.91 -1.35089 1.09984 0
M  V30 10961 C 1029.04 -2.57117 2.23839 0
M  V30 10962 H 1030.24 -0.876173 2.86816 0
M  V30 10963 H 1027.79 -0.420635 1.50534 0
M  V30 10964 H 1028.52 -2.95005 1.34695 0
M  V30 10965 H 1028.31 -2.46086 3.05261 0
M  V30 10966 H 1029.8 -3.31096 2.5449 0
M  V30 10967 N 1030.24 -1.51135 -0.446768 0
M  V30 10968 C 1031.46 -1.67411 -1.22427 0
M  V30 10969 C 1031.89 -0.367009 -1.84485 0
M  V30 10970 O 1031.24 0.67185 -1.68392 0
M  V30 10971 C 1031.29 -2.78473 -2.29096 0
M  V30 10972 O 1030.4 -2.41419 -3.34351 0
M  V30 10973 H 1029.74 -0.558512 -0.359111 0
M  V30 10974 H 1032.27 -1.97648 -0.5288 0
M  V30 10975 H 1032.28 -3.02277 -2.7403 0
M  V30 10976 H 1030.95 -3.73326 -1.83304 0
M  V30 10977 H 1029.53 -2.28152 -2.9496 0
M  V30 10978 N 1031.71 0.701592 -1.41122 0
M  V30 10979 C 1032.65 1.8268 -1.38422 0
M  V30 10980 C 1033.66 1.60244 -0.287342 0
M  V30 10981 O 1034.85 1.69859 -0.548658 0
M  V30 10982 C 1031.95 3.19338 -1.13475 0
M  V30 10983 C 1031.12 3.68853 -2.35088 0
M  V30 10984 C 1030.18 4.84163 -2.06089 0
M  V30 10985 O 1029.21 4.9609 -2.79077 0
M  V30 10986 N 1030.41 5.70972 -1.04743 0
M  V30 10987 H 1033.17 1.8549 -2.35401 0
M  V30 10988 H 1030.73 0.883682 -1.35656 0
M  V30 10989 H 1032.73 3.94095 -0.920377 0
M  V30 10990 H 1031.3 3.11589 -0.251152 0
M  V30 10991 H 1030.52 2.8507 -2.72266 0
M  V30 10992 H 1031.8 3.98673 -3.16129 0
M  V30 10993 H 1031.2 5.63961 -0.443221 0
M  V30 10994 H 1029.76 6.45654 -0.892949 0
M  V30 10995 N 1033.19 1.2685 0.935242 0
M  V30 10996 C 1034.12 1.1143 2.05196 0
M  V30 10997 C 1035.1 0.0178362 1.70091 0
M  V30 10998 O 1036.29 0.190951 1.93259 0
M  V30 10999 C 1033.42 0.752779 3.39044 0
M  V30 11000 C 1032.37 1.80164 3.88233 0
M  V30 11001 C 1031.7 1.29428 5.18799 0
M  V30 11002 C 1033 3.20431 4.12457 0
M  V30 11003 H 1034.69 2.04845 2.18355 0
M  V30 11004 H 1032.24 0.986276 1.04922 0
M  V30 11005 H 1034.19 0.631757 4.16637 0
M  V30 11006 H 1032.91 -0.217075 3.25878 0
M  V30 11007 H 1031.57 1.91144 3.12825 0
M  V30 11008 H 1031.22 0.3141 5.02018 0
M  V30 11009 H 1030.92 1.99546 5.5268 0
M  V30 11010 H 1032.45 1.18605 5.9897 0
M  V30 11011 H 1033.86 3.12495 4.80645 0
M  V30 11012 H 1032.26 3.88193 4.57631 0
M  V30 11013 H 1033.33 3.66046 3.18023 0
M  V30 11014 N 1034.67 -1.14067 1.0875 0
M  V30 11015 C 1035.63 -2.17453 0.724341 0
M  V30 11016 C 1036.63 -1.58959 -0.242614 0
M  V30 11017 O 1037.82 -1.74186 -0.0217008 0
M  V30 11018 C 1034.96 -3.40828 0.0700236 0
M  V30 11019 H 1036.15 -2.51094 1.63987 0
M  V30 11020 H 1033.7 -1.28775 0.885813 0
M  V30 11021 H 1034.44 -3.1277 -0.857061 0
M  V30 11022 H 1034.22 -3.84551 0.76569 0
M  V30 11023 H 1035.71 -4.17258 -0.168905 0
M  V30 11024 N 1036.15 -0.873678 -1.31166 0
M  V30 11025 C 1037.4 -0.482577 -1.95842 0
M  V30 11026 C 1037.71 0.970881 -1.69804 0
M  V30 11027 O 1038.92 1.4683 -2.28371 0
M  V30 11028 C 1037.37 -0.812074 -3.50619 0
M  V30 11029 C 1036.98 -2.28254 -3.85492 0
M  V30 11030 C 1038.72 -0.489624 -4.21667 0
M  V30 11031 C 1036.63 -2.55426 -5.33396 0
M  V30 11032 H 1035.56 -0.176736 -0.732994 0
M  V30 11033 H 1038.21 -1.06709 -1.49283 0
M  V30 11034 H 1036.59 -0.156769 -3.9569 0
M  V30 11035 H 1037.77 -2.98122 -3.51369 0
M  V30 11036 H 1036.08 -2.5714 -3.27518 0
M  V30 11037 H 1038.68 -0.669811 -5.30488 0
M  V30 11038 H 1039.02 0.570204 -4.12376 0
M  V30 11039 H 1039.56 -1.10163 -3.82242 0
M  V30 11040 H 1036.3 -3.60106 -5.47726 0
M  V30 11041 H 1035.82 -1.90156 -5.68859 0
M  V30 11042 H 1037.49 -2.40345 -6.00702 0
M  V30 11043 N 1037.63 1.44308 -0.633487 0
M  V30 11044 C 1038.85 2.06384 -0.146063 0
M  V30 11045 C 1039.27 1.47357 1.18031 0
M  V30 11046 O 1038.63 0.597334 1.72448 0
M  V30 11047 C 1038.68 3.61489 -0.0276722 0
M  V30 11048 O 1038.4 4.18318 -1.3016 0
M  V30 11049 C 1039.9 4.40604 0.488168 0
M  V30 11050 H 1037.12 0.666122 -0.0807632 0
M  V30 11051 H 1039.66 1.85139 -0.868557 0
M  V30 11052 H 1037.82 3.81988 0.645273 0
M  V30 11053 H 1038.23 5.11783 -1.14797 0
M  V30 11054 H 1039.71 5.49545 0.520013 0
M  V30 11055 H 1040.18 4.12218 1.51568 0
M  V30 11056 H 1040.79 4.2503 -0.151608 0
M  V30 11057 N 1039.1 0.374177 1.53094 0
M  V30 11058 C 1040.35 -0.212816 2.01379 0
M  V30 11059 C 1040.68 -1.48069 1.26118 0
M  V30 11060 O 1039.93 -1.92625 0.345561 0
M  V30 11061 C 1040.23 -0.542179 3.53264 0
M  V30 11062 C 1039.9 0.632375 4.46444 0
M  V30 11063 C 1038.56 0.954635 4.71636 0
M  V30 11064 C 1040.91 1.41887 5.01515 0
M  V30 11065 C 1038.24 2.06521 5.4915 0
M  V30 11066 C 1040.59 2.51993 5.80243 0
M  V30 11067 C 1039.26 2.84744 6.03719 0
M  V30 11068 H 1038.53 -0.0778749 0.736897 0
M  V30 11069 H 1041.17 0.508412 1.84628 0
M  V30 11070 H 1039.48 -1.34454 3.68007 0
M  V30 11071 H 1041.18 -1.00874 3.88105 0
M  V30 11072 H 1037.77 0.371179 4.2699 0
M  V30 11073 H 1041.95 1.18315 4.81991 0
M  V30 11074 H 1037.21 2.32284 5.65557 0
M  V30 11075 H 1041.38 3.13346 6.21922 0
M  V30 11076 H 1039.01 3.70921 6.63568 0
M  V30 11077 N 1040.58 -1.57259 0.103575 0
M  V30 11078 C 1041.81 -1.99424 -0.569638 0
M  V30 11079 C 1042.23 -0.982475 -1.60403 0
M  V30 11080 O 1041.59 0.0479231 -1.81237 0
M  V30 11081 C 1041.64 -3.40527 -1.18633 0
M  V30 11082 O 1040.74 -3.42167 -2.30208 0
M  V30 11083 H 1040.08 -0.648251 -0.143759 0
M  V30 11084 H 1042.61 -2.03739 0.187493 0
M  V30 11085 H 1042.62 -3.78404 -1.5256 0
M  V30 11086 H 1041.3 -4.13686 -0.428582 0
M  V30 11087 H 1039.88 -3.16093 -1.97837 0
M  V30 11088 N 1042.06 0.170153 -1.56679 0
M  V30 11089 C 1042.99 1.21285 -1.9953 0
M  V30 11090 C 1043.97 1.46104 -0.871071 0
M  V30 11091 O 1045.16 1.57419 -1.13724 0
M  V30 11092 C 1042.29 2.5515 -2.35618 0
M  V30 11093 C 1041.24 2.44898 -3.51011 0
M  V30 11094 C 1040.57 3.83263 -3.72845 0
M  V30 11095 C 1041.87 1.95271 -4.84424 0
M  V30 11096 H 1043.56 0.856646 -2.86883 0
M  V30 11097 H 1041.11 0.410634 -1.38021 0
M  V30 11098 H 1043.06 3.28299 -2.64193 0
M  V30 11099 H 1041.78 2.92561 -1.45175 0
M  V30 11100 H 1040.44 1.74203 -3.22566 0
M  V30 11101 H 1040.09 4.18069 -2.79691 0
M  V30 11102 H 1039.79 3.77272 -4.50488 0
M  V30 11103 H 1041.31 4.57996 -4.03822 0
M  V30 11104 H 1042.73 2.58195 -5.11867 0
M  V30 11105 H 1041.13 2.00225 -5.65712 0
M  V30 11106 H 1042.2 0.90709 -4.7634 0
M  V30 11107 N 1043.54 1.5137 0.438746 0
M  V30 11108 C 1044.79 1.63202 1.18524 0
M  V30 11109 C 1045.1 0.353408 1.92381 0
M  V30 11110 O 1046.31 0.351086 2.6922 0
M  V30 11111 C 1044.76 2.88218 2.15542 0
M  V30 11112 C 1044.37 4.23078 1.47339 0
M  V30 11113 C 1046.11 3.09407 2.90633 0
M  V30 11114 C 1044.02 5.39246 2.42833 0
M  V30 11115 H 1042.95 0.607864 0.446114 0
M  V30 11116 H 1045.6 1.77835 0.452421 0
M  V30 11117 H 1043.98 2.67216 2.92253 0
M  V30 11118 H 1045.16 4.54457 0.761964 0
M  V30 11119 H 1043.47 4.07755 0.844065 0
M  V30 11120 H 1046.07 3.9337 3.62165 0
M  V30 11121 H 1046.41 2.22428 3.51897 0
M  V30 11122 H 1046.95 3.30743 2.21029 0
M  V30 11123 H 1043.69 6.2848 1.8626 0
M  V30 11124 H 1043.21 5.12245 3.12034 0
M  V30 11125 H 1044.88 5.71137 3.03992 0
M  V30 11126 N 1045.02 -0.694098 1.41492 0
M  V30 11127 C 1046.24 -1.48789 1.44488 0
M  V30 11128 C 1046.67 -1.88028 0.0521588 0
M  V30 11129 O 1046.02 -1.54727 -0.944952 0
M  V30 11130 C 1046.07 -2.72586 2.3607 0
M  V30 11131 O 1045.18 -3.70128 1.81876 0
M  V30 11132 H 1044.52 -0.447758 0.490315 0
M  V30 11133 H 1047.05 -0.853036 1.85969 0
M  V30 11134 H 1047.06 -3.20877 2.51995 0
M  V30 11135 H 1045.73 -2.43363 3.37264 0
M  V30 11136 H 1044.31 -3.29069 1.75408 0
M  V30 11137 N 1046.49 -1.27344 -0.928501 0
M  V30 11138 C 1047.42 -1.12517 -2.04602 0
M  V30 11139 C 1048.41 -0.0268563 -1.70079 0
M  V30 11140 O 1049.59 -0.201197 -1.93155 0
M  V30 11141 C 1046.72 -0.770749 -3.3864 0
M  V30 11142 C 1045.67 -1.8222 -3.87272 0
M  V30 11143 C 1045 -1.32178 -5.18105 0
M  V30 11144 C 1046.3 -3.22614 -4.10752 0
M  V30 11145 H 1047.99 -2.06 -2.17265 0
M  V30 11146 H 1045.54 -0.991827 -1.04397 0
M  V30 11147 H 1047.49 -0.653843 -4.16297 0
M  V30 11148 H 1046.22 0.19979 -3.25988 0
M  V30 11149 H 1044.88 -1.928 -3.11807 0
M  V30 11150 H 1044.52 -0.340719 -5.01845 0
M  V30 11151 H 1044.22 -2.02474 -5.51614 0
M  V30 11152 H 1045.75 -1.2178 -5.98333 0
M  V30 11153 H 1047.16 -3.1504 -4.78981 0
M  V30 11154 H 1045.56 -3.90614 -4.55566 0
M  V30 11155 H 1046.63 -3.67727 -3.16077 0
M  V30 11156 N 1047.97 1.13488 -1.09353 0
M  V30 11157 C 1048.9 2.18563 -0.69012 0
M  V30 11158 C 1049.92 1.60585 0.267651 0
M  V30 11159 O 1051.11 1.78419 0.0538176 0
M  V30 11160 C 1048.21 3.389 0.00391255 0
M  V30 11161 C 1047.38 4.2639 -0.975209 0
M  V30 11162 C 1046.44 5.25258 -0.314719 0
M  V30 11163 O 1045.46 5.6101 -0.962119 0
M  V30 11164 N 1046.67 5.72978 0.931458 0
M  V30 11165 H 1049.43 2.53788 -1.59411 0
M  V30 11166 H 1046.99 1.28803 -0.980886 0
M  V30 11167 H 1048.98 4.02112 0.45696 0
M  V30 11168 H 1047.55 3.0192 0.81014 0
M  V30 11169 H 1046.77 3.59964 -1.60684 0
M  V30 11170 H 1048.06 4.817 -1.63836 0
M  V30 11171 H 1047.46 5.46078 1.477 0
M  V30 11172 H 1046.02 6.38131 1.32784 0
M  V30 11173 N 1049.45 0.880621 1.30701 0
M  V30 11174 C 1050.38 0.360251 2.30704 0
M  V30 11175 C 1051.36 -0.554572 1.60806 0
M  V30 11176 O 1052.55 -0.469345 1.88443 0
M  V30 11177 C 1049.68 -0.429888 3.44629 0
M  V30 11178 C 1048.63 0.392786 4.26194 0
M  V30 11179 C 1047.96 -0.52369 5.32129 0
M  V30 11180 C 1049.26 1.63258 4.96129 0
M  V30 11181 H 1050.95 1.19591 2.74478 0
M  V30 11182 H 1048.5 0.576508 1.31956 0
M  V30 11183 H 1050.45 -0.804532 4.13649 0
M  V30 11184 H 1049.17 -1.29916 2.99649 0
M  V30 11185 H 1047.83 0.749514 3.58856 0
M  V30 11186 H 1047.48 -1.39054 4.83397 0
M  V30 11187 H 1047.18 0.0229272 5.87596 0
M  V30 11188 H 1048.71 -0.894946 6.04006 0
M  V30 11189 H 1050.12 1.32877 5.57689 0
M  V30 11190 H 1048.52 2.11906 5.61441 0
M  V30 11191 H 1049.59 2.37944 4.22505 0
M  V30 11192 N 1050.93 -1.4397 0.641131 0
M  V30 11193 C 1051.86 -2.33458 -0.04446 0
M  V30 11194 C 1052.84 -1.48781 -0.824507 0
M  V30 11195 O 1054.03 -1.77477 -0.788397 0
M  V30 11196 C 1051.16 -3.31989 -1.01984 0
M  V30 11197 C 1050.11 -4.2656 -0.350745 0
M  V30 11198 C 1049.44 -5.15036 -1.43673 0
M  V30 11199 C 1050.74 -5.16897 0.749299 0
M  V30 11200 H 1052.43 -2.91034 0.702832 0
M  V30 11201 H 1049.98 -1.39942 0.339435 0
M  V30 11202 H 1051.93 -3.93483 -1.50828 0
M  V30 11203 H 1050.65 -2.72643 -1.79815 0
M  V30 11204 H 1049.31 -3.66413 0.117139 0
M  V30 11205 H 1048.96 -4.52037 -2.20617 0
M  V30 11206 H 1048.66 -5.79125 -0.994358 0
M  V30 11207 H 1050.18 -5.79403 -1.92678 0
M  V30 11208 H 1051.6 -5.7227 0.343534 0
M  V30 11209 H 1049.99 -5.89643 1.11541 0
M  V30 11210 H 1051.06 -4.5731 1.61232 0
M  V30 11211 N 1052.41 -0.382291 -1.52893 0
M  V30 11212 C 1053.66 0.201734 -2.01091 0
M  V30 11213 C 1053.98 1.47905 -1.2708 0
M  V30 11214 O 1053.25 1.92002 -0.38883 0
M  V30 11215 H 1051.83 0.0775373 -0.742965 0
M  V30 11216 H 1054.49 -0.512369 -1.88045 0
M  V30 11217 H 1053.58 0.416919 -3.09303 0
M  V30 11218 N 1053.89 1.57202 -0.111913 0
M  V30 11219 C 1055.13 1.94125 0.547573 0
M  V30 11220 C 1055.45 0.997026 1.68282 0
M  V30 11221 O 1056.65 1.26063 2.40459 0
M  V30 11222 C 1055.11 3.44982 1.02545 0
M  V30 11223 C 1054.72 4.47927 -0.0809529 0
M  V30 11224 C 1056.46 3.90837 1.65671 0
M  V30 11225 C 1054.37 5.89955 0.413224 0
M  V30 11226 H 1053.3 0.724651 0.208321 0
M  V30 11227 H 1055.95 1.82507 -0.190625 0
M  V30 11228 H 1054.33 3.5181 1.81785 0
M  V30 11229 H 1055.51 4.52761 -0.857003 0
M  V30 11230 H 1053.82 4.11782 -0.618434 0
M  V30 11231 H 1056.42 4.9436 2.03746 0
M  V30 11232 H 1056.76 3.30417 2.53239 0
M  V30 11233 H 1057.29 3.8678 0.929844 0
M  V30 11234 H 1054.03 6.54113 -0.426238 0
M  V30 11235 H 1053.55 5.88557 1.15591 0
M  V30 11236 H 1055.23 6.41032 0.876756 0
M  V30 11237 N 1055.36 -0.161842 1.56767 0
M  V30 11238 C 1056.6 -0.88331 1.84329 0
M  V30 11239 C 1056.97 -1.79012 0.694165 0
M  V30 11240 O 1058.17 -2.54991 0.850461 0
M  V30 11241 C 1056.44 -1.65 3.17033 0
M  V30 11242 S 1058 -2.41893 3.66106 0
M  V30 11243 H 1054.82 -0.295667 0.646608 0
M  V30 11244 H 1057.42 -0.14429 1.94967 0
M  V30 11245 H 1056.12 -0.975025 3.9865 0
M  V30 11246 H 1055.65 -2.43021 3.09361 0
M  V30 11247 H 1057.67 -3.66788 3.34187 0
M  V30 11248 N 1056.84 -1.516 -0.430713 0
M  V30 11249 C 1058.09 -1.6484 -1.18134 0
M  V30 11250 C 1058.42 -0.366725 -1.90706 0
M  V30 11251 O 1057.7 0.63398 -1.83878 0
M  V30 11252 C 1057.98 -2.85617 -2.19306 0
M  V30 11253 C 1057.83 -4.23778 -1.50773 0
M  V30 11254 C 1059.15 -3.01909 -3.20217 0
M  V30 11255 H 1056.27 -0.599907 -0.428113 0
M  V30 11256 H 1058.91 -1.84102 -0.46973 0
M  V30 11257 H 1057.06 -2.69325 -2.79993 0
M  V30 11258 H 1058.73 -4.51752 -0.93371 0
M  V30 11259 H 1056.98 -4.26171 -0.809966 0
M  V30 11260 H 1057.65 -5.04291 -2.24487 0
M  V30 11261 H 1060.12 -3.16956 -2.69589 0
M  V30 11262 H 1059 -3.87968 -3.88293 0
M  V30 11263 H 1059.26 -2.1427 -3.86705 0
M  V30 11264 N 1058.32 0.686584 -1.41858 0
M  V30 11265 C 1059.57 1.44738 -1.42908 0
M  V30 11266 C 1059.92 1.92357 -0.0404705 0
M  V30 11267 O 1059.21 1.67221 0.935287 0
M  V30 11268 C 1059.41 2.66793 -2.37816 0
M  V30 11269 C 1059.24 2.31114 -3.85767 0
M  V30 11270 C 1058.01 2.21043 -4.54388 0
M  V30 11271 C 1060.2 1.93512 -4.76505 0
M  V30 11272 N 1058.19 1.78344 -5.87424 0
M  V30 11273 C 1059.56 1.61642 -5.98558 0
M  V30 11274 C 1061.61 1.80401 -4.64069 0
M  V30 11275 C 1060.32 1.17977 -7.09559 0
M  V30 11276 C 1062.34 1.38141 -5.7504 0
M  V30 11277 C 1061.7 1.07186 -6.96197 0
M  V30 11278 H 1057.8 0.526577 -0.578136 0
M  V30 11279 H 1060.39 0.793483 -1.77797 0
M  V30 11280 H 1058.56 3.29889 -2.05007 0
M  V30 11281 H 1060.29 3.33318 -2.29524 0
M  V30 11282 H 1057.04 2.39731 -4.08443 0
M  V30 11283 H 1057.47 1.59451 -6.57955 0
M  V30 11284 H 1062.11 2.02983 -3.70888 0
M  V30 11285 H 1059.83 0.941397 -8.02598 0
M  V30 11286 H 1063.41 1.28533 -5.67425 0
M  V30 11287 H 1062.29 0.749804 -7.80607 0
M  V30 11288 N 1059.8 1.27835 0.921735 0
M  V30 11289 C 1061.04 1.14523 1.67005 0
M  V30 11290 C 1061.37 -0.307776 1.92049 0
M  V30 11291 O 1060.63 -1.24103 1.51317 0
M  V30 11292 C 1060.93 1.88054 3.03925 0
M  V30 11293 C 1060.59 3.37886 2.9857 0
M  V30 11294 C 1059.25 3.78752 2.96817 0
M  V30 11295 C 1061.61 4.33462 2.89414 0
M  V30 11296 C 1058.93 5.13549 2.83698 0
M  V30 11297 C 1061.29 5.68322 2.77836 0
M  V30 11298 C 1059.95 6.08475 2.74436 0
M  V30 11299 H 1059.22 0.419068 0.611116 0
M  V30 11300 H 1061.87 1.58515 1.07449 0
M  V30 11301 H 1060.17 1.36587 3.67221 0
M  V30 11302 H 1061.87 1.75176 3.60714 0
M  V30 11303 H 1058.46 3.05389 3.00725 0
M  V30 11304 H 1062.64 4.02857 2.89862 0
M  V30 11305 H 1057.9 5.43796 2.79456 0
M  V30 11306 H 1062.07 6.42048 2.69717 0
M  V30 11307 H 1059.7 7.12877 2.64027 0
M  V30 11308 N 1061.28 -1.12907 1.09954 0
M  V30 11309 C 1062.52 -1.84579 0.840155 0
M  V30 11310 C 1062.85 -1.83605 -0.632692 0
M  V30 11311 O 1062.13 -1.27803 -1.46617 0
M  V30 11312 C 1062.41 -3.32489 1.38286 0
M  V30 11313 C 1062.27 -3.41946 2.92221 0
M  V30 11314 C 1063.58 -4.28091 1.0211 0
M  V30 11315 H 1060.7 -0.670169 0.306663 0
M  V30 11316 H 1063.35 -1.3249 1.36185 0
M  V30 11317 H 1061.5 -3.76978 0.939123 0
M  V30 11318 H 1063.17 -3.06128 3.45085 0
M  V30 11319 H 1061.41 -2.8265 3.29077 0
M  V30 11320 H 1062.08 -4.45983 3.25274 0
M  V30 11321 H 1064.56 -3.91701 1.4039 0
M  V30 11322 H 1063.43 -5.30005 1.42781 0
M  V30 11323 H 1063.69 -4.42044 -0.0700753 0
M  V30 11324 N 1062.75 -0.88754 -1.30232 0
M  V30 11325 C 1064 -0.508031 -1.96334 0
M  V30 11326 C 1064.33 0.940905 -1.69884 0
M  V30 11327 O 1063.61 1.66523 -1.005 0
M  V30 11328 C 1063.89 -0.786566 -3.51405 0
M  V30 11329 C 1063.74 -2.28632 -3.8736 0
M  V30 11330 C 1065.06 -0.264803 -4.39303 0
M  V30 11331 H 1062.18 -0.186051 -0.71313 0
M  V30 11332 H 1064.82 -1.112 -1.5406 0
M  V30 11333 H 1062.97 -0.272523 -3.87543 0
M  V30 11334 H 1064.65 -2.86896 -3.61231 0
M  V30 11335 H 1062.89 -2.75194 -3.35337 0
M  V30 11336 H 1063.56 -2.43181 -4.95547 0
M  V30 11337 H 1066.04 -0.704809 -4.10087 0
M  V30 11338 H 1064.91 -0.488998 -5.46717 0
M  V30 11339 H 1065.17 0.834055 -4.34161 0
M  V30 11340 N 1064.23 1.43628 -0.648757 0
M  V30 11341 C 1065.51 1.95391 -0.0904551 0
M  V30 11342 C 1065.89 1.59021 1.38837 0
M  V30 11343 O 1065.24 0.873078 2.11163 0
M  V30 11344 C 1065.45 3.47418 -0.33196 0
M  V30 11345 C 1066.8 4.23952 -0.234521 0
M  V30 11346 O 1067.82 3.55218 -0.264276 0
M  V30 11347 O 1066.68 5.46282 -0.154428 0
M  V30 11348 H 1063.77 0.82691 0.0121884 0
M  V30 11349 H 1066.32 1.5359 -0.721685 0
M  V30 11350 H 1065.09 3.67001 -1.35741 0
M  V30 11351 H 1064.71 3.96207 0.332556 0
M  V30 11352 N 1065.71 0.390394 1.52688 0
M  V30 11353 C 1067.12 -0.083394 1.86514 0
M  V30 11354 C 1067.47 -1.46057 1.31003 0
M  V30 11355 O 1066.6 -2.06663 0.641809 0
M  V30 11356 C 1067.19 -0.158102 3.38431 0
M  V30 11357 C 1065.75 -0.576186 3.71964 0
M  V30 11358 C 1064.9 0.261156 2.76068 0
M  V30 11359 H 1067.85 0.608226 1.46582 0
M  V30 11360 H 1067.87 -0.977023 3.67742 0
M  V30 11361 H 1067.38 0.844365 3.78803 0
M  V30 11362 H 1065.48 -1.58598 3.37161 0
M  V30 11363 H 1065.6 -0.333577 4.77937 0
M  V30 11364 H 1063.96 -0.273737 2.53225 0
M  V30 11365 H 1064.74 1.26162 3.19277 0
M  V30 11366 N 1067.19 -1.57141 0.120249 0
M  V30 11367 C 1068.41 -2.00017 -0.548454 0
M  V30 11368 C 1068.84 -0.999433 -1.59352 0
M  V30 11369 O 1068.2 0.0286978 -1.81277 0
M  V30 11370 C 1068.24 -3.41766 -1.15015 0
M  V30 11371 O 1067.35 -3.44589 -2.26566 0
M  V30 11372 H 1066.69 -0.649739 -0.136875 0
M  V30 11373 H 1069.22 -2.03529 0.209092 0
M  V30 11374 H 1069.23 -3.80001 -1.48537 0
M  V30 11375 H 1067.9 -4.14117 -0.384681 0
M  V30 11376 H 1066.48 -3.18174 -1.94473 0
M  V30 11377 N 1068.67 0.153526 -1.5685 0
M  V30 11378 C 1069.62 1.19478 -1.94188 0
M  V30 11379 C 1070.6 1.38889 -0.812329 0
M  V30 11380 O 1071.79 1.4056 -1.07572 0
M  V30 11381 C 1068.92 2.53 -2.32047 0
M  V30 11382 C 1068.01 2.37209 -3.51557 0
M  V30 11383 N 1068.4 1.91162 -4.68285 0
M  V30 11384 C 1066.7 2.67981 -3.56514 0
M  V30 11385 C 1067.4 1.88259 -5.50394 0
M  V30 11386 N 1066.37 2.31329 -4.91923 0
M  V30 11387 H 1070.18 0.830748 -2.81915 0
M  V30 11388 H 1067.69 0.361643 -1.58322 0
M  V30 11389 H 1069.69 3.28264 -2.56998 0
M  V30 11390 H 1068.35 2.90191 -1.45669 0
M  V30 11391 H 1069.36 1.61227 -4.92165 0
M  V30 11392 H 1066.03 3.0909 -2.80659 0
M  V30 11393 H 1067.42 1.54205 -6.53965 0
M  V30 11394 N 1070.14 1.51827 0.422667 0
M  V30 11395 C 1071.37 1.69337 1.19748 0
M  V30 11396 C 1071.79 0.396312 1.83878 0
M  V30 11397 O 1071.15 -0.644976 1.6944 0
M  V30 11398 C 1071.2 2.82082 2.24637 0
M  V30 11399 O 1070.3 2.46708 3.30468 0
M  V30 11400 H 1069.65 0.564154 0.35018 0
M  V30 11401 H 1072.18 1.98465 0.497289 0
M  V30 11402 H 1072.19 3.06599 2.69186 0
M  V30 11403 H 1070.86 3.76195 1.77341 0
M  V30 11404 H 1069.44 2.32815 2.91293 0
M  V30 11405 N 1071.62 -0.679052 1.4222 0
M  V30 11406 C 1072.87 -1.44125 1.42674 0
M  V30 11407 C 1073.2 -1.94156 0.041438 0
M  V30 11408 O 1072.48 -1.70628 -0.93361 0
M  V30 11409 C 1072.76 -2.64133 2.44756 0
M  V30 11410 C 1072.61 -2.19761 3.9246 0
M  V30 11411 C 1073.93 -3.66347 2.43881 0
M  V30 11412 H 1071.05 -0.522729 0.519541 0
M  V30 11413 H 1073.69 -0.772067 1.73606 0
M  V30 11414 H 1071.84 -3.21225 2.1851 0
M  V30 11415 H 1073.51 -1.67869 4.29671 0
M  V30 11416 H 1071.76 -1.51377 4.06531 0
M  V30 11417 H 1072.43 -3.05944 4.59459 0
M  V30 11418 H 1074.9 -3.18963 2.67211 0
M  V30 11419 H 1073.78 -4.47902 3.17293 0
M  V30 11420 H 1074.04 -4.17183 1.46325 0
M  V30 11421 N 1073.1 -1.28322 -0.914942 0
M  V30 11422 C 1074.35 -1.15578 -1.66642 0
M  V30 11423 C 1074.68 0.295209 -1.91943 0
M  V30 11424 O 1073.95 1.21482 -1.51896 0
M  V30 11425 C 1074.24 -1.9535 -3.02507 0
M  V30 11426 C 1074.09 -3.48504 -2.84367 0
M  V30 11427 C 1075.41 -1.76798 -4.03027 0
M  V30 11428 H 1072.53 -0.421234 -0.604757 0
M  V30 11429 H 1075.17 -1.57625 -1.06087 0
M  V30 11430 H 1073.32 -1.59619 -3.54195 0
M  V30 11431 H 1074.99 -3.94135 -2.39699 0
M  V30 11432 H 1073.24 -3.74198 -2.1945 0
M  V30 11433 H 1073.91 -3.99576 -3.80845 0
M  V30 11434 H 1076.38 -2.07977 -3.60395 0
M  V30 11435 H 1075.26 -2.34987 -4.96057 0
M  V30 11436 H 1075.52 -0.719162 -4.36211 0
M  V30 11437 N 1074.58 1.12322 -1.10551 0
M  V30 11438 C 1075.86 1.80201 -0.760715 0
M  V30 11439 C 1076.24 1.97228 0.752628 0
M  V30 11440 O 1075.58 1.54958 1.67929 0
M  V30 11441 C 1075.79 3.14491 -1.51316 0
M  V30 11442 C 1077.14 3.89671 -1.68647 0
M  V30 11443 O 1078.17 3.24151 -1.47664 0
M  V30 11444 O 1077.02 5.0722 -2.03445 0
M  V30 11445 H 1074.12 0.780084 -0.274587 0
M  V30 11446 H 1076.66 1.19147 -1.20839 0
M  V30 11447 H 1075.44 2.97396 -2.54306 0
M  V30 11448 H 1075.06 3.83253 -1.05842 0
M  V30 11449 N 1076.06 0.894434 1.2976 0
M  V30 11450 C 1077.3 0.517669 1.95771 0
M  V30 11451 C 1077.63 -0.935028 1.70551 0
M  V30 11452 O 1076.89 -1.67722 1.00835 0
M  V30 11453 C 1077.19 0.750307 3.49435 0
M  V30 11454 C 1076.85 2.17955 3.94723 0
M  V30 11455 C 1075.51 2.57036 4.068 0
M  V30 11456 C 1077.87 3.11053 4.18205 0
M  V30 11457 C 1075.19 3.88406 4.39724 0
M  V30 11458 C 1077.55 4.41966 4.52602 0
M  V30 11459 C 1076.21 4.80927 4.62888 0
M  V30 11460 H 1075.48 0.189428 0.716378 0
M  V30 11461 H 1078.13 1.13209 1.54454 0
M  V30 11462 H 1076.43 0.0529242 3.91764 0
M  V30 11463 H 1078.13 0.438251 3.98598 0
M  V30 11464 H 1074.72 1.86622 3.85837 0
M  V30 11465 H 1078.9 2.82076 4.08347 0
M  V30 11466 H 1074.16 4.18321 4.4589 0
M  V30 11467 H 1078.33 5.14134 4.69722 0
M  V30 11468 H 1075.96 5.82759 4.88156 0
M  V30 11469 N 1077.53 -1.43282 0.656365 0
M  V30 11470 C 1078.47 -2.29087 -0.0720378 0
M  V30 11471 C 1079.48 -1.4268 -0.783982 0
M  V30 11472 O 1080.67 -1.66585 -0.641213 0
M  V30 11473 C 1077.77 -3.19676 -1.12519 0
M  V30 11474 C 1076.94 -4.34638 -0.490756 0
M  V30 11475 C 1076 -5.06079 -1.44121 0
M  V30 11476 O 1075.03 -5.6124 -0.948595 0
M  V30 11477 N 1076.23 -5.09872 -2.77509 0
M  V30 11478 H 1078.99 -2.92241 0.664456 0
M  V30 11479 H 1076.55 -1.54006 0.499383 0
M  V30 11480 H 1078.55 -3.64334 -1.76189 0
M  V30 11481 H 1077.12 -2.581 -1.76362 0
M  V30 11482 H 1076.34 -3.92857 0.3251 0
M  V30 11483 H 1077.62 -5.08777 -0.0480061 0
M  V30 11484 H 1077.02 -4.66433 -3.20088 0
M  V30 11485 H 1075.58 -5.58237 -3.36474 0
M  V30 11486 N 1079.01 -0.398486 -1.52479 0
M  V30 11487 C 1080.29 0.238776 -1.94137 0
M  V30 11488 C 1080.67 1.63558 -1.33462 0
M  V30 11489 O 1080.02 2.22821 -0.506272 0
M  V30 11490 C 1080.23 0.255863 -3.48061 0
M  V30 11491 C 1081.58 0.480376 -4.21874 0
M  V30 11492 O 1082.6 0.335679 -3.54615 0
M  V30 11493 O 1081.46 0.764654 -5.41124 0
M  V30 11494 H 1078.55 0.150806 -0.813134 0
M  V30 11495 H 1081.1 -0.453659 -1.63524 0
M  V30 11496 H 1079.87 -0.722171 -3.84578 0
M  V30 11497 H 1079.49 0.99284 -3.85004 0
M  V30 11498 N 1080.49 1.57075 -0.12858 0
M  V30 11499 C 1081.42 2.12907 0.848708 0
M  V30 11500 C 1082.44 1.07406 1.22343 0
M  V30 11501 O 1083.63 1.34746 1.17071 0
M  V30 11502 C 1080.73 2.62167 2.1476 0
M  V30 11503 C 1079.9 3.91871 1.94309 0
M  V30 11504 C 1078.96 4.26629 3.08016 0
M  V30 11505 O 1077.98 4.9528 2.80511 0
M  V30 11506 N 1079.19 3.84721 4.34706 0
M  V30 11507 H 1081.95 2.97387 0.371636 0
M  V30 11508 H 1079.51 1.61805 0.0555574 0
M  V30 11509 H 1081.5 2.82444 2.89841 0
M  V30 11510 H 1080.07 1.82514 2.53786 0
M  V30 11511 H 1079.29 3.80406 1.03367 0
M  V30 11512 H 1080.58 4.76662 1.77962 0
M  V30 11513 H 1079.98 3.2937 4.59926 0
M  V30 11514 H 1078.54 4.10087 5.06628 0
M  V30 11515 N 1081.97 -0.145205 1.5693 0
M  V30 11516 C 1083.39 -0.497905 1.51635 0
M  V30 11517 C 1083.59 -1.8328 0.837301 0
M  V30 11518 O 1082.64 -2.49172 0.408584 0
M  V30 11519 C 1083.95 -0.506557 2.96403 0
M  V30 11520 C 1085.5 -0.591947 3.07352 0
M  V30 11521 C 1085.98 -0.631244 4.53629 0
M  V30 11522 N 1087.47 -0.693417 4.5798 0
M  V30 11523 C 1088.2 -0.744836 5.68542 0
M  V30 11524 N 1087.7 -0.755492 6.88668 0
M  V30 11525 N 1089.49 -0.785854 5.5658 0
M  V30 11526 H 1081.64 0.729779 1.99469 0
M  V30 11527 H 1083.91 0.266295 0.90983 0
M  V30 11528 H 1083.61 0.406127 3.49347 0
M  V30 11529 H 1083.49 -1.34383 3.5245 0
M  V30 11530 H 1085.87 -1.49505 2.54425 0
M  V30 11531 H 1085.95 0.272507 2.54344 0
M  V30 11532 H 1085.6 0.26771 5.07194 0
M  V30 11533 H 1085.53 -1.51221 5.0442 0
M  V30 11534 H 1088.02 -0.692408 3.71503 0
M  V30 11535 H 1088.33 -0.796624 7.68683 0
M  V30 11536 H 1086.68 -0.723339 6.91226 0
M  V30 11537 H 1089.87 -0.774712 4.61645 0
M  V30 11538 H 1090.04 -0.822461 6.42759 0
M  V30 11539 N 1083.45 -1.52049 -0.414609 0
M  V30 11540 C 1084.68 -1.69679 -1.18392 0
M  V30 11541 C 1085.09 -0.403881 -1.84429 0
M  V30 11542 O 1084.45 0.619636 -1.71659 0
M  V30 11543 C 1084.5 -2.82855 -2.25112 0
M  V30 11544 O 1084.22 -4.07138 -1.61772 0
M  V30 11545 C 1085.72 -3.11948 -3.14965 0
M  V30 11546 H 1082.94 -0.56879 -0.355977 0
M  V30 11547 H 1085.48 -1.9858 -0.488505 0
M  V30 11548 H 1083.64 -2.56488 -2.90332 0
M  V30 11549 H 1084.05 -4.70163 -2.32479 0
M  V30 11550 H 1085.53 -3.94665 -3.85932 0
M  V30 11551 H 1086 -2.25276 -3.77024 0
M  V30 11552 H 1086.61 -3.40059 -2.55421 0
M  V30 11553 N 1084.93 0.6715 -1.42579 0
M  V30 11554 C 1085.86 1.79693 -1.49107 0
M  V30 11555 C 1086.84 1.66516 -0.347338 0
M  V30 11556 O 1088.02 1.85887 -0.562094 0
M  V30 11557 C 1085.15 3.1801 -1.39596 0
M  V30 11558 C 1084.11 3.45926 -2.5203 0
M  V30 11559 C 1083.43 4.83852 -2.27577 0
M  V30 11560 C 1084.73 3.4249 -3.94333 0
M  V30 11561 H 1086.43 1.74486 -2.433 0
M  V30 11562 H 1083.97 0.838042 -1.17102 0
M  V30 11563 H 1085.92 3.96478 -1.42771 0
M  V30 11564 H 1084.65 3.23901 -0.418989 0
M  V30 11565 H 1083.31 2.6982 -2.48178 0
M  V30 11566 H 1082.96 4.86398 -1.28165 0
M  V30 11567 H 1082.66 5.03493 -3.02934 0
M  V30 11568 H 1084.18 5.646 -2.32506 0
M  V30 11569 H 1085.59 4.10922 -3.9977 0
M  V30 11570 H 1083.99 3.73666 -4.69568 0
M  V30 11571 H 1085.06 2.41002 -4.20768 0
M  V30 11572 N 1086.4 1.28806 0.908124 0
M  V30 11573 C 1087.68 1.06981 1.63751 0
M  V30 11574 C 1088.06 -0.388936 2.07486 0
M  V30 11575 O 1087.41 -1.37611 1.82415 0
M  V30 11576 C 1087.62 2.04962 2.82474 0
M  V30 11577 C 1088.97 2.35418 3.5336 0
M  V30 11578 O 1089.99 2.03091 2.92631 0
M  V30 11579 O 1088.85 2.90617 4.62822 0
M  V30 11580 H 1085.94 0.409267 0.71863 0
M  V30 11581 H 1088.49 1.40146 0.956934 0
M  V30 11582 H 1087.26 3.03254 2.47291 0
M  V30 11583 H 1086.88 1.72476 3.58242 0
M  V30 11584 N 1087.88 -1.11734 1.11145 0
M  V30 11585 C 1089.29 -1.64928 0.874959 0
M  V30 11586 C 1089.64 -1.87012 -0.593375 0
M  V30 11587 O 1088.77 -1.60206 -1.45475 0
M  V30 11588 C 1089.36 -2.99608 1.58178 0
M  V30 11589 C 1087.92 -3.49723 1.39179 0
M  V30 11590 C 1087.07 -2.24595 1.62642 0
M  V30 11591 H 1090.02 -0.954154 1.26813 0
M  V30 11592 H 1090.04 -3.66434 1.02501 0
M  V30 11593 H 1089.55 -2.83504 2.65042 0
M  V30 11594 H 1087.65 -3.70998 0.345111 0
M  V30 11595 H 1087.77 -4.28711 2.13878 0
M  V30 11596 H 1086.13 -2.32067 1.04961 0
M  V30 11597 H 1086.91 -2.11036 2.70774 0
M  V30 11598 N 1089.36 -0.901303 -1.29284 0
M  V30 11599 C 1090.78 -0.597634 -1.47988 0
M  V30 11600 C 1090.98 0.860434 -1.82205 0
M  V30 11601 O 1090.03 1.64049 -1.91948 0
M  V30 11602 C 1091.34 -1.52484 -2.5917 0
M  V30 11603 C 1092.89 -1.53021 -2.73045 0
M  V30 11604 C 1093.37 -2.44373 -3.87357 0
M  V30 11605 N 1094.86 -2.42429 -3.94693 0
M  V30 11606 C 1095.59 -3.09817 -4.82495 0
M  V30 11607 N 1095.09 -3.86489 -5.74976 0
M  V30 11608 N 1096.88 -2.98966 -4.76 0
M  V30 11609 H 1089.03 -1.84432 -1.0535 0
M  V30 11610 H 1091.3 -0.790367 -0.523473 0
M  V30 11611 H 1091 -2.56378 -2.40756 0
M  V30 11612 H 1090.88 -1.24657 -3.56006 0
M  V30 11613 H 1093.26 -0.498709 -2.90855 0
M  V30 11614 H 1093.34 -1.84886 -1.76779 0
M  V30 11615 H 1092.99 -3.47618 -3.70302 0
M  V30 11616 H 1092.92 -2.09817 -4.82995 0
M  V30 11617 H 1095.41 -1.86724 -3.28546 0
M  V30 11618 H 1095.72 -4.34959 -6.38773 0
M  V30 11619 H 1094.07 -3.90596 -5.74857 0
M  V30 11620 H 1097.26 -2.38581 -4.02737 0
M  V30 11621 H 1097.43 -3.51758 -5.44215 0
M  V30 11622 N 1090.84 1.42931 -0.663954 0
M  V30 11623 C 1092.08 2.01683 -0.181738 0
M  V30 11624 C 1092.41 1.52437 1.20802 0
M  V30 11625 O 1091.67 0.71254 1.82267 0
M  V30 11626 C 1091.97 3.57072 -0.153163 0
M  V30 11627 C 1091.63 4.25706 -1.48612 0
M  V30 11628 C 1090.29 4.4417 -1.85111 0
M  V30 11629 C 1092.65 4.6448 -2.36448 0
M  V30 11630 C 1089.97 4.98677 -3.09092 0
M  V30 11631 C 1092.33 5.20362 -3.5973 0
M  V30 11632 C 1090.99 5.37041 -3.96412 0
M  V30 11633 H 1090.26 0.73801 -0.0665026 0
M  V30 11634 H 1092.91 1.71264 -0.856791 0
M  V30 11635 H 1091.21 3.87095 0.605372 0
M  V30 11636 H 1092.91 4.00299 0.236981 0
M  V30 11637 H 1089.5 4.11686 -1.19215 0
M  V30 11638 H 1093.68 4.49898 -2.09537 0
M  V30 11639 H 1088.94 5.09776 -3.37547 0
M  V30 11640 H 1093.11 5.49352 -4.28001 0
M  V30 11641 H 1090.74 5.79042 -4.92559 0
M  V30 11642 N 1092.32 0.406567 1.52266 0
M  V30 11643 C 1093.28 -0.408251 2.25535 0
M  V30 11644 C 1094.28 -0.975795 1.27808 0
M  V30 11645 O 1095.47 -0.855077 1.5177 0
M  V30 11646 C 1092.6 -1.57443 3.02365 0
M  V30 11647 H 1093.79 0.233459 2.9899 0
M  V30 11648 H 1091.35 0.159032 1.55489 0
M  V30 11649 H 1092.08 -2.25308 2.33252 0
M  V30 11650 H 1091.87 -1.17399 3.74112 0
M  V30 11651 H 1093.36 -2.15088 3.57948 0
M  V30 11652 N 1093.79 -1.57004 0.136909 0
M  V30 11653 C 1095.21 -1.58082 -0.21958 0
M  V30 11654 C 1095.41 -1.15065 -1.65415 0
M  V30 11655 O 1094.47 -0.846284 -2.37896 0
M  V30 11656 C 1095.78 -3.00685 0.0300112 0
M  V30 11657 C 1097.33 -3.12981 -0.0344899 0
M  V30 11658 C 1097.8 -4.57615 0.187639 0
M  V30 11659 N 1099.29 -4.63005 0.134219 0
M  V30 11660 C 1100.03 -5.72712 0.280743 0
M  V30 11661 N 1099.52 -6.91104 0.48443 0
M  V30 11662 N 1101.32 -5.61673 0.219055 0
M  V30 11663 H 1093.47 -1.83262 1.07372 0
M  V30 11664 H 1095.73 -0.847776 0.424241 0
M  V30 11665 H 1095.44 -3.36509 1.02247 0
M  V30 11666 H 1095.31 -3.70762 -0.693918 0
M  V30 11667 H 1097.7 -2.77004 -1.01749 0
M  V30 11668 H 1097.78 -2.45411 0.721608 0
M  V30 11669 H 1097.42 -4.94295 1.16769 0
M  V30 11670 H 1097.35 -5.23299 -0.588661 0
M  V30 11671 H 1099.84 -3.77895 -0.0189681 0
M  V30 11672 H 1100.16 -7.7057 0.586613 0
M  V30 11673 H 1098.5 -6.93047 0.520627 0
M  V30 11674 H 1101.69 -4.68061 0.0607606 0
M  V30 11675 H 1101.87 -6.47125 0.336683 0
M  V30 11676 N 1095.27 0.136881 -1.57004 0
M  V30 11677 C 1096.52 0.8461 -1.83536 0
M  V30 11678 C 1096.84 1.81246 -0.71937 0
M  V30 11679 O 1096.11 1.94191 0.258161 0
M  V30 11680 H 1094.69 0.315446 -0.677128 0
M  V30 11681 H 1097.35 0.128469 -1.94476 0
M  V30 11682 H 1096.45 1.40221 -2.78827 0
M  V30 11683 N 1096.75 1.52266 0.40654 0
M  V30 11684 C 1098 1.66699 1.15496 0
M  V30 11685 C 1098.33 0.397019 1.90098 0
M  V30 11686 O 1097.6 -0.604646 1.84863 0
M  V30 11687 C 1097.89 2.8907 2.14734 0
M  V30 11688 C 1097.74 4.26123 1.44012 0
M  V30 11689 C 1099.06 3.06966 3.15373 0
M  V30 11690 H 1096.18 0.606642 0.418515 0
M  V30 11691 H 1098.82 1.84826 0.440381 0
M  V30 11692 H 1096.97 2.73745 2.75673 0
M  V30 11693 H 1098.64 4.5318 0.861722 0
M  V30 11694 H 1096.89 4.27406 0.742064 0
M  V30 11695 H 1097.56 5.07799 2.16436 0
M  V30 11696 H 1100.03 3.21205 2.64512 0
M  V30 11697 H 1098.91 3.94097 3.82072 0
M  V30 11698 H 1099.17 2.20395 3.83247 0
M  V30 11699 N 1098.23 -0.663929 1.42933 0
M  V30 11700 C 1099.16 -1.78899 1.50058 0
M  V30 11701 C 1100.14 -1.66329 0.356164 0
M  V30 11702 O 1101.32 -1.85587 0.571944 0
M  V30 11703 C 1098.45 -3.17265 1.41281 0
M  V30 11704 C 1097.41 -3.44584 2.53861 0
M  V30 11705 C 1096.73 -4.82638 2.3014 0
M  V30 11706 C 1098.03 -3.40394 3.96143 0
M  V30 11707 H 1099.73 -1.73194 2.44222 0
M  V30 11708 H 1097.27 -0.83182 1.17545 0
M  V30 11709 H 1099.23 -3.95715 1.44872 0
M  V30 11710 H 1097.95 -3.23675 0.43616 0
M  V30 11711 H 1096.61 -2.685 2.49606 0
M  V30 11712 H 1096.26 -4.85711 1.30743 0
M  V30 11713 H 1095.96 -5.01879 3.056 0
M  V30 11714 H 1097.48 -5.63359 2.35497 0
M  V30 11715 H 1098.9 -4.08796 4.01943 0
M  V30 11716 H 1097.29 -3.7117 4.71543 0
M  V30 11717 H 1098.36 -2.38767 4.22041 0
M  V30 11718 N 1099.71 -1.29285 -0.901281 0
M  V30 11719 C 1100.65 -1.1428 -2.00521 0
M  V30 11720 C 1101.62 -0.0365428 -1.6606 0
M  V30 11721 O 1102.81 -0.203771 -1.89709 0
M  V30 11722 C 1099.95 -0.823671 -3.35126 0
M  V30 11723 C 1099.06 -2.01021 -3.8238 0
M  V30 11724 C 1098.2 -1.6306 -5.05554 0
M  V30 11725 C 1097.24 -2.78304 -5.45173 0
M  V30 11726 N 1096.37 -2.4075 -6.59533 0
M  V30 11727 H 1101.21 -2.08729 -2.12688 0
M  V30 11728 H 1098.75 -1.0387 -1.04161 0
M  V30 11729 H 1100.71 -0.61934 -4.12577 0
M  V30 11730 H 1099.34 0.0839113 -3.22691 0
M  V30 11731 H 1098.39 -2.32629 -3.00978 0
M  V30 11732 H 1099.7 -2.8738 -4.07694 0
M  V30 11733 H 1098.86 -1.38906 -5.90584 0
M  V30 11734 H 1097.59 -0.738464 -4.82077 0
M  V30 11735 H 1096.6 -3.03142 -4.58678 0
M  V30 11736 H 1097.82 -3.68179 -5.70632 0
M  V30 11737 H 1095.77 -1.54022 -6.37662 0
M  V30 11738 H 1095.69 -3.20643 -6.84634 0
M  V30 11739 H 1096.96 -2.19912 -7.47836 0
M  V30 11740 N 1101.18 1.11143 -1.11736 0
M  V30 11741 C 1102.42 1.84576 -0.878119 0
M  V30 11742 C 1102.79 1.82851 0.585605 0
M  V30 11743 O 1103.99 2.51763 0.941732 0
M  V30 11744 C 1102.26 3.27628 -1.4281 0
M  V30 11745 S 1103.82 4.18276 -1.3263 0
M  V30 11746 H 1100.64 0.636442 -0.316958 0
M  V30 11747 H 1103.24 1.33794 -1.42546 0
M  V30 11748 H 1101.94 3.2645 -2.48714 0
M  V30 11749 H 1101.47 3.83479 -0.877925 0
M  V30 11750 H 1103.49 4.95335 -0.292878 0
M  V30 11751 N 1102.66 0.908147 1.28804 0
M  V30 11752 C 1103.94 0.457561 1.90173 0
M  V30 11753 C 1104.32 -1.06333 1.82364 0
M  V30 11754 O 1103.67 -1.90892 1.25589 0
M  V30 11755 C 1103.88 0.981624 3.34911 0
M  V30 11756 C 1105.23 1.03037 4.11908 0
M  V30 11757 O 1106.25 0.929878 3.43848 0
M  V30 11758 O 1105.11 1.18257 5.33552 0
M  V30 11759 H 1102.2 0.144081 0.814352 0
M  V30 11760 H 1104.75 0.998565 1.37211 0
M  V30 11761 H 1103.52 2.02561 3.34791 0
M  V30 11762 H 1103.14 0.421122 3.95364 0
M  V30 11763 N 1104.14 -1.42577 0.671525 0
M  V30 11764 C 1105.39 -2.00806 0.189663 0
M  V30 11765 C 1105.7 -1.537 -1.20978 0
M  V30 11766 O 1106.91 -2.04325 -1.78784 0
M  V30 11767 C 1105.36 -3.58744 0.288227 0
M  V30 11768 C 1104.97 -4.14839 1.69152 0
M  V30 11769 C 1106.72 -4.24285 -0.13509 0
M  V30 11770 C 1104.62 -5.65131 1.74302 0
M  V30 11771 H 1103.55 -0.751004 0.067146 0
M  V30 11772 H 1106.2 -1.63338 0.83623 0
M  V30 11773 H 1104.59 -3.937 -0.426175 0
M  V30 11774 H 1105.76 -3.91349 2.43274 0
M  V30 11775 H 1104.08 -3.61738 2.0624 0
M  V30 11776 H 1106.67 -5.34573 -0.116709 0
M  V30 11777 H 1107.02 -3.99527 -1.16977 0
M  V30 11778 H 1107.55 -3.94278 0.528191 0
M  V30 11779 H 1104.29 -5.94682 2.75742 0
M  V30 11780 H 1103.81 -5.90621 1.04531 0
M  V30 11781 H 1105.49 -6.29491 1.49498 0
M  V30 11782 N 1105.62 -0.414636 -1.52048 0
M  V30 11783 C 1106.84 0.161137 -2.06773 0
M  V30 11784 C 1107.27 1.37628 -1.2822 0
M  V30 11785 O 1106.63 1.78562 -0.313915 0
M  V30 11786 C 1106.67 0.48452 -3.5733 0
M  V30 11787 O 1105.78 1.57466 -3.81154 0
M  V30 11788 H 1105.12 0.0118003 -0.663895 0
M  V30 11789 H 1107.65 -0.589424 -1.95926 0
M  V30 11790 H 1107.66 0.741567 -4.01204 0
M  V30 11791 H 1106.33 -0.403733 -4.13936 0
M  V30 11792 H 1104.91 1.30935 -3.49157 0
M  V30 11793 N 1107.1 1.56929 -0.145233 0
M  V30 11794 C 1108.37 1.8767 0.551288 0
M  V30 11795 C 1108.75 1.05089 1.83083 0
M  V30 11796 O 1108.1 0.137201 2.28088 0
M  V30 11797 C 1108.31 3.39268 0.818445 0
M  V30 11798 C 1109.66 4.08447 1.16 0
M  V30 11799 O 1110.68 3.44436 0.907857 0
M  V30 11800 O 1109.54 5.21488 1.63441 0
M  V30 11801 H 1106.64 0.777788 0.281024 0
M  V30 11802 H 1109.18 1.68724 -0.181712 0
M  V30 11803 H 1107.95 3.91203 -0.0871897 0
M  V30 11804 H 1107.58 3.63735 1.60569 0
M  V30 11805 N 1108.58 -0.128553 1.57075 0
M  V30 11806 C 1109.51 -1.15953 2.02675 0
M  V30 11807 C 1110.49 -1.43743 0.909501 0
M  V30 11808 O 1111.67 -1.54348 1.17857 0
M  V30 11809 C 1108.8 -2.48813 2.423 0
M  V30 11810 C 1107.76 -2.35506 3.57381 0
M  V30 11811 C 1107.08 -3.73243 3.82875 0
M  V30 11812 C 1108.38 -1.82359 4.89431 0
M  V30 11813 H 1110.08 -0.780283 2.89054 0
M  V30 11814 H 1107.62 -0.373896 1.39061 0
M  V30 11815 H 1109.57 -3.21179 2.72804 0
M  V30 11816 H 1108.3 -2.88609 1.52881 0
M  V30 11817 H 1106.96 -1.6559 3.27071 0
M  V30 11818 H 1106.61 -4.10507 2.90677 0
M  V30 11819 H 1106.31 -3.65195 4.60333 0
M  V30 11820 H 1107.83 -4.47128 4.15823 0
M  V30 11821 H 1109.24 -2.44533 5.18533 0
M  V30 11822 H 1107.64 -1.85156 5.70822 0
M  V30 11823 H 1108.71 -0.780478 4.78578 0
M  V30 11824 N 1110.05 -1.5248 -0.398459 0
M  V30 11825 C 1111.28 -1.71221 -1.17039 0
M  V30 11826 C 1111.7 -0.425515 -1.83224 0
M  V30 11827 O 1111.06 0.617938 -1.70444 0
M  V30 11828 C 1111.11 -2.8562 -2.20121 0
M  V30 11829 O 1110.21 -2.51934 -3.26501 0
M  V30 11830 H 1109.55 -0.569654 -0.34116 0
M  V30 11831 H 1112.08 -1.99231 -0.465652 0
M  V30 11832 H 1112.09 -3.10842 -2.64275 0
M  V30 11833 H 1110.77 -3.78969 -1.71334 0
M  V30 11834 H 1109.35 -2.3742 -2.87552 0
M  V30 11835 N 1111.53 0.65634 -1.43283 0
M  V30 11836 C 1112.46 1.78101 -1.51004 0
M  V30 11837 C 1113.44 1.66138 -0.36498 0
M  V30 11838 O 1114.63 1.85281 -0.581778 0
M  V30 11839 C 1111.76 3.16511 -1.42961 0
M  V30 11840 C 1110.71 3.43233 -2.55685 0
M  V30 11841 C 1110.04 4.81411 -2.32696 0
M  V30 11842 C 1111.34 3.38288 -3.97943 0
M  V30 11843 H 1113.03 1.71896 -2.45137 0
M  V30 11844 H 1110.58 0.825575 -1.17984 0
M  V30 11845 H 1112.53 3.94941 -1.46968 0
M  V30 11846 H 1111.25 3.23439 -0.45332 0
M  V30 11847 H 1109.91 2.67173 -2.51026 0
M  V30 11848 H 1109.56 4.85011 -1.33317 0
M  V30 11849 H 1109.26 5.00251 -3.08257 0
M  V30 11850 H 1110.79 5.62102 -2.38481 0
M  V30 11851 H 1112.2 4.06659 -4.04106 0
M  V30 11852 H 1110.6 3.68664 -4.73505 0
M  V30 11853 H 1111.67 2.36525 -4.23301 0
M  V30 11854 N 1113.01 1.29761 0.894412 0
M  V30 11855 C 1114.26 1.17409 1.64006 0
M  V30 11856 C 1114.57 -0.272355 1.93695 0
M  V30 11857 O 1115.78 -0.517269 2.66527 0
M  V30 11858 C 1114.23 2.05379 2.95546 0
M  V30 11859 C 1113.84 3.54878 2.73433 0
M  V30 11860 C 1115.59 2.01765 3.73485 0
M  V30 11861 C 1113.49 4.34935 4.00731 0
M  V30 11862 H 1112.42 0.43583 0.615279 0
M  V30 11863 H 1115.07 1.5444 0.990983 0
M  V30 11864 H 1113.46 1.61222 3.61695 0
M  V30 11865 H 1114.63 4.07122 2.15844 0
M  V30 11866 H 1112.94 3.60218 2.08882 0
M  V30 11867 H 1115.54 2.58835 4.67877 0
M  V30 11868 H 1115.88 0.998876 4.04139 0
M  V30 11869 H 1116.42 2.43994 3.14184 0
M  V30 11870 H 1113.16 5.3747 3.75241 0
M  V30 11871 H 1112.68 3.87458 4.5786 0
M  V30 11872 H 1114.36 4.45875 4.68833 0
M  V30 11873 N 1114.49 -1.10549 1.12324 0
M  V30 11874 C 1115.73 -1.84108 0.887895 0
M  V30 11875 C 1116.09 -1.83159 -0.5759 0
M  V30 11876 O 1117.29 -2.52259 -0.928367 0
M  V30 11877 C 1115.56 -3.26866 1.44545 0
M  V30 11878 S 1117.12 -4.17567 1.34846 0
M  V30 11879 H 1113.94 -0.634752 0.320329 0
M  V30 11880 H 1116.54 -1.33036 1.43254 0
M  V30 11881 H 1115.25 -3.25126 2.50442 0
M  V30 11882 H 1114.78 -3.83008 0.89825 0
M  V30 11883 H 1116.79 -4.95173 0.319143 0
M  V30 11884 N 1115.97 -0.914965 -1.28321 0
M  V30 11885 C 1116.9 -0.421292 -2.29668 0
M  V30 11886 C 1117.88 0.511743 -1.6222 0
M  V30 11887 O 1119.06 0.419218 -1.89621 0
M  V30 11888 C 1116.19 0.338364 -3.45648 0
M  V30 11889 C 1115.15 -0.505646 -4.25003 0
M  V30 11890 C 1114.47 0.382421 -5.33331 0
M  V30 11891 C 1115.77 -1.76354 -4.91626 0
M  V30 11892 H 1117.47 -1.26826 -2.71211 0
M  V30 11893 H 1115.01 -0.611291 -1.30381 0
M  V30 11894 H 1116.96 0.694578 -4.15636 0
M  V30 11895 H 1115.69 1.21925 -3.02988 0
M  V30 11896 H 1114.35 -0.844395 -3.56743 0
M  V30 11897 H 1114 1.26189 -4.86914 0
M  V30 11898 H 1113.7 -0.17871 -5.87328 0
M  V30 11899 H 1115.22 0.73449 -6.06166 0
M  V30 11900 H 1116.63 -1.47616 -5.5397 0
M  V30 11901 H 1115.03 -2.26717 -5.55625 0
M  V30 11902 H 1116.1 -2.49063 -4.16048 0
M  V30 11903 N 1117.44 1.42219 -0.679077 0
M  V30 11904 C 1118.37 2.33493 -0.0174528 0
M  V30 11905 C 1119.35 1.50915 0.78477 0
M  V30 11906 O 1120.54 1.79504 0.741065 0
M  V30 11907 C 1117.67 3.34576 0.931463 0
M  V30 11908 C 1116.62 4.2734 0.237527 0
M  V30 11909 C 1115.95 5.18664 1.29967 0
M  V30 11910 C 1117.25 5.14729 -0.886082 0
M  V30 11911 H 1118.94 2.89068 -0.779748 0
M  V30 11912 H 1116.49 1.38993 -0.376419 0
M  V30 11913 H 1118.44 3.97343 1.40343 0
M  V30 11914 H 1117.17 2.77315 1.72523 0
M  V30 11915 H 1115.83 3.65973 -0.214245 0
M  V30 11916 H 1115.47 4.57727 2.08554 0
M  V30 11917 H 1115.17 5.81558 0.840463 0
M  V30 11918 H 1116.7 5.84308 1.77249 0
M  V30 11919 H 1118.11 5.71158 -0.495141 0
M  V30 11920 H 1116.51 5.86478 -1.27135 0
M  V30 11921 H 1117.58 4.52874 -1.733 0
M  V30 11922 N 1118.92 0.422693 1.51826 0
M  V30 11923 C 1120.17 -0.148348 2.01555 0
M  V30 11924 C 1120.49 -1.44483 1.30956 0
M  V30 11925 O 1119.76 -1.90904 0.439599 0
M  V30 11926 H 1118.34 -0.0578116 0.74476 0
M  V30 11927 H 1121 0.562046 1.8662 0
M  V30 11928 H 1120.1 -0.334766 3.10299 0
M  V30 11929 N 1120.4 -1.5685 0.153553 0
M  V30 11930 C 1121.63 -2.0041 -0.501949 0
M  V30 11931 C 1122.04 -1.03272 -1.58529 0
M  V30 11932 O 1121.38 -0.0227479 -1.83686 0
M  V30 11933 C 1121.44 -3.40402 -1.15613 0
M  V30 11934 C 1121.11 -4.56486 -0.216596 0
M  V30 11935 C 1122.1 -5.16894 0.558267 0
M  V30 11936 C 1119.79 -5.02162 -0.117592 0
M  V30 11937 C 1121.78 -6.21392 1.41951 0
M  V30 11938 C 1119.47 -6.06514 0.747255 0
M  V30 11939 C 1120.47 -6.65999 1.51441 0
M  V30 11940 O 1120.16 -7.6833 2.36483 0
M  V30 11941 H 1119.89 -0.66247 -0.134574 0
M  V30 11942 H 1122.44 -2.03908 0.247086 0
M  V30 11943 H 1120.67 -3.33762 -1.95294 0
M  V30 11944 H 1122.36 -3.68028 -1.71202 0
M  V30 11945 H 1123.13 -4.825 0.491851 0
M  V30 11946 H 1119.01 -4.55586 -0.704462 0
M  V30 11947 H 1122.55 -6.67751 2.01877 0
M  V30 11948 H 1118.45 -6.40335 0.81494 0
M  V30 11949 H 1119.21 -7.85578 2.29803 0
M  V30 11950 N 1121.88 0.120221 -1.57141 0
M  V30 11951 C 1123.1 0.84637 -1.89344 0
M  V30 11952 C 1123.53 1.72702 -0.745365 0
M  V30 11953 O 1122.89 1.7873 0.304155 0
M  V30 11954 C 1122.93 1.65671 -3.20289 0
M  V30 11955 O 1122.04 2.76353 -3.06109 0
M  V30 11956 H 1121.38 0.234132 -0.621352 0
M  V30 11957 H 1123.91 0.102986 -2.04341 0
M  V30 11958 H 1123.92 2.04621 -3.52979 0
M  V30 11959 H 1122.59 1.01023 -4.03444 0
M  V30 11960 H 1121.17 2.40615 -2.84884 0
M  V30 11961 N 1123.36 1.52689 0.390367 0
M  V30 11962 C 1124.29 1.72118 1.49836 0
M  V30 11963 C 1125.27 0.568986 1.5232 0
M  V30 11964 O 1126.45 0.798623 1.70746 0
M  V30 11965 C 1123.58 1.77754 2.88307 0
M  V30 11966 C 1122.62 2.99492 3.03655 0
M  V30 11967 S 1123.46 4.59496 2.74998 0
M  V30 11968 C 1124.61 4.67946 4.15665 0
M  V30 11969 H 1124.85 2.65826 1.3313 0
M  V30 11970 H 1122.38 1.42964 0.583153 0
M  V30 11971 H 1124.34 1.81687 3.68103 0
M  V30 11972 H 1123 0.851406 3.02341 0
M  V30 11973 H 1122.19 2.99973 4.05009 0
M  V30 11974 H 1121.79 2.93544 2.3175 0
M  V30 11975 H 1124.09 4.46476 5.09573 0
M  V30 11976 H 1125.03 5.69945 4.202 0
M  V30 11977 H 1125.44 3.96799 4.01511 0
M  V30 11978 N 1124.83 -0.648732 1.43629 0
M  V30 11979 C 1125.76 -1.77298 1.51947 0
M  V30 11980 C 1126.75 -1.65942 0.373785 0
M  V30 11981 O 1127.93 -1.8497 0.591596 0
M  V30 11982 C 1125.06 -3.15749 1.44638 0
M  V30 11983 C 1124.01 -3.41872 2.57502 0
M  V30 11984 C 1123.34 -4.8017 2.35246 0
M  V30 11985 C 1124.64 -3.36173 3.99731 0
M  V30 11986 H 1126.33 -1.70594 2.46045 0
M  V30 11987 H 1123.88 -0.819306 1.1842 0
M  V30 11988 H 1125.83 -3.94156 1.4906 0
M  V30 11989 H 1124.56 -3.23194 0.470466 0
M  V30 11990 H 1123.22 -2.65838 2.5244 0
M  V30 11991 H 1122.86 -4.84297 1.35887 0
M  V30 11992 H 1122.56 -4.9861 3.10906 0
M  V30 11993 H 1124.09 -5.6083 2.41459 0
M  V30 11994 H 1125.5 -4.0451 4.06257 0
M  V30 11995 H 1123.9 -3.66148 4.75453 0
M  V30 11996 H 1124.97 -2.34277 4.24549 0
M  V30 11997 N 1126.31 -1.30234 -0.887518 0
M  V30 11998 C 1127.24 -1.18969 -2.00919 0
M  V30 11999 C 1128.22 -0.080952 -1.69907 0
M  V30 12000 O 1129.41 -0.262546 -1.92417 0
M  V30 12001 C 1126.54 -0.878094 -3.36016 0
M  V30 12002 C 1125.49 -1.94449 -3.81279 0
M  V30 12003 C 1124.82 -1.48594 -5.13638 0
M  V30 12004 C 1126.12 -3.35519 -4.00281 0
M  V30 12005 H 1127.81 -2.12808 -2.10602 0
M  V30 12006 H 1125.36 -1.02454 -1.01189 0
M  V30 12007 H 1127.31 -0.785954 -4.14006 0
M  V30 12008 H 1126.04 0.0959779 -3.26459 0
M  V30 12009 H 1124.69 -2.02622 -3.05516 0
M  V30 12010 H 1124.34 -0.500204 -5.00507 0
M  V30 12011 H 1124.04 -2.19921 -5.44893 0
M  V30 12012 H 1125.57 -1.40754 -5.94156 0
M  V30 12013 H 1126.98 -3.30119 -4.68716 0
M  V30 12014 H 1125.38 -4.0491 -4.42909 0
M  V30 12015 H 1126.45 -3.77597 -3.04218 0
M  V30 12016 N 1127.79 1.09952 -1.12909 0
M  V30 12017 C 1128.72 2.15689 -0.745217 0
M  V30 12018 C 1129.7 1.60409 0.266007 0
M  V30 12019 O 1130.89 1.8783 0.158783 0
M  V30 12020 C 1128.01 3.38541 -0.103846 0
M  V30 12021 C 1127.06 4.12529 -1.0827 0
M  V30 12022 S 1127.89 4.67442 -2.61262 0
M  V30 12023 C 1129.05 5.936 -1.9847 0
M  V30 12024 H 1129.28 2.47918 -1.64086 0
M  V30 12025 H 1126.81 1.21817 -0.948682 0
M  V30 12026 H 1128.77 4.09677 0.259816 0
M  V30 12027 H 1127.43 3.04541 0.768982 0
M  V30 12028 H 1126.63 5.00632 -0.581653 0
M  V30 12029 H 1126.23 3.47228 -1.38955 0
M  V30 12030 H 1128.52 6.64308 -1.33048 0
M  V30 12031 H 1129.46 6.48374 -2.84634 0
M  V30 12032 H 1129.87 5.45864 -1.43848 0
M  V30 12033 N 1129.27 0.921757 1.27833 0
M  V30 12034 C 1130.51 0.559906 1.94918 0
M  V30 12035 C 1130.85 -0.895532 1.72319 0
M  V30 12036 O 1130.12 -1.638 1.04879 0
M  V30 12037 C 1130.41 0.879458 3.49196 0
M  V30 12038 C 1130.26 2.38821 3.81162 0
M  V30 12039 C 1131.58 0.381183 4.38446 0
M  V30 12040 H 1128.7 0.204893 0.707946 0
M  V30 12041 H 1131.34 1.15246 1.51058 0
M  V30 12042 H 1129.49 0.375177 3.86684 0
M  V30 12043 H 1131.16 2.96373 3.53498 0
M  V30 12044 H 1129.4 2.83988 3.27923 0
M  V30 12045 H 1130.07 2.56234 4.88926 0
M  V30 12046 H 1132.55 0.813289 4.08075 0
M  V30 12047 H 1131.43 0.633778 5.45229 0
M  V30 12048 H 1131.69 -0.718651 4.3622 0
M  V30 12049 N 1130.75 -1.41857 0.686609 0
M  V30 12050 C 1131.97 -2.05699 0.222561 0
M  V30 12051 C 1132.39 -1.51636 -1.12481 0
M  V30 12052 O 1131.75 -0.660925 -1.70112 0
M  V30 12053 C 1131.8 -3.61138 0.161818 0
M  V30 12054 O 1131.52 -4.13199 1.45596 0
M  V30 12055 C 1133.02 -4.42112 -0.324304 0
M  V30 12056 H 1130.24 -0.662665 0.10543 0
M  V30 12057 H 1132.78 -1.81788 0.936671 0
M  V30 12058 H 1130.94 -3.8412 -0.503056 0
M  V30 12059 H 1131.35 -5.0717 1.33712 0
M  V30 12060 H 1132.83 -5.51097 -0.315694 0
M  V30 12061 H 1133.3 -4.1756 -1.36164 0
M  V30 12062 H 1133.91 -4.24174 0.309251 0
M  V30 12063 N 1132.22 -0.430739 -1.51599 0
M  V30 12064 C 1133.46 0.137184 -2.03939 0
M  V30 12065 C 1133.83 1.40533 -1.30823 0
M  V30 12066 O 1135.03 2.05307 -1.73501 0
M  V30 12067 C 1133.3 0.357395 -3.55609 0
M  V30 12068 S 1134.86 0.889669 -4.29686 0
M  V30 12069 H 1131.68 0.0349429 -0.710141 0
M  V30 12070 H 1134.28 -0.588628 -1.86428 0
M  V30 12071 H 1132.98 -0.572011 -4.06394 0
M  V30 12072 H 1132.51 1.11047 -3.77402 0
M  V30 12073 H 1134.53 2.16797 -4.46333 0
M  V30 12074 N 1133.7 1.56767 -0.161869 0
M  V30 12075 C 1134.93 2.00964 0.492027 0
M  V30 12076 C 1135.35 1.04206 1.57437 0
M  V30 12077 O 1134.7 0.0413998 1.82453 0
M  V30 12078 C 1134.75 3.4502 1.07904 0
M  V30 12079 O 1134.47 4.38082 0.0399085 0
M  V30 12080 C 1135.98 4.04572 1.81209 0
M  V30 12081 H 1133.2 0.658911 0.126797 0
M  V30 12082 H 1135.74 2.0283 -0.260824 0
M  V30 12083 H 1133.89 3.43959 1.78243 0
M  V30 12084 H 1134.31 5.22372 0.471985 0
M  V30 12085 H 1135.78 5.07321 2.17554 0
M  V30 12086 H 1136.26 3.46126 2.70359 0
M  V30 12087 H 1136.87 4.09307 1.15534 0
M  V30 12088 N 1135.18 -0.111886 1.57202 0
M  V30 12089 C 1136.43 -0.819623 1.85499 0
M  V30 12090 C 1136.76 -1.7919 0.748629 0
M  V30 12091 O 1136.03 -1.92952 -0.244918 0
M  V30 12092 C 1136.32 -1.56324 3.24399 0
M  V30 12093 C 1136.17 -0.610081 4.45643 0
M  V30 12094 C 1137.49 -2.51777 3.60966 0
M  V30 12095 H 1134.61 -0.296512 0.674722 0
M  V30 12096 H 1137.25 -0.0836741 1.89816 0
M  V30 12097 H 1135.4 -2.1906 3.2085 0
M  V30 12098 H 1137.07 0.00898038 4.61299 0
M  V30 12099 H 1135.32 0.0778488 4.3373 0
M  V30 12100 H 1135.99 -1.16718 5.39519 0
M  V30 12101 H 1138.46 -1.99143 3.65351 0
M  V30 12102 H 1137.34 -3.00835 4.59118 0
M  V30 12103 H 1137.6 -3.34769 2.8876 0
M  V30 12104 N 1136.66 -1.52894 -0.382264 0
M  V30 12105 C 1137.89 -1.71902 -1.146 0
M  V30 12106 C 1138.3 -0.44017 -1.84009 0
M  V30 12107 O 1137.64 0.595616 -1.73776 0
M  V30 12108 C 1137.7 -2.81785 -2.23244 0
M  V30 12109 C 1137.37 -4.22684 -1.73745 0
M  V30 12110 C 1138.36 -5.05611 -1.21054 0
M  V30 12111 C 1136.05 -4.69031 -1.79763 0
M  V30 12112 C 1138.04 -6.32968 -0.750368 0
M  V30 12113 C 1135.73 -5.96371 -1.33358 0
M  V30 12114 C 1136.73 -6.7817 -0.810832 0
M  V30 12115 O 1136.41 -8.03122 -0.353577 0
M  V30 12116 H 1136.15 -0.578767 -0.349292 0
M  V30 12117 H 1138.7 -2.00359 -0.452246 0
M  V30 12118 H 1136.93 -2.48764 -2.96063 0
M  V30 12119 H 1138.62 -2.89131 -2.84883 0
M  V30 12120 H 1139.39 -4.70984 -1.15755 0
M  V30 12121 H 1135.26 -4.05447 -2.19394 0
M  V30 12122 H 1138.81 -6.96763 -0.341666 0
M  V30 12123 H 1134.71 -6.30501 -1.38344 0
M  V30 12124 H 1135.47 -8.17124 -0.474439 0
M  V30 12125 N 1138.14 0.641106 -1.43971 0
M  V30 12126 C 1139.1 1.73539 -1.49723 0
M  V30 12127 C 1140.1 1.56235 -0.380438 0
M  V30 12128 O 1141.29 1.61912 -0.642673 0
M  V30 12129 C 1138.42 3.1253 -1.36153 0
M  V30 12130 H 1139.62 1.69816 -2.47189 0
M  V30 12131 H 1137.17 0.853867 -1.30915 0
M  V30 12132 H 1137.9 3.21856 -0.39742 0
M  V30 12133 H 1137.69 3.26496 -2.17124 0
M  V30 12134 H 1139.18 3.92303 -1.43138 0
M  V30 12135 N 1139.62 1.30703 0.880598 0
M  V30 12136 C 1140.86 1.19142 1.62752 0
M  V30 12137 C 1141.18 -0.251795 1.93973 0
M  V30 12138 O 1142.38 -0.488971 2.67061 0
M  V30 12139 C 1140.84 2.08503 2.93351 0
M  V30 12140 C 1140.45 3.57758 2.69653 0
M  V30 12141 C 1142.19 2.05715 3.71324 0
M  V30 12142 C 1140.1 4.39161 3.96096 0
M  V30 12143 H 1139.03 0.442332 0.610622 0
M  V30 12144 H 1141.68 1.55483 0.974547 0
M  V30 12145 H 1140.06 1.65049 3.59965 0
M  V30 12146 H 1141.24 4.09388 2.11513 0
M  V30 12147 H 1139.55 3.62414 2.0505 0
M  V30 12148 H 1142.15 2.63783 4.65105 0
M  V30 12149 H 1142.49 1.04168 4.03057 0
M  V30 12150 H 1143.02 2.47313 3.11579 0
M  V30 12151 H 1139.76 5.4142 3.69519 0
M  V30 12152 H 1139.28 3.92293 4.53725 0
M  V30 12153 H 1140.96 4.50823 4.64077 0
M  V30 12154 N 1141.09 -1.09351 1.1349 0
M  V30 12155 C 1142.04 -2.16008 0.812981 0
M  V30 12156 C 1143.01 -1.64566 -0.225252 0
M  V30 12157 O 1144.2 -1.90552 -0.0973261 0
M  V30 12158 C 1141.34 -3.43913 0.285996 0
M  V30 12159 C 1140.45 -4.09251 1.38338 0
M  V30 12160 C 1139.58 -5.24916 0.814652 0
M  V30 12161 C 1138.62 -5.82178 1.89038 0
M  V30 12162 N 1137.76 -6.89203 1.33955 0
M  V30 12163 H 1142.6 -2.42887 1.72655 0
M  V30 12164 H 1140.14 -1.19209 0.861833 0
M  V30 12165 H 1142.09 -4.17183 -0.0376794 0
M  V30 12166 H 1140.72 -3.17349 -0.590707 0
M  V30 12167 H 1139.78 -3.33838 1.82363 0
M  V30 12168 H 1141.09 -4.4784 2.19638 0
M  V30 12169 H 1140.24 -6.05086 0.442306 0
M  V30 12170 H 1138.98 -4.87691 -0.029416 0
M  V30 12171 H 1137.99 -5.00669 2.27179 0
M  V30 12172 H 1139.21 -6.21464 2.73787 0
M  V30 12173 H 1137.16 -6.53956 0.517494 0
M  V30 12174 H 1137.07 -7.26565 2.08902 0
M  V30 12175 H 1138.34 -7.73126 0.994793 0
M  V30 12176 N 1142.57 -0.928524 -1.27343 0
M  V30 12177 C 1143.8 -0.585734 -1.98436 0
M  V30 12178 C 1144.21 0.83644 -1.69261 0
M  V30 12179 O 1143.57 1.55603 -0.953626 0
M  V30 12180 C 1143.62 -0.803092 -3.52467 0
M  V30 12181 O 1143.34 -2.16932 -3.80621 0
M  V30 12182 C 1144.84 -0.469127 -4.40811 0
M  V30 12183 H 1142.06 -0.221887 -0.633251 0
M  V30 12184 H 1144.61 -1.24577 -1.62175 0
M  V30 12185 H 1142.76 -0.189846 -3.86935 0
M  V30 12186 H 1143.18 -2.21992 -4.75205 0
M  V30 12187 H 1144.65 -0.671906 -5.47895 0
M  V30 12188 H 1145.13 0.595365 -4.35146 0
M  V30 12189 H 1145.73 -1.06055 -4.11865 0
M  V30 12190 N 1144.05 1.41491 -0.694123 0
M  V30 12191 C 1145.47 1.55358 -0.365532 0
M  V30 12192 C 1145.67 1.66994 1.12762 0
M  V30 12193 O 1144.72 1.64756 1.91342 0
M  V30 12194 C 1146.03 2.79352 -1.11279 0
M  V30 12195 C 1147.58 2.93147 -1.097 0
M  V30 12196 C 1148.06 4.20027 -1.82597 0
M  V30 12197 N 1149.55 4.26981 -1.7956 0
M  V30 12198 C 1150.28 5.24013 -2.32805 0
M  V30 12199 N 1149.78 6.27083 -2.94515 0
M  V30 12200 N 1151.57 5.15943 -2.23069 0
M  V30 12201 H 1143.72 1.32183 -1.66257 0
M  V30 12202 H 1145.99 0.637624 -0.701527 0
M  V30 12203 H 1145.69 2.76958 -2.16765 0
M  V30 12204 H 1145.57 3.70827 -0.690439 0
M  V30 12205 H 1147.95 2.95057 -0.0504037 0
M  V30 12206 H 1148.03 2.02849 -1.55839 0
M  V30 12207 H 1147.68 4.18878 -2.87235 0
M  V30 12208 H 1147.61 5.09294 -1.33893 0
M  V30 12209 H 1150.1 3.53129 -1.34567 0
M  V30 12210 H 1150.41 6.97511 -3.32714 0
M  V30 12211 H 1148.76 6.27589 -2.98592 0
M  V30 12212 H 1151.95 4.34346 -1.74532 0
M  V30 12213 H 1152.12 5.91396 -2.64868 0
M  V30 12214 N 1145.53 0.438773 1.51369 0
M  V30 12215 C 1146.78 -0.126962 2.01701 0
M  V30 12216 C 1147.1 -1.43086 1.32481 0
M  V30 12217 O 1146.37 -1.90427 0.459823 0
M  V30 12218 H 1144.95 -0.0499092 0.745331 0
M  V30 12219 H 1147.61 0.581808 1.86013 0
M  V30 12220 H 1146.7 -0.301836 3.10637 0
M  V30 12221 N 1147.01 -1.56678 0.170181 0
M  V30 12222 C 1148.25 -1.9714 -0.475767 0
M  V30 12223 C 1148.58 -1.05611 -1.62972 0
M  V30 12224 O 1147.86 -0.103017 -1.94227 0
M  V30 12225 C 1148.14 -3.47072 -0.959828 0
M  V30 12226 C 1148 -4.4938 0.194225 0
M  V30 12227 C 1149.31 -4.00071 -1.83387 0
M  V30 12228 H 1146.43 -0.716776 -0.171466 0
M  V30 12229 H 1149.08 -1.88266 0.256086 0
M  V30 12230 H 1147.23 -3.54766 -1.58346 0
M  V30 12231 H 1148.9 -4.53748 0.83128 0
M  V30 12232 H 1147.14 -4.25393 0.849893 0
M  V30 12233 H 1147.81 -5.51685 -0.186575 0
M  V30 12234 H 1150.29 -3.95002 -1.30815 0
M  V30 12235 H 1149.16 -5.05398 -2.14159 0
M  V30 12236 H 1149.42 -3.43819 -2.77923 0
M  V30 12237 N 1148.48 0.103547 -1.57259 0
M  V30 12238 C 1149.89 0.659006 -1.74683 0
M  V30 12239 C 1150.25 1.79542 -0.791142 0
M  V30 12240 O 1149.37 2.16376 0.0323585 0
M  V30 12241 C 1149.97 1.20222 -3.16752 0
M  V30 12242 C 1148.52 1.70382 -3.35629 0
M  V30 12243 C 1147.67 0.609886 -2.7051 0
M  V30 12244 H 1150.62 -0.122474 -1.58227 0
M  V30 12245 H 1150.64 2.07169 -3.19157 0
M  V30 12246 H 1150.16 0.374901 -3.86285 0
M  V30 12247 H 1148.26 2.55542 -2.71162 0
M  V30 12248 H 1148.37 1.80263 -4.43894 0
M  V30 12249 H 1146.73 1.04728 -2.32173 0
M  V30 12250 H 1147.52 -0.206713 -3.42677 0
M  V30 12251 N 1149.96 1.53094 0.37415 0
M  V30 12252 C 1150.87 1.81872 1.48188 0
M  V30 12253 C 1151.89 0.706487 1.59012 0
M  V30 12254 O 1153.06 0.995648 1.75068 0
M  V30 12255 C 1150.13 1.99494 2.83554 0
M  V30 12256 C 1149.19 3.23402 2.82329 0
M  V30 12257 C 1148.42 3.40174 4.11239 0
M  V30 12258 O 1148.65 2.61425 5.06965 0
M  V30 12259 O 1147.58 4.33493 4.17573 0
M  V30 12260 H 1151.41 2.75965 1.26795 0
M  V30 12261 H 1148.99 1.38368 0.56343 0
M  V30 12262 H 1150.87 2.12705 3.63778 0
M  V30 12263 H 1149.55 1.08591 3.04942 0
M  V30 12264 H 1148.45 3.15621 2.00834 0
M  V30 12265 H 1149.79 4.14199 2.65894 0
M  V30 12266 N 1151.44 -0.633461 1.44309 0
M  V30 12267 C 1152.67 -1.42033 1.50447 0
M  V30 12268 C 1153.08 -1.88362 0.128585 0
M  V30 12269 O 1152.44 -1.60695 -0.865071 0
M  V30 12270 C 1152.49 -2.6422 2.46719 0
M  V30 12271 O 1152.21 -2.19823 3.78958 0
M  V30 12272 C 1153.71 -3.57372 2.62298 0
M  V30 12273 H 1150.93 -0.435667 0.510329 0
M  V30 12274 H 1153.48 -0.774907 1.8925 0
M  V30 12275 H 1151.63 -3.24859 2.11058 0
M  V30 12276 H 1152.05 -2.99022 4.30913 0
M  V30 12277 H 1153.52 -4.39719 3.33693 0
M  V30 12278 H 1154 -4.06026 1.67449 0
M  V30 12279 H 1154.6 -3.02603 2.9885 0
M  V30 12280 N 1152.92 -1.31168 -0.873655 0
M  V30 12281 C 1154.17 -1.20642 -1.6264 0
M  V30 12282 C 1154.49 0.236286 -1.93059 0
M  V30 12283 O 1153.75 1.18401 -1.55819 0
M  V30 12284 C 1154.05 -1.99204 -2.96736 0
M  V30 12285 C 1153.71 -3.48734 -2.85824 0
M  V30 12286 C 1152.38 -3.89507 -2.82555 0
M  V30 12287 C 1154.73 -4.43905 -2.73127 0
M  V30 12288 C 1152.06 -5.23724 -2.64442 0
M  V30 12289 C 1154.41 -5.78242 -2.56551 0
M  V30 12290 C 1153.07 -6.18241 -2.51663 0
M  V30 12291 H 1152.34 -0.44146 -0.595142 0
M  V30 12292 H 1154.99 -1.62394 -1.01492 0
M  V30 12293 H 1153.29 -1.50122 -3.61899 0
M  V30 12294 H 1154.99 -1.88443 -3.53963 0
M  V30 12295 H 1151.58 -3.1634 -2.89184 0
M  V30 12296 H 1155.76 -4.13338 -2.7471 0
M  V30 12297 H 1151.02 -5.53794 -2.59081 0
M  V30 12298 H 1155.19 -6.51616 -2.45702 0
M  V30 12299 H 1152.82 -7.22185 -2.37387 0
M  V30 12300 N 1154.4 1.08748 -1.14068 0
M  V30 12301 C 1155.34 2.17667 -0.819981 0
M  V30 12302 C 1156.34 1.68207 0.200654 0
M  V30 12303 O 1157.54 1.79909 0.0571014 0
M  V30 12304 H 1153.92 0.710129 -0.247427 0
M  V30 12305 H 1155.89 2.41944 -1.74659 0
M  V30 12306 C 1154.64 3.46315 -0.309985 0
M  V30 12307 H 1153.96 3.84748 -1.08669 0
M  V30 12308 H 1155.4 4.23818 -0.124094 0
M  V30 12309 C 1153.86 3.22762 0.965724 0
M  V30 12310 O 1154.39 3.46034 2.04018 0
M  V30 12311 N 1152.6 2.76326 0.899576 0
M  V30 12312 H 1152.14 2.57588 0.0250598 0
M  V30 12313 H 1152.1 2.60945 1.75371 0
M  V30 12314 N 1155.87 0.935264 1.26849 0
M  V30 12315 C 1156.78 0.446122 2.30319 0
M  V30 12316 C 1157.8 -0.476965 1.67335 0
M  V30 12317 O 1158.98 -0.357934 1.98194 0
M  V30 12318 C 1156.04 -0.286297 3.45516 0
M  V30 12319 C 1155.1 0.672626 4.23998 0
M  V30 12320 C 1154.34 -0.0249345 5.33694 0
M  V30 12321 O 1154.56 -1.24296 5.56693 0
M  V30 12322 O 1153.49 0.650752 5.98372 0
M  V30 12323 H 1157.32 1.30546 2.74211 0
M  V30 12324 H 1154.9 0.70091 1.31938 0
M  V30 12325 H 1156.79 -0.699109 4.1556 0
M  V30 12326 H 1155.46 -1.12112 3.03665 0
M  V30 12327 H 1154.37 1.13527 3.56458 0
M  V30 12328 H 1155.7 1.47489 4.69583 0
M  V30 12329 N 1157.35 -1.41121 0.701616 0
M  V30 12330 C 1158.32 -2.29148 0.0490091 0
M  V30 12331 C 1159.32 -1.44679 -0.701763 0
M  V30 12332 O 1160.51 -1.65757 -0.53575 0
M  V30 12333 C 1157.64 -3.2766 -0.940837 0
M  V30 12334 H 1158.83 -2.88354 0.824133 0
M  V30 12335 H 1156.38 -1.49209 0.465457 0
M  V30 12336 H 1157.12 -2.73445 -1.74351 0
M  V30 12337 H 1156.9 -3.89997 -0.405551 0
M  V30 12338 H 1158.39 -3.93609 -1.39507 0
M  V30 12339 N 1158.83 -0.446794 -1.51134 0
M  V30 12340 C 1159.78 0.359865 -2.27977 0
M  V30 12341 C 1160.75 1.0086 -1.31972 0
M  V30 12342 O 1161.93 1.02569 -1.60886 0
M  V30 12343 C 1159.07 1.44978 -3.1317 0
M  V30 12344 C 1158.19 0.818243 -4.2418 0
M  V30 12345 C 1157.32 1.884 -4.96668 0
M  V30 12346 C 1156.36 1.2314 -5.99586 0
M  V30 12347 N 1155.5 2.23894 -6.65444 0
M  V30 12348 H 1160.34 -0.301775 -2.96468 0
M  V30 12349 H 1157.87 -0.160666 -1.4622 0
M  V30 12350 H 1159.83 2.09308 -3.60896 0
M  V30 12351 H 1158.46 2.08092 -2.46775 0
M  V30 12352 H 1157.51 0.0629889 -3.80348 0
M  V30 12353 H 1158.83 0.301885 -4.97886 0
M  V30 12354 H 1157.98 2.6037 -5.4799 0
M  V30 12355 H 1156.72 2.43411 -4.22614 0
M  V30 12356 H 1155.72 0.497215 -5.47547 0
M  V30 12357 H 1156.95 0.688505 -6.75601 0
M  V30 12358 H 1154.89 2.77967 -5.94197 0
M  V30 12359 H 1154.81 1.77176 -7.34945 0
M  V30 12360 H 1156.08 2.95318 -7.21393 0
M  V30 12361 N 1160.31 1.56586 -0.178487 0
M  V30 12362 C 1161.72 1.83633 0.337009 0
M  V30 12363 C 1162.07 1.09857 1.6256 0
M  V30 12364 O 1161.2 0.353933 2.13486 0
M  V30 12365 C 1161.79 3.33112 0.618225 0
M  V30 12366 C 1160.35 3.60629 1.07814 0
M  V30 12367 C 1159.5 2.7705 0.117825 0
M  V30 12368 H 1162.45 1.53508 -0.402612 0
M  V30 12369 H 1162.47 3.5098 1.46947 0
M  V30 12370 H 1161.98 3.8678 -0.319808 0
M  V30 12371 H 1160.08 3.12378 2.03103 0
M  V30 12372 H 1160.19 4.68921 0.982339 0
M  V30 12373 H 1158.56 2.47125 0.616563 0
M  V30 12374 H 1159.34 3.33501 -0.814356 0
M  V30 12375 N 1161.79 -0.095206 1.57312 0
M  V30 12376 C 1163.04 -0.797417 1.85268 0
M  V30 12377 C 1163.35 -1.79903 0.767733 0
M  V30 12378 O 1164.55 -2.54914 0.934409 0
M  V30 12379 C 1163.01 -1.469 3.28555 0
M  V30 12380 C 1162.62 -0.507152 4.4512 0
M  V30 12381 C 1164.36 -2.15494 3.65735 0
M  V30 12382 C 1162.27 -1.18331 5.79441 0
M  V30 12383 H 1161.2 -0.301552 0.691074 0
M  V30 12384 H 1163.85 -0.0503584 1.83431 0
M  V30 12385 H 1162.23 -2.26351 3.24933 0
M  V30 12386 H 1163.41 0.255858 4.60089 0
M  V30 12387 H 1161.72 0.0730882 4.16336 0
M  V30 12388 H 1164.32 -2.66816 4.63371 0
M  V30 12389 H 1164.66 -2.94383 2.94354 0
M  V30 12390 H 1165.19 -1.42903 3.71246 0
M  V30 12391 H 1161.93 -0.435238 6.54053 0
M  V30 12392 H 1161.45 -1.91775 5.68315 0
M  V30 12393 H 1163.13 -1.70983 6.23998 0
M  V30 12394 N 1163.26 -1.53291 -0.366026 0
M  V30 12395 C 1164.51 -1.69117 -1.10653 0
M  V30 12396 C 1164.83 -0.445327 -1.89847 0
M  V30 12397 O 1164.1 0.540616 -1.88293 0
M  V30 12398 H 1162.68 -0.623446 -0.41149 0
M  V30 12399 H 1165.35 -1.90479 -0.412749 0
M  V30 12400 H 1164.44 -2.55205 -1.79658 0
M  V30 12401 N 1164.74 0.6258 -1.44643 0
M  V30 12402 C 1165.99 1.38525 -1.47706 0
M  V30 12403 C 1166.32 1.94179 -0.111703 0
M  V30 12404 O 1165.57 1.74432 0.887237 0
M  V30 12405 C 1165.87 2.56466 -2.48917 0
M  V30 12406 C 1165.54 2.19069 -3.94106 0
M  V30 12407 C 1164.2 2.08583 -4.33643 0
M  V30 12408 C 1166.55 1.89608 -4.85488 0
M  V30 12409 C 1163.88 1.66831 -5.6248 0
M  V30 12410 C 1166.23 1.49347 -6.14718 0
M  V30 12411 C 1164.9 1.37406 -6.53204 0
M  V30 12412 H 1164.17 0.506899 -0.540494 0
M  V30 12413 H 1166.81 0.709128 -1.77887 0
M  V30 12414 H 1165.12 3.29335 -2.12239 0
M  V30 12415 H 1166.81 3.14695 -2.48532 0
M  V30 12416 H 1163.4 2.28151 -3.62829 0
M  V30 12417 H 1167.59 1.96616 -4.55693 0
M  V30 12418 H 1162.84 1.56195 -5.91112 0
M  V30 12419 H 1167.02 1.2559 -6.84982 0
M  V30 12420 H 1164.65 1.04826 -7.52938 0
M  V30 12421 N 1166.22 1.31629 0.866686 0
M  V30 12422 C 1167.45 1.24474 1.65269 0
M  V30 12423 C 1167.86 -0.18939 1.87848 0
M  V30 12424 O 1167.22 -1.12251 1.43895 0
M  V30 12425 C 1167.27 1.98872 3.01881 0
M  V30 12426 O 1166.99 3.36687 2.8031 0
M  V30 12427 C 1168.49 1.98595 3.96327 0
M  V30 12428 H 1165.71 0.429966 0.515141 0
M  V30 12429 H 1168.26 1.73559 1.08156 0
M  V30 12430 H 1166.41 1.53539 3.55675 0
M  V30 12431 H 1166.83 3.74612 3.67105 0
M  V30 12432 H 1168.3 2.55156 4.89489 0
M  V30 12433 H 1168.78 0.969257 4.28371 0
M  V30 12434 H 1169.38 2.43821 3.4847 0
M  V30 12435 N 1167.7 -1.08142 1.14644 0
M  V30 12436 C 1168.63 -2.14476 0.779437 0
M  V30 12437 C 1169.61 -1.60812 -0.240454 0
M  V30 12438 O 1170.79 -1.88059 -0.128881 0
M  V30 12439 C 1167.92 -3.38333 0.157692 0
M  V30 12440 C 1166.97 -4.10754 1.14819 0
M  V30 12441 S 1167.8 -4.63227 2.68666 0
M  V30 12442 C 1168.96 -5.90367 2.07888 0
M  V30 12443 H 1169.19 -2.45276 1.68009 0
M  V30 12444 H 1166.72 -1.20292 0.967942 0
M  V30 12445 H 1168.68 -4.10038 -0.194607 0
M  V30 12446 H 1167.34 -3.05726 -0.720435 0
M  V30 12447 H 1166.53 -4.99644 0.661226 0
M  V30 12448 H 1166.14 -3.44974 1.44462 0
M  V30 12449 H 1168.43 -6.62107 1.43599 0
M  V30 12450 H 1169.37 -6.43764 2.94913 0
M  V30 12451 H 1169.78 -5.43507 1.52514 0
M  V30 12452 N 1169.18 -0.941978 -1.26351 0
M  V30 12453 C 1170.41 -0.605868 -1.97517 0
M  V30 12454 C 1170.82 0.823583 -1.70334 0
M  V30 12455 O 1170.16 1.56085 -0.968662 0
M  V30 12456 C 1170.22 -0.769201 -3.51175 0
M  V30 12457 C 1169.88 -2.17343 -4.02009 0
M  V30 12458 C 1170.88 -3.14898 -4.13685 0
M  V30 12459 C 1168.57 -2.49422 -4.35998 0
M  V30 12460 C 1170.56 -4.42631 -4.58646 0
M  V30 12461 C 1168.25 -3.77388 -4.80647 0
M  V30 12462 C 1169.25 -4.73806 -4.91932 0
M  V30 12463 O 1168.93 -5.99493 -5.35596 0
M  V30 12464 H 1168.67 -0.227113 -0.636707 0
M  V30 12465 H 1171.22 -1.26523 -1.61806 0
M  V30 12466 H 1169.45 -0.0527104 -3.86664 0
M  V30 12467 H 1171.14 -0.436032 -4.03551 0
M  V30 12468 H 1171.9 -2.91438 -3.87671 0
M  V30 12469 H 1167.78 -1.7511 -4.26448 0
M  V30 12470 H 1171.33 -5.17892 -4.67369 0
M  V30 12471 H 1167.22 -4.0066 -5.06105 0
M  V30 12472 H 1167.99 -6.02687 -5.53815 0
M  V30 12473 N 1170.66 1.40747 -0.709091 0
M  V30 12474 C 1171.88 2.05319 -0.255258 0
M  V30 12475 C 1172.3 1.53406 1.10054 0
M  V30 12476 O 1171.66 0.687905 1.69039 0
M  V30 12477 C 1171.71 3.60835 -0.219251 0
M  V30 12478 O 1171.43 4.1083 -1.52151 0
M  V30 12479 C 1172.93 4.42572 0.253927 0
M  V30 12480 H 1170.15 0.660904 -0.115959 0
M  V30 12481 H 1172.69 1.80274 -0.965474 0
M  V30 12482 H 1170.85 3.84872 0.441882 0
M  V30 12483 H 1171.26 5.04979 -1.41764 0
M  V30 12484 H 1172.74 5.51529 0.22798 0
M  V30 12485 H 1173.21 4.19673 1.29504 0
M  V30 12486 H 1173.82 4.23629 -0.376694 0
M  V30 12487 N 1172.13 0.454803 1.50895 0
M  V30 12488 C 1173.36 -0.103936 2.06639 0
M  V30 12489 C 1173.78 -1.34943 1.32044 0
M  V30 12490 O 1173.13 -1.78393 0.384972 0
M  V30 12491 C 1173.18 -0.408546 3.59184 0
M  V30 12492 O 1172.91 0.787535 4.30963 0
M  V30 12493 C 1174.41 -1.01605 4.31499 0
M  V30 12494 H 1171.63 -0.000171839 0.671 0
M  V30 12495 H 1174.17 0.638907 1.94263 0
M  V30 12496 H 1172.33 -1.1013 3.71416 0
M  V30 12497 H 1172.74 0.52229 5.21893 0
M  V30 12498 H 1174.21 -1.17906 5.39261 0
M  V30 12499 H 1174.69 -2.00182 3.90927 0
M  V30 12500 H 1175.3 -0.362155 4.23755 0
M  V30 12501 N 1173.61 -1.56489 0.186789 0
M  V30 12502 C 1174.85 -1.99239 -0.456427 0
M  V30 12503 C 1175.22 -1.07076 -1.5937 0
M  V30 12504 O 1176.42 -1.39028 -2.30054 0
M  V30 12505 C 1174.69 -3.45553 -0.912587 0
M  V30 12506 S 1176.25 -4.1033 -1.55481 0
M  V30 12507 H 1173.06 -0.695792 -0.146267 0
M  V30 12508 H 1175.67 -1.93369 0.287899 0
M  V30 12509 H 1174.37 -4.10332 -0.0746877 0
M  V30 12510 H 1173.9 -3.55222 -1.69058 0
M  V30 12511 H 1175.92 -4.06653 -2.84338 0
M  V30 12512 N 1175.09 0.086862 -1.5736 0
M  V30 12513 C 1176.34 0.787581 -1.85688 0
M  V30 12514 C 1176.65 1.79494 -0.777263 0
M  V30 12515 O 1177.86 2.54415 -0.947914 0
M  V30 12516 C 1176.31 1.45155 -3.2933 0
M  V30 12517 C 1175.92 0.483539 -4.45383 0
M  V30 12518 C 1177.67 2.13552 -3.66873 0
M  V30 12519 C 1175.57 1.15257 -5.8006 0
M  V30 12520 H 1174.5 0.297882 -0.692663 0
M  V30 12521 H 1177.15 0.0406299 -1.83455 0
M  V30 12522 H 1175.54 2.24625 -3.26128 0
M  V30 12523 H 1176.71 -0.280254 -4.59947 0
M  V30 12524 H 1175.02 -0.0951664 -4.16291 0
M  V30 12525 H 1177.62 2.64355 -4.6478 0
M  V30 12526 H 1177.96 2.92818 -2.95911 0
M  V30 12527 H 1178.5 1.40932 -3.71999 0
M  V30 12528 H 1175.24 0.400546 -6.54275 0
M  V30 12529 H 1174.76 1.88759 -5.69324 0
M  V30 12530 H 1176.44 1.67671 -6.24896 0
M  V30 12531 N 1176.57 1.53483 0.357892 0
M  V30 12532 C 1177.81 1.70289 1.10134 0
M  V30 12533 C 1178.15 0.457296 1.88739 0
M  V30 12534 O 1177.42 -0.545527 1.86693 0
M  V30 12535 C 1177.7 2.95755 2.05429 0
M  V30 12536 C 1177.56 4.30489 1.30382 0
M  V30 12537 C 1178.88 3.16844 3.05447 0
M  V30 12538 H 1176 0.61965 0.399003 0
M  V30 12539 H 1178.64 1.86133 0.381357 0
M  V30 12540 H 1176.79 2.82377 2.66825 0
M  V30 12541 H 1178.46 4.55692 0.71711 0
M  V30 12542 H 1176.7 4.2955 0.605712 0
M  V30 12543 H 1177.37 5.14427 2.00171 0
M  V30 12544 H 1179.85 3.29458 2.54159 0
M  V30 12545 H 1178.73 4.06053 3.69341 0
M  V30 12546 H 1178.99 2.32476 3.76041 0
M  V30 12547 N 1178.05 -0.61812 1.44973 0
M  V30 12548 C 1179.29 -1.37754 1.4965 0
M  V30 12549 C 1179.65 -1.91945 0.132201 0
M  V30 12550 O 1178.94 -1.71493 -0.854439 0
M  V30 12551 C 1179.13 -2.55143 2.50274 0
M  V30 12552 C 1178.96 -2.12446 3.96354 0
M  V30 12553 C 1177.73 -1.99112 4.64416 0
M  V30 12554 C 1179.93 -1.70557 4.85196 0
M  V30 12555 N 1177.91 -1.50114 5.95264 0
M  V30 12556 C 1179.28 -1.329 6.05589 0
M  V30 12557 C 1181.34 -1.58054 4.72147 0
M  V30 12558 C 1180.04 -0.839882 7.1438 0
M  V30 12559 C 1182.07 -1.10547 5.80976 0
M  V30 12560 C 1181.43 -0.738477 7.00518 0
M  V30 12561 H 1177.53 -0.498393 0.602601 0
M  V30 12562 H 1180.11 -0.70775 1.81381 0
M  V30 12563 H 1178.28 -3.19732 2.20513 0
M  V30 12564 H 1180.02 -3.21988 2.45166 0
M  V30 12565 H 1176.77 -2.19971 4.19416 0
M  V30 12566 H 1177.19 -1.27878 6.64813 0
M  V30 12567 H 1181.84 -1.85056 3.8015 0
M  V30 12568 H 1179.55 -0.557395 8.06175 0
M  V30 12569 H 1183.14 -1.01314 5.72911 0
M  V30 12570 H 1182.02 -0.376513 7.83296 0
M  V30 12571 N 1179.52 -1.32087 -0.859693 0
M  V30 12572 C 1180.45 -1.23204 -1.98351 0
M  V30 12573 C 1181.43 -0.116974 -1.69697 0
M  V30 12574 O 1182.62 -0.303301 -1.91817 0
M  V30 12575 C 1179.75 -0.949171 -3.34078 0
M  V30 12576 C 1178.7 -2.02493 -3.77069 0
M  V30 12577 C 1178.03 -1.59455 -5.1037 0
M  V30 12578 C 1179.33 -3.43934 -3.93074 0
M  V30 12579 H 1181.02 -2.17227 -2.0604 0
M  V30 12580 H 1178.57 -1.04577 -0.989931 0
M  V30 12581 H 1180.52 -0.873594 -4.12245 0
M  V30 12582 H 1179.25 0.0267095 -3.26589 0
M  V30 12583 H 1177.91 -2.09057 -3.01149 0
M  V30 12584 H 1177.55 -0.606256 -4.99333 0
M  V30 12585 H 1177.25 -2.31429 -5.40106 0
M  V30 12586 H 1178.78 -1.53325 -5.91036 0
M  V30 12587 H 1180.19 -3.39986 -4.61608 0
M  V30 12588 H 1178.59 -4.14214 -4.3422 0
M  V30 12589 H 1179.66 -3.83965 -2.9614 0
M  V30 12590 N 1181 1.07532 -1.15215 0
M  V30 12591 C 1181.96 2.1286 -0.84989 0
M  V30 12592 C 1182.96 1.60103 0.149524 0
M  V30 12593 O 1184.15 1.74017 -0.0798918 0
M  V30 12594 C 1181.29 3.3984 -0.268617 0
M  V30 12595 H 1182.48 2.41106 -1.78347 0
M  V30 12596 H 1180.03 1.23392 -0.959386 0
M  V30 12597 H 1180.77 3.17235 0.67325 0
M  V30 12598 H 1180.55 3.79433 -0.988592 0
M  V30 12599 H 1182.04 4.17533 -0.0746554 0
M  V30 12600 N 1182.48 0.948665 1.2585 0
M  V30 12601 C 1183.73 0.600236 1.934 0
M  V30 12602 C 1184.06 -0.86185 1.74363 0
M  V30 12603 O 1183.31 -1.63294 1.07858 0
M  V30 12604 C 1183.61 0.89784 3.45939 0
M  V30 12605 C 1183.28 2.345 3.85124 0
M  V30 12606 C 1181.94 2.74058 3.95532 0
M  V30 12607 C 1184.29 3.2851 4.04636 0
M  V30 12608 C 1181.62 4.06707 4.22855 0
M  V30 12609 C 1183.97 4.60764 4.3345 0
M  V30 12610 C 1182.63 5.00127 4.42074 0
M  V30 12611 H 1181.9 0.219642 0.707699 0
M  V30 12612 H 1184.55 1.19658 1.49513 0
M  V30 12613 H 1182.86 0.219037 3.91187 0
M  V30 12614 H 1184.55 0.606916 3.96381 0
M  V30 12615 H 1181.14 2.02819 3.77574 0
M  V30 12616 H 1185.33 2.99141 3.96015 0
M  V30 12617 H 1180.58 4.36856 4.27746 0
M  V30 12618 H 1184.76 5.33594 4.47493 0
M  V30 12619 H 1182.38 6.02939 4.63 0
M  V30 12620 N 1183.96 -1.40369 0.716545 0
M  V30 12621 C 1185.21 -2.00101 0.253452 0
M  V30 12622 C 1185.52 -1.57471 -1.16027 0
M  V30 12623 O 1186.73 -2.09909 -1.72193 0
M  V30 12624 C 1185.18 -3.57645 0.402213 0
M  V30 12625 C 1184.79 -4.09248 1.82264 0
M  V30 12626 C 1186.53 -4.245 -3.88526e-05 0
M  V30 12627 C 1184.44 -5.59299 1.92193 0
M  V30 12628 H 1183.37 -0.748488 0.0910047 0
M  V30 12629 H 1186.02 -1.60595 0.887772 0
M  V30 12630 H 1184.4 -3.94857 -0.300706 0
M  V30 12631 H 1185.58 -3.83412 2.55601 0
M  V30 12632 H 1183.89 -3.54993 2.17644 0
M  V30 12633 H 1186.49 -5.34673 0.0534202 0
M  V30 12634 H 1186.83 -4.03046 -1.04208 0
M  V30 12635 H 1187.37 -3.92398 0.65336 0
M  V30 12636 H 1184.11 -5.85608 2.94522 0
M  V30 12637 H 1183.63 -5.86997 1.23268 0
M  V30 12638 H 1185.3 -6.24416 1.6945 0
M  V30 12639 N 1185.44 -0.462799 -1.50652 0
M  V30 12640 C 1186.85 -0.00568907 -1.86699 0
M  V30 12641 C 1187.2 1.39641 -1.37822 0
M  V30 12642 O 1186.32 2.03366 -0.739679 0
M  V30 12643 C 1186.92 -0.00354783 -3.388 0
M  V30 12644 C 1185.48 0.398061 -3.74289 0
M  V30 12645 C 1184.62 -0.392574 -2.74507 0
M  V30 12646 H 1187.58 -0.677469 -1.43513 0
M  V30 12647 H 1187.6 0.800456 -3.71985 0
M  V30 12648 H 1187.11 -1.02414 -3.74344 0
M  V30 12649 H 1185.21 1.42331 -3.44344 0
M  V30 12650 H 1185.32 0.105168 -4.78985 0
M  V30 12651 H 1183.69 0.152608 -2.54242 0
M  V30 12652 H 1184.47 -1.41252 -3.12894 0
M  V30 12653 N 1186.91 1.56388 -0.195085 0
M  V30 12654 C 1188.16 1.96755 0.443901 0
M  V30 12655 C 1188.48 1.08483 1.6276 0
M  V30 12656 O 1189.68 1.38632 2.33438 0
M  V30 12657 C 1188.14 3.49933 0.841139 0
M  V30 12658 C 1187.75 4.46868 -0.318275 0
M  V30 12659 C 1189.49 3.99069 1.44721 0
M  V30 12660 C 1187.4 5.91316 0.0999211 0
M  V30 12661 H 1186.33 0.734674 0.169616 0
M  V30 12662 H 1188.98 1.8124 -0.287101 0
M  V30 12663 H 1187.36 3.60951 1.62881 0
M  V30 12664 H 1188.53 4.47581 -1.0958 0
M  V30 12665 H 1186.85 4.07925 -0.835842 0
M  V30 12666 H 1189.45 5.04465 1.77255 0
M  V30 12667 H 1189.79 3.43376 2.35369 0
M  V30 12668 H 1190.32 3.91165 0.723513 0
M  V30 12669 H 1187.06 6.50934 -0.77237 0
M  V30 12670 H 1186.58 5.93856 0.842304 0
M  V30 12671 H 1188.26 6.44778 0.535726 0
M  V30 12672 N 1188.39 -0.0785156 1.57404 0
M  V30 12673 C 1189.64 -0.778938 1.86919 0
M  V30 12674 C 1189.97 -1.77915 0.785906 0
M  V30 12675 O 1189.22 -1.94473 -0.218811 0
M  V30 12676 C 1189.52 -1.52826 3.23078 0
M  V30 12677 C 1189.19 -0.668645 4.45915 0
M  V30 12678 C 1187.85 -0.43173 4.79259 0
M  V30 12679 C 1190.2 -0.0721327 5.2115 0
M  V30 12680 C 1187.53 0.41129 5.85257 0
M  V30 12681 C 1189.88 0.758303 6.28039 0
M  V30 12682 C 1188.55 1.00515 6.59889 0
M  V30 12683 H 1187.82 -0.285034 0.683986 0
M  V30 12684 H 1190.46 -0.039906 1.91458 0
M  V30 12685 H 1188.77 -2.33931 3.14299 0
M  V30 12686 H 1190.46 -2.07488 3.43147 0
M  V30 12687 H 1187.05 -0.863424 4.19813 0
M  V30 12688 H 1191.24 -0.242297 4.95708 0
M  V30 12689 H 1186.49 0.611354 6.08336 0
M  V30 12690 H 1190.67 1.2273 6.855 0
M  V30 12691 H 1188.3 1.66017 7.41851 0
M  V30 12692 N 1189.87 -1.5367 -0.349747 0
M  V30 12693 C 1191.12 -1.70618 -1.09068 0
M  V30 12694 C 1191.45 -0.466133 -1.88832 0
M  V30 12695 O 1190.7 0.552079 -1.87751 0
M  V30 12696 C 1191 -2.91753 -2.06434 0
M  V30 12697 C 1190.67 -4.27614 -1.43029 0
M  V30 12698 C 1189.33 -4.64555 -1.25466 0
M  V30 12699 C 1191.68 -5.12037 -0.972987 0
M  V30 12700 C 1189.01 -5.83543 -0.607807 0
M  V30 12701 C 1191.36 -6.31685 -0.340073 0
M  V30 12702 C 1190.02 -6.67327 -0.152069 0
M  V30 12703 H 1189.29 -0.624334 -0.399108 0
M  V30 12704 H 1191.94 -1.87879 -0.370657 0
M  V30 12705 H 1190.25 -2.6907 -2.84796 0
M  V30 12706 H 1191.94 -3.02059 -2.63744 0
M  V30 12707 H 1188.53 -3.98535 -1.57696 0
M  V30 12708 H 1192.72 -4.84035 -1.09655 0
M  V30 12709 H 1187.97 -6.09737 -0.450705 0
M  V30 12710 H 1192.15 -6.96396 0.0223973 0
M  V30 12711 H 1189.77 -7.59388 0.35121 0
M  V30 12712 N 1191.35 0.610423 -1.45298 0
M  V30 12713 C 1192.6 1.3668 -1.48872 0
M  V30 12714 C 1192.92 1.94562 -0.130686 0
M  V30 12715 O 1192.19 1.76996 0.839607 0
M  V30 12716 H 1190.77 0.507393 -0.548235 0
M  V30 12717 H 1193.43 0.716997 -1.81232 0
M  V30 12718 H 1192.53 2.18766 -2.22593 0
M  V30 12719 N 1192.83 1.32541 0.852676 0
M  V30 12720 C 1194.05 1.2622 1.6394 0
M  V30 12721 C 1194.47 -0.169455 1.88038 0
M  V30 12722 O 1193.83 -1.10719 1.45078 0
M  V30 12723 C 1193.88 2.02062 2.99755 0
M  V30 12724 O 1193.6 3.39641 2.76723 0
M  V30 12725 C 1195.1 2.02787 3.94198 0
M  V30 12726 H 1192.32 0.435405 0.510552 0
M  V30 12727 H 1194.86 1.74696 1.06309 0
M  V30 12728 H 1193.02 1.57303 3.54026 0
M  V30 12729 H 1193.43 3.78484 3.63111 0
M  V30 12730 H 1194.91 2.60333 4.86755 0
M  V30 12731 H 1195.38 1.01464 4.27319 0
M  V30 12732 H 1195.99 2.47504 3.45864 0
M  V30 12733 N 1194.3 -1.0692 1.15784 0
M  V30 12734 C 1195.53 -1.83849 0.959903 0
M  V30 12735 C 1195.95 -1.8169 -0.486873 0
M  V30 12736 O 1195.31 -1.21305 -1.34739 0
M  V30 12737 C 1195.36 -3.28642 1.48414 0
M  V30 12738 O 1194.46 -4.0665 0.686249 0
M  V30 12739 H 1193.81 -0.569115 0.342059 0
M  V30 12740 H 1196.34 -1.34851 1.53871 0
M  V30 12741 H 1196.35 -3.7947 1.49888 0
M  V30 12742 H 1195.02 -3.29529 2.53739 0
M  V30 12743 H 1193.6 -3.65453 0.741501 0
M  V30 12744 N 1195.78 -0.955326 -1.25345 0
M  V30 12745 C 1196.71 -0.4334 -2.25065 0
M  V30 12746 C 1197.73 0.451099 -1.56425 0
M  V30 12747 O 1198.92 0.259265 -1.76607 0
M  V30 12748 C 1196.02 0.394809 -3.36592 0
M  V30 12749 C 1195.19 -0.476856 -4.34793 0
M  V30 12750 C 1194.25 0.293269 -5.25382 0
M  V30 12751 O 1193.27 -0.30857 -5.68363 0
M  V30 12752 N 1194.48 1.58617 -5.58409 0
M  V30 12753 H 1197.24 -1.29073 -2.70482 0
M  V30 12754 H 1194.8 -0.825764 -1.39258 0
M  V30 12755 H 1196.79 0.917747 -3.94157 0
M  V30 12756 H 1195.36 1.153 -2.90559 0
M  V30 12757 H 1194.58 -1.18089 -3.76097 0
M  V30 12758 H 1195.87 -1.07178 -4.97384 0
M  V30 12759 H 1195.27 2.09705 -5.25395 0
M  V30 12760 H 1193.83 2.05506 -6.18555 0
M  V30 12761 N 1197.26 1.39987 -0.723979 0
M  V30 12762 C 1198.49 2.0556 -0.275634 0
M  V30 12763 C 1198.91 1.54207 1.07711 0
M  V30 12764 O 1198.27 0.681041 1.68022 0
M  V30 12765 C 1198.32 3.59551 -0.27485 0
M  V30 12766 O 1197.42 4.05685 0.741182 0
M  V30 12767 H 1196.76 0.651634 -0.12755 0
M  V30 12768 H 1199.29 1.79229 -0.986814 0
M  V30 12769 H 1199.3 4.07837 -0.115425 0
M  V30 12770 H 1197.98 3.96291 -1.26198 0
M  V30 12771 H 1196.55 3.6884 0.548795 0
M  V30 12772 N 1198.74 0.470782 1.50404 0
M  V30 12773 C 1199.7 -0.312227 2.27063 0
M  V30 12774 C 1200.7 -0.920709 1.31832 0
M  V30 12775 O 1201.89 -0.789937 1.5526 0
M  V30 12776 C 1199.02 -1.44477 3.0877 0
M  V30 12777 H 1200.22 0.36006 2.97731 0
M  V30 12778 H 1197.77 0.224837 1.54674 0
M  V30 12779 H 1198.51 -2.15212 2.42599 0
M  V30 12780 H 1198.29 -1.01426 3.78755 0
M  V30 12781 H 1199.78 -1.99713 3.66749 0
M  V30 12782 N 1200.22 -1.56282 0.203376 0
M  V30 12783 C 1201.49 -1.89587 -0.481256 0
M  V30 12784 C 1201.87 -1.11812 -1.79057 0
M  V30 12785 O 1201.22 -0.221759 -2.27421 0
M  V30 12786 C 1201.43 -3.42071 -0.691965 0
M  V30 12787 C 1202.78 -4.12471 -1.00761 0
M  V30 12788 O 1203.8 -3.47568 -0.779396 0
M  V30 12789 O 1202.66 -5.27194 -1.43974 0
M  V30 12790 H 1199.76 -0.787682 -0.251963 0
M  V30 12791 H 1202.3 -1.67934 0.244207 0
M  V30 12792 H 1201.08 -3.9061 0.232322 0
M  V30 12793 H 1200.7 -3.69444 -1.46958 0
M  V30 12794 N 1201.7 0.070167 -1.57444 0
M  V30 12795 C 1202.64 1.08322 -2.03801 0
M  V30 12796 C 1203.61 1.38364 -0.918946 0
M  V30 12797 O 1204.8 1.49404 -1.18672 0
M  V30 12798 C 1201.94 2.39128 -2.48821 0
M  V30 12799 C 1201.05 2.15603 -3.74352 0
M  V30 12800 C 1200.19 3.39984 -4.08148 0
M  V30 12801 C 1199.22 3.1183 -5.26715 0
M  V30 12802 N 1198.36 4.28546 -5.56141 0
M  V30 12803 H 1203.2 0.680931 -2.90116 0
M  V30 12804 H 1200.74 0.324657 -1.43473 0
M  V30 12805 H 1202.7 3.15501 -2.72975 0
M  V30 12806 H 1201.33 2.77157 -1.65481 0
M  V30 12807 H 1200.38 1.29915 -3.57528 0
M  V30 12808 H 1201.69 1.90808 -4.60862 0
M  V30 12809 H 1200.84 4.2475 -4.33211 0
M  V30 12810 H 1199.58 3.67856 -3.20208 0
M  V30 12811 H 1198.59 2.2546 -5.01446 0
M  V30 12812 H 1199.81 2.85278 -6.16273 0
M  V30 12813 H 1197.76 4.56447 -4.71161 0
M  V30 12814 H 1197.68 4.0703 -6.37073 0
M  V30 12815 H 1198.94 5.14305 -5.85757 0
M  V30 12816 N 1203.17 1.53854 0.341593 0
M  V30 12817 C 1204.1 1.84966 1.42513 0
M  V30 12818 C 1205.08 0.704944 1.54805 0
M  V30 12819 O 1206.27 0.957036 1.68981 0
M  V30 12820 C 1203.4 2.06099 2.79536 0
M  V30 12821 C 1202.35 3.21919 2.82049 0
M  V30 12822 C 1201.68 3.28389 4.21977 0
M  V30 12823 C 1202.98 4.59984 2.4741 0
M  V30 12824 H 1204.67 2.7571 1.16724 0
M  V30 12825 H 1202.22 1.32662 0.560073 0
M  V30 12826 H 1204.17 2.26448 3.55386 0
M  V30 12827 H 1202.9 1.12087 3.06764 0
M  V30 12828 H 1201.56 3.01429 2.08653 0
M  V30 12829 H 1201.2 2.3197 4.46317 0
M  V30 12830 H 1200.9 4.0622 4.24569 0
M  V30 12831 H 1202.43 3.50951 4.99666 0
M  V30 12832 H 1203.84 4.80334 3.12973 0
M  V30 12833 H 1202.24 5.40233 2.61282 0
M  V30 12834 H 1203.31 4.6346 1.42594 0
M  V30 12835 N 1204.65 -0.602709 1.4562 0
M  V30 12836 C 1205.88 -1.38608 1.53203 0
M  V30 12837 C 1206.29 -1.88478 0.165098 0
M  V30 12838 O 1205.63 -1.63142 -0.844421 0
M  V30 12839 C 1205.69 -2.62214 2.45935 0
M  V30 12840 C 1205.36 -2.3395 3.92577 0
M  V30 12841 C 1206.36 -1.94011 4.82344 0
M  V30 12842 C 1204.04 -2.46711 4.37537 0
M  V30 12843 C 1206.03 -1.67202 6.15079 0
M  V30 12844 C 1203.72 -2.19515 5.70313 0
M  V30 12845 C 1204.72 -1.79823 6.58903 0
M  V30 12846 O 1204.41 -1.52948 7.89216 0
M  V30 12847 H 1204.14 -0.43052 0.52118 0
M  V30 12848 H 1206.69 -0.741655 1.91543 0
M  V30 12849 H 1204.92 -3.29394 2.02575 0
M  V30 12850 H 1206.61 -3.24264 2.44147 0
M  V30 12851 H 1207.38 -1.83684 4.48871 0
M  V30 12852 H 1203.26 -2.76572 3.68821 0
M  V30 12853 H 1206.8 -1.36146 6.84186 0
M  V30 12854 H 1202.7 -2.2946 6.03339 0
M  V30 12855 H 1203.47 -1.6696 8.01291 0
M  V30 12856 N 1206.13 -1.32992 -0.845635 0
M  V30 12857 C 1207.38 -1.23415 -1.59536 0
M  V30 12858 C 1207.69 0.200278 -1.94572 0
M  V30 12859 O 1208.9 0.417993 -2.68263 0
M  V30 12860 C 1207.35 -2.16207 -2.8772 0
M  V30 12861 C 1206.96 -3.64782 -2.60073 0
M  V30 12862 C 1208.71 -2.15488 -3.65739 0
M  V30 12863 C 1206.61 -4.49508 -3.84313 0
M  V30 12864 H 1205.54 -0.458366 -0.598679 0
M  V30 12865 H 1208.19 -1.58012 -0.932981 0
M  V30 12866 H 1206.58 -1.74535 -3.55462 0
M  V30 12867 H 1207.75 -4.14852 -2.00585 0
M  V30 12868 H 1206.06 -3.67723 -1.95369 0
M  V30 12869 H 1208.66 -2.76021 -4.57948 0
M  V30 12870 H 1209 -1.14818 -4.00153 0
M  V30 12871 H 1209.54 -2.55487 -3.04912 0
M  V30 12872 H 1206.28 -5.51027 -3.55035 0
M  V30 12873 H 1205.8 -4.04185 -4.43165 0
M  V30 12874 H 1207.48 -4.62969 -4.51961 0
M  V30 12875 N 1207.61 1.06304 -1.1635 0
M  V30 12876 C 1208.54 2.13732 -0.827721 0
M  V30 12877 C 1209.55 1.61962 0.164983 0
M  V30 12878 O 1210.74 1.784 -0.0597591 0
M  V30 12879 C 1207.84 3.38239 -0.211623 0
M  V30 12880 C 1207.01 4.19325 -1.2444 0
M  V30 12881 C 1206.07 5.22193 -0.648127 0
M  V30 12882 O 1205.1 5.53755 -1.31695 0
M  V30 12883 N 1206.3 5.77742 0.565179 0
M  V30 12884 H 1209.07 2.43136 -1.75228 0
M  V30 12885 H 1206.63 1.22304 -1.06081 0
M  V30 12886 H 1208.62 4.04204 0.200306 0
M  V30 12887 H 1207.19 3.06461 0.616491 0
M  V30 12888 H 1206.41 3.49017 -1.83251 0
M  V30 12889 H 1207.7 4.70306 -1.94138 0
M  V30 12890 H 1207.1 5.54366 1.12673 0
M  V30 12891 H 1205.65 6.45284 0.919321 0
M  V30 12892 N 1209.09 0.96196 1.24836 0
M  V30 12893 C 1210.31 0.63814 1.96813 0
M  V30 12894 C 1210.73 -0.79127 1.71419 0
M  V30 12895 O 1210.09 -1.5302 0.994546 0
M  V30 12896 C 1210.14 0.89626 3.50213 0
M  V30 12897 O 1209.86 2.26947 3.74735 0
M  V30 12898 C 1211.36 0.585836 4.39412 0
M  V30 12899 H 1208.58 0.238598 0.627146 0
M  V30 12900 H 1211.12 1.28833 1.58815 0
M  V30 12901 H 1209.28 0.292368 3.86295 0
M  V30 12902 H 1209.69 2.34514 4.69152 0
M  V30 12903 H 1211.17 0.816935 5.45921 0
M  V30 12904 H 1211.64 -0.479784 4.36572 0
M  V30 12905 H 1212.25 1.16938 4.08908 0
M  V30 12906 N 1210.56 -1.39601 0.731392 0
M  V30 12907 C 1211.79 -2.04887 0.28789 0
M  V30 12908 C 1212.21 -1.55138 -1.076 0
M  V30 12909 O 1211.56 -0.71471 -1.67923 0
M  V30 12910 C 1211.61 -3.6044 0.276629 0
M  V30 12911 O 1211.34 -4.08358 1.58668 0
M  V30 12912 C 1212.84 -4.4292 -0.183485 0
M  V30 12913 H 1210.06 -0.658976 0.126459 0
M  V30 12914 H 1212.6 -1.78716 0.994031 0
M  V30 12915 H 1210.76 -3.85526 -0.380597 0
M  V30 12916 H 1211.17 -5.02659 1.4978 0
M  V30 12917 H 1212.64 -5.51822 -0.140207 0
M  V30 12918 H 1213.12 -4.2168 -1.22811 0
M  V30 12919 H 1213.73 -4.22976 0.444042 0
M  V30 12920 N 1212.04 -0.478751 -1.50152 0
M  V30 12921 C 1213.27 0.0710485 -2.06778 0
M  V30 12922 C 1213.69 1.32826 -1.34174 0
M  V30 12923 O 1213.04 1.77758 -0.413304 0
M  V30 12924 C 1213.09 0.351351 -3.59789 0
M  V30 12925 O 1212.81 -0.855998 -4.29656 0
M  V30 12926 C 1214.32 0.947269 -4.33061 0
M  V30 12927 H 1211.54 -0.0105032 -0.670918 0
M  V30 12928 H 1214.08 -0.669732 -1.93222 0
M  V30 12929 H 1212.23 1.04207 -3.73121 0
M  V30 12930 H 1212.65 -0.605252 -5.20996 0
M  V30 12931 H 1214.12 1.09312 -5.41068 0
M  V30 12932 H 1214.6 1.93937 -3.94062 0
M  V30 12933 H 1215.21 0.294693 -4.24278 0
M  V30 12934 N 1213.52 1.56172 -0.211661 0
M  V30 12935 C 1214.45 2.22843 0.697375 0
M  V30 12936 C 1215.43 1.19689 1.20866 0
M  V30 12937 O 1216.62 1.48245 1.25447 0
M  V30 12938 C 1213.75 2.90067 1.90993 0
M  V30 12939 C 1212.7 3.99608 1.5329 0
M  V30 12940 C 1212.03 4.54078 2.82343 0
M  V30 12941 C 1213.33 5.17169 0.730333 0
M  V30 12942 H 1215.02 2.99065 0.141533 0
M  V30 12943 H 1212.57 1.43846 0.0666337 0
M  V30 12944 H 1214.52 3.35396 2.55123 0
M  V30 12945 H 1213.24 2.11276 2.49058 0
M  V30 12946 H 1211.9 3.54995 0.915115 0
M  V30 12947 H 1211.55 3.72029 3.38531 0
M  V30 12948 H 1211.25 5.28001 2.57853 0
M  V30 12949 H 1212.77 5.02119 3.47432 0
M  V30 12950 H 1214.19 5.5894 1.2751 0
M  V30 12951 H 1212.59 5.97262 0.582916 0
M  V30 12952 H 1213.66 4.84174 -0.265157 0
M  V30 12953 N 1215 -0.0618163 1.57479 0
M  V30 12954 C 1216.23 -0.771724 1.91969 0
M  V30 12955 C 1216.64 -1.7061 0.808549 0
M  V30 12956 O 1216 -1.812 -0.217455 0
M  V30 12957 C 1216.05 -1.55687 3.26257 0
M  V30 12958 O 1215.77 -0.660032 4.331 0
M  V30 12959 C 1217.27 -2.36688 3.74825 0
M  V30 12960 H 1214.49 -0.21885 0.634307 0
M  V30 12961 H 1217.04 -0.0291068 2.04479 0
M  V30 12962 H 1215.19 -2.25167 3.15244 0
M  V30 12963 H 1215.6 -1.20715 5.1042 0
M  V30 12964 H 1217.08 -2.8722 4.7139 0
M  V30 12965 H 1217.56 -3.1666 3.0434 0
M  V30 12966 H 1218.16 -1.72346 3.88815 0
M  V30 12967 N 1216.48 -1.54033 -0.333429 0
M  V30 12968 C 1217.72 -1.72019 -1.07411 0
M  V30 12969 C 1218.06 -0.487265 -1.87988 0
M  V30 12970 O 1217.33 0.515757 -1.87537 0
M  V30 12971 C 1217.61 -2.98986 -2.00698 0
M  V30 12972 C 1217.47 -4.32509 -1.23517 0
M  V30 12973 C 1218.79 -3.21663 -3.00368 0
M  V30 12974 H 1215.9 -0.625919 -0.389094 0
M  V30 12975 H 1218.55 -1.86717 -0.351697 0
M  V30 12976 H 1216.7 -2.86586 -2.62298 0
M  V30 12977 H 1218.37 -4.56775 -0.644522 0
M  V30 12978 H 1216.61 -4.3046 -0.537298 0
M  V30 12979 H 1217.28 -5.17547 -1.91962 0
M  V30 12980 H 1219.76 -3.33459 -2.48886 0
M  V30 12981 H 1218.63 -4.11877 -3.62834 0
M  V30 12982 H 1218.9 -2.3843 -3.72295 0
M  V30 12983 N 1217.95 0.594978 -1.45938 0
M  V30 12984 C 1219.18 1.38482 -1.54394 0
M  V30 12985 C 1219.6 1.87222 -0.181563 0
M  V30 12986 O 1218.96 1.60869 0.836119 0
M  V30 12987 C 1219.01 2.55676 -2.54287 0
M  V30 12988 O 1218.11 3.5672 -2.06941 0
M  V30 12989 H 1217.46 0.412918 -0.519995 0
M  V30 12990 H 1219.99 0.722899 -1.91404 0
M  V30 12991 H 1220 3.02756 -2.73501 0
M  V30 12992 H 1218.67 2.19552 -3.53228 0
M  V30 12993 H 1217.25 3.16204 -1.97661 0
M  V30 12994 N 1219.43 1.33438 0.838571 0
M  V30 12995 C 1220.68 1.25097 1.5962 0
M  V30 12996 C 1221.01 -0.182798 1.93338 0
M  V30 12997 O 1220.29 -1.1242 1.5872 0
M  V30 12998 C 1220.57 2.12655 2.90603 0
M  V30 12999 C 1220.42 3.64491 2.63565 0
M  V30 13000 C 1221.74 1.99994 3.92033 0
M  V30 13001 H 1218.86 0.455776 0.579169 0
M  V30 13002 H 1221.5 1.63542 0.967169 0
M  V30 13003 H 1219.65 1.79998 3.44286 0
M  V30 13004 H 1221.32 4.0744 2.16312 0
M  V30 13005 H 1219.57 3.86356 1.9726 0
M  V30 13006 H 1220.24 4.21101 3.569 0
M  V30 13007 H 1222.71 2.28635 3.47657 0
M  V30 13008 H 1221.59 2.63509 4.81512 0
M  V30 13009 H 1221.85 0.972263 4.31277 0
M  V30 13010 N 1220.91 -1.05686 1.16912 0
M  V30 13011 C 1222.14 -1.82821 0.979348 0
M  V30 13012 C 1222.56 -1.82196 -0.467575 0
M  V30 13013 O 1221.92 -1.22727 -1.33445 0
M  V30 13014 C 1221.97 -3.2705 1.51891 0
M  V30 13015 O 1221.07 -4.05899 0.729341 0
M  V30 13016 H 1220.41 -0.565455 0.348076 0
M  V30 13017 H 1222.94 -1.33211 1.55293 0
M  V30 13018 H 1222.95 -3.77859 1.53904 0
M  V30 13019 H 1221.63 -3.26819 2.5722 0
M  V30 13020 H 1220.2 -3.64646 0.780221 0
M  V30 13021 N 1222.39 -0.968567 -1.24324 0
M  V30 13022 C 1223.32 -0.518323 -2.27674 0
M  V30 13023 C 1224.3 0.442479 -1.64244 0
M  V30 13024 O 1225.48 0.338416 -1.91229 0
M  V30 13025 C 1222.61 0.191459 -3.46772 0
M  V30 13026 C 1221.57 -0.685449 -4.22476 0
M  V30 13027 C 1220.89 0.155873 -5.34473 0
M  V30 13028 C 1222.19 -1.97047 -4.83704 0
M  V30 13029 H 1223.89 -1.38215 -2.65588 0
M  V30 13030 H 1221.43 -0.66604 -1.27671 0
M  V30 13031 H 1223.39 0.517667 -4.18208 0
M  V30 13032 H 1222.11 1.08965 -3.07887 0
M  V30 13033 H 1220.77 -0.994942 -3.52841 0
M  V30 13034 H 1220.42 1.05424 -4.91828 0
M  V30 13035 H 1220.12 -0.427655 -5.86042 0
M  V30 13036 H 1221.64 0.476733 -6.08736 0
M  V30 13037 H 1223.06 -1.70979 -5.4721 0
M  V30 13038 H 1221.45 -2.50079 -5.45509 0
M  V30 13039 H 1222.52 -2.66484 -4.0511 0
M  V30 13040 N 1223.87 1.39211 -0.738786 0
M  V30 13041 C 1225.09 2.05256 -0.297421 0
M  V30 13042 C 1225.52 1.55341 1.06069 0
M  V30 13043 O 1224.87 0.698823 1.67291 0
M  V30 13044 C 1224.92 3.59239 -0.312969 0
M  V30 13045 O 1224.03 4.06448 0.698112 0
M  V30 13046 H 1223.37 0.650245 -0.134454 0
M  V30 13047 H 1225.9 1.78173 -1.00577 0
M  V30 13048 H 1225.91 4.07691 -0.158675 0
M  V30 13049 H 1224.58 3.94931 -1.30394 0
M  V30 13050 H 1223.16 3.69401 0.509643 0
M  V30 13051 N 1225.34 0.486708 1.49896 0
M  V30 13052 C 1226.31 -0.288126 2.27382 0
M  V30 13053 C 1227.31 -0.906675 1.32801 0
M  V30 13054 O 1228.5 -0.773425 1.56089 0
M  V30 13055 C 1225.63 -1.41194 3.10285 0
M  V30 13056 H 1226.82 0.391618 2.97332 0
M  V30 13057 H 1224.38 0.24123 1.54427 0
M  V30 13058 H 1225.11 -2.12627 2.44868 0
M  V30 13059 H 1224.9 -0.974033 3.79809 0
M  V30 13060 H 1226.39 -1.95812 3.68846 0
M  V30 13061 N 1226.82 -1.56058 0.219941 0
M  V30 13062 C 1228.05 -2.031 -0.42014 0
M  V30 13063 C 1228.47 -1.09875 -1.52673 0
M  V30 13064 O 1227.83 -0.0866458 -1.81093 0
M  V30 13065 C 1227.88 -3.48389 -0.93047 0
M  V30 13066 O 1226.98 -3.583 -2.04192 0
M  V30 13067 H 1226.32 -0.657129 -0.0952772 0
M  V30 13068 H 1228.85 -2.01787 0.338105 0
M  V30 13069 H 1228.86 -3.88678 -1.2407 0
M  V30 13070 H 1227.54 -4.15725 -0.120539 0
M  V30 13071 H 1226.12 -3.29898 -1.73845 0
M  V30 13072 N 1228.3 0.053464 -1.57509 0
M  V30 13073 C 1229.55 0.750212 -1.88414 0
M  V30 13074 C 1229.88 1.76288 -0.814619 0
M  V30 13075 O 1229.16 1.93728 0.173136 0
M  V30 13076 C 1229.44 1.44176 -3.29978 0
M  V30 13077 C 1229.29 0.444263 -4.47601 0
M  V30 13078 C 1230.61 2.38207 -3.70061 0
M  V30 13079 H 1227.73 0.271266 -0.685262 0
M  V30 13080 H 1230.37 0.0131676 -1.89995 0
M  V30 13081 H 1228.52 2.07001 -3.2876 0
M  V30 13082 H 1230.19 -0.180182 -4.60948 0
M  V30 13083 H 1228.44 -0.238771 -4.33142 0
M  V30 13084 H 1229.11 0.966134 -5.43479 0
M  V30 13085 H 1231.58 1.85446 -3.7249 0
M  V30 13086 H 1230.46 2.83588 -4.69967 0
M  V30 13087 H 1230.72 3.23821 -3.00985 0
M  V30 13088 N 1229.78 1.54207 0.325255 0
M  V30 13089 C 1231 1.7661 1.08736 0
M  V30 13090 C 1231.43 0.512449 1.80985 0
M  V30 13091 O 1230.79 -0.535913 1.73198 0
M  V30 13092 C 1230.84 2.95797 2.06243 0
M  V30 13093 O 1229.94 2.67225 3.14109 0
M  V30 13094 H 1229.28 0.585282 0.313593 0
M  V30 13095 H 1231.81 2.01225 0.370066 0
M  V30 13096 H 1231.82 3.23097 2.49143 0
M  V30 13097 H 1230.5 3.86712 1.53058 0
M  V30 13098 H 1229.07 2.50869 2.75897 0
M  V30 13099 N 1231.26 -0.58723 1.46251 0
M  V30 13100 C 1232.19 -1.70694 1.5933 0
M  V30 13101 C 1233.17 -1.64208 0.443831 0
M  V30 13102 O 1234.35 -1.82294 0.669516 0
M  V30 13103 C 1231.48 -3.0933 1.579 0
M  V30 13104 C 1230.44 -3.30643 2.7177 0
M  V30 13105 C 1229.76 -4.69761 2.554 0
M  V30 13106 C 1231.06 -3.18916 4.1363 0
M  V30 13107 H 1232.76 -1.60004 2.53059 0
M  V30 13108 H 1230.3 -0.768343 1.21789 0
M  V30 13109 H 1232.26 -3.87479 1.65644 0
M  V30 13110 H 1230.98 -3.20907 0.60712 0
M  V30 13111 H 1229.64 -2.54892 2.63488 0
M  V30 13112 H 1229.29 -4.78098 1.56306 0
M  V30 13113 H 1228.99 -4.84974 3.31774 0
M  V30 13114 H 1230.51 -5.50084 2.65028 0
M  V30 13115 H 1231.93 -3.86915 4.23048 0
M  V30 13116 H 1230.32 -3.45653 4.90555 0
M  V30 13117 H 1231.39 -2.1606 4.34104 0
M  V30 13118 N 1232.74 -1.33881 -0.831482 0
M  V30 13119 C 1233.98 -1.25507 -1.58406 0
M  V30 13120 C 1234.3 0.177137 -1.94194 0
M  V30 13121 O 1233.57 1.10769 -1.61576 0
M  V30 13122 H 1232.15 -0.461551 -0.587349 0
M  V30 13123 H 1234.82 -1.6769 -0.99328 0
M  V30 13124 H 1233.91 -1.85391 -2.51071 0
M  V30 13125 N 1234.21 1.05064 -1.1747 0
M  V30 13126 C 1235.15 2.12334 -0.836028 0
M  V30 13127 C 1236.12 1.61393 0.197733 0
M  V30 13128 O 1237.31 1.88334 0.0789748 0
M  V30 13129 C 1234.44 3.37796 -0.24734 0
M  V30 13130 C 1233.48 4.07565 -1.25669 0
M  V30 13131 S 1234.31 4.55941 -2.80853 0
M  V30 13132 C 1235.47 5.84648 -2.23468 0
M  V30 13133 H 1235.7 2.40735 -1.74453 0
M  V30 13134 H 1233.24 1.17684 -0.999495 0
M  V30 13135 H 1235.19 4.1041 0.0858241 0
M  V30 13136 H 1233.86 3.07529 0.639124 0
M  V30 13137 H 1233.05 4.97715 -0.793465 0
M  V30 13138 H 1232.65 3.41022 -1.53557 0
M  V30 13139 H 1234.94 6.58067 -1.61104 0
M  V30 13140 H 1235.89 6.35719 -3.11877 0
M  V30 13141 H 1236.29 5.39272 -1.6687 0
M  V30 13142 N 1235.69 0.975146 1.23809 0
M  V30 13143 C 1236.62 0.530389 2.27396 0
M  V30 13144 C 1237.6 -0.433763 1.64476 0
M  V30 13145 O 1238.79 -0.32827 1.91405 0
M  V30 13146 C 1235.92 -0.173066 3.46869 0
M  V30 13147 C 1234.87 0.707844 4.22106 0
M  V30 13148 C 1234.2 -0.127527 5.34548 0
M  V30 13149 C 1235.5 1.99609 4.82652 0
M  V30 13150 H 1237.19 1.39622 2.64851 0
M  V30 13151 H 1234.74 0.672802 1.27316 0
M  V30 13152 H 1236.69 -0.495481 4.18477 0
M  V30 13153 H 1235.41 -1.0733 3.0846 0
M  V30 13154 H 1234.07 1.01364 3.52308 0
M  V30 13155 H 1233.72 -1.02814 4.9238 0
M  V30 13156 H 1233.42 0.458728 5.85807 0
M  V30 13157 H 1234.95 -0.444443 6.0898 0
M  V30 13158 H 1236.36 1.73878 5.46296 0
M  V30 13159 H 1234.76 2.52969 5.44175 0
M  V30 13160 H 1235.83 2.68629 4.03691 0
M  V30 13161 N 1237.17 -1.38817 0.746158 0
M  V30 13162 C 1238.4 -2.04274 0.309156 0
M  V30 13163 C 1238.81 -1.56389 -1.06486 0
M  V30 13164 O 1238.15 -0.728875 -1.68621 0
M  V30 13165 C 1238.21 -3.58664 0.245003 0
M  V30 13166 C 1237.88 -4.29574 1.55933 0
M  V30 13167 C 1238.87 -4.55454 2.50714 0
M  V30 13168 C 1236.56 -4.67907 1.82671 0
M  V30 13169 C 1238.55 -5.18691 3.70458 0
M  V30 13170 C 1236.24 -5.30869 3.0269 0
M  V30 13171 C 1237.24 -5.56195 3.96404 0
M  V30 13172 O 1236.93 -6.17848 5.14314 0
M  V30 13173 H 1236.66 -0.663162 0.131121 0
M  V30 13174 H 1239.21 -1.78636 1.01382 0
M  V30 13175 H 1237.44 -3.83244 -0.515847 0
M  V30 13176 H 1239.13 -4.05579 -0.16149 0
M  V30 13177 H 1239.9 -4.26276 2.3133 0
M  V30 13178 H 1235.78 -4.47544 1.10568 0
M  V30 13179 H 1239.32 -5.38375 4.4362 0
M  V30 13180 H 1235.22 -5.59469 3.2197 0
M  V30 13181 H 1235.98 -6.36338 5.14797 0
M  V30 13182 N 1238.65 -0.49465 -1.49636 0
M  V30 13183 C 1239.58 0.33366 -2.25748 0
M  V30 13184 C 1240.56 0.97591 -1.30057 0
M  V30 13185 O 1241.74 1.00725 -1.59332 0
M  V30 13186 C 1238.87 1.46938 -3.05167 0
M  V30 13187 C 1237.92 0.942149 -4.15964 0
M  V30 13188 S 1238.75 -0.162019 -5.35255 0
M  V30 13189 C 1239.9 0.977022 -6.18227 0
M  V30 13190 H 1240.14 -0.312361 -2.95655 0
M  V30 13191 H 1237.67 -0.279854 -1.51843 0
M  V30 13192 H 1239.63 2.12017 -3.5151 0
M  V30 13193 H 1238.29 2.087 -2.34741 0
M  V30 13194 H 1237.48 1.79309 -4.71025 0
M  V30 13195 H 1237.08 0.368687 -3.72178 0
M  V30 13196 H 1239.38 1.88363 -6.50788 0
M  V30 13197 H 1240.32 0.465168 -7.0657 0
M  V30 13198 H 1240.73 1.24149 -5.50679 0
M  V30 13199 N 1240.13 1.55939 -0.228214 0
M  V30 13200 C 1241.54 1.84612 0.278417 0
M  V30 13201 C 1241.89 1.14973 1.58983 0
M  V30 13202 O 1241.01 0.421673 2.12252 0
M  V30 13203 C 1241.61 3.3491 0.511935 0
M  V30 13204 C 1240.17 3.63876 0.962861 0
M  V30 13205 C 1239.31 2.77284 0.0296246 0
M  V30 13206 H 1242.26 1.52149 -0.451245 0
M  V30 13207 H 1242.29 3.55477 1.35707 0
M  V30 13208 H 1241.8 3.85567 -0.442697 0
M  V30 13209 H 1239.9 3.18682 1.93062 0
M  V30 13210 H 1240.01 4.71809 0.832659 0
M  V30 13211 H 1238.38 2.48961 0.53763 0
M  V30 13212 H 1239.16 3.30742 -0.920044 0
M  V30 13213 N 1241.6 -0.0451101 1.57535 0
M  V30 13214 C 1242.55 -1.05066 2.05499 0
M  V30 13215 C 1243.52 -1.36884 0.940843 0
M  V30 13216 O 1244.71 -1.47497 1.21034 0
M  V30 13217 C 1241.85 -2.35139 2.52594 0
M  V30 13218 C 1240.96 -2.0962 3.77735 0
M  V30 13219 C 1240.09 -3.33447 4.13505 0
M  V30 13220 C 1239.13 -3.03411 5.31609 0
M  V30 13221 N 1238.27 -4.19644 5.62888 0
M  V30 13222 H 1243.11 -0.63469 2.91163 0
M  V30 13223 H 1240.65 -0.30179 1.43971 0
M  V30 13224 H 1242.61 -3.11118 2.7796 0
M  V30 13225 H 1241.24 -2.74489 1.69869 0
M  V30 13226 H 1240.29 -1.24211 3.59549 0
M  V30 13227 H 1241.6 -1.83452 4.63839 0
M  V30 13228 H 1240.75 -4.17805 4.39914 0
M  V30 13229 H 1239.49 -3.62715 3.2602 0
M  V30 13230 H 1238.5 -2.17453 5.04969 0
M  V30 13231 H 1239.72 -2.75438 6.20734 0
M  V30 13232 H 1237.67 -4.48893 4.78363 0
M  V30 13233 H 1237.59 -3.96843 6.43468 0
M  V30 13234 H 1238.85 -5.04921 5.93865 0
M  V30 13235 N 1243.08 -1.54377 -0.317073 0
M  V30 13236 C 1244.33 -1.73149 -1.05581 0
M  V30 13237 C 1244.66 -0.507176 -1.8746 0
M  V30 13238 O 1243.94 0.495837 -1.88074 0
M  V30 13239 C 1244.22 -3.01098 -1.97515 0
M  V30 13240 C 1244.07 -4.33794 -1.18922 0
M  V30 13241 C 1245.39 -3.24831 -2.9694 0
M  V30 13242 H 1242.51 -0.630011 -0.382434 0
M  V30 13243 H 1245.15 -1.87079 -0.331873 0
M  V30 13244 H 1243.3 -2.89352 -2.59244 0
M  V30 13245 H 1244.97 -4.57433 -0.596039 0
M  V30 13246 H 1243.22 -4.31005 -0.491612 0
M  V30 13247 H 1243.89 -5.19554 -1.86462 0
M  V30 13248 H 1246.36 -3.3608 -2.45335 0
M  V30 13249 H 1245.24 -4.15702 -3.58445 0
M  V30 13250 H 1245.5 -2.42365 -3.69745 0
M  V30 13251 N 1244.56 0.579466 -1.4656 0
M  V30 13252 C 1245.79 1.36153 -1.55389 0
M  V30 13253 C 1246.2 1.88192 -0.195062 0
M  V30 13254 O 1245.54 1.64464 0.81836 0
M  V30 13255 C 1245.6 2.58269 -2.50075 0
M  V30 13256 C 1245.27 2.27675 -3.96249 0
M  V30 13257 C 1246.26 1.86313 -4.85369 0
M  V30 13258 C 1243.95 2.39719 -4.41407 0
M  V30 13259 C 1245.94 1.57395 -6.17661 0
M  V30 13260 C 1243.63 2.10414 -5.73733 0
M  V30 13261 C 1244.63 1.69317 -6.6168 0
M  V30 13262 O 1244.32 1.40373 -7.9155 0
M  V30 13263 H 1244.05 0.422174 -0.527963 0
M  V30 13264 H 1246.6 0.711089 -1.92698 0
M  V30 13265 H 1244.83 3.26129 -2.0779 0
M  V30 13266 H 1246.52 3.20339 -2.49275 0
M  V30 13267 H 1247.29 1.7652 -4.51736 0
M  V30 13268 H 1243.17 2.70669 -3.73175 0
M  V30 13269 H 1246.71 1.25244 -6.86265 0
M  V30 13270 H 1242.61 2.19833 -6.06913 0
M  V30 13271 H 1243.38 1.54191 -8.03845 0
M  V30 13272 N 1246.04 1.3432 0.824371 0
M  V30 13273 C 1247.29 1.25938 1.57552 0
M  V30 13274 C 1247.6 -0.169298 1.94866 0
M  V30 13275 O 1248.81 -0.375262 2.68894 0
M  V30 13276 C 1247.26 2.20757 2.84244 0
M  V30 13277 C 1246.87 3.68873 2.54237 0
M  V30 13278 C 1248.61 2.21279 3.62265 0
M  V30 13279 C 1246.52 4.55566 3.77113 0
M  V30 13280 H 1245.45 0.467832 0.591311 0
M  V30 13281 H 1248.1 1.59476 0.907724 0
M  V30 13282 H 1246.48 1.80168 3.52641 0
M  V30 13283 H 1247.66 4.17991 1.93959 0
M  V30 13284 H 1245.97 3.70784 1.89494 0
M  V30 13285 H 1248.57 2.83272 4.53499 0
M  V30 13286 H 1248.91 1.2117 3.98276 0
M  V30 13287 H 1249.45 2.60305 3.00809 0
M  V30 13288 H 1246.19 5.56605 3.46223 0
M  V30 13289 H 1245.71 4.11184 4.36678 0
M  V30 13290 H 1247.38 4.701 4.44539 0
M  V30 13291 N 1247.52 -1.0444 1.18026 0
M  V30 13292 C 1248.77 -1.7697 0.9677 0
M  V30 13293 C 1249.08 -1.88995 -0.503994 0
M  V30 13294 O 1250.28 -2.58342 -0.834968 0
M  V30 13295 C 1248.74 -3.1816 1.68232 0
M  V30 13296 C 1248.35 -3.14241 3.19307 0
M  V30 13297 C 1250.09 -3.95095 1.55244 0
M  V30 13298 C 1248 -4.50266 3.83425 0
M  V30 13299 H 1246.93 -0.663355 0.358436 0
M  V30 13300 H 1249.58 -1.17003 1.4136 0
M  V30 13301 H 1247.96 -3.78501 1.16418 0
M  V30 13302 H 1249.14 -2.63373 3.78115 0
M  V30 13303 H 1247.45 -2.50805 3.32394 0
M  V30 13304 H 1250.05 -4.95681 2.00511 0
M  V30 13305 H 1250.39 -4.13236 0.504125 0
M  V30 13306 H 1250.92 -3.4132 2.04317 0
M  V30 13307 H 1247.66 -4.37329 4.88286 0
M  V30 13308 H 1247.18 -5.01251 3.29404 0
M  V30 13309 H 1248.86 -5.1919 3.86071 0
M  V30 13310 N 1248.99 -0.981699 -1.2329 0
M  V30 13311 C 1249.92 -0.542441 -2.27112 0
M  V30 13312 C 1250.91 0.425034 -1.64704 0
M  V30 13313 O 1252.09 0.318114 -1.91577 0
M  V30 13314 C 1249.22 0.154668 -3.46955 0
M  V30 13315 C 1248.17 -0.73022 -4.21725 0
M  V30 13316 C 1247.5 0.0991766 -5.34608 0
M  V30 13317 C 1248.8 -2.02166 -4.81587 0
M  V30 13318 H 1250.49 -1.41024 -2.64107 0
M  V30 13319 H 1248.04 -0.679544 -1.26957 0
M  V30 13320 H 1249.99 0.473281 -4.18734 0
M  V30 13321 H 1248.72 1.05693 -3.09025 0
M  V30 13322 H 1247.38 -1.03231 -3.51765 0
M  V30 13323 H 1247.02 1.00201 -4.92919 0
M  V30 13324 H 1246.72 -0.489788 -5.85555 0
M  V30 13325 H 1248.25 0.412141 -6.09207 0
M  V30 13326 H 1249.66 -1.76773 -5.45366 0
M  V30 13327 H 1248.06 -2.55851 -5.42826 0
M  V30 13328 H 1249.13 -2.70766 -4.02261 0
M  V30 13329 N 1250.47 1.3842 -0.753509 0
M  V30 13330 C 1251.72 2.00119 -0.309633 0
M  V30 13331 C 1252.05 1.59811 1.10863 0
M  V30 13332 O 1251.3 0.827013 1.77367 0
M  V30 13333 C 1251.6 3.55375 -0.379937 0
M  V30 13334 C 1251.27 4.15393 -1.75384 0
M  V30 13335 C 1249.93 4.31499 -2.12984 0
M  V30 13336 C 1252.28 4.48503 -2.65508 0
M  V30 13337 C 1249.61 4.78011 -3.4018 0
M  V30 13338 C 1251.96 4.96431 -3.92095 0
M  V30 13339 C 1250.63 5.10744 -4.29764 0
M  V30 13340 H 1249.9 0.732286 -0.113303 0
M  V30 13341 H 1252.54 1.65468 -0.963975 0
M  V30 13342 H 1250.85 3.90161 0.357969 0
M  V30 13343 H 1252.54 4.00996 -0.0180738 0
M  V30 13344 H 1249.13 4.03271 -1.45156 0
M  V30 13345 H 1253.32 4.35661 -2.37724 0
M  V30 13346 H 1248.57 4.87277 -3.69284 0
M  V30 13347 H 1252.75 5.21021 -4.62072 0
M  V30 13348 H 1250.38 5.46545 -5.28387 0
M  V30 13349 N 1251.95 0.502579 1.49372 0
M  V30 13350 C 1252.9 -0.294292 2.26093 0
M  V30 13351 C 1253.88 -0.934147 1.31006 0
M  V30 13352 O 1255.08 -0.841486 1.55718 0
M  V30 13353 C 1252.21 -1.3572 3.15333 0
M  V30 13354 C 1251.29 -0.723506 4.17883 0
M  V30 13355 N 1251.68 0.174787 5.05498 0
M  V30 13356 C 1249.98 -0.983906 4.35012 0
M  V30 13357 C 1250.68 0.537673 5.7921 0
M  V30 13358 N 1249.66 -0.0947799 5.43517 0
M  V30 13359 H 1253.46 0.397202 2.91204 0
M  V30 13360 H 1250.97 0.31876 1.59241 0
M  V30 13361 H 1252.97 -1.94154 3.6893 0
M  V30 13362 H 1251.63 -2.05036 2.51775 0
M  V30 13363 H 1252.64 0.545699 5.15017 0
M  V30 13364 H 1249.32 -1.66969 3.82658 0
M  V30 13365 H 1250.71 1.27266 6.59737 0
M  V30 13366 N 1253.43 -1.55816 0.23648 0
M  V30 13367 C 1254.84 -1.84757 -0.268622 0
M  V30 13368 C 1255.19 -1.15815 -1.58371 0
M  V30 13369 O 1254.32 -0.432923 -2.12025 0
M  V30 13370 C 1254.91 -3.35177 -0.494167 0
M  V30 13371 C 1253.47 -3.64382 -0.943551 0
M  V30 13372 C 1252.62 -2.77296 -0.0149191 0
M  V30 13373 H 1255.57 -1.51908 0.459308 0
M  V30 13374 H 1255.59 -3.56192 -1.3382 0
M  V30 13375 H 1255.1 -3.85327 0.463138 0
M  V30 13376 H 1253.2 -3.19701 -1.91369 0
M  V30 13377 H 1253.31 -4.72244 -0.807626 0
M  V30 13378 H 1251.68 -2.49243 -0.524419 0
M  V30 13379 H 1252.46 -3.30249 0.937571 0
M  V30 13380 N 1254.91 0.036755 -1.57557 0
M  V30 13381 C 1255.82 1.05687 -2.09446 0
M  V30 13382 C 1256.83 1.40137 -1.03139 0
M  V30 13383 O 1258.01 1.49611 -1.34828 0
M  V30 13384 C 1255.07 2.34114 -2.55717 0
M  V30 13385 C 1254.13 2.06316 -3.76473 0
M  V30 13386 C 1253.37 3.2862 -4.20529 0
M  V30 13387 O 1253.59 4.3902 -3.64167 0
M  V30 13388 O 1252.52 3.14772 -5.13033 0
M  V30 13389 H 1256.35 0.64593 -2.96751 0
M  V30 13390 H 1253.94 0.253235 -1.47238 0
M  V30 13391 H 1255.82 3.09631 -2.85844 0
M  V30 13392 H 1254.49 2.74519 -1.71526 0
M  V30 13393 H 1253.4 1.28392 -3.51378 0
M  V30 13394 H 1254.73 1.70772 -4.61625 0
M  V30 13395 N 1256.39 1.54543 0.308881 0
M  V30 13396 C 1257.32 1.81309 1.40212 0
M  V30 13397 C 1258.33 0.69568 1.47187 0
M  V30 13398 O 1259.52 0.973034 1.49647 0
M  V30 13399 C 1256.62 1.92901 2.78644 0
M  V30 13400 C 1255.79 3.23222 2.94697 0
M  V30 13401 C 1254.85 3.25329 4.13579 0
M  V30 13402 O 1253.88 3.989 4.06039 0
M  V30 13403 N 1255.08 2.50158 5.23833 0
M  V30 13404 H 1257.84 2.75659 1.1761 0
M  V30 13405 H 1255.41 1.54021 0.498925 0
M  V30 13406 H 1257.4 1.91721 3.56406 0
M  V30 13407 H 1255.97 1.05582 2.9423 0
M  V30 13408 H 1255.19 3.37241 2.04113 0
M  V30 13409 H 1256.48 4.09238 3.02328 0
M  V30 13410 H 1255.87 1.90002 5.32838 0
M  V30 13411 H 1254.43 2.5474 5.99959 0
M  V30 13412 N 1257.86 -0.571685 1.46866 0
M  V30 13413 C 1258.81 -1.70098 1.58649 0
M  V30 13414 C 1259.81 -1.63191 0.45443 0
M  V30 13415 O 1261.01 -1.68551 0.63171 0
M  V30 13416 H 1257.39 -0.56258 0.499007 0
M  V30 13417 H 1259.36 -1.57293 2.53577 0
M  V30 13418 C 1258.11 -3.08475 1.60433 0
M  V30 13419 H 1257.43 -3.14465 2.46884 0
M  V30 13420 H 1258.87 -3.87221 1.7273 0
M  V30 13421 C 1257.33 -3.35231 0.334948 0
M  V30 13422 O 1257.86 -3.97633 -0.570149 0
M  V30 13423 N 1256.06 -2.8977 0.219441 0
M  V30 13424 H 1255.61 -2.39168 0.956891 0
M  V30 13425 H 1255.57 -3.08044 -0.628975 0
M  V30 13426 N 1259.34 -1.34755 -0.817236 0
M  V30 13427 C 1260.59 -1.2762 -1.5761 0
M  V30 13428 C 1260.92 0.152017 -1.93604 0
M  V30 13429 O 1260.2 1.09881 -1.60488 0
M  V30 13430 C 1260.48 -2.17251 -2.87183 0
M  V30 13431 C 1260.33 -3.68638 -2.57733 0
M  V30 13432 C 1261.65 -2.06206 -3.88802 0
M  V30 13433 H 1258.77 -0.464933 -0.571845 0
M  V30 13434 H 1261.41 -1.6506 -0.941028 0
M  V30 13435 H 1259.56 -1.85452 -3.41379 0
M  V30 13436 H 1261.23 -4.10829 -2.09802 0
M  V30 13437 H 1259.48 -3.89445 -1.91089 0
M  V30 13438 H 1260.15 -4.26726 -3.50156 0
M  V30 13439 H 1262.62 -2.34137 -3.43975 0
M  V30 13440 H 1261.5 -2.71136 -4.77259 0
M  V30 13441 H 1261.76 -1.04075 -4.29675 0
M  V30 13442 N 1260.82 1.03812 -1.18578 0
M  V30 13443 C 1262.23 1.58509 -0.986496 0
M  V30 13444 C 1262.58 1.90655 0.463136 0
M  V30 13445 O 1261.71 1.69847 1.34093 0
M  V30 13446 C 1262.3 2.88 -1.78441 0
M  V30 13447 C 1260.86 3.39304 -1.6294 0
M  V30 13448 C 1260.01 2.12857 -1.77727 0
M  V30 13449 H 1262.96 0.864528 -1.33085 0
M  V30 13450 H 1262.98 3.58502 -1.27501 0
M  V30 13451 H 1262.49 2.64572 -2.83942 0
M  V30 13452 H 1260.59 3.6774 -0.599864 0
M  V30 13453 H 1260.71 4.12959 -2.42902 0
M  V30 13454 H 1259.07 2.24285 -1.20699 0
M  V30 13455 H 1259.85 1.91882 -2.84669 0
M  V30 13456 N 1262.3 0.988223 1.22768 0
M  V30 13457 C 1263.24 0.534605 2.24523 0
M  V30 13458 C 1264.21 -0.430615 1.60421 0
M  V30 13459 O 1265.4 -0.336417 1.87811 0
M  V30 13460 C 1262.54 -0.149195 3.44777 0
M  V30 13461 C 1261.65 0.85721 4.2341 0
M  V30 13462 C 1260.79 0.147411 5.30995 0
M  V30 13463 C 1259.83 1.1425 6.01343 0
M  V30 13464 N 1258.96 0.461327 7.00583 0
M  V30 13465 H 1263.8 1.40708 2.62689 0
M  V30 13466 H 1261.34 0.704918 1.2911 0
M  V30 13467 H 1263.3 -0.562527 4.1339 0
M  V30 13468 H 1261.93 -0.985485 3.07389 0
M  V30 13469 H 1260.98 1.38889 3.54138 0
M  V30 13470 H 1262.29 1.61517 4.71926 0
M  V30 13471 H 1261.45 -0.32289 6.0584 0
M  V30 13472 H 1260.19 -0.643085 4.83442 0
M  V30 13473 H 1259.19 1.62348 5.25284 0
M  V30 13474 H 1260.42 1.93379 6.50985 0
M  V30 13475 H 1258.36 -0.309818 6.55268 0
M  V30 13476 H 1258.28 1.15781 7.47082 0
M  V30 13477 H 1259.55 0.0136734 7.79499 0
M  V30 13478 N 1263.78 -1.38018 0.760839 0
M  V30 13479 C 1265.19 -1.53437 0.439239 0
M  V30 13480 C 1265.39 -1.72184 -1.04666 0
M  V30 13481 O 1264.45 -1.73698 -1.83263 0
M  V30 13482 C 1265.76 -2.73724 1.24481 0
M  V30 13483 C 1267.31 -2.87579 1.23561 0
M  V30 13484 C 1267.78 -4.10836 2.02429 0
M  V30 13485 N 1269.27 -4.17928 1.99727 0
M  V30 13486 C 1270.01 -5.12309 2.57541 0
M  V30 13487 N 1269.51 -6.12317 3.24098 0
M  V30 13488 N 1271.3 -5.04712 2.47431 0
M  V30 13489 H 1263.45 -1.241 1.72375 0
M  V30 13490 H 1265.71 -0.603427 0.73115 0
M  V30 13491 H 1265.42 -2.663 2.29732 0
M  V30 13492 H 1265.29 -3.67111 0.866579 0
M  V30 13493 H 1267.68 -2.9448 0.191122 0
M  V30 13494 H 1267.76 -1.95183 1.6534 0
M  V30 13495 H 1267.4 -4.04696 3.06893 0
M  V30 13496 H 1267.33 -5.02326 1.58039 0
M  V30 13497 H 1269.83 -3.46307 1.51262 0
M  V30 13498 H 1270.14 -6.80842 3.65615 0
M  V30 13499 H 1268.48 -6.12628 3.28195 0
M  V30 13500 H 1271.67 -4.25524 1.95057 0
M  V30 13501 H 1271.85 -5.78085 2.92783 0
M  V30 13502 N 1265.25 -0.510493 -1.49103 0
M  V30 13503 C 1266.2 0.262848 -2.29298 0
M  V30 13504 C 1267.17 0.951714 -1.36131 0
M  V30 13505 O 1268.36 0.956534 -1.65091 0
M  V30 13506 C 1265.5 1.31565 -3.19037 0
M  V30 13507 C 1264.61 0.637598 -4.27269 0
M  V30 13508 C 1263.74 1.67165 -5.04212 0
M  V30 13509 C 1262.78 0.975992 -6.04269 0
M  V30 13510 N 1261.92 1.95468 -6.74342 0
M  V30 13511 H 1266.76 -0.427246 -2.94921 0
M  V30 13512 H 1264.3 -0.222538 -1.45407 0
M  V30 13513 H 1266.25 1.93813 -3.69449 0
M  V30 13514 H 1264.88 1.97438 -2.55379 0
M  V30 13515 H 1263.94 -0.0983863 -3.80273 0
M  V30 13516 H 1265.25 0.0904435 -4.98718 0
M  V30 13517 H 1264.4 2.36893 -5.5854 0
M  V30 13518 H 1263.14 2.25267 -4.32557 0
M  V30 13519 H 1262.15 0.264534 -5.49163 0
M  V30 13520 H 1263.37 0.40134 -6.77913 0
M  V30 13521 H 1261.32 2.52515 -6.05452 0
M  V30 13522 H 1261.23 1.45845 -7.41799 0
M  V30 13523 H 1262.5 2.64455 -7.33269 0
M  V30 13524 N 1266.73 1.55688 -0.24474 0
M  V30 13525 C 1268.15 1.59219 0.110159 0
M  V30 13526 C 1268.35 1.26187 1.57096 0
M  V30 13527 O 1267.4 1.00815 2.31501 0
M  V30 13528 C 1268.72 2.99764 -0.237075 0
M  V30 13529 C 1270.26 3.12475 -0.181198 0
M  V30 13530 C 1270.74 4.55236 -0.502435 0
M  V30 13531 N 1272.23 4.60981 -0.452855 0
M  V30 13532 C 1272.97 5.69418 -0.674605 0
M  V30 13533 N 1272.46 6.86125 -0.959366 0
M  V30 13534 N 1274.25 5.5883 -0.605459 0
M  V30 13535 H 1266.41 1.7543 -1.19741 0
M  V30 13536 H 1268.67 0.816537 -0.481634 0
M  V30 13537 H 1268.37 3.28666 -1.25185 0
M  V30 13538 H 1268.25 3.74662 0.436859 0
M  V30 13539 H 1270.64 2.83355 0.824248 0
M  V30 13540 H 1270.72 2.39857 -0.888952 0
M  V30 13541 H 1270.36 4.85077 -1.50543 0
M  V30 13542 H 1270.29 5.26111 0.226773 0
M  V30 13543 H 1272.78 3.77128 -0.241401 0
M  V30 13544 H 1273.09 7.64699 -1.11605 0
M  V30 13545 H 1271.44 6.87814 -0.996816 0
M  V30 13546 H 1274.63 4.6653 -0.383053 0
M  V30 13547 H 1274.8 6.43268 -0.781673 0
M  V30 13548 N 1268.21 -0.0283989 1.57574 0
M  V30 13549 C 1269.43 -0.734537 1.93957 0
M  V30 13550 C 1269.86 -1.68062 0.844787 0
M  V30 13551 O 1269.22 -1.802 -0.199432 0
M  V30 13552 C 1269.27 -1.46716 3.29404 0
M  V30 13553 O 1268.37 -2.58036 3.217 0
M  V30 13554 H 1267.71 -0.197507 0.633946 0
M  V30 13555 H 1270.24 0.0163258 2.04593 0
M  V30 13556 H 1270.25 -1.83693 3.64309 0
M  V30 13557 H 1268.93 -0.773292 4.08648 0
M  V30 13558 H 1267.5 -2.23597 2.98427 0
M  V30 13559 N 1269.69 -1.54705 -0.300681 0
M  V30 13560 C 1270.62 -1.88679 -1.37559 0
M  V30 13561 C 1271.6 -0.74574 -1.52881 0
M  V30 13562 O 1272.78 -1.0015 -1.66384 0
M  V30 13563 C 1269.91 -2.13438 -2.73974 0
M  V30 13564 C 1268.87 -3.29284 -2.73415 0
M  V30 13565 C 1268.19 -3.39462 -4.13122 0
M  V30 13566 C 1269.49 -4.66382 -2.35128 0
M  V30 13567 H 1271.19 -2.78707 -1.09373 0
M  V30 13568 H 1268.73 -1.341 -0.524704 0
M  V30 13569 H 1270.69 -2.35791 -3.49257 0
M  V30 13570 H 1269.41 -1.20181 -3.03684 0
M  V30 13571 H 1268.07 -3.06855 -2.00588 0
M  V30 13572 H 1267.72 -2.43721 -4.4001 0
M  V30 13573 H 1267.42 -4.17334 -4.1365 0
M  V30 13574 H 1268.94 -3.64075 -4.90185 0
M  V30 13575 H 1270.36 -4.88463 -3.00128 0
M  V30 13576 H 1268.75 -5.4697 -2.46867 0
M  V30 13577 H 1269.82 -4.67078 -1.30256 0
M  V30 13578 N 1271.17 0.563888 -1.47167 0
M  V30 13579 C 1272.11 1.67151 -1.59152 0
M  V30 13580 C 1273.08 1.60307 -0.434852 0
M  V30 13581 O 1274.27 1.7924 -0.654049 0
M  V30 13582 C 1271.41 3.0548 -1.60549 0
M  V30 13583 C 1270.52 3.2281 -2.87085 0
M  V30 13584 C 1269.66 4.51498 -2.79862 0
M  V30 13585 C 1268.7 4.62237 -4.01252 0
M  V30 13586 N 1267.83 5.82273 -3.92305 0
M  V30 13587 H 1272.67 1.56245 -2.53755 0
M  V30 13588 H 1270.21 0.761219 -1.25872 0
M  V30 13589 H 1272.17 3.85572 -1.59343 0
M  V30 13590 H 1270.8 3.15237 -0.69464 0
M  V30 13591 H 1269.85 2.36196 -2.98188 0
M  V30 13592 H 1271.16 3.2661 -3.76997 0
M  V30 13593 H 1270.32 5.39842 -2.76867 0
M  V30 13594 H 1269.05 4.50166 -1.87621 0
M  V30 13595 H 1268.06 3.72307 -4.04558 0
M  V30 13596 H 1269.28 4.65334 -4.94612 0
M  V30 13597 H 1267.23 5.81902 -3.02862 0
M  V30 13598 H 1267.15 5.87422 -4.7589 0
M  V30 13599 H 1268.42 6.72996 -3.93315 0
M  V30 13600 N 1272.64 1.35187 0.810078 0
M  V30 13601 C 1273.61 1.27698 1.90331 0
M  V30 13602 C 1274.61 0.189216 1.59683 0
M  V30 13603 O 1275.8 0.442689 1.68481 0
M  V30 13604 C 1272.93 0.974631 3.26671 0
M  V30 13605 H 1274.12 2.24902 1.98392 0
M  V30 13606 H 1271.68 1.1966 1.00554 0
M  V30 13607 H 1272.41 0.0063068 3.24299 0
M  V30 13608 H 1272.2 1.76158 3.50301 0
M  V30 13609 H 1273.69 0.947743 4.06703 0
M  V30 13610 N 1274.12 -1.03182 1.19127 0
M  V30 13611 C 1275.37 -1.76794 0.993563 0
M  V30 13612 C 1275.7 -1.88306 -0.474809 0
M  V30 13613 O 1274.98 -1.39769 -1.35258 0
M  V30 13614 C 1275.26 -3.19573 1.65968 0
M  V30 13615 C 1275.11 -3.1595 3.2015 0
M  V30 13616 C 1276.43 -4.17897 1.38023 0
M  V30 13617 H 1273.55 -0.641768 0.362357 0
M  V30 13618 H 1276.19 -1.20472 1.46924 0
M  V30 13619 H 1274.34 -3.67663 1.25524 0
M  V30 13620 H 1276.01 -2.7578 3.69788 0
M  V30 13621 H 1274.26 -2.53743 3.51848 0
M  V30 13622 H 1274.93 -4.16811 3.61901 0
M  V30 13623 H 1277.4 -3.78394 1.73082 0
M  V30 13624 H 1276.28 -5.15997 1.87186 0
M  V30 13625 H 1276.54 -4.41048 0.304812 0
M  V30 13626 N 1275.6 -0.99472 -1.22242 0
M  V30 13627 C 1276.85 -0.672596 -1.91322 0
M  V30 13628 C 1277.18 0.793542 -1.77247 0
M  V30 13629 O 1276.45 1.57407 -1.14251 0
M  V30 13630 C 1276.74 -1.08155 -3.43474 0
M  V30 13631 C 1276.59 -2.60638 -3.6659 0
M  V30 13632 C 1277.91 -0.636161 -4.35478 0
M  V30 13633 H 1275.03 -0.24582 -0.694796 0
M  V30 13634 H 1277.67 -1.23857 -1.44082 0
M  V30 13635 H 1275.82 -0.599987 -3.83839 0
M  V30 13636 H 1277.49 -3.16479 -3.35617 0
M  V30 13637 H 1275.74 -3.02624 -3.10808 0
M  V30 13638 H 1276.41 -2.84304 -4.73155 0
M  V30 13639 H 1278.88 -1.04982 -4.02639 0
M  V30 13640 H 1277.76 -0.950584 -5.40606 0
M  V30 13641 H 1278.02 0.4631 -4.39668 0
M  V30 13642 N 1277.08 1.37613 -0.768148 0
M  V30 13643 C 1278.31 2.04052 -0.342111 0
M  V30 13644 C 1278.72 1.57936 1.03449 0
M  V30 13645 O 1278.08 0.758981 1.65969 0
M  V30 13646 C 1278.13 3.5958 -0.372096 0
M  V30 13647 O 1277.85 4.04008 -1.69439 0
M  V30 13648 C 1279.35 4.43251 0.0659884 0
M  V30 13649 H 1276.57 0.655391 -0.143886 0
M  V30 13650 H 1279.12 1.76017 -1.04107 0
M  V30 13651 H 1277.27 3.86399 0.278248 0
M  V30 13652 H 1277.68 4.98511 -1.63054 0
M  V30 13653 H 1279.16 5.52 -0.00614775 0
M  V30 13654 H 1279.64 4.24788 1.11588 0
M  V30 13655 H 1280.24 4.2165 -0.55603 0
M  V30 13656 N 1278.56 0.518393 1.4883 0
M  V30 13657 C 1279.52 -0.23983 2.27942 0
M  V30 13658 C 1280.52 -0.878302 1.34694 0
M  V30 13659 O 1281.71 -0.740142 1.57694 0
M  V30 13660 C 1278.84 -1.34581 3.1321 0
M  V30 13661 H 1280.03 0.454599 2.96434 0
M  V30 13662 H 1277.59 0.273932 1.53881 0
M  V30 13663 H 1278.32 -2.07385 2.49323 0
M  V30 13664 H 1278.11 -0.893251 3.8179 0
M  V30 13665 H 1279.6 -1.87944 3.72917 0
M  V30 13666 N 1280.03 -1.55556 0.252993 0
M  V30 13667 C 1281 -2.20351 -0.630705 0
M  V30 13668 C 1282 -1.17461 -1.09816 0
M  V30 13669 O 1283.19 -1.42505 -1.00189 0
M  V30 13670 C 1280.32 -2.85192 -1.86757 0
M  V30 13671 H 1281.51 -2.99829 -0.0652939 0
M  V30 13672 H 1279.07 -1.563 0.00347982 0
M  V30 13673 H 1279.8 -2.09669 -2.47406 0
M  V30 13674 H 1279.59 -3.60569 -1.54053 0
M  V30 13675 H 1281.08 -3.34762 -2.49648 0
M  V30 13676 N 1281.51 0.0200419 -1.57587 0
M  V30 13677 C 1282.74 0.720556 -1.93947 0
M  V30 13678 C 1283.16 1.68407 -0.853499 0
M  V30 13679 O 1282.51 1.81713 0.169337 0
M  V30 13680 C 1282.56 1.46982 -3.3027 0
M  V30 13681 O 1282.28 0.544971 -4.34697 0
M  V30 13682 C 1283.79 2.26667 -3.80968 0
M  V30 13683 H 1281.01 0.201956 -0.639887 0
M  V30 13684 H 1283.55 -0.0251175 -2.04485 0
M  V30 13685 H 1281.7 2.16729 -3.21103 0
M  V30 13686 H 1282.12 1.07139 -5.13441 0
M  V30 13687 H 1283.59 2.74621 -4.78839 0
M  V30 13688 H 1284.07 3.0848 -3.12629 0
M  V30 13689 H 1284.68 1.61976 -3.93248 0
M  V30 13690 N 1282.99 1.54862 0.292472 0
M  V30 13691 C 1283.92 1.81298 1.38586 0
M  V30 13692 C 1284.9 0.664704 1.48393 0
M  V30 13693 O 1286.09 0.905595 1.65322 0
M  V30 13694 C 1283.21 1.9573 2.76419 0
M  V30 13695 C 1282.26 3.18197 2.83994 0
M  V30 13696 S 1283.09 4.76054 2.45219 0
M  V30 13697 C 1284.25 4.93433 3.85064 0
M  V30 13698 H 1284.48 2.73755 1.15955 0
M  V30 13699 H 1282.01 1.46383 0.491053 0
M  V30 13700 H 1283.97 2.0473 3.55803 0
M  V30 13701 H 1282.63 1.04196 2.96314 0
M  V30 13702 H 1281.83 3.25123 3.85112 0
M  V30 13703 H 1281.43 3.07688 2.12613 0
M  V30 13704 H 1283.72 4.7798 4.80148 0
M  V30 13705 H 1284.66 5.95515 3.83103 0
M  V30 13706 H 1285.07 4.2153 3.75463 0
M  V30 13707 N 1284.47 -0.556076 1.47464 0
M  V30 13708 C 1285.69 -1.3434 1.58011 0
M  V30 13709 C 1286.12 -1.86674 0.231138 0
M  V30 13710 O 1285.48 -1.63029 -0.793174 0
M  V30 13711 C 1285.52 -2.48844 2.60977 0
M  V30 13712 O 1284.63 -3.51108 2.16326 0
M  V30 13713 H 1283.97 -0.398986 0.53076 0
M  V30 13714 H 1286.5 -0.671898 1.93253 0
M  V30 13715 H 1286.51 -2.95398 2.81432 0
M  V30 13716 H 1285.18 -2.10109 3.58925 0
M  V30 13717 H 1283.76 -3.10852 2.05975 0
M  V30 13718 N 1285.95 -1.35615 -0.802897 0
M  V30 13719 C 1286.9 -1.28877 -1.93632 0
M  V30 13720 C 1287.89 -0.183014 -1.68408 0
M  V30 13721 O 1289.1 -0.349218 -1.7658 0
M  V30 13722 H 1285.47 -0.400883 -0.636236 0
M  V30 13723 H 1287.44 -2.24624 -1.96435 0
M  V30 13724 C 1286.19 -1.08136 -3.30457 0
M  V30 13725 H 1285.51 -1.92463 -3.50426 0
M  V30 13726 H 1286.95 -1.07464 -4.10155 0
M  V30 13727 C 1285.41 0.214635 -3.36216 0
M  V30 13728 O 1285.94 1.20916 -3.8307 0
M  V30 13729 N 1284.15 0.25468 -2.89482 0
M  V30 13730 H 1283.7 -0.555239 -2.51545 0
M  V30 13731 H 1283.65 1.12152 -2.93716 0
M  V30 13732 N 1287.43 1.02549 -1.19673 0
M  V30 13733 C 1288.37 2.109 -0.937536 0
M  V30 13734 C 1289.34 1.65599 0.128923 0
M  V30 13735 O 1290.53 1.90795 -0.0139366 0
M  V30 13736 C 1287.67 3.4166 -0.48602 0
M  V30 13737 C 1286.78 4.0049 -1.61963 0
M  V30 13738 C 1285.92 5.19273 -1.11931 0
M  V30 13739 C 1284.95 5.70166 -2.22659 0
M  V30 13740 N 1284.09 6.80221 -1.73909 0
M  V30 13741 H 1288.93 2.32408 -1.86523 0
M  V30 13742 H 1286.47 1.13982 -0.929869 0
M  V30 13743 H 1288.43 4.16693 -0.205614 0
M  V30 13744 H 1287.06 3.20253 0.404678 0
M  V30 13745 H 1286.11 3.22638 -2.01516 0
M  V30 13746 H 1287.42 4.34273 -2.45374 0
M  V30 13747 H 1286.57 6.01478 -0.794336 0
M  V30 13748 H 1285.31 4.87033 -0.254972 0
M  V30 13749 H 1284.32 4.86572 -2.55983 0
M  V30 13750 H 1285.54 6.04444 -3.09554 0
M  V30 13751 H 1283.49 6.49826 -0.897889 0
M  V30 13752 H 1283.41 7.13149 -2.50907 0
M  V30 13753 H 1284.67 7.66011 -1.44386 0
M  V30 13754 N 1288.9 1.00119 1.21713 0
M  V30 13755 C 1290.15 0.681723 1.9068 0
M  V30 13756 C 1290.48 -0.787121 1.77861 0
M  V30 13757 O 1289.73 -1.58573 1.14687 0
M  V30 13758 C 1290.03 1.04376 3.41819 0
M  V30 13759 C 1289.7 2.50624 3.74831 0
M  V30 13760 C 1288.36 2.90587 3.83552 0
M  V30 13761 C 1290.71 3.45377 3.90339 0
M  V30 13762 C 1288.04 4.24276 4.05225 0
M  V30 13763 C 1290.39 4.78734 4.13517 0
M  V30 13764 C 1289.06 5.18427 4.20464 0
M  V30 13765 H 1288.33 0.24946 0.697747 0
M  V30 13766 H 1290.97 1.25892 1.44304 0
M  V30 13767 H 1289.28 0.384756 3.89906 0
M  V30 13768 H 1290.98 0.774488 3.9345 0
M  V30 13769 H 1287.57 2.18651 3.68632 0
M  V30 13770 H 1291.75 3.15669 3.82971 0
M  V30 13771 H 1287.01 4.54605 4.08833 0
M  V30 13772 H 1291.18 5.52094 4.24459 0
M  V30 13773 H 1288.81 6.22034 4.3701 0
M  V30 13774 N 1290.38 -1.37203 0.775435 0
M  V30 13775 C 1291.61 -2.03868 0.352927 0
M  V30 13776 C 1292.02 -1.58482 -1.0261 0
M  V30 13777 O 1291.38 -0.767772 -1.65564 0
M  V30 13778 C 1291.43 -3.59378 0.39116 0
M  V30 13779 O 1291.15 -4.03103 1.71579 0
M  V30 13780 C 1292.65 -4.4328 -0.0424808 0
M  V30 13781 H 1289.87 -0.654619 0.14736 0
M  V30 13782 H 1292.42 -1.75463 1.05039 0
M  V30 13783 H 1290.57 -3.86542 -0.257752 0
M  V30 13784 H 1290.99 -4.9764 1.65695 0
M  V30 13785 H 1292.46 -5.51989 0.0354215 0
M  V30 13786 H 1292.94 -4.25374 -1.09333 0
M  V30 13787 H 1293.54 -4.21349 0.578384 0
M  V30 13788 N 1291.86 -0.526279 -1.48553 0
M  V30 13789 C 1292.79 0.275579 -2.27537 0
M  V30 13790 C 1293.8 0.90782 -1.35139 0
M  V30 13791 O 1294.99 0.786887 -1.6022 0
M  V30 13792 C 1292.09 1.40515 -3.08397 0
M  V30 13793 C 1291.27 0.875523 -4.28548 0
M  V30 13794 C 1290.33 1.88577 -4.91249 0
M  V30 13795 O 1289.35 1.44419 -5.50574 0
M  V30 13796 N 1290.55 3.21774 -4.83158 0
M  V30 13797 H 1293.32 -0.401803 -2.96994 0
M  V30 13798 H 1290.88 -0.360378 -1.57838 0
M  V30 13799 H 1292.87 2.07907 -3.47213 0
M  V30 13800 H 1291.44 1.98626 -2.41384 0
M  V30 13801 H 1290.66 0.025728 -3.94192 0
M  V30 13802 H 1291.95 0.500493 -5.06332 0
M  V30 13803 H 1291.35 3.60319 -4.36104 0
M  V30 13804 H 1289.9 3.84808 -5.26085 0
M  V30 13805 N 1293.34 1.5542 -0.261239 0
M  V30 13806 C 1294.28 2.21972 0.632216 0
M  V30 13807 C 1295.25 1.18843 1.16041 0
M  V30 13808 O 1296.44 1.47339 1.21226 0
M  V30 13809 C 1293.58 2.93397 1.81693 0
M  V30 13810 C 1292.69 4.11214 1.3239 0
M  V30 13811 C 1291.83 4.70318 2.46931 0
M  V30 13812 C 1290.87 5.80355 1.94561 0
M  V30 13813 N 1290 6.33581 3.02523 0
M  V30 13814 H 1294.84 2.97944 0.058018 0
M  V30 13815 H 1292.38 1.4709 0.0168725 0
M  V30 13816 H 1294.34 3.33015 2.5131 0
M  V30 13817 H 1292.97 2.19874 2.36337 0
M  V30 13818 H 1292.02 3.76811 0.521292 0
M  V30 13819 H 1293.33 4.90609 0.900214 0
M  V30 13820 H 1292.49 5.12584 3.24565 0
M  V30 13821 H 1291.23 3.90169 2.92608 0
M  V30 13822 H 1290.23 5.37552 1.15402 0
M  V30 13823 H 1291.46 6.62364 1.49836 0
M  V30 13824 H 1289.4 5.56332 3.47608 0
M  V30 13825 H 1289.32 7.08209 2.64529 0
M  V30 13826 H 1290.59 6.80506 3.80174 0
M  V30 13827 N 1294.82 -0.0116844 1.57596 0
M  V30 13828 C 1296.06 -0.697577 1.89679 0
M  V30 13829 C 1296.38 -1.74956 0.861122 0
M  V30 13830 O 1295.65 -1.95629 -0.103031 0
M  V30 13831 H 1294.23 -0.26064 0.700054 0
M  V30 13832 H 1296.9 0.0264782 1.94882 0
M  V30 13833 H 1295.99 -1.17621 2.89088 0
M  V30 13834 N 1296.29 -1.55015 -0.284256 0
M  V30 13835 C 1297.24 -1.87898 -1.37102 0
M  V30 13836 C 1298.24 -0.754231 -1.51683 0
M  V30 13837 O 1299.44 -0.93844 -1.53601 0
M  V30 13838 H 1295.82 -0.596208 -0.458301 0
M  V30 13839 H 1297.79 -2.78704 -1.06613 0
M  V30 13840 C 1296.54 -2.15764 -2.72656 0
M  V30 13841 H 1295.86 -3.01792 -2.62224 0
M  V30 13842 H 1297.3 -2.42701 -3.47667 0
M  V30 13843 C 1295.76 -0.961561 -3.22886 0
M  V30 13844 O 1296.29 -0.190489 -4.01248 0
M  V30 13845 N 1294.49 -0.762338 -2.80422 0
M  V30 13846 H 1294.04 -1.39104 -2.16813 0
M  V30 13847 H 1294 0.0363482 -3.14379 0
M  V30 13848 N 1297.77 0.548248 -1.47757 0
M  V30 13849 C 1299.02 1.30501 -1.54841 0
M  V30 13850 C 1299.35 1.93314 -0.214476 0
M  V30 13851 O 1298.6 1.7889 0.793526 0
M  V30 13852 C 1298.9 2.42911 -2.62162 0
M  V30 13853 C 1298.57 1.97871 -4.05164 0
M  V30 13854 C 1297.23 1.85304 -4.4409 0
M  V30 13855 C 1299.58 1.63606 -4.94856 0
M  V30 13856 C 1296.91 1.36781 -5.70533 0
M  V30 13857 C 1299.26 1.16552 -6.2177 0
M  V30 13858 C 1297.92 1.02588 -6.5957 0
M  V30 13859 H 1297.19 0.477536 -0.566604 0
M  V30 13860 H 1299.84 0.613837 -1.81395 0
M  V30 13861 H 1298.15 3.17622 -2.29398 0
M  V30 13862 H 1299.84 3.01078 -2.64864 0
M  V30 13863 H 1296.43 2.08597 -3.74413 0
M  V30 13864 H 1300.62 1.72184 -4.65474 0
M  V30 13865 H 1295.87 1.24641 -5.9856 0
M  V30 13866 H 1300.05 0.891041 -6.90676 0
M  V30 13867 H 1297.67 0.647675 -7.57436 0
M  V30 13868 N 1299.25 1.36039 0.795694 0
M  V30 13869 C 1300.67 1.16315 1.09284 0
M  V30 13870 C 1300.87 -0.017024 2.01493 0
M  V30 13871 O 1299.92 -0.684316 2.4305 0
M  V30 13872 C 1301.23 2.47113 1.71335 0
M  V30 13873 C 1302.78 2.5342 1.83705 0
M  V30 13874 C 1303.26 3.84289 2.49171 0
M  V30 13875 N 1304.75 3.856 2.56645 0
M  V30 13876 C 1305.48 4.83597 3.08094 0
M  V30 13877 N 1304.98 5.91985 3.59897 0
M  V30 13878 N 1306.77 4.71023 3.06748 0
M  V30 13879 H 1298.92 2.11611 0.182957 0
M  V30 13880 H 1301.19 0.937035 0.143771 0
M  V30 13881 H 1300.89 3.33708 1.11049 0
M  V30 13882 H 1300.77 2.62461 2.70914 0
M  V30 13883 H 1303.15 1.67247 2.43131 0
M  V30 13884 H 1303.23 2.41977 0.829495 0
M  V30 13885 H 1302.88 4.70865 1.90391 0
M  V30 13886 H 1302.81 3.93025 3.50484 0
M  V30 13887 H 1305.3 3.07291 2.19956 0
M  V30 13888 H 1305.61 6.6274 3.97487 0
M  V30 13889 H 1303.96 5.95662 3.58066 0
M  V30 13890 H 1307.15 3.8548 2.65561 0
M  V30 13891 H 1307.32 5.47555 3.46536 0
M  V30 13892 N 1300.73 -1.01913 1.20215 0
M  V30 13893 C 1302.14 -1.5692 1.01159 0
M  V30 13894 C 1302.49 -1.91368 -0.432746 0
M  V30 13895 O 1301.62 -1.71959 -1.31374 0
M  V30 13896 C 1302.21 -2.85125 1.83001 0
M  V30 13897 C 1300.77 -3.36669 1.68318 0
M  V30 13898 C 1299.92 -2.10003 1.81091 0
M  V30 13899 H 1302.87 -0.843246 1.34443 0
M  V30 13900 H 1302.89 -3.56428 1.33188 0
M  V30 13901 H 1302.4 -2.60021 2.88116 0
M  V30 13902 H 1300.5 -3.66739 0.658292 0
M  V30 13903 H 1300.61 -4.09042 2.49442 0
M  V30 13904 H 1298.98 -2.22337 1.24252 0
M  V30 13905 H 1299.76 -1.87329 2.87685 0
M  V30 13906 N 1302.21 -1.00763 -1.2118 0
M  V30 13907 C 1303.15 -0.563428 -2.25673 0
M  V30 13908 C 1304.15 0.393342 -1.6477 0
M  V30 13909 O 1305.35 0.264246 -1.7805 0
M  V30 13910 H 1301.73 -0.163862 -0.73393 0
M  V30 13911 H 1303.7 -1.45585 -2.60476 0
M  V30 13912 C 1302.45 0.0915599 -3.47579 0
M  V30 13913 H 1301.77 -0.635628 -3.94715 0
M  V30 13914 H 1303.21 0.36561 -4.22421 0
M  V30 13915 C 1301.67 1.33159 -3.09468 0
M  V30 13916 O 1302.2 2.42571 -3.20191 0
M  V30 13917 N 1300.41 1.21231 -2.64105 0
M  V30 13918 H 1299.95 0.322021 -2.55579 0
M  V30 13919 H 1299.91 2.04301 -2.38974 0
M  V30 13920 N 1303.68 1.3679 -0.7827 0
M  V30 13921 C 1304.93 1.99023 -0.351316 0
M  V30 13922 C 1305.25 1.62436 1.07887 0
M  V30 13923 O 1304.52 0.895084 1.74256 0
M  V30 13924 H 1303.1 0.736141 -0.126909 0
M  V30 13925 H 1305.77 1.67095 -1.00325 0
M  V30 13926 H 1304.86 3.09015 -0.43774 0
M  V30 13927 N 1305.16 0.53415 1.48272 0
M  V30 13928 C 1306.07 -0.230062 2.33469 0
M  V30 13929 C 1307.09 -0.934889 1.46751 0
M  V30 13930 O 1308.26 -0.908921 1.79724 0
M  V30 13931 C 1305.33 -1.2609 3.22958 0
M  V30 13932 C 1304.39 -0.565983 4.25553 0
M  V30 13933 C 1303.62 -1.54771 5.10766 0
M  V30 13934 O 1303.85 -2.7807 4.9803 0
M  V30 13935 O 1302.78 -1.08482 5.92043 0
M  V30 13936 H 1306.61 0.468182 3.0007 0
M  V30 13937 H 1304.19 0.29502 1.46458 0
M  V30 13938 H 1306.07 -1.85652 3.783 0
M  V30 13939 H 1304.75 -1.94148 2.59014 0
M  V30 13940 H 1303.66 0.0702391 3.74034 0
M  V30 13941 H 1304.99 0.0727277 4.92146 0
M  V30 13942 N 1306.64 -1.55279 0.269478 0
M  V30 13943 C 1307.6 -2.21008 -0.607299 0
M  V30 13944 C 1308.6 -1.18619 -1.08564 0
M  V30 13945 O 1309.79 -1.4356 -0.986721 0
M  V30 13946 C 1306.93 -2.87157 -1.83721 0
M  V30 13947 H 1308.12 -2.99881 -0.0334894 0
M  V30 13948 H 1305.67 -1.56287 0.0200573 0
M  V30 13949 H 1306.41 -2.12281 -2.45168 0
M  V30 13950 H 1306.19 -3.62183 -1.5022 0
M  V30 13951 H 1307.68 -3.37391 -2.46083 0
M  V30 13952 N 1308.12 0.00332656 -1.576 0
M  V30 13953 C 1309.07 0.99581 -2.08212 0
M  V30 13954 C 1310.04 1.34342 -0.976804 0
M  V30 13955 O 1311.22 1.44236 -1.24902 0
M  V30 13956 C 1308.36 2.2836 -2.58739 0
M  V30 13957 C 1307.47 1.99531 -3.8316 0
M  V30 13958 C 1306.61 3.22367 -4.222 0
M  V30 13959 C 1305.65 2.89209 -5.39467 0
M  V30 13960 N 1304.78 4.04572 -5.73817 0
M  V30 13961 H 1309.62 0.55727 -2.92743 0
M  V30 13962 H 1307.16 0.263513 -1.4472 0
M  V30 13963 H 1309.12 3.03639 -2.86111 0
M  V30 13964 H 1307.75 2.69889 -1.77087 0
M  V30 13965 H 1306.8 1.14634 -3.62716 0
M  V30 13966 H 1308.11 1.71089 -4.6854 0
M  V30 13967 H 1307.27 4.05994 -4.50837 0
M  V30 13968 H 1306.01 3.53944 -3.35522 0
M  V30 13969 H 1305.01 2.03989 -5.10557 0
M  V30 13970 H 1306.24 2.58883 -6.27819 0
M  V30 13971 H 1304.18 4.36052 -4.90096 0
M  V30 13972 H 1304.1 3.79643 -6.53764 0
M  V30 13973 H 1305.37 4.88998 -6.07043 0
M  V30 13974 N 1309.6 1.55164 0.276031 0
M  V30 13975 C 1310.82 1.7998 1.03063 0
M  V30 13976 C 1311.25 0.569769 1.79263 0
M  V30 13977 O 1310.6 -0.48054 1.74816 0
M  V30 13978 C 1310.65 3.02209 1.96728 0
M  V30 13979 O 1309.76 2.77083 3.05449 0
M  V30 13980 H 1309.1 0.594963 0.294814 0
M  V30 13981 H 1311.63 2.02301 0.305861 0
M  V30 13982 H 1311.64 3.3086 2.38738 0
M  V30 13983 H 1310.31 3.91386 1.40677 0
M  V30 13984 H 1308.89 2.5952 2.67776 0
M  V30 13985 N 1311.07 -0.540404 1.48045 0
M  V30 13986 C 1311.98 -1.67308 1.64455 0
M  V30 13987 C 1313 -1.65823 0.527152 0
M  V30 13988 O 1314.18 -1.84964 0.796881 0
M  V30 13989 C 1311.24 -3.03792 1.67068 0
M  V30 13990 C 1310.3 -3.16213 2.90358 0
M  V30 13991 C 1309.54 -4.46187 2.92837 0
M  V30 13992 O 1309.76 -5.32662 2.04029 0
M  V30 13993 O 1308.69 -4.62754 3.84892 0
M  V30 13994 H 1312.52 -1.56403 2.6033 0
M  V30 13995 H 1310.1 -0.712323 1.31325 0
M  V30 13996 H 1311.99 -3.84982 1.71368 0
M  V30 13997 H 1310.66 -3.15043 0.74363 0
M  V30 13998 H 1309.57 -2.34357 2.91595 0
M  V30 13999 H 1310.9 -3.09874 3.82412 0
M  V30 14000 N 1312.55 -1.36459 -0.788468 0
M  V30 14001 C 1313.48 -1.33545 -1.91541 0
M  V30 14002 C 1314.46 -0.206762 -1.68839 0
M  V30 14003 O 1315.65 -0.404553 -1.89939 0
M  V30 14004 C 1312.78 -1.12492 -3.28577 0
M  V30 14005 C 1311.73 -2.22196 -3.65805 0
M  V30 14006 C 1311.06 -1.86285 -5.01201 0
M  V30 14007 C 1312.36 -3.64286 -3.7429 0
M  V30 14008 H 1314.05 -2.27844 -1.94236 0
M  V30 14009 H 1311.6 -1.09677 -0.933105 0
M  V30 14010 H 1313.55 -1.09089 -4.07035 0
M  V30 14011 H 1312.28 -0.146446 -3.26272 0
M  V30 14012 H 1310.93 -2.24727 -2.89644 0
M  V30 14013 H 1310.58 -0.87009 -4.95417 0
M  V30 14014 H 1310.28 -2.59734 -5.27079 0
M  V30 14015 H 1311.81 -1.84439 -5.82078 0
M  V30 14016 H 1313.22 -3.63977 -4.42937 0
M  V30 14017 H 1311.62 -4.36648 -4.11653 0
M  V30 14018 H 1312.69 -3.99123 -2.75371 0
M  V30 14019 N 1314.03 1.01274 -1.20754 0
M  V30 14020 C 1315.27 1.7647 -1.03139 0
M  V30 14021 C 1315.63 1.87157 0.428531 0
M  V30 14022 O 1316.84 2.58839 0.724973 0
M  V30 14023 C 1315.11 3.14346 -1.70063 0
M  V30 14024 S 1316.67 4.05531 -1.67602 0
M  V30 14025 H 1313.48 0.60729 -0.369756 0
M  V30 14026 H 1316.09 1.21232 -1.53372 0
M  V30 14027 H 1314.79 3.04197 -2.75486 0
M  V30 14028 H 1314.32 3.74659 -1.19977 0
M  V30 14029 H 1316.34 4.91071 -0.711623 0
M  V30 14030 N 1315.51 1.01404 1.20644 0
M  V30 14031 C 1316.42 0.591693 2.27016 0
M  V30 14032 C 1317.44 -0.36958 1.7003 0
M  V30 14033 O 1318.61 -0.231165 2.00069 0
M  V30 14034 C 1315.68 -0.0659827 3.46637 0
M  V30 14035 C 1314.74 0.940911 4.18862 0
M  V30 14036 C 1313.97 0.314526 5.32772 0
M  V30 14037 O 1314.19 -0.886404 5.63471 0
M  V30 14038 O 1313.13 1.02998 5.93022 0
M  V30 14039 H 1316.95 1.4772 2.65353 0
M  V30 14040 H 1314.54 0.783399 1.27213 0
M  V30 14041 H 1316.42 -0.433412 4.19165 0
M  V30 14042 H 1315.1 -0.925729 3.10181 0
M  V30 14043 H 1314 1.35966 3.48517 0
M  V30 14044 H 1315.34 1.77054 4.59252 0
M  V30 14045 N 1316.99 -1.36373 0.789944 0
M  V30 14046 C 1317.94 -2.31928 0.17666 0
M  V30 14047 C 1318.93 -1.55831 -0.664316 0
M  V30 14048 O 1320.14 -1.71089 -0.559341 0
M  V30 14049 H 1316.51 -0.751021 0.038353 0
M  V30 14050 H 1318.48 -2.81216 0.998004 0
M  V30 14051 C 1317.23 -3.41112 -0.673646 0
M  V30 14052 H 1316.55 -3.99784 -0.0358875 0
M  V30 14053 H 1317.99 -4.10292 -1.06942 0
M  V30 14054 C 1316.45 -2.82728 -1.83211 0
M  V30 14055 O 1316.98 -2.74935 -2.92871 0
M  V30 14056 N 1315.19 -2.4001 -1.6384 0
M  V30 14057 H 1314.74 -2.46549 -0.746423 0
M  V30 14058 H 1314.69 -2.01294 -2.41512 0
M  V30 14059 N 1318.47 -0.542005 -1.47987 0
M  V30 14060 C 1319.4 0.202703 -2.32618 0
M  V30 14061 C 1320.38 0.923521 -1.42846 0
M  V30 14062 O 1321.56 0.906957 -1.7172 0
M  V30 14063 C 1318.69 1.24267 -3.24307 0
M  V30 14064 C 1317.65 0.639257 -4.23199 0
M  V30 14065 C 1316.97 1.78275 -5.04105 0
M  V30 14066 C 1318.27 -0.396982 -5.20789 0
M  V30 14067 H 1319.97 -0.503817 -2.95131 0
M  V30 14068 H 1317.51 -0.243736 -1.41922 0
M  V30 14069 H 1319.46 1.7717 -3.82347 0
M  V30 14070 H 1318.19 1.97893 -2.59819 0
M  V30 14071 H 1316.85 0.131655 -3.66364 0
M  V30 14072 H 1316.5 2.50768 -4.36032 0
M  V30 14073 H 1316.2 1.38487 -5.71047 0
M  V30 14074 H 1317.72 2.31533 -5.65 0
M  V30 14075 H 1319.13 0.0454057 -5.73282 0
M  V30 14076 H 1317.53 -0.712911 -5.9585 0
M  V30 14077 H 1318.6 -1.29843 -4.67193 0
M  V30 14078 N 1319.94 1.55134 -0.277709 0
M  V30 14079 C 1320.85 2.26296 0.618658 0
M  V30 14080 C 1321.87 1.28978 1.16794 0
M  V30 14081 O 1323.05 1.61918 1.19768 0
M  V30 14082 C 1320.11 2.97214 1.78508 0
M  V30 14083 C 1319.17 4.10016 1.27221 0
M  V30 14084 C 1318.4 4.77543 2.38304 0
M  V30 14085 O 1318.63 4.44293 3.57715 0
M  V30 14086 O 1317.56 5.65437 2.06313 0
M  V30 14087 H 1321.39 3.03671 0.0421031 0
M  V30 14088 H 1318.97 1.49332 -0.0450166 0
M  V30 14089 H 1320.85 3.41773 2.46513 0
M  V30 14090 H 1319.53 2.22753 2.34867 0
M  V30 14091 H 1318.44 3.69907 0.558544 0
M  V30 14092 H 1319.77 4.86385 0.754333 0
M  V30 14093 N 1321.42 0.00503138 1.57599 0
M  V30 14094 C 1322.38 -0.969628 2.0768 0
M  V30 14095 C 1323.38 -1.26933 0.987148 0
M  V30 14096 O 1324.57 -1.21368 1.24962 0
M  V30 14097 C 1321.71 -2.29312 2.52247 0
M  V30 14098 H 1322.9 -0.536342 2.95065 0
M  V30 14099 H 1320.45 -0.242543 1.54407 0
M  V30 14100 H 1321.19 -2.7732 1.6812 0
M  V30 14101 H 1320.97 -2.08878 3.31832 0
M  V30 14102 H 1322.46 -2.99221 2.91302 0
M  V30 14103 N 1322.9 -1.55308 -0.267798 0
M  V30 14104 C 1324.31 -1.66814 -0.838459 0
M  V30 14105 C 1324.66 -0.598609 -1.86845 0
M  V30 14106 O 1323.79 0.25896 -2.14845 0
M  V30 14107 C 1324.38 -3.02408 -1.52758 0
M  V30 14108 C 1322.94 -3.15923 -2.04621 0
M  V30 14109 C 1322.09 -2.62628 -0.890044 0
M  V30 14110 H 1325.04 -1.58639 -0.0440354 0
M  V30 14111 H 1325.06 -2.95687 -2.39478 0
M  V30 14112 H 1324.57 -3.80228 -0.777695 0
M  V30 14113 H 1322.67 -2.42886 -2.82555 0
M  V30 14114 H 1322.79 -4.22556 -2.25794 0
M  V30 14115 H 1321.15 -2.19918 -1.28485 0
M  V30 14116 H 1321.93 -3.42956 -0.153579 0
M  V30 14117 N 1324.38 0.532545 -1.4833 0
M  V30 14118 C 1325.34 1.61955 -1.62183 0
M  V30 14119 C 1326.34 1.52982 -0.495281 0
M  V30 14120 O 1327.53 1.56698 -0.761005 0
M  V30 14121 C 1324.66 3.0157 -1.58961 0
M  V30 14122 H 1325.86 1.51013 -2.59105 0
M  V30 14123 H 1323.41 0.754405 -1.36888 0
M  V30 14124 H 1324.14 3.18021 -0.635069 0
M  V30 14125 H 1323.93 3.09491 -2.40744 0
M  V30 14126 H 1325.42 3.80604 -1.71843 0
M  V30 14127 N 1325.86 1.36875 0.78122 0
M  V30 14128 C 1326.79 1.34559 1.9083 0
M  V30 14129 C 1327.77 0.215713 1.68727 0
M  V30 14130 O 1328.95 0.41462 1.89722 0
M  V30 14131 C 1326.08 1.14233 3.27976 0
M  V30 14132 C 1325.04 2.24132 3.64621 0
M  V30 14133 C 1324.36 1.8894 5.00206 0
M  V30 14134 C 1325.66 3.66266 3.72353 0
M  V30 14135 H 1327.36 2.28871 1.93025 0
M  V30 14136 H 1324.9 1.10171 0.927275 0
M  V30 14137 H 1326.85 1.11246 4.06451 0
M  V30 14138 H 1325.58 0.163747 3.26189 0
M  V30 14139 H 1324.24 2.26259 2.88448 0
M  V30 14140 H 1323.89 0.896351 4.94949 0
M  V30 14141 H 1323.59 2.62525 5.25694 0
M  V30 14142 H 1325.11 1.87523 5.81092 0
M  V30 14143 H 1326.52 3.66321 4.41001 0
M  V30 14144 H 1324.92 4.38825 4.09332 0
M  V30 14145 H 1325.99 4.00578 2.7325 0
M  V30 14146 N 1327.33 -1.00632 1.21289 0
M  V30 14147 C 1328.3 -2.07543 0.972548 0
M  V30 14148 C 1329.3 -1.60703 -0.0559244 0
M  V30 14149 O 1330.49 -1.73255 0.181213 0
M  V30 14150 C 1327.62 -3.37696 0.466297 0
M  V30 14151 H 1328.81 -2.30298 1.92101 0
M  V30 14152 H 1326.36 -1.17588 1.02969 0
M  V30 14153 H 1327.1 -3.2062 -0.487148 0
M  V30 14154 H 1326.88 -3.73024 1.20813 0
M  V30 14155 H 1328.37 -4.16388 0.317962 0
M  V30 14156 N 1328.81 -1.02043 -1.20104 0
M  V30 14157 C 1330.04 -0.731315 -1.93544 0
M  V30 14158 C 1330.45 0.708582 -1.74999 0
M  V30 14159 O 1329.81 1.481 -1.06642 0
M  V30 14160 C 1329.86 -1.06233 -3.45538 0
M  V30 14161 O 1329.58 -2.44568 -3.63481 0
M  V30 14162 C 1331.08 -0.794818 -4.36116 0
M  V30 14163 H 1328.3 -0.268248 -0.615048 0
M  V30 14164 H 1330.85 -1.36264 -1.52488 0
M  V30 14165 H 1329 -0.476341 -3.8446 0
M  V30 14166 H 1329.42 -2.5663 -4.57429 0
M  V30 14167 H 1330.89 -1.07647 -5.41402 0
M  V30 14168 H 1331.37 0.270944 -4.38363 0
M  V30 14169 H 1331.97 -1.36314 -4.02863 0
M  V30 14170 N 1330.29 1.35952 -0.797165 0
M  V30 14171 C 1331.24 2.29941 -0.198995 0
M  V30 14172 C 1332.21 1.52355 0.661592 0
M  V30 14173 O 1333.39 1.80832 0.60865 0
M  V30 14174 C 1330.53 3.38846 0.654033 0
M  V30 14175 C 1329.65 4.31409 -0.225949 0
M  V30 14176 C 1328.78 5.27401 0.634188 0
M  V30 14177 C 1327.82 6.11602 -0.246773 0
M  V30 14178 N 1326.96 6.9976 0.57279 0
M  V30 14179 H 1331.8 2.80508 -1.00594 0
M  V30 14180 H 1329.33 1.38064 -0.507617 0
M  V30 14181 H 1331.29 4.00643 1.16367 0
M  V30 14182 H 1329.92 2.89578 1.42633 0
M  V30 14183 H 1328.97 3.70699 -0.853616 0
M  V30 14184 H 1330.29 4.90532 -0.904416 0
M  V30 14185 H 1329.44 5.94525 1.20933 0
M  V30 14186 H 1328.18 4.68751 1.34625 0
M  V30 14187 H 1327.18 5.43434 -0.834258 0
M  V30 14188 H 1328.41 6.72329 -0.956559 0
M  V30 14189 H 1326.35 6.43609 1.26901 0
M  V30 14190 H 1326.27 7.55985 -0.0478303 0
M  V30 14191 H 1327.54 7.71244 1.13151 0
M  V30 14192 N 1331.77 0.549846 1.47697 0
M  V30 14193 C 1332.7 -0.239345 2.27947 0
M  V30 14194 C 1333.71 -0.886206 1.36566 0
M  V30 14195 O 1334.9 -0.761298 1.61451 0
M  V30 14196 C 1332 -1.35591 3.10593 0
M  V30 14197 C 1331.18 -0.807234 4.29887 0
M  V30 14198 C 1330.23 -1.80738 4.94187 0
M  V30 14199 O 1329.26 -1.35641 5.52802 0
M  V30 14200 N 1330.46 -3.14046 4.88216 0
M  V30 14201 H 1333.23 0.449001 2.96318 0
M  V30 14202 H 1330.79 0.385443 1.57245 0
M  V30 14203 H 1332.78 -2.02356 3.50477 0
M  V30 14204 H 1331.35 -1.94761 2.44514 0
M  V30 14205 H 1330.57 0.0369877 3.94183 0
M  V30 14206 H 1331.86 -0.419877 5.07065 0
M  V30 14207 H 1331.26 -3.53335 4.41781 0
M  V30 14208 H 1329.81 -3.7639 5.32141 0
M  V30 14209 N 1333.25 -1.54984 0.285932 0
M  V30 14210 C 1334.47 -2.04239 -0.330774 0
M  V30 14211 C 1334.89 -1.16387 -1.48659 0
M  V30 14212 O 1334.25 -0.186255 -1.81547 0
M  V30 14213 C 1334.3 -3.52504 -0.801456 0
M  V30 14214 O 1334.02 -4.37014 0.30834 0
M  V30 14215 C 1335.52 -4.17692 -1.48487 0
M  V30 14216 H 1332.74 -0.666903 -0.0740351 0
M  V30 14217 H 1335.28 -2.00116 0.421178 0
M  V30 14218 H 1333.44 -3.57036 -1.50347 0
M  V30 14219 H 1333.85 -5.24471 -0.0553891 0
M  V30 14220 H 1335.33 -5.23004 -1.76552 0
M  V30 14221 H 1335.8 -3.66515 -2.41999 0
M  V30 14222 H 1336.41 -4.17193 -0.826428 0
M  V30 14223 N 1334.72 -0.0133892 -1.57594 0
M  V30 14224 C 1335.95 0.67827 -1.95149 0
M  V30 14225 C 1336.36 1.67089 -0.887572 0
M  V30 14226 O 1335.71 1.8316 0.140774 0
M  V30 14227 C 1335.77 1.45441 -3.28766 0
M  V30 14228 C 1335.43 0.621889 -4.52749 0
M  V30 14229 C 1336.43 -0.0961541 -5.19811 0
M  V30 14230 C 1334.11 0.563917 -4.99124 0
M  V30 14231 C 1336.11 -0.86101 -6.31558 0
M  V30 14232 C 1333.79 -0.204654 -6.10757 0
M  V30 14233 C 1334.79 -0.915839 -6.76832 0
M  V30 14234 O 1334.48 -1.67184 -7.86323 0
M  V30 14235 H 1334.21 0.192983 -0.647869 0
M  V30 14236 H 1336.77 -0.0646816 -2.05298 0
M  V30 14237 H 1335 2.24215 -3.15063 0
M  V30 14238 H 1336.69 2.03268 -3.51336 0
M  V30 14239 H 1337.45 -0.0606029 -4.84962 0
M  V30 14240 H 1333.33 1.10702 -4.47511 0
M  V30 14241 H 1336.87 -1.41664 -6.83064 0
M  V30 14242 H 1332.77 -0.241979 -6.45046 0
M  V30 14243 H 1333.54 -1.58996 -8.02909 0
M  V30 14244 N 1336.2 1.55448 0.259558 0
M  V30 14245 C 1337.45 1.76948 0.990816 0
M  V30 14246 C 1337.78 0.576401 1.85449 0
M  V30 14247 O 1337.06 -0.425693 1.89784 0
M  V30 14248 C 1337.34 3.08221 1.86204 0
M  V30 14249 C 1337.19 4.37909 1.0274 0
M  V30 14250 C 1338.51 3.35627 2.84679 0
M  V30 14251 H 1335.63 0.64377 0.358788 0
M  V30 14252 H 1338.27 1.88182 0.262211 0
M  V30 14253 H 1336.42 2.98775 2.48326 0
M  V30 14254 H 1338.09 4.5933 0.425855 0
M  V30 14255 H 1336.34 4.32533 0.331308 0
M  V30 14256 H 1337.01 5.26116 1.6705 0
M  V30 14257 H 1339.48 3.44954 2.32693 0
M  V30 14258 H 1338.36 4.28719 3.42769 0
M  V30 14259 H 1338.62 2.55921 3.60496 0
M  V30 14260 N 1337.68 -0.524672 1.4861 0
M  V30 14261 C 1338.91 -1.30482 1.60568 0
M  V30 14262 C 1339.32 -1.86889 0.267952 0
M  V30 14263 O 1338.68 -1.66669 -0.743488 0
M  V30 14264 C 1338.73 -2.45191 2.65638 0
M  V30 14265 O 1338.45 -1.91107 3.9422 0
M  V30 14266 C 1339.95 -3.36931 2.88084 0
M  V30 14267 H 1337.17 -0.396612 0.541239 0
M  V30 14268 H 1339.72 -0.632392 1.94476 0
M  V30 14269 H 1337.87 -3.08308 2.34574 0
M  V30 14270 H 1338.29 -2.66234 4.51907 0
M  V30 14271 H 1339.76 -4.13755 3.65391 0
M  V30 14272 H 1340.24 -3.92487 1.97106 0
M  V30 14273 H 1340.84 -2.79601 3.20473 0
M  V30 14274 N 1339.16 -1.37287 -0.77395 0
M  V30 14275 C 1340.39 -1.35366 -1.56075 0
M  V30 14276 C 1340.8 0.0634437 -1.89094 0
M  V30 14277 O 1340.14 1.03503 -1.51766 0
M  V30 14278 C 1340.2 -2.12512 -2.89964 0
M  V30 14279 C 1339.87 -3.61492 -2.79593 0
M  V30 14280 C 1340.86 -4.55421 -2.50774 0
M  V30 14281 C 1338.55 -4.04585 -2.97684 0
M  V30 14282 C 1340.54 -5.90421 -2.4017 0
M  V30 14283 C 1338.23 -5.39672 -2.86701 0
M  V30 14284 C 1339.23 -6.32403 -2.57984 0
M  V30 14285 O 1338.91 -7.65006 -2.47024 0
M  V30 14286 H 1338.65 -0.465447 -0.49024 0
M  V30 14287 H 1341.2 -1.81199 -0.967273 0
M  V30 14288 H 1339.43 -1.61366 -3.51423 0
M  V30 14289 H 1341.12 -2.03253 -3.51345 0
M  V30 14290 H 1341.89 -4.23438 -2.36485 0
M  V30 14291 H 1337.76 -3.32769 -3.19038 0
M  V30 14292 H 1341.31 -6.62769 -2.17676 0
M  V30 14293 H 1337.21 -5.71258 -3.00558 0
M  V30 14294 H 1337.97 -7.75302 -2.6239 0
M  V30 14295 N 1340.64 0.999871 -1.21821 0
M  V30 14296 C 1341.86 1.77405 -1.06467 0
M  V30 14297 C 1342.28 1.84828 0.385227 0
M  V30 14298 O 1341.64 1.31338 1.26714 0
M  V30 14299 C 1341.69 3.21062 -1.66137 0
M  V30 14300 O 1341.41 3.14054 -3.05454 0
M  V30 14301 C 1342.91 4.14958 -1.55963 0
M  V30 14302 H 1340.13 0.557368 -0.373607 0
M  V30 14303 H 1342.67 1.2575 -1.61267 0
M  V30 14304 H 1340.83 3.69808 -1.15416 0
M  V30 14305 H 1341.24 4.04346 -3.34073 0
M  V30 14306 H 1342.72 5.13536 -2.02448 0
M  V30 14307 H 1343.19 4.36171 -0.514949 0
M  V30 14308 H 1343.8 3.72105 -2.05956 0
M  V30 14309 N 1342.11 1.02678 1.19562 0
M  V30 14310 C 1343.06 0.599259 2.24748 0
M  V30 14311 C 1344.06 -0.367079 1.65375 0
M  V30 14312 O 1345.26 -0.235887 1.78448 0
M  V30 14313 H 1341.64 0.175517 0.73123 0
M  V30 14314 H 1343.61 1.4971 2.58127 0
M  V30 14315 C 1342.36 -0.0362515 3.47681 0
M  V30 14316 H 1341.68 0.698343 3.93654 0
M  V30 14317 H 1343.12 -0.298361 4.22949 0
M  V30 14318 C 1341.58 -1.28218 3.11547 0
M  V30 14319 O 1342.11 -2.37446 3.24009 0
M  V30 14320 N 1340.32 -1.17014 2.66 0
M  V30 14321 H 1339.86 -0.28132 2.56059 0
M  V30 14322 H 1339.82 -2.00473 2.42194 0
M  V30 14323 N 1343.59 -1.35528 0.804364 0
M  V30 14324 C 1344.54 -2.27241 0.18591 0
M  V30 14325 C 1345.53 -1.47669 -0.638956 0
M  V30 14326 O 1346.72 -1.69891 -0.496578 0
M  V30 14327 C 1343.85 -3.36769 -0.666446 0
M  V30 14328 C 1342.93 -4.23767 0.168027 0
M  V30 14329 N 1343.32 -4.90618 1.22994 0
M  V30 14330 C 1341.62 -4.45971 -0.0507088 0
M  V30 14331 C 1342.32 -5.55092 1.7392 0
M  V30 14332 N 1341.3 -5.33441 1.04601 0
M  V30 14333 H 1345.1 -2.7642 0.998467 0
M  V30 14334 H 1342.62 -1.49029 0.645301 0
M  V30 14335 H 1344.61 -4.01419 -1.12554 0
M  V30 14336 H 1343.27 -2.89143 -1.47738 0
M  V30 14337 H 1344.28 -4.92155 1.61256 0
M  V30 14338 H 1340.96 -4.09147 -0.830958 0
M  V30 14339 H 1342.35 -6.18434 2.62659 0
M  V30 14340 N 1345.07 -0.557671 -1.47404 0
M  V30 14341 C 1346.03 0.179311 -2.28498 0
M  V30 14342 C 1347.03 0.842281 -1.36975 0
M  V30 14343 O 1348.22 0.698072 -1.59601 0
M  V30 14344 C 1345.36 1.26229 -3.16668 0
M  V30 14345 H 1346.55 -0.533033 -2.95125 0
M  V30 14346 H 1344.1 -0.314634 -1.531 0
M  V30 14347 H 1344.84 2.00702 -2.54733 0
M  V30 14348 H 1344.62 0.791712 -3.84024 0
M  V30 14349 H 1346.11 1.77991 -3.77768 0
M  V30 14350 N 1346.55 1.54831 -0.294147 0
M  V30 14351 C 1347.8 1.99179 0.317874 0
M  V30 14352 C 1348.11 1.18614 1.55532 0
M  V30 14353 O 1349.32 1.53197 2.24149 0
M  V30 14354 C 1347.77 3.54574 0.616893 0
M  V30 14355 C 1347.38 4.43939 -0.601822 0
M  V30 14356 C 1349.13 4.07465 1.19049 0
M  V30 14357 C 1347.03 5.90754 -0.276336 0
M  V30 14358 H 1345.96 0.743974 0.12255 0
M  V30 14359 H 1348.61 1.79047 -0.401781 0
M  V30 14360 H 1347 3.70579 1.39596 0
M  V30 14361 H 1348.17 4.39706 -1.37822 0
M  V30 14362 H 1346.48 4.01783 -1.09357 0
M  V30 14363 H 1349.08 5.14716 1.44814 0
M  V30 14364 H 1349.42 3.5765 2.13055 0
M  V30 14365 H 1349.96 3.94975 0.473282 0
M  V30 14366 H 1346.7 6.44704 -1.18478 0
M  V30 14367 H 1346.22 5.98011 0.462928 0
M  V30 14368 H 1347.9 6.4688 0.124587 0
M  V30 14369 O 1348.07 0.16049 1.60701 0
M  V30 14370 H 1348.76 -0.431139 1.88841 0
M  V30 END ATOM
M  V30 BEGIN BOND
M  V30 END BOND
M  V30 END CTAB
M  END
$$$$
