drugbank_target|Q14872 Metal regulatory transcription factor 1 (DB12965)
 OpenBabel12092121043D

  0  0  0     0  0            999 V3000
M  V30 BEGIN CTAB
M  V30 COUNTS 11137 11275 0 0 0
M  V30 BEGIN ATOM
M  V30 1 H -0.908 1.98254 -0.117106 0
M  V30 2 N 0 1.576 0 0
M  V30 3 C 0.933 2.03868 1.02534 0
M  V30 4 C 1.911 0.928543 1.3348 0
M  V30 5 O 3.095 1.19667 1.45644 0
M  V30 6 C 0.222 2.43627 2.35294 0
M  V30 7 C -0.732 3.65373 2.2001 0
M  V30 8 S 0.101 5.13292 1.52614 0
M  V30 9 C 1.257 5.56322 2.86805 0
M  V30 10 H 1.49 2.90518 0.631377 0
M  V30 11 H -0.977 1.52953 0.210867 0
M  V30 12 H 0.981 2.67203 3.11629 0
M  V30 13 H -0.358 1.57376 2.7183 0
M  V30 14 H -1.165 3.90944 3.18086 0
M  V30 15 H -1.563 3.418 1.51819 0
M  V30 16 H 0.729 5.58782 3.83104 0
M  V30 17 H 1.672 6.56266 2.65933 0
M  V30 18 H 2.08 4.83886 2.90714 0
M  V30 19 N 1.4781 -0.272755 1.55222 0
M  V30 20 C 2.7261 -1.00234 1.75492 0
M  V30 21 C 3.0471 -1.8681 0.5592 0
M  V30 22 O 2.3171 -1.91215 -0.425882 0
M  V30 23 H 0.8971 -0.373076 0.647166 0
M  V30 24 H 3.5591 -0.296926 1.92625 0
M  V30 25 H 2.6551 -1.63913 2.65592 0
M  V30 26 N 2.9562 -1.48159 -0.537278 0
M  V30 27 C 3.8662 -1.64807 -1.6696 0
M  V30 28 C 4.8822 -0.530651 -1.65711 0
M  V30 29 O 6.0582 -0.800784 -1.84796 0
M  V30 30 C 3.1232 -1.67708 -3.03438 0
M  V30 31 C 2.1842 -2.91025 -3.156 0
M  V30 32 C 1.4172 -2.93778 -4.45567 0
M  V30 33 O 1.6402 -2.05153 -5.3223 0
M  V30 34 O 0.5742 -3.85868 -4.61941 0
M  V30 35 H 4.4002 -2.6066 -1.55853 0
M  V30 36 H 1.9852 -1.31475 -0.709549 0
M  V30 37 H 3.8672 -1.7218 -3.84619 0
M  V30 38 H 2.5422 -0.750278 -3.14885 0
M  V30 39 H 1.4492 -2.92089 -2.33741 0
M  V30 40 H 2.7822 -3.83065 -3.09066 0
M  V30 41 N 4.4343 0.785586 -1.36625 0
M  V30 42 C 5.3843 1.88822 -1.27789 0
M  V30 43 C 6.3683 1.60014 -0.168579 0
M  V30 44 O 7.5603 1.72381 -0.401737 0
M  V30 45 C 4.6893 3.26092 -1.07327 0
M  V30 46 C 3.7753 3.60897 -2.22743 0
M  V30 47 N 4.1663 3.66982 -3.48077 0
M  V30 48 C 2.4643 3.90981 -2.14593 0
M  V30 49 C 3.1653 3.98137 -4.24101 0
M  V30 50 N 2.1413 4.13319 -3.53084 0
M  V30 51 H 5.9433 1.91759 -2.22723 0
M  V30 52 H 3.4573 0.981311 -1.29399 0
M  V30 53 H 5.4543 4.04954 -0.990842 0
M  V30 54 H 4.1143 3.24428 -0.132977 0
M  V30 55 H 5.1253 3.49531 -3.82163 0
M  V30 56 H 1.8023 3.9722 -1.2854 0
M  V30 57 H 3.1923 4.09737 -5.32509 0
M  V30 58 N 5.9124 1.20967 1.01018 0
M  V30 59 C 7.1374 1.0503 1.78839 0
M  V30 60 C 7.5624 -0.395752 1.8389 0
M  V30 61 O 6.9204 -1.28529 1.27867 0
M  V30 62 C 6.9684 1.64602 3.2084 0
M  V30 63 O 6.0724 0.887988 4.02726 0
M  V30 64 H 5.4134 0.369987 0.551367 0
M  V30 65 H 7.9434 1.60399 1.27018 0
M  V30 66 H 7.9534 1.68607 3.71532 0
M  V30 67 H 6.6284 2.69841 3.16479 0
M  V30 68 H 5.2054 0.922648 3.61305 0
M  V30 69 N 7.3905 -1.2043 1.01659 0
M  V30 70 C 8.8015 -1.71517 0.737482 0
M  V30 71 C 9.1525 -1.81547 -0.743973 0
M  V30 72 O 8.2775 -1.47803 -1.58061 0
M  V30 73 C 8.8725 -3.11515 1.33206 0
M  V30 74 C 7.4315 -3.59912 1.10183 0
M  V30 75 C 6.5785 -2.37116 1.43776 0
M  V30 76 H 9.5295 -1.05444 1.18606 0
M  V30 77 H 9.5505 -3.73575 0.722636 0
M  V30 78 H 9.0625 -3.04182 2.41028 0
M  V30 79 H 7.1635 -3.72577 0.0412756 0
M  V30 80 H 7.2765 -4.44731 1.78188 0
M  V30 81 H 5.6405 -2.39857 0.856778 0
M  V30 82 H 6.4235 -2.32424 2.52654 0
M  V30 83 N 8.8686 -0.792821 -1.36206 0
M  V30 84 C 10.1456 -0.290627 -1.93429 0
M  V30 85 C 10.5256 1.21773 -1.72437 0
M  V30 86 O 9.8736 2.0108 -1.08531 0
M  V30 87 C 10.0836 -0.686973 -3.42172 0
M  V30 88 C 11.4316 -0.668643 -4.19302 0
M  V30 89 O 12.4556 -0.627658 -3.50626 0
M  V30 90 O 11.3146 -0.714597 -5.41808 0
M  V30 91 H 8.4086 -0.0727927 -0.82379 0
M  V30 92 H 10.9546 -0.875593 -1.45367 0
M  V30 93 H 9.7266 -1.72711 -3.51122 0
M  V30 94 H 9.3496 -0.0760733 -3.97527 0
M  V30 95 N 10.3467 1.47872 -0.545128 0
M  V30 96 C 11.2947 2.31533 0.222512 0
M  V30 97 C 12.2887 1.42177 0.920985 0
M  V30 98 O 13.4947 1.59005 0.843645 0
M  V30 99 H 9.8697 0.746519 0.0906278 0
M  V30 100 H 11.8407 2.94139 -0.50246 0
M  V30 101 C 10.5897 3.2457 1.24699 0
M  V30 102 H 9.9127 3.93283 0.718944 0
M  V30 103 H 11.3527 3.85963 1.75523 0
M  V30 104 C 9.8117 2.47237 2.28856 0
M  V30 105 O 10.3417 2.20808 3.35569 0
M  V30 106 N 8.5477 2.08461 2.02466 0
M  V30 107 H 8.0947 2.30155 1.157 0
M  V30 108 H 8.0527 1.57033 2.72375 0
M  V30 109 N 11.8248 0.280983 1.55075 0
M  V30 110 C 12.7728 -0.619864 2.24188 0
M  V30 111 C 13.7668 -1.15315 1.24092 0
M  V30 112 O 14.9728 -1.1061 1.42005 0
M  V30 113 H 11.3478 -0.218459 0.719569 0
M  V30 114 H 13.3188 -0.0141831 2.98397 0
M  V30 115 C 12.0678 -1.7899 2.98091 0
M  V30 116 H 11.3908 -1.38874 3.74905 0
M  V30 117 H 12.8308 -2.39672 3.49762 0
M  V30 118 C 11.2898 -2.68192 2.03899 0
M  V30 119 O 11.8198 -3.6872 1.594 0
M  V30 120 N 10.0258 -2.35488 1.70275 0
M  V30 121 H 9.5728 -1.53787 2.06658 0
M  V30 122 H 9.5308 -2.95442 1.07524 0
M  V30 123 N 13.3029 -1.57598 0.00835791 0
M  V30 124 C 14.5519 -1.90107 -0.673968 0
M  V30 125 C 14.8649 -0.884275 -1.7447 0
M  V30 126 O 16.0709 -1.09987 -2.48224 0
M  V30 127 C 14.5269 -3.37497 -1.24995 0
M  V30 128 C 14.1349 -4.47491 -0.2136 0
M  V30 129 C 15.8789 -3.79104 -1.90999 0
M  V30 130 C 13.7859 -5.85963 -0.80005 0
M  V30 131 H 12.7159 -0.709393 -0.255495 0
M  V30 132 H 15.3669 -1.83365 0.0702693 0
M  V30 133 H 13.7489 -3.39102 -2.04513 0
M  V30 134 H 14.9229 -4.57414 0.557596 0
M  V30 135 H 13.2379 -4.14956 0.346474 0
M  V30 136 H 15.8349 -4.79901 -2.35795 0
M  V30 137 H 16.1779 -3.1306 -2.74407 0
M  V30 138 H 16.7109 -3.79833 -1.18203 0
M  V30 139 H 13.4499 -6.555 -0.00456708 0
M  V30 140 H 12.9699 -5.79687 -1.54021 0
M  V30 141 H 14.6489 -6.33884 -1.29615 0
M  V30 142 N 14.781 0.264519 -1.55364 0
M  V30 143 C 16.03 0.992812 -1.75574 0
M  V30 144 C 16.343 1.87142 -0.568979 0
M  V30 145 O 17.549 2.63513 -0.653682 0
M  V30 146 C 16.005 1.81519 -3.10771 0
M  V30 147 C 15.613 0.984839 -4.37041 0
M  V30 148 C 17.357 2.53727 -3.40327 0
M  V30 149 C 15.264 1.80209 -5.63275 0
M  V30 150 H 14.194 0.374412 -0.65447 0
M  V30 151 H 16.845 0.248138 -1.81815 0
M  V30 152 H 15.227 2.60115 -2.98591 0
M  V30 153 H 16.401 0.242455 -4.60162 0
M  V30 154 H 14.716 0.37691 -4.14691 0
M  V30 155 H 17.313 3.15292 -4.3185 0
M  V30 156 H 17.656 3.24447 -2.60845 0
M  V30 157 H 18.189 1.82156 -3.53644 0
M  V30 158 H 14.928 1.13896 -6.45529 0
M  V30 159 H 14.448 2.52022 -5.44284 0
M  V30 160 H 16.127 2.37364 -6.01887 0
M  V30 161 N 16.2591 1.48442 0.529413 0
M  V30 162 C 17.4891 1.59919 1.30804 0
M  V30 163 C 17.8971 0.258792 1.87422 0
M  V30 164 O 17.2401 -0.762096 1.67146 0
M  V30 165 C 17.3021 2.58693 2.49636 0
M  V30 166 C 16.9661 4.03745 2.14101 0
M  V30 167 C 17.9631 4.9141 1.6974 0
M  V30 168 C 15.6481 4.49285 2.24607 0
M  V30 169 C 17.6421 6.22645 1.36351 0
M  V30 170 C 15.3291 5.8054 1.9083 0
M  V30 171 C 16.3271 6.67043 1.46773 0
M  V30 172 O 16.0151 7.95856 1.1344 0
M  V30 173 H 15.7471 0.541981 0.404021 0
M  V30 174 H 18.3011 1.95 0.645309 0
M  V30 175 H 16.5311 2.18734 3.18892 0
M  V30 176 H 18.2201 2.59999 3.11698 0
M  V30 177 H 18.9861 4.57465 1.61094 0
M  V30 178 H 14.8651 3.82142 2.57854 0
M  V30 179 H 18.4091 6.90119 1.01891 0
M  V30 180 H 14.3061 6.14022 1.99117 0
M  V30 181 H 15.0741 8.08613 1.26832 0
M  V30 182 N 17.7372 -0.778329 1.37039 0
M  V30 183 C 18.9842 -1.53665 1.31884 0
M  V30 184 C 19.3122 -1.9425 -0.0986303 0
M  V30 185 O 18.5672 -1.63832 -1.07041 0
M  V30 186 C 18.8662 -2.81845 2.19768 0
M  V30 187 C 18.5322 -2.60345 3.68146 0
M  V30 188 C 17.1942 -2.5419 4.08584 0
M  V30 189 C 19.5462 -2.40923 4.62175 0
M  V30 190 C 16.8742 -2.26594 5.41177 0
M  V30 191 C 19.2262 -2.14852 5.94997 0
M  V30 192 C 17.8902 -2.07137 6.34547 0
M  V30 193 H 17.1602 -0.562299 0.482598 0
M  V30 194 H 19.8072 -0.897069 1.69189 0
M  V30 195 H 18.1122 -3.50328 1.75436 0
M  V30 196 H 19.8092 -3.39692 2.13097 0
M  V30 197 H 16.3992 -2.65996 3.36072 0
M  V30 198 H 20.5832 -2.44673 4.31797 0
M  V30 199 H 15.8392 -2.19111 5.70789 0
M  V30 200 H 20.0132 -1.98822 6.67415 0
M  V30 201 H 17.6402 -1.85518 7.37216 0
M  V30 202 N 19.2153 -1.21501 -1.00376 0
M  V30 203 C 20.1253 -0.991447 -2.12621 0
M  V30 204 C 21.1413 0.0568446 -1.73907 0
M  V30 205 O 22.3173 -0.13348 -2.00957 0
M  V30 206 C 19.3823 -0.560312 -3.42142 0
M  V30 207 C 18.4433 -1.68096 -3.95022 0
M  V30 208 C 17.6763 -1.2703 -5.18362 0
M  V30 209 O 17.8993 -0.144438 -5.70217 0
M  V30 210 O 16.8333 -2.08269 -5.64719 0
M  V30 211 H 20.6593 -1.93158 -2.34358 0
M  V30 212 H 18.2443 -0.999999 -1.10997 0
M  V30 213 H 20.1263 -0.329724 -4.20108 0
M  V30 214 H 18.8013 0.351089 -3.2179 0
M  V30 215 H 17.7083 -1.96597 -3.18278 0
M  V30 216 H 19.0413 -2.56983 -4.19786 0
M  V30 217 N 20.6934 1.19889 -1.02296 0
M  V30 218 C 21.6564 2.21116 -0.603351 0
M  V30 219 C 22.6564 1.5738 0.329884 0
M  V30 220 O 23.8464 1.73802 0.117702 0
M  V30 221 C 20.9784 3.40696 0.117992 0
M  V30 222 H 22.1714 2.59754 -1.49893 0
M  V30 223 H 19.7244 1.33463 -0.813468 0
M  V30 224 H 20.4594 3.07569 1.0282 0
M  V30 225 H 20.2444 3.88188 -0.552511 0
M  V30 226 H 21.7344 4.15692 0.398696 0
M  V30 227 N 22.1715 0.800033 1.35784 0
M  V30 228 C 23.0815 0.207204 2.33683 0
M  V30 229 C 24.0975 -0.64631 1.61551 0
M  V30 230 O 25.2735 -0.559604 1.93469 0
M  V30 231 C 22.3385 -0.639659 3.40748 0
M  V30 232 C 21.3995 0.233585 4.28664 0
M  V30 233 C 20.6325 -0.572954 5.30616 0
M  V30 234 O 20.8555 -1.80816 5.40982 0
M  V30 235 O 19.7895 0.0327285 6.01891 0
M  V30 236 H 23.6155 1.01692 2.86169 0
M  V30 237 H 21.2005 0.561691 1.38439 0
M  V30 238 H 23.0825 -1.12223 4.06182 0
M  V30 239 H 21.7575 -1.42708 2.90544 0
M  V30 240 H 20.6645 0.763147 3.66233 0
M  V30 241 H 21.9975 0.984784 4.82248 0
M  V30 242 N 23.6496 -1.47581 0.552962 0
M  V30 243 C 24.5596 -2.33743 -0.200353 0
M  V30 244 C 25.5756 -1.47928 -0.916151 0
M  V30 245 O 26.7516 -1.80865 -0.885993 0
M  V30 246 C 23.8166 -3.24536 -1.21973 0
M  V30 247 C 22.8776 -4.26238 -0.511819 0
M  V30 248 C 22.1106 -5.12693 -1.48263 0
M  V30 249 O 22.3336 -5.01525 -2.71714 0
M  V30 250 O 21.2676 -5.93375 -1.00945 0
M  V30 251 H 25.0936 -2.9945 0.506304 0
M  V30 252 H 22.6786 -1.46071 0.313622 0
M  V30 253 H 24.5606 -3.80631 -1.80827 0
M  V30 254 H 23.2356 -2.61462 -1.90839 0
M  V30 255 H 22.1426 -3.73914 0.117799 0
M  V30 256 H 23.4756 -4.92014 0.135308 0
M  V30 257 N 25.1277 -0.289203 -1.54924 0
M  V30 258 C 26.4047 0.376032 -1.91951 0
M  V30 259 C 26.7847 1.72622 -1.21511 0
M  V30 260 O 26.1327 2.25853 -0.346767 0
M  V30 261 C 26.3427 0.502378 -3.45365 0
M  V30 262 C 27.6907 0.778741 -4.17398 0
M  V30 263 O 28.7147 0.586647 -3.51336 0
M  V30 264 O 27.5737 1.14698 -5.34328 0
M  V30 265 H 24.6677 0.208167 -0.800372 0
M  V30 266 H 27.2137 -0.336394 -1.66332 0
M  V30 267 H 25.9857 -0.447255 -3.88736 0
M  V30 268 H 25.6087 1.26373 -3.76982 0
M  V30 269 N 26.6058 1.57591 -0.0167156 0
M  V30 270 C 27.5158 2.1291 0.98521 0
M  V30 271 C 28.5318 1.07834 1.36557 0
M  V30 272 O 29.7078 1.39826 1.44951 0
M  V30 273 C 26.7728 2.63512 2.25305 0
M  V30 274 C 25.8338 3.83256 1.93426 0
M  V30 275 C 25.0668 4.31435 3.14165 0
M  V30 276 O 25.2898 3.78851 4.26413 0
M  V30 277 O 24.2238 5.23416 2.97186 0
M  V30 278 H 28.0498 2.98772 0.544888 0
M  V30 279 H 25.6348 1.48012 0.203141 0
M  V30 280 H 27.5168 2.96183 2.99756 0
M  V30 281 H 26.1918 1.8074 2.68542 0
M  V30 282 H 25.0988 3.55531 1.16398 0
M  V30 283 H 26.4318 4.67153 1.55013 0
M  V30 284 N 28.0839 -0.256276 1.55502 0
M  V30 285 C 29.0139 -1.32102 1.92539 0
M  V30 286 C 29.9949 -1.50684 0.789194 0
M  V30 287 O 31.1799 -1.63449 1.04872 0
M  V30 288 C 28.3099 -2.67752 2.21192 0
M  V30 289 C 27.2639 -2.63878 3.36975 0
M  V30 290 C 26.5899 -4.03236 3.51147 0
M  V30 291 C 27.8899 -2.21682 4.72921 0
M  V30 292 H 29.5839 -1.01351 2.81724 0
M  V30 293 H 27.1299 -0.486105 1.35547 0
M  V30 294 H 29.0829 -3.42365 2.45691 0
M  V30 295 H 27.8069 -3.0012 1.28824 0
M  V30 296 H 26.4659 -1.91722 3.12471 0
M  V30 297 H 26.1139 -4.32854 2.56216 0
M  V30 298 H 25.8139 -4.01535 4.29003 0
M  V30 299 H 27.3379 -4.79563 3.77957 0
M  V30 300 H 28.7519 -2.86023 4.96854 0
M  V30 301 H 27.1489 -2.3111 5.53812 0
M  V30 302 H 28.2189 -1.16833 4.70615 0
M  V30 303 N 29.562 -1.4872 -0.521534 0
M  V30 304 C 30.79 -1.60843 -1.30142 0
M  V30 305 C 31.205 -0.271897 -1.86832 0
M  V30 306 O 30.562 0.739969 -1.66825 0
M  V30 307 C 30.613 -2.66155 -2.4463 0
M  V30 308 O 30.334 -3.94623 -1.90275 0
M  V30 309 C 31.835 -2.88795 -3.36322 0
M  V30 310 H 29.055 -0.542075 -0.395468 0
M  V30 311 H 31.599 -1.94609 -0.628285 0
M  V30 312 H 29.754 -2.35224 -3.07812 0
M  V30 313 H 30.168 -4.52468 -2.65279 0
M  V30 314 H 31.642 -3.66264 -4.12983 0
M  V30 315 H 32.119 -1.97934 -3.9207 0
M  V30 316 H 32.725 -3.21063 -2.78924 0
M  V30 317 N 31.0401 0.771051 -1.3745 0
M  V30 318 C 32.4511 1.34737 -1.29239 0
M  V30 319 C 32.8021 1.96109 0.0596908 0
M  V30 320 O 31.9271 1.93865 0.961534 0
M  V30 321 C 32.5221 2.44973 -2.34037 0
M  V30 322 C 31.0811 2.98372 -2.29458 0
M  V30 323 C 30.2281 1.71595 -2.17831 0
M  V30 324 H 33.1791 0.571256 -1.48062 0
M  V30 325 H 33.2001 3.24471 -1.98744 0
M  V30 326 H 32.7121 2.00276 -3.32432 0
M  V30 327 H 30.8131 3.47443 -1.34589 0
M  V30 328 H 30.9261 3.53939 -3.229 0
M  V30 329 H 29.2901 1.94547 -1.64388 0
M  V30 330 H 30.0731 1.29001 -3.18141 0
M  V30 331 N 32.5182 1.22032 0.997298 0
M  V30 332 C 33.7952 0.950823 1.70935 0
M  V30 333 C 34.1752 -0.535292 2.042 0
M  V30 334 O 33.5232 -1.50217 1.72183 0
M  V30 335 C 33.7332 1.84386 2.96315 0
M  V30 336 C 35.0812 2.09732 3.69185 0
M  V30 337 O 36.1052 1.81798 3.06314 0
M  V30 338 O 34.9642 2.57018 4.82291 0
M  V30 339 H 32.0582 0.357204 0.745878 0
M  V30 340 H 34.6042 1.32997 1.05404 0
M  V30 341 H 33.3762 2.84928 2.68201 0
M  V30 342 H 32.9992 1.46602 3.69586 0
M  V30 343 N 33.9963 -1.19345 1.0293 0
M  V30 344 C 35.2733 -1.84811 0.640642 0
M  V30 345 C 35.6533 -1.91855 -0.88062 0
M  V30 346 O 35.0013 -1.43587 -1.7775 0
M  V30 347 C 35.2113 -3.23755 1.30321 0
M  V30 348 C 36.5593 -3.99912 1.42673 0
M  V30 349 O 37.5833 -3.33155 1.26041 0
M  V30 350 O 36.4423 -5.19494 1.6967 0
M  V30 351 H 33.5363 -0.796443 0.222726 0
M  V30 352 H 36.0823 -1.26831 1.12748 0
M  V30 353 H 34.8543 -3.13466 2.34211 0
M  V30 354 H 34.4773 -3.89381 0.804261 0
M  V30 355 N 35.4744 -0.807222 -1.35358 0
M  V30 356 C 36.4214 -0.216037 -2.29787 0
M  V30 357 C 37.3914 0.650278 -1.52842 0
M  V30 358 O 38.5764 0.595227 -1.81278 0
M  V30 359 C 35.7164 0.628893 -3.39321 0
M  V30 360 C 34.8294 -0.257927 -4.31229 0
M  V30 361 C 33.9644 0.595069 -5.27856 0
M  V30 362 C 33.0034 -0.292111 -6.11403 0
M  V30 363 N 32.1404 0.520895 -7.00165 0
M  V30 364 H 36.9804 -1.02671 -2.79755 0
M  V30 365 H 34.5174 -0.517839 -1.37684 0
M  V30 366 H 36.4754 1.13393 -4.01494 0
M  V30 367 H 35.1054 1.40482 -2.90628 0
M  V30 368 H 34.1574 -0.881076 -3.70056 0
M  V30 369 H 35.4694 -0.940759 -4.89848 0
M  V30 370 H 34.6234 1.16522 -5.95405 0
M  V30 371 H 33.3624 1.31146 -4.69736 0
M  V30 372 H 32.3674 -0.874525 -5.428 0
M  V30 373 H 33.5924 -1.00638 -6.71602 0
M  V30 374 H 31.5384 1.22125 -6.44532 0
M  V30 375 H 31.4554 -0.103877 -7.55929 0
M  V30 376 H 32.7234 1.0743 -7.72062 0
M  V30 377 N 36.9525 1.47285 -0.560781 0
M  V30 378 C 37.8855 2.27009 0.232821 0
M  V30 379 C 38.8635 1.34273 0.917039 0
M  V30 380 O 40.0475 1.63659 0.935315 0
M  V30 381 C 37.1745 3.11406 1.33206 0
M  V30 382 C 36.2205 4.19746 0.756019 0
M  V30 383 S 37.0535 5.34003 -0.400165 0
M  V30 384 C 38.2095 6.21964 0.700805 0
M  V30 385 H 38.4425 2.93971 -0.443683 0
M  V30 386 H 35.9755 1.50446 -0.347181 0
M  V30 387 H 37.9335 3.60601 1.96156 0
M  V30 388 H 36.5945 2.438 1.98041 0
M  V30 389 H 35.7875 4.78541 1.5816 0
M  V30 390 H 35.3895 3.73451 0.202619 0
M  V30 391 H 37.6815 6.58529 1.59202 0
M  V30 392 H 38.6245 7.07941 0.150126 0
M  V30 393 H 39.0325 5.5566 0.995083 0
M  V30 394 N 38.4306 0.297415 1.54768 0
M  V30 395 C 39.3606 -0.573494 2.26348 0
M  V30 396 C 40.3416 -1.14085 1.26169 0
M  V30 397 O 41.5266 -1.17086 1.54934 0
M  V30 398 C 38.6566 -1.74716 3.00153 0
M  V30 399 C 37.6106 -1.31032 4.07449 0
M  V30 400 C 36.9366 -2.56887 4.68949 0
M  V30 401 C 38.2366 -0.444183 5.20408 0
M  V30 402 H 39.9306 0.0235131 2.99391 0
M  V30 403 H 37.4766 0.0127488 1.43994 0
M  V30 404 H 39.4296 -2.3625 3.48947 0
M  V30 405 H 38.1536 -2.37035 2.24682 0
M  V30 406 H 36.8126 -0.718066 3.59499 0
M  V30 407 H 36.4606 -3.17512 3.90122 0
M  V30 408 H 36.1606 -2.2836 5.41411 0
M  V30 409 H 37.6846 -3.19229 5.20505 0
M  V30 410 H 39.0986 -0.9651 5.65118 0
M  V30 411 H 37.4956 -0.252846 5.99567 0
M  V30 412 H 38.5656 0.531609 4.81977 0
M  V30 413 N 39.9087 -1.5758 0.0250728 0
M  V30 414 C 41.3247 -1.56124 -0.331282 0
M  V30 415 C 41.5247 -1.03029 -1.73169 0
M  V30 416 O 40.5807 -0.675215 -2.43305 0
M  V30 417 C 41.8937 -3.00139 -0.183584 0
M  V30 418 C 43.4417 -3.11946 -0.256654 0
M  V30 419 C 43.9167 -4.57793 -0.137792 0
M  V30 420 N 45.4077 -4.6279 -0.194904 0
M  V30 421 C 46.1427 -5.7326 -0.126655 0
M  V30 422 N 45.6387 -6.928 -0.00755288 0
M  V30 423 N 47.4317 -5.61811 -0.180348 0
M  V30 424 H 39.5827 -1.90424 0.94087 0
M  V30 425 H 41.8457 -0.875761 0.362968 0
M  V30 426 H 41.5517 -3.4292 0.780927 0
M  V30 427 H 41.4257 -3.64899 -0.955448 0
M  V30 428 H 43.8127 -2.69079 -1.21162 0
M  V30 429 H 43.8937 -2.49915 0.545517 0
M  V30 430 H 43.5377 -5.01339 0.813739 0
M  V30 431 H 43.4677 -5.17798 -0.958775 0
M  V30 432 H 45.9587 -3.76807 -0.287267 0
M  V30 433 H 46.2717 -7.72791 0.0379428 0
M  V30 434 H 44.6167 -6.94995 0.0271731 0
M  V30 435 H 47.8077 -4.6731 -0.271767 0
M  V30 436 H 47.9807 -6.47882 -0.123697 0
M  V30 437 N 41.3868 0.248026 -1.55636 0
M  V30 438 C 42.6338 0.976224 -1.77415 0
M  V30 439 C 42.9618 1.85361 -0.589193 0
M  V30 440 O 42.2168 1.90973 0.427529 0
M  V30 441 C 42.5158 1.86819 -3.04686 0
M  V30 442 C 42.1818 1.14625 -4.36087 0
M  V30 443 C 40.8438 0.946723 -4.71795 0
M  V30 444 C 43.1958 0.634463 -5.17324 0
M  V30 445 C 40.5238 0.223091 -5.86276 0
M  V30 446 C 42.8758 -0.0756959 -6.32555 0
M  V30 447 C 41.5398 -0.286711 -6.66884 0
M  V30 448 H 40.8098 0.357226 -0.649208 0
M  V30 449 H 43.4568 0.246415 -1.89908 0
M  V30 450 H 41.7618 2.66502 -2.872 0
M  V30 451 H 43.4588 2.43329 -3.18735 0
M  V30 452 H 40.0488 1.3117 -4.08035 0
M  V30 453 H 44.2328 0.77616 -4.90193 0
M  V30 454 H 39.4888 0.0491185 -6.1138 0
M  V30 455 H 43.6628 -0.479899 -6.94745 0
M  V30 456 H 41.2898 -0.849389 -7.5544 0
M  V30 457 N 42.8649 1.48995 0.513639 0
M  V30 458 C 44.1109 1.58076 1.27042 0
M  V30 459 C 44.4439 0.261026 1.92438 0
M  V30 460 O 43.7189 -0.734393 1.80103 0
M  V30 461 C 44.0019 2.73091 2.34719 0
M  V30 462 C 43.8549 4.14821 1.73907 0
M  V30 463 C 45.1739 2.83796 3.36375 0
M  V30 464 H 42.2929 0.575391 0.460536 0
M  V30 465 H 44.9349 1.81232 0.570516 0
M  V30 466 H 43.0849 2.53479 2.94416 0
M  V30 467 H 44.7569 4.45917 1.18135 0
M  V30 468 H 42.9999 4.21058 1.0437 0
M  V30 469 H 43.6709 4.91147 2.51949 0
M  V30 470 H 46.1469 3.01611 2.86653 0
M  V30 471 H 45.0229 3.65971 4.09093 0
M  V30 472 H 45.2839 1.92624 3.9793 0
M  V30 473 N 44.343 -0.763751 1.37857 0
M  V30 474 C 45.62 -1.51244 1.24035 0
M  V30 475 C 46 -2.10472 -0.162649 0
M  V30 476 O 45.348 -1.96206 -1.17112 0
M  V30 477 C 45.558 -2.58694 2.34261 0
M  V30 478 C 46.906 -3.25878 2.72193 0
M  V30 479 O 47.93 -2.68993 2.33497 0
M  V30 480 O 46.789 -4.2874 3.38887 0
M  V30 481 H 43.883 -0.670243 0.484462 0
M  V30 482 H 46.429 -0.800031 1.49658 0
M  V30 483 H 45.201 -2.13105 3.2818 0
M  V30 484 H 44.824 -3.37527 2.10146 0
M  V30 485 N 45.8211 -1.22559 -0.990812 0
M  V30 486 C 46.7681 -0.997519 -2.0813 0
M  V30 487 C 47.7381 0.0814702 -1.659 0
M  V30 488 O 48.9231 -0.0685424 -1.90677 0
M  V30 489 C 46.0631 -0.583615 -3.40129 0
M  V30 490 C 45.1761 -1.7336 -3.9569 0
M  V30 491 C 44.3111 -1.26748 -5.15857 0
M  V30 492 C 43.3501 -2.38888 -5.63559 0
M  V30 493 N 42.4871 -1.93308 -6.74964 0
M  V30 494 H 47.3271 -1.93099 -2.26973 0
M  V30 495 H 44.8641 -0.962114 -1.11273 0
M  V30 496 H 46.8221 -0.324801 -4.15934 0
M  V30 497 H 45.4521 0.312845 -3.2128 0
M  V30 498 H 44.5041 -2.10669 -3.16738 0
M  V30 499 H 45.8161 -2.57704 -4.27071 0
M  V30 500 H 44.9701 -0.966173 -5.98957 0
M  V30 501 H 43.7091 -0.394272 -4.86104 0
M  V30 502 H 42.7141 -2.69805 -4.79046 0
M  V30 503 H 43.9391 -3.26728 -5.95336 0
M  V30 504 H 41.8851 -1.08352 -6.4699 0
M  V30 505 H 41.8021 -2.71217 -7.05675 0
M  V30 506 H 43.0701 -1.66252 -7.61564 0
M  V30 507 N 47.2992 1.18797 -1.03562 0
M  V30 508 C 48.2472 2.24297 -0.615905 0
M  V30 509 C 49.2412 1.65643 0.354808 0
M  V30 510 O 50.4472 1.78618 0.22265 0
M  V30 511 H 46.8222 0.729909 -0.180934 0
M  V30 512 H 48.7932 2.5701 -1.5162 0
M  V30 513 C 47.5422 3.47698 0.0104735 0
M  V30 514 H 46.8652 3.93125 -0.727509 0
M  V30 515 H 48.3052 4.23159 0.266995 0
M  V30 516 C 46.7642 3.12489 1.25905 0
M  V30 517 O 47.2942 3.25761 2.35038 0
M  V30 518 N 45.5002 2.6686 1.15039 0
M  V30 519 H 45.0472 2.56261 0.262328 0
M  V30 520 H 45.0052 2.43674 1.98672 0
M  V30 521 N 48.7773 0.814389 1.34928 0
M  V30 522 C 50.0253 0.397636 1.9815 0
M  V30 523 C 50.3463 -1.04069 1.64908 0
M  V30 524 O 49.6163 -1.72121 0.93548 0
M  V30 525 H 48.1963 0.144043 0.732981 0
M  V30 526 H 50.8583 1.04195 1.6471 0
M  V30 527 H 49.9543 0.509688 3.0791 0
M  V30 528 N 50.2554 -1.46986 0.568584 0
M  V30 529 C 51.1854 -2.32946 -0.160753 0
M  V30 530 C 52.1664 -1.44487 -0.897631 0
M  V30 531 O 53.3514 -1.73327 -0.875867 0
M  V30 532 C 50.4814 -3.26494 -1.18403 0
M  V30 533 C 49.4354 -4.24282 -0.562895 0
M  V30 534 C 48.7614 -5.07236 -1.69163 0
M  V30 535 C 50.0614 -5.19989 0.490761 0
M  V30 536 H 51.7554 -2.94175 0.556916 0
M  V30 537 H 49.3014 -1.4146 0.26927 0
M  V30 538 H 51.2544 -3.85477 -1.70251 0
M  V30 539 H 49.9784 -2.63343 -1.93179 0
M  V30 540 H 48.6374 -3.66541 -0.0656164 0
M  V30 541 H 48.2854 -4.4048 -2.42871 0
M  V30 542 H 47.9854 -5.7345 -1.28174 0
M  V30 543 H 49.5094 -5.6908 -2.21314 0
M  V30 544 H 50.9234 -5.73271 0.0579047 0
M  V30 545 H 49.3204 -5.94469 0.820165 0
M  V30 546 H 50.3904 -4.64777 1.3824 0
M  V30 547 N 51.7335 -0.305618 -1.54608 0
M  V30 548 C 52.9795 0.302746 -2.00528 0
M  V30 549 C 53.3125 1.53184 -1.19367 0
M  V30 550 O 52.5875 1.92598 -0.271321 0
M  V30 551 C 52.8705 0.654756 -3.54097 0
M  V30 552 C 52.7235 -0.583793 -4.45995 0
M  V30 553 C 54.0425 1.47947 -4.14487 0
M  V30 554 H 51.1615 0.108564 -0.72896 0
M  V30 555 H 53.8035 -0.418634 -1.85331 0
M  V30 556 H 51.9535 1.26935 -3.67178 0
M  V30 557 H 53.6255 -1.22224 -4.44814 0
M  V30 558 H 51.8685 -1.21615 -4.16404 0
M  V30 559 H 52.5395 -0.293287 -5.5122 0
M  V30 560 H 55.0155 0.96013 -4.04871 0
M  V30 561 H 53.8915 1.69454 -5.22088 0
M  V30 562 H 54.1525 2.47011 -3.66658 0
M  V30 563 N 53.2116 1.57565 -0.0334293 0
M  V30 564 C 54.6226 1.79746 0.504798 0
M  V30 565 C 54.9736 0.944091 1.71992 0
M  V30 566 O 54.0986 0.155694 2.15839 0
M  V30 567 C 54.6936 3.25997 0.922567 0
M  V30 568 C 53.2526 3.49159 1.40588 0
M  V30 569 C 52.3996 2.74785 0.372633 0
M  V30 570 H 55.3506 1.56565 -0.259436 0
M  V30 571 H 55.3716 3.35945 1.78666 0
M  V30 572 H 54.8836 3.88081 0.0379825 0
M  V30 573 H 52.9846 2.92332 2.31025 0
M  V30 574 H 53.0976 4.57873 1.41028 0
M  V30 575 H 51.4616 2.40391 0.841672 0
M  V30 576 H 52.2446 3.39587 -0.503559 0
M  V30 577 N 54.6897 -0.239769 1.55765 0
M  V30 578 C 55.9147 -0.988373 1.82335 0
M  V30 579 C 56.3397 -1.77886 0.611421 0
M  V30 580 O 55.6977 -1.75889 -0.439639 0
M  V30 581 C 55.7457 -1.89627 3.06715 0
M  V30 582 O 54.8497 -2.98904 2.84131 0
M  V30 583 H 54.1907 -0.280858 0.601677 0
M  V30 584 H 56.7207 -0.258597 2.02959 0
M  V30 585 H 56.7307 -2.30957 3.36338 0
M  V30 586 H 55.4057 -1.31511 3.9456 0
M  V30 587 H 53.9827 -2.61651 2.65694 0
M  V30 588 N 56.1678 -1.49265 -0.50573 0
M  V30 589 C 57.3928 -1.62478 -1.28902 0
M  V30 590 C 57.8178 -0.294332 -1.85783 0
M  V30 591 O 57.1758 0.737412 -1.65626 0
M  V30 592 C 57.2238 -2.69268 -2.39848 0
M  V30 593 O 56.3278 -2.28113 -3.43567 0
M  V30 594 H 55.6688 -0.54399 -0.380751 0
M  V30 595 H 58.1988 -1.95421 -0.605952 0
M  V30 596 H 58.2088 -2.91291 -2.85681 0
M  V30 597 H 56.8838 -3.65846 -1.97812 0
M  V30 598 H 55.4608 -2.16401 -3.03685 0
M  V30 599 N 57.6459 0.756429 -1.3826 0
M  V30 600 C 58.8709 1.55077 -1.37717 0
M  V30 601 C 59.2959 1.88073 0.03164 0
M  V30 602 O 58.6539 1.50364 1.01293 0
M  V30 603 C 58.7019 2.8283 -2.23695 0
M  V30 604 O 57.8059 3.77862 -1.6521 0
M  V30 605 H 57.1469 0.469152 -0.469885 0
M  V30 606 H 59.6769 0.935019 -1.81985 0
M  V30 607 H 59.6869 3.31783 -2.37453 0
M  V30 608 H 58.3619 2.58144 -3.2609 0
M  V30 609 H 56.9389 3.36555 -1.60578 0
M  V30 610 N 59.124 1.23083 0.984299 0
M  V30 611 C 60.372 1.05848 1.72165 0
M  V30 612 C 60.693 -0.406049 1.90726 0
M  V30 613 O 59.963 -1.29139 1.47309 0
M  V30 614 H 58.543 0.388685 0.637913 0
M  V30 615 H 61.205 1.54736 1.18503 0
M  V30 616 H 60.301 1.54327 2.71274 0
M  V30 617 N 60.6021 -1.18246 1.0419 0
M  V30 618 C 61.8301 -1.92195 0.766072 0
M  V30 619 C 62.2451 -1.76247 -0.676933 0
M  V30 620 O 61.6021 -1.09293 -1.46155 0
M  V30 621 C 61.6531 -3.43568 1.12442 0
M  V30 622 O 61.3741 -3.59015 2.51078 0
M  V30 623 C 62.8751 -4.34613 0.873275 0
M  V30 624 H 60.0951 -0.610114 0.279288 0
M  V30 625 H 62.6391 -1.50007 1.38989 0
M  V30 626 H 60.7941 -3.8354 0.545542 0
M  V30 627 H 61.2081 -4.5273 2.64831 0
M  V30 628 H 62.6821 -5.39374 1.17385 0
M  V30 629 H 63.1591 -4.38781 -0.191909 0
M  V30 630 H 63.7651 -4.00341 1.43551 0
M  V30 631 N 62.0802 -0.821533 -1.34494 0
M  V30 632 C 63.3262 -0.409552 -1.98622 0
M  V30 633 C 63.6592 1.0244 -1.64984 0
M  V30 634 O 62.9342 1.71325 -0.920758 0
M  V30 635 C 63.2172 -0.610458 -3.54888 0
M  V30 636 C 63.0702 -2.09043 -3.98273 0
M  V30 637 C 64.3892 -0.0455379 -4.40076 0
M  V30 638 H 61.5082 -0.15028 -0.721516 0
M  V30 639 H 64.1502 -1.03384 -1.59411 0
M  V30 640 H 62.3002 -0.079044 -3.8842 0
M  V30 641 H 63.9722 -2.68537 -3.75081 0
M  V30 642 H 62.2152 -2.58139 -3.48635 0
M  V30 643 H 62.8862 -2.18182 -5.07051 0
M  V30 644 H 65.3622 -0.499557 -4.1309 0
M  V30 645 H 64.2382 -0.215922 -5.48475 0
M  V30 646 H 64.4992 1.04939 -4.29465 0
M  V30 647 N 63.5583 1.46682 -0.576371 0
M  V30 648 C 64.7883 2.06498 -0.0648694 0
M  V30 649 C 65.1963 1.42665 1.24271 0
M  V30 650 O 64.5393 0.523886 1.76071 0
M  V30 651 C 64.6013 3.5904 0.181816 0
M  V30 652 C 64.2653 4.45028 -1.0392 0
M  V30 653 C 65.2623 4.81959 -1.94966 0
M  V30 654 C 62.9473 4.86259 -1.25927 0
M  V30 655 C 64.9413 5.58942 -3.06371 0
M  V30 656 C 62.6283 5.63002 -2.37638 0
M  V30 657 C 63.6263 5.99257 -3.2769 0
M  V30 658 O 63.3143 6.7445 -4.37461 0
M  V30 659 H 63.0463 0.674028 -0.0515987 0
M  V30 660 H 65.6003 1.89393 -0.794951 0
M  V30 661 H 63.8303 3.74429 0.966436 0
M  V30 662 H 65.5193 4.00806 0.641047 0
M  V30 663 H 66.2853 4.50689 -1.79177 0
M  V30 664 H 62.1643 4.57494 -0.567448 0
M  V30 665 H 65.7083 5.87158 -3.76684 0
M  V30 666 H 61.6053 5.93686 -2.53392 0
M  V30 667 H 62.3733 6.92867 -4.35749 0
M  V30 668 N 65.0364 0.313813 1.54444 0
M  V30 669 C 66.3134 -0.345447 1.92525 0
M  V30 670 C 66.6934 -1.70667 1.24242 0
M  V30 671 O 66.0414 -2.25273 0.382654 0
M  V30 672 C 66.2514 -0.44737 3.46121 0
M  V30 673 C 67.5994 -0.712238 4.18584 0
M  V30 674 O 68.6234 -0.530678 3.52225 0
M  V30 675 O 67.4824 -1.06183 5.36085 0
M  V30 676 H 64.5764 -0.195407 0.803583 0
M  V30 677 H 67.1224 0.362813 1.65776 0
M  V30 678 H 65.8944 0.509043 3.87975 0
M  V30 679 H 65.5174 -1.20359 3.78945 0
M  V30 680 N 66.5145 -1.57545 0.0417849 0
M  V30 681 C 67.9305 -1.56467 -0.314704 0
M  V30 682 C 68.1305 -1.04859 -1.72066 0
M  V30 683 O 67.1865 -0.700983 -2.42575 0
M  V30 684 C 68.4995 -3.00317 -0.15174 0
M  V30 685 C 70.0475 -3.12201 -0.223553 0
M  V30 686 C 70.5225 -4.57913 -0.0892295 0
M  V30 687 N 72.0135 -4.6297 -0.145808 0
M  V30 688 C 72.7485 -5.73362 -0.0658459 0
M  V30 689 N 72.2445 -6.92769 0.0659282 0
M  V30 690 N 74.0375 -5.6197 -0.12075 0
M  V30 691 H 66.1885 -1.89416 0.961014 0
M  V30 692 H 68.4515 -0.871862 0.372237 0
M  V30 693 H 68.1575 -3.42073 0.817254 0
M  V30 694 H 68.0315 -3.65892 -0.916692 0
M  V30 695 H 70.4185 -2.70349 -1.18301 0
M  V30 696 H 70.4995 -2.49323 0.571994 0
M  V30 697 H 70.1435 -5.00448 0.866867 0
M  V30 698 H 70.0735 -5.18786 -0.903802 0
M  V30 699 H 72.5645 -3.7709 -0.247286 0
M  V30 700 H 72.8775 -7.72707 0.119905 0
M  V30 701 H 71.2225 -6.94927 0.100885 0
M  V30 702 H 74.4135 -4.67572 -0.222187 0
M  V30 703 H 74.5865 -6.47977 -0.0549735 0
M  V30 704 N 67.9926 0.231505 -1.5589 0
M  V30 705 C 69.2206 0.974505 -1.82513 0
M  V30 706 C 69.6356 1.78344 -0.619591 0
M  V30 707 O 68.9926 1.77792 0.411848 0
M  V30 708 C 69.0436 1.90007 -3.07538 0
M  V30 709 O 68.7646 1.12385 -4.2344 0
M  V30 710 C 70.2656 2.75779 -3.47075 0
M  V30 711 H 67.4856 0.286065 -0.606966 0
M  V30 712 H 70.0296 0.249739 -2.02969 0
M  V30 713 H 68.1846 2.57891 -2.89086 0
M  V30 714 H 68.5986 1.75125 -4.944 0
M  V30 715 H 70.0726 3.36443 -4.37619 0
M  V30 716 H 70.5496 3.47672 -2.68367 0
M  V30 717 H 71.1556 2.13323 -3.67931 0
M  V30 718 N 69.4707 1.49531 0.497807 0
M  V30 719 C 70.6987 1.62893 1.27567 0
M  V30 720 C 71.1137 0.301585 1.86376 0
M  V30 721 O 70.4707 -0.713335 1.67982 0
M  V30 722 C 70.5217 2.70013 2.40364 0
M  V30 723 O 70.2427 3.976 1.83972 0
M  V30 724 C 71.7437 2.94109 3.31685 0
M  V30 725 H 68.9637 0.548298 0.386794 0
M  V30 726 H 71.5077 1.95584 0.597245 0
M  V30 727 H 69.6627 2.40092 3.04031 0
M  V30 728 H 70.0767 4.56631 2.58047 0
M  V30 729 H 71.5507 3.72788 4.07104 0
M  V30 730 H 72.0277 2.04147 3.88871 0
M  V30 731 H 72.6337 3.2546 2.73781 0
M  V30 732 N 70.9488 -0.749086 1.3866 0
M  V30 733 C 72.1948 -1.51056 1.35314 0
M  V30 734 C 72.5278 -1.94121 -0.0553751 0
M  V30 735 O 71.8028 -1.65763 -1.01749 0
M  V30 736 C 72.0858 -2.76003 2.31288 0
M  V30 737 C 71.9388 -2.39047 3.8102 0
M  V30 738 C 73.2578 -3.78046 2.2532 0
M  V30 739 H 70.3768 -0.547972 0.492844 0
M  V30 740 H 73.0188 -0.857628 1.69543 0
M  V30 741 H 71.1688 -3.31716 2.02229 0
M  V30 742 H 72.8408 -1.89074 4.20771 0
M  V30 743 H 71.0838 -1.71449 3.98482 0
M  V30 744 H 71.7548 -3.28462 4.4364 0
M  V30 745 H 74.2308 -3.31884 2.50983 0
M  V30 746 H 73.1068 -4.63159 2.94576 0
M  V30 747 H 73.3678 -4.23957 1.25352 0
M  V30 748 N 72.4269 -1.23603 -0.977757 0
M  V30 749 C 73.3569 -1.04401 -2.0886 0
M  V30 750 C 74.3379 0.0399052 -1.70053 0
M  V30 751 O 75.5229 -0.125246 -1.93796 0
M  V30 752 C 72.6529 -0.637269 -3.41403 0
M  V30 753 C 71.6069 -1.66883 -3.94124 0
M  V30 754 C 70.9329 -1.11745 -5.22893 0
M  V30 755 C 72.2329 -3.06247 -4.23096 0
M  V30 756 H 73.9269 -1.97316 -2.25182 0
M  V30 757 H 71.4729 -0.950096 -1.08209 0
M  V30 758 H 73.4259 -0.48998 -4.18542 0
M  V30 759 H 72.1499 0.327557 -3.24953 0
M  V30 760 H 70.8089 -1.80416 -3.19133 0
M  V30 761 H 70.4569 -0.143527 -5.02795 0
M  V30 762 H 70.1569 -1.80672 -5.59134 0
M  V30 763 H 71.6809 -0.982067 -6.02651 0
M  V30 764 H 73.0949 -2.96001 -4.90975 0
M  V30 765 H 71.4919 -3.72436 -4.70544 0
M  V30 766 H 72.5619 -3.55041 -3.30263 0
M  V30 767 N 73.905 1.17692 -1.04816 0
M  V30 768 C 75.154 1.87192 -0.751132 0
M  V30 769 C 75.467 1.8169 0.724441 0
M  V30 770 O 76.673 2.46625 1.13527 0
M  V30 771 C 75.129 3.35857 -1.29338 0
M  V30 772 C 74.737 3.4987 -2.79812 0
M  V30 773 C 76.481 4.10709 -1.07322 0
M  V30 774 C 74.388 4.92536 -3.27356 0
M  V30 775 H 73.318 0.701162 -0.277288 0
M  V30 776 H 75.969 1.32932 -1.26496 0
M  V30 777 H 74.351 3.89631 -0.707376 0
M  V30 778 H 75.525 3.06332 -3.44235 0
M  V30 779 H 73.84 2.88433 -3.00325 0
M  V30 780 H 76.437 5.15952 -1.4035 0
M  V30 781 H 76.78 4.16299 -0.0108001 0
M  V30 782 H 77.313 3.6313 -1.62423 0
M  V30 783 H 74.052 4.92119 -4.33012 0
M  V30 784 H 73.572 5.3676 -2.67673 0
M  V30 785 H 75.251 5.61288 -3.21815 0
M  V30 786 N 75.3831 0.828654 1.34056 0
M  V30 787 C 76.2931 0.256725 2.33191 0
M  V30 788 C 77.3091 -0.611898 1.62886 0
M  V30 789 O 78.4851 -0.51844 1.94613 0
M  V30 790 C 75.5501 -0.567238 3.42028 0
M  V30 791 C 74.6111 0.324458 4.28072 0
M  V30 792 C 73.8441 -0.460274 5.31712 0
M  V30 793 O 74.0671 -1.693 5.44696 0
M  V30 794 O 73.0011 0.160391 6.01686 0
M  V30 795 H 76.8271 1.07739 2.83947 0
M  V30 796 H 74.4121 0.59093 1.37217 0
M  V30 797 H 76.2941 -1.03582 4.08471 0
M  V30 798 H 74.9691 -1.36513 2.93506 0
M  V30 799 H 73.8761 0.840659 3.64532 0
M  V30 800 H 75.2091 1.08685 4.8005 0
M  V30 801 N 76.8612 -1.46375 0.584142 0
M  V30 802 C 77.7932 -2.28443 -0.186119 0
M  V30 803 C 78.8062 -1.38596 -0.854115 0
M  V30 804 O 79.9952 -1.63183 -0.723438 0
M  V30 805 C 77.0952 -3.13671 -1.28311 0
M  V30 806 C 76.2682 -4.31652 -0.706758 0
M  V30 807 C 75.3272 -4.98267 -1.69163 0
M  V30 808 O 74.3532 -5.55815 -1.22712 0
M  V30 809 N 75.5552 -4.95408 -3.02575 0
M  V30 810 H 78.3202 -2.9519 0.517986 0
M  V30 811 H 75.8812 -1.56303 0.42201 0
M  V30 812 H 77.8732 -3.55101 -1.94128 0
M  V30 813 H 76.4432 -2.48989 -1.89005 0
M  V30 814 H 75.6632 -3.93989 0.128908 0
M  V30 815 H 76.9512 -5.07906 -0.301506 0
M  V30 816 H 76.3492 -4.49902 -3.42936 0
M  V30 817 H 74.9062 -5.40774 -3.63877 0
M  V30 818 N 78.3393 -0.321999 -1.54275 0
M  V30 819 C 79.6163 0.335232 -1.92706 0
M  V30 820 C 79.9963 1.70006 -1.25145 0
M  V30 821 O 79.3443 2.25067 -0.394596 0
M  V30 822 C 79.5543 0.429008 -3.46353 0
M  V30 823 C 80.9023 0.690029 -4.18956 0
M  V30 824 O 81.9263 0.511992 -3.52501 0
M  V30 825 O 80.7853 1.03338 -5.36641 0
M  V30 826 H 77.8793 0.191143 -0.804608 0
M  V30 827 H 80.4253 -0.3716 -1.65581 0
M  V30 828 H 79.1973 -0.529611 -3.87699 0
M  V30 829 H 78.8203 1.18348 -3.79578 0
M  V30 830 N 79.8174 1.5752 -0.0501392 0
M  V30 831 C 81.2284 1.80271 0.485705 0
M  V30 832 C 81.5794 0.96228 1.70981 0
M  V30 833 O 80.7044 0.178578 2.15662 0
M  V30 834 C 81.2994 3.26957 0.887938 0
M  V30 835 C 79.8584 3.5063 1.36877 0
M  V30 836 C 79.0054 2.75165 0.343468 0
M  V30 837 H 81.9564 1.56281 -0.276028 0
M  V30 838 H 81.9774 3.37821 1.75093 0
M  V30 839 H 81.4894 3.881 -0.0031809 0
M  V30 840 H 79.5904 2.94766 2.27911 0
M  V30 841 H 79.7034 4.59343 1.36164 0
M  V30 842 H 78.0674 2.4127 0.816128 0
M  V30 843 H 78.8504 3.39034 -0.539548 0
M  V30 844 N 81.2955 -0.223234 1.56011 0
M  V30 845 C 82.5435 -0.946003 1.78592 0
M  V30 846 C 82.8645 -1.84936 0.618349 0
M  V30 847 O 82.1345 -1.92473 -0.364833 0
M  V30 848 H 80.7145 -0.352298 0.658707 0
M  V30 849 H 83.3765 -0.235494 1.93472 0
M  V30 850 H 82.4725 -1.55381 2.70672 0
M  V30 851 N 82.7736 -1.49793 -0.48987 0
M  V30 852 C 84.0016 -1.63568 -1.26701 0
M  V30 853 C 84.4166 -0.311465 -1.86213 0
M  V30 854 O 83.7736 0.704416 -1.68357 0
M  V30 855 C 83.8246 -2.71284 -2.38929 0
M  V30 856 O 83.5456 -3.9857 -1.81861 0
M  V30 857 C 85.0466 -2.95864 -3.3012 0
M  V30 858 H 82.2666 -0.550342 -0.383881 0
M  V30 859 H 84.8106 -1.95898 -0.586864 0
M  V30 860 H 82.9656 -2.417 -3.02753 0
M  V30 861 H 83.3796 -4.57993 -2.55622 0
M  V30 862 H 84.8536 -3.74941 -4.05121 0
M  V30 863 H 85.3306 -2.06206 -3.87783 0
M  V30 864 H 85.9366 -3.26907 -2.72051 0
M  V30 865 N 84.2517 0.741722 -1.39055 0
M  V30 866 C 85.1817 1.869 -1.39966 0
M  V30 867 C 86.1627 1.6804 -0.26392 0
M  V30 868 O 87.3477 1.88458 -0.468755 0
M  V30 869 C 84.4777 3.24572 -1.23574 0
M  V30 870 C 83.4317 3.58056 -2.34477 0
M  V30 871 C 82.7577 4.94593 -2.0318 0
M  V30 872 C 84.0577 3.61716 -3.76774 0
M  V30 873 H 85.7517 1.86395 -2.34302 0
M  V30 874 H 83.2977 0.895361 -1.1278 0
M  V30 875 H 85.2507 4.031 -1.22834 0
M  V30 876 H 83.9747 3.25587 -0.257045 0
M  V30 877 H 82.6337 2.81854 -2.34423 0
M  V30 878 H 82.2817 4.92181 -1.03765 0
M  V30 879 H 81.9817 5.17964 -2.77465 0
M  V30 880 H 83.5057 5.75486 -2.04079 0
M  V30 881 H 84.9197 4.30335 -3.78794 0
M  V30 882 H 83.3167 3.96603 -4.50362 0
M  V30 883 H 84.3867 2.61672 -4.08235 0
M  V30 884 N 85.7298 1.2412 0.971189 0
M  V30 885 C 86.6398 1.04747 2.09917 0
M  V30 886 C 87.6558 -0.0107162 1.73997 0
M  V30 887 O 88.8318 0.186714 2.00533 0
M  V30 888 C 85.8968 0.650828 3.40537 0
M  V30 889 C 84.9578 1.7851 3.90426 0
M  V30 890 C 84.1908 1.40729 5.14812 0
M  V30 891 O 84.4138 0.29557 5.69634 0
M  V30 892 O 83.3478 2.23168 5.58999 0
M  V30 893 H 87.1738 1.99304 2.29154 0
M  V30 894 H 84.7588 1.02908 1.08307 0
M  V30 895 H 86.6408 0.440992 4.19086 0
M  V30 896 H 85.3158 -0.265649 3.22608 0
M  V30 897 H 84.2228 2.04966 3.12953 0
M  V30 898 H 85.5558 2.68023 4.12825 0
M  V30 899 N 87.2079 -1.17134 1.05439 0
M  V30 900 C 88.4849 -1.83411 0.679699 0
M  V30 901 C 88.8649 -1.9368 -0.839726 0
M  V30 902 O 88.2129 -1.47325 -1.74664 0
M  V30 903 C 88.4229 -3.20918 1.37159 0
M  V30 904 C 89.7709 -3.96796 1.51123 0
M  V30 905 O 90.7949 -3.30406 1.3308 0
M  V30 906 O 89.6539 -5.15778 1.80651 0
M  V30 907 H 86.7479 -0.79154 0.239569 0
M  V30 908 H 89.2939 -1.24411 1.15413 0
M  V30 909 H 88.0659 -3.08428 2.40807 0
M  V30 910 H 87.6889 -3.87587 0.886674 0
M  V30 911 N 88.686 -0.835752 -1.33615 0
M  V30 912 C 89.596 -0.269088 -2.33052 0
M  V30 913 C 90.612 0.603251 -1.63208 0
M  V30 914 O 91.788 0.508112 -1.94885 0
M  V30 915 C 88.853 0.549091 -3.42324 0
M  V30 916 C 87.914 -0.347156 -4.27894 0
M  V30 917 C 87.147 0.43207 -5.31948 0
M  V30 918 O 87.37 1.66409 -5.45586 0
M  V30 919 O 86.304 -0.192298 -6.01593 0
M  V30 920 H 90.13 -1.09243 -2.83372 0
M  V30 921 H 87.715 -0.598198 -1.36901 0
M  V30 922 H 89.597 1.01414 -4.09015 0
M  V30 923 H 88.272 1.34955 -2.94226 0
M  V30 924 H 87.179 -0.859979 -3.64081 0
M  V30 925 H 88.512 -1.1123 -4.79467 0
M  V30 926 N 90.1641 1.46063 -0.591896 0
M  V30 927 C 91.4411 1.95595 -0.0137119 0
M  V30 928 C 91.8211 1.5345 1.4497 0
M  V30 929 O 91.1691 0.789543 2.14426 0
M  V30 930 C 91.3791 3.48453 -0.195373 0
M  V30 931 C 92.7271 4.24546 -0.0679765 0
M  V30 932 O 93.7511 3.55982 -0.124681 0
M  V30 933 O 92.6101 5.46467 0.0600579 0
M  V30 934 H 89.7041 0.825795 0.0446279 0
M  V30 935 H 92.2501 1.56303 -0.660859 0
M  V30 936 H 91.0221 3.72045 -1.21235 0
M  V30 937 H 90.6451 3.94597 0.487775 0
M  V30 938 N 91.6422 0.330177 1.54103 0
M  V30 939 C 92.9192 -0.325007 1.92881 0
M  V30 940 C 93.2992 -1.6934 1.26045 0
M  V30 941 O 92.6472 -2.24855 0.406526 0
M  V30 942 C 92.8572 -0.410634 3.46576 0
M  V30 943 C 94.2052 -0.667801 4.19316 0
M  V30 944 O 95.2292 -0.49329 3.52768 0
M  V30 945 O 94.0882 -1.00491 5.37181 0
M  V30 946 H 91.1822 -0.186873 0.80561 0
M  V30 947 H 93.7282 0.380376 1.65382 0
M  V30 948 H 92.5002 0.550164 3.87413 0
M  V30 949 H 92.1232 -1.16333 3.802 0
M  V30 950 N 93.1203 -1.57491 0.0584922 0
M  V30 951 C 94.3973 -1.84346 -0.653918 0
M  V30 952 C 94.7773 -0.948355 -1.88599 0
M  V30 953 O 94.1253 -0.0112403 -2.28497 0
M  V30 954 C 94.3353 -3.34239 -1.00425 0
M  V30 955 C 95.6833 -4.01431 -1.38342 0
M  V30 956 O 96.7073 -3.38907 -1.09637 0
M  V30 957 O 95.5663 -5.11683 -1.91943 0
M  V30 958 H 92.6603 -0.761112 -0.323478 0
M  V30 959 H 95.2063 -1.6947 0.0884125 0
M  V30 960 H 93.9783 -3.91089 -0.128625 0
M  V30 961 H 93.6013 -3.54329 -1.80378 0
M  V30 962 N 94.5984 0.214957 -1.56127 0
M  V30 963 C 95.8464 0.936518 -1.79091 0
M  V30 964 C 96.1674 1.84606 -0.628148 0
M  V30 965 O 95.4374 1.92664 0.35462 0
M  V30 966 H 94.0174 0.3488 -0.660566 0
M  V30 967 H 96.6794 0.22523 -1.93594 0
M  V30 968 H 95.7754 1.53943 -2.71492 0
M  V30 969 N 96.0765 1.50051 0.48192 0
M  V30 970 C 97.0085 1.64263 1.59844 0
M  V30 971 C 98.0215 0.52451 1.54119 0
M  V30 972 O 99.2105 0.797293 1.59704 0
M  V30 973 C 96.3105 1.60102 2.98698 0
M  V30 974 C 95.4835 2.87767 3.29407 0
M  V30 975 C 94.5425 2.76397 4.47762 0
M  V30 976 O 93.5685 3.50348 4.48603 0
M  V30 977 N 94.7705 1.89222 5.48794 0
M  V30 978 H 97.5355 2.60566 1.48073 0
M  V30 979 H 95.0965 1.47379 0.670149 0
M  V30 980 H 97.0885 1.50123 3.75826 0
M  V30 981 H 95.6585 0.715798 3.04294 0
M  V30 982 H 94.8785 3.11954 2.40994 0
M  V30 983 H 96.1665 3.72365 3.4673 0
M  V30 984 H 95.5645 1.28434 5.50928 0
M  V30 985 H 94.1215 1.85154 6.24949 0
M  V30 986 N 97.5546 -0.734337 1.39446 0
M  V30 987 C 98.7946 -1.50655 1.38139 0
M  V30 988 C 99.1586 -1.91986 -0.0228701 0
M  V30 989 O 100.36 -2.68318 -0.160947 0
M  V30 990 C 98.6306 -2.71251 2.32718 0
M  V30 991 S 100.19 -3.60892 2.49605 0
M  V30 992 H 97.0076 -0.515315 0.489869 0
M  V30 993 H 99.6096 -0.860392 1.75549 0
M  V30 994 H 98.3136 -2.39027 3.33608 0
M  V30 995 H 97.8446 -3.40795 1.96526 0
M  V30 996 H 99.8596 -4.64899 1.73446 0
M  V30 997 N 99.0327 -1.24633 -0.964593 0
M  V30 998 C 100.281 -1.08573 -1.70459 0
M  V30 999 C 100.602 0.375655 -1.91347 0
M  V30 1000 O 99.8717 1.26779 -1.49345 0
M  V30 1001 H 98.4517 -0.398784 -0.631649 0
M  V30 1002 H 101.114 -1.56601 -1.16026 0
M  V30 1003 H 100.21 -1.58623 -2.68785 0
M  V30 1004 N 100.511 1.16574 -1.06058 0
M  V30 1005 C 101.421 2.2452 -0.680282 0
M  V30 1006 C 102.437 1.71348 0.302604 0
M  V30 1007 O 103.613 2.00822 0.152513 0
M  V30 1008 C 100.678 3.46629 -0.0700315 0
M  V30 1009 C 99.7388 4.14849 -1.10448 0
M  V30 1010 C 98.9718 5.31129 -0.523256 0
M  V30 1011 O 99.1948 5.66514 0.664709 0
M  V30 1012 O 98.1288 5.88526 -1.26179 0
M  V30 1013 H 101.955 2.59355 -1.58015 0
M  V30 1014 H 99.5398 1.24043 -0.832694 0
M  V30 1015 H 101.422 4.20543 0.268667 0
M  V30 1016 H 100.097 3.13573 0.803353 0
M  V30 1017 H 99.0038 3.42916 -1.49532 0
M  V30 1018 H 100.337 4.51954 -1.94931 0
M  V30 1019 N 101.989 0.842826 1.3317 0
M  V30 1020 C 102.939 0.250877 2.26616 0
M  V30 1021 C 103.923 -0.596427 1.49437 0
M  V30 1022 O 105.115 -0.447747 1.71243 0
M  V30 1023 C 102.244 -0.569779 3.38539 0
M  V30 1024 C 101.33 0.289254 4.23112 0
M  V30 1025 N 101.721 1.36987 4.86897 0
M  V30 1026 C 100.019 0.0769631 4.45934 0
M  V30 1027 C 100.72 1.89737 5.49886 0
M  V30 1028 N 99.6959 1.19827 5.30229 0
M  V30 1029 H 103.498 1.07718 2.73448 0
M  V30 1030 H 101.012 0.687693 1.47121 0
M  V30 1031 H 103.009 -1.01018 4.04476 0
M  V30 1032 H 101.669 -1.39401 2.93253 0
M  V30 1033 H 102.68 1.75277 4.87338 0
M  V30 1034 H 99.3569 -0.713507 4.11358 0
M  V30 1035 H 100.747 2.80253 6.10662 0
M  V30 1036 N 103.467 -1.45747 0.599634 0
M  V30 1037 C 104.397 -2.33235 -0.111306 0
M  V30 1038 C 105.378 -1.46359 -0.866781 0
M  V30 1039 O 106.563 -1.75146 -0.838904 0
M  V30 1040 C 103.693 -3.28932 -1.11451 0
M  V30 1041 C 102.647 -4.25381 -0.472772 0
M  V30 1042 C 101.973 -5.1071 -1.58365 0
M  V30 1043 C 103.273 -5.18831 0.600948 0
M  V30 1044 H 104.967 -2.92927 0.61919 0
M  V30 1045 H 102.513 -1.40857 0.299215 0
M  V30 1046 H 104.466 -3.89002 -1.62036 0
M  V30 1047 H 103.19 -2.67381 -1.8755 0
M  V30 1048 H 101.849 -3.66598 0.0121472 0
M  V30 1049 H 101.497 -4.45533 -2.33473 0
M  V30 1050 H 101.197 -5.7604 -1.15982 0
M  V30 1051 H 102.721 -5.73647 -2.09194 0
M  V30 1052 H 104.135 -5.73019 0.179491 0
M  V30 1053 H 102.532 -5.92595 0.946076 0
M  V30 1054 H 103.602 -4.6174 1.48068 0
M  V30 1055 N 104.945 -0.338344 -1.53925 0
M  V30 1056 C 106.356 0.146651 -1.86123 0
M  V30 1057 C 106.707 1.5042 -1.2597 0
M  V30 1058 O 105.832 2.08723 -0.571294 0
M  V30 1059 C 106.427 0.272879 -3.37699 0
M  V30 1060 C 104.986 0.702103 -3.69794 0
M  V30 1061 C 104.133 -0.167304 -2.76795 0
M  V30 1062 H 107.084 -0.558123 -1.48562 0
M  V30 1063 H 107.105 1.10128 -3.64214 0
M  V30 1064 H 106.617 -0.715307 -3.81451 0
M  V30 1065 H 104.718 1.6995 -3.31584 0
M  V30 1066 H 104.831 0.495604 -4.7653 0
M  V30 1067 H 103.195 0.359527 -2.5215 0
M  V30 1068 H 103.978 -1.15253 -3.23375 0
M  V30 1069 N 106.423 1.57458 -0.0668435 0
M  V30 1070 C 107.67 1.93301 0.603406 0
M  V30 1071 C 107.998 0.946486 1.69917 0
M  V30 1072 O 107.253 -0.0387021 1.95662 0
M  V30 1073 C 107.552 3.35784 1.22409 0
M  V30 1074 C 107.218 4.50179 0.254955 0
M  V30 1075 C 105.88 4.81199 -0.0116746 0
M  V30 1076 C 108.232 5.19598 -0.408338 0
M  V30 1077 C 105.56 5.78978 -0.94877 0
M  V30 1078 C 107.912 6.18381 -1.33372 0
M  V30 1079 C 106.576 6.47821 -1.60887 0
M  V30 1080 H 105.846 0.707338 0.220802 0
M  V30 1081 H 108.493 1.91012 -0.136665 0
M  V30 1082 H 106.798 3.34515 2.03978 0
M  V30 1083 H 108.495 3.60804 1.74989 0
M  V30 1084 H 105.085 4.25983 0.472954 0
M  V30 1085 H 109.269 4.95832 -0.215456 0
M  V30 1086 H 104.525 6.00115 -1.16925 0
M  V30 1087 H 108.699 6.71277 -1.85367 0
M  V30 1088 H 106.326 7.23399 -2.33661 0
M  V30 1089 N 107.901 -0.206675 1.56239 0
M  V30 1090 C 108.831 -1.25909 1.96645 0
M  V30 1091 C 109.812 -1.48097 0.836734 0
M  V30 1092 O 110.997 -1.6003 1.10019 0
M  V30 1093 C 108.127 -2.6058 2.29599 0
M  V30 1094 C 107.081 -2.53024 3.452 0
M  V30 1095 C 106.407 -3.91861 3.63798 0
M  V30 1096 C 107.707 -2.06524 4.79734 0
M  V30 1097 H 109.401 -0.923369 2.84806 0
M  V30 1098 H 106.947 -0.442735 1.37025 0
M  V30 1099 H 108.9 -3.34375 2.56459 0
M  V30 1100 H 107.624 -2.95869 1.38307 0
M  V30 1101 H 106.283 -1.81684 3.18412 0
M  V30 1102 H 105.931 -4.24483 2.69857 0
M  V30 1103 H 105.631 -3.87683 4.4156 0
M  V30 1104 H 107.155 -4.67296 3.93022 0
M  V30 1105 H 108.569 -2.70072 5.05702 0
M  V30 1106 H 106.966 -2.13374 5.60885 0
M  V30 1107 H 108.036 -1.01802 4.74093 0
M  V30 1108 N 109.379 -1.50304 -0.473955 0
M  V30 1109 C 110.625 -1.61389 -1.22806 0
M  V30 1110 C 110.958 -0.311955 -1.91678 0
M  V30 1111 O 110.233 0.686384 -1.81986 0
M  V30 1112 C 110.516 -2.79219 -2.27396 0
M  V30 1113 C 110.369 -4.19286 -1.62848 0
M  V30 1114 C 111.688 -2.92614 -3.28732 0
M  V30 1115 H 108.807 -0.587399 -0.445119 0
M  V30 1116 H 111.449 -1.82681 -0.522265 0
M  V30 1117 H 109.599 -2.61195 -2.87592 0
M  V30 1118 H 111.271 -4.48892 -1.06271 0
M  V30 1119 H 109.514 -4.23677 -0.931693 0
M  V30 1120 H 110.185 -4.97655 -2.38838 0
M  V30 1121 H 112.661 -3.09105 -2.78556 0
M  V30 1122 H 111.537 -3.76688 -3.99246 0
M  V30 1123 H 111.798 -2.03107 -3.92683 0
M  V30 1124 N 110.857 0.726932 -1.39834 0
M  V30 1125 C 112.105 1.4837 -1.37225 0
M  V30 1126 C 112.426 1.94979 0.0284857 0
M  V30 1127 O 111.696 1.69555 0.981213 0
M  V30 1128 H 110.276 0.55043 -0.505011 0
M  V30 1129 H 112.938 0.862468 -1.74778 0
M  V30 1130 H 112.034 2.36198 -2.04003 0
M  V30 1131 N 112.336 1.25143 0.95797 0
M  V30 1132 C 113.584 1.09476 1.69881 0
M  V30 1133 C 113.905 -0.365502 1.91544 0
M  V30 1134 O 113.175 -1.25985 1.50015 0
M  V30 1135 H 111.755 0.402128 0.629525 0
M  V30 1136 H 114.417 1.57214 1.15194 0
M  V30 1137 H 113.513 1.60046 2.6794 0
M  V30 1138 N 113.814 -1.1601 1.06675 0
M  V30 1139 C 114.724 -2.24156 0.692179 0
M  V30 1140 C 115.74 -1.71507 -0.293513 0
M  V30 1141 O 116.916 -2.009 -0.141861 0
M  V30 1142 C 113.981 -3.46587 0.0884131 0
M  V30 1143 C 113.042 -4.14257 1.12646 0
M  V30 1144 C 112.275 -5.30844 0.551416 0
M  V30 1145 O 112.498 -5.66858 -0.634656 0
M  V30 1146 O 111.432 -5.87848 1.29298 0
M  V30 1147 H 115.258 -2.58513 1.59388 0
M  V30 1148 H 112.843 -1.23599 0.83926 0
M  V30 1149 H 114.725 -4.20679 -0.246361 0
M  V30 1150 H 113.4 -3.13994 -0.786712 0
M  V30 1151 H 112.307 -3.42118 1.51348 0
M  V30 1152 H 113.64 -4.50914 1.97325 0
M  V30 1153 N 115.292 -0.849877 -1.32721 0
M  V30 1154 C 116.202 -0.293791 -2.32753 0
M  V30 1155 C 117.218 0.585906 -1.63839 0
M  V30 1156 O 118.394 0.487413 -1.95413 0
M  V30 1157 C 115.459 0.512752 -3.42887 0
M  V30 1158 C 114.52 -0.39252 -4.27502 0
M  V30 1159 C 113.753 0.375625 -5.32377 0
M  V30 1160 O 113.976 1.60613 -5.4732 0
M  V30 1161 O 112.91 -0.256094 -6.01355 0
M  V30 1162 H 116.736 -1.12242 -2.82197 0
M  V30 1163 H 114.321 -0.612685 -1.36259 0
M  V30 1164 H 116.203 0.970704 -4.10067 0
M  V30 1165 H 114.878 1.31826 -2.95641 0
M  V30 1166 H 113.785 -0.898547 -3.63149 0
M  V30 1167 H 115.118 -1.16309 -4.7826 0
M  V30 1168 N 116.77 1.45427 -0.607355 0
M  V30 1169 C 118.018 2.01841 -0.102253 0
M  V30 1170 C 118.339 1.47832 1.27164 0
M  V30 1171 O 117.609 0.672497 1.83995 0
M  V30 1172 H 116.189 0.746188 -0.0348101 0
M  V30 1173 H 118.851 1.78229 -0.7887 0
M  V30 1174 H 117.947 3.12057 -0.0518585 0
M  V30 1175 N 118.248 0.346503 1.53744 0
M  V30 1176 C 119.495 -0.249104 2.00962 0
M  V30 1177 C 119.823 -1.5032 1.23426 0
M  V30 1178 O 119.078 -1.93217 0.310761 0
M  V30 1179 C 119.377 -0.605809 3.52228 0
M  V30 1180 C 119.043 0.551747 4.47512 0
M  V30 1181 C 117.705 0.86941 4.73281 0
M  V30 1182 C 120.057 1.32818 5.03993 0
M  V30 1183 C 117.385 1.96582 5.52786 0
M  V30 1184 C 119.737 2.41486 5.84694 0
M  V30 1185 C 118.401 2.73808 6.08757 0
M  V30 1186 H 117.671 -0.0911538 0.735372 0
M  V30 1187 H 120.318 0.475027 1.85515 0
M  V30 1188 H 118.623 -1.4107 3.65522 0
M  V30 1189 H 120.32 -1.07858 3.86222 0
M  V30 1190 H 116.91 0.294102 4.2759 0
M  V30 1191 H 121.094 1.09602 4.84047 0
M  V30 1192 H 116.35 2.22045 5.69654 0
M  V30 1193 H 120.524 3.02078 6.27473 0
M  V30 1194 H 118.151 3.58892 6.7015 0
M  V30 1195 N 119.726 -1.57421 0.075193 0
M  V30 1196 C 120.676 -2.09441 -0.901025 0
M  V30 1197 C 121.66 -1.00486 -1.25663 0
M  V30 1198 O 122.852 -1.2679 -1.23504 0
M  V30 1199 C 119.981 -2.66233 -2.16737 0
M  V30 1200 C 119.067 -3.82198 -1.83808 0
M  V30 1201 N 119.458 -4.91028 -1.21345 0
M  V30 1202 C 117.756 -3.91558 -2.13538 0
M  V30 1203 C 118.457 -5.71852 -1.06585 0
M  V30 1204 N 117.433 -5.20233 -1.57667 0
M  V30 1205 H 121.235 -2.90972 -0.413815 0
M  V30 1206 H 118.749 -1.6189 -0.128601 0
M  V30 1207 H 120.746 -3.01819 -2.87595 0
M  V30 1208 H 119.406 -1.8615 -2.66042 0
M  V30 1209 H 120.417 -5.10323 -0.88268 0
M  V30 1210 H 117.094 -3.22454 -2.65197 0
M  V30 1211 H 118.484 -6.69401 -0.578933 0
M  V30 1212 N 121.204 0.198386 -1.56346 0
M  V30 1213 C 122.134 1.24865 -1.9731 0
M  V30 1214 C 123.115 1.47651 -0.844576 0
M  V30 1215 O 124.3 1.59444 -1.10866 0
M  V30 1216 C 121.43 2.59358 -2.30977 0
M  V30 1217 C 120.384 2.5119 -3.46537 0
M  V30 1218 C 119.71 3.89926 -3.65871 0
M  V30 1219 C 121.01 2.03977 -4.80823 0
M  V30 1220 H 122.704 0.908252 -2.85291 0
M  V30 1221 H 120.25 0.435462 -1.37258 0
M  V30 1222 H 122.203 3.33011 -2.58228 0
M  V30 1223 H 120.927 2.95132 -1.39874 0
M  V30 1224 H 119.586 1.79993 -3.19371 0
M  V30 1225 H 119.234 4.23046 -2.72105 0
M  V30 1226 H 118.934 3.85336 -4.4361 0
M  V30 1227 H 120.458 4.65205 -3.95495 0
M  V30 1228 H 121.872 2.67386 -5.07127 0
M  V30 1229 H 120.269 2.10397 -5.62008 0
M  V30 1230 H 121.339 0.992861 -4.74626 0
M  V30 1231 N 122.682 1.50554 0.465978 0
M  V30 1232 C 123.931 1.61038 1.21448 0
M  V30 1233 C 124.244 0.31865 1.92987 0
M  V30 1234 O 125.45 0.302469 2.6981 0
M  V30 1235 C 123.906 2.84283 2.20706 0
M  V30 1236 C 123.514 4.20352 1.54946 0
M  V30 1237 C 125.258 3.04115 2.96166 0
M  V30 1238 C 123.165 5.34778 2.5252 0
M  V30 1239 H 122.095 0.599718 0.457005 0
M  V30 1240 H 124.746 1.7699 0.484424 0
M  V30 1241 H 123.128 2.61901 2.97025 0
M  V30 1242 H 124.302 4.53008 0.843811 0
M  V30 1243 H 122.617 4.06167 0.917475 0
M  V30 1244 H 125.214 3.86774 3.69202 0
M  V30 1245 H 125.557 2.16045 3.55852 0
M  V30 1246 H 126.09 3.26702 2.26959 0
M  V30 1247 H 122.829 6.25018 1.97566 0
M  V30 1248 H 122.349 5.06534 3.21222 0
M  V30 1249 H 124.028 5.65561 3.14245 0
M  V30 1250 N 124.16 -0.719506 1.40217 0
M  V30 1251 C 125.437 -1.47221 1.28784 0
M  V30 1252 C 125.817 -2.10883 -0.0956067 0
M  V30 1253 O 125.165 -1.99833 -1.10811 0
M  V30 1254 C 125.375 -2.5111 2.42373 0
M  V30 1255 C 126.723 -3.17053 2.82423 0
M  V30 1256 O 127.747 -2.61429 2.41937 0
M  V30 1257 O 126.606 -4.17742 3.52355 0
M  V30 1258 H 123.7 -0.654491 0.50554 0
M  V30 1259 H 126.246 -0.752014 1.52128 0
M  V30 1260 H 125.018 -2.02556 3.34793 0
M  V30 1261 H 124.641 -3.3067 2.20778 0
M  V30 1262 N 125.638 -1.25649 -0.95132 0
M  V30 1263 C 126.588 -1.03004 -2.03406 0
M  V30 1264 C 127.572 0.034187 -1.60864 0
M  V30 1265 O 128.764 -0.181549 -1.76066 0
M  V30 1266 C 125.893 -0.654255 -3.37008 0
M  V30 1267 C 124.979 -1.75542 -3.86065 0
M  V30 1268 N 125.37 -2.99113 -4.07879 0
M  V30 1269 C 123.668 -1.63669 -4.14884 0
M  V30 1270 C 124.369 -3.70611 -4.48356 0
M  V30 1271 N 123.345 -2.98247 -4.54477 0
M  V30 1272 H 127.147 -1.96813 -2.1827 0
M  V30 1273 H 124.661 -1.16017 -1.13639 0
M  V30 1274 H 126.658 -0.473206 -4.14206 0
M  V30 1275 H 125.318 0.276468 -3.23521 0
M  V30 1276 H 126.329 -3.35124 -3.94857 0
M  V30 1277 H 123.006 -0.775161 -4.10241 0
M  V30 1278 H 124.396 -4.76695 -4.73509 0
M  V30 1279 N 127.117 1.15442 -1.07289 0
M  V30 1280 C 128.027 2.23786 -0.704057 0
M  V30 1281 C 129.043 1.7166 0.284413 0
M  V30 1282 O 130.219 2.00972 0.131205 0
M  V30 1283 C 127.284 3.46535 -0.106792 0
M  V30 1284 C 126.345 4.13654 -1.14842 0
M  V30 1285 C 125.578 5.30544 -0.57956 0
M  V30 1286 O 125.801 5.67187 0.604585 0
M  V30 1287 O 124.735 5.87154 -1.32414 0
M  V30 1288 H 128.561 2.57664 -1.60757 0
M  V30 1289 H 126.146 1.23152 -0.845803 0
M  V30 1290 H 128.028 4.20804 0.224048 0
M  V30 1291 H 126.703 3.14407 0.770049 0
M  V30 1292 H 125.61 3.4131 -1.5316 0
M  V30 1293 H 126.943 4.49861 -1.99714 0
M  V30 1294 N 128.595 0.856903 1.32268 0
M  V30 1295 C 129.558 0.308171 2.27119 0
M  V30 1296 C 130.558 -0.533421 1.51695 0
M  V30 1297 O 131.748 -0.344607 1.70757 0
M  V30 1298 C 128.88 -0.563757 3.36206 0
M  V30 1299 H 130.073 1.14535 2.77167 0
M  V30 1300 H 127.626 0.631421 1.42978 0
M  V30 1301 H 128.361 -1.42266 2.91429 0
M  V30 1302 H 128.146 0.0386749 3.92081 0
M  V30 1303 H 129.636 -0.940386 4.06874 0
M  V30 1304 N 130.073 -1.45103 0.615059 0
M  V30 1305 C 131.006 -2.27717 -0.148408 0
M  V30 1306 C 131.984 -1.37584 -0.866572 0
M  V30 1307 O 133.168 -1.67017 -0.87393 0
M  V30 1308 C 130.295 -3.16136 -1.21557 0
M  V30 1309 C 129.341 -4.22263 -0.599712 0
M  V30 1310 S 130.174 -5.3215 0.598081 0
M  V30 1311 C 131.33 -6.24137 -0.469484 0
M  V30 1312 H 131.563 -2.92121 0.552483 0
M  V30 1313 H 129.096 -1.49054 0.402778 0
M  V30 1314 H 131.054 -3.67633 -1.82638 0
M  V30 1315 H 129.715 -2.50982 -1.88857 0
M  V30 1316 H 128.908 -4.84081 -1.4029 0
M  V30 1317 H 128.51 -3.73945 -0.063876 0
M  V30 1318 H 130.802 -6.63984 -1.34652 0
M  V30 1319 H 131.745 -7.0801 0.112725 0
M  V30 1320 H 132.153 -5.58971 -0.788168 0
M  V30 1321 N 131.551 -0.354651 -1.53558 0
M  V30 1322 C 132.776 0.242153 -2.05981 0
M  V30 1323 C 133.201 1.42553 -1.2272 0
M  V30 1324 O 132.559 1.79656 -0.243604 0
M  V30 1325 C 132.607 0.624367 -3.55154 0
M  V30 1326 O 131.711 1.72301 -3.74681 0
M  V30 1327 H 131.052 0.0378432 -0.662921 0
M  V30 1328 H 133.582 -0.512087 -1.98088 0
M  V30 1329 H 133.592 0.898433 -3.97985 0
M  V30 1330 H 132.267 -0.240989 -4.15201 0
M  V30 1331 H 130.844 1.44535 -3.4375 0
M  V30 1332 N 133.029 1.57378 -0.0835403 0
M  V30 1333 C 133.961 2.10389 0.909338 0
M  V30 1334 C 134.974 1.03858 1.25369 0
M  V30 1335 O 136.163 1.31338 1.20882 0
M  V30 1336 C 133.263 2.55908 2.2218 0
M  V30 1337 C 132.436 3.86145 2.05453 0
M  V30 1338 C 131.495 4.17633 3.20108 0
M  V30 1339 O 130.521 4.87043 2.94581 0
M  V30 1340 N 131.723 3.72113 4.45547 0
M  V30 1341 H 134.488 2.962 0.456657 0
M  V30 1342 H 132.049 1.61579 0.101877 0
M  V30 1343 H 134.041 2.74027 2.97811 0
M  V30 1344 H 132.611 1.75171 2.58909 0
M  V30 1345 H 131.831 3.7729 1.1422 0
M  V30 1346 H 133.119 4.7137 1.91541 0
M  V30 1347 H 132.517 3.16062 4.69171 0
M  V30 1348 H 131.074 3.95409 5.18165 0
M  V30 1349 N 134.507 -0.190092 1.56449 0
M  V30 1350 C 135.755 -0.907908 1.80559 0
M  V30 1351 C 136.076 -1.83583 0.657438 0
M  V30 1352 O 135.346 -1.93203 -0.323924 0
M  V30 1353 H 133.926 -0.338247 0.666032 0
M  V30 1354 H 136.588 -0.194403 1.93928 0
M  V30 1355 H 135.684 -1.49604 2.73907 0
M  V30 1356 N 135.985 -1.50799 -0.457987 0
M  V30 1357 C 137.215 -1.65977 -1.23025 0
M  V30 1358 C 137.623 -0.347918 -1.85974 0
M  V30 1359 O 136.966 0.68148 -1.70592 0
M  V30 1360 C 137.028 -2.70309 -2.3701 0
M  V30 1361 C 136.692 -4.135 -1.94594 0
M  V30 1362 C 137.689 -4.98949 -1.46101 0
M  V30 1363 C 135.374 -4.5949 -2.02915 0
M  V30 1364 C 137.368 -6.28442 -1.06489 0
M  V30 1365 C 135.055 -5.88984 -1.62914 0
M  V30 1366 C 136.053 -6.73286 -1.1478 0
M  V30 1367 O 135.741 -8.00362 -0.75339 0
M  V30 1368 H 135.473 -0.56064 -0.377702 0
M  V30 1369 H 138.027 -1.97857 -0.551537 0
M  V30 1370 H 136.257 -2.337 -3.08093 0
M  V30 1371 H 137.946 -2.74574 -2.98938 0
M  V30 1372 H 138.712 -4.6463 -1.39084 0
M  V30 1373 H 134.591 -3.94009 -2.39328 0
M  V30 1374 H 138.135 -6.94194 -0.688488 0
M  V30 1375 H 134.032 -6.22822 -1.69595 0
M  V30 1376 H 134.8 -8.13744 -0.88108 0
M  V30 1377 N 137.463 0.71206 -1.40597 0
M  V30 1378 C 138.709 1.47416 -1.39271 0
M  V30 1379 C 139.042 1.942 0.00388791 0
M  V30 1380 O 138.317 1.68403 0.973179 0
M  V30 1381 C 138.6 2.69774 -2.38525 0
M  V30 1382 C 138.453 2.28861 -3.87224 0
M  V30 1383 C 139.772 3.71939 -2.35264 0
M  V30 1384 H 136.891 0.534713 -0.5072 0
M  V30 1385 H 139.533 0.812375 -1.71757 0
M  V30 1386 H 137.683 3.26238 -2.10953 0
M  V30 1387 H 139.355 1.77852 -4.25636 0
M  V30 1388 H 137.598 1.60824 -4.02887 0
M  V30 1389 H 138.269 3.16584 -4.52193 0
M  V30 1390 H 140.745 3.25113 -2.59694 0
M  V30 1391 H 139.621 4.55186 -3.06753 0
M  V30 1392 H 139.882 4.20484 -1.36549 0
M  V30 1393 N 138.941 1.26152 0.944643 0
M  V30 1394 C 139.873 1.03199 2.04652 0
M  V30 1395 C 140.886 -0.00642356 1.62799 0
M  V30 1396 O 142.075 0.233263 1.76969 0
M  V30 1397 C 139.175 0.540111 3.34568 0
M  V30 1398 C 138.348 1.64697 4.05208 0
M  V30 1399 C 137.407 1.15374 5.13396 0
M  V30 1400 O 136.433 1.85013 5.38293 0
M  V30 1401 N 137.635 0.00031529 5.805 0
M  V30 1402 H 140.4 1.9808 2.2491 0
M  V30 1403 H 137.961 1.17491 1.11389 0
M  V30 1404 H 139.953 0.194401 4.04233 0
M  V30 1405 H 138.523 -0.315021 3.11009 0
M  V30 1406 H 137.743 2.16379 3.29506 0
M  V30 1407 H 139.031 2.3903 4.49157 0
M  V30 1408 H 138.429 -0.581336 5.62705 0
M  V30 1409 H 136.986 -0.286346 6.51171 0
M  V30 1410 N 140.419 -1.14872 1.07899 0
M  V30 1411 C 141.369 -2.17809 0.674027 0
M  V30 1412 C 142.353 -1.58008 -0.303699 0
M  V30 1413 O 143.545 -1.76616 -0.11654 0
M  V30 1414 C 140.674 -3.43208 0.0793318 0
M  V30 1415 C 139.76 -4.10051 1.08253 0
M  V30 1416 N 140.151 -4.52296 2.2641 0
M  V30 1417 C 138.449 -4.36469 0.917124 0
M  V30 1418 C 139.15 -5.04199 2.901 0
M  V30 1419 N 138.126 -4.98088 2.17736 0
M  V30 1420 H 141.928 -2.48207 1.57386 0
M  V30 1421 H 139.442 -1.315 0.952976 0
M  V30 1422 H 141.439 -4.16272 -0.228719 0
M  V30 1423 H 140.099 -3.14291 -0.815551 0
M  V30 1424 H 141.11 -4.45504 2.64096 0
M  V30 1425 H 137.787 -4.17432 0.0756078 0
M  V30 1426 H 139.177 -5.46802 3.90458 0
M  V30 1427 N 141.898 -0.863906 -1.31812 0
M  V30 1428 C 143.147 -0.46801 -1.96195 0
M  V30 1429 C 143.46 0.983474 -1.69077 0
M  V30 1430 O 144.666 1.48523 -2.27273 0
M  V30 1431 C 143.122 -0.785995 -3.51212 0
M  V30 1432 C 142.73 -2.25383 -3.87178 0
M  V30 1433 C 144.474 -0.458274 -4.22019 0
M  V30 1434 C 142.381 -2.51455 -5.3528 0
M  V30 1435 H 141.311 -0.171283 -0.734287 0
M  V30 1436 H 143.962 -1.05597 -1.50072 0
M  V30 1437 H 142.344 -0.127359 -3.95795 0
M  V30 1438 H 143.518 -2.95502 -3.53575 0
M  V30 1439 H 141.833 -2.54698 -3.2942 0
M  V30 1440 H 144.43 -0.630369 -5.30971 0
M  V30 1441 H 144.773 0.600834 -4.11941 0
M  V30 1442 H 145.306 -1.07319 -3.8305 0
M  V30 1443 H 142.045 -3.56025 -5.50387 0
M  V30 1444 H 141.565 -1.85923 -5.70257 0
M  V30 1445 H 143.244 -2.35874 -6.02472 0
M  V30 1446 N 143.376 1.44774 -0.622745 0
M  V30 1447 C 144.625 2.01334 -0.121397 0
M  V30 1448 C 144.938 1.49505 1.26125 0
M  V30 1449 O 146.144 1.98139 1.85616 0
M  V30 1450 C 144.6 3.59516 -0.166298 0
M  V30 1451 C 144.208 4.20342 -1.54974 0
M  V30 1452 C 145.952 4.23582 0.279021 0
M  V30 1453 C 143.859 5.70721 -1.55021 0
M  V30 1454 H 142.789 0.752851 -0.0416172 0
M  V30 1455 H 145.44 1.66083 -0.780309 0
M  V30 1456 H 143.822 3.92027 0.559557 0
M  V30 1457 H 144.996 3.99381 -2.29851 0
M  V30 1458 H 143.311 3.68529 -1.93843 0
M  V30 1459 H 145.908 5.33868 0.298083 0
M  V30 1460 H 146.251 3.95327 1.30471 0
M  V30 1461 H 146.784 3.95843 -0.394063 0
M  V30 1462 H 143.523 6.03698 -2.55399 0
M  V30 1463 H 143.043 5.93829 -0.844245 0
M  V30 1464 H 144.722 6.34203 -1.28047 0
M  V30 1465 N 144.854 0.36279 1.53368 0
M  V30 1466 C 146.079 -0.231226 2.06107 0
M  V30 1467 C 146.504 -1.419 1.23474 0
M  V30 1468 O 145.862 -1.79524 0.253128 0
M  V30 1469 C 145.91 -0.605523 3.5548 0
M  V30 1470 O 145.014 -1.70312 3.7559 0
M  V30 1471 H 144.355 -0.034327 0.663112 0
M  V30 1472 H 146.885 0.522584 1.97814 0
M  V30 1473 H 146.895 -0.877314 3.98456 0
M  V30 1474 H 145.57 0.263004 4.15068 0
M  V30 1475 H 144.147 -1.4271 3.44512 0
M  V30 1476 N 146.332 -1.57332 0.0918853 0
M  V30 1477 C 147.743 -1.81496 -0.437739 0
M  V30 1478 C 148.094 -1.00727 -1.6837 0
M  V30 1479 O 147.219 -0.235694 -2.15113 0
M  V30 1480 C 147.814 -3.29197 -0.800939 0
M  V30 1481 C 146.373 -3.54136 -1.27532 0
M  V30 1482 C 145.52 -2.75979 -0.270392 0
M  V30 1483 H 148.471 -1.55494 0.317366 0
M  V30 1484 H 148.492 -3.42344 -1.66074 0
M  V30 1485 H 148.004 -3.87955 0.106078 0
M  V30 1486 H 146.105 -3.00705 -2.20016 0
M  V30 1487 H 146.218 -4.62792 -1.23938 0
M  V30 1488 H 144.582 -2.43349 -0.751872 0
M  V30 1489 H 145.365 -3.37484 0.629248 0
M  V30 1490 N 147.81 0.181792 -1.56548 0
M  V30 1491 C 149.087 0.926765 -1.72251 0
M  V30 1492 C 149.467 2.00831 -0.650386 0
M  V30 1493 O 148.815 2.26008 0.336521 0
M  V30 1494 C 149.025 1.50106 -3.1507 0
M  V30 1495 C 150.373 1.97805 -3.75711 0
M  V30 1496 O 151.397 1.59922 -3.18282 0
M  V30 1497 O 150.256 2.67555 -4.76525 0
M  V30 1498 H 147.35 0.435506 -0.703039 0
M  V30 1499 H 149.896 0.170443 -1.68842 0
M  V30 1500 H 148.668 0.72212 -3.84579 0
M  V30 1501 H 148.291 2.32186 -3.22763 0
M  V30 1502 N 149.288 1.51039 0.449983 0
M  V30 1503 C 150.22 1.67617 1.56324 0
M  V30 1504 C 151.233 0.557083 1.52972 0
M  V30 1505 O 152.422 0.830989 1.57977 0
M  V30 1506 C 149.522 1.66402 2.95235 0
M  V30 1507 C 148.695 2.9469 3.23229 0
M  V30 1508 C 147.754 2.85832 4.41799 0
M  V30 1509 O 146.78 3.59785 4.41071 0
M  V30 1510 N 147.982 2.00821 5.44657 0
M  V30 1511 H 150.747 2.63648 1.42512 0
M  V30 1512 H 148.308 1.48767 0.638737 0
M  V30 1513 H 150.3 1.58062 3.72557 0
M  V30 1514 H 148.87 0.780182 3.02708 0
M  V30 1515 H 148.09 3.16996 2.34323 0
M  V30 1516 H 149.378 3.79636 3.38754 0
M  V30 1517 H 148.776 1.40091 5.48079 0
M  V30 1518 H 147.333 1.98368 6.20881 0
M  V30 1519 N 150.766 -0.704594 1.40972 0
M  V30 1520 C 152.015 -1.46018 1.39146 0
M  V30 1521 C 152.328 -1.956 0.000589254 0
M  V30 1522 O 153.534 -2.71137 -0.1403 0
M  V30 1523 C 151.99 -2.63996 2.4461 0
M  V30 1524 C 151.598 -2.21238 3.89561 0
M  V30 1525 C 153.342 -3.41677 2.51907 0
M  V30 1526 C 151.249 -3.3612 4.86598 0
M  V30 1527 H 150.179 -0.548444 0.517422 0
M  V30 1528 H 152.83 -0.765784 1.66757 0
M  V30 1529 H 151.212 -3.3566 2.10115 0
M  V30 1530 H 152.386 -1.56923 4.33257 0
M  V30 1531 H 150.701 -1.56574 3.85841 0
M  V30 1532 H 153.298 -4.27182 3.2159 0
M  V30 1533 H 153.641 -3.86247 1.55303 0
M  V30 1534 H 154.174 -2.77064 2.85448 0
M  V30 1535 H 150.913 -2.96572 5.84573 0
M  V30 1536 H 150.433 -3.99315 4.47557 0
M  V30 1537 H 152.112 -4.02029 5.06934 0
M  V30 1538 N 152.244 -1.26651 -0.937939 0
M  V30 1539 C 153.194 -1.05156 -2.02302 0
M  V30 1540 C 154.178 0.0171233 -1.60891 0
M  V30 1541 O 155.37 -0.200213 -1.75864 0
M  V30 1542 C 152.499 -0.689962 -3.36295 0
M  V30 1543 C 151.585 -1.79626 -3.84181 0
M  V30 1544 N 151.976 -3.03422 -4.04684 0
M  V30 1545 C 150.274 -1.6806 -4.13124 0
M  V30 1546 C 150.975 -3.75345 -4.444 0
M  V30 1547 N 149.951 -3.03051 -4.51288 0
M  V30 1548 H 153.753 -1.99117 -2.1617 0
M  V30 1549 H 151.267 -1.17216 -1.12402 0
M  V30 1550 H 153.264 -0.517112 -4.13681 0
M  V30 1551 H 151.924 0.242139 -3.23796 0
M  V30 1552 H 152.935 -3.39293 -3.91281 0
M  V30 1553 H 149.612 -0.818629 -4.09396 0
M  V30 1554 H 151.002 -4.81691 -4.68427 0
M  V30 1555 N 153.722 1.14298 -1.08507 0
M  V30 1556 C 154.652 2.21542 -0.737646 0
M  V30 1557 C 155.633 1.67773 0.280377 0
M  V30 1558 O 156.818 1.93616 0.150521 0
M  V30 1559 C 153.948 3.46988 -0.147259 0
M  V30 1560 C 152.902 4.13789 -1.09374 0
M  V30 1561 C 152.228 5.33449 -0.365524 0
M  V30 1562 C 153.528 4.62208 -2.4323 0
M  V30 1563 H 155.222 2.5086 -1.6343 0
M  V30 1564 H 152.768 1.20576 -0.787243 0
M  V30 1565 H 154.721 4.21262 0.107808 0
M  V30 1566 H 153.445 3.17037 0.784538 0
M  V30 1567 H 152.104 3.4147 -1.33393 0
M  V30 1568 H 151.752 4.99759 0.57011 0
M  V30 1569 H 151.452 5.79088 -0.996512 0
M  V30 1570 H 152.976 6.10485 -0.118534 0
M  V30 1571 H 154.39 5.27952 -2.23472 0
M  V30 1572 H 152.787 5.18553 -3.02031 0
M  V30 1573 H 153.857 3.77224 -3.04681 0
M  V30 1574 N 155.201 0.870884 1.31352 0
M  V30 1575 C 156.429 0.49677 2.00848 0
M  V30 1576 C 156.844 -0.910998 1.65367 0
M  V30 1577 O 156.201 -1.59696 0.883374 0
M  V30 1578 C 156.252 0.645308 3.55694 0
M  V30 1579 O 155.973 1.99764 3.89905 0
M  V30 1580 C 157.474 0.272326 4.42463 0
M  V30 1581 H 154.694 0.193462 0.642506 0
M  V30 1582 H 157.238 1.1723 1.67563 0
M  V30 1583 H 155.393 0.0173176 3.87396 0
M  V30 1584 H 155.807 2.00607 4.84621 0
M  V30 1585 H 157.281 0.427208 5.50344 0
M  V30 1586 H 157.758 -0.788587 4.32062 0
M  V30 1587 H 158.364 0.876054 4.1618 0
M  V30 1588 N 156.679 -1.44442 0.630414 0
M  V30 1589 C 157.928 -2.01267 0.132073 0
M  V30 1590 C 158.241 -1.50172 -1.25331 0
M  V30 1591 O 159.447 -1.9912 -1.84562 0
M  V30 1592 C 157.903 -3.59422 0.185362 0
M  V30 1593 C 157.511 -4.19514 1.57201 0
M  V30 1594 C 159.255 -4.23724 -0.256553 0
M  V30 1595 C 157.162 -5.69891 1.58045 0
M  V30 1596 H 156.092 -0.752619 0.0456092 0
M  V30 1597 H 158.743 -1.65666 0.789106 0
M  V30 1598 H 157.125 -3.92318 -0.538759 0
M  V30 1599 H 158.299 -3.98156 2.31966 0
M  V30 1600 H 156.614 -3.67496 1.95795 0
M  V30 1601 H 159.211 -5.34019 -0.269767 0
M  V30 1602 H 159.554 -3.96013 -1.28372 0
M  V30 1603 H 160.087 -3.95629 0.41505 0
M  V30 1604 H 156.826 -6.02336 2.58597 0
M  V30 1605 H 156.346 -5.93373 0.875725 0
M  V30 1606 H 158.025 -6.33515 1.31408 0
M  V30 1607 N 158.157 -0.370918 -1.53173 0
M  V30 1608 C 159.105 0.488101 -2.27421 0
M  V30 1609 C 160.099 1.07884 -1.30604 0
M  V30 1610 O 161.305 1.02143 -1.48212 0
M  V30 1611 H 157.68 0.176134 -0.731082 0
M  V30 1612 H 159.651 -0.159815 -2.97972 0
M  V30 1613 C 158.4 1.61306 -3.08019 0
M  V30 1614 H 157.723 1.1678 -3.82364 0
M  V30 1615 H 159.163 2.18872 -3.63141 0
M  V30 1616 C 157.622 2.55848 -2.19188 0
M  V30 1617 O 158.152 3.58799 -1.80626 0
M  V30 1618 N 156.358 2.2516 -1.83715 0
M  V30 1619 H 155.905 1.41476 -2.15273 0
M  V30 1620 H 155.863 2.8867 -1.24567 0
M  V30 1621 N 159.635 1.57281 -0.100228 0
M  V30 1622 C 161.046 1.81725 0.428107 0
M  V30 1623 C 161.397 1.01619 1.67833 0
M  V30 1624 O 160.522 0.247098 2.14985 0
M  V30 1625 C 161.117 3.29617 0.78347 0
M  V30 1626 C 159.676 3.54808 1.25653 0
M  V30 1627 C 158.823 2.76118 0.255752 0
M  V30 1628 H 161.774 1.55324 -0.325608 0
M  V30 1629 H 161.795 3.4322 1.64256 0
M  V30 1630 H 161.307 3.87893 -0.12665 0
M  V30 1631 H 159.408 3.01868 2.18418 0
M  V30 1632 H 159.521 4.63443 1.21482 0
M  V30 1633 H 157.885 2.43745 0.738956 0
M  V30 1634 H 158.668 3.37145 -0.647136 0
M  V30 1635 N 161.113 -0.173488 1.56642 0
M  V30 1636 C 162.361 -0.888706 1.81512 0
M  V30 1637 C 162.682 -1.82875 0.676872 0
M  V30 1638 O 161.952 -1.93536 -0.303414 0
M  V30 1639 H 160.532 -0.331164 0.669582 0
M  V30 1640 H 163.194 -0.173823 1.94123 0
M  V30 1641 H 162.29 -1.46691 2.75478 0
M  V30 1642 N 162.591 -1.51276 -0.441967 0
M  V30 1643 C 163.816 -1.67799 -1.21895 0
M  V30 1644 C 164.241 -0.372864 -1.84367 0
M  V30 1645 O 163.599 0.666501 -1.68604 0
M  V30 1646 C 163.647 -2.79199 -2.28211 0
M  V30 1647 O 162.751 -2.42479 -3.33583 0
M  V30 1648 H 162.092 -0.559649 -0.357336 0
M  V30 1649 H 164.622 -1.97815 -0.522522 0
M  V30 1650 H 164.632 -3.03146 -2.73069 0
M  V30 1651 H 163.307 -3.73906 -1.82118 0
M  V30 1652 H 161.884 -2.29087 -2.94234 0
M  V30 1653 N 164.069 0.697108 -1.41344 0
M  V30 1654 C 165.297 1.48593 -1.43972 0
M  V30 1655 C 165.712 1.88747 -0.0445612 0
M  V30 1656 O 165.069 1.56682 0.935785 0
M  V30 1657 C 165.12 2.74946 -2.34706 0
M  V30 1658 O 164.841 2.36484 -3.68791 0
M  V30 1659 C 166.342 3.687 -2.46121 0
M  V30 1660 H 163.562 0.457964 -0.490418 0
M  V30 1661 H 166.106 0.858429 -1.8561 0
M  V30 1662 H 164.261 3.33937 -1.9638 0
M  V30 1663 H 164.675 3.17918 -4.17167 0
M  V30 1664 H 166.149 4.54145 -3.13777 0
M  V30 1665 H 166.626 4.13081 -1.49199 0
M  V30 1666 H 167.232 3.15613 -2.85076 0
M  V30 1667 N 165.547 1.27147 0.931209 0
M  V30 1668 C 166.958 1.12044 1.49342 0
M  V30 1669 C 167.309 -0.295795 1.93957 0
M  V30 1670 O 166.434 -1.18835 1.80852 0
M  V30 1671 C 167.029 2.02781 2.71414 0
M  V30 1672 C 165.588 1.91794 3.2387 0
M  V30 1673 C 164.735 1.95543 1.96617 0
M  V30 1674 H 167.686 1.40091 0.745672 0
M  V30 1675 H 167.707 1.58156 3.46074 0
M  V30 1676 H 167.219 3.05848 2.38911 0
M  V30 1677 H 165.32 0.916992 3.6114 0
M  V30 1678 H 165.433 2.77852 3.90302 0
M  V30 1679 H 163.797 1.39722 2.12955 0
M  V30 1680 H 164.58 3.00259 1.66432 0
M  V30 1681 N 167.025 -1.13721 1.09112 0
M  V30 1682 C 167.958 -2.18094 0.67158 0
M  V30 1683 C 168.936 -1.59414 -0.320299 0
M  V30 1684 O 170.12 -1.87183 -0.222444 0
M  V30 1685 C 167.247 -3.38698 -0.0111189 0
M  V30 1686 C 166.293 -4.15966 0.942055 0
M  V30 1687 S 167.126 -4.7604 2.45246 0
M  V30 1688 C 168.282 -5.99994 1.78208 0
M  V30 1689 H 168.515 -2.53344 1.55577 0
M  V30 1690 H 166.048 -1.24967 0.906789 0
M  V30 1691 H 168.006 -4.08559 -0.398716 0
M  V30 1692 H 166.667 -3.01756 -0.871905 0
M  V30 1693 H 165.86 -5.02318 0.411396 0
M  V30 1694 H 165.462 -3.51745 1.2709 0
M  V30 1695 H 167.754 -6.68441 1.10424 0
M  V30 1696 H 168.697 -6.57662 2.62463 0
M  V30 1697 H 169.105 -5.50432 1.25238 0
M  V30 1698 N 168.503 -0.877838 -1.30888 0
M  V30 1699 C 169.914 -0.544193 -1.78593 0
M  V30 1700 C 170.265 0.939301 -1.72254 0
M  V30 1701 O 169.39 1.7337 -1.29505 0
M  V30 1702 C 169.985 -0.98105 -3.24285 0
M  V30 1703 C 168.544 -0.698935 -3.69854 0
M  V30 1704 C 167.691 -1.168 -2.51502 0
M  V30 1705 H 170.642 -1.06278 -1.17859 0
M  V30 1706 H 170.663 -0.307009 -3.79259 0
M  V30 1707 H 170.175 -2.06079 -3.28866 0
M  V30 1708 H 168.276 0.369112 -3.70767 0
M  V30 1709 H 168.389 -1.28148 -4.61644 0
M  V30 1710 H 166.753 -0.587535 -2.47831 0
M  V30 1711 H 167.536 -2.25533 -2.58824 0
M  V30 1712 N 169.982 1.44106 -0.638065 0
M  V30 1713 C 171.398 1.56672 -0.304286 0
M  V30 1714 C 171.598 1.6244 1.19228 0
M  V30 1715 O 170.654 1.57121 1.9766 0
M  V30 1716 C 171.967 2.83503 -1.00231 0
M  V30 1717 C 173.515 2.97226 -0.981116 0
M  V30 1718 C 173.99 4.26868 -1.65974 0
M  V30 1719 N 175.481 4.33698 -1.62666 0
M  V30 1720 C 176.216 5.32745 -2.12063 0
M  V30 1721 N 175.712 6.38157 -2.6968 0
M  V30 1722 N 177.505 5.24299 -2.02651 0
M  V30 1723 H 169.656 1.38605 -1.60942 0
M  V30 1724 H 171.919 0.664661 -0.675965 0
M  V30 1725 H 171.625 2.85251 -2.0573 0
M  V30 1726 H 171.499 3.73251 -0.54439 0
M  V30 1727 H 173.886 2.95027 0.0654188 0
M  V30 1728 H 173.967 2.08808 -1.47759 0
M  V30 1729 H 173.611 4.29826 -2.70576 0
M  V30 1730 H 173.541 5.14156 -1.13804 0
M  V30 1731 H 176.032 3.58138 -1.20606 0
M  V30 1732 H 176.345 7.10029 -3.05087 0
M  V30 1733 H 174.69 6.38823 -2.73734 0
M  V30 1734 H 177.881 4.4086 -1.57353 0
M  V30 1735 H 178.054 6.01334 -2.41457 0
M  V30 1736 N 171.46 0.379036 1.52974 0
M  V30 1737 C 172.408 -0.476033 2.27677 0
M  V30 1738 C 173.402 -1.0719 1.31174 0
M  V30 1739 O 174.608 -1.01355 1.48752 0
M  V30 1740 H 170.983 -0.172255 0.732006 0
M  V30 1741 H 172.954 0.175615 2.97883 0
M  V30 1742 C 171.703 -1.5967 3.0887 0
M  V30 1743 H 171.026 -1.1475 3.82978 0
M  V30 1744 H 172.466 -2.16943 3.64296 0
M  V30 1745 C 170.925 -2.54682 2.20542 0
M  V30 1746 O 171.455 -3.57836 1.82527 0
M  V30 1747 N 169.661 -2.24183 1.84907 0
M  V30 1748 H 169.208 -1.40333 2.1602 0
M  V30 1749 H 169.166 -2.88006 1.26096 0
M  V30 1750 N 172.938 -1.57226 0.108567 0
M  V30 1751 C 174.187 -1.94008 -0.551703 0
M  V30 1752 C 174.5 -0.993442 -1.68494 0
M  V30 1753 O 175.706 -1.25551 -2.40726 0
M  V30 1754 C 174.162 -3.44763 -1.03279 0
M  V30 1755 C 173.77 -4.47943 0.0714193 0
M  V30 1756 C 175.514 -3.90483 -1.66503 0
M  V30 1757 C 173.421 -5.89865 -0.425779 0
M  V30 1758 H 172.351 -0.724206 -0.209863 0
M  V30 1759 H 175.002 -1.82547 0.186741 0
M  V30 1760 H 173.384 -3.51422 -1.82533 0
M  V30 1761 H 174.558 -4.52942 0.847365 0
M  V30 1762 H 172.873 -4.11913 0.609669 0
M  V30 1763 H 175.47 -4.93925 -2.04798 0
M  V30 1764 H 175.813 -3.29877 -2.53942 0
M  V30 1765 H 176.346 -3.86581 -0.938074 0
M  V30 1766 H 173.085 -6.54202 0.412316 0
M  V30 1767 H 172.605 -5.88309 -1.16843 0
M  V30 1768 H 174.284 -6.40844 -0.890397 0
M  V30 1769 N 174.416 0.165178 -1.56732 0
M  V30 1770 C 175.326 1.22423 -2.00125 0
M  V30 1771 C 176.342 1.48084 -0.913619 0
M  V30 1772 O 177.518 1.60112 -1.22172 0
M  V30 1773 C 174.583 2.54197 -2.35764 0
M  V30 1774 C 173.644 2.36343 -3.58386 0
M  V30 1775 C 172.877 3.61834 -3.92316 0
M  V30 1776 O 173.1 4.67267 -3.27135 0
M  V30 1777 O 172.034 3.55579 -4.85641 0
M  V30 1778 H 175.86 0.885886 -2.90492 0
M  V30 1779 H 173.445 0.372518 -1.44681 0
M  V30 1780 H 175.327 3.3192 -2.59629 0
M  V30 1781 H 174.002 2.87598 -1.48557 0
M  V30 1782 H 172.909 1.56632 -3.39731 0
M  V30 1783 H 174.242 2.07865 -4.46154 0
M  V30 1784 N 175.894 1.51508 0.433938 0
M  V30 1785 C 177.142 1.6402 1.18075 0
M  V30 1786 C 177.463 0.360328 1.91642 0
M  V30 1787 O 176.733 -0.623945 1.85698 0
M  V30 1788 H 175.313 0.6045 0.43885 0
M  V30 1789 H 177.975 1.88452 0.497178 0
M  V30 1790 H 177.071 2.46949 1.90847 0
M  V30 1791 N 177.372 -0.689602 1.41712 0
M  V30 1792 C 178.335 -1.78521 1.43746 0
M  V30 1793 C 179.335 -1.57436 0.327191 0
M  V30 1794 O 180.525 -1.64 0.587348 0
M  V30 1795 C 177.657 -3.16971 1.25467 0
M  V30 1796 H 178.85 -1.78108 2.41283 0
M  V30 1797 H 176.403 -0.89781 1.27942 0
M  V30 1798 H 177.138 -3.23019 0.287948 0
M  V30 1799 H 176.923 -3.33678 2.05917 0
M  V30 1800 H 178.413 -3.96935 1.2974 0
M  V30 1801 N 178.85 -1.27639 -0.924453 0
M  V30 1802 C 180.078 -1.16989 -1.70649 0
M  V30 1803 C 180.493 0.272869 -1.86818 0
M  V30 1804 O 179.85 1.18549 -1.38753 0
M  V30 1805 C 179.901 -1.85229 -3.10439 0
M  V30 1806 O 179.622 -3.23868 -2.95028 0
M  V30 1807 C 181.123 -1.80746 -4.04779 0
M  V30 1808 H 178.343 -0.406595 -0.53378 0
M  V30 1809 H 180.887 -1.68569 -1.15778 0
M  V30 1810 H 179.042 -1.37545 -3.6216 0
M  V30 1811 H 179.456 -3.57889 -3.83426 0
M  V30 1812 H 180.93 -2.33101 -5.00368 0
M  V30 1813 H 181.407 -0.777499 -4.32263 0
M  V30 1814 H 182.013 -2.28059 -3.58984 0
M  V30 1815 N 180.328 1.1314 -1.09713 0
M  V30 1816 C 181.258 2.20748 -0.761102 0
M  V30 1817 C 182.239 1.68061 0.262566 0
M  V30 1818 O 183.424 1.93765 0.129977 0
M  V30 1819 C 180.554 3.46812 -0.184054 0
M  V30 1820 C 179.508 4.12606 -1.13757 0
M  V30 1821 C 178.834 5.33031 -0.422083 0
M  V30 1822 C 180.134 4.59603 -2.48118 0
M  V30 1823 H 181.828 2.49113 -1.66082 0
M  V30 1824 H 179.374 1.19734 -0.799987 0
M  V30 1825 H 181.327 4.21353 0.0631215 0
M  V30 1826 H 180.051 3.17851 0.750868 0
M  V30 1827 H 178.71 3.40036 -1.37007 0
M  V30 1828 H 178.358 5.00335 0.517072 0
M  V30 1829 H 178.058 5.77999 -1.05788 0
M  V30 1830 H 179.582 6.10325 -0.183277 0
M  V30 1831 H 180.996 5.25552 -2.29059 0
M  V30 1832 H 179.393 5.15321 -3.07514 0
M  V30 1833 H 180.463 3.73971 -3.08665 0
M  V30 1834 N 181.806 0.884767 1.30421 0
M  V30 1835 C 183.034 0.518044 2.0031 0
M  V30 1836 C 183.449 -0.893408 1.66324 0
M  V30 1837 O 182.806 -1.5875 0.900262 0
M  V30 1838 C 182.857 0.682997 3.54989 0
M  V30 1839 O 182.578 2.03888 3.87764 0
M  V30 1840 C 184.079 0.31924 4.42149 0
M  V30 1841 H 181.299 0.200265 0.640418 0
M  V30 1842 H 183.843 1.19001 1.6631 0
M  V30 1843 H 181.998 0.0584052 3.87356 0
M  V30 1844 H 182.412 2.05735 4.82466 0
M  V30 1845 H 183.886 0.485555 5.4986 0
M  V30 1846 H 184.363 -0.742717 4.32875 0
M  V30 1847 H 184.969 0.920147 4.15227 0
M  V30 1848 N 183.284 -1.43765 0.645699 0
M  V30 1849 C 184.214 -2.33471 -0.0370477 0
M  V30 1850 C 185.195 -1.49042 -0.819779 0
M  V30 1851 O 186.38 -1.77726 -0.782758 0
M  V30 1852 C 183.51 -3.32311 -1.0093 0
M  V30 1853 C 182.464 -4.2667 -0.337201 0
M  V30 1854 C 181.79 -5.1549 -1.42037 0
M  V30 1855 C 183.09 -5.16657 0.765706 0
M  V30 1856 H 184.784 -2.90809 0.712069 0
M  V30 1857 H 182.33 -1.39834 0.343876 0
M  V30 1858 H 184.283 -3.9396 -1.49578 0
M  V30 1859 H 183.007 -2.73213 -1.78948 0
M  V30 1860 H 181.666 -3.66374 0.128771 0
M  V30 1861 H 181.314 -4.52735 -2.1918 0
M  V30 1862 H 181.014 -5.79438 -0.975966 0
M  V30 1863 H 182.538 -5.80012 -1.90838 0
M  V30 1864 H 183.952 -5.72158 0.361702 0
M  V30 1865 H 182.349 -5.89286 1.13413 0
M  V30 1866 H 183.419 -4.56796 1.62683 0
M  V30 1867 N 184.763 -0.387143 -1.52771 0
M  V30 1868 C 185.695 0.484089 -2.2403 0
M  V30 1869 C 186.708 1.02849 -1.26198 0
M  V30 1870 O 187.897 0.931186 -1.52286 0
M  V30 1871 C 184.997 1.68337 -2.94136 0
M  V30 1872 C 184.17 1.26672 -4.18656 0
M  V30 1873 C 183.229 2.33045 -4.7178 0
M  V30 1874 O 182.255 1.94541 -5.34923 0
M  V30 1875 N 183.457 3.64929 -4.5145 0
M  V30 1876 H 186.222 -0.126404 -2.99433 0
M  V30 1877 H 183.783 -0.213392 -1.60488 0
M  V30 1878 H 185.775 2.39019 -3.26577 0
M  V30 1879 H 184.345 2.20025 -2.22053 0
M  V30 1880 H 183.565 0.388878 -3.92277 0
M  V30 1881 H 184.853 0.964964 -4.99566 0
M  V30 1882 H 184.251 3.98974 -4.01044 0
M  V30 1883 H 182.808 4.31651 -4.88386 0
M  V30 1884 N 186.241 1.57166 -0.116904 0
M  V30 1885 C 187.466 1.999 0.55271 0
M  V30 1886 C 187.891 0.996039 1.59564 0
M  V30 1887 O 187.249 -0.032556 1.81271 0
M  V30 1888 C 187.297 3.4152 1.15742 0
M  V30 1889 O 186.401 3.44106 2.27299 0
M  V30 1890 H 185.742 0.649447 0.138258 0
M  V30 1891 H 188.272 2.03573 -0.204759 0
M  V30 1892 H 188.282 3.79684 1.49346 0
M  V30 1893 H 186.957 4.14034 0.393493 0
M  V30 1894 H 185.534 3.17759 1.9515 0
M  V30 1895 N 187.719 -0.156864 1.56817 0
M  V30 1896 C 188.629 -1.2136 2.00771 0
M  V30 1897 C 189.645 -1.47598 0.921459 0
M  V30 1898 O 190.821 -1.59462 1.2302 0
M  V30 1899 C 187.886 -2.52943 2.37109 0
M  V30 1900 C 186.947 -2.34439 3.59634 0
M  V30 1901 C 186.18 -3.59748 3.94229 0
M  V30 1902 O 186.403 -4.65526 3.29609 0
M  V30 1903 O 185.337 -3.52998 4.8752 0
M  V30 1904 H 189.163 -0.870468 2.90958 0
M  V30 1905 H 186.748 -0.36484 1.44877 0
M  V30 1906 H 188.63 -3.30538 2.61386 0
M  V30 1907 H 187.305 -2.86806 1.5008 0
M  V30 1908 H 186.212 -1.54828 3.40557 0
M  V30 1909 H 187.545 -2.05496 4.4725 0
M  V30 1910 N 189.197 -1.51736 -0.425897 0
M  V30 1911 C 190.437 -1.66636 -1.18371 0
M  V30 1912 C 190.801 -0.379854 -1.88205 0
M  V30 1913 O 192.002 -0.404758 -2.65735 0
M  V30 1914 C 190.273 -2.84382 -2.16476 0
M  V30 1915 S 191.832 -3.19673 -3.0059 0
M  V30 1916 H 188.65 -0.586957 -0.40125 0
M  V30 1917 H 191.252 -1.89679 -0.473518 0
M  V30 1918 H 189.956 -3.76281 -1.63831 0
M  V30 1919 H 189.487 -2.63562 -2.92059 0
M  V30 1920 H 191.502 -2.66994 -4.18245 0
M  V30 1921 N 190.675 0.682077 -1.42076 0
M  V30 1922 C 192.086 1.26246 -1.37546 0
M  V30 1923 C 192.437 1.96092 -0.0651481 0
M  V30 1924 O 191.562 1.99587 0.836297 0
M  V30 1925 C 192.157 2.29594 -2.49143 0
M  V30 1926 C 190.716 2.83175 -2.47969 0
M  V30 1927 C 189.863 1.57395 -2.28303 0
M  V30 1928 H 192.814 0.475937 -1.51395 0
M  V30 1929 H 192.835 3.11175 -2.18976 0
M  V30 1930 H 192.347 1.78729 -3.44496 0
M  V30 1931 H 190.448 3.3818 -1.56413 0
M  V30 1932 H 190.561 3.32687 -3.44755 0
M  V30 1933 H 188.925 1.83699 -1.76428 0
M  V30 1934 H 189.708 1.08507 -3.25701 0
M  V30 1935 N 192.153 1.28127 0.917671 0
M  V30 1936 C 193.063 1.13556 2.05286 0
M  V30 1937 C 194.079 0.0630914 1.73886 0
M  V30 1938 O 195.255 0.271598 1.9956 0
M  V30 1939 C 192.32 0.794676 3.3747 0
M  V30 1940 C 191.381 1.94909 3.82504 0
M  V30 1941 C 190.614 1.62437 5.0838 0
M  V30 1942 O 190.837 0.536905 5.67867 0
M  V30 1943 O 189.771 2.46677 5.4903 0
M  V30 1944 H 193.597 2.08844 2.20495 0
M  V30 1945 H 191.182 1.07409 1.03845 0
M  V30 1946 H 193.064 0.618344 4.16839 0
M  V30 1947 H 191.739 -0.128581 3.23445 0
M  V30 1948 H 190.646 2.18055 3.03978 0
M  V30 1949 H 191.979 2.85291 4.01086 0
M  V30 1950 N 193.631 -1.12557 1.10312 0
M  V30 1951 C 194.859 -1.87864 0.866873 0
M  V30 1952 C 195.274 -1.79588 -0.582557 0
M  V30 1953 O 194.631 -1.16887 -1.40156 0
M  V30 1954 C 194.682 -3.37125 1.30496 0
M  V30 1955 O 194.403 -3.45201 2.69755 0
M  V30 1956 C 195.904 -4.29373 1.10243 0
M  V30 1957 H 193.124 -0.594452 0.311236 0
M  V30 1958 H 195.668 -1.42429 1.46745 0
M  V30 1959 H 193.823 -3.80109 0.748081 0
M  V30 1960 H 194.237 -4.38056 2.88457 0
M  V30 1961 H 195.711 -5.32394 1.45811 0
M  V30 1962 H 196.188 -4.39181 0.0409492 0
M  V30 1963 H 196.794 -3.92169 1.64571 0
M  V30 1964 N 195.109 -0.891671 -1.2995 0
M  V30 1965 C 196.056 -0.361736 -2.27948 0
M  V30 1966 C 197.026 0.551761 -1.56668 0
M  V30 1967 O 198.211 0.478736 -1.84696 0
M  V30 1968 C 195.351 0.411825 -3.42634 0
M  V30 1969 C 194.464 -0.531651 -4.28716 0
M  V30 1970 C 193.599 0.258167 -5.30572 0
M  V30 1971 C 192.638 -0.680349 -6.08307 0
M  V30 1972 N 191.775 0.0745613 -7.0206 0
M  V30 1973 H 196.615 -1.20254 -2.72659 0
M  V30 1974 H 194.152 -0.604352 -1.34112 0
M  V30 1975 H 196.11 0.876304 -4.07893 0
M  V30 1976 H 194.74 1.21715 -2.98974 0
M  V30 1977 H 193.792 -1.11463 -3.63703 0
M  V30 1978 H 195.104 -1.25038 -4.82874 0
M  V30 1979 H 194.258 0.784204 -6.0161 0
M  V30 1980 H 192.997 1.01008 -4.77126 0
M  V30 1981 H 192.002 -1.21796 -5.3614 0
M  V30 1982 H 193.227 -1.43145 -6.63842 0
M  V30 1983 H 191.173 0.808883 -6.50994 0
M  V30 1984 H 191.09 -0.584409 -7.53738 0
M  V30 1985 H 192.358 0.581123 -7.77331 0
M  V30 1986 N 196.587 1.43421 -0.653314 0
M  V30 1987 C 198.003 1.56341 -0.320886 0
M  V30 1988 C 198.203 1.63696 1.17499 0
M  V30 1989 O 197.259 1.59208 1.95982 0
M  V30 1990 C 198.572 2.82424 -1.03233 0
M  V30 1991 C 200.12 2.96168 -1.01259 0
M  V30 1992 C 200.595 4.25084 -1.70492 0
M  V30 1993 N 202.086 4.31948 -1.67257 0
M  V30 1994 C 202.821 5.30466 -2.17701 0
M  V30 1995 N 202.317 6.35261 -2.76434 0
M  V30 1996 N 204.11 5.2212 -2.082 0
M  V30 1997 H 196.261 1.3689 -1.62403 0
M  V30 1998 H 198.524 0.657455 -0.682977 0
M  V30 1999 H 198.23 2.83053 -2.08744 0
M  V30 2000 H 198.104 3.72653 -0.583948 0
M  V30 2001 H 200.491 2.9508 0.0341235 0
M  V30 2002 H 200.572 2.07229 -1.49966 0
M  V30 2003 H 200.216 4.26932 -2.7512 0
M  V30 2004 H 200.146 5.1292 -1.19251 0
M  V30 2005 H 202.637 3.56838 -1.24398 0
M  V30 2006 H 202.95 7.06754 -3.12601 0
M  V30 2007 H 201.295 6.35884 -2.80495 0
M  V30 2008 H 204.486 4.39166 -1.62021 0
M  V30 2009 H 204.659 5.98739 -2.47822 0
M  V30 2010 N 198.065 0.39524 1.52563 0
M  V30 2011 C 199.012 -0.437036 2.26624 0
M  V30 2012 C 199.982 -1.05281 1.28472 0
M  V30 2013 O 201.167 -1.07971 1.57311 0
M  V30 2014 C 198.307 -1.55524 3.08069 0
M  V30 2015 C 197.42 -0.961745 4.21158 0
M  V30 2016 C 196.555 -2.05149 4.89987 0
M  V30 2017 C 195.594 -1.4342 5.95061 0
M  V30 2018 N 194.731 -2.46351 6.57462 0
M  V30 2019 H 199.571 0.200976 2.97322 0
M  V30 2020 H 197.108 0.110944 1.46681 0
M  V30 2021 H 199.066 -2.21437 3.53584 0
M  V30 2022 H 197.696 -2.16348 2.3957 0
M  V30 2023 H 196.748 -0.192048 3.79915 0
M  V30 2024 H 198.06 -0.470701 4.96574 0
M  V30 2025 H 197.214 -2.78819 5.38837 0
M  V30 2026 H 195.953 -2.57615 4.14109 0
M  V30 2027 H 194.958 -0.682774 5.45544 0
M  V30 2028 H 196.183 -0.917416 6.72875 0
M  V30 2029 H 194.129 -2.97975 5.8442 0
M  V30 2030 H 194.046 -2.02019 7.28508 0
M  V30 2031 H 195.314 -3.19633 7.10954 0
M  V30 2032 N 199.544 -1.57102 0.125237 0
M  V30 2033 C 200.454 -2.19191 -0.8362 0
M  V30 2034 C 201.47 -1.16985 -1.28805 0
M  V30 2035 O 202.646 -1.49479 -1.34974 0
M  V30 2036 C 199.711 -2.78407 -2.06617 0
M  V30 2037 C 198.772 -3.9567 -1.66565 0
M  V30 2038 C 198.005 -4.52052 -2.83698 0
M  V30 2039 O 198.228 -4.07326 -3.99302 0
M  V30 2040 O 197.162 -5.42645 -2.60423 0
M  V30 2041 H 200.988 -3.01816 -0.337776 0
M  V30 2042 H 198.573 -1.4906 -0.100695 0
M  V30 2043 H 200.455 -3.16129 -2.7864 0
M  V30 2044 H 199.13 -1.9881 -2.55453 0
M  V30 2045 H 198.037 -3.62705 -0.916296 0
M  V30 2046 H 199.37 -4.76722 -1.22464 0
M  V30 2047 N 201.022 0.148545 -1.56898 0
M  V30 2048 C 202.268 0.862694 -1.83536 0
M  V30 2049 C 202.601 1.80889 -0.706604 0
M  V30 2050 O 201.876 1.92328 0.289885 0
M  V30 2051 C 202.159 1.63853 -3.20662 0
M  V30 2052 C 202.012 0.713925 -4.44098 0
M  V30 2053 C 203.331 2.60133 -3.54991 0
M  V30 2054 H 200.45 0.312179 -0.667618 0
M  V30 2055 H 203.092 0.127953 -1.89569 0
M  V30 2056 H 201.242 2.26489 -3.1565 0
M  V30 2057 H 202.914 0.098686 -4.61194 0
M  V30 2058 H 201.157 0.0234019 -4.33794 0
M  V30 2059 H 201.828 1.29278 -5.36648 0
M  V30 2060 H 204.304 2.07616 -3.60603 0
M  V30 2061 H 203.18 3.11468 -4.51972 0
M  V30 2062 H 203.441 3.41417 -2.80868 0
M  V30 2063 N 202.5 1.5196 0.417844 0
M  V30 2064 C 203.447 1.74678 1.50852 0
M  V30 2065 C 204.417 0.588947 1.55308 0
M  V30 2066 O 205.602 0.825544 1.72016 0
M  V30 2067 C 202.742 1.89544 2.88387 0
M  V30 2068 C 201.855 3.17166 2.93309 0
M  V30 2069 C 200.99 3.22513 4.22088 0
M  V30 2070 C 200.029 4.44372 4.20951 0
M  V30 2071 N 199.166 4.47161 5.41287 0
M  V30 2072 H 204.006 2.67768 1.30783 0
M  V30 2073 H 201.543 1.32689 0.63498 0
M  V30 2074 H 203.501 1.96146 3.68216 0
M  V30 2075 H 202.131 0.998424 3.06971 0
M  V30 2076 H 201.183 3.19778 2.06024 0
M  V30 2077 H 202.495 4.07021 2.88332 0
M  V30 2078 H 201.649 3.28139 5.10303 0
M  V30 2079 H 200.388 2.30581 4.29748 0
M  V30 2080 H 199.393 4.38902 3.31127 0
M  V30 2081 H 200.618 5.3759 4.14938 0
M  V30 2082 H 198.564 3.58108 5.49632 0
M  V30 2083 H 198.481 5.3085 5.3827 0
M  V30 2084 H 199.749 4.57005 6.3148 0
M  V30 2085 N 203.978 -0.674533 1.42435 0
M  V30 2086 C 205.394 -0.98769 1.25367 0
M  V30 2087 C 205.594 -2.00879 0.158044 0
M  V30 2088 O 204.65 -2.48075 -0.470633 0
M  V30 2089 C 205.963 -1.49224 2.6106 0
M  V30 2090 C 207.511 -1.61 2.68417 0
M  V30 2091 C 207.986 -2.14852 4.04478 0
M  V30 2092 N 209.477 -2.22185 4.06434 0
M  V30 2093 C 210.212 -2.64928 5.08528 0
M  V30 2094 N 209.708 -3.07121 6.21006 0
M  V30 2095 N 211.501 -2.64679 4.95885 0
M  V30 2096 H 203.652 0.00152503 2.124 0
M  V30 2097 H 205.915 -0.0618434 0.945981 0
M  V30 2098 H 205.621 -0.816453 3.42092 0
M  V30 2099 H 205.495 -2.47094 2.84999 0
M  V30 2100 H 207.882 -2.27686 1.87732 0
M  V30 2101 H 207.963 -0.616195 2.48267 0
M  V30 2102 H 207.607 -1.48775 4.85622 0
M  V30 2103 H 207.537 -3.15024 4.2198 0
M  V30 2104 H 210.028 -1.92435 3.25234 0
M  V30 2105 H 210.341 -3.38423 6.94759 0
M  V30 2106 H 208.686 -3.04978 6.24511 0
M  V30 2107 H 211.877 -2.31078 4.07088 0
M  V30 2108 H 212.05 -2.9767 5.75584 0
M  V30 2109 N 205.456 -1.28612 -0.910864 0
M  V30 2110 C 206.686 -1.1862 -1.69153 0
M  V30 2111 C 207.094 0.257324 -1.87442 0
M  V30 2112 O 206.437 1.18543 -1.40332 0
M  V30 2113 C 206.499 -1.81606 -3.10257 0
M  V30 2114 C 206.163 -3.30864 -3.15243 0
M  V30 2115 C 207.16 -4.27256 -2.96223 0
M  V30 2116 C 204.845 -3.71871 -3.37664 0
M  V30 2117 C 206.839 -5.62631 -2.99541 0
M  V30 2118 C 204.526 -5.07371 -3.40614 0
M  V30 2119 C 205.524 -6.02561 -3.21573 0
M  V30 2120 O 205.212 -7.35589 -3.2429 0
M  V30 2121 H 204.944 -0.412633 -0.535453 0
M  V30 2122 H 207.498 -1.70306 -1.14827 0
M  V30 2123 H 205.728 -1.24418 -3.66138 0
M  V30 2124 H 207.417 -1.66092 -3.70362 0
M  V30 2125 H 208.183 -3.9691 -2.78725 0
M  V30 2126 H 204.062 -2.98241 -3.5153 0
M  V30 2127 H 207.606 -6.36907 -2.84597 0
M  V30 2128 H 203.503 -5.37366 -3.57642 0
M  V30 2129 H 204.271 -7.44252 -3.40633 0
M  V30 2130 N 206.934 1.1197 -1.10907 0
M  V30 2131 C 207.866 2.17592 -0.720175 0
M  V30 2132 C 208.879 1.60938 0.245495 0
M  V30 2133 O 210.068 1.78476 0.0292245 0
M  V30 2134 C 207.168 3.38873 -0.0427917 0
M  V30 2135 C 206.341 4.25006 -1.03388 0
M  V30 2136 C 205.4 5.24774 -0.387075 0
M  V30 2137 O 204.426 5.59631 -1.03934 0
M  V30 2138 N 205.628 5.74208 0.852407 0
M  V30 2139 H 208.393 2.51567 -1.62893 0
M  V30 2140 H 205.954 1.27439 -0.998543 0
M  V30 2141 H 207.946 4.02703 0.401501 0
M  V30 2142 H 206.516 3.03007 0.768456 0
M  V30 2143 H 205.736 3.57716 -1.65629 0
M  V30 2144 H 207.024 4.79397 -1.70458 0
M  V30 2145 H 206.422 5.48062 1.40161 0
M  V30 2146 H 204.979 6.39901 1.23977 0
M  V30 2147 N 208.412 0.89855 1.29475 0
M  V30 2148 C 209.652 0.530771 1.97388 0
M  V30 2149 C 210.016 -0.905832 1.69289 0
M  V30 2150 O 211.217 -1.38042 2.30646 0
M  V30 2151 C 209.488 0.81369 3.48014 0
M  V30 2152 S 211.047 0.550048 4.35339 0
M  V30 2153 H 207.865 0.196956 0.683176 0
M  V30 2154 H 210.467 1.16074 1.57312 0
M  V30 2155 H 209.171 1.85749 3.65958 0
M  V30 2156 H 208.702 0.171795 3.93025 0
M  V30 2157 H 210.717 -0.605423 4.92493 0
M  V30 2158 N 209.89 -1.43072 0.660911 0
M  V30 2159 C 211.118 -2.06067 0.185422 0
M  V30 2160 C 211.533 -1.49582 -1.15198 0
M  V30 2161 O 210.89 -0.630134 -1.71276 0
M  V30 2162 C 210.941 -3.61371 0.0966523 0
M  V30 2163 O 210.662 -4.15758 1.38119 0
M  V30 2164 C 212.163 -4.41455 -0.403996 0
M  V30 2165 H 209.383 -0.664459 0.0934604 0
M  V30 2166 H 211.927 -1.83447 0.90373 0
M  V30 2167 H 210.082 -3.8315 -0.572259 0
M  V30 2168 H 210.496 -5.09499 1.24542 0
M  V30 2169 H 211.97 -5.50437 -0.415045 0
M  V30 2170 H 212.447 -4.15036 -1.43674 0
M  V30 2171 H 213.053 -4.24663 0.232691 0
M  V30 2172 N 211.368 -0.403325 -1.52352 0
M  V30 2173 C 212.615 0.174347 -2.01748 0
M  V30 2174 C 212.943 1.45636 -1.2892 0
M  V30 2175 O 212.198 1.9193 -0.382258 0
M  V30 2176 C 212.497 0.474665 -3.54234 0
M  V30 2177 C 212.163 -0.717458 -4.45155 0
M  V30 2178 C 210.825 -1.04447 -4.69728 0
M  V30 2179 C 213.177 -1.51432 -4.98716 0
M  V30 2180 C 210.505 -2.16963 -5.45109 0
M  V30 2181 C 212.857 -2.6302 -5.75329 0
M  V30 2182 C 211.521 -2.96213 -5.98175 0
M  V30 2183 H 210.791 0.0637981 -0.738248 0
M  V30 2184 H 213.438 -0.543553 -1.83624 0
M  V30 2185 H 211.743 1.27406 -3.70506 0
M  V30 2186 H 213.44 0.934496 -3.89959 0
M  V30 2187 H 210.03 -0.452596 -4.26204 0
M  V30 2188 H 214.214 -1.27491 -4.79645 0
M  V30 2189 H 209.47 -2.43034 -5.61021 0
M  V30 2190 H 213.644 -3.25158 -6.15829 0
M  V30 2191 H 211.271 -3.83516 -6.56368 0
M  V30 2192 N 212.846 1.57033 -0.133567 0
M  V30 2193 C 213.756 2.19632 0.824564 0
M  V30 2194 C 214.772 1.17666 1.28182 0
M  V30 2195 O 215.948 1.50193 1.3418 0
M  V30 2196 C 213.013 2.79499 2.05137 0
M  V30 2197 C 212.074 3.96548 1.64464 0
M  V30 2198 C 211.307 4.5355 2.81297 0
M  V30 2199 O 211.53 4.09438 3.97136 0
M  V30 2200 O 210.464 5.44018 2.57542 0
M  V30 2201 H 214.29 3.01991 0.321766 0
M  V30 2202 H 211.875 1.49112 0.0927889 0
M  V30 2203 H 213.757 3.17602 2.7696 0
M  V30 2204 H 212.432 2.00162 2.54395 0
M  V30 2205 H 211.339 3.63186 0.897048 0
M  V30 2206 H 212.672 4.77364 1.19934 0
M  V30 2207 N 214.325 -0.140222 1.56975 0
M  V30 2208 C 215.573 -0.850005 1.83356 0
M  V30 2209 C 215.894 -1.81399 0.71551 0
M  V30 2210 O 215.164 -1.94136 -0.262294 0
M  V30 2211 H 213.744 -0.316886 0.676456 0
M  V30 2212 H 216.406 -0.132608 1.94448 0
M  V30 2213 H 215.502 -1.40814 2.78528 0
M  V30 2214 N 215.803 -1.52179 -0.40978 0
M  V30 2215 C 217.043 -1.67882 -1.16597 0
M  V30 2216 C 217.407 -0.399795 -1.87791 0
M  V30 2217 O 218.608 -0.43292 -2.65291 0
M  V30 2218 C 216.879 -2.86662 -2.13448 0
M  V30 2219 S 218.438 -3.22843 -2.97183 0
M  V30 2220 H 215.256 -0.59118 -0.395002 0
M  V30 2221 H 217.858 -1.9017 -0.453373 0
M  V30 2222 H 216.562 -3.77998 -1.59831 0
M  V30 2223 H 216.093 -2.66645 -2.89247 0
M  V30 2224 H 218.108 -2.71415 -4.15389 0
M  V30 2225 N 217.281 0.66697 -1.42791 0
M  V30 2226 C 218.692 1.2478 -1.38877 0
M  V30 2227 C 219.043 1.96012 -0.0859426 0
M  V30 2228 O 218.168 2.00463 0.815081 0
M  V30 2229 C 218.763 2.26938 -2.51564 0
M  V30 2230 C 217.322 2.80529 -2.50959 0
M  V30 2231 C 216.469 1.54965 -2.29959 0
M  V30 2232 H 219.42 0.459853 -1.51892 0
M  V30 2233 H 219.441 3.08834 -2.22265 0
M  V30 2234 H 218.953 1.75065 -3.46372 0
M  V30 2235 H 217.054 3.36502 -1.59991 0
M  V30 2236 H 217.167 3.29012 -3.48265 0
M  V30 2237 H 215.531 1.81817 -1.78366 0
M  V30 2238 H 216.314 1.05047 -3.26833 0
M  V30 2239 N 218.759 1.29093 0.90403 0
M  V30 2240 C 220.175 1.07011 1.1841 0
M  V30 2241 C 220.375 -0.181358 2.00682 0
M  V30 2242 O 219.431 -0.880331 2.36657 0
M  V30 2243 C 220.744 2.32311 1.90924 0
M  V30 2244 C 222.292 2.37587 2.03768 0
M  V30 2245 C 222.767 3.62679 2.79693 0
M  V30 2246 N 224.258 3.63376 2.87249 0
M  V30 2247 C 224.993 4.56848 3.46522 0
M  V30 2248 N 224.489 5.60648 4.06996 0
M  V30 2249 N 226.282 4.44426 3.44154 0
M  V30 2250 H 218.433 2.09412 0.354993 0
M  V30 2251 H 220.696 0.922181 0.219742 0
M  V30 2252 H 220.402 3.23536 1.37905 0
M  V30 2253 H 220.276 2.39483 2.91424 0
M  V30 2254 H 222.663 1.46853 2.55965 0
M  V30 2255 H 222.744 2.34403 1.02415 0
M  V30 2256 H 222.388 4.53762 2.28173 0
M  V30 2257 H 222.318 3.63119 3.81381 0
M  V30 2258 H 224.809 2.88321 2.44293 0
M  V30 2259 H 225.122 6.28101 4.50232 0
M  V30 2260 H 223.467 5.64463 4.05471 0
M  V30 2261 H 226.658 3.62529 2.96126 0
M  V30 2262 H 226.831 5.17457 3.90054 0
M  V30 2263 N 220.237 -1.11381 1.11499 0
M  V30 2264 C 221.465 -1.86934 0.88675 0
M  V30 2265 C 221.88 -1.80195 -0.563476 0
M  V30 2266 O 221.237 -1.18367 -1.38908 0
M  V30 2267 C 221.288 -3.35722 1.34064 0
M  V30 2268 O 221.009 -3.4232 2.73401 0
M  V30 2269 C 222.51 -4.2818 1.14791 0
M  V30 2270 H 219.73 -0.591117 0.317523 0
M  V30 2271 H 222.274 -1.40865 1.48248 0
M  V30 2272 H 220.429 -3.79294 0.788355 0
M  V30 2273 H 220.843 -4.34971 2.93087 0
M  V30 2274 H 222.317 -5.30817 1.5145 0
M  V30 2275 H 222.794 -4.39113 0.0875279 0
M  V30 2276 H 223.4 -3.90402 1.68721 0
M  V30 2277 N 221.715 -0.905404 -1.28997 0
M  V30 2278 C 222.945 -0.549049 -1.99171 0
M  V30 2279 C 223.353 0.87203 -1.67906 0
M  V30 2280 O 222.696 1.58796 -0.923561 0
M  V30 2281 C 222.758 -0.668306 -3.53234 0
M  V30 2282 C 222.422 -2.0574 -4.08069 0
M  V30 2283 C 223.419 -3.0292 -4.22534 0
M  V30 2284 C 221.104 -2.36833 -4.42962 0
M  V30 2285 C 223.098 -4.29314 -4.71135 0
M  V30 2286 C 220.785 -3.63467 -4.91258 0
M  V30 2287 C 221.783 -4.59522 -5.053 0
M  V30 2288 O 221.471 -5.83907 -5.52546 0
M  V30 2289 H 221.203 -0.208784 -0.64295 0
M  V30 2290 H 223.757 -1.21836 -1.65363 0
M  V30 2291 H 221.987 0.0580547 -3.86656 0
M  V30 2292 H 223.676 -0.320273 -4.04634 0
M  V30 2293 H 224.442 -2.80216 -3.95859 0
M  V30 2294 H 220.321 -1.62824 -4.31288 0
M  V30 2295 H 223.865 -5.04293 -4.8201 0
M  V30 2296 H 219.762 -3.86 -5.17372 0
M  V30 2297 H 220.53 -5.86578 -5.70849 0
M  V30 2298 N 223.193 1.4272 -0.668489 0
M  V30 2299 C 224.418 2.06484 -0.194758 0
M  V30 2300 C 224.843 1.49862 1.13679 0
M  V30 2301 O 224.201 0.614582 1.70565 0
M  V30 2302 C 224.249 3.60353 -0.133546 0
M  V30 2303 O 223.353 4.02464 0.899806 0
M  V30 2304 H 222.694 0.656137 -0.10188 0
M  V30 2305 H 225.224 1.82964 -0.915722 0
M  V30 2306 H 225.234 4.07976 0.0447041 0
M  V30 2307 H 223.909 4.00938 -1.1055 0
M  V30 2308 H 222.486 3.66402 0.693109 0
M  V30 2309 N 224.671 0.411399 1.52136 0
M  V30 2310 C 225.899 -0.163076 2.06256 0
M  V30 2311 C 226.314 -1.3867 1.28125 0
M  V30 2312 O 225.671 -1.79423 0.333721 0
M  V30 2313 C 225.722 -0.511252 3.57867 0
M  V30 2314 O 225.443 0.66378 4.33042 0
M  V30 2315 C 226.944 -1.13921 4.28412 0
M  V30 2316 H 224.164 -0.0193897 0.67072 0
M  V30 2317 H 226.708 0.583007 1.96013 0
M  V30 2318 H 224.863 -1.20723 3.6811 0
M  V30 2319 H 225.277 0.372601 5.23175 0
M  V30 2320 H 226.751 -1.33302 5.35663 0
M  V30 2321 H 227.228 -2.11296 3.85033 0
M  V30 2322 H 227.834 -0.483373 4.22544 0
M  V30 2323 N 226.149 -1.5696 0.141893 0
M  V30 2324 C 227.112 -2.15316 -0.785587 0
M  V30 2325 C 228.112 -1.09366 -1.1788 0
M  V30 2326 O 229.302 -1.35031 -1.10056 0
M  V30 2327 C 226.434 -2.71211 -2.06537 0
M  V30 2328 H 227.627 -2.98608 -0.278041 0
M  V30 2329 H 225.18 -1.5593 -0.107519 0
M  V30 2330 H 225.915 -1.91571 -2.6167 0
M  V30 2331 H 225.7 -3.4872 -1.79268 0
M  V30 2332 H 227.19 -3.16189 -2.72789 0
M  V30 2333 N 227.627 0.131896 -1.57047 0
M  V30 2334 C 228.875 0.840269 -1.83804 0
M  V30 2335 C 229.196 1.81017 -0.72512 0
M  V30 2336 O 228.466 1.94272 0.251995 0
M  V30 2337 H 227.046 0.313294 -0.678127 0
M  V30 2338 H 229.708 0.122294 -1.94516 0
M  V30 2339 H 228.804 1.39335 -2.79271 0
M  V30 2340 N 229.106 1.52395 0.401703 0
M  V30 2341 C 230.054 1.7689 1.51039 0
M  V30 2342 C 231.048 0.636298 1.56996 0
M  V30 2343 O 232.254 0.818507 1.60314 0
M  V30 2344 H 228.629 0.559502 0.502456 0
M  V30 2345 H 230.6 2.69757 1.27568 0
M  V30 2346 C 229.349 1.94331 2.88324 0
M  V30 2347 H 228.672 2.80905 2.84486 0
M  V30 2348 H 230.112 2.15466 3.65172 0
M  V30 2349 C 228.571 0.712396 3.29282 0
M  V30 2350 O 229.101 -0.116218 4.01532 0
M  V30 2351 N 227.307 0.546154 2.85422 0
M  V30 2352 H 226.854 1.22156 2.26794 0
M  V30 2353 H 226.812 -0.276113 3.13185 0
M  V30 2354 N 230.584 -0.659388 1.43143 0
M  V30 2355 C 231.514 -1.78422 1.50625 0
M  V30 2356 C 232.495 -1.66216 0.361443 0
M  V30 2357 O 233.68 -1.85404 0.577834 0
M  V30 2358 C 230.81 -3.16815 1.42287 0
M  V30 2359 C 229.764 -3.43777 2.54954 0
M  V30 2360 C 229.09 -4.81905 2.31671 0
M  V30 2361 C 230.39 -3.39134 3.97222 0
M  V30 2362 H 232.084 -1.72417 2.44771 0
M  V30 2363 H 229.63 -0.828084 1.17808 0
M  V30 2364 H 231.583 -3.95253 1.46127 0
M  V30 2365 H 230.307 -3.23534 0.446435 0
M  V30 2366 H 228.966 -2.67707 2.50457 0
M  V30 2367 H 228.614 -4.85294 1.32284 0
M  V30 2368 H 228.314 -5.00906 3.07192 0
M  V30 2369 H 229.838 -5.62609 2.37284 0
M  V30 2370 H 231.252 -4.07518 4.03239 0
M  V30 2371 H 229.649 -3.69671 4.72719 0
M  V30 2372 H 230.719 -2.37426 4.22797 0
M  V30 2373 N 232.062 -1.29571 -0.897171 0
M  V30 2374 C 233.478 -1.07637 -1.17841 0
M  V30 2375 C 233.678 0.170713 -2.00776 0
M  V30 2376 O 232.734 0.867768 -2.3712 0
M  V30 2377 C 234.047 -2.3332 -1.8969 0
M  V30 2378 C 235.595 -2.38664 -2.02505 0
M  V30 2379 C 236.07 -3.64157 -2.77765 0
M  V30 2380 N 237.561 -3.64894 -2.85318 0
M  V30 2381 C 238.296 -4.58679 -3.44094 0
M  V30 2382 N 237.792 -5.62799 -4.04017 0
M  V30 2383 N 239.585 -4.46245 -3.41793 0
M  V30 2384 H 231.736 -2.09598 -0.343883 0
M  V30 2385 H 233.999 -0.923333 -0.214848 0
M  V30 2386 H 233.705 -3.24262 -1.36187 0
M  V30 2387 H 233.579 -2.41025 -2.9015 0
M  V30 2388 H 235.966 -1.48208 -2.55183 0
M  V30 2389 H 236.047 -2.34943 -1.01171 0
M  V30 2390 H 235.691 -4.54965 -2.25763 0
M  V30 2391 H 235.621 -3.65137 -3.7945 0
M  V30 2392 H 238.112 -2.89613 -2.42761 0
M  V30 2393 H 238.425 -6.3048 -4.46895 0
M  V30 2394 H 236.77 -5.66605 -4.02472 0
M  V30 2395 H 239.961 -3.64094 -2.94199 0
M  V30 2396 H 240.134 -5.19518 -3.87304 0
M  V30 2397 N 233.54 1.10788 -1.12088 0
M  V30 2398 C 234.768 1.86461 -0.896651 0
M  V30 2399 C 235.183 1.80492 0.553912 0
M  V30 2400 O 234.54 1.19102 1.38278 0
M  V30 2401 C 234.591 3.35006 -1.35843 0
M  V30 2402 O 234.312 3.40866 -2.75213 0
M  V30 2403 C 235.813 4.27565 -1.1706 0
M  V30 2404 H 233.033 0.589425 -0.320654 0
M  V30 2405 H 235.577 1.40076 -1.48993 0
M  V30 2406 H 233.732 3.7887 -0.808458 0
M  V30 2407 H 234.146 4.33411 -2.9539 0
M  V30 2408 H 235.62 5.30007 -1.54263 0
M  V30 2409 H 236.097 4.3906 -0.110814 0
M  V30 2410 H 236.703 3.89501 -1.70789 0
M  V30 2411 N 235.018 0.912232 1.28515 0
M  V30 2412 C 235.968 0.370649 2.24967 0
M  V30 2413 C 236.952 -0.516375 1.52389 0
M  V30 2414 O 238.144 -0.356345 1.73376 0
M  V30 2415 C 235.273 -0.389526 3.41083 0
M  V30 2416 C 234.359 0.51313 4.20984 0
M  V30 2417 N 234.75 1.62604 4.78951 0
M  V30 2418 C 233.048 0.313235 4.44899 0
M  V30 2419 C 233.749 2.18619 5.39055 0
M  V30 2420 N 232.725 1.47765 5.23132 0
M  V30 2421 H 236.527 1.22061 2.67354 0
M  V30 2422 H 234.041 0.764712 1.43269 0
M  V30 2423 H 236.038 -0.794353 4.09262 0
M  V30 2424 H 234.698 -1.2366 3.0023 0
M  V30 2425 H 235.709 2.00864 4.77362 0
M  V30 2426 H 232.386 -0.494452 4.14562 0
M  V30 2427 H 233.776 3.12228 5.94948 0
M  V30 2428 N 236.496 -1.42363 0.676048 0
M  V30 2429 C 237.428 -2.29164 -0.0404605 0
M  V30 2430 C 238.441 -1.43747 -0.764245 0
M  V30 2431 O 239.63 -1.67453 -0.618195 0
M  V30 2432 C 236.73 -3.21196 -1.08103 0
M  V30 2433 C 235.903 -4.35273 -0.430812 0
M  V30 2434 C 234.962 -5.08017 -1.37133 0
M  V30 2435 O 233.988 -5.62494 -0.87116 0
M  V30 2436 N 235.19 -5.13647 -2.70456 0
M  V30 2437 H 237.955 -2.91298 0.704667 0
M  V30 2438 H 235.516 -1.53303 0.520559 0
M  V30 2439 H 237.508 -3.66728 -1.71152 0
M  V30 2440 H 236.078 -2.60505 -1.72788 0
M  V30 2441 H 235.298 -3.92372 0.379209 0
M  V30 2442 H 236.586 -5.08795 0.0221132 0
M  V30 2443 H 235.984 -4.708 -3.1363 0
M  V30 2444 H 234.541 -5.62821 -3.28749 0
M  V30 2445 N 237.974 -0.419461 -1.51915 0
M  V30 2446 C 238.921 0.400927 -2.27291 0
M  V30 2447 C 239.891 1.03224 -1.30131 0
M  V30 2448 O 241.076 1.05455 -1.59009 0
M  V30 2449 C 238.216 1.50603 -3.10504 0
M  V30 2450 C 237.329 0.89462 -4.22635 0
M  V30 2451 C 236.464 1.97328 -4.93189 0
M  V30 2452 C 235.503 1.33935 -5.97267 0
M  V30 2453 N 234.64 2.3586 -6.61298 0
M  V30 2454 H 239.48 -0.248251 -2.96964 0
M  V30 2455 H 237.017 -0.134266 -1.46486 0
M  V30 2456 H 238.975 2.15783 -3.57062 0
M  V30 2457 H 237.605 2.12509 -2.42981 0
M  V30 2458 H 236.657 0.131583 -3.80172 0
M  V30 2459 H 237.969 0.391641 -4.9726 0
M  V30 2460 H 237.123 2.70211 -5.43204 0
M  V30 2461 H 235.862 2.50994 -4.18155 0
M  V30 2462 H 234.867 0.595896 -5.46561 0
M  V30 2463 H 236.092 0.810252 -6.74249 0
M  V30 2464 H 234.038 2.88639 -5.89087 0
M  V30 2465 H 233.955 1.90403 -7.3163 0
M  V30 2466 H 235.223 3.08282 -7.15949 0
M  V30 2467 N 239.452 1.56882 -0.150215 0
M  V30 2468 C 240.68 2.00593 0.506948 0
M  V30 2469 C 241.095 1.03033 1.58208 0
M  V30 2470 O 240.452 0.0278396 1.82479 0
M  V30 2471 C 240.503 3.44209 1.10465 0
M  V30 2472 O 240.224 4.3804 0.0724636 0
M  V30 2473 C 241.725 4.03214 1.84211 0
M  V30 2474 H 238.945 0.65795 0.13169 0
M  V30 2475 H 241.489 2.03018 -0.245743 0
M  V30 2476 H 239.644 3.42625 1.80795 0
M  V30 2477 H 240.058 5.22007 0.510793 0
M  V30 2478 H 241.532 5.0569 2.21318 0
M  V30 2479 H 242.009 3.44107 2.72923 0
M  V30 2480 H 242.615 4.08437 1.18572 0
M  V30 2481 N 240.93 -0.123565 1.57115 0
M  V30 2482 C 241.88 -1.1575 1.96433 0
M  V30 2483 C 242.864 -1.37313 0.838686 0
M  V30 2484 O 244.056 -1.38482 1.10235 0
M  V30 2485 C 241.185 -2.48526 2.36833 0
M  V30 2486 C 240.271 -2.30457 3.5602 0
M  V30 2487 N 240.662 -1.8219 4.71848 0
M  V30 2488 C 238.96 -2.61129 3.61563 0
M  V30 2489 C 239.661 -1.77721 5.53886 0
M  V30 2490 N 238.637 -2.21899 4.96248 0
M  V30 2491 H 242.439 -0.776797 2.83449 0
M  V30 2492 H 239.953 -0.331364 1.58983 0
M  V30 2493 H 241.95 -3.233 2.63216 0
M  V30 2494 H 240.61 -2.87358 1.5118 0
M  V30 2495 H 241.621 -1.51805 4.95152 0
M  V30 2496 H 238.298 -3.03678 2.86507 0
M  V30 2497 H 239.688 -1.41697 6.56789 0
M  V30 2498 N 242.408 -1.52605 -0.393616 0
M  V30 2499 C 243.824 -1.41753 -0.733357 0
M  V30 2500 C 244.024 -0.534293 -1.94287 0
M  V30 2501 O 243.08 -0.0059787 -2.52499 0
M  V30 2502 C 244.393 -2.84531 -0.972772 0
M  V30 2503 C 245.941 -2.93978 -1.07453 0
M  V30 2504 C 246.416 -4.37756 -1.3466 0
M  V30 2505 N 247.907 -4.4106 -1.41492 0
M  V30 2506 C 248.642 -5.49387 -1.642 0
M  V30 2507 N 248.138 -6.67806 -1.8441 0
M  V30 2508 N 249.931 -5.36923 -1.66342 0
M  V30 2509 H 242.082 -2.08555 0.402328 0
M  V30 2510 H 244.345 -0.940654 0.117789 0
M  V30 2511 H 244.051 -3.51353 -0.156204 0
M  V30 2512 H 243.925 -3.26508 -1.88871 0
M  V30 2513 H 246.312 -2.27326 -1.88167 0
M  V30 2514 H 246.393 -2.55435 -0.136605 0
M  V30 2515 H 246.037 -5.04972 -0.544581 0
M  V30 2516 H 245.967 -4.73848 -2.2973 0
M  V30 2517 H 248.458 -3.55705 -1.27601 0
M  V30 2518 H 248.771 -7.46141 -2.01231 0
M  V30 2519 H 247.116 -6.70843 -1.81644 0
M  V30 2520 H 250.307 -4.43381 -1.50102 0
M  V30 2521 H 250.48 -6.21416 -1.837 0
M  V30 2522 N 243.887 0.651787 -1.4349 0
M  V30 2523 C 245.135 1.40888 -1.44897 0
M  V30 2524 C 245.456 1.94856 -0.0749086 0
M  V30 2525 O 244.726 1.74518 0.889956 0
M  V30 2526 H 243.306 0.522887 -0.533478 0
M  V30 2527 H 245.968 0.768609 -1.79104 0
M  V30 2528 H 245.064 2.25052 -2.16236 0
M  V30 2529 N 245.365 1.30045 0.890287 0
M  V30 2530 C 246.275 1.17885 2.02831 0
M  V30 2531 C 247.291 0.0999609 1.73713 0
M  V30 2532 O 248.467 0.313867 1.98939 0
M  V30 2533 C 245.532 0.866079 3.35708 0
M  V30 2534 C 244.593 2.02979 3.78283 0
M  V30 2535 C 243.826 1.73184 5.0482 0
M  V30 2536 O 244.049 0.657237 5.66601 0
M  V30 2537 O 242.983 2.58267 5.43674 0
M  V30 2538 H 246.809 2.13474 2.16015 0
M  V30 2539 H 244.394 1.09587 1.01543 0
M  V30 2540 H 246.276 0.706623 4.15433 0
M  V30 2541 H 244.951 -0.0599443 3.23644 0
M  V30 2542 H 243.858 2.24454 2.99285 0
M  V30 2543 H 245.191 2.93734 3.94944 0
M  V30 2544 N 246.843 -1.10192 1.12674 0
M  V30 2545 C 248.073 -1.85713 0.905213 0
M  V30 2546 C 248.481 -1.81056 -0.549108 0
M  V30 2547 O 247.824 -1.19927 -1.39151 0
M  V30 2548 C 247.886 -3.34972 1.30516 0
M  V30 2549 C 247.55 -3.63385 2.77129 0
M  V30 2550 C 248.547 -3.59772 3.75313 0
M  V30 2551 C 246.232 -3.91981 3.14096 0
M  V30 2552 C 248.226 -3.84354 5.08479 0
M  V30 2553 C 245.913 -4.16218 4.47443 0
M  V30 2554 C 246.911 -4.12395 5.44444 0
M  V30 2555 O 246.599 -4.36014 6.75387 0
M  V30 2556 H 246.331 -0.593719 0.323223 0
M  V30 2557 H 248.885 -1.40198 1.50112 0
M  V30 2558 H 247.115 -3.81156 0.652463 0
M  V30 2559 H 248.804 -3.91886 1.05736 0
M  V30 2560 H 249.57 -3.37716 3.48099 0
M  V30 2561 H 245.449 -3.94085 2.39202 0
M  V30 2562 H 248.993 -3.81285 5.84181 0
M  V30 2563 H 244.89 -4.37754 4.74386 0
M  V30 2564 H 245.658 -4.53516 6.8137 0
M  V30 2565 N 248.321 -0.919034 -1.28029 0
M  V30 2566 C 249.549 -0.570971 -1.98866 0
M  V30 2567 C 249.964 0.848996 -1.68634 0
M  V30 2568 O 249.321 1.56307 -0.942036 0
M  V30 2569 C 249.372 -0.776876 -3.53054 0
M  V30 2570 O 249.093 -2.14097 -3.82222 0
M  V30 2571 C 250.594 -0.436356 -4.41147 0
M  V30 2572 H 247.814 -0.217175 -0.634883 0
M  V30 2573 H 250.358 -1.23368 -1.63097 0
M  V30 2574 H 248.513 -0.161085 -3.87065 0
M  V30 2575 H 248.927 -2.18455 -4.76841 0
M  V30 2576 H 250.401 -0.63117 -5.4838 0
M  V30 2577 H 250.878 0.627686 -4.34692 0
M  V30 2578 H 251.484 -1.02991 -4.12641 0
M  V30 2579 N 249.799 1.42003 -0.683588 0
M  V30 2580 C 251.046 2.01413 -0.209514 0
M  V30 2581 C 251.374 1.54088 1.1869 0
M  V30 2582 O 250.629 0.737591 1.81268 0
M  V30 2583 C 250.928 3.56827 -0.202357 0
M  V30 2584 C 250.594 4.23617 -1.54464 0
M  V30 2585 C 249.256 4.41577 -1.91215 0
M  V30 2586 C 251.608 4.61178 -2.42826 0
M  V30 2587 C 248.936 4.9437 -3.15935 0
M  V30 2588 C 251.288 5.15355 -3.66867 0
M  V30 2589 C 249.952 5.31528 -4.03776 0
M  V30 2590 H 249.222 0.737023 -0.0766668 0
M  V30 2591 H 251.869 1.70067 -0.880312 0
M  V30 2592 H 250.174 3.87892 0.551969 0
M  V30 2593 H 251.871 4.00588 0.181793 0
M  V30 2594 H 248.461 4.10004 -1.24877 0
M  V30 2595 H 252.645 4.46968 -2.15717 0
M  V30 2596 H 247.901 5.05076 -3.44541 0
M  V30 2597 H 252.075 5.43402 -4.35531 0
M  V30 2598 H 249.702 5.72199 -5.00492 0
M  V30 2599 N 251.277 0.427512 1.51691 0
M  V30 2600 C 252.523 -0.142439 2.02299 0
M  V30 2601 C 252.856 -1.43214 1.31162 0
M  V30 2602 O 252.131 -1.89833 0.423511 0
M  V30 2603 C 252.414 -0.371301 3.58181 0
M  V30 2604 C 252.267 0.936358 4.39946 0
M  V30 2605 C 253.586 -1.14542 4.24933 0
M  V30 2606 H 250.705 -0.0502937 0.735282 0
M  V30 2607 H 253.347 0.564584 1.81418 0
M  V30 2608 H 251.497 -0.973559 3.76104 0
M  V30 2609 H 253.169 1.57184 4.33694 0
M  V30 2610 H 251.412 1.5432 4.05423 0
M  V30 2611 H 252.083 0.730388 5.47147 0
M  V30 2612 H 254.559 -0.635362 4.11221 0
M  V30 2613 H 253.435 -1.27431 5.33903 0
M  V30 2614 H 253.696 -2.17093 3.85127 0
M  V30 2615 N 252.755 -1.56801 0.158532 0
M  V30 2616 C 253.995 -1.98383 -0.49229 0
M  V30 2617 C 254.359 -1.04184 -1.61275 0
M  V30 2618 O 255.56 -1.34856 -2.32524 0
M  V30 2619 C 253.831 -3.4385 -0.974766 0
M  V30 2620 S 255.39 -4.07459 -1.62857 0
M  V30 2621 H 252.208 -0.693041 -0.158794 0
M  V30 2622 H 254.81 -1.93856 0.252974 0
M  V30 2623 H 253.514 -4.10131 -0.148688 0
M  V30 2624 H 253.045 -3.52115 -1.75438 0
M  V30 2625 H 255.06 -4.01458 -2.91627 0
M  V30 2626 N 254.233 0.115231 -1.57178 0
M  V30 2627 C 255.181 1.16014 -2.01602 0
M  V30 2628 C 256.175 1.42653 -0.913587 0
M  V30 2629 O 257.381 1.42571 -1.09879 0
M  V30 2630 H 253.756 0.391252 -0.642204 0
M  V30 2631 H 255.727 0.758998 -2.88586 0
M  V30 2632 C 254.476 2.47767 -2.4394 0
M  V30 2633 H 253.799 2.28108 -3.28339 0
M  V30 2634 H 255.239 3.19432 -2.78818 0
M  V30 2635 C 253.698 3.10617 -1.30455 0
M  V30 2636 O 254.228 3.96846 -0.622585 0
M  V30 2637 N 252.434 2.70553 -1.06064 0
M  V30 2638 H 251.981 2.00527 -1.61699 0
M  V30 2639 H 251.939 3.12934 -0.303284 0
M  V30 2640 N 255.711 1.52812 0.385517 0
M  V30 2641 C 256.643 1.74096 1.49074 0
M  V30 2642 C 257.656 0.621462 1.50472 0
M  V30 2643 O 258.845 0.897245 1.54311 0
M  V30 2644 C 255.945 1.78774 2.87911 0
M  V30 2645 C 255.118 3.08134 3.10439 0
M  V30 2646 C 254.177 3.04313 4.29278 0
M  V30 2647 O 253.203 3.78168 4.25415 0
M  V30 2648 N 254.405 2.23741 5.35649 0
M  V30 2649 H 257.17 2.69455 1.31202 0
M  V30 2650 H 254.731 1.51343 0.575065 0
M  V30 2651 H 256.723 1.73721 3.65518 0
M  V30 2652 H 255.293 0.907869 2.99126 0
M  V30 2653 H 254.513 3.26649 2.20667 0
M  V30 2654 H 255.801 3.93662 3.22347 0
M  V30 2655 H 255.199 1.63211 5.41645 0
M  V30 2656 H 253.756 2.24524 6.11909 0
M  V30 2657 N 257.189 -0.644168 1.43834 0
M  V30 2658 C 258.099 -1.78563 1.52159 0
M  V30 2659 C 259.115 -1.69147 0.408069 0
M  V30 2660 O 260.291 -1.90156 0.663524 0
M  V30 2661 C 257.356 -3.14888 1.45073 0
M  V30 2662 C 256.417 -3.36034 2.6717 0
M  V30 2663 C 255.65 -4.65855 2.60413 0
M  V30 2664 O 255.873 -5.45805 1.65689 0
M  V30 2665 O 254.807 -4.88918 3.5106 0
M  V30 2666 H 258.633 -1.74494 2.48567 0
M  V30 2667 H 256.218 -0.80378 1.25935 0
M  V30 2668 H 258.1 -3.96179 1.43597 0
M  V30 2669 H 256.775 -3.19528 0.518037 0
M  V30 2670 H 255.682 -2.54472 2.74217 0
M  V30 2671 H 257.015 -3.36247 3.59442 0
M  V30 2672 N 258.668 -1.30515 -0.883378 0
M  V30 2673 C 259.916 -1.19194 -1.63209 0
M  V30 2674 C 260.237 0.253205 -1.93349 0
M  V30 2675 O 259.507 1.17025 -1.57105 0
M  V30 2676 H 258.087 -0.438148 -0.605009 0
M  V30 2677 H 260.749 -1.63663 -1.05832 0
M  V30 2678 H 259.845 -1.75396 -2.58153 0
M  V30 2679 N 260.146 1.09593 -1.13257 0
M  V30 2680 C 261.386 1.83349 -0.903472 0
M  V30 2681 C 261.75 1.83641 0.560351 0
M  V30 2682 O 262.951 2.53037 0.906947 0
M  V30 2683 C 261.222 3.25629 -1.47311 0
M  V30 2684 S 262.781 4.16408 -1.38382 0
M  V30 2685 H 259.599 0.632014 -0.325699 0
M  V30 2686 H 262.201 1.31817 -1.44376 0
M  V30 2687 H 260.905 3.22991 -2.53189 0
M  V30 2688 H 260.436 3.82233 -0.930689 0
M  V30 2689 H 262.451 4.94884 -0.361113 0
M  V30 2690 N 261.624 0.925811 1.2754 0
M  V30 2691 C 262.872 0.564138 1.94067 0
M  V30 2692 C 263.193 -0.897188 1.73134 0
M  V30 2693 O 262.463 -1.63573 1.07799 0
M  V30 2694 H 261.043 0.205645 0.718136 0
M  V30 2695 H 263.705 1.1778 1.55287 0
M  V30 2696 H 262.801 0.76881 3.02483 0
M  V30 2697 N 263.102 -1.41638 0.69111 0
M  V30 2698 C 264.049 -2.30789 0.0229705 0
M  V30 2699 C 265.019 -1.46863 -0.775911 0
M  V30 2700 O 266.204 -1.75661 -0.74485 0
M  V30 2701 C 263.344 -3.32868 -0.910666 0
M  V30 2702 C 262.457 -4.31875 -0.103874 0
M  V30 2703 C 261.592 -5.21024 -1.03475 0
M  V30 2704 C 260.631 -6.11702 -0.220598 0
M  V30 2705 N 259.768 -6.93349 -1.10504 0
M  V30 2706 H 264.608 -2.87366 0.788978 0
M  V30 2707 H 262.145 -1.41535 0.400794 0
M  V30 2708 H 264.103 -3.90596 -1.46597 0
M  V30 2709 H 262.733 -2.77851 -1.64312 0
M  V30 2710 H 261.785 -3.76131 0.568285 0
M  V30 2711 H 263.097 -4.96003 0.527504 0
M  V30 2712 H 262.251 -5.83565 -1.65943 0
M  V30 2713 H 260.99 -4.57112 -1.69999 0
M  V30 2714 H 259.995 -5.48215 0.417187 0
M  V30 2715 H 261.22 -6.77668 0.440784 0
M  V30 2716 H 259.166 -6.3205 -1.75638 0
M  V30 2717 H 259.083 -7.54146 -0.529125 0
M  V30 2718 H 260.351 -7.60362 -1.71667 0
M  V30 2719 N 264.58 -0.43555 -1.51462 0
M  V30 2720 C 265.543 0.365137 -2.26273 0
M  V30 2721 C 266.543 0.951227 -1.29647 0
M  V30 2722 O 267.733 0.825958 -1.53374 0
M  V30 2723 C 264.865 1.51645 -3.05314 0
M  V30 2724 H 266.058 -0.290474 -2.9849 0
M  V30 2725 H 263.611 -0.188676 -1.55157 0
M  V30 2726 H 264.346 2.20816 -2.3751 0
M  V30 2727 H 264.131 1.10238 -3.76284 0
M  V30 2728 H 265.621 2.08218 -3.61987 0
M  V30 2729 N 266.058 1.56714 -0.166846 0
M  V30 2730 C 267.305 1.96747 0.479252 0
M  V30 2731 C 267.633 1.05263 1.63554 0
M  V30 2732 O 266.888 0.0858098 1.95512 0
M  V30 2733 C 267.187 3.42889 1.00806 0
M  V30 2734 C 266.853 4.50889 -0.0318574 0
M  V30 2735 C 265.515 4.8015 -0.317675 0
M  V30 2736 C 267.867 5.15949 -0.737956 0
M  V30 2737 C 265.195 5.71772 -1.31506 0
M  V30 2738 C 267.547 6.08647 -1.72429 0
M  V30 2739 C 266.211 6.36277 -2.0176 0
M  V30 2740 H 265.481 0.719949 0.175371 0
M  V30 2741 H 268.128 1.89756 -0.257864 0
M  V30 2742 H 266.433 3.4681 1.82291 0
M  V30 2743 H 268.13 3.71203 1.51689 0
M  V30 2744 H 264.72 4.28128 0.201088 0
M  V30 2745 H 268.904 4.93458 -0.530351 0
M  V30 2746 H 264.16 5.91465 -1.54853 0
M  V30 2747 H 268.334 6.58129 -2.27682 0
M  V30 2748 H 265.961 7.07075 -2.79194 0
M  V30 2749 N 267.536 -0.106894 1.57237 0
M  V30 2750 C 268.466 -1.13148 2.04254 0
M  V30 2751 C 269.447 -1.42476 0.929224 0
M  V30 2752 O 270.632 -1.52709 1.19973 0
M  V30 2753 C 267.762 -2.4545 2.45706 0
M  V30 2754 C 266.716 -2.30558 3.60592 0
M  V30 2755 C 266.042 -3.67931 3.87983 0
M  V30 2756 C 267.342 -1.75597 4.91897 0
M  V30 2757 H 269.036 -0.740374 2.90101 0
M  V30 2758 H 266.582 -0.354696 1.39563 0
M  V30 2759 H 268.535 -3.17389 2.77205 0
M  V30 2760 H 267.259 -2.86475 1.56843 0
M  V30 2761 H 265.918 -1.61067 3.29322 0
M  V30 2762 H 265.566 -4.06462 2.96306 0
M  V30 2763 H 265.266 -3.58817 4.65322 0
M  V30 2764 H 266.79 -4.41356 4.21945 0
M  V30 2765 H 268.204 -2.37364 5.21854 0
M  V30 2766 H 266.601 -1.77272 5.73319 0
M  V30 2767 H 267.671 -0.714451 4.79608 0
M  V30 2768 N 269.014 -1.53014 -0.377408 0
M  V30 2769 C 270.242 -1.72515 -1.14219 0
M  V30 2770 C 270.657 -0.448735 -1.8339 0
M  V30 2771 O 270.014 0.577592 -1.73119 0
M  V30 2772 C 270.065 -2.8826 -2.18148 0
M  V30 2773 O 269.786 -4.10962 -1.51795 0
M  V30 2774 C 271.287 -3.19536 -3.07264 0
M  V30 2775 H 268.507 -0.577301 -0.342001 0
M  V30 2776 H 271.051 -1.99712 -0.439935 0
M  V30 2777 H 269.206 -2.63492 -2.83991 0
M  V30 2778 H 269.62 -4.75693 -2.20945 0
M  V30 2779 H 271.094 -4.03959 -3.76193 0
M  V30 2780 H 271.571 -2.34403 -3.71419 0
M  V30 2781 H 272.177 -3.46186 -2.47053 0
M  V30 2782 N 270.492 0.636531 -1.44174 0
M  V30 2783 C 271.717 1.42847 -1.50364 0
M  V30 2784 C 272.142 1.87665 -0.127867 0
M  V30 2785 O 271.5 1.58408 0.88185 0
M  V30 2786 C 271.548 2.62854 -2.4686 0
M  V30 2787 O 270.652 3.62501 -1.9664 0
M  V30 2788 H 269.993 0.427642 -0.507955 0
M  V30 2789 H 272.523 0.777422 -1.89255 0
M  V30 2790 H 272.533 3.10465 -2.64718 0
M  V30 2791 H 271.208 2.29578 -3.46795 0
M  V30 2792 H 269.785 3.21735 -1.88523 0
M  V30 2793 N 271.97 1.30982 0.876444 0
M  V30 2794 C 273.2 1.23063 1.65949 0
M  V30 2795 C 273.608 -0.207537 1.88058 0
M  V30 2796 O 272.951 -1.14781 1.43426 0
M  V30 2797 C 273.013 1.89768 3.05333 0
M  V30 2798 C 272.677 3.39106 3.0636 0
M  V30 2799 C 273.674 4.3496 2.84791 0
M  V30 2800 C 271.359 3.80693 3.27686 0
M  V30 2801 C 273.353 5.70375 2.84519 0
M  V30 2802 C 271.04 5.16223 3.27043 0
M  V30 2803 C 272.038 6.10875 3.05485 0
M  V30 2804 O 271.726 7.43928 3.04674 0
M  V30 2805 H 271.458 0.426685 0.524324 0
M  V30 2806 H 274.012 1.7329 1.10271 0
M  V30 2807 H 272.242 1.34082 3.6271 0
M  V30 2808 H 273.931 1.75853 3.65829 0
M  V30 2809 H 274.697 4.0416 2.68103 0
M  V30 2810 H 270.576 3.07457 3.43499 0
M  V30 2811 H 274.12 6.44228 2.67611 0
M  V30 2812 H 270.017 5.4666 3.43269 0
M  V30 2813 H 270.785 7.53022 3.2078 0
M  V30 2814 N 273.449 -1.08991 1.13837 0
M  V30 2815 C 274.674 -1.85551 0.926585 0
M  V30 2816 C 275.099 -1.80782 -0.519566 0
M  V30 2817 O 274.457 -1.18855 -1.36906 0
M  V30 2818 C 274.505 -3.31266 1.42462 0
M  V30 2819 O 273.609 -4.07822 0.612789 0
M  V30 2820 H 272.95 -0.575192 0.331738 0
M  V30 2821 H 275.48 -1.37604 1.51414 0
M  V30 2822 H 275.49 -3.82112 1.43019 0
M  V30 2823 H 274.165 -3.34052 2.47754 0
M  V30 2824 H 272.742 -3.66731 0.675463 0
M  V30 2825 N 274.927 -0.932562 -1.27047 0
M  V30 2826 C 275.857 -0.452902 -2.29066 0
M  V30 2827 C 276.838 0.489338 -1.62909 0
M  V30 2828 O 278.023 0.393046 -1.90181 0
M  V30 2829 C 275.153 0.290698 -3.46081 0
M  V30 2830 C 274.107 -0.564168 -4.24265 0
M  V30 2831 C 273.433 0.308886 -5.33807 0
M  V30 2832 C 274.733 -1.83112 -4.89149 0
M  V30 2833 H 276.427 -1.30552 -2.69437 0
M  V30 2834 H 273.973 -0.629201 -1.29526 0
M  V30 2835 H 275.926 0.637233 -4.16554 0
M  V30 2836 H 274.65 1.17738 -3.0464 0
M  V30 2837 H 273.309 -0.893477 -3.55545 0
M  V30 2838 H 272.957 1.19467 -4.88607 0
M  V30 2839 H 272.657 -0.259633 -5.87026 0
M  V30 2840 H 274.181 0.650884 -6.07121 0
M  V30 2841 H 275.595 -1.55236 -5.51883 0
M  V30 2842 H 273.992 -2.34353 -5.52448 0
M  V30 2843 H 275.062 -2.54772 -4.12576 0
M  V30 2844 N 276.405 1.4127 -0.698611 0
M  V30 2845 C 277.821 1.55241 -0.370462 0
M  V30 2846 C 278.021 1.67351 1.12231 0
M  V30 2847 O 277.077 1.65363 1.90818 0
M  V30 2848 C 278.39 2.78997 -1.12165 0
M  V30 2849 C 279.938 2.92797 -1.1063 0
M  V30 2850 C 280.413 4.19445 -1.8393 0
M  V30 2851 N 281.904 4.26409 -1.80914 0
M  V30 2852 C 282.639 5.23271 -2.34467 0
M  V30 2853 N 282.135 6.26145 -2.96504 0
M  V30 2854 N 283.928 5.15232 -2.24706 0
M  V30 2855 H 276.079 1.31654 -1.66676 0
M  V30 2856 H 278.342 0.635393 -0.703548 0
M  V30 2857 H 278.048 2.76268 -2.17644 0
M  V30 2858 H 277.922 3.70606 -0.702209 0
M  V30 2859 H 280.309 2.95039 -0.0597713 0
M  V30 2860 H 280.39 2.02353 -1.56483 0
M  V30 2861 H 280.034 4.17964 -2.88563 0
M  V30 2862 H 279.964 5.08866 -1.35509 0
M  V30 2863 H 282.455 3.527 -1.35687 0
M  V30 2864 H 282.768 6.96451 -3.34927 0
M  V30 2865 H 281.113 6.26638 -3.00583 0
M  V30 2866 H 284.304 4.33789 -1.7591 0
M  V30 2867 H 284.477 5.90552 -2.66745 0
M  V30 2868 N 277.883 0.443576 1.51229 0
M  V30 2869 C 279.132 -0.122332 2.01329 0
M  V30 2870 C 279.445 -1.43237 1.33201 0
M  V30 2871 O 280.651 -2.0816 1.74304 0
M  V30 2872 C 279.107 -0.268551 3.58897 0
M  V30 2873 C 278.715 1.03142 4.35965 0
M  V30 2874 C 280.459 -0.787894 4.17124 0
M  V30 2875 C 278.366 0.850504 5.85252 0
M  V30 2876 H 277.296 -0.0494929 0.752374 0
M  V30 2877 H 279.947 0.574289 1.74282 0
M  V30 2878 H 278.329 -1.02832 3.82415 0
M  V30 2879 H 279.503 1.80001 4.24189 0
M  V30 2880 H 277.818 1.47977 3.89219 0
M  V30 2881 H 280.415 -0.939841 5.26375 0
M  V30 2882 H 280.758 -1.77201 3.76703 0
M  V30 2883 H 281.291 -0.0862669 3.97706 0
M  V30 2884 H 278.03 1.80718 6.30096 0
M  V30 2885 H 277.55 0.121825 5.99676 0
M  V30 2886 H 279.229 0.506163 6.45017 0
M  V30 2887 N 279.361 -1.56624 0.175154 0
M  V30 2888 C 280.311 -2.14747 -0.766004 0
M  V30 2889 C 281.295 -1.08275 -1.19018 0
M  V30 2890 O 282.487 -1.34388 -1.15191 0
M  V30 2891 C 279.616 -2.79478 -1.99366 0
M  V30 2892 C 278.702 -3.93114 -1.5913 0
M  V30 2893 N 279.093 -4.97752 -0.89872 0
M  V30 2894 C 277.391 -4.04345 -1.88204 0
M  V30 2895 C 278.092 -5.77473 -0.700012 0
M  V30 2896 N 277.068 -5.29207 -1.24263 0
M  V30 2897 H 280.87 -2.93015 -0.22793 0
M  V30 2898 H 278.384 -1.6238 -0.0253843 0
M  V30 2899 H 280.381 -3.19498 -2.67818 0
M  V30 2900 H 279.041 -2.02692 -2.53665 0
M  V30 2901 H 280.052 -5.14903 -0.556347 0
M  V30 2902 H 276.729 -3.38667 -2.44153 0
M  V30 2903 H 278.119 -6.71728 -0.152047 0
M  V30 2904 N 280.839 0.0985539 -1.57292 0
M  V30 2905 C 282.085 0.803867 -1.86188 0
M  V30 2906 C 282.418 1.78549 -0.763794 0
M  V30 2907 O 281.693 1.93153 0.22855 0
M  V30 2908 C 281.976 1.53568 -3.25713 0
M  V30 2909 C 281.829 0.572277 -4.46145 0
M  V30 2910 C 283.148 2.48708 -3.63087 0
M  V30 2911 H 280.267 0.290781 -0.677211 0
M  V30 2912 H 282.909 0.0675783 -1.8988 0
M  V30 2913 H 281.059 2.16332 -3.22696 0
M  V30 2914 H 282.731 -0.0480894 -4.61275 0
M  V30 2915 H 280.974 -0.114618 -4.33649 0
M  V30 2916 H 281.645 1.12139 -5.40489 0
M  V30 2917 H 284.121 1.96039 -3.67026 0
M  V30 2918 H 282.997 2.96932 -4.61652 0
M  V30 2919 H 283.258 3.32309 -2.91588 0
M  V30 2920 N 282.317 1.53212 0.369288 0
M  V30 2921 C 283.733 1.42902 0.710712 0
M  V30 2922 C 283.933 0.565135 1.93413 0
M  V30 2923 O 282.989 0.0461484 2.52458 0
M  V30 2924 C 284.302 2.86042 0.927382 0
M  V30 2925 C 285.85 2.9565 1.02762 0
M  V30 2926 C 286.325 4.39843 1.27679 0
M  V30 2927 N 287.816 4.43256 1.34457 0
M  V30 2928 C 288.551 5.51929 1.55439 0
M  V30 2929 N 288.047 6.70655 1.73762 0
M  V30 2930 N 289.84 5.39502 1.57779 0
M  V30 2931 H 281.991 2.07888 -0.435457 0
M  V30 2932 H 284.254 0.938661 -0.132739 0
M  V30 2933 H 283.96 3.51557 0.100287 0
M  V30 2934 H 283.834 3.29472 1.83653 0
M  V30 2935 H 286.221 2.30291 1.84527 0
M  V30 2936 H 286.302 2.5562 0.0959504 0
M  V30 2937 H 285.946 5.05774 0.464175 0
M  V30 2938 H 285.876 4.77443 2.22162 0
M  V30 2939 H 288.367 3.5769 1.21926 0
M  V30 2940 H 288.68 7.49248 1.89335 0
M  V30 2941 H 287.025 6.73648 1.70948 0
M  V30 2942 H 290.216 4.45713 1.43029 0
M  V30 2943 H 290.389 6.2426 1.7379 0
M  V30 2944 N 283.795 -0.628877 1.44509 0
M  V30 2945 C 285.041 -1.39045 1.47629 0
M  V30 2946 C 285.374 -1.93892 0.109343 0
M  V30 2947 O 284.649 -1.7379 -0.87334 0
M  V30 2948 C 284.932 -2.55408 2.53848 0
M  V30 2949 C 284.785 -2.05896 3.99909 0
M  V30 2950 C 286.104 -3.5759 2.56549 0
M  V30 2951 H 283.223 -0.504232 0.537512 0
M  V30 2952 H 285.865 -0.710854 1.76201 0
M  V30 2953 H 284.015 -3.13384 2.29615 0
M  V30 2954 H 285.687 -1.52734 4.35282 0
M  V30 2955 H 283.93 -1.37061 4.11578 0
M  V30 2956 H 284.601 -2.89681 4.69882 0
M  V30 2957 H 287.077 -3.09419 2.78207 0
M  V30 2958 H 285.953 -4.36527 3.32769 0
M  V30 2959 H 286.214 -4.11808 1.60832 0
M  V30 2960 N 285.273 -1.31445 -0.869486 0
M  V30 2961 C 286.223 -1.15731 -1.96444 0
M  V30 2962 C 287.207 -0.0681855 -1.60755 0
M  V30 2963 O 288.399 -0.293154 -1.74555 0
M  V30 2964 C 285.528 -0.867255 -3.32165 0
M  V30 2965 C 284.614 -1.99738 -3.74119 0
M  V30 2966 N 285.005 -3.24447 -3.88031 0
M  V30 2967 C 283.303 -1.89723 -4.03635 0
M  V30 2968 C 284.004 -3.98374 -4.23879 0
M  V30 2969 N 282.98 -3.26547 -4.3459 0
M  V30 2970 H 286.782 -2.10296 -2.05312 0
M  V30 2971 H 284.296 -1.23009 -1.06031 0
M  V30 2972 H 286.293 -0.735668 -4.10358 0
M  V30 2973 H 284.953 0.0701614 -3.24624 0
M  V30 2974 H 285.964 -3.59557 -3.72746 0
M  V30 2975 H 282.641 -1.03449 -4.04481 0
M  V30 2976 H 284.031 -5.05844 -4.42235 0
M  V30 2977 N 286.751 1.08385 -1.14413 0
M  V30 2978 C 287.979 1.84517 -0.936001 0
M  V30 2979 C 288.394 1.81626 0.515503 0
M  V30 2980 O 287.751 1.22008 1.35721 0
M  V30 2981 C 287.802 3.32049 -1.42918 0
M  V30 2982 O 287.523 3.34951 -2.82381 0
M  V30 2983 C 289.024 4.24986 -1.26103 0
M  V30 2984 H 286.244 0.582491 -0.333084 0
M  V30 2985 H 288.788 1.36885 -1.5193 0
M  V30 2986 H 286.943 3.7707 -0.888641 0
M  V30 2987 H 287.357 4.27048 -3.04517 0
M  V30 2988 H 288.831 5.26615 -1.6547 0
M  V30 2989 H 289.308 4.38726 -0.20392 0
M  V30 2990 H 289.914 3.85791 -1.79012 0
M  V30 2991 N 288.23 0.939286 1.26551 0
M  V30 2992 C 289.177 0.446088 2.26448 0
M  V30 2993 C 290.147 -0.493234 1.58608 0
M  V30 2994 O 291.332 -0.409857 1.86346 0
M  V30 2995 C 288.472 -0.284375 3.43926 0
M  V30 2996 C 287.585 0.690399 4.26448 0
M  V30 2997 C 286.72 -0.0610712 5.31165 0
M  V30 2998 C 285.759 0.905649 6.05363 0
M  V30 2999 N 284.896 0.186055 7.01853 0
M  V30 3000 H 289.736 1.30291 2.68008 0
M  V30 3001 H 287.273 0.65371 1.31776 0
M  V30 3002 H 289.231 -0.724313 4.10864 0
M  V30 3003 H 287.861 -1.10535 3.03285 0
M  V30 3004 H 286.913 1.24885 3.59316 0
M  V30 3005 H 288.225 1.42873 4.779 0
M  V30 3006 H 287.379 -0.56038 6.04106 0
M  V30 3007 H 286.118 -0.832297 4.80546 0
M  V30 3008 H 285.123 1.4161 5.3125 0
M  V30 3009 H 286.348 1.67685 6.58072 0
M  V30 3010 H 284.294 -0.566714 6.53548 0
M  V30 3011 H 284.211 0.863752 7.51049 0
M  V30 3012 H 285.479 -0.292221 7.78952 0
M  V30 3013 N 289.708 -1.40897 0.706093 0
M  V30 3014 C 290.618 -2.3455 0.0482286 0
M  V30 3015 C 291.634 -1.56796 -0.754396 0
M  V30 3016 O 292.81 -1.89228 -0.689538 0
M  V30 3017 C 289.875 -3.35625 -0.869303 0
M  V30 3018 C 288.936 -4.29261 -0.0576994 0
M  V30 3019 C 288.169 -5.25508 -0.931531 0
M  V30 3020 O 288.392 -5.27472 -2.17092 0
M  V30 3021 O 287.326 -6.00727 -0.375587 0
M  V30 3022 H 291.152 -2.92407 0.820476 0
M  V30 3023 H 288.737 -1.4193 0.4665 0
M  V30 3024 H 290.619 -3.97635 -1.39514 0
M  V30 3025 H 289.294 -2.80196 -1.62086 0
M  V30 3026 H 288.201 -3.70566 0.512988 0
M  V30 3027 H 289.534 -4.87817 0.655426 0
M  V30 3028 N 291.186 -0.45159 -1.50991 0
M  V30 3029 C 292.133 0.352625 -2.2809 0
M  V30 3030 C 293.103 1.0044 -1.32291 0
M  V30 3031 O 294.288 1.02058 -1.6121 0
M  V30 3032 C 291.428 1.43983 -3.13629 0
M  V30 3033 C 290.541 0.804772 -4.24438 0
M  V30 3034 C 289.676 1.86822 -4.97263 0
M  V30 3035 C 288.715 1.21236 -5.99973 0
M  V30 3036 N 287.852 2.2178 -6.66152 0
M  V30 3037 H 292.692 -0.311186 -2.96371 0
M  V30 3038 H 290.229 -0.165308 -1.46168 0
M  V30 3039 H 292.187 2.08161 -3.61559 0
M  V30 3040 H 290.817 2.07307 -2.47434 0
M  V30 3041 H 289.869 0.0509129 -3.80366 0
M  V30 3042 H 291.181 0.286076 -4.97979 0
M  V30 3043 H 290.335 2.58628 -5.48813 0
M  V30 3044 H 289.074 2.42068 -4.23385 0
M  V30 3045 H 288.079 0.479828 -5.47702 0
M  V30 3046 H 289.304 0.667051 -6.75816 0
M  V30 3047 H 287.25 2.76079 -5.95077 0
M  V30 3048 H 287.167 1.74841 -7.35504 0
M  V30 3049 H 288.435 2.93026 -7.22327 0
M  V30 3050 N 292.664 1.56529 -0.183458 0
M  V30 3051 C 294.075 1.83739 0.331177 0
M  V30 3052 C 294.426 1.10373 1.62211 0
M  V30 3053 O 293.551 0.36071 2.13373 0
M  V30 3054 C 294.146 3.33306 0.607646 0
M  V30 3055 C 292.705 3.60969 1.06668 0
M  V30 3056 C 291.852 2.77086 0.109029 0
M  V30 3057 H 294.803 1.53379 -0.407484 0
M  V30 3058 H 294.824 3.51444 1.45832 0
M  V30 3059 H 294.336 3.86677 -0.332086 0
M  V30 3060 H 292.437 3.13021 2.0211 0
M  V30 3061 H 292.55 4.69231 0.967447 0
M  V30 3062 H 290.914 2.47319 0.608714 0
M  V30 3063 H 291.697 3.33241 -0.82494 0
M  V30 3064 N 294.142 -0.090211 1.57342 0
M  V30 3065 C 295.389 -0.792807 1.86335 0
M  V30 3066 C 295.717 -1.78494 0.772662 0
M  V30 3067 O 294.972 -1.94305 -0.233258 0
M  V30 3068 C 295.271 -1.55222 3.21933 0
M  V30 3069 C 294.937 -0.701765 4.45406 0
M  V30 3070 C 293.599 -0.467334 4.78925 0
M  V30 3071 C 295.951 -0.11086 5.21082 0
M  V30 3072 C 293.279 0.367785 5.85546 0
M  V30 3073 C 295.631 0.711609 6.28585 0
M  V30 3074 C 294.295 0.956086 6.60617 0
M  V30 3075 H 293.565 -0.290109 0.681849 0
M  V30 3076 H 296.212 -0.0541332 1.91423 0
M  V30 3077 H 294.517 -2.3626 3.12551 0
M  V30 3078 H 296.214 -2.10032 3.41595 0
M  V30 3079 H 292.804 -0.894598 4.1916 0
M  V30 3080 H 296.988 -0.279129 4.95514 0
M  V30 3081 H 292.244 0.566128 6.08773 0
M  V30 3082 H 296.418 1.17632 6.86393 0
M  V30 3083 H 294.045 1.60499 7.43064 0
M  V30 3084 N 295.62 -1.53406 -0.361157 0
M  V30 3085 C 296.53 -1.83122 -1.4664 0
M  V30 3086 C 297.546 -0.719943 -1.58407 0
M  V30 3087 O 298.722 -1.01046 -1.74218 0
M  V30 3088 C 295.787 -2.01891 -2.81853 0
M  V30 3089 C 294.848 -3.25784 -2.79577 0
M  V30 3090 C 294.081 -3.43648 -4.0834 0
M  V30 3091 O 294.304 -2.65714 -5.0473 0
M  V30 3092 O 293.238 -4.37018 -4.13883 0
M  V30 3093 H 297.064 -2.7703 -1.24451 0
M  V30 3094 H 294.649 -1.38841 -0.551678 0
M  V30 3095 H 296.531 -2.15782 -3.61962 0
M  V30 3096 H 295.206 -1.11173 -3.0401 0
M  V30 3097 H 294.113 -3.17312 -1.98151 0
M  V30 3098 H 295.446 -4.16439 -2.62373 0
M  V30 3099 N 297.098 0.621204 -1.44841 0
M  V30 3100 C 298.338 1.39201 -1.49674 0
M  V30 3101 C 298.702 1.91561 -0.129764 0
M  V30 3102 O 299.903 2.68748 -0.0527814 0
M  V30 3103 C 298.174 2.519 -2.53537 0
M  V30 3104 S 299.733 3.39916 -2.77494 0
M  V30 3105 H 296.551 0.474758 -0.529269 0
M  V30 3106 H 299.153 0.718171 -1.81831 0
M  V30 3107 H 297.857 2.11761 -3.51547 0
M  V30 3108 H 297.388 3.241 -2.22986 0
M  V30 3109 H 299.403 4.49646 -2.0984 0
M  V30 3110 N 298.576 1.31904 0.862503 0
M  V30 3111 C 299.853 1.12644 1.59908 0
M  V30 3112 C 300.233 -0.316104 2.0872 0
M  V30 3113 O 299.581 -1.31145 1.87118 0
M  V30 3114 C 299.791 2.1472 2.7513 0
M  V30 3115 C 301.139 2.47637 3.44907 0
M  V30 3116 O 302.163 2.13205 2.85346 0
M  V30 3117 O 301.022 3.06632 4.52371 0
M  V30 3118 H 298.116 0.43416 0.703871 0
M  V30 3119 H 300.662 1.43408 0.907314 0
M  V30 3120 H 299.434 3.1172 2.3653 0
M  V30 3121 H 299.057 1.84905 3.51989 0
M  V30 3122 N 300.054 -1.07777 1.14986 0
M  V30 3123 C 301.3 -1.80557 0.923422 0
M  V30 3124 C 301.633 -1.86298 -0.548337 0
M  V30 3125 O 300.908 -1.34354 -1.40639 0
M  V30 3126 C 301.191 -3.25839 1.53299 0
M  V30 3127 C 301.044 -3.28269 3.07505 0
M  V30 3128 C 302.363 -4.22991 1.21518 0
M  V30 3129 H 299.482 -0.655493 0.336894 0
M  V30 3130 H 302.124 -1.26144 1.42083 0
M  V30 3131 H 300.274 -3.72306 1.10999 0
M  V30 3132 H 301.946 -2.90079 3.58681 0
M  V30 3133 H 300.189 -2.67355 3.4162 0
M  V30 3134 H 300.86 -4.30691 3.45266 0
M  V30 3135 H 303.336 -3.84894 1.581 0
M  V30 3136 H 302.212 -5.22945 1.66793 0
M  V30 3137 H 302.473 -4.41904 0.131505 0
M  V30 3138 N 301.532 -0.945985 -1.26051 0
M  V30 3139 C 302.464 -0.416662 -2.25381 0
M  V30 3140 C 303.477 0.462712 -1.56086 0
M  V30 3141 O 304.666 0.272383 -1.7641 0
M  V30 3142 C 301.766 0.419812 -3.3629 0
M  V30 3143 C 300.939 -0.444531 -4.35135 0
M  V30 3144 C 299.998 0.332305 -5.2515 0
M  V30 3145 O 299.024 -0.266324 -5.68577 0
M  V30 3146 N 300.226 1.62763 -5.57215 0
M  V30 3147 H 302.991 -1.27059 -2.71433 0
M  V30 3148 H 300.552 -0.815392 -1.39868 0
M  V30 3149 H 302.544 0.947013 -3.93464 0
M  V30 3150 H 301.114 1.17456 -2.89694 0
M  V30 3151 H 300.334 -1.15291 -3.76964 0
M  V30 3152 H 301.622 -1.03478 -4.98166 0
M  V30 3153 H 301.02 2.13603 -5.23823 0
M  V30 3154 H 299.577 2.10097 -6.17011 0
M  V30 3155 N 303.011 1.40521 -0.713556 0
M  V30 3156 C 304.259 2.00527 -0.251692 0
M  V30 3157 C 304.58 1.56857 1.15848 0
M  V30 3158 O 303.85 0.807127 1.785 0
M  V30 3159 H 302.43 0.741551 -0.0900646 0
M  V30 3160 H 305.092 1.71887 -0.918733 0
M  V30 3161 H 304.188 3.10813 -0.283192 0
M  V30 3162 N 304.489 0.459591 1.5075 0
M  V30 3163 C 305.729 -0.09824 2.04164 0
M  V30 3164 C 306.093 -1.3801 1.33481 0
M  V30 3165 O 307.294 -2.01959 1.77387 0
M  V30 3166 C 305.565 -0.289467 3.56226 0
M  V30 3167 S 307.124 -0.807507 4.31306 0
M  V30 3168 H 303.942 -0.0213845 0.710678 0
M  V30 3169 H 306.544 0.624098 1.85271 0
M  V30 3170 H 305.248 0.649461 4.05229 0
M  V30 3171 H 304.779 -1.03825 3.79452 0
M  V30 3172 H 306.794 -2.0824 4.50389 0
M  V30 3173 N 305.967 -1.56429 0.191757 0
M  V30 3174 C 306.877 -2.22541 -0.742481 0
M  V30 3175 C 307.893 -1.22342 -1.23727 0
M  V30 3176 O 309.069 -1.55069 -1.28513 0
M  V30 3177 C 306.134 -2.8692 -1.94623 0
M  V30 3178 C 305.195 -4.02378 -1.49633 0
M  V30 3179 C 304.428 -4.63678 -2.6427 0
M  V30 3180 O 304.651 -4.23895 -3.81666 0
M  V30 3181 O 303.585 -5.53202 -2.37174 0
M  V30 3182 H 307.411 -3.02977 -0.209462 0
M  V30 3183 H 304.996 -1.49353 -0.0373832 0
M  V30 3184 H 306.878 -3.27663 -2.64982 0
M  V30 3185 H 305.553 -2.09466 -2.46791 0
M  V30 3186 H 304.46 -3.66265 -0.761636 0
M  V30 3187 H 305.793 -4.81487 -1.02134 0
M  V30 3188 N 307.445 0.0818655 -1.57387 0
M  V30 3189 C 308.392 1.09834 -2.0299 0
M  V30 3190 C 309.362 1.39043 -0.908639 0
M  V30 3191 O 310.547 1.50282 -1.17559 0
M  V30 3192 C 307.687 2.40971 -2.47037 0
M  V30 3193 C 306.8 2.18379 -3.7274 0
M  V30 3194 C 305.935 3.43008 -4.0561 0
M  V30 3195 C 304.974 3.15736 -5.24383 0
M  V30 3196 N 304.111 4.32667 -5.52941 0
M  V30 3197 H 308.951 0.702472 -2.89602 0
M  V30 3198 H 306.488 0.33531 -1.43227 0
M  V30 3199 H 308.446 3.1752 -2.70623 0
M  V30 3200 H 307.076 2.78379 -1.63417 0
M  V30 3201 H 306.128 1.32569 -3.56552 0
M  V30 3202 H 307.44 1.94227 -4.59431 0
M  V30 3203 H 306.594 4.27958 -4.30043 0
M  V30 3204 H 305.333 3.70225 -3.17466 0
M  V30 3205 H 304.338 2.2918 -4.99757 0
M  V30 3206 H 305.563 2.8985 -6.14136 0
M  V30 3207 H 303.509 4.59935 -4.67756 0
M  V30 3208 H 303.426 4.11753 -6.34031 0
M  V30 3209 H 304.694 5.18644 -5.81918 0
M  V30 3210 N 308.923 1.53595 0.353017 0
M  V30 3211 C 309.886 1.80232 1.41594 0
M  V30 3212 C 310.886 0.673081 1.46035 0
M  V30 3213 O 312.076 0.941335 1.46576 0
M  V30 3214 C 309.208 1.93578 2.80607 0
M  V30 3215 H 310.401 2.75174 1.19244 0
M  V30 3216 H 307.954 1.44864 0.586872 0
M  V30 3217 H 308.689 1.00746 3.08254 0
M  V30 3218 H 308.474 2.75724 2.78781 0
M  V30 3219 H 309.964 2.15735 3.57558 0
M  V30 3220 N 310.401 -0.613514 1.45168 0
M  V30 3221 C 311.648 -1.37268 1.48875 0
M  V30 3222 C 311.976 -1.94077 0.128161 0
M  V30 3223 O 311.231 -1.75178 -0.872416 0
M  V30 3224 C 311.53 -2.54347 2.51083 0
M  V30 3225 C 311.196 -2.1572 3.95949 0
M  V30 3226 C 309.858 -2.04899 4.35396 0
M  V30 3227 C 312.21 -1.85485 4.87078 0
M  V30 3228 C 309.538 -1.62057 5.63875 0
M  V30 3229 C 311.89 -1.4413 6.15962 0
M  V30 3230 C 310.554 -1.31863 6.54346 0
M  V30 3231 H 309.824 -0.502299 0.544773 0
M  V30 3232 H 312.471 -0.694021 1.78481 0
M  V30 3233 H 310.776 -3.27524 2.15024 0
M  V30 3234 H 312.473 -3.12577 2.51191 0
M  V30 3235 H 309.063 -2.25066 3.64751 0
M  V30 3236 H 313.247 -1.92745 4.57343 0
M  V30 3237 H 308.503 -1.51177 5.92415 0
M  V30 3238 H 312.677 -1.19778 6.86022 0
M  V30 3239 H 310.304 -0.984392 7.538 0
M  V30 3240 N 311.879 -1.3236 -0.855495 0
M  V30 3241 C 312.827 -1.2118 -1.9854 0
M  V30 3242 C 313.821 -0.116788 -1.68997 0
M  V30 3243 O 315.027 -0.279657 -1.77814 0
M  V30 3244 H 311.402 -0.375608 -0.651477 0
M  V30 3245 H 313.373 -2.16743 -2.05098 0
M  V30 3246 C 312.122 -0.950849 -3.34446 0
M  V30 3247 H 311.445 -1.78563 -3.57708 0
M  V30 3248 H 312.885 -0.912863 -4.14057 0
M  V30 3249 C 311.344 0.346404 -3.35114 0
M  V30 3250 O 311.874 1.35855 -3.7803 0
M  V30 3251 N 310.08 0.36808 -2.88259 0
M  V30 3252 H 309.627 -0.456102 -2.5353 0
M  V30 3253 H 309.585 1.23591 -2.89089 0
M  V30 3254 N 313.357 1.07166 -1.15556 0
M  V30 3255 C 314.585 1.83514 -0.955519 0
M  V30 3256 C 315 1.82163 0.49621 0
M  V30 3257 O 314.357 1.23441 1.34419 0
M  V30 3258 C 314.408 3.30515 -1.46432 0
M  V30 3259 O 314.129 3.31937 -2.85918 0
M  V30 3260 C 315.63 4.23625 -1.30603 0
M  V30 3261 H 312.85 0.578926 -0.339244 0
M  V30 3262 H 315.394 1.35265 -1.53374 0
M  V30 3263 H 313.549 3.76106 -0.928584 0
M  V30 3264 H 313.963 4.23794 -3.09029 0
M  V30 3265 H 315.437 5.24831 -1.71047 0
M  V30 3266 H 315.914 4.38485 -0.250441 0
M  V30 3267 H 316.52 3.83871 -1.83094 0
M  V30 3268 N 314.835 0.952656 1.25548 0
M  V30 3269 C 315.765 0.489287 2.28316 0
M  V30 3270 C 316.746 -0.463359 1.63667 0
M  V30 3271 O 317.931 -0.36274 1.90782 0
M  V30 3272 C 315.061 -0.235603 3.465 0
M  V30 3273 C 314.015 0.631593 4.23314 0
M  V30 3274 C 313.341 -0.223923 5.34231 0
M  V30 3275 C 314.641 1.90871 4.86174 0
M  V30 3276 H 316.335 1.34822 2.67326 0
M  V30 3277 H 313.881 0.649728 1.28509 0
M  V30 3278 H 315.834 -0.570882 4.17515 0
M  V30 3279 H 314.558 -1.12877 3.06474 0
M  V30 3280 H 313.217 0.949929 3.54079 0
M  V30 3281 H 312.865 -1.11678 4.90446 0
M  V30 3282 H 312.565 0.35299 5.86539 0
M  V30 3283 H 314.089 -0.554214 6.0808 0
M  V30 3284 H 315.503 1.63997 5.49343 0
M  V30 3285 H 313.9 2.43112 5.4865 0
M  V30 3286 H 314.97 2.61304 4.08471 0
M  V30 3287 N 316.313 -1.40141 0.720998 0
M  V30 3288 C 317.543 -2.04798 0.27226 0
M  V30 3289 C 317.951 -1.54442 -1.09289 0
M  V30 3290 O 317.294 -0.698342 -1.69908 0
M  V30 3291 C 317.356 -3.59048 0.18027 0
M  V30 3292 C 317.02 -4.32317 1.48159 0
M  V30 3293 C 318.017 -4.59902 2.42458 0
M  V30 3294 C 315.702 -4.71125 1.74202 0
M  V30 3295 C 317.696 -5.25288 3.61042 0
M  V30 3296 C 315.383 -5.36242 2.93066 0
M  V30 3297 C 316.381 -5.63254 3.86308 0
M  V30 3298 O 316.069 -6.27024 5.03086 0
M  V30 3299 H 315.801 -0.665419 0.119139 0
M  V30 3300 H 318.355 -1.80436 0.981432 0
M  V30 3301 H 316.585 -3.82251 -0.58489 0
M  V30 3302 H 318.274 -4.05221 -0.234618 0
M  V30 3303 H 319.04 -4.30379 2.23604 0
M  V30 3304 H 314.919 -4.49466 1.02477 0
M  V30 3305 H 318.463 -5.46289 4.33837 0
M  V30 3306 H 314.36 -5.65185 3.11826 0
M  V30 3307 H 315.128 -6.4552 5.03235 0
M  V30 3308 N 317.792 -0.46758 -1.50504 0
M  V30 3309 C 319.208 -0.121533 -1.59137 0
M  V30 3310 C 319.408 1.3717 -1.47603 0
M  V30 3311 O 318.464 2.14464 -1.33272 0
M  V30 3312 C 319.777 -0.6686 -2.93173 0
M  V30 3313 C 321.325 -0.631716 -3.06559 0
M  V30 3314 C 321.8 -1.15627 -4.43164 0
M  V30 3315 N 323.291 -1.11553 -4.49567 0
M  V30 3316 C 324.026 -1.49195 -5.5365 0
M  V30 3317 N 323.522 -1.94269 -6.65005 0
M  V30 3318 N 325.315 -1.4082 -5.44175 0
M  V30 3319 H 317.466 -1.4388 -1.56245 0
M  V30 3320 H 319.729 -0.594784 -0.738198 0
M  V30 3321 H 319.435 -1.71453 -3.07078 0
M  V30 3322 H 319.309 -0.11021 -3.77039 0
M  V30 3323 H 321.696 0.405297 -2.92304 0
M  V30 3324 H 321.777 -1.22687 -2.24458 0
M  V30 3325 H 321.421 -2.1919 -4.58168 0
M  V30 3326 H 321.351 -0.537365 -5.23851 0
M  V30 3327 H 323.842 -0.784895 -3.69659 0
M  V30 3328 H 324.155 -2.21148 -7.40482 0
M  V30 3329 H 322.5 -1.98219 -6.66134 0
M  V30 3330 H 325.691 -1.0545 -4.56068 0
M  V30 3331 H 325.864 -1.70481 -6.25172 0
M  V30 3332 N 319.27 1.56325 -0.20005 0
M  V30 3333 C 320.2 2.22318 0.713916 0
M  V30 3334 C 321.181 1.18788 1.21752 0
M  V30 3335 O 322.366 1.47309 1.26545 0
M  V30 3336 C 319.496 2.88639 1.93144 0
M  V30 3337 C 318.45 3.98457 1.56255 0
M  V30 3338 C 317.776 4.51967 2.85709 0
M  V30 3339 C 319.076 5.16612 0.768747 0
M  V30 3340 H 320.77 2.98952 0.163755 0
M  V30 3341 H 318.316 1.43792 0.0773219 0
M  V30 3342 H 320.269 3.33491 2.57608 0
M  V30 3343 H 318.993 2.09419 2.50621 0
M  V30 3344 H 317.652 3.54305 0.941471 0
M  V30 3345 H 317.3 3.69503 3.41287 0
M  V30 3346 H 317 5.26071 2.6177 0
M  V30 3347 H 318.524 4.99523 3.51154 0
M  V30 3348 H 319.938 5.57977 1.3166 0
M  V30 3349 H 318.335 5.96812 0.627286 0
M  V30 3350 H 319.405 4.84358 -0.229168 0
M  V30 3351 N 320.748 -0.0735177 1.57428 0
M  V30 3352 C 321.695 -1.08756 2.0357 0
M  V30 3353 C 322.665 -1.38559 0.916 0
M  V30 3354 O 323.85 -1.49656 1.18354 0
M  V30 3355 C 320.99 -2.39657 2.48311 0
M  V30 3356 C 320.103 -2.16399 3.73892 0
M  V30 3357 C 319.238 -3.40852 4.07423 0
M  V30 3358 C 318.277 -3.1295 5.2605 0
M  V30 3359 N 317.414 -4.29729 5.55228 0
M  V30 3360 H 322.254 -0.687104 2.8997 0
M  V30 3361 H 319.791 -0.327709 1.43403 0
M  V30 3362 H 321.749 -3.16081 2.72303 0
M  V30 3363 H 320.379 -2.77508 1.64891 0
M  V30 3364 H 319.431 -1.30676 3.57251 0
M  V30 3365 H 320.743 -1.91788 4.60455 0
M  V30 3366 H 319.897 -4.25671 4.32306 0
M  V30 3367 H 318.636 -3.68537 3.19425 0
M  V30 3368 H 317.641 -2.26526 5.00965 0
M  V30 3369 H 318.866 -2.86589 6.15665 0
M  V30 3370 H 316.812 -4.57448 4.70188 0
M  V30 3371 H 316.729 -4.08385 6.36206 0
M  V30 3372 H 317.997 -5.1555 5.84661 0
M  V30 3373 N 322.226 -1.5378 -0.344866 0
M  V30 3374 C 323.189 -1.80981 -1.40637 0
M  V30 3375 C 324.189 -0.680816 -1.45676 0
M  V30 3376 O 325.379 -0.949095 -1.46075 0
M  V30 3377 C 322.511 -1.95063 -2.79577 0
M  V30 3378 H 323.704 -2.75803 -1.17783 0
M  V30 3379 H 321.257 -1.45173 -0.579181 0
M  V30 3380 H 321.992 -1.02379 -3.07716 0
M  V30 3381 H 321.777 -2.77198 -2.77315 0
M  V30 3382 H 323.267 -2.17629 -3.56409 0
M  V30 3383 N 323.704 0.605807 -1.45491 0
M  V30 3384 C 324.654 1.71074 -1.50724 0
M  V30 3385 C 325.638 1.5658 -0.37033 0
M  V30 3386 O 326.83 1.65887 -0.617299 0
M  V30 3387 C 323.959 3.0983 -1.47852 0
M  V30 3388 C 323.045 3.29704 -2.66751 0
M  V30 3389 N 323.436 3.19831 -3.91844 0
M  V30 3390 C 321.734 3.60579 -2.62486 0
M  V30 3391 C 322.435 3.41083 -4.71208 0
M  V30 3392 N 321.411 3.65157 -4.02693 0
M  V30 3393 H 325.213 1.61937 -2.45263 0
M  V30 3394 H 322.727 0.80912 -1.40808 0
M  V30 3395 H 324.724 3.89101 -1.49686 0
M  V30 3396 H 323.384 3.20115 -0.543714 0
M  V30 3397 H 324.395 2.98194 -4.23439 0
M  V30 3398 H 321.072 3.7769 -1.77922 0
M  V30 3399 H 322.462 3.38828 -5.80211 0
M  V30 3400 N 325.182 1.32811 0.848464 0
M  V30 3401 C 326.114 1.18095 1.96433 0
M  V30 3402 C 327.127 0.114354 1.62398 0
M  V30 3403 O 328.316 0.363892 1.74751 0
M  V30 3404 C 325.416 0.786798 3.2964 0
M  V30 3405 C 324.589 1.943 3.91875 0
M  V30 3406 C 323.648 1.53138 5.03423 0
M  V30 3407 O 322.674 2.24432 5.23086 0
M  V30 3408 N 323.876 0.430915 5.78898 0
M  V30 3409 H 326.641 2.14218 2.09597 0
M  V30 3410 H 324.202 1.2543 1.02367 0
M  V30 3411 H 326.194 0.493715 4.01677 0
M  V30 3412 H 324.764 -0.0834541 3.12489 0
M  V30 3413 H 323.984 2.40224 3.12547 0
M  V30 3414 H 325.272 2.71689 4.30189 0
M  V30 3415 H 324.67 -0.162333 5.65467 0
M  V30 3416 H 323.227 0.197466 6.51501 0
M  V30 3417 N 326.66 -1.06551 1.16123 0
M  V30 3418 C 328.076 -1.3142 0.905585 0
M  V30 3419 C 328.276 -1.96571 -0.442964 0
M  V30 3420 O 327.332 -2.23068 -1.18308 0
M  V30 3421 C 328.645 -2.19741 2.05267 0
M  V30 3422 C 330.193 -2.33165 2.08813 0
M  V30 3423 C 330.668 -3.24838 3.22868 0
M  V30 3424 N 332.159 -3.32421 3.22568 0
M  V30 3425 C 332.894 -4.0344 4.0746 0
M  V30 3426 N 332.39 -4.77003 5.02434 0
M  V30 3427 N 334.183 -3.99464 3.95456 0
M  V30 3428 H 326.334 -0.626548 2.02949 0
M  V30 3429 H 328.597 -0.338777 0.8854 0
M  V30 3430 H 328.303 -1.79142 3.02657 0
M  V30 3431 H 328.177 -3.20313 1.99198 0
M  V30 3432 H 330.564 -2.73013 1.12018 0
M  V30 3433 H 330.645 -1.3227 2.18948 0
M  V30 3434 H 330.289 -2.85708 4.19921 0
M  V30 3435 H 330.219 -4.25707 3.0997 0
M  V30 3436 H 332.71 -2.79994 2.53795 0
M  V30 3437 H 333.023 -5.28712 5.63634 0
M  V30 3438 H 331.368 -4.75992 5.06415 0
M  V30 3439 H 334.559 -3.4111 3.20564 0
M  V30 3440 H 334.732 -4.54544 4.61837 0
M  V30 3441 N 328.138 -0.959301 -1.25041 0
M  V30 3442 C 329.068 -0.501388 -2.28053 0
M  V30 3443 C 330.049 0.454673 -1.63911 0
M  V30 3444 O 331.234 0.352618 -1.90972 0
M  V30 3445 C 328.364 0.217224 -3.4662 0
M  V30 3446 C 327.318 -0.654034 -4.22973 0
M  V30 3447 C 326.644 0.195589 -5.34342 0
M  V30 3448 C 327.944 -1.93447 -4.85155 0
M  V30 3449 H 329.638 -1.36238 -2.66608 0
M  V30 3450 H 327.184 -0.656534 -1.28163 0
M  V30 3451 H 329.137 0.548732 -4.17812 0
M  V30 3452 H 327.861 1.1125 -3.07068 0
M  V30 3453 H 326.52 -0.968693 -3.5357 0
M  V30 3454 H 326.168 1.09076 -4.91031 0
M  V30 3455 H 325.868 -0.384091 -5.86343 0
M  V30 3456 H 327.392 0.521958 -6.08365 0
M  V30 3457 H 328.806 -1.66908 -5.48466 0
M  V30 3458 H 327.203 -2.46018 -5.47353 0
M  V30 3459 H 328.273 -2.63466 -4.07079 0
M  V30 3460 N 329.616 1.39756 -0.72842 0
M  V30 3461 C 330.566 2.2792 -0.0603424 0
M  V30 3462 C 331.55 1.43922 0.719399 0
M  V30 3463 O 332.742 1.66895 0.589489 0
M  V30 3464 C 329.871 3.32582 0.851104 0
M  V30 3465 C 328.957 4.24049 0.0658641 0
M  V30 3466 N 329.348 4.96653 -0.957578 0
M  V30 3467 C 327.646 4.45013 0.296509 0
M  V30 3468 C 328.347 5.63836 -1.43052 0
M  V30 3469 N 327.323 5.38397 -0.750315 0
M  V30 3470 H 331.125 2.81504 -0.84455 0
M  V30 3471 H 328.639 1.5236 -0.562155 0
M  V30 3472 H 330.636 3.94603 1.34514 0
M  V30 3473 H 329.296 2.80558 1.63454 0
M  V30 3474 H 330.307 5.00297 -1.33877 0
M  V30 3475 H 326.984 4.03943 1.05527 0
M  V30 3476 H 328.374 6.31974 -2.28163 0
M  V30 3477 N 331.094 0.475555 1.50254 0
M  V30 3478 C 332.322 -0.0754493 2.06762 0
M  V30 3479 C 332.737 -1.33111 1.33891 0
M  V30 3480 O 332.094 -1.77846 0.40952 0
M  V30 3481 C 332.145 -0.359008 3.59713 0
M  V30 3482 O 331.866 0.846851 4.29837 0
M  V30 3483 C 333.367 -0.956484 4.32858 0
M  V30 3484 H 330.587 0.00907525 0.670939 0
M  V30 3485 H 333.131 0.665618 1.93364 0
M  V30 3486 H 331.286 -1.05001 3.72899 0
M  V30 3487 H 331.7 0.594162 5.21124 0
M  V30 3488 H 333.174 -1.10463 5.40834 0
M  V30 3489 H 333.651 -1.94775 3.93649 0
M  V30 3490 H 334.257 -0.303723 4.24214 0
M  V30 3491 N 332.573 -1.56217 0.208337 0
M  V30 3492 C 333.821 -1.97558 -0.426076 0
M  V30 3493 C 334.142 -1.09683 -1.61229 0
M  V30 3494 O 333.412 -0.170956 -1.95153 0
M  V30 3495 H 331.992 -0.729575 -0.160405 0
M  V30 3496 H 334.654 -1.92606 0.298155 0
M  V30 3497 H 333.75 -3.02672 -0.761312 0
M  V30 3498 N 334.051 0.0651679 -1.57465 0
M  V30 3499 C 334.998 1.07675 -2.04144 0
M  V30 3500 C 335.968 1.38071 -0.923335 0
M  V30 3501 O 337.153 1.49026 -1.19146 0
M  V30 3502 C 334.293 2.38337 -2.49579 0
M  V30 3503 C 333.406 2.14413 -3.75035 0
M  V30 3504 C 332.541 3.38686 -4.09225 0
M  V30 3505 C 331.58 3.10156 -5.27702 0
M  V30 3506 N 330.717 4.26778 -5.57499 0
M  V30 3507 H 335.557 0.671716 -2.90331 0
M  V30 3508 H 333.094 0.3201 -1.43575 0
M  V30 3509 H 335.052 3.14632 -2.73975 0
M  V30 3510 H 333.682 2.7663 -1.6636 0
M  V30 3511 H 332.734 1.2878 -3.57939 0
M  V30 3512 H 334.046 1.89344 -4.61466 0
M  V30 3513 H 333.2 4.23373 -4.34558 0
M  V30 3514 H 331.939 3.66837 -3.21374 0
M  V30 3515 H 330.944 2.23866 -5.02159 0
M  V30 3516 H 332.169 2.8332 -6.17176 0
M  V30 3517 H 330.115 4.54948 -4.72608 0
M  V30 3518 H 330.032 4.05005 -6.38362 0
M  V30 3519 H 331.3 5.12443 -5.87386 0
M  V30 3520 N 335.529 1.53961 0.336706 0
M  V30 3521 C 336.757 1.75483 1.09605 0
M  V30 3522 C 337.172 0.4972 1.82136 0
M  V30 3523 O 336.529 -0.53149 1.74589 0
M  V30 3524 C 336.58 2.93943 2.10428 0
M  V30 3525 O 336.301 4.14842 1.40846 0
M  V30 3526 C 337.802 3.27571 2.98684 0
M  V30 3527 H 335.022 0.586166 0.326574 0
M  V30 3528 H 337.566 2.00808 0.38683 0
M  V30 3529 H 335.721 2.70929 2.76905 0
M  V30 3530 H 336.135 4.81383 2.08255 0
M  V30 3531 H 337.609 4.13791 3.6535 0
M  V30 3532 H 338.086 2.44168 3.65074 0
M  V30 3533 H 338.692 3.52615 2.37787 0
M  V30 3534 N 337.007 -0.598083 1.45811 0
M  V30 3535 C 338.254 -1.35681 1.50323 0
M  V30 3536 C 338.582 -1.9393 0.148739 0
M  V30 3537 O 337.837 -1.76094 -0.853787 0
M  V30 3538 C 338.136 -2.51669 2.53766 0
M  V30 3539 C 337.802 -2.11508 3.98215 0
M  V30 3540 C 336.464 -2.0027 4.37545 0
M  V30 3541 C 338.816 -1.80308 4.89018 0
M  V30 3542 C 336.144 -1.56067 5.65562 0
M  V30 3543 C 338.496 -1.37589 6.17456 0
M  V30 3544 C 337.16 -1.24916 6.55708 0
M  V30 3545 H 336.43 -0.496492 0.550069 0
M  V30 3546 H 339.077 -0.675052 1.79207 0
M  V30 3547 H 337.382 -3.25225 2.18486 0
M  V30 3548 H 339.079 -3.09895 2.54492 0
M  V30 3549 H 335.669 -2.21185 3.67117 0
M  V30 3550 H 339.853 -1.87884 4.59362 0
M  V30 3551 H 335.109 -1.44886 5.93985 0
M  V30 3552 H 339.283 -1.12495 6.87254 0
M  V30 3553 H 336.91 -0.904386 7.54801 0
M  V30 3554 N 338.485 -1.33259 -0.841409 0
M  V30 3555 C 339.433 -1.23279 -1.97244 0
M  V30 3556 C 340.427 -0.134706 -1.68864 0
M  V30 3557 O 341.633 -0.298501 -1.77508 0
M  V30 3558 H 338.008 -0.382497 -0.647457 0
M  V30 3559 H 339.979 -2.18906 -2.02787 0
M  V30 3560 C 338.728 -0.986268 -3.33419 0
M  V30 3561 H 338.051 -1.82347 -3.55794 0
M  V30 3562 H 339.491 -0.956728 -4.13065 0
M  V30 3563 C 337.95 0.310842 -3.35463 0
M  V30 3564 O 338.48 1.31838 -3.79449 0
M  V30 3565 N 336.686 0.337485 -2.88634 0
M  V30 3566 H 336.233 -0.482967 -2.53032 0
M  V30 3567 H 336.191 1.20518 -2.90384 0
M  V30 3568 N 339.963 1.05934 -1.16686 0
M  V30 3569 C 341.203 1.80382 -0.961345 0
M  V30 3570 C 341.567 1.85331 0.501643 0
M  V30 3571 O 342.768 2.55795 0.825986 0
M  V30 3572 C 341.039 3.20777 -1.57596 0
M  V30 3573 S 342.598 4.11795 -1.51559 0
M  V30 3574 H 339.416 0.621332 -0.345641 0
M  V30 3575 H 342.018 1.27157 -1.48497 0
M  V30 3576 H 340.722 3.14773 -2.63337 0
M  V30 3577 H 340.253 3.79078 -1.05182 0
M  V30 3578 H 342.268 4.93485 -0.518374 0
M  V30 3579 N 341.441 0.965919 1.2453 0
M  V30 3580 C 342.351 0.502154 2.29163 0
M  V30 3581 C 343.367 -0.436017 1.68448 0
M  V30 3582 O 344.543 -0.309497 1.99008 0
M  V30 3583 C 341.608 -0.201956 3.46111 0
M  V30 3584 C 340.669 0.775821 4.22232 0
M  V30 3585 C 339.902 0.105217 5.33596 0
M  V30 3586 O 340.125 -1.10683 5.59558 0
M  V30 3587 O 339.059 0.796475 5.96607 0
M  V30 3588 H 342.885 1.37194 2.70946 0
M  V30 3589 H 340.47 0.732875 1.30189 0
M  V30 3590 H 342.352 -0.597564 4.17142 0
M  V30 3591 H 341.027 -1.04673 3.06309 0
M  V30 3592 H 339.934 1.22185 3.53584 0
M  V30 3593 H 341.267 1.58896 4.65846 0
M  V30 3594 N 342.919 -1.39368 0.735821 0
M  V30 3595 C 344.144 -2.05319 0.293052 0
M  V30 3596 C 344.569 -1.55115 -1.064 0
M  V30 3597 O 343.927 -0.695261 -1.67439 0
M  V30 3598 C 343.975 -3.59305 0.305323 0
M  V30 3599 O 343.079 -4.06299 -0.706761 0
M  V30 3600 H 342.42 -0.650529 0.13307 0
M  V30 3601 H 344.95 -1.78386 1.00197 0
M  V30 3602 H 344.96 -4.07724 0.149997 0
M  V30 3603 H 343.635 -3.95207 1.29553 0
M  V30 3604 H 342.212 -3.69292 -0.517504 0
M  V30 3605 N 344.397 -0.483516 -1.5 0
M  V30 3606 C 345.307 0.309172 -2.32554 0
M  V30 3607 C 346.323 0.984159 -1.43493 0
M  V30 3608 O 347.499 0.969399 -1.76535 0
M  V30 3609 C 344.564 1.36979 -3.18493 0
M  V30 3610 C 343.625 0.710095 -4.23387 0
M  V30 3611 C 342.858 1.72018 -5.05218 0
M  V30 3612 O 343.081 2.94813 -4.88305 0
M  V30 3613 O 342.015 1.28515 -5.8802 0
M  V30 3614 H 345.841 -0.366064 -3.01486 0
M  V30 3615 H 343.426 -0.24514 -1.47375 0
M  V30 3616 H 345.308 1.98385 -3.71781 0
M  V30 3617 H 343.983 2.02828 -2.52275 0
M  V30 3618 H 342.89 0.0567539 -3.74057 0
M  V30 3619 H 344.223 0.0943557 -4.9211 0
M  V30 3620 N 345.875 1.56104 -0.216619 0
M  V30 3621 C 347.123 1.97781 0.415593 0
M  V30 3622 C 347.444 1.10536 1.60645 0
M  V30 3623 O 346.714 0.181303 1.95059 0
M  V30 3624 H 345.294 0.730415 0.156534 0
M  V30 3625 H 347.956 1.92445 -0.308366 0
M  V30 3626 H 347.052 3.03072 0.74525 0
M  V30 3627 N 347.353 -0.0568162 1.57498 0
M  V30 3628 C 348.593 -0.758273 1.89815 0
M  V30 3629 C 348.957 -1.73978 0.812132 0
M  V30 3630 O 350.158 -2.48744 1.01881 0
M  V30 3631 C 348.429 -1.43465 3.27342 0
M  V30 3632 S 349.988 -2.1691 3.81439 0
M  V30 3633 H 346.806 -0.251836 0.664906 0
M  V30 3634 H 349.408 -0.0137997 1.95495 0
M  V30 3635 H 348.112 -0.706693 4.0427 0
M  V30 3636 H 347.643 -2.21825 3.24896 0
M  V30 3637 H 349.658 -3.43658 3.5793 0
M  V30 3638 N 348.832 -1.54138 -0.328536 0
M  V30 3639 C 350.057 -1.76378 -1.09112 0
M  V30 3640 C 350.482 -0.508596 -1.81094 0
M  V30 3641 O 349.84 0.539598 -1.73084 0
M  V30 3642 C 349.888 -2.95358 -2.06872 0
M  V30 3643 O 348.992 -2.66556 -3.14677 0
M  V30 3644 H 348.333 -0.584614 -0.314838 0
M  V30 3645 H 350.863 -2.01146 -0.374348 0
M  V30 3646 H 350.873 -3.22566 -2.4983 0
M  V30 3647 H 349.548 -3.86385 -1.5388 0
M  V30 3648 H 348.125 -2.50282 -2.7643 0
M  V30 3649 N 350.31 0.590341 -1.46126 0
M  V30 3650 C 351.257 1.69994 -1.56111 0
M  V30 3651 C 352.227 1.61065 -0.405867 0
M  V30 3652 O 353.412 1.8039 -0.621613 0
M  V30 3653 C 350.552 3.08326 -1.55013 0
M  V30 3654 C 349.665 3.27936 -2.81215 0
M  V30 3655 C 348.8 4.56473 -2.71673 0
M  V30 3656 C 347.839 4.694 -3.92849 0
M  V30 3657 N 346.976 5.89254 -3.81738 0
M  V30 3658 H 351.816 1.60797 -2.50895 0
M  V30 3659 H 349.353 0.783799 -1.24479 0
M  V30 3660 H 351.311 3.88383 -1.52362 0
M  V30 3661 H 349.941 3.16439 -0.637667 0
M  V30 3662 H 348.993 2.41536 -2.93879 0
M  V30 3663 H 350.305 3.33357 -3.71045 0
M  V30 3664 H 349.459 5.44748 -2.67085 0
M  V30 3665 H 348.198 4.53477 -1.7947 0
M  V30 3666 H 347.203 3.79544 -3.97777 0
M  V30 3667 H 348.428 4.7418 -4.86138 0
M  V30 3668 H 346.374 5.87271 -2.92317 0
M  V30 3669 H 346.291 5.95911 -4.65217 0
M  V30 3670 H 347.559 6.79981 -3.81112 0
M  V30 3671 N 351.788 1.33704 0.83433 0
M  V30 3672 C 353.018 1.28281 1.6195 0
M  V30 3673 C 353.426 -0.147603 1.88623 0
M  V30 3674 O 352.769 -1.1016 1.47005 0
M  V30 3675 C 352.831 1.99386 2.99141 0
M  V30 3676 C 352.495 3.48681 2.95416 0
M  V30 3677 C 353.492 4.438 2.70809 0
M  V30 3678 C 351.177 3.90925 3.15409 0
M  V30 3679 C 353.171 5.79138 2.66229 0
M  V30 3680 C 350.858 5.26366 3.10454 0
M  V30 3681 C 351.856 6.20284 2.85895 0
M  V30 3682 O 351.544 7.53245 2.80852 0
M  V30 3683 H 351.276 0.44315 0.510484 0
M  V30 3684 H 353.83 1.76711 1.04702 0
M  V30 3685 H 352.06 1.45554 3.58261 0
M  V30 3686 H 353.749 1.87403 3.60049 0
M  V30 3687 H 354.515 4.12485 2.5511 0
M  V30 3688 H 350.394 3.18229 3.33543 0
M  V30 3689 H 353.938 6.52416 2.4698 0
M  V30 3690 H 349.835 5.57304 3.25703 0
M  V30 3691 H 350.603 7.62846 2.96661 0
M  V30 3692 N 353.266 -1.05314 1.17247 0
M  V30 3693 C 354.513 -1.78293 0.960091 0
M  V30 3694 C 354.841 -1.87658 -0.51136 0
M  V30 3695 O 354.096 -1.3718 -1.39571 0
M  V30 3696 C 354.395 -3.2229 1.54479 0
M  V30 3697 C 354.061 -3.32987 3.04024 0
M  V30 3698 C 352.723 -3.35613 3.44844 0
M  V30 3699 C 355.075 -3.34102 4.00031 0
M  V30 3700 C 352.403 -3.36982 4.8027 0
M  V30 3701 C 354.755 -3.3701 5.35357 0
M  V30 3702 C 353.419 -3.37923 5.75642 0
M  V30 3703 H 352.689 -0.652422 0.351322 0
M  V30 3704 H 355.336 -1.23782 1.46117 0
M  V30 3705 H 353.641 -3.7972 0.965391 0
M  V30 3706 H 355.338 -3.77376 1.35603 0
M  V30 3707 H 351.928 -3.31655 2.71483 0
M  V30 3708 H 356.112 -3.31276 3.69554 0
M  V30 3709 H 351.368 -3.35999 5.10798 0
M  V30 3710 H 355.542 -3.36822 6.09528 0
M  V30 3711 H 353.169 -3.38738 6.80559 0
M  V30 3712 N 354.744 -0.972509 -1.24016 0
M  V30 3713 C 355.972 -0.654803 -1.96265 0
M  V30 3714 C 356.387 0.776708 -1.72083 0
M  V30 3715 O 355.744 1.52171 -1.00748 0
M  V30 3716 C 355.795 -0.92592 -3.49441 0
M  V30 3717 O 355.516 -2.30116 -3.72798 0
M  V30 3718 C 357.017 -0.623068 -4.38899 0
M  V30 3719 H 354.237 -0.243907 -0.6251 0
M  V30 3720 H 356.781 -1.30175 -1.57717 0
M  V30 3721 H 354.936 -0.325108 -3.86033 0
M  V30 3722 H 355.35 -2.38483 -4.67147 0
M  V30 3723 H 356.824 -0.863189 -5.45209 0
M  V30 3724 H 357.301 0.442754 -4.36963 0
M  V30 3725 H 357.907 -1.204 -4.07902 0
M  V30 3726 N 356.222 1.38976 -0.743202 0
M  V30 3727 C 357.45 2.04636 -0.30525 0
M  V30 3728 C 357.865 1.56044 1.06281 0
M  V30 3729 O 357.222 0.728921 1.67311 0
M  V30 3730 C 357.273 3.60193 -0.307177 0
M  V30 3731 O 356.994 4.06998 -1.62124 0
M  V30 3732 C 358.495 4.4306 0.145928 0
M  V30 3733 H 355.715 0.65788 -0.132041 0
M  V30 3734 H 358.259 1.77866 -1.00915 0
M  V30 3735 H 356.414 3.85835 0.347898 0
M  V30 3736 H 356.828 5.01371 -1.54036 0
M  V30 3737 H 358.302 5.51921 0.0934183 0
M  V30 3738 H 358.779 4.22706 1.19231 0
M  V30 3739 H 359.385 4.22584 -0.479886 0
M  V30 3740 N 357.7 0.491464 1.49741 0
M  V30 3741 C 358.63 -0.28154 2.31796 0
M  V30 3742 C 359.611 -0.971473 1.3963 0
M  V30 3743 O 360.796 -0.964719 1.68543 0
M  V30 3744 C 357.926 -1.35203 3.19902 0
M  V30 3745 C 356.88 -0.782529 4.20786 0
M  V30 3746 C 356.206 -1.95283 4.97764 0
M  V30 3747 C 357.506 0.21999 5.21837 0
M  V30 3748 H 359.2 0.403355 2.96671 0
M  V30 3749 H 356.746 0.195425 1.42668 0
M  V30 3750 H 358.699 -1.90045 3.76113 0
M  V30 3751 H 357.423 -2.06598 2.52953 0
M  V30 3752 H 356.082 -0.255928 3.65706 0
M  V30 3753 H 355.73 -2.65423 4.2727 0
M  V30 3754 H 355.43 -1.57789 5.66018 0
M  V30 3755 H 356.954 -2.50577 5.56816 0
M  V30 3756 H 358.368 -0.23996 5.72798 0
M  V30 3757 H 356.765 0.51026 5.97927 0
M  V30 3758 H 357.835 1.13911 4.7133 0
M  V30 3759 N 359.178 -1.55987 0.224894 0
M  V30 3760 C 360.403 -2.03232 -0.41369 0
M  V30 3761 C 360.828 -1.10359 -1.52323 0
M  V30 3762 O 360.186 -0.092395 -1.81064 0
M  V30 3763 C 360.234 -3.48682 -0.919405 0
M  V30 3764 O 359.338 -3.58947 -2.03054 0
M  V30 3765 H 358.679 -0.657428 -0.0931903 0
M  V30 3766 H 361.209 -2.01679 0.34451 0
M  V30 3767 H 361.219 -3.8907 -1.22835 0
M  V30 3768 H 359.894 -4.15761 -0.107339 0
M  V30 3769 H 358.471 -3.30448 -1.72796 0
M  V30 3770 N 360.656 0.0484629 -1.57525 0
M  V30 3771 C 361.933 0.777447 -1.79486 0
M  V30 3772 C 362.313 1.94597 -0.818251 0
M  V30 3773 O 361.661 2.28047 0.143767 0
M  V30 3774 C 361.871 1.22864 -3.26658 0
M  V30 3775 C 363.219 1.65251 -3.91123 0
M  V30 3776 O 364.243 1.32372 -3.3069 0
M  V30 3777 O 363.102 2.26207 -4.97486 0
M  V30 3778 H 360.196 0.374357 -0.737419 0
M  V30 3779 H 362.742 0.0267359 -1.69679 0
M  V30 3780 H 361.514 0.393589 -3.89316 0
M  V30 3781 H 361.137 2.03996 -3.41279 0
M  V30 3782 N 362.134 1.5431 0.320358 0
M  V30 3783 C 363.064 1.86912 1.3995 0
M  V30 3784 C 364.045 0.726211 1.53819 0
M  V30 3785 O 365.23 0.980233 1.67646 0
M  V30 3786 C 362.36 2.09932 2.7667 0
M  V30 3787 C 361.314 3.25776 2.77586 0
M  V30 3788 C 360.64 3.34173 4.17412 0
M  V30 3789 C 361.94 4.6335 2.41048 0
M  V30 3790 H 363.634 2.77292 1.12914 0
M  V30 3791 H 361.18 1.33421 0.541738 0
M  V30 3792 H 363.133 2.31324 3.52232 0
M  V30 3793 H 361.857 1.16304 3.0519 0
M  V30 3794 H 360.516 3.04276 2.04479 0
M  V30 3795 H 360.164 2.38098 4.43078 0
M  V30 3796 H 359.864 4.12033 4.18931 0
M  V30 3797 H 361.388 3.57803 4.94782 0
M  V30 3798 H 362.802 4.84602 3.06324 0
M  V30 3799 H 361.199 5.43782 2.53813 0
M  V30 3800 H 362.269 4.65381 1.36193 0
M  V30 3801 N 363.613 -0.582584 1.46437 0
M  V30 3802 C 365.029 -0.905962 1.31394 0
M  V30 3803 C 365.229 -1.99468 0.285476 0
M  V30 3804 O 364.285 -2.50566 -0.311914 0
M  V30 3805 C 365.598 -1.3232 2.70022 0
M  V30 3806 C 367.146 -1.43604 2.78113 0
M  V30 3807 C 367.621 -1.88694 4.17323 0
M  V30 3808 N 369.112 -1.95887 4.19741 0
M  V30 3809 C 369.847 -2.32051 5.24347 0
M  V30 3810 N 369.343 -2.67006 6.39281 0
M  V30 3811 N 371.136 -2.32606 5.11713 0
M  V30 3812 H 363.287 0.1366 2.1196 0
M  V30 3813 H 365.55 -0.00155736 0.947999 0
M  V30 3814 H 365.256 -0.597242 3.46592 0
M  V30 3815 H 365.13 -2.28469 3.00136 0
M  V30 3816 H 367.517 -2.15286 2.01832 0
M  V30 3817 H 367.598 -0.457059 2.51684 0
M  V30 3818 H 367.242 -1.1759 4.941 0
M  V30 3819 H 367.172 -2.8755 4.4116 0
M  V30 3820 H 369.663 -1.71362 3.36814 0
M  V30 3821 H 369.976 -2.93554 7.14875 0
M  V30 3822 H 368.321 -2.64644 6.42642 0
M  V30 3823 H 371.512 -2.04721 4.2096 0
M  V30 3824 H 371.685 -2.60462 5.93349 0
M  V30 3825 N 365.091 -1.34144 -0.827227 0
M  V30 3826 C 366.038 -1.25364 -1.93785 0
M  V30 3827 C 367.008 -0.129774 -1.65592 0
M  V30 3828 O 368.193 -0.310024 -1.88264 0
M  V30 3829 C 365.333 -1.01064 -3.2997 0
M  V30 3830 C 364.446 -2.22185 -3.70484 0
M  V30 3831 C 363.581 -1.91203 -4.95595 0
M  V30 3832 C 362.62 -3.08491 -5.28677 0
M  V30 3833 N 361.757 -2.77421 -6.44967 0
M  V30 3834 H 366.597 -2.20347 -2.00627 0
M  V30 3835 H 364.134 -1.09558 -0.981608 0
M  V30 3836 H 366.092 -0.850139 -4.08446 0
M  V30 3837 H 364.722 -0.0975026 -3.22653 0
M  V30 3838 H 363.774 -2.4917 -2.87434 0
M  V30 3839 H 365.086 -3.0983 -3.90905 0
M  V30 3840 H 364.24 -1.71864 -5.81848 0
M  V30 3841 H 362.979 -1.00812 -4.77167 0
M  V30 3842 H 361.984 -3.28431 -4.40923 0
M  V30 3843 H 363.209 -3.99655 -5.49047 0
M  V30 3844 H 361.155 -1.89601 -6.28003 0
M  V30 3845 H 361.072 -3.58598 -6.6554 0
M  V30 3846 H 362.34 -2.61577 -7.34301 0
M  V30 3847 N 366.569 1.04691 -1.17803 0
M  V30 3848 C 367.519 2.10856 -0.867391 0
M  V30 3849 C 368.503 1.601 0.160206 0
M  V30 3850 O 369.695 1.76948 -0.042947 0
M  V30 3851 C 366.824 3.411 -0.388012 0
M  V30 3852 C 365.91 3.9864 -1.44732 0
M  V30 3853 N 366.301 4.30075 -2.66212 0
M  V30 3854 C 364.599 4.26439 -1.30637 0
M  V30 3855 C 365.3 4.76033 -3.34317 0
M  V30 3856 N 364.276 4.76462 -2.61696 0
M  V30 3857 H 368.078 2.33029 -1.79094 0
M  V30 3858 H 365.592 1.22386 -1.0675 0
M  V30 3859 H 367.589 4.16641 -0.146994 0
M  V30 3860 H 366.249 3.20357 0.529271 0
M  V30 3861 H 367.26 4.19917 -3.03134 0
M  V30 3862 H 363.937 4.15056 -0.451129 0
M  V30 3863 H 365.327 5.09427 -4.38103 0
M  V30 3864 N 368.047 0.979072 1.23499 0
M  V30 3865 C 369.296 0.642751 1.91185 0
M  V30 3866 C 369.609 -0.827253 1.77245 0
M  V30 3867 O 370.815 -1.27458 2.39722 0
M  V30 3868 C 369.271 1.09901 3.42709 0
M  V30 3869 C 368.879 2.59327 3.65313 0
M  V30 3870 C 370.623 0.836371 4.16179 0
M  V30 3871 C 368.53 2.98627 5.10467 0
M  V30 3872 H 367.46 0.236698 0.715884 0
M  V30 3873 H 370.111 1.1868 1.39955 0
M  V30 3874 H 368.493 0.48319 3.93041 0
M  V30 3875 H 369.667 3.26136 3.25533 0
M  V30 3876 H 367.982 2.83323 3.05151 0
M  V30 3877 H 370.579 1.10586 5.23139 0
M  V30 3878 H 370.922 -0.227509 4.15678 0
M  V30 3879 H 371.455 1.41371 3.71832 0
M  V30 3880 H 368.194 4.04133 5.16098 0
M  V30 3881 H 367.714 2.3651 5.51201 0
M  V30 3882 H 369.393 2.89159 5.78788 0
M  V30 3883 N 369.525 -1.3858 0.750561 0
M  V30 3884 C 370.941 -1.53759 0.427824 0
M  V30 3885 C 371.141 -1.71401 -1.05943 0
M  V30 3886 O 370.197 -1.72331 -1.84549 0
M  V30 3887 C 371.51 -2.74642 1.22443 0
M  V30 3888 C 373.058 -2.88489 1.2142 0
M  V30 3889 C 373.533 -4.12329 1.9937 0
M  V30 3890 N 375.024 -4.194 1.96616 0
M  V30 3891 C 375.759 -5.14209 2.53727 0
M  V30 3892 N 375.255 -6.14709 3.19539 0
M  V30 3893 N 377.048 -5.06537 2.43673 0
M  V30 3894 H 369.199 -1.25377 1.71447 0
M  V30 3895 H 371.462 -0.608844 0.726645 0
M  V30 3896 H 371.168 -2.68 2.27747 0
M  V30 3897 H 371.042 -3.67745 0.839273 0
M  V30 3898 H 373.429 -2.94614 0.169232 0
M  V30 3899 H 373.51 -1.96406 1.63885 0
M  V30 3900 H 373.154 -4.06966 3.03877 0
M  V30 3901 H 373.084 -5.03486 1.54302 0
M  V30 3902 H 375.575 -3.47421 1.48684 0
M  V30 3903 H 375.888 -6.8354 3.60545 0
M  V30 3904 H 374.233 -6.1505 3.23633 0
M  V30 3905 H 377.424 -4.26962 1.91889 0
M  V30 3906 H 377.597 -5.80245 2.88479 0
M  V30 3907 N 371.003 -0.499398 -1.49478 0
M  V30 3908 C 372.231 0.0425456 -2.06856 0
M  V30 3909 C 372.646 1.30964 -1.35992 0
M  V30 3910 O 372.003 1.77172 -0.437762 0
M  V30 3911 C 372.054 0.301735 -3.60239 0
M  V30 3912 O 371.775 -0.915127 -4.28436 0
M  V30 3913 C 373.276 0.887499 -4.34325 0
M  V30 3914 H 370.496 -0.0197482 -0.670709 0
M  V30 3915 H 373.04 -0.696297 -1.92281 0
M  V30 3916 H 371.195 0.990556 -3.74522 0
M  V30 3917 H 371.609 -0.676993 -5.20113 0
M  V30 3918 H 373.083 1.01845 -5.42523 0
M  V30 3919 H 373.56 1.88488 -3.96698 0
M  V30 3920 H 374.166 0.236196 -4.24644 0
M  V30 3921 N 372.481 1.55866 -0.233164 0
M  V30 3922 C 373.431 2.17442 0.685774 0
M  V30 3923 C 374.415 1.12617 1.14918 0
M  V30 3924 O 375.607 1.3857 1.10124 0
M  V30 3925 C 372.736 2.86685 1.88856 0
M  V30 3926 C 371.822 3.98749 1.4443 0
M  V30 3927 N 372.213 5.00744 0.713364 0
M  V30 3928 C 370.511 4.11052 1.73068 0
M  V30 3929 C 371.212 5.79673 0.485205 0
M  V30 3930 N 370.188 5.33454 1.04536 0
M  V30 3931 H 373.99 2.93659 0.119022 0
M  V30 3932 H 371.504 1.62362 -0.0348995 0
M  V30 3933 H 373.501 3.29218 2.55776 0
M  V30 3934 H 372.161 2.11967 2.45967 0
M  V30 3935 H 373.172 5.16613 0.364861 0
M  V30 3936 H 369.849 3.47495 2.31416 0
M  V30 3937 H 371.239 6.71829 -0.097365 0
M  V30 3938 N 373.959 -0.0401083 1.57549 0
M  V30 3939 C 375.187 -0.745196 1.93014 0
M  V30 3940 C 375.602 -1.6948 0.831984 0
M  V30 3941 O 374.959 -1.81482 -0.192463 0
M  V30 3942 C 375.01 -1.51176 3.28372 0
M  V30 3943 O 374.731 -0.600284 4.33968 0
M  V30 3944 C 376.232 -2.315 3.78051 0
M  V30 3945 H 373.452 -0.210088 0.637263 0
M  V30 3946 H 375.996 -0.000924689 2.045 0
M  V30 3947 H 374.151 -2.20801 3.18317 0
M  V30 3948 H 374.565 -1.13669 5.12035 0
M  V30 3949 H 376.039 -2.80697 4.75303 0
M  V30 3950 H 376.516 -3.12436 3.08675 0
M  V30 3951 H 377.122 -1.66971 3.91153 0
M  V30 3952 N 375.437 -1.54477 -0.31217 0
M  V30 3953 C 376.685 -1.72884 -1.04668 0
M  V30 3954 C 377.006 -0.511477 -1.88173 0
M  V30 3955 O 376.276 0.474407 -1.90069 0
M  V30 3956 H 374.856 -0.637461 -0.389425 0
M  V30 3957 H 377.518 -1.91807 -0.345852 0
M  V30 3958 H 376.614 -2.61334 -1.70619 0
M  V30 3959 N 376.915 0.57481 -1.46744 0
M  V30 3960 C 377.825 1.711 -1.60505 0
M  V30 3961 C 378.841 1.67008 -0.488307 0
M  V30 3962 O 380.017 1.86774 -0.753495 0
M  V30 3963 C 377.082 3.07608 -1.59932 0
M  V30 3964 C 376.143 3.22904 -2.82898 0
M  V30 3965 C 375.376 4.529 -2.82343 0
M  V30 3966 O 375.599 5.37278 -1.91542 0
M  V30 3967 O 374.533 4.71611 -3.73987 0
M  V30 3968 H 378.359 1.62436 -2.56609 0
M  V30 3969 H 375.944 0.742779 -1.29627 0
M  V30 3970 H 377.826 3.88877 -1.62336 0
M  V30 3971 H 376.501 3.16692 -0.669898 0
M  V30 3972 H 375.408 2.41099 -2.86046 0
M  V30 3973 H 376.741 3.18715 -3.75076 0
M  V30 3974 N 378.394 1.34581 0.820102 0
M  V30 3975 C 379.341 1.2639 1.93117 0
M  V30 3976 C 380.311 0.138554 1.65521 0
M  V30 3977 O 381.496 0.320004 1.88097 0
M  V30 3978 C 378.636 1.02812 3.29429 0
M  V30 3979 C 377.749 2.24146 3.693 0
M  V30 3980 C 376.884 1.93829 4.94574 0
M  V30 3981 C 375.923 3.1129 5.27034 0
M  V30 3982 N 375.06 2.80838 6.43486 0
M  V30 3983 H 379.9 2.21408 1.99455 0
M  V30 3984 H 377.437 1.10077 0.975784 0
M  V30 3985 H 379.395 0.871788 4.0799 0
M  V30 3986 H 378.025 0.114612 3.22596 0
M  V30 3987 H 377.077 2.50691 2.86109 0
M  V30 3988 H 378.389 3.11899 3.89257 0
M  V30 3989 H 377.543 1.74948 5.80929 0
M  V30 3990 H 376.282 1.03341 4.76626 0
M  V30 3991 H 375.287 3.30764 4.39175 0
M  V30 3992 H 376.512 4.02561 5.4692 0
M  V30 3993 H 374.458 1.92929 6.26988 0
M  V30 3994 H 374.375 3.62123 6.63629 0
M  V30 3995 H 375.643 2.65467 7.32903 0
M  V30 3996 N 379.872 -1.04064 1.18357 0
M  V30 3997 C 381.283 -1.58719 0.98312 0
M  V30 3998 C 381.634 -1.90556 -0.467193 0
M  V30 3999 O 380.759 -1.69561 -1.34454 0
M  V30 4000 C 381.354 -2.88379 1.77828 0
M  V30 4001 C 379.913 -3.3965 1.62218 0
M  V30 4002 C 379.06 -2.13235 1.77274 0
M  V30 4003 H 382.011 -0.867359 1.32901 0
M  V30 4004 H 382.032 -3.58773 1.26737 0
M  V30 4005 H 381.544 -2.65176 2.83379 0
M  V30 4006 H 379.645 -3.67866 0.592036 0
M  V30 4007 H 379.758 -4.13475 2.42023 0
M  V30 4008 H 378.122 -2.24542 1.20221 0
M  V30 4009 H 378.905 -1.92487 2.8426 0
M  V30 4010 N 381.35 -0.985608 -1.22978 0
M  V30 4011 C 382.597 -0.657386 -1.91532 0
M  V30 4012 C 382.925 0.809707 -1.76845 0
M  V30 4013 O 382.18 1.60021 -1.12658 0
M  V30 4014 C 382.479 -1.00014 -3.43121 0
M  V30 4015 C 382.145 -2.4583 -3.77993 0
M  V30 4016 C 380.807 -2.85679 -3.87222 0
M  V30 4017 C 383.159 -3.40378 -3.94705 0
M  V30 4018 C 380.487 -4.19081 -4.10595 0
M  V30 4019 C 382.839 -4.73429 -4.1958 0
M  V30 4020 C 381.503 -5.1303 -4.27032 0
M  V30 4021 H 380.773 -0.240555 -0.700867 0
M  V30 4022 H 383.42 -1.24044 -1.45895 0
M  V30 4023 H 381.725 -0.335072 -3.90365 0
M  V30 4024 H 383.422 -0.724322 -3.94404 0
M  V30 4025 H 380.012 -2.13939 -3.71387 0
M  V30 4026 H 384.196 -3.10766 -3.8696 0
M  V30 4027 H 379.452 -4.49362 -4.14589 0
M  V30 4028 H 383.626 -5.46644 -4.31455 0
M  V30 4029 H 381.253 -6.16418 -4.44896 0
M  V30 4030 N 382.828 1.3818 -0.7579 0
M  V30 4031 C 384.244 1.5353 -0.435972 0
M  V30 4032 C 384.444 1.71961 1.05032 0
M  V30 4033 O 383.5 1.73307 1.83633 0
M  V30 4034 C 384.813 2.73989 -1.23898 0
M  V30 4035 C 386.361 2.87841 -1.22949 0
M  V30 4036 C 386.836 4.11266 -2.01554 0
M  V30 4037 N 388.327 4.18352 -1.98837 0
M  V30 4038 C 389.062 5.12856 -2.5645 0
M  V30 4039 N 388.558 6.13005 -3.22794 0
M  V30 4040 N 390.351 5.05238 -2.46356 0
M  V30 4041 H 382.502 1.24467 -1.7211 0
M  V30 4042 H 384.765 0.604982 -0.729864 0
M  V30 4043 H 384.471 2.66789 -2.29165 0
M  V30 4044 H 384.345 3.67294 -0.858764 0
M  V30 4045 H 386.732 2.9452 -0.184854 0
M  V30 4046 H 386.813 1.95534 -1.64924 0
M  V30 4047 H 386.457 4.05349 -3.06031 0
M  V30 4048 H 386.387 5.02661 -1.5697 0
M  V30 4049 H 388.878 3.46628 -1.50524 0
M  V30 4050 H 389.191 6.81619 -3.64165 0
M  V30 4051 H 387.536 6.13325 -3.2689 0
M  V30 4052 H 390.727 4.25938 -1.9415 0
M  V30 4053 H 390.9 5.78707 -2.91552 0
M  V30 4054 N 384.306 0.507319 1.49211 0
M  V30 4055 C 385.546 -0.0332372 2.04373 0
M  V30 4056 C 385.91 -1.33694 1.37804 0
M  V30 4057 O 387.111 -1.96213 1.83722 0
M  V30 4058 C 385.382 -0.17599 3.56966 0
M  V30 4059 S 386.941 -0.669882 4.33657 0
M  V30 4060 H 383.759 0.00123603 0.710999 0
M  V30 4061 H 386.361 0.682725 1.83191 0
M  V30 4062 H 385.065 0.778053 4.02957 0
M  V30 4063 H 384.596 -0.917005 3.82563 0
M  V30 4064 H 386.611 -1.93806 4.56786 0
M  V30 4065 N 385.784 -1.5574 0.241426 0
M  V30 4066 C 387.061 -1.90704 -0.434881 0
M  V30 4067 C 387.441 -1.16145 -1.76277 0
M  V30 4068 O 386.789 -0.277152 -2.26813 0
M  V30 4069 C 386.999 -3.43657 -0.608343 0
M  V30 4070 C 388.347 -4.14806 -0.906725 0
M  V30 4071 O 389.371 -3.49366 -0.694408 0
M  V30 4072 O 388.23 -5.30548 -1.31075 0
M  V30 4073 H 385.324 -0.793592 -0.23268 0
M  V30 4074 H 387.87 -1.67288 0.285086 0
M  V30 4075 H 386.642 -3.89927 0.327505 0
M  V30 4076 H 386.265 -3.72918 -1.37906 0
M  V30 4077 N 387.262 0.0317525 -1.57568 0
M  V30 4078 C 388.212 1.04101 -2.02847 0
M  V30 4079 C 389.196 1.3219 -0.917317 0
M  V30 4080 O 390.388 1.31819 -1.18121 0
M  V30 4081 C 387.517 2.34295 -2.5092 0
M  V30 4082 C 386.603 2.09308 -3.68851 0
M  V30 4083 N 386.994 1.5437 -4.81667 0
M  V30 4084 C 385.292 2.39604 -3.76172 0
M  V30 4085 C 385.993 1.45126 -5.63306 0
M  V30 4086 N 384.969 1.92589 -5.08341 0
M  V30 4087 H 388.771 0.610217 -2.87495 0
M  V30 4088 H 386.285 0.238108 -1.60645 0
M  V30 4089 H 388.282 3.07404 -2.81617 0
M  V30 4090 H 386.942 2.78055 -1.67677 0
M  V30 4091 H 387.953 1.22678 -5.03161 0
M  V30 4092 H 384.63 2.86457 -3.03724 0
M  V30 4093 H 386.02 1.03163 -6.63933 0
M  V30 4094 N 388.74 1.54641 0.303973 0
M  V30 4095 C 390.017 1.64455 1.05896 0
M  V30 4096 C 390.397 0.490923 2.05312 0
M  V30 4097 O 389.745 -0.512685 2.22674 0
M  V30 4098 C 389.955 3.02331 1.74347 0
M  V30 4099 C 391.303 3.59045 2.26653 0
M  V30 4100 O 392.327 3.04764 1.84384 0
M  V30 4101 O 391.186 4.54081 3.04093 0
M  V30 4102 H 388.28 0.666729 0.489287 0
M  V30 4103 H 390.826 1.66986 0.302298 0
M  V30 4104 H 389.598 3.77734 1.02142 0
M  V30 4105 H 389.221 3.03565 2.56777 0
M  V30 4106 N 390.218 -0.567019 1.47046 0
M  V30 4107 C 391.466 -1.322 1.52864 0
M  V30 4108 C 391.787 -1.94088 0.188388 0
M  V30 4109 O 391.057 -1.7941 -0.786693 0
M  V30 4110 H 389.637 -0.490894 0.563056 0
M  V30 4111 H 392.299 -0.662879 1.83281 0
M  V30 4112 H 391.395 -2.12062 2.2899 0
M  V30 4113 N 391.696 -1.35014 -0.812953 0
M  V30 4114 C 392.936 -1.29289 -1.58315 0
M  V30 4115 C 393.3 0.132727 -1.91541 0
M  V30 4116 O 394.501 0.314269 -2.66957 0
M  V30 4117 C 392.772 -2.1681 -2.84127 0
M  V30 4118 S 394.331 -2.28538 -3.74588 0
M  V30 4119 H 391.149 -0.459569 -0.542511 0
M  V30 4120 H 393.751 -1.70336 -0.959467 0
M  V30 4121 H 392.455 -3.19379 -2.57731 0
M  V30 4122 H 391.986 -1.76697 -3.51485 0
M  V30 4123 H 394.001 -1.4655 -4.74065 0
M  V30 4124 N 393.175 1.03435 -1.18907 0
M  V30 4125 C 394.423 1.76394 -0.986382 0
M  V30 4126 C 394.744 1.88883 0.484567 0
M  V30 4127 O 394.014 1.41843 1.3512 0
M  V30 4128 H 392.594 0.65344 -0.361975 0
M  V30 4129 H 395.256 1.248 -1.49703 0
M  V30 4130 H 394.352 2.77424 -1.42978 0
M  V30 4131 N 394.653 0.992116 1.22453 0
M  V30 4132 C 395.6 0.541731 2.24352 0
M  V30 4133 C 396.57 -0.425519 1.60557 0
M  V30 4134 O 397.755 -0.330453 1.87917 0
M  V30 4135 C 394.895 -0.138248 3.44823 0
M  V30 4136 C 394.008 0.870649 4.23136 0
M  V30 4137 C 393.143 0.164269 5.30946 0
M  V30 4138 C 392.182 1.16159 6.00977 0
M  V30 4139 N 391.319 0.483568 7.00433 0
M  V30 4140 H 396.159 1.41541 2.62241 0
M  V30 4141 H 393.696 0.709013 1.28885 0
M  V30 4142 H 395.654 -0.5494 4.13567 0
M  V30 4143 H 394.284 -0.975721 3.077 0
M  V30 4144 H 393.336 1.40013 3.53696 0
M  V30 4145 H 394.648 1.63014 4.7141 0
M  V30 4146 H 393.802 -0.303653 6.0594 0
M  V30 4147 H 392.541 -0.627733 4.83643 0
M  V30 4148 H 391.546 1.64015 5.24766 0
M  V30 4149 H 392.771 1.95445 6.50368 0
M  V30 4150 H 390.717 -0.289012 6.55363 0
M  V30 4151 H 390.634 1.18152 7.4671 0
M  V30 4152 H 391.902 0.0384219 7.79491 0
M  V30 4153 N 396.131 -1.37776 0.765217 0
M  V30 4154 C 397.094 -2.28686 0.153416 0
M  V30 4155 C 398.094 -1.47727 -0.635081 0
M  V30 4156 O 399.284 -1.68027 -0.459632 0
M  V30 4157 C 396.416 -3.31608 -0.790495 0
M  V30 4158 H 397.609 -2.84297 0.954723 0
M  V30 4159 H 395.162 -1.46932 0.53299 0
M  V30 4160 H 395.897 -2.81109 -1.61705 0
M  V30 4161 H 395.682 -3.9144 -0.227348 0
M  V30 4162 H 397.172 -3.99559 -1.21419 0
M  V30 4163 N 397.609 -0.515225 -1.4894 0
M  V30 4164 C 398.856 0.024215 -2.02486 0
M  V30 4165 C 399.184 1.35671 -1.39368 0
M  V30 4166 O 398.439 1.88566 -0.523574 0
M  V30 4167 C 398.738 0.210595 -3.56779 0
M  V30 4168 C 398.404 -1.04569 -4.38607 0
M  V30 4169 C 397.066 -1.39002 -4.60686 0
M  V30 4170 C 399.418 -1.88008 -4.86109 0
M  V30 4171 C 396.746 -2.568 -5.27514 0
M  V30 4172 C 399.098 -3.04972 -5.54234 0
M  V30 4173 C 397.762 -3.39768 -5.74555 0
M  V30 4174 H 397.032 0.00886088 -0.740947 0
M  V30 4175 H 399.679 -0.678263 -1.79086 0
M  V30 4176 H 397.984 0.99572 -3.78936 0
M  V30 4177 H 399.681 0.642659 -3.95817 0
M  V30 4178 H 396.271 -0.767497 -4.21672 0
M  V30 4179 H 400.455 -1.62719 -4.68867 0
M  V30 4180 H 395.711 -2.8398 -5.41447 0
M  V30 4181 H 399.885 -3.69943 -5.90013 0
M  V30 4182 H 397.512 -4.31148 -6.26112 0
M  V30 4183 N 399.087 1.5561 -0.249682 0
M  V30 4184 C 400.05 2.20217 0.635394 0
M  V30 4185 C 401.05 1.17227 1.10066 0
M  V30 4186 O 402.24 1.42292 1.00492 0
M  V30 4187 C 399.372 2.84794 1.87363 0
M  V30 4188 H 400.565 2.99814 0.0716752 0
M  V30 4189 H 398.118 1.563 -0.000153234 0
M  V30 4190 H 398.853 2.09142 2.47851 0
M  V30 4191 H 398.638 3.60241 1.5482 0
M  V30 4192 H 400.128 3.3423 2.5036 0
M  V30 4193 N 400.565 -0.0233959 1.57583 0
M  V30 4194 C 401.528 -1.00693 2.05897 0
M  V30 4195 C 402.528 -1.28693 0.964092 0
M  V30 4196 O 403.718 -1.23602 1.22753 0
M  V30 4197 C 400.85 -2.33825 2.4807 0
M  V30 4198 H 402.043 -0.589476 2.9405 0
M  V30 4199 H 399.596 -0.270354 1.53944 0
M  V30 4200 H 400.331 -2.80307 1.6309 0
M  V30 4201 H 400.116 -2.1483 3.2801 0
M  V30 4202 H 401.606 -3.04426 2.85857 0
M  V30 4203 N 402.043 -1.548 -0.295768 0
M  V30 4204 C 403.268 -1.78653 -1.05346 0
M  V30 4205 C 403.693 -0.546894 -1.79974 0
M  V30 4206 O 403.051 0.502763 -1.7419 0
M  V30 4207 C 403.099 -2.99679 -2.00561 0
M  V30 4208 O 402.203 -2.7317 -3.08953 0
M  V30 4209 H 401.544 -0.59116 -0.302367 0
M  V30 4210 H 404.074 -2.01895 -0.331598 0
M  V30 4211 H 404.084 -3.27793 -2.42932 0
M  V30 4212 H 402.759 -3.89562 -1.4565 0
M  V30 4213 H 401.336 -2.56089 -2.71059 0
M  V30 4214 N 403.521 0.559213 -1.47345 0
M  V30 4215 C 404.471 1.66192 -1.5609 0
M  V30 4216 C 405.455 1.55323 -0.419957 0
M  V30 4217 O 406.647 1.63839 -0.669762 0
M  V30 4218 C 403.776 3.0497 -1.57634 0
M  V30 4219 C 402.862 3.2105 -2.77106 0
M  V30 4220 N 403.253 3.07203 -4.01821 0
M  V30 4221 C 401.551 3.52046 -2.73825 0
M  V30 4222 C 402.252 3.25919 -4.81821 0
M  V30 4223 N 401.228 3.52161 -4.14106 0
M  V30 4224 H 405.03 1.54052 -2.5029 0
M  V30 4225 H 402.544 0.763914 -1.43311 0
M  V30 4226 H 404.541 3.84142 -1.61989 0
M  V30 4227 H 403.201 3.18224 -0.645281 0
M  V30 4228 H 404.212 2.84572 -4.32711 0
M  V30 4229 H 400.889 3.71839 -1.89848 0
M  V30 4230 H 402.279 3.20198 -5.90697 0
M  V30 4231 N 404.999 1.35443 0.805782 0
M  V30 4232 C 405.949 1.24972 1.90699 0
M  V30 4233 C 406.933 0.144806 1.60247 0
M  V30 4234 O 408.125 0.376102 1.72958 0
M  V30 4235 C 405.254 1.02475 3.27649 0
M  V30 4236 C 404.34 2.17361 3.64164 0
M  V30 4237 N 404.731 3.42591 3.72109 0
M  V30 4238 C 403.029 2.08765 3.94123 0
M  V30 4239 C 403.73 4.18144 4.04389 0
M  V30 4240 N 402.706 3.4691 4.18515 0
M  V30 4241 H 406.508 2.19852 1.95044 0
M  V30 4242 H 404.022 1.27928 1.00041 0
M  V30 4243 H 406.019 0.930617 4.06381 0
M  V30 4244 H 404.679 0.0848009 3.24589 0
M  V30 4245 H 405.69 3.76932 3.55166 0
M  V30 4246 H 402.367 1.22629 3.99084 0
M  V30 4247 H 403.757 5.26367 4.17597 0
M  V30 4248 N 406.477 -1.02803 1.19454 0
M  V30 4249 C 407.407 -2.12999 0.956758 0
M  V30 4250 C 408.388 -1.69743 -0.110188 0
M  V30 4251 O 409.573 -1.94148 0.0450038 0
M  V30 4252 C 406.703 -3.43746 0.495553 0
M  V30 4253 C 405.657 -4.00688 1.50443 0
M  V30 4254 C 404.983 -5.27067 0.900275 0
M  V30 4255 C 406.283 -4.35397 2.8849 0
M  V30 4256 H 407.977 -2.33148 1.87836 0
M  V30 4257 H 405.523 -1.12045 0.904539 0
M  V30 4258 H 407.476 -4.2021 0.316493 0
M  V30 4259 H 406.2 -3.23321 -0.461646 0
M  V30 4260 H 404.859 -3.2632 1.67065 0
M  V30 4261 H 404.507 -5.02959 -0.064503 0
M  V30 4262 H 404.207 -5.66127 1.57397 0
M  V30 4263 H 405.731 -6.06196 0.73203 0
M  V30 4264 H 407.145 -5.02795 2.75446 0
M  V30 4265 H 405.542 -4.85541 3.52661 0
M  V30 4266 H 406.612 -3.44662 3.41081 0
M  V30 4267 N 407.956 -0.998596 -1.21925 0
M  V30 4268 C 408.903 -0.553621 -2.24062 0
M  V30 4269 C 409.873 0.416999 -1.6078 0
M  V30 4270 O 411.058 0.320482 -1.88089 0
M  V30 4271 C 408.198 0.119959 -3.44891 0
M  V30 4272 C 407.311 -0.893077 -4.22668 0
M  V30 4273 C 406.446 -0.192424 -5.30851 0
M  V30 4274 C 405.485 -1.19344 -6.00353 0
M  V30 4275 N 404.622 -0.520707 -7.00166 0
M  V30 4276 H 409.462 -1.4293 -2.61486 0
M  V30 4277 H 406.999 -0.715838 -1.28507 0
M  V30 4278 H 408.957 0.527459 -4.13852 0
M  V30 4279 H 407.587 0.959389 -3.08214 0
M  V30 4280 H 406.639 -1.41886 -3.52948 0
M  V30 4281 H 407.951 -1.65512 -4.70539 0
M  V30 4282 H 407.105 0.271515 -6.06092 0
M  V30 4283 H 405.844 0.602075 -4.83969 0
M  V30 4284 H 404.849 -1.66795 -5.23889 0
M  V30 4285 H 406.074 -1.98891 -6.49322 0
M  V30 4286 H 404.02 0.254252 -6.55507 0
M  V30 4287 H 403.937 -1.2211 -7.46073 0
M  V30 4288 H 405.205 -0.0797596 -7.79459 0
M  V30 4289 N 409.434 1.37368 -0.772513 0
M  V30 4290 C 410.662 2.03942 -0.348588 0
M  V30 4291 C 411.077 1.58264 1.02947 0
M  V30 4292 O 410.434 0.764246 1.65727 0
M  V30 4293 C 410.485 3.5946 -0.38351 0
M  V30 4294 O 410.206 4.03468 -1.70721 0
M  V30 4295 C 411.707 4.4327 0.0519152 0
M  V30 4296 H 408.927 0.654931 -0.145966 0
M  V30 4297 H 411.471 1.75686 -1.04665 0
M  V30 4298 H 409.626 3.86486 0.265978 0
M  V30 4299 H 410.04 4.97991 -1.64636 0
M  V30 4300 H 411.514 5.51995 -0.0236733 0
M  V30 4301 H 411.991 4.2514 1.10238 0
M  V30 4302 H 412.597 4.21471 -0.569415 0
M  V30 4303 N 410.912 0.523116 1.48665 0
M  V30 4304 C 411.862 -0.263106 2.26477 0
M  V30 4305 C 412.846 -0.916005 1.32281 0
M  V30 4306 O 414.038 -0.819946 1.56863 0
M  V30 4307 C 411.167 -1.31361 3.17174 0
M  V30 4308 C 410.253 -0.665849 4.1884 0
M  V30 4309 N 410.644 0.244434 5.05209 0
M  V30 4310 C 408.942 -0.923863 4.36326 0
M  V30 4311 C 409.643 0.617443 5.78414 0
M  V30 4312 N 408.619 -0.0198686 5.43596 0
M  V30 4313 H 412.421 0.437295 2.90629 0
M  V30 4314 H 409.935 0.340675 1.58787 0
M  V30 4315 H 411.932 -1.89052 3.71571 0
M  V30 4316 H 410.592 -2.01546 2.54576 0
M  V30 4317 H 411.603 0.616621 5.14216 0
M  V30 4318 H 408.28 -1.6168 3.84923 0
M  V30 4319 H 409.67 1.36346 6.57921 0
M  V30 4320 N 412.39 -1.55475 0.257931 0
M  V30 4321 C 413.636 -1.99502 -0.364266 0
M  V30 4322 C 413.969 -1.146 -1.56782 0
M  V30 4323 O 413.244 -0.211968 -1.93342 0
M  V30 4324 C 413.527 -3.51917 -0.763333 0
M  V30 4325 C 413.38 -4.4758 0.446371 0
M  V30 4326 C 414.699 -4.09742 -1.60623 0
M  V30 4327 H 411.818 -0.725277 -0.130929 0
M  V30 4328 H 414.46 -1.8653 0.361446 0
M  V30 4329 H 412.61 -3.63101 -1.38166 0
M  V30 4330 H 414.282 -4.48362 1.08487 0
M  V30 4331 H 412.525 -4.19947 1.08753 0
M  V30 4332 H 413.196 -5.51862 0.123645 0
M  V30 4333 H 415.672 -4.01727 -1.08418 0
M  V30 4334 H 414.548 -5.16631 -1.85429 0
M  V30 4335 H 414.809 -3.58889 -2.58169 0
M  V30 4336 N 413.868 0.0150385 -1.57593 0
M  V30 4337 C 415.284 0.370907 -1.5523 0
M  V30 4338 C 415.484 1.75735 -0.985882 0
M  V30 4339 O 414.54 2.44944 -0.613077 0
M  V30 4340 C 415.853 0.259908 -2.99575 0
M  V30 4341 C 417.401 0.335959 -3.11192 0
M  V30 4342 C 417.876 0.254253 -4.57294 0
M  V30 4343 N 419.367 0.312618 -4.62144 0
M  V30 4344 C 420.102 0.272505 -5.72752 0
M  V30 4345 N 419.598 0.183864 -6.92556 0
M  V30 4346 N 421.391 0.323267 -5.6117 0
M  V30 4347 H 413.542 -0.892104 -1.92757 0
M  V30 4348 H 415.805 -0.340563 -0.884715 0
M  V30 4349 H 415.511 -0.693403 -3.44797 0
M  V30 4350 H 415.385 1.048 -3.62349 0
M  V30 4351 H 417.772 1.27971 -2.65909 0
M  V30 4352 H 417.853 -0.481739 -2.51223 0
M  V30 4353 H 417.497 -0.685887 -5.03247 0
M  V30 4354 H 417.427 1.09024 -5.15191 0
M  V30 4355 H 419.918 0.38307 -3.75953 0
M  V30 4356 H 420.231 0.15874 -7.72637 0
M  V30 4357 H 418.576 0.149708 -6.94839 0
M  V30 4358 H 421.767 0.390607 -4.66467 0
M  V30 4359 H 421.94 0.288539 -6.47357 0
M  V30 4360 N 415.346 1.54954 0.287554 0
M  V30 4361 C 416.574 1.78881 1.03967 0
M  V30 4362 C 416.989 0.554894 1.80462 0
M  V30 4363 O 416.346 -0.475676 1.76192 0
M  V30 4364 C 416.397 3.00488 2.0097 0
M  V30 4365 O 416.118 4.19113 1.27577 0
M  V30 4366 C 417.619 3.36907 2.88112 0
M  V30 4367 H 414.839 0.596259 0.307761 0
M  V30 4368 H 417.383 2.01937 0.322749 0
M  V30 4369 H 415.538 2.79601 2.68145 0
M  V30 4370 H 415.952 4.87765 1.92835 0
M  V30 4371 H 417.426 4.25205 3.52001 0
M  V30 4372 H 417.903 2.55659 3.57121 0
M  V30 4373 H 418.509 3.60001 2.26449 0
M  V30 4374 N 416.824 -0.551391 1.4764 0
M  V30 4375 C 417.774 -1.65362 1.56969 0
M  V30 4376 C 418.758 -1.55098 0.428189 0
M  V30 4377 O 419.95 -1.63481 0.678441 0
M  V30 4378 C 417.079 -3.04129 1.59249 0
M  V30 4379 C 416.165 -3.19576 2.78804 0
M  V30 4380 N 416.556 -3.05067 4.03445 0
M  V30 4381 C 414.854 -3.50588 2.75688 0
M  V30 4382 C 415.555 -3.2336 4.83543 0
M  V30 4383 N 414.531 -3.4996 4.15968 0
M  V30 4384 H 418.333 -1.52722 2.51104 0
M  V30 4385 H 415.847 -0.756303 1.43714 0
M  V30 4386 H 417.844 -3.83278 1.64024 0
M  V30 4387 H 416.504 -3.17877 0.662148 0
M  V30 4388 H 417.515 -2.82273 4.34215 0
M  V30 4389 H 414.192 -3.70827 1.91817 0
M  V30 4390 H 415.582 -3.17061 5.92387 0
M  V30 4391 N 418.302 -1.35869 -0.798587 0
M  V30 4392 C 419.53 -1.32722 -1.58722 0
M  V30 4393 C 419.945 0.0935631 -1.88568 0
M  V30 4394 O 419.302 1.04784 -1.49421 0
M  V30 4395 C 419.353 -2.13974 -2.91371 0
M  V30 4396 O 419.074 -3.50514 -2.62815 0
M  V30 4397 C 420.575 -2.18504 -3.85708 0
M  V30 4398 H 417.795 -0.45562 -0.492596 0
M  V30 4399 H 420.339 -1.78837 -0.991843 0
M  V30 4400 H 418.494 -1.71438 -3.47402 0
M  V30 4401 H 418.908 -3.92806 -3.47568 0
M  V30 4402 H 420.382 -2.79732 -4.75872 0
M  V30 4403 H 420.859 -1.18597 -4.22885 0
M  V30 4404 H 421.465 -2.61236 -3.35612 0
M  V30 4405 N 419.78 1.02168 -1.19998 0
M  V30 4406 C 421.028 1.75338 -1.00504 0
M  V30 4407 C 421.349 1.89387 0.464506 0
M  V30 4408 O 420.619 1.43268 1.33608 0
M  V30 4409 H 419.199 0.649564 -0.368885 0
M  V30 4410 H 421.861 1.23205 -1.51018 0
M  V30 4411 H 420.957 2.75892 -1.45912 0
M  V30 4412 N 421.258 1.00505 1.21394 0
M  V30 4413 C 422.168 0.574806 2.27449 0
M  V30 4414 C 423.184 -0.382206 1.6975 0
M  V30 4415 O 424.36 -0.246027 1.99892 0
M  V30 4416 C 421.425 -0.0917414 3.46579 0
M  V30 4417 C 420.486 0.909758 4.1955 0
M  V30 4418 C 419.719 0.274924 5.32991 0
M  V30 4419 O 419.942 -0.928254 5.62796 0
M  V30 4420 O 418.876 0.985877 5.93771 0
M  V30 4421 H 422.702 1.45744 2.66444 0
M  V30 4422 H 420.287 0.773923 1.27792 0
M  V30 4423 H 422.169 -0.464551 4.18832 0
M  V30 4424 H 420.844 -0.948755 3.09484 0
M  V30 4425 H 419.751 1.33372 3.49518 0
M  V30 4426 H 421.084 1.73636 4.60555 0
M  V30 4427 N 422.737 -1.36956 0.779787 0
M  V30 4428 C 424.153 -1.52817 0.460342 0
M  V30 4429 C 424.353 -1.7361 -1.02283 0
M  V30 4430 O 423.409 -1.76207 -1.80852 0
M  V30 4431 C 424.722 -2.71983 1.28241 0
M  V30 4432 C 426.27 -2.85849 1.27512 0
M  V30 4433 C 426.745 -4.08008 2.08072 0
M  V30 4434 N 428.236 -4.15135 2.05467 0
M  V30 4435 C 428.971 -5.08711 2.64577 0
M  V30 4436 N 428.467 -6.07792 3.32506 0
M  V30 4437 N 430.26 -5.01254 2.54363 0
M  V30 4438 H 422.411 -1.21713 1.74068 0
M  V30 4439 H 424.674 -0.593294 0.739396 0
M  V30 4440 H 424.38 -2.63109 2.33381 0
M  V30 4441 H 424.254 -3.65882 0.917088 0
M  V30 4442 H 426.641 -2.94189 0.231686 0
M  V30 4443 H 426.722 -1.92886 1.68014 0
M  V30 4444 H 426.366 -4.00429 3.12441 0
M  V30 4445 H 426.296 -5.001 1.64947 0
M  V30 4446 H 428.787 -3.44189 1.5602 0
M  V30 4447 H 429.1 -6.75739 3.74963 0
M  V30 4448 H 427.445 -6.08047 3.36606 0
M  V30 4449 H 430.636 -4.22795 2.00902 0
M  V30 4450 H 430.809 -5.73995 3.00722 0
M  V30 4451 N 424.215 -0.530993 -1.48385 0
M  V30 4452 C 425.626 -0.0907905 -1.86479 0
M  V30 4453 C 425.977 1.33213 -1.44044 0
M  V30 4454 O 425.102 1.99783 -0.831615 0
M  V30 4455 C 425.697 -0.157987 -3.38431 0
M  V30 4456 C 424.256 0.227026 -3.75715 0
M  V30 4457 C 423.403 -0.5173 -2.72432 0
M  V30 4458 H 426.354 -0.742186 -1.40276 0
M  V30 4459 H 426.375 0.630053 -3.75247 0
M  V30 4460 H 425.887 -1.19372 -3.69286 0
M  V30 4461 H 423.988 1.26486 -3.50474 0
M  V30 4462 H 424.101 -0.113288 -4.78966 0
M  V30 4463 H 422.465 0.0365527 -2.54674 0
M  V30 4464 H 423.248 -1.55368 -3.0613 0
M  V30 4465 N 425.693 1.55336 -0.266172 0
M  V30 4466 C 426.94 1.99397 0.353158 0
M  V30 4467 C 427.268 1.15451 1.56529 0
M  V30 4468 O 426.523 0.209974 1.9457 0
M  V30 4469 C 426.822 3.48606 0.787957 0
M  V30 4470 C 426.488 4.49773 -0.318541 0
M  V30 4471 C 425.15 4.77158 -0.62239 0
M  V30 4472 C 427.502 5.10212 -1.06459 0
M  V30 4473 C 424.83 5.62251 -1.67602 0
M  V30 4474 C 427.182 5.96449 -2.10788 0
M  V30 4475 C 425.846 6.22158 -2.41817 0
M  V30 4476 H 425.116 0.729644 0.12923 0
M  V30 4477 H 427.763 1.87732 -0.37802 0
M  V30 4478 H 426.068 3.57701 1.59866 0
M  V30 4479 H 427.765 3.80098 1.27775 0
M  V30 4480 H 424.355 4.2854 -0.0715925 0
M  V30 4481 H 428.539 4.89086 -0.843098 0
M  V30 4482 H 423.795 5.80419 -1.92155 0
M  V30 4483 H 427.969 6.42317 -2.69076 0
M  V30 4484 H 425.596 6.87888 -3.23596 0
M  V30 4485 N 427.171 -0.0066808 1.57599 0
M  V30 4486 C 428.418 -0.69292 1.90276 0
M  V30 4487 C 428.746 -1.74148 0.866192 0
M  V30 4488 O 428.001 -1.95268 -0.129933 0
M  V30 4489 C 428.3 -1.37939 3.29708 0
M  V30 4490 C 427.966 -0.464679 4.48499 0
M  V30 4491 C 426.628 -0.212809 4.80729 0
M  V30 4492 C 428.98 0.16551 5.20937 0
M  V30 4493 C 426.308 0.677653 5.82773 0
M  V30 4494 C 428.66 1.04381 6.23929 0
M  V30 4495 C 427.324 1.30492 6.54621 0
M  V30 4496 H 426.594 -0.253558 0.696268 0
M  V30 4497 H 429.241 0.0474123 1.91441 0
M  V30 4498 H 427.546 -2.1936 3.24636 0
M  V30 4499 H 429.243 -1.9163 3.52249 0
M  V30 4500 H 425.833 -0.671153 4.23313 0
M  V30 4501 H 430.017 -0.0160756 4.96297 0
M  V30 4502 H 425.273 0.88803 6.04917 0
M  V30 4503 H 429.447 1.53851 6.79193 0
M  V30 4504 H 427.074 1.99662 7.33512 0
M  V30 4505 N 428.649 -1.55105 -0.279332 0
M  V30 4506 C 429.889 -1.7716 -1.01949 0
M  V30 4507 C 430.253 -0.557511 -1.83728 0
M  V30 4508 O 431.454 -0.656198 -2.60667 0
M  V30 4509 C 429.725 -3.0372 -1.88385 0
M  V30 4510 S 431.284 -3.46868 -2.68752 0
M  V30 4511 H 428.102 -0.62253 -0.343478 0
M  V30 4512 H 430.704 -1.93329 -0.290572 0
M  V30 4513 H 429.408 -3.90184 -1.2722 0
M  V30 4514 H 428.939 -2.902 -2.65608 0
M  V30 4515 H 430.954 -3.05643 -3.90892 0
M  V30 4516 N 430.127 0.543554 -1.4793 0
M  V30 4517 C 431.538 1.12561 -1.48953 0
M  V30 4518 C 431.889 1.94578 -0.251754 0
M  V30 4519 O 431.014 2.0665 0.642255 0
M  V30 4520 C 431.609 2.04801 -2.69892 0
M  V30 4521 C 430.168 2.58251 -2.73831 0
M  V30 4522 C 429.315 1.34918 -2.42265 0
M  V30 4523 H 432.266 0.32947 -1.55242 0
M  V30 4524 H 432.287 2.88886 -2.47639 0
M  V30 4525 H 431.799 1.4508 -3.59963 0
M  V30 4526 H 429.9 3.21732 -1.87934 0
M  V30 4527 H 430.013 2.98312 -3.74895 0
M  V30 4528 H 428.377 1.66046 -1.93134 0
M  V30 4529 H 429.16 0.769693 -3.3456 0
M  V30 4530 N 431.605 1.3629 0.791371 0
M  V30 4531 C 432.83 1.33726 1.58531 0
M  V30 4532 C 433.255 -0.0794933 1.87932 0
M  V30 4533 O 432.613 -1.05087 1.47738 0
M  V30 4534 C 432.661 2.16425 2.88431 0
M  V30 4535 O 431.765 1.5554 3.81944 0
M  V30 4536 H 431.106 0.457793 0.480959 0
M  V30 4537 H 433.636 1.79547 0.981031 0
M  V30 4538 H 433.646 2.28933 3.37718 0
M  V30 4539 H 432.321 3.19415 2.66359 0
M  V30 4540 H 430.898 1.51961 3.40532 0
M  V30 4541 N 433.083 -1.0153 1.20538 0
M  V30 4542 C 434.031 -2.12215 0.952235 0
M  V30 4543 C 435.025 -1.69123 -0.0968735 0
M  V30 4544 O 436.231 -1.7992 0.0536006 0
M  V30 4545 H 432.606 -0.693576 0.290613 0
M  V30 4546 H 434.577 -2.3075 1.89201 0
M  V30 4547 C 433.326 -3.43755 0.522287 0
M  V30 4548 H 432.649 -3.7734 1.32115 0
M  V30 4549 H 434.089 -4.22254 0.384389 0
M  V30 4550 C 432.548 -3.28088 -0.765489 0
M  V30 4551 O 433.078 -3.57921 -1.8236 0
M  V30 4552 N 431.284 -2.81333 -0.728011 0
M  V30 4553 H 430.831 -2.57255 0.133332 0
M  V30 4554 H 430.789 -2.71232 -1.58999 0
M  V30 4555 N 434.561 -1.01147 -1.20859 0
M  V30 4556 C 435.809 -0.696486 -1.89719 0
M  V30 4557 C 436.13 0.775788 -1.78904 0
M  V30 4558 O 435.4 1.55759 -1.18811 0
M  V30 4559 H 433.98 -0.254628 -0.702263 0
M  V30 4560 H 436.642 -1.28197 -1.46804 0
M  V30 4561 H 435.738 -0.975357 -2.96468 0
M  V30 4562 N 436.039 1.36541 -0.78704 0
M  V30 4563 C 437.279 2.01138 -0.363714 0
M  V30 4564 C 437.643 1.61114 1.04433 0
M  V30 4565 O 438.844 2.18285 1.56861 0
M  V30 4566 C 437.115 3.53603 -0.519582 0
M  V30 4567 S 438.674 4.38415 -0.183782 0
M  V30 4568 H 435.492 0.697263 -0.13909 0
M  V30 4569 H 438.094 1.66475 -1.02501 0
M  V30 4570 H 436.798 3.8022 -1.5447 0
M  V30 4571 H 436.329 3.93084 0.15773 0
M  V30 4572 H 438.344 4.85698 1.01547 0
M  V30 4573 N 437.518 0.538854 1.48102 0
M  V30 4574 C 438.428 -0.222648 2.33541 0
M  V30 4575 C 439.444 -0.930225 1.47047 0
M  V30 4576 O 440.62 -0.903211 1.80011 0
M  V30 4577 C 437.685 -1.25064 3.23357 0
M  V30 4578 C 436.746 -0.552469 4.2573 0
M  V30 4579 C 435.979 -1.53149 5.11254 0
M  V30 4580 O 436.202 -2.76487 4.9891 0
M  V30 4581 O 435.136 -1.06602 5.92385 0
M  V30 4582 H 438.962 0.477707 2.99919 0
M  V30 4583 H 436.547 0.299669 1.46364 0
M  V30 4584 H 438.429 -1.8445 3.78888 0
M  V30 4585 H 437.104 -1.93325 2.59629 0
M  V30 4586 H 436.011 0.082114 3.7401 0
M  V30 4587 H 437.344 0.0883526 4.92121 0
M  V30 4588 N 438.996 -1.55193 0.274407 0
M  V30 4589 C 439.943 -2.225 -0.613374 0
M  V30 4590 C 440.913 -1.19823 -1.15029 0
M  V30 4591 O 442.098 -1.48362 -1.19973 0
M  V30 4592 C 439.238 -2.94927 -1.79199 0
M  V30 4593 C 438.351 -4.12322 -1.28899 0
M  V30 4594 C 437.486 -4.72394 -2.42934 0
M  V30 4595 C 436.525 -5.81984 -1.89634 0
M  V30 4596 N 435.662 -6.36123 -2.9714 0
M  V30 4597 H 440.502 -2.97982 -0.032756 0
M  V30 4598 H 438.039 -1.47099 -0.00440146 0
M  V30 4599 H 439.997 -3.35134 -2.48478 0
M  V30 4600 H 438.627 -2.2187 -2.34465 0
M  V30 4601 H 437.679 -3.7724 -0.489327 0
M  V30 4602 H 438.991 -4.91355 -0.858587 0
M  V30 4603 H 438.145 -5.15317 -3.20208 0
M  V30 4604 H 436.884 -3.92636 -2.8929 0
M  V30 4605 H 435.889 -5.38511 -1.1084 0
M  V30 4606 H 437.114 -6.6361 -1.44215 0
M  V30 4607 H 435.06 -5.59259 -3.42878 0
M  V30 4608 H 434.977 -7.10427 -2.58515 0
M  V30 4609 H 436.245 -6.83704 -3.74391 0
M  V30 4610 N 440.474 -0.00167713 -1.576 0
M  V30 4611 C 441.702 0.693759 -1.94922 0
M  V30 4612 C 442.117 1.67215 -0.876626 0
M  V30 4613 O 441.474 1.81929 0.144279 0
M  V30 4614 C 441.525 1.42416 -3.32265 0
M  V30 4615 O 441.246 0.485014 -4.35407 0
M  V30 4616 C 442.747 2.21395 -3.84056 0
M  V30 4617 H 439.967 0.193118 -0.642609 0
M  V30 4618 H 442.511 -0.0532952 -2.04431 0
M  V30 4619 H 440.666 2.12284 -3.24059 0
M  V30 4620 H 441.08 1.00053 -5.14868 0
M  V30 4621 H 442.554 2.67996 -4.82578 0
M  V30 4622 H 443.031 3.04142 -3.16851 0
M  V30 4623 H 443.637 1.56542 -3.95443 0
M  V30 4624 N 441.952 1.55251 0.271103 0
M  V30 4625 C 443.199 1.75946 1.00245 0
M  V30 4626 C 443.527 0.561611 1.86215 0
M  V30 4627 O 442.782 -0.455832 1.90317 0
M  V30 4628 C 443.081 3.01879 1.91321 0
M  V30 4629 C 442.747 4.34337 1.21086 0
M  V30 4630 C 441.409 4.70338 1.01666 0
M  V30 4631 C 443.761 5.16325 0.71119 0
M  V30 4632 C 441.089 5.8588 0.310099 0
M  V30 4633 C 443.441 6.32597 0.0182157 0
M  V30 4634 C 442.105 6.67236 -0.18768 0
M  V30 4635 H 441.375 0.643833 0.366824 0
M  V30 4636 H 444.022 1.89521 0.27458 0
M  V30 4637 H 442.327 2.83212 2.70736 0
M  V30 4638 H 444.024 3.15088 2.48033 0
M  V30 4639 H 440.614 4.06043 1.37213 0
M  V30 4640 H 444.798 4.88987 0.848844 0
M  V30 4641 H 440.054 6.1124 0.139873 0
M  V30 4642 H 444.228 6.9538 -0.376711 0
M  V30 4643 H 441.855 7.56618 -0.73715 0
M  V30 4644 N 443.43 -0.535701 1.48216 0
M  V30 4645 C 444.655 -1.32149 1.59848 0
M  V30 4646 C 445.08 -1.86338 0.256842 0
M  V30 4647 O 444.438 -1.64107 -0.770632 0
M  V30 4648 C 444.486 -2.45224 2.64381 0
M  V30 4649 O 443.59 -3.48093 2.21144 0
M  V30 4650 H 442.931 -0.391634 0.536208 0
M  V30 4651 H 445.461 -0.645202 1.94161 0
M  V30 4652 H 445.471 -2.91491 2.85476 0
M  V30 4653 H 444.146 -2.05143 3.61786 0
M  V30 4654 H 442.723 -3.07984 2.10239 0
M  V30 4655 N 444.908 -1.36708 -0.784132 0
M  V30 4656 C 446.136 -1.34398 -1.57305 0
M  V30 4657 C 446.551 0.0735577 -1.88657 0
M  V30 4658 O 445.908 1.03193 -1.50524 0
M  V30 4659 C 445.959 -2.17053 -2.89085 0
M  V30 4660 O 445.68 -3.53281 -2.59083 0
M  V30 4661 C 447.181 -2.22583 -3.83369 0
M  V30 4662 H 444.401 -0.460819 -0.487736 0
M  V30 4663 H 446.945 -1.79879 -0.972819 0
M  V30 4664 H 445.1 -1.75113 -3.45564 0
M  V30 4665 H 445.514 -3.9647 -3.43383 0
M  V30 4666 H 446.988 -2.84763 -4.72878 0
M  V30 4667 H 447.465 -1.23075 -4.21603 0
M  V30 4668 H 448.071 -2.64781 -3.32823 0
M  V30 4669 N 446.386 1.0089 -1.21074 0
M  V30 4670 C 447.318 2.09737 -0.924291 0
M  V30 4671 C 448.331 1.62546 0.0909809 0
M  V30 4672 O 449.52 1.77942 -0.141021 0
M  V30 4673 C 446.62 3.36922 -0.36559 0
M  V30 4674 C 445.793 4.13216 -1.43426 0
M  V30 4675 C 444.852 5.18696 -0.885496 0
M  V30 4676 O 443.878 5.47176 -1.56801 0
M  V30 4677 N 445.08 5.79718 0.301227 0
M  V30 4678 H 447.845 2.34895 -1.8613 0
M  V30 4679 H 445.406 1.17341 -1.11546 0
M  V30 4680 H 447.398 4.04697 0.0158407 0
M  V30 4681 H 445.968 3.08952 0.476149 0
M  V30 4682 H 445.188 3.40301 -1.9897 0
M  V30 4683 H 446.476 4.60967 -2.15376 0
M  V30 4684 H 445.874 5.58926 0.872849 0
M  V30 4685 H 444.431 6.48804 0.624211 0
M  V30 4686 N 447.864 1.01787 1.20321 0
M  V30 4687 C 449.094 0.72614 1.93419 0
M  V30 4688 C 449.502 -0.717317 1.75075 0
M  V30 4689 O 448.845 -1.49836 1.06278 0
M  V30 4690 C 448.907 0.983621 3.45782 0
M  V30 4691 C 448.571 2.41645 3.87888 0
M  V30 4692 C 449.568 3.39732 3.93545 0
M  V30 4693 C 447.253 2.75752 4.19841 0
M  V30 4694 C 449.247 4.69988 4.30569 0
M  V30 4695 C 446.934 4.06221 4.56539 0
M  V30 4696 C 447.932 5.0315 4.61876 0
M  V30 4697 O 447.62 6.31284 4.97731 0
M  V30 4698 H 447.352 0.265824 0.621541 0
M  V30 4699 H 449.906 1.3623 1.53722 0
M  V30 4700 H 448.136 0.290301 3.85609 0
M  V30 4701 H 449.825 0.683279 4.00108 0
M  V30 4702 H 450.591 3.14718 3.69022 0
M  V30 4703 H 446.47 2.00993 4.14877 0
M  V30 4704 H 450.014 5.45642 4.3465 0
M  V30 4705 H 445.911 4.31013 4.80518 0
M  V30 4706 H 446.679 6.35591 5.15719 0
M  V30 4707 N 449.342 -1.36122 0.79427 0
M  V30 4708 C 450.567 -2.03891 0.379871 0
M  V30 4709 C 450.992 -1.59488 -0.997251 0
M  V30 4710 O 450.35 -0.765652 -1.64339 0
M  V30 4711 C 450.398 -3.57687 0.457442 0
M  V30 4712 O 449.502 -4.08931 -0.5338 0
M  V30 4713 H 448.843 -0.6443 0.160541 0
M  V30 4714 H 451.373 -1.73976 1.07673 0
M  V30 4715 H 451.383 -4.06721 0.322792 0
M  V30 4716 H 450.058 -3.89357 1.46199 0
M  V30 4717 H 448.635 -3.71154 -0.360409 0
M  V30 4718 N 450.82 -0.546701 -1.47814 0
M  V30 4719 C 451.75 0.195317 -2.32682 0
M  V30 4720 C 452.731 0.918981 -1.43139 0
M  V30 4721 O 453.916 0.901501 -1.72008 0
M  V30 4722 C 451.046 1.23237 -3.247 0
M  V30 4723 C 450 0.625818 -4.234 0
M  V30 4724 C 449.326 1.76674 -5.04669 0
M  V30 4725 C 450.626 -0.413515 -5.2066 0
M  V30 4726 H 452.32 -0.513184 -2.94969 0
M  V30 4727 H 449.866 -0.248241 -1.41844 0
M  V30 4728 H 451.819 1.75955 -3.82907 0
M  V30 4729 H 450.543 1.97067 -2.60446 0
M  V30 4730 H 449.202 0.120023 -3.66403 0
M  V30 4731 H 448.85 2.49383 -4.36826 0
M  V30 4732 H 448.55 1.36673 -5.71484 0
M  V30 4733 H 450.074 2.29738 -5.65732 0
M  V30 4734 H 451.488 0.0272042 -5.73294 0
M  V30 4735 H 449.885 -0.731825 -5.95621 0
M  V30 4736 H 450.955 -1.31325 -4.66778 0
M  V30 4737 N 452.299 1.55045 -0.282633 0
M  V30 4738 C 453.246 2.22822 0.601566 0
M  V30 4739 C 454.216 1.20431 1.14392 0
M  V30 4740 O 455.401 1.48996 1.19184 0
M  V30 4741 C 452.541 2.95873 1.77632 0
M  V30 4742 C 451.654 4.12999 1.26711 0
M  V30 4743 C 450.789 4.73676 2.40426 0
M  V30 4744 C 449.828 5.82981 1.86545 0
M  V30 4745 N 448.965 6.3769 2.93762 0
M  V30 4746 H 453.805 2.97995 0.0169528 0
M  V30 4747 H 451.342 1.471 -0.00339964 0
M  V30 4748 H 453.3 3.36447 2.46697 0
M  V30 4749 H 451.93 2.2311 2.33285 0
M  V30 4750 H 450.982 3.77494 0.469314 0
M  V30 4751 H 452.294 4.91803 0.832518 0
M  V30 4752 H 451.448 5.17008 3.17471 0
M  V30 4753 H 450.187 3.94164 2.87203 0
M  V30 4754 H 449.192 5.39092 1.07983 0
M  V30 4755 H 450.417 6.64366 1.40694 0
M  V30 4756 H 448.363 5.61069 3.39908 0
M  V30 4757 H 448.28 7.11788 2.54744 0
M  V30 4758 H 449.548 6.8568 3.7076 0
M  V30 4759 N 453.777 0.010035 1.57597 0
M  V30 4760 C 455.002 -0.687021 1.95691 0
M  V30 4761 C 455.427 -1.65952 0.885519 0
M  V30 4762 O 454.785 -1.80633 -0.15543 0
M  V30 4763 C 454.833 -1.3864 3.32884 0
M  V30 4764 O 453.937 -2.50115 3.27897 0
M  V30 4765 H 453.278 -0.181989 0.638573 0
M  V30 4766 H 455.808 0.0662122 2.04493 0
M  V30 4767 H 455.818 -1.74754 3.6868 0
M  V30 4768 H 454.493 -0.673411 4.10412 0
M  V30 4769 H 453.07 -2.16253 3.03791 0
M  V30 4770 N 455.255 -1.55392 -0.262866 0
M  V30 4771 C 456.205 -1.85355 -1.32768 0
M  V30 4772 C 457.189 -0.713188 -1.44231 0
M  V30 4773 O 458.381 -0.974765 -1.47741 0
M  V30 4774 C 455.51 -2.13781 -2.68612 0
M  V30 4775 C 454.596 -3.34104 -2.61219 0
M  V30 4776 N 454.987 -4.53766 -2.2345 0
M  V30 4777 C 453.285 -3.36895 -2.92263 0
M  V30 4778 C 453.986 -5.35877 -2.26298 0
M  V30 4779 N 452.962 -4.74536 -2.65172 0
M  V30 4780 H 456.764 -2.75413 -1.02591 0
M  V30 4781 H 454.278 -1.55405 -0.471503 0
M  V30 4782 H 456.275 -2.33407 -3.45437 0
M  V30 4783 H 454.935 -1.25013 -2.99669 0
M  V30 4784 H 455.946 -4.79682 -1.95258 0
M  V30 4785 H 452.623 -2.58351 -3.27965 0
M  V30 4786 H 454.013 -6.41577 -1.99572 0
M  V30 4787 N 456.733 0.527833 -1.48498 0
M  V30 4788 C 457.666 1.64892 -1.57753 0
M  V30 4789 C 458.644 1.5687 -0.427867 0
M  V30 4790 O 459.828 1.77311 -0.639764 0
M  V30 4791 C 456.955 3.03301 -1.50752 0
M  V30 4792 C 456.001 3.29675 -2.70586 0
M  V30 4793 S 456.834 3.15712 -4.32535 0
M  V30 4794 C 457.99 4.56564 -4.28136 0
M  V30 4795 H 458.223 1.56792 -2.52594 0
M  V30 4796 H 455.756 0.710959 -1.37057 0
M  V30 4797 H 457.714 3.83123 -1.474 0
M  V30 4798 H 456.375 3.08839 -0.572454 0
M  V30 4799 H 455.568 4.3065 -2.61833 0
M  V30 4800 H 455.17 2.57526 -2.71212 0
M  V30 4801 H 457.462 5.48126 -3.98201 0
M  V30 4802 H 458.405 4.70371 -5.29298 0
M  V30 4803 H 458.813 4.35987 -3.58574 0
M  V30 4804 N 458.211 1.37122 0.776871 0
M  V30 4805 C 459.158 1.3247 1.88998 0
M  V30 4806 C 460.128 0.191143 1.64997 0
M  V30 4807 O 461.313 0.379683 1.86984 0
M  V30 4808 C 458.453 1.13241 3.25992 0
M  V30 4809 C 457.566 2.35782 3.61982 0
M  V30 4810 C 456.701 2.09465 4.88158 0
M  V30 4811 C 455.74 3.279 5.16864 0
M  V30 4812 N 454.877 3.01167 6.34226 0
M  V30 4813 H 459.717 2.27642 1.9231 0
M  V30 4814 H 457.254 1.13125 0.94027 0
M  V30 4815 H 459.212 1.00115 4.0501 0
M  V30 4816 H 457.842 0.217186 3.22069 0
M  V30 4817 H 456.894 2.59666 2.77989 0
M  V30 4818 H 458.206 3.24125 3.79137 0
M  V30 4819 H 457.36 1.93341 5.75069 0
M  V30 4820 H 456.099 1.18452 4.73097 0
M  V30 4821 H 455.104 3.44569 4.2843 0
M  V30 4822 H 456.329 4.19757 5.33836 0
M  V30 4823 H 454.275 2.12779 6.20533 0
M  V30 4824 H 454.192 3.83052 6.51772 0
M  V30 4825 H 455.46 2.88649 7.24087 0
M  V30 4826 N 459.689 -1.00246 1.21608 0
M  V30 4827 C 460.937 -1.73717 1.0328 0
M  V30 4828 C 461.258 -1.90102 -0.434318 0
M  V30 4829 O 460.528 -1.45376 -1.31311 0
M  V30 4830 H 459.108 -0.643613 0.379172 0
M  V30 4831 H 461.77 -1.20787 1.52959 0
M  V30 4832 H 460.866 -2.73535 1.50283 0
M  V30 4833 N 461.167 -1.02423 -1.1978 0
M  V30 4834 C 462.117 -0.571689 -2.20716 0
M  V30 4835 C 463.101 0.377077 -1.56419 0
M  V30 4836 O 464.293 0.198801 -1.7588 0
M  V30 4837 C 461.422 0.0808555 -3.43205 0
M  V30 4838 C 460.508 -0.890073 -4.14655 0
M  V30 4839 N 460.899 -2.05065 -4.62366 0
M  V30 4840 C 459.197 -0.71252 -4.40272 0
M  V30 4841 C 459.898 -2.66264 -5.17183 0
M  V30 4842 N 458.874 -1.94264 -5.07703 0
M  V30 4843 H 462.676 -1.45636 -2.55279 0
M  V30 4844 H 460.19 -0.890596 -1.35802 0
M  V30 4845 H 462.187 0.422654 -4.14752 0
M  V30 4846 H 460.847 0.961274 -3.10144 0
M  V30 4847 H 461.858 -2.43026 -4.57339 0
M  V30 4848 H 458.535 0.119199 -4.1733 0
M  V30 4849 H 459.925 -3.64526 -5.64421 0
M  V30 4850 N 462.645 1.35699 -0.801477 0
M  V30 4851 C 463.922 1.9324 -0.302937 0
M  V30 4852 C 464.302 1.73209 1.20672 0
M  V30 4853 O 463.65 1.09809 2.00385 0
M  V30 4854 C 463.86 3.41728 -0.708747 0
M  V30 4855 C 465.208 4.18868 -0.695328 0
M  V30 4856 O 466.232 3.5022 -0.649971 0
M  V30 4857 O 465.091 5.41342 -0.749081 0
M  V30 4858 H 462.185 0.82331 -0.0780367 0
M  V30 4859 H 464.731 1.44806 -0.884832 0
M  V30 4860 H 463.503 3.50015 -1.74944 0
M  V30 4861 H 463.126 3.97471 -0.101384 0
M  V30 4862 N 464.123 0.554532 1.47522 0
M  V30 4863 C 465.071 -0.207765 2.3167 0
M  V30 4864 C 466.065 -0.911914 1.4276 0
M  V30 4865 O 467.271 -0.833504 1.59539 0
M  V30 4866 H 463.646 -0.0858726 0.747081 0
M  V30 4867 H 465.617 0.521178 2.93813 0
M  V30 4868 C 464.366 -1.2263 3.25357 0
M  V30 4869 H 463.689 -0.693887 3.93732 0
M  V30 4870 H 465.129 -1.73062 3.87073 0
M  V30 4871 C 463.588 -2.27278 2.4869 0
M  V30 4872 O 464.118 -3.34156 2.22941 0
M  V30 4873 N 462.324 -2.01134 2.09746 0
M  V30 4874 H 461.871 -1.14232 2.30887 0
M  V30 4875 H 461.829 -2.71369 1.58765 0
M  V30 4876 N 465.601 -1.54893 0.290851 0
M  V30 4877 C 466.548 -2.23138 -0.58974 0
M  V30 4878 C 467.518 -1.21036 -1.13752 0
M  V30 4879 O 468.703 -1.49626 -1.18392 0
M  V30 4880 C 465.843 -2.96811 -1.76061 0
M  V30 4881 C 464.956 -4.13665 -1.24519 0
M  V30 4882 C 464.091 -4.74944 -2.3791 0
M  V30 4883 C 463.13 -5.83963 -1.83451 0
M  V30 4884 N 462.267 -6.39239 -2.90376 0
M  V30 4885 H 467.107 -2.98 -0.00114915 0
M  V30 4886 H 464.644 -1.47096 0.0112006 0
M  V30 4887 H 466.602 -3.37751 -2.44909 0
M  V30 4888 H 465.232 -2.24344 -2.32098 0
M  V30 4889 H 464.284 -3.77737 -0.449288 0
M  V30 4890 H 465.596 -4.92238 -0.806424 0
M  V30 4891 H 464.75 -5.18684 -3.14724 0
M  V30 4892 H 463.489 -3.95682 -2.85109 0
M  V30 4893 H 462.494 -5.39657 -1.05122 0
M  V30 4894 H 463.719 -6.65103 -1.37169 0
M  V30 4895 H 461.665 -5.62864 -3.36927 0
M  V30 4896 H 461.582 -7.13129 -2.50965 0
M  V30 4897 H 462.85 -6.87637 -3.67118 0
M  V30 4898 N 467.08 -0.0183926 -1.57589 0
M  V30 4899 C 468.328 0.661253 -1.90976 0
M  V30 4900 C 468.649 1.73281 -0.894353 0
M  V30 4901 O 467.919 1.9579 0.0656788 0
M  V30 4902 H 466.499 0.247233 -0.704901 0
M  V30 4903 H 469.161 -0.0636639 -1.94796 0
M  V30 4904 H 468.257 1.12083 -2.9128 0
M  V30 4905 N 468.558 1.5553 0.254621 0
M  V30 4906 C 469.508 1.86057 1.31783 0
M  V30 4907 C 470.492 0.720827 1.4385 0
M  V30 4908 O 471.684 0.982586 1.47222 0
M  V30 4909 C 468.813 2.15203 2.67475 0
M  V30 4910 C 467.899 3.35484 2.59444 0
M  V30 4911 N 468.29 4.54945 2.2104 0
M  V30 4912 C 466.588 3.38441 2.90472 0
M  V30 4913 C 467.289 5.3707 2.23453 0
M  V30 4914 N 466.265 4.75936 2.62652 0
M  V30 4915 H 470.067 2.75953 1.01129 0
M  V30 4916 H 467.581 1.55653 0.463255 0
M  V30 4917 H 469.578 2.35235 3.44195 0
M  V30 4918 H 468.238 1.26601 2.99002 0
M  V30 4919 H 469.249 4.8071 1.92712 0
M  V30 4920 H 465.926 2.60087 3.2659 0
M  V30 4921 H 467.316 6.42626 1.96166 0
M  V30 4922 N 470.036 -0.519951 1.48776 0
M  V30 4923 C 471.261 -1.30447 1.6124 0
M  V30 4924 C 471.686 -1.86055 0.276591 0
M  V30 4925 O 471.044 -1.64915 -0.753183 0
M  V30 4926 C 471.092 -2.42406 2.66967 0
M  V30 4927 O 470.196 -3.45728 2.24824 0
M  V30 4928 H 469.537 -0.385924 0.540332 0
M  V30 4929 H 472.067 -0.624572 1.94834 0
M  V30 4930 H 472.077 -2.88447 2.88552 0
M  V30 4931 H 470.752 -2.01294 3.63941 0
M  V30 4932 H 469.329 -3.05737 2.13494 0
M  V30 4933 N 471.514 -1.37532 -0.769588 0
M  V30 4934 C 472.744 -1.35861 -1.55645 0
M  V30 4935 C 473.152 0.0574398 -1.89113 0
M  V30 4936 O 472.495 1.03021 -1.52093 0
M  V30 4937 C 472.557 -2.13431 -2.89288 0
M  V30 4938 C 472.221 -3.62378 -2.78444 0
M  V30 4939 C 473.218 -4.56215 -2.49326 0
M  V30 4940 C 470.903 -4.05529 -2.96398 0
M  V30 4941 C 472.897 -5.91181 -2.38294 0
M  V30 4942 C 470.584 -5.40579 -2.84987 0
M  V30 4943 C 471.582 -6.33218 -2.55975 0
M  V30 4944 O 471.27 -7.65787 -2.44594 0
M  V30 4945 H 471.002 -0.467001 -0.48876 0
M  V30 4946 H 473.556 -1.81505 -0.961515 0
M  V30 4947 H 471.786 -1.62481 -3.50909 0
M  V30 4948 H 473.475 -2.04368 -3.50697 0
M  V30 4949 H 474.241 -4.24187 -2.35139 0
M  V30 4950 H 470.12 -3.33781 -3.1798 0
M  V30 4951 H 473.664 -6.63457 -2.15571 0
M  V30 4952 H 469.561 -5.72209 -2.98743 0
M  V30 4953 H 470.329 -7.76132 -2.59927 0
M  V30 4954 N 472.992 0.995999 -1.22138 0
M  V30 4955 C 473.94 2.10673 -0.985876 0
M  V30 4956 C 474.934 1.69255 0.0699553 0
M  V30 4957 O 476.14 1.79812 -0.0822176 0
M  V30 4958 H 472.515 0.688865 -0.30161 0
M  V30 4959 H 474.486 2.27711 -1.92848 0
M  V30 4960 C 473.235 3.42881 -0.576909 0
M  V30 4961 H 472.558 3.75191 -1.38101 0
M  V30 4962 H 473.998 4.21589 -0.451518 0
M  V30 4963 C 472.457 3.29265 0.713196 0
M  V30 4964 O 472.987 3.60777 1.76643 0
M  V30 4965 N 471.193 2.82456 0.683162 0
M  V30 4966 H 470.74 2.5701 -0.174242 0
M  V30 4967 H 470.698 2.73727 1.54663 0
M  V30 4968 N 474.47 1.03057 1.19235 0
M  V30 4969 C 475.433 0.617418 2.20727 0
M  V30 4970 C 476.433 -0.319856 1.57587 0
M  V30 4971 O 477.623 -0.106633 1.73873 0
M  V30 4972 C 474.755 -0.096296 3.40764 0
M  V30 4973 H 475.948 1.51544 2.58794 0
M  V30 4974 H 473.501 0.821949 1.32942 0
M  V30 4975 H 474.236 -1.00859 3.08217 0
M  V30 4976 H 474.021 0.577217 3.87828 0
M  V30 4977 H 475.511 -0.372219 4.15938 0
M  V30 4978 N 475.948 -1.35272 0.808662 0
M  V30 4979 C 476.878 -2.32315 0.234981 0
M  V30 4980 C 477.859 -1.57572 -0.64071 0
M  V30 4981 O 479.044 -1.8563 -0.570551 0
M  V30 4982 C 476.174 -3.41801 -0.615601 0
M  V30 4983 C 475.128 -4.27694 0.161767 0
M  V30 4984 C 474.454 -5.28519 -0.810649 0
M  V30 4985 C 475.754 -5.04231 1.36193 0
M  V30 4986 H 477.448 -2.80543 1.04575 0
M  V30 4987 H 474.994 -1.3488 0.504315 0
M  V30 4988 H 476.947 -4.08693 -1.02702 0
M  V30 4989 H 475.671 -2.92186 -1.45928 0
M  V30 4990 H 474.33 -3.62384 0.554382 0
M  V30 4991 H 473.978 -4.75171 -1.64988 0
M  V30 4992 H 473.678 -5.8686 -0.294822 0
M  V30 4993 H 475.202 -5.98283 -1.22023 0
M  V30 4994 H 476.616 -5.64058 1.02528 0
M  V30 4995 H 475.013 -5.72077 1.81239 0
M  V30 4996 H 476.083 -4.34753 2.14751 0
M  V30 4997 N 477.426 -0.562348 -1.47226 0
M  V30 4998 C 478.837 -0.130325 -1.86245 0
M  V30 4999 C 479.188 1.30128 -1.46838 0
M  V30 5000 O 478.313 1.97974 -0.873805 0
M  V30 5001 C 478.908 -0.229738 -3.3802 0
M  V30 5002 C 477.467 0.14728 -3.76112 0
M  V30 5003 C 476.614 -0.574971 -2.71274 0
M  V30 5004 H 479.565 -0.771773 -1.3867 0
M  V30 5005 H 479.586 0.550316 -3.76499 0
M  V30 5006 H 479.098 -1.27178 -3.66671 0
M  V30 5007 H 477.199 1.19023 -3.53078 0
M  V30 5008 H 477.312 -0.214858 -4.78618 0
M  V30 5009 H 475.676 -0.0174756 -2.54694 0
M  V30 5010 H 476.459 -1.61827 -3.02766 0
M  V30 5011 N 478.904 1.54736 -0.299062 0
M  V30 5012 C 479.836 2.20891 0.61153 0
M  V30 5013 C 480.849 1.20104 1.09904 0
M  V30 5014 O 482.038 1.46707 1.01683 0
M  V30 5015 C 479.138 2.84018 1.84897 0
M  V30 5016 C 478.311 4.10719 1.50428 0
M  V30 5017 C 477.37 4.57667 2.59667 0
M  V30 5018 O 476.396 5.2291 2.24842 0
M  V30 5019 N 477.598 4.29821 3.90172 0
M  V30 5020 H 480.363 2.99666 0.0452001 0
M  V30 5021 H 477.924 1.61446 -0.121178 0
M  V30 5022 H 479.916 3.1236 2.5732 0
M  V30 5023 H 478.486 2.09095 2.32375 0
M  V30 5024 H 477.706 3.89408 0.612781 0
M  V30 5025 H 478.994 4.93223 1.24934 0
M  V30 5026 H 478.392 3.77549 4.21276 0
M  V30 5027 H 476.949 4.62877 4.58899 0
M  V30 5028 N 480.382 0.0267497 1.57577 0
M  V30 5029 C 481.332 -0.965003 2.06571 0
M  V30 5030 C 482.316 -1.28694 0.965746 0
M  V30 5031 O 483.508 -1.27345 1.22932 0
M  V30 5032 C 480.637 -2.24821 2.59443 0
M  V30 5033 C 479.723 -1.95474 3.76365 0
M  V30 5034 N 480.114 -1.36387 4.87065 0
M  V30 5035 C 478.412 -2.25478 3.84806 0
M  V30 5036 C 479.113 -1.24119 5.68304 0
M  V30 5037 N 478.089 -1.7359 5.15138 0
M  V30 5038 H 481.891 -0.503095 2.89562 0
M  V30 5039 H 479.405 -0.178322 1.61418 0
M  V30 5040 H 481.402 -2.9674 2.92833 0
M  V30 5041 H 480.062 -2.7164 1.77881 0
M  V30 5042 H 481.073 -1.03919 5.07367 0
M  V30 5043 H 477.75 -2.74987 3.14147 0
M  V30 5044 H 479.14 -0.784504 6.67304 0
M  V30 5045 N 481.861 -1.55662 -0.24637 0
M  V30 5046 C 482.809 -1.91186 -1.3248 0
M  V30 5047 C 483.803 -0.790996 -1.49799 0
M  V30 5048 O 485.009 -0.975617 -1.51267 0
M  V30 5049 H 481.384 -0.607207 -0.443626 0
M  V30 5050 H 483.355 -2.81221 -0.997853 0
M  V30 5051 C 482.104 -2.22349 -2.67313 0
M  V30 5052 H 481.427 -3.08097 -2.54786 0
M  V30 5053 H 482.867 -2.51107 -3.41645 0
M  V30 5054 C 481.326 -1.04001 -3.20446 0
M  V30 5055 O 481.856 -0.28828 -4.00664 0
M  V30 5056 N 480.062 -0.830494 -2.7848 0
M  V30 5057 H 479.609 -1.4435 -2.13356 0
M  V30 5058 H 479.567 -0.0403258 -3.14374 0
M  V30 5059 N 483.339 0.512053 -1.4905 0
M  V30 5060 C 484.587 1.26436 -1.57665 0
M  V30 5061 C 484.908 1.93255 -0.260293 0
M  V30 5062 O 484.178 1.82206 0.719564 0
M  V30 5063 H 482.758 0.469658 -0.580888 0
M  V30 5064 H 485.42 0.594398 -1.85615 0
M  V30 5065 H 484.516 2.03417 -2.36702 0
M  V30 5066 N 484.817 1.37938 0.762283 0
M  V30 5067 C 486.042 1.37059 1.55659 0
M  V30 5068 C 486.467 -0.0396123 1.88058 0
M  V30 5069 O 485.825 -1.01929 1.49934 0
M  V30 5070 C 485.873 2.22494 2.83776 0
M  V30 5071 O 484.977 1.63607 3.78559 0
M  V30 5072 H 484.318 0.467892 0.47114 0
M  V30 5073 H 486.848 1.81587 0.942725 0
M  V30 5074 H 486.858 2.36045 3.32786 0
M  V30 5075 H 485.533 3.24993 2.59524 0
M  V30 5076 H 484.11 1.5915 3.37233 0
M  V30 5077 N 486.295 -0.989507 1.22664 0
M  V30 5078 C 487.205 -2.11449 1.01619 0
M  V30 5079 C 488.221 -1.73962 -0.036545 0
M  V30 5080 O 489.397 -2.00788 0.156924 0
M  V30 5081 C 486.462 -3.41465 0.600204 0
M  V30 5082 C 485.523 -3.93033 1.72695 0
M  V30 5083 C 484.756 -5.16844 1.33071 0
M  V30 5084 O 484.979 -5.7001 0.210975 0
M  V30 5085 O 483.913 -5.6225 2.14845 0
M  V30 5086 H 487.739 -2.32088 1.9588 0
M  V30 5087 H 485.324 -1.09823 1.01289 0
M  V30 5088 H 487.206 -4.19695 0.37873 0
M  V30 5089 H 485.881 -3.22178 -0.313511 0
M  V30 5090 H 484.788 -3.15961 2.00298 0
M  V30 5091 H 486.121 -4.16758 2.61865 0
M  V30 5092 N 487.773 -1.03688 -1.18687 0
M  V30 5093 C 489.05 -0.652397 -1.84399 0
M  V30 5094 C 489.43 0.868386 -1.92412 0
M  V30 5095 O 488.778 1.76832 -1.44716 0
M  V30 5096 C 488.988 -1.3238 -3.22919 0
M  V30 5097 C 490.336 -1.45216 -3.98996 0
M  V30 5098 O 491.36 -1.2816 -3.32345 0
M  V30 5099 O 490.219 -1.72975 -5.18403 0
M  V30 5100 H 487.313 -0.227793 -0.795009 0
M  V30 5101 H 489.859 -1.13553 -1.2611 0
M  V30 5102 H 488.631 -2.36202 -3.11968 0
M  V30 5103 H 488.254 -0.829039 -3.88861 0
M  V30 5104 N 489.251 1.34841 -0.815825 0
M  V30 5105 C 490.479 2.0273 -0.413294 0
M  V30 5106 C 490.894 1.61459 0.978599 0
M  V30 5107 O 490.251 0.816584 1.63212 0
M  V30 5108 C 490.302 3.58058 -0.497676 0
M  V30 5109 O 490.023 3.97832 -1.8347 0
M  V30 5110 C 491.524 4.4321 -0.0891339 0
M  V30 5111 H 488.744 0.649956 -0.166728 0
M  V30 5112 H 491.288 1.72267 -1.10201 0
M  V30 5113 H 489.443 3.87136 0.142886 0
M  V30 5114 H 489.857 4.92501 -1.80396 0
M  V30 5115 H 491.331 5.5164 -0.199274 0
M  V30 5116 H 491.808 4.28432 0.966571 0
M  V30 5117 H 492.414 4.19446 -0.703214 0
M  V30 5118 N 490.729 0.570148 1.46925 0
M  V30 5119 C 491.677 -0.183181 2.31878 0
M  V30 5120 C 492.671 -0.896721 1.43719 0
M  V30 5121 O 493.877 -0.816536 1.60414 0
M  V30 5122 H 490.252 -0.077944 0.74795 0
M  V30 5123 H 492.223 0.552312 2.93244 0
M  V30 5124 C 490.972 -1.19172 3.2664 0
M  V30 5125 H 490.295 -0.652088 3.94446 0
M  V30 5126 H 491.735 -1.68946 3.88887 0
M  V30 5127 C 490.194 -2.24627 2.51086 0
M  V30 5128 O 490.724 -3.31773 2.26472 0
M  V30 5129 N 488.93 -1.98898 2.11867 0
M  V30 5130 H 488.477 -1.11777 2.32086 0
M  V30 5131 H 488.435 -2.6967 1.61634 0
M  V30 5132 N 492.207 -1.54576 0.307264 0
M  V30 5133 C 493.157 -2.20467 -0.581249 0
M  V30 5134 C 494.141 -1.17972 -1.09414 0
M  V30 5135 O 495.333 -1.43667 -1.03387 0
M  V30 5136 C 492.462 -2.95369 -1.74963 0
M  V30 5137 C 491.548 -4.05186 -1.25241 0
M  V30 5138 N 491.939 -5.03577 -0.47364 0
M  V30 5139 C 490.237 -4.18841 -1.53259 0
M  V30 5140 C 490.938 -5.81328 -0.208083 0
M  V30 5141 N 489.914 -5.37834 -0.789651 0
M  V30 5142 H 493.716 -2.93892 0.0212221 0
M  V30 5143 H 491.23 -1.62011 0.112325 0
M  V30 5144 H 493.227 -3.41046 -2.39777 0
M  V30 5145 H 491.887 -2.23461 -2.35574 0
M  V30 5146 H 492.898 -5.17766 -0.117963 0
M  V30 5147 H 489.575 -3.58141 -2.14573 0
M  V30 5148 H 490.965 -6.706 0.417793 0
M  V30 5149 N 493.685 -0.035106 -1.57561 0
M  V30 5150 C 494.91 0.655802 -1.96759 0
M  V30 5151 C 495.335 1.64523 -0.911809 0
M  V30 5152 O 494.693 1.80857 0.126673 0
M  V30 5153 C 494.741 1.33326 -3.35047 0
M  V30 5154 O 493.845 2.44866 -3.31835 0
M  V30 5155 H 493.186 0.171807 -0.641388 0
M  V30 5156 H 495.716 -0.0987369 -2.04362 0
M  V30 5157 H 495.726 1.68867 -3.71413 0
M  V30 5158 H 494.401 0.608033 -4.11431 0
M  V30 5159 H 492.978 2.11392 -3.07193 0
M  V30 5160 N 495.163 1.55791 0.238111 0
M  V30 5161 C 496.093 1.94068 1.29846 0
M  V30 5162 C 497.074 0.806726 1.49753 0
M  V30 5163 O 498.259 1.06772 1.62214 0
M  V30 5164 C 495.389 2.24302 2.65153 0
M  V30 5165 C 494.343 3.40032 2.59927 0
M  V30 5166 C 493.669 3.55829 3.99111 0
M  V30 5167 C 494.969 4.75476 2.16148 0
M  V30 5168 H 496.663 2.82887 0.980563 0
M  V30 5169 H 494.209 1.36105 0.470253 0
M  V30 5170 H 496.162 2.4967 3.39475 0
M  V30 5171 H 494.886 1.32318 2.98596 0
M  V30 5172 H 493.545 3.14687 1.88063 0
M  V30 5173 H 493.193 2.6125 4.29834 0
M  V30 5174 H 492.893 4.3366 3.96501 0
M  V30 5175 H 494.417 3.83528 4.7512 0
M  V30 5176 H 495.831 5.00158 2.80205 0
M  V30 5177 H 494.228 5.56472 2.24631 0
M  V30 5178 H 495.298 4.71946 1.11333 0
M  V30 5179 N 496.642 -0.504142 1.49319 0
M  V30 5180 C 497.882 -1.26867 1.60263 0
M  V30 5181 C 498.246 -1.89924 0.281578 0
M  V30 5182 O 499.447 -2.67479 0.266176 0
M  V30 5183 C 497.718 -2.30956 2.72753 0
M  V30 5184 S 499.277 -3.1679 3.03628 0
M  V30 5185 H 496.095 -0.431198 0.565322 0
M  V30 5186 H 498.697 -0.571407 1.86963 0
M  V30 5187 H 497.401 -1.83156 3.67263 0
M  V30 5188 H 496.932 -3.05356 2.48035 0
M  V30 5189 H 498.947 -4.31549 2.44908 0
M  V30 5190 N 498.12 -1.38341 -0.754957 0
M  V30 5191 C 499.05 -1.38176 -1.88227 0
M  V30 5192 C 500.031 -0.247873 -1.68284 0
M  V30 5193 O 501.216 -0.45075 -1.88896 0
M  V30 5194 C 498.346 -1.20471 -3.25736 0
M  V30 5195 C 497.3 -2.3105 -3.60278 0
M  V30 5196 C 496.626 -1.98452 -4.96509 0
M  V30 5197 C 497.926 -3.73305 -3.65295 0
M  V30 5198 H 499.62 -2.32512 -1.88622 0
M  V30 5199 H 497.166 -1.1192 -0.906082 0
M  V30 5200 H 499.119 -1.18982 -4.04254 0
M  V30 5201 H 497.843 -0.225965 -3.25817 0
M  V30 5202 H 496.502 -2.31723 -2.84078 0
M  V30 5203 H 496.15 -0.990641 -4.93148 0
M  V30 5204 H 495.85 -2.7251 -5.20588 0
M  V30 5205 H 497.374 -1.98578 -5.77407 0
M  V30 5206 H 498.788 -3.7467 -4.3393 0
M  V30 5207 H 497.185 -4.46557 -4.00883 0
M  V30 5208 H 498.255 -4.05719 -2.65556 0
M  V30 5209 N 499.598 0.982988 -1.23187 0
M  V30 5210 C 500.823 1.76455 -1.08988 0
M  V30 5211 C 501.248 1.84726 0.354691 0
M  V30 5212 O 500.606 1.30699 1.25649 0
M  V30 5213 C 500.654 3.17094 -1.71708 0
M  V30 5214 O 499.758 4.00648 -0.977477 0
M  V30 5215 H 499.099 0.542988 -0.382177 0
M  V30 5216 H 501.629 1.23413 -1.63188 0
M  V30 5217 H 501.639 3.67684 -1.76841 0
M  V30 5218 H 500.314 3.10389 -2.76823 0
M  V30 5219 H 498.891 3.59161 -1.0029 0
M  V30 5220 N 501.076 1.04316 1.18135 0
M  V30 5221 C 502.353 0.662166 1.84051 0
M  V30 5222 C 502.733 -0.858169 1.9287 0
M  V30 5223 O 502.081 -1.76062 1.45652 0
M  V30 5224 C 502.291 1.3409 3.22212 0
M  V30 5225 C 503.639 1.4733 3.9822 0
M  V30 5226 O 504.663 1.29921 3.31661 0
M  V30 5227 O 503.522 1.75722 5.17479 0
M  V30 5228 H 500.616 0.232005 0.79379 0
M  V30 5229 H 503.162 1.1422 1.25506 0
M  V30 5230 H 501.934 2.37853 3.10711 0
M  V30 5231 H 501.557 0.849649 3.88416 0
M  V30 5232 N 502.554 -1.34406 0.822964 0
M  V30 5233 C 503.484 -2.32052 0.259608 0
M  V30 5234 C 504.465 -1.58243 -0.623961 0
M  V30 5235 O 505.65 -1.86224 -0.55083 0
M  V30 5236 C 502.78 -3.42434 -0.579314 0
M  V30 5237 C 501.734 -4.27499 0.20712 0
M  V30 5238 C 501.06 -5.29349 -0.754547 0
M  V30 5239 C 502.36 -5.02758 1.41533 0
M  V30 5240 H 504.054 -2.79418 1.07545 0
M  V30 5241 H 501.6 -1.34338 0.518593 0
M  V30 5242 H 503.553 -4.0976 -0.983612 0
M  V30 5243 H 502.277 -2.93717 -1.4282 0
M  V30 5244 H 500.936 -3.61776 0.592787 0
M  V30 5245 H 500.584 -4.76895 -1.59939 0
M  V30 5246 H 500.284 -5.8714 -0.232561 0
M  V30 5247 H 501.808 -5.99544 -1.1567 0
M  V30 5248 H 503.222 -5.62938 1.08504 0
M  V30 5249 H 501.619 -5.70123 1.87296 0
M  V30 5250 H 502.689 -4.32451 2.1935 0
M  V30 5251 N 504.032 -0.577932 -1.46621 0
M  V30 5252 C 505.257 -0.0652536 -2.07297 0
M  V30 5253 C 505.682 1.22828 -1.4246 0
M  V30 5254 O 505.04 1.74075 -0.506718 0
M  V30 5255 C 505.088 0.0920589 -3.60482 0
M  V30 5256 O 504.192 1.14972 -3.96049 0
M  V30 5257 H 503.533 -0.06065 -0.661224 0
M  V30 5258 H 506.063 -0.799515 -1.88332 0
M  V30 5259 H 506.073 0.299741 -4.06897 0
M  V30 5260 H 504.748 -0.852612 -4.07067 0
M  V30 5261 H 503.325 0.920879 -3.61351 0
M  V30 5262 N 505.51 1.54411 -0.315457 0
M  V30 5263 C 506.44 2.27002 0.547039 0
M  V30 5264 C 507.421 1.27492 1.12605 0
M  V30 5265 O 508.606 1.5629 1.15269 0
M  V30 5266 C 505.736 3.02171 1.71201 0
M  V30 5267 C 504.69 4.0895 1.26268 0
M  V30 5268 C 504.016 4.71915 2.51396 0
M  V30 5269 C 505.316 5.20891 0.383419 0
M  V30 5270 H 507.01 2.99343 -0.0584517 0
M  V30 5271 H 504.556 1.4397 -0.0295527 0
M  V30 5272 H 506.509 3.51681 2.32161 0
M  V30 5273 H 505.233 2.27433 2.34397 0
M  V30 5274 H 503.892 3.60312 0.676062 0
M  V30 5275 H 503.54 3.93801 3.12937 0
M  V30 5276 H 503.24 5.44039 2.22026 0
M  V30 5277 H 504.764 5.24195 3.13133 0
M  V30 5278 H 506.178 5.66206 0.899082 0
M  V30 5279 H 504.575 5.99821 0.182857 0
M  V30 5280 H 505.645 4.81324 -0.587821 0
M  V30 5281 N 506.988 0.0434614 1.5754 0
M  V30 5282 C 507.918 -0.931651 2.14109 0
M  V30 5283 C 508.899 -1.32971 1.06079 0
M  V30 5284 O 510.084 -1.40579 1.33982 0
M  V30 5285 C 507.214 -2.20914 2.67982 0
M  V30 5286 C 506.168 -1.95139 3.80926 0
M  V30 5287 C 505.494 -3.29276 4.21285 0
M  V30 5288 C 506.794 -1.27913 5.06395 0
M  V30 5289 H 508.488 -0.460497 2.95837 0
M  V30 5290 H 506.034 -0.220058 1.42309 0
M  V30 5291 H 507.987 -2.89522 3.06194 0
M  V30 5292 H 506.711 -2.70221 1.83434 0
M  V30 5293 H 505.37 -1.28945 3.43175 0
M  V30 5294 H 505.018 -3.76369 3.33699 0
M  V30 5295 H 504.718 -3.12831 4.97404 0
M  V30 5296 H 506.242 -3.99129 4.62091 0
M  V30 5297 H 507.656 -1.86544 5.42102 0
M  V30 5298 H 506.053 -1.2182 5.87605 0
M  V30 5299 H 507.123 -0.254066 4.84234 0
M  V30 5300 N 508.466 -1.55915 -0.229846 0
M  V30 5301 C 509.691 -1.8296 -0.976743 0
M  V30 5302 C 510.116 -0.622735 -1.77493 0
M  V30 5303 O 509.474 0.428431 -1.76165 0
M  V30 5304 C 509.522 -3.07916 -1.8767 0
M  V30 5305 O 508.626 -2.86028 -2.97088 0
M  V30 5306 H 507.967 -0.603453 -0.277021 0
M  V30 5307 H 510.497 -2.0312 -0.245669 0
M  V30 5308 H 510.507 -3.37802 -2.2881 0
M  V30 5309 H 509.182 -3.95389 -1.28996 0
M  V30 5310 H 507.759 -2.67355 -2.59954 0
M  V30 5311 N 509.944 0.496216 -1.49584 0
M  V30 5312 C 511.172 1.27394 -1.63029 0
M  V30 5313 C 511.587 1.86344 -0.303569 0
M  V30 5314 O 510.944 1.68057 0.711547 0
M  V30 5315 C 510.995 2.40077 -2.70269 0
M  V30 5316 O 510.716 1.83549 -3.97796 0
M  V30 5317 C 512.217 3.31372 -2.94462 0
M  V30 5318 H 509.437 0.386211 -0.54871 0
M  V30 5319 H 511.981 0.595163 -1.95648 0
M  V30 5320 H 510.136 3.03775 -2.40415 0
M  V30 5321 H 510.55 2.57561 -4.56905 0
M  V30 5322 H 512.024 4.06707 -3.73221 0
M  V30 5323 H 512.501 3.88654 -2.0456 0
M  V30 5324 H 513.107 2.73435 -3.25751 0
M  V30 5325 N 511.423 1.38739 0.74761 0
M  V30 5326 C 512.7 1.25791 1.49786 0
M  V30 5327 C 513.08 -0.138075 2.10648 0
M  V30 5328 O 512.428 -1.14815 1.9756 0
M  V30 5329 C 512.638 2.37265 2.55942 0
M  V30 5330 C 513.986 2.75978 3.22679 0
M  V30 5331 O 515.01 2.36621 2.6625 0
M  V30 5332 O 513.869 3.43867 4.24756 0
M  V30 5333 H 510.963 0.492251 0.664543 0
M  V30 5334 H 513.509 1.50582 0.782511 0
M  V30 5335 H 512.281 3.30644 2.0926 0
M  V30 5336 H 511.904 2.14071 3.35051 0
M  V30 5337 N 512.901 -0.976442 1.23707 0
M  V30 5338 C 514.126 -1.75875 1.09922 0
M  V30 5339 C 514.551 -1.84911 -0.34489 0
M  V30 5340 O 513.909 -1.31363 -1.24954 0
M  V30 5341 C 513.957 -3.16179 1.73388 0
M  V30 5342 O 513.061 -4.00124 0.99871 0
M  V30 5343 H 512.402 -0.540954 0.385052 0
M  V30 5344 H 514.932 -1.22546 1.6384 0
M  V30 5345 H 514.942 -3.66741 1.78788 0
M  V30 5346 H 513.617 -3.08917 2.78466 0
M  V30 5347 H 512.194 -3.58624 1.02193 0
M  V30 5348 N 514.379 -1.04941 -1.1758 0
M  V30 5349 C 515.289 -0.658826 -2.25159 0
M  V30 5350 C 516.305 0.318941 -1.71052 0
M  V30 5351 O 517.481 0.171669 -2.00667 0
M  V30 5352 C 514.546 -0.0369522 -3.4668 0
M  V30 5353 C 513.607 -1.06484 -4.15884 0
M  V30 5354 C 512.84 -0.472551 -5.31604 0
M  V30 5355 O 513.063 0.718736 -5.65854 0
M  V30 5356 O 511.997 -1.20557 -5.89703 0
M  V30 5357 H 515.823 -1.55533 -2.60851 0
M  V30 5358 H 513.408 -0.820819 -1.24832 0
M  V30 5359 H 515.29 0.308784 -4.20267 0
M  V30 5360 H 513.965 0.833238 -3.12792 0
M  V30 5361 H 512.872 -1.46253 -3.44327 0
M  V30 5362 H 514.205 -1.9061 -4.53794 0
M  V30 5363 N 515.857 1.33968 -0.830081 0
M  V30 5364 C 516.787 2.31911 -0.271911 0
M  V30 5365 C 517.768 1.58571 0.61556 0
M  V30 5366 O 518.953 1.86514 0.540946 0
M  V30 5367 C 516.083 3.42737 0.561146 0
M  V30 5368 C 515.037 4.27383 -0.229789 0
M  V30 5369 C 514.363 5.29742 0.726463 0
M  V30 5370 C 515.663 5.02 -1.44197 0
M  V30 5371 H 517.357 2.78844 -1.09025 0
M  V30 5372 H 514.903 1.34061 -0.52571 0
M  V30 5373 H 516.856 4.10276 0.961867 0
M  V30 5374 H 515.58 2.94471 1.41261 0
M  V30 5375 H 514.239 3.61456 -0.611964 0
M  V30 5376 H 513.887 4.77736 1.57408 0
M  V30 5377 H 513.587 5.87255 0.20142 0
M  V30 5378 H 515.111 6.00149 1.12489 0
M  V30 5379 H 516.525 5.62355 -1.11488 0
M  V30 5380 H 514.922 5.69122 -1.90317 0
M  V30 5381 H 515.992 4.31281 -2.2164 0
M  V30 5382 N 517.335 0.585699 1.46312 0
M  V30 5383 C 518.751 0.247607 1.57668 0
M  V30 5384 C 518.951 -1.25007 1.58037 0
M  V30 5385 O 518.007 -2.03196 1.49893 0
M  V30 5386 C 519.32 0.899456 2.86933 0
M  V30 5387 C 520.868 0.873326 3.00569 0
M  V30 5388 C 521.343 1.50477 4.32574 0
M  V30 5389 N 522.834 1.46925 4.3928 0
M  V30 5390 C 523.569 1.92719 5.40044 0
M  V30 5391 N 523.065 2.46499 6.47464 0
M  V30 5392 N 524.858 1.83617 5.31264 0
M  V30 5393 H 517.009 1.55841 1.44317 0
M  V30 5394 H 519.272 0.651564 0.688599 0
M  V30 5395 H 518.978 1.95313 2.92482 0
M  V30 5396 H 518.852 0.409476 3.74971 0
M  V30 5397 H 521.239 -0.171736 2.946 0
M  V30 5398 H 521.32 1.40136 2.13999 0
M  V30 5399 H 520.964 2.54905 4.39302 0
M  V30 5400 H 520.894 0.951944 5.17924 0
M  V30 5401 H 523.385 1.07616 3.62253 0
M  V30 5402 H 523.698 2.79291 7.20567 0
M  V30 5403 H 522.043 2.50526 6.48276 0
M  V30 5404 H 525.234 1.41358 4.46246 0
M  V30 5405 H 525.407 2.19622 6.09648 0
M  V30 5406 N 518.813 -1.54241 0.323641 0
M  V30 5407 C 519.723 -2.28033 -0.551205 0
M  V30 5408 C 520.739 -1.32388 -1.12913 0
M  V30 5409 O 521.915 -1.65403 -1.14908 0
M  V30 5410 C 518.98 -3.02382 -1.69606 0
M  V30 5411 C 518.041 -4.13612 -1.14993 0
M  V30 5412 C 517.274 -4.84407 -2.24022 0
M  V30 5413 O 517.497 -4.54716 -3.44368 0
M  V30 5414 O 516.431 -5.71312 -1.89436 0
M  V30 5415 H 520.257 -3.03662 0.048066 0
M  V30 5416 H 517.842 -1.49133 0.0893289 0
M  V30 5417 H 519.724 -3.48941 -2.36259 0
M  V30 5418 H 518.399 -2.29628 -2.28151 0
M  V30 5419 H 517.306 -3.71402 -0.448484 0
M  V30 5420 H 518.639 -4.8841 -0.609608 0
M  V30 5421 N 520.291 -0.0518155 -1.57515 0
M  V30 5422 C 521.239 0.940195 -2.12751 0
M  V30 5423 C 522.233 1.3218 -1.05948 0
M  V30 5424 O 523.439 1.30138 -1.24355 0
M  V30 5425 H 519.814 0.321066 -0.680015 0
M  V30 5426 H 521.785 0.449217 -2.94999 0
M  V30 5427 C 520.534 2.2055 -2.68799 0
M  V30 5428 H 519.857 1.92066 -3.50643 0
M  V30 5429 H 521.297 2.88119 -3.11068 0
M  V30 5430 C 519.756 2.95061 -1.62605 0
M  V30 5431 O 520.286 3.88025 -1.03921 0
M  V30 5432 N 518.492 2.57804 -1.34111 0
M  V30 5433 H 518.039 1.82281 -1.8202 0
M  V30 5434 H 517.997 3.07964 -0.632872 0
M  V30 5435 N 521.769 1.56035 0.221574 0
M  V30 5436 C 522.994 1.83476 0.967026 0
M  V30 5437 C 523.419 0.632139 1.7716 0
M  V30 5438 O 522.777 -0.419082 1.7639 0
M  V30 5439 C 522.825 3.08907 1.86034 0
M  V30 5440 O 521.929 2.876 2.95567 0
M  V30 5441 H 521.27 0.604913 0.273817 0
M  V30 5442 H 523.8 2.03247 0.234893 0
M  V30 5443 H 523.81 3.3901 2.27016 0
M  V30 5444 H 522.485 3.96068 1.26898 0
M  V30 5445 H 521.062 2.6873 2.58532 0
M  V30 5446 N 523.247 -0.488276 1.49845 0
M  V30 5447 C 524.472 -1.26997 1.63971 0
M  V30 5448 C 524.897 -1.85427 0.315994 0
M  V30 5449 O 524.255 -1.66475 -0.718032 0
M  V30 5450 C 524.303 -2.36689 2.72049 0
M  V30 5451 O 523.407 -3.40882 2.32107 0
M  V30 5452 H 522.748 -0.374376 0.548396 0
M  V30 5453 H 525.278 -0.583104 1.96115 0
M  V30 5454 H 525.288 -2.82262 2.94605 0
M  V30 5455 H 523.963 -1.93529 3.68129 0
M  V30 5456 H 522.54 -3.01139 2.19931 0
M  V30 5457 N 524.725 -1.39134 -0.740242 0
M  V30 5458 C 525.953 -1.39334 -1.5295 0
M  V30 5459 C 526.368 0.0135008 -1.88795 0
M  V30 5460 O 525.725 0.983524 -1.5373 0
M  V30 5461 C 525.776 -2.2614 -2.82034 0
M  V30 5462 O 525.497 -3.61345 -2.47712 0
M  V30 5463 C 526.998 -2.34666 -3.76094 0
M  V30 5464 H 524.218 -0.476103 -0.472828 0
M  V30 5465 H 526.762 -1.82883 -0.9151 0
M  V30 5466 H 524.917 -1.86018 -3.39818 0
M  V30 5467 H 525.331 -4.07194 -3.30595 0
M  V30 5468 H 526.805 -2.99663 -4.63579 0
M  V30 5469 H 527.282 -1.36426 -4.17474 0
M  V30 5470 H 527.888 -2.75236 -3.2423 0
M  V30 5471 N 526.204 0.969867 -1.24223 0
M  V30 5472 C 527.432 1.74756 -1.10761 0
M  V30 5473 C 527.847 1.85713 0.340041 0
M  V30 5474 O 527.204 1.34389 1.23474 0
M  V30 5475 C 527.255 3.16915 -1.73917 0
M  V30 5476 O 526.976 3.06511 -3.13021 0
M  V30 5477 C 528.477 4.11032 -1.66036 0
M  V30 5478 H 525.697 0.548092 -0.387087 0
M  V30 5479 H 528.241 1.2178 -1.64286 0
M  V30 5480 H 526.396 3.66884 -1.244 0
M  V30 5481 H 526.81 3.96079 -3.43834 0
M  V30 5482 H 528.284 5.08446 -2.14911 0
M  V30 5483 H 528.761 4.34785 -0.621159 0
M  V30 5484 H 529.367 3.66972 -2.14969 0
M  V30 5485 N 527.682 1.05563 1.17022 0
M  V30 5486 C 528.614 0.617888 2.20714 0
M  V30 5487 C 529.627 -0.320303 1.59618 0
M  V30 5488 O 530.816 -0.112449 1.78145 0
M  V30 5489 C 527.916 -0.115333 3.38704 0
M  V30 5490 C 527.089 0.834493 4.29366 0
M  V30 5491 C 526.148 0.141855 5.26009 0
M  V30 5492 O 525.174 0.777151 5.6387 0
M  V30 5493 N 526.376 -1.11934 5.69606 0
M  V30 5494 H 529.141 1.50981 2.58892 0
M  V30 5495 H 526.702 0.938008 1.31958 0
M  V30 5496 H 528.694 -0.588918 4.00392 0
M  V30 5497 H 527.264 -0.908967 2.99093 0
M  V30 5498 H 526.484 1.48762 3.65053 0
M  V30 5499 H 527.772 1.4791 4.86827 0
M  V30 5500 H 527.17 -1.65574 5.40927 0
M  V30 5501 H 525.727 -1.53692 6.33421 0
M  V30 5502 N 529.16 -1.33526 0.837174 0
M  V30 5503 C 530.408 -1.97446 0.431211 0
M  V30 5504 C 530.729 -1.6665 -1.01255 0
M  V30 5505 O 529.999 -0.964559 -1.70508 0
M  V30 5506 H 528.579 -0.73043 0.156463 0
M  V30 5507 H 531.241 -1.62918 1.06976 0
M  V30 5508 H 530.337 -3.07001 0.561877 0
M  V30 5509 N 530.638 -0.59345 -1.46 0
M  V30 5510 C 531.57 0.171569 -2.28557 0
M  V30 5511 C 532.583 0.845273 -1.39137 0
M  V30 5512 O 533.772 0.713033 -1.6364 0
M  V30 5513 C 530.872 1.26311 -3.14482 0
M  V30 5514 C 530.045 0.679258 -4.32094 0
M  V30 5515 C 529.104 1.65987 -4.99334 0
M  V30 5516 O 528.13 1.19171 -5.56585 0
M  V30 5517 N 529.332 2.99414 -4.97324 0
M  V30 5518 H 532.097 -0.536771 -2.94854 0
M  V30 5519 H 529.658 -0.431954 -1.56031 0
M  V30 5520 H 531.65 1.91863 -3.5633 0
M  V30 5521 H 530.22 1.87416 -2.50188 0
M  V30 5522 H 529.44 -0.153992 -3.93899 0
M  V30 5523 H 530.728 0.26916 -5.08088 0
M  V30 5524 H 530.126 3.40064 -4.52076 0
M  V30 5525 H 528.683 3.60426 -5.4308 0
M  V30 5526 N 532.116 1.54067 -0.331816 0
M  V30 5527 C 533.393 1.92915 0.322955 0
M  V30 5528 C 533.773 1.26225 1.69205 0
M  V30 5529 O 533.121 0.408919 2.24811 0
M  V30 5530 C 533.331 3.46619 0.406946 0
M  V30 5531 C 534.679 4.19386 0.663339 0
M  V30 5532 O 535.703 3.5282 0.489536 0
M  V30 5533 O 534.562 5.37288 0.999193 0
M  V30 5534 H 531.656 0.805808 0.186016 0
M  V30 5535 H 534.202 1.65342 -0.382135 0
M  V30 5536 H 532.974 3.87354 -0.554287 0
M  V30 5537 H 532.597 3.80324 1.15929 0
M  V30 5538 N 533.594 0.0601682 1.57485 0
M  V30 5539 C 534.524 -0.90889 2.15085 0
M  V30 5540 C 535.505 -1.31838 1.07484 0
M  V30 5541 O 536.69 -1.3915 1.35466 0
M  V30 5542 C 533.82 -2.18059 2.7031 0
M  V30 5543 C 532.774 -1.91088 3.82974 0
M  V30 5544 C 532.1 -3.24789 4.24754 0
M  V30 5545 C 533.4 -1.22535 5.07723 0
M  V30 5546 H 535.094 -0.429093 2.96309 0
M  V30 5547 H 532.64 -0.204952 1.42534 0
M  V30 5548 H 534.593 -2.86258 3.09248 0
M  V30 5549 H 533.317 -2.6826 1.8629 0
M  V30 5550 H 531.976 -1.25297 3.44523 0
M  V30 5551 H 531.624 -3.72809 3.37672 0
M  V30 5552 H 531.324 -3.07538 5.00694 0
M  V30 5553 H 532.848 -3.94205 4.66299 0
M  V30 5554 H 534.262 -1.80783 5.4405 0
M  V30 5555 H 532.659 -1.1558 5.88864 0
M  V30 5556 H 533.729 -0.202692 4.84476 0
M  V30 5557 N 535.072 -1.5615 -0.213296 0
M  V30 5558 C 536.297 -1.83986 -0.957282 0
M  V30 5559 C 536.722 -0.641526 -1.76822 0
M  V30 5560 O 536.08 0.409722 -1.7661 0
M  V30 5561 C 536.128 -3.09889 -1.84393 0
M  V30 5562 O 535.232 -2.89163 -2.94038 0
M  V30 5563 H 534.573 -0.606357 -0.270605 0
M  V30 5564 H 537.103 -2.03369 -0.224111 0
M  V30 5565 H 537.113 -3.40209 -2.25215 0
M  V30 5566 H 535.788 -3.96735 -1.24795 0
M  V30 5567 H 534.365 -2.70097 -2.57103 0
M  V30 5568 N 536.55 0.480323 -1.50102 0
M  V30 5569 C 537.778 1.25657 -1.64371 0
M  V30 5570 C 538.193 1.86011 -0.323316 0
M  V30 5571 O 537.55 1.68803 0.693682 0
M  V30 5572 C 537.601 2.37197 -2.728 0
M  V30 5573 O 537.322 1.7932 -3.9972 0
M  V30 5574 C 538.823 3.2823 -2.9796 0
M  V30 5575 H 536.043 0.380369 -0.552775 0
M  V30 5576 H 538.587 0.574379 -1.96268 0
M  V30 5577 H 536.742 3.01208 -2.43623 0
M  V30 5578 H 537.156 2.52701 -4.59611 0
M  V30 5579 H 538.63 4.02725 -3.77513 0
M  V30 5580 H 539.107 3.86462 -2.08671 0
M  V30 5581 H 539.713 2.69964 -3.28633 0
M  V30 5582 N 538.028 1.39524 0.732853 0
M  V30 5583 C 539.277 1.36175 1.48792 0
M  V30 5584 C 539.59 -0.0388195 1.95561 0
M  V30 5585 O 540.796 -0.194899 2.708 0
M  V30 5586 C 539.252 2.39242 2.68871 0
M  V30 5587 C 538.86 3.85024 2.29042 0
M  V30 5588 C 540.604 2.44972 3.46683 0
M  V30 5589 C 538.511 4.79727 3.45856 0
M  V30 5590 H 537.441 0.506267 0.558757 0
M  V30 5591 H 540.092 1.65181 0.799226 0
M  V30 5592 H 538.474 2.0331 3.39825 0
M  V30 5593 H 539.648 4.30008 1.6562 0
M  V30 5594 H 537.963 3.82609 1.64316 0
M  V30 5595 H 540.56 3.12918 4.33574 0
M  V30 5596 H 540.903 1.4749 3.89297 0
M  V30 5597 H 541.436 2.79808 2.82759 0
M  V30 5598 H 538.175 5.78479 3.08289 0
M  V30 5599 H 537.695 4.39421 4.08251 0
M  V30 5600 H 539.374 4.98731 4.12161 0
M  V30 5601 N 539.506 -0.963266 1.24736 0
M  V30 5602 C 540.731 -1.74699 1.11781 0
M  V30 5603 C 541.156 -1.85267 -0.325258 0
M  V30 5604 O 540.514 -1.32681 -1.23553 0
M  V30 5605 C 540.562 -3.14322 1.76731 0
M  V30 5606 O 539.666 -3.99043 1.04109 0
M  V30 5607 H 539.007 -0.53684 0.390767 0
M  V30 5608 H 541.537 -1.20801 1.65131 0
M  V30 5609 H 541.547 -3.64824 1.82668 0
M  V30 5610 H 540.222 -3.05946 2.81726 0
M  V30 5611 H 538.799 -3.5752 1.05991 0
M  V30 5612 N 540.985 -1.06182 -1.16461 0
M  V30 5613 C 542.396 -0.802426 -1.68576 0
M  V30 5614 C 542.747 0.67412 -1.84255 0
M  V30 5615 O 541.872 1.52303 -1.5373 0
M  V30 5616 C 542.467 -1.45002 -3.06202 0
M  V30 5617 C 541.026 -1.23843 -3.55443 0
M  V30 5618 C 540.173 -1.52724 -2.31454 0
M  V30 5619 H 543.124 -1.22545 -1.00839 0
M  V30 5620 H 543.145 -0.864731 -3.70544 0
M  V30 5621 H 542.657 -2.52466 -2.94759 0
M  V30 5622 H 540.758 -0.183487 -3.72148 0
M  V30 5623 H 540.871 -1.95036 -4.37604 0
M  V30 5624 H 539.235 -0.947726 -2.36411 0
M  V30 5625 H 540.018 -2.61343 -2.22609 0
M  V30 5626 N 542.463 1.3308 -0.844243 0
M  V30 5627 C 543.426 2.27403 -0.286485 0
M  V30 5628 C 544.426 1.51179 0.547872 0
M  V30 5629 O 545.616 1.70421 0.360886 0
M  V30 5630 C 542.748 3.35653 0.595813 0
M  V30 5631 H 543.941 2.78248 -1.11885 0
M  V30 5632 H 541.494 1.43574 -0.617749 0
M  V30 5633 H 542.229 2.90058 1.4504 0
M  V30 5634 H 542.014 3.921 -0.00125994 0
M  V30 5635 H 543.504 4.05958 0.979168 0
M  V30 5636 N 543.941 0.601185 1.45683 0
M  V30 5637 C 545.19 0.0914953 2.01492 0
M  V30 5638 C 545.503 -1.28331 1.47616 0
M  V30 5639 O 546.709 -1.88537 1.95362 0
M  V30 5640 C 545.165 0.11291 3.59723 0
M  V30 5641 C 544.773 1.48717 4.22596 0
M  V30 5642 C 546.517 -0.341871 4.23121 0
M  V30 5643 C 544.424 1.46531 5.7296 0
M  V30 5644 H 543.354 0.0304365 0.753385 0
M  V30 5645 H 546.005 0.755568 1.67223 0
M  V30 5646 H 544.387 -0.617692 3.91153 0
M  V30 5647 H 545.561 2.23897 4.02749 0
M  V30 5648 H 543.876 1.88351 3.71366 0
M  V30 5649 H 546.473 -0.377304 5.33367 0
M  V30 5650 H 546.816 -1.36325 3.93346 0
M  V30 5651 H 547.349 0.335256 3.96385 0
M  V30 5652 H 544.088 2.46408 6.07423 0
M  V30 5653 H 543.608 0.755997 5.95017 0
M  V30 5654 H 545.287 1.18618 6.36034 0
M  V30 5655 N 545.419 -1.53889 0.339982 0
M  V30 5656 C 546.668 -2.00035 -0.258604 0
M  V30 5657 C 546.981 -1.23179 -1.51942 0
M  V30 5658 O 548.187 -1.59784 -2.19503 0
M  V30 5659 C 546.643 -3.56249 -0.511359 0
M  V30 5660 C 546.251 -4.41957 0.733349 0
M  V30 5661 C 547.995 -4.1082 -1.069 0
M  V30 5662 C 545.902 -5.89673 0.451591 0
M  V30 5663 H 544.832 -0.747284 -0.10041 0
M  V30 5664 H 547.483 -1.77776 0.454758 0
M  V30 5665 H 545.865 -3.7456 -1.28533 0
M  V30 5666 H 547.039 -4.35421 1.50815 0
M  V30 5667 H 545.354 -3.9836 1.21237 0
M  V30 5668 H 547.951 -5.18789 -1.2947 0
M  V30 5669 H 548.294 -3.63817 -2.02343 0
M  V30 5670 H 548.827 -3.96205 -0.355817 0
M  V30 5671 H 545.566 -6.40903 1.37565 0
M  V30 5672 H 545.086 -5.99122 -0.285193 0
M  V30 5673 H 546.765 -6.46965 0.0675067 0
M  V30 5674 N 546.897 -0.0685191 -1.57451 0
M  V30 5675 C 548.144 0.601348 -1.93365 0
M  V30 5676 C 548.472 1.69816 -0.948294 0
M  V30 5677 O 547.727 1.95666 0.0366199 0
M  V30 5678 C 548.026 1.22051 -3.35914 0
M  V30 5679 C 547.692 0.250165 -4.50205 0
M  V30 5680 C 546.354 -0.0167954 -4.81197 0
M  V30 5681 C 548.706 -0.413867 -5.19554 0
M  V30 5682 C 546.034 -0.95493 -5.78876 0
M  V30 5683 C 548.386 -1.3403 -6.18238 0
M  V30 5684 C 547.05 -1.61576 -6.47649 0
M  V30 5685 H 546.32 0.220049 -0.707573 0
M  V30 5686 H 548.967 -0.138697 -1.90997 0
M  V30 5687 H 547.272 2.03622 -3.34732 0
M  V30 5688 H 548.969 1.74605 -3.6099 0
M  V30 5689 H 545.559 0.468421 -4.26033 0
M  V30 5690 H 549.743 -0.220733 -4.95809 0
M  V30 5691 H 544.999 -1.17563 -5.99991 0
M  V30 5692 H 549.173 -1.86081 -6.71079 0
M  V30 5693 H 546.8 -2.34431 -7.2315 0
M  V30 5694 N 548.375 1.56261 0.205012 0
M  V30 5695 C 549.285 1.96944 1.27476 0
M  V30 5696 C 550.301 0.875636 1.50362 0
M  V30 5697 O 551.477 1.18058 1.6317 0
M  V30 5698 C 548.542 2.29219 2.60115 0
M  V30 5699 C 547.603 3.52255 2.45387 0
M  V30 5700 C 546.836 3.8298 3.71701 0
M  V30 5701 O 547.059 3.15138 4.75441 0
M  V30 5702 O 545.993 4.76435 3.67823 0
M  V30 5703 H 549.819 2.88144 0.959527 0
M  V30 5704 H 547.404 1.43686 0.409217 0
M  V30 5705 H 549.286 2.51098 3.3842 0
M  V30 5706 H 547.961 1.4119 2.91285 0
M  V30 5707 H 546.868 3.35635 1.65227 0
M  V30 5708 H 548.201 4.40719 2.19152 0
M  V30 5709 N 549.853 -0.472356 1.50355 0
M  V30 5710 C 551.078 -1.25251 1.65309 0
M  V30 5711 C 551.503 -1.85081 0.335643 0
M  V30 5712 O 550.861 -1.67227 -0.700335 0
M  V30 5713 C 550.909 -2.3379 2.74544 0
M  V30 5714 O 550.013 -3.38401 2.35709 0
M  V30 5715 H 549.354 -0.368539 0.552336 0
M  V30 5716 H 551.884 -0.562271 1.96722 0
M  V30 5717 H 551.894 -2.79121 2.97583 0
M  V30 5718 H 550.569 -1.89614 3.70161 0
M  V30 5719 H 549.146 -2.9879 2.23112 0
M  V30 5720 N 551.331 -1.39911 -0.725443 0
M  V30 5721 C 552.264 -1.33788 -1.84867 0
M  V30 5722 C 553.242 -0.209907 -1.61239 0
M  V30 5723 O 554.426 -0.391943 -1.8438 0
M  V30 5724 C 551.553 -1.07975 -3.21028 0
M  V30 5725 C 550.599 -2.23092 -3.635 0
M  V30 5726 S 551.432 -3.85431 -3.71757 0
M  V30 5727 C 552.588 -3.61862 -5.10692 0
M  V30 5728 H 552.821 -2.28848 -1.89779 0
M  V30 5729 H 550.354 -1.26079 -0.891254 0
M  V30 5730 H 552.312 -0.937669 -3.99647 0
M  V30 5731 H 550.973 -0.145865 -3.13761 0
M  V30 5732 H 550.166 -2.00647 -4.62338 0
M  V30 5733 H 549.768 -2.33553 -2.92112 0
M  V30 5734 H 552.06 -3.19719 -5.97316 0
M  V30 5735 H 553.003 -4.60196 -5.38169 0
M  V30 5736 H 553.411 -2.95757 -4.8082 0
M  V30 5737 N 552.809 0.956637 -1.25245 0
M  V30 5738 C 554.056 1.701 -1.09874 0
M  V30 5739 C 554.384 1.91128 0.36062 0
M  V30 5740 O 553.639 1.47837 1.28229 0
M  V30 5741 C 553.938 3.08996 -1.79601 0
M  V30 5742 C 553.604 3.07774 -3.29523 0
M  V30 5743 C 552.266 3.07149 -3.70423 0
M  V30 5744 C 554.618 3.01257 -4.25316 0
M  V30 5745 C 551.946 2.97752 -5.0553 0
M  V30 5746 C 554.298 2.93403 -5.60444 0
M  V30 5747 C 552.962 2.91111 -6.00675 0
M  V30 5748 H 552.232 0.62244 -0.402056 0
M  V30 5749 H 554.879 1.1178 -1.55491 0
M  V30 5750 H 553.184 3.70848 -1.26408 0
M  V30 5751 H 554.881 3.65407 -1.65162 0
M  V30 5752 H 551.471 3.09032 -2.9698 0
M  V30 5753 H 555.655 3.00861 -3.9471 0
M  V30 5754 H 550.911 2.94346 -5.35883 0
M  V30 5755 H 555.085 2.87321 -6.34366 0
M  V30 5756 H 552.712 2.83586 -7.05325 0
M  V30 5757 N 554.287 1.06798 1.15896 0
M  V30 5758 C 555.219 0.641263 2.20046 0
M  V30 5759 C 556.232 -0.303355 1.59949 0
M  V30 5760 O 557.421 -0.0935478 1.78255 0
M  V30 5761 C 554.521 -0.0794029 3.38807 0
M  V30 5762 C 553.694 0.879986 4.28457 0
M  V30 5763 C 552.753 0.197638 5.25829 0
M  V30 5764 O 551.779 0.836913 5.63014 0
M  V30 5765 N 552.981 -1.05886 5.70761 0
M  V30 5766 H 555.746 1.53718 2.57276 0
M  V30 5767 H 553.307 0.951951 1.30956 0
M  V30 5768 H 555.299 -0.546418 4.00994 0
M  V30 5769 H 553.869 -0.877193 3.0004 0
M  V30 5770 H 553.089 1.52625 3.63454 0
M  V30 5771 H 554.377 1.53065 4.8523 0
M  V30 5772 H 553.775 -1.59828 5.42652 0
M  V30 5773 H 552.332 -1.46965 6.35015 0
M  V30 5774 N 555.766 -1.3263 0.851289 0
M  V30 5775 C 556.714 -2.30882 0.282202 0
M  V30 5776 C 557.708 -1.58697 -0.592589 0
M  V30 5777 O 558.914 -1.73461 -0.480768 0
M  V30 5778 H 555.289 -0.748492 0.0725487 0
M  V30 5779 H 557.26 -2.76374 1.12516 0
M  V30 5780 C 556.009 -3.43828 -0.517449 0
M  V30 5781 H 555.332 -3.99532 0.146392 0
M  V30 5782 H 556.772 -4.1474 -0.88128 0
M  V30 5783 C 555.231 -2.90786 -1.70133 0
M  V30 5784 O 555.761 -2.88 -2.80034 0
M  V30 5785 N 553.967 -2.4723 -1.52728 0
M  V30 5786 H 553.514 -2.49695 -0.633257 0
M  V30 5787 H 553.472 -2.12094 -2.32085 0
M  V30 5788 N 557.244 -0.608902 -1.45362 0
M  V30 5789 C 558.469 -0.10921 -2.07112 0
M  V30 5790 C 558.894 1.19779 -1.45033 0
M  V30 5791 O 558.252 1.72961 -0.543527 0
M  V30 5792 C 558.3 0.0155745 -3.60597 0
M  V30 5793 O 557.404 1.06546 -3.98399 0
M  V30 5794 H 556.745 -0.0746619 -0.659789 0
M  V30 5795 H 559.275 -0.839283 -1.86594 0
M  V30 5796 H 559.285 0.213364 -4.07442 0
M  V30 5797 H 557.96 -0.938765 -4.05167 0
M  V30 5798 H 556.537 0.844024 -3.63223 0
M  V30 5799 N 558.722 1.53707 -0.348139 0
M  V30 5800 C 559.999 1.93247 0.302475 0
M  V30 5801 C 560.379 1.28012 1.67857 0
M  V30 5802 O 559.727 0.43274 2.24365 0
M  V30 5803 C 559.937 3.47031 0.370159 0
M  V30 5804 C 561.285 4.20066 0.61882 0
M  V30 5805 O 562.309 3.53319 0.452087 0
M  V30 5806 O 561.168 5.38318 0.94215 0
M  V30 5807 H 558.262 0.807736 0.177458 0
M  V30 5808 H 560.808 1.64927 -0.399651 0
M  V30 5809 H 559.58 3.86745 -0.59534 0
M  V30 5810 H 559.203 3.81532 1.11888 0
M  V30 5811 N 560.2 0.0768682 1.57412 0
M  V30 5812 C 561.477 -0.632359 1.85096 0
M  V30 5813 C 561.857 -1.87479 0.9703 0
M  V30 5814 O 561.205 -2.28469 0.0379062 0
M  V30 5815 C 561.415 -0.965174 3.35388 0
M  V30 5816 C 562.763 -1.33648 4.03018 0
M  V30 5817 O 563.787 -1.05675 3.40164 0
M  V30 5818 O 562.646 -1.85959 5.13889 0
M  V30 5819 H 559.74 -0.314574 0.764835 0
M  V30 5820 H 562.286 0.108184 1.69355 0
M  V30 5821 H 561.058 -0.0829745 3.91212 0
M  V30 5822 H 560.681 -1.76231 3.5641 0
M  V30 5823 N 561.678 -1.56367 -0.196722 0
M  V30 5824 C 562.906 -1.84639 -0.933608 0
M  V30 5825 C 563.321 -0.659164 -1.76919 0
M  V30 5826 O 562.678 0.372142 -1.78665 0
M  V30 5827 C 562.729 -3.11694 -1.83109 0
M  V30 5828 O 562.45 -4.25838 -1.02924 0
M  V30 5829 C 563.951 -3.53132 -2.67979 0
M  V30 5830 H 561.171 -0.613188 -0.272473 0
M  V30 5831 H 563.715 -2.03475 -0.204465 0
M  V30 5832 H 561.87 -2.94759 -2.51387 0
M  V30 5833 H 562.284 -4.98178 -1.64069 0
M  V30 5834 H 563.758 -4.45005 -3.26611 0
M  V30 5835 H 564.235 -2.76045 -3.41608 0
M  V30 5836 H 564.841 -3.72592 -2.05074 0
M  V30 5837 N 563.156 0.464375 -1.50603 0
M  V30 5838 C 564.119 1.54393 -1.69397 0
M  V30 5839 C 565.119 1.50566 -0.564504 0
M  V30 5840 O 566.309 1.53066 -0.831645 0
M  V30 5841 C 563.441 2.9401 -1.72543 0
M  V30 5842 H 564.634 1.39044 -2.65719 0
M  V30 5843 H 562.187 0.69122 -1.40185 0
M  V30 5844 H 562.922 3.14795 -0.77938 0
M  V30 5845 H 562.707 2.98195 -2.54602 0
M  V30 5846 H 564.197 3.72375 -1.89015 0
M  V30 5847 N 564.634 1.40294 0.718013 0
M  V30 5848 C 565.883 1.37746 1.4734 0
M  V30 5849 C 566.196 -0.0180754 1.95592 0
M  V30 5850 O 567.402 -0.166166 2.70991 0
M  V30 5851 C 565.858 2.4208 2.66318 0
M  V30 5852 C 565.466 3.87432 2.24945 0
M  V30 5853 C 567.21 2.48635 3.44065 0
M  V30 5854 C 565.117 4.83368 3.40748 0
M  V30 5855 H 564.047 0.512165 0.553356 0
M  V30 5856 H 566.698 1.66019 0.781661 0
M  V30 5857 H 565.08 2.06903 3.3765 0
M  V30 5858 H 566.254 4.3174 1.6105 0
M  V30 5859 H 564.569 3.8433 1.60249 0
M  V30 5860 H 567.166 3.17499 4.30231 0
M  V30 5861 H 567.509 1.51611 3.87711 0
M  V30 5862 H 568.042 2.82791 2.79775 0
M  V30 5863 H 564.781 5.81716 3.02136 0
M  V30 5864 H 564.301 4.43726 4.03568 0
M  V30 5865 H 565.98 5.03074 4.06848 0
M  V30 5866 N 566.112 -0.949982 1.2575 0
M  V30 5867 C 567.044 -2.05088 1.02331 0
M  V30 5868 C 568.057 -1.62795 -0.0133247 0
M  V30 5869 O 569.246 -1.77067 0.225759 0
M  V30 5870 C 566.346 -3.34794 0.525924 0
M  V30 5871 C 565.519 -4.05903 1.62978 0
M  V30 5872 C 564.578 -5.1388 1.13196 0
M  V30 5873 O 563.604 -5.39072 1.82729 0
M  V30 5874 N 564.806 -5.80495 -0.0242926 0
M  V30 5875 H 567.571 -2.25747 1.97125 0
M  V30 5876 H 565.132 -1.11886 1.17018 0
M  V30 5877 H 567.124 -4.04312 0.177263 0
M  V30 5878 H 565.694 -3.10872 -0.328202 0
M  V30 5879 H 564.914 -3.3042 2.1498 0
M  V30 5880 H 566.202 -4.50166 2.37124 0
M  V30 5881 H 565.6 -5.62454 -0.605184 0
M  V30 5882 H 564.157 -6.51043 -0.313947 0
M  V30 5883 N 567.59 -1.07411 -1.15328 0
M  V30 5884 C 568.5 -0.706438 -2.23711 0
M  V30 5885 C 569.516 0.282586 -1.7169 0
M  V30 5886 O 570.692 0.129066 -2.00986 0
M  V30 5887 C 567.757 -0.11048 -3.46524 0
M  V30 5888 C 566.818 -1.15282 -4.13532 0
M  V30 5889 C 566.051 -0.585205 -5.30482 0
M  V30 5890 O 566.274 0.598549 -5.67251 0
M  V30 5891 O 565.208 -1.33039 -5.87013 0
M  V30 5892 H 569.034 -1.61031 -2.57493 0
M  V30 5893 H 566.619 -0.847113 -1.23062 0
M  V30 5894 H 568.501 0.21957 -4.20828 0
M  V30 5895 H 567.176 0.766703 -3.14489 0
M  V30 5896 H 566.083 -1.53523 -3.41147 0
M  V30 5897 H 567.416 -2.00192 -4.49649 0
M  V30 5898 N 569.068 1.32177 -0.85831 0
M  V30 5899 C 570.345 1.91781 -0.384624 0
M  V30 5900 C 570.725 1.78171 1.13217 0
M  V30 5901 O 570.073 1.18209 1.95548 0
M  V30 5902 C 570.283 3.38414 -0.853047 0
M  V30 5903 C 571.631 4.15542 -0.872359 0
M  V30 5904 O 572.655 3.47148 -0.797926 0
M  V30 5905 O 571.514 5.37678 -0.978009 0
M  V30 5906 H 568.608 0.819259 -0.112886 0
M  V30 5907 H 571.154 1.40923 -0.945453 0
M  V30 5908 H 569.926 3.4228 -1.89632 0
M  V30 5909 H 569.549 3.96683 -0.269874 0
M  V30 5910 N 570.547 0.616602 1.45037 0
M  V30 5911 C 571.958 0.199359 1.85633 0
M  V30 5912 C 572.309 -1.24588 1.51566 0
M  V30 5913 O 571.434 -1.94594 0.94668 0
M  V30 5914 C 572.029 0.355033 3.36935 0
M  V30 5915 C 570.588 -0.00758748 3.76399 0
M  V30 5916 C 569.735 0.675256 2.68953 0
M  V30 5917 H 572.686 0.822708 1.3571 0
M  V30 5918 H 572.707 -0.410201 3.78282 0
M  V30 5919 H 572.219 1.40699 3.61698 0
M  V30 5920 H 570.32 -1.05837 3.57252 0
M  V30 5921 H 570.433 0.392346 4.77491 0
M  V30 5922 H 568.797 0.111992 2.54454 0
M  V30 5923 H 569.58 1.72952 2.96551 0
M  V30 5924 N 572.025 -1.5352 0.356285 0
M  V30 5925 C 572.957 -2.23009 -0.529127 0
M  V30 5926 C 573.97 -1.241 -1.05371 0
M  V30 5927 O 575.159 -1.50379 -0.961679 0
M  V30 5928 C 572.259 -2.90685 -1.74229 0
M  V30 5929 C 571.432 -4.16019 -1.35081 0
M  V30 5930 C 570.491 -4.66989 -2.42502 0
M  V30 5931 O 569.517 -5.30895 -2.05279 0
M  V30 5932 N 570.719 -4.44006 -3.7395 0
M  V30 5933 H 573.484 -2.99627 0.0660501 0
M  V30 5934 H 571.045 -1.60885 0.181014 0
M  V30 5935 H 573.037 -3.21695 -2.4555 0
M  V30 5936 H 571.607 -2.17575 -2.24454 0
M  V30 5937 H 570.827 -3.91414 -0.467833 0
M  V30 5938 H 572.115 -4.9752 -1.06542 0
M  V30 5939 H 571.513 -3.92924 -4.06973 0
M  V30 5940 H 570.07 -4.7959 -4.41403 0
M  V30 5941 N 573.503 -0.0852151 -1.57369 0
M  V30 5942 C 574.435 0.907099 -2.10486 0
M  V30 5943 C 575.448 1.25259 -1.03991 0
M  V30 5944 O 576.637 1.20743 -1.31467 0
M  V30 5945 C 573.737 2.21908 -2.56145 0
M  V30 5946 C 572.91 2.05042 -3.86363 0
M  V30 5947 C 571.969 3.19664 -4.17973 0
M  V30 5948 O 570.995 2.94062 -4.87356 0
M  V30 5949 N 572.197 4.45151 -3.72587 0
M  V30 5950 H 574.962 0.453505 -2.96249 0
M  V30 5951 H 572.523 0.100157 -1.6159 0
M  V30 5952 H 574.515 2.97519 -2.74343 0
M  V30 5953 H 573.085 2.58723 -1.75446 0
M  V30 5954 H 572.305 1.13819 -3.77411 0
M  V30 5955 H 573.593 1.91039 -4.71574 0
M  V30 5956 H 572.991 4.68834 -3.16561 0
M  V30 5957 H 571.548 5.17744 -3.9596 0
M  V30 5958 N 574.981 1.5647 0.188427 0
M  V30 5959 C 576.209 1.85131 0.923803 0
M  V30 5960 C 576.624 0.668537 1.76567 0
M  V30 5961 O 575.981 -0.362662 1.7886 0
M  V30 5962 C 576.032 3.12661 1.81453 0
M  V30 5963 O 575.753 4.26378 1.00665 0
M  V30 5964 C 577.254 3.54548 2.66103 0
M  V30 5965 H 574.474 0.614624 0.269218 0
M  V30 5966 H 577.018 2.03581 0.193671 0
M  V30 5967 H 575.173 2.96088 2.49821 0
M  V30 5968 H 575.587 4.99041 1.61425 0
M  V30 5969 H 577.061 4.4673 3.24247 0
M  V30 5970 H 577.538 2.77853 3.40139 0
M  V30 5971 H 578.144 3.73674 2.03096 0
M  V30 5972 N 576.459 -0.456382 1.50847 0
M  V30 5973 C 577.422 -1.53493 1.70213 0
M  V30 5974 C 578.422 -1.50264 0.572481 0
M  V30 5975 O 579.612 -1.52623 0.839751 0
M  V30 5976 C 576.744 -2.93091 1.741 0
M  V30 5977 H 577.937 -1.37633 2.66453 0
M  V30 5978 H 575.49 -0.683776 1.4055 0
M  V30 5979 H 576.225 -3.14378 0.796063 0
M  V30 5980 H 576.01 -2.9684 2.5618 0
M  V30 5981 H 577.5 -3.71368 1.90987 0
M  V30 5982 N 577.937 -1.40673 -0.710563 0
M  V30 5983 C 579.162 -1.42741 -1.50465 0
M  V30 5984 C 579.587 -0.0302116 -1.88076 0
M  V30 5985 O 578.945 0.962945 -1.53613 0
M  V30 5986 C 578.993 -2.32873 -2.75322 0
M  V30 5987 O 578.097 -1.77544 -3.72226 0
M  V30 5988 H 577.438 -0.485056 -0.45345 0
M  V30 5989 H 579.968 -1.84961 -0.874681 0
M  V30 5990 H 579.978 -2.48233 -3.23797 0
M  V30 5991 H 578.653 -3.34401 -2.47283 0
M  V30 5992 H 577.23 -1.71556 -3.31093 0
M  V30 5993 N 579.415 0.9433 -1.26252 0
M  V30 5994 C 580.345 2.05902 -1.10122 0
M  V30 5995 C 581.326 1.70099 -0.00700552 0
M  V30 5996 O 582.511 1.93377 -0.178641 0
M  V30 5997 C 579.641 3.39516 -0.731175 0
M  V30 5998 C 578.595 3.89372 -1.77688 0
M  V30 5999 C 577.921 5.19613 -1.26122 0
M  V30 6000 C 579.221 4.14489 -3.17799 0
M  V30 6001 H 580.915 2.19655 -2.03451 0
M  V30 6002 H 578.461 1.05548 -0.979576 0
M  V30 6003 H 580.414 4.17031 -0.605215 0
M  V30 6004 H 579.138 3.25733 0.23782 0
M  V30 6005 H 577.797 3.14036 -1.89148 0
M  V30 6006 H 577.445 5.02208 -0.282128 0
M  V30 6007 H 577.145 5.53939 -1.96023 0
M  V30 6008 H 578.669 5.99713 -1.14789 0
M  V30 6009 H 580.083 4.82625 -3.09428 0
M  V30 6010 H 578.48 4.60094 -3.85271 0
M  V30 6011 H 579.55 3.20347 -3.64014 0
M  V30 6012 N 580.893 1.08022 1.14757 0
M  V30 6013 C 582.121 0.828847 1.89572 0
M  V30 6014 C 582.536 -0.618621 1.78377 0
M  V30 6015 O 581.893 -1.42482 1.1404 0
M  V30 6016 C 581.944 1.23677 3.39685 0
M  V30 6017 O 581.665 2.62746 3.50566 0
M  V30 6018 C 583.166 1.01569 4.31507 0
M  V30 6019 H 580.386 0.299196 0.600602 0
M  V30 6020 H 582.93 1.43846 1.45357 0
M  V30 6021 H 581.085 0.671347 3.81539 0
M  V30 6022 H 581.499 2.79573 4.43778 0
M  V30 6023 H 582.973 1.35055 5.35223 0
M  V30 6024 H 583.45 -0.0475433 4.39174 0
M  V30 6025 H 584.056 1.56636 3.95405 0
M  V30 6026 N 582.371 -1.3172 0.865308 0
M  V30 6027 C 583.281 -2.32394 0.320935 0
M  V30 6028 C 584.297 -1.64511 -0.566746 0
M  V30 6029 O 585.473 -1.95969 -0.464575 0
M  V30 6030 C 582.538 -3.43462 -0.472701 0
M  V30 6031 C 581.599 -4.27015 0.442385 0
M  V30 6032 C 580.832 -5.32779 -0.313469 0
M  V30 6033 O 581.055 -5.49158 -1.54214 0
M  V30 6034 O 579.989 -6.01015 0.326257 0
M  V30 6035 H 583.815 -2.80868 1.15528 0
M  V30 6036 H 581.4 -1.35535 0.628545 0
M  V30 6037 H 583.282 -4.11172 -0.922781 0
M  V30 6038 H 581.957 -2.97159 -1.28367 0
M  V30 6039 H 580.864 -3.62075 0.940866 0
M  V30 6040 H 582.197 -4.76871 1.21882 0
M  V30 6041 N 583.85 -0.624285 -1.44708 0
M  V30 6042 C 585.075 -0.131171 -2.06985 0
M  V30 6043 C 585.5 1.18234 -1.46295 0
M  V30 6044 O 584.858 1.72375 -0.561842 0
M  V30 6045 C 584.906 -0.0226724 -3.60593 0
M  V30 6046 O 584.01 1.02314 -3.99507 0
M  V30 6047 H 583.351 -0.0816556 -0.65896 0
M  V30 6048 H 585.88 -0.859027 -1.85693 0
M  V30 6049 H 585.891 0.170138 -4.07645 0
M  V30 6050 H 584.566 -0.981685 -4.04148 0
M  V30 6051 H 583.143 0.805452 -3.64097 0
M  V30 6052 N 585.328 1.53329 -0.364422 0
M  V30 6053 C 586.575 2.01239 0.225634 0
M  V30 6054 C 586.903 1.25172 1.48869 0
M  V30 6055 O 586.158 0.333289 1.92841 0
M  V30 6056 C 586.457 3.52911 0.564661 0
M  V30 6057 C 586.123 4.46837 -0.603936 0
M  V30 6058 C 584.785 4.72234 -0.924585 0
M  V30 6059 C 587.137 5.02409 -1.38691 0
M  V30 6060 C 584.465 5.50454 -2.0302 0
M  V30 6061 C 586.817 5.81836 -2.48293 0
M  V30 6062 C 585.481 6.0552 -2.80894 0
M  V30 6063 H 584.751 0.736386 0.0825654 0
M  V30 6064 H 587.398 1.84948 -0.496645 0
M  V30 6065 H 585.703 3.67144 1.36794 0
M  V30 6066 H 587.4 3.87455 1.03344 0
M  V30 6067 H 583.99 4.27217 -0.343983 0
M  V30 6068 H 588.174 4.82735 -1.15243 0
M  V30 6069 H 583.43 5.67024 -2.28678 0
M  V30 6070 H 587.604 6.23905 -3.0938 0
M  V30 6071 H 585.231 6.65916 -3.66688 0
M  V30 6072 N 586.806 0.0935595 1.57322 0
M  V30 6073 C 587.754 -0.883457 2.15169 0
M  V30 6074 C 588.748 -1.29324 1.09415 0
M  V30 6075 O 589.954 -1.26795 1.27762 0
M  V30 6076 H 586.329 -0.302923 0.688289 0
M  V30 6077 H 588.3 -0.370845 2.96087 0
M  V30 6078 C 587.049 -2.13345 2.74552 0
M  V30 6079 H 586.372 -1.82702 3.55612 0
M  V30 6080 H 587.812 -2.7977 3.18598 0
M  V30 6081 C 586.271 -2.90646 1.70371 0
M  V30 6082 O 586.801 -3.85133 1.14173 0
M  V30 6083 N 585.007 -2.54157 1.40899 0
M  V30 6084 H 584.554 -1.77391 1.86789 0
M  V30 6085 H 584.512 -3.06178 0.714301 0
M  V30 6086 N 588.284 -1.56567 -0.180126 0
M  V30 6087 C 589.532 -1.81133 -0.896392 0
M  V30 6088 C 589.853 -0.669114 -1.83161 0
M  V30 6089 O 589.123 0.311616 -1.93406 0
M  V30 6090 H 587.703 -0.668172 -0.333999 0
M  V30 6091 H 590.365 -1.94048 -0.182051 0
M  V30 6092 H 589.461 -2.74854 -1.47857 0
M  V30 6093 N 589.762 0.448376 -1.51087 0
M  V30 6094 C 591.039 1.20926 -1.53741 0
M  V30 6095 C 591.419 2.09025 -0.295222 0
M  V30 6096 O 590.767 2.16851 0.720283 0
M  V30 6097 C 590.977 2.02067 -2.84552 0
M  V30 6098 C 592.325 2.59486 -3.36084 0
M  V30 6099 O 593.349 2.12289 -2.86028 0
M  V30 6100 O 592.208 3.45539 -4.23397 0
M  V30 6101 H 589.302 0.549951 -0.617643 0
M  V30 6102 H 591.848 0.458344 -1.63393 0
M  V30 6103 H 590.62 1.37291 -3.66425 0
M  V30 6104 H 590.243 2.84246 -2.78011 0
M  V30 6105 N 591.24 1.41047 0.703093 0
M  V30 6106 C 592.203 1.42036 1.79884 0
M  V30 6107 C 593.203 0.312153 1.57741 0
M  V30 6108 O 594.393 0.571672 1.64553 0
M  V30 6109 C 591.525 1.22437 3.18154 0
M  V30 6110 H 592.718 2.39572 1.80403 0
M  V30 6111 H 590.271 1.27079 0.909977 0
M  V30 6112 H 591.006 0.257112 3.23279 0
M  V30 6113 H 590.791 2.02723 3.35627 0
M  V30 6114 H 592.281 1.25946 3.98155 0
M  V30 6115 N 592.718 -0.936591 1.26751 0
M  V30 6116 C 593.628 -2.06949 1.10496 0
M  V30 6117 C 594.644 -1.7396 0.037271 0
M  V30 6118 O 595.82 -1.99941 0.241944 0
M  V30 6119 C 592.885 -3.38612 0.744491 0
M  V30 6120 C 591.946 -3.85355 1.89209 0
M  V30 6121 C 591.179 -5.10735 1.54873 0
M  V30 6122 O 591.402 -5.68602 0.452546 0
M  V30 6123 O 590.336 -5.52632 2.38499 0
M  V30 6124 H 594.162 -2.23571 2.05547 0
M  V30 6125 H 591.747 -1.05428 1.05855 0
M  V30 6126 H 593.629 -4.17711 0.556396 0
M  V30 6127 H 592.304 -3.23218 -0.176582 0
M  V30 6128 H 591.211 -3.07182 2.13518 0
M  V30 6129 H 592.544 -4.05277 2.79305 0
M  V30 6130 N 594.196 -1.08629 -1.14182 0
M  V30 6131 C 595.421 -0.83902 -1.89671 0
M  V30 6132 C 595.846 0.603332 -1.78161 0
M  V30 6133 O 595.204 1.42301 -1.12339 0
M  V30 6134 C 595.252 -1.26854 -3.37551 0
M  V30 6135 O 594.356 -0.42188 -4.10236 0
M  V30 6136 H 593.697 -0.304545 -0.590041 0
M  V30 6137 H 596.227 -1.4483 -1.44518 0
M  V30 6138 H 596.237 -1.25038 -3.88368 0
M  V30 6139 H 594.912 -2.31901 -3.45246 0
M  V30 6140 H 593.489 -0.503654 -3.69483 0
M  V30 6141 N 595.674 1.31259 -0.872281 0
M  V30 6142 C 596.92 1.96913 -0.485083 0
M  V30 6143 C 597.253 1.68774 0.960667 0
M  V30 6144 O 596.528 0.985495 1.67685 0
M  V30 6145 C 596.811 3.52299 -0.745502 0
M  V30 6146 C 596.664 3.90002 -2.24095 0
M  V30 6147 C 597.983 4.39582 -0.213516 0
M  V30 6148 H 595.102 0.715252 -0.177716 0
M  V30 6149 H 597.744 1.55347 -1.09395 0
M  V30 6150 H 595.894 3.87835 -0.227276 0
M  V30 6151 H 597.566 3.64555 -2.82661 0
M  V30 6152 H 595.809 3.38526 -2.71261 0
M  V30 6153 H 596.48 4.98352 -2.37381 0
M  V30 6154 H 598.956 4.10882 -0.656902 0
M  V30 6155 H 597.832 5.47251 -0.42516 0
M  V30 6156 H 598.093 4.33158 0.884666 0
M  V30 6157 N 597.152 0.631951 1.44375 0
M  V30 6158 C 598.377 0.142146 2.06912 0
M  V30 6159 C 598.802 -1.17456 1.4692 0
M  V30 6160 O 598.16 -1.72074 0.570975 0
M  V30 6161 C 598.208 0.0417952 3.60576 0
M  V30 6162 O 597.312 -1.00194 4.00044 0
M  V30 6163 H 596.653 0.0851491 0.658518 0
M  V30 6164 H 599.183 0.868863 1.85235 0
M  V30 6165 H 599.193 -0.148517 4.0773 0
M  V30 6166 H 597.868 1.0031 4.03622 0
M  V30 6167 H 596.445 -0.786131 3.64519 0
M  V30 6168 N 598.631 -1.53133 0.372548 0
M  V30 6169 C 599.908 -1.93704 -0.271693 0
M  V30 6170 C 600.288 -1.30667 -1.65799 0
M  V30 6171 O 599.636 -0.46838 -2.23648 0
M  V30 6172 C 599.846 -3.47576 -0.314903 0
M  V30 6173 C 601.194 -4.20998 -0.551912 0
M  V30 6174 O 602.218 -3.53994 -0.39582 0
M  V30 6175 O 601.077 -5.39748 -0.85639 0
M  V30 6176 H 598.171 -0.810457 -0.164586 0
M  V30 6177 H 600.717 -1.6427 0.425838 0
M  V30 6178 H 599.489 -3.85749 0.656792 0
M  V30 6179 H 599.112 -3.83264 -1.05804 0
M  V30 6180 N 600.109 -0.101901 -1.5727 0
M  V30 6181 C 601.355 0.561027 -1.94885 0
M  V30 6182 C 601.688 1.6741 -0.984258 0
M  V30 6183 O 600.963 1.94491 -0.0184767 0
M  V30 6184 C 601.246 1.10982 -3.42571 0
M  V30 6185 C 601.099 0.00133418 -4.498 0
M  V30 6186 C 602.418 2.00608 -3.9172 0
M  V30 6187 H 599.537 0.202467 -0.708644 0
M  V30 6188 H 602.179 -0.173992 -1.89202 0
M  V30 6189 H 600.329 1.73621 -3.47546 0
M  V30 6190 H 602.001 -0.63322 -4.56933 0
M  V30 6191 H 600.244 -0.664143 -4.28686 0
M  V30 6192 H 600.915 0.426253 -5.50352 0
M  V30 6193 H 603.391 1.47864 -3.88941 0
M  V30 6194 H 602.267 2.3593 -4.95609 0
M  V30 6195 H 602.528 2.92608 -3.3141 0
M  V30 6196 N 601.587 1.56661 0.17182 0
M  V30 6197 C 602.998 1.71652 0.734329 0
M  V30 6198 C 603.349 0.712335 1.82812 0
M  V30 6199 O 602.474 -0.126401 2.16031 0
M  V30 6200 C 603.069 3.11226 1.3388 0
M  V30 6201 C 601.628 3.27904 1.84813 0
M  V30 6202 C 600.775 2.67603 0.726917 0
M  V30 6203 H 603.726 1.5861 -0.0535665 0
M  V30 6204 H 603.747 3.09849 2.20849 0
M  V30 6205 H 603.259 3.8429 0.54249 0
M  V30 6206 H 601.36 2.59796 2.6709 0
M  V30 6207 H 601.473 4.35637 1.99392 0
M  V30 6208 H 599.837 2.274 1.14723 0
M  V30 6209 H 600.62 3.43252 -0.0575334 0
M  V30 6210 N 603.065 -0.440357 1.51323 0
M  V30 6211 C 604.476 -1.02032 1.56353 0
M  V30 6212 C 604.827 -1.92382 0.385197 0
M  V30 6213 O 603.952 -2.10583 -0.498373 0
M  V30 6214 C 604.547 -1.85723 2.83359 0
M  V30 6215 C 603.106 -2.38774 2.90971 0
M  V30 6216 C 602.253 -1.17908 2.50984 0
M  V30 6217 H 605.204 -0.221744 1.57143 0
M  V30 6218 H 605.225 -2.71141 2.66951 0
M  V30 6219 H 604.737 -1.19939 3.69102 0
M  V30 6220 H 602.838 -3.08021 2.09651 0
M  V30 6221 H 602.951 -2.71778 3.94555 0
M  V30 6222 H 601.315 -1.52347 2.04114 0
M  V30 6223 H 602.098 -0.537393 3.39068 0
M  V30 6224 N 604.543 -1.41418 -0.695603 0
M  V30 6225 C 605.768 -1.44329 -1.48942 0
M  V30 6226 C 606.193 -0.0501579 -1.88033 0
M  V30 6227 O 605.551 0.946598 -1.54626 0
M  V30 6228 C 605.599 -2.3578 -2.72837 0
M  V30 6229 O 604.703 -1.81482 -3.70322 0
M  V30 6230 H 604.044 -0.489838 -0.44828 0
M  V30 6231 H 606.574 -1.85878 -0.855014 0
M  V30 6232 H 606.584 -2.51654 -3.21145 0
M  V30 6233 H 605.259 -3.37005 -2.43722 0
M  V30 6234 H 603.836 -1.75058 -3.29255 0
M  V30 6235 N 606.021 0.929856 -1.27246 0
M  V30 6236 C 607.249 1.71144 -1.16265 0
M  V30 6237 C 607.664 1.867 0.280786 0
M  V30 6238 O 607.021 1.38249 1.19136 0
M  V30 6239 C 607.072 3.11222 -1.83911 0
M  V30 6240 O 606.793 2.96398 -3.22614 0
M  V30 6241 C 608.294 4.05541 -1.79028 0
M  V30 6242 H 605.514 0.535499 -0.404328 0
M  V30 6243 H 608.058 1.16492 -1.68077 0
M  V30 6244 H 606.213 3.6274 -1.36009 0
M  V30 6245 H 606.627 3.8494 -3.56261 0
M  V30 6246 H 608.101 5.01351 -2.30978 0
M  V30 6247 H 608.578 4.32589 -0.759168 0
M  V30 6248 H 609.184 3.59947 -2.26535 0
M  V30 6249 N 607.499 1.09233 1.13605 0
M  V30 6250 C 608.747 0.825525 1.84471 0
M  V30 6251 C 609.068 -0.650702 1.83823 0
M  V30 6252 O 608.338 -1.47204 1.29259 0
M  V30 6253 H 606.918 0.3024 0.683054 0
M  V30 6254 H 609.58 1.38006 1.37624 0
M  V30 6255 H 608.676 1.17727 2.89045 0
M  V30 6256 N 608.977 -1.30795 0.87923 0
M  V30 6257 C 609.925 -2.30231 0.331112 0
M  V30 6258 C 610.919 -1.59918 -0.558794 0
M  V30 6259 O 612.125 -1.74441 -0.443866 0
M  V30 6260 H 608.5 -0.746785 0.088409 0
M  V30 6261 H 610.471 -2.73925 1.18353 0
M  V30 6262 C 609.22 -3.44848 -0.444401 0
M  V30 6263 H 608.543 -3.99131 0.231106 0
M  V30 6264 H 609.983 -4.16516 -0.793109 0
M  V30 6265 C 608.442 -2.94329 -1.63926 0
M  V30 6266 O 608.972 -2.93875 -2.73862 0
M  V30 6267 N 607.178 -2.50413 -1.4745 0
M  V30 6268 H 606.725 -2.50982 -0.58015 0
M  V30 6269 H 606.683 -2.16969 -2.27534 0
M  V30 6270 N 610.455 -0.639598 -1.44038 0
M  V30 6271 C 611.68 -0.153117 -2.06834 0
M  V30 6272 C 612.105 1.16676 -1.47541 0
M  V30 6273 O 611.463 1.71769 -0.580093 0
M  V30 6274 C 611.511 -0.0609169 -3.60549 0
M  V30 6275 O 610.615 0.98071 -4.00569 0
M  V30 6276 H 609.956 -0.0886402 -0.658057 0
M  V30 6277 H 612.486 -0.878674 -1.84771 0
M  V30 6278 H 612.496 0.126892 -4.07803 0
M  V30 6279 H 611.171 -1.0245 -4.03084 0
M  V30 6280 H 609.748 0.766789 -3.64931 0
M  V30 6281 N 611.933 1.52934 -0.380664 0
M  V30 6282 C 612.896 2.24809 0.446473 0
M  V30 6283 C 613.896 1.26133 0.997347 0
M  V30 6284 O 615.086 1.50297 0.880714 0
M  V30 6285 C 612.218 2.99649 1.62553 0
M  V30 6286 H 613.411 2.99343 -0.182677 0
M  V30 6287 H 610.964 1.55736 -0.132618 0
M  V30 6288 H 611.699 2.29395 2.29235 0
M  V30 6289 H 611.484 3.72066 1.23732 0
M  V30 6290 H 612.974 3.54246 2.21133 0
M  V30 6291 N 613.412 0.11024 1.57214 0
M  V30 6292 C 614.637 -0.561179 1.99664 0
M  V30 6293 C 615.062 -1.59985 0.989266 0
M  V30 6294 O 614.42 -1.81255 -0.0402399 0
M  V30 6295 C 614.468 -1.17189 3.41027 0
M  V30 6296 O 613.572 -2.28755 3.4314 0
M  V30 6297 H 612.913 -0.14101 0.648855 0
M  V30 6298 H 615.443 0.196128 2.03658 0
M  V30 6299 H 615.453 -1.50954 3.79047 0
M  V30 6300 H 614.128 -0.411041 4.13864 0
M  V30 6301 H 612.705 -1.96495 3.16929 0
M  V30 6302 N 614.89 -1.56749 -0.16351 0
M  V30 6303 C 615.82 -2.00042 -1.20438 0
M  V30 6304 C 616.801 -0.877256 -1.45733 0
M  V30 6305 O 617.986 -1.1439 -1.56935 0
M  V30 6306 C 615.116 -2.36697 -2.54149 0
M  V30 6307 C 614.07 -3.52046 -2.43408 0
M  V30 6308 C 613.396 -3.74466 -3.81679 0
M  V30 6309 C 614.696 -4.85247 -1.93216 0
M  V30 6310 H 616.39 -2.87244 -0.844477 0
M  V30 6311 H 613.936 -1.38194 -0.40478 0
M  V30 6312 H 615.889 -2.65582 -3.27176 0
M  V30 6313 H 614.613 -1.46414 -2.91943 0
M  V30 6314 H 613.272 -3.23301 -1.72834 0
M  V30 6315 H 612.92 -2.81461 -4.1688 0
M  V30 6316 H 612.62 -4.52084 -3.75359 0
M  V30 6317 H 614.144 -4.0576 -4.5628 0
M  V30 6318 H 615.558 -5.12957 -2.56023 0
M  V30 6319 H 613.955 -5.66556 -1.97825 0
M  V30 6320 H 615.025 -4.7672 -0.88689 0
M  V30 6321 N 616.368 0.432326 -1.51554 0
M  V30 6322 C 617.593 1.20824 -1.68571 0
M  V30 6323 C 618.018 1.84126 -0.384596 0
M  V30 6324 O 617.376 1.69025 0.655751 0
M  V30 6325 C 617.424 2.26429 -2.80646 0
M  V30 6326 O 616.528 3.32032 -2.44598 0
M  V30 6327 H 615.869 0.353765 -0.561913 0
M  V30 6328 H 618.399 0.509916 -1.98144 0
M  V30 6329 H 618.409 2.71133 -3.04878 0
M  V30 6330 H 617.084 1.79733 -3.75058 0
M  V30 6331 H 615.661 2.92769 -2.30956 0
M  V30 6332 N 617.846 1.41785 0.688094 0
M  V30 6333 C 618.776 1.47 1.8142 0
M  V30 6334 C 619.757 0.327881 1.6691 0
M  V30 6335 O 620.942 0.540362 1.86531 0
M  V30 6336 C 618.072 1.35876 3.19617 0
M  V30 6337 C 617.026 2.47976 3.48844 0
M  V30 6338 C 616.352 2.21915 4.86475 0
M  V30 6339 C 617.652 3.90309 3.47068 0
M  V30 6340 H 619.346 2.41247 1.77314 0
M  V30 6341 H 616.892 1.16116 0.851651 0
M  V30 6342 H 618.845 1.38134 3.98117 0
M  V30 6343 H 617.569 0.38116 3.24368 0
M  V30 6344 H 616.228 2.45013 2.72698 0
M  V30 6345 H 615.876 1.2248 4.8786 0
M  V30 6346 H 615.576 2.97037 5.06994 0
M  V30 6347 H 617.1 2.25901 5.67275 0
M  V30 6348 H 618.514 3.94947 4.1556 0
M  V30 6349 H 616.911 4.65175 3.7912 0
M  V30 6350 H 617.981 4.17927 2.45896 0
M  V30 6351 N 619.324 -0.923095 1.27737 0
M  V30 6352 C 620.735 -1.48626 1.12993 0
M  V30 6353 C 621.086 -1.94142 -0.283439 0
M  V30 6354 O 620.211 -1.81605 -1.17681 0
M  V30 6355 C 620.806 -2.70117 2.04505 0
M  V30 6356 C 619.365 -3.22642 1.93853 0
M  V30 6357 C 618.512 -1.95368 1.96791 0
M  V30 6358 H 621.463 -0.736737 1.40563 0
M  V30 6359 H 621.484 -3.4506 1.60356 0
M  V30 6360 H 620.996 -2.36959 3.07363 0
M  V30 6361 H 619.097 -3.60549 0.939968 0
M  V30 6362 H 619.21 -3.88525 2.80331 0
M  V30 6363 H 617.574 -2.12061 1.41076 0
M  V30 6364 H 618.357 -1.64517 3.01312 0
M  V30 6365 N 620.802 -1.09834 -1.13024 0
M  V30 6366 C 621.732 -0.763451 -2.20666 0
M  V30 6367 C 622.713 0.260778 -1.68089 0
M  V30 6368 O 623.898 0.127915 -1.93778 0
M  V30 6369 C 621.028 -0.187744 -3.46792 0
M  V30 6370 C 619.982 -1.14196 -4.12484 0
M  V30 6371 C 619.308 -0.427755 -5.32986 0
M  V30 6372 C 620.608 -2.48607 -4.59338 0
M  V30 6373 H 622.302 -1.66347 -2.48936 0
M  V30 6374 H 619.848 -0.801261 -1.19649 0
M  V30 6375 H 621.801 0.0586375 -4.21359 0
M  V30 6376 H 620.525 0.747485 -3.17931 0
M  V30 6377 H 619.184 -1.37369 -3.3989 0
M  V30 6378 H 618.832 0.511747 -5.0039 0
M  V30 6379 H 618.532 -1.06403 -5.77886 0
M  V30 6380 H 620.056 -0.189772 -6.10305 0
M  V30 6381 H 621.47 -2.29618 -5.25308 0
M  V30 6382 H 619.867 -3.08062 -5.14993 0
M  V30 6383 H 620.937 -3.09062 -3.73642 0
M  V30 6384 N 622.28 1.30327 -0.886154 0
M  V30 6385 C 623.526 1.96388 -0.505941 0
M  V30 6386 C 623.859 1.69784 0.942712 0
M  V30 6387 O 623.134 1.00322 1.6663 0
M  V30 6388 C 623.417 3.51488 -0.782826 0
M  V30 6389 C 623.27 3.87603 -2.28219 0
M  V30 6390 C 624.589 4.39331 -0.260128 0
M  V30 6391 H 621.708 0.713327 -0.185292 0
M  V30 6392 H 624.35 1.54178 -1.11036 0
M  V30 6393 H 622.5 3.87572 -0.268399 0
M  V30 6394 H 624.172 3.61537 -2.86512 0
M  V30 6395 H 622.415 3.3563 -2.74837 0
M  V30 6396 H 623.086 4.95806 -2.42653 0
M  V30 6397 H 625.562 4.10162 -0.700444 0
M  V30 6398 H 624.438 5.46769 -0.483179 0
M  V30 6399 H 624.699 4.34072 0.838674 0
M  V30 6400 N 623.758 0.647228 1.43697 0
M  V30 6401 C 624.688 -0.0345631 2.33474 0
M  V30 6402 C 625.669 -0.818193 1.4913 0
M  V30 6403 O 626.854 -0.780867 1.77809 0
M  V30 6404 C 623.984 -1.00576 3.32418 0
M  V30 6405 C 622.938 -0.33266 4.26705 0
M  V30 6406 C 622.264 -1.41489 5.1564 0
M  V30 6407 C 623.564 0.771204 5.16575 0
M  V30 6408 H 625.258 0.715163 2.90733 0
M  V30 6409 H 622.804 0.345364 1.39797 0
M  V30 6410 H 624.757 -1.49159 3.94119 0
M  V30 6411 H 623.481 -1.78657 2.73403 0
M  V30 6412 H 622.14 0.13267 3.6636 0
M  V30 6413 H 621.788 -2.18698 4.52968 0
M  V30 6414 H 621.488 -0.969799 5.79542 0
M  V30 6415 H 623.012 -1.9022 5.80214 0
M  V30 6416 H 624.426 0.36779 5.72119 0
M  V30 6417 H 622.823 1.1404 5.89165 0
M  V30 6418 H 623.893 1.63169 4.56622 0
M  V30 6419 N 625.236 -1.5273 0.388769 0
M  V30 6420 C 626.168 -2.24081 -0.481704 0
M  V30 6421 C 627.181 -1.26307 -1.02715 0
M  V30 6422 O 628.37 -1.52386 -0.929565 0
M  V30 6423 C 625.47 -2.94315 -1.68024 0
M  V30 6424 C 624.643 -4.18791 -1.26226 0
M  V30 6425 C 623.702 -4.72028 -2.32542 0
M  V30 6426 O 622.728 -5.35129 -1.93972 0
M  V30 6427 N 623.93 -4.51838 -3.64448 0
M  V30 6428 H 626.695 -2.9942 0.129591 0
M  V30 6429 H 624.256 -1.60465 0.2151 0
M  V30 6430 H 626.248 -3.26831 -2.38671 0
M  V30 6431 H 624.818 -2.22287 -2.19789 0
M  V30 6432 H 624.038 -3.92318 -0.384703 0
M  V30 6433 H 625.326 -4.99668 -0.959647 0
M  V30 6434 H 624.724 -4.01468 -3.98547 0
M  V30 6435 H 623.281 -4.88845 -4.31131 0
M  V30 6436 N 626.714 -0.118576 -1.57153 0
M  V30 6437 C 628.125 0.40687 -1.82213 0
M  V30 6438 C 628.476 1.66636 -1.03571 0
M  V30 6439 O 627.601 2.14682 -0.272171 0
M  V30 6440 C 628.196 0.744949 -3.30509 0
M  V30 6441 C 626.755 1.21503 -3.5625 0
M  V30 6442 C 625.902 0.223511 -2.76398 0
M  V30 6443 H 628.853 -0.343712 -1.54933 0
M  V30 6444 H 628.874 1.6024 -3.45114 0
M  V30 6445 H 628.386 -0.171911 -3.87719 0
M  V30 6446 H 626.487 2.1488 -3.04396 0
M  V30 6447 H 626.6 1.16065 -4.64829 0
M  V30 6448 H 624.964 0.71046 -2.44591 0
M  V30 6449 H 625.747 -0.686439 -3.36367 0
M  V30 6450 N 628.193 1.56834 0.155195 0
M  V30 6451 C 629.441 1.82536 0.867462 0
M  V30 6452 C 629.762 0.698168 1.82073 0
M  V30 6453 O 629.032 -0.280807 1.93877 0
M  V30 6454 H 627.612 0.673401 0.323327 0
M  V30 6455 H 630.274 1.94313 0.151156 0
M  V30 6456 H 629.37 2.77171 1.43466 0
M  V30 6457 N 629.671 -0.424282 1.51781 0
M  V30 6458 C 630.601 -1.52305 1.7699 0
M  V30 6459 C 631.582 -1.5839 0.620209 0
M  V30 6460 O 632.767 -1.73908 0.864268 0
M  V30 6461 C 629.897 -2.90271 1.90683 0
M  V30 6462 C 628.851 -2.99043 3.06198 0
M  V30 6463 C 628.177 -4.39116 3.05092 0
M  V30 6464 C 629.477 -2.7192 4.45934 0
M  V30 6465 H 631.171 -1.31461 2.68995 0
M  V30 6466 H 628.717 -0.630985 1.29439 0
M  V30 6467 H 630.67 -3.6711 2.06901 0
M  V30 6468 H 629.394 -3.12376 0.953365 0
M  V30 6469 H 628.053 -2.24646 2.89706 0
M  V30 6470 H 627.701 -4.58207 2.07498 0
M  V30 6471 H 627.401 -4.45912 3.82669 0
M  V30 6472 H 628.925 -5.17911 3.2342 0
M  V30 6473 H 630.339 -3.38487 4.62709 0
M  V30 6474 H 628.736 -2.90111 5.25315 0
M  V30 6475 H 629.806 -1.67445 4.55072 0
M  V30 6476 N 631.149 -1.42148 -0.680565 0
M  V30 6477 C 632.374 -1.45901 -1.47403 0
M  V30 6478 C 632.799 -0.0700985 -1.87969 0
M  V30 6479 O 632.157 0.930145 -1.55621 0
M  V30 6480 C 632.205 -2.38661 -2.70321 0
M  V30 6481 O 631.309 -1.85399 -3.68376 0
M  V30 6482 H 630.65 -0.494565 -0.443059 0
M  V30 6483 H 633.18 -1.86774 -0.835251 0
M  V30 6484 H 633.19 -2.55046 -3.18458 0
M  V30 6485 H 631.865 -3.39571 -2.40134 0
M  V30 6486 H 630.442 -1.78541 -3.2738 0
M  V30 6487 N 632.627 0.916307 -1.28225 0
M  V30 6488 C 633.537 2.05165 -1.13775 0
M  V30 6489 C 634.553 1.73879 -0.0649418 0
M  V30 6490 O 635.729 1.99531 -0.273722 0
M  V30 6491 C 632.794 3.37385 -0.798267 0
M  V30 6492 C 631.855 3.82296 -1.95316 0
M  V30 6493 C 631.088 5.08206 -1.62978 0
M  V30 6494 O 631.311 5.6781 -0.542948 0
M  V30 6495 O 630.245 5.48768 -2.47261 0
M  V30 6496 H 634.071 2.20273 -2.09078 0
M  V30 6497 H 631.656 1.0373 -1.07519 0
M  V30 6498 H 633.538 4.16773 -0.62278 0
M  V30 6499 H 632.213 3.23458 0.125139 0
M  V30 6500 H 631.12 3.03746 -2.18378 0
M  V30 6501 H 632.453 4.00782 -2.85718 0
M  V30 6502 N 634.105 1.10431 1.1244 0
M  V30 6503 C 635.516 0.864439 1.65482 0
M  V30 6504 C 635.867 -0.60527 1.8663 0
M  V30 6505 O 634.992 -1.46492 1.59276 0
M  V30 6506 C 635.587 1.56267 3.0061 0
M  V30 6507 C 634.146 1.3695 3.50602 0
M  V30 6508 C 633.293 1.61209 2.25626 0
M  V30 6509 H 636.244 1.26203 0.962209 0
M  V30 6510 H 636.265 1.00166 3.67079 0
M  V30 6511 H 635.777 2.63231 2.85186 0
M  V30 6512 H 633.878 0.321481 3.71211 0
M  V30 6513 H 633.991 2.11143 4.30064 0
M  V30 6514 H 632.355 1.03482 2.32731 0
M  V30 6515 H 633.138 2.69425 2.12756 0
M  V30 6516 N 635.583 -1.29855 0.893053 0
M  V30 6517 C 636.994 -1.77946 0.564998 0
M  V30 6518 C 637.345 -1.73339 -0.919134 0
M  V30 6519 O 636.47 -1.3152 -1.71847 0
M  V30 6520 C 637.065 -3.23118 1.01883 0
M  V30 6521 C 635.624 -3.69013 0.742051 0
M  V30 6522 C 634.771 -2.50121 1.19727 0
M  V30 6523 H 637.722 -1.16611 1.07646 0
M  V30 6524 H 637.743 -3.78875 0.351249 0
M  V30 6525 H 637.255 -3.26439 2.09903 0
M  V30 6526 H 635.356 -3.71173 -0.325816 0
M  V30 6527 H 635.469 -4.60117 1.33527 0
M  V30 6528 H 633.833 -2.47128 0.616418 0
M  V30 6529 H 634.616 -2.56174 2.28538 0
M  V30 6530 N 637.061 -0.65484 -1.43351 0
M  V30 6531 C 637.993 0.0744757 -2.29079 0
M  V30 6532 C 639.006 0.7855 -1.42596 0
M  V30 6533 O 640.195 0.642986 -1.66517 0
M  V30 6534 C 637.295 1.12859 -3.19556 0
M  V30 6535 C 636.468 0.495381 -4.34586 0
M  V30 6536 C 635.527 1.44659 -5.05925 0
M  V30 6537 O 634.553 0.954567 -5.61139 0
M  V30 6538 N 635.755 2.78051 -5.09576 0
M  V30 6539 H 638.52 -0.661346 -2.92312 0
M  V30 6540 H 636.081 -0.497744 -1.54059 0
M  V30 6541 H 638.073 1.76577 -3.64147 0
M  V30 6542 H 636.643 1.76636 -2.57912 0
M  V30 6543 H 635.863 -0.32092 -3.92892 0
M  V30 6544 H 637.151 0.0534203 -5.08772 0
M  V30 6545 H 636.549 3.20584 -4.66093 0
M  V30 6546 H 635.106 3.37068 -5.57878 0
M  V30 6547 N 638.539 1.52521 -0.396863 0
M  V30 6548 C 639.95 1.86547 0.0754868 0
M  V30 6549 C 640.301 1.31621 1.45501 0
M  V30 6550 O 639.426 0.650563 2.0639 0
M  V30 6551 C 640.021 3.38495 0.143754 0
M  V30 6552 C 638.58 3.72205 0.560413 0
M  V30 6553 C 637.727 2.75954 -0.272856 0
M  V30 6554 H 640.678 1.46323 -0.614434 0
M  V30 6555 H 640.699 3.68153 0.961425 0
M  V30 6556 H 640.211 3.78442 -0.860415 0
M  V30 6557 H 638.312 3.3783 1.57167 0
M  V30 6558 H 638.425 4.78074 0.313314 0
M  V30 6559 H 636.789 2.53339 0.263 0
M  V30 6560 H 637.572 3.1874 -1.27515 0
M  V30 6561 N 640.017 0.126909 1.57088 0
M  V30 6562 C 640.947 -0.816847 2.18746 0
M  V30 6563 C 641.928 -1.27161 1.12979 0
M  V30 6564 O 643.113 -1.33279 1.41246 0
M  V30 6565 C 640.243 -2.06398 2.79315 0
M  V30 6566 C 639.197 -1.74673 3.90735 0
M  V30 6567 C 638.523 -3.06482 4.38147 0
M  V30 6568 C 639.823 -1.0089 5.12463 0
M  V30 6569 H 641.517 -0.303032 2.97863 0
M  V30 6570 H 639.063 -0.144314 1.43275 0
M  V30 6571 H 641.016 -2.72885 3.2111 0
M  V30 6572 H 639.74 -2.60118 1.975 0
M  V30 6573 H 638.399 -1.10572 3.49527 0
M  V30 6574 H 638.047 -3.58152 3.5318 0
M  V30 6575 H 637.747 -2.86025 5.13287 0
M  V30 6576 H 639.271 -3.74073 4.82599 0
M  V30 6577 H 640.685 -1.57546 5.51228 0
M  V30 6578 H 639.082 -0.905006 5.93237 0
M  V30 6579 H 640.152 0.00297335 4.849 0
M  V30 6580 N 641.495 -1.56914 -0.146875 0
M  V30 6581 C 642.425 -2.01308 -1.1831 0
M  V30 6582 C 643.406 -0.892664 -1.44795 0
M  V30 6583 O 644.591 -1.16048 -1.55713 0
M  V30 6584 C 641.721 -2.3938 -2.51624 0
M  V30 6585 C 640.675 -3.54608 -2.3966 0
M  V30 6586 C 640.001 -3.78493 -3.77686 0
M  V30 6587 C 641.301 -4.87269 -1.88058 0
M  V30 6588 H 642.995 -2.88123 -0.813964 0
M  V30 6589 H 640.541 -1.38615 -0.3901 0
M  V30 6590 H 642.494 -2.69037 -3.24341 0
M  V30 6591 H 641.218 -1.49502 -2.90373 0
M  V30 6592 H 639.877 -3.25116 -1.69396 0
M  V30 6593 H 639.525 -2.85866 -4.13871 0
M  V30 6594 H 639.225 -4.56039 -3.70543 0
M  V30 6595 H 640.749 -4.10576 -4.51951 0
M  V30 6596 H 642.163 -5.15644 -2.50568 0
M  V30 6597 H 640.56 -5.68622 -1.91805 0
M  V30 6598 H 641.63 -4.77634 -0.836277 0
M  V30 6599 N 642.974 0.416227 -1.52004 0
M  V30 6600 C 644.385 0.995319 -1.57957 0
M  V30 6601 C 644.736 1.91744 -0.415754 0
M  V30 6602 O 643.861 2.11349 0.464808 0
M  V30 6603 C 644.456 1.81191 -2.86278 0
M  V30 6604 C 643.015 2.34115 -2.94732 0
M  V30 6605 C 642.162 1.139 -2.52828 0
M  V30 6606 H 645.113 0.196716 -1.57476 0
M  V30 6607 H 645.134 2.66859 -2.71231 0
M  V30 6608 H 644.646 1.14051 -3.70963 0
M  V30 6609 H 642.747 3.04647 -2.14525 0
M  V30 6610 H 642.86 2.65466 -3.98829 0
M  V30 6611 H 641.224 1.49081 -2.06511 0
M  V30 6612 H 642.007 0.483383 -3.3988 0
M  V30 6613 N 644.452 1.42507 0.673017 0
M  V30 6614 C 645.415 1.4582 1.76831 0
M  V30 6615 C 646.415 0.345542 1.57043 0
M  V30 6616 O 647.605 0.606447 1.63303 0
M  V30 6617 C 644.737 1.29158 3.15485 0
M  V30 6618 H 645.93 2.43345 1.7528 0
M  V30 6619 H 643.483 1.28981 0.882817 0
M  V30 6620 H 644.218 0.325626 3.22661 0
M  V30 6621 H 644.003 2.09797 3.31252 0
M  V30 6622 H 645.493 1.34363 3.95394 0
M  V30 6623 N 645.93 -0.909495 1.28709 0
M  V30 6624 C 647.155 -1.69801 1.1909 0
M  V30 6625 C 647.58 -1.86479 -0.246388 0
M  V30 6626 O 646.938 -1.37802 -1.17815 0
M  V30 6627 C 646.986 -3.06543 1.89904 0
M  V30 6628 O 646.09 -3.94268 1.2094 0
M  V30 6629 H 645.431 -0.519783 0.413185 0
M  V30 6630 H 647.961 -1.13689 1.70106 0
M  V30 6631 H 647.971 -3.56748 1.97977 0
M  V30 6632 H 646.646 -2.93722 2.94449 0
M  V30 6633 H 645.223 -3.52702 1.2106 0
M  V30 6634 N 647.408 -1.11026 -1.11852 0
M  V30 6635 C 648.371 -0.768006 -2.1595 0
M  V30 6636 C 649.371 0.210538 -1.59416 0
M  V30 6637 O 650.561 -0.0133978 -1.74195 0
M  V30 6638 C 647.693 -0.138678 -3.40618 0
M  V30 6639 H 648.886 -1.69012 -2.4774 0
M  V30 6640 H 646.439 -0.911578 -1.26964 0
M  V30 6641 H 647.174 0.793872 -3.14433 0
M  V30 6642 H 646.959 -0.843012 -3.8293 0
M  V30 6643 H 648.449 0.0848039 -4.17514 0
M  V30 6644 N 648.886 1.2938 -0.899927 0
M  V30 6645 C 650.297 1.77644 -0.574427 0
M  V30 6646 C 650.648 1.73824 0.909928 0
M  V30 6647 O 649.773 1.32429 1.71147 0
M  V30 6648 C 650.368 3.22573 -1.03595 0
M  V30 6649 C 648.927 3.68614 -0.76161 0
M  V30 6650 C 648.074 2.49483 -1.21052 0
M  V30 6651 H 651.025 1.16038 -1.08263 0
M  V30 6652 H 651.046 3.78684 -0.371337 0
M  V30 6653 H 650.558 3.25321 -2.11631 0
M  V30 6654 H 648.659 3.7134 0.306127 0
M  V30 6655 H 648.772 4.59402 -1.35965 0
M  V30 6656 H 647.136 2.46798 -0.629515 0
M  V30 6657 H 647.919 2.54959 -2.29893 0
M  V30 6658 N 650.364 0.662433 1.43002 0
M  V30 6659 C 651.589 0.186003 2.06564 0
M  V30 6660 C 652.014 -1.14314 1.49379 0
M  V30 6661 O 651.372 -1.70824 0.607346 0
M  V30 6662 C 651.42 0.118269 3.60406 0
M  V30 6663 O 650.524 -0.916859 4.02079 0
M  V30 6664 H 649.865 0.0990981 0.656563 0
M  V30 6665 H 652.395 0.907958 1.8335 0
M  V30 6666 H 652.405 -0.0619981 4.07953 0
M  V30 6667 H 651.08 1.08849 4.01403 0
M  V30 6668 H 649.657 -0.708635 3.66105 0
M  V30 6669 N 651.842 -1.52309 0.404946 0
M  V30 6670 C 652.805 -2.25491 -0.410651 0
M  V30 6671 C 653.805 -1.27704 -0.977154 0
M  V30 6672 O 654.995 -1.51679 -0.856691 0
M  V30 6673 C 652.127 -3.02197 -1.57765 0
M  V30 6674 H 653.32 -2.99015 0.230277 0
M  V30 6675 H 650.873 -1.55506 0.157377 0
M  V30 6676 H 651.608 -2.33013 -2.25556 0
M  V30 6677 H 651.393 -3.73987 -1.17797 0
M  V30 6678 H 652.883 -3.57719 -2.15469 0
M  V30 6679 N 653.32 -0.135238 -1.57019 0
M  V30 6680 C 654.731 0.387521 -1.82634 0
M  V30 6681 C 655.082 1.65528 -1.05332 0
M  V30 6682 O 654.207 2.14381 -0.294926 0
M  V30 6683 C 654.802 0.709852 -3.3128 0
M  V30 6684 C 653.361 1.17718 -3.57518 0
M  V30 6685 C 652.508 0.194183 -2.76619 0
M  V30 6686 H 655.459 -0.360126 -1.5456 0
M  V30 6687 H 655.48 1.5657 -3.46794 0
M  V30 6688 H 654.992 -0.213024 -3.87515 0
M  V30 6689 H 653.093 2.1164 -3.06658 0
M  V30 6690 H 653.206 1.11128 -4.66034 0
M  V30 6691 H 651.57 0.684478 -2.4533 0
M  V30 6692 H 652.353 -0.722076 -3.3562 0
M  V30 6693 N 654.798 1.5699 0.138552 0
M  V30 6694 C 656.209 1.73171 0.697754 0
M  V30 6695 C 656.56 0.750952 1.8126 0
M  V30 6696 O 655.685 -0.080549 2.1625 0
M  V30 6697 C 656.28 3.13996 1.27248 0
M  V30 6698 C 654.839 3.3175 1.77816 0
M  V30 6699 C 653.986 2.69084 0.669991 0
M  V30 6700 H 656.937 1.5846 -0.0871979 0
M  V30 6701 H 656.958 3.14463 2.14227 0
M  V30 6702 H 656.47 3.85354 0.460855 0
M  V30 6703 H 654.571 2.65403 2.61519 0
M  V30 6704 H 654.684 4.39768 1.90107 0
M  V30 6705 H 653.048 2.29782 1.09874 0
M  V30 6706 H 653.831 3.43053 -0.130329 0
M  V30 6707 N 656.276 -0.40816 1.52223 0
M  V30 6708 C 657.687 -0.986929 1.58482 0
M  V30 6709 C 658.038 -1.91521 0.425917 0
M  V30 6710 O 657.163 -2.11593 -0.453593 0
M  V30 6711 C 657.758 -1.7967 2.87235 0
M  V30 6712 C 656.317 -2.32549 2.9597 0
M  V30 6713 C 655.464 -1.12558 2.53428 0
M  V30 6714 H 658.415 -0.188362 1.57578 0
M  V30 6715 H 658.436 -2.65417 2.72642 0
M  V30 6716 H 657.948 -1.12082 3.71563 0
M  V30 6717 H 656.049 -3.03505 2.16137 0
M  V30 6718 H 656.162 -2.63348 4.00231 0
M  V30 6719 H 654.526 -1.47984 2.07299 0
M  V30 6720 H 655.309 -0.465351 3.40131 0
M  V30 6721 N 657.755 -1.42862 -0.66545 0
M  V30 6722 C 658.718 -1.46756 -1.76055 0
M  V30 6723 C 659.718 -0.353866 -1.56858 0
M  V30 6724 O 660.908 -0.615099 -1.62979 0
M  V30 6725 C 658.04 -1.30829 -3.14796 0
M  V30 6726 H 659.233 -2.44271 -1.73987 0
M  V30 6727 H 656.786 -1.29447 -0.875965 0
M  V30 6728 H 657.521 -0.342733 -3.22484 0
M  V30 6729 H 657.306 -2.11551 -3.30134 0
M  V30 6730 H 658.796 -1.36458 -3.94676 0
M  V30 6731 N 659.233 0.902656 -1.29189 0
M  V30 6732 C 660.644 1.46809 -1.15343 0
M  V30 6733 C 660.995 1.94568 0.252517 0
M  V30 6734 O 660.12 1.83454 1.14777 0
M  V30 6735 C 660.715 2.66829 -2.08776 0
M  V30 6736 C 659.274 3.19518 -1.98961 0
M  V30 6737 C 658.421 1.92212 -1.99874 0
M  V30 6738 H 661.372 0.714282 -1.41717 0
M  V30 6739 H 661.393 3.42465 -1.65826 0
M  V30 6740 H 660.905 2.32039 -3.11094 0
M  V30 6741 H 659.006 3.59008 -0.99721 0
M  V30 6742 H 659.119 3.84016 -2.86477 0
M  V30 6743 H 657.483 2.0979 -1.44431 0
M  V30 6744 H 658.266 1.59702 -3.03891 0
M  V30 6745 N 660.711 1.11618 1.11262 0
M  V30 6746 C 661.936 0.889013 1.8738 0
M  V30 6747 C 662.361 -0.555884 1.79698 0
M  V30 6748 O 661.719 -1.39272 1.16073 0
M  V30 6749 C 661.767 1.35759 3.34069 0
M  V30 6750 O 660.871 0.530499 4.08974 0
M  V30 6751 H 660.212 0.320082 0.581759 0
M  V30 6752 H 662.742 1.48611 1.40627 0
M  V30 6753 H 662.752 1.35291 3.84916 0
M  V30 6754 H 661.427 2.40973 3.38976 0
M  V30 6755 H 660.004 0.601439 3.68018 0
M  V30 6756 N 662.189 -1.289 0.906776 0
M  V30 6757 C 663.119 -2.29932 0.406659 0
M  V30 6758 C 664.1 -1.6189 -0.522061 0
M  V30 6759 O 665.285 -1.8935 -0.431283 0
M  V30 6760 C 662.415 -3.45425 -0.360366 0
M  V30 6761 C 661.369 -4.25316 0.478574 0
M  V30 6762 C 660.695 -5.33076 -0.416373 0
M  V30 6763 C 661.995 -4.92739 1.7322 0
M  V30 6764 H 663.689 -2.72013 1.25097 0
M  V30 6765 H 661.235 -1.30768 0.602977 0
M  V30 6766 H 663.188 -4.15186 -0.721029 0
M  V30 6767 H 661.912 -3.02206 -1.23852 0
M  V30 6768 H 660.571 -3.57273 0.821662 0
M  V30 6769 H 660.219 -4.86101 -1.29287 0
M  V30 6770 H 659.919 -5.8743 0.141309 0
M  V30 6771 H 661.443 -6.05686 -0.773072 0
M  V30 6772 H 662.857 -5.54898 1.44086 0
M  V30 6773 H 661.254 -5.57057 2.23175 0
M  V30 6774 H 662.324 -4.17625 2.46408 0
M  V30 6775 N 663.667 -0.670007 -1.42649 0
M  V30 6776 C 664.915 -0.18991 -2.01206 0
M  V30 6777 C 665.236 1.20617 -1.53221 0
M  V30 6778 O 664.506 1.80898 -0.751856 0
M  V30 6779 H 663.086 -0.0672189 -0.743969 0
M  V30 6780 H 665.748 -0.865442 -1.74631 0
M  V30 6781 H 664.844 -0.187481 -3.11536 0
M  V30 6782 N 665.145 1.52092 -0.413018 0
M  V30 6783 C 666.556 1.86617 0.0556967 0
M  V30 6784 C 666.907 1.33156 1.44097 0
M  V30 6785 O 666.032 0.672417 2.05688 0
M  V30 6786 C 666.627 3.38628 0.107844 0
M  V30 6787 C 665.186 3.72778 0.520904 0
M  V30 6788 C 664.333 2.75649 -0.302109 0
M  V30 6789 H 667.284 1.45663 -0.629919 0
M  V30 6790 H 667.305 3.69152 0.922324 0
M  V30 6791 H 666.817 3.77508 -0.900506 0
M  V30 6792 H 664.918 3.39478 1.53575 0
M  V30 6793 H 665.031 4.7838 0.262591 0
M  V30 6794 H 663.395 2.53603 0.236115 0
M  V30 6795 H 664.178 3.17369 -1.30888 0
M  V30 6796 N 666.623 0.143563 1.56945 0
M  V30 6797 C 667.871 -0.507402 1.95627 0
M  V30 6798 C 668.192 -1.65626 1.02922 0
M  V30 6799 O 667.462 -1.95693 0.0901136 0
M  V30 6800 H 666.042 -0.190436 0.722318 0
M  V30 6801 H 668.704 0.218257 1.93674 0
M  V30 6802 H 667.8 -0.885816 2.99265 0
M  V30 6803 N 668.101 -1.57061 -0.130224 0
M  V30 6804 C 669.326 -1.88802 -0.858409 0
M  V30 6805 C 669.751 -0.734353 -1.73173 0
M  V30 6806 O 669.109 0.315529 -1.78533 0
M  V30 6807 C 669.157 -3.19228 -1.67708 0
M  V30 6808 O 668.261 -3.04343 -2.78297 0
M  V30 6809 H 667.602 -0.619849 -0.238083 0
M  V30 6810 H 670.132 -2.04271 -0.115995 0
M  V30 6811 H 670.142 -3.51669 -2.06864 0
M  V30 6812 H 668.817 -4.02793 -1.0359 0
M  V30 6813 H 667.394 -2.83346 -2.42425 0
M  V30 6814 N 669.579 0.400081 -1.52437 0
M  V30 6815 C 670.511 1.50729 -1.72666 0
M  V30 6816 C 671.524 1.51058 -0.607075 0
M  V30 6817 O 672.713 1.5516 -0.88248 0
M  V30 6818 C 669.813 2.89604 -1.76019 0
M  V30 6819 C 668.986 3.13365 -3.05157 0
M  V30 6820 C 668.045 4.32163 -3.00203 0
M  V30 6821 O 667.071 4.29004 -3.74092 0
M  V30 6822 N 668.273 5.3776 -2.18619 0
M  V30 6823 H 671.038 1.33767 -2.68191 0
M  V30 6824 H 668.599 0.58948 -1.50787 0
M  V30 6825 H 670.591 3.67159 -1.70225 0
M  V30 6826 H 669.161 2.99979 -0.879284 0
M  V30 6827 H 668.381 2.23774 -3.24529 0
M  V30 6828 H 669.669 3.26089 -3.90568 0
M  V30 6829 H 669.067 5.43177 -1.58035 0
M  V30 6830 H 667.624 6.14023 -2.18674 0
M  V30 6831 N 671.057 1.43213 0.657864 0
M  V30 6832 C 671.989 1.43974 1.78337 0
M  V30 6833 C 673.002 0.336482 1.59285 0
M  V30 6834 O 674.191 0.600631 1.68091 0
M  V30 6835 C 671.291 1.23242 3.15697 0
M  V30 6836 C 670.464 2.46319 3.61449 0
M  V30 6837 C 669.523 2.2088 4.77597 0
M  V30 6838 O 668.549 2.942 4.87273 0
M  V30 6839 N 669.751 1.22251 5.67481 0
M  V30 6840 H 672.516 2.40993 1.78164 0
M  V30 6841 H 670.077 1.3831 0.841549 0
M  V30 6842 H 672.069 1.04113 3.91079 0
M  V30 6843 H 670.639 0.346849 3.1067 0
M  V30 6844 H 669.859 2.80904 2.76563 0
M  V30 6845 H 671.147 3.28239 3.88763 0
M  V30 6846 H 670.545 0.616433 5.62331 0
M  V30 6847 H 669.102 1.09107 6.42603 0
M  V30 6848 N 672.536 -0.895792 1.29666 0
M  V30 6849 C 673.499 -1.98189 1.15124 0
M  V30 6850 C 674.499 -1.60572 0.0855717 0
M  V30 6851 O 675.689 -1.70991 0.332826 0
M  V30 6852 C 672.821 -3.32289 0.761372 0
M  V30 6853 H 674.014 -2.12518 2.11603 0
M  V30 6854 H 671.567 -1.0808 1.12908 0
M  V30 6855 H 672.302 -3.23662 -0.203393 0
M  V30 6856 H 672.087 -3.60958 1.53139 0
M  V30 6857 H 673.577 -4.1198 0.682792 0
M  V30 6858 N 674.014 -1.12206 -1.10668 0
M  V30 6859 C 674.977 -0.790867 -2.15123 0
M  V30 6860 C 675.977 0.193618 -1.5963 0
M  V30 6861 O 677.167 -0.0318728 -1.74171 0
M  V30 6862 C 674.299 -0.174797 -3.40452 0
M  V30 6863 H 675.492 -1.7163 -2.45933 0
M  V30 6864 H 673.045 -0.924993 -1.2599 0
M  V30 6865 H 673.78 0.760478 -3.15257 0
M  V30 6866 H 673.565 -0.88358 -3.82015 0
M  V30 6867 H 675.055 0.0405162 -4.1758 0
M  V30 6868 N 675.492 1.28418 -0.913599 0
M  V30 6869 C 676.739 1.94981 -0.546674 0
M  V30 6870 C 677.067 1.7192 0.909606 0
M  V30 6871 O 676.322 1.03314 1.66207 0
M  V30 6872 C 676.621 3.48283 -0.802099 0
M  V30 6873 C 676.287 3.91444 -2.2379 0
M  V30 6874 C 674.949 4.02939 -2.63046 0
M  V30 6875 C 677.301 4.13542 -3.17227 0
M  V30 6876 C 674.629 4.3391 -3.94891 0
M  V30 6877 C 676.981 4.45992 -4.48636 0
M  V30 6878 C 675.645 4.55698 -4.87746 0
M  V30 6879 H 674.915 0.713487 -0.200042 0
M  V30 6880 H 677.562 1.52756 -1.15489 0
M  V30 6881 H 675.867 3.91643 -0.111076 0
M  V30 6882 H 677.564 3.97903 -0.497375 0
M  V30 6883 H 674.154 3.83024 -1.9233 0
M  V30 6884 H 678.338 4.04114 -2.88107 0
M  V30 6885 H 673.594 4.39631 -4.24894 0
M  V30 6886 H 677.768 4.62038 -5.21051 0
M  V30 6887 H 675.395 4.79451 -5.89942 0
M  V30 6888 N 676.97 0.677563 1.42291 0
M  V30 6889 C 678.218 0.200578 2.01102 0
M  V30 6890 C 678.539 -1.19803 1.53858 0
M  V30 6891 O 677.809 -1.80496 0.761439 0
M  V30 6892 H 676.389 0.0711634 0.743603 0
M  V30 6893 H 679.051 0.874691 1.7417 0
M  V30 6894 H 678.147 0.204 3.11433 0
M  V30 6895 N 678.448 -1.51871 0.421078 0
M  V30 6896 C 679.396 -2.28903 -0.413066 0
M  V30 6897 C 680.39 -1.3408 -1.03532 0
M  V30 6898 O 681.596 -1.5149 -0.972146 0
M  V30 6899 H 677.971 -0.736478 -0.152003 0
M  V30 6900 H 679.942 -2.97285 0.257695 0
M  V30 6901 C 678.691 -3.13156 -1.51091 0
M  V30 6902 H 678.014 -3.85997 -1.04145 0
M  V30 6903 H 679.454 -3.7014 -2.06814 0
M  V30 6904 C 677.913 -2.27482 -2.48503 0
M  V30 6905 O 678.443 -1.92325 -3.52667 0
M  V30 6906 N 676.649 -1.91019 -2.18998 0
M  V30 6907 H 676.196 -2.19808 -1.34322 0
M  V30 6908 H 676.154 -1.3399 -2.84419 0
M  V30 6909 N 679.926 -0.151884 -1.56866 0
M  V30 6910 C 681.337 0.368128 -1.83035 0
M  V30 6911 C 681.688 1.64402 -1.07082 0
M  V30 6912 O 680.813 2.14056 -0.317647 0
M  V30 6913 C 681.408 0.674676 -3.32014 0
M  V30 6914 C 679.967 1.13919 -3.58747 0
M  V30 6915 C 679.114 0.164833 -2.7681 0
M  V30 6916 H 682.065 -0.376499 -1.54169 0
M  V30 6917 H 682.086 1.52883 -3.48435 0
M  V30 6918 H 681.598 -0.254113 -3.87267 0
M  V30 6919 H 679.699 2.08375 -3.08886 0
M  V30 6920 H 679.812 1.06179 -4.67186 0
M  V30 6921 H 678.176 0.658419 -2.46043 0
M  V30 6922 H 678.959 -0.757633 -3.34836 0
M  V30 6923 N 681.404 1.57128 0.121893 0
M  V30 6924 C 682.815 1.73902 0.679348 0
M  V30 6925 C 683.166 0.770135 1.80453 0
M  V30 6926 O 682.291 -0.0576083 2.16323 0
M  V30 6927 C 682.886 3.15328 1.2391 0
M  V30 6928 C 681.445 3.33618 1.74288 0
M  V30 6929 C 680.592 2.6978 0.641414 0
M  V30 6930 H 683.543 1.58359 -0.104 0
M  V30 6931 H 683.564 3.16718 2.10879 0
M  V30 6932 H 683.076 3.85821 0.419957 0
M  V30 6933 H 681.177 2.68162 2.58689 0
M  V30 6934 H 681.29 4.4176 1.85432 0
M  V30 6935 H 679.654 2.30935 1.0743 0
M  V30 6936 H 680.437 3.42895 -0.166707 0
M  V30 6937 N 682.882 -0.391992 1.52647 0
M  V30 6938 C 683.845 -1.46135 1.7657 0
M  V30 6939 C 684.845 -1.47701 0.635698 0
M  V30 6940 O 686.035 -1.48924 0.903728 0
M  V30 6941 C 683.167 -2.85443 1.86374 0
M  V30 6942 H 684.36 -1.26208 2.72051 0
M  V30 6943 H 681.913 -0.623549 1.43323 0
M  V30 6944 H 682.648 -3.10718 0.928685 0
M  V30 6945 H 682.433 -2.85708 2.68539 0
M  V30 6946 H 683.923 -3.62933 2.06566 0
M  V30 6947 N 684.36 -1.4356 -0.65026 0
M  V30 6948 C 685.29 -1.51758 -1.77459 0
M  V30 6949 C 686.271 -0.372019 -1.65982 0
M  V30 6950 O 687.456 -0.589627 -1.85033 0
M  V30 6951 C 684.586 -1.44302 -3.15902 0
M  V30 6952 C 683.54 -2.57138 -3.42146 0
M  V30 6953 C 682.866 -2.34735 -4.8042 0
M  V30 6954 C 684.166 -3.99373 -3.36598 0
M  V30 6955 H 685.86 -2.45863 -1.70855 0
M  V30 6956 H 683.406 -1.18333 -0.820566 0
M  V30 6957 H 685.359 -1.48641 -3.94314 0
M  V30 6958 H 684.083 -0.467026 -3.23244 0
M  V30 6959 H 682.742 -2.52157 -2.66106 0
M  V30 6960 H 682.39 -1.35372 -4.84441 0
M  V30 6961 H 682.09 -3.10375 -4.9894 0
M  V30 6962 H 683.614 -2.40862 -5.61086 0
M  V30 6963 H 685.028 -4.05826 -4.04942 0
M  V30 6964 H 683.425 -4.75063 -3.66654 0
M  V30 6965 H 684.495 -4.243 -2.34729 0
M  V30 6966 N 685.838 0.888903 -1.30139 0
M  V30 6967 C 686.768 2.01046 -1.18755 0
M  V30 6968 C 687.749 1.69916 -0.0791438 0
M  V30 6969 O 688.934 1.92445 -0.260498 0
M  V30 6970 C 686.064 3.36109 -0.874518 0
M  V30 6971 C 685.018 3.81486 -1.94043 0
M  V30 6972 C 684.344 5.13796 -1.48047 0
M  V30 6973 C 685.644 4.00637 -3.35093 0
M  V30 6974 H 687.338 2.10828 -2.12584 0
M  V30 6975 H 684.884 1.01298 -1.02346 0
M  V30 6976 H 686.837 4.14089 -0.781548 0
M  V30 6977 H 685.561 3.26449 0.0994519 0
M  V30 6978 H 684.22 3.05731 -2.02297 0
M  V30 6979 H 683.868 5.0056 -0.494878 0
M  V30 6980 H 683.568 5.45127 -2.19341 0
M  V30 6981 H 685.092 5.94305 -1.40121 0
M  V30 6982 H 686.506 4.69067 -3.2962 0
M  V30 6983 H 684.903 4.43339 -4.04438 0
M  V30 6984 H 685.973 3.0462 -3.77273 0
M  V30 6985 N 687.317 1.12792 1.10072 0
M  V30 6986 C 688.249 0.757003 2.16338 0
M  V30 6987 C 689.262 -0.218144 1.61332 0
M  V30 6988 O 690.451 0.0010727 1.785 0
M  V30 6989 C 687.551 0.100303 3.38752 0
M  V30 6990 C 686.724 1.10586 4.2319 0
M  V30 6991 C 685.783 0.47609 5.24042 0
M  V30 6992 O 684.809 1.13418 5.57786 0
M  V30 6993 N 686.011 -0.754823 5.75572 0
M  V30 6994 H 688.776 1.6714 2.48766 0
M  V30 6995 H 686.337 1.02003 1.25726 0
M  V30 6996 H 688.329 -0.333092 4.03327 0
M  V30 6997 H 686.899 -0.716915 3.04268 0
M  V30 6998 H 686.119 1.71677 3.54853 0
M  V30 6999 H 687.407 1.78571 4.76435 0
M  V30 7000 H 686.805 -1.30838 5.50362 0
M  V30 7001 H 685.362 -1.13098 6.41913 0
M  V30 7002 N 688.795 -1.27931 0.920396 0
M  V30 7003 C 690.206 -1.76707 0.602616 0
M  V30 7004 C 690.557 -1.75249 -0.882159 0
M  V30 7005 O 689.682 -1.35135 -1.69019 0
M  V30 7006 C 690.277 -3.20884 1.08714 0
M  V30 7007 C 688.836 -3.67356 0.820157 0
M  V30 7008 C 687.983 -2.47525 1.25006 0
M  V30 7009 H 690.934 -1.14301 1.10095 0
M  V30 7010 H 690.955 -3.78045 0.431535 0
M  V30 7011 H 690.467 -3.21913 2.1678 0
M  V30 7012 H 688.568 -3.7178 -0.247012 0
M  V30 7013 H 688.681 -4.57181 1.43257 0
M  V30 7014 H 687.045 -2.45765 0.668698 0
M  V30 7015 H 687.828 -2.51269 2.3392 0
M  V30 7016 N 690.273 -0.685099 -1.4193 0
M  V30 7017 C 691.684 -0.287699 -1.8447 0
M  V30 7018 C 692.035 1.17215 -1.57338 0
M  V30 7019 O 691.16 1.89856 -1.03845 0
M  V30 7020 C 691.755 -0.515385 -3.34857 0
M  V30 7021 C 690.314 -0.172006 -3.76007 0
M  V30 7022 C 689.461 -0.802808 -2.65425 0
M  V30 7023 H 692.412 -0.88652 -1.3163 0
M  V30 7024 H 692.433 0.229251 -3.79809 0
M  V30 7025 H 691.945 -1.57796 -3.54573 0
M  V30 7026 H 690.046 0.886716 -3.61895 0
M  V30 7027 H 690.159 -0.619717 -4.75075 0
M  V30 7028 H 688.523 -0.233267 -2.5363 0
M  V30 7029 H 689.306 -1.86904 -2.87961 0
M  V30 7030 N 691.751 1.51645 -0.429126 0
M  V30 7031 C 692.661 2.31288 0.392809 0
M  V30 7032 C 693.677 1.39852 1.03525 0
M  V30 7033 O 694.853 1.72926 1.03241 0
M  V30 7034 C 691.918 3.13347 1.48372 0
M  V30 7035 C 690.979 4.20551 0.862268 0
M  V30 7036 C 690.212 4.98688 1.9012 0
M  V30 7037 O 690.435 4.77359 3.12225 0
M  V30 7038 O 689.369 5.83005 1.4963 0
M  V30 7039 H 693.195 3.02609 -0.257138 0
M  V30 7040 H 690.78 1.48163 -0.191851 0
M  V30 7041 H 692.662 3.64387 2.1166 0
M  V30 7042 H 691.337 2.44799 2.1179 0
M  V30 7043 H 690.244 3.73609 0.191568 0
M  V30 7044 H 691.577 4.91449 0.271704 0
M  V30 7045 N 693.229 0.160201 1.56784 0
M  V30 7046 C 694.475 -0.48831 1.96833 0
M  V30 7047 C 694.808 -1.63641 1.04571 0
M  V30 7048 O 694.083 -1.94289 0.0906481 0
M  V30 7049 C 694.366 -0.981908 3.46454 0
M  V30 7050 C 694.219 0.165607 4.49495 0
M  V30 7051 C 695.538 -1.85931 3.98896 0
M  V30 7052 H 692.657 -0.176027 0.71567 0
M  V30 7053 H 695.299 0.244093 1.88426 0
M  V30 7054 H 693.449 -1.60602 3.5375 0
M  V30 7055 H 695.121 0.802372 4.54268 0
M  V30 7056 H 693.364 0.822789 4.25926 0
M  V30 7057 H 694.035 -0.221699 5.51555 0
M  V30 7058 H 696.511 -1.33327 3.94161 0
M  V30 7059 H 695.387 -2.17373 5.04024 0
M  V30 7060 H 695.648 -2.80106 3.42042 0
M  V30 7061 N 694.707 -1.5719 -0.113559 0
M  V30 7062 C 696.118 -1.74259 -0.670116 0
M  V30 7063 C 696.469 -0.779694 -1.80042 0
M  V30 7064 O 695.594 0.0461353 -2.16351 0
M  V30 7065 C 696.189 -3.15981 -1.22236 0
M  V30 7066 C 694.748 -3.34537 -1.72516 0
M  V30 7067 C 693.895 -2.70116 -0.627098 0
M  V30 7068 H 696.846 -1.58301 0.112396 0
M  V30 7069 H 696.867 -3.17832 -2.09197 0
M  V30 7070 H 696.379 -3.86038 -0.39949 0
M  V30 7071 H 694.48 -2.6953 -2.57263 0
M  V30 7072 H 694.593 -4.42737 -1.83086 0
M  V30 7073 H 692.957 -2.31501 -1.06204 0
M  V30 7074 H 693.74 -3.42802 0.184889 0
M  V30 7075 N 696.185 0.383891 -1.52853 0
M  V30 7076 C 697.431 1.13009 -1.68395 0
M  V30 7077 C 697.764 1.89488 -0.425195 0
M  V30 7078 O 697.039 1.8574 0.577136 0
M  V30 7079 C 697.322 2.10419 -2.92226 0
M  V30 7080 C 697.175 1.3767 -4.28214 0
M  V30 7081 C 698.494 3.10781 -3.11614 0
M  V30 7082 H 695.613 0.409463 -0.612788 0
M  V30 7083 H 698.255 0.412895 -1.85459 0
M  V30 7084 H 696.405 2.71579 -2.77808 0
M  V30 7085 H 698.077 0.794352 -4.54409 0
M  V30 7086 H 696.32 0.678533 -4.2846 0
M  V30 7087 H 696.991 2.08874 -5.10956 0
M  V30 7088 H 699.467 2.59715 -3.25096 0
M  V30 7089 H 698.343 3.76179 -3.99725 0
M  V30 7090 H 698.604 3.79933 -2.2606 0
M  V30 7091 N 697.663 1.43903 0.642637 0
M  V30 7092 C 699.074 1.40975 1.22404 0
M  V30 7093 C 699.425 0.1192 1.95838 0
M  V30 7094 O 698.55 -0.780939 2.01818 0
M  V30 7095 C 699.145 2.5538 2.22636 0
M  V30 7096 C 697.704 2.55684 2.76229 0
M  V30 7097 C 696.851 2.32556 1.51039 0
M  V30 7098 H 699.802 1.5265 0.434006 0
M  V30 7099 H 699.823 2.27474 3.05017 0
M  V30 7100 H 699.335 3.49294 1.69161 0
M  V30 7101 H 697.436 1.65679 3.33738 0
M  V30 7102 H 697.549 3.53799 3.23053 0
M  V30 7103 H 695.913 1.81427 1.78764 0
M  V30 7104 H 696.696 3.28569 0.99484 0
M  V30 7105 N 699.141 -0.881989 1.30609 0
M  V30 7106 C 700.091 -1.97539 1.13852 0
M  V30 7107 C 701.075 -1.60813 0.0528428 0
M  V30 7108 O 702.267 -1.74827 0.276484 0
M  V30 7109 C 699.396 -3.32977 0.835519 0
M  V30 7110 C 698.482 -3.76008 1.96159 0
M  V30 7111 N 698.873 -3.91109 3.20729 0
M  V30 7112 C 697.171 -4.05427 1.85863 0
M  V30 7113 C 697.872 -4.27661 3.94311 0
M  V30 7114 N 696.848 -4.37686 3.22385 0
M  V30 7115 H 700.65 -2.07309 2.08327 0
M  V30 7116 H 698.164 -1.072 1.21992 0
M  V30 7117 H 700.161 -4.11041 0.696477 0
M  V30 7118 H 698.821 -3.24542 -0.101135 0
M  V30 7119 H 699.832 -3.7616 3.55984 0
M  V30 7120 H 696.509 -4.05449 0.995847 0
M  V30 7121 H 697.899 -4.47042 5.01601 0
M  V30 7122 N 700.619 -1.13374 -1.09472 0
M  V30 7123 C 701.844 -0.918711 -1.85942 0
M  V30 7124 C 702.269 0.527225 -1.8056 0
M  V30 7125 O 701.627 1.37408 -1.18274 0
M  V30 7126 C 701.675 -1.41056 -3.31867 0
M  V30 7127 O 700.779 -0.595496 -4.08078 0
M  V30 7128 H 700.12 -0.329297 -0.576593 0
M  V30 7129 H 702.65 -1.50829 -1.38245 0
M  V30 7130 H 702.66 -1.41398 -3.82715 0
M  V30 7131 H 701.335 -2.46335 -3.35099 0
M  V30 7132 H 699.912 -0.659911 -3.67014 0
M  V30 7133 N 702.098 1.27442 -0.927168 0
M  V30 7134 C 703.326 1.98498 -0.583622 0
M  V30 7135 C 703.741 1.69171 0.838241 0
M  V30 7136 O 703.098 0.951969 1.55704 0
M  V30 7137 C 703.149 3.52552 -0.799341 0
M  V30 7138 O 702.87 3.80851 -2.16527 0
M  V30 7139 C 704.371 4.4086 -0.464436 0
M  V30 7140 H 701.591 0.633487 -0.221213 0
M  V30 7141 H 704.135 1.62308 -1.24404 0
M  V30 7142 H 702.29 3.86955 -0.185728 0
M  V30 7143 H 702.704 4.75441 -2.21487 0
M  V30 7144 H 704.178 5.47967 -0.666075 0
M  V30 7145 H 704.655 4.35082 0.599995 0
M  V30 7146 H 705.261 4.11977 -1.05617 0
M  V30 7147 N 703.576 0.692616 1.41565 0
M  V30 7148 C 704.508 -0.0137132 2.29196 0
M  V30 7149 C 705.521 -0.747417 1.44629 0
M  V30 7150 O 706.71 -0.598611 1.68163 0
M  V30 7151 C 703.81 -1.04347 3.22436 0
M  V30 7152 C 702.983 -0.379985 4.35746 0
M  V30 7153 C 702.042 -1.31195 5.09583 0
M  V30 7154 O 701.068 -0.805455 5.63472 0
M  V30 7155 N 702.27 -2.64443 5.16769 0
M  V30 7156 H 705.035 0.738614 2.90456 0
M  V30 7157 H 702.596 0.538415 1.52685 0
M  V30 7158 H 704.588 -1.6686 3.687 0
M  V30 7159 H 703.158 -1.69736 2.62504 0
M  V30 7160 H 702.378 0.424975 3.91903 0
M  V30 7161 H 703.666 0.0814904 5.08735 0
M  V30 7162 H 703.064 -3.08114 4.74428 0
M  V30 7163 H 701.621 -3.22159 5.66619 0
M  V30 7164 N 705.054 -1.51416 0.437162 0
M  V30 7165 C 706.301 -2.02086 -0.129364 0
M  V30 7166 C 706.629 -1.32133 -1.42728 0
M  V30 7167 O 705.884 -0.424916 -1.91031 0
M  V30 7168 C 706.183 -3.55203 -0.39564 0
M  V30 7169 C 705.849 -4.43447 0.81644 0
M  V30 7170 C 704.511 -4.67285 1.14884 0
M  V30 7171 C 706.863 -4.95219 1.62503 0
M  V30 7172 C 704.191 -5.40141 2.29052 0
M  V30 7173 C 706.543 -5.69327 2.7577 0
M  V30 7174 C 705.207 -5.91429 3.09464 0
M  V30 7175 H 704.477 -0.739486 -0.0473375 0
M  V30 7176 H 707.124 -1.82368 0.584321 0
M  V30 7177 H 705.429 -3.73252 -1.19121 0
M  V30 7178 H 707.126 -3.91944 -0.847399 0
M  V30 7179 H 703.716 -4.2509 0.547422 0
M  V30 7180 H 707.9 -4.76686 1.38144 0
M  V30 7181 H 703.156 -5.55468 2.55471 0
M  V30 7182 H 707.33 -6.08433 3.38795 0
M  V30 7183 H 704.957 -6.47662 3.98042 0
M  V30 7184 N 706.532 -0.168513 -1.56696 0
M  V30 7185 C 707.495 0.748928 -2.16619 0
M  V30 7186 C 708.495 1.16007 -1.11351 0
M  V30 7187 O 709.685 1.07748 -1.3688 0
M  V30 7188 C 706.817 2.01904 -2.74677 0
M  V30 7189 H 708.01 0.227317 -2.99037 0
M  V30 7190 H 705.563 0.0810372 -1.5609 0
M  V30 7191 H 706.298 2.58381 -1.95985 0
M  V30 7192 H 706.083 1.73323 -3.51712 0
M  V30 7193 H 707.573 2.67383 -3.20774 0
M  V30 7194 N 708.01 1.57248 0.105221 0
M  V30 7195 C 708.973 2.00388 1.11252 0
M  V30 7196 C 709.973 0.89594 1.33527 0
M  V30 7197 O 711.163 1.16166 1.29811 0
M  V30 7198 C 708.295 2.35589 2.46395 0
M  V30 7199 H 709.488 2.90591 0.741424 0
M  V30 7200 H 707.041 1.52332 0.349956 0
M  V30 7201 H 707.776 1.4831 2.884 0
M  V30 7202 H 707.561 3.16408 2.31578 0
M  V30 7203 H 709.051 2.69658 3.18864 0
M  V30 7204 N 709.488 -0.375779 1.53054 0
M  V30 7205 C 710.436 -1.48015 1.79428 0
M  V30 7206 C 711.43 -1.55893 0.662854 0
M  V30 7207 O 712.636 -1.58901 0.845599 0
M  V30 7208 H 709.011 -0.492887 0.56795 0
M  V30 7209 H 710.982 -1.22971 2.71884 0
M  V30 7210 C 709.731 -2.84984 1.99197 0
M  V30 7211 H 709.054 -2.79677 2.85693 0
M  V30 7212 H 710.494 -3.61462 2.21633 0
M  V30 7213 C 708.953 -3.28025 0.768183 0
M  V30 7214 O 709.483 -4.01671 -0.0480482 0
M  V30 7215 N 707.689 -2.84454 0.594521 0
M  V30 7216 H 707.236 -2.24688 1.25988 0
M  V30 7217 H 707.194 -3.13609 -0.222916 0
M  V30 7218 N 710.966 -1.44241 -0.634997 0
M  V30 7219 C 711.916 -1.47247 -1.74076 0
M  V30 7220 C 712.9 -0.338708 -1.57295 0
M  V30 7221 O 714.092 -0.583751 -1.67097 0
M  V30 7222 C 711.221 -1.41579 -3.12746 0
M  V30 7223 C 710.307 -2.60055 -3.35011 0
M  V30 7224 N 710.698 -3.85321 -3.27661 0
M  V30 7225 C 708.996 -2.55168 -3.65794 0
M  V30 7226 C 709.697 -4.64241 -3.50508 0
M  V30 7227 N 708.673 -3.95254 -3.73196 0
M  V30 7228 H 712.475 -2.4195 -1.66845 0
M  V30 7229 H 709.989 -1.3915 -0.837326 0
M  V30 7230 H 711.986 -1.41816 -3.92038 0
M  V30 7231 H 710.646 -0.479108 -3.21146 0
M  V30 7232 H 711.657 -4.17345 -3.06665 0
M  V30 7233 H 708.334 -1.70276 -3.81198 0
M  V30 7234 H 709.724 -5.73267 -3.50449 0
M  V30 7235 N 712.444 0.87505 -1.31075 0
M  V30 7236 C 713.376 1.98773 -1.14114 0
M  V30 7237 C 714.389 1.62595 -0.0816119 0
M  V30 7238 O 715.578 1.75449 -0.32861 0
M  V30 7239 C 712.678 3.31159 -0.720224 0
M  V30 7240 C 711.851 3.9571 -1.86366 0
M  V30 7241 C 710.91 5.06407 -1.42965 0
M  V30 7242 O 709.936 5.27501 -2.13848 0
M  V30 7243 N 711.138 5.79649 -0.314194 0
M  V30 7244 H 713.903 2.1387 -2.09951 0
M  V30 7245 H 711.464 1.04873 -1.23342 0
M  V30 7246 H 713.456 4.0259 -0.412687 0
M  V30 7247 H 712.026 3.12257 0.146396 0
M  V30 7248 H 711.246 3.17324 -2.33879 0
M  V30 7249 H 712.534 4.35576 -2.62966 0
M  V30 7250 H 711.932 5.65025 0.276228 0
M  V30 7251 H 710.489 6.51766 -0.0661641 0
M  V30 7252 N 713.922 1.13953 1.08869 0
M  V30 7253 C 714.832 0.835666 2.19212 0
M  V30 7254 C 715.848 -0.182005 1.73045 0
M  V30 7255 O 717.024 -0.0116661 2.01397 0
M  V30 7256 C 714.089 0.312325 3.4529 0
M  V30 7257 C 713.15 1.39196 4.06107 0
M  V30 7258 C 712.383 0.893496 5.26168 0
M  V30 7259 O 712.606 -0.266807 5.69776 0
M  V30 7260 O 711.54 1.67037 5.78258 0
M  V30 7261 H 715.366 1.75769 2.47667 0
M  V30 7262 H 712.951 0.917421 1.17914 0
M  V30 7263 H 714.833 0.0261582 4.21392 0
M  V30 7264 H 713.508 -0.582042 3.18424 0
M  V30 7265 H 712.415 1.73152 3.31616 0
M  V30 7266 H 713.748 2.26068 4.37212 0
M  V30 7267 N 715.4 -1.26948 0.933913 0
M  V30 7268 C 716.647 -1.94087 0.577625 0
M  V30 7269 C 716.975 -1.73345 -0.88214 0
M  V30 7270 O 716.23 -1.05945 -1.64542 0
M  V30 7271 C 716.529 -3.46963 0.857406 0
M  V30 7272 C 716.195 -3.87834 2.2999 0
M  V30 7273 C 714.857 -3.98704 2.69423 0
M  V30 7274 C 717.209 -4.08442 3.23766 0
M  V30 7275 C 714.537 -4.27573 4.01744 0
M  V30 7276 C 716.889 -4.38798 4.55675 0
M  V30 7277 C 715.553 -4.47881 4.94934 0
M  V30 7278 H 714.823 -0.710215 0.211368 0
M  V30 7279 H 717.47 -1.50899 1.17905 0
M  V30 7280 H 715.775 -3.91416 0.173369 0
M  V30 7281 H 717.472 -3.97062 0.560615 0
M  V30 7282 H 714.062 -3.79916 1.98399 0
M  V30 7283 H 718.246 -3.99479 2.94499 0
M  V30 7284 H 713.502 -4.32815 4.31834 0
M  V30 7285 H 717.676 -4.5369 5.28335 0
M  V30 7286 H 715.303 -4.70005 5.97495 0
M  V30 7287 N 716.879 -0.700114 -1.41195 0
M  V30 7288 C 717.809 -0.0521132 -2.33442 0
M  V30 7289 C 718.79 0.76228 -1.52063 0
M  V30 7290 O 719.975 0.714336 -1.80585 0
M  V30 7291 C 717.105 0.881693 -3.35922 0
M  V30 7292 C 716.059 0.174062 -4.27646 0
M  V30 7293 C 715.385 1.22254 -5.20536 0
M  V30 7294 C 716.685 -0.962396 -5.13357 0
M  V30 7295 H 718.379 -0.822574 -2.87879 0
M  V30 7296 H 715.925 -0.397011 -1.38419 0
M  V30 7297 H 717.878 1.34429 -3.99383 0
M  V30 7298 H 716.602 1.68387 -2.79845 0
M  V30 7299 H 715.261 -0.268551 -3.65615 0
M  V30 7300 H 714.909 2.01736 -4.60773 0
M  V30 7301 H 714.609 0.754038 -5.82742 0
M  V30 7302 H 716.133 1.68555 -5.86874 0
M  V30 7303 H 717.547 -0.579875 -5.7036 0
M  V30 7304 H 715.944 -1.35828 -5.84526 0
M  V30 7305 H 717.014 -1.80003 -4.50252 0
M  V30 7306 N 718.357 1.51182 -0.445186 0
M  V30 7307 C 719.768 1.86693 0.0160999 0
M  V30 7308 C 720.119 1.36183 1.4124 0
M  V30 7309 O 719.244 0.715895 2.04215 0
M  V30 7310 C 719.839 3.38781 0.0359918 0
M  V30 7311 C 718.398 3.73799 0.441715 0
M  V30 7312 C 717.545 2.74947 -0.360511 0
M  V30 7313 H 720.496 1.44294 -0.660674 0
M  V30 7314 H 720.517 3.71026 0.843813 0
M  V30 7315 H 720.029 3.75513 -0.980378 0
M  V30 7316 H 718.13 3.42659 1.4634 0
M  V30 7317 H 718.243 4.78829 0.16106 0
M  V30 7318 H 716.607 2.54047 0.182269 0
M  V30 7319 H 717.39 3.14521 -1.3759 0
M  V30 7320 N 719.835 0.176821 1.56605 0
M  V30 7321 C 720.785 -0.763718 2.14829 0
M  V30 7322 C 721.769 -1.18903 1.08401 0
M  V30 7323 O 722.961 -1.15048 1.3451 0
M  V30 7324 C 720.09 -1.99069 2.7969 0
M  V30 7325 C 719.176 -1.58711 3.93283 0
M  V30 7326 N 719.567 -0.893423 4.97847 0
M  V30 7327 C 717.865 -1.87774 4.04545 0
M  V30 7328 C 718.566 -0.693866 5.77547 0
M  V30 7329 N 717.542 -1.23699 5.29339 0
M  V30 7330 H 721.344 -0.224811 2.93039 0
M  V30 7331 H 718.858 -0.0236563 1.62383 0
M  V30 7332 H 720.855 -2.67478 3.19783 0
M  V30 7333 H 719.515 -2.53449 2.02962 0
M  V30 7334 H 720.526 -0.550868 5.14962 0
M  V30 7335 H 717.203 -2.43793 3.38927 0
M  V30 7336 H 718.593 -0.144899 6.71744 0
M  V30 7337 N 721.313 -1.57302 -0.09688 0
M  V30 7338 C 722.724 -1.7496 -0.651595 0
M  V30 7339 C 723.075 -0.798746 -1.79205 0
M  V30 7340 O 722.2 0.0231858 -2.16388 0
M  V30 7341 C 722.795 -3.17259 -1.18878 0
M  V30 7342 C 721.354 -3.36348 -1.68958 0
M  V30 7343 C 720.501 -2.70766 -0.598413 0
M  V30 7344 H 723.452 -1.58173 0.12918 0
M  V30 7345 H 723.473 -3.20033 -2.05814 0
M  V30 7346 H 722.985 -3.8644 -0.358523 0
M  V30 7347 H 721.086 -2.72243 -2.5439 0
M  V30 7348 H 721.199 -4.44654 -1.7838 0
M  V30 7349 H 719.563 -2.32615 -1.03743 0
M  V30 7350 H 720.346 -3.42586 0.221238 0
M  V30 7351 N 722.791 0.367657 -1.53252 0
M  V30 7352 C 723.723 1.47032 -1.75824 0
M  V30 7353 C 724.736 1.49736 -0.63898 0
M  V30 7354 O 725.925 1.53253 -0.915193 0
M  V30 7355 C 723.025 2.85805 -1.82122 0
M  V30 7356 C 722.198 3.06822 -3.11736 0
M  V30 7357 C 721.257 4.25698 -3.09302 0
M  V30 7358 O 720.283 4.20972 -3.83107 0
M  V30 7359 N 721.485 5.33002 -2.29977 0
M  V30 7360 H 724.25 1.28048 -2.70968 0
M  V30 7361 H 721.811 0.557363 -1.52004 0
M  V30 7362 H 723.803 3.63465 -1.77975 0
M  V30 7363 H 722.373 2.98046 -0.942716 0
M  V30 7364 H 721.593 2.1684 -3.29202 0
M  V30 7365 H 722.881 3.17731 -3.97397 0
M  V30 7366 H 722.279 5.39703 -1.69521 0
M  V30 7367 H 720.836 6.09247 -2.3165 0
M  V30 7368 N 724.269 1.44576 0.627338 0
M  V30 7369 C 725.232 1.51372 1.72102 0
M  V30 7370 C 726.232 0.395329 1.55865 0
M  V30 7371 O 727.422 0.658094 1.61291 0
M  V30 7372 C 724.554 1.39129 3.11217 0
M  V30 7373 H 725.747 2.48798 1.6745 0
M  V30 7374 H 723.3 1.31724 0.841336 0
M  V30 7375 H 724.035 0.428114 3.21462 0
M  V30 7376 H 723.82 2.20229 3.24409 0
M  V30 7377 H 725.31 1.46874 3.90919 0
M  V30 7378 N 725.747 -0.868086 1.31537 0
M  V30 7379 C 727.158 -1.437 1.19195 0
M  V30 7380 C 727.509 -1.95169 -0.200842 0
M  V30 7381 O 726.634 -1.86432 -1.09872 0
M  V30 7382 C 727.229 -2.612 2.15778 0
M  V30 7383 C 725.788 -3.1413 2.07363 0
M  V30 7384 C 724.935 -1.86845 2.049 0
M  V30 7385 H 727.886 -0.676457 1.43561 0
M  V30 7386 H 727.907 -3.37948 1.74847 0
M  V30 7387 H 727.419 -2.23709 3.17137 0
M  V30 7388 H 725.52 -3.56238 1.09204 0
M  V30 7389 H 725.633 -3.76285 2.96557 0
M  V30 7390 H 723.997 -2.05886 1.49943 0
M  V30 7391 H 724.78 -1.51589 3.08019 0
M  V30 7392 N 727.225 -1.14528 -1.08264 0
M  V30 7393 C 728.157 -0.791325 -2.15106 0
M  V30 7394 C 729.17 0.192449 -1.61659 0
M  V30 7395 O 730.359 -0.0294704 -1.78476 0
M  V30 7396 C 727.459 -0.154183 -3.38549 0
M  V30 7397 C 726.632 -1.17305 -4.21377 0
M  V30 7398 C 725.691 -0.559401 -5.23218 0
M  V30 7399 O 724.717 -1.22277 -5.55911 0
M  V30 7400 N 725.919 0.663159 -5.767 0
M  V30 7401 H 728.684 -1.71076 -2.46075 0
M  V30 7402 H 726.245 -1.0399 -1.24087 0
M  V30 7403 H 728.237 0.268884 -4.03806 0
M  V30 7404 H 726.807 0.668418 -3.0537 0
M  V30 7405 H 726.027 -1.773 -3.52077 0
M  V30 7406 H 727.315 -1.86128 -4.73533 0
M  V30 7407 H 726.713 1.22066 -5.52373 0
M  V30 7408 H 725.27 1.02871 -6.43631 0
M  V30 7409 N 728.703 1.26451 -0.940633 0
M  V30 7410 C 730.114 1.75726 -0.630653 0
M  V30 7411 C 730.465 1.76631 0.854167 0
M  V30 7412 O 729.59 1.37807 1.66848 0
M  V30 7413 C 730.185 3.19114 -1.13805 0
M  V30 7414 C 728.744 3.66005 -0.878497 0
M  V30 7415 C 727.891 2.45505 -1.28928 0
M  V30 7416 H 730.842 1.12535 -1.119 0
M  V30 7417 H 730.863 3.77311 -0.491625 0
M  V30 7418 H 730.375 3.18424 -2.21874 0
M  V30 7419 H 728.476 3.72126 0.187833 0
M  V30 7420 H 728.589 4.54844 -1.50512 0
M  V30 7421 H 726.953 2.4467 -0.707713 0
M  V30 7422 H 727.736 2.47516 -2.37888 0
M  V30 7423 N 730.181 0.707592 1.40822 0
M  V30 7424 C 731.43 0.240705 2.00259 0
M  V30 7425 C 731.743 -1.17027 1.56729 0
M  V30 7426 O 732.949 -1.73526 2.08809 0
M  V30 7427 C 731.405 0.379432 3.57894 0
M  V30 7428 C 731.013 1.79654 4.104 0
M  V30 7429 C 732.757 -0.0270684 4.24491 0
M  V30 7430 C 730.664 1.88628 5.60512 0
M  V30 7431 H 729.594 0.0862369 0.749052 0
M  V30 7432 H 732.245 0.877528 1.61157 0
M  V30 7433 H 730.627 -0.325842 3.94657 0
M  V30 7434 H 731.801 2.53155 3.85032 0
M  V30 7435 H 730.116 2.15379 3.56372 0
M  V30 7436 H 732.713 0.0193743 5.34696 0
M  V30 7437 H 733.056 -1.06772 4.02375 0
M  V30 7438 H 733.589 0.628361 3.92806 0
M  V30 7439 H 730.328 2.90787 5.87472 0
M  V30 7440 H 729.848 1.19528 5.8777 0
M  V30 7441 H 731.527 1.6547 6.25483 0
M  V30 7442 N 731.66 -1.50943 0.453197 0
M  V30 7443 C 732.906 -2.02512 -0.108082 0
M  V30 7444 C 733.239 -1.33574 -1.40967 0
M  V30 7445 O 732.514 -0.455671 -1.89087 0
M  V30 7446 C 732.797 -3.58759 -0.310453 0
M  V30 7447 C 732.65 -4.38293 1.0109 0
M  V30 7448 C 733.969 -4.26816 -1.07313 0
M  V30 7449 H 731.088 -0.73603 -0.0378064 0
M  V30 7450 H 733.73 -1.80433 0.595295 0
M  V30 7451 H 731.88 -3.77702 -0.909582 0
M  V30 7452 H 733.552 -4.30964 1.64523 0
M  V30 7453 H 731.795 -4.02745 1.61179 0
M  V30 7454 H 732.466 -5.45828 0.82315 0
M  V30 7455 H 734.942 -4.1224 -0.565473 0
M  V30 7456 H 733.818 -5.35989 -1.1835 0
M  V30 7457 H 734.079 -3.88757 -2.10525 0
M  V30 7458 N 733.138 -0.185124 -1.56509 0
M  V30 7459 C 734.549 0.329221 -1.83774 0
M  V30 7460 C 734.9 1.62093 -1.10545 0
M  V30 7461 O 734.025 2.13334 -0.36298 0
M  V30 7462 C 734.62 0.604099 -3.33371 0
M  V30 7463 C 733.179 1.06284 -3.61083 0
M  V30 7464 C 732.326 0.10608 -2.77097 0
M  V30 7465 H 735.277 -0.409116 -1.53336 0
M  V30 7466 H 735.298 1.45458 -3.51599 0
M  V30 7467 H 734.81 -0.336201 -3.86641 0
M  V30 7468 H 732.911 2.01777 -3.13236 0
M  V30 7469 H 733.024 0.962453 -4.69333 0
M  V30 7470 H 731.388 0.606082 -2.47384 0
M  V30 7471 H 732.171 -0.828486 -3.33153 0
M  V30 7472 N 734.616 1.57351 0.0885366 0
M  V30 7473 C 735.864 1.86051 0.789262 0
M  V30 7474 C 736.185 0.774763 1.78948 0
M  V30 7475 O 735.455 -0.198324 1.94894 0
M  V30 7476 H 734.035 0.686508 0.294475 0
M  V30 7477 H 736.697 1.94779 0.0686055 0
M  V30 7478 H 735.793 2.83007 1.31581 0
M  V30 7479 N 736.094 -0.359525 1.53444 0
M  V30 7480 C 737.024 -1.44662 1.8329 0
M  V30 7481 C 738.005 -1.55617 0.68683 0
M  V30 7482 O 739.19 -1.70086 0.93725 0
M  V30 7483 C 736.32 -2.81923 2.02822 0
M  V30 7484 C 735.274 -2.85787 3.18606 0
M  V30 7485 C 734.6 -4.25781 3.23442 0
M  V30 7486 C 735.9 -2.52762 4.57065 0
M  V30 7487 H 737.594 -1.19934 2.74329 0
M  V30 7488 H 735.14 -0.575517 1.31999 0
M  V30 7489 H 737.093 -3.58005 2.22285 0
M  V30 7490 H 735.817 -3.08051 1.085 0
M  V30 7491 H 734.476 -2.12157 2.98973 0
M  V30 7492 H 734.124 -4.48994 2.26745 0
M  V30 7493 H 733.824 -4.29281 4.01238 0
M  V30 7494 H 735.348 -5.03727 3.45096 0
M  V30 7495 H 736.762 -3.18557 4.76649 0
M  V30 7496 H 735.159 -2.67569 5.37147 0
M  V30 7497 H 736.229 -1.47993 4.61764 0
M  V30 7498 N 737.572 -1.44907 -0.619662 0
M  V30 7499 C 738.797 -1.52021 -1.41083 0
M  V30 7500 C 739.222 -0.14976 -1.87503 0
M  V30 7501 O 738.58 0.863303 -1.59426 0
M  V30 7502 C 738.628 -2.49911 -2.59955 0
M  V30 7503 O 737.732 -2.00857 -3.60181 0
M  V30 7504 H 737.073 -0.512912 -0.421684 0
M  V30 7505 H 739.603 -1.90149 -0.755282 0
M  V30 7506 H 739.613 -2.68323 -3.07354 0
M  V30 7507 H 738.288 -3.4945 -2.25516 0
M  V30 7508 H 736.865 -1.92265 -3.19513 0
M  V30 7509 N 739.05 0.861098 -1.31996 0
M  V30 7510 C 740.296 1.61721 -1.22369 0
M  V30 7511 C 740.629 1.93 0.215587 0
M  V30 7512 O 739.904 1.56789 1.15098 0
M  V30 7513 C 740.187 2.9417 -2.07691 0
M  V30 7514 C 740.04 2.69714 -3.59965 0
M  V30 7515 C 741.359 3.95372 -1.93312 0
M  V30 7516 H 738.478 0.586822 -0.44588 0
M  V30 7517 H 741.12 0.994788 -1.61876 0
M  V30 7518 H 739.27 3.47292 -1.74128 0
M  V30 7519 H 740.942 2.23196 -4.03709 0
M  V30 7520 H 739.185 2.03789 -3.82952 0
M  V30 7521 H 739.856 3.63996 -4.14983 0
M  V30 7522 H 742.332 3.51487 -2.22701 0
M  V30 7523 H 741.208 4.85916 -2.55298 0
M  V30 7524 H 741.469 4.32865 -0.898922 0
M  V30 7525 N 740.528 1.15101 1.07655 0
M  V30 7526 C 741.774 0.925343 1.80458 0
M  V30 7527 C 742.107 -0.546354 1.86356 0
M  V30 7528 O 741.382 -1.40496 1.34503 0
M  V30 7529 C 741.665 1.53646 3.25676 0
M  V30 7530 C 741.518 3.07854 3.27942 0
M  V30 7531 C 742.837 1.21968 4.22861 0
M  V30 7532 H 739.956 0.337592 0.655134 0
M  V30 7533 H 742.598 1.42217 1.25993 0
M  V30 7534 H 740.748 1.11395 3.72187 0
M  V30 7535 H 742.42 3.58989 2.89697 0
M  V30 7536 H 740.663 3.41904 2.66991 0
M  V30 7537 H 741.334 3.45725 4.30324 0
M  V30 7538 H 743.81 1.5851 3.84726 0
M  V30 7539 H 742.686 1.67349 5.22767 0
M  V30 7540 H 742.947 0.136207 4.4189 0
M  V30 7541 N 742.006 -1.2595 0.947325 0
M  V30 7542 C 742.969 -2.24407 0.466285 0
M  V30 7543 C 743.969 -1.55054 -0.426005 0
M  V30 7544 O 745.159 -1.7275 -0.224319 0
M  V30 7545 C 742.291 -3.39326 -0.327201 0
M  V30 7546 H 743.484 -2.68477 1.33642 0
M  V30 7547 H 741.037 -1.38211 0.729887 0
M  V30 7548 H 741.772 -3.00667 -1.21532 0
M  V30 7549 H 741.557 -3.9085 0.312839 0
M  V30 7550 H 743.047 -4.12455 -0.653477 0
M  V30 7551 N 743.484 -0.715051 -1.40445 0
M  V30 7552 C 744.732 -0.253826 -2.005 0
M  V30 7553 C 745.053 1.15681 -1.5698 0
M  V30 7554 O 744.323 1.78414 -0.809027 0
M  V30 7555 H 742.903 -0.0908537 -0.741454 0
M  V30 7556 H 745.565 -0.920561 -1.7179 0
M  V30 7557 H 744.661 -0.286499 -3.10782 0
M  V30 7558 N 744.962 1.50701 -0.461195 0
M  V30 7559 C 745.925 2.2686 0.326679 0
M  V30 7560 C 746.925 1.31243 0.929085 0
M  V30 7561 O 748.115 1.54754 0.799807 0
M  V30 7562 C 745.247 3.07844 1.46441 0
M  V30 7563 H 746.44 2.97954 -0.341095 0
M  V30 7564 H 743.993 1.54814 -0.214984 0
M  V30 7565 H 744.728 2.41223 2.16753 0
M  V30 7566 H 744.513 3.78101 1.03836 0
M  V30 7567 H 746.003 3.65469 2.02044 0
M  V30 7568 N 746.441 0.193421 1.56409 0
M  V30 7569 C 747.666 -0.454552 2.02358 0
M  V30 7570 C 748.091 -1.54516 1.07268 0
M  V30 7571 O 747.449 -1.81214 0.0558962 0
M  V30 7572 C 747.497 -0.989469 3.46759 0
M  V30 7573 O 746.601 -2.10244 3.54783 0
M  V30 7574 H 745.942 -0.106417 0.655417 0
M  V30 7575 H 748.472 0.303807 2.02332 0
M  V30 7576 H 748.482 -1.30649 3.86516 0
M  V30 7577 H 747.157 -0.191083 4.15461 0
M  V30 7578 H 745.734 -1.79419 3.26899 0
M  V30 7579 N 747.919 -1.57396 -0.0801906 0
M  V30 7580 C 748.882 -2.02133 -1.0805 0
M  V30 7581 C 749.882 -0.91707 -1.32085 0
M  V30 7582 O 751.072 -1.18217 -1.27947 0
M  V30 7583 C 748.204 -2.39479 -2.42616 0
M  V30 7584 H 749.397 -2.91733 -0.6951 0
M  V30 7585 H 746.95 -1.52869 -0.325677 0
M  V30 7586 H 747.685 -1.52879 -2.86004 0
M  V30 7587 H 747.47 -3.20052 -2.26515 0
M  V30 7588 H 748.96 -2.74697 -3.14534 0
M  V30 7589 N 749.397 0.351382 -1.53633 0
M  V30 7590 C 750.622 1.11718 -1.74739 0
M  V30 7591 C 751.047 1.81829 -0.481657 0
M  V30 7592 O 750.405 1.72264 0.565233 0
M  V30 7593 C 750.453 2.11234 -2.92254 0
M  V30 7594 O 749.557 3.186 -2.61855 0
M  V30 7595 H 748.898 0.323482 -0.579875 0
M  V30 7596 H 751.428 0.404167 -2.00568 0
M  V30 7597 H 751.438 2.54591 -3.18822 0
M  V30 7598 H 750.113 1.59599 -3.84058 0
M  V30 7599 H 748.69 2.80115 -2.4615 0
M  V30 7600 N 750.875 1.45233 0.611969 0
M  V30 7601 C 751.838 1.53189 1.70487 0
M  V30 7602 C 752.838 0.411839 1.55437 0
M  V30 7603 O 754.028 0.675164 1.60584 0
M  V30 7604 C 751.16 1.42422 3.09723 0
M  V30 7605 H 752.353 2.5056 1.64802 0
M  V30 7606 H 749.906 1.32609 0.827318 0
M  V30 7607 H 750.641 0.462185 3.2099 0
M  V30 7608 H 750.426 2.23658 3.22055 0
M  V30 7609 H 751.916 1.51012 3.89339 0
M  V30 7610 N 752.353 -0.854086 1.3245 0
M  V30 7611 C 753.316 -1.94427 1.21371 0
M  V30 7612 C 754.316 -1.60219 0.136613 0
M  V30 7613 O 755.506 -1.69846 0.387057 0
M  V30 7614 C 752.638 -3.29698 0.866701 0
M  V30 7615 H 753.831 -2.05679 2.18257 0
M  V30 7616 H 751.384 -1.04434 1.1629 0
M  V30 7617 H 752.119 -3.24145 -0.100319 0
M  V30 7618 H 751.904 -3.55903 1.64545 0
M  V30 7619 H 753.394 -4.09599 0.813515 0
M  V30 7620 N 753.831 -1.1567 -1.07043 0
M  V30 7621 C 754.794 -0.858906 -2.12498 0
M  V30 7622 C 755.794 0.142735 -1.60165 0
M  V30 7623 O 756.984 -0.0872678 -1.73981 0
M  V30 7624 C 754.116 -0.283021 -3.39723 0
M  V30 7625 H 755.309 -1.79368 -2.40348 0
M  V30 7626 H 752.862 -0.964608 -1.22984 0
M  V30 7627 H 753.597 0.659796 -3.17517 0
M  V30 7628 H 753.382 -1.00467 -3.7901 0
M  V30 7629 H 754.872 -0.0923543 -4.17498 0
M  V30 7630 N 755.309 1.25446 -0.953992 0
M  V30 7631 C 756.555 1.9343 -0.60933 0
M  V30 7632 C 756.888 1.74542 0.851388 0
M  V30 7633 O 756.163 1.09014 1.61078 0
M  V30 7634 C 756.446 3.46844 -0.968041 0
M  V30 7635 C 756.299 3.74961 -2.48444 0
M  V30 7636 C 757.618 4.37334 -0.492641 0
M  V30 7637 H 754.737 0.702502 -0.222844 0
M  V30 7638 H 757.379 1.48076 -1.19053 0
M  V30 7639 H 755.529 3.85604 -0.473465 0
M  V30 7640 H 757.201 3.45841 -3.05273 0
M  V30 7641 H 755.444 3.20589 -2.92241 0
M  V30 7642 H 756.115 4.82246 -2.68594 0
M  V30 7643 H 758.591 4.05873 -0.916878 0
M  V30 7644 H 757.467 5.43439 -0.772331 0
M  V30 7645 H 757.728 4.37908 0.607403 0
M  V30 7646 N 756.787 0.722489 1.40064 0
M  V30 7647 C 757.75 0.0830209 2.2905 0
M  V30 7648 C 758.75 -0.680208 1.45705 0
M  V30 7649 O 759.94 -0.511084 1.66534 0
M  V30 7650 C 757.072 -0.892092 3.29021 0
M  V30 7651 H 758.265 0.866848 2.87099 0
M  V30 7652 H 755.818 0.487556 1.48501 0
M  V30 7653 H 756.553 -1.70273 2.76003 0
M  V30 7654 H 756.338 -0.34761 3.90556 0
M  V30 7655 H 757.828 -1.33648 3.95636 0
M  V30 7656 N 758.265 -1.50454 0.469181 0
M  V30 7657 C 759.49 -2.0722 -0.0864892 0
M  V30 7658 C 759.915 -1.33098 -1.32916 0
M  V30 7659 O 759.273 -0.378084 -1.77314 0
M  V30 7660 C 759.321 -3.58845 -0.355384 0
M  V30 7661 O 758.425 -3.86583 -1.43622 0
M  V30 7662 H 757.766 -0.663889 0.0121414 0
M  V30 7663 H 760.296 -1.93674 0.659674 0
M  V30 7664 H 760.306 -4.03617 -0.596447 0
M  V30 7665 H 758.981 -4.12211 0.552698 0
M  V30 7666 H 757.558 -3.5365 -1.18262 0
M  V30 7667 N 759.743 -0.201713 -1.56304 0
M  V30 7668 C 760.706 0.702811 -2.18159 0
M  V30 7669 C 761.706 1.13619 -1.13787 0
M  V30 7670 O 762.896 1.0482 -1.39134 0
M  V30 7671 C 760.028 1.96032 -2.78898 0
M  V30 7672 H 761.221 0.163836 -2.99452 0
M  V30 7673 H 758.774 0.04791 -1.56227 0
M  V30 7674 H 759.509 2.54165 -2.01421 0
M  V30 7675 H 759.294 1.65824 -3.55309 0
M  V30 7676 H 760.784 2.60519 -3.26373 0
M  V30 7677 N 761.222 1.57436 0.0718424 0
M  V30 7678 C 762.468 1.87525 0.772149 0
M  V30 7679 C 762.801 0.79399 1.77227 0
M  V30 7680 O 762.076 -0.195733 1.93513 0
M  V30 7681 C 762.359 3.28272 1.48018 0
M  V30 7682 C 762.212 4.47052 0.49647 0
M  V30 7683 C 763.531 3.67256 2.42509 0
M  V30 7684 H 760.65 0.682049 0.279245 0
M  V30 7685 H 763.292 1.89967 0.03534 0
M  V30 7686 H 761.442 3.26321 2.10824 0
M  V30 7687 H 763.114 4.61127 -0.126375 0
M  V30 7688 H 761.357 4.33392 -0.188205 0
M  V30 7689 H 762.028 5.42315 1.02949 0
M  V30 7690 H 764.504 3.70301 1.89781 0
M  V30 7691 H 763.38 4.66626 2.89053 0
M  V30 7692 H 763.641 2.97186 3.27312 0
M  V30 7693 N 762.7 -0.34323 1.53817 0
M  V30 7694 C 763.663 -1.40444 1.8113 0
M  V30 7695 C 764.663 -1.45604 0.682366 0
M  V30 7696 O 765.853 -1.45974 0.950649 0
M  V30 7697 C 762.985 -2.79369 1.95361 0
M  V30 7698 H 764.178 -1.17489 2.75928 0
M  V30 7699 H 761.731 -0.577636 1.45234 0
M  V30 7700 H 762.466 -3.07607 1.02707 0
M  V30 7701 H 762.251 -2.7702 2.77493 0
M  V30 7702 H 763.741 -3.56178 2.18008 0
M  V30 7703 N 764.178 -1.45556 -0.604258 0
M  V30 7704 C 765.141 -1.54091 -1.69672 0
M  V30 7705 C 766.141 -0.420076 -1.55216 0
M  V30 7706 O 767.331 -0.683671 -1.60224 0
M  V30 7707 C 764.463 -1.44063 -3.08964 0
M  V30 7708 H 765.656 -2.51431 -1.6347 0
M  V30 7709 H 763.209 -1.33046 -0.820273 0
M  V30 7710 H 763.944 -0.479201 -3.2074 0
M  V30 7711 H 763.729 -2.25362 -3.20865 0
M  V30 7712 H 765.219 -1.53075 -3.88533 0
M  V30 7713 N 765.656 0.84705 -1.32902 0
M  V30 7714 C 767.067 1.41785 -1.21466 0
M  V30 7715 C 767.418 1.95464 0.169767 0
M  V30 7716 O 766.543 1.88157 1.06892 0
M  V30 7717 C 767.138 2.57734 -2.19906 0
M  V30 7718 C 765.697 3.10791 -2.12334 0
M  V30 7719 C 764.844 1.83562 -2.07847 0
M  V30 7720 H 767.795 0.653532 -1.44619 0
M  V30 7721 H 767.816 3.35123 -1.80202 0
M  V30 7722 H 767.328 2.18635 -3.20656 0
M  V30 7723 H 765.429 3.54455 -1.14858 0
M  V30 7724 H 765.542 3.71519 -3.02506 0
M  V30 7725 H 763.906 2.03475 -1.53199 0
M  V30 7726 H 764.689 1.4667 -3.10392 0
M  V30 7727 N 767.134 1.16236 1.06428 0
M  V30 7728 C 768.097 0.870163 2.1204 0
M  V30 7729 C 769.097 -0.134239 1.60239 0
M  V30 7730 O 770.287 0.0964932 1.73933 0
M  V30 7731 C 767.419 0.301033 3.39568 0
M  V30 7732 H 768.612 1.8064 2.39394 0
M  V30 7733 H 766.165 0.971116 1.2247 0
M  V30 7734 H 766.9 -0.642948 3.17863 0
M  V30 7735 H 766.685 1.02475 3.78472 0
M  V30 7736 H 768.175 0.114494 4.17443 0
M  V30 7737 N 768.612 -1.24939 0.960631 0
M  V30 7738 C 770.023 -1.74701 0.658529 0
M  V30 7739 C 770.374 -1.77967 -0.825959 0
M  V30 7740 O 769.499 -1.40444 -1.64634 0
M  V30 7741 C 770.094 -3.17263 1.18867 0
M  V30 7742 C 768.653 -3.64561 0.936614 0
M  V30 7743 C 767.8 -2.43423 1.32817 0
M  V30 7744 H 770.751 -1.10741 1.13676 0
M  V30 7745 H 770.772 -3.76481 0.551589 0
M  V30 7746 H 770.284 -3.14854 2.26912 0
M  V30 7747 H 768.385 -3.72378 -0.128608 0
M  V30 7748 H 768.498 -4.52392 1.57729 0
M  V30 7749 H 766.862 -2.43513 0.746548 0
M  V30 7750 H 767.645 -2.437 2.41796 0
M  V30 7751 N 770.09 -0.729906 -1.39679 0
M  V30 7752 C 771.501 -0.346241 -1.83461 0
M  V30 7753 C 771.852 1.1215 -1.60987 0
M  V30 7754 O 770.977 1.86456 -1.09832 0
M  V30 7755 C 771.572 -0.621656 -3.33048 0
M  V30 7756 C 770.131 -0.291543 -3.75269 0
M  V30 7757 C 769.278 -0.886844 -2.62736 0
M  V30 7758 H 772.229 -0.927949 -1.28743 0
M  V30 7759 H 772.25 0.108301 -3.80346 0
M  V30 7760 H 771.762 -1.68996 -3.49373 0
M  V30 7761 H 769.863 0.771133 -3.64533 0
M  V30 7762 H 769.976 -0.770544 -4.72863 0
M  V30 7763 H 768.34 -0.313839 -2.52759 0
M  V30 7764 H 769.123 -1.95971 -2.81869 0
M  V30 7765 N 771.568 1.50203 -0.477153 0
M  V30 7766 C 772.5 2.26508 0.350239 0
M  V30 7767 C 773.513 1.32081 0.95176 0
M  V30 7768 O 774.702 1.57546 0.839139 0
M  V30 7769 C 771.802 3.0361 1.50579 0
M  V30 7770 C 770.975 4.25438 1.01595 0
M  V30 7771 C 770.034 4.84783 2.04626 0
M  V30 7772 O 769.06 5.45528 1.62442 0
M  V30 7773 N 770.262 4.72318 3.37485 0
M  V30 7774 H 773.027 2.98155 -0.30394 0
M  V30 7775 H 770.588 1.58938 -0.308289 0
M  V30 7776 H 772.58 3.4019 2.1921 0
M  V30 7777 H 771.15 2.34724 2.06455 0
M  V30 7778 H 770.37 3.93894 0.155316 0
M  V30 7779 H 771.658 5.04413 0.666694 0
M  V30 7780 H 771.056 4.24022 3.74462 0
M  V30 7781 H 769.613 5.13149 4.01897 0
M  V30 7782 N 773.046 0.209999 1.56195 0
M  V30 7783 C 774.271 -0.433064 2.02828 0
M  V30 7784 C 774.696 -1.5337 1.08901 0
M  V30 7785 O 774.054 -1.81144 0.0751132 0
M  V30 7786 C 774.102 -0.952635 3.47789 0
M  V30 7787 O 773.206 -2.0647 3.56993 0
M  V30 7788 H 772.547 -0.0994594 0.656509 0
M  V30 7789 H 775.077 0.32525 2.01998 0
M  V30 7790 H 775.087 -1.26542 3.8788 0
M  V30 7791 H 773.762 -0.147007 4.1564 0
M  V30 7792 H 772.339 -1.75942 3.28784 0
M  V30 7793 N 774.524 -1.57472 -0.0634922 0
M  V30 7794 C 775.752 -1.91887 -0.773767 0
M  V30 7795 C 776.167 -0.806733 -1.70696 0
M  V30 7796 O 775.524 0.219383 -1.81177 0
M  V30 7797 C 775.575 -3.26092 -1.56034 0
M  V30 7798 O 775.296 -4.33029 -0.66464 0
M  V30 7799 C 776.797 -3.74573 -2.37087 0
M  V30 7800 H 774.017 -0.634074 -0.219525 0
M  V30 7801 H 776.561 -2.04476 -0.0312828 0
M  V30 7802 H 774.716 -3.15004 -2.25502 0
M  V30 7803 H 775.13 -5.10291 -1.21258 0
M  V30 7804 H 776.604 -4.71084 -2.87722 0
M  V30 7805 H 777.081 -3.04003 -3.16984 0
M  V30 7806 H 777.687 -3.88631 -1.72759 0
M  V30 7807 N 776.003 0.335068 -1.53997 0
M  V30 7808 C 777.231 1.09418 -1.756 0
M  V30 7809 C 777.646 1.82083 -0.499138 0
M  V30 7810 O 777.003 1.74646 0.529631 0
M  V30 7811 C 777.054 2.10115 -2.94166 0
M  V30 7812 O 776.775 1.40404 -4.14992 0
M  V30 7813 C 778.276 2.98336 -3.27888 0
M  V30 7814 H 775.496 0.32595 -0.586513 0
M  V30 7815 H 778.04 0.384693 -2.00849 0
M  V30 7816 H 776.195 2.76616 -2.71224 0
M  V30 7817 H 776.609 2.07743 -4.81605 0
M  V30 7818 H 778.083 3.6491 -4.1418 0
M  V30 7819 H 778.56 3.64814 -2.44556 0
M  V30 7820 H 779.166 2.37412 -3.52868 0
M  V30 7821 N 777.481 1.45874 0.596531 0
M  V30 7822 C 778.391 1.57947 1.73464 0
M  V30 7823 C 779.407 0.463461 1.67714 0
M  V30 7824 O 780.583 0.725685 1.87872 0
M  V30 7825 C 777.648 1.55348 3.09948 0
M  V30 7826 C 776.709 2.78074 3.27068 0
M  V30 7827 C 775.942 2.75589 4.57041 0
M  V30 7828 O 776.165 1.83545 5.40063 0
M  V30 7829 O 775.099 3.66945 4.77111 0
M  V30 7830 H 778.925 2.54169 1.66228 0
M  V30 7831 H 776.51 1.2851 0.76194 0
M  V30 7832 H 778.392 1.56545 3.91244 0
M  V30 7833 H 777.067 0.622811 3.17652 0
M  V30 7834 H 775.974 2.82435 2.45319 0
M  V30 7835 H 777.307 3.70303 3.24248 0
M  V30 7836 N 778.959 -0.83999 1.33349 0
M  V30 7837 C 780.37 -1.41139 1.22216 0
M  V30 7838 C 780.721 -1.95551 -0.159398 0
M  V30 7839 O 779.846 -1.88721 -1.05893 0
M  V30 7840 C 780.441 -2.56564 2.21269 0
M  V30 7841 C 779 -3.09661 2.13979 0
M  V30 7842 C 778.147 -1.82457 2.08818 0
M  V30 7843 H 781.098 -0.645853 1.44964 0
M  V30 7844 H 781.119 -3.34163 1.81976 0
M  V30 7845 H 780.631 -2.16932 3.21811 0
M  V30 7846 H 778.732 -3.53841 1.16736 0
M  V30 7847 H 778.845 -3.6991 3.04472 0
M  V30 7848 H 777.209 -2.0266 1.54276 0
M  V30 7849 H 777.992 -1.45022 3.11165 0
M  V30 7850 N 780.437 -1.16799 -1.0581 0
M  V30 7851 C 781.367 -0.902241 -2.15364 0
M  V30 7852 C 782.348 0.153351 -1.69407 0
M  V30 7853 O 783.533 0.00442032 -1.94199 0
M  V30 7854 C 780.663 -0.407911 -3.44896 0
M  V30 7855 C 779.617 -1.40197 -4.04387 0
M  V30 7856 C 778.943 -0.765848 -5.29187 0
M  V30 7857 C 780.243 -2.77316 -4.42598 0
M  V30 7858 H 781.937 -1.81841 -2.37853 0
M  V30 7859 H 779.483 -0.875731 -1.14311 0
M  V30 7860 H 781.436 -0.20945 -4.20879 0
M  V30 7861 H 780.16 0.54378 -3.22041 0
M  V30 7862 H 778.819 -1.58707 -3.30466 0
M  V30 7863 H 778.467 0.192482 -5.02632 0
M  V30 7864 H 778.167 -1.42939 -5.69949 0
M  V30 7865 H 779.691 -0.577519 -6.07863 0
M  V30 7866 H 781.105 -2.62561 -5.09642 0
M  V30 7867 H 779.502 -3.4019 -4.94359 0
M  V30 7868 H 780.572 -3.32199 -3.53231 0
M  V30 7869 N 781.915 1.24427 -0.967243 0
M  V30 7870 C 783.326 1.74349 -0.667785 0
M  V30 7871 C 783.677 1.78403 0.816509 0
M  V30 7872 O 782.802 1.41315 1.63887 0
M  V30 7873 C 783.397 3.16628 -1.20548 0
M  V30 7874 C 781.956 3.64059 -0.955934 0
M  V30 7875 C 781.103 2.42715 -1.34106 0
M  V30 7876 H 784.054 1.10136 -1.14262 0
M  V30 7877 H 784.075 3.76183 -0.571547 0
M  V30 7878 H 783.587 3.13646 -2.28578 0
M  V30 7879 H 781.688 3.72441 0.108858 0
M  V30 7880 H 781.801 4.51549 -1.60126 0
M  V30 7881 H 780.165 2.43114 -0.759452 0
M  V30 7882 H 780.948 2.42414 -2.43085 0
M  V30 7883 N 783.393 0.737304 1.3929 0
M  V30 7884 C 784.356 0.10731 2.28949 0
M  V30 7885 C 785.356 -0.664716 1.46418 0
M  V30 7886 O 786.546 -0.493392 1.67067 0
M  V30 7887 C 783.678 -0.857145 3.29948 0
M  V30 7888 H 784.871 0.89725 2.86163 0
M  V30 7889 H 782.424 0.503279 1.47976 0
M  V30 7890 H 783.159 -1.67336 2.77794 0
M  V30 7891 H 782.944 -0.306167 3.90903 0
M  V30 7892 H 784.434 -1.29444 3.97031 0
M  V30 7893 N 784.871 -1.49948 0.485112 0
M  V30 7894 C 785.804 -2.25531 -0.348027 0
M  V30 7895 C 786.782 -1.29433 -0.984172 0
M  V30 7896 O 787.966 -1.58687 -1.01738 0
M  V30 7897 C 785.093 -3.04225 -1.48878 0
M  V30 7898 C 784.139 -4.15355 -0.968616 0
M  V30 7899 S 784.972 -5.35347 0.127934 0
M  V30 7900 C 786.128 -6.17593 -1.01637 0
M  V30 7901 H 786.361 -2.95847 0.293529 0
M  V30 7902 H 783.894 -1.52018 0.27018 0
M  V30 7903 H 785.852 -3.50153 -2.14251 0
M  V30 7904 H 784.513 -2.33407 -2.1019 0
M  V30 7905 H 783.706 -4.69873 -1.82305 0
M  V30 7906 H 783.308 -3.71936 -0.392377 0
M  V30 7907 H 785.6 -6.49576 -1.92503 0
M  V30 7908 H 786.543 -7.0626 -0.510149 0
M  V30 7909 H 786.951 -5.49877 -1.27653 0
M  V30 7910 N 786.349 -0.21828 -1.56081 0
M  V30 7911 C 787.595 0.414921 -1.9851 0
M  V30 7912 C 787.928 1.59648 -1.10573 0
M  V30 7913 O 787.203 1.93818 -0.162695 0
M  V30 7914 C 787.486 0.852647 -3.4986 0
M  V30 7915 C 787.339 -0.33232 -4.48571 0
M  V30 7916 C 788.658 1.70998 -4.05521 0
M  V30 7917 H 785.777 0.149344 -0.72171 0
M  V30 7918 H 788.419 -0.313858 -1.8739 0
M  V30 7919 H 786.569 1.47362 -3.59467 0
M  V30 7920 H 788.241 -0.970418 -4.50977 0
M  V30 7921 H 786.484 -0.980302 -4.22578 0
M  V30 7922 H 787.155 0.0168407 -5.51997 0
M  V30 7923 H 789.631 1.18606 -3.98838 0
M  V30 7924 H 788.507 1.98517 -5.11744 0
M  V30 7925 H 788.768 2.67219 -3.52202 0
M  V30 7926 N 787.827 1.57504 0.0551401 0
M  V30 7927 C 788.759 2.0158 1.09078 0
M  V30 7928 C 789.772 0.92434 1.34014 0
M  V30 7929 O 790.961 1.20202 1.31961 0
M  V30 7930 C 788.061 2.35385 2.43818 0
M  V30 7931 C 787.234 3.66588 2.38605 0
M  V30 7932 C 786.293 3.87874 3.55585 0
M  V30 7933 O 785.319 4.59259 3.36258 0
M  V30 7934 N 786.521 3.31503 4.76536 0
M  V30 7935 H 789.286 2.91039 0.71529 0
M  V30 7936 H 786.847 1.60058 0.243532 0
M  V30 7937 H 788.839 2.46784 3.20749 0
M  V30 7938 H 787.409 1.51731 2.73307 0
M  V30 7939 H 786.629 3.65787 1.46947 0
M  V30 7940 H 787.917 4.52706 2.32239 0
M  V30 7941 H 787.315 2.73592 4.9514 0
M  V30 7942 H 785.872 3.48324 5.50921 0
M  V30 7943 N 789.305 -0.326896 1.54172 0
M  V30 7944 C 790.533 -1.08486 1.76177 0
M  V30 7945 C 790.948 -1.81815 0.508788 0
M  V30 7946 O 790.305 -1.74924 -0.520362 0
M  V30 7947 C 790.356 -2.08552 2.95276 0
M  V30 7948 O 790.077 -1.38202 4.15731 0
M  V30 7949 C 791.578 -2.96593 3.29466 0
M  V30 7950 H 788.798 -0.322835 0.588233 0
M  V30 7951 H 791.342 -0.374036 2.0105 0
M  V30 7952 H 789.497 -2.75174 2.72687 0
M  V30 7953 H 789.911 -2.05186 4.827 0
M  V30 7954 H 791.385 -3.62708 4.16109 0
M  V30 7955 H 791.862 -3.63511 2.46487 0
M  V30 7956 H 792.468 -2.35537 3.54122 0
M  V30 7957 N 790.784 -1.46188 -0.588786 0
M  V30 7958 C 791.714 -1.59148 -1.70863 0
M  V30 7959 C 792.695 -0.442083 -1.64255 0
M  V30 7960 O 793.88 -0.667575 -1.82365 0
M  V30 7961 C 791.01 -1.5757 -3.09498 0
M  V30 7962 C 789.964 -2.71418 -3.30932 0
M  V30 7963 C 789.29 -2.549 -4.70032 0
M  V30 7964 C 790.59 -4.1329 -3.19356 0
M  V30 7965 H 792.284 -2.52889 -1.60274 0
M  V30 7966 H 789.83 -1.21707 -0.769638 0
M  V30 7967 H 791.783 -1.65231 -3.87655 0
M  V30 7968 H 790.507 -0.603705 -3.20972 0
M  V30 7969 H 789.166 -2.63216 -2.55172 0
M  V30 7970 H 788.814 -1.55797 -4.78264 0
M  V30 7971 H 788.514 -3.31257 -4.85327 0
M  V30 7972 H 790.038 -2.64443 -5.50366 0
M  V30 7973 H 791.452 -4.22636 -3.87365 0
M  V30 7974 H 789.849 -4.90187 -3.46175 0
M  V30 7975 H 790.919 -4.33874 -2.16522 0
M  V30 7976 N 792.262 0.832906 -1.33792 0
M  V30 7977 C 793.673 1.40489 -1.22963 0
M  V30 7978 C 794.024 1.95633 0.149026 0
M  V30 7979 O 793.149 1.8928 1.04891 0
M  V30 7980 C 793.744 2.55387 -2.22627 0
M  V30 7981 C 792.303 3.08522 -2.15618 0
M  V30 7982 C 791.45 1.81347 -2.09782 0
M  V30 7983 H 794.401 0.638156 -1.45304 0
M  V30 7984 H 794.422 3.33193 -1.83746 0
M  V30 7985 H 793.934 2.15222 -3.22957 0
M  V30 7986 H 792.035 3.53217 -1.18611 0
M  V30 7987 H 792.148 3.6829 -3.0643 0
M  V30 7988 H 790.512 2.01839 -1.55349 0
M  V30 7989 H 791.295 1.43369 -3.1193 0
M  V30 7990 N 793.74 1.17359 1.05189 0
M  V30 7991 C 794.67 0.91365 2.14883 0
M  V30 7992 C 795.651 -0.144365 1.69486 0
M  V30 7993 O 796.836 0.00587861 1.94199 0
M  V30 7994 C 793.966 0.426196 3.44675 0
M  V30 7995 C 792.92 1.4234 4.03638 0
M  V30 7996 C 792.246 0.793902 5.28773 0
M  V30 7997 C 793.546 2.7966 4.41121 0
M  V30 7998 H 795.24 1.831 2.36885 0
M  V30 7999 H 792.786 0.881781 1.13845 0
M  V30 8000 H 794.739 0.231767 4.20762 0
M  V30 8001 H 793.463 -0.526693 3.22325 0
M  V30 8002 H 792.122 1.60457 3.2962 0
M  V30 8003 H 791.77 -0.165824 5.02727 0
M  V30 8004 H 791.47 1.45959 5.69183 0
M  V30 8005 H 792.994 0.609747 6.07548 0
M  V30 8006 H 794.408 2.6526 5.08242 0
M  V30 8007 H 792.805 3.42807 4.92548 0
M  V30 8008 H 793.875 3.34068 3.51464 0
M  V30 8009 N 795.218 -1.23913 0.973828 0
M  V30 8010 C 796.466 -1.91771 0.637817 0
M  V30 8011 C 796.787 -1.76434 -0.830435 0
M  V30 8012 O 796.057 -1.13965 -1.59339 0
M  V30 8013 H 794.637 -0.709761 0.232912 0
M  V30 8014 H 797.299 -1.50677 1.23622 0
M  V30 8015 H 796.395 -2.99327 0.883731 0
M  V30 8016 N 796.696 -0.74468 -1.38897 0
M  V30 8017 C 797.659 -0.11945 -2.28889 0
M  V30 8018 C 798.659 0.656942 -1.46768 0
M  V30 8019 O 799.849 0.484525 -1.67326 0
M  V30 8020 C 796.981 0.839635 -3.30398 0
M  V30 8021 H 798.174 -0.912414 -2.85683 0
M  V30 8022 H 795.727 -0.511119 -1.47707 0
M  V30 8023 H 796.462 1.6586 -2.78677 0
M  V30 8024 H 796.247 0.285432 -3.9106 0
M  V30 8025 H 797.737 1.27337 -3.97712 0
M  V30 8026 N 798.174 1.49689 -0.493057 0
M  V30 8027 C 799.122 2.30613 0.303383 0
M  V30 8028 C 800.116 1.38867 0.970165 0
M  V30 8029 O 801.322 1.55956 0.898761 0
M  V30 8030 H 797.697 0.742891 0.116691 0
M  V30 8031 H 799.668 2.95717 -0.39924 0
M  V30 8032 C 798.417 3.20008 1.35978 0
M  V30 8033 H 797.74 3.90526 0.856103 0
M  V30 8034 H 799.18 3.79586 1.88919 0
M  V30 8035 C 797.639 2.39079 2.37367 0
M  V30 8036 O 798.169 2.08933 3.43089 0
M  V30 8037 N 796.375 2.0125 2.09635 0
M  V30 8038 H 795.922 2.25966 1.23682 0
M  V30 8039 H 795.88 1.47408 2.77702 0
M  V30 8040 N 799.652 0.226554 1.55963 0
M  V30 8041 C 800.877 -0.411527 2.03276 0
M  V30 8042 C 801.302 -1.52206 1.10521 0
M  V30 8043 O 800.66 -1.81054 0.0943217 0
M  V30 8044 C 800.708 -0.915694 3.4878 0
M  V30 8045 O 799.812 -2.02672 3.59163 0
M  V30 8046 H 799.153 -0.0924907 0.657527 0
M  V30 8047 H 801.683 0.346656 2.01642 0
M  V30 8048 H 801.693 -1.22421 3.892 0
M  V30 8049 H 800.368 -0.102915 4.15773 0
M  V30 8050 H 798.945 -1.72445 3.30632 0
M  V30 8051 N 801.13 -1.57531 -0.0467866 0
M  V30 8052 C 802.376 -1.8873 -0.742218 0
M  V30 8053 C 802.709 -0.822084 -1.75941 0
M  V30 8054 O 801.984 0.164922 -1.938 0
M  V30 8055 C 802.267 -3.30586 -1.42776 0
M  V30 8056 C 802.12 -4.47785 -0.425285 0
M  V30 8057 C 803.439 -3.71068 -2.36636 0
M  V30 8058 H 800.558 -0.686406 -0.268359 0
M  V30 8059 H 803.2 -1.89999 -0.00511341 0
M  V30 8060 H 801.35 -3.29634 -2.05605 0
M  V30 8061 H 803.022 -4.60867 0.199721 0
M  V30 8062 H 801.265 -4.33037 0.25713 0
M  V30 8063 H 801.936 -5.43884 -0.943086 0
M  V30 8064 H 804.412 -3.73273 -1.83866 0
M  V30 8065 H 803.288 -4.71165 -2.81593 0
M  V30 8066 H 803.549 -3.02355 -3.22542 0
M  V30 8067 N 802.608 0.318715 -1.54344 0
M  V30 8068 C 803.538 1.39751 -1.87061 0
M  V30 8069 C 804.519 1.53741 -0.727848 0
M  V30 8070 O 805.704 1.67541 -0.982016 0
M  V30 8071 C 802.834 2.76446 -2.10226 0
M  V30 8072 C 801.788 2.77239 -3.26071 0
M  V30 8073 C 801.114 4.17056 -3.34617 0
M  V30 8074 C 802.414 2.40555 -4.63606 0
M  V30 8075 H 804.108 1.12619 -2.77412 0
M  V30 8076 H 801.654 0.540318 -1.33479 0
M  V30 8077 H 803.607 3.51985 -2.31699 0
M  V30 8078 H 802.331 3.05066 -1.16629 0
M  V30 8079 H 800.99 2.04155 -3.04493 0
M  V30 8080 H 800.638 4.42824 -2.3857 0
M  V30 8081 H 800.338 4.18492 -4.12478 0
M  V30 8082 H 801.862 4.94401 -3.5833 0
M  V30 8083 H 803.276 3.05808 -4.84927 0
M  V30 8084 H 801.673 2.53234 -5.44052 0
M  V30 8085 H 802.743 1.35698 -4.65526 0
M  V30 8086 N 804.086 1.46499 0.581025 0
M  V30 8087 C 805.314 1.5547 1.36517 0
M  V30 8088 C 805.729 0.196407 1.87776 0
M  V30 8089 O 805.086 -0.806577 1.63709 0
M  V30 8090 C 805.137 2.56084 2.55154 0
M  V30 8091 O 804.858 3.86637 2.06018 0
M  V30 8092 C 806.359 2.75011 3.47683 0
M  V30 8093 H 803.579 0.525703 0.416986 0
M  V30 8094 H 806.123 1.9192 0.706177 0
M  V30 8095 H 804.278 2.22633 3.17039 0
M  V30 8096 H 804.692 4.41413 2.83292 0
M  V30 8097 H 806.166 3.49329 4.27403 0
M  V30 8098 H 806.643 1.81978 3.99726 0
M  V30 8099 H 807.249 3.09565 2.91632 0
M  V30 8100 N 805.565 -0.825799 1.34232 0
M  V30 8101 C 806.513 -1.95792 1.25572 0
M  V30 8102 C 807.507 -1.68695 0.154404 0
M  V30 8103 O 808.713 -1.77147 0.319196 0
M  V30 8104 H 805.088 -0.642949 0.390027 0
M  V30 8105 H 807.059 -2.00219 2.21258 0
M  V30 8106 C 805.808 -3.32245 1.02511 0
M  V30 8107 H 805.131 -3.53642 1.86487 0
M  V30 8108 H 806.571 -4.1192 1.00487 0
M  V30 8109 C 805.03 -3.35803 -0.27167 0
M  V30 8110 O 805.56 -3.80962 -1.274 0
M  V30 8111 N 803.766 -2.89008 -0.303778 0
M  V30 8112 H 803.313 -2.52451 0.512464 0
M  V30 8113 H 803.271 -2.9177 -1.17121 0
M  V30 8114 N 807.043 -1.17915 -1.04565 0
M  V30 8115 C 807.991 -0.897919 -2.1457 0
M  V30 8116 C 808.985 0.139883 -1.68821 0
M  V30 8117 O 810.191 -0.00779463 -1.79998 0
M  V30 8118 H 806.566 -0.272867 -0.700748 0
M  V30 8119 H 808.537 -1.83268 -2.3549 0
M  V30 8120 C 807.286 -0.434634 -3.44973 0
M  V30 8121 H 806.609 -1.22469 -3.8058 0
M  V30 8122 H 808.049 -0.276804 -4.23095 0
M  V30 8123 C 806.508 0.848738 -3.26034 0
M  V30 8124 O 807.038 1.9141 -3.53164 0
M  V30 8125 N 805.244 0.799373 -2.79389 0
M  V30 8126 H 804.791 -0.0678192 -2.57511 0
M  V30 8127 H 804.749 1.6585 -2.67098 0
M  V30 8128 N 808.521 1.23394 -0.980386 0
M  V30 8129 C 809.932 1.73631 -0.686239 0
M  V30 8130 C 810.283 1.79259 0.797541 0
M  V30 8131 O 809.408 1.43046 1.62379 0
M  V30 8132 C 810.003 3.15332 -1.239 0
M  V30 8133 C 808.562 3.63024 -0.994494 0
M  V30 8134 C 807.709 2.41279 -1.36673 0
M  V30 8135 H 810.66 1.08918 -1.15423 0
M  V30 8136 H 810.681 3.75556 -0.611414 0
M  V30 8137 H 810.193 3.11204 -2.31892 0
M  V30 8138 H 808.294 3.72535 0.0693492 0
M  V30 8139 H 808.407 4.49825 -1.64906 0
M  V30 8140 H 806.771 2.42295 -0.785195 0
M  V30 8141 H 807.554 2.39822 -2.45642 0
M  V30 8142 N 809.999 0.752036 1.385 0
M  V30 8143 C 811.227 0.318274 2.04437 0
M  V30 8144 C 811.642 -1.05285 1.56718 0
M  V30 8145 O 810.999 -1.66844 0.73956 0
M  V30 8146 C 811.05 0.330106 3.5999 0
M  V30 8147 O 810.771 1.64712 4.05957 0
M  V30 8148 C 812.272 -0.117713 4.43144 0
M  V30 8149 H 809.492 0.136228 0.657026 0
M  V30 8150 H 812.036 1.02045 1.7722 0
M  V30 8151 H 810.191 -0.323323 3.86048 0
M  V30 8152 H 810.605 1.57225 5.0038 0
M  V30 8153 H 812.079 -0.0582735 5.51969 0
M  V30 8154 H 812.556 -1.16538 4.23457 0
M  V30 8155 H 813.162 0.506784 4.2227 0
M  V30 8156 N 811.477 -1.49425 0.500989 0
M  V30 8157 C 812.726 -2.01649 -0.04538 0
M  V30 8158 C 813.039 -1.38572 -1.38047 0
M  V30 8159 O 814.245 -1.82124 -2.01353 0
M  V30 8160 C 812.701 -3.5966 -0.131337 0
M  V30 8161 C 812.309 -4.3171 1.19711 0
M  V30 8162 C 814.053 -4.19828 -0.628071 0
M  V30 8163 C 811.96 -5.81579 1.07332 0
M  V30 8164 H 810.89 -0.753715 -0.0207329 0
M  V30 8165 H 813.541 -1.71962 0.640407 0
M  V30 8166 H 811.923 -3.86063 -0.881574 0
M  V30 8167 H 813.097 -4.17008 1.96064 0
M  V30 8168 H 811.412 -3.83286 1.62729 0
M  V30 8169 H 814.009 -5.2958 -0.738198 0
M  V30 8170 H 814.352 -3.83194 -1.6269 0
M  V30 8171 H 814.885 -3.97746 0.0656314 0
M  V30 8172 H 811.624 -6.22738 2.04642 0
M  V30 8173 H 811.144 -5.98774 0.350679 0
M  V30 8174 H 812.823 -6.42614 0.752047 0
M  V30 8175 N 812.955 -0.234822 -1.55841 0
M  V30 8176 C 814.183 0.397745 -2.03041 0
M  V30 8177 C 814.598 1.52405 -1.11437 0
M  V30 8178 O 813.955 1.82061 -0.126466 0
M  V30 8179 C 814.006 0.916919 -3.49678 0
M  V30 8180 O 813.727 -0.164493 -4.37791 0
M  V30 8181 C 815.228 1.62139 -4.12584 0
M  V30 8182 H 812.448 0.0959214 -0.664108 0
M  V30 8183 H 814.992 -0.355156 -2.01392 0
M  V30 8184 H 813.147 1.62004 -3.519 0
M  V30 8185 H 813.561 0.227794 -5.24005 0
M  V30 8186 H 815.035 1.93651 -5.16917 0
M  V30 8187 H 815.512 2.53918 -3.58361 0
M  V30 8188 H 816.118 0.963145 -4.14251 0
M  V30 8189 N 814.433 1.57553 0.0384317 0
M  V30 8190 C 815.682 1.88022 0.730108 0
M  V30 8191 C 815.995 0.83209 1.77019 0
M  V30 8192 O 817.201 1.0257 2.51379 0
M  V30 8193 C 815.657 3.33637 1.3496 0
M  V30 8194 C 815.265 4.46659 0.346352 0
M  V30 8195 C 817.009 3.73266 2.02169 0
M  V30 8196 C 814.916 5.8333 0.973652 0
M  V30 8197 H 813.846 0.701496 0.276442 0
M  V30 8198 H 816.497 1.83493 -0.0158028 0
M  V30 8199 H 814.879 3.32882 2.1449 0
M  V30 8200 H 816.053 4.58868 -0.421558 0
M  V30 8201 H 814.368 4.15802 -0.223133 0
M  V30 8202 H 816.965 4.72689 2.49938 0
M  V30 8203 H 817.308 3.04776 2.8358 0
M  V30 8204 H 817.841 3.76156 1.29427 0
M  V30 8205 H 814.58 6.55197 0.199163 0
M  V30 8206 H 814.1 5.7486 1.71162 0
M  V30 8207 H 815.779 6.29757 1.48376 0
M  V30 8208 N 815.911 -0.310526 1.54511 0
M  V30 8209 C 817.139 -1.06611 1.77318 0
M  V30 8210 C 817.554 -1.81265 0.528043 0
M  V30 8211 O 816.911 -1.75466 -0.50178 0
M  V30 8212 C 816.962 -2.05409 2.97472 0
M  V30 8213 O 816.683 -1.33785 4.17173 0
M  V30 8214 C 818.184 -2.93082 3.32593 0
M  V30 8215 H 815.404 -0.316578 0.591624 0
M  V30 8216 H 817.948 -0.352691 2.01436 0
M  V30 8217 H 816.103 -2.72266 2.7559 0
M  V30 8218 H 816.517 -2.00055 4.84849 0
M  V30 8219 H 817.991 -3.58274 4.19933 0
M  V30 8220 H 818.468 -3.60877 2.50329 0
M  V30 8221 H 819.074 -2.31768 3.566 0
M  V30 8222 N 817.389 -1.46805 -0.573248 0
M  V30 8223 C 818.8 -1.46655 -1.15539 0
M  V30 8224 C 819.151 -0.2125 -1.95046 0
M  V30 8225 O 818.276 0.683759 -2.05314 0
M  V30 8226 C 818.871 -2.65711 -2.10198 0
M  V30 8227 C 817.43 -2.68572 -2.63716 0
M  V30 8228 C 816.577 -2.39498 -1.39772 0
M  V30 8229 H 819.528 -1.54547 -0.36068 0
M  V30 8230 H 819.549 -2.41768 -2.93817 0
M  V30 8231 H 819.061 -3.56967 -1.52303 0
M  V30 8232 H 817.162 -1.81414 -3.25453 0
M  V30 8233 H 817.275 -3.68809 -3.05805 0
M  V30 8234 H 815.639 -1.89749 -1.69904 0
M  V30 8235 H 816.422 -3.32942 -0.836943 0
M  V30 8236 N 818.867 0.818669 -1.34668 0
M  V30 8237 C 820.095 1.60674 -1.30351 0
M  V30 8238 C 820.51 1.88408 0.121546 0
M  V30 8239 O 819.867 1.47849 1.06991 0
M  V30 8240 C 819.918 2.94516 -2.09625 0
M  V30 8241 O 819.639 2.6799 -3.46573 0
M  V30 8242 C 821.14 3.8891 -2.12754 0
M  V30 8243 H 818.36 0.499306 -0.448258 0
M  V30 8244 H 820.904 1.01828 -1.77345 0
M  V30 8245 H 819.059 3.49908 -1.66262 0
M  V30 8246 H 819.473 3.53361 -3.87603 0
M  V30 8247 H 820.947 4.79972 -2.72637 0
M  V30 8248 H 821.424 4.24599 -1.12306 0
M  V30 8249 H 822.03 3.39453 -2.56225 0
M  V30 8250 N 820.346 1.18468 1.03938 0
M  V30 8251 C 821.757 0.984808 1.58614 0
M  V30 8252 C 822.108 -0.465165 1.90606 0
M  V30 8253 O 821.233 -1.34274 1.69704 0
M  V30 8254 C 821.828 1.78135 2.8819 0
M  V30 8255 C 820.387 1.62579 3.39478 0
M  V30 8256 C 819.534 1.77501 2.13046 0
M  V30 8257 H 822.485 1.32993 0.865944 0
M  V30 8258 H 822.506 1.27119 3.58638 0
M  V30 8259 H 822.018 2.83661 2.64874 0
M  V30 8260 H 820.119 0.59595 3.67803 0
M  V30 8261 H 820.232 2.42463 4.13217 0
M  V30 8262 H 818.596 1.2046 2.24414 0
M  V30 8263 H 819.379 2.84464 1.92185 0
M  V30 8264 N 821.824 -1.22873 0.986916 0
M  V30 8265 C 822.772 -2.26597 0.525043 0
M  V30 8266 C 823.766 -1.64079 -0.421252 0
M  V30 8267 O 824.972 -1.77576 -0.294429 0
M  V30 8268 H 821.347 -0.736606 0.151381 0
M  V30 8269 H 823.318 -2.62909 1.41142 0
M  V30 8270 C 822.067 -3.47374 -0.150542 0
M  V30 8271 H 821.39 -3.95737 0.568541 0
M  V30 8272 H 822.83 -4.21739 -0.437256 0
M  V30 8273 C 821.289 -3.07163 -1.38392 0
M  V30 8274 O 821.819 -3.16028 -2.47971 0
M  V30 8275 N 820.025 -2.62009 -1.25697 0
M  V30 8276 H 819.572 -2.54996 -0.365355 0
M  V30 8277 H 819.53 -2.35472 -2.08327 0
M  V30 8278 N 823.302 -0.75937 -1.38099 0
M  V30 8279 C 824.53 -0.329111 -2.04266 0
M  V30 8280 C 824.945 1.04453 -1.57274 0
M  V30 8281 O 824.302 1.66449 -0.748397 0
M  V30 8282 C 824.353 -0.349192 -3.5981 0
M  V30 8283 O 824.074 -1.66863 -4.05078 0
M  V30 8284 C 825.575 0.0942106 -4.432 0
M  V30 8285 H 822.795 -0.13971 -0.656294 0
M  V30 8286 H 825.339 -1.02984 -1.76677 0
M  V30 8287 H 823.494 0.302846 -3.86214 0
M  V30 8288 H 823.908 -1.59877 -4.9954 0
M  V30 8289 H 825.382 0.0290004 -5.51992 0
M  V30 8290 H 825.859 1.1429 -4.24069 0
M  V30 8291 H 826.465 -0.529171 -4.21995 0
M  V30 8292 N 824.78 1.49157 -0.508906 0
M  V30 8293 C 825.743 2.27784 0.25434 0
M  V30 8294 C 826.743 1.34132 0.88686 0
M  V30 8295 O 827.933 1.5722 0.750168 0
M  V30 8296 C 825.065 3.12347 1.36573 0
M  V30 8297 H 826.258 2.96718 -0.435714 0
M  V30 8298 H 823.811 1.54052 -0.264128 0
M  V30 8299 H 824.546 2.47997 2.08969 0
M  V30 8300 H 824.331 3.81213 0.917543 0
M  V30 8301 H 825.821 3.71712 1.90315 0
M  V30 8302 N 826.258 0.243083 1.55714 0
M  V30 8303 C 827.507 -0.383188 1.98027 0
M  V30 8304 C 827.82 -1.59347 1.13436 0
M  V30 8305 O 829.026 -2.29065 1.45745 0
M  V30 8306 C 827.482 -0.733135 3.52354 0
M  V30 8307 C 827.09 0.455539 4.45678 0
M  V30 8308 C 828.834 -1.32381 4.03331 0
M  V30 8309 C 826.741 0.0819591 5.91343 0
M  V30 8310 H 825.671 -0.146944 0.739543 0
M  V30 8311 H 828.322 0.342697 1.80272 0
M  V30 8312 H 826.704 -1.51704 3.65789 0
M  V30 8313 H 827.878 1.23291 4.44 0
M  V30 8314 H 826.193 0.960886 4.05162 0
M  V30 8315 H 828.79 -1.61658 5.09677 0
M  V30 8316 H 829.133 -2.24698 3.50452 0
M  V30 8317 H 829.666 -0.602885 3.93205 0
M  V30 8318 H 826.405 0.972171 6.48251 0
M  V30 8319 H 825.925 -0.659291 5.96166 0
M  V30 8320 H 827.604 -0.3372 6.46121 0
M  V30 8321 N 827.736 -1.57571 -0.0300757 0
M  V30 8322 C 828.666 -2.0953 -1.03051 0
M  V30 8323 C 829.647 -0.99761 -1.37774 0
M  V30 8324 O 830.832 -1.27279 -1.46676 0
M  V30 8325 C 827.962 -2.57385 -2.33174 0
M  V30 8326 C 826.916 -3.71409 -2.12696 0
M  V30 8327 C 826.242 -4.05467 -3.4857 0
M  V30 8328 C 827.542 -4.99877 -1.51396 0
M  V30 8329 H 829.236 -2.93367 -0.597999 0
M  V30 8330 H 826.782 -1.41127 -0.286203 0
M  V30 8331 H 828.735 -2.92355 -3.03491 0
M  V30 8332 H 827.459 -1.70629 -2.78484 0
M  V30 8333 H 826.118 -3.36786 -1.44813 0
M  V30 8334 H 825.766 -3.15779 -3.91526 0
M  V30 8335 H 825.466 -4.82269 -3.35694 0
M  V30 8336 H 826.99 -4.4297 -4.2025 0
M  V30 8337 H 828.404 -5.3281 -2.11629 0
M  V30 8338 H 826.801 -5.81283 -1.49098 0
M  V30 8339 H 827.871 -4.82522 -0.479676 0
M  V30 8340 N 829.214 0.302327 -1.54673 0
M  V30 8341 C 830.146 1.39443 -1.81902 0
M  V30 8342 C 831.159 1.46891 -0.701914 0
M  V30 8343 O 832.348 1.49233 -0.979369 0
M  V30 8344 C 829.448 2.77824 -1.9408 0
M  V30 8345 C 828.621 2.93324 -3.24468 0
M  V30 8346 C 827.68 4.12196 -3.27079 0
M  V30 8347 O 826.706 4.04344 -4.00617 0
M  V30 8348 N 827.908 5.22768 -2.52376 0
M  V30 8349 H 830.673 1.1644 -2.76155 0
M  V30 8350 H 828.234 0.492392 -1.54231 0
M  V30 8351 H 830.226 3.5559 -1.9323 0
M  V30 8352 H 828.796 2.9378 -1.06828 0
M  V30 8353 H 828.016 2.02682 -3.38103 0
M  V30 8354 H 829.304 3.0059 -4.10516 0
M  V30 8355 H 828.702 5.32027 -1.92259 0
M  V30 8356 H 827.259 5.98874 -2.57281 0
M  V30 8357 N 830.692 1.47107 0.565454 0
M  V30 8358 C 831.917 1.57153 1.35343 0
M  V30 8359 C 832.342 0.219247 1.86818 0
M  V30 8360 O 831.7 -0.803539 1.62521 0
M  V30 8361 C 831.748 2.59387 2.50501 0
M  V30 8362 O 830.852 2.14086 3.52478 0
M  V30 8363 H 830.193 0.528209 0.402357 0
M  V30 8364 H 832.723 1.92821 0.684189 0
M  V30 8365 H 832.733 2.79546 2.97184 0
M  V30 8366 H 831.408 3.57579 2.12391 0
M  V30 8367 H 829.985 2.03991 3.12157 0
M  V30 8368 N 832.17 -0.811516 1.35101 0
M  V30 8369 C 833.395 -1.60499 1.31358 0
M  V30 8370 C 833.82 -1.87793 -0.107383 0
M  V30 8371 O 833.178 -1.46161 -1.07268 0
M  V30 8372 C 833.226 -2.91612 2.12119 0
M  V30 8373 O 832.33 -3.84211 1.49853 0
M  V30 8374 H 831.671 -0.487702 0.450603 0
M  V30 8375 H 834.201 -1.00758 1.7807 0
M  V30 8376 H 834.211 -3.4108 2.23894 0
M  V30 8377 H 832.886 -2.71071 3.15426 0
M  V30 8378 H 831.463 -3.42751 1.46889 0
M  V30 8379 N 833.648 -1.19017 -1.03309 0
M  V30 8380 C 834.578 -0.94772 -2.13402 0
M  V30 8381 C 835.559 0.117383 -1.69694 0
M  V30 8382 O 836.744 -0.0367733 -1.94165 0
M  V30 8383 C 833.874 -0.480977 -3.43953 0
M  V30 8384 C 832.828 -1.48743 -4.01322 0
M  V30 8385 C 832.154 -0.877924 -5.27443 0
M  V30 8386 C 833.454 -2.86642 -4.36616 0
M  V30 8387 H 835.148 -1.86846 -2.33942 0
M  V30 8388 H 832.694 -0.899781 -1.12427 0
M  V30 8389 H 834.647 -0.298677 -4.2034 0
M  V30 8390 H 833.371 0.475348 -3.23122 0
M  V30 8391 H 832.03 -1.65681 -3.27025 0
M  V30 8392 H 831.678 0.0858232 -5.02927 0
M  V30 8393 H 831.378 -1.54996 -5.66789 0
M  V30 8394 H 832.902 -0.706326 -6.06501 0
M  V30 8395 H 834.316 -2.73312 -5.03958 0
M  V30 8396 H 832.713 -3.50599 -4.87032 0
M  V30 8397 H 833.783 -3.39617 -3.46105 0
M  V30 8398 N 835.127 1.22348 -0.993418 0
M  V30 8399 C 836.373 1.91393 -0.67056 0
M  V30 8400 C 836.706 1.77163 0.795428 0
M  V30 8401 O 835.981 1.14084 1.57528 0
M  V30 8402 C 836.264 3.43589 -1.0779 0
M  V30 8403 C 836.117 3.66867 -2.60248 0
M  V30 8404 C 837.436 4.35545 -0.631527 0
M  V30 8405 H 834.555 0.695057 -0.24508 0
M  V30 8406 H 837.197 1.44213 -1.23703 0
M  V30 8407 H 835.347 3.83903 -0.595902 0
M  V30 8408 H 837.019 3.35954 -3.16121 0
M  V30 8409 H 835.262 3.1113 -3.02293 0
M  V30 8410 H 835.933 4.73457 -2.838 0
M  V30 8411 H 838.409 4.0275 -1.04554 0
M  V30 8412 H 837.285 5.40707 -0.944831 0
M  V30 8413 H 837.546 4.39618 0.467779 0
M  V30 8414 N 836.605 0.766683 1.37694 0
M  V30 8415 C 837.538 0.0959288 2.27998 0
M  V30 8416 C 838.516 -0.714493 1.46061 0
M  V30 8417 O 839.7 -0.690337 1.75404 0
M  V30 8418 C 836.827 -0.87057 3.27321 0
M  V30 8419 C 835.873 -0.144771 4.26254 0
M  V30 8420 S 836.706 1.16365 5.22704 0
M  V30 8421 C 837.862 0.200564 6.25579 0
M  V30 8422 H 838.095 0.861666 2.84539 0
M  V30 8423 H 835.628 0.559845 1.43893 0
M  V30 8424 H 837.586 -1.42282 3.85053 0
M  V30 8425 H 836.247 -1.60938 2.69737 0
M  V30 8426 H 835.44 -0.877259 4.96307 0
M  V30 8427 H 835.042 0.33633 3.72485 0
M  V30 8428 H 837.334 -0.628833 6.74575 0
M  V30 8429 H 838.277 0.869117 7.02746 0
M  V30 8430 H 838.685 -0.185972 5.64194 0
M  V30 8431 N 838.083 -1.48885 0.516809 0
M  V30 8432 C 839.331 -2.02088 -0.0220166 0
M  V30 8433 C 839.652 -1.39735 -1.36011 0
M  V30 8434 O 838.922 -0.558119 -1.87781 0
M  V30 8435 H 837.502 -0.746917 -0.0111255 0
M  V30 8436 H 840.164 -1.8274 0.677647 0
M  V30 8437 H 839.26 -3.11786 -0.140067 0
M  V30 8438 N 839.561 -0.251338 -1.55583 0
M  V30 8439 C 840.471 0.656978 -2.25213 0
M  V30 8440 C 841.487 1.18966 -1.26977 0
M  V30 8441 O 842.663 1.22499 -1.59862 0
M  V30 8442 C 839.728 1.83527 -2.94141 0
M  V30 8443 C 838.789 1.34162 -4.07798 0
M  V30 8444 C 838.022 2.46375 -4.73429 0
M  V30 8445 O 838.245 3.65205 -4.38157 0
M  V30 8446 O 837.179 2.15881 -5.61853 0
M  V30 8447 H 841.005 0.0936395 -3.03556 0
M  V30 8448 H 838.59 -0.0196638 -1.49387 0
M  V30 8449 H 840.472 2.52279 -3.3754 0
M  V30 8450 H 839.147 2.38614 -2.18735 0
M  V30 8451 H 838.054 0.621249 -3.68906 0
M  V30 8452 H 839.387 0.836779 -4.85035 0
M  V30 8453 N 841.039 1.57585 0.0217189 0
M  V30 8454 C 841.971 2.03849 1.04777 0
M  V30 8455 C 842.984 0.952558 1.32023 0
M  V30 8456 O 844.173 1.22974 1.29381 0
M  V30 8457 C 841.273 2.40504 2.3877 0
M  V30 8458 C 840.446 3.71566 2.30775 0
M  V30 8459 C 839.505 3.95329 3.47277 0
M  V30 8460 O 838.531 4.66289 3.26441 0
M  V30 8461 N 839.733 3.41536 4.69397 0
M  V30 8462 H 842.498 2.92491 0.653395 0
M  V30 8463 H 840.059 1.60538 0.209527 0
M  V30 8464 H 842.051 2.53532 3.15442 0
M  V30 8465 H 840.621 1.57494 2.70027 0
M  V30 8466 H 839.841 3.68822 1.39155 0
M  V30 8467 H 841.129 4.5753 2.22584 0
M  V30 8468 H 840.527 2.84033 4.89226 0
M  V30 8469 H 839.084 3.59932 5.43408 0
M  V30 8470 N 842.517 -0.29412 1.54831 0
M  V30 8471 C 843.465 -1.38296 1.87021 0
M  V30 8472 C 844.459 -1.5216 0.744557 0
M  V30 8473 O 845.665 -1.54196 0.92864 0
M  V30 8474 H 842.04 -0.462088 0.593278 0
M  V30 8475 H 844.011 -1.08386 2.7802 0
M  V30 8476 C 842.76 -2.74024 2.14023 0
M  V30 8477 H 842.083 -2.6414 3.00117 0
M  V30 8478 H 843.523 -3.49205 2.40482 0
M  V30 8479 C 841.982 -3.23492 0.940982 0
M  V30 8480 O 842.512 -4.01361 0.164937 0
M  V30 8481 N 840.718 -2.80902 0.744467 0
M  V30 8482 H 840.265 -2.17694 1.37721 0
M  V30 8483 H 840.223 -3.14349 -0.0563652 0
M  V30 8484 N 843.995 -1.47404 -0.557645 0
M  V30 8485 C 844.925 -1.62736 -1.67449 0
M  V30 8486 C 845.906 -0.476824 -1.6328 0
M  V30 8487 O 847.091 -0.706108 -1.80908 0
M  V30 8488 C 844.221 -1.641 -3.06086 0
M  V30 8489 C 843.175 -2.78377 -3.25101 0
M  V30 8490 C 842.501 -2.64812 -4.6452 0
M  V30 8491 C 843.801 -4.19971 -3.10518 0
M  V30 8492 H 845.495 -2.56232 -1.54873 0
M  V30 8493 H 843.041 -1.23312 -0.743649 0
M  V30 8494 H 844.994 -1.73417 -3.84063 0
M  V30 8495 H 843.718 -0.671652 -3.19619 0
M  V30 8496 H 842.377 -2.6857 -2.49531 0
M  V30 8497 H 842.025 -1.65906 -4.74852 0
M  V30 8498 H 841.725 -3.41477 -4.78191 0
M  V30 8499 H 843.249 -2.76057 -5.44633 0
M  V30 8500 H 844.663 -4.30757 -3.78313 0
M  V30 8501 H 843.06 -4.97419 -3.35699 0
M  V30 8502 H 844.13 -4.38369 -2.0727 0
M  V30 8503 N 845.473 0.80434 -1.35529 0
M  V30 8504 C 846.405 1.92445 -1.2449 0
M  V30 8505 C 847.418 1.61934 -0.167685 0
M  V30 8506 O 848.607 1.73461 -0.42115 0
M  V30 8507 C 845.707 3.26875 -0.894751 0
M  V30 8508 C 844.88 3.85275 -2.07079 0
M  V30 8509 C 843.939 4.98116 -1.69607 0
M  V30 8510 O 842.965 5.15424 -2.41509 0
M  V30 8511 N 844.167 5.77169 -0.621012 0
M  V30 8512 H 846.932 2.02441 -2.20993 0
M  V30 8513 H 844.493 0.981874 -1.28728 0
M  V30 8514 H 846.485 3.99837 -0.625511 0
M  V30 8515 H 845.055 3.12594 -0.0193306 0
M  V30 8516 H 844.275 3.0448 -2.5037 0
M  V30 8517 H 845.563 4.21024 -2.85685 0
M  V30 8518 H 844.961 5.65695 -0.0236679 0
M  V30 8519 H 843.518 6.50499 -0.411558 0
M  V30 8520 N 846.951 1.19563 1.02676 0
M  V30 8521 C 848.197 1.01108 1.7649 0
M  V30 8522 C 848.552 -0.453152 1.86987 0
M  V30 8523 O 847.845 -1.33209 1.37717 0
M  V30 8524 C 848.039 1.61619 3.18769 0
M  V30 8525 C 847.868 3.13774 3.22142 0
M  V30 8526 C 846.638 3.82687 3.29968 0
M  V30 8527 C 848.836 4.11114 3.09014 0
M  V30 8528 N 846.818 5.2222 3.22737 0
M  V30 8529 C 848.189 5.37259 3.0944 0
M  V30 8530 C 850.244 4.02447 2.93157 0
M  V30 8531 C 848.947 6.55738 2.95636 0
M  V30 8532 C 850.973 5.20538 2.80703 0
M  V30 8533 C 850.335 6.45582 2.81785 0
M  V30 8534 H 846.434 0.424123 0.656996 0
M  V30 8535 H 849.018 1.5157 1.22207 0
M  V30 8536 H 847.189 1.13756 3.71368 0
M  V30 8537 H 848.921 1.36579 3.80957 0
M  V30 8538 H 845.676 3.3349 3.36275 0
M  V30 8539 H 846.1 5.95238 3.22523 0
M  V30 8540 H 850.742 3.0659 2.9114 0
M  V30 8541 H 848.46 7.51778 2.96403 0
M  V30 8542 H 852.046 5.15635 2.69466 0
M  V30 8543 H 850.926 7.35423 2.72254 0
M  V30 8544 N 848.429 -1.21819 0.999893 0
M  V30 8545 C 849.678 -1.90066 0.675108 0
M  V30 8546 C 849.991 -1.78624 -0.79705 0
M  V30 8547 O 851.197 -2.41851 -1.23371 0
M  V30 8548 C 849.653 -3.40795 1.15702 0
M  V30 8549 C 849.261 -3.60859 2.6549 0
M  V30 8550 C 851.005 -4.147 0.906889 0
M  V30 8551 C 848.912 -5.05324 3.07248 0
M  V30 8552 H 847.842 -0.711763 0.248815 0
M  V30 8553 H 850.493 -1.3792 1.21038 0
M  V30 8554 H 848.875 -3.92164 0.549832 0
M  V30 8555 H 850.049 -3.19951 3.31614 0
M  V30 8556 H 848.364 -3.00298 2.88461 0
M  V30 8557 H 850.961 -5.21187 1.1945 0
M  V30 8558 H 851.304 -4.16004 -0.156923 0
M  V30 8559 H 851.837 -3.69379 1.47662 0
M  V30 8560 H 848.576 -5.09164 4.12834 0
M  V30 8561 H 848.096 -5.47108 2.45832 0
M  V30 8562 H 849.775 -5.73797 2.98941 0
M  V30 8563 N 849.908 -0.773975 -1.37286 0
M  V30 8564 C 850.838 -0.175782 -2.32837 0
M  V30 8565 C 851.819 0.680603 -1.5589 0
M  V30 8566 O 853.004 0.617607 -1.84117 0
M  V30 8567 C 850.134 0.702388 -3.40123 0
M  V30 8568 C 849.088 -0.0528687 -4.27967 0
M  V30 8569 C 848.414 0.944891 -5.26285 0
M  V30 8570 C 849.714 -1.23316 -5.07534 0
M  V30 8571 H 851.408 -0.974016 -2.83114 0
M  V30 8572 H 848.954 -0.469826 -1.3612 0
M  V30 8573 H 850.907 1.13069 -4.05947 0
M  V30 8574 H 849.631 1.53316 -2.88378 0
M  V30 8575 H 848.29 -0.461978 -3.63678 0
M  V30 8576 H 847.938 1.77028 -4.70819 0
M  V30 8577 H 847.638 0.444079 -5.8592 0
M  V30 8578 H 849.162 1.37209 -5.94984 0
M  V30 8579 H 850.576 -0.881395 -5.66484 0
M  V30 8580 H 848.973 -1.66621 -5.76504 0
M  V30 8581 H 850.043 -2.03617 -4.40077 0
M  V30 8582 N 851.386 1.48609 -0.524698 0
M  V30 8583 C 852.334 2.31205 0.254398 0
M  V30 8584 C 853.328 1.40894 0.940491 0
M  V30 8585 O 854.534 1.57827 0.865478 0
M  V30 8586 H 850.909 0.745199 0.100907 0
M  V30 8587 H 852.88 2.94804 -0.461876 0
M  V30 8588 C 851.629 3.2282 1.2916 0
M  V30 8589 H 850.952 3.92255 0.773074 0
M  V30 8590 H 852.392 3.83508 1.80825 0
M  V30 8591 C 850.851 2.4406 2.32242 0
M  V30 8592 O 851.381 2.16163 3.3858 0
M  V30 8593 N 849.587 2.05651 2.05319 0
M  V30 8594 H 849.134 2.28539 1.18861 0
M  V30 8595 H 849.092 1.53265 2.74513 0
M  V30 8596 N 852.864 0.259585 1.55447 0
M  V30 8597 C 854.112 -0.360893 1.98852 0
M  V30 8598 C 854.433 -1.57535 1.14924 0
M  V30 8599 O 853.703 -1.94485 0.235025 0
M  V30 8600 H 852.283 -0.136332 0.734454 0
M  V30 8601 H 854.945 0.361319 1.91522 0
M  V30 8602 H 854.041 -0.661388 3.05012 0
M  V30 8603 N 854.342 -1.57594 -0.0133615 0
M  V30 8604 C 855.305 -2.06534 -0.993799 0
M  V30 8605 C 856.305 -0.972267 -1.28077 0
M  V30 8606 O 857.495 -1.23537 -1.22818 0
M  V30 8607 C 854.627 -2.49554 -2.3224 0
M  V30 8608 H 855.82 -2.94419 -0.570741 0
M  V30 8609 H 853.373 -1.54113 -0.260546 0
M  V30 8610 H 854.108 -1.64872 -2.79263 0
M  V30 8611 H 853.893 -3.29371 -2.12737 0
M  V30 8612 H 855.383 -2.8779 -3.026 0
M  V30 8613 N 855.82 0.285905 -1.54985 0
M  V30 8614 C 857.048 1.03776 -1.78992 0
M  V30 8615 C 857.463 1.80402 -0.556814 0
M  V30 8616 O 856.82 1.76242 0.473801 0
M  V30 8617 C 856.871 2.0065 -3.00702 0
M  V30 8618 O 856.592 1.27131 -4.19249 0
M  V30 8619 C 858.093 2.87753 -3.37214 0
M  V30 8620 H 855.313 0.307126 -0.596586 0
M  V30 8621 H 857.857 0.3206 -2.01971 0
M  V30 8622 H 856.012 2.67847 -2.79887 0
M  V30 8623 H 856.426 1.92316 -4.8797 0
M  V30 8624 H 857.9 3.51548 -4.2558 0
M  V30 8625 H 858.377 3.56848 -2.56039 0
M  V30 8626 H 858.983 2.26065 -3.60242 0
M  V30 8627 N 857.298 1.47698 0.54982 0
M  V30 8628 C 858.523 1.58579 1.33669 0
M  V30 8629 C 858.948 0.239049 1.86575 0
M  V30 8630 O 858.306 -0.786256 1.63364 0
M  V30 8631 C 858.354 2.62029 2.47736 0
M  V30 8632 O 857.458 2.17813 3.50188 0
M  V30 8633 H 856.799 0.532447 0.396732 0
M  V30 8634 H 859.329 1.93536 0.6637 0
M  V30 8635 H 859.339 2.82682 2.94202 0
M  V30 8636 H 858.014 3.59812 2.08586 0
M  V30 8637 H 856.591 2.07291 3.09976 0
M  V30 8638 N 858.776 -0.797141 1.35954 0
M  V30 8639 C 860.001 -1.59097 1.33053 0
M  V30 8640 C 860.426 -1.87897 -0.0874592 0
M  V30 8641 O 859.784 -1.47291 -1.05712 0
M  V30 8642 C 859.832 -2.89346 2.152 0
M  V30 8643 O 858.936 -3.826 1.5392 0
M  V30 8644 H 858.277 -0.482895 0.45575 0
M  V30 8645 H 860.807 -0.988633 1.79129 0
M  V30 8646 H 860.817 -3.38686 2.27499 0
M  V30 8647 H 859.492 -2.6771 3.18283 0
M  V30 8648 H 858.069 -3.41174 1.50516 0
M  V30 8649 N 860.254 -1.20106 -1.0204 0
M  V30 8650 C 861.665 -1.00992 -1.57027 0
M  V30 8651 C 862.016 0.434782 -1.91322 0
M  V30 8652 O 861.141 1.31557 -1.71819 0
M  V30 8653 C 861.736 -1.82697 -2.85319 0
M  V30 8654 C 860.295 -1.67959 -3.36848 0
M  V30 8655 C 859.442 -1.80868 -2.10195 0
M  V30 8656 H 862.393 -1.34354 -0.844676 0
M  V30 8657 H 862.414 -1.32809 -3.5657 0
M  V30 8658 H 861.926 -2.87839 -2.60328 0
M  V30 8659 H 860.027 -0.654389 -3.66809 0
M  V30 8660 H 860.14 -2.49006 -4.09308 0
M  V30 8661 H 858.504 -1.24015 -2.22469 0
M  V30 8662 H 859.287 -2.87486 -1.87635 0
M  V30 8663 N 861.732 1.21287 -1.00634 0
M  V30 8664 C 862.664 2.2308 -0.526094 0
M  V30 8665 C 863.677 1.58157 0.386031 0
M  V30 8666 O 864.866 1.77528 0.186016 0
M  V30 8667 C 861.966 3.37937 0.255289 0
M  V30 8668 C 861.139 4.32449 -0.656236 0
M  V30 8669 C 860.198 5.26145 0.0757714 0
M  V30 8670 O 859.224 5.66601 -0.543325 0
M  V30 8671 N 860.426 5.6449 1.35391 0
M  V30 8672 H 863.191 2.64913 -1.40147 0
M  V30 8673 H 860.752 1.35724 -0.882641 0
M  V30 8674 H 862.744 3.97614 0.753977 0
M  V30 8675 H 861.314 2.95078 1.03187 0
M  V30 8676 H 860.534 3.70892 -1.3354 0
M  V30 8677 H 861.822 4.92526 -1.27653 0
M  V30 8678 H 861.22 5.33617 1.878 0
M  V30 8679 H 859.777 6.26524 1.79753 0
M  V30 8680 N 863.21 0.781244 1.36873 0
M  V30 8681 C 864.158 0.161889 2.32036 0
M  V30 8682 C 865.152 -0.674225 1.55405 0
M  V30 8683 O 866.358 -0.570223 1.70729 0
M  V30 8684 H 862.733 0.0335702 0.75125 0
M  V30 8685 H 864.704 0.980078 2.81846 0
M  V30 8686 C 863.453 -0.695352 3.40676 0
M  V30 8687 H 862.776 -0.0613425 3.99753 0
M  V30 8688 H 864.216 -1.09553 4.09602 0
M  V30 8689 C 862.675 -1.85008 2.81556 0
M  V30 8690 O 863.205 -2.94616 2.73065 0
M  V30 8691 N 861.411 -1.65364 2.38962 0
M  V30 8692 H 860.958 -0.762106 2.46068 0
M  V30 8693 H 860.916 -2.42789 1.99752 0
M  V30 8694 N 864.689 -1.48329 0.532571 0
M  V30 8695 C 865.621 -2.27652 -0.265931 0
M  V30 8696 C 866.634 -1.35522 -0.902083 0
M  V30 8697 O 867.823 -1.60552 -0.780088 0
M  V30 8698 C 864.923 -3.0899 -1.39207 0
M  V30 8699 C 864.096 -4.28915 -0.857349 0
M  V30 8700 C 863.155 -4.92044 -1.86493 0
M  V30 8701 O 862.181 -5.51181 -1.42084 0
M  V30 8702 N 863.383 -4.84518 -3.19723 0
M  V30 8703 H 866.148 -2.96821 0.414389 0
M  V30 8704 H 863.709 -1.57684 0.367066 0
M  V30 8705 H 865.701 -3.48091 -2.06433 0
M  V30 8706 H 864.271 -2.42224 -1.97601 0
M  V30 8707 H 863.491 -3.94199 -0.00901765 0
M  V30 8708 H 864.779 -5.0654 -0.479025 0
M  V30 8709 H 864.177 -4.37628 -3.58467 0
M  V30 8710 H 862.734 -5.27712 -3.82575 0
M  V30 8711 N 866.167 -0.267825 -1.55308 0
M  V30 8712 C 867.077 0.633055 -2.25897 0
M  V30 8713 C 868.093 1.17613 -1.28231 0
M  V30 8714 O 869.269 1.20797 -1.61153 0
M  V30 8715 C 866.334 1.80397 -2.96071 0
M  V30 8716 C 865.395 1.29829 -4.09198 0
M  V30 8717 C 864.628 2.4134 -4.76016 0
M  V30 8718 O 864.851 3.60537 -4.42006 0
M  V30 8719 O 863.785 2.09909 -5.64111 0
M  V30 8720 H 867.611 0.0614381 -3.03638 0
M  V30 8721 H 865.196 -0.0355072 -1.49358 0
M  V30 8722 H 867.078 2.48685 -3.40197 0
M  V30 8723 H 865.753 2.36281 -2.21253 0
M  V30 8724 H 864.66 0.582086 -3.69544 0
M  V30 8725 H 865.993 0.785288 -4.85895 0
M  V30 8726 N 867.645 1.57599 0.00500368 0
M  V30 8727 C 868.577 2.04949 1.02609 0
M  V30 8728 C 869.59 0.966507 1.31006 0
M  V30 8729 O 870.779 1.2434 1.2807 0
M  V30 8730 C 867.879 2.43023 2.36206 0
M  V30 8731 C 867.052 3.73993 2.26821 0
M  V30 8732 C 866.111 3.9899 3.43065 0
M  V30 8733 O 865.137 4.69725 3.21477 0
M  V30 8734 N 866.339 3.46496 4.65748 0
M  V30 8735 H 869.104 2.93167 0.622336 0
M  V30 8736 H 866.665 1.60752 0.192488 0
M  V30 8737 H 868.657 2.56863 3.12735 0
M  V30 8738 H 867.227 1.60349 2.68341 0
M  V30 8739 H 866.447 3.70277 1.35235 0
M  V30 8740 H 867.735 4.59865 2.17719 0
M  V30 8741 H 867.133 2.89206 4.86186 0
M  V30 8742 H 865.69 3.65675 5.3956 0
M  V30 8743 N 869.123 -0.277682 1.55134 0
M  V30 8744 C 870.372 -1.00766 1.74726 0
M  V30 8745 C 870.685 -1.87617 0.553092 0
M  V30 8746 O 871.891 -2.64058 0.631318 0
M  V30 8747 C 870.347 -1.84147 3.09221 0
M  V30 8748 C 869.955 -1.02186 4.3619 0
M  V30 8749 C 871.699 -2.56604 3.38164 0
M  V30 8750 C 869.606 -1.84978 5.61727 0
M  V30 8751 H 868.536 -0.379948 0.651273 0
M  V30 8752 H 871.187 -0.263543 1.81598 0
M  V30 8753 H 869.569 -2.62637 2.96375 0
M  V30 8754 H 870.743 -0.281459 4.5994 0
M  V30 8755 H 869.058 -0.412054 4.14356 0
M  V30 8756 H 871.655 -3.18942 4.29162 0
M  V30 8757 H 871.998 -3.26647 2.58085 0
M  V30 8758 H 872.531 -1.85147 3.52087 0
M  V30 8759 H 869.27 -1.19365 6.4454 0
M  V30 8760 H 868.79 -2.56628 5.42128 0
M  V30 8761 H 870.469 -2.42458 5.99853 0
M  V30 8762 N 870.601 -1.47988 -0.541979 0
M  V30 8763 C 871.533 -1.5769 -1.66332 0
M  V30 8764 C 872.546 -0.461994 -1.56107 0
M  V30 8765 O 873.735 -0.732306 -1.62787 0
M  V30 8766 C 870.835 -1.47939 -3.04905 0
M  V30 8767 C 870.008 -2.74263 -3.40733 0
M  V30 8768 C 869.067 -2.58133 -4.58534 0
M  V30 8769 O 868.093 -3.31991 -4.62354 0
M  V30 8770 N 869.295 -1.6696 -5.55972 0
M  V30 8771 H 872.06 -2.54389 -1.5845 0
M  V30 8772 H 869.621 -1.4456 -0.728979 0
M  V30 8773 H 871.613 -1.34861 -3.81569 0
M  V30 8774 H 870.183 -0.592626 -3.06931 0
M  V30 8775 H 869.403 -3.01992 -2.53366 0
M  V30 8776 H 870.691 -3.58094 -3.6145 0
M  V30 8777 H 870.089 -1.06134 -5.55655 0
M  V30 8778 H 868.646 -1.59826 -6.31901 0
M  V30 8779 N 872.079 0.78992 -1.36375 0
M  V30 8780 C 873.011 1.91113 -1.26524 0
M  V30 8781 C 874.024 1.61747 -0.184851 0
M  V30 8782 O 875.213 1.73004 -0.439524 0
M  V30 8783 C 872.313 3.25908 -0.92937 0
M  V30 8784 C 871.486 3.83057 -2.11154 0
M  V30 8785 C 870.545 4.96289 -1.74881 0
M  V30 8786 O 869.571 5.12834 -2.46962 0
M  V30 8787 N 870.773 5.76478 -0.682193 0
M  V30 8788 H 873.538 2.00085 -2.23128 0
M  V30 8789 H 871.099 0.968165 -1.29762 0
M  V30 8790 H 873.091 3.99151 -0.667884 0
M  V30 8791 H 871.661 3.12556 -0.0524843 0
M  V30 8792 H 870.881 3.01808 -2.53586 0
M  V30 8793 H 872.169 4.1797 -2.90135 0
M  V30 8794 H 871.567 5.65638 -0.0836661 0
M  V30 8795 H 870.124 6.50026 -0.480529 0
M  V30 8796 N 873.557 1.20646 1.01402 0
M  V30 8797 C 874.52 0.959314 2.08158 0
M  V30 8798 C 875.52 -0.0661558 1.60664 0
M  V30 8799 O 876.71 0.170177 1.73367 0
M  V30 8800 C 873.842 0.444785 3.37986 0
M  V30 8801 H 875.035 1.90631 2.31517 0
M  V30 8802 H 872.588 1.02219 1.18241 0
M  V30 8803 H 873.323 -0.507553 3.20304 0
M  V30 8804 H 873.108 1.18435 3.73785 0
M  V30 8805 H 874.598 0.291443 4.16582 0
M  V30 8806 N 875.035 -1.20752 1.01276 0
M  V30 8807 C 876.26 -1.94547 0.718769 0
M  V30 8808 C 876.685 -1.7404 -0.713563 0
M  V30 8809 O 876.043 -1.03221 -1.49047 0
M  V30 8810 C 876.091 -3.44823 1.05497 0
M  V30 8811 O 875.195 -4.12072 0.164516 0
M  V30 8812 H 874.536 -0.607931 0.267051 0
M  V30 8813 H 877.066 -1.53292 1.35509 0
M  V30 8814 H 877.076 -3.95427 1.00507 0
M  V30 8815 H 875.751 -3.59072 2.09858 0
M  V30 8816 H 874.328 -3.71909 0.271615 0
M  V30 8817 N 876.513 -0.788492 -1.36457 0
M  V30 8818 C 877.46 -0.18435 -2.30063 0
M  V30 8819 C 878.43 0.67128 -1.51931 0
M  V30 8820 O 879.615 0.620152 -1.8044 0
M  V30 8821 C 876.755 0.675596 -3.38422 0
M  V30 8822 C 875.868 -0.198475 -4.31544 0
M  V30 8823 C 875.003 0.667757 -5.26986 0
M  V30 8824 C 874.042 -0.207825 -6.11747 0
M  V30 8825 N 873.179 0.617335 -6.99381 0
M  V30 8826 H 878.019 -0.988056 -2.81143 0
M  V30 8827 H 875.556 -0.498815 -1.38384 0
M  V30 8828 H 877.514 1.18916 -3.99894 0
M  V30 8829 H 876.144 1.44474 -2.88664 0
M  V30 8830 H 875.196 -0.829995 -3.71235 0
M  V30 8831 H 876.508 -0.873163 -4.91098 0
M  V30 8832 H 875.662 1.24716 -5.93743 0
M  V30 8833 H 874.401 1.37607 -4.67884 0
M  V30 8834 H 873.406 -0.799638 -5.43954 0
M  V30 8835 H 874.631 -0.913729 -6.72925 0
M  V30 8836 H 872.577 1.30996 -6.42788 0
M  V30 8837 H 872.494 0.000307255 -7.56 0
M  V30 8838 H 873.762 1.1806 -7.70508 0
M  V30 8839 N 877.991 1.48044 -0.54043 0
M  V30 8840 C 879.237 2.02797 -0.0101718 0
M  V30 8841 C 879.57 1.41565 1.32939 0
M  V30 8842 O 878.845 0.565139 1.86109 0
M  V30 8843 C 879.128 3.59959 0.100758 0
M  V30 8844 C 878.981 4.31654 -1.26471 0
M  V30 8845 C 880.3 4.32347 0.822455 0
M  V30 8846 H 877.419 0.736982 -0.00517052 0
M  V30 8847 H 880.061 1.76656 -0.69948 0
M  V30 8848 H 878.211 3.82363 0.687824 0
M  V30 8849 H 879.883 4.20639 -1.89369 0
M  V30 8850 H 878.126 3.92663 -1.84386 0
M  V30 8851 H 878.797 5.401 -1.13998 0
M  V30 8852 H 881.273 4.14835 0.324164 0
M  V30 8853 H 880.149 5.41978 0.868993 0
M  V30 8854 H 880.41 4.00369 1.87501 0
M  V30 8855 N 879.47 0.276058 1.55163 0
M  V30 8856 C 880.38 -0.621066 2.2623 0
M  V30 8857 C 881.396 -1.16931 1.28853 0
M  V30 8858 O 882.572 -1.1994 1.61791 0
M  V30 8859 C 879.637 -1.78824 2.97023 0
M  V30 8860 C 878.698 -1.27657 4.09881 0
M  V30 8861 C 877.931 -2.38812 4.77289 0
M  V30 8862 O 878.154 -3.58188 4.43912 0
M  V30 8863 O 877.088 -2.06915 5.65217 0
M  V30 8864 H 880.914 -0.0453346 3.03666 0
M  V30 8865 H 878.499 0.0434275 1.49337 0
M  V30 8866 H 880.381 -2.46877 3.41511 0
M  V30 8867 H 879.056 -2.35104 2.22503 0
M  V30 8868 H 877.963 -0.56248 3.69847 0
M  V30 8869 H 879.296 -0.759509 4.86305 0
M  V30 8870 N 880.948 -1.576 0.00335426 0
M  V30 8871 C 881.895 -2.08632 -0.986975 0
M  V30 8872 C 882.865 -0.982491 -1.33927 0
M  V30 8873 O 884.05 -1.25513 -1.43705 0
M  V30 8874 C 881.19 -2.59705 -2.27261 0
M  V30 8875 C 880.303 -3.84002 -1.97905 0
M  V30 8876 C 879.438 -4.23563 -3.20574 0
M  V30 8877 C 878.477 -5.40688 -2.8692 0
M  V30 8878 N 877.614 -5.75526 -4.02136 0
M  V30 8879 H 882.454 -2.92977 -0.544855 0
M  V30 8880 H 879.991 -1.44831 -0.257376 0
M  V30 8881 H 881.949 -2.87395 -3.02423 0
M  V30 8882 H 880.579 -1.7823 -2.69136 0
M  V30 8883 H 879.631 -3.63199 -1.13096 0
M  V30 8884 H 880.943 -4.69261 -1.69102 0
M  V30 8885 H 880.097 -4.52554 -4.04079 0
M  V30 8886 H 878.836 -3.37019 -3.52518 0
M  V30 8887 H 877.841 -5.11417 -2.01822 0
M  V30 8888 H 879.066 -6.2891 -2.5622 0
M  V30 8889 H 877.012 -4.9194 -4.33971 0
M  V30 8890 H 876.929 -6.55367 -3.76869 0
M  V30 8891 H 878.197 -6.0911 -4.8642 0
M  V30 8892 N 882.426 0.269451 -1.5528 0
M  V30 8893 C 883.672 1.00206 -1.76314 0
M  V30 8894 C 884.005 1.85812 -0.564581 0
M  V30 8895 O 883.28 1.89509 0.437769 0
M  V30 8896 C 883.563 1.88163 -3.07029 0
M  V30 8897 C 883.416 1.05527 -4.37246 0
M  V30 8898 C 884.735 2.8681 -3.33808 0
M  V30 8899 H 881.854 0.36288 -0.641473 0
M  V30 8900 H 884.496 0.274188 -1.88011 0
M  V30 8901 H 882.646 2.50224 -2.97187 0
M  V30 8902 H 884.318 0.455094 -4.5905 0
M  V30 8903 H 882.561 0.358842 -4.32313 0
M  V30 8904 H 883.232 1.70397 -5.25042 0
M  V30 8905 H 885.708 2.34884 -3.43466 0
M  V30 8906 H 884.584 3.45492 -4.26528 0
M  V30 8907 H 884.845 3.62118 -2.5362 0
M  V30 8908 N 883.904 1.48273 0.534124 0
M  V30 8909 C 885.151 1.56079 1.29017 0
M  V30 8910 C 885.479 0.232912 1.931 0
M  V30 8911 O 884.734 -0.77642 1.79639 0
M  V30 8912 C 885.033 2.64468 2.40398 0
M  V30 8913 C 884.699 4.07034 1.93995 0
M  V30 8914 C 883.361 4.45838 1.81058 0
M  V30 8915 C 885.713 4.96395 1.58877 0
M  V30 8916 C 883.041 5.71812 1.31331 0
M  V30 8917 C 885.393 6.22854 1.10614 0
M  V30 8918 C 884.057 6.60518 0.962895 0
M  V30 8919 H 883.327 0.571135 0.472108 0
M  V30 8920 H 885.974 1.81973 0.5965 0
M  V30 8921 H 884.279 2.32419 3.15418 0
M  V30 8922 H 885.976 2.67725 2.98537 0
M  V30 8923 H 882.566 3.76387 2.05015 0
M  V30 8924 H 886.75 4.67096 1.67734 0
M  V30 8925 H 882.006 5.99722 1.18924 0
M  V30 8926 H 886.18 6.91495 0.825095 0
M  V30 8927 H 883.807 7.58019 0.575369 0
M  V30 8928 N 885.382 -0.782676 1.36792 0
M  V30 8929 C 886.629 -1.54083 1.31395 0
M  V30 8930 C 886.957 -1.94217 -0.104797 0
M  V30 8931 O 886.212 -1.63491 -1.0756 0
M  V30 8932 C 886.511 -2.82542 2.18872 0
M  V30 8933 C 886.177 -2.61512 3.67317 0
M  V30 8934 C 884.839 -2.55486 4.07775 0
M  V30 8935 C 887.191 -2.42389 4.61407 0
M  V30 8936 C 884.519 -2.28311 5.40454 0
M  V30 8937 C 886.871 -2.1674 5.94312 0
M  V30 8938 C 885.535 -2.09151 6.33887 0
M  V30 8939 H 884.805 -0.563829 0.48081 0
M  V30 8940 H 887.452 -0.902436 1.68903 0
M  V30 8941 H 885.757 -3.50883 1.74323 0
M  V30 8942 H 887.454 -3.40367 2.12017 0
M  V30 8943 H 884.044 -2.67062 3.35225 0
M  V30 8944 H 888.228 -2.46043 4.31018 0
M  V30 8945 H 883.484 -2.20922 5.70091 0
M  V30 8946 H 887.658 -2.0094 6.6678 0
M  V30 8947 H 885.285 -1.87857 7.36623 0
M  V30 8948 N 886.86 -1.21182 -1.00761 0
M  V30 8949 C 888.088 -1.05335 -1.78079 0
M  V30 8950 C 888.503 0.396988 -1.84579 0
M  V30 8951 O 887.86 1.27548 -1.30529 0
M  V30 8952 C 887.911 -1.64089 -3.22113 0
M  V30 8953 O 887.632 -3.03448 -3.15992 0
M  V30 8954 C 889.133 -1.53318 -4.15943 0
M  V30 8955 H 886.353 -0.37005 -0.559736 0
M  V30 8956 H 888.897 -1.60463 -1.26775 0
M  V30 8957 H 887.052 -1.13059 -3.70535 0
M  V30 8958 H 887.466 -3.31492 -4.06465 0
M  V30 8959 H 888.94 -1.99174 -5.14814 0
M  V30 8960 H 889.417 -0.487166 -4.3649 0
M  V30 8961 H 890.023 -2.03582 -3.73409 0
M  V30 8962 N 888.338 1.20213 -1.01915 0
M  V30 8963 C 889.566 1.93622 -0.729255 0
M  V30 8964 C 889.981 1.74923 0.710444 0
M  V30 8965 O 889.338 1.06484 1.48214 0
M  V30 8966 C 889.389 3.45651 -1.05865 0
M  V30 8967 O 889.11 3.63741 -2.44181 0
M  V30 8968 C 890.611 4.36201 -0.790176 0
M  V30 8969 H 887.831 0.615333 -0.267594 0
M  V30 8970 H 890.375 1.52633 -1.36101 0
M  V30 8971 H 888.53 3.84511 -0.47225 0
M  V30 8972 H 888.944 4.57702 -2.56143 0
M  V30 8973 H 890.418 5.41516 -1.07071 0
M  V30 8974 H 890.895 4.38334 0.275609 0
M  V30 8975 H 891.501 4.03008 -1.35885 0
M  V30 8976 N 889.816 0.795718 1.36037 0
M  V30 8977 C 890.779 0.204318 2.28287 0
M  V30 8978 C 891.779 -0.602017 1.49105 0
M  V30 8979 O 892.969 -0.422089 1.69009 0
M  V30 8980 C 890.101 -0.716431 3.33287 0
M  V30 8981 H 891.294 1.01781 2.821 0
M  V30 8982 H 888.847 0.565588 1.45708 0
M  V30 8983 H 889.582 -1.55403 2.84641 0
M  V30 8984 H 889.367 -0.140096 3.9185 0
M  V30 8985 H 890.857 -1.12488 4.02164 0
M  V30 8986 N 891.294 -1.47756 0.548274 0
M  V30 8987 C 892.54 -2.02789 0.0209265 0
M  V30 8988 C 892.873 -1.42268 -1.32187 0
M  V30 8989 O 892.148 -0.575001 -1.85806 0
M  V30 8990 C 892.431 -3.60007 -0.0816674 0
M  V30 8991 C 892.284 -4.30977 1.28759 0
M  V30 8992 C 893.603 -4.32777 -0.799515 0
M  V30 8993 H 890.722 -0.736944 0.00907884 0
M  V30 8994 H 893.364 -1.76282 0.708839 0
M  V30 8995 H 891.514 -3.82722 -0.667537 0
M  V30 8996 H 893.186 -4.19629 1.91597 0
M  V30 8997 H 891.429 -3.9168 1.86466 0
M  V30 8998 H 892.1 -5.39488 1.16861 0
M  V30 8999 H 894.576 -4.15001 -0.30216 0
M  V30 9000 H 893.452 -5.42431 -0.840239 0
M  V30 9001 H 893.713 -4.01358 -1.85375 0
M  V30 9002 N 892.772 -0.284283 -1.55015 0
M  V30 9003 C 894.183 0.211681 -1.85496 0
M  V30 9004 C 894.534 1.54735 -1.2063 0
M  V30 9005 O 893.659 2.10594 -0.497918 0
M  V30 9006 C 894.254 0.390864 -3.36538 0
M  V30 9007 C 892.813 0.831055 -3.67111 0
M  V30 9008 C 891.96 -0.0703581 -2.77211 0
M  V30 9009 H 894.911 -0.505803 -1.50424 0
M  V30 9010 H 894.932 1.22803 -3.60138 0
M  V30 9011 H 894.444 -0.581409 -3.8372 0
M  V30 9012 H 892.545 1.81447 -3.25434 0
M  V30 9013 H 892.658 0.662026 -4.74504 0
M  V30 9014 H 891.022 0.447528 -2.50737 0
M  V30 9015 H 891.805 -1.03868 -3.2721 0
M  V30 9016 N 894.251 1.57596 -0.0117121 0
M  V30 9017 C 895.497 1.91355 0.671661 0
M  V30 9018 C 895.83 0.886818 1.72769 0
M  V30 9019 O 895.105 -0.0928813 1.94278 0
M  V30 9020 C 895.388 3.35657 1.30409 0
M  V30 9021 C 895.241 4.49055 0.2588 0
M  V30 9022 C 896.56 3.79595 2.22701 0
M  V30 9023 H 893.679 0.695893 0.242698 0
M  V30 9024 H 896.321 1.89887 -0.0654071 0
M  V30 9025 H 894.471 3.37038 1.9323 0
M  V30 9026 H 896.143 4.59809 -0.370631 0
M  V30 9027 H 894.386 4.31785 -0.417672 0
M  V30 9028 H 895.057 5.4701 0.740578 0
M  V30 9029 H 897.533 3.7984 1.69885 0
M  V30 9030 H 896.409 4.81292 2.63912 0
M  V30 9031 H 896.67 3.14118 3.11098 0
M  V30 9032 N 895.729 -0.261212 1.5542 0
M  V30 9033 C 896.692 -1.30645 1.8832 0
M  V30 9034 C 897.692 -1.41782 0.758588 0
M  V30 9035 O 898.882 -1.40729 1.02669 0
M  V30 9036 C 896.014 -2.6862 2.09895 0
M  V30 9037 H 897.207 -1.02698 2.81768 0
M  V30 9038 H 894.76 -0.499838 1.48092 0
M  V30 9039 H 895.495 -3.0173 1.18868 0
M  V30 9040 H 895.28 -2.61921 2.91787 0
M  V30 9041 H 896.77 -3.44121 2.36581 0
M  V30 9042 N 897.207 -1.48554 -0.526253 0
M  V30 9043 C 898.432 -1.60686 -1.31129 0
M  V30 9044 C 898.857 -0.268701 -1.86171 0
M  V30 9045 O 898.215 0.760167 -1.64594 0
M  V30 9046 C 898.263 -2.65938 -2.43536 0
M  V30 9047 O 897.367 -2.23356 -3.46678 0
M  V30 9048 H 896.708 -0.538691 -0.388211 0
M  V30 9049 H 899.238 -1.94567 -0.632826 0
M  V30 9050 H 899.248 -2.87327 -2.89668 0
M  V30 9051 H 897.923 -3.63085 -2.02835 0
M  V30 9052 H 896.5 -2.12196 -3.06639 0
M  V30 9053 N 898.685 0.775411 -1.37205 0
M  V30 9054 C 899.91 1.5696 -1.35567 0
M  V30 9055 C 900.335 1.88012 0.0575554 0
M  V30 9056 O 899.693 1.48954 1.03355 0
M  V30 9057 C 899.741 2.85886 -2.19776 0
M  V30 9058 O 898.845 3.80103 -1.59987 0
M  V30 9059 H 898.186 0.475583 -0.463375 0
M  V30 9060 H 900.716 0.96001 -1.80679 0
M  V30 9061 H 900.726 3.35024 -2.32859 0
M  V30 9062 H 899.401 2.62613 -3.22502 0
M  V30 9063 H 897.978 3.38736 -1.55924 0
M  V30 9064 N 900.163 1.21714 1.00117 0
M  V30 9065 C 901.574 1.03477 1.55401 0
M  V30 9066 C 901.925 -0.40429 1.91989 0
M  V30 9067 O 901.05 -1.28807 1.7389 0
M  V30 9068 C 901.645 1.87213 2.82377 0
M  V30 9069 C 900.204 1.73297 3.34133 0
M  V30 9070 C 899.351 1.84189 2.07291 0
M  V30 9071 H 902.302 1.3568 0.823195 0
M  V30 9072 H 902.323 1.38465 3.54412 0
M  V30 9073 H 901.835 2.91944 2.55715 0
M  V30 9074 H 899.936 0.712662 3.65721 0
M  V30 9075 H 900.049 2.55486 4.05294 0
M  V30 9076 H 898.413 1.27538 2.20468 0
M  V30 9077 H 899.196 2.90435 1.83037 0
M  V30 9078 N 901.641 -1.19671 1.02551 0
M  V30 9079 C 902.889 -1.88894 0.71858 0
M  V30 9080 C 903.21 -1.79797 -0.754856 0
M  V30 9081 O 902.48 -1.20621 -1.54362 0
M  V30 9082 H 901.06 -0.699244 0.262806 0
M  V30 9083 H 903.722 -1.45298 1.29902 0
M  V30 9084 H 902.818 -2.95309 1.00989 0
M  V30 9085 N 903.119 -0.802921 -1.35613 0
M  V30 9086 C 904.344 -0.392846 -2.03645 0
M  V30 9087 C 904.769 0.987075 -1.6012 0
M  V30 9088 O 904.127 1.63849 -0.776101 0
M  V30 9089 C 904.175 -0.480208 -3.57388 0
M  V30 9090 O 903.279 0.507751 -4.09262 0
M  V30 9091 H 902.62 -0.16464 -0.643265 0
M  V30 9092 H 905.15 -1.08779 -1.73287 0
M  V30 9093 H 905.16 -0.348683 -4.06507 0
M  V30 9094 H 903.835 -1.48675 -3.88418 0
M  V30 9095 H 902.412 0.336769 -3.71376 0
M  V30 9096 N 904.597 1.47463 -0.556102 0
M  V30 9097 C 905.822 2.07371 -0.0344729 0
M  V30 9098 C 906.247 1.40621 1.2493 0
M  V30 9099 O 905.605 0.48082 1.74808 0
M  V30 9100 C 905.653 3.60306 0.145563 0
M  V30 9101 O 904.757 3.94299 1.20839 0
M  V30 9102 H 904.098 0.662052 -0.0508274 0
M  V30 9103 H 906.628 1.89498 -0.771469 0
M  V30 9104 H 906.638 4.06408 0.360112 0
M  V30 9105 H 905.313 4.08288 -0.792089 0
M  V30 9106 H 903.89 3.59944 0.97442 0
M  V30 9107 N 906.075 0.2925 1.54862 0
M  V30 9108 C 907.321 -0.319736 2.00264 0
M  V30 9109 C 907.654 -1.5419 1.18064 0
M  V30 9110 O 906.929 -1.92821 0.254983 0
M  V30 9111 C 907.212 -0.684753 3.5353 0
M  V30 9112 C 907.065 0.545961 4.46474 0
M  V30 9113 C 908.384 -1.51456 4.13218 0
M  V30 9114 H 905.503 -0.11474 0.728014 0
M  V30 9115 H 908.145 0.402907 1.85679 0
M  V30 9116 H 906.295 -1.30044 3.66089 0
M  V30 9117 H 907.967 1.18448 4.45834 0
M  V30 9118 H 906.21 1.1808 4.1742 0
M  V30 9119 H 906.881 0.246544 5.51449 0
M  V30 9120 H 909.357 -0.994421 4.04043 0
M  V30 9121 H 908.233 -1.73875 5.20633 0
M  V30 9122 H 908.494 -2.5011 3.64551 0
M  V30 9123 N 907.553 -1.57587 0.0200696 0
M  V30 9124 C 908.485 -2.06555 -0.993359 0
M  V30 9125 C 909.498 -0.987227 -1.29451 0
M  V30 9126 O 910.687 -1.26361 -1.26075 0
M  V30 9127 C 907.787 -2.4675 -2.3231 0
M  V30 9128 C 906.96 -3.77554 -2.20843 0
M  V30 9129 C 906.019 -4.04397 -3.36674 0
M  V30 9130 O 905.045 -4.7478 -3.13963 0
M  V30 9131 N 906.247 -3.53861 -4.60176 0
M  V30 9132 H 909.012 -2.9412 -0.575617 0
M  V30 9133 H 906.573 -1.61038 -0.166889 0
M  V30 9134 H 908.565 -2.61806 -3.08609 0
M  V30 9135 H 907.135 -1.64598 -2.65756 0
M  V30 9136 H 906.355 -3.72382 -1.29327 0
M  V30 9137 H 907.643 -4.63271 -2.10375 0
M  V30 9138 H 907.041 -2.96904 -4.81523 0
M  V30 9139 H 905.598 -3.74213 -5.33674 0
M  V30 9140 N 909.032 0.252966 -1.55557 0
M  V30 9141 C 909.964 1.33585 -1.86246 0
M  V30 9142 C 910.977 1.44584 -0.748291 0
M  V30 9143 O 912.166 1.46042 -1.02635 0
M  V30 9144 C 909.266 2.71509 -2.02821 0
M  V30 9145 C 908.439 2.82853 -3.33636 0
M  V30 9146 C 907.498 4.01581 -3.40028 0
M  V30 9147 O 906.524 3.91394 -4.13278 0
M  V30 9148 N 907.726 5.14474 -2.6888 0
M  V30 9149 H 910.491 1.07596 -2.7972 0
M  V30 9150 H 908.052 0.443075 -1.55719 0
M  V30 9151 H 910.044 3.49262 -2.04445 0
M  V30 9152 H 908.614 2.90232 -1.1612 0
M  V30 9153 H 907.834 1.91823 -3.4438 0
M  V30 9154 H 909.122 2.87378 -4.19871 0
M  V30 9155 H 908.52 5.25641 -2.09087 0
M  V30 9156 H 907.077 5.90385 -2.76204 0
M  V30 9157 N 910.51 1.48831 0.518367 0
M  V30 9158 C 911.759 1.5669 1.27008 0
M  V30 9159 C 912.072 0.250934 1.93984 0
M  V30 9160 O 913.278 0.207884 2.70703 0
M  V30 9161 C 911.734 2.76387 2.30517 0
M  V30 9162 C 911.342 4.14673 1.69559 0
M  V30 9163 C 913.086 2.93566 3.06625 0
M  V30 9164 C 910.993 5.25616 2.71076 0
M  V30 9165 H 909.923 0.583362 0.477708 0
M  V30 9166 H 912.574 1.75187 0.546052 0
M  V30 9167 H 910.956 2.51348 3.06006 0
M  V30 9168 H 912.13 4.49779 1.00179 0
M  V30 9169 H 910.445 4.02708 1.05902 0
M  V30 9170 H 913.042 3.7362 3.82508 0
M  V30 9171 H 913.385 2.03462 3.63193 0
M  V30 9172 H 913.918 3.18562 2.38251 0
M  V30 9173 H 910.657 6.17723 2.19313 0
M  V30 9174 H 910.177 4.94985 3.38748 0
M  V30 9175 H 911.856 5.5422 3.3384 0
M  V30 9176 N 911.988 -0.768124 1.37614 0
M  V30 9177 C 913.236 -1.52379 1.3276 0
M  V30 9178 C 913.557 -1.94809 -0.0863564 0
M  V30 9179 O 912.827 -1.66568 -1.03112 0
M  V30 9180 H 911.407 -0.565179 0.488448 0
M  V30 9181 H 914.069 -0.913974 1.72141 0
M  V30 9182 H 913.165 -2.4215 1.96901 0
M  V30 9183 N 913.466 -1.22244 -0.994698 0
M  V30 9184 C 914.396 -1.01513 -2.10279 0
M  V30 9185 C 915.377 0.0633365 -1.69982 0
M  V30 9186 O 916.562 -0.0985268 -1.9395 0
M  V30 9187 C 913.692 -0.59016 -3.42249 0
M  V30 9188 C 912.646 -1.61436 -3.96387 0
M  V30 9189 C 911.972 -1.04528 -5.24383 0
M  V30 9190 C 913.272 -3.00388 -4.27276 0
M  V30 9191 H 914.966 -1.94194 -2.2788 0
M  V30 9192 H 912.512 -0.935094 -1.09508 0
M  V30 9193 H 914.465 -0.432254 -4.19177 0
M  V30 9194 H 913.189 0.372308 -3.24471 0
M  V30 9195 H 911.848 -1.76001 -3.21589 0
M  V30 9196 H 911.496 -0.0742225 -5.02945 0
M  V30 9197 H 911.196 -1.72949 -5.61571 0
M  V30 9198 H 912.72 -0.898922 -6.03947 0
M  V30 9199 H 914.134 -2.89207 -4.95007 0
M  V30 9200 H 912.531 -3.65916 -4.75631 0
M  V30 9201 H 913.601 -3.50456 -3.35125 0
M  V30 9202 N 914.944 1.19125 -1.03184 0
M  V30 9203 C 916.169 1.93379 -0.749628 0
M  V30 9204 C 916.594 1.75153 0.685785 0
M  V30 9205 O 915.952 1.05579 1.47386 0
M  V30 9206 C 916 3.43101 -1.1097 0
M  V30 9207 O 915.104 4.11758 -0.230053 0
M  V30 9208 H 914.445 0.603605 -0.276689 0
M  V30 9209 H 916.975 1.51116 -1.37931 0
M  V30 9210 H 916.985 3.93778 -1.06785 0
M  V30 9211 H 915.66 3.55688 -2.15544 0
M  V30 9212 H 914.237 3.7143 -0.330748 0
M  V30 9213 N 916.422 0.810101 1.35185 0
M  V30 9214 C 917.668 0.392698 1.98962 0
M  V30 9215 C 918.001 -1.03835 1.64109 0
M  V30 9216 O 917.276 -1.721 0.9062 0
M  V30 9217 C 917.559 0.580349 3.55393 0
M  V30 9218 C 917.412 2.05658 4.00031 0
M  V30 9219 C 918.731 0.00822618 4.40099 0
M  V30 9220 H 915.85 0.144157 0.722764 0
M  V30 9221 H 918.492 1.02029 1.60281 0
M  V30 9222 H 916.642 0.0461106 3.88473 0
M  V30 9223 H 918.314 2.65348 3.77344 0
M  V30 9224 H 916.557 2.55174 3.50811 0
M  V30 9225 H 917.228 2.13875 5.08883 0
M  V30 9226 H 919.704 0.464517 4.13499 0
M  V30 9227 H 918.58 0.169414 5.48638 0
M  V30 9228 H 918.841 -1.08576 4.2856 0
M  V30 9229 N 917.9 -1.47166 0.563914 0
M  V30 9230 C 919.311 -1.86231 0.132307 0
M  V30 9231 C 919.662 -1.46976 -1.29971 0
M  V30 9232 O 918.787 -0.875911 -1.97881 0
M  V30 9233 C 919.382 -3.37996 0.233335 0
M  V30 9234 C 917.941 -3.76127 -0.143278 0
M  V30 9235 C 917.088 -2.71212 0.577857 0
M  V30 9236 H 920.039 -1.38588 0.773249 0
M  V30 9237 H 920.06 -3.76558 -0.546309 0
M  V30 9238 H 919.572 -3.66535 1.27568 0
M  V30 9239 H 917.673 -3.53205 -1.18648 0
M  V30 9240 H 917.786 -4.78595 0.219952 0
M  V30 9241 H 916.15 -2.54692 0.020186 0
M  V30 9242 H 916.933 -3.02593 1.62149 0
M  V30 9243 N 919.378 -0.300708 -1.54705 0
M  V30 9244 C 920.624 0.309111 -2.0043 0
M  V30 9245 C 920.957 1.53562 -1.1888 0
M  V30 9246 O 920.232 1.92683 -0.265205 0
M  V30 9247 C 920.515 0.665995 -3.53888 0
M  V30 9248 C 920.368 -0.56963 -4.46178 0
M  V30 9249 C 921.687 1.49262 -4.14016 0
M  V30 9250 H 918.806 0.110878 -0.728612 0
M  V30 9251 H 921.448 -0.412748 -1.85463 0
M  V30 9252 H 919.598 1.281 -3.66773 0
M  V30 9253 H 921.27 -1.20811 -4.45199 0
M  V30 9254 H 919.513 -1.20292 -4.16788 0
M  V30 9255 H 920.184 -0.275785 -5.51311 0
M  V30 9256 H 922.66 0.972979 -4.04564 0
M  V30 9257 H 921.536 1.71111 -5.21548 0
M  V30 9258 H 921.797 2.48174 -3.65872 0
M  V30 9259 N 920.856 1.57574 -0.0284266 0
M  V30 9260 C 922.105 1.9095 0.649704 0
M  V30 9261 C 922.418 0.906421 1.7333 0
M  V30 9262 O 923.624 1.1314 2.46803 0
M  V30 9263 C 922.08 3.39061 1.20687 0
M  V30 9264 C 921.688 4.47726 0.156597 0
M  V30 9265 C 923.432 3.81505 1.86156 0
M  V30 9266 C 921.339 5.86935 0.725365 0
M  V30 9267 H 920.269 0.712589 0.24644 0
M  V30 9268 H 922.92 1.83261 -0.0936143 0
M  V30 9269 H 921.302 3.41679 2.00178 0
M  V30 9270 H 922.476 4.56667 -0.6158 0
M  V30 9271 H 920.791 4.14481 -0.399288 0
M  V30 9272 H 923.388 4.82865 2.29665 0
M  V30 9273 H 923.731 3.16529 2.70398 0
M  V30 9274 H 924.264 3.81307 1.13356 0
M  V30 9275 H 921.003 6.55453 -0.0789081 0
M  V30 9276 H 920.523 5.81602 1.46627 0
M  V30 9277 H 922.202 6.35483 1.21532 0
M  V30 9278 N 922.334 -0.244713 1.55689 0
M  V30 9279 C 923.583 -0.970373 1.76824 0
M  V30 9280 C 923.896 -1.86402 0.592764 0
M  V30 9281 O 925.102 -2.62659 0.687186 0
M  V30 9282 C 923.558 -1.77547 3.13058 0
M  V30 9283 C 923.166 -0.929104 4.3826 0
M  V30 9284 C 924.91 -2.49373 3.43531 0
M  V30 9285 C 922.817 -1.73021 5.65524 0
M  V30 9286 H 921.747 -0.366048 0.659185 0
M  V30 9287 H 924.398 -0.224964 1.82116 0
M  V30 9288 H 922.78 -2.56291 3.01879 0
M  V30 9289 H 923.954 -0.183836 4.60433 0
M  V30 9290 H 922.269 -0.324071 4.15137 0
M  V30 9291 H 924.866 -3.09767 4.35831 0
M  V30 9292 H 925.209 -3.21099 2.64955 0
M  V30 9293 H 925.742 -1.77637 3.55935 0
M  V30 9294 H 922.481 -1.05666 6.46927 0
M  V30 9295 H 922.001 -2.45071 5.47449 0
M  V30 9296 H 923.68 -2.2968 6.0486 0
M  V30 9297 N 923.813 -1.49104 -0.510467 0
M  V30 9298 C 925.062 -1.57362 -1.26175 0
M  V30 9299 C 925.375 -0.261218 -1.93848 0
M  V30 9300 O 926.581 -0.222238 -2.70589 0
M  V30 9301 C 925.037 -2.77606 -2.29048 0
M  V30 9302 C 924.645 -4.15567 -1.67357 0
M  V30 9303 C 926.389 -2.95188 -3.05064 0
M  V30 9304 C 924.296 -5.27046 -2.68285 0
M  V30 9305 H 923.226 -0.585887 -0.474608 0
M  V30 9306 H 925.877 -1.75474 -0.536753 0
M  V30 9307 H 924.259 -2.52968 -3.04669 0
M  V30 9308 H 925.433 -4.50304 -0.977924 0
M  V30 9309 H 923.748 -4.03264 -1.03765 0
M  V30 9310 H 926.345 -3.75643 -3.80521 0
M  V30 9311 H 926.688 -2.05385 -3.62108 0
M  V30 9312 H 927.221 -3.19821 -2.36558 0
M  V30 9313 H 923.96 -6.18878 -2.16034 0
M  V30 9314 H 923.48 -4.96774 -3.36118 0
M  V30 9315 H 925.159 -5.55983 -3.30896 0
M  V30 9316 N 925.291 0.760815 -1.38019 0
M  V30 9317 C 926.238 1.8744 -1.34666 0
M  V30 9318 C 927.208 1.64762 -0.210386 0
M  V30 9319 O 928.393 1.86528 -0.401479 0
M  V30 9320 C 925.533 3.24648 -1.17037 0
M  V30 9321 C 924.646 3.59206 -2.3999 0
M  V30 9322 C 923.781 4.8568 -2.15148 0
M  V30 9323 C 922.82 5.13002 -3.3391 0
M  V30 9324 N 921.957 6.30668 -3.08549 0
M  V30 9325 H 926.797 1.8964 -2.29871 0
M  V30 9326 H 924.334 0.927004 -1.14215 0
M  V30 9327 H 926.292 4.03814 -1.04834 0
M  V30 9328 H 924.922 3.21793 -0.254758 0
M  V30 9329 H 923.974 2.74939 -2.62893 0
M  V30 9330 H 925.286 3.75328 -3.28527 0
M  V30 9331 H 924.44 5.72773 -2.00039 0
M  V30 9332 H 923.179 4.71682 -1.23965 0
M  V30 9333 H 922.184 4.2438 -3.49545 0
M  V30 9334 H 923.409 5.28901 -4.25958 0
M  V30 9335 H 921.355 6.18008 -2.20006 0
M  V30 9336 H 921.272 6.47257 -3.90633 0
M  V30 9337 H 922.54 7.20669 -2.9708 0
M  V30 9338 N 926.769 1.22769 0.988202 0
M  V30 9339 C 927.701 0.959757 2.08138 0
M  V30 9340 C 928.714 -0.0633787 1.62677 0
M  V30 9341 O 929.903 0.171203 1.77677 0
M  V30 9342 C 927.003 0.422724 3.36253 0
M  V30 9343 C 926.176 1.50419 4.10722 0
M  V30 9344 C 925.235 0.973407 5.17118 0
M  V30 9345 O 924.261 1.66066 5.44436 0
M  V30 9346 N 925.463 -0.202787 5.80146 0
M  V30 9347 H 928.228 1.9009 2.31702 0
M  V30 9348 H 925.789 1.13522 1.15431 0
M  V30 9349 H 927.781 0.0528514 4.04665 0
M  V30 9350 H 926.351 -0.423642 3.09716 0
M  V30 9351 H 925.571 2.04718 3.36874 0
M  V30 9352 H 926.859 2.23169 4.57245 0
M  V30 9353 H 926.257 -0.777856 5.60327 0
M  V30 9354 H 924.814 -0.513998 6.4977 0
M  V30 9355 N 928.247 -1.18576 1.03814 0
M  V30 9356 C 929.157 -2.25778 0.637311 0
M  V30 9357 C 930.173 -1.7074 -0.335248 0
M  V30 9358 O 931.349 -2.00494 -0.19081 0
M  V30 9359 C 928.414 -3.467 0.00386953 0
M  V30 9360 C 927.475 -4.16881 1.02511 0
M  V30 9361 C 926.708 -5.32031 0.421802 0
M  V30 9362 O 926.931 -5.65142 -0.772699 0
M  V30 9363 O 925.865 -5.90826 1.14925 0
M  V30 9364 H 929.691 -2.62323 1.53037 0
M  V30 9365 H 927.276 -1.25609 0.80887 0
M  V30 9366 H 929.158 -4.19953 -0.348873 0
M  V30 9367 H 927.833 -3.11983 -0.863047 0
M  V30 9368 H 926.74 -3.45707 1.4296 0
M  V30 9369 H 928.073 -4.55592 1.86271 0
M  V30 9370 N 929.725 -0.817259 -1.34754 0
M  V30 9371 C 930.635 -0.236946 -2.334 0
M  V30 9372 C 931.651 0.625685 -1.62361 0
M  V30 9373 O 932.827 0.534921 -1.94166 0
M  V30 9374 C 929.892 0.596215 -3.41535 0
M  V30 9375 C 928.953 -0.288154 -4.28332 0
M  V30 9376 C 928.186 0.505337 -5.31302 0
M  V30 9377 O 928.409 1.73912 -5.43241 0
M  V30 9378 O 927.343 -0.109374 -6.01801 0
M  V30 9379 H 931.169 -1.05327 -2.84851 0
M  V30 9380 H 928.754 -0.579275 -1.37713 0
M  V30 9381 H 930.636 1.07041 -4.07578 0
M  V30 9382 H 929.311 1.38997 -2.92338 0
M  V30 9383 H 928.218 -0.809724 -3.65232 0
M  V30 9384 H 929.551 -1.04612 -4.80955 0
M  V30 9385 N 931.203 1.46865 -0.571711 0
M  V30 9386 C 932.166 2.28658 0.157499 0
M  V30 9387 C 933.166 1.37773 0.829172 0
M  V30 9388 O 934.356 1.6026 0.682811 0
M  V30 9389 C 931.488 3.17859 1.23202 0
M  V30 9390 H 932.681 2.94603 -0.561171 0
M  V30 9391 H 930.234 1.52793 -0.329229 0
M  V30 9392 H 930.969 2.56637 1.98262 0
M  V30 9393 H 930.754 3.84762 0.755031 0
M  V30 9394 H 932.244 3.7945 1.74378 0
M  V30 9395 N 932.681 0.308908 1.54543 0
M  V30 9396 C 933.921 -0.298811 2.02204 0
M  V30 9397 C 934.285 -1.50484 1.19242 0
M  V30 9398 O 935.486 -2.18445 1.56637 0
M  V30 9399 C 933.757 -0.638849 3.51644 0
M  V30 9400 S 935.316 -1.22831 4.21258 0
M  V30 9401 H 932.134 -0.0912638 0.705118 0
M  V30 9402 H 934.736 0.438622 1.90516 0
M  V30 9403 H 933.44 0.24726 4.09654 0
M  V30 9404 H 932.971 -1.40687 3.67384 0
M  V30 9405 H 934.986 -2.51579 4.27694 0
M  V30 9406 N 934.159 -1.57557 0.0367827 0
M  V30 9407 C 935.091 -2.07597 -0.971395 0
M  V30 9408 C 936.104 -1.0009 -1.28397 0
M  V30 9409 O 937.293 -1.27692 -1.24728 0
M  V30 9410 C 934.393 -2.492 -2.2968 0
M  V30 9411 C 933.566 -3.79875 -2.16826 0
M  V30 9412 C 932.625 -4.07946 -3.32366 0
M  V30 9413 O 931.651 -4.78083 -3.0891 0
M  V30 9414 N 932.853 -3.58722 -4.56397 0
M  V30 9415 H 935.618 -2.94714 -0.544389 0
M  V30 9416 H 933.179 -1.61205 -0.1498 0
M  V30 9417 H 935.171 -2.65065 -3.05815 0
M  V30 9418 H 933.741 -1.67407 -2.63995 0
M  V30 9419 H 932.961 -3.73732 -1.2537 0
M  V30 9420 H 934.249 -4.65476 -2.0545 0
M  V30 9421 H 933.647 -3.01994 -4.78347 0
M  V30 9422 H 932.204 -3.79852 -5.29675 0
M  V30 9423 N 935.637 0.236453 -1.55816 0
M  V30 9424 C 936.877 0.970249 -1.79904 0
M  V30 9425 C 937.241 1.8212 -0.607965 0
M  V30 9426 O 938.442 2.58759 -0.727833 0
M  V30 9427 C 936.713 1.79938 -3.088 0
M  V30 9428 S 938.272 2.59084 -3.54148 0
M  V30 9429 H 935.09 0.32618 -0.631765 0
M  V30 9430 H 937.692 0.237147 -1.94056 0
M  V30 9431 H 936.396 1.16412 -3.93544 0
M  V30 9432 H 935.927 2.57504 -2.97414 0
M  V30 9433 H 937.942 3.82315 -3.16306 0
M  V30 9434 N 937.115 1.49373 0.502552 0
M  V30 9435 C 938.047 1.62045 1.62093 0
M  V30 9436 C 939.06 0.503221 1.54827 0
M  V30 9437 O 940.249 0.775208 1.60788 0
M  V30 9438 C 937.349 1.55971 3.00876 0
M  V30 9439 C 936.522 2.832 3.33341 0
M  V30 9440 C 935.581 2.702 4.51529 0
M  V30 9441 O 934.607 3.44132 4.53389 0
M  V30 9442 N 935.809 1.81642 5.5135 0
M  V30 9443 H 938.574 2.58501 1.51649 0
M  V30 9444 H 936.135 1.46442 0.690396 0
M  V30 9445 H 938.127 1.4493 3.77859 0
M  V30 9446 H 936.697 0.673795 3.05252 0
M  V30 9447 H 935.917 3.08604 2.4527 0
M  V30 9448 H 937.205 3.67551 3.51829 0
M  V30 9449 H 936.603 1.20829 5.52645 0
M  V30 9450 H 935.16 1.76524 6.27441 0
M  V30 9451 N 938.594 -0.753485 1.38421 0
M  V30 9452 C 939.834 -1.52544 1.3605 0
M  V30 9453 C 940.198 -1.91937 -0.0493257 0
M  V30 9454 O 941.399 -2.6807 -0.197908 0
M  V30 9455 C 939.67 -2.74432 2.28958 0
M  V30 9456 S 941.229 -3.64297 2.44607 0
M  V30 9457 H 938.047 -0.522017 0.48272 0
M  V30 9458 H 940.649 -0.884503 1.74347 0
M  V30 9459 H 939.353 -2.43602 3.30282 0
M  V30 9460 H 938.884 -3.43471 1.91811 0
M  V30 9461 H 940.899 -4.67245 1.67022 0
M  V30 9462 N 940.072 -1.23292 -0.981677 0
M  V30 9463 C 941.035 -1.01417 -2.05542 0
M  V30 9464 C 942.035 0.0235354 -1.60783 0
M  V30 9465 O 943.225 -0.216082 -1.72855 0
M  V30 9466 C 940.357 -0.534239 -3.36688 0
M  V30 9467 H 941.55 -1.96702 -2.26381 0
M  V30 9468 H 939.103 -1.05318 -1.1549 0
M  V30 9469 H 939.838 0.422452 -3.21537 0
M  V30 9470 H 939.623 -1.28304 -3.70514 0
M  V30 9471 H 941.113 -0.40179 -4.15663 0
M  V30 9472 N 941.55 1.18024 -1.04442 0
M  V30 9473 C 942.79 1.89787 -0.758957 0
M  V30 9474 C 943.154 1.78757 0.700707 0
M  V30 9475 O 944.355 2.45265 1.09994 0
M  V30 9476 C 942.626 3.36047 -1.21685 0
M  V30 9477 S 944.185 4.25864 -1.05761 0
M  V30 9478 H 941.003 0.655311 -0.275841 0
M  V30 9479 H 943.605 1.42589 -1.33749 0
M  V30 9480 H 942.309 3.41606 -2.2745 0
M  V30 9481 H 941.84 3.88286 -0.63227 0
M  V30 9482 H 943.855 4.96195 0.022729 0
M  V30 9483 N 943.028 0.824394 1.34319 0
M  V30 9484 C 944.444 0.510336 1.51221 0
M  V30 9485 C 944.644 -0.965201 1.76879 0
M  V30 9486 O 943.7 -1.74961 1.82057 0
M  V30 9487 C 945.013 1.37114 2.6762 0
M  V30 9488 C 946.561 1.36842 2.81502 0
M  V30 9489 C 947.036 2.21374 4.00946 0
M  V30 9490 N 948.527 2.19005 4.08156 0
M  V30 9491 C 949.262 2.81159 4.99737 0
M  V30 9492 N 948.758 3.52309 5.96532 0
M  V30 9493 N 950.551 2.70706 4.9262 0
M  V30 9494 H 942.702 1.77976 1.15924 0
M  V30 9495 H 944.965 0.758503 0.568663 0
M  V30 9496 H 944.671 2.41905 2.55294 0
M  V30 9497 H 944.545 1.03689 3.62669 0
M  V30 9498 H 946.932 0.328284 2.93268 0
M  V30 9499 H 947.013 1.74265 1.87257 0
M  V30 9500 H 946.657 3.25437 3.8994 0
M  V30 9501 H 946.587 1.813 4.94407 0
M  V30 9502 H 949.078 1.67252 3.38874 0
M  V30 9503 H 949.391 3.96977 6.63045 0
M  V30 9504 H 947.736 3.56415 5.96652 0
M  V30 9505 H 950.927 2.14694 4.15962 0
M  V30 9506 H 951.1 3.19431 5.63798 0
M  V30 9507 N 944.506 -1.46559 0.579492 0
M  V30 9508 C 945.783 -1.956 -0.00287136 0
M  V30 9509 C 946.163 -1.52215 -1.46266 0
M  V30 9510 O 945.511 -0.771335 -2.15088 0
M  V30 9511 C 945.721 -3.48606 0.165824 0
M  V30 9512 C 947.069 -4.24588 0.0319807 0
M  V30 9513 O 948.093 -3.56075 0.094496 0
M  V30 9514 O 946.952 -5.46396 -0.106386 0
M  V30 9515 H 944.046 -0.825387 -0.0516274 0
M  V30 9516 H 946.592 -1.56858 0.647584 0
M  V30 9517 H 945.364 -3.7306 1.18076 0
M  V30 9518 H 944.987 -3.94169 -0.521212 0
M  V30 9519 N 945.984 -0.3171 -1.54377 0
M  V30 9520 C 947.209 0.292311 -2.0533 0
M  V30 9521 C 947.634 1.45503 -1.19207 0
M  V30 9522 O 946.992 1.80197 -0.199721 0
M  V30 9523 C 947.04 0.710787 -3.53525 0
M  V30 9524 O 946.144 1.81387 -3.70368 0
M  V30 9525 H 945.485 0.0539976 -0.661801 0
M  V30 9526 H 948.015 -0.463629 -1.99278 0
M  V30 9527 H 948.025 0.995216 -3.95676 0
M  V30 9528 H 946.7 -0.139668 -4.15665 0
M  V30 9529 H 945.277 1.52875 -3.40123 0
M  V30 9530 N 947.462 1.57535 -0.0451378 0
M  V30 9531 C 948.425 2.1008 0.916461 0
M  V30 9532 C 949.425 1.01913 1.2438 0
M  V30 9533 O 950.615 1.2801 1.18148 0
M  V30 9534 C 947.747 2.58001 2.22818 0
M  V30 9535 H 948.94 2.96334 0.461076 0
M  V30 9536 H 946.493 1.54974 0.203169 0
M  V30 9537 H 947.228 1.75123 2.72951 0
M  V30 9538 H 947.013 3.3704 2.00366 0
M  V30 9539 H 948.503 2.98822 2.9171 0
M  V30 9540 N 948.94 -0.228186 1.55939 0
M  V30 9541 C 949.887 -1.28274 1.91871 0
M  V30 9542 C 950.857 -1.46906 0.775103 0
M  V30 9543 O 952.042 -1.60583 1.03042 0
M  V30 9544 C 949.182 -2.62945 2.23504 0
M  V30 9545 C 948.295 -2.52166 3.50766 0
M  V30 9546 C 947.43 -3.79316 3.71878 0
M  V30 9547 C 946.469 -3.63231 4.92676 0
M  V30 9548 N 945.606 -4.82315 5.10212 0
M  V30 9549 H 950.446 -0.96931 2.81795 0
M  V30 9550 H 947.983 -0.467331 1.39479 0
M  V30 9551 H 949.941 -3.41359 2.39854 0
M  V30 9552 H 948.571 -2.92397 1.36762 0
M  V30 9553 H 947.623 -1.65221 3.42646 0
M  V30 9554 H 948.935 -2.36199 4.39331 0
M  V30 9555 H 948.089 -4.66173 3.88288 0
M  V30 9556 H 946.828 -3.982 2.81581 0
M  V30 9557 H 945.833 -2.74757 4.76223 0
M  V30 9558 H 947.058 -3.45823 5.84451 0
M  V30 9559 H 945.004 -5.01526 4.22856 0
M  V30 9560 H 944.921 -4.6905 5.92898 0
M  V30 9561 H 946.189 -5.70618 5.31051 0
M  V30 9562 N 950.418 -1.49637 -0.494624 0
M  V30 9563 C 951.328 -1.69522 -1.62172 0
M  V30 9564 C 952.344 -0.577894 -1.64123 0
M  V30 9565 O 953.52 -0.853382 -1.82426 0
M  V30 9566 C 950.585 -1.7633 -2.9851 0
M  V30 9567 C 949.646 -2.99944 -3.07135 0
M  V30 9568 C 948.879 -3.06419 -4.36971 0
M  V30 9569 O 949.102 -2.20312 -5.26136 0
M  V30 9570 O 948.036 -3.9894 -4.507 0
M  V30 9571 H 951.862 -2.65017 -1.48324 0
M  V30 9572 H 949.447 -1.33454 -0.671603 0
M  V30 9573 H 951.329 -1.83125 -3.7953 0
M  V30 9574 H 950.004 -0.840155 -3.12607 0
M  V30 9575 H 948.911 -2.98664 -2.2528 0
M  V30 9576 H 950.244 -3.9176 -2.97968 0
M  V30 9577 N 951.896 0.746133 -1.38819 0
M  V30 9578 C 953.312 1.0502 -1.20179 0
M  V30 9579 C 953.512 2.01423 -0.0556271 0
M  V30 9580 O 952.568 2.45359 0.59625 0
M  V30 9581 C 953.881 1.62315 -2.53129 0
M  V30 9582 C 955.429 1.74449 -2.59878 0
M  V30 9583 C 955.904 2.35155 -3.93022 0
M  V30 9584 N 957.395 2.42577 -3.94602 0
M  V30 9585 C 958.13 2.9046 -4.94389 0
M  V30 9586 N 957.626 3.38322 -6.04574 0
M  V30 9587 N 959.419 2.89568 -4.81775 0
M  V30 9588 H 951.57 0.106551 -2.12133 0
M  V30 9589 H 953.833 0.109897 -0.941609 0
M  V30 9590 H 953.539 0.98946 -3.37495 0
M  V30 9591 H 953.413 2.61276 -2.72057 0
M  V30 9592 H 955.8 2.36943 -1.75903 0
M  V30 9593 H 955.881 0.741721 -2.4481 0
M  V30 9594 H 955.525 1.73292 -4.77422 0
M  V30 9595 H 955.455 3.36088 -4.05404 0
M  V30 9596 H 957.946 2.08735 -3.15021 0
M  V30 9597 H 958.259 3.73336 -6.76639 0
M  V30 9598 H 956.604 3.3636 -6.08184 0
M  V30 9599 H 959.795 2.51492 -3.94803 0
M  V30 9600 H 959.968 3.26571 -5.59692 0
M  V30 9601 N 953.375 1.23811 0.975125 0
M  V30 9602 C 954.338 1.02505 2.05001 0
M  V30 9603 C 955.338 -0.0150084 1.60793 0
M  V30 9604 O 956.528 0.225246 1.72738 0
M  V30 9605 C 953.66 0.552087 3.364 0
M  V30 9606 H 954.853 1.979 2.25335 0
M  V30 9607 H 952.406 1.05929 1.1493 0
M  V30 9608 H 953.141 -0.405394 3.21756 0
M  V30 9609 H 952.926 1.30267 3.69828 0
M  V30 9610 H 954.416 0.423828 4.15444 0
M  V30 9611 N 954.853 -1.17469 1.05066 0
M  V30 9612 C 956.078 -1.92162 0.780298 0
M  V30 9613 C 956.503 -1.76222 -0.657832 0
M  V30 9614 O 955.861 -1.0791 -1.45688 0
M  V30 9615 C 955.909 -3.41292 1.16414 0
M  V30 9616 O 955.013 -4.1134 0.295531 0
M  V30 9617 H 954.354 -0.599127 0.286257 0
M  V30 9618 H 956.884 -1.48903 1.40318 0
M  V30 9619 H 956.894 -3.92029 1.13036 0
M  V30 9620 H 955.569 -3.52214 2.21175 0
M  V30 9621 H 954.146 -3.70857 0.389797 0
M  V30 9622 N 956.331 -0.831506 -1.3388 0
M  V30 9623 C 957.556 -0.435954 -2.02766 0
M  V30 9624 C 957.981 0.952889 -1.62178 0
M  V30 9625 O 957.339 1.62166 -0.810681 0
M  V30 9626 C 957.387 -0.555907 -3.56289 0
M  V30 9627 O 956.491 0.420826 -4.10247 0
M  V30 9628 H 955.832 -0.178248 -0.639628 0
M  V30 9629 H 958.362 -1.1243 -1.70941 0
M  V30 9630 H 958.372 -0.434831 -4.05676 0
M  V30 9631 H 957.047 -1.56881 -3.85177 0
M  V30 9632 H 955.624 0.257919 -3.72007 0
M  V30 9633 N 957.809 1.4625 -0.587256 0
M  V30 9634 C 959.225 1.57641 -0.249284 0
M  V30 9635 C 959.425 1.58169 1.24839 0
M  V30 9636 O 958.481 1.50109 2.03036 0
M  V30 9637 C 959.794 2.86837 -0.902509 0
M  V30 9638 C 961.342 3.00476 -0.876524 0
M  V30 9639 C 961.817 4.32414 -1.50938 0
M  V30 9640 N 963.308 4.39124 -1.47392 0
M  V30 9641 C 964.043 5.39838 -1.93293 0
M  V30 9642 N 963.539 6.47202 -2.47188 0
M  V30 9643 N 965.332 5.31068 -1.84183 0
M  V30 9644 H 957.483 1.44151 -1.55994 0
M  V30 9645 H 959.746 0.687905 -0.652297 0
M  V30 9646 H 959.452 2.92274 -1.95624 0
M  V30 9647 H 959.326 3.74927 -0.413466 0
M  V30 9648 H 961.713 2.94618 0.168601 0
M  V30 9649 H 961.794 2.1385 -1.40363 0
M  V30 9650 H 961.438 4.3903 -2.55372 0
M  V30 9651 H 961.368 5.17823 -0.957455 0
M  V30 9652 H 963.859 3.62138 -1.08002 0
M  V30 9653 H 964.172 7.20269 -2.80058 0
M  V30 9654 H 962.517 6.48009 -2.51216 0
M  V30 9655 H 965.708 4.46095 -1.41833 0
M  V30 9656 H 965.881 6.09414 -2.2027 0
M  V30 9657 N 959.287 0.325282 1.54207 0
M  V30 9658 C 960.703 -0.0273036 1.59577 0
M  V30 9659 C 960.903 -1.50329 1.34177 0
M  V30 9660 O 959.959 -2.25951 1.12705 0
M  V30 9661 C 961.272 0.392468 2.98128 0
M  V30 9662 C 962.82 0.343269 3.11112 0
M  V30 9663 C 963.295 0.738229 4.52011 0
M  V30 9664 N 964.786 0.691701 4.58006 0
M  V30 9665 C 965.521 0.969479 5.65145 0
M  V30 9666 N 965.017 1.31448 6.80216 0
M  V30 9667 N 966.81 0.894926 5.5493 0
M  V30 9668 H 958.961 1.28692 1.68974 0
M  V30 9669 H 961.224 0.523399 0.790416 0
M  V30 9670 H 960.93 1.42089 3.2172 0
M  V30 9671 H 960.804 -0.241651 3.76425 0
M  V30 9672 H 963.191 -0.675946 2.87254 0
M  V30 9673 H 963.272 1.01235 2.34915 0
M  V30 9674 H 962.916 1.75537 4.76602 0
M  V30 9675 H 962.846 0.0468226 5.26579 0
M  V30 9676 H 965.337 0.436975 3.75365 0
M  V30 9677 H 965.65 1.51177 7.57869 0
M  V30 9678 H 963.995 1.35276 6.81708 0
M  V30 9679 H 967.186 0.624876 4.6391 0
M  V30 9680 H 967.359 1.11476 6.38339 0
M  V30 9681 N 960.765 -1.57509 0.0534917 0
M  V30 9682 C 961.712 -2.11667 -0.920101 0
M  V30 9683 C 962.682 -1.0246 -1.30733 0
M  V30 9684 O 963.867 -1.30021 -1.39639 0
M  V30 9685 C 961.007 -2.66803 -2.18883 0
M  V30 9686 C 960.12 -3.90104 -1.85588 0
M  V30 9687 C 959.255 -4.33547 -3.06937 0
M  V30 9688 C 958.294 -5.49542 -2.69573 0
M  V30 9689 N 957.431 -5.88029 -3.83623 0
M  V30 9690 H 962.271 -2.94562 -0.451371 0
M  V30 9691 H 959.808 -1.45576 -0.211168 0
M  V30 9692 H 961.766 -2.96871 -2.93127 0
M  V30 9693 H 960.396 -1.86702 -2.63329 0
M  V30 9694 H 959.448 -3.66613 -1.01484 0
M  V30 9695 H 960.76 -4.74404 -1.54087 0
M  V30 9696 H 959.914 -4.6518 -3.89477 0
M  V30 9697 H 958.653 -3.48064 -3.41618 0
M  V30 9698 H 957.658 -5.17579 -1.8545 0
M  V30 9699 H 958.883 -6.36743 -2.36082 0
M  V30 9700 H 956.829 -5.05498 -4.181 0
M  V30 9701 H 956.746 -6.67025 -3.55828 0
M  V30 9702 H 958.014 -6.24277 -4.66796 0
M  V30 9703 N 962.243 0.219913 -1.56058 0
M  V30 9704 C 963.491 0.942199 -1.78793 0
M  V30 9705 C 963.812 1.84804 -0.622284 0
M  V30 9706 O 963.082 1.9255 0.360735 0
M  V30 9707 H 961.662 0.350895 -0.659455 0
M  V30 9708 H 964.324 0.231376 -1.93522 0
M  V30 9709 H 963.42 1.54804 -2.71002 0
M  V30 9710 N 963.721 1.49897 0.486681 0
M  V30 9711 C 964.961 1.61732 1.24988 0
M  V30 9712 C 965.325 0.303724 1.89582 0
M  V30 9713 O 966.526 0.297373 2.6715 0
M  V30 9714 C 964.797 2.75429 2.27757 0
M  V30 9715 S 966.356 3.07304 3.13225 0
M  V30 9716 H 963.174 0.570316 0.424571 0
M  V30 9717 H 965.776 1.87617 0.549549 0
M  V30 9718 H 964.48 3.69376 1.78857 0
M  V30 9719 H 964.011 2.51582 3.0244 0
M  V30 9720 H 966.026 2.49928 4.28661 0
M  V30 9721 N 965.199 -0.738761 1.39212 0
M  V30 9722 C 966.424 -1.5331 1.39681 0
M  V30 9723 C 966.849 -1.88098 -0.00768715 0
M  V30 9724 O 966.207 -1.51642 -0.993699 0
M  V30 9725 C 966.255 -2.79958 2.27279 0
M  V30 9726 O 965.359 -3.75727 1.70008 0
M  V30 9727 H 964.7 -0.463131 0.475821 0
M  V30 9728 H 967.23 -0.911768 1.83161 0
M  V30 9729 H 967.24 -3.28732 2.41659 0
M  V30 9730 H 965.915 -2.5397 3.29351 0
M  V30 9731 H 964.492 -3.34483 1.64851 0
M  V30 9732 N 966.677 -1.24326 -0.968545 0
M  V30 9733 C 967.902 -1.1104 -1.75171 0
M  V30 9734 C 968.327 0.333109 -1.85127 0
M  V30 9735 O 967.685 1.24115 -1.32156 0
M  V30 9736 C 967.733 -1.75397 -3.15068 0
M  V30 9737 O 966.837 -1.02417 -3.9948 0
M  V30 9738 H 966.178 -0.388488 -0.538491 0
M  V30 9739 H 968.708 -1.64617 -1.215 0
M  V30 9740 H 968.718 -1.8112 -3.65595 0
M  V30 9741 H 967.393 -2.80427 -3.07138 0
M  V30 9742 H 965.97 -1.04475 -3.57966 0
M  V30 9743 N 968.156 1.1691 -1.05688 0
M  V30 9744 C 969.567 1.68915 -0.795273 0
M  V30 9745 C 969.918 1.83968 0.681925 0
M  V30 9746 O 969.043 1.53083 1.52953 0
M  V30 9747 C 969.638 3.06814 -1.43703 0
M  V30 9748 C 968.197 3.55965 -1.22335 0
M  V30 9749 C 967.344 2.32099 -1.51741 0
M  V30 9750 H 970.295 1.01357 -1.22116 0
M  V30 9751 H 970.316 3.70907 -0.849016 0
M  V30 9752 H 969.828 2.95826 -2.51214 0
M  V30 9753 H 967.929 3.72222 -0.16771 0
M  V30 9754 H 968.042 4.38427 -1.9318 0
M  V30 9755 H 966.406 2.36811 -0.937696 0
M  V30 9756 H 967.189 2.23715 -2.60397 0
M  V30 9757 N 969.634 0.838594 1.33437 0
M  V30 9758 C 971.045 0.490934 1.8013 0
M  V30 9759 C 971.396 -0.990024 1.6939 0
M  V30 9760 O 970.521 -1.77139 1.24302 0
M  V30 9761 C 971.116 0.884347 3.27055 0
M  V30 9762 C 969.675 0.588829 3.71766 0
M  V30 9763 C 968.822 1.09282 2.54858 0
M  V30 9764 H 971.773 1.02732 1.20962 0
M  V30 9765 H 971.794 0.194283 3.80004 0
M  V30 9766 H 971.306 1.96225 3.34839 0
M  V30 9767 H 969.407 -0.479018 3.69508 0
M  V30 9768 H 969.52 1.14387 4.65245 0
M  V30 9769 H 967.884 0.513702 2.49466 0
M  V30 9770 H 968.667 2.1775 2.65405 0
M  V30 9771 N 971.112 -1.45937 0.595003 0
M  V30 9772 C 972.523 -1.85908 0.171779 0
M  V30 9773 C 972.874 -1.497 -1.26824 0
M  V30 9774 O 971.999 -0.917688 -1.95978 0
M  V30 9775 C 972.594 -3.37425 0.304976 0
M  V30 9776 C 971.153 -3.76346 -0.0634635 0
M  V30 9777 C 970.3 -2.69926 0.635255 0
M  V30 9778 H 973.251 -1.36916 0.802471 0
M  V30 9779 H 973.272 -3.77632 -0.466313 0
M  V30 9780 H 972.784 -3.63747 1.35314 0
M  V30 9781 H 970.885 -3.55642 -1.11129 0
M  V30 9782 H 970.998 -4.78021 0.321419 0
M  V30 9783 H 969.362 -2.54592 0.0742054 0
M  V30 9784 H 970.145 -2.99086 1.68531 0
M  V30 9785 N 972.59 -0.333456 -1.54032 0
M  V30 9786 C 974.001 0.15256 -1.86076 0
M  V30 9787 C 974.352 1.50819 -1.25492 0
M  V30 9788 O 973.477 2.08903 -0.564665 0
M  V30 9789 C 974.072 0.283599 -3.37611 0
M  V30 9790 C 972.631 0.713841 -3.69569 0
M  V30 9791 C 971.778 -0.158515 -2.76847 0
M  V30 9792 H 974.729 -0.553404 -1.48738 0
M  V30 9793 H 974.75 1.11284 -3.63863 0
M  V30 9794 H 974.262 -0.703193 -3.81676 0
M  V30 9795 H 972.363 1.71002 -3.31042 0
M  V30 9796 H 972.476 0.510731 -4.7637 0
M  V30 9797 H 970.84 0.367531 -2.52034 0
M  V30 9798 H 971.623 -1.14226 -3.2374 0
M  V30 9799 N 974.068 1.57479 -0.061844 0
M  V30 9800 C 974.978 2.15645 0.923826 0
M  V30 9801 C 975.994 1.117 1.33413 0
M  V30 9802 O 977.17 1.4392 1.40887 0
M  V30 9803 C 974.235 2.69857 2.17665 0
M  V30 9804 C 973.296 3.88638 1.8237 0
M  V30 9805 C 972.529 4.40256 3.01679 0
M  V30 9806 O 972.752 3.90908 4.15388 0
M  V30 9807 O 971.686 5.31713 2.82073 0
M  V30 9808 H 975.512 3.0021 0.459094 0
M  V30 9809 H 973.097 1.48534 0.160665 0
M  V30 9810 H 974.979 3.04647 2.9115 0
M  V30 9811 H 973.654 1.88357 2.63255 0
M  V30 9812 H 972.561 3.58719 1.06167 0
M  V30 9813 H 973.894 4.71401 1.4157 0
M  V30 9814 N 975.546 -0.211634 1.56173 0
M  V30 9815 C 976.957 -0.777776 1.69728 0
M  V30 9816 C 977.308 -1.84566 0.66558 0
M  V30 9817 O 976.433 -2.15639 -0.181338 0
M  V30 9818 C 977.028 -1.41757 3.07718 0
M  V30 9819 C 975.587 -1.93098 3.23094 0
M  V30 9820 C 974.734 -0.794785 2.65666 0
M  V30 9821 H 977.685 0.0131839 1.58695 0
M  V30 9822 H 977.706 -2.28662 3.04128 0
M  V30 9823 H 977.218 -0.640114 3.82785 0
M  V30 9824 H 975.319 -2.73615 2.52914 0
M  V30 9825 H 975.432 -2.10414 4.30422 0
M  V30 9826 H 973.796 -1.20473 2.24407 0
M  V30 9827 H 974.579 -0.0298408 3.43287 0
M  V30 9828 N 977.024 -1.50153 -0.478725 0
M  V30 9829 C 978.249 -1.64776 -1.2595 0
M  V30 9830 C 978.674 -0.327794 -1.85222 0
M  V30 9831 O 978.032 0.707418 -1.66929 0
M  V30 9832 C 978.08 -2.73551 -2.34952 0
M  V30 9833 O 977.184 -2.34273 -3.39397 0
M  V30 9834 H 976.525 -0.550769 -0.370877 0
M  V30 9835 H 979.055 -1.96482 -0.570605 0
M  V30 9836 H 979.065 -2.96397 -2.8038 0
M  V30 9837 H 977.74 -3.69354 -1.91181 0
M  V30 9838 H 976.317 -2.21844 -2.99733 0
M  V30 9839 N 978.502 0.731368 -1.39602 0
M  V30 9840 C 979.913 1.30981 -1.33045 0
M  V30 9841 C 980.264 1.962 0.00349918 0
M  V30 9842 O 979.389 1.96539 0.905615 0
M  V30 9843 C 979.984 2.3817 -2.40958 0
M  V30 9844 C 978.543 2.91678 -2.3791 0
M  V30 9845 C 977.69 1.65286 -2.22656 0
M  V30 9846 H 980.641 0.528615 -1.49637 0
M  V30 9847 H 980.662 3.18645 -2.07955 0
M  V30 9848 H 980.174 1.90673 -3.38032 0
M  V30 9849 H 978.275 3.43446 -1.44485 0
M  V30 9850 H 978.388 3.44545 -3.32904 0
M  V30 9851 H 976.752 1.89759 -1.69893 0
M  V30 9852 H 977.535 1.19836 -3.21705 0
M  V30 9853 N 979.98 1.24838 0.961938 0
M  V30 9854 C 980.912 1.00369 2.06055 0
M  V30 9855 C 981.925 -0.0288583 1.62774 0
M  V30 9856 O 983.114 0.208853 1.77274 0
M  V30 9857 C 980.214 0.493953 3.35281 0
M  V30 9858 C 979.387 1.59097 4.07439 0
M  V30 9859 C 978.446 1.08288 5.14937 0
M  V30 9860 O 977.472 1.77577 5.40791 0
M  V30 9861 N 978.674 -0.0796836 5.80445 0
M  V30 9862 H 981.439 1.94962 2.27618 0
M  V30 9863 H 979 1.15945 1.12997 0
M  V30 9864 H 980.992 0.138675 4.04462 0
M  V30 9865 H 979.562 -0.357851 3.10545 0
M  V30 9866 H 978.782 2.11817 3.32456 0
M  V30 9867 H 980.07 2.32817 4.52409 0
M  V30 9868 H 979.468 -0.658827 5.6185 0
M  V30 9869 H 978.025 -0.376057 6.50714 0
M  V30 9870 N 981.458 -1.16348 1.06306 0
M  V30 9871 C 982.421 -2.18941 0.678053 0
M  V30 9872 C 983.421 -1.58409 -0.276277 0
M  V30 9873 O 984.611 -1.74101 -0.0586435 0
M  V30 9874 C 981.743 -3.409 -0.00228684 0
M  V30 9875 H 982.936 -2.54516 1.58624 0
M  V30 9876 H 980.489 -1.30625 0.858298 0
M  V30 9877 H 981.224 -3.10881 -0.923212 0
M  V30 9878 H 981.009 -3.86089 0.683949 0
M  V30 9879 H 982.499 -4.16806 -0.257374 0
M  V30 9880 N 982.937 -0.845659 -1.3299 0
M  V30 9881 C 984.348 -0.50048 -1.79867 0
M  V30 9882 C 984.699 0.981027 -1.69913 0
M  V30 9883 O 983.824 1.76477 -1.25239 0
M  V30 9884 C 984.419 -0.901679 -3.26581 0
M  V30 9885 C 982.978 -0.608536 -3.71448 0
M  V30 9886 C 982.125 -1.10632 -2.54275 0
M  V30 9887 H 985.076 -1.03372 -1.20416 0
M  V30 9888 H 985.097 -0.214433 -3.79895 0
M  V30 9889 H 984.609 -1.97998 -3.33794 0
M  V30 9890 H 982.71 0.459416 -3.69757 0
M  V30 9891 H 982.823 -1.16853 -4.64631 0
M  V30 9892 H 981.187 -0.526925 -2.4919 0
M  V30 9893 H 981.97 -2.19154 -2.64247 0
M  V30 9894 N 984.415 1.45619 -0.602734 0
M  V30 9895 C 985.692 1.9558 -0.0282472 0
M  V30 9896 C 986.072 1.54523 1.43826 0
M  V30 9897 O 985.42 0.805456 2.13833 0
M  V30 9898 C 985.63 3.48298 -0.221263 0
M  V30 9899 C 986.978 4.24483 -0.0995249 0
M  V30 9900 O 988.002 3.55879 -0.151132 0
M  V30 9901 O 986.861 5.46497 0.0194454 0
M  V30 9902 H 983.955 0.826104 0.0384897 0
M  V30 9903 H 986.501 1.55808 -0.672456 0
M  V30 9904 H 985.273 3.71134 -1.23997 0
M  V30 9905 H 984.896 3.94948 0.458437 0
M  V30 9906 N 985.893 0.34162 1.53853 0
M  V30 9907 C 987.141 -0.254979 2.00485 0
M  V30 9908 C 987.462 -1.51222 1.23114 0
M  V30 9909 O 986.732 -1.92966 0.337787 0
M  V30 9910 H 985.312 -0.0972084 0.740648 0
M  V30 9911 H 987.974 0.462332 1.89337 0
M  V30 9912 H 987.07 -0.498778 3.08089 0
M  V30 9913 N 987.371 -1.57444 0.0701946 0
M  V30 9914 C 988.782 -1.80875 -0.462709 0
M  V30 9915 C 989.133 -0.983975 -1.69742 0
M  V30 9916 O 988.258 -0.206027 -2.15417 0
M  V30 9917 C 988.853 -3.28062 -0.84623 0
M  V30 9918 C 987.412 -3.52345 -1.32401 0
M  V30 9919 C 986.559 -2.7558 -0.308399 0
M  V30 9920 H 989.51 -1.55917 0.295907 0
M  V30 9921 H 989.531 -3.40023 -1.70776 0
M  V30 9922 H 989.043 -3.88064 0.0526033 0
M  V30 9923 H 987.144 -2.97645 -2.24139 0
M  V30 9924 H 987.257 -4.6104 -1.30304 0
M  V30 9925 H 985.621 -2.4229 -0.785337 0
M  V30 9926 H 986.404 -3.38319 0.582679 0
M  V30 9927 N 988.849 0.203349 -1.56283 0
M  V30 9928 C 990.074 0.945548 -1.84592 0
M  V30 9929 C 990.499 1.7641 -0.652772 0
M  V30 9930 O 989.857 1.76867 0.398468 0
M  V30 9931 C 989.905 1.82416 -3.11057 0
M  V30 9932 O 989.009 2.92191 -2.9103 0
M  V30 9933 H 988.35 0.266739 -0.608068 0
M  V30 9934 H 990.88 0.211158 -2.03507 0
M  V30 9935 H 990.89 2.23044 -3.41636 0
M  V30 9936 H 989.565 1.22267 -3.97522 0
M  V30 9937 H 988.142 2.55378 -2.71728 0
M  V30 9938 N 990.327 1.50405 0.470755 0
M  V30 9939 C 991.257 1.72222 1.57676 0
M  V30 9940 C 992.238 0.57121 1.60222 0
M  V30 9941 O 993.423 0.810381 1.76484 0
M  V30 9942 C 990.553 1.81666 2.95998 0
M  V30 9943 C 989.507 2.96857 3.08318 0
M  V30 9944 C 988.833 2.91445 4.4829 0
M  V30 9945 C 990.133 4.37361 2.85504 0
M  V30 9946 H 991.827 2.64825 1.39671 0
M  V30 9947 H 989.373 1.27438 0.67049 0
M  V30 9948 H 991.326 1.95514 3.73299 0
M  V30 9949 H 990.05 0.856856 3.1516 0
M  V30 9950 H 988.709 2.82661 2.33449 0
M  V30 9951 H 988.357 1.93309 4.64371 0
M  V30 9952 H 988.057 3.68776 4.57469 0
M  V30 9953 H 989.581 3.07341 5.27611 0
M  V30 9954 H 990.995 4.52081 3.52555 0
M  V30 9955 H 989.392 5.16145 3.06127 0
M  V30 9956 H 990.462 4.49708 1.81359 0
M  V30 9957 N 991.805 -0.723954 1.39988 0
M  V30 9958 C 992.737 -1.84859 1.35498 0
M  V30 9959 C 993.75 -1.60681 0.261812 0
M  V30 9960 O 994.939 -1.7071 0.521566 0
M  V30 9961 C 992.039 -3.21103 1.08381 0
M  V30 9962 C 991.212 -3.72546 2.2919 0
M  V30 9963 C 990.271 -4.8738 1.9836 0
M  V30 9964 O 989.297 -5.00467 2.71149 0
M  V30 9965 N 990.499 -5.72566 0.956461 0
M  V30 9966 H 993.264 -1.89212 2.3242 0
M  V30 9967 H 990.825 -0.905152 1.34233 0
M  V30 9968 H 992.817 -3.9551 0.857564 0
M  V30 9969 H 991.387 -3.1195 0.201549 0
M  V30 9970 H 990.607 -2.89365 2.67697 0
M  V30 9971 H 991.895 -4.03652 3.09746 0
M  V30 9972 H 991.293 -5.64595 0.353444 0
M  V30 9973 H 989.85 -6.46993 0.790118 0
M  V30 9974 N 993.283 -1.25346 -0.955304 0
M  V30 9975 C 994.213 -1.08152 -2.06943 0
M  V30 9976 C 995.194 0.00922598 -1.70097 0
M  V30 9977 O 996.379 -0.160181 -1.93538 0
M  V30 9978 C 993.509 -0.698745 -3.40198 0
M  V30 9979 C 992.463 -1.73965 -3.9105 0
M  V30 9980 C 991.789 -1.21158 -5.20792 0
M  V30 9981 C 993.089 -3.13829 -4.17503 0
M  V30 9982 H 994.783 -2.01345 -2.21586 0
M  V30 9983 H 992.329 -0.969459 -1.06478 0
M  V30 9984 H 994.282 -0.565394 -4.1759 0
M  V30 9985 H 993.006 0.268892 -3.25491 0
M  V30 9986 H 991.665 -1.86143 -3.15827 0
M  V30 9987 H 991.313 -0.234193 -5.02455 0
M  V30 9988 H 991.013 -1.90728 -5.55785 0
M  V30 9989 H 992.537 -1.09061 -6.00781 0
M  V30 9990 H 993.951 -3.04809 -4.85556 0
M  V30 9991 H 992.348 -3.80863 -4.63749 0
M  V30 9992 H 993.418 -3.6094 -3.23806 0
M  V30 9993 N 994.761 1.15782 -1.06922 0
M  V30 9994 C 996.172 1.68062 -0.813144 0
M  V30 9995 C 996.523 1.84681 0.662374 0
M  V30 9996 O 995.648 1.54696 1.51321 0
M  V30 9997 C 996.243 3.05273 -1.46949 0
M  V30 9998 C 994.802 3.54647 -1.26104 0
M  V30 9999 C 993.949 2.30477 -1.54194 0
M  V30 10000 H 996.9 1.00056 -1.23185 0
M  V30 10001 H 996.921 3.69986 -0.888308 0
M  V30 10002 H 996.433 2.93145 -2.54337 0
M  V30 10003 H 994.534 3.72024 -0.20718 0
M  V30 10004 H 994.647 4.36354 -1.97819 0
M  V30 10005 H 993.011 2.35803 -0.96276 0
M  V30 10006 H 993.794 2.2094 -2.62755 0
M  V30 10007 N 996.239 0.8527 1.3254 0
M  V30 10008 C 997.202 0.300959 2.27215 0
M  V30 10009 C 998.202 -0.538235 1.51525 0
M  V30 10010 O 999.392 -0.350027 1.70647 0
M  V30 10011 C 996.524 -0.574428 3.36025 0
M  V30 10012 H 997.717 1.13655 2.77529 0
M  V30 10013 H 995.27 0.626878 1.43178 0
M  V30 10014 H 996.005 -1.43191 2.90976 0
M  V30 10015 H 995.79 0.0262265 3.92091 0
M  V30 10016 H 997.28 -0.9533 4.06573 0
M  V30 10017 N 997.718 -1.45297 0.610449 0
M  V30 10018 C 998.65 -2.28742 -0.144884 0
M  V30 10019 C 999.663 -1.40114 -0.828977 0
M  V30 10020 O 1000.85 -1.64461 -0.693887 0
M  V30 10021 C 997.952 -3.15934 -1.22632 0
M  V30 10022 C 997.125 -4.32857 -0.628785 0
M  V30 10023 C 996.184 -5.01237 -1.60148 0
M  V30 10024 O 995.21 -5.57938 -1.12667 0
M  V30 10025 N 996.412 -5.00785 -2.9359 0
M  V30 10026 H 999.177 -2.94207 0.571145 0
M  V30 10027 H 996.738 -1.55517 0.450134 0
M  V30 10028 H 998.73 -3.58545 -1.87691 0
M  V30 10029 H 997.3 -2.52358 -1.84483 0
M  V30 10030 H 996.52 -3.93693 0.199951 0
M  V30 10031 H 997.808 -5.08367 -0.209845 0
M  V30 10032 H 997.206 -4.56014 -3.34765 0
M  V30 10033 H 995.763 -5.4725 -3.54064 0
M  V30 10034 N 999.196 -0.349774 -1.5367 0
M  V30 10035 C 1000.42 0.246038 -2.05432 0
M  V30 10036 C 1000.84 1.43719 -1.22435 0
M  V30 10037 O 1000.2 1.80622 -0.261166 0
M  V30 10038 C 1000.25 0.65501 -3.55516 0
M  V30 10039 O 999.968 -0.488782 -4.35365 0
M  V30 10040 C 1001.47 1.31088 -4.23475 0
M  V30 10041 H 998.689 0.0463952 -0.669394 0
M  V30 10042 H 1001.23 -0.503566 -1.98203 0
M  V30 10043 H 999.388 1.35455 -3.62947 0
M  V30 10044 H 999.802 -0.161528 -5.24251 0
M  V30 10045 H 1001.28 1.54774 -5.29857 0
M  V30 10046 H 1001.75 2.26636 -3.76208 0
M  V30 10047 H 1002.36 0.653211 -4.20254 0
M  V30 10048 N 1000.67 1.57404 -0.0785433 0
M  V30 10049 C 1001.92 1.93744 0.589024 0
M  V30 10050 C 1002.25 0.959087 1.69209 0
M  V30 10051 O 1001.5 -0.0241604 1.95685 0
M  V30 10052 C 1001.8 3.36684 1.1991 0
M  V30 10053 C 1001.47 4.50356 0.221493 0
M  V30 10054 C 1000.13 4.81177 -0.0474347 0
M  V30 10055 C 1002.48 5.1928 -0.446941 0
M  V30 10056 C 999.811 5.78257 -0.99177 0
M  V30 10057 C 1002.16 6.17372 -1.37964 0
M  V30 10058 C 1000.83 6.46607 -1.65697 0
M  V30 10059 H 1000.1 0.70896 0.215539 0
M  V30 10060 H 1002.74 1.90905 -0.150856 0
M  V30 10061 H 1001.05 3.36022 2.01486 0
M  V30 10062 H 1002.75 3.62095 1.72303 0
M  V30 10063 H 999.336 4.26322 0.441284 0
M  V30 10064 H 1003.52 4.95658 -0.252298 0
M  V30 10065 H 998.776 5.9923 -1.21381 0
M  V30 10066 H 1002.95 6.6988 -1.9035 0
M  V30 10067 H 1000.58 7.21643 -2.39031 0
M  V30 10068 N 1002.15 -0.195058 1.56388 0
M  V30 10069 C 1003.38 -0.935745 1.85091 0
M  V30 10070 C 1003.8 -1.76061 0.662118 0
M  V30 10071 O 1003.16 -1.77076 -0.389083 0
M  V30 10072 C 1003.21 -1.80764 3.1202 0
M  V30 10073 O 1002.31 -2.90643 2.92575 0
M  V30 10074 H 1001.65 -0.26351 0.609474 0
M  V30 10075 H 1004.18 -0.200362 2.03617 0
M  V30 10076 H 1004.19 -2.21229 3.42815 0
M  V30 10077 H 1002.87 -1.20157 3.98165 0
M  V30 10078 H 1001.44 -2.53934 2.73079 0
M  V30 10079 N 1003.63 -1.50653 -0.462772 0
M  V30 10080 C 1004.85 -1.66103 -1.24196 0
M  V30 10081 C 1005.28 -0.347421 -1.84864 0
M  V30 10082 O 1004.64 0.689673 -1.6767 0
M  V30 10083 C 1004.69 -2.76027 -2.32037 0
M  V30 10084 O 1003.79 -2.37859 -3.36893 0
M  V30 10085 H 1003.13 -0.554672 -0.365014 0
M  V30 10086 H 1005.66 -1.97076 -0.549734 0
M  V30 10087 H 1005.67 -2.99354 -2.77221 0
M  V30 10088 H 1004.35 -3.71361 -1.87253 0
M  V30 10089 H 1002.92 -2.2501 -2.97363 0
M  V30 10090 N 1005.11 0.71652 -1.4037 0
M  V30 10091 C 1006.07 1.81231 -1.40313 0
M  V30 10092 C 1007.07 1.58032 -0.297087 0
M  V30 10093 O 1008.26 1.65091 -0.555944 0
M  V30 10094 C 1005.39 3.19308 -1.19395 0
M  V30 10095 H 1006.59 1.8268 -2.3784 0
M  V30 10096 H 1004.14 0.922062 -1.26205 0
M  V30 10097 H 1004.87 3.2351 -0.226252 0
M  V30 10098 H 1004.66 3.37546 -1.99512 0
M  V30 10099 H 1006.15 3.99339 -1.22141 0
M  V30 10100 N 1006.59 1.25851 0.948643 0
M  V30 10101 C 1008 1.09975 1.50872 0
M  V30 10102 C 1008.35 -0.322497 1.93531 0
M  V30 10103 O 1007.47 -1.21316 1.79197 0
M  V30 10104 C 1008.07 1.99021 2.74182 0
M  V30 10105 C 1006.63 1.87313 3.26483 0
M  V30 10106 C 1005.77 1.92815 1.99293 0
M  V30 10107 H 1008.73 1.3905 0.764908 0
M  V30 10108 H 1008.75 1.53372 3.4822 0
M  V30 10109 H 1008.26 3.02527 2.43103 0
M  V30 10110 H 1006.36 0.867136 3.62369 0
M  V30 10111 H 1006.47 2.72446 3.94094 0
M  V30 10112 H 1004.84 1.36774 2.1486 0
M  V30 10113 H 1005.62 2.97936 1.70554 0
M  V30 10114 N 1008.06 -1.15214 1.07534 0
M  V30 10115 C 1009.31 -1.86319 0.800814 0
M  V30 10116 C 1009.64 -1.82221 -0.671494 0
M  V30 10117 O 1008.92 -1.24664 -1.49295 0
M  V30 10118 C 1009.2 -3.35347 1.31203 0
M  V30 10119 C 1009.05 -3.48067 2.84902 0
M  V30 10120 C 1010.37 -4.3016 0.930064 0
M  V30 10121 H 1007.49 -0.676523 0.292379 0
M  V30 10122 H 1010.13 -1.35349 1.33344 0
M  V30 10123 H 1008.28 -3.78886 0.858949 0
M  V30 10124 H 1009.96 -3.13379 3.38514 0
M  V30 10125 H 1008.2 -2.89566 3.23008 0
M  V30 10126 H 1008.87 -4.52782 3.15741 0
M  V30 10127 H 1011.35 -3.94591 1.3205 0
M  V30 10128 H 1010.22 -5.32914 1.31507 0
M  V30 10129 H 1010.48 -4.41796 -0.163824 0
M  V30 10130 N 1009.54 -0.859717 -1.32086 0
M  V30 10131 C 1010.95 -0.519529 -1.79326 0
M  V30 10132 C 1011.3 0.96295 -1.70944 0
M  V30 10133 O 1010.43 1.75139 -1.27104 0
M  V30 10134 C 1011.02 -0.936267 -3.25606 0
M  V30 10135 C 1009.58 -0.647899 -3.70782 0
M  V30 10136 C 1008.73 -1.13323 -2.53087 0
M  V30 10137 H 1011.68 -1.04643 -1.19312 0
M  V30 10138 H 1011.7 -0.254714 -3.79646 0
M  V30 10139 H 1011.21 -2.01527 -3.31675 0
M  V30 10140 H 1009.32 0.420172 -3.70223 0
M  V30 10141 H 1009.43 -1.21774 -4.63366 0
M  V30 10142 H 1007.79 -0.553325 -2.48617 0
M  V30 10143 H 1008.58 -2.21945 -2.61907 0
M  V30 10144 N 1011.02 1.44971 -0.618145 0
M  V30 10145 C 1012.27 2.0176 -0.11725 0
M  V30 10146 C 1012.59 1.48773 1.26062 0
M  V30 10147 O 1011.86 0.686152 1.83491 0
M  V30 10148 H 1010.44 0.745909 -0.0403545 0
M  V30 10149 H 1013.1 1.77638 -0.801923 0
M  V30 10150 H 1012.2 3.1201 -0.0750477 0
M  V30 10151 N 1012.5 0.357919 1.53482 0
M  V30 10152 C 1013.72 -0.237769 2.06033 0
M  V30 10153 C 1014.15 -1.42292 1.23023 0
M  V30 10154 O 1013.51 -1.79604 0.247427 0
M  V30 10155 C 1013.55 -0.616806 3.55286 0
M  V30 10156 O 1012.66 -1.71503 3.75047 0
M  V30 10157 H 1012 -0.0364322 0.663 0
M  V30 10158 H 1014.53 0.516301 1.97979 0
M  V30 10159 H 1014.54 -0.88996 3.98175 0
M  V30 10160 H 1013.21 0.249825 4.15149 0
M  V30 10161 H 1011.79 -1.43803 3.44057 0
M  V30 10162 N 1013.98 -1.5736 0.0868897 0
M  V30 10163 C 1015.2 -1.98809 -0.590757 0
M  V30 10164 C 1015.63 -0.965407 -1.61436 0
M  V30 10165 O 1014.98 0.067143 -1.81176 0
M  V30 10166 C 1015.03 -3.39249 -1.22238 0
M  V30 10167 O 1014.14 -3.39706 -2.33824 0
M  V30 10168 H 1013.48 -0.64669 -0.150626 0
M  V30 10169 H 1016.01 -2.03927 0.165873 0
M  V30 10170 H 1016.02 -3.76765 -1.56564 0
M  V30 10171 H 1014.69 -4.13208 -0.472434 0
M  V30 10172 H 1013.27 -3.13977 -2.01178 0
M  V30 10173 N 1015.45 0.186762 -1.56489 0
M  V30 10174 C 1016.68 0.925916 -1.85584 0
M  V30 10175 C 1017.1 1.75708 -0.671446 0
M  V30 10176 O 1016.46 1.7728 0.379687 0
M  V30 10177 C 1016.51 1.79107 -3.12975 0
M  V30 10178 O 1015.61 2.89088 -2.94112 0
M  V30 10179 H 1014.96 0.260275 -0.610863 0
M  V30 10180 H 1017.49 0.189561 -2.0372 0
M  V30 10181 H 1017.5 2.19408 -3.43983 0
M  V30 10182 H 1016.17 1.18044 -3.98796 0
M  V30 10183 H 1014.75 2.52482 -2.74422 0
M  V30 10184 N 1016.93 1.50896 0.454776 0
M  V30 10185 C 1018.16 1.66759 1.23313 0
M  V30 10186 C 1018.58 0.35722 1.84677 0
M  V30 10187 O 1017.94 -0.680771 1.68033 0
M  V30 10188 C 1017.99 2.77254 2.3057 0
M  V30 10189 O 1017.09 2.39642 3.35627 0
M  V30 10190 H 1016.43 0.556599 0.362068 0
M  V30 10191 H 1018.96 1.97365 0.539274 0
M  V30 10192 H 1018.97 3.0082 2.75629 0
M  V30 10193 H 1017.65 3.72349 1.85281 0
M  V30 10194 H 1016.23 2.26584 2.96165 0
M  V30 10195 N 1018.41 -0.709066 1.40748 0
M  V30 10196 C 1019.64 -1.49808 1.42707 0
M  V30 10197 C 1020.05 -1.88778 0.0285574 0
M  V30 10198 O 1019.41 -1.55883 -0.949035 0
M  V30 10199 C 1019.46 -2.76926 2.32366 0
M  V30 10200 O 1019.18 -2.39602 3.66773 0
M  V30 10201 C 1020.68 -3.70773 2.42986 0
M  V30 10202 H 1017.9 -0.462106 0.486517 0
M  V30 10203 H 1020.45 -0.874135 1.84876 0
M  V30 10204 H 1018.6 -3.3559 1.93541 0
M  V30 10205 H 1019.02 -3.21443 4.14457 0
M  V30 10206 H 1020.49 -4.56789 3.09916 0
M  V30 10207 H 1020.97 -4.14332 1.45691 0
M  V30 10208 H 1021.57 -3.18019 2.8239 0
M  V30 10209 N 1019.89 -1.26353 -0.941956 0
M  V30 10210 C 1020.82 -1.10341 -2.05784 0
M  V30 10211 C 1021.8 -0.00881565 -1.70098 0
M  V30 10212 O 1022.99 -0.180699 -1.93357 0
M  V30 10213 C 1020.12 -0.734788 -3.39438 0
M  V30 10214 C 1019.07 -1.78103 -3.89183 0
M  V30 10215 C 1018.4 -1.26675 -5.19478 0
M  V30 10216 C 1019.7 -3.1824 -4.14151 0
M  V30 10217 H 1021.39 -2.03684 -2.19438 0
M  V30 10218 H 1018.94 -0.980698 -1.05443 0
M  V30 10219 H 1020.89 -0.609653 -4.16967 0
M  V30 10220 H 1019.61 0.234354 -3.25758 0
M  V30 10221 H 1018.27 -1.89482 -3.13835 0
M  V30 10222 H 1017.92 -0.287472 -5.02178 0
M  V30 10223 H 1017.62 -1.96612 -5.53731 0
M  V30 10224 H 1019.14 -1.15427 -5.99591 0
M  V30 10225 H 1020.56 -3.09942 -4.82296 0
M  V30 10226 H 1018.95 -3.8576 -4.59684 0
M  V30 10227 H 1020.02 -3.64354 -3.19959 0
M  V30 10228 N 1021.37 1.14642 -1.08144 0
M  V30 10229 C 1022.78 1.6719 -0.830923 0
M  V30 10230 C 1023.13 1.85373 0.642749 0
M  V30 10231 O 1022.25 1.56293 1.49671 0
M  V30 10232 C 1022.85 3.03697 -1.50179 0
M  V30 10233 C 1021.41 3.5329 -1.29858 0
M  V30 10234 C 1020.56 2.28828 -1.5663 0
M  V30 10235 H 1023.51 0.987441 -1.24239 0
M  V30 10236 H 1023.53 3.69023 -0.9275 0
M  V30 10237 H 1023.04 2.90431 -2.57432 0
M  V30 10238 H 1021.14 3.71783 -0.246626 0
M  V30 10239 H 1021.25 4.34231 -2.02436 0
M  V30 10240 H 1019.62 2.34769 -0.987716 0
M  V30 10241 H 1020.4 2.18141 -2.65084 0
M  V30 10242 N 1022.85 0.866709 1.31628 0
M  V30 10243 C 1024.07 0.48956 2.01539 0
M  V30 10244 C 1024.5 -0.909556 1.64647 0
M  V30 10245 O 1023.85 -1.59959 0.853391 0
M  V30 10246 C 1023.9 0.650176 3.5469 0
M  V30 10247 O 1023.01 -0.311908 4.11219 0
M  V30 10248 H 1022.35 0.195144 0.634677 0
M  V30 10249 H 1024.88 1.16923 1.679 0
M  V30 10250 H 1024.89 0.542236 4.04381 0
M  V30 10251 H 1023.56 1.67038 3.80882 0
M  V30 10252 H 1022.14 -0.159197 3.7256 0
M  V30 10253 N 1024.32 -1.44642 0.625825 0
M  V30 10254 C 1025.55 -2.06971 0.133373 0
M  V30 10255 C 1025.97 -1.46421 -1.18078 0
M  V30 10256 O 1025.33 -0.563676 -1.72315 0
M  V30 10257 C 1025.38 -3.6059 0.0265097 0
M  V30 10258 O 1024.48 -3.99615 -1.01889 0
M  V30 10259 H 1023.82 -0.658873 0.0823568 0
M  V30 10260 H 1026.35 -1.85601 0.861002 0
M  V30 10261 H 1026.36 -4.07663 -0.1658 0
M  V30 10262 H 1025.04 -4.04043 0.985986 0
M  V30 10263 H 1023.62 -3.64183 -0.801577 0
M  V30 10264 N 1025.8 -0.366053 -1.5329 0
M  V30 10265 C 1027.04 0.223558 -2.03174 0
M  V30 10266 C 1027.41 1.45955 -1.24745 0
M  V30 10267 O 1028.61 2.12481 -1.64637 0
M  V30 10268 C 1026.88 0.507899 -3.53773 0
M  V30 10269 S 1028.44 1.07111 -4.25526 0
M  V30 10270 H 1025.25 0.0650309 -0.70802 0
M  V30 10271 H 1027.86 -0.509028 -1.88757 0
M  V30 10272 H 1026.56 -0.39913 -4.08455 0
M  V30 10273 H 1026.09 1.26954 -3.72352 0
M  V30 10274 H 1028.11 2.35533 -4.36737 0
M  V30 10275 N 1027.28 1.57312 -0.0952337 0
M  V30 10276 C 1028.19 2.17556 0.877877 0
M  V30 10277 C 1029.21 1.14505 1.31014 0
M  V30 10278 O 1030.38 1.46876 1.37802 0
M  V30 10279 C 1027.45 2.74413 2.11892 0
M  V30 10280 C 1026.51 3.92419 1.74085 0
M  V30 10281 C 1025.74 4.46556 2.92273 0
M  V30 10282 O 1025.96 3.99631 4.07002 0
M  V30 10283 O 1024.9 5.37576 2.70732 0
M  V30 10284 H 1028.72 3.01116 0.395312 0
M  V30 10285 H 1026.31 1.48841 0.129123 0
M  V30 10286 H 1028.19 3.10754 2.84622 0
M  V30 10287 H 1026.87 1.93899 2.59201 0
M  V30 10288 H 1025.77 3.6089 0.985346 0
M  V30 10289 H 1027.11 4.74298 1.31539 0
M  V30 10290 N 1028.76 -0.17846 1.56586 0
M  V30 10291 C 1029.69 -1.24547 1.92408 0
M  V30 10292 C 1030.7 -1.40849 0.816421 0
M  V30 10293 O 1031.89 -1.40979 1.09486 0
M  V30 10294 C 1028.99 -2.61523 2.15544 0
M  V30 10295 C 1028.16 -2.66613 3.46751 0
M  V30 10296 C 1027.22 -3.84901 3.588 0
M  V30 10297 O 1026.25 -3.71231 4.31482 0
M  V30 10298 N 1027.45 -5.0106 2.9312 0
M  V30 10299 H 1030.22 -0.941275 2.84535 0
M  V30 10300 H 1027.78 -0.368275 1.57656 0
M  V30 10301 H 1029.77 -3.3911 2.20876 0
M  V30 10302 H 1028.34 -2.84362 1.29835 0
M  V30 10303 H 1027.56 -1.75174 3.5314 0
M  V30 10304 H 1028.85 -2.67018 4.33104 0
M  V30 10305 H 1028.25 -5.15067 2.33928 0
M  V30 10306 H 1026.8 -5.76535 3.04057 0
M  V30 10307 N 1030.24 -1.51135 -0.446768 0
M  V30 10308 C 1031.46 -1.67411 -1.22427 0
M  V30 10309 C 1031.89 -0.367009 -1.84485 0
M  V30 10310 O 1031.24 0.67185 -1.68392 0
M  V30 10311 C 1031.29 -2.78473 -2.29096 0
M  V30 10312 O 1030.4 -2.41419 -3.34351 0
M  V30 10313 H 1029.74 -0.558512 -0.359111 0
M  V30 10314 H 1032.27 -1.97648 -0.5288 0
M  V30 10315 H 1032.28 -3.02277 -2.7403 0
M  V30 10316 H 1030.95 -3.73326 -1.83304 0
M  V30 10317 H 1029.53 -2.28152 -2.9496 0
M  V30 10318 N 1031.71 0.701592 -1.41122 0
M  V30 10319 C 1033.13 1.01143 -1.23459 0
M  V30 10320 C 1033.33 2.01144 -0.11968 0
M  V30 10321 O 1032.39 2.47132 0.517889 0
M  V30 10322 C 1033.7 1.54179 -2.58165 0
M  V30 10323 C 1035.25 1.66093 -2.65296 0
M  V30 10324 C 1035.72 2.22532 -4.00304 0
M  V30 10325 N 1037.21 2.299 -4.0212 0
M  V30 10326 C 1037.95 2.74584 -5.0338 0
M  V30 10327 N 1037.44 3.18917 -6.15032 0
M  V30 10328 N 1039.24 2.74094 -4.90743 0
M  V30 10329 H 1031.39 0.0390087 -2.12364 0
M  V30 10330 H 1033.65 0.0798848 -0.944628 0
M  V30 10331 H 1033.36 0.881587 -3.40472 0
M  V30 10332 H 1033.23 2.52488 -2.80231 0
M  V30 10333 H 1035.62 2.31227 -1.83352 0
M  V30 10334 H 1035.7 0.663461 -2.47046 0
M  V30 10335 H 1035.34 1.58016 -4.82694 0
M  V30 10336 H 1035.27 3.2302 -4.15891 0
M  V30 10337 H 1037.76 1.98607 -3.21502 0
M  V30 10338 H 1038.08 3.5162 -6.88174 0
M  V30 10339 H 1036.42 3.1684 -6.18577 0
M  V30 10340 H 1039.61 2.38804 -4.02604 0
M  V30 10341 H 1039.79 3.086 -5.69798 0
M  V30 10342 N 1033.19 1.2685 0.935242 0
M  V30 10343 C 1034.12 1.04717 2.0388 0
M  V30 10344 C 1035.14 0.00567507 1.62799 0
M  V30 10345 O 1036.33 0.246408 1.76791 0
M  V30 10346 C 1033.43 0.56496 3.34158 0
M  V30 10347 C 1032.6 1.67704 4.03973 0
M  V30 10348 C 1031.66 1.19186 5.12524 0
M  V30 10349 O 1030.68 1.89008 5.36903 0
M  V30 10350 N 1031.89 0.0434554 5.80484 0
M  V30 10351 H 1034.65 1.99746 2.23431 0
M  V30 10352 H 1032.21 1.18316 1.10512 0
M  V30 10353 H 1034.2 0.224436 4.04077 0
M  V30 10354 H 1032.77 -0.291899 3.11234 0
M  V30 10355 H 1031.99 2.18821 3.27889 0
M  V30 10356 H 1033.28 2.42361 4.47368 0
M  V30 10357 H 1032.68 -0.539502 5.63122 0
M  V30 10358 H 1031.24 -0.237946 6.51366 0
M  V30 10359 N 1034.67 -1.14067 1.0875 0
M  V30 10360 C 1035.63 -2.17453 0.724341 0
M  V30 10361 C 1036.63 -1.58959 -0.242614 0
M  V30 10362 O 1037.82 -1.74186 -0.0217008 0
M  V30 10363 C 1034.96 -3.40828 0.0700236 0
M  V30 10364 H 1036.15 -2.51094 1.63987 0
M  V30 10365 H 1033.7 -1.28775 0.885813 0
M  V30 10366 H 1034.44 -3.1277 -0.857061 0
M  V30 10367 H 1034.22 -3.84551 0.76569 0
M  V30 10368 H 1035.71 -4.17258 -0.168905 0
M  V30 10369 N 1036.15 -0.873678 -1.31166 0
M  V30 10370 C 1037.06 -0.335726 -2.32185 0
M  V30 10371 C 1038.07 0.556259 -1.64869 0
M  V30 10372 O 1039.25 0.452087 -1.9626 0
M  V30 10373 C 1036.32 0.450822 -3.43756 0
M  V30 10374 C 1035.38 -0.469565 -4.26724 0
M  V30 10375 C 1034.61 0.279538 -5.32967 0
M  V30 10376 O 1034.83 1.50715 -5.50128 0
M  V30 10377 O 1033.77 -0.36452 -6.00795 0
M  V30 10378 H 1037.59 -1.17314 -2.80127 0
M  V30 10379 H 1035.18 -0.637163 -1.35132 0
M  V30 10380 H 1037.06 0.896582 -4.11752 0
M  V30 10381 H 1035.73 1.26472 -2.9797 0
M  V30 10382 H 1034.64 -0.963902 -3.61469 0
M  V30 10383 H 1035.97 -1.24916 -4.76085 0
M  V30 10384 N 1037.63 1.44308 -0.633487 0
M  V30 10385 C 1038.85 2.06384 -0.146063 0
M  V30 10386 C 1039.27 1.47357 1.18031 0
M  V30 10387 O 1038.63 0.597334 1.72448 0
M  V30 10388 C 1038.68 3.61489 -0.0276722 0
M  V30 10389 O 1038.4 4.18318 -1.3016 0
M  V30 10390 C 1039.9 4.40604 0.488168 0
M  V30 10391 H 1037.12 0.666122 -0.0807632 0
M  V30 10392 H 1039.66 1.85139 -0.868557 0
M  V30 10393 H 1037.82 3.81988 0.645273 0
M  V30 10394 H 1038.23 5.11783 -1.14797 0
M  V30 10395 H 1039.71 5.49545 0.520013 0
M  V30 10396 H 1040.18 4.12218 1.51568 0
M  V30 10397 H 1040.79 4.2503 -0.151608 0
M  V30 10398 N 1039.1 0.374177 1.53094 0
M  V30 10399 C 1040.52 -0.103172 1.86415 0
M  V30 10400 C 1040.87 -1.47439 1.29446 0
M  V30 10401 O 1039.99 -2.07333 0.619853 0
M  V30 10402 C 1040.59 -0.193988 3.38244 0
M  V30 10403 C 1039.15 -0.615605 3.71332 0
M  V30 10404 C 1038.29 0.23186 2.76329 0
M  V30 10405 H 1041.24 0.592644 1.47219 0
M  V30 10406 H 1041.26 -1.01597 3.66686 0
M  V30 10407 H 1040.78 0.80414 3.79678 0
M  V30 10408 H 1038.88 -1.62165 3.3546 0
M  V30 10409 H 1038.99 -0.38425 4.77557 0
M  V30 10410 H 1037.35 -0.300579 2.5292 0
M  V30 10411 H 1038.14 1.22769 3.20597 0
M  V30 10412 N 1040.58 -1.57259 0.103575 0
M  V30 10413 C 1041.81 -1.99424 -0.569638 0
M  V30 10414 C 1042.23 -0.982475 -1.60403 0
M  V30 10415 O 1041.59 0.0479231 -1.81237 0
M  V30 10416 C 1041.64 -3.40527 -1.18633 0
M  V30 10417 O 1040.74 -3.42167 -2.30208 0
M  V30 10418 H 1040.08 -0.648251 -0.143759 0
M  V30 10419 H 1042.61 -2.03739 0.187493 0
M  V30 10420 H 1042.62 -3.78404 -1.5256 0
M  V30 10421 H 1041.3 -4.13686 -0.428582 0
M  V30 10422 H 1039.88 -3.16093 -1.97837 0
M  V30 10423 N 1042.06 0.170153 -1.56679 0
M  V30 10424 C 1043.34 0.913938 -1.72935 0
M  V30 10425 C 1043.72 2.00342 -0.665293 0
M  V30 10426 O 1043.07 2.26252 0.319715 0
M  V30 10427 C 1043.28 1.47761 -3.16177 0
M  V30 10428 C 1044.62 1.95007 -3.7717 0
M  V30 10429 O 1045.65 1.57552 -3.19462 0
M  V30 10430 O 1044.51 2.64007 -4.78501 0
M  V30 10431 H 1041.6 0.43027 -0.706256 0
M  V30 10432 H 1044.15 0.157891 -1.68964 0
M  V30 10433 H 1042.92 0.69352 -3.85105 0
M  V30 10434 H 1042.54 2.2978 -3.24479 0
M  V30 10435 N 1043.54 1.5137 0.438746 0
M  V30 10436 C 1044.95 1.56462 1.01866 0
M  V30 10437 C 1045.3 0.387244 1.9234 0
M  V30 10438 O 1044.43 -0.496131 2.10636 0
M  V30 10439 C 1045.02 2.83557 1.85421 0
M  V30 10440 C 1043.58 2.91224 2.38464 0
M  V30 10441 C 1042.73 2.51109 1.17641 0
M  V30 10442 H 1045.68 1.57167 0.220072 0
M  V30 10443 H 1045.7 2.6724 2.70857 0
M  V30 10444 H 1045.21 3.69229 1.19546 0
M  V30 10445 H 1043.31 2.09979 3.07798 0
M  V30 10446 H 1043.42 3.94844 2.71358 0
M  V30 10447 H 1041.79 2.04276 1.5213 0
M  V30 10448 H 1042.57 3.39125 0.533785 0
M  V30 10449 N 1045.02 -0.694098 1.41492 0
M  V30 10450 C 1045.95 -1.81943 1.39389 0
M  V30 10451 C 1046.96 -1.6009 0.295836 0
M  V30 10452 O 1048.15 -1.69565 0.557658 0
M  V30 10453 C 1045.25 -3.18731 1.15167 0
M  V30 10454 C 1044.42 -3.67601 2.37041 0
M  V30 10455 C 1043.48 -4.83063 2.08654 0
M  V30 10456 O 1042.51 -4.94603 2.81704 0
M  V30 10457 N 1043.71 -5.70409 1.0777 0
M  V30 10458 H 1046.48 -1.84239 2.36381 0
M  V30 10459 H 1044.04 -0.876475 1.36123 0
M  V30 10460 H 1046.03 -3.93602 0.941264 0
M  V30 10461 H 1044.6 -3.11452 0.267673 0
M  V30 10462 H 1043.82 -2.83622 2.73774 0
M  V30 10463 H 1045.11 -3.96991 3.18239 0
M  V30 10464 H 1044.5 -5.63718 0.473123 0
M  V30 10465 H 1043.06 -6.45172 0.927177 0
M  V30 10466 N 1046.49 -1.27344 -0.928501 0
M  V30 10467 C 1047.72 -1.16447 -1.7102 0
M  V30 10468 C 1048.14 0.278799 -1.8673 0
M  V30 10469 O 1047.49 1.18989 -1.38376 0
M  V30 10470 C 1047.55 -1.84242 -3.11026 0
M  V30 10471 O 1047.27 -3.2293 -2.96054 0
M  V30 10472 C 1048.77 -1.7946 -4.05351 0
M  V30 10473 H 1045.99 -0.404898 -0.535069 0
M  V30 10474 H 1048.53 -1.68201 -1.16313 0
M  V30 10475 H 1046.69 -1.36395 -3.62595 0
M  V30 10476 H 1047.1 -3.5667 -3.8456 0
M  V30 10477 H 1048.57 -2.31511 -5.01105 0
M  V30 10478 H 1049.05 -0.763771 -4.32508 0
M  V30 10479 H 1049.66 -2.26918 -3.59706 0
M  V30 10480 N 1047.97 1.13488 -1.09353 0
M  V30 10481 C 1048.88 2.2248 -0.744307 0
M  V30 10482 C 1049.9 1.72145 0.253404 0
M  V30 10483 O 1051.07 2.01176 0.0949339 0
M  V30 10484 C 1048.14 3.46286 -0.16928 0
M  V30 10485 C 1047.2 4.11516 -1.22284 0
M  V30 10486 C 1046.43 5.29412 -0.675161 0
M  V30 10487 O 1046.66 5.68185 0.502182 0
M  V30 10488 O 1045.59 5.8467 -1.42983 0
M  V30 10489 H 1049.42 2.54723 -1.65378 0
M  V30 10490 H 1047 1.21607 -0.867879 0
M  V30 10491 H 1048.88 4.2114 0.14811 0
M  V30 10492 H 1047.56 3.15745 0.713214 0
M  V30 10493 H 1046.47 3.38492 -1.59292 0
M  V30 10494 H 1047.8 4.46186 -2.07796 0
M  V30 10495 N 1049.45 0.880621 1.30701 0
M  V30 10496 C 1050.68 0.511682 2.00473 0
M  V30 10497 C 1051.09 -0.898684 1.6604 0
M  V30 10498 O 1050.45 -1.59035 0.895218 0
M  V30 10499 C 1050.5 0.671723 3.55204 0
M  V30 10500 O 1050.22 2.02656 3.8841 0
M  V30 10501 C 1051.72 0.3052 4.42248 0
M  V30 10502 H 1048.94 0.198231 0.64105 0
M  V30 10503 H 1051.49 1.18472 1.66687 0
M  V30 10504 H 1049.64 0.0461066 3.87373 0
M  V30 10505 H 1050.06 2.04202 4.83117 0
M  V30 10506 H 1051.53 0.468095 5.50012 0
M  V30 10507 H 1052.01 -0.756456 4.32637 0
M  V30 10508 H 1052.61 0.906959 4.15517 0
M  V30 10509 N 1050.93 -1.4397 0.641131 0
M  V30 10510 C 1051.86 -2.33458 -0.04446 0
M  V30 10511 C 1052.84 -1.48781 -0.824507 0
M  V30 10512 O 1054.03 -1.77477 -0.788397 0
M  V30 10513 C 1051.16 -3.31989 -1.01984 0
M  V30 10514 C 1050.11 -4.2656 -0.350745 0
M  V30 10515 C 1049.44 -5.15036 -1.43673 0
M  V30 10516 C 1050.74 -5.16897 0.749299 0
M  V30 10517 H 1052.43 -2.91034 0.702832 0
M  V30 10518 H 1049.98 -1.39942 0.339435 0
M  V30 10519 H 1051.93 -3.93483 -1.50828 0
M  V30 10520 H 1050.65 -2.72643 -1.79815 0
M  V30 10521 H 1049.31 -3.66413 0.117139 0
M  V30 10522 H 1048.96 -4.52037 -2.20617 0
M  V30 10523 H 1048.66 -5.79125 -0.994358 0
M  V30 10524 H 1050.18 -5.79403 -1.92678 0
M  V30 10525 H 1051.6 -5.7227 0.343534 0
M  V30 10526 H 1049.99 -5.89643 1.11541 0
M  V30 10527 H 1051.06 -4.5731 1.61232 0
M  V30 10528 N 1052.41 -0.382291 -1.52893 0
M  V30 10529 C 1053.63 0.204961 -2.06385 0
M  V30 10530 C 1054.06 1.40316 -1.25271 0
M  V30 10531 O 1053.42 1.79187 -0.275969 0
M  V30 10532 C 1053.46 0.560205 -3.56222 0
M  V30 10533 O 1052.57 1.65515 -3.77728 0
M  V30 10534 H 1051.91 0.0258798 -0.663495 0
M  V30 10535 H 1054.44 -0.547733 -1.97132 0
M  V30 10536 H 1054.45 0.826501 -3.99541 0
M  V30 10537 H 1053.12 -0.31584 -4.14699 0
M  V30 10538 H 1051.7 1.38311 -3.46301 0
M  V30 10539 N 1053.89 1.57202 -0.111913 0
M  V30 10540 C 1054.85 2.13778 0.826534 0
M  V30 10541 C 1055.85 1.07097 1.19945 0
M  V30 10542 O 1057.04 1.32906 1.12613 0
M  V30 10543 C 1054.17 2.6722 2.11675 0
M  V30 10544 H 1055.36 2.98023 0.334975 0
M  V30 10545 H 1052.92 1.55696 0.137256 0
M  V30 10546 H 1053.65 1.86542 2.65278 0
M  V30 10547 H 1053.44 3.45235 1.8589 0
M  V30 10548 H 1054.93 3.10926 2.78774 0
M  V30 10549 N 1055.36 -0.161842 1.56767 0
M  V30 10550 C 1056.3 -1.22927 1.9226 0
M  V30 10551 C 1057.27 -1.42309 0.786562 0
M  V30 10552 O 1058.46 -1.57163 1.04078 0
M  V30 10553 C 1055.59 -2.59069 2.18177 0
M  V30 10554 C 1054.63 -2.56368 3.40849 0
M  V30 10555 S 1055.46 -2.04518 4.94907 0
M  V30 10556 C 1056.62 -3.42418 5.23928 0
M  V30 10557 H 1056.85 -0.926377 2.82499 0
M  V30 10558 H 1054.39 -0.366822 1.49979 0
M  V30 10559 H 1056.34 -3.37421 2.33789 0
M  V30 10560 H 1055.01 -2.86554 1.28629 0
M  V30 10561 H 1054.2 -3.56551 3.56213 0
M  V30 10562 H 1053.8 -1.86116 3.24402 0
M  V30 10563 H 1056.09 -4.38461 5.16486 0
M  V30 10564 H 1057.04 -3.3192 6.25487 0
M  V30 10565 H 1057.44 -3.38868 4.51474 0
M  V30 10566 N 1056.84 -1.516 -0.430713 0
M  V30 10567 C 1058.12 -1.55142 -1.19123 0
M  V30 10568 C 1058.5 -0.319596 -2.08667 0
M  V30 10569 O 1057.85 0.694927 -2.17676 0
M  V30 10570 C 1058.06 -2.86891 -1.98732 0
M  V30 10571 C 1059.4 -3.39089 -2.55546 0
M  V30 10572 O 1060.43 -2.88486 -2.08936 0
M  V30 10573 O 1059.29 -4.27401 -3.40574 0
M  V30 10574 H 1056.38 -0.624019 -0.542705 0
M  V30 10575 H 1058.93 -1.63917 -0.439244 0
M  V30 10576 H 1057.7 -3.68002 -1.33005 0
M  V30 10577 H 1057.32 -2.81309 -2.80982 0
M  V30 10578 N 1058.32 0.686584 -1.41858 0
M  V30 10579 C 1059.57 1.44879 -1.41908 0
M  V30 10580 C 1059.9 1.94175 -0.0311408 0
M  V30 10581 O 1059.17 1.70131 0.942646 0
M  V30 10582 C 1059.46 2.65428 -2.43352 0
M  V30 10583 C 1059.31 2.2184 -3.91289 0
M  V30 10584 C 1060.63 3.67635 -2.41934 0
M  V30 10585 H 1057.75 0.525477 -0.516762 0
M  V30 10586 H 1060.39 0.781263 -1.73194 0
M  V30 10587 H 1058.54 3.2238 -2.16803 0
M  V30 10588 H 1060.21 1.70146 -4.28775 0
M  V30 10589 H 1058.45 1.53531 -4.05722 0
M  V30 10590 H 1059.13 3.08376 -4.5783 0
M  V30 10591 H 1061.6 3.20376 -2.65516 0
M  V30 10592 H 1060.48 4.49579 -3.14913 0
M  V30 10593 H 1060.74 4.17953 -1.44111 0
M  V30 10594 N 1059.8 1.27835 0.921735 0
M  V30 10595 C 1061.02 1.17465 1.70929 0
M  V30 10596 C 1061.45 -0.264171 1.86236 0
M  V30 10597 O 1060.81 -1.19124 1.36671 0
M  V30 10598 C 1060.85 1.8697 3.08342 0
M  V30 10599 O 1059.96 1.17173 3.95404 0
M  V30 10600 H 1059.3 0.408206 0.523702 0
M  V30 10601 H 1061.83 1.69013 1.15307 0
M  V30 10602 H 1061.84 1.94564 3.58621 0
M  V30 10603 H 1060.51 2.91633 2.96518 0
M  V30 10604 H 1059.09 1.17688 3.53842 0
M  V30 10605 N 1061.28 -1.12907 1.09954 0
M  V30 10606 C 1062.19 -2.22082 0.756095 0
M  V30 10607 C 1063.2 -1.72277 -0.244272 0
M  V30 10608 O 1064.38 -2.01224 -0.0842637 0
M  V30 10609 C 1061.44 -3.46192 0.187642 0
M  V30 10610 C 1060.5 -4.10861 1.24465 0
M  V30 10611 C 1059.74 -5.29047 0.703227 0
M  V30 10612 O 1059.96 -5.68443 -0.472043 0
M  V30 10613 O 1058.89 -5.83904 1.46082 0
M  V30 10614 H 1062.72 -2.53842 1.66727 0
M  V30 10615 H 1060.3 -1.21145 0.874316 0
M  V30 10616 H 1062.19 -4.21212 -0.125774 0
M  V30 10617 H 1060.86 -3.16119 -0.696459 0
M  V30 10618 H 1059.77 -3.37643 1.61085 0
M  V30 10619 H 1061.1 -4.45078 2.10159 0
M  V30 10620 N 1062.75 -0.88754 -1.30232 0
M  V30 10621 C 1064 -0.507279 -1.96043 0
M  V30 10622 C 1064.33 0.944059 -1.70052 0
M  V30 10623 O 1063.58 1.68255 -0.999444 0
M  V30 10624 C 1063.88 -0.731765 -3.49828 0
M  V30 10625 C 1063.55 -2.15858 -3.95874 0
M  V30 10626 C 1062.21 -2.54875 -4.08157 0
M  V30 10627 C 1064.56 -3.0883 -4.19849 0
M  V30 10628 C 1061.89 -3.86069 -4.41778 0
M  V30 10629 C 1064.24 -4.39559 -4.5494 0
M  V30 10630 C 1062.91 -4.78465 -4.65432 0
M  V30 10631 H 1062.18 -0.185627 -0.717373 0
M  V30 10632 H 1064.82 -1.12388 -1.55052 0
M  V30 10633 H 1063.13 -0.0321473 -3.91787 0
M  V30 10634 H 1064.83 -0.417107 -3.98825 0
M  V30 10635 H 1061.42 -1.84574 -3.86821 0
M  V30 10636 H 1065.6 -2.79906 -4.09837 0
M  V30 10637 H 1060.86 -4.1595 -4.48102 0
M  V30 10638 H 1065.03 -5.11636 -4.72442 0
M  V30 10639 H 1062.66 -5.80162 -4.91239 0
M  V30 10640 N 1064.23 1.43628 -0.648757 0
M  V30 10641 C 1065.16 2.33478 0.0320785 0
M  V30 10642 C 1066.14 1.49217 0.816605 0
M  V30 10643 O 1067.33 1.77892 0.778974 0
M  V30 10644 C 1064.46 3.32525 1.00222 0
M  V30 10645 C 1063.41 4.2674 0.328119 0
M  V30 10646 C 1062.74 5.15791 1.4094 0
M  V30 10647 C 1064.04 5.16493 -0.776701 0
M  V30 10648 H 1065.73 2.90657 -0.718257 0
M  V30 10649 H 1063.28 1.3976 -0.346852 0
M  V30 10650 H 1065.23 3.94277 1.4874 0
M  V30 10651 H 1063.96 2.73593 1.78366 0
M  V30 10652 H 1062.61 3.66346 -0.136569 0
M  V30 10653 H 1062.26 4.53201 2.18216 0
M  V30 10654 H 1061.96 5.79645 0.963631 0
M  V30 10655 H 1063.49 5.80416 1.89603 0
M  V30 10656 H 1064.9 5.7208 -0.373878 0
M  V30 10657 H 1063.3 5.89043 -1.14667 0
M  V30 10658 H 1064.37 4.56448 -1.63654 0
M  V30 10659 N 1065.71 0.390394 1.52688 0
M  V30 10660 C 1066.94 -0.194013 2.06491 0
M  V30 10661 C 1067.36 -1.3965 1.26014 0
M  V30 10662 O 1066.72 -1.79038 0.285468 0
M  V30 10663 C 1066.77 -0.541306 3.56514 0
M  V30 10664 O 1065.87 -1.63509 3.78601 0
M  V30 10665 H 1065.21 -0.0223608 0.663623 0
M  V30 10666 H 1067.74 0.558179 1.96839 0
M  V30 10667 H 1067.75 -0.805301 3.99974 0
M  V30 10668 H 1066.43 0.337828 4.14526 0
M  V30 10669 H 1065 -1.36473 3.4703 0
M  V30 10670 N 1067.19 -1.57141 0.120249 0
M  V30 10671 C 1068.12 -2.18398 -0.826112 0
M  V30 10672 C 1069.1 -1.12439 -1.27638 0
M  V30 10673 O 1070.28 -1.40679 -1.33877 0
M  V30 10674 C 1067.41 -2.78438 -2.0758 0
M  V30 10675 C 1066.37 -3.89991 -1.76327 0
M  V30 10676 C 1065.69 -4.36844 -3.08336 0
M  V30 10677 C 1066.99 -5.12031 -1.03062 0
M  V30 10678 H 1068.69 -2.97731 -0.315656 0
M  V30 10679 H 1066.23 -1.43213 -0.150387 0
M  V30 10680 H 1068.19 -3.19951 -2.74243 0
M  V30 10681 H 1066.91 -1.96396 -2.60953 0
M  V30 10682 H 1065.57 -3.49055 -1.12053 0
M  V30 10683 H 1065.22 -3.51659 -3.59646 0
M  V30 10684 H 1064.92 -5.1207 -2.88199 0
M  V30 10685 H 1066.44 -4.81009 -3.76116 0
M  V30 10686 H 1067.86 -5.50555 -1.59881 0
M  V30 10687 H 1066.25 -5.92848 -0.930146 0
M  V30 10688 H 1067.32 -4.84897 -0.017582 0
M  V30 10689 N 1068.67 0.153526 -1.5685 0
M  V30 10690 C 1069.6 1.2147 -1.94365 0
M  V30 10691 C 1070.61 1.39532 -0.838726 0
M  V30 10692 O 1071.8 1.39219 -1.11715 0
M  V30 10693 C 1068.9 2.5806 -2.19677 0
M  V30 10694 C 1068.07 2.61062 -3.50949 0
M  V30 10695 C 1067.13 3.79144 -3.64878 0
M  V30 10696 O 1066.16 3.64319 -4.37333 0
M  V30 10697 N 1067.36 4.96333 -3.01054 0
M  V30 10698 H 1070.13 0.895889 -2.85996 0
M  V30 10699 H 1067.69 0.343147 -1.58222 0
M  V30 10700 H 1069.68 3.35553 -2.26243 0
M  V30 10701 H 1068.25 2.8226 -1.34343 0
M  V30 10702 H 1067.47 1.69533 -3.55882 0
M  V30 10703 H 1068.76 2.60094 -4.37297 0
M  V30 10704 H 1068.15 5.1128 -2.42093 0
M  V30 10705 H 1066.71 5.71625 -3.13191 0
M  V30 10706 N 1070.14 1.51827 0.422667 0
M  V30 10707 C 1071.37 1.69337 1.19748 0
M  V30 10708 C 1071.79 0.396312 1.83878 0
M  V30 10709 O 1071.15 -0.644976 1.6944 0
M  V30 10710 C 1071.2 2.82082 2.24637 0
M  V30 10711 O 1070.3 2.46708 3.30468 0
M  V30 10712 H 1069.65 0.564154 0.35018 0
M  V30 10713 H 1072.18 1.98465 0.497289 0
M  V30 10714 H 1072.19 3.06599 2.69186 0
M  V30 10715 H 1070.86 3.76195 1.77341 0
M  V30 10716 H 1069.44 2.32815 2.91293 0
M  V30 10717 N 1071.62 -0.679052 1.4222 0
M  V30 10718 C 1072.55 -1.80481 1.48152 0
M  V30 10719 C 1073.53 -1.66698 0.338502 0
M  V30 10720 O 1074.72 -1.86183 0.552228 0
M  V30 10721 C 1071.85 -3.18746 1.37908 0
M  V30 10722 C 1070.8 -3.47258 2.50192 0
M  V30 10723 C 1070.13 -4.85052 2.25008 0
M  V30 10724 C 1071.43 -3.44576 3.92511 0
M  V30 10725 H 1073.12 -1.75774 2.42371 0
M  V30 10726 H 1070.67 -0.844241 1.16656 0
M  V30 10727 H 1072.62 -3.97229 1.40666 0
M  V30 10728 H 1071.35 -3.24119 0.401806 0
M  V30 10729 H 1070 -2.71133 2.46744 0
M  V30 10730 H 1069.65 -4.8707 1.25584 0
M  V30 10731 H 1069.35 -5.05092 3.00259 0
M  V30 10732 H 1070.88 -5.65825 2.29508 0
M  V30 10733 H 1072.29 -4.13036 3.97585 0
M  V30 10734 H 1070.69 -3.76151 4.67579 0
M  V30 10735 H 1071.76 -2.4323 4.19484 0
M  V30 10736 N 1073.1 -1.28322 -0.914942 0
M  V30 10737 C 1074.38 -1.06111 -1.64316 0
M  V30 10738 C 1074.76 0.399934 -2.07277 0
M  V30 10739 O 1074.11 1.38577 -1.81683 0
M  V30 10740 C 1074.32 -2.03461 -2.83557 0
M  V30 10741 C 1075.66 -2.33541 -3.54604 0
M  V30 10742 O 1076.69 -2.01536 -2.93704 0
M  V30 10743 O 1075.55 -2.88158 -4.64357 0
M  V30 10744 H 1072.64 -0.405451 -0.72079 0
M  V30 10745 H 1075.19 -1.39636 -0.964352 0
M  V30 10746 H 1073.96 -3.01938 -2.48896 0
M  V30 10747 H 1073.58 -1.70574 -3.59152 0
M  V30 10748 N 1074.58 1.12322 -1.10551 0
M  V30 10749 C 1075.81 1.87679 -0.87087 0
M  V30 10750 C 1076.22 1.79711 0.578733 0
M  V30 10751 O 1075.58 1.17185 1.39907 0
M  V30 10752 C 1075.63 3.36846 -1.31213 0
M  V30 10753 O 1075.35 3.44626 -2.70489 0
M  V30 10754 C 1076.85 4.29138 -1.11156 0
M  V30 10755 H 1074.07 0.593788 -0.3125 0
M  V30 10756 H 1076.62 1.42116 -1.47048 0
M  V30 10757 H 1074.77 3.79948 -0.756169 0
M  V30 10758 H 1075.18 4.37441 -2.89389 0
M  V30 10759 H 1076.66 5.32082 -1.46944 0
M  V30 10760 H 1077.14 4.39171 -0.0502963 0
M  V30 10761 H 1077.74 3.91818 -1.65405 0
M  V30 10762 N 1076.06 0.894434 1.2976 0
M  V30 10763 C 1077.47 0.566892 1.77885 0
M  V30 10764 C 1077.82 -0.917289 1.73437 0
M  V30 10765 O 1076.94 -1.71707 1.31703 0
M  V30 10766 C 1077.54 1.02227 3.2301 0
M  V30 10767 C 1076.1 0.745978 3.68934 0
M  V30 10768 C 1075.24 1.19993 2.49994 0
M  V30 10769 H 1078.2 1.0777 1.16496 0
M  V30 10770 H 1078.22 0.355281 3.78838 0
M  V30 10771 H 1077.73 2.1025 3.26215 0
M  V30 10772 H 1075.83 -0.321866 3.71207 0
M  V30 10773 H 1075.94 1.34017 4.59974 0
M  V30 10774 H 1074.31 0.619047 2.47063 0
M  V30 10775 H 1075.09 2.28811 2.55931 0
M  V30 10776 N 1077.53 -1.43282 0.656365 0
M  V30 10777 C 1078.76 -2.06641 0.177245 0
M  V30 10778 C 1079.18 -1.48893 -1.14946 0
M  V30 10779 O 1078.54 -0.600099 -1.7108 0
M  V30 10780 C 1078.59 -3.60453 0.10299 0
M  V30 10781 O 1077.69 -4.01687 -0.933895 0
M  V30 10782 H 1077.04 -0.656978 0.096314 0
M  V30 10783 H 1079.57 -1.83733 0.900178 0
M  V30 10784 H 1079.58 -4.07923 -0.079291 0
M  V30 10785 H 1078.25 -4.01861 1.07147 0
M  V30 10786 H 1076.83 -3.65801 -0.724148 0
M  V30 10787 N 1079.01 -0.398486 -1.52479 0
M  V30 10788 C 1079.96 0.447001 -2.28264 0
M  V30 10789 C 1080.96 1.05511 -1.32529 0
M  V30 10790 O 1082.16 0.994528 -1.5003 0
M  V30 10791 H 1078.54 0.162919 -0.73414 0
M  V30 10792 H 1080.51 -0.213534 -2.97635 0
M  V30 10793 C 1079.26 1.55724 -3.10879 0
M  V30 10794 H 1078.58 1.09864 -3.84409 0
M  V30 10795 H 1080.02 2.12286 -3.67029 0
M  V30 10796 C 1078.48 2.51853 -2.23768 0
M  V30 10797 O 1079.01 3.55483 -1.87069 0
M  V30 10798 N 1077.21 2.2181 -1.87746 0
M  V30 10799 H 1076.76 1.3757 -2.17789 0
M  V30 10800 H 1076.72 2.86376 -1.29753 0
M  V30 10801 N 1080.49 1.57075 -0.12858 0
M  V30 10802 C 1081.42 2.18833 0.814519 0
M  V30 10803 C 1082.4 1.13114 1.2704 0
M  V30 10804 O 1083.59 1.41387 1.33129 0
M  V30 10805 C 1080.72 2.79535 2.06101 0
M  V30 10806 C 1079.67 3.9092 1.74257 0
M  V30 10807 C 1079 4.38473 3.06015 0
M  V30 10808 C 1080.3 5.1257 1.00345 0
M  V30 10809 H 1081.99 2.97895 0.299862 0
M  V30 10810 H 1079.54 1.4329 0.14279 0
M  V30 10811 H 1081.49 3.21401 2.72543 0
M  V30 10812 H 1080.21 1.97777 2.59907 0
M  V30 10813 H 1078.87 3.49645 1.102 0
M  V30 10814 H 1078.52 3.53561 3.57776 0
M  V30 10815 H 1078.22 5.13591 2.85479 0
M  V30 10816 H 1079.75 4.82997 3.7356 0
M  V30 10817 H 1081.16 5.51395 1.56959 0
M  V30 10818 H 1079.56 5.93333 0.898693 0
M  V30 10819 H 1080.63 4.84899 -0.0081335 0
M  V30 10820 N 1081.97 -0.145205 1.5693 0
M  V30 10821 C 1083.22 -0.855955 1.82637 0
M  V30 10822 C 1083.53 -1.82255 0.710109 0
M  V30 10823 O 1084.74 -2.57758 0.852837 0
M  V30 10824 C 1083.19 -1.57278 3.23715 0
M  V30 10825 C 1082.8 -0.648507 4.43281 0
M  V30 10826 C 1084.55 -2.27021 3.58695 0
M  V30 10827 C 1082.45 -1.36706 5.75383 0
M  V30 10828 H 1081.38 -0.323385 0.68113 0
M  V30 10829 H 1084.03 -0.10869 1.83178 0
M  V30 10830 H 1082.42 -2.36574 3.17567 0
M  V30 10831 H 1083.59 0.109355 4.6067 0
M  V30 10832 H 1081.9 -0.0594029 4.16358 0
M  V30 10833 H 1084.5 -2.81423 4.54648 0
M  V30 10834 H 1084.84 -3.03598 2.8484 0
M  V30 10835 H 1085.38 -1.54642 3.66512 0
M  V30 10836 H 1082.12 -0.6431 6.52338 0
M  V30 10837 H 1081.64 -2.09759 5.61926 0
M  V30 10838 H 1083.32 -1.90748 6.18243 0
M  V30 10839 N 1083.45 -1.52049 -0.414609 0
M  V30 10840 C 1084.86 -1.58062 -0.993638 0
M  V30 10841 C 1085.21 -0.417795 -1.917 0
M  V30 10842 O 1084.33 0.462558 -2.11399 0
M  V30 10843 C 1084.93 -2.86471 -1.80886 0
M  V30 10844 C 1083.49 -2.94981 -2.33801 0
M  V30 10845 C 1082.64 -2.52949 -1.13631 0
M  V30 10846 H 1085.59 -1.57497 -0.19504 0
M  V30 10847 H 1085.61 -2.71515 -2.66571 0
M  V30 10848 H 1085.12 -3.71085 -1.13657 0
M  V30 10849 H 1083.22 -2.14849 -3.04419 0
M  V30 10850 H 1083.33 -3.99111 -2.65042 0
M  V30 10851 H 1081.7 -2.0667 -1.48861 0
M  V30 10852 H 1082.48 -3.39931 -0.479765 0
M  V30 10853 N 1084.93 0.6715 -1.42579 0
M  V30 10854 C 1086.17 1.42731 -1.42516 0
M  V30 10855 C 1086.49 1.95545 -0.0462407 0
M  V30 10856 O 1087.69 2.71391 0.0769798 0
M  V30 10857 C 1086.15 2.58215 -2.50705 0
M  V30 10858 C 1085.76 2.12086 -3.94618 0
M  V30 10859 C 1087.5 3.35705 -2.59813 0
M  V30 10860 C 1085.41 3.24672 -4.9431 0
M  V30 10861 H 1084.34 0.536218 -0.530081 0
M  V30 10862 H 1086.99 0.726655 -1.68499 0
M  V30 10863 H 1085.37 3.30665 -2.17892 0
M  V30 10864 H 1086.55 1.46768 -4.36802 0
M  V30 10865 H 1084.86 1.47526 -3.89391 0
M  V30 10866 H 1087.46 4.1956 -3.31472 0
M  V30 10867 H 1087.8 3.82517 -1.64276 0
M  V30 10868 H 1088.33 2.70326 -2.91836 0
M  V30 10869 H 1085.07 2.82848 -5.91335 0
M  V30 10870 H 1084.59 3.88761 -4.56755 0
M  V30 10871 H 1086.27 3.90088 -5.16179 0
M  V30 10872 N 1086.4 1.28806 0.908124 0
M  V30 10873 C 1087.31 1.15079 2.04436 0
M  V30 10874 C 1088.33 0.076012 1.73834 0
M  V30 10875 O 1089.51 0.286421 1.99353 0
M  V30 10876 C 1086.57 0.819733 3.3687 0
M  V30 10877 C 1085.63 1.97746 3.81045 0
M  V30 10878 C 1084.86 1.66211 5.07158 0
M  V30 10879 O 1085.09 0.579092 5.67453 0
M  V30 10880 O 1084.02 2.5075 5.47182 0
M  V30 10881 H 1087.85 2.10477 2.18937 0
M  V30 10882 H 1085.43 1.08177 1.03044 0
M  V30 10883 H 1087.31 0.649304 4.16368 0
M  V30 10884 H 1085.99 -0.10454 3.23531 0
M  V30 10885 H 1084.9 2.20308 3.02349 0
M  V30 10886 H 1086.23 2.88264 3.98955 0
M  V30 10887 N 1087.88 -1.11734 1.11145 0
M  V30 10888 C 1088.84 -2.15868 0.770303 0
M  V30 10889 C 1089.84 -1.59438 -0.208842 0
M  V30 10890 O 1091.03 -1.74193 0.0152516 0
M  V30 10891 C 1088.17 -3.40603 0.142303 0
M  V30 10892 H 1089.36 -2.4756 1.69276 0
M  V30 10893 H 1086.91 -1.26867 0.912929 0
M  V30 10894 H 1087.65 -3.14517 -0.790526 0
M  V30 10895 H 1087.43 -3.8284 0.847087 0
M  V30 10896 H 1088.92 -4.17523 -0.0803608 0
M  V30 10897 N 1089.36 -0.901303 -1.29284 0
M  V30 10898 C 1090.29 -0.396909 -2.30102 0
M  V30 10899 C 1091.27 0.528919 -1.61668 0
M  V30 10900 O 1092.46 0.439306 -1.89166 0
M  V30 10901 C 1089.59 0.375006 -3.45269 0
M  V30 10902 C 1088.54 -0.46054 -4.25515 0
M  V30 10903 C 1087.87 0.438967 -5.32895 0
M  V30 10904 C 1089.17 -1.7113 -4.93469 0
M  V30 10905 H 1090.86 -1.23943 -2.72541 0
M  V30 10906 H 1088.41 -0.597428 -1.31022 0
M  V30 10907 H 1090.36 0.738622 -4.14876 0
M  V30 10908 H 1089.08 1.25132 -3.01678 0
M  V30 10909 H 1087.74 -0.80651 -3.57618 0
M  V30 10910 H 1087.39 1.31346 -4.85548 0
M  V30 10911 H 1087.09 -0.116406 -5.87485 0
M  V30 10912 H 1088.61 0.79874 -6.05353 0
M  V30 10913 H 1090.03 -1.41732 -5.55504 0
M  V30 10914 H 1088.42 -2.20811 -5.57999 0
M  V30 10915 H 1089.49 -2.44636 -4.18666 0
M  V30 10916 N 1090.84 1.42931 -0.663954 0
M  V30 10917 C 1091.77 2.33499 0.00731327 0
M  V30 10918 C 1092.75 1.50074 0.800733 0
M  V30 10919 O 1093.93 1.78708 0.760062 0
M  V30 10920 C 1091.06 3.33569 0.966897 0
M  V30 10921 C 1090.02 4.27064 0.282839 0
M  V30 10922 C 1089.34 5.17257 1.35461 0
M  V30 10923 C 1090.64 5.1564 -0.831438 0
M  V30 10924 H 1092.34 2.89879 -0.749044 0
M  V30 10925 H 1089.88 1.39385 -0.361656 0
M  V30 10926 H 1091.84 3.95833 1.44549 0
M  V30 10927 H 1090.56 2.75469 1.75455 0
M  V30 10928 H 1089.22 3.6618 -0.175417 0
M  V30 10929 H 1088.87 4.5549 2.13397 0
M  V30 10930 H 1088.57 5.80634 0.902098 0
M  V30 10931 H 1090.09 5.82395 1.83436 0
M  V30 10932 H 1091.51 5.71651 -0.434534 0
M  V30 10933 H 1089.9 5.87794 -1.20908 0
M  V30 10934 H 1090.97 4.54687 -1.68487 0
M  V30 10935 N 1092.32 0.406567 1.52266 0
M  V30 10936 C 1093.25 -0.45552 2.24628 0
M  V30 10937 C 1094.26 -1.01234 1.27497 0
M  V30 10938 O 1095.45 -0.911718 1.5346 0
M  V30 10939 C 1092.55 -1.64578 2.96256 0
M  V30 10940 C 1091.72 -1.2133 4.20235 0
M  V30 10941 C 1090.78 -2.27018 4.7471 0
M  V30 10942 O 1089.81 -1.87714 5.37357 0
M  V30 10943 N 1091.01 -3.5915 4.56061 0
M  V30 10944 H 1093.77 0.164525 2.99248 0
M  V30 10945 H 1091.34 0.233812 1.60203 0
M  V30 10946 H 1093.33 -2.3484 3.29594 0
M  V30 10947 H 1091.9 -2.1718 2.24837 0
M  V30 10948 H 1091.12 -0.338892 3.92741 0
M  V30 10949 H 1092.41 -0.901268 5.00754 0
M  V30 10950 H 1091.8 -3.93834 4.06092 0
M  V30 10951 H 1090.36 -4.25397 4.93843 0
M  V30 10952 N 1093.79 -1.57004 0.136909 0
M  V30 10953 C 1095.04 -1.9541 -0.51569 0
M  V30 10954 C 1095.36 -1.02219 -1.66061 0
M  V30 10955 O 1094.63 -0.0818172 -1.95729 0
M  V30 10956 H 1093.21 -0.721504 -0.193497 0
M  V30 10957 H 1095.88 -1.93765 0.210046 0
M  V30 10958 H 1094.97 -2.98887 -0.898494 0
M  V30 10959 N 1095.27 0.136881 -1.57004 0
M  V30 10960 C 1096.18 1.18793 -2.023 0
M  V30 10961 C 1097.2 1.46412 -0.94018 0
M  V30 10962 O 1098.37 1.57883 -1.2504 0
M  V30 10963 C 1095.44 2.49903 -2.40311 0
M  V30 10964 C 1094.5 2.29841 -3.6259 0
M  V30 10965 C 1093.73 3.54699 -3.98779 0
M  V30 10966 O 1093.96 4.61291 -3.3551 0
M  V30 10967 O 1092.89 3.46761 -4.91976 0
M  V30 10968 H 1096.72 0.833345 -2.92043 0
M  V30 10969 H 1094.3 0.346361 -1.4533 0
M  V30 10970 H 1096.18 3.27183 -2.65574 0
M  V30 10971 H 1094.86 2.84872 -1.5372 0
M  V30 10972 H 1093.77 1.50478 -3.42501 0
M  V30 10973 H 1095.1 1.99784 -4.4983 0
M  V30 10974 N 1096.75 1.52266 0.40654 0
M  V30 10975 C 1097.66 1.78688 1.52012 0
M  V30 10976 C 1098.68 0.6726 1.60475 0
M  V30 10977 O 1099.85 0.95829 1.77141 0
M  V30 10978 C 1096.92 1.93434 2.87722 0
M  V30 10979 C 1095.98 3.17341 2.89125 0
M  V30 10980 C 1095.21 3.31374 4.18362 0
M  V30 10981 O 1095.43 2.50613 5.12396 0
M  V30 10982 O 1094.37 4.24539 4.26674 0
M  V30 10983 H 1098.19 2.73213 1.3262 0
M  V30 10984 H 1095.78 1.37142 0.592653 0
M  V30 10985 H 1097.66 2.04941 3.68208 0
M  V30 10986 H 1096.34 1.02099 3.07177 0
M  V30 10987 H 1095.24 3.1129 2.07483 0
M  V30 10988 H 1096.58 4.08466 2.7462 0
M  V30 10989 N 1098.23 -0.663929 1.42933 0
M  V30 10990 C 1099.14 -1.80643 1.49683 0
M  V30 10991 C 1100.15 -1.69694 0.38472 0
M  V30 10992 O 1101.33 -1.91052 0.637256 0
M  V30 10993 C 1098.4 -3.16858 1.4072 0
M  V30 10994 C 1097.46 -3.39684 2.62514 0
M  V30 10995 C 1096.69 -4.69399 2.53969 0
M  V30 10996 O 1096.91 -5.48037 1.58152 0
M  V30 10997 O 1095.85 -4.93709 3.44289 0
M  V30 10998 H 1099.67 -1.77903 2.46138 0
M  V30 10999 H 1097.26 -0.821059 1.24816 0
M  V30 11000 H 1099.14 -3.9812 1.38124 0
M  V30 11001 H 1097.81 -3.20211 0.473954 0
M  V30 11002 H 1096.72 -2.58227 2.70684 0
M  V30 11003 H 1098.05 -3.41169 3.54774 0
M  V30 11004 N 1099.71 -1.29285 -0.901281 0
M  V30 11005 C 1100.64 -1.08603 -2.007 0
M  V30 11006 C 1101.62 0.00162233 -1.626 0
M  V30 11007 O 1102.8 -0.148764 -1.87912 0
M  V30 11008 C 1099.93 -0.652972 -3.32346 0
M  V30 11009 C 1098.97 -1.73911 -3.89432 0
M  V30 11010 S 1099.81 -3.33797 -4.18736 0
M  V30 11011 C 1100.96 -2.92355 -5.53425 0
M  V30 11012 H 1101.2 -2.02216 -2.17936 0
M  V30 11013 H 1098.73 -1.13414 -1.04769 0
M  V30 11014 H 1100.69 -0.409825 -4.08449 0
M  V30 11015 H 1099.35 0.263527 -3.12993 0
M  V30 11016 H 1098.54 -1.388 -4.84511 0
M  V30 11017 H 1098.14 -1.93569 -3.20011 0
M  V30 11018 H 1100.44 -2.39301 -6.33831 0
M  V30 11019 H 1101.38 -3.86278 -5.9346 0
M  V30 11020 H 1101.79 -2.30697 -5.15208 0
M  V30 11021 N 1101.18 1.11143 -1.11736 0
M  V30 11022 C 1102.43 1.82586 -0.866412 0
M  V30 11023 C 1102.75 1.85227 0.609593 0
M  V30 11024 O 1102.02 1.32505 1.44288 0
M  V30 11025 H 1100.6 0.676149 -0.31754 0
M  V30 11026 H 1103.27 1.34516 -1.41037 0
M  V30 11027 H 1102.36 2.8635 -1.24136 0
M  V30 11028 N 1102.66 0.908147 1.28804 0
M  V30 11029 C 1103.59 0.409106 2.29888 0
M  V30 11030 C 1104.57 -0.520338 1.61946 0
M  V30 11031 O 1105.76 -0.429268 1.89396 0
M  V30 11032 C 1102.89 -0.35669 3.45463 0
M  V30 11033 C 1101.84 0.4831 4.25265 0
M  V30 11034 C 1101.17 -0.4107 5.3312 0
M  V30 11035 C 1102.47 1.73744 4.92555 0
M  V30 11036 H 1104.16 1.25386 2.7188 0
M  V30 11037 H 1101.71 0.604368 1.30703 0
M  V30 11038 H 1103.66 -0.71661 4.15262 0
M  V30 11039 H 1102.39 -1.2353 3.02337 0
M  V30 11040 H 1101.04 0.825464 3.57186 0
M  V30 11041 H 1100.69 -1.28769 4.86238 0
M  V30 11042 H 1100.39 0.14756 5.87415 0
M  V30 11043 H 1101.92 -0.766626 6.05768 0
M  V30 11044 H 1103.33 1.44676 5.54745 0
M  V30 11045 H 1101.73 2.23767 5.5682 0
M  V30 11046 H 1102.8 2.46853 4.17363 0
M  V30 11047 N 1104.14 -1.42577 0.671525 0
M  V30 11048 C 1105.37 -2.05924 0.200731 0
M  V30 11049 C 1105.78 -1.50434 -1.14083 0
M  V30 11050 O 1105.14 -0.642845 -1.70803 0
M  V30 11051 C 1105.19 -3.61289 0.123505 0
M  V30 11052 O 1104.91 -4.1472 1.41205 0
M  V30 11053 C 1106.41 -4.41743 -0.371178 0
M  V30 11054 H 1103.63 -0.663746 0.0983958 0
M  V30 11055 H 1106.18 -1.82771 0.917338 0
M  V30 11056 H 1104.33 -3.83565 -0.543769 0
M  V30 11057 H 1104.75 -5.0856 1.28325 0
M  V30 11058 H 1106.22 -5.50731 -0.374128 0
M  V30 11059 H 1106.7 -4.16092 -1.40585 0
M  V30 11060 H 1107.3 -4.24478 0.264244 0
M  V30 11061 N 1105.62 -0.414636 -1.52048 0
M  V30 11062 C 1106.84 0.161137 -2.06773 0
M  V30 11063 C 1107.27 1.37628 -1.2822 0
M  V30 11064 O 1106.63 1.78562 -0.313915 0
M  V30 11065 C 1106.67 0.48452 -3.5733 0
M  V30 11066 O 1105.78 1.57466 -3.81154 0
M  V30 11067 H 1105.12 0.0118003 -0.663895 0
M  V30 11068 H 1107.65 -0.589424 -1.95926 0
M  V30 11069 H 1107.66 0.741567 -4.01204 0
M  V30 11070 H 1106.33 -0.403733 -4.13936 0
M  V30 11071 H 1104.91 1.30935 -3.49157 0
M  V30 11072 N 1107.1 1.56929 -0.145233 0
M  V30 11073 C 1108.32 2.00864 0.516564 0
M  V30 11074 C 1108.75 1.02466 1.57741 0
M  V30 11075 O 1108.1 0.000145439 1.813 0
M  V30 11076 C 1108.15 3.43552 1.09563 0
M  V30 11077 O 1107.26 3.4815 2.21055 0
M  V30 11078 H 1106.6 0.651835 0.126521 0
M  V30 11079 H 1109.13 2.0317 -0.241445 0
M  V30 11080 H 1109.14 3.82316 1.42473 0
M  V30 11081 H 1107.81 4.14677 0.318749 0
M  V30 11082 H 1106.39 3.21228 1.89387 0
M  V30 11083 N 1108.58 -0.128553 1.57075 0
M  V30 11084 C 1109.82 -0.83801 1.84347 0
M  V30 11085 C 1110.15 -1.80325 0.728906 0
M  V30 11086 O 1109.41 -1.93678 -0.280571 0
M  V30 11087 C 1109.7 -1.63027 3.18052 0
M  V30 11088 C 1109.37 -0.810171 4.43562 0
M  V30 11089 C 1108.03 -0.583984 4.77643 0
M  V30 11090 C 1110.38 -0.237896 5.20657 0
M  V30 11091 C 1107.71 0.224887 5.86269 0
M  V30 11092 C 1110.06 0.558114 6.30133 0
M  V30 11093 C 1108.73 0.794706 6.62752 0
M  V30 11094 H 1108 -0.30665 0.674572 0
M  V30 11095 H 1110.65 -0.100797 1.91235 0
M  V30 11096 H 1108.95 -2.43812 3.06697 0
M  V30 11097 H 1110.65 -2.183 3.36372 0
M  V30 11098 H 1107.24 -0.996547 4.16854 0
M  V30 11099 H 1111.42 -0.399881 4.94686 0
M  V30 11100 H 1106.68 0.417507 6.09973 0
M  V30 11101 H 1110.85 1.00859 6.89058 0
M  V30 11102 H 1108.48 1.42331 7.46757 0
M  V30 11103 N 1110.05 -1.5248 -0.398459 0
M  V30 11104 C 1111.28 -1.71221 -1.17039 0
M  V30 11105 C 1111.7 -0.425515 -1.83224 0
M  V30 11106 O 1111.06 0.617938 -1.70444 0
M  V30 11107 C 1111.11 -2.8562 -2.20121 0
M  V30 11108 O 1110.21 -2.51934 -3.26501 0
M  V30 11109 H 1109.55 -0.569654 -0.34116 0
M  V30 11110 H 1112.08 -1.99231 -0.465652 0
M  V30 11111 H 1112.09 -3.10842 -2.64275 0
M  V30 11112 H 1110.77 -3.78969 -1.71334 0
M  V30 11113 H 1109.35 -2.3742 -2.87552 0
M  V30 11114 N 1111.53 0.65634 -1.43283 0
M  V30 11115 C 1112.48 1.76934 -1.48199 0
M  V30 11116 C 1113.45 1.62748 -0.332023 0
M  V30 11117 O 1114.63 1.83036 -0.538735 0
M  V30 11118 C 1111.77 3.15072 -1.40797 0
M  V30 11119 C 1110.89 3.40414 -2.65974 0
M  V30 11120 C 1110.02 4.68383 -2.50582 0
M  V30 11121 C 1109.06 4.8682 -3.71043 0
M  V30 11122 N 1108.2 6.06043 -3.5448 0
M  V30 11123 H 1113.04 1.72067 -2.43304 0
M  V30 11124 H 1110.57 0.839728 -1.20777 0
M  V30 11125 H 1112.53 3.94925 -1.345 0
M  V30 11126 H 1111.16 3.19017 -0.492754 0
M  V30 11127 H 1110.21 2.54681 -2.82563 0
M  V30 11128 H 1111.53 3.49925 -3.55463 0
M  V30 11129 H 1110.68 5.56357 -2.41975 0
M  V30 11130 H 1109.42 4.61187 -1.58612 0
M  V30 11131 H 1108.42 3.97282 -3.80062 0
M  V30 11132 H 1109.65 4.95847 -4.64017 0
M  V30 11133 H 1107.6 5.99985 -2.65242 0
M  V30 11134 H 1107.51 6.16498 -4.37568 0
M  V30 11135 H 1108.78 6.96647 -3.49719 0
M  V30 11136 O 1113.05 1.40333 0.799307 0
M  V30 11137 H 1113.74 1.29035 1.44464 0
M  V30 END ATOM
M  V30 BEGIN BOND
M  V30 END BOND
M  V30 END CTAB
M  END
$$$$
