drugbank_target|Q14978 Nucleolar and coiled-body phosphoprotein 1 (DB00997)
 OpenBabel12092121033D

  0  0  0     0  0            999 V3000
M  V30 BEGIN CTAB
M  V30 COUNTS 10371 10450 0 0 0
M  V30 BEGIN ATOM
M  V30 1 H -0.908 1.98254 -0.117106 0
M  V30 2 N 0 1.576 0 0
M  V30 3 C 0.933 2.03868 1.02534 0
M  V30 4 C 1.911 0.928543 1.3348 0
M  V30 5 O 3.095 1.19667 1.45644 0
M  V30 6 C 0.222 2.43627 2.35294 0
M  V30 7 C -0.732 3.65373 2.2001 0
M  V30 8 S 0.101 5.13292 1.52614 0
M  V30 9 C 1.257 5.56322 2.86805 0
M  V30 10 H 1.49 2.90518 0.631377 0
M  V30 11 H -0.977 1.52953 0.210867 0
M  V30 12 H 0.981 2.67203 3.11629 0
M  V30 13 H -0.358 1.57376 2.7183 0
M  V30 14 H -1.165 3.90944 3.18086 0
M  V30 15 H -1.563 3.418 1.51819 0
M  V30 16 H 0.729 5.58782 3.83104 0
M  V30 17 H 1.672 6.56266 2.65933 0
M  V30 18 H 2.08 4.83886 2.90714 0
M  V30 19 N 1.4781 -0.272755 1.55222 0
M  V30 20 C 2.4411 -1.32041 1.87344 0
M  V30 21 C 3.4411 -1.42342 0.74803 0
M  V30 22 O 4.6311 -1.41488 1.0162 0
M  V30 23 C 1.7631 -2.70173 2.07893 0
M  V30 24 H 2.9561 -1.04789 2.80997 0
M  V30 25 H 0.5091 -0.51083 1.47717 0
M  V30 26 H 1.2441 -3.02605 1.16622 0
M  V30 27 H 1.0291 -2.64082 2.89833 0
M  V30 28 H 2.5191 -3.45869 2.34017 0
M  V30 29 N 2.9562 -1.48159 -0.537278 0
M  V30 30 C 4.2332 -1.46291 -1.29839 0
M  V30 31 C 4.6132 -0.170613 -2.10409 0
M  V30 32 O 3.9612 0.847746 -2.12192 0
M  V30 33 C 4.1712 -2.72055 -2.18603 0
M  V30 34 C 5.5192 -3.20087 -2.7898 0
M  V30 35 O 6.5432 -2.72921 -2.28894 0
M  V30 36 O 5.4022 -4.02138 -3.70064 0
M  V30 37 H 2.4962 -0.583906 -0.585647 0
M  V30 38 H 5.0422 -1.60384 -0.554534 0
M  V30 39 H 3.8142 -3.57628 -1.58801 0
M  V30 40 H 3.4372 -2.60646 -3.00249 0
M  V30 41 N 4.4343 0.785586 -1.36625 0
M  V30 42 C 5.3973 1.87999 -1.31107 0
M  V30 43 C 6.3973 1.59316 -0.217959 0
M  V30 44 O 7.5873 1.67656 -0.472977 0
M  V30 45 C 4.7193 3.24861 -1.03334 0
M  V30 46 H 5.9123 1.94307 -2.2844 0
M  V30 47 H 3.4653 0.983813 -1.21453 0
M  V30 48 H 4.2003 3.24235 -0.0647432 0
M  V30 49 H 3.9853 3.4707 -1.82441 0
M  V30 50 H 5.4753 4.04929 -1.02088 0
M  V30 51 N 5.9124 1.20967 1.01018 0
M  V30 52 C 7.1604 1.02172 1.74371 0
M  V30 53 C 7.4814 -0.446414 1.89821 0
M  V30 54 O 6.7514 -1.32234 1.44537 0
M  V30 55 H 5.3314 0.375066 0.646014 0
M  V30 56 H 7.9934 1.52187 1.21758 0
M  V30 57 H 7.0894 1.48538 2.74487 0
M  V30 58 N 7.3905 -1.2043 1.01659 0
M  V30 59 C 8.6395 -1.89118 0.701237 0
M  V30 60 C 8.9525 -1.79705 -0.772358 0
M  V30 61 O 10.1585 -2.43528 -1.20026 0
M  V30 62 C 8.6145 -3.39168 1.20388 0
M  V30 63 C 8.2225 -3.57166 2.70438 0
M  V30 64 C 9.9665 -4.1341 0.963953 0
M  V30 65 C 7.8735 -5.01042 3.14183 0
M  V30 66 H 6.8035 -0.708267 0.2586 0
M  V30 67 H 9.4545 -1.36239 1.22927 0
M  V30 68 H 7.8365 -3.91369 0.603824 0
M  V30 69 H 9.0105 -3.15351 3.35992 0
M  V30 70 H 7.3255 -2.96294 2.92572 0
M  V30 71 H 9.9225 -5.19491 1.26621 0
M  V30 72 H 10.2655 -4.16181 -0.099578 0
M  V30 73 H 10.7985 -3.67309 1.52738 0
M  V30 74 H 7.5375 -5.03426 4.19812 0
M  V30 75 H 7.0575 -5.43668 2.53348 0
M  V30 76 H 8.7365 -5.69623 3.0682 0
M  V30 77 N 8.8686 -0.792821 -1.36206 0
M  V30 78 C 10.2846 -0.474903 -1.52371 0
M  V30 79 C 10.4846 1.00622 -1.74578 0
M  V30 80 O 9.5406 1.79162 -1.77924 0
M  V30 81 C 10.8536 -1.3083 -2.70747 0
M  V30 82 C 12.4016 -1.30234 -2.84619 0
M  V30 83 C 12.8766 -2.11956 -4.06004 0
M  V30 84 N 14.3676 -2.09419 -4.13156 0
M  V30 85 C 15.1026 -2.69419 -5.06163 0
M  V30 86 N 14.5986 -3.3829 -6.04592 0
M  V30 87 N 16.3916 -2.59134 -4.98804 0
M  V30 88 H 8.5426 -1.75222 -1.20046 0
M  V30 89 H 10.8056 -0.745024 -0.586211 0
M  V30 90 H 10.5116 -2.35881 -2.6087 0
M  V30 91 H 10.3856 -0.95196 -3.6499 0
M  V30 92 H 12.7726 -0.259748 -2.93955 0
M  V30 93 H 12.8536 -1.69847 -1.91274 0
M  V30 94 H 12.4976 -3.16248 -3.97429 0
M  V30 95 H 12.4276 -1.69711 -4.98503 0
M  V30 96 H 14.9186 -1.59297 -3.42685 0
M  V30 97 H 15.2316 -3.81394 -6.7213 0
M  V30 98 H 13.5766 -3.42393 -6.04807 0
M  V30 99 H 16.7676 -2.04927 -4.20859 0
M  V30 100 H 16.9406 -3.06185 -5.711 0
M  V30 101 N 10.3467 1.47872 -0.545128 0
M  V30 102 C 11.7627 1.5829 -0.204032 0
M  V30 103 C 11.9627 1.54529 1.29317 0
M  V30 104 O 11.0187 1.44232 2.07252 0
M  V30 105 C 12.3317 2.89304 -0.819987 0
M  V30 106 C 13.8797 3.02864 -0.790105 0
M  V30 107 C 14.3547 4.3656 -1.38491 0
M  V30 108 N 15.8457 4.43165 -1.34755 0
M  V30 109 C 16.5807 5.45153 -1.77753 0
M  V30 110 N 16.0767 6.54016 -2.2855 0
M  V30 111 N 17.8697 5.36125 -1.68897 0
M  V30 112 H 10.0207 1.4856 -1.51802 0
M  V30 113 H 12.2837 0.706305 -0.632327 0
M  V30 114 H 11.9897 2.97757 -1.87173 0
M  V30 115 H 11.8637 3.75957 -0.305915 0
M  V30 116 H 14.2507 2.94014 0.252913 0
M  V30 117 H 14.3317 2.17782 -1.34181 0
M  V30 118 H 13.9757 4.46164 -2.42693 0
M  V30 119 H 13.9057 5.20353 -0.808754 0
M  V30 120 H 16.3967 3.65083 -0.975855 0
M  V30 121 H 16.7097 7.27994 -2.59314 0
M  V30 122 H 15.0547 6.54938 -2.32553 0
M  V30 123 H 18.2457 4.49975 -1.28998 0
M  V30 124 H 18.4187 6.15472 -2.02726 0
M  V30 125 N 11.8248 0.280983 1.55075 0
M  V30 126 C 13.0708 -0.33461 2.00021 0
M  V30 127 C 13.4038 -1.55063 1.16915 0
M  V30 128 O 12.6788 -1.93006 0.240646 0
M  V30 129 C 12.9618 -0.711007 3.53011 0
M  V30 130 C 12.8148 0.512766 4.46868 0
M  V30 131 C 14.1338 -1.54522 4.12081 0
M  V30 132 H 11.2528 -0.120147 0.727141 0
M  V30 133 H 13.8948 0.389097 1.85973 0
M  V30 134 H 12.0448 -1.32761 3.65112 0
M  V30 135 H 13.7168 1.15131 4.46702 0
M  V30 136 H 11.9598 1.14975 4.18286 0
M  V30 137 H 12.6308 0.205556 5.51617 0
M  V30 138 H 15.1068 -1.02442 4.03293 0
M  V30 139 H 13.9828 -1.77739 5.19327 0
M  V30 140 H 14.2438 -2.52813 3.62682 0
M  V30 141 N 13.3029 -1.57598 0.00835791 0
M  V30 142 C 14.5489 -1.91211 -0.675732 0
M  V30 143 C 14.8819 -0.883139 -1.72958 0
M  V30 144 O 14.1569 0.097016 -1.94258 0
M  V30 145 C 14.4399 -3.35379 -1.31123 0
M  V30 146 C 14.2929 -4.48999 -0.268356 0
M  V30 147 C 15.6119 -3.7912 -2.23508 0
M  V30 148 H 12.7309 -0.695374 -0.244179 0
M  V30 149 H 15.3729 -1.89901 0.0613655 0
M  V30 150 H 13.5229 -3.36626 -1.93946 0
M  V30 151 H 15.1949 -4.59887 0.360844 0
M  V30 152 H 13.4379 -4.31873 0.408482 0
M  V30 153 H 14.1089 -5.46851 -0.752218 0
M  V30 154 H 16.5849 -3.79477 -1.70693 0
M  V30 155 H 15.4609 -4.80729 -2.64936 0
M  V30 156 H 15.7219 -3.13455 -3.11766 0
M  V30 157 N 14.781 0.264519 -1.55364 0
M  V30 158 C 16.192 0.834936 -1.6699 0
M  V30 159 C 16.543 1.86718 -0.602552 0
M  V30 160 O 15.668 2.14899 0.254425 0
M  V30 161 C 16.263 1.5212 -3.02729 0
M  V30 162 C 14.822 2.03954 -3.16354 0
M  V30 163 C 13.969 0.884498 -2.62815 0
M  V30 164 H 16.92 0.0406869 -1.58648 0
M  V30 165 H 16.941 2.38853 -2.96191 0
M  V30 166 H 16.453 0.769668 -3.80392 0
M  V30 167 H 14.554 2.82041 -2.43482 0
M  V30 168 H 14.667 2.24902 -4.23032 0
M  V30 169 H 13.031 1.2802 -2.20188 0
M  V30 170 H 13.814 0.14634 -3.42988 0
M  V30 171 N 16.2591 1.48442 0.529413 0
M  V30 172 C 17.4841 1.60406 1.31471 0
M  V30 173 C 17.9091 0.264738 1.86228 0
M  V30 174 O 17.2671 -0.763668 1.64432 0
M  V30 175 C 17.3151 2.65419 2.44101 0
M  V30 176 O 16.4191 2.22618 3.47153 0
M  V30 177 H 15.7601 0.537863 0.389357 0
M  V30 178 H 18.2901 1.94432 0.636965 0
M  V30 179 H 18.3001 2.86709 2.90279 0
M  V30 180 H 16.9751 3.62652 2.03608 0
M  V30 181 H 15.5521 2.11543 3.0709 0
M  V30 182 N 17.7372 -0.778329 1.37039 0
M  V30 183 C 19.0142 -1.52551 1.22424 0
M  V30 184 C 19.3942 -2.10288 -0.184964 0
M  V30 185 O 18.7422 -1.94953 -1.19187 0
M  V30 186 C 18.9522 -2.61164 2.31504 0
M  V30 187 C 20.3002 -3.28746 2.68721 0
M  V30 188 O 21.3242 -2.71455 2.30631 0
M  V30 189 O 20.1832 -4.3231 3.3432 0
M  V30 190 H 17.2772 -0.675343 0.477326 0
M  V30 191 H 19.8232 -0.815859 1.48801 0
M  V30 192 H 18.5952 -2.16574 3.25901 0
M  V30 193 H 18.2182 -3.39737 2.06554 0
M  V30 194 N 19.2153 -1.21501 -1.00376 0
M  V30 195 C 20.1453 -0.999478 -2.11028 0
M  V30 196 C 21.1263 0.0759671 -1.6993 0
M  V30 197 O 22.3113 -0.0841106 -1.94018 0
M  V30 198 C 19.4413 -0.564709 -3.42678 0
M  V30 199 C 18.3953 -1.58486 -3.97576 0
M  V30 200 C 17.7213 -1.00628 -5.25146 0
M  V30 201 C 19.0213 -2.97204 -4.29496 0
M  V30 202 H 20.7153 -1.92495 -2.29317 0
M  V30 203 H 18.2613 -0.92693 -1.102 0
M  V30 204 H 20.2143 -0.401091 -4.19487 0
M  V30 205 H 18.9383 0.396411 -3.24185 0
M  V30 206 H 17.5973 -1.73606 -3.22888 0
M  V30 207 H 17.2453 -0.0368439 -5.02987 0
M  V30 208 H 16.9453 -1.68771 -5.62841 0
M  V30 209 H 18.4693 -0.854015 -6.04598 0
M  V30 210 H 19.8833 -2.8552 -4.97143 0
M  V30 211 H 18.2803 -3.62372 -4.78338 0
M  V30 212 H 19.3503 -3.47956 -3.3772 0
M  V30 213 N 20.6934 1.19889 -1.02296 0
M  V30 214 C 21.9234 1.93109 -0.734332 0
M  V30 215 C 22.3314 1.75377 0.709889 0
M  V30 216 O 21.6744 1.06912 1.49384 0
M  V30 217 C 21.7364 3.45362 -0.99827 0
M  V30 218 C 21.4004 3.8686 -2.43287 0
M  V30 219 C 22.3974 3.92102 -3.41397 0
M  V30 220 C 20.0824 4.18668 -2.77529 0
M  V30 221 C 22.0764 4.28573 -4.71809 0
M  V30 222 C 19.7634 4.54813 -4.08153 0
M  V30 223 C 20.7614 4.59739 -5.05103 0
M  V30 224 O 20.4494 4.95051 -6.33388 0
M  V30 225 H 20.1814 0.620409 -0.268456 0
M  V30 226 H 22.7354 1.53144 -1.3688 0
M  V30 227 H 20.9654 3.85482 -0.306645 0
M  V30 228 H 22.6544 3.99814 -0.700234 0
M  V30 229 H 23.4204 3.67685 -3.1628 0
M  V30 230 H 19.2994 4.14021 -2.0275 0
M  V30 231 H 22.8434 4.32333 -5.4748 0
M  V30 232 H 18.7404 4.78687 -4.33047 0
M  V30 233 H 19.5084 5.1302 -6.37772 0
M  V30 234 N 22.1715 0.800033 1.35784 0
M  V30 235 C 23.5825 0.439142 1.81462 0
M  V30 236 C 23.9335 -1.03813 1.66485 0
M  V30 237 O 23.0585 -1.80626 1.19177 0
M  V30 238 C 23.6535 0.790314 3.29453 0
M  V30 239 C 22.2125 0.482111 3.733 0
M  V30 240 C 21.3595 1.01938 2.57883 0
M  V30 241 H 24.3105 0.992254 1.23855 0
M  V30 242 H 24.3315 0.0853677 3.80404 0
M  V30 243 H 23.8435 1.86554 3.40322 0
M  V30 244 H 21.9445 -0.584652 3.67984 0
M  V30 245 H 22.0575 1.01015 4.6833 0
M  V30 246 H 20.4215 0.442043 2.50835 0
M  V30 247 H 21.2045 2.10059 2.71533 0
M  V30 248 N 23.6496 -1.47581 0.552962 0
M  V30 249 C 24.5796 -2.32762 -0.185451 0
M  V30 250 C 25.5606 -1.43527 -0.912905 0
M  V30 251 O 26.7456 -1.72388 -0.894201 0
M  V30 252 C 23.8756 -3.25219 -1.21859 0
M  V30 253 C 22.8296 -4.23661 -0.607864 0
M  V30 254 C 22.1556 -5.05413 -1.74533 0
M  V30 255 C 23.4556 -5.20481 0.435582 0
M  V30 256 H 25.1496 -2.94749 0.525684 0
M  V30 257 H 22.6956 -1.41738 0.254251 0
M  V30 258 H 24.6486 -3.8365 -1.7433 0
M  V30 259 H 23.3726 -2.61279 -1.95961 0
M  V30 260 H 22.0316 -3.66451 -0.104489 0
M  V30 261 H 21.6796 -4.3788 -2.47529 0
M  V30 262 H 21.3796 -5.72059 -1.34249 0
M  V30 263 H 22.9036 -5.66701 -2.27338 0
M  V30 264 H 24.3176 -5.733 -0.00290157 0
M  V30 265 H 22.7146 -5.95305 0.757067 0
M  V30 266 H 23.7846 -4.66217 1.33303 0
M  V30 267 N 25.1277 -0.289203 -1.54924 0
M  V30 268 C 26.3737 0.323998 -2.00195 0
M  V30 269 C 26.7067 1.54441 -1.17735 0
M  V30 270 O 25.9817 1.92875 -0.250878 0
M  V30 271 C 26.2647 0.692276 -3.53383 0
M  V30 272 C 26.1177 -0.536457 -4.46589 0
M  V30 273 C 27.4367 1.52335 -4.12895 0
M  V30 274 H 24.5557 0.116289 -0.727768 0
M  V30 275 H 27.1977 -0.398954 -1.85764 0
M  V30 276 H 25.3477 1.30822 -3.65811 0
M  V30 277 H 27.0197 -1.17499 -4.46085 0
M  V30 278 H 25.2627 -1.17192 -4.1767 0
M  V30 279 H 25.9337 -0.234806 -5.515 0
M  V30 280 H 28.4097 1.00302 -4.0383 0
M  V30 281 H 27.2857 1.74982 -5.20262 0
M  V30 282 H 27.5467 2.50886 -3.64018 0
M  V30 283 N 26.6058 1.57591 -0.0167156 0
M  V30 284 C 27.5358 2.12496 0.967858 0
M  V30 285 C 28.5168 1.03807 1.34752 0
M  V30 286 O 29.7018 1.31577 1.42833 0
M  V30 287 C 26.8318 2.64194 2.25431 0
M  V30 288 C 25.7858 3.77559 2.01576 0
M  V30 289 C 25.1118 4.15636 3.36379 0
M  V30 290 C 26.4118 5.04151 1.36489 0
M  V30 291 H 28.1058 2.95013 0.510643 0
M  V30 292 H 25.6518 1.41915 0.244181 0
M  V30 293 H 27.6048 3.01236 2.94678 0
M  V30 294 H 26.3288 1.78821 2.73296 0
M  V30 295 H 24.9878 3.40937 1.34751 0
M  V30 296 H 24.6358 3.27263 3.81979 0
M  V30 297 H 24.3358 4.92022 3.21229 0
M  V30 298 H 25.8598 4.5525 4.06915 0
M  V30 299 H 27.2738 5.38857 1.95718 0
M  V30 300 H 25.6708 5.85453 1.31776 0
M  V30 301 H 26.7408 4.83733 0.336219 0
M  V30 302 N 28.0839 -0.256276 1.55502 0
M  V30 303 C 29.3319 -0.983672 1.76545 0
M  V30 304 C 29.6529 -1.86206 0.578982 0
M  V30 305 O 28.9229 -1.91656 -0.405577 0
M  V30 306 H 27.5029 -0.366191 0.651086 0
M  V30 307 H 30.1649 -0.276479 1.92929 0
M  V30 308 H 29.2609 -1.61087 2.67315 0
M  V30 309 N 29.562 -1.4872 -0.521534 0
M  V30 310 C 30.809 -1.57168 -1.27689 0
M  V30 311 C 31.137 -0.249275 -1.92896 0
M  V30 312 O 30.392 0.761162 -1.80291 0
M  V30 313 C 30.691 -2.66497 -2.38148 0
M  V30 314 C 30.357 -4.08664 -1.90538 0
M  V30 315 C 29.019 -4.47357 -1.77271 0
M  V30 316 C 31.371 -4.97724 -1.54663 0
M  V30 317 C 28.699 -5.72905 -1.26478 0
M  V30 318 C 31.051 -6.2377 -1.05329 0
M  V30 319 C 29.715 -6.61311 -0.906861 0
M  V30 320 H 28.985 -0.575117 -0.467249 0
M  V30 321 H 31.632 -1.82472 -0.581051 0
M  V30 322 H 29.937 -2.35085 -3.13437 0
M  V30 323 H 31.634 -2.70246 -2.96257 0
M  V30 324 H 28.224 -3.78111 -2.01816 0
M  V30 325 H 32.408 -4.68501 -1.63768 0
M  V30 326 H 27.664 -6.00709 -1.13835 0
M  V30 327 H 31.838 -6.9217 -0.76644 0
M  V30 328 H 29.465 -7.5848 -0.511083 0
M  V30 329 N 31.0401 0.771051 -1.3745 0
M  V30 330 C 31.9701 1.89827 -1.3597 0
M  V30 331 C 32.9511 1.68562 -0.228216 0
M  V30 332 O 34.1361 1.8941 -0.428675 0
M  V30 333 C 31.2661 3.2712 -1.16662 0
M  V30 334 C 30.2201 3.6295 -2.2683 0
M  V30 335 C 29.5461 4.98791 -1.92644 0
M  V30 336 C 30.8461 3.69627 -3.69017 0
M  V30 337 H 32.5401 1.91323 -2.30295 0
M  V30 338 H 30.0861 0.919082 -1.10855 0
M  V30 339 H 32.0391 4.05615 -1.14256 0
M  V30 340 H 30.7631 3.26059 -0.187926 0
M  V30 341 H 29.4221 2.86763 -2.28392 0
M  V30 342 H 29.0701 4.94271 -0.933021 0
M  V30 343 H 28.7701 5.23733 -2.66416 0
M  V30 344 H 30.2941 5.79685 -1.91826 0
M  V30 345 H 31.7081 4.38273 -3.69581 0
M  V30 346 H 30.1051 4.06067 -4.41848 0
M  V30 347 H 31.1751 2.70273 -4.02592 0
M  V30 348 N 32.5182 1.22032 0.997298 0
M  V30 349 C 33.9342 0.979326 1.26021 0
M  V30 350 C 34.1342 -0.32972 1.98784 0
M  V30 351 O 33.1902 -1.05345 2.29475 0
M  V30 352 C 34.5032 2.17509 2.07631 0
M  V30 353 C 36.0512 2.21817 2.2083 0
M  V30 354 C 36.5262 3.40933 3.05825 0
M  V30 355 N 38.0172 3.41067 3.13412 0
M  V30 356 C 38.7522 4.29885 3.79455 0
M  V30 357 N 38.2482 5.28914 4.47462 0
M  V30 358 N 40.0412 4.17673 3.76173 0
M  V30 359 H 32.1922 2.06202 0.509352 0
M  V30 360 H 34.4552 0.90334 0.287541 0
M  V30 361 H 34.1612 3.12415 1.61524 0
M  V30 362 H 34.0352 2.17206 3.08385 0
M  V30 363 H 36.4222 1.27462 2.66153 0
M  V30 364 H 36.5032 2.2616 1.1952 0
M  V30 365 H 36.1472 4.35586 2.61203 0
M  V30 366 H 36.0772 3.33829 4.07266 0
M  V30 367 H 38.5682 2.69406 2.65007 0
M  V30 368 H 38.8812 5.92973 4.95583 0
M  V30 369 H 37.2262 5.32831 4.46224 0
M  V30 370 H 40.4172 3.39564 3.22202 0
M  V30 371 H 40.5902 4.87098 4.27363 0
M  V30 372 N 33.9963 -1.19345 1.0293 0
M  V30 373 C 35.2733 -1.84811 0.640642 0
M  V30 374 C 35.6533 -1.91855 -0.88062 0
M  V30 375 O 35.0013 -1.43587 -1.7775 0
M  V30 376 C 35.2113 -3.23755 1.30321 0
M  V30 377 C 36.5593 -3.99912 1.42673 0
M  V30 378 O 37.5833 -3.33155 1.26041 0
M  V30 379 O 36.4423 -5.19494 1.6967 0
M  V30 380 H 33.5363 -0.796443 0.222726 0
M  V30 381 H 36.0823 -1.26831 1.12748 0
M  V30 382 H 34.8543 -3.13466 2.34211 0
M  V30 383 H 34.4773 -3.89381 0.804261 0
M  V30 384 N 35.4744 -0.807222 -1.35358 0
M  V30 385 C 36.4224 -0.20614 -2.31685 0
M  V30 386 C 37.4164 0.644445 -1.56663 0
M  V30 387 O 38.6224 0.537538 -1.71786 0
M  V30 388 H 34.9974 -0.0479006 -0.750473 0
M  V30 389 H 36.9684 -1.03369 -2.79924 0
M  V30 390 C 35.7174 0.630212 -3.41941 0
M  V30 391 H 35.0404 -0.0149558 -3.99797 0
M  V30 392 H 36.4804 1.01716 -4.11619 0
M  V30 393 C 34.9394 1.79601 -2.85035 0
M  V30 394 O 35.4694 2.89351 -2.78637 0
M  V30 395 N 33.6754 1.60774 -2.42074 0
M  V30 396 H 33.2224 0.715009 -2.47478 0
M  V30 397 H 33.1804 2.38933 -2.04349 0
M  V30 398 N 36.9525 1.47285 -0.560781 0
M  V30 399 C 37.8845 2.28118 0.222438 0
M  V30 400 C 38.8975 1.37219 0.876056 0
M  V30 401 O 40.0865 1.62011 0.749307 0
M  V30 402 C 37.1865 3.1159 1.33285 0
M  V30 403 C 36.3595 4.30473 0.77534 0
M  V30 404 C 35.4185 4.95513 1.77069 0
M  V30 405 O 34.4445 5.53792 1.31539 0
M  V30 406 N 35.6465 4.90531 3.10418 0
M  V30 407 H 38.4115 2.95976 -0.470958 0
M  V30 408 H 35.9725 1.56955 -0.39709 0
M  V30 409 H 37.9645 3.51967 1.99752 0
M  V30 410 H 36.5345 2.45951 1.92943 0
M  V30 411 H 35.7545 3.94144 -0.0662113 0
M  V30 412 H 37.0425 5.07362 0.382272 0
M  V30 413 H 36.4405 4.44389 3.5005 0
M  V30 414 H 34.9975 5.34917 3.72434 0
M  V30 415 N 38.4306 0.297415 1.54768 0
M  V30 416 C 39.3606 -0.573494 2.26348 0
M  V30 417 C 40.3416 -1.14085 1.26169 0
M  V30 418 O 41.5266 -1.17086 1.54934 0
M  V30 419 C 38.6566 -1.74716 3.00153 0
M  V30 420 C 37.6106 -1.31032 4.07449 0
M  V30 421 C 36.9366 -2.56887 4.68949 0
M  V30 422 C 38.2366 -0.444183 5.20408 0
M  V30 423 H 39.9306 0.0235131 2.99391 0
M  V30 424 H 37.4766 0.0127488 1.43994 0
M  V30 425 H 39.4296 -2.3625 3.48947 0
M  V30 426 H 38.1536 -2.37035 2.24682 0
M  V30 427 H 36.8126 -0.718066 3.59499 0
M  V30 428 H 36.4606 -3.17512 3.90122 0
M  V30 429 H 36.1606 -2.2836 5.41411 0
M  V30 430 H 37.6846 -3.19229 5.20505 0
M  V30 431 H 39.0986 -0.9651 5.65118 0
M  V30 432 H 37.4956 -0.252846 5.99567 0
M  V30 433 H 38.5656 0.531609 4.81977 0
M  V30 434 N 39.9087 -1.5758 0.0250728 0
M  V30 435 C 41.1337 -1.96337 -0.668317 0
M  V30 436 C 41.5587 -0.901314 -1.651 0
M  V30 437 O 40.9167 0.138187 -1.80773 0
M  V30 438 C 40.9647 -3.34191 -1.35457 0
M  V30 439 O 40.0687 -3.30269 -2.46974 0
M  V30 440 H 39.4097 -0.640281 -0.175887 0
M  V30 441 H 41.9397 -2.0442 0.0857224 0
M  V30 442 H 41.9497 -3.70331 -1.71228 0
M  V30 443 H 40.6247 -4.11036 -0.634218 0
M  V30 444 H 39.2017 -3.05841 -2.13344 0
M  V30 445 N 41.3868 0.248026 -1.55636 0
M  V30 446 C 42.2968 1.32859 -1.93354 0
M  V30 447 C 43.3128 1.52719 -0.833838 0
M  V30 448 O 44.4888 1.66363 -1.13513 0
M  V30 449 C 41.5538 2.66337 -2.21958 0
M  V30 450 C 40.6148 2.55008 -3.45354 0
M  V30 451 C 39.8478 3.82121 -3.72584 0
M  V30 452 O 40.0708 4.83951 -3.01907 0
M  V30 453 O 39.0048 3.80822 -4.6611 0
M  V30 454 H 42.8308 1.03862 -2.85388 0
M  V30 455 H 40.4158 0.448686 -1.42503 0
M  V30 456 H 42.2978 3.45216 -2.4167 0
M  V30 457 H 40.9728 2.95068 -1.33103 0
M  V30 458 H 39.8798 1.7442 -3.30951 0
M  V30 459 H 41.2128 2.31222 -4.34508 0
M  V30 460 N 42.8649 1.48995 0.513639 0
M  V30 461 C 44.1109 1.58076 1.27042 0
M  V30 462 C 44.4439 0.261026 1.92438 0
M  V30 463 O 43.7189 -0.734393 1.80103 0
M  V30 464 C 44.0019 2.73091 2.34719 0
M  V30 465 C 43.8549 4.14821 1.73907 0
M  V30 466 C 45.1739 2.83796 3.36375 0
M  V30 467 H 42.2929 0.575391 0.460536 0
M  V30 468 H 44.9349 1.81232 0.570516 0
M  V30 469 H 43.0849 2.53479 2.94416 0
M  V30 470 H 44.7569 4.45917 1.18135 0
M  V30 471 H 42.9999 4.21058 1.0437 0
M  V30 472 H 43.6709 4.91147 2.51949 0
M  V30 473 H 46.1469 3.01611 2.86653 0
M  V30 474 H 45.0229 3.65971 4.09093 0
M  V30 475 H 45.2839 1.92624 3.9793 0
M  V30 476 N 44.343 -0.763751 1.37857 0
M  V30 477 C 45.306 -1.85889 1.34081 0
M  V30 478 C 46.306 -1.58949 0.243277 0
M  V30 479 O 47.496 -1.66882 0.499589 0
M  V30 480 C 44.628 -3.23176 1.08489 0
M  V30 481 H 45.821 -1.90648 2.31502 0
M  V30 482 H 43.374 -0.964367 1.23003 0
M  V30 483 H 44.109 -3.24091 0.116318 0
M  V30 484 H 43.894 -3.44124 1.8794 0
M  V30 485 H 45.384 -4.03254 1.08517 0
M  V30 486 N 45.8211 -1.22559 -0.990812 0
M  V30 487 C 46.7691 -0.994798 -2.10253 0
M  V30 488 C 47.7631 0.0627798 -1.69284 0
M  V30 489 O 48.9691 -0.0898392 -1.79776 0
M  V30 490 H 45.3441 -0.304527 -0.687581 0
M  V30 491 H 47.3151 -1.93812 -2.26891 0
M  V30 492 C 46.0641 -0.591439 -3.42633 0
M  V30 493 H 45.3871 -1.3969 -3.74602 0
M  V30 494 H 46.8271 -0.469385 -4.21394 0
M  V30 495 C 45.2861 0.699232 -3.29564 0
M  V30 496 O 45.8161 1.75112 -3.61523 0
M  V30 497 N 44.0221 0.671182 -2.82743 0
M  V30 498 H 43.5691 -0.185136 -2.56934 0
M  V30 499 H 43.5271 1.53502 -2.7438 0
M  V30 500 N 47.2992 1.18797 -1.03562 0
M  V30 501 C 48.2462 2.22253 -0.622259 0
M  V30 502 C 49.2162 1.61987 0.36736 0
M  V30 503 O 50.4012 1.88986 0.262492 0
M  V30 504 C 47.5412 3.45097 0.0138462 0
M  V30 505 C 46.6542 4.19722 -1.02263 0
M  V30 506 C 45.7892 5.30009 -0.355573 0
M  V30 507 C 44.8282 5.96399 -1.37749 0
M  V30 508 N 43.9652 6.98234 -0.735766 0
M  V30 509 H 48.8052 2.56968 -1.50903 0
M  V30 510 H 46.3422 1.26245 -0.755017 0
M  V30 511 H 48.3002 4.15279 0.399948 0
M  V30 512 H 46.9302 3.11018 0.864158 0
M  V30 513 H 45.9822 3.48418 -1.52673 0
M  V30 514 H 47.2942 4.65227 -1.79903 0
M  V30 515 H 46.4482 6.0664 0.0850095 0
M  V30 516 H 45.1872 4.85592 0.452967 0
M  V30 517 H 44.1922 5.18512 -1.82826 0
M  V30 518 H 45.4172 6.42899 -2.18764 0
M  V30 519 H 43.3632 6.55979 0.0525597 0
M  V30 520 H 43.2802 7.41965 -1.44995 0
M  V30 521 H 44.5482 7.78845 -0.31941 0
M  V30 522 N 48.7773 0.814389 1.34928 0
M  V30 523 C 50.0243 0.398423 1.98542 0
M  V30 524 C 50.3523 -1.03638 1.64589 0
M  V30 525 O 49.6073 -1.73509 0.90516 0
M  V30 526 C 49.9063 0.537781 3.53331 0
M  V30 527 C 49.5723 1.93704 4.07172 0
M  V30 528 C 48.2343 2.31984 4.21589 0
M  V30 529 C 50.5863 2.85213 4.36237 0
M  V30 530 C 47.9143 3.61125 4.62391 0
M  V30 531 C 50.2663 4.13809 4.78482 0
M  V30 532 C 48.9303 4.52077 4.91104 0
M  V30 533 H 48.2003 0.145793 0.726516 0
M  V30 534 H 50.8473 1.03669 1.61012 0
M  V30 535 H 49.1523 -0.183906 3.91368 0
M  V30 536 H 50.8493 0.196588 4.00518 0
M  V30 537 H 47.4393 1.62966 3.96409 0
M  V30 538 H 51.6233 2.56885 4.24645 0
M  V30 539 H 46.8793 3.90612 4.70353 0
M  V30 540 H 51.0533 4.84811 4.99932 0
M  V30 541 H 48.6803 5.52196 5.22478 0
M  V30 542 N 50.2554 -1.46986 0.568584 0
M  V30 543 C 51.2184 -2.28624 -0.162366 0
M  V30 544 C 52.2184 -1.37596 -0.832103 0
M  V30 545 O 53.4084 -1.60115 -0.68622 0
M  V30 546 C 50.5404 -3.17596 -1.23878 0
M  V30 547 H 51.7334 -2.94722 0.554899 0
M  V30 548 H 49.2864 -1.52863 0.325976 0
M  V30 549 H 50.0214 -2.56214 -1.98808 0
M  V30 550 H 49.8064 -3.846 -0.763219 0
M  V30 551 H 51.2964 -3.79078 -1.75185 0
M  V30 552 N 51.7335 -0.305618 -1.54608 0
M  V30 553 C 52.6805 0.568421 -2.23691 0
M  V30 554 C 53.6505 1.12592 -1.22116 0
M  V30 555 O 54.8355 1.16959 -1.50749 0
M  V30 556 C 51.9755 1.7322 -2.98477 0
M  V30 557 C 51.0885 1.20566 -4.14835 0
M  V30 558 C 50.2235 2.33368 -4.77193 0
M  V30 559 C 49.2625 1.7787 -5.85686 0
M  V30 560 N 48.3995 2.84263 -6.4198 0
M  V30 561 H 53.2395 -0.0272867 -2.97988 0
M  V30 562 H 50.7765 -0.0252363 -1.47078 0
M  V30 563 H 52.7345 2.41675 -3.40072 0
M  V30 564 H 51.3645 2.29947 -2.26548 0
M  V30 565 H 50.4165 0.413223 -3.78149 0
M  V30 566 H 51.7285 0.759417 -4.92985 0
M  V30 567 H 50.8825 3.09761 -5.21664 0
M  V30 568 H 49.6215 2.8132 -3.98385 0
M  V30 569 H 48.6265 0.99968 -5.40635 0
M  V30 570 H 49.8515 1.30816 -6.66381 0
M  V30 571 H 47.7975 3.31541 -5.66053 0
M  V30 572 H 47.7145 2.44149 -7.15491 0
M  V30 573 H 48.9825 3.6054 -6.91109 0
M  V30 574 N 53.2116 1.57565 -0.0334293 0
M  V30 575 C 54.1746 2.09393 0.932048 0
M  V30 576 C 55.1746 1.00986 1.25134 0
M  V30 577 O 56.3646 1.27129 1.19096 0
M  V30 578 C 53.4966 2.56338 2.2473 0
M  V30 579 H 54.6896 2.95984 0.483085 0
M  V30 580 H 52.2426 1.54819 0.21468 0
M  V30 581 H 52.9776 1.7309 2.74245 0
M  V30 582 H 52.7626 3.35542 2.02865 0
M  V30 583 H 54.2526 2.96646 2.93923 0
M  V30 584 N 54.6897 -0.239769 1.55765 0
M  V30 585 C 55.9177 -0.98417 1.81994 0
M  V30 586 C 56.3327 -1.7867 0.610124 0
M  V30 587 O 55.6897 -1.77571 -0.421271 0
M  V30 588 C 55.7407 -1.91635 3.06526 0
M  V30 589 O 55.4617 -1.14629 4.22838 0
M  V30 590 C 56.9627 -2.77616 3.45607 0
M  V30 591 H 54.1827 -0.28928 0.605441 0
M  V30 592 H 56.7267 -0.260499 2.02834 0
M  V30 593 H 54.8817 -2.5942 2.87715 0
M  V30 594 H 55.2957 -1.77745 4.93464 0
M  V30 595 H 56.7697 -3.38759 4.35828 0
M  V30 596 H 57.2467 -3.4909 2.6652 0
M  V30 597 H 57.8527 -2.15271 3.66795 0
M  V30 598 N 56.1678 -1.49265 -0.50573 0
M  V30 599 C 57.4158 -1.582 -1.25766 0
M  V30 600 C 57.7368 -0.268482 -1.93143 0
M  V30 601 O 57.0068 0.711833 -1.8251 0
M  V30 602 H 55.5868 -0.582873 -0.467191 0
M  V30 603 H 58.2488 -1.85865 -0.586525 0
M  V30 604 H 57.3448 -2.37563 -2.02412 0
M  V30 605 N 57.6459 0.756429 -1.3826 0
M  V30 606 C 58.6089 1.85176 -1.35065 0
M  V30 607 C 59.6089 1.58818 -0.251703 0
M  V30 608 O 60.7989 1.66615 -0.508433 0
M  V30 609 C 57.9309 3.22596 -1.10201 0
M  V30 610 H 59.1239 1.89417 -2.3251 0
M  V30 611 H 56.6769 0.95783 -1.23512 0
M  V30 612 H 57.4119 3.24025 -0.133504 0
M  V30 613 H 57.1969 3.43122 -1.89762 0
M  V30 614 H 58.6869 4.02673 -1.10654 0
M  V30 615 N 59.124 1.23083 0.984299 0
M  V30 616 C 60.352 1.08714 1.76037 0
M  V30 617 C 60.767 -0.361691 1.85303 0
M  V30 618 O 60.124 -1.25034 1.32939 0
M  V30 619 C 60.175 1.70206 3.18923 0
M  V30 620 O 59.896 3.09423 3.10144 0
M  V30 621 C 61.397 1.61227 4.12941 0
M  V30 622 H 58.617 0.380664 0.552572 0
M  V30 623 H 61.161 1.62853 1.23689 0
M  V30 624 H 59.316 1.20109 3.6831 0
M  V30 625 H 59.73 3.39188 4.00065 0
M  V30 626 H 61.204 2.08962 5.10919 0
M  V30 627 H 61.681 0.570375 4.35481 0
M  V30 628 H 62.287 2.10671 3.69456 0
M  V30 629 N 60.6021 -1.18246 1.0419 0
M  V30 630 C 61.5341 -2.2142 0.592088 0
M  V30 631 C 62.5471 -1.59233 -0.338909 0
M  V30 632 O 63.7361 -1.78002 -0.133231 0
M  V30 633 C 60.8361 -3.38546 -0.154854 0
M  V30 634 C 60.0091 -4.3031 0.784328 0
M  V30 635 C 59.0681 -5.26138 0.0804583 0
M  V30 636 O 58.0941 -5.64738 0.711292 0
M  V30 637 N 59.2961 -5.68261 -1.18574 0
M  V30 638 H 62.0611 -2.60636 1.47949 0
M  V30 639 H 59.6221 -1.33044 0.922544 0
M  V30 640 H 61.6141 -3.99678 -0.635606 0
M  V30 641 H 60.1841 -2.98012 -0.943811 0
M  V30 642 H 59.4041 -3.66764 1.44491 0
M  V30 643 H 60.6921 -4.8852 1.42218 0
M  V30 644 H 60.0901 -5.38957 -1.71876 0
M  V30 645 H 58.6471 -6.31584 -1.61074 0
M  V30 646 N 62.0802 -0.821533 -1.34494 0
M  V30 647 C 63.0122 -0.199946 -2.28326 0
M  V30 648 C 64.0252 0.609377 -1.50965 0
M  V30 649 O 65.2142 0.439285 -1.7301 0
M  V30 650 C 62.3142 0.738431 -3.30757 0
M  V30 651 C 61.4872 -0.0277632 -4.37391 0
M  V30 652 C 60.5462 0.831332 -5.19591 0
M  V30 653 O 59.5722 0.276822 -5.68526 0
M  V30 654 N 60.7742 2.15132 -5.39165 0
M  V30 655 H 63.5392 -1.00609 -2.82308 0
M  V30 656 H 61.1002 -0.678366 -1.47003 0
M  V30 657 H 63.0922 1.31773 -3.82646 0
M  V30 658 H 61.6622 1.44533 -2.7718 0
M  V30 659 H 60.8822 -0.788359 -3.86236 0
M  V30 660 H 62.1702 -0.555251 -5.05761 0
M  V30 661 H 61.5682 2.62559 -5.01078 0
M  V30 662 H 60.1252 2.6795 -5.94177 0
M  V30 663 N 63.5583 1.46682 -0.576371 0
M  V30 664 C 64.8353 1.95599 0.00703437 0
M  V30 665 C 65.2153 1.51904 1.46589 0
M  V30 666 O 64.5633 0.766755 2.15251 0
M  V30 667 C 64.7733 3.4864 -0.158404 0
M  V30 668 C 66.1213 4.24594 -0.0229439 0
M  V30 669 O 67.1453 3.56094 -0.0869173 0
M  V30 670 O 66.0043 5.46373 0.118015 0
M  V30 671 H 63.0983 0.825275 0.053384 0
M  V30 672 H 65.6443 1.56996 -0.644244 0
M  V30 673 H 64.4163 3.7331 -1.17282 0
M  V30 674 H 64.0393 3.94057 0.5296 0
M  V30 675 N 65.0364 0.313813 1.54444 0
M  V30 676 C 65.9994 -0.54379 2.22656 0
M  V30 677 C 66.9994 -1.05124 1.21678 0
M  V30 678 O 68.1894 -0.945225 1.46325 0
M  V30 679 C 65.3214 -1.75427 2.92298 0
M  V30 680 H 66.5144 0.0523599 2.99854 0
M  V30 681 H 64.0674 0.0647834 1.56166 0
M  V30 682 H 64.8024 -2.38991 2.19211 0
M  V30 683 H 64.5874 -1.39791 3.66334 0
M  V30 684 H 66.0774 -2.36325 3.44297 0
M  V30 685 N 66.5145 -1.57545 0.0417849 0
M  V30 686 C 67.4625 -2.12148 -0.953723 0
M  V30 687 C 68.4565 -1.05104 -1.32852 0
M  V30 688 O 69.6625 -1.23524 -1.30927 0
M  V30 689 H 66.0375 -0.677957 -0.325389 0
M  V30 690 H 68.0085 -2.94707 -0.467991 0
M  V30 691 C 66.7575 -2.6739 -2.22257 0
M  V30 692 H 66.0805 -3.49413 -1.94295 0
M  V30 693 H 67.5205 -3.09227 -2.90094 0
M  V30 694 C 65.9795 -1.60723 -2.96091 0
M  V30 695 O 66.5095 -1.01449 -3.88679 0
M  V30 696 N 64.7155 -1.32466 -2.58652 0
M  V30 697 H 64.2625 -1.80856 -1.83437 0
M  V30 698 H 64.2205 -0.61325 -3.08361 0
M  V30 699 N 67.9926 0.231505 -1.5589 0
M  V30 700 C 68.9556 1.27028 -1.90779 0
M  V30 701 C 69.9556 1.40308 -0.785507 0
M  V30 702 O 71.1456 1.38744 -1.05336 0
M  V30 703 C 68.2776 2.64566 -2.14983 0
M  V30 704 H 69.4706 0.973017 -2.83677 0
M  V30 705 H 67.0236 0.471486 -1.49019 0
M  V30 706 H 67.7586 2.99406 -1.24604 0
M  V30 707 H 67.5436 2.56305 -2.96732 0
M  V30 708 H 69.0336 3.39543 -2.43105 0
M  V30 709 N 69.4707 1.49531 0.497807 0
M  V30 710 C 70.6957 1.63159 1.28039 0
M  V30 711 C 71.1207 0.30418 1.85624 0
M  V30 712 O 70.4787 -0.728618 1.66015 0
M  V30 713 C 70.5267 2.70537 2.38416 0
M  V30 714 O 69.6307 2.29931 3.42353 0
M  V30 715 H 68.9717 0.546001 0.377861 0
M  V30 716 H 71.5017 1.9574 0.59558 0
M  V30 717 H 71.5117 2.92802 2.84132 0
M  V30 718 H 70.1867 3.6689 1.95869 0
M  V30 719 H 68.7637 2.18009 3.02533 0
M  V30 720 N 70.9488 -0.749086 1.3866 0
M  V30 721 C 72.1738 -1.54344 1.38538 0
M  V30 722 C 72.5988 -1.88088 -0.0216655 0
M  V30 723 O 71.9568 -1.50899 -1.00494 0
M  V30 724 C 72.0048 -2.8164 2.25192 0
M  V30 725 O 71.1088 -3.7698 1.67212 0
M  V30 726 H 70.4498 -0.466654 0.472367 0
M  V30 727 H 72.9798 -0.925355 1.82478 0
M  V30 728 H 72.9898 -3.30519 2.3921 0
M  V30 729 H 71.6648 -2.56411 3.27454 0
M  V30 730 H 70.2418 -3.35699 1.6236 0
M  V30 731 N 72.4269 -1.23603 -0.977757 0
M  V30 732 C 73.3569 -1.04401 -2.0886 0
M  V30 733 C 74.3379 0.0399052 -1.70053 0
M  V30 734 O 75.5229 -0.125246 -1.93796 0
M  V30 735 C 72.6529 -0.637269 -3.41403 0
M  V30 736 C 71.6069 -1.66883 -3.94124 0
M  V30 737 C 70.9329 -1.11745 -5.22893 0
M  V30 738 C 72.2329 -3.06247 -4.23096 0
M  V30 739 H 73.9269 -1.97316 -2.25182 0
M  V30 740 H 71.4729 -0.950096 -1.08209 0
M  V30 741 H 73.4259 -0.48998 -4.18542 0
M  V30 742 H 72.1499 0.327557 -3.24953 0
M  V30 743 H 70.8089 -1.80416 -3.19133 0
M  V30 744 H 70.4569 -0.143527 -5.02795 0
M  V30 745 H 70.1569 -1.80672 -5.59134 0
M  V30 746 H 71.6809 -0.982067 -6.02651 0
M  V30 747 H 73.0949 -2.96001 -4.90975 0
M  V30 748 H 71.4919 -3.72436 -4.70544 0
M  V30 749 H 72.5619 -3.55041 -3.30263 0
M  V30 750 N 73.905 1.17692 -1.04816 0
M  V30 751 C 74.835 2.23777 -0.666791 0
M  V30 752 C 75.816 1.66796 0.33361 0
M  V30 753 O 77.001 1.93039 0.212042 0
M  V30 754 C 74.131 3.47281 -0.0367933 0
M  V30 755 C 73.085 4.17059 -0.961546 0
M  V30 756 C 72.411 5.34342 -0.195626 0
M  V30 757 C 73.711 4.69713 -2.28402 0
M  V30 758 H 75.405 2.55933 -1.55367 0
M  V30 759 H 72.951 1.23019 -0.748484 0
M  V30 760 H 74.904 4.20706 0.241775 0
M  V30 761 H 73.628 3.14381 0.885004 0
M  V30 762 H 72.287 3.45541 -1.22462 0
M  V30 763 H 71.935 4.97692 0.728816 0
M  V30 764 H 71.635 5.81966 -0.811775 0
M  V30 765 H 73.159 6.10553 0.0757473 0
M  V30 766 H 74.573 5.34794 -2.06563 0
M  V30 767 H 72.97 5.279 -2.8538 0
M  V30 768 H 74.04 3.86726 -2.92525 0
M  V30 769 N 75.3831 0.828654 1.34056 0
M  V30 770 C 76.6601 0.341809 1.9259 0
M  V30 771 C 77.0401 -1.17158 1.75605 0
M  V30 772 O 76.3881 -1.98132 1.13824 0
M  V30 773 C 76.5981 0.777453 3.4023 0
M  V30 774 C 77.9461 0.779579 4.17382 0
M  V30 775 O 78.9701 0.7204 3.48839 0
M  V30 776 O 77.8291 0.857996 5.39723 0
M  V30 777 H 74.9231 0.0946085 0.821571 0
M  V30 778 H 77.4691 0.913827 1.42994 0
M  V30 779 H 76.2411 1.8196 3.46419 0
M  V30 780 H 75.8641 0.181444 3.97186 0
M  V30 781 N 76.8612 -1.46375 0.584142 0
M  V30 782 C 78.1102 -2.01585 0.0679741 0
M  V30 783 C 78.4232 -1.46109 -1.30045 0
M  V30 784 O 79.6292 -1.93148 -1.90804 0
M  V30 785 C 78.0852 -3.5983 0.0709207 0
M  V30 786 C 77.6932 -4.24303 1.43775 0
M  V30 787 C 79.4372 -4.22693 -0.391228 0
M  V30 788 C 77.3442 -5.74631 1.39834 0
M  V30 789 H 76.2742 -0.753689 0.0216421 0
M  V30 790 H 78.9252 -1.68093 0.736001 0
M  V30 791 H 77.3072 -3.90405 -0.663299 0
M  V30 792 H 78.4812 -4.05335 2.19181 0
M  V30 793 H 76.7962 -3.73539 1.84004 0
M  V30 794 H 79.3932 -5.3289 -0.439524 0
M  V30 795 H 79.7362 -3.91728 -1.40906 0
M  V30 796 H 80.2692 -3.96749 0.288974 0
M  V30 797 H 77.0082 -6.10258 2.39303 0
M  V30 798 H 76.5282 -5.95858 0.686505 0
M  V30 799 H 78.2072 -6.37375 1.11187 0
M  V30 800 N 78.3393 -0.321999 -1.54275 0
M  V30 801 C 79.5693 0.282642 -2.04658 0
M  V30 802 C 79.9773 1.46453 -1.19784 0
M  V30 803 O 79.3203 1.82367 -0.220932 0
M  V30 804 C 79.3823 0.781857 -3.50895 0
M  V30 805 C 79.0463 -0.277517 -4.56157 0
M  V30 806 C 80.0433 -1.11307 -5.07845 0
M  V30 807 C 77.7283 -0.425256 -5.00497 0
M  V30 808 C 79.7223 -2.08211 -6.02434 0
M  V30 809 C 77.4093 -1.39771 -5.94901 0
M  V30 810 C 78.4073 -2.2246 -6.45756 0
M  V30 811 O 78.0953 -3.18054 -7.38307 0
M  V30 812 H 77.8273 0.0622636 -0.673126 0
M  V30 813 H 80.3813 -0.465792 -2.00049 0
M  V30 814 H 78.6113 1.58118 -3.52896 0
M  V30 815 H 80.3003 1.30467 -3.84361 0
M  V30 816 H 81.0663 -1.00991 -4.74369 0
M  V30 817 H 76.9453 0.20847 -4.60528 0
M  V30 818 H 80.4893 -2.72791 -6.42052 0
M  V30 819 H 76.3863 -1.50152 -6.27794 0
M  V30 820 H 77.1543 -3.13275 -7.56175 0
M  V30 821 N 79.8174 1.5752 -0.0501392 0
M  V30 822 C 81.0424 1.97376 0.636997 0
M  V30 823 C 81.4674 0.927466 1.63645 0
M  V30 824 O 80.8254 -0.10941 1.8097 0
M  V30 825 C 80.8734 3.36304 1.30123 0
M  V30 826 O 79.9774 3.34156 2.41689 0
M  V30 827 H 79.3184 0.642998 0.165679 0
M  V30 828 H 81.8484 2.04258 -0.118233 0
M  V30 829 H 81.8584 3.73008 1.65315 0
M  V30 830 H 80.5334 4.11993 0.568746 0
M  V30 831 H 79.1104 3.09196 2.08451 0
M  V30 832 N 81.2955 -0.223234 1.56011 0
M  V30 833 C 82.5425 -0.947875 1.78946 0
M  V30 834 C 82.8705 -1.844 0.618608 0
M  V30 835 O 82.1255 -1.91629 -0.397093 0
M  V30 836 C 82.4245 -1.81948 3.0762 0
M  V30 837 C 82.0905 -1.07672 4.37856 0
M  V30 838 C 80.7525 -0.871544 4.73242 0
M  V30 839 C 83.1045 -0.552081 5.18268 0
M  V30 840 C 80.4325 -0.129791 5.86556 0
M  V30 841 C 82.7845 0.17632 6.32354 0
M  V30 842 C 81.4485 0.39277 6.66343 0
M  V30 843 H 80.7185 -0.346852 0.654809 0
M  V30 844 H 83.3655 -0.216171 1.90276 0
M  V30 845 H 81.6705 -2.61899 2.91404 0
M  V30 846 H 83.3675 -2.38227 3.22566 0
M  V30 847 H 79.9575 -1.24662 4.1007 0
M  V30 848 H 84.1415 -0.698076 4.91366 0
M  V30 849 H 79.3975 0.048153 6.11381 0
M  V30 850 H 83.5715 0.590367 6.93893 0
M  V30 851 H 81.1985 0.969466 7.53993 0
M  V30 852 N 82.7736 -1.49793 -0.48987 0
M  V30 853 C 84.0196 -1.61049 -1.24236 0
M  V30 854 C 84.3746 -0.298412 -1.90072 0
M  V30 855 O 83.6676 0.702262 -1.78266 0
M  V30 856 C 83.8616 -2.71488 -2.32441 0
M  V30 857 C 83.6906 -4.13308 -1.77218 0
M  V30 858 C 82.4606 -4.79955 -1.58023 0
M  V30 859 C 84.6586 -4.98176 -1.27772 0
M  V30 860 N 82.6406 -6.06052 -0.978465 0
M  V30 861 C 84.0116 -6.14843 -0.798 0
M  V30 862 C 86.0666 -4.84091 -1.16449 0
M  V30 863 C 84.7696 -7.18975 -0.216245 0
M  V30 864 C 86.7956 -5.88382 -0.596698 0
M  V30 865 C 86.1576 -7.04285 -0.127262 0
M  V30 866 H 82.2566 -0.643611 -0.444172 0
M  V30 867 H 84.8406 -1.86842 -0.54754 0
M  V30 868 H 83.0116 -2.47449 -2.99372 0
M  V30 869 H 84.7436 -2.72205 -2.99477 0
M  V30 870 H 81.4986 -4.36936 -1.82712 0
M  V30 871 H 81.9226 -6.73407 -0.696534 0
M  V30 872 H 86.5646 -3.94786 -1.5134 0
M  V30 873 H 84.2826 -8.0797 0.144903 0
M  V30 874 H 87.8686 -5.79545 -0.511716 0
M  V30 875 H 86.7486 -7.83606 0.30523 0
M  V30 876 N 84.2517 0.741722 -1.39055 0
M  V30 877 C 85.1817 1.869 -1.39966 0
M  V30 878 C 86.1627 1.6804 -0.26392 0
M  V30 879 O 87.3477 1.88458 -0.468755 0
M  V30 880 C 84.4777 3.24572 -1.23574 0
M  V30 881 C 83.4317 3.58056 -2.34477 0
M  V30 882 C 82.7577 4.94593 -2.0318 0
M  V30 883 C 84.0577 3.61716 -3.76774 0
M  V30 884 H 85.7517 1.86395 -2.34302 0
M  V30 885 H 83.2977 0.895361 -1.1278 0
M  V30 886 H 85.2507 4.031 -1.22834 0
M  V30 887 H 83.9747 3.25587 -0.257045 0
M  V30 888 H 82.6337 2.81854 -2.34423 0
M  V30 889 H 82.2817 4.92181 -1.03765 0
M  V30 890 H 81.9817 5.17964 -2.77465 0
M  V30 891 H 83.5057 5.75486 -2.04079 0
M  V30 892 H 84.9197 4.30335 -3.78794 0
M  V30 893 H 83.3167 3.96603 -4.50362 0
M  V30 894 H 84.3867 2.61672 -4.08235 0
M  V30 895 N 85.7298 1.2412 0.971189 0
M  V30 896 C 86.6768 1.0305 2.06517 0
M  V30 897 C 87.6468 -0.0550666 1.66009 0
M  V30 898 O 88.8318 0.0988688 1.90544 0
M  V30 899 C 85.9718 0.637653 3.39158 0
M  V30 900 C 85.0848 1.79633 3.92882 0
M  V30 901 C 84.2198 1.34939 5.13775 0
M  V30 902 C 83.2588 2.47823 5.59687 0
M  V30 903 N 82.3958 2.04022 6.71803 0
M  V30 904 H 87.2358 1.96685 2.23873 0
M  V30 905 H 84.7728 0.979694 1.09729 0
M  V30 906 H 86.7308 0.390931 4.15364 0
M  V30 907 H 85.3608 -0.261693 3.21737 0
M  V30 908 H 84.4128 2.15681 3.13346 0
M  V30 909 H 85.7248 2.64466 4.22918 0
M  V30 910 H 84.8788 1.06134 5.97345 0
M  V30 911 H 83.6178 0.471557 4.85415 0
M  V30 912 H 82.6228 2.77392 4.74693 0
M  V30 913 H 83.8478 3.36158 5.90063 0
M  V30 914 H 81.7938 1.18632 6.45184 0
M  V30 915 H 81.7108 2.82409 7.01271 0
M  V30 916 H 82.9788 1.78347 7.58823 0
M  V30 917 N 87.2079 -1.17134 1.05439 0
M  V30 918 C 88.4329 -1.91913 0.786396 0
M  V30 919 C 88.8579 -1.7643 -0.652234 0
M  V30 920 O 88.2159 -1.08372 -1.45345 0
M  V30 921 C 88.2639 -3.40921 1.17497 0
M  V30 922 O 87.3679 -4.11244 0.308589 0
M  V30 923 H 86.7089 -0.598215 0.288158 0
M  V30 924 H 89.2389 -1.48457 1.4079 0
M  V30 925 H 89.2489 -3.91668 1.14281 0
M  V30 926 H 87.9239 -3.5151 2.22292 0
M  V30 927 H 86.5009 -3.70731 0.40157 0
M  V30 928 N 88.686 -0.835752 -1.33615 0
M  V30 929 C 89.649 -0.272 -2.2758 0
M  V30 930 C 90.649 0.557487 -1.50827 0
M  V30 931 O 91.839 0.37173 -1.70188 0
M  V30 932 C 88.971 0.617173 -3.35267 0
M  V30 933 H 90.164 -1.10111 -2.78954 0
M  V30 934 H 87.717 -0.608594 -1.43965 0
M  V30 935 H 88.452 1.46884 -2.89129 0
M  V30 936 H 88.237 0.0237066 -3.92093 0
M  V30 937 H 89.727 1.005 -4.05326 0
M  V30 938 N 90.1641 1.46063 -0.591896 0
M  V30 939 C 91.1111 2.30399 0.136069 0
M  V30 940 C 92.0811 1.41169 0.875238 0
M  V30 941 O 93.2661 1.70112 0.86409 0
M  V30 942 C 90.4061 3.25804 1.13781 0
M  V30 943 C 89.5191 4.30134 0.401137 0
M  V30 944 C 88.6541 5.12659 1.39121 0
M  V30 945 C 87.6931 6.0873 0.641462 0
M  V30 946 N 86.8301 6.8409 1.58004 0
M  V30 947 H 91.6701 2.92118 -0.589144 0
M  V30 948 H 89.2071 1.43959 -0.302342 0
M  V30 949 H 91.1651 3.79569 1.73156 0
M  V30 950 H 89.7951 2.65872 1.83062 0
M  V30 951 H 88.8471 3.79152 -0.307826 0
M  V30 952 H 90.1591 4.98458 -0.184565 0
M  V30 953 H 89.3131 5.70747 2.05749 0
M  V30 954 H 88.0521 4.44316 2.01084 0
M  V30 955 H 87.0571 5.49786 -0.0385419 0
M  V30 956 H 88.2821 6.79095 0.0270945 0
M  V30 957 H 86.2281 6.18449 2.18761 0
M  V30 958 H 86.1451 7.48709 1.04738 0
M  V30 959 H 87.4131 7.4673 2.23639 0
M  V30 960 N 91.6422 0.330177 1.54103 0
M  V30 961 C 92.8882 -0.270806 2.00984 0
M  V30 962 C 93.2212 -1.51265 1.21789 0
M  V30 963 O 92.4962 -1.92142 0.301927 0
M  V30 964 C 92.7792 -0.598339 3.55094 0
M  V30 965 C 92.6322 0.654674 4.4501 0
M  V30 966 C 93.9512 -1.41334 4.16789 0
M  V30 967 H 91.0702 -0.0969531 0.730595 0
M  V30 968 H 93.7122 0.448066 1.84641 0
M  V30 969 H 91.8622 -1.21078 3.69151 0
M  V30 970 H 93.5342 1.29285 4.42813 0
M  V30 971 H 91.7772 1.28224 4.14416 0
M  V30 972 H 92.4482 0.380944 5.50684 0
M  V30 973 H 94.9242 -0.895597 4.06347 0
M  V30 974 H 93.8002 -1.61127 5.24718 0
M  V30 975 H 94.0612 -2.41146 3.70541 0
M  V30 976 N 93.1203 -1.57491 0.0584922 0
M  V30 977 C 94.5313 -1.80526 -0.476138 0
M  V30 978 C 94.8823 -0.971334 -1.70469 0
M  V30 979 O 94.0073 -0.190012 -2.15564 0
M  V30 980 C 94.6023 -3.27424 -0.870587 0
M  V30 981 C 93.1613 -3.51351 -1.35015 0
M  V30 982 C 92.3083 -2.75343 -0.32887 0
M  V30 983 H 95.2593 -1.56133 0.284312 0
M  V30 984 H 95.2803 -3.38745 -1.73299 0
M  V30 985 H 94.7923 -3.88093 0.0237627 0
M  V30 986 H 92.8933 -2.95971 -2.26345 0
M  V30 987 H 93.0063 -4.60059 -1.33726 0
M  V30 988 H 91.3703 -2.417 -0.803321 0
M  V30 989 H 92.1533 -3.38743 0.557521 0
M  V30 990 N 94.5984 0.214957 -1.56127 0
M  V30 991 C 95.5084 1.28727 -1.96129 0
M  V30 992 C 96.5244 1.50916 -0.866044 0
M  V30 993 O 97.7004 1.63918 -1.17016 0
M  V30 994 C 94.7654 2.61569 -2.27558 0
M  V30 995 C 93.8264 2.47625 -3.50685 0
M  V30 996 C 93.0594 3.74132 -3.80606 0
M  V30 997 O 93.2824 4.77438 -3.12104 0
M  V30 998 O 92.2164 3.70849 -4.74083 0
M  V30 999 H 96.0424 0.977855 -2.87527 0
M  V30 1000 H 93.6274 0.418358 -1.43423 0
M  V30 1001 H 95.5094 3.40012 -2.48938 0
M  V30 1002 H 94.1844 2.92178 -1.39332 0
M  V30 1003 H 93.0914 1.67361 -3.34576 0
M  V30 1004 H 94.4244 2.21954 -4.39315 0
M  V30 1005 N 96.0765 1.50051 0.48192 0
M  V30 1006 C 97.4925 1.37237 0.814756 0
M  V30 1007 C 97.6925 0.420109 1.97072 0
M  V30 1008 O 96.7485 -0.141246 2.52105 0
M  V30 1009 C 98.0615 2.78375 1.13701 0
M  V30 1010 C 99.6095 2.87213 1.2441 0
M  V30 1011 C 100.084 4.29161 1.59954 0
M  V30 1012 N 101.575 4.32061 1.66967 0
M  V30 1013 C 102.31 5.38879 1.95952 0
M  V30 1014 N 101.806 6.55918 2.23031 0
M  V30 1015 N 103.599 5.26312 1.97363 0
M  V30 1016 H 95.7505 2.10546 -0.28005 0
M  V30 1017 H 98.0135 0.945921 -0.0627454 0
M  V30 1018 H 97.7195 3.49845 0.360787 0
M  V30 1019 H 97.5935 3.14941 2.07586 0
M  V30 1020 H 99.9805 2.15969 2.01101 0
M  V30 1021 H 100.061 2.54204 0.285299 0
M  V30 1022 H 99.7055 5.00938 0.838067 0
M  V30 1023 H 99.6355 4.59648 2.56966 0
M  V30 1024 H 102.126 3.47661 1.48123 0
M  V30 1025 H 102.439 7.33139 2.44391 0
M  V30 1026 H 100.784 6.59112 2.20447 0
M  V30 1027 H 103.975 4.33876 1.75697 0
M  V30 1028 H 104.148 6.09649 2.19618 0
M  V30 1029 N 97.5546 -0.734337 1.39446 0
M  V30 1030 C 98.5016 -1.84835 1.38219 0
M  V30 1031 C 99.4716 -1.64331 0.24179 0
M  V30 1032 O 100.657 -1.85728 0.437002 0
M  V30 1033 C 97.7966 -3.22355 1.23212 0
M  V30 1034 C 96.9096 -3.5456 2.46801 0
M  V30 1035 C 96.0446 -4.81485 2.24377 0
M  V30 1036 C 95.0836 -5.06536 3.43639 0
M  V30 1037 N 94.2206 -6.24665 3.20528 0
M  V30 1038 H 99.0606 -1.85219 2.33448 0
M  V30 1039 H 96.5976 -0.905039 1.15963 0
M  V30 1040 H 98.5556 -4.0174 1.12522 0
M  V30 1041 H 97.1856 -3.21248 0.316121 0
M  V30 1042 H 96.2376 -2.69872 2.68092 0
M  V30 1043 H 97.5496 -3.6899 3.3563 0
M  V30 1044 H 96.7036 -5.68852 2.10933 0
M  V30 1045 H 95.4426 -4.6923 1.32944 0
M  V30 1046 H 94.4476 -4.17632 3.5758 0
M  V30 1047 H 95.6726 -5.20676 4.35974 0
M  V30 1048 H 93.6186 -6.13696 2.3176 0
M  V30 1049 H 93.5356 -6.39685 4.02913 0
M  V30 1050 H 94.8036 -7.14868 3.10779 0
M  V30 1051 N 99.0327 -1.24633 -0.964593 0
M  V30 1052 C 99.9627 -1.06611 -2.07741 0
M  V30 1053 C 100.944 0.0218666 -1.70086 0
M  V30 1054 O 102.129 -0.145793 -1.93652 0
M  V30 1055 C 99.2587 -0.673444 -3.40708 0
M  V30 1056 C 98.2127 -1.71054 -3.92332 0
M  V30 1057 C 97.5387 -1.17285 -5.21678 0
M  V30 1058 C 98.8387 -3.10718 -4.19824 0
M  V30 1059 H 100.533 -1.99693 -2.23076 0
M  V30 1060 H 98.0787 -0.96152 -1.07195 0
M  V30 1061 H 100.032 -0.534345 -4.17998 0
M  V30 1062 H 98.7557 0.293073 -3.25282 0
M  V30 1063 H 97.4147 -1.83791 -3.17201 0
M  V30 1064 H 97.0627 -0.196847 -5.02615 0
M  V30 1065 H 96.7627 -1.86592 -5.57187 0
M  V30 1066 H 98.2867 -1.04593 -6.01575 0
M  V30 1067 H 99.7007 -3.01192 -4.87808 0
M  V30 1068 H 98.0977 -3.77406 -4.66567 0
M  V30 1069 H 99.1677 -3.58524 -3.26479 0
M  V30 1070 N 100.511 1.16574 -1.06058 0
M  V30 1071 C 101.443 2.2045 -0.627239 0
M  V30 1072 C 102.456 1.59752 0.313534 0
M  V30 1073 O 103.645 1.78192 0.104896 0
M  V30 1074 C 100.745 3.3875 0.100974 0
M  V30 1075 C 99.9178 4.29008 -0.852687 0
M  V30 1076 C 98.9768 5.25944 -0.164152 0
M  V30 1077 O 98.0028 5.63535 -0.801047 0
M  V30 1078 N 99.2048 5.70075 1.09518 0
M  V30 1079 H 101.97 2.58249 -1.52077 0
M  V30 1080 H 99.5308 1.3156 -0.943594 0
M  V30 1081 H 101.523 4.00638 0.57194 0
M  V30 1082 H 100.093 2.99476 0.89628 0
M  V30 1083 H 99.3128 3.64419 -1.50308 0
M  V30 1084 H 100.601 4.86195 -1.49972 0
M  V30 1085 H 99.9988 5.41624 1.6328 0
M  V30 1086 H 98.5558 6.34067 1.51006 0
M  V30 1087 N 101.989 0.842826 1.3317 0
M  V30 1088 C 102.952 0.284065 2.27433 0
M  V30 1089 C 103.952 -0.54948 1.5112 0
M  V30 1090 O 105.142 -0.362699 1.70382 0
M  V30 1091 C 102.274 -0.599384 3.35589 0
M  V30 1092 H 103.467 1.11589 2.78366 0
M  V30 1093 H 101.02 0.616221 1.4364 0
M  V30 1094 H 101.755 -1.45349 2.89904 0
M  V30 1095 H 101.54 -0.00291266 3.921 0
M  V30 1096 H 103.03 -0.983488 4.05854 0
M  V30 1097 N 103.467 -1.45747 0.599634 0
M  V30 1098 C 104.415 -2.322 -0.136426 0
M  V30 1099 C 105.409 -1.45497 -0.867583 0
M  V30 1100 O 106.615 -1.62027 -0.78405 0
M  V30 1101 H 102.99 -0.749368 -0.0628588 0
M  V30 1102 H 104.961 -2.92072 0.611281 0
M  V30 1103 C 103.71 -3.28974 -1.12567 0
M  V30 1104 H 103.033 -3.9568 -0.572484 0
M  V30 1105 H 104.473 -3.92212 -1.61077 0
M  V30 1106 C 102.932 -2.55561 -2.19523 0
M  V30 1107 O 103.462 -2.33111 -3.27143 0
M  V30 1108 N 101.668 -2.15832 -1.94589 0
M  V30 1109 H 101.215 -2.3429 -1.07078 0
M  V30 1110 H 101.173 -1.67034 -2.66359 0
M  V30 1111 N 104.945 -0.338344 -1.53925 0
M  V30 1112 C 106.193 0.259245 -2.0043 0
M  V30 1113 C 106.514 1.51484 -1.22791 0
M  V30 1114 O 105.784 1.93037 -0.33368 0
M  V30 1115 H 104.364 0.0987845 -0.740439 0
M  V30 1116 H 107.026 -0.458302 -1.89435 0
M  V30 1117 H 106.122 0.505334 -3.07982 0
M  V30 1118 N 106.423 1.57458 -0.0668435 0
M  V30 1119 C 107.834 1.80776 0.466558 0
M  V30 1120 C 108.185 0.980361 1.69951 0
M  V30 1121 O 107.31 0.201441 2.1546 0
M  V30 1122 C 107.905 3.27881 0.85321 0
M  V30 1123 C 106.464 3.52062 1.3315 0
M  V30 1124 C 105.611 2.75513 0.314264 0
M  V30 1125 H 108.562 1.5598 -0.292588 0
M  V30 1126 H 108.583 3.39659 1.715 0
M  V30 1127 H 108.095 3.88075 -0.0443439 0
M  V30 1128 H 106.196 2.97167 2.24772 0
M  V30 1129 H 106.309 4.60762 1.31285 0
M  V30 1130 H 104.673 2.42123 0.790492 0
M  V30 1131 H 105.456 3.38442 -0.575477 0
M  V30 1132 N 107.901 -0.206675 1.56239 0
M  V30 1133 C 109.147 -0.930218 1.80208 0
M  V30 1134 C 109.48 -1.83387 0.638981 0
M  V30 1135 O 108.755 -1.91119 -0.361066 0
M  V30 1136 C 109.038 -1.75641 3.1436 0
M  V30 1137 C 108.891 -0.878257 4.41142 0
M  V30 1138 C 110.21 -2.73129 3.45092 0
M  V30 1139 H 107.329 -0.336742 0.655571 0
M  V30 1140 H 109.971 -0.198222 1.88963 0
M  V30 1141 H 108.121 -2.38048 3.07027 0
M  V30 1142 H 109.793 -0.269787 4.6051 0
M  V30 1143 H 108.036 -0.184385 4.33408 0
M  V30 1144 H 108.707 -1.49106 5.3148 0
M  V30 1145 H 111.183 -2.20856 3.52649 0
M  V30 1146 H 110.059 -3.28028 4.40101 0
M  V30 1147 H 110.32 -3.51606 2.68003 0
M  V30 1148 N 109.379 -1.50304 -0.473955 0
M  V30 1149 C 110.342 -1.6841 -1.55469 0
M  V30 1150 C 111.342 -0.554905 -1.50922 0
M  V30 1151 O 112.532 -0.821882 -1.53593 0
M  V30 1152 C 109.664 -1.70667 -2.95102 0
M  V30 1153 H 110.857 -2.64828 -1.40733 0
M  V30 1154 H 108.41 -1.39742 -0.700132 0
M  V30 1155 H 109.145 -0.75932 -3.15285 0
M  V30 1156 H 108.93 -2.52698 -2.9981 0
M  V30 1157 H 110.42 -1.8664 -3.73571 0
M  V30 1158 N 110.857 0.726932 -1.39834 0
M  V30 1159 C 111.804 1.841 -1.39197 0
M  V30 1160 C 112.774 1.642 -0.250502 0
M  V30 1161 O 113.959 1.85494 -0.446846 0
M  V30 1162 C 111.099 3.21697 -1.24919 0
M  V30 1163 C 110.212 3.53247 -2.48678 0
M  V30 1164 C 109.347 4.80289 -2.26928 0
M  V30 1165 C 108.386 5.04707 -3.4632 0
M  V30 1166 N 107.523 6.22956 -3.23836 0
M  V30 1167 H 112.363 1.83979 -2.34427 0
M  V30 1168 H 109.9 0.898876 -1.16442 0
M  V30 1169 H 111.858 4.01137 -1.1465 0
M  V30 1170 H 110.488 3.21076 -0.333153 0
M  V30 1171 H 109.54 2.68447 -2.69519 0
M  V30 1172 H 110.852 3.67205 -3.37582 0
M  V30 1173 H 110.006 5.67725 -2.13947 0
M  V30 1174 H 108.745 4.68519 -1.35431 0
M  V30 1175 H 107.75 4.1573 -3.5979 0
M  V30 1176 H 108.975 5.18357 -4.38729 0
M  V30 1177 H 106.921 6.12459 -2.35011 0
M  V30 1178 H 106.838 6.37539 -4.063 0
M  V30 1179 H 108.106 7.1321 -3.14566 0
M  V30 1180 N 112.336 1.25143 0.95797 0
M  V30 1181 C 113.283 1.05235 2.05412 0
M  V30 1182 C 114.253 -0.0374561 1.66058 0
M  V30 1183 O 115.438 0.119073 1.90428 0
M  V30 1184 C 112.578 0.673589 3.38462 0
M  V30 1185 C 111.691 1.8379 3.90954 0
M  V30 1186 C 110.826 1.40381 5.12315 0
M  V30 1187 C 109.865 2.53746 5.57027 0
M  V30 1188 N 109.002 2.11136 6.69601 0
M  V30 1189 H 113.842 1.99048 2.21774 0
M  V30 1190 H 111.379 0.991277 1.08683 0
M  V30 1191 H 113.337 0.434964 4.14926 0
M  V30 1192 H 111.967 -0.227554 3.21997 0
M  V30 1193 H 111.019 2.18992 3.11041 0
M  V30 1194 H 112.331 2.68937 4.20089 0
M  V30 1195 H 111.485 1.12464 5.96185 0
M  V30 1196 H 110.224 0.523015 4.84887 0
M  V30 1197 H 109.229 2.82412 4.71724 0
M  V30 1198 H 110.454 3.42398 5.86464 0
M  V30 1199 H 108.4 1.25468 6.4389 0
M  V30 1200 H 108.317 2.89832 6.98236 0
M  V30 1201 H 109.585 1.86385 7.56889 0
M  V30 1202 N 113.814 -1.1601 1.06675 0
M  V30 1203 C 114.777 -2.18724 0.685001 0
M  V30 1204 C 115.777 -1.58496 -0.271246 0
M  V30 1205 O 116.967 -1.74119 -0.0531156 0
M  V30 1206 C 114.099 -3.40899 0.00853648 0
M  V30 1207 H 115.292 -2.54011 1.59431 0
M  V30 1208 H 112.845 -1.30352 0.862441 0
M  V30 1209 H 113.58 -3.11173 -0.913337 0
M  V30 1210 H 113.365 -3.8587 0.696204 0
M  V30 1211 H 114.855 -4.16886 -0.24414 0
M  V30 1212 N 115.292 -0.849877 -1.32721 0
M  V30 1213 C 116.239 -0.289033 -2.28983 0
M  V30 1214 C 117.209 0.601324 -1.54833 0
M  V30 1215 O 118.394 0.537253 -1.8308 0
M  V30 1216 C 115.534 0.520623 -3.4115 0
M  V30 1217 C 114.647 -0.394989 -4.3019 0
M  V30 1218 C 113.782 0.426834 -5.29482 0
M  V30 1219 C 112.821 -0.486476 -6.10164 0
M  V30 1220 N 111.958 0.297879 -7.01468 0
M  V30 1221 H 116.798 -1.11519 -2.76347 0
M  V30 1222 H 114.335 -0.56138 -1.35967 0
M  V30 1223 H 116.293 1.00563 -4.04899 0
M  V30 1224 H 114.923 1.31165 -2.9495 0
M  V30 1225 H 113.975 -0.99836 -3.67065 0
M  V30 1226 H 115.287 -1.09612 -4.86607 0
M  V30 1227 H 114.441 0.975205 -5.98811 0
M  V30 1228 H 113.18 1.16136 -4.73671 0
M  V30 1229 H 112.185 -1.04677 -5.39743 0
M  V30 1230 H 113.41 -1.21953 -6.6806 0
M  V30 1231 H 111.356 1.01558 -6.48091 0
M  V30 1232 H 111.273 -0.344318 -7.55216 0
M  V30 1233 H 112.541 0.828131 -7.75089 0
M  V30 1234 N 116.77 1.45427 -0.607355 0
M  V30 1235 C 117.717 2.3053 0.111625 0
M  V30 1236 C 118.687 1.4209 0.860216 0
M  V30 1237 O 119.872 1.71019 0.845998 0
M  V30 1238 C 117.012 3.26992 1.10319 0
M  V30 1239 C 116.125 4.30535 0.355493 0
M  V30 1240 C 115.26 5.14105 1.33676 0
M  V30 1241 C 114.299 6.09376 0.576862 0
M  V30 1242 N 113.436 6.85727 1.5074 0
M  V30 1243 H 118.276 2.91477 -0.620093 0
M  V30 1244 H 115.813 1.43631 -0.317594 0
M  V30 1245 H 117.771 3.81385 1.6912 0
M  V30 1246 H 116.401 2.67799 1.80232 0
M  V30 1247 H 115.453 3.78805 -0.348023 0
M  V30 1248 H 116.765 4.98235 -0.237423 0
M  V30 1249 H 115.919 5.72897 1.99684 0
M  V30 1250 H 114.658 4.46423 1.9636 0
M  V30 1251 H 113.663 5.49715 -0.0968519 0
M  V30 1252 H 114.888 6.79085 -0.0449341 0
M  V30 1253 H 112.834 6.20735 2.12189 0
M  V30 1254 H 112.751 7.49778 0.967913 0
M  V30 1255 H 114.019 7.4906 2.15706 0
M  V30 1256 N 118.248 0.346503 1.53744 0
M  V30 1257 C 119.195 -0.508914 2.25119 0
M  V30 1258 C 120.165 -1.09315 1.25058 0
M  V30 1259 O 121.35 -1.12921 1.53797 0
M  V30 1260 C 118.49 -1.65246 3.02965 0
M  V30 1261 C 117.603 -1.09525 4.17886 0
M  V30 1262 C 116.738 -2.20634 4.83212 0
M  V30 1263 C 115.777 -1.62279 5.90196 0
M  V30 1264 N 114.914 -2.67143 6.49291 0
M  V30 1265 H 119.754 0.106283 2.9781 0
M  V30 1266 H 117.291 0.0642227 1.4696 0
M  V30 1267 H 119.249 -2.32574 3.4636 0
M  V30 1268 H 117.879 -2.2386 2.32565 0
M  V30 1269 H 116.931 -0.312818 3.79112 0
M  V30 1270 H 118.243 -0.628444 4.94825 0
M  V30 1271 H 117.397 -2.95821 5.29693 0
M  V30 1272 H 116.136 -2.70659 4.05703 0
M  V30 1273 H 115.141 -0.855989 5.43096 0
M  V30 1274 H 116.366 -1.13102 6.69615 0
M  V30 1275 H 114.312 -3.16417 5.74645 0
M  V30 1276 H 114.229 -2.25093 7.21713 0
M  V30 1277 H 115.497 -3.4209 7.00425 0
M  V30 1278 N 119.726 -1.57421 0.075193 0
M  V30 1279 C 120.689 -2.11791 -0.876203 0
M  V30 1280 C 121.689 -1.04268 -1.22412 0
M  V30 1281 O 122.879 -1.30242 -1.15684 0
M  V30 1282 C 120.011 -2.62207 -2.17854 0
M  V30 1283 H 121.204 -2.9716 -0.40444 0
M  V30 1284 H 118.757 -1.55333 -0.173557 0
M  V30 1285 H 119.492 -1.803 -2.6956 0
M  V30 1286 H 119.277 -3.40802 -1.93897 0
M  V30 1287 H 120.767 -3.04335 -2.85955 0
M  V30 1288 N 121.204 0.198386 -1.56346 0
M  V30 1289 C 122.429 0.939682 -1.84891 0
M  V30 1290 C 122.854 1.76202 -0.658369 0
M  V30 1291 O 122.212 1.76993 0.392851 0
M  V30 1292 C 122.26 1.81428 -3.11635 0
M  V30 1293 O 121.364 2.91265 -2.91956 0
M  V30 1294 H 120.705 0.264807 -0.608912 0
M  V30 1295 H 123.235 0.204695 -2.03573 0
M  V30 1296 H 123.245 2.21958 -3.42343 0
M  V30 1297 H 121.92 1.21004 -3.97908 0
M  V30 1298 H 120.497 2.54514 -2.72538 0
M  V30 1299 N 122.682 1.50554 0.465978 0
M  V30 1300 C 123.907 1.65838 1.24549 0
M  V30 1301 C 124.332 0.343486 1.84937 0
M  V30 1302 O 123.69 -0.69324 1.67523 0
M  V30 1303 C 123.738 2.75533 2.32624 0
M  V30 1304 O 122.842 2.37142 3.37398 0
M  V30 1305 H 122.183 0.553893 0.366194 0
M  V30 1306 H 124.713 1.96959 0.553927 0
M  V30 1307 H 124.723 2.98763 2.77857 0
M  V30 1308 H 123.398 3.70962 1.88043 0
M  V30 1309 H 121.975 2.24377 2.97841 0
M  V30 1310 N 124.16 -0.719506 1.40217 0
M  V30 1311 C 125.385 -1.51371 1.4178 0
M  V30 1312 C 125.81 -1.88091 0.0182355 0
M  V30 1313 O 125.168 -1.52997 -0.972707 0
M  V30 1314 C 125.216 -2.768 2.31115 0
M  V30 1315 O 124.32 -3.73349 1.7517 0
M  V30 1316 H 123.661 -0.456529 0.482159 0
M  V30 1317 H 126.191 -0.88644 1.844 0
M  V30 1318 H 126.201 -3.25371 2.46167 0
M  V30 1319 H 124.876 -2.49407 3.3282 0
M  V30 1320 H 123.453 -3.32179 1.69444 0
M  V30 1321 N 125.638 -1.25649 -0.95132 0
M  V30 1322 C 126.915 -1.01361 -1.67288 0
M  V30 1323 C 127.295 0.459135 -2.06046 0
M  V30 1324 O 126.643 1.43723 -1.7764 0
M  V30 1325 C 126.853 -1.95256 -2.89268 0
M  V30 1326 C 128.201 -2.23289 -3.61147 0
M  V30 1327 O 129.225 -1.93041 -2.99355 0
M  V30 1328 O 128.084 -2.74741 -4.72419 0
M  V30 1329 H 125.178 -0.38464 -0.732107 0
M  V30 1330 H 127.724 -1.36817 -1.00395 0
M  V30 1331 H 126.496 -2.94685 -2.57442 0
M  V30 1332 H 126.119 -1.60218 -3.6389 0
M  V30 1333 N 127.117 1.15442 -1.07289 0
M  V30 1334 C 128.342 1.90638 -0.816828 0
M  V30 1335 C 128.767 1.77445 0.624083 0
M  V30 1336 O 128.125 1.10671 1.43602 0
M  V30 1337 C 128.173 3.39008 -1.22906 0
M  V30 1338 O 127.277 4.10701 -0.373975 0
M  V30 1339 H 126.618 0.593555 -0.297638 0
M  V30 1340 H 129.148 1.46198 -1.43134 0
M  V30 1341 H 129.158 3.89801 -1.20497 0
M  V30 1342 H 127.833 3.47929 -2.27856 0
M  V30 1343 H 126.41 3.70046 -0.460499 0
M  V30 1344 N 128.595 0.856903 1.32268 0
M  V30 1345 C 129.505 0.306131 2.32594 0
M  V30 1346 C 130.521 -0.577209 1.64147 0
M  V30 1347 O 131.697 -0.477043 1.95669 0
M  V30 1348 C 128.762 -0.494561 3.43154 0
M  V30 1349 C 127.823 0.415186 4.27288 0
M  V30 1350 C 127.056 -0.347387 5.32568 0
M  V30 1351 O 127.279 -1.57708 5.48165 0
M  V30 1352 O 126.213 0.287982 6.01211 0
M  V30 1353 H 130.039 1.13737 2.81598 0
M  V30 1354 H 127.624 0.619902 1.35932 0
M  V30 1355 H 129.506 -0.948944 4.10576 0
M  V30 1356 H 128.181 -1.30257 2.96336 0
M  V30 1357 H 127.088 0.917793 3.62667 0
M  V30 1358 H 128.421 1.18844 4.77637 0
M  V30 1359 N 130.073 -1.45103 0.615059 0
M  V30 1360 C 131.35 -1.95549 0.0448276 0
M  V30 1361 C 131.73 -1.55737 -1.4251 0
M  V30 1362 O 131.078 -0.823556 -2.13143 0
M  V30 1363 C 131.288 -3.48098 0.250785 0
M  V30 1364 C 132.636 -4.24384 0.135509 0
M  V30 1365 O 133.66 -3.55738 0.181299 0
M  V30 1366 O 132.519 -5.46493 0.0268878 0
M  V30 1367 H 129.613 -0.8264 -0.0314845 0
M  V30 1368 H 132.159 -1.55232 0.685642 0
M  V30 1369 H 130.931 -3.7007 1.27139 0
M  V30 1370 H 130.554 -3.95323 -0.424937 0
M  V30 1371 N 131.551 -0.354651 -1.53558 0
M  V30 1372 C 132.776 0.242153 -2.05981 0
M  V30 1373 C 133.201 1.42553 -1.2272 0
M  V30 1374 O 132.559 1.79656 -0.243604 0
M  V30 1375 C 132.607 0.624367 -3.55154 0
M  V30 1376 O 131.711 1.72301 -3.74681 0
M  V30 1377 H 131.052 0.0378432 -0.662921 0
M  V30 1378 H 133.582 -0.512087 -1.98088 0
M  V30 1379 H 133.592 0.898433 -3.97985 0
M  V30 1380 H 132.267 -0.240989 -4.15201 0
M  V30 1381 H 130.844 1.44535 -3.4375 0
M  V30 1382 N 133.029 1.57378 -0.0835403 0
M  V30 1383 C 134.254 1.98682 0.594987 0
M  V30 1384 C 134.679 0.961969 1.61641 0
M  V30 1385 O 134.037 -0.0709989 1.81161 0
M  V30 1386 C 134.085 3.38988 1.2296 0
M  V30 1387 O 133.189 3.39208 2.34546 0
M  V30 1388 H 132.53 0.646368 0.152002 0
M  V30 1389 H 135.06 2.03961 -0.161533 0
M  V30 1390 H 135.07 3.76431 1.57366 0
M  V30 1391 H 133.745 4.13107 0.481228 0
M  V30 1392 H 132.322 3.13548 2.01846 0
M  V30 1393 N 134.507 -0.190092 1.56449 0
M  V30 1394 C 135.417 -1.25591 1.98152 0
M  V30 1395 C 136.433 -1.49519 0.889944 0
M  V30 1396 O 137.609 -1.62036 1.19609 0
M  V30 1397 C 134.674 -2.57916 2.3169 0
M  V30 1398 C 133.735 -2.42015 3.5458 0
M  V30 1399 C 132.968 -3.6803 3.8651 0
M  V30 1400 O 133.191 -4.72413 3.1966 0
M  V30 1401 O 132.125 -3.6326 4.79923 0
M  V30 1402 H 135.951 -0.931988 2.89046 0
M  V30 1403 H 133.536 -0.395488 1.4407 0
M  V30 1404 H 135.418 -3.36008 2.54316 0
M  V30 1405 H 134.093 -2.89925 1.43963 0
M  V30 1406 H 133 -1.62017 3.37196 0
M  V30 1407 H 134.333 -2.14937 4.4279 0
M  V30 1408 N 135.985 -1.50799 -0.457987 0
M  V30 1409 C 136.895 -1.73426 -1.57989 0
M  V30 1410 C 137.911 -0.617745 -1.62665 0
M  V30 1411 O 139.087 -0.897614 -1.80291 0
M  V30 1412 C 136.152 -1.83557 -2.94122 0
M  V30 1413 C 135.213 -3.07345 -2.99729 0
M  V30 1414 C 134.446 -3.16983 -4.29368 0
M  V30 1415 O 134.669 -2.33077 -5.20607 0
M  V30 1416 O 133.603 -4.09812 -4.40837 0
M  V30 1417 H 137.429 -2.68555 -1.41817 0
M  V30 1418 H 135.014 -1.35052 -0.638859 0
M  V30 1419 H 136.896 -1.92326 -3.74952 0
M  V30 1420 H 135.571 -0.916137 -3.10465 0
M  V30 1421 H 134.478 -3.04068 -2.1793 0
M  V30 1422 H 135.811 -3.9891 -2.88326 0
M  V30 1423 N 137.463 0.71206 -1.40597 0
M  V30 1424 C 138.373 1.8562 -1.43466 0
M  V30 1425 C 139.389 1.70902 -0.326902 0
M  V30 1426 O 140.565 1.93105 -0.572043 0
M  V30 1427 C 137.63 3.21451 -1.29884 0
M  V30 1428 C 136.691 3.48398 -2.50833 0
M  V30 1429 C 135.924 4.77749 -2.3789 0
M  V30 1430 O 136.147 5.53089 -1.39459 0
M  V30 1431 O 135.081 5.05111 -3.27333 0
M  V30 1432 H 138.907 1.86155 -2.39958 0
M  V30 1433 H 136.492 0.86295 -1.21957 0
M  V30 1434 H 138.374 4.02579 -1.24531 0
M  V30 1435 H 137.049 3.21636 -0.364997 0
M  V30 1436 H 135.956 2.67265 -2.61763 0
M  V30 1437 H 137.289 3.53014 -3.4299 0
M  V30 1438 N 138.941 1.26152 0.944643 0
M  V30 1439 C 139.851 1.09176 2.07648 0
M  V30 1440 C 140.867 0.0261935 1.7398 0
M  V30 1441 O 142.043 0.229208 2.00091 0
M  V30 1442 C 139.108 0.722915 3.39079 0
M  V30 1443 C 138.169 1.86752 3.86552 0
M  V30 1444 C 137.402 1.51617 5.11711 0
M  V30 1445 O 137.625 0.416331 5.68879 0
M  V30 1446 O 136.559 2.34975 5.54139 0
M  V30 1447 H 140.385 2.0412 2.24875 0
M  V30 1448 H 137.97 1.05182 1.061 0
M  V30 1449 H 139.852 0.529787 4.18056 0
M  V30 1450 H 138.527 -0.197159 3.23099 0
M  V30 1451 H 137.434 2.11558 3.08535 0
M  V30 1452 H 138.767 2.76719 4.07047 0
M  V30 1453 N 140.419 -1.14872 1.07899 0
M  V30 1454 C 141.329 -2.2341 0.715915 0
M  V30 1455 C 142.345 -1.71808 -0.275306 0
M  V30 1456 O 143.521 -2.01039 -0.120545 0
M  V30 1457 C 140.586 -3.46474 0.125168 0
M  V30 1458 C 139.647 -4.13039 1.17034 0
M  V30 1459 C 138.88 -5.30229 0.607688 0
M  V30 1460 O 139.103 -5.675 -0.574497 0
M  V30 1461 O 138.037 -5.86444 1.35526 0
M  V30 1462 H 141.863 -2.56808 1.62121 0
M  V30 1463 H 139.448 -1.22702 0.852322 0
M  V30 1464 H 141.33 -4.20917 -0.201729 0
M  V30 1465 H 140.005 -3.14811 -0.753364 0
M  V30 1466 H 138.912 -3.40493 1.54968 0
M  V30 1467 H 140.245 -4.48796 2.02097 0
M  V30 1468 N 141.898 -0.863906 -1.31812 0
M  V30 1469 C 143.144 -0.472535 -1.97218 0
M  V30 1470 C 143.477 0.971394 -1.68159 0
M  V30 1471 O 142.752 1.68309 -0.974798 0
M  V30 1472 C 143.035 -0.723054 -3.52766 0
M  V30 1473 C 142.888 -2.21608 -3.91421 0
M  V30 1474 C 144.207 -0.185522 -4.39709 0
M  V30 1475 H 141.326 -0.173158 -0.71637 0
M  V30 1476 H 143.968 -1.08403 -1.56041 0
M  V30 1477 H 142.118 -0.202577 -3.87971 0
M  V30 1478 H 143.79 -2.80334 -3.66347 0
M  V30 1479 H 142.033 -2.691 -3.40246 0
M  V30 1480 H 142.704 -2.34203 -4.99853 0
M  V30 1481 H 145.18 -0.630726 -4.11292 0
M  V30 1482 H 144.056 -0.390306 -5.47511 0
M  V30 1483 H 144.317 0.912229 -4.32586 0
M  V30 1484 N 143.376 1.44774 -0.622745 0
M  V30 1485 C 144.308 2.28856 0.125485 0
M  V30 1486 C 145.321 1.40811 0.817069 0
M  V30 1487 O 146.51 1.65044 0.679918 0
M  V30 1488 C 143.61 3.16963 1.19949 0
M  V30 1489 C 142.783 4.33374 0.592064 0
M  V30 1490 C 141.842 5.02577 1.55893 0
M  V30 1491 O 140.868 5.58873 1.07933 0
M  V30 1492 N 142.07 5.03256 2.89334 0
M  V30 1493 H 144.835 2.93713 -0.596068 0
M  V30 1494 H 142.396 1.55129 -0.463303 0
M  V30 1495 H 144.388 3.60123 1.84644 0
M  V30 1496 H 142.958 2.53913 1.82337 0
M  V30 1497 H 142.178 3.93509 -0.233322 0
M  V30 1498 H 143.466 5.08527 0.166738 0
M  V30 1499 H 142.864 4.58836 3.30887 0
M  V30 1500 H 141.421 5.50232 3.49412 0
M  V30 1501 N 144.854 0.36279 1.53368 0
M  V30 1502 C 146.102 -0.227326 2.00817 0
M  V30 1503 C 146.423 -1.49511 1.25186 0
M  V30 1504 O 145.693 -1.92482 0.364348 0
M  V30 1505 H 144.273 -0.0869923 0.741917 0
M  V30 1506 H 146.935 0.488381 1.88682 0
M  V30 1507 H 146.031 -0.456273 3.08747 0
M  V30 1508 N 146.332 -1.57332 0.0918853 0
M  V30 1509 C 147.743 -1.81496 -0.437739 0
M  V30 1510 C 148.094 -1.00727 -1.6837 0
M  V30 1511 O 147.219 -0.235694 -2.15113 0
M  V30 1512 C 147.814 -3.29197 -0.800939 0
M  V30 1513 C 146.373 -3.54136 -1.27532 0
M  V30 1514 C 145.52 -2.75979 -0.270392 0
M  V30 1515 H 148.471 -1.55494 0.317366 0
M  V30 1516 H 148.492 -3.42344 -1.66074 0
M  V30 1517 H 148.004 -3.87955 0.106078 0
M  V30 1518 H 146.105 -3.00705 -2.20016 0
M  V30 1519 H 146.218 -4.62792 -1.23938 0
M  V30 1520 H 144.582 -2.43349 -0.751872 0
M  V30 1521 H 145.365 -3.37484 0.629248 0
M  V30 1522 N 147.81 0.181792 -1.56548 0
M  V30 1523 C 149.221 0.745244 -1.71181 0
M  V30 1524 C 149.572 1.83262 -0.70068 0
M  V30 1525 O 148.697 2.15946 0.140154 0
M  V30 1526 C 149.292 1.35859 -3.10367 0
M  V30 1527 C 147.851 1.86898 -3.2672 0
M  V30 1528 C 146.998 0.743942 -2.67134 0
M  V30 1529 H 149.949 -0.0434661 -1.5864 0
M  V30 1530 H 149.97 2.22817 -3.08436 0
M  V30 1531 H 149.482 0.566948 -3.83937 0
M  V30 1532 H 147.583 2.68738 -2.5809 0
M  V30 1533 H 147.696 2.02162 -4.34359 0
M  V30 1534 H 146.06 1.16169 -2.26665 0
M  V30 1535 H 146.843 -0.035676 -3.43281 0
M  V30 1536 N 149.288 1.51039 0.449983 0
M  V30 1537 C 150.251 1.70863 1.5277 0
M  V30 1538 C 151.251 0.578846 1.5002 0
M  V30 1539 O 152.441 0.846213 1.52266 0
M  V30 1540 C 149.573 1.75341 2.9235 0
M  V30 1541 H 150.766 2.67034 1.36502 0
M  V30 1542 H 148.319 1.40838 0.677812 0
M  V30 1543 H 149.054 0.809383 3.14037 0
M  V30 1544 H 148.839 2.57436 2.95752 0
M  V30 1545 H 150.329 1.92559 3.70555 0
M  V30 1546 N 150.766 -0.704594 1.40972 0
M  V30 1547 C 151.713 -1.81862 1.42109 0
M  V30 1548 C 152.683 -1.63781 0.276593 0
M  V30 1549 O 153.868 -1.84759 0.4763 0
M  V30 1550 C 151.008 -3.19669 1.30022 0
M  V30 1551 C 150.121 -3.49246 2.54267 0
M  V30 1552 C 149.256 -4.76618 2.3454 0
M  V30 1553 C 148.295 -4.99133 3.54306 0
M  V30 1554 N 147.432 -6.17726 3.33706 0
M  V30 1555 H 152.272 -1.80226 2.37324 0
M  V30 1556 H 149.809 -0.880238 1.17857 0
M  V30 1557 H 151.767 -3.99263 1.21018 0
M  V30 1558 H 150.397 -3.20506 0.384192 0
M  V30 1559 H 149.449 -2.64125 2.73756 0
M  V30 1560 H 150.761 -3.61788 3.43381 0
M  V30 1561 H 149.915 -5.64249 2.22952 0
M  V30 1562 H 148.654 -4.66305 1.42867 0
M  V30 1563 H 147.659 -4.09953 3.66359 0
M  V30 1564 H 148.884 -5.11311 4.4692 0
M  V30 1565 H 146.83 -6.08642 2.44725 0
M  V30 1566 H 146.747 -6.30995 4.16391 0
M  V30 1567 H 148.015 -7.08115 3.25873 0
M  V30 1568 N 152.244 -1.26651 -0.937939 0
M  V30 1569 C 153.191 -1.0849 -2.03712 0
M  V30 1570 C 154.161 0.011033 -1.66096 0
M  V30 1571 O 155.346 -0.149353 -1.90215 0
M  V30 1572 C 152.486 -0.72735 -3.37348 0
M  V30 1573 C 151.599 -1.89986 -3.87981 0
M  V30 1574 C 150.734 -1.48513 -5.10017 0
M  V30 1575 C 149.773 -2.62575 -5.5292 0
M  V30 1576 N 148.91 -2.21762 -6.66158 0
M  V30 1577 H 153.75 -2.02551 -2.18579 0
M  V30 1578 H 151.287 -1.00844 -1.07093 0
M  V30 1579 H 153.245 -0.50092 -4.14182 0
M  V30 1580 H 151.875 0.176298 -3.22318 0
M  V30 1581 H 150.927 -2.23913 -3.07518 0
M  V30 1582 H 152.239 -2.75586 -4.15757 0
M  V30 1583 H 151.393 -1.21934 -5.94321 0
M  V30 1584 H 150.132 -0.60009 -4.83994 0
M  V30 1585 H 149.137 -2.8988 -4.67172 0
M  V30 1586 H 150.362 -3.51685 -5.80943 0
M  V30 1587 H 148.308 -1.35696 -6.41812 0
M  V30 1588 H 148.225 -3.00903 -6.93537 0
M  V30 1589 H 149.493 -1.98403 -7.53828 0
M  V30 1590 N 153.722 1.14298 -1.08507 0
M  V30 1591 C 154.685 2.17607 -0.719711 0
M  V30 1592 C 155.685 1.58907 0.245997 0
M  V30 1593 O 156.875 1.74181 0.0254081 0
M  V30 1594 C 154.007 3.40842 -0.0627695 0
M  V30 1595 H 155.2 2.51443 -1.63452 0
M  V30 1596 H 152.753 1.28963 -0.88307 0
M  V30 1597 H 153.488 3.12587 0.863716 0
M  V30 1598 H 153.273 3.84713 -0.757504 0
M  V30 1599 H 154.763 4.17221 0.177786 0
M  V30 1600 N 155.201 0.870884 1.31352 0
M  V30 1601 C 156.164 0.332243 2.26779 0
M  V30 1602 C 157.164 -0.517302 1.52252 0
M  V30 1603 O 158.354 -0.326477 1.71113 0
M  V30 1604 C 155.486 -0.528066 3.36785 0
M  V30 1605 H 156.679 1.17469 2.75937 0
M  V30 1606 H 154.232 0.64655 1.423 0
M  V30 1607 H 154.967 -1.39167 2.92922 0
M  V30 1608 H 154.752 0.0802582 3.92018 0
M  V30 1609 H 156.242 -0.897179 4.07849 0
M  V30 1610 N 156.679 -1.44442 0.630414 0
M  V30 1611 C 157.925 -2.02351 0.134816 0
M  V30 1612 C 158.258 -1.4947 -1.23986 0
M  V30 1613 O 157.533 -0.678475 -1.82283 0
M  V30 1614 C 157.816 -3.59898 0.120707 0
M  V30 1615 C 157.669 -4.23063 1.52767 0
M  V30 1616 C 158.988 -4.36585 -0.555127 0
M  V30 1617 H 156.107 -0.73527 0.0504646 0
M  V30 1618 H 158.749 -1.72022 0.806751 0
M  V30 1619 H 156.899 -3.85868 -0.451477 0
M  V30 1620 H 158.571 -4.08202 2.14869 0
M  V30 1621 H 156.814 -3.80586 2.08175 0
M  V30 1622 H 157.485 -5.32071 1.46984 0
M  V30 1623 H 159.961 -4.16044 -0.0685429 0
M  V30 1624 H 158.837 -5.46294 -0.534185 0
M  V30 1625 H 159.098 -4.11138 -1.62535 0
M  V30 1626 N 158.157 -0.370918 -1.53173 0
M  V30 1627 C 159.568 0.107139 -1.86392 0
M  V30 1628 C 159.919 1.47714 -1.29132 0
M  V30 1629 O 159.044 2.07464 -0.615439 0
M  V30 1630 C 159.639 0.201187 -3.38202 0
M  V30 1631 C 158.198 0.623507 -3.712 0
M  V30 1632 C 157.345 -0.225978 -2.76378 0
M  V30 1633 H 160.296 -0.58951 -1.47345 0
M  V30 1634 H 160.317 1.02377 -3.66468 0
M  V30 1635 H 159.829 -0.796058 -3.79848 0
M  V30 1636 H 157.93 1.62879 -3.35114 0
M  V30 1637 H 158.043 0.394414 -4.77474 0
M  V30 1638 H 156.407 0.305962 -2.52856 0
M  V30 1639 H 157.19 -1.22086 -3.20858 0
M  V30 1640 N 159.635 1.57281 -0.100228 0
M  V30 1641 C 160.598 2.13158 0.842398 0
M  V30 1642 C 161.598 1.06202 1.20738 0
M  V30 1643 O 162.788 1.32066 1.13597 0
M  V30 1644 C 159.92 2.65639 2.13655 0
M  V30 1645 H 161.113 2.97766 0.357114 0
M  V30 1646 H 158.666 1.5559 0.148823 0
M  V30 1647 H 159.401 1.84566 2.66657 0
M  V30 1648 H 159.186 3.43844 1.88451 0
M  V30 1649 H 160.676 3.08846 2.81077 0
M  V30 1650 N 161.113 -0.173488 1.56642 0
M  V30 1651 C 162.06 -1.21482 1.96242 0
M  V30 1652 C 163.03 -1.44104 0.826027 0
M  V30 1653 O 164.215 -1.5688 1.08597 0
M  V30 1654 C 161.355 -2.54964 2.32567 0
M  V30 1655 C 160.468 -2.39739 3.59373 0
M  V30 1656 C 159.603 -3.66072 3.84921 0
M  V30 1657 C 158.642 -3.45771 5.05083 0
M  V30 1658 N 157.779 -4.64169 5.26775 0
M  V30 1659 H 162.619 -0.870123 2.85014 0
M  V30 1660 H 160.156 -0.418245 1.41029 0
M  V30 1661 H 162.114 -3.32758 2.5165 0
M  V30 1662 H 160.744 -2.87433 1.46908 0
M  V30 1663 H 159.796 -1.53131 3.48217 0
M  V30 1664 H 161.108 -2.20683 4.47326 0
M  V30 1665 H 160.262 -4.52303 4.0436 0
M  V30 1666 H 159.001 -3.88105 2.9534 0
M  V30 1667 H 158.006 -2.57927 4.85545 0
M  V30 1668 H 159.231 -3.25163 5.96193 0
M  V30 1669 H 157.177 -4.86425 4.40144 0
M  V30 1670 H 157.094 -4.48019 6.08946 0
M  V30 1671 H 158.362 -5.51689 5.5069 0
M  V30 1672 N 162.591 -1.51276 -0.441967 0
M  V30 1673 C 164.007 -1.39349 -0.778083 0
M  V30 1674 C 164.207 -0.472212 -1.95889 0
M  V30 1675 O 163.263 0.0743551 -2.5239 0
M  V30 1676 C 164.576 -2.81292 -1.0628 0
M  V30 1677 C 166.124 -2.9041 -1.16751 0
M  V30 1678 C 166.599 -4.33251 -1.48519 0
M  V30 1679 N 168.09 -4.36336 -1.55453 0
M  V30 1680 C 168.825 -5.43885 -1.81596 0
M  V30 1681 N 168.321 -6.61601 -2.05562 0
M  V30 1682 N 170.114 -5.3136 -1.8334 0
M  V30 1683 H 162.265 -2.09729 0.335774 0
M  V30 1684 H 164.528 -0.943925 0.0878028 0
M  V30 1685 H 164.234 -3.50678 -0.267905 0
M  V30 1686 H 164.108 -3.20334 -1.99163 0
M  V30 1687 H 166.495 -2.21225 -1.95304 0
M  V30 1688 H 166.576 -2.54871 -0.217801 0
M  V30 1689 H 166.22 -5.02984 -0.704958 0
M  V30 1690 H 166.15 -4.66299 -2.44689 0
M  V30 1691 H 168.641 -3.51466 -1.38853 0
M  V30 1692 H 168.954 -7.39361 -2.24867 0
M  V30 1693 H 167.299 -6.64725 -2.02894 0
M  V30 1694 H 170.49 -4.38382 -1.64132 0
M  V30 1695 H 170.663 -6.15258 -2.03377 0
M  V30 1696 N 164.069 0.697108 -1.41344 0
M  V30 1697 C 165.315 1.4593 -1.40827 0
M  V30 1698 C 165.648 1.94193 -0.0167098 0
M  V30 1699 O 164.923 1.69425 0.955263 0
M  V30 1700 C 165.206 2.67229 -2.41373 0
M  V30 1701 C 165.059 2.24741 -3.8963 0
M  V30 1702 C 166.378 3.69423 -2.39196 0
M  V30 1703 H 163.497 0.529303 -0.512842 0
M  V30 1704 H 166.139 0.794112 -1.72609 0
M  V30 1705 H 164.289 3.23982 -2.14401 0
M  V30 1706 H 165.961 1.73327 -4.27499 0
M  V30 1707 H 164.204 1.56542 -4.0457 0
M  V30 1708 H 164.875 3.1177 -4.55525 0
M  V30 1709 H 167.351 3.2234 -2.63128 0
M  V30 1710 H 166.227 4.51907 -3.11563 0
M  V30 1711 H 166.488 4.19012 -1.41001 0
M  V30 1712 N 165.547 1.27147 0.931209 0
M  V30 1713 C 166.795 1.13055 1.6752 0
M  V30 1714 C 167.116 -0.324791 1.92276 0
M  V30 1715 O 166.386 -1.22775 1.52654 0
M  V30 1716 H 164.966 0.415391 0.620854 0
M  V30 1717 H 167.628 1.59623 1.11833 0
M  V30 1718 H 166.724 1.65694 2.64485 0
M  V30 1719 N 167.025 -1.13721 1.09112 0
M  V30 1720 C 167.955 -2.21148 0.749385 0
M  V30 1721 C 168.936 -1.6792 -0.271475 0
M  V30 1722 O 170.121 -1.93693 -0.140251 0
M  V30 1723 C 167.251 -3.46905 0.165659 0
M  V30 1724 C 166.205 -4.13203 1.11567 0
M  V30 1725 C 165.531 -5.33248 0.393809 0
M  V30 1726 C 166.831 -4.60912 2.45678 0
M  V30 1727 H 168.525 -2.4999 1.64758 0
M  V30 1728 H 166.071 -1.20156 0.793626 0
M  V30 1729 H 168.024 -4.21313 -0.085466 0
M  V30 1730 H 166.748 -3.17449 -0.767714 0
M  V30 1731 H 165.407 -3.40758 1.35202 0
M  V30 1732 H 165.055 -5.00054 -0.543599 0
M  V30 1733 H 164.755 -5.78552 1.02721 0
M  V30 1734 H 166.279 -6.10413 0.150908 0
M  V30 1735 H 167.693 -5.26759 2.26269 0
M  V30 1736 H 166.09 -5.16944 3.04776 0
M  V30 1737 H 167.16 -3.75603 3.06677 0
M  V30 1738 N 168.503 -0.877838 -1.30888 0
M  V30 1739 C 169.914 -0.544193 -1.78593 0
M  V30 1740 C 170.265 0.939301 -1.72254 0
M  V30 1741 O 169.39 1.7337 -1.29505 0
M  V30 1742 C 169.985 -0.98105 -3.24285 0
M  V30 1743 C 168.544 -0.698935 -3.69854 0
M  V30 1744 C 167.691 -1.168 -2.51502 0
M  V30 1745 H 170.642 -1.06278 -1.17859 0
M  V30 1746 H 170.663 -0.307009 -3.79259 0
M  V30 1747 H 170.175 -2.06079 -3.28866 0
M  V30 1748 H 168.276 0.369112 -3.70767 0
M  V30 1749 H 168.389 -1.28148 -4.61644 0
M  V30 1750 H 166.753 -0.587535 -2.47831 0
M  V30 1751 H 167.536 -2.25533 -2.58824 0
M  V30 1752 N 169.982 1.44106 -0.638065 0
M  V30 1753 C 171.393 1.85316 -0.226894 0
M  V30 1754 C 171.744 1.53399 1.22324 0
M  V30 1755 O 170.869 0.975463 1.93167 0
M  V30 1756 C 171.464 3.3637 -0.405013 0
M  V30 1757 C 170.023 3.76369 -0.0482902 0
M  V30 1758 C 169.17 2.67921 -0.715108 0
M  V30 1759 H 172.121 1.34474 -0.842764 0
M  V30 1760 H 172.142 3.7885 0.354 0
M  V30 1761 H 171.654 3.59569 -1.46053 0
M  V30 1762 H 169.755 3.58784 1.00522 0
M  V30 1763 H 169.868 4.76856 -0.463187 0
M  V30 1764 H 168.232 2.54259 -0.149753 0
M  V30 1765 H 169.015 2.93951 -1.77335 0
M  V30 1766 N 171.46 0.379036 1.52974 0
M  V30 1767 C 172.708 -0.206014 2.01047 0
M  V30 1768 C 173.029 -1.48175 1.26765 0
M  V30 1769 O 172.299 -1.92085 0.384743 0
M  V30 1770 H 170.879 -0.0791184 0.742798 0
M  V30 1771 H 173.541 0.508366 1.88153 0
M  V30 1772 H 172.637 -0.423501 3.09213 0
M  V30 1773 N 172.938 -1.57226 0.108567 0
M  V30 1774 C 173.885 -2.14756 -0.845481 0
M  V30 1775 C 174.855 -1.06971 -1.27068 0
M  V30 1776 O 176.04 -1.34827 -1.35005 0
M  V30 1777 C 173.18 -2.74298 -2.09415 0
M  V30 1778 C 172.293 -3.96358 -1.71826 0
M  V30 1779 C 171.428 -4.44021 -2.9158 0
M  V30 1780 C 170.467 -5.58637 -2.50181 0
M  V30 1781 N 169.604 -6.01091 -3.62814 0
M  V30 1782 H 174.444 -2.95961 -0.348035 0
M  V30 1783 H 171.981 -1.46226 -0.160106 0
M  V30 1784 H 173.939 -3.06945 -2.82561 0
M  V30 1785 H 172.569 -1.95801 -2.56636 0
M  V30 1786 H 171.621 -3.69939 -0.885947 0
M  V30 1787 H 172.933 -4.79504 -1.37394 0
M  V30 1788 H 172.087 -4.78522 -3.72963 0
M  V30 1789 H 170.826 -3.59803 -3.29231 0
M  V30 1790 H 169.831 -5.23751 -1.67228 0
M  V30 1791 H 171.056 -6.44613 -2.13659 0
M  V30 1792 H 169.002 -5.19817 -4.00158 0
M  V30 1793 H 168.919 -6.79066 -3.32273 0
M  V30 1794 H 170.187 -6.40227 -4.44668 0
M  V30 1795 N 174.416 0.165178 -1.56732 0
M  V30 1796 C 175.379 1.18822 -1.95995 0
M  V30 1797 C 176.379 1.3685 -0.84431 0
M  V30 1798 O 177.569 1.34152 -1.11126 0
M  V30 1799 C 174.701 2.5521 -2.26011 0
M  V30 1800 H 175.894 0.851825 -2.87548 0
M  V30 1801 H 173.447 0.407857 -1.50885 0
M  V30 1802 H 174.182 2.93852 -1.37191 0
M  V30 1803 H 173.967 2.43489 -3.07336 0
M  V30 1804 H 175.457 3.28927 -2.57288 0
M  V30 1805 N 175.894 1.51508 0.433938 0
M  V30 1806 C 176.857 1.72473 1.50949 0
M  V30 1807 C 177.857 0.594725 1.49398 0
M  V30 1808 O 179.047 0.862315 1.5136 0
M  V30 1809 C 176.179 1.78431 2.90474 0
M  V30 1810 H 177.372 2.68467 1.33662 0
M  V30 1811 H 174.925 1.41549 0.662836 0
M  V30 1812 H 175.66 0.842645 3.13161 0
M  V30 1813 H 175.445 2.60558 2.93005 0
M  V30 1814 H 176.935 1.96479 3.68491 0
M  V30 1815 N 177.372 -0.689602 1.41712 0
M  V30 1816 C 178.335 -1.78521 1.43746 0
M  V30 1817 C 179.335 -1.57436 0.327191 0
M  V30 1818 O 180.525 -1.64 0.587348 0
M  V30 1819 C 177.657 -3.16971 1.25467 0
M  V30 1820 H 178.85 -1.78108 2.41283 0
M  V30 1821 H 176.403 -0.89781 1.27942 0
M  V30 1822 H 177.138 -3.23019 0.287948 0
M  V30 1823 H 176.923 -3.33678 2.05917 0
M  V30 1824 H 178.413 -3.96935 1.2974 0
M  V30 1825 N 178.85 -1.27639 -0.924453 0
M  V30 1826 C 179.797 -1.10644 -2.0255 0
M  V30 1827 C 180.767 -0.00658438 -1.66099 0
M  V30 1828 O 181.952 -0.16952 -1.90045 0
M  V30 1829 C 179.092 -0.76309 -3.36557 0
M  V30 1830 C 178.205 -1.94091 -3.85944 0
M  V30 1831 C 177.34 -1.53914 -5.08413 0
M  V30 1832 C 176.379 -2.68425 -5.50104 0
M  V30 1833 N 175.516 -2.28815 -6.63768 0
M  V30 1834 H 180.356 -2.04858 -2.16419 0
M  V30 1835 H 177.893 -1.01974 -1.06017 0
M  V30 1836 H 179.851 -0.544822 -4.13627 0
M  V30 1837 H 178.481 0.142102 -3.22487 0
M  V30 1838 H 177.533 -2.27162 -3.05125 0
M  V30 1839 H 178.845 -2.7998 -4.12811 0
M  V30 1840 H 177.999 -1.28231 -5.92994 0
M  V30 1841 H 176.738 -0.651391 -4.8333 0
M  V30 1842 H 175.743 -2.94819 -4.64071 0
M  V30 1843 H 176.968 -3.57826 -5.7718 0
M  V30 1844 H 174.914 -1.42495 -6.40337 0
M  V30 1845 H 174.831 -3.08242 -6.90306 0
M  V30 1846 H 176.099 -2.06387 -7.51681 0
M  V30 1847 N 180.328 1.1314 -1.09713 0
M  V30 1848 C 181.291 2.16831 -0.742751 0
M  V30 1849 C 182.291 1.59159 0.229129 0
M  V30 1850 O 183.481 1.74199 0.00693237 0
M  V30 1851 C 180.613 3.40756 -0.0989168 0
M  V30 1852 H 181.806 2.49695 -1.66109 0
M  V30 1853 H 179.359 1.2802 -0.896699 0
M  V30 1854 H 180.094 3.13485 0.830514 0
M  V30 1855 H 179.879 3.83888 -0.798265 0
M  V30 1856 H 181.369 4.17386 0.133524 0
M  V30 1857 N 181.806 0.884767 1.30421 0
M  V30 1858 C 183.031 0.517288 2.00845 0
M  V30 1859 C 183.456 -0.886779 1.65885 0
M  V30 1860 O 182.814 -1.58768 0.875354 0
M  V30 1861 C 182.862 0.698994 3.5376 0
M  V30 1862 O 181.966 -0.255208 4.1161 0
M  V30 1863 H 181.307 0.203872 0.631927 0
M  V30 1864 H 183.837 1.19225 1.66272 0
M  V30 1865 H 183.847 0.597912 4.03595 0
M  V30 1866 H 182.522 1.72271 3.78544 0
M  V30 1867 H 181.099 -0.10784 3.72744 0
M  V30 1868 N 183.284 -1.43765 0.645699 0
M  V30 1869 C 184.194 -2.34544 -0.0512957 0
M  V30 1870 C 185.21 -1.53455 -0.82022 0
M  V30 1871 O 186.386 -1.86133 -0.769176 0
M  V30 1872 C 183.451 -3.31636 -1.01087 0
M  V30 1873 C 182.512 -4.2863 -0.239712 0
M  V30 1874 C 181.745 -5.21084 -1.15358 0
M  V30 1875 O 181.968 -5.1779 -2.39269 0
M  V30 1876 O 180.902 -5.98593 -0.630038 0
M  V30 1877 H 184.728 -2.95624 0.695718 0
M  V30 1878 H 182.313 -1.43781 0.405882 0
M  V30 1879 H 184.195 -3.9136 -1.56254 0
M  V30 1880 H 182.87 -2.73069 -1.73824 0
M  V30 1881 H 181.777 -3.72408 0.355356 0
M  V30 1882 H 183.11 -4.90157 0.447936 0
M  V30 1883 N 184.763 -0.387143 -1.52771 0
M  V30 1884 C 185.988 0.198407 -2.06449 0
M  V30 1885 C 186.413 1.39918 -1.25716 0
M  V30 1886 O 185.771 1.79099 -0.281657 0
M  V30 1887 C 185.819 0.548893 -3.56398 0
M  V30 1888 O 184.923 1.64315 -3.78252 0
M  V30 1889 H 184.264 0.0237731 -0.663574 0
M  V30 1890 H 186.794 -0.553989 -1.96957 0
M  V30 1891 H 186.804 0.813812 -3.99801 0
M  V30 1892 H 185.479 -0.329005 -4.14597 0
M  V30 1893 H 184.056 1.37211 -3.46738 0
M  V30 1894 N 186.241 1.57166 -0.116904 0
M  V30 1895 C 187.466 1.999 0.55271 0
M  V30 1896 C 187.891 0.996039 1.59564 0
M  V30 1897 O 187.249 -0.032556 1.81271 0
M  V30 1898 C 187.297 3.4152 1.15742 0
M  V30 1899 O 186.401 3.44106 2.27299 0
M  V30 1900 H 185.742 0.649447 0.138258 0
M  V30 1901 H 188.272 2.03573 -0.204759 0
M  V30 1902 H 188.282 3.79684 1.49346 0
M  V30 1903 H 186.957 4.14034 0.393493 0
M  V30 1904 H 185.534 3.17759 1.9515 0
M  V30 1905 N 187.719 -0.156864 1.56817 0
M  V30 1906 C 188.944 -0.890331 1.87318 0
M  V30 1907 C 189.369 -1.74394 0.704855 0
M  V30 1908 O 188.727 -1.77972 -0.345786 0
M  V30 1909 C 188.775 -1.73102 3.16336 0
M  V30 1910 O 187.879 -2.83422 2.99576 0
M  V30 1911 H 187.22 -0.24857 0.615718 0
M  V30 1912 H 189.75 -0.150649 2.04045 0
M  V30 1913 H 189.76 -2.12803 3.48107 0
M  V30 1914 H 188.435 -1.10412 4.00976 0
M  V30 1915 H 187.012 -2.47199 2.7919 0
M  V30 1916 N 189.197 -1.51736 -0.425897 0
M  V30 1917 C 190.422 -1.69082 -1.20108 0
M  V30 1918 C 190.847 -0.392398 -1.83962 0
M  V30 1919 O 190.205 0.64858 -1.69302 0
M  V30 1920 C 190.253 -2.81604 -2.25237 0
M  V30 1921 O 189.357 -2.46004 -3.30992 0
M  V30 1922 H 188.698 -0.563408 -0.35138 0
M  V30 1923 H 191.228 -1.98358 -0.501512 0
M  V30 1924 H 191.238 -3.06025 -2.69838 0
M  V30 1925 H 189.913 -3.75817 -1.78142 0
M  V30 1926 H 188.49 -2.32195 -2.91787 0
M  V30 1927 N 190.675 0.682077 -1.42076 0
M  V30 1928 C 191.585 1.82535 -1.47371 0
M  V30 1929 C 192.601 1.7017 -0.363079 0
M  V30 1930 O 193.777 1.91848 -0.612875 0
M  V30 1931 C 190.842 3.18624 -1.36674 0
M  V30 1932 C 189.903 3.42999 -2.58167 0
M  V30 1933 C 189.136 4.72595 -2.4797 0
M  V30 1934 O 189.359 5.50006 -1.5116 0
M  V30 1935 O 188.293 4.98054 -3.37974 0
M  V30 1936 H 192.119 1.81023 -2.43853 0
M  V30 1937 H 189.704 0.836887 -1.2376 0
M  V30 1938 H 191.586 3.99847 -1.33043 0
M  V30 1939 H 190.261 3.20789 -0.433138 0
M  V30 1940 H 189.168 2.61653 -2.67373 0
M  V30 1941 H 190.501 3.45659 -3.50401 0
M  V30 1942 N 192.153 1.28127 0.917671 0
M  V30 1943 C 193.063 1.13556 2.05286 0
M  V30 1944 C 194.079 0.0630914 1.73886 0
M  V30 1945 O 195.255 0.271598 1.9956 0
M  V30 1946 C 192.32 0.794676 3.3747 0
M  V30 1947 C 191.381 1.94909 3.82504 0
M  V30 1948 C 190.614 1.62437 5.0838 0
M  V30 1949 O 190.837 0.536905 5.67867 0
M  V30 1950 O 189.771 2.46677 5.4903 0
M  V30 1951 H 193.597 2.08844 2.20495 0
M  V30 1952 H 191.182 1.07409 1.03845 0
M  V30 1953 H 193.064 0.618344 4.16839 0
M  V30 1954 H 191.739 -0.128581 3.23445 0
M  V30 1955 H 190.646 2.18055 3.03978 0
M  V30 1956 H 191.979 2.85291 4.01086 0
M  V30 1957 N 193.631 -1.12557 1.10312 0
M  V30 1958 C 194.856 -1.88405 0.867085 0
M  V30 1959 C 195.281 -1.79038 -0.576817 0
M  V30 1960 O 194.639 -1.14439 -1.40618 0
M  V30 1961 C 194.687 -3.3563 1.31851 0
M  V30 1962 O 193.791 -4.09565 0.482734 0
M  V30 1963 H 193.132 -0.585455 0.313271 0
M  V30 1964 H 195.662 -1.42352 1.4696 0
M  V30 1965 H 195.672 -3.86469 1.3079 0
M  V30 1966 H 194.347 -3.41765 2.37001 0
M  V30 1967 H 192.924 -3.68695 0.558448 0
M  V30 1968 N 195.109 -0.891671 -1.2995 0
M  V30 1969 C 196.334 -0.527932 -2.00568 0
M  V30 1970 C 196.759 0.877969 -1.66353 0
M  V30 1971 O 196.117 1.58301 -0.883762 0
M  V30 1972 C 196.165 -0.717745 -3.53385 0
M  V30 1973 O 195.269 0.233376 -4.11739 0
M  V30 1974 H 194.61 -0.20722 -0.630837 0
M  V30 1975 H 197.14 -1.20105 -1.65638 0
M  V30 1976 H 197.15 -0.619307 -4.03272 0
M  V30 1977 H 195.825 -1.74276 -3.77625 0
M  V30 1978 H 194.402 0.0880706 -3.72796 0
M  V30 1979 N 196.587 1.43421 -0.653314 0
M  V30 1980 C 197.864 1.95361 -0.0966581 0
M  V30 1981 C 198.244 1.59461 1.38331 0
M  V30 1982 O 197.592 0.879777 2.10884 0
M  V30 1983 C 197.802 3.47311 -0.342988 0
M  V30 1984 C 199.15 4.23875 -0.24798 0
M  V30 1985 O 200.174 3.55133 -0.275553 0
M  V30 1986 O 199.033 5.4623 -0.171771 0
M  V30 1987 H 196.127 0.826945 0.00956291 0
M  V30 1988 H 198.673 1.5336 -0.726558 0
M  V30 1989 H 197.445 3.66569 -1.36906 0
M  V30 1990 H 197.068 3.9631 0.319975 0
M  V30 1991 N 198.065 0.39524 1.52563 0
M  V30 1992 C 199.342 -0.242908 1.94086 0
M  V30 1993 C 199.722 -1.63841 1.33114 0
M  V30 1994 O 199.07 -2.22928 0.501529 0
M  V30 1995 C 199.28 -0.26327 3.48006 0
M  V30 1996 C 200.628 -0.489354 4.21771 0
M  V30 1997 O 201.652 -0.343226 3.54543 0
M  V30 1998 O 200.511 -0.776169 5.4096 0
M  V30 1999 H 197.605 -0.152536 0.812811 0
M  V30 2000 H 200.151 0.450178 1.6362 0
M  V30 2001 H 198.923 0.713985 3.84731 0
M  V30 2002 H 198.546 -1.00103 3.84792 0
M  V30 2003 N 199.544 -1.57102 0.125237 0
M  V30 2004 C 200.821 -1.86953 -0.575142 0
M  V30 2005 C 201.201 -1.02749 -1.84407 0
M  V30 2006 O 200.549 -0.108144 -2.28244 0
M  V30 2007 C 200.759 -3.38198 -0.861583 0
M  V30 2008 C 202.107 -4.06937 -1.21192 0
M  V30 2009 O 203.131 -3.43252 -0.951645 0
M  V30 2010 O 201.99 -5.19364 -1.70068 0
M  V30 2011 H 199.084 -0.774147 -0.290906 0
M  V30 2012 H 201.63 -1.68942 0.160211 0
M  V30 2013 H 200.402 -3.91282 0.0373647 0
M  V30 2014 H 200.025 -3.61661 -1.65188 0
M  V30 2015 N 201.022 0.148545 -1.56898 0
M  V30 2016 C 202.299 0.890019 -1.74178 0
M  V30 2017 C 202.679 1.99407 -0.692839 0
M  V30 2018 O 202.027 2.26671 0.288505 0
M  V30 2019 C 202.237 1.43389 -3.18183 0
M  V30 2020 C 203.585 1.89791 -3.79822 0
M  V30 2021 O 204.609 1.53134 -3.21603 0
M  V30 2022 O 203.468 2.57387 -4.82093 0
M  V30 2023 H 200.562 0.420496 -0.712118 0
M  V30 2024 H 203.108 0.134591 -1.69165 0
M  V30 2025 H 201.88 0.640383 -3.86024 0
M  V30 2026 H 201.503 2.25287 -3.27615 0
M  V30 2027 N 202.5 1.5196 0.417844 0
M  V30 2028 C 203.41 1.77554 1.53336 0
M  V30 2029 C 204.426 0.660655 1.6097 0
M  V30 2030 O 205.602 0.945099 1.77848 0
M  V30 2031 C 202.667 1.91291 2.89152 0
M  V30 2032 C 201.728 3.15183 2.91475 0
M  V30 2033 C 200.961 3.28256 4.20813 0
M  V30 2034 O 201.184 2.46798 5.14244 0
M  V30 2035 O 200.118 4.21356 4.29817 0
M  V30 2036 H 203.944 2.7222 1.34647 0
M  V30 2037 H 201.529 1.36698 0.602828 0
M  V30 2038 H 203.411 2.02199 3.69721 0
M  V30 2039 H 202.086 0.998129 3.07927 0
M  V30 2040 H 200.993 3.09739 2.09791 0
M  V30 2041 H 202.326 4.06414 2.77648 0
M  V30 2042 N 203.978 -0.674533 1.42435 0
M  V30 2043 C 204.888 -1.81751 1.48337 0
M  V30 2044 C 205.904 -1.69975 0.372099 0
M  V30 2045 O 207.08 -1.91521 0.62304 0
M  V30 2046 C 204.145 -3.17895 1.38361 0
M  V30 2047 C 203.206 -3.41625 2.59982 0
M  V30 2048 C 202.439 -4.71274 2.50473 0
M  V30 2049 O 202.662 -5.49197 1.54075 0
M  V30 2050 O 201.596 -4.96254 3.4061 0
M  V30 2051 H 205.422 -1.79728 2.44809 0
M  V30 2052 H 203.007 -0.830312 1.24202 0
M  V30 2053 H 204.889 -3.99136 1.35161 0
M  V30 2054 H 203.564 -3.20555 0.450144 0
M  V30 2055 H 202.471 -2.60231 2.68757 0
M  V30 2056 H 203.804 -3.43796 3.52229 0
M  V30 2057 N 205.456 -1.28612 -0.910864 0
M  V30 2058 C 206.733 -1.06632 -1.63979 0
M  V30 2059 C 207.113 0.393351 -2.07403 0
M  V30 2060 O 206.461 1.37999 -1.82122 0
M  V30 2061 C 206.671 -2.0436 -2.8291 0
M  V30 2062 C 208.019 -2.34666 -3.5386 0
M  V30 2063 O 209.043 -2.02467 -2.93062 0
M  V30 2064 O 207.902 -2.89631 -4.63439 0
M  V30 2065 H 204.996 -0.407737 -0.7195 0
M  V30 2066 H 207.542 -1.39942 -0.959914 0
M  V30 2067 H 206.314 -3.02727 -2.47936 0
M  V30 2068 H 205.937 -1.71714 -3.58609 0
M  V30 2069 N 206.934 1.1197 -1.10907 0
M  V30 2070 C 207.866 2.17592 -0.720175 0
M  V30 2071 C 208.879 1.60938 0.245495 0
M  V30 2072 O 210.068 1.78476 0.0292245 0
M  V30 2073 C 207.168 3.38873 -0.0427917 0
M  V30 2074 C 206.341 4.25006 -1.03388 0
M  V30 2075 C 205.4 5.24774 -0.387075 0
M  V30 2076 O 204.426 5.59631 -1.03934 0
M  V30 2077 N 205.628 5.74208 0.852407 0
M  V30 2078 H 208.393 2.51567 -1.62893 0
M  V30 2079 H 205.954 1.27439 -0.998543 0
M  V30 2080 H 207.946 4.02703 0.401501 0
M  V30 2081 H 206.516 3.03007 0.768456 0
M  V30 2082 H 205.736 3.57716 -1.65629 0
M  V30 2083 H 207.024 4.79397 -1.70458 0
M  V30 2084 H 206.422 5.48062 1.40161 0
M  V30 2085 H 204.979 6.39901 1.23977 0
M  V30 2086 N 208.412 0.89855 1.29475 0
M  V30 2087 C 209.359 0.373819 2.27753 0
M  V30 2088 C 210.329 -0.543444 1.56958 0
M  V30 2089 O 211.514 -0.468934 1.84948 0
M  V30 2090 C 208.654 -0.393648 3.42848 0
M  V30 2091 C 207.767 0.554379 4.28428 0
M  V30 2092 C 206.902 -0.230026 5.30702 0
M  V30 2093 C 205.941 0.712599 6.07938 0
M  V30 2094 N 205.078 -0.0373283 7.0209 0
M  V30 2095 H 209.918 1.21699 2.72017 0
M  V30 2096 H 207.455 0.611456 1.33789 0
M  V30 2097 H 209.413 -0.85466 4.08352 0
M  V30 2098 H 208.043 -1.20128 2.99615 0
M  V30 2099 H 207.095 1.13391 3.63107 0
M  V30 2100 H 208.407 1.27597 4.82204 0
M  V30 2101 H 207.561 -0.752288 6.02018 0
M  V30 2102 H 206.3 -0.984758 4.77654 0
M  V30 2103 H 205.305 1.24637 5.35486 0
M  V30 2104 H 206.53 1.46664 6.63074 0
M  V30 2105 H 204.476 -0.774348 6.51414 0
M  V30 2106 H 204.393 0.624374 7.53417 0
M  V30 2107 H 205.661 -0.539891 7.77628 0
M  V30 2108 N 209.89 -1.43072 0.660911 0
M  V30 2109 C 210.837 -2.30785 -0.0259884 0
M  V30 2110 C 211.807 -1.45184 -0.806888 0
M  V30 2111 O 212.992 -1.74041 -0.781943 0
M  V30 2112 C 210.132 -3.30861 -0.981067 0
M  V30 2113 C 209.245 -4.31558 -0.195458 0
M  V30 2114 C 208.38 -5.18712 -1.14503 0
M  V30 2115 C 207.419 -6.11097 -0.350299 0
M  V30 2116 N 206.556 -6.90849 -1.25186 0
M  V30 2117 H 211.396 -2.88975 0.727846 0
M  V30 2118 H 208.933 -1.42353 0.370682 0
M  V30 2119 H 210.891 -3.87399 -1.54849 0
M  V30 2120 H 209.521 -2.74304 -1.70169 0
M  V30 2121 H 208.573 -3.77252 0.488374 0
M  V30 2122 H 209.885 -4.9701 0.422176 0
M  V30 2123 H 209.039 -5.79914 -1.78284 0
M  V30 2124 H 207.778 -4.53404 -1.79656 0
M  V30 2125 H 206.783 -5.48976 0.300808 0
M  V30 2126 H 208.008 -6.7845 0.296941 0
M  V30 2127 H 205.954 -6.28182 -1.89005 0
M  V30 2128 H 205.871 -7.52854 -0.688971 0
M  V30 2129 H 207.139 -7.5655 -1.87757 0
M  V30 2130 N 211.368 -0.403325 -1.52352 0
M  V30 2131 C 212.3 0.4603 -2.2453 0
M  V30 2132 C 213.313 1.01505 -1.27282 0
M  V30 2133 O 214.502 0.914982 -1.53266 0
M  V30 2134 C 211.602 1.65208 -2.95905 0
M  V30 2135 C 210.775 1.22224 -4.19976 0
M  V30 2136 C 209.834 2.28028 -4.74226 0
M  V30 2137 O 208.86 1.88857 -5.36956 0
M  V30 2138 N 210.062 3.6012 -4.55295 0
M  V30 2139 H 212.827 -0.158156 -2.99282 0
M  V30 2140 H 210.388 -0.230402 -1.60252 0
M  V30 2141 H 212.38 2.35541 -3.29093 0
M  V30 2142 H 210.95 2.17658 -2.24374 0
M  V30 2143 H 210.17 0.34725 -3.92668 0
M  V30 2144 H 211.458 0.911924 -5.00561 0
M  V30 2145 H 210.856 3.94698 -4.05253 0
M  V30 2146 H 209.413 4.26447 -4.92936 0
M  V30 2147 N 212.846 1.57033 -0.133567 0
M  V30 2148 C 214.257 1.82593 0.389464 0
M  V30 2149 C 214.608 1.05156 1.6564 0
M  V30 2150 O 213.733 0.292644 2.14412 0
M  V30 2151 C 214.328 3.31204 0.713377 0
M  V30 2152 C 212.887 3.57393 1.18098 0
M  V30 2153 C 212.034 2.76598 0.197126 0
M  V30 2154 H 214.985 1.54598 -0.358481 0
M  V30 2155 H 215.006 3.46627 1.56939 0
M  V30 2156 H 214.518 3.87537 -0.2089 0
M  V30 2157 H 212.619 3.06433 2.11966 0
M  V30 2158 H 212.732 4.65915 1.11624 0
M  V30 2159 H 211.096 2.45257 0.687088 0
M  V30 2160 H 211.879 3.35697 -0.718504 0
M  V30 2161 N 214.325 -0.140222 1.56975 0
M  V30 2162 C 215.571 -0.852949 1.83991 0
M  V30 2163 C 215.904 -1.80512 0.716187 0
M  V30 2164 O 215.179 -1.92479 -0.279681 0
M  V30 2165 C 215.462 -1.6215 3.21527 0
M  V30 2166 C 215.315 -0.690363 4.4447 0
M  V30 2167 C 216.634 -2.58247 3.56366 0
M  V30 2168 H 213.753 -0.308634 0.669264 0
M  V30 2169 H 216.395 -0.117898 1.89634 0
M  V30 2170 H 214.545 -2.24812 3.16847 0
M  V30 2171 H 216.217 -0.0742264 4.6124 0
M  V30 2172 H 214.46 -0.000396433 4.338 0
M  V30 2173 H 215.131 -1.2643 5.37326 0
M  V30 2174 H 217.607 -2.05701 3.61699 0
M  V30 2175 H 216.483 -3.09067 4.53617 0
M  V30 2176 H 216.744 -3.39923 2.82674 0
M  V30 2177 N 215.803 -1.52179 -0.40978 0
M  V30 2178 C 216.735 -1.71703 -1.51825 0
M  V30 2179 C 217.748 -0.597445 -1.51441 0
M  V30 2180 O 218.937 -0.872582 -1.55719 0
M  V30 2181 C 216.037 -1.74171 -2.90719 0
M  V30 2182 C 215.21 -3.03156 -3.15302 0
M  V30 2183 C 214.269 -2.97445 -4.34065 0
M  V30 2184 O 213.295 -3.71352 -4.31377 0
M  V30 2185 N 214.497 -2.15191 -5.39141 0
M  V30 2186 H 217.262 -2.67334 -1.35472 0
M  V30 2187 H 214.823 -1.50409 -0.599069 0
M  V30 2188 H 216.815 -1.67884 -3.68235 0
M  V30 2189 H 215.385 -0.860166 -3.00533 0
M  V30 2190 H 214.605 -3.23097 -2.25836 0
M  V30 2191 H 215.893 -3.88484 -3.28569 0
M  V30 2192 H 215.291 -1.54573 -5.44173 0
M  V30 2193 H 213.848 -2.1476 -6.15403 0
M  V30 2194 N 217.281 0.66697 -1.42791 0
M  V30 2195 C 218.228 1.7803 -1.4688 0
M  V30 2196 C 219.198 1.6299 -0.319919 0
M  V30 2197 O 220.383 1.83432 -0.525118 0
M  V30 2198 C 217.523 3.1611 -1.38451 0
M  V30 2199 C 216.636 3.42381 -2.63437 0
M  V30 2200 C 215.771 4.70232 -2.47094 0
M  V30 2201 C 214.81 4.89564 -3.67415 0
M  V30 2202 N 213.947 6.08661 -3.49966 0
M  V30 2203 H 218.787 1.7387 -2.42019 0
M  V30 2204 H 216.324 0.84868 -1.20149 0
M  V30 2205 H 218.282 3.95914 -1.31561 0
M  V30 2206 H 216.912 3.19374 -0.469033 0
M  V30 2207 H 215.964 2.56774 -2.80662 0
M  V30 2208 H 217.276 3.52557 -3.52853 0
M  V30 2209 H 216.43 5.5814 -2.37834 0
M  V30 2210 H 215.169 4.62353 -1.5518 0
M  V30 2211 H 214.174 4.00096 -3.77099 0
M  V30 2212 H 215.399 4.99282 -4.6032 0
M  V30 2213 H 213.345 6.0194 -2.60776 0
M  V30 2214 H 213.262 6.19733 -4.32975 0
M  V30 2215 H 214.53 6.99226 -3.44532 0
M  V30 2216 N 218.759 1.29093 0.90403 0
M  V30 2217 C 220.007 1.16583 1.65085 0
M  V30 2218 C 220.328 -0.283933 1.92922 0
M  V30 2219 O 219.598 -1.19509 1.55224 0
M  V30 2220 H 218.178 0.428467 0.611903 0
M  V30 2221 H 220.84 1.61959 1.08422 0
M  V30 2222 H 219.936 1.71266 2.6091 0
M  V30 2223 N 220.237 -1.11381 1.11499 0
M  V30 2224 C 221.483 -1.83403 0.865512 0
M  V30 2225 C 221.816 -1.84459 -0.607329 0
M  V30 2226 O 221.091 -1.29811 -1.44842 0
M  V30 2227 C 221.374 -3.30552 1.42855 0
M  V30 2228 C 221.227 -3.37886 2.96906 0
M  V30 2229 C 222.546 -4.26643 1.08 0
M  V30 2230 H 219.665 -0.665879 0.31587 0
M  V30 2231 H 222.307 -1.30601 1.37998 0
M  V30 2232 H 220.457 -3.75648 0.990985 0
M  V30 2233 H 222.129 -3.01343 3.49271 0
M  V30 2234 H 220.372 -2.78088 3.32941 0
M  V30 2235 H 221.043 -4.41458 3.31389 0
M  V30 2236 H 223.519 -3.89729 1.45775 0
M  V30 2237 H 222.395 -5.27986 1.50072 0
M  V30 2238 H 222.656 -4.42099 -0.00915037 0
M  V30 2239 N 221.715 -0.905404 -1.28997 0
M  V30 2240 C 222.662 -0.385892 -2.27551 0
M  V30 2241 C 223.632 0.535113 -1.57244 0
M  V30 2242 O 224.817 0.459119 -1.85194 0
M  V30 2243 C 221.957 0.375461 -3.43051 0
M  V30 2244 C 221.07 -0.577092 -4.28128 0
M  V30 2245 C 220.205 0.201879 -5.30816 0
M  V30 2246 C 219.244 -0.744829 -6.07551 0
M  V30 2247 N 218.381 9.42587e-05 -7.021 0
M  V30 2248 H 223.221 -1.23139 -2.71368 0
M  V30 2249 H 220.758 -0.618542 -1.33463 0
M  V30 2250 H 222.716 0.832992 -4.088 0
M  V30 2251 H 221.346 1.18537 -3.00248 0
M  V30 2252 H 220.398 -1.15315 -3.62501 0
M  V30 2253 H 221.71 -1.30152 -4.8152 0
M  V30 2254 H 220.864 0.720351 -6.02408 0
M  V30 2255 H 219.603 0.959413 -4.7817 0
M  V30 2256 H 218.608 -1.27475 -5.34818 0
M  V30 2257 H 219.833 -1.50178 -6.62286 0
M  V30 2258 H 217.779 0.739791 -6.51815 0
M  V30 2259 H 217.696 -0.664321 -7.53076 0
M  V30 2260 H 218.964 0.498644 -7.77903 0
M  V30 2261 N 223.193 1.4272 -0.668489 0
M  V30 2262 C 224.604 1.84793 -0.266151 0
M  V30 2263 C 224.955 1.55959 1.19043 0
M  V30 2264 O 224.08 1.01622 1.91055 0
M  V30 2265 C 224.675 3.35436 -0.476271 0
M  V30 2266 C 223.234 3.76182 -0.128113 0
M  V30 2267 C 222.381 2.66344 -0.771777 0
M  V30 2268 H 225.332 1.32656 -0.871098 0
M  V30 2269 H 225.353 3.79515 0.273561 0
M  V30 2270 H 224.865 3.5639 -1.53647 0
M  V30 2271 H 222.966 3.60836 0.928891 0
M  V30 2272 H 223.079 4.75766 -0.564231 0
M  V30 2273 H 221.443 2.53885 -0.203652 0
M  V30 2274 H 222.226 2.90123 -1.83531 0
M  V30 2275 N 224.671 0.411399 1.52136 0
M  V30 2276 C 225.603 -0.448386 2.24771 0
M  V30 2277 C 226.616 -1.00828 1.27818 0
M  V30 2278 O 227.805 -0.906841 1.53749 0
M  V30 2279 C 224.905 -1.63636 2.96777 0
M  V30 2280 C 224.078 -1.19995 4.20618 0
M  V30 2281 C 223.137 -2.25509 4.75428 0
M  V30 2282 O 222.163 -1.86007 5.3795 0
M  V30 2283 N 223.365 -3.577 4.57199 0
M  V30 2284 H 226.13 0.174025 2.99194 0
M  V30 2285 H 223.691 0.238897 1.60128 0
M  V30 2286 H 225.683 -2.33793 3.30338 0
M  V30 2287 H 224.253 -2.16465 2.25526 0
M  V30 2288 H 223.473 -0.326421 3.92846 0
M  V30 2289 H 224.761 -0.885365 5.01038 0
M  V30 2290 H 224.159 -3.92543 4.07341 0
M  V30 2291 H 222.716 -4.23827 4.95191 0
M  V30 2292 N 226.149 -1.5696 0.141893 0
M  V30 2293 C 227.112 -2.15316 -0.785587 0
M  V30 2294 C 228.112 -1.09366 -1.1788 0
M  V30 2295 O 229.302 -1.35031 -1.10056 0
M  V30 2296 C 226.434 -2.71211 -2.06537 0
M  V30 2297 H 227.627 -2.98608 -0.278041 0
M  V30 2298 H 225.18 -1.5593 -0.107519 0
M  V30 2299 H 225.915 -1.91571 -2.6167 0
M  V30 2300 H 225.7 -3.4872 -1.79268 0
M  V30 2301 H 227.19 -3.16189 -2.72789 0
M  V30 2302 N 227.627 0.131896 -1.57047 0
M  V30 2303 C 228.574 1.16236 -1.99393 0
M  V30 2304 C 229.544 1.41863 -0.863943 0
M  V30 2305 O 230.729 1.53946 -1.12718 0
M  V30 2306 C 227.869 2.48708 -2.39245 0
M  V30 2307 C 226.982 2.30127 -3.65603 0
M  V30 2308 C 226.117 3.55738 -3.94492 0
M  V30 2309 C 225.156 3.32259 -5.14073 0
M  V30 2310 N 224.293 4.50039 -5.38896 0
M  V30 2311 H 229.133 0.794251 -2.87221 0
M  V30 2312 H 226.67 0.380707 -1.42088 0
M  V30 2313 H 228.628 3.25969 -2.60384 0
M  V30 2314 H 227.258 2.83437 -1.54478 0
M  V30 2315 H 226.31 1.43845 -3.52154 0
M  V30 2316 H 227.622 2.08746 -4.5302 0
M  V30 2317 H 226.776 4.41423 -4.1621 0
M  V30 2318 H 225.515 3.80138 -3.05526 0
M  V30 2319 H 224.52 2.44963 -4.92212 0
M  V30 2320 H 225.745 3.09242 -6.04604 0
M  V30 2321 H 223.691 4.74584 -4.52886 0
M  V30 2322 H 223.608 4.31716 -6.2061 0
M  V30 2323 H 224.876 5.36895 -5.65123 0
M  V30 2324 N 229.106 1.52395 0.401703 0
M  V30 2325 C 230.069 1.75636 1.47257 0
M  V30 2326 C 231.069 0.62628 1.48103 0
M  V30 2327 O 232.259 0.894227 1.49497 0
M  V30 2328 C 229.391 1.84553 2.86624 0
M  V30 2329 H 230.584 2.71241 1.27938 0
M  V30 2330 H 228.137 1.42923 0.632662 0
M  V30 2331 H 228.872 0.908882 3.11303 0
M  V30 2332 H 228.657 2.66715 2.87412 0
M  V30 2333 H 230.147 2.04251 3.64241 0
M  V30 2334 N 230.584 -0.659388 1.43143 0
M  V30 2335 C 231.547 -1.75432 1.47501 0
M  V30 2336 C 232.547 -1.56707 0.360512 0
M  V30 2337 O 233.737 -1.62717 0.622002 0
M  V30 2338 C 230.869 -3.14239 1.32162 0
M  V30 2339 H 232.062 -1.7295 2.45006 0
M  V30 2340 H 229.615 -0.870469 1.29817 0
M  V30 2341 H 230.35 -3.22336 0.356401 0
M  V30 2342 H 230.135 -3.29235 2.12948 0
M  V30 2343 H 231.625 -3.94094 1.3813 0
M  V30 2344 N 232.062 -1.29571 -0.897171 0
M  V30 2345 C 233.009 -1.14916 -2.00158 0
M  V30 2346 C 233.979 -0.0418149 -1.66047 0
M  V30 2347 O 235.164 -0.209793 -1.89643 0
M  V30 2348 C 232.304 -0.834307 -3.34863 0
M  V30 2349 C 231.417 -2.02234 -3.8174 0
M  V30 2350 C 230.552 -1.64664 -5.05034 0
M  V30 2351 C 229.591 -2.80033 -5.44286 0
M  V30 2352 N 228.728 -2.42843 -6.58765 0
M  V30 2353 H 233.568 -2.09403 -2.12025 0
M  V30 2354 H 231.105 -1.042 -1.0383 0
M  V30 2355 H 233.063 -0.632436 -4.12379 0
M  V30 2356 H 231.693 0.0736656 -3.22716 0
M  V30 2357 H 230.745 -2.33583 -3.00238 0
M  V30 2358 H 232.057 -2.88673 -4.06779 0
M  V30 2359 H 231.211 -1.4078 -5.9014 0
M  V30 2360 H 229.95 -0.753766 -4.8184 0
M  V30 2361 H 228.955 -3.04596 -4.57713 0
M  V30 2362 H 230.18 -3.69989 -5.6946 0
M  V30 2363 H 228.126 -1.56046 -6.3717 0
M  V30 2364 H 228.043 -3.22815 -6.83613 0
M  V30 2365 H 229.311 -2.22285 -7.47134 0
M  V30 2366 N 233.54 1.10788 -1.12088 0
M  V30 2367 C 234.503 2.15207 -0.788577 0
M  V30 2368 C 235.503 1.59609 0.195317 0
M  V30 2369 O 236.693 1.74174 -0.0300193 0
M  V30 2370 C 233.825 3.4047 -0.171174 0
M  V30 2371 H 235.018 2.46116 -1.71368 0
M  V30 2372 H 232.571 1.26089 -0.923652 0
M  V30 2373 H 233.306 3.15176 0.763832 0
M  V30 2374 H 233.091 3.82109 -0.879514 0
M  V30 2375 H 234.581 4.17576 0.04496 0
M  V30 2376 N 235.018 0.912232 1.28515 0
M  V30 2377 C 236.429 0.591352 1.77087 0
M  V30 2378 C 236.78 -0.8933 1.74684 0
M  V30 2379 O 235.905 -1.69876 1.34056 0
M  V30 2380 C 236.5 1.06668 3.2157 0
M  V30 2381 C 235.059 0.79675 3.67871 0
M  V30 2382 C 234.206 1.23427 2.48316 0
M  V30 2383 H 237.157 1.09365 1.15 0
M  V30 2384 H 237.178 0.407455 3.78312 0
M  V30 2385 H 236.69 2.14726 3.23287 0
M  V30 2386 H 234.791 -0.270679 3.71616 0
M  V30 2387 H 234.904 1.40343 4.58084 0
M  V30 2388 H 233.268 0.653036 2.46186 0
M  V30 2389 H 234.051 2.32316 2.52753 0
M  V30 2390 N 236.496 -1.42363 0.676048 0
M  V30 2391 C 237.907 -1.84649 0.275948 0
M  V30 2392 C 238.258 -1.56588 -1.18214 0
M  V30 2393 O 237.383 -1.02634 -1.90513 0
M  V30 2394 C 237.978 -3.35178 0.494053 0
M  V30 2395 C 236.537 -3.76109 0.148061 0
M  V30 2396 C 235.684 -2.65931 0.785891 0
M  V30 2397 H 238.635 -1.32192 0.878121 0
M  V30 2398 H 238.656 -3.79655 -0.25343 0
M  V30 2399 H 238.168 -3.55571 1.55535 0
M  V30 2400 H 236.269 -3.61323 -0.909742 0
M  V30 2401 H 236.382 -4.7546 0.589454 0
M  V30 2402 H 234.746 -2.53773 0.217113 0
M  V30 2403 H 235.529 -2.89146 1.85067 0
M  V30 2404 N 237.974 -0.419461 -1.51915 0
M  V30 2405 C 238.921 0.400927 -2.27291 0
M  V30 2406 C 239.891 1.03224 -1.30131 0
M  V30 2407 O 241.076 1.05455 -1.59009 0
M  V30 2408 C 238.216 1.50603 -3.10504 0
M  V30 2409 C 237.329 0.89462 -4.22635 0
M  V30 2410 C 236.464 1.97328 -4.93189 0
M  V30 2411 C 235.503 1.33935 -5.97267 0
M  V30 2412 N 234.64 2.3586 -6.61298 0
M  V30 2413 H 239.48 -0.248251 -2.96964 0
M  V30 2414 H 237.017 -0.134266 -1.46486 0
M  V30 2415 H 238.975 2.15783 -3.57062 0
M  V30 2416 H 237.605 2.12509 -2.42981 0
M  V30 2417 H 236.657 0.131583 -3.80172 0
M  V30 2418 H 237.969 0.391641 -4.9726 0
M  V30 2419 H 237.123 2.70211 -5.43204 0
M  V30 2420 H 235.862 2.50994 -4.18155 0
M  V30 2421 H 234.867 0.595896 -5.46561 0
M  V30 2422 H 236.092 0.810252 -6.74249 0
M  V30 2423 H 234.038 2.88639 -5.89087 0
M  V30 2424 H 233.955 1.90403 -7.3163 0
M  V30 2425 H 235.223 3.08282 -7.15949 0
M  V30 2426 N 239.452 1.56882 -0.150215 0
M  V30 2427 C 240.399 2.16922 0.788244 0
M  V30 2428 C 241.369 1.10303 1.24187 0
M  V30 2429 O 242.554 1.38359 1.31383 0
M  V30 2430 C 239.694 2.79754 2.02068 0
M  V30 2431 C 238.807 4.00775 1.61257 0
M  V30 2432 C 237.942 4.51595 2.79705 0
M  V30 2433 C 236.981 5.65074 2.35282 0
M  V30 2434 N 236.118 6.10499 3.4675 0
M  V30 2435 H 240.958 2.96779 0.269444 0
M  V30 2436 H 238.495 1.46599 0.12128 0
M  V30 2437 H 240.453 3.14329 2.74323 0
M  V30 2438 H 239.083 2.02536 2.51354 0
M  V30 2439 H 238.135 3.72158 0.787553 0
M  V30 2440 H 239.447 4.82978 1.24633 0
M  V30 2441 H 238.601 4.88242 3.60145 0
M  V30 2442 H 237.34 3.68406 3.19576 0
M  V30 2443 H 236.345 5.28 1.53283 0
M  V30 2444 H 237.57 6.50052 1.96493 0
M  V30 2445 H 235.516 5.30243 3.86236 0
M  V30 2446 H 235.433 6.87637 3.14152 0
M  V30 2447 H 236.701 6.51791 4.27537 0
M  V30 2448 N 240.93 -0.123565 1.57115 0
M  V30 2449 C 241.893 -1.13583 1.99076 0
M  V30 2450 C 242.893 -1.34564 0.880296 0
M  V30 2451 O 244.083 -1.31158 1.14644 0
M  V30 2452 C 241.215 -2.49128 2.32698 0
M  V30 2453 H 242.408 -0.775287 2.89706 0
M  V30 2454 H 239.961 -0.36771 1.51913 0
M  V30 2455 H 240.696 -2.90111 1.44934 0
M  V30 2456 H 240.481 -2.35255 3.13684 0
M  V30 2457 H 241.971 -3.2199 2.65918 0
M  V30 2458 N 242.408 -1.52605 -0.393616 0
M  V30 2459 C 243.355 -1.77055 -1.48054 0
M  V30 2460 C 244.325 -0.61358 -1.54352 0
M  V30 2461 O 245.51 -0.852806 -1.70681 0
M  V30 2462 C 242.65 -1.94108 -2.85335 0
M  V30 2463 C 241.763 -3.21792 -2.88226 0
M  V30 2464 C 240.898 -3.29188 -4.16904 0
M  V30 2465 C 239.937 -4.51013 -4.13828 0
M  V30 2466 N 239.074 -4.55716 -5.34105 0
M  V30 2467 H 243.914 -2.69815 -1.26506 0
M  V30 2468 H 241.451 -1.33683 -0.61379 0
M  V30 2469 H 243.409 -2.01979 -3.65049 0
M  V30 2470 H 242.039 -1.04713 -3.05344 0
M  V30 2471 H 241.091 -3.23015 -2.00911 0
M  V30 2472 H 242.403 -4.11557 -2.8182 0
M  V30 2473 H 241.557 -3.36216 -5.05018 0
M  V30 2474 H 240.296 -2.37389 -4.26026 0
M  V30 2475 H 239.301 -4.44115 -3.24102 0
M  V30 2476 H 240.526 -5.44123 -4.06333 0
M  V30 2477 H 238.472 -3.66807 -5.43865 0
M  V30 2478 H 238.389 -5.39346 -5.29756 0
M  V30 2479 H 239.657 -4.66993 -6.2413 0
M  V30 2480 N 243.887 0.651787 -1.4349 0
M  V30 2481 C 245.112 1.44434 -1.48841 0
M  V30 2482 C 245.537 1.8779 -0.107955 0
M  V30 2483 O 244.895 1.57464 0.898602 0
M  V30 2484 C 244.943 2.65458 -2.44059 0
M  V30 2485 O 244.047 3.64566 -1.92784 0
M  V30 2486 H 243.388 0.433005 -0.503391 0
M  V30 2487 H 245.918 0.797451 -1.88419 0
M  V30 2488 H 245.928 3.13255 -2.6141 0
M  V30 2489 H 244.603 2.33244 -3.4434 0
M  V30 2490 H 243.18 3.23716 -1.851 0
M  V30 2491 N 245.365 1.30045 0.890287 0
M  V30 2492 C 246.59 1.21598 1.68014 0
M  V30 2493 C 247.015 -0.218678 1.86825 0
M  V30 2494 O 246.373 -1.15756 1.39536 0
M  V30 2495 C 246.421 1.94434 3.03691 0
M  V30 2496 O 245.525 1.2678 3.92429 0
M  V30 2497 H 244.866 0.420856 0.513592 0
M  V30 2498 H 247.396 1.71775 1.11151 0
M  V30 2499 H 247.406 2.03251 3.5377 0
M  V30 2500 H 246.081 2.98777 2.89318 0
M  V30 2501 H 244.658 1.26282 3.50866 0
M  V30 2502 N 246.843 -1.10192 1.12674 0
M  V30 2503 C 248.12 -1.78717 0.794965 0
M  V30 2504 C 248.5 -1.98628 -0.714853 0
M  V30 2505 O 247.848 -1.58135 -1.64941 0
M  V30 2506 C 248.058 -3.11546 1.5729 0
M  V30 2507 C 249.406 -3.86382 1.76052 0
M  V30 2508 O 250.43 -3.21274 1.53823 0
M  V30 2509 O 249.289 -5.03246 2.13087 0
M  V30 2510 H 246.383 -0.774702 0.289423 0
M  V30 2511 H 248.929 -1.16819 1.23091 0
M  V30 2512 H 247.701 -2.92489 2.59935 0
M  V30 2513 H 247.324 -3.81164 1.13137 0
M  V30 2514 N 248.321 -0.919034 -1.28029 0
M  V30 2515 C 249.546 -0.570357 -1.99403 0
M  V30 2516 C 249.971 0.842486 -1.68178 0
M  V30 2517 O 249.329 1.56391 -0.917141 0
M  V30 2518 C 249.377 -0.792541 -3.51783 0
M  V30 2519 O 248.481 0.145988 -4.12142 0
M  V30 2520 H 247.822 -0.220555 -0.6263 0
M  V30 2521 H 250.352 -1.23592 -1.63053 0
M  V30 2522 H 250.362 -0.704708 -4.01868 0
M  V30 2523 H 249.037 -1.82247 -3.73844 0
M  V30 2524 H 247.614 0.00897528 -3.72899 0
M  V30 2525 N 249.799 1.42003 -0.683588 0
M  V30 2526 C 251.076 1.95112 -0.138075 0
M  V30 2527 C 251.456 1.62359 1.34918 0
M  V30 2528 O 250.804 0.924311 2.08971 0
M  V30 2529 C 251.014 3.46505 -0.416581 0
M  V30 2530 C 252.362 4.23254 -0.337834 0
M  V30 2531 O 253.386 3.54468 -0.35082 0
M  V30 2532 O 252.245 5.45743 -0.287596 0
M  V30 2533 H 249.339 0.826961 -0.00797996 0
M  V30 2534 H 251.885 1.51784 -0.758924 0
M  V30 2535 H 250.657 3.63582 -1.4465 0
M  V30 2536 H 250.28 3.969 0.235839 0
M  V30 2537 N 251.277 0.427512 1.51691 0
M  V30 2538 C 252.502 -0.143601 2.06902 0
M  V30 2539 C 252.927 -1.36536 1.29382 0
M  V30 2540 O 252.285 -1.78289 0.329043 0
M  V30 2541 C 252.333 -0.454207 3.57728 0
M  V30 2542 O 251.437 -1.54228 3.82475 0
M  V30 2543 H 250.778 -0.00617128 0.663971 0
M  V30 2544 H 253.308 0.606014 1.95419 0
M  V30 2545 H 253.318 -0.707525 4.01818 0
M  V30 2546 H 251.993 0.438812 4.13579 0
M  V30 2547 H 250.57 -1.2797 3.50254 0
M  V30 2548 N 252.755 -1.56801 0.158532 0
M  V30 2549 C 254.032 -1.88131 -0.535357 0
M  V30 2550 C 254.412 -1.06638 -1.82186 0
M  V30 2551 O 253.76 -0.156533 -2.27963 0
M  V30 2552 C 253.97 -3.39949 -0.789653 0
M  V30 2553 C 255.318 -4.09416 -1.12533 0
M  V30 2554 O 256.342 -3.45194 -0.878622 0
M  V30 2555 O 255.201 -5.22855 -1.59014 0
M  V30 2556 H 252.295 -0.780143 -0.27442 0
M  V30 2557 H 254.841 -1.68564 0.19601 0
M  V30 2558 H 253.613 -3.91115 0.120353 0
M  V30 2559 H 253.236 -3.65084 -1.57479 0
M  V30 2560 N 254.233 0.115231 -1.57178 0
M  V30 2561 C 255.458 0.840354 -1.89612 0
M  V30 2562 C 255.883 1.72464 -0.750845 0
M  V30 2563 O 255.241 1.78826 0.298478 0
M  V30 2564 C 255.289 1.64654 -3.20814 0
M  V30 2565 O 254.393 2.7538 -3.06985 0
M  V30 2566 H 253.734 0.232158 -0.622092 0
M  V30 2567 H 256.264 0.0964977 -2.04372 0
M  V30 2568 H 256.274 2.03499 -3.53627 0
M  V30 2569 H 254.949 0.997416 -4.03763 0
M  V30 2570 H 253.526 2.3971 -2.85646 0
M  V30 2571 N 255.711 1.52812 0.385517 0
M  V30 2572 C 256.936 1.72207 1.15583 0
M  V30 2573 C 257.361 0.441034 1.82857 0
M  V30 2574 O 256.719 -0.603465 1.70962 0
M  V30 2575 C 256.767 2.87476 2.17692 0
M  V30 2576 O 255.871 2.54693 3.24354 0
M  V30 2577 H 255.212 0.572526 0.336319 0
M  V30 2578 H 257.742 1.99618 0.448744 0
M  V30 2579 H 257.752 3.13072 2.6163 0
M  V30 2580 H 256.427 3.80408 1.68115 0
M  V30 2581 H 255.004 2.3985 2.85529 0
M  V30 2582 N 257.189 -0.644168 1.43834 0
M  V30 2583 C 258.414 -1.43642 1.49605 0
M  V30 2584 C 258.839 -1.8773 0.117913 0
M  V30 2585 O 258.197 -1.57938 -0.890239 0
M  V30 2586 C 258.245 -2.6416 2.45463 0
M  V30 2587 O 257.349 -3.63538 1.94714 0
M  V30 2588 H 256.69 -0.430329 0.50568 0
M  V30 2589 H 259.22 -0.787448 1.8884 0
M  V30 2590 H 259.23 -3.11864 2.63068 0
M  V30 2591 H 257.905 -2.31414 3.45572 0
M  V30 2592 H 256.482 -3.2273 1.86814 0
M  V30 2593 N 258.668 -1.30515 -0.883378 0
M  V30 2594 C 259.578 -1.18959 -2.02203 0
M  V30 2595 C 260.594 -0.109172 -1.73657 0
M  V30 2596 O 261.77 -0.324413 -1.9877 0
M  V30 2597 C 258.835 -0.883871 -3.35244 0
M  V30 2598 C 257.896 -2.04982 -3.77201 0
M  V30 2599 C 257.129 -1.75859 -5.03894 0
M  V30 2600 O 257.352 -0.687276 -5.66244 0
M  V30 2601 O 256.286 -2.61146 -5.42297 0
M  V30 2602 H 260.112 -2.14616 -2.1488 0
M  V30 2603 H 257.697 -1.10124 -1.0096 0
M  V30 2604 H 259.579 -0.728644 -4.15053 0
M  V30 2605 H 258.254 0.0427798 -3.23672 0
M  V30 2606 H 257.161 -2.26038 -2.9809 0
M  V30 2607 H 258.494 -2.95825 -3.93381 0
M  V30 2608 N 260.146 1.09593 -1.13257 0
M  V30 2609 C 261.423 1.78293 -0.804432 0
M  V30 2610 C 261.803 1.99004 0.70431 0
M  V30 2611 O 261.151 1.59007 1.641 0
M  V30 2612 C 261.361 3.10707 -1.5894 0
M  V30 2613 C 262.709 3.85443 -1.78099 0
M  V30 2614 O 263.733 3.20454 -1.55525 0
M  V30 2615 O 262.592 5.02108 -2.15753 0
M  V30 2616 H 259.686 0.773156 -0.293528 0
M  V30 2617 H 262.232 1.16164 -1.23709 0
M  V30 2618 H 261.004 2.91106 -2.61482 0
M  V30 2619 H 260.627 3.80558 -1.15157 0
M  V30 2620 N 261.624 0.925811 1.2754 0
M  V30 2621 C 262.534 0.428993 2.30644 0
M  V30 2622 C 263.55 -0.489387 1.66976 0
M  V30 2623 O 264.726 -0.372653 1.97922 0
M  V30 2624 C 261.791 -0.311967 3.45294 0
M  V30 2625 C 260.852 0.641098 4.24486 0
M  V30 2626 C 260.085 -0.0645955 5.33661 0
M  V30 2627 O 260.308 -1.28429 5.55754 0
M  V30 2628 O 259.242 0.606265 5.98839 0
M  V30 2629 H 263.068 1.28504 2.75173 0
M  V30 2630 H 260.653 0.691086 1.32455 0
M  V30 2631 H 262.535 -0.729972 4.15029 0
M  V30 2632 H 261.21 -1.14365 3.02824 0
M  V30 2633 H 260.117 1.10874 3.57292 0
M  V30 2634 H 261.45 1.43995 4.70666 0
M  V30 2635 N 263.102 -1.41638 0.69111 0
M  V30 2636 C 264.513 -1.84346 0.295517 0
M  V30 2637 C 264.864 -1.57833 -1.16547 0
M  V30 2638 O 263.989 -1.04648 -1.89414 0
M  V30 2639 C 264.584 -3.34636 0.529575 0
M  V30 2640 C 263.143 -3.7593 0.187944 0
M  V30 2641 C 262.29 -2.65082 0.814052 0
M  V30 2642 H 265.241 -1.31253 0.892092 0
M  V30 2643 H 265.262 -3.79903 -0.213148 0
M  V30 2644 H 264.774 -3.53901 1.59297 0
M  V30 2645 H 262.875 -3.62268 -0.871367 0
M  V30 2646 H 262.988 -4.74808 0.63985 0
M  V30 2647 H 261.352 -2.53528 0.244017 0
M  V30 2648 H 262.135 -2.87167 1.88123 0
M  V30 2649 N 264.58 -0.43555 -1.51462 0
M  V30 2650 C 265.991 0.0279871 -1.86679 0
M  V30 2651 C 266.342 1.42104 -1.35281 0
M  V30 2652 O 265.467 2.04667 -0.702878 0
M  V30 2653 C 266.062 0.0575626 -3.38751 0
M  V30 2654 C 264.621 0.465507 -3.7351 0
M  V30 2655 C 263.768 -0.342996 -2.75171 0
M  V30 2656 H 266.719 -0.651473 -1.44712 0
M  V30 2657 H 266.74 0.867421 -3.70481 0
M  V30 2658 H 266.252 -0.956448 -3.7613 0
M  V30 2659 H 264.353 1.48519 -3.41721 0
M  V30 2660 H 264.466 0.191546 -4.78717 0
M  V30 2661 H 262.83 0.198442 -2.53926 0
M  V30 2662 H 263.613 -1.35585 -3.15391 0
M  V30 2663 N 266.058 1.56714 -0.166846 0
M  V30 2664 C 267.005 2.17746 0.765193 0
M  V30 2665 C 267.975 1.11614 1.23011 0
M  V30 2666 O 269.16 1.39745 1.29908 0
M  V30 2667 C 266.3 2.81882 1.9909 0
M  V30 2668 C 265.413 4.02462 1.56997 0
M  V30 2669 C 264.548 4.54537 2.749 0
M  V30 2670 C 263.587 5.67538 2.29275 0
M  V30 2671 N 262.724 6.14142 3.40255 0
M  V30 2672 H 267.564 2.97048 0.237952 0
M  V30 2673 H 265.101 1.4672 0.105725 0
M  V30 2674 H 267.059 3.17221 2.70974 0
M  V30 2675 H 265.689 2.05191 2.49192 0
M  V30 2676 H 264.741 3.72973 0.748037 0
M  V30 2677 H 266.053 4.84273 1.19503 0
M  V30 2678 H 265.207 4.92035 3.54946 0
M  V30 2679 H 263.946 3.71774 3.1565 0
M  V30 2680 H 262.951 5.29597 1.47674 0
M  V30 2681 H 264.176 6.52099 1.89588 0
M  V30 2682 H 262.122 5.3431 3.8059 0
M  V30 2683 H 262.039 6.9093 3.06841 0
M  V30 2684 H 263.307 6.56289 4.206 0
M  V30 2685 N 267.536 -0.106894 1.57237 0
M  V30 2686 C 268.484 -1.14944 2.02215 0
M  V30 2687 C 269.478 -1.42167 0.92114 0
M  V30 2688 O 270.684 -1.41987 1.10634 0
M  V30 2689 H 267.059 -0.387841 0.64427 0
M  V30 2690 H 269.03 -0.743683 2.88984 0
M  V30 2691 C 267.779 -2.4647 2.4525 0
M  V30 2692 H 267.102 -2.26363 3.29545 0
M  V30 2693 H 268.542 -3.17948 2.80508 0
M  V30 2694 C 267.001 -3.09921 1.321 0
M  V30 2695 O 267.531 -3.9651 0.643622 0
M  V30 2696 N 265.737 -2.69986 1.07497 0
M  V30 2697 H 265.284 -1.99667 1.62761 0
M  V30 2698 H 265.242 -3.12769 0.319876 0
M  V30 2699 N 269.014 -1.53014 -0.377408 0
M  V30 2700 C 269.946 -1.74884 -1.48149 0
M  V30 2701 C 270.959 -0.629433 -1.5014 0
M  V30 2702 O 272.148 -0.905416 -1.53833 0
M  V30 2703 C 269.248 -1.80299 -2.86959 0
M  V30 2704 C 268.421 -3.09776 -3.08801 0
M  V30 2705 C 267.48 -3.06586 -4.27658 0
M  V30 2706 O 266.506 -3.80419 -4.23403 0
M  V30 2707 N 267.708 -2.26578 -5.34455 0
M  V30 2708 H 270.473 -2.70147 -1.29771 0
M  V30 2709 H 268.034 -1.51646 -0.56703 0
M  V30 2710 H 270.026 -1.75657 -3.64591 0
M  V30 2711 H 268.596 -0.92372 -2.98641 0
M  V30 2712 H 267.816 -3.27815 -2.18931 0
M  V30 2713 H 269.104 -3.95366 -3.20255 0
M  V30 2714 H 268.502 -1.66081 -5.40771 0
M  V30 2715 H 267.059 -2.27766 -6.10709 0
M  V30 2716 N 270.492 0.636531 -1.44174 0
M  V30 2717 C 271.439 1.74875 -1.50624 0
M  V30 2718 C 272.409 1.62275 -0.35442 0
M  V30 2719 O 273.594 1.82276 -0.563908 0
M  V30 2720 C 270.734 3.13102 -1.45125 0
M  V30 2721 C 269.847 3.36717 -2.7064 0
M  V30 2722 C 268.982 4.64885 -2.57013 0
M  V30 2723 C 268.021 4.8166 -3.77717 0
M  V30 2724 N 267.158 6.01101 -3.62798 0
M  V30 2725 H 271.998 1.68697 -2.45653 0
M  V30 2726 H 269.535 0.823004 -1.21922 0
M  V30 2727 H 271.493 3.93034 -1.39929 0
M  V30 2728 H 270.123 3.18308 -0.536671 0
M  V30 2729 H 269.175 2.50763 -2.86046 0
M  V30 2730 H 270.487 3.44993 -3.60252 0
M  V30 2731 H 269.641 5.52969 -2.49619 0
M  V30 2732 H 268.38 4.58957 -1.64953 0
M  V30 2733 H 267.385 3.92007 -3.85501 0
M  V30 2734 H 268.61 4.89406 -4.70807 0
M  V30 2735 H 266.556 5.96273 -2.73486 0
M  V30 2736 H 266.473 6.10409 -4.46023 0
M  V30 2737 H 267.741 6.91761 -3.59286 0
M  V30 2738 N 271.97 1.30982 0.876444 0
M  V30 2739 C 273.381 1.18277 1.44456 0
M  V30 2740 C 273.732 -0.213265 1.95037 0
M  V30 2741 O 272.857 -1.11057 1.85729 0
M  V30 2742 C 273.452 2.1411 2.62569 0
M  V30 2743 C 272.011 2.05358 3.15444 0
M  V30 2744 C 271.158 2.03706 1.88146 0
M  V30 2745 H 274.109 1.43127 0.685584 0
M  V30 2746 H 274.13 1.72692 3.39054 0
M  V30 2747 H 273.642 3.15706 2.25724 0
M  V30 2748 H 271.743 1.06934 3.56926 0
M  V30 2749 H 271.856 2.94156 3.78166 0
M  V30 2750 H 270.22 1.48629 2.06837 0
M  V30 2751 H 271.003 3.07047 1.53547 0
M  V30 2752 N 273.449 -1.08991 1.13837 0
M  V30 2753 C 274.396 -2.15748 0.819835 0
M  V30 2754 C 275.366 -1.64636 -0.220026 0
M  V30 2755 O 276.551 -1.90582 -0.0912757 0
M  V30 2756 C 273.691 -3.4382 0.296913 0
M  V30 2757 C 272.804 -4.0881 1.39636 0
M  V30 2758 C 271.939 -5.24655 0.831314 0
M  V30 2759 C 270.978 -5.81575 1.90886 0
M  V30 2760 N 270.115 -6.88774 1.36142 0
M  V30 2761 H 274.955 -2.42338 1.73426 0
M  V30 2762 H 272.492 -1.18935 0.865613 0
M  V30 2763 H 274.45 -4.17193 -0.0244339 0
M  V30 2764 H 273.08 -3.17535 -0.580628 0
M  V30 2765 H 272.132 -3.33258 1.83422 0
M  V30 2766 H 273.444 -4.47141 2.21058 0
M  V30 2767 H 272.598 -6.04942 0.461515 0
M  V30 2768 H 271.337 -4.87698 -0.013932 0
M  V30 2769 H 270.342 -4.99946 2.28767 0
M  V30 2770 H 271.567 -6.20592 2.75758 0
M  V30 2771 H 269.513 -6.53788 0.538254 0
M  V30 2772 H 269.43 -7.25898 2.11208 0
M  V30 2773 H 270.698 -7.72806 1.01933 0
M  V30 2774 N 274.927 -0.932562 -1.27047 0
M  V30 2775 C 276.176 -0.571351 -1.93439 0
M  V30 2776 C 276.489 0.892467 -1.74053 0
M  V30 2777 O 277.695 1.36267 -2.34826 0
M  V30 2778 C 276.151 -0.97106 -3.46552 0
M  V30 2779 C 275.759 -2.4559 -3.74686 0
M  V30 2780 C 277.503 -0.681333 -4.18997 0
M  V30 2781 C 275.41 -2.79475 -5.21198 0
M  V30 2782 H 274.34 -0.209966 -0.724176 0
M  V30 2783 H 276.991 -1.13403 -1.44263 0
M  V30 2784 H 275.373 -0.336983 -3.94564 0
M  V30 2785 H 276.547 -3.13829 -3.37414 0
M  V30 2786 H 274.862 -2.71802 -3.15456 0
M  V30 2787 H 277.459 -0.910939 -5.26883 0
M  V30 2788 H 277.802 0.381628 -4.14547 0
M  V30 2789 H 278.335 -1.27473 -3.76823 0
M  V30 2790 H 275.074 -3.847 -5.30741 0
M  V30 2791 H 274.594 -2.1589 -5.596 0
M  V30 2792 H 276.273 -2.67478 -5.89122 0
M  V30 2793 N 276.405 1.4127 -0.698611 0
M  V30 2794 C 277.633 2.05503 -0.239992 0
M  V30 2795 C 278.048 1.52584 1.11191 0
M  V30 2796 O 277.405 0.675323 1.69545 0
M  V30 2797 C 277.456 3.60987 -0.192429 0
M  V30 2798 O 277.177 4.1195 -1.49094 0
M  V30 2799 C 278.678 4.42371 0.28681 0
M  V30 2800 H 275.898 0.661748 -0.111045 0
M  V30 2801 H 278.442 1.80987 -0.95205 0
M  V30 2802 H 276.597 3.84533 0.470472 0
M  V30 2803 H 277.011 5.06018 -1.38007 0
M  V30 2804 H 278.485 5.51344 0.26896 0
M  V30 2805 H 278.962 4.18699 1.32619 0
M  V30 2806 H 279.568 4.23897 -0.345201 0
M  V30 2807 N 277.883 0.443576 1.51229 0
M  V30 2808 C 279.294 -0.0180867 1.86691 0
M  V30 2809 C 279.645 -1.41384 1.36033 0
M  V30 2810 O 278.77 -2.04291 0.713722 0
M  V30 2811 C 279.365 -0.039597 3.38777 0
M  V30 2812 C 277.924 -0.445692 3.73752 0
M  V30 2813 C 277.071 0.357584 2.74985 0
M  V30 2814 H 280.022 0.659138 1.44364 0
M  V30 2815 H 280.043 -0.847761 3.70936 0
M  V30 2816 H 279.555 0.976382 3.75617 0
M  V30 2817 H 277.656 -1.46704 3.42503 0
M  V30 2818 H 277.769 -0.166155 4.78812 0
M  V30 2819 H 276.133 -0.184973 2.54027 0
M  V30 2820 H 276.916 1.37256 3.14668 0
M  V30 2821 N 279.361 -1.56624 0.175154 0
M  V30 2822 C 280.607 -1.9729 -0.469506 0
M  V30 2823 C 280.94 -1.06128 -1.62636 0
M  V30 2824 O 280.215 -0.109183 -1.94193 0
M  V30 2825 C 280.498 -3.47375 -0.948804 0
M  V30 2826 C 280.351 -4.49317 0.208491 0
M  V30 2827 C 281.67 -4.00652 -1.82116 0
M  V30 2828 H 278.789 -0.717317 -0.16919 0
M  V30 2829 H 281.431 -1.88184 0.262062 0
M  V30 2830 H 279.581 -3.55267 -1.57219 0
M  V30 2831 H 281.253 -4.53482 0.845682 0
M  V30 2832 H 279.496 -4.25121 0.863395 0
M  V30 2833 H 280.167 -5.51741 -0.169059 0
M  V30 2834 H 282.643 -3.95416 -1.2956 0
M  V30 2835 H 281.519 -5.06075 -2.12554 0
M  V30 2836 H 281.78 -3.44699 -2.7683 0
M  V30 2837 N 280.839 0.0985539 -1.57292 0
M  V30 2838 C 282.067 0.816318 -1.90115 0
M  V30 2839 C 282.482 1.72451 -0.768509 0
M  V30 2840 O 281.839 1.80643 0.259687 0
M  V30 2841 C 281.89 1.63259 -3.22535 0
M  V30 2842 O 281.611 0.760934 -4.31441 0
M  V30 2843 C 283.112 2.45372 -3.69199 0
M  V30 2844 H 280.332 0.233595 -0.629027 0
M  V30 2845 H 282.876 0.0768229 -2.04356 0
M  V30 2846 H 281.031 2.32463 -3.09903 0
M  V30 2847 H 281.445 1.32595 -5.07463 0
M  V30 2848 H 282.919 2.98144 -4.64558 0
M  V30 2849 H 283.396 3.23677 -2.96867 0
M  V30 2850 H 284.002 1.81373 -3.84687 0
M  V30 2851 N 282.317 1.53212 0.369288 0
M  V30 2852 C 283.563 1.69466 1.11397 0
M  V30 2853 C 283.896 0.443257 1.89074 0
M  V30 2854 O 283.171 -0.559386 1.86282 0
M  V30 2855 C 283.454 2.9422 2.07621 0
M  V30 2856 C 283.307 4.29508 1.33577 0
M  V30 2857 C 284.626 3.14565 3.07794 0
M  V30 2858 H 281.745 0.616667 0.403597 0
M  V30 2859 H 284.387 1.85845 0.395179 0
M  V30 2860 H 282.537 2.80387 2.68916 0
M  V30 2861 H 284.209 4.55147 0.750955 0
M  V30 2862 H 282.452 4.29088 0.637618 0
M  V30 2863 H 283.123 5.12926 2.03989 0
M  V30 2864 H 285.599 3.2756 2.56601 0
M  V30 2865 H 284.475 4.03297 3.72348 0
M  V30 2866 H 284.736 2.29675 3.77759 0
M  V30 2867 N 283.795 -0.628877 1.44509 0
M  V30 2868 C 284.742 -1.74074 1.51549 0
M  V30 2869 C 285.712 -1.62084 0.363021 0
M  V30 2870 O 286.897 -1.81975 0.573567 0
M  V30 2871 C 284.037 -3.12328 1.46784 0
M  V30 2872 C 283.15 -3.35277 2.72422 0
M  V30 2873 C 282.285 -4.63515 2.59475 0
M  V30 2874 C 281.324 -4.7965 3.80266 0
M  V30 2875 N 280.461 -5.99168 3.65981 0
M  V30 2876 H 285.301 -1.67392 2.46544 0
M  V30 2877 H 282.838 -0.816527 1.22357 0
M  V30 2878 H 284.796 -3.92286 1.42012 0
M  V30 2879 H 283.426 -3.18018 0.553544 0
M  V30 2880 H 282.478 -2.49242 2.87372 0
M  V30 2881 H 283.79 -3.43078 3.62076 0
M  V30 2882 H 282.944 -5.51638 2.52548 0
M  V30 2883 H 281.683 -4.58076 1.67384 0
M  V30 2884 H 280.688 -3.89957 3.87574 0
M  V30 2885 H 281.913 -4.86902 4.73395 0
M  V30 2886 H 279.859 -5.94814 2.76644 0
M  V30 2887 H 279.776 -6.08035 4.49254 0
M  V30 2888 H 281.044 -6.89846 3.6295 0
M  V30 2889 N 285.273 -1.31445 -0.869486 0
M  V30 2890 C 286.236 -1.19094 -1.9583 0
M  V30 2891 C 287.236 -0.117906 -1.60367 0
M  V30 2892 O 288.426 -0.367208 -1.70286 0
M  V30 2893 C 285.558 -0.828165 -3.30688 0
M  V30 2894 H 286.751 -2.15842 -2.08212 0
M  V30 2895 H 284.304 -1.15063 -1.05784 0
M  V30 2896 H 285.039 0.138142 -3.24006 0
M  V30 2897 H 284.824 -1.6038 -3.578 0
M  V30 2898 H 286.314 -0.765658 -4.10521 0
M  V30 2899 N 286.751 1.08385 -1.14413 0
M  V30 2900 C 287.683 2.1519 -0.789036 0
M  V30 2901 C 288.696 1.61638 0.19417 0
M  V30 2902 O 289.885 1.78479 -0.0275711 0
M  V30 2903 C 286.985 3.38565 -0.15058 0
M  V30 2904 C 286.158 4.21501 -1.16857 0
M  V30 2905 C 285.217 5.23277 -0.553832 0
M  V30 2906 O 284.243 5.56041 -1.21686 0
M  V30 2907 N 285.445 5.76629 0.669296 0
M  V30 2908 H 288.21 2.46257 -1.70814 0
M  V30 2909 H 285.771 1.24198 -1.03858 0
M  V30 2910 H 287.763 4.03777 0.273181 0
M  V30 2911 H 286.333 3.05299 0.671667 0
M  V30 2912 H 285.553 3.52265 -1.76926 0
M  V30 2913 H 286.841 4.73731 -1.85624 0
M  V30 2914 H 286.239 5.52243 1.22654 0
M  V30 2915 H 284.796 6.43521 1.03556 0
M  V30 2916 N 288.23 0.939286 1.26551 0
M  V30 2917 C 289.458 0.602536 1.97932 0
M  V30 2918 C 289.873 -0.82206 1.69964 0
M  V30 2919 O 289.23 -1.54789 0.966784 0
M  V30 2920 C 289.281 0.832946 3.51773 0
M  V30 2921 O 289.002 2.20151 3.78768 0
M  V30 2922 C 290.503 0.506483 4.40397 0
M  V30 2923 H 287.723 0.227248 0.631347 0
M  V30 2924 H 290.267 1.25948 1.61113 0
M  V30 2925 H 288.422 0.222644 3.8676 0
M  V30 2926 H 288.836 2.26013 4.73306 0
M  V30 2927 H 290.31 0.718333 5.47306 0
M  V30 2928 H 290.787 -0.558451 4.35635 0
M  V30 2929 H 291.393 1.09543 4.10951 0
M  V30 2930 N 289.708 -1.40897 0.706093 0
M  V30 2931 C 290.655 -2.30751 0.0474474 0
M  V30 2932 C 291.625 -1.47678 -0.76029 0
M  V30 2933 O 292.81 -1.76441 -0.726177 0
M  V30 2934 C 289.95 -3.33815 -0.875309 0
M  V30 2935 C 289.063 -4.31961 -0.0580623 0
M  V30 2936 C 288.198 -5.22093 -0.979425 0
M  V30 2937 C 287.237 -6.11902 -0.155706 0
M  V30 2938 N 286.374 -6.94482 -1.03144 0
M  V30 2939 H 291.214 -2.86513 0.819413 0
M  V30 2940 H 288.751 -1.41102 0.415783 0
M  V30 2941 H 290.709 -3.92129 -1.42446 0
M  V30 2942 H 289.339 -2.79579 -1.61356 0
M  V30 2943 H 288.391 -3.75507 0.608147 0
M  V30 2944 H 289.703 -4.95415 0.580082 0
M  V30 2945 H 288.857 -5.85292 -1.59744 0
M  V30 2946 H 287.596 -4.5889 -1.65141 0
M  V30 2947 H 286.601 -5.47742 0.475309 0
M  V30 2948 H 287.826 -6.77162 0.512635 0
M  V30 2949 H 285.772 -6.33877 -1.68924 0
M  V30 2950 H 285.689 -7.54665 -0.449108 0
M  V30 2951 H 286.957 -7.6214 -1.63593 0
M  V30 2952 N 291.186 -0.45159 -1.50991 0
M  V30 2953 C 292.149 0.341117 -2.26647 0
M  V30 2954 C 293.149 0.937422 -1.30649 0
M  V30 2955 O 294.339 0.809644 -1.54241 0
M  V30 2956 C 291.471 1.48398 -3.06905 0
M  V30 2957 H 292.664 -0.322117 -2.98165 0
M  V30 2958 H 290.217 -0.205122 -1.54948 0
M  V30 2959 H 290.952 2.18284 -2.39838 0
M  V30 2960 H 290.737 1.06241 -3.77432 0
M  V30 2961 H 292.227 2.04367 -3.64176 0
M  V30 2962 N 292.664 1.56529 -0.183458 0
M  V30 2963 C 294.075 1.83739 0.331177 0
M  V30 2964 C 294.426 1.10373 1.62211 0
M  V30 2965 O 293.551 0.36071 2.13373 0
M  V30 2966 C 294.146 3.33306 0.607646 0
M  V30 2967 C 292.705 3.60969 1.06668 0
M  V30 2968 C 291.852 2.77086 0.109029 0
M  V30 2969 H 294.803 1.53379 -0.407484 0
M  V30 2970 H 294.824 3.51444 1.45832 0
M  V30 2971 H 294.336 3.86677 -0.332086 0
M  V30 2972 H 292.437 3.13021 2.0211 0
M  V30 2973 H 292.55 4.69231 0.967447 0
M  V30 2974 H 290.914 2.47319 0.608714 0
M  V30 2975 H 291.697 3.33241 -0.82494 0
M  V30 2976 N 294.142 -0.090211 1.57342 0
M  V30 2977 C 295.553 -0.644173 1.75235 0
M  V30 2978 C 295.904 -1.78865 0.806335 0
M  V30 2979 O 295.029 -2.16395 -0.0140128 0
M  V30 2980 C 295.624 -1.17532 3.1776 0
M  V30 2981 C 294.183 -1.67531 3.37061 0
M  V30 2982 C 293.33 -0.58693 2.71017 0
M  V30 2983 H 296.281 0.135884 1.58117 0
M  V30 2984 H 296.302 -2.04455 3.20902 0
M  V30 2985 H 295.814 -0.342138 3.86589 0
M  V30 2986 H 293.915 -2.53234 2.73319 0
M  V30 2987 H 294.028 -1.76493 4.45406 0
M  V30 2988 H 292.392 -1.02756 2.33052 0
M  V30 2989 H 293.175 0.235758 3.4249 0
M  V30 2990 N 295.62 -1.53406 -0.361157 0
M  V30 2991 C 296.567 -1.80156 -1.44265 0
M  V30 2992 C 297.537 -0.646183 -1.53015 0
M  V30 2993 O 298.722 -0.888818 -1.68833 0
M  V30 2994 C 295.862 -2.00116 -2.81154 0
M  V30 2995 C 294.975 -3.27833 -2.81335 0
M  V30 2996 C 294.11 -3.37957 -4.09828 0
M  V30 2997 C 293.149 -4.59689 -4.04168 0
M  V30 2998 N 292.286 -4.66942 -5.24318 0
M  V30 2999 H 297.126 -2.72438 -1.20754 0
M  V30 3000 H 294.663 -1.34954 -0.585296 0
M  V30 3001 H 296.621 -2.09677 -3.60682 0
M  V30 3002 H 295.251 -1.11167 -3.03054 0
M  V30 3003 H 294.303 -3.27204 -1.94014 0
M  V30 3004 H 295.615 -4.17442 -2.73027 0
M  V30 3005 H 294.769 -3.46853 -4.97773 0
M  V30 3006 H 293.508 -2.46372 -4.20894 0
M  V30 3007 H 292.513 -4.50889 -3.14609 0
M  V30 3008 H 293.738 -5.5262 -3.947 0
M  V30 3009 H 291.684 -3.7826 -5.35962 0
M  V30 3010 H 291.601 -5.50462 -5.18197 0
M  V30 3011 H 292.869 -4.80127 -6.14084 0
M  V30 3012 N 297.098 0.621204 -1.44841 0
M  V30 3013 C 298.509 1.20298 -1.42777 0
M  V30 3014 C 298.86 1.95639 -0.148259 0
M  V30 3015 O 297.985 2.02955 0.750892 0
M  V30 3016 C 298.58 2.1882 -2.58657 0
M  V30 3017 C 297.139 2.72403 -2.59756 0
M  V30 3018 C 296.286 1.4757 -2.34773 0
M  V30 3019 H 299.237 0.411297 -1.53278 0
M  V30 3020 H 299.258 3.01607 -2.31977 0
M  V30 3021 H 298.77 1.63957 -3.51766 0
M  V30 3022 H 296.871 3.31242 -1.70615 0
M  V30 3023 H 296.984 3.17765 -3.58556 0
M  V30 3024 H 295.348 1.76051 -1.8406 0
M  V30 3025 H 296.131 0.945954 -3.3001 0
M  V30 3026 N 298.576 1.31904 0.862503 0
M  V30 3027 C 299.539 1.20131 1.95195 0
M  V30 3028 C 300.539 0.126409 1.60302 0
M  V30 3029 O 301.729 0.376234 1.70089 0
M  V30 3030 C 298.861 0.845691 3.30244 0
M  V30 3031 H 300.054 2.16943 2.07064 0
M  V30 3032 H 297.607 1.15622 1.05172 0
M  V30 3033 H 298.342 -0.120957 3.24074 0
M  V30 3034 H 298.127 1.62276 3.56944 0
M  V30 3035 H 299.617 0.787418 4.10109 0
M  V30 3036 N 300.054 -1.07777 1.14986 0
M  V30 3037 C 301.47 -1.32373 0.891596 0
M  V30 3038 C 301.67 -1.9609 -0.463788 0
M  V30 3039 O 300.726 -2.21801 -1.20667 0
M  V30 3040 C 302.039 -2.21905 2.02925 0
M  V30 3041 C 303.587 -2.35367 2.06329 0
M  V30 3042 C 304.062 -3.28245 3.19405 0
M  V30 3043 N 305.553 -3.35824 3.19024 0
M  V30 3044 C 306.288 -4.07739 4.03158 0
M  V30 3045 N 305.784 -4.82306 4.97346 0
M  V30 3046 N 307.577 -4.03635 3.91197 0
M  V30 3047 H 299.728 -0.648039 2.02273 0
M  V30 3048 H 301.991 -0.348149 0.881757 0
M  V30 3049 H 301.697 -1.82342 3.0074 0
M  V30 3050 H 301.571 -3.22407 1.95789 0
M  V30 3051 H 303.958 -2.74186 1.09116 0
M  V30 3052 H 304.039 -1.34585 2.17533 0
M  V30 3053 H 303.683 -2.90146 4.16867 0
M  V30 3054 H 303.613 -4.28971 3.05437 0
M  V30 3055 H 306.104 -2.8267 2.50811 0
M  V30 3056 H 306.417 -5.34661 5.57994 0
M  V30 3057 H 304.762 -4.81337 5.01338 0
M  V30 3058 H 307.953 -3.44491 3.16928 0
M  V30 3059 H 308.126 -4.59417 4.5699 0
M  V30 3060 N 301.532 -0.945985 -1.26051 0
M  V30 3061 C 302.495 -0.463897 -2.24456 0
M  V30 3062 C 303.495 0.427655 -1.55009 0
M  V30 3063 O 304.685 0.226157 -1.72726 0
M  V30 3064 C 301.817 0.330812 -3.39291 0
M  V30 3065 H 303.01 -1.33357 -2.68619 0
M  V30 3066 H 300.563 -0.728416 -1.38289 0
M  V30 3067 H 301.298 1.21852 -3.00537 0
M  V30 3068 H 301.083 -0.308679 -3.90883 0
M  V30 3069 H 302.573 0.657865 -4.12386 0
M  V30 3070 N 303.011 1.40521 -0.713556 0
M  V30 3071 C 303.974 2.29098 -0.0684347 0
M  V30 3072 C 304.974 1.45268 0.689472 0
M  V30 3073 O 306.164 1.66205 0.521677 0
M  V30 3074 C 303.296 3.28446 0.913024 0
M  V30 3075 H 304.489 2.87645 -0.84855 0
M  V30 3076 H 302.042 1.48809 -0.47809 0
M  V30 3077 H 302.777 2.74913 1.72027 0
M  V30 3078 H 302.562 3.90327 0.372472 0
M  V30 3079 H 304.052 3.94777 1.36165 0
M  V30 3080 N 304.489 0.459591 1.5075 0
M  V30 3081 C 305.9 0.00171547 1.867 0
M  V30 3082 C 306.251 -1.39934 1.37525 0
M  V30 3083 O 305.376 -2.03523 0.735349 0
M  V30 3084 C 305.971 -0.00366298 3.388 0
M  V30 3085 C 304.53 -0.406026 3.74204 0
M  V30 3086 C 303.677 0.38673 2.7459 0
M  V30 3087 H 306.628 0.674413 1.43657 0
M  V30 3088 H 306.649 -0.808371 3.71814 0
M  V30 3089 H 306.161 1.01617 3.74561 0
M  V30 3090 H 304.262 -1.43063 3.4404 0
M  V30 3091 H 304.375 -0.115362 4.78961 0
M  V30 3092 H 302.739 -0.158019 2.54209 0
M  V30 3093 H 303.522 1.40585 3.13194 0
M  V30 3094 N 305.967 -1.56429 0.191757 0
M  V30 3095 C 306.914 -2.18936 -0.730454 0
M  V30 3096 C 307.884 -1.13557 -1.21219 0
M  V30 3097 O 309.069 -1.41794 -1.27668 0
M  V30 3098 C 306.209 -2.85013 -1.9458 0
M  V30 3099 C 305.322 -4.04909 -1.50574 0
M  V30 3100 C 304.457 -4.58853 -2.67634 0
M  V30 3101 C 303.496 -5.71114 -2.20217 0
M  V30 3102 N 302.633 -6.19478 -3.30442 0
M  V30 3103 H 307.473 -2.97389 -0.190664 0
M  V30 3104 H 305.01 -1.46869 -0.0823694 0
M  V30 3105 H 306.968 -3.21492 -2.65893 0
M  V30 3106 H 305.598 -2.09129 -2.45896 0
M  V30 3107 H 304.65 -3.74115 -0.688605 0
M  V30 3108 H 305.962 -4.86113 -1.11784 0
M  V30 3109 H 305.116 -4.97619 -3.47074 0
M  V30 3110 H 303.855 -3.76749 -3.09696 0
M  V30 3111 H 302.86 -5.31879 -1.3923 0
M  V30 3112 H 304.085 -6.55033 -1.79189 0
M  V30 3113 H 302.031 -5.40297 -3.72041 0
M  V30 3114 H 301.948 -6.95725 -2.9581 0
M  V30 3115 H 303.216 -6.62898 -4.10106 0
M  V30 3116 N 307.445 0.0818655 -1.57387 0
M  V30 3117 C 308.694 0.781681 -1.85937 0
M  V30 3118 C 309.007 1.79246 -0.782957 0
M  V30 3119 O 310.213 2.54112 -0.955987 0
M  V30 3120 C 308.669 1.44109 -3.29789 0
M  V30 3121 C 308.277 0.469396 -4.45534 0
M  V30 3122 C 310.021 2.12386 -3.67549 0
M  V30 3123 C 307.928 1.13415 -5.80423 0
M  V30 3124 H 306.858 0.295682 -0.693605 0
M  V30 3125 H 309.509 0.0348051 -1.83467 0
M  V30 3126 H 307.891 2.23588 -3.2684 0
M  V30 3127 H 309.065 -0.294856 -4.59856 0
M  V30 3128 H 307.38 -0.108383 -4.16259 0
M  V30 3129 H 309.977 2.62878 -4.65617 0
M  V30 3130 H 310.32 2.91877 -2.96839 0
M  V30 3131 H 310.853 1.39751 -3.72444 0
M  V30 3132 H 307.592 0.379771 -6.54399 0
M  V30 3133 H 307.112 1.8695 -5.69921 0
M  V30 3134 H 308.791 1.65686 -6.25426 0
M  V30 3135 N 308.923 1.53595 0.353017 0
M  V30 3136 C 309.886 1.80232 1.41594 0
M  V30 3137 C 310.886 0.673081 1.46035 0
M  V30 3138 O 312.076 0.941335 1.46576 0
M  V30 3139 C 309.208 1.93578 2.80607 0
M  V30 3140 H 310.401 2.75174 1.19244 0
M  V30 3141 H 307.954 1.44864 0.586872 0
M  V30 3142 H 308.689 1.00746 3.08254 0
M  V30 3143 H 308.474 2.75724 2.78781 0
M  V30 3144 H 309.964 2.15735 3.57558 0
M  V30 3145 N 310.401 -0.613514 1.45168 0
M  V30 3146 C 311.349 -1.74572 1.53712 0
M  V30 3147 C 312.343 -1.64426 0.407505 0
M  V30 3148 O 313.549 -1.70291 0.583176 0
M  V30 3149 H 309.924 -0.576641 0.48269 0
M  V30 3150 H 311.895 -1.64492 2.48968 0
M  V30 3151 C 310.644 -3.12943 1.51532 0
M  V30 3152 H 309.967 -3.21407 2.37776 0
M  V30 3153 H 311.407 -3.9201 1.61569 0
M  V30 3154 C 309.866 -3.36053 0.238798 0
M  V30 3155 O 310.396 -3.95837 -0.6838 0
M  V30 3156 N 308.602 -2.9028 0.136359 0
M  V30 3157 H 308.149 -2.41811 0.887999 0
M  V30 3158 H 308.107 -3.06116 -0.716944 0
M  V30 3159 N 311.879 -1.3236 -0.855495 0
M  V30 3160 C 313.127 -1.22629 -1.60644 0
M  V30 3161 C 313.448 0.212136 -1.93843 0
M  V30 3162 O 312.718 1.13666 -1.59552 0
M  V30 3163 H 311.298 -0.450882 -0.595579 0
M  V30 3164 H 313.96 -1.65871 -1.02337 0
M  V30 3165 H 313.056 -1.80832 -2.54374 0
M  V30 3166 N 313.357 1.07166 -1.15556 0
M  V30 3167 C 314.304 2.14417 -0.854055 0
M  V30 3168 C 315.274 1.64965 0.193806 0
M  V30 3169 O 316.459 1.90703 0.0609443 0
M  V30 3170 C 313.599 3.43304 -0.351574 0
M  V30 3171 C 312.712 4.06537 -1.46123 0
M  V30 3172 C 311.847 5.23266 -0.914677 0
M  V30 3173 C 310.886 5.78464 -2.00114 0
M  V30 3174 N 310.023 6.86521 -1.47083 0
M  V30 3175 H 314.863 2.39548 -1.77259 0
M  V30 3176 H 312.4 1.17543 -0.884425 0
M  V30 3177 H 314.358 4.17179 -0.0419409 0
M  V30 3178 H 312.988 3.18419 0.530037 0
M  V30 3179 H 312.04 3.30297 -1.88701 0
M  V30 3180 H 313.352 4.43567 -2.28144 0
M  V30 3181 H 312.506 6.04131 -0.557698 0
M  V30 3182 H 311.245 4.87658 -0.0636583 0
M  V30 3183 H 310.25 4.96243 -2.36692 0
M  V30 3184 H 311.475 6.16126 -2.85597 0
M  V30 3185 H 309.421 6.52849 -0.642198 0
M  V30 3186 H 309.338 7.22446 -2.22729 0
M  V30 3187 H 310.606 7.71087 -1.14215 0
M  V30 3188 N 314.835 0.952656 1.25548 0
M  V30 3189 C 315.798 0.475794 2.24207 0
M  V30 3190 C 316.798 -0.419428 1.55234 0
M  V30 3191 O 317.988 -0.216994 1.72843 0
M  V30 3192 C 315.12 -0.312814 3.39462 0
M  V30 3193 H 316.313 1.34779 2.67908 0
M  V30 3194 H 313.866 0.735739 1.37901 0
M  V30 3195 H 314.601 -1.20257 3.01179 0
M  V30 3196 H 314.386 0.329404 3.90714 0
M  V30 3197 H 315.876 -0.635986 4.12729 0
M  V30 3198 N 316.313 -1.40141 0.720998 0
M  V30 3199 C 317.276 -2.29058 0.0805834 0
M  V30 3200 C 318.276 -1.45632 -0.681758 0
M  V30 3201 O 319.466 -1.6648 -0.512856 0
M  V30 3202 C 316.598 -3.28925 -0.895593 0
M  V30 3203 H 317.791 -2.87191 0.863793 0
M  V30 3204 H 315.344 -1.48553 0.485975 0
M  V30 3205 H 316.079 -2.75822 -1.70566 0
M  V30 3206 H 315.864 -3.90519 -0.351766 0
M  V30 3207 H 317.354 -3.95494 -1.34069 0
M  V30 3208 N 317.792 -0.46758 -1.50504 0
M  V30 3209 C 319.017 0.0886943 -2.0721 0
M  V30 3210 C 319.442 1.33057 -1.32956 0
M  V30 3211 O 318.8 1.77354 -0.376197 0
M  V30 3212 C 318.848 0.359202 -3.58806 0
M  V30 3213 O 317.952 1.44034 -3.8643 0
M  V30 3214 H 317.293 -0.0114349 -0.663902 0
M  V30 3215 H 319.823 -0.657613 -1.93744 0
M  V30 3216 H 319.833 0.600742 -4.03553 0
M  V30 3217 H 318.508 -0.548311 -4.1227 0
M  V30 3218 H 317.085 1.18638 -3.53524 0
M  V30 3219 N 319.27 1.56325 -0.20005 0
M  V30 3220 C 320.495 2.02548 0.44597 0
M  V30 3221 C 320.92 1.07922 1.5406 0
M  V30 3222 O 320.278 0.0635775 1.81188 0
M  V30 3223 C 320.326 3.47175 0.974761 0
M  V30 3224 O 319.43 3.55671 2.08739 0
M  V30 3225 H 318.771 0.655862 0.103638 0
M  V30 3226 H 321.301 2.02201 -0.312381 0
M  V30 3227 H 321.311 3.87067 1.2901 0
M  V30 3228 H 319.986 4.15538 0.17347 0
M  V30 3229 H 318.563 3.27657 1.78032 0
M  V30 3230 N 320.748 -0.0735177 1.57428 0
M  V30 3231 C 321.973 -0.789787 1.91774 0
M  V30 3232 C 322.398 -1.70413 0.796306 0
M  V30 3233 O 321.756 -1.79555 -0.250961 0
M  V30 3234 C 321.804 -1.5609 3.25067 0
M  V30 3235 O 320.908 -2.67144 3.14178 0
M  V30 3236 H 320.249 -0.215582 0.628029 0
M  V30 3237 H 322.779 -0.0422781 2.04556 0
M  V30 3238 H 322.789 -1.94052 3.58898 0
M  V30 3239 H 321.464 -0.890015 4.06265 0
M  V30 3240 H 320.041 -2.32052 2.91901 0
M  V30 3241 N 322.226 -1.5378 -0.344866 0
M  V30 3242 C 323.451 -1.75211 -1.10977 0
M  V30 3243 C 323.876 -0.48936 -1.81623 0
M  V30 3244 O 323.234 0.557925 -1.72502 0
M  V30 3245 C 323.282 -2.93147 -2.09993 0
M  V30 3246 O 322.386 -2.63203 -3.17487 0
M  V30 3247 H 321.727 -0.581241 -0.321021 0
M  V30 3248 H 324.257 -2.00738 -0.395661 0
M  V30 3249 H 324.267 -3.19898 -2.53237 0
M  V30 3250 H 322.942 -3.84731 -1.5797 0
M  V30 3251 H 321.519 -2.47336 -2.79069 0
M  V30 3252 N 323.704 0.605807 -1.45491 0
M  V30 3253 C 324.929 1.39625 -1.53361 0
M  V30 3254 C 325.354 1.87351 -0.167645 0
M  V30 3255 O 324.712 1.60243 0.848051 0
M  V30 3256 C 324.76 2.57559 -2.5238 0
M  V30 3257 O 323.864 3.58248 -2.04285 0
M  V30 3258 H 323.205 0.416771 -0.516912 0
M  V30 3259 H 325.735 0.737103 -1.90861 0
M  V30 3260 H 325.745 3.0478 -2.71244 0
M  V30 3261 H 324.42 2.22171 -3.51586 0
M  V30 3262 H 322.997 3.17664 -1.95305 0
M  V30 3263 N 325.182 1.32811 0.848464 0
M  V30 3264 C 326.407 1.26882 1.6406 0
M  V30 3265 C 326.832 -0.15913 1.87426 0
M  V30 3266 O 326.19 -1.11258 1.43148 0
M  V30 3267 C 326.238 2.03997 2.97351 0
M  V30 3268 O 325.342 1.39201 3.88197 0
M  V30 3269 H 324.683 0.436982 0.499943 0
M  V30 3270 H 327.213 1.75224 1.0563 0
M  V30 3271 H 327.223 2.14403 3.47124 0
M  V30 3272 H 325.898 3.0783 2.79666 0
M  V30 3273 H 324.475 1.37381 3.46671 0
M  V30 3274 N 326.66 -1.06551 1.16123 0
M  V30 3275 C 327.885 -1.83544 0.965735 0
M  V30 3276 C 328.31 -1.81843 -0.481102 0
M  V30 3277 O 327.668 -1.21732 -1.34354 0
M  V30 3278 C 327.716 -3.28169 1.49457 0
M  V30 3279 O 326.82 -4.0643 0.699157 0
M  V30 3280 H 326.161 -0.568026 0.343864 0
M  V30 3281 H 328.691 -1.34362 1.54299 0
M  V30 3282 H 328.701 -3.78992 1.51092 0
M  V30 3283 H 327.376 -3.28722 2.54784 0
M  V30 3284 H 325.953 -3.65216 0.7531 0
M  V30 3285 N 328.138 -0.959301 -1.25041 0
M  V30 3286 C 329.363 -0.633507 -1.97488 0
M  V30 3287 C 329.788 0.788555 -1.70773 0
M  V30 3288 O 329.146 1.53394 -0.966431 0
M  V30 3289 C 329.194 -0.904057 -3.49083 0
M  V30 3290 O 328.298 0.0147939 -4.12397 0
M  V30 3291 H 327.639 -0.240368 -0.618966 0
M  V30 3292 H 330.169 -1.28717 -1.59038 0
M  V30 3293 H 330.179 -0.832203 -3.99423 0
M  V30 3294 H 328.854 -1.94048 -3.67856 0
M  V30 3295 H 327.431 -0.109664 -3.72739 0
M  V30 3296 N 329.616 1.39756 -0.72842 0
M  V30 3297 C 330.841 2.05472 -0.282159 0
M  V30 3298 C 331.266 1.54549 1.07221 0
M  V30 3299 O 330.624 0.686372 1.67805 0
M  V30 3300 C 330.672 3.59462 -0.286264 0
M  V30 3301 O 329.776 4.05918 0.728298 0
M  V30 3302 H 329.117 0.651226 -0.129618 0
M  V30 3303 H 331.647 1.78915 -0.992499 0
M  V30 3304 H 331.657 4.07798 -0.128373 0
M  V30 3305 H 330.332 3.95889 -1.27456 0
M  V30 3306 H 328.909 3.69012 0.537081 0
M  V30 3307 N 331.094 0.475555 1.50254 0
M  V30 3308 C 332.319 -0.0777042 2.07254 0
M  V30 3309 C 332.744 -1.3235 1.3366 0
M  V30 3310 O 332.102 -1.77152 0.385597 0
M  V30 3311 C 332.15 -0.340169 3.58992 0
M  V30 3312 O 331.254 -1.41982 3.87188 0
M  V30 3313 H 330.595 0.0149556 0.663832 0
M  V30 3314 H 333.125 0.667878 1.93392 0
M  V30 3315 H 333.135 -0.579332 4.03866 0
M  V30 3316 H 331.81 0.570167 4.11973 0
M  V30 3317 H 330.387 -1.16762 3.54148 0
M  V30 3318 N 332.573 -1.56217 0.208337 0
M  V30 3319 C 333.798 -2.02782 -0.435222 0
M  V30 3320 C 334.223 -1.08738 -1.53485 0
M  V30 3321 O 333.581 -0.0731855 -1.81152 0
M  V30 3322 C 333.629 -3.47687 -0.956335 0
M  V30 3323 O 332.733 -3.56773 -2.06849 0
M  V30 3324 H 332.074 -0.656403 -0.100158 0
M  V30 3325 H 334.604 -2.02033 0.3231 0
M  V30 3326 H 334.614 -3.87745 -1.26955 0
M  V30 3327 H 333.289 -4.15624 -0.15143 0
M  V30 3328 H 331.866 -3.28597 -1.76292 0
M  V30 3329 N 334.051 0.0651679 -1.57465 0
M  V30 3330 C 335.276 0.779605 -1.9219 0
M  V30 3331 C 335.701 1.69988 -0.805333 0
M  V30 3332 O 335.059 1.79685 0.241435 0
M  V30 3333 C 335.107 1.54364 -3.2589 0
M  V30 3334 O 334.211 2.65474 -3.1559 0
M  V30 3335 H 333.552 0.212249 -0.629163 0
M  V30 3336 H 336.082 0.0314294 -2.04576 0
M  V30 3337 H 336.092 1.92146 -3.59922 0
M  V30 3338 H 334.767 0.868457 -4.06732 0
M  V30 3339 H 333.344 2.30501 -2.93128 0
M  V30 3340 N 335.529 1.53961 0.336706 0
M  V30 3341 C 336.806 1.62171 1.09361 0
M  V30 3342 C 337.186 0.447263 2.06307 0
M  V30 3343 O 336.534 -0.559802 2.21537 0
M  V30 3344 C 336.744 2.98565 1.80721 0
M  V30 3345 C 338.092 3.54157 2.34218 0
M  V30 3346 O 339.116 3.00784 1.90807 0
M  V30 3347 O 337.975 4.47528 3.13657 0
M  V30 3348 H 335.069 0.6562 0.503319 0
M  V30 3349 H 337.615 1.66307 0.33765 0
M  V30 3350 H 336.387 3.75482 1.10132 0
M  V30 3351 H 336.01 2.9805 2.63158 0
M  V30 3352 N 337.007 -0.598083 1.45811 0
M  V30 3353 C 338.284 -1.35777 1.40797 0
M  V30 3354 C 338.664 -2.10935 0.083462 0
M  V30 3355 O 338.012 -2.08505 -0.934763 0
M  V30 3356 C 338.222 -2.29666 2.62783 0
M  V30 3357 C 339.57 -2.91977 3.08277 0
M  V30 3358 O 340.594 -2.39984 2.63223 0
M  V30 3359 O 339.453 -3.86376 3.86491 0
M  V30 3360 H 336.547 -0.609291 0.55919 0
M  V30 3361 H 339.093 -0.620379 1.57954 0
M  V30 3362 H 337.865 -1.73454 3.50756 0
M  V30 3363 H 337.488 -3.1077 2.48008 0
M  V30 3364 N 338.485 -1.33259 -0.841409 0
M  V30 3365 C 339.71 -1.2775 -1.63385 0
M  V30 3366 C 340.135 0.149188 -1.87507 0
M  V30 3367 O 339.493 1.10498 -1.43736 0
M  V30 3368 C 339.541 -2.05571 -2.96265 0
M  V30 3369 O 338.645 -1.41257 -3.87453 0
M  V30 3370 H 337.986 -0.439627 -0.497618 0
M  V30 3371 H 340.516 -1.75782 -1.04699 0
M  V30 3372 H 340.526 -2.16241 -3.45982 0
M  V30 3373 H 339.201 -3.09309 -2.7803 0
M  V30 3374 H 337.778 -1.39217 -3.45938 0
M  V30 3375 N 339.963 1.05934 -1.16686 0
M  V30 3376 C 340.873 2.17014 -0.891183 0
M  V30 3377 C 341.889 1.73453 0.137907 0
M  V30 3378 O 343.065 2.01361 -0.039592 0
M  V30 3379 C 340.13 3.44384 -0.400099 0
M  V30 3380 C 339.191 4.02433 -1.49486 0
M  V30 3381 C 338.424 5.23723 -1.02711 0
M  V30 3382 O 338.647 5.7027 0.121716 0
M  V30 3383 O 337.581 5.7382 -1.81699 0
M  V30 3384 H 341.407 2.43113 -1.82015 0
M  V30 3385 H 338.992 1.15541 -0.947132 0
M  V30 3386 H 340.874 4.21189 -0.133392 0
M  V30 3387 H 339.549 3.19802 0.500817 0
M  V30 3388 H 338.456 3.27102 -1.81535 0
M  V30 3389 H 339.789 4.31317 -2.37121 0
M  V30 3390 N 341.441 0.965919 1.2453 0
M  V30 3391 C 342.351 0.502154 2.29163 0
M  V30 3392 C 343.367 -0.436017 1.68448 0
M  V30 3393 O 344.543 -0.309497 1.99008 0
M  V30 3394 C 341.608 -0.201956 3.46111 0
M  V30 3395 C 340.669 0.775821 4.22232 0
M  V30 3396 C 339.902 0.105217 5.33596 0
M  V30 3397 O 340.125 -1.10683 5.59558 0
M  V30 3398 O 339.059 0.796475 5.96607 0
M  V30 3399 H 342.885 1.37194 2.70946 0
M  V30 3400 H 340.47 0.732875 1.30189 0
M  V30 3401 H 342.352 -0.597564 4.17142 0
M  V30 3402 H 341.027 -1.04673 3.06309 0
M  V30 3403 H 339.934 1.22185 3.53584 0
M  V30 3404 H 341.267 1.58896 4.65846 0
M  V30 3405 N 342.919 -1.39368 0.735821 0
M  V30 3406 C 343.829 -2.34395 0.0979693 0
M  V30 3407 C 344.845 -1.58361 -0.720968 0
M  V30 3408 O 346.021 -1.90648 -0.649245 0
M  V30 3409 C 343.086 -3.37393 -0.797916 0
M  V30 3410 C 342.147 -4.29287 0.0333662 0
M  V30 3411 C 341.38 -5.27365 -0.819854 0
M  V30 3412 O 341.603 -5.31959 -2.05855 0
M  V30 3413 O 340.537 -6.01389 -0.248079 0
M  V30 3414 H 344.363 -2.90601 0.882315 0
M  V30 3415 H 341.948 -1.40909 0.4965 0
M  V30 3416 H 343.83 -4.00505 -1.31048 0
M  V30 3417 H 342.505 -2.83571 -1.56106 0
M  V30 3418 H 341.412 -3.69395 0.591475 0
M  V30 3419 H 342.745 -4.86317 0.758752 0
M  V30 3420 N 344.397 -0.483516 -1.5 0
M  V30 3421 C 345.344 0.304164 -2.28787 0
M  V30 3422 C 346.314 0.976114 -1.34392 0
M  V30 3423 O 347.499 0.986156 -1.63339 0
M  V30 3424 C 344.639 1.37298 -3.16612 0
M  V30 3425 C 343.752 0.714561 -4.26049 0
M  V30 3426 C 342.887 1.76232 -5.01114 0
M  V30 3427 C 341.926 1.08483 -6.0241 0
M  V30 3428 N 341.063 2.076 -6.70706 0
M  V30 3429 H 345.903 -0.373981 -2.95644 0
M  V30 3430 H 343.44 -0.196275 -1.45785 0
M  V30 3431 H 345.398 2.00445 -3.65893 0
M  V30 3432 H 344.028 2.02012 -2.51776 0
M  V30 3433 H 343.08 -0.0297798 -3.80388 0
M  V30 3434 H 344.392 0.180383 -4.98474 0
M  V30 3435 H 343.546 2.46929 -5.54176 0
M  V30 3436 H 342.285 2.33033 -4.28424 0
M  V30 3437 H 341.29 0.363545 -5.48597 0
M  V30 3438 H 342.515 0.523551 -6.77079 0
M  V30 3439 H 340.461 2.63394 -6.00799 0
M  V30 3440 H 340.378 1.59201 -7.39047 0
M  V30 3441 H 341.646 2.77639 -7.2838 0
M  V30 3442 N 345.875 1.56104 -0.216619 0
M  V30 3443 C 346.838 2.18819 0.681962 0
M  V30 3444 C 347.838 1.14866 1.12528 0
M  V30 3445 O 349.028 1.40128 1.03488 0
M  V30 3446 C 346.16 2.80756 1.93362 0
M  V30 3447 H 347.353 2.99595 0.135254 0
M  V30 3448 H 344.906 1.56265 0.0330003 0
M  V30 3449 H 345.641 2.03837 2.52232 0
M  V30 3450 H 345.426 3.56876 1.62426 0
M  V30 3451 H 346.916 3.28844 2.57393 0
M  V30 3452 N 347.353 -0.0568162 1.57498 0
M  V30 3453 C 348.316 -1.05038 2.03715 0
M  V30 3454 C 349.316 -1.30709 0.936577 0
M  V30 3455 O 350.506 -1.26178 1.20103 0
M  V30 3456 C 347.638 -2.39034 2.43055 0
M  V30 3457 H 348.831 -0.651715 2.92733 0
M  V30 3458 H 346.384 -0.302947 1.53336 0
M  V30 3459 H 347.119 -2.83703 1.57108 0
M  V30 3460 H 346.904 -2.21739 3.2338 0
M  V30 3461 H 348.394 -3.10421 2.79336 0
M  V30 3462 N 348.832 -1.54138 -0.328536 0
M  V30 3463 C 349.795 -1.82462 -1.38709 0
M  V30 3464 C 350.795 -0.696229 -1.44946 0
M  V30 3465 O 351.985 -0.964535 -1.4506 0
M  V30 3466 C 349.117 -1.98018 -2.77492 0
M  V30 3467 H 350.31 -2.77037 -1.14851 0
M  V30 3468 H 347.863 -1.45779 -0.563751 0
M  V30 3469 H 348.598 -1.05637 -3.06613 0
M  V30 3470 H 348.383 -2.80124 -2.74359 0
M  V30 3471 H 349.873 -2.21396 -3.54081 0
M  V30 3472 N 350.31 0.590341 -1.46126 0
M  V30 3473 C 351.538 1.37504 -1.54597 0
M  V30 3474 C 351.953 1.87897 -0.184447 0
M  V30 3475 O 351.31 1.63192 0.816984 0
M  V30 3476 C 351.361 2.56779 -2.54454 0
M  V30 3477 O 351.082 2.08476 -3.85317 0
M  V30 3478 C 352.583 3.49427 -2.72792 0
M  V30 3479 H 349.803 0.420325 -0.523037 0
M  V30 3480 H 352.347 0.718383 -1.91467 0
M  V30 3481 H 350.502 3.1845 -2.20609 0
M  V30 3482 H 350.916 2.86097 -4.396 0
M  V30 3483 H 352.39 4.29619 -3.466 0
M  V30 3484 H 352.867 4.00876 -1.79429 0
M  V30 3485 H 353.473 2.93598 -3.07702 0
M  V30 3486 N 351.788 1.33704 0.83433 0
M  V30 3487 C 353.199 1.22813 1.4062 0
M  V30 3488 C 353.55 -0.151107 1.95617 0
M  V30 3489 O 352.675 -1.05092 1.89168 0
M  V30 3490 C 353.27 2.22355 2.55624 0
M  V30 3491 C 351.829 2.1529 3.08751 0
M  V30 3492 C 350.976 2.09589 1.8157 0
M  V30 3493 H 353.927 1.45236 0.639702 0
M  V30 3494 H 353.948 1.83391 3.33389 0
M  V30 3495 H 353.46 3.22728 2.15566 0
M  V30 3496 H 351.561 1.18235 3.53343 0
M  V30 3497 H 351.674 3.06038 3.68616 0
M  V30 3498 H 350.038 1.55134 2.02004 0
M  V30 3499 H 350.821 3.11777 1.43701 0
M  V30 3500 N 353.266 -1.05314 1.17247 0
M  V30 3501 C 354.213 -2.13031 0.888058 0
M  V30 3502 C 355.183 -1.65253 -0.167537 0
M  V30 3503 O 356.368 -1.90775 -0.0305974 0
M  V30 3504 C 353.508 -3.42702 0.406147 0
M  V30 3505 C 352.621 -4.04161 1.52572 0
M  V30 3506 C 351.756 -5.21744 0.997808 0
M  V30 3507 C 350.795 -5.75207 2.09291 0
M  V30 3508 N 349.932 -6.84094 1.57986 0
M  V30 3509 H 354.772 -2.36698 1.81048 0
M  V30 3510 H 352.309 -1.16121 0.903013 0
M  V30 3511 H 354.267 -4.17059 0.108305 0
M  V30 3512 H 352.897 -3.19222 -0.479313 0
M  V30 3513 H 351.949 -3.27253 1.93931 0
M  V30 3514 H 353.261 -4.39881 2.35172 0
M  V30 3515 H 352.415 -6.03168 0.653739 0
M  V30 3516 H 351.154 -4.87495 0.141232 0
M  V30 3517 H 350.159 -4.92414 2.44557 0
M  V30 3518 H 351.384 -6.11505 2.95362 0
M  V30 3519 H 349.33 -6.51745 0.74598 0
M  V30 3520 H 349.247 -7.18811 2.34195 0
M  V30 3521 H 350.515 -7.69172 1.26468 0
M  V30 3522 N 354.744 -0.972509 -1.24016 0
M  V30 3523 C 355.691 -0.505969 -2.25186 0
M  V30 3524 C 356.661 0.451009 -1.5986 0
M  V30 3525 O 357.846 0.360307 -1.87367 0
M  V30 3526 C 354.986 0.193089 -3.44559 0
M  V30 3527 C 354.099 -0.803222 -4.24467 0
M  V30 3528 C 353.234 -0.0797793 -5.3114 0
M  V30 3529 C 352.273 -1.06583 -6.02749 0
M  V30 3530 N 351.41 -0.372074 -7.01113 0
M  V30 3531 H 356.25 -1.37351 -2.64459 0
M  V30 3532 H 353.787 -0.688419 -1.29997 0
M  V30 3533 H 355.745 0.615125 -4.1264 0
M  V30 3534 H 354.375 1.02455 -3.06109 0
M  V30 3535 H 353.427 -1.34368 -3.55878 0
M  V30 3536 H 354.739 -1.55494 -4.73944 0
M  V30 3537 H 353.893 0.400015 -6.0538 0
M  V30 3538 H 352.632 0.704597 -4.82583 0
M  V30 3539 H 351.637 -1.55645 -5.27309 0
M  V30 3540 H 352.862 -1.85074 -6.53395 0
M  V30 3541 H 350.808 0.393238 -6.5482 0
M  V30 3542 H 350.725 -1.06258 -7.48495 0
M  V30 3543 H 351.993 0.0855932 -7.79453 0
M  V30 3544 N 356.222 1.38976 -0.743202 0
M  V30 3545 C 357.45 2.04636 -0.30525 0
M  V30 3546 C 357.865 1.56044 1.06281 0
M  V30 3547 O 357.222 0.728921 1.67311 0
M  V30 3548 C 357.273 3.60193 -0.307177 0
M  V30 3549 O 356.994 4.06998 -1.62124 0
M  V30 3550 C 358.495 4.4306 0.145928 0
M  V30 3551 H 355.715 0.65788 -0.132041 0
M  V30 3552 H 358.259 1.77866 -1.00915 0
M  V30 3553 H 356.414 3.85835 0.347898 0
M  V30 3554 H 356.828 5.01371 -1.54036 0
M  V30 3555 H 358.302 5.51921 0.0934183 0
M  V30 3556 H 358.779 4.22706 1.19231 0
M  V30 3557 H 359.385 4.22584 -0.479886 0
M  V30 3558 N 357.7 0.491464 1.49741 0
M  V30 3559 C 358.946 -0.0565092 2.02721 0
M  V30 3560 C 359.279 -1.37522 1.37118 0
M  V30 3561 O 358.554 -1.87866 0.503645 0
M  V30 3562 C 358.837 -0.219051 3.59433 0
M  V30 3563 C 358.69 1.12211 4.35579 0
M  V30 3564 C 360.009 -0.964157 4.29409 0
M  V30 3565 H 357.128 -0.0190627 0.736753 0
M  V30 3566 H 359.77 0.641021 1.7886 0
M  V30 3567 H 357.92 -0.813165 3.79895 0
M  V30 3568 H 359.592 1.75437 4.26637 0
M  V30 3569 H 357.835 1.71377 3.98513 0
M  V30 3570 H 358.506 0.961794 5.43556 0
M  V30 3571 H 360.982 -0.460378 4.13545 0
M  V30 3572 H 359.858 -1.04671 5.38828 0
M  V30 3573 H 360.119 -2.00563 3.93988 0
M  V30 3574 N 359.178 -1.55987 0.224894 0
M  V30 3575 C 360.589 -1.84553 -0.282345 0
M  V30 3576 C 360.94 -1.14634 -1.59227 0
M  V30 3577 O 360.065 -0.417155 -2.12341 0
M  V30 3578 C 360.66 -3.348 -0.519062 0
M  V30 3579 C 359.219 -3.63671 -0.970604 0
M  V30 3580 C 358.366 -2.77277 -0.0355261 0
M  V30 3581 H 361.317 -1.52245 0.448006 0
M  V30 3582 H 361.338 -3.55187 -1.36463 0
M  V30 3583 H 360.85 -3.8566 0.43449 0
M  V30 3584 H 358.951 -3.1827 -1.9374 0
M  V30 3585 H 359.064 -4.71631 -0.842698 0
M  V30 3586 H 357.428 -2.48846 -0.542927 0
M  V30 3587 H 358.211 -3.30937 0.913003 0
M  V30 3588 N 360.656 0.0484629 -1.57525 0
M  V30 3589 C 361.603 1.05504 -2.05275 0
M  V30 3590 C 362.573 1.37084 -0.937927 0
M  V30 3591 O 363.758 1.47754 -1.2072 0
M  V30 3592 C 360.898 2.35676 -2.52093 0
M  V30 3593 C 360.011 2.10423 -3.77288 0
M  V30 3594 C 359.146 3.34327 -4.12794 0
M  V30 3595 C 358.185 3.04542 -5.30962 0
M  V30 3596 N 357.322 4.20841 -5.61994 0
M  V30 3597 H 362.162 0.640885 -2.91027 0
M  V30 3598 H 359.699 0.304854 -1.43906 0
M  V30 3599 H 361.657 3.11709 -2.77297 0
M  V30 3600 H 360.287 2.7485 -1.69285 0
M  V30 3601 H 359.339 1.24976 -3.59284 0
M  V30 3602 H 360.651 1.84438 -4.63448 0
M  V30 3603 H 359.805 4.1874 -4.39024 0
M  V30 3604 H 358.544 3.63408 -3.25247 0
M  V30 3605 H 357.549 2.18528 -5.04505 0
M  V30 3606 H 358.774 2.76758 -6.20146 0
M  V30 3607 H 356.72 4.4991 -4.77406 0
M  V30 3608 H 356.637 3.98212 -6.42622 0
M  V30 3609 H 357.905 5.06184 -5.92789 0
M  V30 3610 N 362.134 1.5431 0.320358 0
M  V30 3611 C 363.081 1.83918 1.39438 0
M  V30 3612 C 364.051 0.686525 1.51248 0
M  V30 3613 O 365.236 0.933269 1.66417 0
M  V30 3614 C 362.376 2.075 2.75749 0
M  V30 3615 C 361.489 3.35177 2.72544 0
M  V30 3616 C 360.624 3.48704 4.00723 0
M  V30 3617 C 359.663 4.70244 3.91838 0
M  V30 3618 N 358.8 4.80679 5.11754 0
M  V30 3619 H 363.64 2.75544 1.13489 0
M  V30 3620 H 361.177 1.36459 0.549309 0
M  V30 3621 H 363.135 2.19166 3.54996 0
M  V30 3622 H 361.765 1.19163 3 0
M  V30 3623 H 360.817 3.32233 1.85271 0
M  V30 3624 H 362.129 4.24534 2.61863 0
M  V30 3625 H 361.283 3.59928 4.88402 0
M  V30 3626 H 360.022 2.57445 4.14214 0
M  V30 3627 H 359.027 4.59072 3.02544 0
M  V30 3628 H 360.252 5.6289 3.7991 0
M  V30 3629 H 358.198 3.92337 5.25745 0
M  V30 3630 H 358.115 5.64007 5.0342 0
M  V30 3631 H 359.383 4.96239 6.01138 0
M  V30 3632 N 363.613 -0.582584 1.46437 0
M  V30 3633 C 364.545 -1.70618 1.53043 0
M  V30 3634 C 365.558 -1.57322 0.418769 0
M  V30 3635 O 366.747 -1.64744 0.687136 0
M  V30 3636 C 363.847 -3.08869 1.39474 0
M  V30 3637 C 363.02 -3.48166 2.64762 0
M  V30 3638 C 362.079 -4.65478 2.4539 0
M  V30 3639 O 361.105 -4.71333 3.19114 0
M  V30 3640 N 362.307 -5.60365 1.51564 0
M  V30 3641 H 365.072 -1.65405 2.49923 0
M  V30 3642 H 362.633 -0.768567 1.42494 0
M  V30 3643 H 364.625 -3.85143 1.24287 0
M  V30 3644 H 363.195 -3.08449 0.507758 0
M  V30 3645 H 362.415 -2.61598 2.9489 0
M  V30 3646 H 363.703 -3.71188 3.4799 0
M  V30 3647 H 363.101 -5.5837 0.907705 0
M  V30 3648 H 361.658 -6.36068 1.4234 0
M  V30 3649 N 365.091 -1.34144 -0.827227 0
M  V30 3650 C 366.337 -1.26446 -1.58554 0
M  V30 3651 C 366.67 0.1664 -1.93486 0
M  V30 3652 O 365.945 1.1107 -1.59667 0
M  V30 3653 C 366.228 -2.15111 -2.8879 0
M  V30 3654 C 366.081 -3.66712 -2.60465 0
M  V30 3655 C 367.4 -2.03311 -3.90324 0
M  V30 3656 H 364.519 -0.46067 -0.575284 0
M  V30 3657 H 367.161 -1.64356 -0.953269 0
M  V30 3658 H 365.311 -1.8291 -3.42748 0
M  V30 3659 H 366.983 -4.09259 -2.1285 0
M  V30 3660 H 365.226 -3.88014 -1.93978 0
M  V30 3661 H 365.897 -4.24112 -3.53317 0
M  V30 3662 H 368.373 -2.31574 -3.45706 0
M  V30 3663 H 367.249 -2.67582 -4.79261 0
M  V30 3664 H 367.51 -1.00879 -4.30437 0
M  V30 3665 N 366.569 1.04691 -1.17803 0
M  V30 3666 C 367.815 1.78045 -0.970969 0
M  V30 3667 C 368.148 1.87686 0.498751 0
M  V30 3668 O 367.423 1.38035 1.37027 0
M  V30 3669 C 367.706 3.2166 -1.61884 0
M  V30 3670 C 367.559 3.20001 -3.161 0
M  V30 3671 C 368.878 4.1962 -1.3269 0
M  V30 3672 H 365.997 0.64633 -0.354155 0
M  V30 3673 H 368.639 1.22333 -1.45378 0
M  V30 3674 H 366.789 3.69232 -1.20831 0
M  V30 3675 H 368.461 2.80467 -3.66246 0
M  V30 3676 H 366.704 2.58203 -3.48588 0
M  V30 3677 H 367.375 4.21386 -3.56564 0
M  V30 3678 H 369.851 3.80567 -1.68249 0
M  V30 3679 H 368.727 5.18339 -1.80599 0
M  V30 3680 H 368.988 4.414 -0.248622 0
M  V30 3681 N 368.047 0.979072 1.23499 0
M  V30 3682 C 369.01 0.523244 2.23147 0
M  V30 3683 C 370.01 -0.386406 1.56088 0
M  V30 3684 O 371.2 -0.180283 1.73265 0
M  V30 3685 C 368.332 -0.240739 3.40049 0
M  V30 3686 H 369.525 1.40432 2.64989 0
M  V30 3687 H 367.078 0.764824 1.36309 0
M  V30 3688 H 367.813 -1.13841 3.03662 0
M  V30 3689 H 367.598 0.412207 3.89927 0
M  V30 3690 H 369.088 -0.548297 4.13985 0
M  V30 3691 N 369.525 -1.3858 0.750561 0
M  V30 3692 C 370.472 -2.30483 0.120835 0
M  V30 3693 C 371.442 -1.50022 -0.712923 0
M  V30 3694 O 372.627 -1.78662 -0.669676 0
M  V30 3695 C 369.767 -3.36431 -0.768666 0
M  V30 3696 C 368.88 -4.31927 0.0793922 0
M  V30 3697 C 368.015 -5.24944 -0.81283 0
M  V30 3698 C 367.054 -6.12088 0.0390447 0
M  V30 3699 N 366.191 -6.97412 -0.809969 0
M  V30 3700 H 371.031 -2.83761 0.91015 0
M  V30 3701 H 368.568 -1.39707 0.460463 0
M  V30 3702 H 370.526 -3.96462 -1.29898 0
M  V30 3703 H 369.156 -2.8457 -1.5238 0
M  V30 3704 H 368.208 -3.73382 0.727303 0
M  V30 3705 H 369.52 -4.93319 0.737401 0
M  V30 3706 H 368.674 -5.90078 -1.41042 0
M  V30 3707 H 367.413 -4.63911 -1.50458 0
M  V30 3708 H 366.418 -5.45952 0.649328 0
M  V30 3709 H 367.643 -6.75189 0.727809 0
M  V30 3710 H 365.589 -6.38931 -1.48672 0
M  V30 3711 H 365.506 -7.55712 -0.208789 0
M  V30 3712 H 366.774 -7.66959 -1.39263 0
M  V30 3713 N 371.003 -0.499398 -1.49478 0
M  V30 3714 C 371.966 0.268838 -2.27618 0
M  V30 3715 C 372.966 0.895383 -1.33565 0
M  V30 3716 O 374.156 0.760164 -1.56739 0
M  V30 3717 C 371.288 1.38559 -3.11471 0
M  V30 3718 H 372.481 -0.416812 -2.96989 0
M  V30 3719 H 370.034 -0.254313 -1.54217 0
M  V30 3720 H 370.769 2.10544 -2.46661 0
M  V30 3721 H 370.554 0.941797 -3.80621 0
M  V30 3722 H 372.044 1.92678 -3.70493 0
M  V30 3723 N 372.481 1.55866 -0.233164 0
M  V30 3724 C 373.892 1.847 0.272554 0
M  V30 3725 C 374.243 1.15477 1.58617 0
M  V30 3726 O 373.368 0.42841 2.12117 0
M  V30 3727 C 373.963 3.35071 0.501299 0
M  V30 3728 C 372.522 3.6418 0.951304 0
M  V30 3729 C 371.669 2.77292 0.0208209 0
M  V30 3730 H 374.62 1.52005 -0.456074 0
M  V30 3731 H 374.641 3.55906 1.34577 0
M  V30 3732 H 374.153 3.85424 -0.454936 0
M  V30 3733 H 372.254 3.19293 1.92049 0
M  V30 3734 H 372.367 4.72071 0.817675 0
M  V30 3735 H 370.731 2.49131 0.529723 0
M  V30 3736 H 371.514 3.30448 -0.93054 0
M  V30 3737 N 373.959 -0.0401083 1.57549 0
M  V30 3738 C 375.205 -0.734211 1.89043 0
M  V30 3739 C 375.538 -1.75591 0.829535 0
M  V30 3740 O 374.813 -1.93868 -0.156706 0
M  V30 3741 C 375.096 -1.41374 3.31188 0
M  V30 3742 C 374.949 -0.406299 4.47961 0
M  V30 3743 C 376.268 -2.35061 3.72068 0
M  V30 3744 H 373.387 -0.265447 0.687537 0
M  V30 3745 H 376.029 0.00294087 1.9 0
M  V30 3746 H 374.179 -2.04206 3.30503 0
M  V30 3747 H 375.851 0.219255 4.60779 0
M  V30 3748 H 374.094 0.275485 4.32924 0
M  V30 3749 H 374.765 -0.920022 5.44279 0
M  V30 3750 H 377.241 -1.82282 3.74049 0
M  V30 3751 H 376.117 -2.79593 4.72355 0
M  V30 3752 H 376.378 -3.21258 3.0372 0
M  V30 3753 N 375.437 -1.54477 -0.31217 0
M  V30 3754 C 376.384 -1.84655 -1.38461 0
M  V30 3755 C 377.354 -0.694536 -1.50882 0
M  V30 3756 O 378.539 -0.942081 -1.6592 0
M  V30 3757 C 375.679 -2.0896 -2.74645 0
M  V30 3758 C 374.792 -3.36618 -2.70763 0
M  V30 3759 C 373.927 -3.50824 -3.98868 0
M  V30 3760 C 372.966 -4.72315 -3.89339 0
M  V30 3761 N 372.103 -4.83387 -5.09197 0
M  V30 3762 H 376.943 -2.76142 -1.12026 0
M  V30 3763 H 374.48 -1.36748 -0.542065 0
M  V30 3764 H 376.438 -2.21045 -3.53829 0
M  V30 3765 H 375.068 -1.20752 -2.99364 0
M  V30 3766 H 374.12 -3.33211 -1.83506 0
M  V30 3767 H 375.432 -4.25917 -2.59608 0
M  V30 3768 H 374.586 -3.62513 -4.86486 0
M  V30 3769 H 373.325 -2.59638 -4.12843 0
M  V30 3770 H 372.33 -4.6067 -3.00105 0
M  V30 3771 H 373.555 -5.64897 -3.76919 0
M  V30 3772 H 371.501 -3.9512 -5.23657 0
M  V30 3773 H 371.418 -5.66669 -5.00422 0
M  V30 3774 H 372.686 -4.9942 -5.98498 0
M  V30 3775 N 376.915 0.57481 -1.46744 0
M  V30 3776 C 377.878 1.66533 -1.57478 0
M  V30 3777 C 378.878 1.54338 -0.451263 0
M  V30 3778 O 380.068 1.58814 -0.715813 0
M  V30 3779 C 377.2 3.05999 -1.50259 0
M  V30 3780 H 378.393 1.58372 -2.54673 0
M  V30 3781 H 375.946 0.793301 -1.34672 0
M  V30 3782 H 376.681 3.19709 -0.543725 0
M  V30 3783 H 376.466 3.16259 -2.31781 0
M  V30 3784 H 377.956 3.8537 -1.60872 0
M  V30 3785 N 378.394 1.34581 0.820102 0
M  V30 3786 C 379.357 1.2628 1.91275 0
M  V30 3787 C 380.357 0.177344 1.59819 0
M  V30 3788 O 381.547 0.430156 1.68806 0
M  V30 3789 C 378.679 0.950327 3.27386 0
M  V30 3790 H 379.872 2.23421 2.00057 0
M  V30 3791 H 377.425 1.1891 1.0144 0
M  V30 3792 H 378.16 -0.0177938 3.24295 0
M  V30 3793 H 377.945 1.73549 3.51601 0
M  V30 3794 H 379.435 0.917492 4.07396 0
M  V30 3795 N 379.872 -1.04064 1.18357 0
M  V30 3796 C 381.1 -1.80916 1.00384 0
M  V30 3797 C 381.515 -1.83414 -0.447738 0
M  V30 3798 O 380.872 -1.26962 -1.31099 0
M  V30 3799 C 380.923 -3.26516 1.55144 0
M  V30 3800 O 380.644 -3.2424 2.94618 0
M  V30 3801 C 382.145 -4.20013 1.41789 0
M  V30 3802 H 379.365 -0.569728 0.354474 0
M  V30 3803 H 381.909 -1.31151 1.56906 0
M  V30 3804 H 380.064 -3.73512 1.02798 0
M  V30 3805 H 380.478 -4.15452 3.20156 0
M  V30 3806 H 381.952 -5.20111 1.84901 0
M  V30 3807 H 382.429 -4.37667 0.36661 0
M  V30 3808 H 383.035 -3.78881 1.93207 0
M  V30 3809 N 381.35 -0.985608 -1.22978 0
M  V30 3810 C 382.578 -0.675582 -1.95559 0
M  V30 3811 C 382.993 0.758413 -1.72897 0
M  V30 3812 O 382.35 1.51094 -1.02357 0
M  V30 3813 C 382.401 -0.96293 -3.48439 0
M  V30 3814 O 382.122 -2.34057 -3.70336 0
M  V30 3815 C 383.623 -0.669585 -4.38214 0
M  V30 3816 H 380.843 -0.250523 -0.622478 0
M  V30 3817 H 383.387 -1.3184 -1.56328 0
M  V30 3818 H 381.542 -0.366033 -3.85667 0
M  V30 3819 H 381.956 -2.43424 -4.64591 0
M  V30 3820 H 383.43 -0.920967 -5.44263 0
M  V30 3821 H 383.907 0.396383 -4.37408 0
M  V30 3822 H 384.513 -1.2472 -4.06602 0
M  V30 3823 N 382.828 1.3818 -0.7579 0
M  V30 3824 C 384.239 1.82726 -0.383134 0
M  V30 3825 C 384.59 1.63214 1.08884 0
M  V30 3826 O 383.715 1.13566 1.84205 0
M  V30 3827 C 384.31 3.31728 -0.688631 0
M  V30 3828 C 382.869 3.74606 -0.367091 0
M  V30 3829 C 382.016 2.60896 -0.939599 0
M  V30 3830 H 384.967 1.26847 -0.953699 0
M  V30 3831 H 384.988 3.80487 0.0316492 0
M  V30 3832 H 384.5 3.45898 -1.76001 0
M  V30 3833 H 382.601 3.66013 0.697532 0
M  V30 3834 H 382.714 4.71215 -0.865658 0
M  V30 3835 H 381.078 2.52075 -0.3647 0
M  V30 3836 H 381.861 2.77864 -2.0161 0
M  V30 3837 N 384.306 0.507319 1.49211 0
M  V30 3838 C 385.534 -0.0315749 2.06876 0
M  V30 3839 C 385.949 -1.30241 1.36685 0
M  V30 3840 O 385.306 -1.76937 0.447152 0
M  V30 3841 C 385.357 -0.282627 3.60393 0
M  V30 3842 O 385.078 0.937835 4.27944 0
M  V30 3843 C 386.579 -0.864453 4.3479 0
M  V30 3844 H 383.799 0.0233048 0.670595 0
M  V30 3845 H 386.343 0.706484 1.91909 0
M  V30 3846 H 384.498 -0.97068 3.75042 0
M  V30 3847 H 384.912 0.704567 5.19746 0
M  V30 3848 H 386.386 -0.989664 5.43056 0
M  V30 3849 H 386.863 -1.86382 3.97692 0
M  V30 3850 H 387.469 -0.213672 4.24763 0
M  V30 3851 N 385.784 -1.5574 0.241426 0
M  V30 3852 C 387.2 -1.59196 -0.113548 0
M  V30 3853 C 387.4 -1.25852 -1.57364 0
M  V30 3854 O 386.456 -1.00322 -2.31715 0
M  V30 3855 C 387.769 -2.99814 0.230695 0
M  V30 3856 C 389.317 -3.12513 0.174547 0
M  V30 3857 C 389.792 -4.55342 0.492744 0
M  V30 3858 N 391.283 -4.61076 0.443043 0
M  V30 3859 C 392.018 -5.6956 0.662484 0
M  V30 3860 N 391.514 -6.86328 0.944761 0
M  V30 3861 N 393.307 -5.58957 0.593564 0
M  V30 3862 H 385.458 -1.75685 1.19368 0
M  V30 3863 H 387.721 -0.81756 0.479896 0
M  V30 3864 H 387.427 -3.28932 1.24485 0
M  V30 3865 H 387.301 -3.74568 -0.444833 0
M  V30 3866 H 389.688 -2.83179 -0.830277 0
M  V30 3867 H 389.769 -2.40045 0.883845 0
M  V30 3868 H 389.413 -4.85396 1.4951 0
M  V30 3869 H 389.343 -5.26062 -0.23797 0
M  V30 3870 H 391.834 -3.77179 0.233374 0
M  V30 3871 H 392.147 -7.64935 1.09977 0
M  V30 3872 H 390.492 -6.88025 0.982175 0
M  V30 3873 H 393.683 -4.66611 0.373123 0
M  V30 3874 H 393.856 -6.43433 0.767981 0
M  V30 3875 N 387.262 0.0317525 -1.57568 0
M  V30 3876 C 388.209 1.0332 -2.06382 0
M  V30 3877 C 389.179 1.36082 -0.952414 0
M  V30 3878 O 390.364 1.46466 -1.2228 0
M  V30 3879 C 387.504 2.32989 -2.54578 0
M  V30 3880 C 386.617 2.0641 -3.79498 0
M  V30 3881 C 385.752 3.2993 -4.16317 0
M  V30 3882 C 384.791 2.98893 -5.34162 0
M  V30 3883 N 383.928 4.14857 -5.66426 0
M  V30 3884 H 388.768 0.609982 -2.9169 0
M  V30 3885 H 386.305 0.289573 -1.44222 0
M  V30 3886 H 388.263 3.0875 -2.80587 0
M  V30 3887 H 386.893 2.73039 -1.7219 0
M  V30 3888 H 385.945 1.21158 -3.6059 0
M  V30 3889 H 387.257 1.79513 -4.65378 0
M  V30 3890 H 386.411 4.1406 -4.4344 0
M  V30 3891 H 385.15 3.59938 -3.29083 0
M  V30 3892 H 384.155 2.13164 -5.06795 0
M  V30 3893 H 385.38 2.70165 -6.23047 0
M  V30 3894 H 383.326 4.44821 -4.82151 0
M  V30 3895 H 383.243 3.91374 -6.4681 0
M  V30 3896 H 384.511 4.99868 -5.98124 0
M  V30 3897 N 388.74 1.54641 0.303973 0
M  V30 3898 C 389.965 1.78092 1.06292 0
M  V30 3899 C 390.39 0.537342 1.80262 0
M  V30 3900 O 389.748 -0.511993 1.7392 0
M  V30 3901 C 389.796 2.98612 2.02147 0
M  V30 3902 O 388.9 2.71528 3.10397 0
M  V30 3903 H 388.241 0.589548 0.305497 0
M  V30 3904 H 390.771 2.01716 0.3423 0
M  V30 3905 H 390.781 3.265 2.44667 0
M  V30 3906 H 389.456 3.88785 1.47714 0
M  V30 3907 H 388.033 2.54648 2.72413 0
M  V30 3908 N 390.218 -0.567019 1.47046 0
M  V30 3909 C 391.443 -1.3551 1.57009 0
M  V30 3910 C 391.868 -1.86841 0.217259 0
M  V30 3911 O 391.226 -1.62435 -0.805268 0
M  V30 3912 C 391.274 -2.50777 2.5912 0
M  V30 3913 O 390.378 -3.52706 2.13711 0
M  V30 3914 H 389.719 -0.402919 0.52778 0
M  V30 3915 H 392.249 -0.686241 1.92748 0
M  V30 3916 H 392.259 -2.97481 2.79229 0
M  V30 3917 H 390.934 -2.12771 3.57353 0
M  V30 3918 H 389.511 -3.12374 2.03659 0
M  V30 3919 N 391.696 -1.35014 -0.812953 0
M  V30 3920 C 392.921 -1.31187 -1.60639 0
M  V30 3921 C 393.346 0.109382 -1.87782 0
M  V30 3922 O 392.704 1.07424 -1.46047 0
M  V30 3923 C 392.752 -2.11809 -2.91838 0
M  V30 3924 O 391.856 -1.49444 -3.8437 0
M  V30 3925 H 391.197 -0.450084 -0.488181 0
M  V30 3926 H 393.727 -1.77963 -1.00947 0
M  V30 3927 H 393.737 -2.23531 -3.41318 0
M  V30 3928 H 392.412 -3.15137 -2.71407 0
M  V30 3929 H 390.989 -1.46524 -3.42907 0
M  V30 3930 N 393.175 1.03435 -1.18907 0
M  V30 3931 C 394.4 1.80919 -1.01406 0
M  V30 3932 C 394.825 1.83055 0.432721 0
M  V30 3933 O 394.183 1.25252 1.31079 0
M  V30 3934 C 394.231 3.24091 -1.58105 0
M  V30 3935 O 393.335 4.04434 -0.806669 0
M  V30 3936 H 392.676 0.558709 -0.358803 0
M  V30 3937 H 395.206 1.30223 -1.57807 0
M  V30 3938 H 395.216 3.74853 -1.61087 0
M  V30 3939 H 393.891 3.21851 -2.6341 0
M  V30 3940 H 392.468 3.63091 -0.849666 0
M  V30 3941 N 394.653 0.992116 1.22453 0
M  V30 3942 C 395.563 0.55065 2.28046 0
M  V30 3943 C 396.579 -0.400189 1.69335 0
M  V30 3944 O 397.755 -0.267215 1.99619 0
M  V30 3945 C 394.82 -0.128496 3.46462 0
M  V30 3946 C 393.881 0.865208 4.20491 0
M  V30 3947 C 393.114 0.218377 5.33253 0
M  V30 3948 O 393.337 -0.987894 5.6178 0
M  V30 3949 O 392.271 0.922845 5.94783 0
M  V30 3950 H 396.097 1.4291 2.67975 0
M  V30 3951 H 393.682 0.760326 1.28606 0
M  V30 3952 H 395.564 -0.508947 4.18315 0
M  V30 3953 H 394.239 -0.981526 3.0846 0
M  V30 3954 H 393.146 1.29658 3.50913 0
M  V30 3955 H 394.479 1.68741 4.62371 0
M  V30 3956 N 396.131 -1.37776 0.765217 0
M  V30 3957 C 397.408 -1.93975 0.251596 0
M  V30 3958 C 397.788 -1.69949 -1.25222 0
M  V30 3959 O 397.136 -1.04457 -2.03226 0
M  V30 3960 C 397.346 -3.43487 0.617895 0
M  V30 3961 C 398.694 -4.20564 0.584029 0
M  V30 3962 O 399.718 -3.5182 0.556888 0
M  V30 3963 O 398.577 -5.43138 0.605291 0
M  V30 3964 H 395.671 -0.82509 0.0561806 0
M  V30 3965 H 398.217 -1.47101 0.846128 0
M  V30 3966 H 396.989 -3.5453 1.65602 0
M  V30 3967 H 396.612 -3.976 -0.00403411 0
M  V30 3968 N 397.609 -0.515225 -1.4894 0
M  V30 3969 C 398.834 0.022727 -2.07388 0
M  V30 3970 C 399.259 1.2876 -1.37122 0
M  V30 3971 O 398.617 1.76067 -0.432431 0
M  V30 3972 C 398.665 0.244869 -3.59768 0
M  V30 3973 O 397.769 1.31667 -3.90817 0
M  V30 3974 H 397.11 -0.0325506 -0.663202 0
M  V30 3975 H 399.64 -0.718918 -1.91553 0
M  V30 3976 H 399.65 0.47205 -4.0526 0
M  V30 3977 H 398.325 -0.679194 -4.10317 0
M  V30 3978 H 396.902 1.07331 -3.5712 0
M  V30 3979 N 399.087 1.5561 -0.249682 0
M  V30 3980 C 400.312 2.03865 0.381305 0
M  V30 3981 C 400.737 1.12769 1.50548 0
M  V30 3982 O 400.095 0.121189 1.80895 0
M  V30 3983 C 400.143 3.50101 0.863816 0
M  V30 3984 O 399.247 3.62132 1.97318 0
M  V30 3985 H 398.588 0.658827 0.0827194 0
M  V30 3986 H 401.118 2.01105 -0.376552 0
M  V30 3987 H 401.128 3.90975 1.1663 0
M  V30 3988 H 399.803 4.1588 0.0411816 0
M  V30 3989 H 398.38 3.33155 1.67517 0
M  V30 3990 N 400.565 -0.0233959 1.57583 0
M  V30 3991 C 401.79 -0.728376 1.94189 0
M  V30 3992 C 402.215 -1.67793 0.850119 0
M  V30 3993 O 401.573 -1.80262 -0.19371 0
M  V30 3994 C 401.621 -1.45669 3.29868 0
M  V30 3995 O 400.725 -2.57013 3.22518 0
M  V30 3996 H 400.066 -0.195493 0.63457 0
M  V30 3997 H 402.596 0.0228214 2.04587 0
M  V30 3998 H 402.606 -1.82535 3.6489 0
M  V30 3999 H 401.281 -0.760314 4.08891 0
M  V30 4000 H 399.858 -2.22648 2.99136 0
M  V30 4001 N 402.043 -1.548 -0.295768 0
M  V30 4002 C 403.32 -1.65014 -1.05023 0
M  V30 4003 C 403.7 -0.501805 -2.05049 0
M  V30 4004 O 403.048 0.500869 -2.22943 0
M  V30 4005 C 403.258 -3.03252 -1.72741 0
M  V30 4006 C 404.606 -3.60242 -2.24746 0
M  V30 4007 O 405.63 -3.05737 -1.82765 0
M  V30 4008 O 404.489 -4.55687 -3.01681 0
M  V30 4009 H 401.583 -0.669314 -0.485744 0
M  V30 4010 H 404.129 -1.67144 -0.293438 0
M  V30 4011 H 402.901 -3.7827 -1.00138 0
M  V30 4012 H 402.524 -3.04922 -2.55163 0
M  V30 4013 N 403.521 0.559213 -1.47345 0
M  V30 4014 C 404.431 1.69388 -1.62311 0
M  V30 4015 C 405.447 1.6648 -0.505993 0
M  V30 4016 O 406.623 1.85964 -0.773262 0
M  V30 4017 C 403.688 3.05894 -1.63185 0
M  V30 4018 C 402.749 3.19885 -2.86307 0
M  V30 4019 C 401.982 4.49879 -2.87131 0
M  V30 4020 O 402.205 5.35217 -1.97229 0
M  V30 4021 O 401.139 4.67618 -3.78968 0
M  V30 4022 H 404.965 1.59706 -2.58317 0
M  V30 4023 H 402.55 0.728989 -1.30407 0
M  V30 4024 H 404.432 3.87133 -1.66451 0
M  V30 4025 H 403.107 3.15964 -0.70345 0
M  V30 4026 H 402.014 2.38052 -2.88587 0
M  V30 4027 H 403.347 3.14718 -3.78435 0
M  V30 4028 N 404.999 1.35443 0.805782 0
M  V30 4029 C 405.909 1.30546 1.94923 0
M  V30 4030 C 406.925 0.210233 1.72725 0
M  V30 4031 O 408.101 0.43975 1.9654 0
M  V30 4032 C 405.166 1.07782 3.29521 0
M  V30 4033 C 404.227 2.26625 3.64609 0
M  V30 4034 C 403.46 2.04938 4.92784 0
M  V30 4035 O 403.683 1.01624 5.61274 0
M  V30 4036 O 402.617 2.9232 5.26149 0
M  V30 4037 H 406.443 2.26779 2.02002 0
M  V30 4038 H 404.028 1.15823 0.943682 0
M  V30 4039 H 405.91 0.969392 4.10098 0
M  V30 4040 H 404.585 0.146003 3.23371 0
M  V30 4041 H 403.492 2.43033 2.84404 0
M  V30 4042 H 404.825 3.18257 3.75464 0
M  V30 4043 N 406.477 -1.02803 1.19454 0
M  V30 4044 C 407.387 -2.14575 0.948408 0
M  V30 4045 C 408.403 -1.73757 -0.091871 0
M  V30 4046 O 409.579 -2.01185 0.0929654 0
M  V30 4047 C 406.644 -3.43202 0.491265 0
M  V30 4048 C 405.705 -3.98328 1.60103 0
M  V30 4049 C 404.938 -5.20816 1.16561 0
M  V30 4050 O 405.161 -5.70392 0.0295238 0
M  V30 4051 O 404.095 -5.68801 1.96849 0
M  V30 4052 H 407.921 -2.38202 1.88397 0
M  V30 4053 H 405.506 -1.12989 0.977433 0
M  V30 4054 H 407.388 -4.20687 0.245015 0
M  V30 4055 H 406.063 -3.21018 -0.415851 0
M  V30 4056 H 404.97 -3.22174 1.90144 0
M  V30 4057 H 406.303 -4.24879 2.48473 0
M  V30 4058 N 407.956 -0.998596 -1.21925 0
M  V30 4059 C 408.866 -0.562736 -2.27751 0
M  V30 4060 C 409.882 0.391203 -1.69545 0
M  V30 4061 O 411.058 0.256625 -1.99758 0
M  V30 4062 C 408.123 0.11012 -3.46525 0
M  V30 4063 C 407.184 -0.887495 -4.20026 0
M  V30 4064 C 406.417 -0.246654 -5.3313 0
M  V30 4065 O 406.64 0.958088 -5.62296 0
M  V30 4066 O 405.574 -0.954374 -5.94286 0
M  V30 4067 H 409.4 -1.44329 -2.67213 0
M  V30 4068 H 406.985 -0.767135 -1.28201 0
M  V30 4069 H 408.867 0.486756 -4.18579 0
M  V30 4070 H 407.542 0.965154 -3.08976 0
M  V30 4071 H 406.449 -1.31517 -3.5022 0
M  V30 4072 H 407.782 -1.71191 -4.6147 0
M  V30 4073 N 409.434 1.37368 -0.772513 0
M  V30 4074 C 410.366 2.28899 -0.117502 0
M  V30 4075 C 411.379 1.4867 0.663405 0
M  V30 4076 O 412.568 1.71314 0.501372 0
M  V30 4077 C 409.668 3.2788 0.857192 0
M  V30 4078 C 408.841 4.37207 0.129938 0
M  V30 4079 C 407.9 5.16257 1.01811 0
M  V30 4080 O 406.926 5.67159 0.481601 0
M  V30 4081 N 408.128 5.31058 2.3443 0
M  V30 4082 H 410.893 2.85752 -0.903662 0
M  V30 4083 H 408.454 1.49353 -0.62493 0
M  V30 4084 H 410.446 3.77647 1.45482 0
M  V30 4085 H 409.016 2.7179 1.54432 0
M  V30 4086 H 408.236 3.88827 -0.648605 0
M  V30 4087 H 409.524 5.07434 -0.372559 0
M  V30 4088 H 408.922 4.91287 2.80452 0
M  V30 4089 H 407.479 5.84131 2.89197 0
M  V30 4090 N 410.912 0.523116 1.48665 0
M  V30 4091 C 411.859 -0.243398 2.29513 0
M  V30 4092 C 412.829 -0.940139 1.36933 0
M  V30 4093 O 414.014 -0.942503 1.65896 0
M  V30 4094 C 411.154 -1.28855 3.20141 0
M  V30 4095 C 410.267 -0.60135 4.27794 0
M  V30 4096 C 409.402 -1.62884 5.05611 0
M  V30 4097 C 408.441 -0.924726 6.05075 0
M  V30 4098 N 407.578 -1.89744 6.75975 0
M  V30 4099 H 412.418 0.452234 2.94549 0
M  V30 4100 H 409.955 0.234858 1.45213 0
M  V30 4101 H 411.913 -1.90674 3.71079 0
M  V30 4102 H 410.543 -1.95266 2.57043 0
M  V30 4103 H 409.595 0.130623 3.80176 0
M  V30 4104 H 410.907 -0.0481585 4.98777 0
M  V30 4105 H 410.061 -2.32149 5.60528 0
M  V30 4106 H 408.8 -2.21592 4.34452 0
M  V30 4107 H 407.805 -0.217966 5.49368 0
M  V30 4108 H 409.03 -0.343851 6.78229 0
M  V30 4109 H 406.976 -2.47373 6.07571 0
M  V30 4110 H 406.893 -1.3955 7.43009 0
M  V30 4111 H 408.161 -2.58229 7.35485 0
M  V30 4112 N 412.39 -1.55475 0.257931 0
M  V30 4113 C 413.337 -2.21837 -0.636939 0
M  V30 4114 C 414.307 -1.18596 -1.16294 0
M  V30 4115 O 415.492 -1.47081 -1.21539 0
M  V30 4116 C 412.632 -2.9301 -1.82317 0
M  V30 4117 C 411.745 -4.10931 -1.33265 0
M  V30 4118 C 410.88 -4.69791 -2.47931 0
M  V30 4119 C 409.919 -5.7994 -1.95796 0
M  V30 4120 N 409.056 -6.32935 -3.0387 0
M  V30 4121 H 413.896 -2.9793 -0.0643591 0
M  V30 4122 H 411.433 -1.47086 -0.0200031 0
M  V30 4123 H 413.391 -3.3248 -2.52018 0
M  V30 4124 H 412.021 -2.1937 -2.36805 0
M  V30 4125 H 411.073 -3.76699 -0.52931 0
M  V30 4126 H 412.385 -4.90417 -0.910654 0
M  V30 4127 H 411.539 -5.11892 -3.25656 0
M  V30 4128 H 410.278 -3.89545 -2.93438 0
M  V30 4129 H 409.283 -5.37305 -1.16546 0
M  V30 4130 H 410.508 -6.62043 -1.51246 0
M  V30 4131 H 408.454 -5.55591 -3.48791 0
M  V30 4132 H 408.371 -7.07645 -2.66035 0
M  V30 4133 H 409.639 -6.79695 -3.81621 0
M  V30 4134 N 413.868 0.0150385 -1.57593 0
M  V30 4135 C 415.279 0.559832 -1.78109 0
M  V30 4136 C 415.63 1.74814 -0.890756 0
M  V30 4137 O 414.755 2.16216 -0.0892482 0
M  V30 4138 C 415.35 1.02238 -3.23006 0
M  V30 4139 C 413.909 1.51258 -3.44671 0
M  V30 4140 C 413.056 0.456955 -2.73509 0
M  V30 4141 H 416.007 -0.211169 -1.57289 0
M  V30 4142 H 416.028 1.88912 -3.30292 0
M  V30 4143 H 415.54 0.157302 -3.87781 0
M  V30 4144 H 413.641 2.39905 -2.8509 0
M  V30 4145 H 413.754 1.55042 -4.5332 0
M  V30 4146 H 412.118 0.915196 -2.37689 0
M  V30 4147 H 412.901 -0.398896 -3.40975 0
M  V30 4148 N 415.346 1.54954 0.287554 0
M  V30 4149 C 416.279 1.81737 1.3801 0
M  V30 4150 C 417.257 0.669412 1.48181 0
M  V30 4151 O 418.441 0.910839 1.65033 0
M  V30 4152 C 415.568 1.96606 2.75796 0
M  V30 4153 C 414.614 3.19098 2.82982 0
M  V30 4154 S 415.447 4.7683 2.43707 0
M  V30 4155 C 416.603 4.94653 3.83496 0
M  V30 4156 H 416.836 2.74122 1.15085 0
M  V30 4157 H 414.369 1.46538 0.486403 0
M  V30 4158 H 416.327 2.05858 3.55152 0
M  V30 4159 H 414.988 1.05136 2.95982 0
M  V30 4160 H 414.181 3.26344 3.84077 0
M  V30 4161 H 413.783 3.08361 2.11635 0
M  V30 4162 H 416.075 4.79502 4.78628 0
M  V30 4163 H 417.018 5.96728 3.8121 0
M  V30 4164 H 417.426 4.2272 3.74123 0
M  V30 4165 N 416.824 -0.551391 1.4764 0
M  V30 4166 C 417.771 -1.65796 1.60563 0
M  V30 4167 C 418.741 -1.59932 0.448428 0
M  V30 4168 O 419.926 -1.78679 0.669222 0
M  V30 4169 C 417.066 -3.04108 1.63133 0
M  V30 4170 C 416.179 -3.20365 2.89811 0
M  V30 4171 C 415.314 -4.49109 2.8368 0
M  V30 4172 C 414.353 -4.58819 4.05156 0
M  V30 4173 N 413.49 -5.78926 3.97227 0
M  V30 4174 H 418.33 -1.54088 2.5507 0
M  V30 4175 H 415.867 -0.75052 1.26513 0
M  V30 4176 H 417.825 -3.84207 1.62606 0
M  V30 4177 H 416.455 -3.14637 0.721341 0
M  V30 4178 H 415.507 -2.33659 3.00179 0
M  V30 4179 H 416.819 -3.23402 3.79753 0
M  V30 4180 H 415.973 -5.37475 2.81434 0
M  V30 4181 H 414.712 -4.4856 1.91431 0
M  V30 4182 H 413.717 -3.68864 4.077 0
M  V30 4183 H 414.942 -4.61124 4.98539 0
M  V30 4184 H 412.888 -5.79314 3.07785 0
M  V30 4185 H 412.805 -5.83367 4.80853 0
M  V30 4186 H 414.073 -6.69637 3.99007 0
M  V30 4187 N 418.302 -1.35869 -0.798587 0
M  V30 4188 C 419.25 -1.29491 -1.93222 0
M  V30 4189 C 420.244 -0.18836 -1.6835 0
M  V30 4190 O 421.45 -0.354822 -1.76468 0
M  V30 4191 H 417.825 -0.402901 -0.63496 0
M  V30 4192 H 419.796 -2.25247 -1.9572 0
M  V30 4193 C 418.545 -1.09184 -3.30112 0
M  V30 4194 H 417.868 -1.93574 -3.49813 0
M  V30 4195 H 419.308 -1.08766 -4.09812 0
M  V30 4196 C 417.767 0.203959 -3.36282 0
M  V30 4197 O 418.297 1.19699 -3.83451 0
M  V30 4198 N 416.503 0.245488 -2.89561 0
M  V30 4199 H 416.05 -0.563223 -2.51367 0
M  V30 4200 H 416.008 1.11219 -2.94071 0
M  V30 4201 N 419.78 1.02168 -1.19998 0
M  V30 4202 C 420.727 2.10601 -0.944228 0
M  V30 4203 C 421.697 1.65639 0.123664 0
M  V30 4204 O 422.882 1.9079 -0.0199941 0
M  V30 4205 C 420.022 3.41504 -0.496865 0
M  V30 4206 C 419.135 3.99973 -1.63234 0
M  V30 4207 C 418.27 5.18915 -1.13579 0
M  V30 4208 C 417.309 5.69456 -2.24468 0
M  V30 4209 N 416.446 6.79665 -1.76068 0
M  V30 4210 H 421.286 2.31814 -1.8726 0
M  V30 4211 H 418.823 1.13686 -0.933483 0
M  V30 4212 H 420.781 4.16626 -0.218843 0
M  V30 4213 H 419.411 3.2038 0.394508 0
M  V30 4214 H 418.463 3.21997 -2.0254 0
M  V30 4215 H 419.775 4.33492 -2.46752 0
M  V30 4216 H 418.929 6.01222 -0.813429 0
M  V30 4217 H 417.668 4.8695 -0.270434 0
M  V30 4218 H 416.673 4.85757 -2.57526 0
M  V30 4219 H 417.898 6.03459 -3.11472 0
M  V30 4220 H 415.844 6.49538 -0.918516 0
M  V30 4221 H 415.761 7.12349 -2.5317 0
M  V30 4222 H 417.029 7.65549 -1.46817 0
M  V30 4223 N 421.258 1.00505 1.21394 0
M  V30 4224 C 422.669 0.721082 1.72213 0
M  V30 4225 C 423.02 -0.761263 1.80829 0
M  V30 4226 O 422.145 -1.59464 1.46288 0
M  V30 4227 C 422.74 1.30228 3.12772 0
M  V30 4228 C 421.299 1.06743 3.60947 0
M  V30 4229 C 420.446 1.41507 2.38477 0
M  V30 4230 H 423.397 1.17594 1.06571 0
M  V30 4231 H 423.418 0.686955 3.74247 0
M  V30 4232 H 422.93 2.38115 3.06468 0
M  V30 4233 H 421.031 0.00572162 3.726 0
M  V30 4234 H 421.144 1.73936 4.46411 0
M  V30 4235 H 419.508 0.833852 2.40664 0
M  V30 4236 H 420.291 2.50424 2.34824 0
M  V30 4237 N 422.737 -1.36956 0.779787 0
M  V30 4238 C 423.985 -1.99097 0.347079 0
M  V30 4239 C 424.306 -1.62206 -1.08232 0
M  V30 4240 O 423.576 -0.891373 -1.74446 0
M  V30 4241 H 422.156 -0.736409 0.125342 0
M  V30 4242 H 424.818 -1.67308 0.999696 0
M  V30 4243 H 423.914 -3.09107 0.431162 0
M  V30 4244 N 424.215 -0.530993 -1.48385 0
M  V30 4245 C 425.626 -0.0907905 -1.86479 0
M  V30 4246 C 425.977 1.33213 -1.44044 0
M  V30 4247 O 425.102 1.99783 -0.831615 0
M  V30 4248 C 425.697 -0.157987 -3.38431 0
M  V30 4249 C 424.256 0.227026 -3.75715 0
M  V30 4250 C 423.403 -0.5173 -2.72432 0
M  V30 4251 H 426.354 -0.742186 -1.40276 0
M  V30 4252 H 426.375 0.630053 -3.75247 0
M  V30 4253 H 425.887 -1.19372 -3.69286 0
M  V30 4254 H 423.988 1.26486 -3.50474 0
M  V30 4255 H 424.101 -0.113288 -4.78966 0
M  V30 4256 H 422.465 0.0365527 -2.54674 0
M  V30 4257 H 423.248 -1.55368 -3.0613 0
M  V30 4258 N 425.693 1.55336 -0.266172 0
M  V30 4259 C 426.923 2.03506 0.356239 0
M  V30 4260 C 427.331 1.14426 1.50676 0
M  V30 4261 O 426.674 0.155043 1.83045 0
M  V30 4262 C 426.736 3.47848 0.90785 0
M  V30 4263 C 426.4 4.56861 -0.112888 0
M  V30 4264 C 427.397 5.11528 -0.929264 0
M  V30 4265 C 425.082 5.01704 -0.244546 0
M  V30 4266 C 427.076 6.09549 -1.86357 0
M  V30 4267 C 424.763 5.99553 -1.18234 0
M  V30 4268 C 425.761 6.53356 -1.99036 0
M  V30 4269 O 425.449 7.49293 -2.91231 0
M  V30 4270 H 425.181 0.670444 0.08649 0
M  V30 4271 H 427.735 2.01598 -0.39337 0
M  V30 4272 H 425.965 3.46967 1.70737 0
M  V30 4273 H 427.654 3.79407 1.44239 0
M  V30 4274 H 428.42 4.77701 -0.838237 0
M  V30 4275 H 424.299 4.59477 0.374359 0
M  V30 4276 H 427.843 6.51469 -2.49467 0
M  V30 4277 H 423.74 6.32799 -1.27421 0
M  V30 4278 H 424.508 7.66978 -2.8581 0
M  V30 4279 N 427.171 -0.0066808 1.57599 0
M  V30 4280 C 428.396 -0.707738 1.94951 0
M  V30 4281 C 428.821 -1.66882 0.867868 0
M  V30 4282 O 428.179 -1.80457 -0.17458 0
M  V30 4283 C 428.227 -1.42162 3.31394 0
M  V30 4284 O 427.331 -2.53578 3.25226 0
M  V30 4285 H 426.672 -0.188752 0.636607 0
M  V30 4286 H 429.202 0.0445193 2.04552 0
M  V30 4287 H 429.212 -1.78655 3.66806 0
M  V30 4288 H 427.887 -0.716903 4.09675 0
M  V30 4289 H 426.464 -2.19463 3.01481 0
M  V30 4290 N 428.649 -1.55105 -0.279332 0
M  V30 4291 C 429.874 -1.7976 -1.03446 0
M  V30 4292 C 430.299 -0.565952 -1.79384 0
M  V30 4293 O 429.657 0.484259 -1.74713 0
M  V30 4294 C 429.705 -3.0179 -1.97371 0
M  V30 4295 O 428.809 -2.76432 -3.06038 0
M  V30 4296 H 428.15 -0.594334 -0.29608 0
M  V30 4297 H 430.68 -2.02235 -0.310165 0
M  V30 4298 H 430.69 -3.30351 -2.39441 0
M  V30 4299 H 429.365 -3.91085 -1.4151 0
M  V30 4300 H 427.942 -2.58949 -2.68328 0
M  V30 4301 N 430.127 0.543554 -1.4793 0
M  V30 4302 C 431.373 1.30201 -1.55485 0
M  V30 4303 C 431.706 1.92925 -0.222201 0
M  V30 4304 O 430.981 1.78586 0.77053 0
M  V30 4305 C 431.264 2.40174 -2.68307 0
M  V30 4306 C 431.117 1.8223 -4.11233 0
M  V30 4307 C 432.436 3.42024 -2.76961 0
M  V30 4308 H 429.555 0.472036 -0.565996 0
M  V30 4309 H 432.197 0.606914 -1.80046 0
M  V30 4310 H 430.347 2.99463 -2.47495 0
M  V30 4311 H 432.019 1.27096 -4.43446 0
M  V30 4312 H 430.262 1.12832 -4.18869 0
M  V30 4313 H 430.933 2.61793 -4.85972 0
M  V30 4314 H 433.409 2.92672 -2.95774 0
M  V30 4315 H 432.285 4.16383 -3.57654 0
M  V30 4316 H 432.546 4.0173 -1.84568 0
M  V30 4317 N 431.605 1.3629 0.791371 0
M  V30 4318 C 433.016 1.27225 1.36641 0
M  V30 4319 C 433.367 -0.0887968 1.95999 0
M  V30 4320 O 432.492 -0.990207 1.92416 0
M  V30 4321 C 433.087 2.30375 2.48421 0
M  V30 4322 C 431.646 2.25004 3.01746 0
M  V30 4323 C 430.793 2.15259 1.7481 0
M  V30 4324 H 433.744 1.47198 0.593173 0
M  V30 4325 H 433.765 1.93905 3.27385 0
M  V30 4326 H 433.277 3.29422 2.05189 0
M  V30 4327 H 431.378 1.29417 3.49403 0
M  V30 4328 H 431.491 3.1761 3.58693 0
M  V30 4329 H 429.855 1.61482 1.96966 0
M  V30 4330 H 430.638 3.16191 1.33709 0
M  V30 4331 N 433.083 -1.0153 1.20538 0
M  V30 4332 C 434.494 -1.56598 1.01657 0
M  V30 4333 C 434.845 -1.91505 -0.426668 0
M  V30 4334 O 433.97 -1.72375 -1.30827 0
M  V30 4335 C 434.565 -2.84542 1.83905 0
M  V30 4336 C 433.124 -3.36133 1.69386 0
M  V30 4337 C 432.271 -2.09427 1.81757 0
M  V30 4338 H 435.222 -0.838974 1.34711 0
M  V30 4339 H 435.243 -3.56004 1.34319 0
M  V30 4340 H 434.755 -2.59105 2.8894 0
M  V30 4341 H 432.856 -3.66528 0.669933 0
M  V30 4342 H 432.969 -4.08248 2.50739 0
M  V30 4343 H 431.333 -2.21941 1.24957 0
M  V30 4344 H 432.116 -1.86414 2.88279 0
M  V30 4345 N 434.561 -1.01147 -1.20859 0
M  V30 4346 C 435.972 -0.730205 -1.71828 0
M  V30 4347 C 436.323 0.751662 -1.8123 0
M  V30 4348 O 435.448 1.58686 -1.47132 0
M  V30 4349 C 436.043 -1.31885 -3.12077 0
M  V30 4350 C 434.602 -1.08656 -3.60376 0
M  V30 4351 C 433.749 -1.42769 -2.37723 0
M  V30 4352 H 436.7 -1.18158 -1.05945 0
M  V30 4353 H 436.721 -0.706793 -3.73878 0
M  V30 4354 H 436.233 -2.39737 -3.05201 0
M  V30 4355 H 434.334 -0.0254814 -3.72591 0
M  V30 4356 H 434.447 -1.76301 -4.45483 0
M  V30 4357 H 432.811 -0.846603 -2.40218 0
M  V30 4358 H 433.594 -2.51666 -2.33493 0
M  V30 4359 N 436.039 1.36541 -0.78704 0
M  V30 4360 C 437.264 2.0409 -0.369053 0
M  V30 4361 C 437.689 1.58957 1.00569 0
M  V30 4362 O 437.047 0.756926 1.64743 0
M  V30 4363 C 437.095 3.57924 -0.438466 0
M  V30 4364 O 436.199 4.08642 0.555479 0
M  V30 4365 H 435.54 0.645142 -0.157122 0
M  V30 4366 H 438.07 1.74545 -1.06749 0
M  V30 4367 H 438.08 4.06887 -0.301218 0
M  V30 4368 H 436.755 3.90127 -1.44132 0
M  V30 4369 H 435.332 3.70958 0.380088 0
M  V30 4370 N 437.518 0.538854 1.48102 0
M  V30 4371 C 438.481 -0.208395 2.28251 0
M  V30 4372 C 439.481 -0.859656 1.35892 0
M  V30 4373 O 440.671 -0.71834 1.58699 0
M  V30 4374 C 437.803 -1.30252 3.15035 0
M  V30 4375 H 438.996 0.495407 2.9578 0
M  V30 4376 H 436.549 0.295112 1.53489 0
M  V30 4377 H 437.284 -2.0393 2.52157 0
M  V30 4378 H 437.069 -0.840551 3.82985 0
M  V30 4379 H 438.559 -1.82787 3.75471 0
M  V30 4380 N 438.996 -1.55193 0.274407 0
M  V30 4381 C 440.407 -1.85358 -0.223488 0
M  V30 4382 C 440.758 -1.19642 -1.555 0
M  V30 4383 O 439.883 -0.484498 -2.10907 0
M  V30 4384 C 440.478 -3.36282 -0.412285 0
M  V30 4385 C 439.037 -3.66574 -0.854413 0
M  V30 4386 C 438.184 -2.7725 0.0527056 0
M  V30 4387 H 441.135 -1.50743 0.496215 0
M  V30 4388 H 441.156 -3.59349 -1.25094 0
M  V30 4389 H 440.668 -3.84083 0.556965 0
M  V30 4390 H 438.769 -3.24273 -1.83516 0
M  V30 4391 H 438.882 -4.74073 -0.692226 0
M  V30 4392 H 437.246 -2.50447 -0.463484 0
M  V30 4393 H 438.029 -3.27865 1.01783 0
M  V30 4394 N 440.474 -0.00167713 -1.576 0
M  V30 4395 C 441.885 0.54091 -1.78693 0
M  V30 4396 C 442.236 1.7386 -0.909247 0
M  V30 4397 O 441.361 2.16109 -0.112176 0
M  V30 4398 C 441.956 0.98806 -3.24072 0
M  V30 4399 C 440.515 1.47594 -3.46256 0
M  V30 4400 C 439.662 0.42792 -2.73978 0
M  V30 4401 H 442.613 -0.22784 -1.57056 0
M  V30 4402 H 442.634 1.85398 -3.32277 0
M  V30 4403 H 442.146 0.116164 -3.87926 0
M  V30 4404 H 440.247 2.36868 -2.87618 0
M  V30 4405 H 440.36 1.50225 -4.54939 0
M  V30 4406 H 438.724 0.889934 -2.38647 0
M  V30 4407 H 439.507 -0.435038 -3.40532 0
M  V30 4408 N 441.952 1.55251 0.271103 0
M  V30 4409 C 443.363 1.66635 0.842007 0
M  V30 4410 C 443.714 0.594631 1.86972 0
M  V30 4411 O 442.839 -0.263532 2.14789 0
M  V30 4412 C 443.434 3.02082 1.53401 0
M  V30 4413 C 441.993 3.15487 2.05293 0
M  V30 4414 C 441.14 2.62438 0.895631 0
M  V30 4415 H 444.091 1.58629 0.0474117 0
M  V30 4416 H 444.112 2.95176 2.40107 0
M  V30 4417 H 443.624 3.80062 0.785786 0
M  V30 4418 H 441.725 2.42284 2.83071 0
M  V30 4419 H 441.838 4.22075 2.26693 0
M  V30 4420 H 440.202 2.19644 1.28953 0
M  V30 4421 H 440.985 3.42923 0.160878 0
M  V30 4422 N 443.43 -0.535701 1.48216 0
M  V30 4423 C 444.377 -1.64083 1.62312 0
M  V30 4424 C 445.347 -1.59448 0.465365 0
M  V30 4425 O 446.532 -1.77959 0.688135 0
M  V30 4426 C 443.672 -3.0236 1.66349 0
M  V30 4427 C 442.785 -3.17273 2.93193 0
M  V30 4428 C 441.92 -4.46075 2.88427 0
M  V30 4429 C 440.959 -4.54496 4.1 0
M  V30 4430 N 440.096 -5.7468 4.03345 0
M  V30 4431 H 444.936 -1.51374 2.5669 0
M  V30 4432 H 442.473 -0.737059 1.27302 0
M  V30 4433 H 444.431 -3.82461 1.66672 0
M  V30 4434 H 443.061 -3.13854 0.754672 0
M  V30 4435 H 442.113 -2.30462 3.02641 0
M  V30 4436 H 443.425 -3.19357 3.83162 0
M  V30 4437 H 442.579 -5.3446 2.87119 0
M  V30 4438 H 441.318 -4.46504 1.96177 0
M  V30 4439 H 440.323 -3.64519 4.11589 0
M  V30 4440 H 441.548 -4.5581 5.03402 0
M  V30 4441 H 439.494 -5.76017 3.13912 0
M  V30 4442 H 439.411 -5.78234 4.87013 0
M  V30 4443 H 440.679 -6.65367 4.06087 0
M  V30 4444 N 444.908 -1.36708 -0.784132 0
M  V30 4445 C 445.855 -1.31466 -1.89698 0
M  V30 4446 C 446.825 -0.18239 -1.65096 0
M  V30 4447 O 448.01 -0.369762 -1.87183 0
M  V30 4448 C 445.15 -1.1151 -3.26588 0
M  V30 4449 C 444.263 -2.33859 -3.63227 0
M  V30 4450 C 443.398 -2.06873 -4.89262 0
M  V30 4451 C 442.437 -3.25154 -5.18595 0
M  V30 4452 N 441.574 -2.978 -6.35814 0
M  V30 4453 H 446.414 -2.26619 -1.93515 0
M  V30 4454 H 443.951 -1.12625 -0.946256 0
M  V30 4455 H 445.909 -0.979653 -4.05535 0
M  V30 4456 H 444.539 -0.200103 -3.22179 0
M  V30 4457 H 443.591 -2.58188 -2.79362 0
M  V30 4458 H 444.903 -3.22109 -3.8085 0
M  V30 4459 H 444.057 -1.90289 -5.76086 0
M  V30 4460 H 442.796 -1.15942 -4.73718 0
M  V30 4461 H 441.801 -3.42292 -4.30251 0
M  V30 4462 H 443.026 -4.1692 -5.36055 0
M  V30 4463 H 440.972 -2.09485 -6.21653 0
M  V30 4464 H 440.889 -3.7959 -6.53794 0
M  V30 4465 H 442.157 -2.84805 -7.25607 0
M  V30 4466 N 446.386 1.0089 -1.21074 0
M  V30 4467 C 447.611 1.78727 -1.05221 0
M  V30 4468 C 448.036 1.83932 0.393795 0
M  V30 4469 O 447.394 1.28004 1.28393 0
M  V30 4470 C 447.442 3.20665 -1.64944 0
M  V30 4471 O 446.546 4.02632 -0.892273 0
M  V30 4472 H 445.887 0.550973 -0.370574 0
M  V30 4473 H 448.417 1.26847 -1.60534 0
M  V30 4474 H 448.427 3.71352 -1.69002 0
M  V30 4475 H 447.102 3.16191 -2.70177 0
M  V30 4476 H 445.679 3.61207 -0.926492 0
M  V30 4477 N 447.864 1.01787 1.20321 0
M  V30 4478 C 448.794 0.609625 2.25401 0
M  V30 4479 C 449.775 -0.375951 1.65893 0
M  V30 4480 O 450.96 -0.261101 1.92437 0
M  V30 4481 C 448.09 -0.0515995 3.47262 0
M  V30 4482 C 447.044 0.855095 4.19371 0
M  V30 4483 C 446.37 0.0595757 5.34667 0
M  V30 4484 C 447.67 2.16374 4.75373 0
M  V30 4485 H 449.364 1.48803 2.59804 0
M  V30 4486 H 446.91 0.716934 1.24884 0
M  V30 4487 H 448.863 -0.348764 4.19954 0
M  V30 4488 H 447.587 -0.964726 3.12027 0
M  V30 4489 H 446.246 1.13628 3.48546 0
M  V30 4490 H 445.894 -0.85524 4.95676 0
M  V30 4491 H 445.594 0.663406 5.83843 0
M  V30 4492 H 447.118 -0.231105 6.10162 0
M  V30 4493 H 448.532 1.92885 5.39878 0
M  V30 4494 H 446.929 2.71853 5.34991 0
M  V30 4495 H 447.999 2.82589 3.94045 0
M  V30 4496 N 449.342 -1.36122 0.79427 0
M  V30 4497 C 450.59 -1.98718 0.368177 0
M  V30 4498 C 450.911 -1.63345 -1.06506 0
M  V30 4499 O 450.181 -0.909825 -1.73491 0
M  V30 4500 H 448.761 -0.735038 0.133146 0
M  V30 4501 H 451.423 -1.66239 1.01739 0
M  V30 4502 H 450.519 -3.08633 0.463923 0
M  V30 4503 N 450.82 -0.546701 -1.47814 0
M  V30 4504 C 452.048 -0.0232857 -2.06887 0
M  V30 4505 C 452.463 1.26571 -1.4009 0
M  V30 4506 O 451.82 1.7569 -0.493906 0
M  V30 4507 C 451.871 0.186975 -3.61016 0
M  V30 4508 O 451.592 -1.05097 -4.25307 0
M  V30 4509 C 453.093 0.748872 -4.36929 0
M  V30 4510 H 450.313 -0.0410763 -0.669742 0
M  V30 4511 H 452.857 -0.757117 -1.89968 0
M  V30 4512 H 451.012 0.870903 -3.77484 0
M  V30 4513 H 451.426 -0.842121 -5.17695 0
M  V30 4514 H 452.9 0.845334 -5.45489 0
M  V30 4515 H 453.377 1.75772 -4.02493 0
M  V30 4516 H 453.983 0.100979 -4.2518 0
M  V30 4517 N 452.299 1.55045 -0.282633 0
M  V30 4518 C 453.231 2.2023 0.634924 0
M  V30 4519 C 454.244 1.18931 1.11172 0
M  V30 4520 O 455.433 1.4562 1.03233 0
M  V30 4521 C 452.533 2.82041 1.87899 0
M  V30 4522 C 451.706 4.091 1.54776 0
M  V30 4523 C 450.765 4.54887 2.64507 0
M  V30 4524 O 449.791 5.20496 2.30375 0
M  V30 4525 N 450.993 4.25659 3.94709 0
M  V30 4526 H 453.758 2.99601 0.0769811 0
M  V30 4527 H 451.319 1.61565 -0.104048 0
M  V30 4528 H 453.311 3.09613 2.60619 0
M  V30 4529 H 451.881 2.06618 2.3458 0
M  V30 4530 H 451.101 3.88736 0.654049 0
M  V30 4531 H 452.389 4.9187 1.30158 0
M  V30 4532 H 451.787 3.7306 4.25256 0
M  V30 4533 H 450.344 4.57984 4.63782 0
M  V30 4534 N 453.777 0.010035 1.57597 0
M  V30 4535 C 455.188 -0.531426 1.78977 0
M  V30 4536 C 455.539 -1.73375 0.918454 0
M  V30 4537 O 454.664 -2.16047 0.123635 0
M  V30 4538 C 455.259 -0.97086 3.24592 0
M  V30 4539 C 453.818 -1.45756 3.47033 0
M  V30 4540 C 452.965 -0.413384 2.74201 0
M  V30 4541 H 455.916 0.236166 1.56933 0
M  V30 4542 H 455.937 -1.83633 3.33255 0
M  V30 4543 H 455.449 -0.0955893 3.87982 0
M  V30 4544 H 453.55 -2.35339 2.88871 0
M  V30 4545 H 453.663 -1.4781 4.55729 0
M  V30 4546 H 452.027 -0.877266 2.39115 0
M  V30 4547 H 452.81 0.453092 3.40297 0
M  V30 4548 N 455.255 -1.55392 -0.262866 0
M  V30 4549 C 456.666 -1.67079 -0.833158 0
M  V30 4550 C 457.017 -0.604539 -1.86654 0
M  V30 4551 O 456.142 0.252138 -2.14926 0
M  V30 4552 C 456.737 -3.02891 -1.51797 0
M  V30 4553 C 455.296 -3.16571 -2.03617 0
M  V30 4554 C 454.443 -2.62909 -0.881701 0
M  V30 4555 H 457.394 -1.58652 -0.0389986 0
M  V30 4556 H 457.415 -2.96445 -2.38538 0
M  V30 4557 H 456.927 -3.80473 -0.765619 0
M  V30 4558 H 455.028 -2.43782 -2.81782 0
M  V30 4559 H 455.141 -4.23271 -2.24452 0
M  V30 4560 H 453.505 -2.20324 -1.27786 0
M  V30 4561 H 454.288 -3.43003 -0.14269 0
M  V30 4562 N 456.733 0.527833 -1.48498 0
M  V30 4563 C 457.68 1.6322 -1.6318 0
M  V30 4564 C 458.65 1.59199 -0.473815 0
M  V30 4565 O 459.835 1.77591 -0.697563 0
M  V30 4566 C 456.975 3.01474 -1.67951 0
M  V30 4567 C 456.088 3.15713 -2.94871 0
M  V30 4568 C 455.223 4.44539 -2.90789 0
M  V30 4569 C 454.262 4.52315 -4.12404 0
M  V30 4570 N 453.399 5.72533 -4.06387 0
M  V30 4571 H 458.239 1.50011 -2.57489 0
M  V30 4572 H 455.776 0.730298 -1.27691 0
M  V30 4573 H 457.734 3.81572 -1.68698 0
M  V30 4574 H 456.364 3.1345 -0.771306 0
M  V30 4575 H 455.416 2.28854 -3.03859 0
M  V30 4576 H 456.728 3.1732 -3.8485 0
M  V30 4577 H 455.882 5.3293 -2.89949 0
M  V30 4578 H 454.621 4.45457 -1.98542 0
M  V30 4579 H 453.626 3.62331 -4.13517 0
M  V30 4580 H 454.851 4.53134 -5.05812 0
M  V30 4581 H 452.797 5.74344 -3.16962 0
M  V30 4582 H 452.714 5.75643 -4.90073 0
M  V30 4583 H 453.982 6.63204 -4.0961 0
M  V30 4584 N 458.211 1.37122 0.776871 0
M  V30 4585 C 459.158 1.3247 1.88998 0
M  V30 4586 C 460.128 0.191143 1.64997 0
M  V30 4587 O 461.313 0.379683 1.86984 0
M  V30 4588 C 458.453 1.13241 3.25992 0
M  V30 4589 C 457.566 2.35782 3.61982 0
M  V30 4590 C 456.701 2.09465 4.88158 0
M  V30 4591 C 455.74 3.279 5.16864 0
M  V30 4592 N 454.877 3.01167 6.34226 0
M  V30 4593 H 459.717 2.27642 1.9231 0
M  V30 4594 H 457.254 1.13125 0.94027 0
M  V30 4595 H 459.212 1.00115 4.0501 0
M  V30 4596 H 457.842 0.217186 3.22069 0
M  V30 4597 H 456.894 2.59666 2.77989 0
M  V30 4598 H 458.206 3.24125 3.79137 0
M  V30 4599 H 457.36 1.93341 5.75069 0
M  V30 4600 H 456.099 1.18452 4.73097 0
M  V30 4601 H 455.104 3.44569 4.2843 0
M  V30 4602 H 456.329 4.19757 5.33836 0
M  V30 4603 H 454.275 2.12779 6.20533 0
M  V30 4604 H 454.192 3.83052 6.51772 0
M  V30 4605 H 455.46 2.88649 7.24087 0
M  V30 4606 N 459.689 -1.00246 1.21608 0
M  V30 4607 C 460.652 -2.07233 0.979133 0
M  V30 4608 C 461.652 -1.6072 -0.0508219 0
M  V30 4609 O 462.842 -1.73196 0.186712 0
M  V30 4610 C 459.974 -3.37546 0.477016 0
M  V30 4611 H 461.167 -2.29687 1.92831 0
M  V30 4612 H 458.72 -1.17261 1.03342 0
M  V30 4613 H 459.455 -3.20773 -0.476966 0
M  V30 4614 H 459.24 -3.72638 1.21997 0
M  V30 4615 H 460.73 -4.16285 0.331181 0
M  V30 4616 N 461.167 -1.02423 -1.1978 0
M  V30 4617 C 462.413 -0.719051 -1.89625 0
M  V30 4618 C 462.746 0.750083 -1.7913 0
M  V30 4619 O 462.021 1.54574 -1.18056 0
M  V30 4620 C 462.304 -1.16499 -3.40735 0
M  V30 4621 C 462.157 -2.695 -3.60125 0
M  V30 4622 C 463.476 -0.742166 -4.33797 0
M  V30 4623 H 460.595 -0.26269 -0.688595 0
M  V30 4624 H 463.237 -1.27333 -1.41018 0
M  V30 4625 H 461.387 -0.69341 -3.82262 0
M  V30 4626 H 463.059 -3.24569 -3.278 0
M  V30 4627 H 461.302 -3.10113 -3.03336 0
M  V30 4628 H 461.973 -2.95757 -4.66081 0
M  V30 4629 H 464.449 -1.1477 -3.99959 0
M  V30 4630 H 463.325 -1.08213 -5.38127 0
M  V30 4631 H 463.586 0.355747 -4.40666 0
M  V30 4632 N 462.645 1.35699 -0.801477 0
M  V30 4633 C 463.555 2.33661 -0.209691 0
M  V30 4634 C 464.571 1.6162 0.644591 0
M  V30 4635 O 465.747 1.93529 0.557545 0
M  V30 4636 C 462.812 3.40816 0.636033 0
M  V30 4637 C 461.873 4.28639 -0.238147 0
M  V30 4638 C 461.106 5.30676 0.567307 0
M  V30 4639 O 461.329 5.41174 1.8024 0
M  V30 4640 O 460.263 6.01887 -0.0391336 0
M  V30 4641 H 464.089 2.8606 -1.01996 0
M  V30 4642 H 461.674 1.38379 -0.563164 0
M  V30 4643 H 463.556 4.06301 1.11791 0
M  V30 4644 H 462.231 2.90696 1.42399 0
M  V30 4645 H 461.138 3.66152 -0.767044 0
M  V30 4646 H 462.471 4.82143 -0.989915 0
M  V30 4647 N 464.123 0.554532 1.47522 0
M  V30 4648 C 465.07 -0.19466 2.29978 0
M  V30 4649 C 466.04 -0.910882 1.38896 0
M  V30 4650 O 467.225 -0.907102 1.67858 0
M  V30 4651 C 464.365 -1.22035 3.22802 0
M  V30 4652 C 463.478 -0.510474 4.28973 0
M  V30 4653 C 462.613 -1.52123 5.08952 0
M  V30 4654 C 461.652 -0.796173 6.069 0
M  V30 4655 N 460.789 -1.75363 6.79847 0
M  V30 4656 H 465.629 0.51461 2.93523 0
M  V30 4657 H 463.166 0.265607 1.44682 0
M  V30 4658 H 465.124 -1.8276 3.7504 0
M  V30 4659 H 463.754 -1.89769 2.61127 0
M  V30 4660 H 462.806 0.211234 3.79813 0
M  V30 4661 H 464.118 0.0576503 4.98767 0
M  V30 4662 H 463.272 -2.20207 5.65326 0
M  V30 4663 H 462.011 -2.12327 4.39054 0
M  V30 4664 H 461.016 -0.101388 5.49707 0
M  V30 4665 H 462.241 -0.199911 6.78806 0
M  V30 4666 H 460.187 -2.3443 6.12682 0
M  V30 4667 H 460.104 -1.23759 7.45801 0
M  V30 4668 H 461.372 -2.4257 7.40797 0
M  V30 4669 N 465.601 -1.54893 0.290851 0
M  V30 4670 C 466.533 -2.20564 -0.623236 0
M  V30 4671 C 467.546 -1.19519 -1.1054 0
M  V30 4672 O 468.735 -1.46165 -1.02459 0
M  V30 4673 C 465.835 -2.83033 -1.86401 0
M  V30 4674 C 465.008 -4.09916 -1.52604 0
M  V30 4675 C 464.067 -4.56284 -2.62091 0
M  V30 4676 O 463.093 -5.2171 -2.27612 0
M  V30 4677 N 464.295 -4.27746 -3.92446 0
M  V30 4678 H 467.06 -2.99638 -0.0610915 0
M  V30 4679 H 464.621 -1.61508 0.112615 0
M  V30 4680 H 466.613 -3.1099 -2.58973 0
M  V30 4681 H 465.183 -2.0786 -2.33481 0
M  V30 4682 H 464.403 -3.89078 -0.633424 0
M  V30 4683 H 465.691 -4.92554 -1.27547 0
M  V30 4684 H 465.089 -3.7531 -4.23272 0
M  V30 4685 H 463.646 -4.60437 -4.61347 0
M  V30 4686 N 467.08 -0.0183926 -1.57589 0
M  V30 4687 C 468.012 0.995557 -2.06449 0
M  V30 4688 C 469.025 1.29556 -0.985849 0
M  V30 4689 O 470.214 1.2621 -1.26227 0
M  V30 4690 C 467.314 2.32572 -2.46502 0
M  V30 4691 C 466.487 2.21245 -3.77319 0
M  V30 4692 C 465.546 3.37104 -4.04039 0
M  V30 4693 O 464.572 3.14468 -4.74445 0
M  V30 4694 N 465.774 4.60553 -3.53372 0
M  V30 4695 H 468.539 0.578746 -2.94059 0
M  V30 4696 H 466.1 0.168603 -1.6102 0
M  V30 4697 H 468.092 3.08887 -2.61478 0
M  V30 4698 H 466.662 2.65931 -1.64315 0
M  V30 4699 H 465.882 1.29723 -3.72244 0
M  V30 4700 H 467.17 2.10868 -4.63047 0
M  V30 4701 H 466.568 4.81839 -2.96391 0
M  V30 4702 H 465.125 5.34072 -3.73644 0
M  V30 4703 N 468.558 1.5553 0.254621 0
M  V30 4704 C 469.969 1.67518 0.824286 0
M  V30 4705 C 470.32 0.614429 1.86331 0
M  V30 4706 O 469.445 -0.240736 2.15057 0
M  V30 4707 C 470.04 3.03692 1.50189 0
M  V30 4708 C 468.599 3.17646 2.01935 0
M  V30 4709 C 467.746 2.63373 0.867746 0
M  V30 4710 H 470.697 1.58671 0.0305843 0
M  V30 4711 H 470.718 2.97706 2.36962 0
M  V30 4712 H 470.23 3.80874 0.745431 0
M  V30 4713 H 468.331 2.45273 2.80485 0
M  V30 4714 H 468.444 4.24455 2.22204 0
M  V30 4715 H 466.808 2.20999 1.26616 0
M  V30 4716 H 467.591 3.43074 0.124498 0
M  V30 4717 N 470.036 -0.519951 1.48776 0
M  V30 4718 C 471.282 -1.27711 1.57536 0
M  V30 4719 C 471.615 -1.92547 0.252866 0
M  V30 4720 O 470.89 -1.7979 -0.742021 0
M  V30 4721 C 471.173 -2.35875 2.72094 0
M  V30 4722 C 471.026 -1.75664 4.1408 0
M  V30 4723 C 472.345 -3.37575 2.82367 0
M  V30 4724 H 469.464 -0.462971 0.573434 0
M  V30 4725 H 472.106 -0.578194 1.80989 0
M  V30 4726 H 470.256 -2.95488 2.52228 0
M  V30 4727 H 471.928 -1.20025 4.45412 0
M  V30 4728 H 470.171 -1.06154 4.20611 0
M  V30 4729 H 470.842 -2.54029 4.90075 0
M  V30 4730 H 473.318 -2.87929 3.00393 0
M  V30 4731 H 472.194 -4.1064 3.64233 0
M  V30 4732 H 472.455 -3.98743 1.90936 0
M  V30 4733 N 471.514 -1.37532 -0.769588 0
M  V30 4734 C 472.424 -1.35668 -1.91393 0
M  V30 4735 C 473.44 -0.255954 -1.72107 0
M  V30 4736 O 474.616 -0.491704 -1.95305 0
M  V30 4737 C 471.681 -1.16481 -3.26547 0
M  V30 4738 C 470.742 -2.36212 -3.58472 0
M  V30 4739 C 469.975 -2.17932 -4.87177 0
M  V30 4740 O 470.198 -1.1647 -5.58382 0
M  V30 4741 O 469.132 -3.06167 -5.18214 0
M  V30 4742 H 472.958 -2.32055 -1.95918 0
M  V30 4743 H 470.543 -1.18284 -0.912641 0
M  V30 4744 H 472.425 -1.07778 -4.07384 0
M  V30 4745 H 471.1 -0.231687 -3.2287 0
M  V30 4746 H 470.007 -2.50488 -2.77861 0
M  V30 4747 H 471.34 -3.281 -3.66894 0
M  V30 4748 N 472.992 0.995999 -1.22138 0
M  V30 4749 C 474.217 1.77601 -1.0711 0
M  V30 4750 C 474.642 1.84339 0.374264 0
M  V30 4751 O 474 1.29359 1.27028 0
M  V30 4752 C 474.048 3.18897 -1.68336 0
M  V30 4753 O 473.152 4.01663 -0.934928 0
M  V30 4754 H 472.493 0.547011 -0.376397 0
M  V30 4755 H 475.023 1.25137 -1.6187 0
M  V30 4756 H 475.033 3.69539 -1.72931 0
M  V30 4757 H 473.708 3.13308 -2.73516 0
M  V30 4758 H 472.285 3.60204 -0.964751 0
M  V30 4759 N 474.47 1.03057 1.19235 0
M  V30 4760 C 475.695 0.74757 1.93458 0
M  V30 4761 C 476.12 -0.687648 1.7508 0
M  V30 4762 O 475.478 -1.47499 1.05422 0
M  V30 4763 C 475.526 1.10604 3.43219 0
M  V30 4764 O 474.63 0.225671 4.11782 0
M  V30 4765 H 473.971 0.276047 0.603899 0
M  V30 4766 H 476.501 1.3777 1.51263 0
M  V30 4767 H 476.511 1.06366 3.93891 0
M  V30 4768 H 475.186 2.15165 3.55917 0
M  V30 4769 H 473.763 0.326795 3.71465 0
M  V30 4770 N 475.948 -1.35272 0.808662 0
M  V30 4771 C 476.858 -2.33546 0.222079 0
M  V30 4772 C 477.874 -1.6196 -0.636011 0
M  V30 4773 O 479.05 -1.93822 -0.547274 0
M  V30 4774 C 476.115 -3.41148 -0.61795 0
M  V30 4775 C 475.176 -4.28507 0.260875 0
M  V30 4776 C 474.409 -5.3097 -0.539156 0
M  V30 4777 O 474.632 -5.42123 -1.77367 0
M  V30 4778 O 473.566 -6.01858 0.0710526 0
M  V30 4779 H 477.392 -2.85515 1.03512 0
M  V30 4780 H 474.977 -1.38079 0.570495 0
M  V30 4781 H 476.859 -4.06889 -1.09634 0
M  V30 4782 H 475.534 -2.91447 -1.40855 0
M  V30 4783 H 474.441 -3.6574 0.786451 0
M  V30 4784 H 475.774 -4.81611 1.01547 0
M  V30 4785 N 477.426 -0.562348 -1.47226 0
M  V30 4786 C 478.703 0.0256985 -1.95583 0
M  V30 4787 C 479.083 1.48032 -1.50498 0
M  V30 4788 O 478.431 2.15973 -0.746181 0
M  V30 4789 C 478.641 -0.125129 -3.48776 0
M  V30 4790 C 479.989 0.0175728 -4.24596 0
M  V30 4791 O 481.013 -0.0529341 -3.56161 0
M  V30 4792 O 479.872 0.170145 -5.46235 0
M  V30 4793 H 476.966 0.0612565 -0.824728 0
M  V30 4794 H 479.512 -0.629233 -1.57603 0
M  V30 4795 H 478.284 -1.13715 -3.74412 0
M  V30 4796 H 477.907 0.567178 -3.93534 0
M  V30 4797 N 478.904 1.54736 -0.299062 0
M  V30 4798 C 480.129 2.04975 0.316254 0
M  V30 4799 C 480.554 1.17501 1.46885 0
M  V30 4800 O 479.912 0.178678 1.80417 0
M  V30 4801 C 479.96 3.52672 0.751997 0
M  V30 4802 O 479.064 3.68226 1.85697 0
M  V30 4803 H 478.405 0.661126 0.0617175 0
M  V30 4804 H 480.935 1.99805 -0.440341 0
M  V30 4805 H 480.945 3.94488 1.04133 0
M  V30 4806 H 479.62 4.158 -0.0911482 0
M  V30 4807 H 478.197 3.38316 1.56834 0
M  V30 4808 N 480.382 0.0267497 1.57577 0
M  V30 4809 C 481.607 -0.666227 1.96408 0
M  V30 4810 C 482.032 -1.65004 0.903071 0
M  V30 4811 O 481.39 -1.80787 -0.136263 0
M  V30 4812 C 481.438 -1.35101 3.34335 0
M  V30 4813 O 480.542 -2.46623 3.30531 0
M  V30 4814 H 479.883 -0.175206 0.640468 0
M  V30 4815 H 482.413 0.0878977 2.04411 0
M  V30 4816 H 482.423 -1.70834 3.70513 0
M  V30 4817 H 481.098 -0.629844 4.11103 0
M  V30 4818 H 479.675 -2.13019 3.06068 0
M  V30 4819 N 481.861 -1.55662 -0.24637 0
M  V30 4820 C 483.138 -1.68272 -0.997198 0
M  V30 4821 C 483.518 -0.566785 -2.03349 0
M  V30 4822 O 482.866 0.429688 -2.24424 0
M  V30 4823 C 483.076 -3.08594 -1.63006 0
M  V30 4824 C 484.424 -3.6721 -2.13171 0
M  V30 4825 O 485.448 -3.11397 -1.72946 0
M  V30 4826 O 484.307 -4.65054 -2.87031 0
M  V30 4827 H 481.401 -0.684429 -0.464205 0
M  V30 4828 H 483.947 -1.67993 -0.240114 0
M  V30 4829 H 482.719 -3.81264 -0.880527 0
M  V30 4830 H 482.342 -3.12886 -2.45333 0
M  V30 4831 N 483.339 0.512053 -1.4905 0
M  V30 4832 C 484.249 1.64139 -1.67617 0
M  V30 4833 C 485.265 1.64786 -0.558701 0
M  V30 4834 O 486.441 1.8341 -0.832034 0
M  V30 4835 C 483.506 3.00548 -1.72835 0
M  V30 4836 C 482.567 3.10615 -2.96339 0
M  V30 4837 C 481.8 4.40517 -3.01298 0
M  V30 4838 O 482.023 5.28671 -2.14157 0
M  V30 4839 O 480.957 4.55325 -3.93653 0
M  V30 4840 H 484.783 1.51407 -2.63267 0
M  V30 4841 H 482.368 0.687131 -1.32661 0
M  V30 4842 H 484.25 3.81641 -1.78683 0
M  V30 4843 H 482.925 3.13566 -0.803616 0
M  V30 4844 H 481.832 2.2875 -2.96014 0
M  V30 4845 H 483.165 3.0252 -3.88256 0
M  V30 4846 N 484.817 1.37938 0.762283 0
M  V30 4847 C 486.042 1.37059 1.55659 0
M  V30 4848 C 486.467 -0.0396123 1.88058 0
M  V30 4849 O 485.825 -1.01929 1.49934 0
M  V30 4850 C 485.873 2.22494 2.83776 0
M  V30 4851 O 484.977 1.63607 3.78559 0
M  V30 4852 H 484.318 0.467892 0.47114 0
M  V30 4853 H 486.848 1.81587 0.942725 0
M  V30 4854 H 486.858 2.36045 3.32786 0
M  V30 4855 H 485.533 3.24993 2.59524 0
M  V30 4856 H 484.11 1.5915 3.37233 0
M  V30 4857 N 486.295 -0.989507 1.22664 0
M  V30 4858 C 487.572 -1.70326 0.961688 0
M  V30 4859 C 487.952 -2.04537 -0.522279 0
M  V30 4860 O 487.3 -1.73136 -1.49118 0
M  V30 4861 C 487.51 -2.95135 1.86269 0
M  V30 4862 C 488.858 -3.67842 2.12078 0
M  V30 4863 O 489.882 -3.0515 1.83745 0
M  V30 4864 O 488.741 -4.80644 2.60083 0
M  V30 4865 H 485.835 -0.743589 0.361946 0
M  V30 4866 H 488.381 -1.04555 1.33665 0
M  V30 4867 H 487.153 -2.66382 2.8663 0
M  V30 4868 H 486.776 -3.68645 1.48952 0
M  V30 4869 N 487.773 -1.03688 -1.18687 0
M  V30 4870 C 488.998 -0.757819 -1.93059 0
M  V30 4871 C 489.423 0.678353 -1.75442 0
M  V30 4872 O 488.781 1.46938 -1.06203 0
M  V30 4873 C 488.829 -1.12423 -3.42627 0
M  V30 4874 O 487.933 -0.247505 -4.11657 0
M  V30 4875 H 487.274 -0.279245 -0.602427 0
M  V30 4876 H 489.804 -1.3857 -1.5053 0
M  V30 4877 H 489.814 -1.08454 -3.93322 0
M  V30 4878 H 488.489 -2.17049 -3.54771 0
M  V30 4879 H 487.066 -0.34649 -3.71287 0
M  V30 4880 N 489.251 1.34841 -0.815825 0
M  V30 4881 C 490.476 2.03261 -0.41226 0
M  V30 4882 C 490.901 1.61055 0.971751 0
M  V30 4883 O 490.259 0.7917 1.63101 0
M  V30 4884 C 490.307 3.56914 -0.514289 0
M  V30 4885 O 489.411 4.09728 0.468675 0
M  V30 4886 H 488.752 0.641664 -0.170771 0
M  V30 4887 H 491.282 1.72241 -1.10427 0
M  V30 4888 H 491.292 4.06156 -0.387457 0
M  V30 4889 H 489.967 3.86982 -1.52375 0
M  V30 4890 H 488.544 3.71681 0.301316 0
M  V30 4891 N 490.729 0.570148 1.46925 0
M  V30 4892 C 491.954 0.0542592 2.07329 0
M  V30 4893 C 492.379 -1.23582 1.41806 0
M  V30 4894 O 491.737 -1.74341 0.497479 0
M  V30 4895 C 491.785 -0.111175 3.60429 0
M  V30 4896 O 490.889 -1.17071 3.95434 0
M  V30 4897 H 490.23 0.0571425 0.661537 0
M  V30 4898 H 492.76 0.789516 1.88753 0
M  V30 4899 H 492.77 -0.321315 4.06733 0
M  V30 4900 H 491.445 0.831012 4.07513 0
M  V30 4901 H 490.022 -0.940029 3.60857 0
M  V30 4902 N 492.207 -1.54576 0.307264 0
M  V30 4903 C 493.117 -2.27435 -0.57536 0
M  V30 4904 C 494.133 -1.31183 -1.14311 0
M  V30 4905 O 495.309 -1.64175 -1.16656 0
M  V30 4906 C 492.374 -3.00566 -1.72803 0
M  V30 4907 C 491.435 -4.12369 -1.19373 0
M  V30 4908 C 490.668 -4.82003 -2.29147 0
M  V30 4909 O 490.891 -4.51038 -3.49171 0
M  V30 4910 O 489.825 -5.69271 -1.95485 0
M  V30 4911 H 493.651 -3.03696 0.0158558 0
M  V30 4912 H 491.236 -1.49219 0.0735064 0
M  V30 4913 H 493.118 -3.46416 -2.39946 0
M  V30 4914 H 491.793 -2.27195 -2.30574 0
M  V30 4915 H 490.7 -3.70905 -0.487851 0
M  V30 4916 H 492.033 -4.87736 -0.661376 0
M  V30 4917 N 493.685 -0.035106 -1.57561 0
M  V30 4918 C 494.595 0.960295 -2.14046 0
M  V30 4919 C 495.611 1.3529 -1.0942 0
M  V30 4920 O 496.787 1.43309 -1.41508 0
M  V30 4921 C 493.852 2.22214 -2.66124 0
M  V30 4922 C 492.913 1.8894 -3.85487 0
M  V30 4923 C 492.146 3.09109 -4.35072 0
M  V30 4924 O 492.369 4.21963 -3.83802 0
M  V30 4925 O 491.303 2.91058 -5.26848 0
M  V30 4926 H 495.129 0.509983 -2.99387 0
M  V30 4927 H 492.714 0.185853 -1.48239 0
M  V30 4928 H 494.596 2.96279 -2.99661 0
M  V30 4929 H 493.271 2.66414 -1.83862 0
M  V30 4930 H 492.178 1.12241 -3.56865 0
M  V30 4931 H 493.511 1.49551 -4.6893 0
M  V30 4932 N 495.163 1.55791 0.238111 0
M  V30 4933 C 496.073 1.94196 1.31625 0
M  V30 4934 C 497.089 0.843545 1.52185 0
M  V30 4935 O 498.265 1.1457 1.65637 0
M  V30 4936 C 495.33 2.2365 2.64918 0
M  V30 4937 C 494.391 3.46971 2.52804 0
M  V30 4938 C 493.624 3.7501 3.79741 0
M  V30 4939 O 493.847 3.04982 4.82019 0
M  V30 4940 O 492.781 4.68525 3.77846 0
M  V30 4941 H 496.607 2.86044 1.02043 0
M  V30 4942 H 494.192 1.42786 0.439603 0
M  V30 4943 H 496.074 2.43863 3.4367 0
M  V30 4944 H 494.749 1.34979 2.94215 0
M  V30 4945 H 493.656 3.32055 1.72309 0
M  V30 4946 H 494.989 4.35971 2.28451 0
M  V30 4947 N 496.642 -0.504142 1.49319 0
M  V30 4948 C 497.589 -1.60603 1.65756 0
M  V30 4949 C 498.559 -1.58425 0.499082 0
M  V30 4950 O 499.744 -1.76459 0.725728 0
M  V30 4951 C 496.884 -2.98764 1.72726 0
M  V30 4952 C 495.997 -3.10982 2.99857 0
M  V30 4953 C 495.132 -4.39857 2.97824 0
M  V30 4954 C 494.171 -4.45697 4.19548 0
M  V30 4955 N 493.308 -5.65995 4.15444 0
M  V30 4956 H 498.148 -1.45895 2.59843 0
M  V30 4957 H 495.685 -0.709891 1.28837 0
M  V30 4958 H 497.643 -3.78839 1.74747 0
M  V30 4959 H 496.273 -3.12183 0.821075 0
M  V30 4960 H 495.325 -2.23991 3.07461 0
M  V30 4961 H 496.637 -3.11157 3.89849 0
M  V30 4962 H 495.791 -5.2825 2.98391 0
M  V30 4963 H 494.53 -4.42242 2.05604 0
M  V30 4964 H 493.535 -3.55707 4.19229 0
M  V30 4965 H 494.76 -4.4503 5.12957 0
M  V30 4966 H 492.706 -5.69229 3.26059 0
M  V30 4967 H 492.623 -5.67773 4.99169 0
M  V30 4968 H 493.891 -6.56604 4.20109 0
M  V30 4969 N 498.12 -1.38341 -0.754957 0
M  V30 4970 C 499.067 -1.3546 -1.86867 0
M  V30 4971 C 500.037 -0.217369 -1.64672 0
M  V30 4972 O 501.222 -0.409383 -1.86356 0
M  V30 4973 C 498.362 -1.18413 -3.24149 0
M  V30 4974 C 497.475 -2.41511 -3.58185 0
M  V30 4975 C 496.61 -2.17205 -4.84763 0
M  V30 4976 C 495.649 -3.36081 -5.11582 0
M  V30 4977 N 494.786 -3.11219 -6.29354 0
M  V30 4978 H 499.626 -2.30672 -1.88664 0
M  V30 4979 H 497.163 -1.14607 -0.922154 0
M  V30 4980 H 499.121 -1.06545 -4.03366 0
M  V30 4981 H 497.751 -0.268397 -3.21682 0
M  V30 4982 H 496.803 -2.64056 -2.73822 0
M  V30 4983 H 498.115 -3.30115 -3.73932 0
M  V30 4984 H 497.269 -2.02465 -5.7192 0
M  V30 4985 H 496.008 -1.25964 -4.71152 0
M  V30 4986 H 495.013 -3.51341 -4.22894 0
M  V30 4987 H 496.238 -4.28196 -5.27091 0
M  V30 4988 H 494.184 -2.22624 -6.17069 0
M  V30 4989 H 494.101 -3.93373 -6.45596 0
M  V30 4990 H 495.369 -3.00132 -7.19403 0
M  V30 4991 N 499.598 0.982988 -1.23187 0
M  V30 4992 C 501.009 1.53847 -1.05773 0
M  V30 4993 C 501.36 1.92568 0.375744 0
M  V30 4994 O 500.485 1.75783 1.26211 0
M  V30 4995 C 501.08 2.79567 -1.91384 0
M  V30 4996 C 499.639 3.31524 -1.78238 0
M  V30 4997 C 498.786 2.04534 -1.87246 0
M  V30 4998 H 501.737 0.802962 -1.36888 0
M  V30 4999 H 501.758 3.52317 -1.43711 0
M  V30 5000 H 501.27 2.51353 -2.95708 0
M  V30 5001 H 499.371 3.64623 -0.766875 0
M  V30 5002 H 499.484 4.01457 -2.61475 0
M  V30 5003 H 497.848 2.1855 -1.30797 0
M  V30 5004 H 498.631 1.78706 -2.9312 0
M  V30 5005 N 501.076 1.04316 1.18135 0
M  V30 5006 C 502.487 0.775505 1.69832 0
M  V30 5007 C 502.838 -0.703348 1.8316 0
M  V30 5008 O 501.963 -1.54729 1.51287 0
M  V30 5009 C 502.558 1.40112 3.0847 0
M  V30 5010 C 501.117 1.18172 3.57368 0
M  V30 5011 C 500.264 1.49022 2.33854 0
M  V30 5012 H 503.215 1.20925 1.02775 0
M  V30 5013 H 503.236 0.805672 3.71873 0
M  V30 5014 H 502.748 2.47744 2.98738 0
M  V30 5015 H 500.849 0.124258 3.72393 0
M  V30 5016 H 500.962 1.8805 4.40652 0
M  V30 5017 H 499.326 0.909995 2.37889 0
M  V30 5018 H 500.109 2.57768 2.26738 0
M  V30 5019 N 502.554 -1.34406 0.822964 0
M  V30 5020 C 503.782 -2.02508 0.424039 0
M  V30 5021 C 504.197 -1.61975 -0.970022 0
M  V30 5022 O 503.554 -0.825228 -1.62777 0
M  V30 5023 C 503.605 -3.57789 0.516657 0
M  V30 5024 O 503.326 -3.96853 1.85577 0
M  V30 5025 C 504.827 -4.43157 0.112637 0
M  V30 5026 H 502.047 -0.649063 0.170173 0
M  V30 5027 H 504.591 -1.7168 1.11113 0
M  V30 5028 H 502.746 -3.87207 -0.122353 0
M  V30 5029 H 503.16 -4.91538 1.83005 0
M  V30 5030 H 504.634 -5.51527 0.228526 0
M  V30 5031 H 505.111 -4.28939 -0.943837 0
M  V30 5032 H 505.717 -4.19067 0.725449 0
M  V30 5033 N 504.032 -0.577932 -1.46621 0
M  V30 5034 C 504.979 0.158048 -2.30258 0
M  V30 5035 C 505.949 0.888669 -1.40328 0
M  V30 5036 O 507.134 0.880283 -1.6928 0
M  V30 5037 C 504.274 1.16884 -3.24703 0
M  V30 5038 C 503.387 0.442163 -4.29731 0
M  V30 5039 C 502.522 1.44007 -5.11308 0
M  V30 5040 C 501.561 0.69952 -6.0809 0
M  V30 5041 N 500.698 1.64525 -6.82551 0
M  V30 5042 H 505.538 -0.561242 -2.92667 0
M  V30 5043 H 503.075 -0.288591 -1.44241 0
M  V30 5044 H 505.033 1.7677 -3.779 0
M  V30 5045 H 503.663 1.85591 -2.64113 0
M  V30 5046 H 502.715 -0.271632 -3.79429 0
M  V30 5047 H 504.027 -0.136992 -4.98612 0
M  V30 5048 H 503.181 2.11186 -5.68758 0
M  V30 5049 H 501.92 2.05315 -4.42377 0
M  V30 5050 H 500.925 0.0139217 -5.49798 0
M  V30 5051 H 502.15 0.091894 -6.79038 0
M  V30 5052 H 500.096 2.24653 -6.16334 0
M  V30 5053 H 500.013 1.11878 -7.47676 0
M  V30 5054 H 501.281 2.30754 -7.44562 0
M  V30 5055 N 505.51 1.54411 -0.315457 0
M  V30 5056 C 506.473 2.22713 0.54142 0
M  V30 5057 C 507.473 1.2179 1.04995 0
M  V30 5058 O 508.663 1.46426 0.943667 0
M  V30 5059 C 505.795 2.92485 1.75116 0
M  V30 5060 H 506.988 2.99849 -0.0555508 0
M  V30 5061 H 504.541 1.56159 -0.0664453 0
M  V30 5062 H 505.276 2.19466 2.38758 0
M  V30 5063 H 505.061 3.66483 1.39401 0
M  V30 5064 H 506.551 3.44548 2.35959 0
M  V30 5065 N 506.988 0.0434614 1.5754 0
M  V30 5066 C 508.234 -0.632971 1.92669 0
M  V30 5067 C 508.567 -1.70947 0.921446 0
M  V30 5068 O 507.842 -1.94426 -0.0537202 0
M  V30 5069 C 508.125 -1.23619 3.38216 0
M  V30 5070 C 507.978 -0.168274 4.49485 0
M  V30 5071 C 509.297 -2.15008 3.84005 0
M  V30 5072 H 506.416 -0.228629 0.700641 0
M  V30 5073 H 509.058 0.103651 1.89717 0
M  V30 5074 H 507.208 -1.864 3.40863 0
M  V30 5075 H 508.88 0.463196 4.58969 0
M  V30 5076 H 507.123 0.504581 4.30855 0
M  V30 5077 H 507.794 -0.630218 5.48391 0
M  V30 5078 H 510.27 -1.62198 3.83185 0
M  V30 5079 H 509.146 -2.54161 4.86511 0
M  V30 5080 H 509.407 -3.04707 3.20322 0
M  V30 5081 N 508.466 -1.55915 -0.229846 0
M  V30 5082 C 509.712 -1.78807 -0.956868 0
M  V30 5083 C 510.045 -0.611687 -1.84315 0
M  V30 5084 O 509.32 0.389398 -1.90562 0
M  V30 5085 C 509.603 -3.11718 -1.80288 0
M  V30 5086 C 509.456 -4.3979 -0.943649 0
M  V30 5087 C 510.775 -3.40999 -2.78222 0
M  V30 5088 H 507.894 -0.6505 -0.346437 0
M  V30 5089 H 510.536 -1.88648 -0.226252 0
M  V30 5090 H 508.686 -3.03459 -2.42579 0
M  V30 5091 H 510.358 -4.60059 -0.338121 0
M  V30 5092 H 508.601 -4.33086 -0.248705 0
M  V30 5093 H 509.272 -5.29208 -1.5698 0
M  V30 5094 H 511.748 -3.49332 -2.26067 0
M  V30 5095 H 510.624 -4.35183 -3.34526 0
M  V30 5096 H 510.885 -2.62754 -3.55546 0
M  V30 5097 N 509.944 0.496216 -1.49584 0
M  V30 5098 C 511.169 1.27865 -1.63295 0
M  V30 5099 C 511.594 1.85592 -0.306156 0
M  V30 5100 O 510.952 1.66092 0.726851 0
M  V30 5101 C 511 2.38128 -2.7079 0
M  V30 5102 O 510.104 3.42108 -2.30296 0
M  V30 5103 H 509.445 0.377279 -0.546403 0
M  V30 5104 H 511.975 0.593497 -1.95803 0
M  V30 5105 H 511.985 2.8382 -2.93104 0
M  V30 5106 H 510.66 1.95479 -3.67098 0
M  V30 5107 H 509.237 3.02301 -2.18331 0
M  V30 5108 N 511.423 1.38739 0.74761 0
M  V30 5109 C 512.37 1.36449 1.86146 0
M  V30 5110 C 513.34 0.226098 1.64554 0
M  V30 5111 O 514.525 0.41926 1.86137 0
M  V30 5112 C 511.665 1.2013 3.23516 0
M  V30 5113 C 510.778 2.43407 3.56899 0
M  V30 5114 C 509.913 2.19773 4.83605 0
M  V30 5115 C 508.952 3.3879 5.09792 0
M  V30 5116 N 508.089 3.14553 6.27695 0
M  V30 5117 H 512.929 2.3167 1.87438 0
M  V30 5118 H 510.466 1.15094 0.916063 0
M  V30 5119 H 512.424 1.08683 4.02795 0
M  V30 5120 H 511.054 0.285453 3.21535 0
M  V30 5121 H 510.106 2.65504 2.72418 0
M  V30 5122 H 511.418 3.32094 3.72176 0
M  V30 5123 H 510.572 2.05496 5.70838 0
M  V30 5124 H 509.311 1.28461 4.70478 0
M  V30 5125 H 508.316 3.53579 4.21025 0
M  V30 5126 H 509.541 4.30986 5.24812 0
M  V30 5127 H 507.487 2.25893 6.1588 0
M  V30 5128 H 507.404 3.96791 6.435 0
M  V30 5129 H 508.672 3.03943 7.17801 0
M  V30 5130 N 512.901 -0.976442 1.23707 0
M  V30 5131 C 513.864 -2.0511 1.02287 0
M  V30 5132 C 514.864 -1.60791 -0.0167195 0
M  V30 5133 O 516.054 -1.72761 0.223408 0
M  V30 5134 C 513.186 -3.36458 0.548507 0
M  V30 5135 H 514.379 -2.25545 1.9766 0
M  V30 5136 H 511.932 -1.15042 1.05806 0
M  V30 5137 H 512.667 -3.21713 -0.408818 0
M  V30 5138 H 512.452 -3.69967 1.29874 0
M  V30 5139 H 513.942 -4.15489 0.419406 0
M  V30 5140 N 514.379 -1.04941 -1.1758 0
M  V30 5141 C 515.607 -0.778294 -1.91703 0
M  V30 5142 C 516.022 0.665697 -1.76675 0
M  V30 5143 O 515.379 1.45456 -1.10222 0
M  V30 5144 C 515.43 -1.14628 -3.42845 0
M  V30 5145 O 515.151 -2.53359 -3.57409 0
M  V30 5146 C 516.652 -0.900931 -4.34049 0
M  V30 5147 H 513.872 -0.283167 -0.608323 0
M  V30 5148 H 516.416 -1.39942 -1.49119 0
M  V30 5149 H 514.571 -0.569953 -3.83184 0
M  V30 5150 H 514.985 -2.67709 -4.51035 0
M  V30 5151 H 516.459 -1.20817 -5.38616 0
M  V30 5152 H 516.936 0.163966 -4.38894 0
M  V30 5153 H 517.542 -1.46097 -3.99419 0
M  V30 5154 N 515.857 1.33968 -0.830081 0
M  V30 5155 C 517.085 2.0228 -0.434773 0
M  V30 5156 C 517.5 1.62487 0.961419 0
M  V30 5157 O 516.857 0.833849 1.62337 0
M  V30 5158 C 516.908 3.5751 -0.535625 0
M  V30 5159 O 516.629 3.95864 -1.87679 0
M  V30 5160 C 518.13 4.43091 -0.136137 0
M  V30 5161 H 515.35 0.648151 -0.173613 0
M  V30 5162 H 517.894 1.71089 -1.12022 0
M  V30 5163 H 516.049 3.87266 0.101817 0
M  V30 5164 H 516.463 4.9056 -1.85609 0
M  V30 5165 H 517.937 5.51398 -0.257772 0
M  V30 5166 H 518.414 4.29433 0.921076 0
M  V30 5167 H 519.02 4.18677 -0.747662 0
M  V30 5168 N 517.335 0.585699 1.46312 0
M  V30 5169 C 518.282 -0.145835 2.30339 0
M  V30 5170 C 519.252 -0.881215 1.40797 0
M  V30 5171 O 520.437 -0.871293 1.69744 0
M  V30 5172 C 517.577 -1.15161 3.25318 0
M  V30 5173 C 516.69 -0.419367 4.2996 0
M  V30 5174 C 515.825 -1.41293 5.12064 0
M  V30 5175 C 514.864 -0.667261 6.08452 0
M  V30 5176 N 514.001 -1.60903 6.83414 0
M  V30 5177 H 518.841 0.576755 2.92365 0
M  V30 5178 H 516.378 0.296237 1.44086 0
M  V30 5179 H 518.336 -1.74763 3.78832 0
M  V30 5180 H 516.966 -1.84188 2.65094 0
M  V30 5181 H 516.018 0.291751 3.7928 0
M  V30 5182 H 517.33 0.163433 4.98532 0
M  V30 5183 H 516.484 -2.08167 5.6987 0
M  V30 5184 H 515.223 -2.02966 4.43459 0
M  V30 5185 H 514.228 0.0152356 5.49798 0
M  V30 5186 H 515.453 -0.0558817 6.79077 0
M  V30 5187 H 513.399 -2.21381 6.17516 0
M  V30 5188 H 513.316 -1.07911 7.48259 0
M  V30 5189 H 514.584 -2.26802 7.45775 0
M  V30 5190 N 518.813 -1.54241 0.323641 0
M  V30 5191 C 520.224 -1.85975 -0.164405 0
M  V30 5192 C 520.575 -1.24529 -1.51615 0
M  V30 5193 O 519.7 -0.551351 -2.09258 0
M  V30 5194 C 520.295 -3.37424 -0.305091 0
M  V30 5195 C 518.854 -3.69107 -0.737358 0
M  V30 5196 C 518.001 -2.76942 0.140884 0
M  V30 5197 H 520.952 -1.49088 0.543922 0
M  V30 5198 H 520.973 -3.63147 -1.13598 0
M  V30 5199 H 520.485 -3.82116 0.678876 0
M  V30 5200 H 518.586 -3.29947 -1.73107 0
M  V30 5201 H 518.699 -4.76035 -0.541053 0
M  V30 5202 H 517.063 -2.51795 -0.383572 0
M  V30 5203 H 517.846 -3.24461 1.12162 0
M  V30 5204 N 520.291 -0.0518155 -1.57515 0
M  V30 5205 C 521.702 0.483787 -1.80323 0
M  V30 5206 C 522.053 1.70879 -0.964099 0
M  V30 5207 O 521.178 2.15643 -0.180872 0
M  V30 5208 C 521.773 0.884459 -3.27052 0
M  V30 5209 C 520.332 1.36504 -3.50776 0
M  V30 5210 C 519.479 0.340539 -2.75201 0
M  V30 5211 H 522.43 -0.277691 -1.56252 0
M  V30 5212 H 522.451 1.74733 -3.38007 0
M  V30 5213 H 521.963 -0.00731093 -3.88099 0
M  V30 5214 H 520.064 2.27598 -2.95009 0
M  V30 5215 H 520.177 1.35675 -4.59488 0
M  V30 5216 H 518.541 0.81356 -2.41357 0
M  V30 5217 H 519.324 -0.543156 -3.38976 0
M  V30 5218 N 521.769 1.56035 0.221574 0
M  V30 5219 C 523.18 1.69229 0.788567 0
M  V30 5220 C 523.531 0.653814 1.84986 0
M  V30 5221 O 522.656 -0.195065 2.15519 0
M  V30 5222 C 523.251 3.06809 1.43713 0
M  V30 5223 C 521.81 3.21858 1.95152 0
M  V30 5224 C 520.957 2.65155 0.811685 0
M  V30 5225 H 523.908 1.587 -0.00307894 0
M  V30 5226 H 523.929 3.02666 2.30594 0
M  V30 5227 H 523.441 3.82369 0.664475 0
M  V30 5228 H 521.542 2.51167 2.7522 0
M  V30 5229 H 521.655 4.29073 2.1315 0
M  V30 5230 H 520.019 2.23635 1.21899 0
M  V30 5231 H 520.802 3.43261 0.0516987 0
M  V30 5232 N 523.247 -0.488276 1.49845 0
M  V30 5233 C 524.21 -1.57069 1.66919 0
M  V30 5234 C 525.21 -1.51445 0.540479 0
M  V30 5235 O 526.4 -1.5437 0.807188 0
M  V30 5236 C 523.532 -2.96718 1.67844 0
M  V30 5237 H 524.725 -1.43254 2.63474 0
M  V30 5238 H 522.278 -0.713435 1.39068 0
M  V30 5239 H 523.013 -3.15996 0.7292 0
M  V30 5240 H 522.798 -3.02208 2.49826 0
M  V30 5241 H 524.288 -3.75335 1.83066 0
M  V30 5242 N 524.725 -1.39134 -0.740242 0
M  V30 5243 C 525.672 -1.37434 -1.8542 0
M  V30 5244 C 526.642 -0.234822 -1.64432 0
M  V30 5245 O 527.827 -0.429125 -1.85912 0
M  V30 5246 C 524.967 -1.21844 -3.22875 0
M  V30 5247 C 524.08 -2.45296 -3.55603 0
M  V30 5248 C 523.215 -2.22334 -4.82432 0
M  V30 5249 C 522.254 -3.41488 -5.07988 0
M  V30 5250 N 521.391 -3.17877 -6.26018 0
M  V30 5251 H 526.231 -2.3266 -1.86207 0
M  V30 5252 H 523.768 -1.15578 -0.909946 0
M  V30 5253 H 525.726 -1.10818 -4.02213 0
M  V30 5254 H 524.356 -0.3025 -3.21379 0
M  V30 5255 H 523.408 -2.66945 -2.71006 0
M  V30 5256 H 524.72 -3.34063 -3.7041 0
M  V30 5257 H 523.874 -2.0852 -5.69741 0
M  V30 5258 H 522.613 -1.30954 -4.6979 0
M  V30 5259 H 521.618 -3.55807 -4.19144 0
M  V30 5260 H 522.843 -4.33763 -5.22519 0
M  V30 5261 H 520.789 -2.29156 -6.14673 0
M  V30 5262 H 520.706 -4.00198 -6.41387 0
M  V30 5263 H 521.974 -3.07746 -7.16179 0
M  V30 5264 N 526.204 0.969867 -1.24223 0
M  V30 5265 C 527.151 2.06407 -1.0327 0
M  V30 5266 C 528.121 1.66014 0.0533 0
M  V30 5267 O 529.306 1.90533 -0.100896 0
M  V30 5268 C 526.446 3.3909 -0.641262 0
M  V30 5269 C 525.559 3.9269 -1.80051 0
M  V30 5270 C 524.694 5.13631 -1.35486 0
M  V30 5271 C 523.733 5.59423 -2.48419 0
M  V30 5272 N 522.87 6.71586 -2.04737 0
M  V30 5273 H 527.71 2.23663 -1.96923 0
M  V30 5274 H 525.247 1.09624 -0.980862 0
M  V30 5275 H 527.205 4.15323 -0.395351 0
M  V30 5276 H 525.835 3.21765 0.258269 0
M  V30 5277 H 524.887 3.13116 -2.16014 0
M  V30 5278 H 526.199 4.22636 -2.64916 0
M  V30 5279 H 525.353 5.97231 -1.0677 0
M  V30 5280 H 524.092 4.85364 -0.476722 0
M  V30 5281 H 523.097 4.74398 -2.77897 0
M  V30 5282 H 524.322 5.89705 -3.36786 0
M  V30 5283 H 522.268 6.45058 -1.19318 0
M  V30 5284 H 522.185 7.0097 -2.83156 0
M  V30 5285 H 523.453 7.58633 -1.79154 0
M  V30 5286 N 527.682 1.05563 1.17022 0
M  V30 5287 C 528.645 0.664098 2.19368 0
M  V30 5288 C 529.645 -0.286358 1.5823 0
M  V30 5289 O 530.835 -0.069728 1.7406 0
M  V30 5290 C 527.967 -0.0239932 3.40892 0
M  V30 5291 H 529.16 1.57 2.55521 0
M  V30 5292 H 526.713 0.849964 1.31169 0
M  V30 5293 H 527.448 -0.942988 3.10287 0
M  V30 5294 H 527.233 0.659351 3.86516 0
M  V30 5295 H 528.723 -0.283909 4.16634 0
M  V30 5296 N 529.16 -1.33526 0.837174 0
M  V30 5297 C 530.123 -2.27551 0.274421 0
M  V30 5298 C 531.123 -1.50886 -0.555881 0
M  V30 5299 O 532.313 -1.70227 -0.369918 0
M  V30 5300 C 529.445 -3.35332 -0.613605 0
M  V30 5301 H 530.638 -2.78837 1.10408 0
M  V30 5302 H 528.191 -1.439 0.610126 0
M  V30 5303 H 528.926 -2.89285 -1.46577 0
M  V30 5304 H 528.711 -3.92095 -0.0195341 0
M  V30 5305 H 530.201 -4.05433 -1.00068 0
M  V30 5306 N 530.638 -0.59345 -1.46 0
M  V30 5307 C 531.548 0.135817 -2.34207 0
M  V30 5308 C 532.564 0.875008 -1.50398 0
M  V30 5309 O 533.74 0.835778 -1.83239 0
M  V30 5310 C 530.805 1.12977 -3.27776 0
M  V30 5311 C 529.866 0.394081 -4.27487 0
M  V30 5312 C 529.099 1.34068 -5.16586 0
M  V30 5313 O 529.322 2.5778 -5.08828 0
M  V30 5314 O 528.256 0.845426 -5.95933 0
M  V30 5315 H 532.082 -0.588691 -2.9794 0
M  V30 5316 H 529.667 -0.353784 -1.45151 0
M  V30 5317 H 531.549 1.70261 -3.85473 0
M  V30 5318 H 530.224 1.83556 -2.66625 0
M  V30 5319 H 529.131 -0.220869 -3.73447 0
M  V30 5320 H 530.464 -0.270939 -4.91454 0
M  V30 5321 N 532.116 1.54067 -0.331816 0
M  V30 5322 C 533.341 2.05599 0.272705 0
M  V30 5323 C 533.766 1.2059 1.44359 0
M  V30 5324 O 533.124 0.216907 1.79998 0
M  V30 5325 C 533.172 3.54188 0.677021 0
M  V30 5326 O 532.276 3.72082 1.77844 0
M  V30 5327 H 531.617 0.662286 0.0476801 0
M  V30 5328 H 534.147 1.98826 -0.482624 0
M  V30 5329 H 534.157 3.96608 0.957415 0
M  V30 5330 H 532.832 4.15513 -0.179325 0
M  V30 5331 H 531.409 3.41566 1.49622 0
M  V30 5332 N 533.594 0.0601682 1.57485 0
M  V30 5333 C 534.819 -0.624416 1.97777 0
M  V30 5334 C 535.244 -1.63051 0.937867 0
M  V30 5335 O 534.602 -1.81036 -0.0978845 0
M  V30 5336 C 534.65 -1.27979 3.37126 0
M  V30 5337 O 533.754 -2.39556 3.35688 0
M  V30 5338 H 533.095 -0.161581 0.64404 0
M  V30 5339 H 535.625 0.131237 2.04179 0
M  V30 5340 H 535.635 -1.62937 3.74053 0
M  V30 5341 H 534.31 -0.542501 4.12347 0
M  V30 5342 H 532.887 -2.06478 3.10517 0
M  V30 5343 N 535.072 -1.5615 -0.213296 0
M  V30 5344 C 536.297 -1.83986 -0.957282 0
M  V30 5345 C 536.722 -0.641526 -1.76822 0
M  V30 5346 O 536.08 0.409722 -1.7661 0
M  V30 5347 C 536.128 -3.09889 -1.84393 0
M  V30 5348 O 535.232 -2.89163 -2.94038 0
M  V30 5349 H 534.573 -0.606357 -0.270605 0
M  V30 5350 H 537.103 -2.03369 -0.224111 0
M  V30 5351 H 537.113 -3.40209 -2.25215 0
M  V30 5352 H 535.788 -3.96735 -1.24795 0
M  V30 5353 H 534.365 -2.70097 -2.57103 0
M  V30 5354 N 536.55 0.480323 -1.50102 0
M  V30 5355 C 537.827 1.24159 -1.51142 0
M  V30 5356 C 538.207 2.09605 -0.250818 0
M  V30 5357 O 537.555 2.15274 0.766118 0
M  V30 5358 C 537.765 2.08057 -2.80202 0
M  V30 5359 C 539.113 2.66556 -3.30504 0
M  V30 5360 O 540.137 2.18308 -2.81461 0
M  V30 5361 O 538.996 3.54442 -4.15973 0
M  V30 5362 H 536.09 0.562928 -0.605839 0
M  V30 5363 H 538.636 0.492899 -1.62384 0
M  V30 5364 H 537.408 1.45032 -3.6343 0
M  V30 5365 H 537.031 2.90079 -2.71919 0
M  V30 5366 N 538.028 1.39524 0.732853 0
M  V30 5367 C 539.253 1.40329 1.52717 0
M  V30 5368 C 539.678 0.000286574 1.881 0
M  V30 5369 O 539.036 -0.987262 1.52062 0
M  V30 5370 C 539.084 2.28464 2.78992 0
M  V30 5371 O 538.188 1.716 3.75003 0
M  V30 5372 H 537.529 0.47778 0.461109 0
M  V30 5373 H 540.059 1.83546 0.903996 0
M  V30 5374 H 540.069 2.43051 3.27705 0
M  V30 5375 H 538.744 3.30425 2.52572 0
M  V30 5376 H 537.321 1.66267 3.33781 0
M  V30 5377 N 539.506 -0.963266 1.24736 0
M  V30 5378 C 540.731 -1.74699 1.11781 0
M  V30 5379 C 541.156 -1.85267 -0.325258 0
M  V30 5380 O 540.514 -1.32681 -1.23553 0
M  V30 5381 C 540.562 -3.14322 1.76731 0
M  V30 5382 O 539.666 -3.99043 1.04109 0
M  V30 5383 H 539.007 -0.53684 0.390767 0
M  V30 5384 H 541.537 -1.20801 1.65131 0
M  V30 5385 H 541.547 -3.64824 1.82668 0
M  V30 5386 H 540.222 -3.05946 2.81726 0
M  V30 5387 H 538.799 -3.5752 1.05991 0
M  V30 5388 N 540.985 -1.06182 -1.16461 0
M  V30 5389 C 542.262 -0.691364 -1.82974 0
M  V30 5390 C 542.642 0.827377 -1.9421 0
M  V30 5391 O 541.99 1.73723 -1.48434 0
M  V30 5392 C 542.2 -1.39199 -3.20038 0
M  V30 5393 C 543.548 -1.53647 -3.95825 0
M  V30 5394 O 544.572 -1.35181 -3.29552 0
M  V30 5395 O 543.431 -1.83932 -5.14618 0
M  V30 5396 H 540.525 -0.244605 -0.789998 0
M  V30 5397 H 543.071 -1.16203 -1.23673 0
M  V30 5398 H 541.843 -2.42766 -3.06888 0
M  V30 5399 H 541.466 -0.911335 -3.87015 0
M  V30 5400 N 542.463 1.3308 -0.844243 0
M  V30 5401 C 543.688 2.02341 -0.455282 0
M  V30 5402 C 544.113 1.6308 0.93737 0
M  V30 5403 O 543.471 0.826118 1.61385 0
M  V30 5404 C 543.519 3.55743 -0.58988 0
M  V30 5405 O 542.623 4.1063 0.38166 0
M  V30 5406 H 541.964 0.637898 -0.184343 0
M  V30 5407 H 544.494 1.6986 -1.14056 0
M  V30 5408 H 544.504 4.05243 -0.473522 0
M  V30 5409 H 543.179 3.83662 -1.60549 0
M  V30 5410 H 541.756 3.72236 0.22241 0
M  V30 5411 N 543.941 0.601185 1.45683 0
M  V30 5412 C 545.218 0.0261659 1.95582 0
M  V30 5413 C 545.598 -1.4399 1.5437 0
M  V30 5414 O 544.946 -2.13919 0.80318 0
M  V30 5415 C 545.156 0.217557 3.48321 0
M  V30 5416 C 546.504 0.0950076 4.24494 0
M  V30 5417 O 547.528 0.147345 3.55895 0
M  V30 5418 O 546.387 -0.025261 5.46494 0
M  V30 5419 H 543.481 -0.0393688 0.826062 0
M  V30 5420 H 546.027 0.670798 1.55879 0
M  V30 5421 H 544.799 1.23601 3.71266 0
M  V30 5422 H 544.422 -0.46264 3.94899 0
M  V30 5423 N 545.419 -1.53889 0.339982 0
M  V30 5424 C 546.644 -2.05741 -0.261798 0
M  V30 5425 C 547.069 -1.21354 -1.43718 0
M  V30 5426 O 546.427 -0.22645 -1.7988 0
M  V30 5427 C 546.475 -3.54542 -0.658228 0
M  V30 5428 O 545.579 -3.7302 -1.75869 0
M  V30 5429 H 544.92 -0.662529 -0.0441672 0
M  V30 5430 H 547.45 -1.98568 0.493161 0
M  V30 5431 H 547.46 -3.9711 -0.936368 0
M  V30 5432 H 546.135 -4.15412 0.201358 0
M  V30 5433 H 544.712 -3.42355 -1.47809 0
M  V30 5434 N 546.897 -0.0685191 -1.57451 0
M  V30 5435 C 548.122 0.613919 -1.98106 0
M  V30 5436 C 548.547 1.62551 -0.946501 0
M  V30 5437 O 547.905 1.81085 0.0882824 0
M  V30 5438 C 547.953 1.26189 -3.378 0
M  V30 5439 O 547.057 2.37773 -3.36954 0
M  V30 5440 H 546.398 0.158163 -0.644888 0
M  V30 5441 H 548.928 -0.142063 -2.04106 0
M  V30 5442 H 548.938 1.60951 -3.74912 0
M  V30 5443 H 547.613 0.520625 -4.12629 0
M  V30 5444 H 546.19 2.04829 -3.11608 0
M  V30 5445 N 548.375 1.56261 0.205012 0
M  V30 5446 C 549.285 1.96944 1.27476 0
M  V30 5447 C 550.301 0.875636 1.50362 0
M  V30 5448 O 551.477 1.18058 1.6317 0
M  V30 5449 C 548.542 2.29219 2.60115 0
M  V30 5450 C 547.603 3.52255 2.45387 0
M  V30 5451 C 546.836 3.8298 3.71701 0
M  V30 5452 O 547.059 3.15138 4.75441 0
M  V30 5453 O 545.993 4.76435 3.67823 0
M  V30 5454 H 549.819 2.88144 0.959527 0
M  V30 5455 H 547.404 1.43686 0.409217 0
M  V30 5456 H 549.286 2.51098 3.3842 0
M  V30 5457 H 547.961 1.4119 2.91285 0
M  V30 5458 H 546.868 3.35635 1.65227 0
M  V30 5459 H 548.201 4.40719 2.19152 0
M  V30 5460 N 549.853 -0.472356 1.50355 0
M  V30 5461 C 551.13 -1.23356 1.51798 0
M  V30 5462 C 551.51 -2.09469 0.26193 0
M  V30 5463 O 550.858 -2.15677 -0.754691 0
M  V30 5464 C 551.068 -2.06568 2.81302 0
M  V30 5465 C 552.416 -2.648 3.31913 0
M  V30 5466 O 553.44 -2.16812 2.82614 0
M  V30 5467 O 552.299 -3.52231 4.17846 0
M  V30 5468 H 549.393 -0.559707 0.608816 0
M  V30 5469 H 551.939 -0.48428 1.62643 0
M  V30 5470 H 550.711 -1.43103 3.64194 0
M  V30 5471 H 550.334 -2.88633 2.73454 0
M  V30 5472 N 551.331 -1.39911 -0.725443 0
M  V30 5473 C 552.608 -1.28158 -1.47766 0
M  V30 5474 C 552.988 0.104545 -2.10841 0
M  V30 5475 O 552.336 1.11657 -1.99361 0
M  V30 5476 C 552.546 -2.41306 -2.52135 0
M  V30 5477 C 553.894 -2.81076 -3.18247 0
M  V30 5478 O 554.918 -2.40827 -2.62452 0
M  V30 5479 O 553.777 -3.50581 -4.19231 0
M  V30 5480 H 550.871 -0.502761 -0.656628 0
M  V30 5481 H 553.417 -1.51808 -0.758456 0
M  V30 5482 H 552.189 -3.33932 -2.03974 0
M  V30 5483 H 551.812 -2.19374 -3.31603 0
M  V30 5484 N 552.809 0.956637 -1.25245 0
M  V30 5485 C 553.719 2.0868 -1.0719 0
M  V30 5486 C 554.735 1.73997 -0.00959074 0
M  V30 5487 O 555.911 2.00301 -0.210104 0
M  V30 5488 C 552.976 3.39754 -0.690526 0
M  V30 5489 C 552.037 3.88316 -1.83055 0
M  V30 5490 C 551.27 5.13134 -1.46728 0
M  V30 5491 O 551.493 5.6925 -0.362029 0
M  V30 5492 O 550.427 5.56356 -2.29677 0
M  V30 5493 H 554.253 2.26813 -2.01965 0
M  V30 5494 H 551.838 1.07098 -1.04165 0
M  V30 5495 H 553.72 4.18543 -0.489871 0
M  V30 5496 H 552.395 3.22896 0.227981 0
M  V30 5497 H 551.302 3.1054 -2.08604 0
M  V30 5498 H 552.635 4.09669 -2.72822 0
M  V30 5499 N 554.287 1.06798 1.15896 0
M  V30 5500 C 555.25 0.687328 2.18651 0
M  V30 5501 C 556.25 -0.269559 1.58524 0
M  V30 5502 O 557.44 -0.0512627 1.74125 0
M  V30 5503 C 554.572 0.0121642 3.40898 0
M  V30 5504 H 555.765 1.59701 2.53842 0
M  V30 5505 H 553.318 0.863828 1.3026 0
M  V30 5506 H 554.053 -0.910025 3.1127 0
M  V30 5507 H 553.838 0.700309 3.85795 0
M  V30 5508 H 555.328 -0.239703 4.16911 0
M  V30 5509 N 555.766 -1.3263 0.851289 0
M  V30 5510 C 557.177 -1.79653 0.5081 0
M  V30 5511 C 557.528 -1.70327 -0.973815 0
M  V30 5512 O 556.653 -1.25986 -1.75944 0
M  V30 5513 C 557.248 -3.26196 0.915515 0
M  V30 5514 C 555.807 -3.71187 0.624277 0
M  V30 5515 C 554.954 -2.53804 1.11709 0
M  V30 5516 H 557.905 -1.19976 1.03882 0
M  V30 5517 H 557.926 -3.79801 0.230535 0
M  V30 5518 H 557.438 -3.32952 1.99411 0
M  V30 5519 H 555.539 -3.69948 -0.443737 0
M  V30 5520 H 555.652 -4.64132 1.18821 0
M  V30 5521 H 554.016 -2.48964 0.537484 0
M  V30 5522 H 554.799 -2.63315 2.20272 0
M  V30 5523 N 557.244 -0.608902 -1.45362 0
M  V30 5524 C 558.469 -0.10921 -2.07112 0
M  V30 5525 C 558.894 1.19779 -1.45033 0
M  V30 5526 O 558.252 1.72961 -0.543527 0
M  V30 5527 C 558.3 0.0155745 -3.60597 0
M  V30 5528 O 557.404 1.06546 -3.98399 0
M  V30 5529 H 556.745 -0.0746619 -0.659789 0
M  V30 5530 H 559.275 -0.839283 -1.86594 0
M  V30 5531 H 559.285 0.213364 -4.07442 0
M  V30 5532 H 557.96 -0.938765 -4.05167 0
M  V30 5533 H 556.537 0.844024 -3.63223 0
M  V30 5534 N 558.722 1.53707 -0.348139 0
M  V30 5535 C 559.669 2.25173 0.506518 0
M  V30 5536 C 560.639 1.25174 1.09182 0
M  V30 5537 O 561.824 1.53917 1.12757 0
M  V30 5538 C 558.964 3.03141 1.64923 0
M  V30 5539 C 558.077 4.18002 1.0908 0
M  V30 5540 C 557.212 4.83447 2.20119 0
M  V30 5541 C 556.251 5.90369 1.61651 0
M  V30 5542 N 555.388 6.49575 2.66451 0
M  V30 5543 H 560.228 2.97799 -0.109452 0
M  V30 5544 H 557.765 1.46953 -0.0657866 0
M  V30 5545 H 559.723 3.46607 2.32205 0
M  V30 5546 H 558.353 2.32803 2.23612 0
M  V30 5547 H 557.405 3.79145 0.308783 0
M  V30 5548 H 558.717 4.94892 0.623178 0
M  V30 5549 H 557.871 5.30008 2.95257 0
M  V30 5550 H 556.61 4.05991 2.70227 0
M  V30 5551 H 555.615 5.43186 0.850209 0
M  V30 5552 H 556.84 6.69735 1.1239 0
M  V30 5553 H 554.786 5.74981 3.15805 0
M  V30 5554 H 554.703 7.21952 2.24325 0
M  V30 5555 H 555.971 7.00789 3.41344 0
M  V30 5556 N 560.2 0.0768682 1.57412 0
M  V30 5557 C 561.611 -0.455037 1.8107 0
M  V30 5558 C 561.962 -1.69323 0.991162 0
M  V30 5559 O 561.087 -2.15328 0.215156 0
M  V30 5560 C 561.682 -0.832316 3.28417 0
M  V30 5561 C 560.241 -1.30906 3.52903 0
M  V30 5562 C 559.388 -0.296714 2.75708 0
M  V30 5563 H 562.339 0.302514 1.5579 0
M  V30 5564 H 562.36 -1.69333 3.40744 0
M  V30 5565 H 561.872 0.0690532 3.88039 0
M  V30 5566 H 559.973 -2.22875 2.98592 0
M  V30 5567 H 560.086 -1.28348 4.61588 0
M  V30 5568 H 558.45 -0.775059 2.42621 0
M  V30 5569 H 559.233 0.597015 3.38069 0
M  V30 5570 N 561.678 -1.56367 -0.196722 0
M  V30 5571 C 562.641 -1.93561 -1.22746 0
M  V30 5572 C 563.641 -0.816566 -1.38524 0
M  V30 5573 O 564.831 -1.084 -1.36363 0
M  V30 5574 C 561.963 -2.20823 -2.59712 0
M  V30 5575 H 563.156 -2.85774 -0.909586 0
M  V30 5576 H 560.709 -1.50032 -0.438174 0
M  V30 5577 H 561.444 -1.31243 -2.96557 0
M  V30 5578 H 561.229 -3.02368 -2.49632 0
M  V30 5579 H 562.719 -2.50608 -3.34044 0
M  V30 5580 N 563.156 0.464375 -1.50603 0
M  V30 5581 C 564.404 1.21356 -1.61608 0
M  V30 5582 C 564.725 1.92329 -0.321643 0
M  V30 5583 O 563.995 1.84403 0.661232 0
M  V30 5584 H 562.575 0.45094 -0.595535 0
M  V30 5585 H 565.237 0.535046 -1.87412 0
M  V30 5586 H 564.333 1.95783 -2.43054 0
M  V30 5587 N 564.634 1.40294 0.718013 0
M  V30 5588 C 565.862 1.4175 1.50714 0
M  V30 5589 C 566.277 0.0165366 1.88793 0
M  V30 5590 O 565.634 -0.958942 1.55276 0
M  V30 5591 C 565.685 2.30598 2.784 0
M  V30 5592 O 565.406 3.6524 2.41932 0
M  V30 5593 C 566.907 2.4062 3.72313 0
M  V30 5594 H 564.127 0.483565 0.465194 0
M  V30 5595 H 566.671 1.84316 0.885889 0
M  V30 5596 H 564.826 1.91401 3.36815 0
M  V30 5597 H 565.24 4.12402 3.24076 0
M  V30 5598 H 566.714 3.07001 4.58753 0
M  V30 5599 H 567.191 1.4305 4.15251 0
M  V30 5600 H 567.797 2.80359 3.19811 0
M  V30 5601 N 566.112 -0.949982 1.2575 0
M  V30 5602 C 567.34 -1.72972 1.13527 0
M  V30 5603 C 567.755 -1.8623 -0.310453 0
M  V30 5604 O 567.112 -1.36336 -1.2132 0
M  V30 5605 C 567.163 -3.14108 1.78936 0
M  V30 5606 O 566.884 -3.01493 3.17858 0
M  V30 5607 C 568.385 -4.08338 1.72554 0
M  V30 5608 H 565.605 -0.541864 0.395758 0
M  V30 5609 H 568.149 -1.19151 1.66202 0
M  V30 5610 H 566.304 -3.64858 1.30221 0
M  V30 5611 H 566.718 -3.90559 3.50092 0
M  V30 5612 H 568.192 -5.04963 2.22973 0
M  V30 5613 H 568.669 -4.33742 0.690251 0
M  V30 5614 H 569.275 -3.63506 2.2078 0
M  V30 5615 N 567.59 -1.07411 -1.15328 0
M  V30 5616 C 568.537 -0.694995 -2.20087 0
M  V30 5617 C 569.507 0.313904 -1.63107 0
M  V30 5618 O 570.692 0.200216 -1.89747 0
M  V30 5619 C 567.832 -0.0996218 -3.44956 0
M  V30 5620 C 566.945 -1.16007 -4.16133 0
M  V30 5621 C 566.08 -0.529636 -5.28553 0
M  V30 5622 C 565.119 -1.57283 -5.91548 0
M  V30 5623 N 564.256 -0.964932 -6.95438 0
M  V30 5624 H 569.096 -1.5927 -2.51867 0
M  V30 5625 H 566.633 -0.796115 -1.23695 0
M  V30 5626 H 568.591 0.263197 -4.16369 0
M  V30 5627 H 567.221 0.761435 -3.13691 0
M  V30 5628 H 566.273 -1.64045 -3.4321 0
M  V30 5629 H 567.585 -1.95101 -4.59061 0
M  V30 5630 H 566.739 -0.114487 -6.06592 0
M  V30 5631 H 565.478 0.29307 -4.86819 0
M  V30 5632 H 564.483 -1.99775 -5.12221 0
M  V30 5633 H 565.708 -2.39783 -6.35359 0
M  V30 5634 H 563.654 -0.16314 -6.55797 0
M  V30 5635 H 563.571 -1.69311 -7.36797 0
M  V30 5636 H 564.839 -0.575305 -7.77374 0
M  V30 5637 N 569.068 1.32177 -0.85831 0
M  V30 5638 C 570.016 2.30729 -0.294442 0
M  V30 5639 C 571.01 1.59009 0.584165 0
M  V30 5640 O 572.216 1.73713 0.471562 0
M  V30 5641 H 568.591 0.748097 -0.0765171 0
M  V30 5642 H 570.562 2.75774 -1.1398 0
M  V30 5643 C 569.311 3.44098 0.499208 0
M  V30 5644 H 568.634 3.99449 -0.167579 0
M  V30 5645 H 570.074 4.15202 0.859273 0
M  V30 5646 C 568.533 2.91684 1.68588 0
M  V30 5647 O 569.063 2.89481 2.78503 0
M  V30 5648 N 567.269 2.48036 1.51415 0
M  V30 5649 H 566.816 2.50027 0.620006 0
M  V30 5650 H 566.774 2.13322 2.30957 0
M  V30 5651 N 570.547 0.616602 1.45037 0
M  V30 5652 C 571.772 0.120192 2.07051 0
M  V30 5653 C 572.197 -1.19008 1.45666 0
M  V30 5654 O 571.555 -1.7267 0.552692 0
M  V30 5655 C 571.603 0.00354901 3.606 0
M  V30 5656 O 570.707 -1.04431 3.98958 0
M  V30 5657 H 570.048 0.0781599 0.659384 0
M  V30 5658 H 572.578 0.849167 1.86146 0
M  V30 5659 H 572.588 -0.191754 4.07549 0
M  V30 5660 H 571.263 0.960239 4.04663 0
M  V30 5661 H 569.84 -0.824749 3.63665 0
M  V30 5662 N 572.025 -1.5352 0.356285 0
M  V30 5663 C 573.25 -2.06007 -0.239961 0
M  V30 5664 C 573.675 -1.22872 -1.42422 0
M  V30 5665 O 573.033 -0.245516 -1.7963 0
M  V30 5666 C 573.081 -3.5522 -0.620587 0
M  V30 5667 O 572.185 -3.74864 -1.71902 0
M  V30 5668 H 571.526 -0.662961 -0.0371377 0
M  V30 5669 H 574.056 -1.98033 0.514194 0
M  V30 5670 H 574.066 -3.98081 -0.894197 0
M  V30 5671 H 572.741 -4.15175 0.245407 0
M  V30 5672 H 571.318 -3.43904 -1.44169 0
M  V30 5673 N 573.503 -0.0852151 -1.57369 0
M  V30 5674 C 574.451 0.894856 -2.14698 0
M  V30 5675 C 575.445 1.29903 -1.08727 0
M  V30 5676 O 576.651 1.27471 -1.27088 0
M  V30 5677 H 573.026 0.306569 -0.686673 0
M  V30 5678 H 574.997 0.386542 -2.95886 0
M  V30 5679 C 573.746 2.14798 -2.73417 0
M  V30 5680 H 573.069 1.84585 -3.54638 0
M  V30 5681 H 574.509 2.81456 -3.1711 0
M  V30 5682 C 572.968 2.91546 -1.68828 0
M  V30 5683 O 573.498 3.85733 -1.12129 0
M  V30 5684 N 571.704 2.54901 -1.39549 0
M  V30 5685 H 571.251 1.7838 -1.85845 0
M  V30 5686 H 571.209 3.06553 -0.698054 0
M  V30 5687 N 574.981 1.5647 0.188427 0
M  V30 5688 C 575.928 1.95073 1.23349 0
M  V30 5689 C 576.898 0.812238 1.44886 0
M  V30 5690 O 578.083 1.07095 1.57909 0
M  V30 5691 C 575.223 2.30124 2.57171 0
M  V30 5692 C 574.336 3.57069 2.43157 0
M  V30 5693 C 573.471 3.81411 3.69729 0
M  V30 5694 C 572.51 5.0176 3.50575 0
M  V30 5695 N 571.647 5.22321 4.69175 0
M  V30 5696 H 576.487 2.84171 0.89728 0
M  V30 5697 H 574.024 1.40623 0.431683 0
M  V30 5698 H 575.982 2.48463 3.35145 0
M  V30 5699 H 574.612 1.44159 2.88822 0
M  V30 5700 H 573.664 3.4674 1.56447 0
M  V30 5701 H 574.976 4.452 2.24942 0
M  V30 5702 H 574.13 4.00026 4.56141 0
M  V30 5703 H 572.869 2.91624 3.90905 0
M  V30 5704 H 571.874 4.83061 2.62549 0
M  V30 5705 H 573.099 5.93063 3.30837 0
M  V30 5706 H 571.045 4.35483 4.90602 0
M  V30 5707 H 570.962 6.04643 4.53809 0
M  V30 5708 H 572.23 5.45401 5.56919 0
M  V30 5709 N 576.459 -0.456382 1.50847 0
M  V30 5710 C 577.87 -1.03685 1.55262 0
M  V30 5711 C 578.221 -1.92779 0.364771 0
M  V30 5712 O 577.346 -2.10043 -0.52068 0
M  V30 5713 C 577.941 -1.88718 2.81374 0
M  V30 5714 C 576.5 -2.41847 2.88422 0
M  V30 5715 C 575.647 -1.20564 2.49719 0
M  V30 5716 H 578.598 -0.238399 1.56899 0
M  V30 5717 H 578.619 -2.73957 2.6406 0
M  V30 5718 H 578.131 -1.23847 3.67809 0
M  V30 5719 H 576.232 -3.10228 2.06372 0
M  V30 5720 H 576.345 -2.75947 3.9165 0
M  V30 5721 H 574.709 -1.54504 2.02486 0
M  V30 5722 H 575.492 -0.573326 3.38479 0
M  V30 5723 N 577.937 -1.40673 -0.710563 0
M  V30 5724 C 578.9 -1.4108 -1.80635 0
M  V30 5725 C 579.9 -0.303783 -1.57904 0
M  V30 5726 O 581.09 -0.562937 -1.64853 0
M  V30 5727 C 578.222 -1.20748 -3.18799 0
M  V30 5728 H 579.415 -2.38612 -1.81671 0
M  V30 5729 H 576.968 -1.26595 -0.916704 0
M  V30 5730 H 577.703 -0.239964 -3.23411 0
M  V30 5731 H 577.488 -2.00941 -3.36698 0
M  V30 5732 H 578.978 -1.23833 -3.98817 0
M  V30 5733 N 579.415 0.9433 -1.26252 0
M  V30 5734 C 580.661 1.69175 -1.11837 0
M  V30 5735 C 580.994 1.91238 0.337891 0
M  V30 5736 O 580.269 1.49152 1.24836 0
M  V30 5737 C 580.552 3.06783 -1.88563 0
M  V30 5738 C 580.405 2.9206 -3.42083 0
M  V30 5739 C 581.724 4.06865 -1.67776 0
M  V30 5740 H 578.843 0.61399 -0.407658 0
M  V30 5741 H 581.485 1.09572 -1.55222 0
M  V30 5742 H 579.635 3.57663 -1.51689 0
M  V30 5743 H 581.307 2.48419 -3.88698 0
M  V30 5744 H 579.55 2.27731 -3.69217 0
M  V30 5745 H 580.221 3.89651 -3.90994 0
M  V30 5746 H 582.697 3.64939 -1.99897 0
M  V30 5747 H 581.573 5.01168 -2.23879 0
M  V30 5748 H 581.834 4.37705 -0.621816 0
M  V30 5749 N 580.893 1.08022 1.14757 0
M  V30 5750 C 582.121 0.828847 1.89572 0
M  V30 5751 C 582.536 -0.618621 1.78377 0
M  V30 5752 O 581.893 -1.42482 1.1404 0
M  V30 5753 C 581.944 1.23677 3.39685 0
M  V30 5754 O 581.665 2.62746 3.50566 0
M  V30 5755 C 583.166 1.01569 4.31507 0
M  V30 5756 H 580.386 0.299196 0.600602 0
M  V30 5757 H 582.93 1.43846 1.45357 0
M  V30 5758 H 581.085 0.671347 3.81539 0
M  V30 5759 H 581.499 2.79573 4.43778 0
M  V30 5760 H 582.973 1.35055 5.35223 0
M  V30 5761 H 583.45 -0.0475433 4.39174 0
M  V30 5762 H 584.056 1.56636 3.95405 0
M  V30 5763 N 582.371 -1.3172 0.865308 0
M  V30 5764 C 583.599 -2.01057 0.488251 0
M  V30 5765 C 584.014 -1.64979 -0.918 0
M  V30 5766 O 583.371 -0.876597 -1.60069 0
M  V30 5767 C 583.422 -3.55964 0.630224 0
M  V30 5768 O 583.143 -3.90749 1.98109 0
M  V30 5769 C 584.644 -4.42574 0.253567 0
M  V30 5770 H 581.864 -0.64332 0.190736 0
M  V30 5771 H 584.408 -1.68058 1.16519 0
M  V30 5772 H 582.563 -3.874 0.000895422 0
M  V30 5773 H 582.977 -4.85467 1.9855 0
M  V30 5774 H 584.451 -5.50521 0.403875 0
M  V30 5775 H 584.928 -4.31724 -0.806895 0
M  V30 5776 H 585.534 -4.16547 0.858404 0
M  V30 5777 N 583.85 -0.624285 -1.44708 0
M  V30 5778 C 584.797 0.0847135 -2.30644 0
M  V30 5779 C 585.767 0.843575 -1.43084 0
M  V30 5780 O 586.952 0.825982 -1.71995 0
M  V30 5781 C 584.091 1.06495 -3.28257 0
M  V30 5782 C 583.205 0.305224 -4.3092 0
M  V30 5783 C 582.34 1.27667 -5.1563 0
M  V30 5784 C 581.379 0.505706 -6.10007 0
M  V30 5785 N 580.516 1.42727 -6.8744 0
M  V30 5786 H 585.356 -0.654068 -2.90733 0
M  V30 5787 H 582.893 -0.334334 -1.4325 0
M  V30 5788 H 584.851 1.64658 -3.83332 0
M  V30 5789 H 583.481 1.77094 -2.69884 0
M  V30 5790 H 582.533 -0.392207 -3.78373 0
M  V30 5791 H 583.845 -0.295553 -4.97924 0
M  V30 5792 H 582.999 1.92984 -5.75189 0
M  V30 5793 H 581.738 1.91137 -4.48685 0
M  V30 5794 H 580.743 -0.160999 -5.49564 0
M  V30 5795 H 581.968 -0.124183 -6.78986 0
M  V30 5796 H 579.913 2.04931 -6.23169 0
M  V30 5797 H 579.831 0.880345 -7.50857 0
M  V30 5798 H 581.099 2.0695 -7.51526 0
M  V30 5799 N 585.328 1.53329 -0.364422 0
M  V30 5800 C 586.553 2.06132 0.229033 0
M  V30 5801 C 586.978 1.23625 1.41769 0
M  V30 5802 O 586.336 0.255038 1.79497 0
M  V30 5803 C 586.384 3.55544 0.60174 0
M  V30 5804 O 585.488 3.75771 1.69912 0
M  V30 5805 H 584.829 0.663148 0.0336213 0
M  V30 5806 H 587.359 1.97758 -0.524689 0
M  V30 5807 H 587.369 3.98549 0.873073 0
M  V30 5808 H 586.044 4.15039 -0.267421 0
M  V30 5809 H 584.621 3.44663 1.42343 0
M  V30 5810 N 586.806 0.0935595 1.57322 0
M  V30 5811 C 588.217 -0.435807 1.81542 0
M  V30 5812 C 588.568 -1.68263 1.00907 0
M  V30 5813 O 587.693 -2.15087 0.237983 0
M  V30 5814 C 588.288 -0.797436 3.29282 0
M  V30 5815 C 586.847 -1.27155 3.54272 0
M  V30 5816 C 585.994 -0.267455 2.76007 0
M  V30 5817 H 588.945 0.31902 1.5546 0
M  V30 5818 H 588.966 -1.6571 3.42521 0
M  V30 5819 H 588.478 0.110206 3.87943 0
M  V30 5820 H 586.579 -2.19696 3.00939 0
M  V30 5821 H 586.692 -1.23445 4.62923 0
M  V30 5822 H 585.056 -0.749282 2.43429 0
M  V30 5823 H 585.839 0.632839 3.37417 0
M  V30 5824 N 588.284 -1.56567 -0.180126 0
M  V30 5825 C 589.247 -1.94852 -1.20686 0
M  V30 5826 C 590.247 -0.831212 -1.3765 0
M  V30 5827 O 591.437 -1.09841 -1.35206 0
M  V30 5828 C 588.569 -2.23565 -2.57355 0
M  V30 5829 H 589.762 -2.86722 -0.879225 0
M  V30 5830 H 587.315 -1.50489 -0.422237 0
M  V30 5831 H 588.05 -1.34381 -2.95148 0
M  V30 5832 H 587.835 -3.04999 -2.46411 0
M  V30 5833 H 589.325 -2.54137 -3.31367 0
M  V30 5834 N 589.762 0.448376 -1.51087 0
M  V30 5835 C 591.008 1.20049 -1.6345 0
M  V30 5836 C 591.341 1.91121 -0.344444 0
M  V30 5837 O 590.616 1.83125 0.655396 0
M  V30 5838 C 590.899 2.22624 -2.83038 0
M  V30 5839 C 590.752 1.55708 -4.21989 0
M  V30 5840 C 592.071 3.23718 -2.98152 0
M  V30 5841 H 589.19 0.435085 -0.59487 0
M  V30 5842 H 591.832 0.491183 -1.83541 0
M  V30 5843 H 589.982 2.83117 -2.66039 0
M  V30 5844 H 591.654 0.986367 -4.50631 0
M  V30 5845 H 589.897 0.859647 -4.25197 0
M  V30 5846 H 590.568 2.30357 -5.01637 0
M  V30 5847 H 593.044 2.73269 -3.13788 0
M  V30 5848 H 591.92 3.92795 -3.83411 0
M  V30 5849 H 592.181 3.89179 -2.09743 0
M  V30 5850 N 591.24 1.41047 0.703093 0
M  V30 5851 C 592.187 1.42302 1.81711 0
M  V30 5852 C 593.157 0.278336 1.63751 0
M  V30 5853 O 594.342 0.478266 1.84709 0
M  V30 5854 C 591.482 1.30362 3.19531 0
M  V30 5855 C 590.595 2.54638 3.48975 0
M  V30 5856 C 589.73 2.35047 4.76368 0
M  V30 5857 C 588.769 3.54837 4.98756 0
M  V30 5858 N 587.906 3.34363 6.1737 0
M  V30 5859 H 592.746 2.37516 1.79973 0
M  V30 5860 H 590.283 1.1795 0.878983 0
M  V30 5861 H 592.241 1.21443 3.99134 0
M  V30 5862 H 590.871 0.387602 3.20464 0
M  V30 5863 H 589.923 2.74037 2.63833 0
M  V30 5864 H 591.235 3.43766 3.61423 0
M  V30 5865 H 590.389 2.23552 5.64012 0
M  V30 5866 H 589.128 1.43363 4.66153 0
M  V30 5867 H 588.133 3.66795 4.09563 0
M  V30 5868 H 589.358 4.47464 5.10835 0
M  V30 5869 H 587.304 2.45373 6.08382 0
M  V30 5870 H 587.221 4.17063 6.30551 0
M  V30 5871 H 588.489 3.26626 7.07768 0
M  V30 5872 N 592.718 -0.936591 1.26751 0
M  V30 5873 C 594.129 -1.49816 1.1141 0
M  V30 5874 C 594.48 -1.9383 -0.304015 0
M  V30 5875 O 593.605 -1.80346 -1.196 0
M  V30 5876 C 594.2 -2.72271 2.01629 0
M  V30 5877 C 592.759 -3.2468 1.9042 0
M  V30 5878 C 591.906 -1.97444 1.94708 0
M  V30 5879 H 594.857 -0.751604 1.39773 0
M  V30 5880 H 594.878 -3.46741 1.56688 0
M  V30 5881 H 594.39 -2.40205 3.04833 0
M  V30 5882 H 592.491 -3.61525 0.901674 0
M  V30 5883 H 592.604 -3.91476 2.76195 0
M  V30 5884 H 590.968 -2.13545 1.38818 0
M  V30 5885 H 591.751 -1.67703 2.9955 0
M  V30 5886 N 594.196 -1.08629 -1.14182 0
M  V30 5887 C 595.159 -0.722027 -2.1753 0
M  V30 5888 C 596.159 0.244305 -1.58933 0
M  V30 5889 O 597.349 0.0235545 -1.74184 0
M  V30 5890 C 594.481 -0.0663966 -3.40835 0
M  V30 5891 H 595.674 -1.63719 -2.51269 0
M  V30 5892 H 593.227 -0.884442 -1.28869 0
M  V30 5893 H 593.962 0.860389 -3.12678 0
M  V30 5894 H 593.747 -0.761598 -3.84632 0
M  V30 5895 H 595.237 0.173346 -4.1724 0
M  V30 5896 N 595.674 1.31259 -0.872281 0
M  V30 5897 C 596.637 2.26744 -0.334656 0
M  V30 5898 C 597.637 1.52307 0.515681 0
M  V30 5899 O 598.827 1.71148 0.324656 0
M  V30 5900 C 595.959 3.36841 0.524482 0
M  V30 5901 H 597.152 2.75812 -1.17762 0
M  V30 5902 H 594.705 1.42232 -0.648064 0
M  V30 5903 H 595.44 2.93069 1.38855 0
M  V30 5904 H 595.225 3.92009 -0.0844299 0
M  V30 5905 H 596.715 4.07944 0.892838 0
M  V30 5906 N 597.152 0.631951 1.44375 0
M  V30 5907 C 598.115 -0.0628142 2.29114 0
M  V30 5908 C 599.115 -0.771494 1.41084 0
M  V30 5909 O 600.305 -0.615959 1.62947 0
M  V30 5910 C 597.437 -1.09953 3.22681 0
M  V30 5911 H 598.63 0.682509 2.92031 0
M  V30 5912 H 596.183 0.392128 1.51301 0
M  V30 5913 H 596.918 -1.87481 2.64616 0
M  V30 5914 H 596.703 -0.595286 3.87555 0
M  V30 5915 H 598.193 -1.58538 3.86336 0
M  V30 5916 N 598.631 -1.53133 0.372548 0
M  V30 5917 C 600.042 -1.86404 -0.105155 0
M  V30 5918 C 600.393 -1.29289 -1.47576 0
M  V30 5919 O 599.518 -0.617646 -2.07398 0
M  V30 5920 C 600.113 -3.38223 -0.197588 0
M  V30 5921 C 598.672 -3.71266 -0.619556 0
M  V30 5922 C 597.819 -2.76353 0.228919 0
M  V30 5923 H 600.77 -1.47282 0.591077 0
M  V30 5924 H 600.791 -3.66577 -1.01987 0
M  V30 5925 H 600.303 -3.79763 0.800099 0
M  V30 5926 H 598.404 -3.35287 -1.62522 0
M  V30 5927 H 598.517 -4.77515 -0.389332 0
M  V30 5928 H 596.881 -2.52888 -0.303271 0
M  V30 5929 H 597.664 -3.20728 1.22428 0
M  V30 5930 N 600.109 -0.101901 -1.5727 0
M  V30 5931 C 601.056 0.854577 -2.14396 0
M  V30 5932 C 602.026 1.27521 -1.06432 0
M  V30 5933 O 603.211 1.35575 -1.34253 0
M  V30 5934 C 600.351 2.10576 -2.73408 0
M  V30 5935 C 599.464 1.73504 -3.95626 0
M  V30 5936 C 598.599 2.9346 -4.42781 0
M  V30 5937 C 597.638 2.52547 -5.57572 0
M  V30 5938 N 596.775 3.65359 -5.99547 0
M  V30 5939 H 601.615 0.360578 -2.9581 0
M  V30 5940 H 599.152 0.166303 -1.46157 0
M  V30 5941 H 601.11 2.83859 -3.05745 0
M  V30 5942 H 599.74 2.57463 -1.94711 0
M  V30 5943 H 598.792 0.901622 -3.6956 0
M  V30 5944 H 600.104 1.39426 -4.78917 0
M  V30 5945 H 599.258 3.74988 -4.76937 0
M  V30 5946 H 597.997 3.30753 -3.58404 0
M  V30 5947 H 597.002 1.69446 -5.23037 0
M  V30 5948 H 598.227 2.1639 -6.43702 0
M  V30 5949 H 596.173 4.02358 -5.18116 0
M  V30 5950 H 596.09 3.35148 -6.77652 0
M  V30 5951 H 597.358 4.47378 -6.38336 0
M  V30 5952 N 601.587 1.56661 0.17182 0
M  V30 5953 C 602.519 1.92934 1.2373 0
M  V30 5954 C 603.532 0.822385 1.40502 0
M  V30 5955 O 604.721 1.10083 1.40514 0
M  V30 5956 C 601.821 2.16651 2.60607 0
M  V30 5957 C 600.994 3.47878 2.6514 0
M  V30 5958 C 600.053 3.60429 3.83377 0
M  V30 5959 O 599.079 4.33051 3.69398 0
M  V30 5960 N 600.281 2.95241 4.99813 0
M  V30 5961 H 603.046 2.84931 0.929205 0
M  V30 5962 H 600.607 1.5781 0.361588 0
M  V30 5963 H 602.599 2.22312 3.38171 0
M  V30 5964 H 601.169 1.3104 2.83809 0
M  V30 5965 H 600.389 3.53879 1.73675 0
M  V30 5966 H 601.677 4.34232 2.6518 0
M  V30 5967 H 601.075 2.3611 5.14071 0
M  V30 5968 H 599.632 3.06499 5.75241 0
M  V30 5969 N 603.065 -0.440357 1.51323 0
M  V30 5970 C 604.476 -1.02032 1.56353 0
M  V30 5971 C 604.827 -1.92382 0.385197 0
M  V30 5972 O 603.952 -2.10583 -0.498373 0
M  V30 5973 C 604.547 -1.85723 2.83359 0
M  V30 5974 C 603.106 -2.38774 2.90971 0
M  V30 5975 C 602.253 -1.17908 2.50984 0
M  V30 5976 H 605.204 -0.221744 1.57143 0
M  V30 5977 H 605.225 -2.71141 2.66951 0
M  V30 5978 H 604.737 -1.19939 3.69102 0
M  V30 5979 H 602.838 -3.08021 2.09651 0
M  V30 5980 H 602.951 -2.71778 3.94555 0
M  V30 5981 H 601.315 -1.52347 2.04114 0
M  V30 5982 H 602.098 -0.537393 3.39068 0
M  V30 5983 N 604.543 -1.41418 -0.695603 0
M  V30 5984 C 605.789 -1.40982 -1.4578 0
M  V30 5985 C 606.122 -0.0187763 -1.94191 0
M  V30 5986 O 605.397 0.95346 -1.69527 0
M  V30 5987 C 605.68 -2.41657 -2.66972 0
M  V30 5988 C 605.533 -3.89869 -2.24327 0
M  V30 5989 C 606.852 -2.39589 -3.69168 0
M  V30 5990 H 603.971 -0.513405 -0.528757 0
M  V30 5991 H 606.613 -1.72693 -0.792275 0
M  V30 5992 H 604.763 -2.14746 -3.23754 0
M  V30 5993 H 606.435 -4.27683 -1.72872 0
M  V30 5994 H 604.678 -4.04737 -1.56111 0
M  V30 5995 H 605.349 -4.55857 -3.11285 0
M  V30 5996 H 607.825 -2.63471 -3.2206 0
M  V30 5997 H 606.701 -3.12044 -4.51575 0
M  V30 5998 H 606.962 -1.41447 -4.18862 0
M  V30 5999 N 606.021 0.929856 -1.27246 0
M  V30 6000 C 607.269 1.674 -1.13233 0
M  V30 6001 C 607.59 1.92311 0.322744 0
M  V30 6002 O 606.86 1.52784 1.22612 0
M  V30 6003 H 605.44 0.620411 -0.416052 0
M  V30 6004 H 608.102 1.11663 -1.59741 0
M  V30 6005 H 607.198 2.64308 -1.65975 0
M  V30 6006 N 607.499 1.09233 1.13605 0
M  V30 6007 C 608.747 0.825525 1.84471 0
M  V30 6008 C 609.068 -0.650702 1.83823 0
M  V30 6009 O 608.338 -1.47204 1.29259 0
M  V30 6010 H 606.918 0.3024 0.683054 0
M  V30 6011 H 609.58 1.38006 1.37624 0
M  V30 6012 H 608.676 1.17727 2.89045 0
M  V30 6013 N 608.977 -1.30795 0.87923 0
M  V30 6014 C 610.225 -1.95974 0.493809 0
M  V30 6015 C 610.546 -1.69787 -0.959021 0
M  V30 6016 O 609.816 -1.01832 -1.67353 0
M  V30 6017 H 608.396 -0.725083 0.179622 0
M  V30 6018 H 611.058 -1.59432 1.12105 0
M  V30 6019 H 610.154 -3.05058 0.659263 0
M  V30 6020 N 610.455 -0.639598 -1.44038 0
M  V30 6021 C 611.387 0.0987684 -2.28987 0
M  V30 6022 C 612.4 0.80058 -1.41755 0
M  V30 6023 O 613.589 0.660611 -1.65826 0
M  V30 6024 C 610.689 1.16242 -3.18341 0
M  V30 6025 C 609.862 0.541447 -4.34036 0
M  V30 6026 C 608.921 1.50017 -5.04362 0
M  V30 6027 O 607.947 1.01403 -5.60095 0
M  V30 6028 N 609.149 2.83441 -5.06598 0
M  V30 6029 H 611.914 -0.630305 -2.92997 0
M  V30 6030 H 609.475 -0.481376 -1.54578 0
M  V30 6031 H 611.467 1.80429 -3.62253 0
M  V30 6032 H 610.037 1.79362 -2.56024 0
M  V30 6033 H 609.257 -0.27923 -3.9321 0
M  V30 6034 H 610.545 0.107379 -5.08687 0
M  V30 6035 H 609.943 3.2551 -4.62666 0
M  V30 6036 H 608.5 3.42966 -5.54272 0
M  V30 6037 N 611.933 1.52934 -0.380664 0
M  V30 6038 C 612.88 2.26197 0.458641 0
M  V30 6039 C 613.85 1.27462 1.06502 0
M  V30 6040 O 615.035 1.56274 1.09467 0
M  V30 6041 C 612.175 3.06571 1.58456 0
M  V30 6042 C 611.288 4.20222 1.00189 0
M  V30 6043 C 610.423 4.88007 2.09815 0
M  V30 6044 C 609.462 5.93665 1.49092 0
M  V30 6045 N 608.599 6.55081 2.52613 0
M  V30 6046 H 613.439 2.975 -0.172595 0
M  V30 6047 H 610.976 1.4678 -0.0969426 0
M  V30 6048 H 612.934 3.51455 2.24801 0
M  V30 6049 H 611.564 2.37494 2.18624 0
M  V30 6050 H 610.616 3.79714 0.228292 0
M  V30 6051 H 611.928 4.96102 0.518064 0
M  V30 6052 H 611.082 5.36151 2.83948 0
M  V30 6053 H 609.821 4.11632 2.61555 0
M  V30 6054 H 608.826 5.44868 0.7348 0
M  V30 6055 H 610.051 6.71969 0.981582 0
M  V30 6056 H 607.997 5.8155 3.03538 0
M  V30 6057 H 607.914 7.26548 2.08961 0
M  V30 6058 H 609.182 7.07871 3.26402 0
M  V30 6059 N 613.412 0.11024 1.57214 0
M  V30 6060 C 614.342 -0.840002 2.17867 0
M  V30 6061 C 615.323 -1.28352 1.11624 0
M  V30 6062 O 616.508 -1.3477 1.39824 0
M  V30 6063 C 613.638 -2.09349 2.77111 0
M  V30 6064 C 612.592 -1.78807 3.8886 0
M  V30 6065 C 611.918 -3.11112 4.34872 0
M  V30 6066 C 613.218 -1.0632 5.11364 0
M  V30 6067 H 614.912 -0.334608 2.97524 0
M  V30 6068 H 612.458 -0.159502 1.43114 0
M  V30 6069 H 614.411 -2.76275 3.18198 0
M  V30 6070 H 613.135 -2.62198 1.9473 0
M  V30 6071 H 611.794 -1.14273 3.48335 0
M  V30 6072 H 611.442 -3.61877 3.49362 0
M  V30 6073 H 611.142 -2.91453 5.10224 0
M  V30 6074 H 612.666 -3.79171 4.78604 0
M  V30 6075 H 614.08 -1.63383 5.49526 0
M  V30 6076 H 612.477 -0.967876 5.92243 0
M  V30 6077 H 613.547 -0.0484569 4.84876 0
M  V30 6078 N 614.89 -1.56749 -0.16351 0
M  V30 6079 C 615.82 -2.00042 -1.20438 0
M  V30 6080 C 616.801 -0.877256 -1.45733 0
M  V30 6081 O 617.986 -1.1439 -1.56935 0
M  V30 6082 C 615.116 -2.36697 -2.54149 0
M  V30 6083 C 614.07 -3.52046 -2.43408 0
M  V30 6084 C 613.396 -3.74466 -3.81679 0
M  V30 6085 C 614.696 -4.85247 -1.93216 0
M  V30 6086 H 616.39 -2.87244 -0.844477 0
M  V30 6087 H 613.936 -1.38194 -0.40478 0
M  V30 6088 H 615.889 -2.65582 -3.27176 0
M  V30 6089 H 614.613 -1.46414 -2.91943 0
M  V30 6090 H 613.272 -3.23301 -1.72834 0
M  V30 6091 H 612.92 -2.81461 -4.1688 0
M  V30 6092 H 612.62 -4.52084 -3.75359 0
M  V30 6093 H 614.144 -4.0576 -4.5628 0
M  V30 6094 H 615.558 -5.12957 -2.56023 0
M  V30 6095 H 613.955 -5.66556 -1.97825 0
M  V30 6096 H 615.025 -4.7672 -0.88689 0
M  V30 6097 N 616.368 0.432326 -1.51554 0
M  V30 6098 C 617.596 1.20364 -1.68286 0
M  V30 6099 C 618.011 1.84888 -0.38233 0
M  V30 6100 O 617.368 1.70924 0.639627 0
M  V30 6101 C 617.419 2.28398 -2.80208 0
M  V30 6102 O 617.14 1.66512 -4.05223 0
M  V30 6103 C 618.641 3.18584 -3.08251 0
M  V30 6104 H 615.861 0.36259 -0.564596 0
M  V30 6105 H 618.405 0.511647 -1.97996 0
M  V30 6106 H 616.56 2.93305 -2.53083 0
M  V30 6107 H 616.974 2.37951 -4.67418 0
M  V30 6108 H 618.448 3.90511 -3.90135 0
M  V30 6109 H 618.925 3.79628 -2.2086 0
M  V30 6110 H 619.531 2.59372 -3.37055 0
M  V30 6111 N 617.846 1.41785 0.688094 0
M  V30 6112 C 619.262 1.24419 0.999608 0
M  V30 6113 C 619.462 0.138868 2.01021 0
M  V30 6114 O 618.518 -0.494283 2.47615 0
M  V30 6115 C 619.831 2.59625 1.51709 0
M  V30 6116 C 621.379 2.66869 1.63554 0
M  V30 6117 C 621.854 4.0241 2.18702 0
M  V30 6118 N 623.345 4.04295 2.26053 0
M  V30 6119 C 624.08 5.05977 2.69768 0
M  V30 6120 N 623.576 6.18047 3.13033 0
M  V30 6121 N 625.369 4.93336 2.69398 0
M  V30 6122 H 617.52 2.12392 0.0187427 0
M  V30 6123 H 619.783 0.945347 0.0708673 0
M  V30 6124 H 619.489 3.41297 0.849059 0
M  V30 6125 H 619.363 2.82628 2.49803 0
M  V30 6126 H 621.75 1.8555 2.29467 0
M  V30 6127 H 621.831 2.47668 0.639857 0
M  V30 6128 H 621.475 4.8418 1.53402 0
M  V30 6129 H 621.405 4.18955 3.19037 0
M  V30 6130 H 623.896 3.23383 1.9553 0
M  V30 6131 H 624.209 6.91498 3.45038 0
M  V30 6132 H 622.554 6.21572 3.10923 0
M  V30 6133 H 625.745 4.04865 2.34952 0
M  V30 6134 H 625.918 5.72717 3.03148 0
M  V30 6135 N 619.324 -0.923095 1.27737 0
M  V30 6136 C 620.271 -2.02432 1.1086 0
M  V30 6137 C 621.241 -1.66098 0.00835195 0
M  V30 6138 O 622.426 -1.90027 0.171542 0
M  V30 6139 C 619.566 -3.36476 0.766671 0
M  V30 6140 C 618.679 -3.85737 1.94501 0
M  V30 6141 C 617.814 -5.08249 1.54455 0
M  V30 6142 C 616.853 -5.49818 2.6901 0
M  V30 6143 N 615.99 -6.63524 2.29521 0
M  V30 6144 H 620.83 -2.16201 2.05089 0
M  V30 6145 H 618.367 -1.05909 1.02087 0
M  V30 6146 H 620.325 -4.13569 0.549223 0
M  V30 6147 H 618.955 -3.22502 -0.13867 0
M  V30 6148 H 618.007 -3.04883 2.27487 0
M  V30 6149 H 619.319 -4.12513 2.80419 0
M  V30 6150 H 618.473 -5.92857 1.28862 0
M  V30 6151 H 617.212 -4.83261 0.656534 0
M  V30 6152 H 616.217 -4.63757 2.95313 0
M  V30 6153 H 617.442 -5.76799 3.5844 0
M  V30 6154 H 615.388 -6.40185 1.43177 0
M  V30 6155 H 615.305 -6.89978 3.08977 0
M  V30 6156 H 616.573 -7.51461 2.07187 0
M  V30 6157 N 620.802 -1.09834 -1.13024 0
M  V30 6158 C 621.765 -0.745058 -2.16752 0
M  V30 6159 C 622.765 0.227435 -1.59183 0
M  V30 6160 O 623.955 0.0050786 -1.74199 0
M  V30 6161 C 621.087 -0.102543 -3.40746 0
M  V30 6162 H 622.28 -1.66375 -2.49518 0
M  V30 6163 H 619.833 -0.898061 -1.27924 0
M  V30 6164 H 620.568 0.827177 -3.13573 0
M  V30 6165 H 620.353 -0.80235 -3.83803 0
M  V30 6166 H 621.843 0.129082 -4.174 0
M  V30 6167 N 622.28 1.30327 -0.886154 0
M  V30 6168 C 623.557 1.90922 -0.425217 0
M  V30 6169 C 623.937 1.80533 1.09413 0
M  V30 6170 O 623.285 1.2233 1.92996 0
M  V30 6171 C 623.495 3.36529 -0.924638 0
M  V30 6172 C 624.843 4.13598 -0.960305 0
M  V30 6173 O 625.867 3.45377 -0.871382 0
M  V30 6174 O 624.726 5.35482 -1.09184 0
M  V30 6175 H 621.82 0.81668 -0.130238 0
M  V30 6176 H 624.366 1.38886 -0.975132 0
M  V30 6177 H 623.138 3.38181 -1.96849 0
M  V30 6178 H 622.761 3.96021 -0.353955 0
M  V30 6179 N 623.758 0.647228 1.43697 0
M  V30 6180 C 624.983 0.164083 2.0675 0
M  V30 6181 C 625.408 -1.15892 1.48158 0
M  V30 6182 O 624.766 -1.71459 0.589194 0
M  V30 6183 C 624.814 0.0800368 3.60511 0
M  V30 6184 O 623.918 -0.959453 4.01084 0
M  V30 6185 H 623.259 0.0921288 0.657578 0
M  V30 6186 H 625.789 0.88846 1.84303 0
M  V30 6187 H 625.799 -0.105263 4.07864 0
M  V30 6188 H 624.474 1.04586 4.02535 0
M  V30 6189 H 623.051 -0.747425 3.65333 0
M  V30 6190 N 625.236 -1.5273 0.388769 0
M  V30 6191 C 626.461 -2.0647 -0.19621 0
M  V30 6192 C 626.886 -1.25865 -1.39784 0
M  V30 6193 O 626.244 -0.283562 -1.79069 0
M  V30 6194 C 626.292 -3.56456 -0.5451 0
M  V30 6195 O 625.396 -3.78426 -1.63912 0
M  V30 6196 H 624.737 -0.663599 -0.023067 0
M  V30 6197 H 627.267 -1.96898 0.556084 0
M  V30 6198 H 627.277 -3.99888 -0.809557 0
M  V30 6199 H 625.952 -4.14561 0.333417 0
M  V30 6200 H 624.529 -3.46884 -1.36842 0
M  V30 6201 N 626.714 -0.118576 -1.57153 0
M  V30 6202 C 627.939 0.550582 -1.99958 0
M  V30 6203 C 628.364 1.59458 -0.997736 0
M  V30 6204 O 627.722 1.81274 0.0306269 0
M  V30 6205 C 627.77 1.15379 -3.41643 0
M  V30 6206 O 626.874 2.26932 -3.44348 0
M  V30 6207 H 626.215 0.137567 -0.649593 0
M  V30 6208 H 628.745 -0.206926 -2.03551 0
M  V30 6209 H 628.755 1.48942 -3.79843 0
M  V30 6210 H 627.43 0.389087 -4.14076 0
M  V30 6211 H 626.007 1.94812 -3.17967 0
M  V30 6212 N 628.193 1.56834 0.155195 0
M  V30 6213 C 629.418 1.87412 0.888337 0
M  V30 6214 C 629.843 0.70671 1.74319 0
M  V30 6215 O 629.201 -0.343892 1.78009 0
M  V30 6216 C 629.249 3.1652 1.72765 0
M  V30 6217 O 628.353 2.99877 2.83103 0
M  V30 6218 H 627.694 0.615983 0.247914 0
M  V30 6219 H 630.224 2.04061 0.148478 0
M  V30 6220 H 630.234 3.48334 2.12433 0
M  V30 6221 H 628.909 4.01094 1.09985 0
M  V30 6222 H 627.486 2.79453 2.46902 0
M  V30 6223 N 629.671 -0.424282 1.51781 0
M  V30 6224 C 630.581 -1.54087 1.76902 0
M  V30 6225 C 631.597 -1.61249 0.653826 0
M  V30 6226 O 632.773 -1.78247 0.937552 0
M  V30 6227 C 629.838 -2.8996 1.90063 0
M  V30 6228 C 628.899 -2.92809 3.13945 0
M  V30 6229 C 628.132 -4.22201 3.26469 0
M  V30 6230 O 628.355 -5.15286 2.44616 0
M  V30 6231 O 627.289 -4.31599 4.1953 0
M  V30 6232 H 631.115 -1.358 2.71647 0
M  V30 6233 H 628.7 -0.608618 1.36441 0
M  V30 6234 H 630.582 -3.70575 2.0063 0
M  V30 6235 H 629.257 -3.08347 0.985067 0
M  V30 6236 H 628.164 -2.11102 3.08847 0
M  V30 6237 H 629.497 -2.79369 4.05233 0
M  V30 6238 N 631.149 -1.42148 -0.680565 0
M  V30 6239 C 632.059 -1.47565 -1.82378 0
M  V30 6240 C 633.075 -0.36489 -1.70131 0
M  V30 6241 O 634.251 -0.614916 -1.91783 0
M  V30 6242 C 631.316 -1.37013 -3.18478 0
M  V30 6243 C 630.377 -2.58532 -3.42724 0
M  V30 6244 C 629.61 -2.48473 -4.72331 0
M  V30 6245 O 629.833 -1.51745 -5.49845 0
M  V30 6246 O 628.767 -3.38503 -4.97694 0
M  V30 6247 H 632.593 -2.44045 -1.80764 0
M  V30 6248 H 630.178 -1.23849 -0.835569 0
M  V30 6249 H 632.06 -1.33468 -3.99705 0
M  V30 6250 H 630.735 -0.436552 -3.20743 0
M  V30 6251 H 629.642 -2.67652 -2.61368 0
M  V30 6252 H 630.975 -3.50769 -3.45286 0
M  V30 6253 N 632.627 0.916307 -1.28225 0
M  V30 6254 C 633.537 2.05165 -1.13775 0
M  V30 6255 C 634.553 1.73879 -0.0649418 0
M  V30 6256 O 635.729 1.99531 -0.273722 0
M  V30 6257 C 632.794 3.37385 -0.798267 0
M  V30 6258 C 631.855 3.82296 -1.95316 0
M  V30 6259 C 631.088 5.08206 -1.62978 0
M  V30 6260 O 631.311 5.6781 -0.542948 0
M  V30 6261 O 630.245 5.48768 -2.47261 0
M  V30 6262 H 634.071 2.20273 -2.09078 0
M  V30 6263 H 631.656 1.0373 -1.07519 0
M  V30 6264 H 633.538 4.16773 -0.62278 0
M  V30 6265 H 632.213 3.23458 0.125139 0
M  V30 6266 H 631.12 3.03746 -2.18378 0
M  V30 6267 H 632.453 4.00782 -2.85718 0
M  V30 6268 N 634.105 1.10431 1.1244 0
M  V30 6269 C 635.33 0.869089 1.88313 0
M  V30 6270 C 635.755 -0.574912 1.79099 0
M  V30 6271 O 635.113 -1.40496 1.14589 0
M  V30 6272 C 635.161 1.32208 3.3549 0
M  V30 6273 O 634.265 0.487092 4.09513 0
M  V30 6274 H 633.606 0.313894 0.585121 0
M  V30 6275 H 636.136 1.47111 1.42195 0
M  V30 6276 H 636.146 1.31201 3.86329 0
M  V30 6277 H 634.821 2.37364 3.41513 0
M  V30 6278 H 633.398 0.562372 3.68635 0
M  V30 6279 N 635.583 -1.29855 0.893053 0
M  V30 6280 C 636.808 -2.00512 0.530066 0
M  V30 6281 C 637.233 -1.66446 -0.876199 0
M  V30 6282 O 636.591 -0.885446 -1.58207 0
M  V30 6283 C 636.639 -3.53308 0.721505 0
M  V30 6284 O 635.743 -4.11764 -0.228994 0
M  V30 6285 H 635.084 -0.630617 0.207891 0
M  V30 6286 H 637.614 -1.6551 1.20282 0
M  V30 6287 H 637.624 -4.03206 0.623599 0
M  V30 6288 H 636.299 -3.77439 1.74678 0
M  V30 6289 H 634.876 -3.72805 -0.0841034 0
M  V30 6290 N 637.061 -0.65484 -1.43351 0
M  V30 6291 C 638.286 -0.175046 -2.0666 0
M  V30 6292 C 638.711 1.15104 -1.4877 0
M  V30 6293 O 638.069 1.71144 -0.598279 0
M  V30 6294 C 638.117 -0.0991544 -3.60464 0
M  V30 6295 O 637.221 0.938169 -4.01587 0
M  V30 6296 H 636.562 -0.0956148 -0.65708 0
M  V30 6297 H 639.092 -0.898222 -1.83829 0
M  V30 6298 H 639.102 0.083632 -4.07914 0
M  V30 6299 H 637.777 -1.06719 -4.01975 0
M  V30 6300 H 636.354 0.72804 -3.65724 0
M  V30 6301 N 638.539 1.52521 -0.396863 0
M  V30 6302 C 639.764 2.06571 0.185258 0
M  V30 6303 C 640.189 1.26605 1.39115 0
M  V30 6304 O 639.547 0.293055 1.78916 0
M  V30 6305 C 639.595 3.5674 0.526189 0
M  V30 6306 O 638.699 3.7929 1.61903 0
M  V30 6307 H 638.04 0.663712 0.0195474 0
M  V30 6308 H 640.57 1.966 -0.566519 0
M  V30 6309 H 640.58 4.00311 0.788338 0
M  V30 6310 H 639.255 4.14379 -0.355397 0
M  V30 6311 H 637.832 3.47605 1.35 0
M  V30 6312 N 640.017 0.126909 1.57088 0
M  V30 6313 C 640.927 -0.833867 2.1928 0
M  V30 6314 C 641.943 -1.2868 1.17122 0
M  V30 6315 O 643.119 -1.34815 1.49622 0
M  V30 6316 C 640.184 -2.0632 2.78627 0
M  V30 6317 C 639.245 -1.66143 3.95847 0
M  V30 6318 C 638.478 -2.83217 4.52354 0
M  V30 6319 O 638.701 -3.98868 4.0775 0
M  V30 6320 O 637.635 -2.59846 5.42922 0
M  V30 6321 H 641.461 -0.334564 3.01852 0
M  V30 6322 H 639.046 -0.0991091 1.49071 0
M  V30 6323 H 640.928 -2.78304 3.16425 0
M  V30 6324 H 639.603 -2.55242 1.99082 0
M  V30 6325 H 638.51 -0.912435 3.62802 0
M  V30 6326 H 639.843 -1.21957 4.76852 0
M  V30 6327 N 641.495 -1.56914 -0.146875 0
M  V30 6328 C 642.405 -2.0154 -1.20079 0
M  V30 6329 C 643.421 -0.930838 -1.47008 0
M  V30 6330 O 644.597 -1.24032 -1.58676 0
M  V30 6331 C 641.662 -2.38715 -2.51428 0
M  V30 6332 C 640.723 -3.6112 -2.32145 0
M  V30 6333 C 639.956 -3.96512 -3.57231 0
M  V30 6334 O 640.179 -3.32566 -4.63418 0
M  V30 6335 O 639.113 -4.89758 -3.49887 0
M  V30 6336 H 642.939 -2.91506 -0.851924 0
M  V30 6337 H 640.524 -1.45106 -0.355607 0
M  V30 6338 H 642.406 -2.63485 -3.28867 0
M  V30 6339 H 641.081 -1.51903 -2.85845 0
M  V30 6340 H 639.988 -3.41536 -1.52656 0
M  V30 6341 H 641.321 -4.48549 -2.02644 0
M  V30 6342 N 642.974 0.416227 -1.52004 0
M  V30 6343 C 643.884 1.53147 -1.77717 0
M  V30 6344 C 644.9 1.609 -0.662368 0
M  V30 6345 O 646.076 1.77747 -0.946991 0
M  V30 6346 C 643.141 2.88948 -1.91598 0
M  V30 6347 C 642.202 2.9114 -3.15493 0
M  V30 6348 C 641.435 4.20464 -3.28703 0
M  V30 6349 O 641.658 5.13981 -2.47345 0
M  V30 6350 O 640.592 4.29368 -4.21813 0
M  V30 6351 H 644.418 1.34357 -2.72363 0
M  V30 6352 H 642.003 0.601373 -1.36762 0
M  V30 6353 H 643.885 3.69505 -2.02593 0
M  V30 6354 H 642.56 3.07821 -1.00141 0
M  V30 6355 H 641.467 2.09461 -3.09962 0
M  V30 6356 H 642.8 2.77216 -4.06709 0
M  V30 6357 N 644.452 1.42507 0.673017 0
M  V30 6358 C 645.399 1.46124 1.78651 0
M  V30 6359 C 646.369 0.313007 1.63124 0
M  V30 6360 O 647.554 0.517337 1.83653 0
M  V30 6361 C 644.694 1.3711 3.16694 0
M  V30 6362 C 643.807 2.61983 3.43495 0
M  V30 6363 C 642.942 2.45098 4.71275 0
M  V30 6364 C 641.981 3.65336 4.91117 0
M  V30 6365 N 641.118 3.47383 6.10139 0
M  V30 6366 H 645.958 2.4128 1.74895 0
M  V30 6367 H 643.495 1.19788 0.853766 0
M  V30 6368 H 645.453 1.29881 3.96468 0
M  V30 6369 H 644.083 0.45549 3.1957 0
M  V30 6370 H 643.135 2.79571 2.57961 0
M  V30 6371 H 644.447 3.51355 3.5405 0
M  V30 6372 H 643.601 2.35466 5.59143 0
M  V30 6373 H 642.34 1.53219 4.63007 0
M  V30 6374 H 641.345 3.754 4.0169 0
M  V30 6375 H 642.57 4.58199 5.01229 0
M  V30 6376 H 640.516 2.58222 6.0304 0
M  V30 6377 H 640.433 4.30344 6.21563 0
M  V30 6378 H 641.701 3.41565 7.00681 0
M  V30 6379 N 645.93 -0.909495 1.28709 0
M  V30 6380 C 647.158 -1.69272 1.18973 0
M  V30 6381 C 647.573 -1.87123 -0.251048 0
M  V30 6382 O 646.93 -1.40127 -1.16922 0
M  V30 6383 C 646.981 -3.08257 1.88839 0
M  V30 6384 O 646.702 -2.91228 3.27289 0
M  V30 6385 C 648.203 -4.02642 1.85457 0
M  V30 6386 H 645.423 -0.528999 0.412797 0
M  V30 6387 H 647.967 -1.13803 1.69909 0
M  V30 6388 H 646.122 -3.6053 1.41762 0
M  V30 6389 H 646.536 -3.79223 3.6234 0
M  V30 6390 H 648.01 -4.97613 2.38925 0
M  V30 6391 H 648.487 -4.31327 0.827893 0
M  V30 6392 H 649.093 -3.56298 2.32233 0
M  V30 6393 N 647.408 -1.11026 -1.11852 0
M  V30 6394 C 648.355 -0.764662 -2.17765 0
M  V30 6395 C 649.325 0.261854 -1.64023 0
M  V30 6396 O 650.51 0.139748 -1.90288 0
M  V30 6397 C 647.65 -0.209317 -3.44465 0
M  V30 6398 C 646.763 -1.29187 -4.12231 0
M  V30 6399 C 645.898 -0.697523 -5.266 0
M  V30 6400 C 644.937 -1.76023 -5.86244 0
M  V30 6401 N 644.074 -1.18569 -6.92016 0
M  V30 6402 H 648.914 -1.67202 -2.46673 0
M  V30 6403 H 646.451 -0.835065 -1.21099 0
M  V30 6404 H 648.409 0.130599 -4.16996 0
M  V30 6405 H 647.039 0.661251 -3.15955 0
M  V30 6406 H 646.091 -1.74881 -3.37818 0
M  V30 6407 H 647.403 -2.09607 -4.52622 0
M  V30 6408 H 646.557 -0.307412 -6.05921 0
M  V30 6409 H 645.296 0.138044 -4.87505 0
M  V30 6410 H 644.301 -2.1597 -5.05606 0
M  V30 6411 H 645.526 -2.59875 -6.27409 0
M  V30 6412 H 643.472 -0.371695 -6.54946 0
M  V30 6413 H 643.389 -1.92666 -7.31038 0
M  V30 6414 H 644.657 -0.82233 -7.7515 0
M  V30 6415 N 648.886 1.2938 -0.899927 0
M  V30 6416 C 649.833 2.27713 -0.376243 0
M  V30 6417 C 650.803 1.57016 0.541774 0
M  V30 6418 O 651.988 1.84997 0.466966 0
M  V30 6419 C 649.128 3.42889 0.39 0
M  V30 6420 C 648.241 4.28369 -0.558938 0
M  V30 6421 C 647.376 5.30726 0.224379 0
M  V30 6422 C 646.415 6.07862 -0.719068 0
M  V30 6423 N 645.552 7.02094 0.0298569 0
M  V30 6424 H 650.392 2.71888 -1.21988 0
M  V30 6425 H 647.929 1.33724 -0.612879 0
M  V30 6426 H 649.887 4.08443 0.850314 0
M  V30 6427 H 648.517 2.99743 1.19809 0
M  V30 6428 H 647.569 3.62986 -1.13777 0
M  V30 6429 H 648.881 4.82068 -1.2811 0
M  V30 6430 H 648.035 6.02098 0.745881 0
M  V30 6431 H 646.774 4.77759 0.979674 0
M  V30 6432 H 645.779 5.35353 -1.25207 0
M  V30 6433 H 647.004 6.62917 -1.4737 0
M  V30 6434 H 644.95 6.51496 0.767415 0
M  V30 6435 H 644.867 7.5335 -0.632391 0
M  V30 6436 H 646.135 7.77685 0.531615 0
M  V30 6437 N 650.364 0.662433 1.43002 0
M  V30 6438 C 651.297 -0.073459 2.28082 0
M  V30 6439 C 652.275 -0.820869 1.40358 0
M  V30 6440 O 653.459 -0.818545 1.698 0
M  V30 6441 C 650.586 -1.11097 3.19961 0
M  V30 6442 C 649.632 -0.460557 4.24006 0
M  V30 6443 S 650.465 0.772717 5.29896 0
M  V30 6444 C 651.621 -0.264028 6.25343 0
M  V30 6445 H 651.854 0.648227 2.90147 0
M  V30 6446 H 649.387 0.451566 1.47649 0
M  V30 6447 H 651.345 -1.70452 3.73439 0
M  V30 6448 H 650.006 -1.80503 2.57056 0
M  V30 6449 H 649.199 -1.24299 4.88432 0
M  V30 6450 H 648.801 0.0591038 3.73953 0
M  V30 6451 H 651.093 -1.12748 6.68052 0
M  V30 6452 H 652.036 0.345443 7.07257 0
M  V30 6453 H 652.444 -0.603964 5.6126 0
M  V30 6454 N 651.842 -1.52309 0.404946 0
M  V30 6455 C 653.088 -2.02065 -0.172455 0
M  V30 6456 C 653.421 -1.29022 -1.45145 0
M  V30 6457 O 652.696 -0.395284 -1.90441 0
M  V30 6458 C 652.979 -3.5759 -0.424433 0
M  V30 6459 C 652.832 -4.41287 0.870945 0
M  V30 6460 C 654.151 -4.23186 -1.20837 0
M  V30 6461 H 651.27 -0.734454 -0.0612035 0
M  V30 6462 H 653.912 -1.82236 0.53759 0
M  V30 6463 H 652.062 -3.74617 -1.02929 0
M  V30 6464 H 653.734 -4.3598 1.50729 0
M  V30 6465 H 651.977 -4.07669 1.48284 0
M  V30 6466 H 652.648 -5.48171 0.649083 0
M  V30 6467 H 655.124 -4.10232 -0.696338 0
M  V30 6468 H 654 -5.31953 -1.35343 0
M  V30 6469 H 654.261 -3.81862 -2.22786 0
M  V30 6470 N 653.32 -0.135238 -1.57019 0
M  V30 6471 C 654.283 0.794707 -2.14981 0
M  V30 6472 C 655.283 1.18342 -1.08866 0
M  V30 6473 O 656.473 1.10627 -1.34563 0
M  V30 6474 C 653.605 2.07685 -2.70333 0
M  V30 6475 H 654.798 0.290696 -2.98488 0
M  V30 6476 H 652.351 0.114128 -1.55883 0
M  V30 6477 H 653.086 2.6248 -1.9046 0
M  V30 6478 H 652.871 1.80745 -3.47957 0
M  V30 6479 H 654.361 2.74127 -3.1503 0
M  V30 6480 N 654.798 1.5699 0.138552 0
M  V30 6481 C 656.026 1.87976 0.864437 0
M  V30 6482 C 656.441 0.724372 1.74351 0
M  V30 6483 O 655.798 -0.305575 1.79924 0
M  V30 6484 C 655.849 3.18276 1.71414 0
M  V30 6485 O 655.57 4.29365 0.870487 0
M  V30 6486 C 657.071 3.62834 2.54688 0
M  V30 6487 H 654.291 0.622878 0.249528 0
M  V30 6488 H 656.835 2.04094 0.128805 0
M  V30 6489 H 654.99 3.03886 2.40274 0
M  V30 6490 H 655.404 5.03924 1.45466 0
M  V30 6491 H 656.878 4.5682 3.0987 0
M  V30 6492 H 657.355 2.88533 3.31127 0
M  V30 6493 H 657.961 3.79946 1.91105 0
M  V30 6494 N 656.276 -0.40816 1.52223 0
M  V30 6495 C 657.504 -1.17672 1.70179 0
M  V30 6496 C 657.919 -1.84257 0.411696 0
M  V30 6497 O 657.276 -1.7192 -0.612354 0
M  V30 6498 C 657.327 -2.23911 2.83806 0
M  V30 6499 O 657.048 -1.60044 4.0782 0
M  V30 6500 C 658.549 -3.1364 3.13281 0
M  V30 6501 H 655.769 -0.353562 0.570293 0
M  V30 6502 H 658.313 -0.480083 1.98785 0
M  V30 6503 H 656.468 -2.89242 2.57717 0
M  V30 6504 H 656.882 -2.30484 4.71145 0
M  V30 6505 H 658.356 -3.84255 3.96298 0
M  V30 6506 H 658.833 -3.76066 2.26872 0
M  V30 6507 H 659.439 -2.53977 3.41139 0
M  V30 6508 N 657.755 -1.42862 -0.66545 0
M  V30 6509 C 658.702 -1.4707 -1.77874 0
M  V30 6510 C 659.672 -0.321654 -1.62956 0
M  V30 6511 O 660.857 -0.52707 -1.83376 0
M  V30 6512 C 657.997 -1.38788 -3.15962 0
M  V30 6513 C 657.11 -2.63801 -3.42101 0
M  V30 6514 C 656.245 -2.47594 -4.69969 0
M  V30 6515 C 655.284 -3.67936 -4.89172 0
M  V30 6516 N 654.421 -3.50614 -6.08288 0
M  V30 6517 H 659.261 -2.42204 -1.73613 0
M  V30 6518 H 656.798 -1.20239 -0.847401 0
M  V30 6519 H 658.756 -1.31982 -3.95773 0
M  V30 6520 H 657.386 -0.472431 -3.19324 0
M  V30 6521 H 656.438 -2.80935 -2.56475 0
M  V30 6522 H 657.75 -3.53228 -3.52181 0
M  V30 6523 H 656.904 -2.38427 -5.57886 0
M  V30 6524 H 655.643 -1.55672 -4.62188 0
M  V30 6525 H 654.648 -3.77525 -3.99694 0
M  V30 6526 H 655.873 -4.60851 -4.98792 0
M  V30 6527 H 653.819 -2.61417 -6.01662 0
M  V30 6528 H 653.736 -4.33634 -6.19272 0
M  V30 6529 H 655.004 -3.45276 -6.98859 0
M  V30 6530 N 659.233 0.902656 -1.29189 0
M  V30 6531 C 660.644 1.46809 -1.15343 0
M  V30 6532 C 660.995 1.94568 0.252517 0
M  V30 6533 O 660.12 1.83454 1.14777 0
M  V30 6534 C 660.715 2.66829 -2.08776 0
M  V30 6535 C 659.274 3.19518 -1.98961 0
M  V30 6536 C 658.421 1.92212 -1.99874 0
M  V30 6537 H 661.372 0.714282 -1.41717 0
M  V30 6538 H 661.393 3.42465 -1.65826 0
M  V30 6539 H 660.905 2.32039 -3.11094 0
M  V30 6540 H 659.006 3.59008 -0.99721 0
M  V30 6541 H 659.119 3.84016 -2.86477 0
M  V30 6542 H 657.483 2.0979 -1.44431 0
M  V30 6543 H 658.266 1.59702 -3.03891 0
M  V30 6544 N 660.711 1.11618 1.11262 0
M  V30 6545 C 661.658 0.7762 2.17356 0
M  V30 6546 C 662.628 -0.253152 1.6416 0
M  V30 6547 O 663.813 -0.129655 1.90359 0
M  V30 6548 C 660.953 0.227581 3.44349 0
M  V30 6549 C 660.066 1.31372 4.1154 0
M  V30 6550 C 659.201 0.72544 5.26223 0
M  V30 6551 C 658.24 1.7913 5.85302 0
M  V30 6552 N 657.377 1.22237 6.91377 0
M  V30 6553 H 662.217 1.68508 2.45783 0
M  V30 6554 H 659.754 0.841475 1.20655 0
M  V30 6555 H 661.712 -0.108483 4.17059 0
M  V30 6556 H 660.342 -0.644486 3.16301 0
M  V30 6557 H 659.394 1.7667 3.36885 0
M  V30 6558 H 660.706 2.12005 4.51504 0
M  V30 6559 H 659.86 0.339541 6.05749 0
M  V30 6560 H 658.599 -0.112188 4.87571 0
M  V30 6561 H 657.604 2.18648 5.04453 0
M  V30 6562 H 658.829 2.63199 6.26022 0
M  V30 6563 H 656.775 0.406423 6.5474 0
M  V30 6564 H 656.692 1.9654 7.30006 0
M  V30 6565 H 657.96 0.863426 7.74703 0
M  V30 6566 N 662.189 -1.289 0.906776 0
M  V30 6567 C 663.152 -2.25777 0.394656 0
M  V30 6568 C 664.152 -1.53621 -0.475119 0
M  V30 6569 O 665.342 -1.71949 -0.279165 0
M  V30 6570 C 662.474 -3.38113 -0.43499 0
M  V30 6571 H 663.667 -2.72592 1.25033 0
M  V30 6572 H 661.22 -1.40463 0.685547 0
M  V30 6573 H 661.955 -2.96648 -1.31036 0
M  V30 6574 H 661.74 -3.91647 0.188334 0
M  V30 6575 H 663.23 -4.10168 -0.784365 0
M  V30 6576 N 663.667 -0.670007 -1.42649 0
M  V30 6577 C 664.895 -0.19854 -2.05945 0
M  V30 6578 C 665.31 1.14243 -1.50313 0
M  V30 6579 O 664.667 1.70872 -0.641027 0
M  V30 6580 C 664.718 -0.11966 -3.61302 0
M  V30 6581 O 664.439 -1.40764 -4.1487 0
M  V30 6582 C 665.94 0.375878 -4.41704 0
M  V30 6583 H 663.16 -0.0976894 -0.663851 0
M  V30 6584 H 665.704 -0.915392 -1.82868 0
M  V30 6585 H 663.859 0.547851 -3.83507 0
M  V30 6586 H 664.273 -1.27784 -5.08696 0
M  V30 6587 H 665.747 0.379988 -5.50691 0
M  V30 6588 H 666.224 1.41028 -4.15942 0
M  V30 6589 H 666.83 -0.259727 -4.24506 0
M  V30 6590 N 665.145 1.52092 -0.413018 0
M  V30 6591 C 666.108 2.25706 0.398687 0
M  V30 6592 C 667.108 1.28221 0.970368 0
M  V30 6593 O 668.298 1.52131 0.848635 0
M  V30 6594 C 665.43 3.03029 1.5616 0
M  V30 6595 H 666.623 2.98888 -0.246131 0
M  V30 6596 H 664.176 1.5542 -0.165622 0
M  V30 6597 H 664.911 2.34205 2.24317 0
M  V30 6598 H 664.696 3.74606 1.15812 0
M  V30 6599 H 666.186 3.58857 2.13569 0
M  V30 6600 N 666.623 0.143563 1.56945 0
M  V30 6601 C 667.57 -0.797433 2.16586 0
M  V30 6602 C 668.54 -1.24654 1.09775 0
M  V30 6603 O 669.725 -1.31968 1.37801 0
M  V30 6604 C 666.865 -2.03253 2.78895 0
M  V30 6605 C 665.978 -1.62954 4.00087 0
M  V30 6606 C 665.113 -2.81617 4.50406 0
M  V30 6607 C 664.152 -2.37675 5.64072 0
M  V30 6608 N 663.289 -3.49335 6.09023 0
M  V30 6609 H 668.129 -0.282023 2.96662 0
M  V30 6610 H 665.666 -0.127494 1.46546 0
M  V30 6611 H 667.624 -2.75653 3.13163 0
M  V30 6612 H 666.254 -2.52211 2.01469 0
M  V30 6613 H 665.306 -0.803322 3.71821 0
M  V30 6614 H 666.618 -1.26679 4.82446 0
M  V30 6615 H 665.772 -3.62212 4.86711 0
M  V30 6616 H 664.511 -3.21134 3.67048 0
M  V30 6617 H 663.516 -1.55519 5.27346 0
M  V30 6618 H 664.741 -1.99247 6.49213 0
M  V30 6619 H 662.687 -3.8848 5.28601 0
M  V30 6620 H 662.604 -3.17064 6.86299 0
M  V30 6621 H 663.872 -4.30297 6.49973 0
M  V30 6622 N 668.101 -1.57061 -0.130224 0
M  V30 6623 C 669.064 -1.98593 -1.14426 0
M  V30 6624 C 670.064 -0.874584 -1.34936 0
M  V30 6625 O 671.254 -1.14086 -1.31643 0
M  V30 6626 C 668.386 -2.31639 -2.50112 0
M  V30 6627 H 669.579 -2.89374 -0.787561 0
M  V30 6628 H 667.132 -1.51756 -0.374146 0
M  V30 6629 H 667.867 -1.43703 -2.90723 0
M  V30 6630 H 667.652 -3.12684 -2.36583 0
M  V30 6631 H 669.142 -2.64551 -3.23114 0
M  V30 6632 N 669.579 0.400081 -1.52437 0
M  V30 6633 C 670.542 1.4707 -1.75793 0
M  V30 6634 C 671.542 1.48036 -0.627856 0
M  V30 6635 O 672.732 1.49401 -0.895817 0
M  V30 6636 C 669.864 2.86427 -1.84858 0
M  V30 6637 H 671.057 1.27649 -2.71377 0
M  V30 6638 H 668.61 0.631141 -1.42991 0
M  V30 6639 H 669.345 3.11207 -0.912194 0
M  V30 6640 H 669.13 2.87128 -2.6702 0
M  V30 6641 H 670.62 3.64023 -2.04638 0
M  V30 6642 N 671.057 1.43213 0.657864 0
M  V30 6643 C 671.987 1.50815 1.78262 0
M  V30 6644 C 672.968 0.363211 1.66177 0
M  V30 6645 O 674.153 0.579806 1.85343 0
M  V30 6646 C 671.283 1.42625 3.16663 0
M  V30 6647 C 670.237 2.5532 3.43505 0
M  V30 6648 C 669.563 2.32184 4.81658 0
M  V30 6649 C 670.863 3.97583 3.38711 0
M  V30 6650 H 672.557 2.44954 1.72157 0
M  V30 6651 H 670.103 1.17896 0.82683 0
M  V30 6652 H 672.056 1.46548 3.95097 0
M  V30 6653 H 670.78 0.449877 3.23487 0
M  V30 6654 H 669.439 2.50742 2.6744 0
M  V30 6655 H 669.087 1.32801 4.85153 0
M  V30 6656 H 668.787 3.07724 5.00579 0
M  V30 6657 H 670.311 2.37883 5.62356 0
M  V30 6658 H 671.725 4.03673 4.07089 0
M  V30 6659 H 670.122 4.73112 3.69168 0
M  V30 6660 H 671.192 4.23049 2.36976 0
M  V30 6661 N 672.536 -0.895792 1.29666 0
M  V30 6662 C 673.761 -1.68528 1.20885 0
M  V30 6663 C 674.186 -1.8673 -0.226595 0
M  V30 6664 O 673.544 -1.39044 -1.16347 0
M  V30 6665 C 673.592 -3.04512 1.93144 0
M  V30 6666 O 672.696 -3.92963 1.25115 0
M  V30 6667 H 672.037 -0.515371 0.418675 0
M  V30 6668 H 674.567 -1.11878 1.71302 0
M  V30 6669 H 674.577 -3.54628 2.0175 0
M  V30 6670 H 673.252 -2.90582 2.97548 0
M  V30 6671 H 671.829 -3.51399 1.24794 0
M  V30 6672 N 674.014 -1.12206 -1.10668 0
M  V30 6673 C 674.944 -0.810086 -2.18997 0
M  V30 6674 C 675.925 0.225065 -1.68604 0
M  V30 6675 O 677.11 0.086783 -1.94006 0
M  V30 6676 C 674.24 -0.261262 -3.46316 0
M  V30 6677 C 673.194 -1.2292 -4.09969 0
M  V30 6678 C 672.52 -0.540713 -5.31959 0
M  V30 6679 C 673.82 -2.58295 -4.53962 0
M  V30 6680 H 675.514 -1.7159 -2.45352 0
M  V30 6681 H 673.06 -0.82646 -1.17922 0
M  V30 6682 H 675.013 -0.0307522 -4.21389 0
M  V30 6683 H 673.737 0.679879 -3.19445 0
M  V30 6684 H 672.396 -1.44548 -3.369 0
M  V30 6685 H 672.044 0.405492 -5.01363 0
M  V30 6686 H 671.744 -1.18637 -5.75499 0
M  V30 6687 H 673.268 -0.319184 -6.09765 0
M  V30 6688 H 674.682 -2.40709 -5.20319 0
M  V30 6689 H 673.079 -3.18916 -5.08343 0
M  V30 6690 H 674.149 -3.16918 -3.67002 0
M  V30 6691 N 675.492 1.28418 -0.913599 0
M  V30 6692 C 676.903 1.77024 -0.593237 0
M  V30 6693 C 677.254 1.74779 0.891441 0
M  V30 6694 O 676.379 1.34237 1.69733 0
M  V30 6695 C 676.974 3.21456 -1.07011 0
M  V30 6696 C 675.533 3.67786 -0.800664 0
M  V30 6697 C 674.68 2.48185 -1.23691 0
M  V30 6698 H 677.631 1.14883 -1.09487 0
M  V30 6699 H 677.652 3.78269 -0.411481 0
M  V30 6700 H 677.164 3.23058 -2.1507 0
M  V30 6701 H 675.265 3.71644 0.266725 0
M  V30 6702 H 675.378 4.57934 -1.4083 0
M  V30 6703 H 673.742 2.46116 -0.655655 0
M  V30 6704 H 674.525 2.52506 -2.32585 0
M  V30 6705 N 676.97 0.677563 1.42291 0
M  V30 6706 C 677.933 0.0101085 2.29198 0
M  V30 6707 C 678.933 -0.726219 1.43467 0
M  V30 6708 O 680.123 -0.563807 1.64824 0
M  V30 6709 C 677.255 -0.996316 3.26016 0
M  V30 6710 H 678.448 0.775071 2.89711 0
M  V30 6711 H 676.001 0.440065 1.49977 0
M  V30 6712 H 676.736 -1.78967 2.70446 0
M  V30 6713 H 676.521 -0.471687 3.89253 0
M  V30 6714 H 678.011 -1.46167 3.91184 0
M  V30 6715 N 678.448 -1.51871 0.421078 0
M  V30 6716 C 679.395 -2.27334 -0.398508 0
M  V30 6717 C 680.365 -1.30241 -1.03085 0
M  V30 6718 O 681.55 -1.59121 -1.05285 0
M  V30 6719 C 678.69 -3.10664 -1.50272 0
M  V30 6720 C 677.803 -4.2273 -0.890122 0
M  V30 6721 C 676.938 -4.93399 -1.96803 0
M  V30 6722 C 675.977 -5.97409 -1.333 0
M  V30 6723 N 675.114 -6.61548 -2.35156 0
M  V30 6724 H 679.954 -2.96938 0.251411 0
M  V30 6725 H 677.491 -1.46472 0.135825 0
M  V30 6726 H 679.449 -3.57292 -2.15403 0
M  V30 6727 H 678.079 -2.43207 -2.1225 0
M  V30 6728 H 677.131 -3.80186 -0.127537 0
M  V30 6729 H 678.443 -4.97302 -0.386349 0
M  V30 6730 H 677.597 -5.43491 -2.69633 0
M  V30 6731 H 676.336 -4.18421 -2.50549 0
M  V30 6732 H 675.341 -5.46624 -0.59008 0
M  V30 6733 H 676.566 -6.74335 -0.803076 0
M  V30 6734 H 674.512 -5.89394 -2.88012 0
M  V30 6735 H 674.429 -7.31832 -1.89624 0
M  V30 6736 H 675.697 -7.16276 -3.0752 0
M  V30 6737 N 679.926 -0.151884 -1.56866 0
M  V30 6738 C 680.858 0.817008 -2.14144 0
M  V30 6739 C 681.871 1.20735 -1.0921 0
M  V30 6740 O 683.06 1.15058 -1.36469 0
M  V30 6741 C 680.16 2.10844 -2.65326 0
M  V30 6742 C 679.333 1.88471 -3.94712 0
M  V30 6743 C 678.392 3.01649 -4.31155 0
M  V30 6744 O 677.418 2.73127 -4.9939 0
M  V30 6745 N 678.62 4.28947 -3.91132 0
M  V30 6746 H 681.385 0.327448 -2.97906 0
M  V30 6747 H 678.946 0.0315313 -1.61869 0
M  V30 6748 H 680.938 2.85616 -2.86715 0
M  V30 6749 H 679.508 2.51049 -1.86262 0
M  V30 6750 H 678.728 0.977088 -3.81899 0
M  V30 6751 H 680.016 1.70866 -4.79252 0
M  V30 6752 H 679.414 4.54986 -3.36161 0
M  V30 6753 H 677.971 5.00484 -4.17563 0
M  V30 6754 N 681.404 1.57128 0.121893 0
M  V30 6755 C 682.367 1.99197 1.13372 0
M  V30 6756 C 683.367 0.881728 1.3447 0
M  V30 6757 O 684.557 1.14783 1.31036 0
M  V30 6758 C 681.689 2.32963 2.4888 0
M  V30 6759 H 682.882 2.89788 0.772204 0
M  V30 6760 H 680.435 1.51952 0.366093 0
M  V30 6761 H 681.17 1.45243 2.89957 0
M  V30 6762 H 680.955 3.13934 2.34921 0
M  V30 6763 H 682.445 2.66261 3.21706 0
M  V30 6764 N 682.882 -0.391992 1.52647 0
M  V30 6765 C 684.293 -0.970064 1.5952 0
M  V30 6766 C 684.644 -1.91059 0.446207 0
M  V30 6767 O 683.769 -2.12062 -0.431125 0
M  V30 6768 C 684.364 -1.76614 2.89125 0
M  V30 6769 C 682.923 -2.29396 2.9842 0
M  V30 6770 C 682.07 -1.09864 2.54608 0
M  V30 6771 H 685.021 -0.171638 1.57769 0
M  V30 6772 H 685.042 -2.62511 2.75442 0
M  V30 6773 H 684.554 -1.08135 3.72731 0
M  V30 6774 H 682.655 -3.01196 2.19344 0
M  V30 6775 H 682.768 -2.59088 4.03002 0
M  V30 6776 H 681.132 -1.45777 2.08857 0
M  V30 6777 H 681.915 -0.429249 3.40606 0
M  V30 6778 N 684.36 -1.4356 -0.65026 0
M  V30 6779 C 685.292 -1.44918 -1.77571 0
M  V30 6780 C 686.305 -0.344925 -1.59104 0
M  V30 6781 O 687.494 -0.609537 -1.6777 0
M  V30 6782 C 684.594 -1.24914 -3.15039 0
M  V30 6783 C 683.767 -2.48232 -3.60138 0
M  V30 6784 C 682.826 -2.23409 -4.76419 0
M  V30 6785 O 681.852 -2.9678 -4.85706 0
M  V30 6786 N 683.054 -1.25259 -5.66825 0
M  V30 6787 H 685.819 -2.41935 -1.76883 0
M  V30 6788 H 683.38 -1.38754 -0.834202 0
M  V30 6789 H 685.372 -1.06185 -3.90521 0
M  V30 6790 H 683.942 -0.363319 -3.10481 0
M  V30 6791 H 683.162 -2.82366 -2.75069 0
M  V30 6792 H 684.45 -3.30296 -3.87017 0
M  V30 6793 H 683.848 -0.646246 -5.61997 0
M  V30 6794 H 682.405 -1.12513 -6.42016 0
M  V30 6795 N 685.838 0.888903 -1.30139 0
M  V30 6796 C 687.086 1.63713 -1.18501 0
M  V30 6797 C 687.407 1.9324 0.261399 0
M  V30 6798 O 686.677 1.56608 1.17689 0
M  V30 6799 H 685.257 0.606861 -0.435579 0
M  V30 6800 H 687.919 1.06525 -1.63213 0
M  V30 6801 H 687.015 2.58894 -1.743 0
M  V30 6802 N 687.317 1.12792 1.10072 0
M  V30 6803 C 688.542 0.908838 1.86427 0
M  V30 6804 C 688.967 -0.536793 1.80278 0
M  V30 6805 O 688.325 -1.38033 1.17543 0
M  V30 6806 C 688.373 1.39295 3.3261 0
M  V30 6807 O 687.477 0.573846 4.08388 0
M  V30 6808 H 686.818 0.326234 0.578331 0
M  V30 6809 H 689.348 1.50094 1.39043 0
M  V30 6810 H 689.358 1.39366 3.83459 0
M  V30 6811 H 688.033 2.44555 3.36401 0
M  V30 6812 H 686.61 0.640438 3.67359 0
M  V30 6813 N 688.795 -1.27931 0.920396 0
M  V30 6814 C 690.211 -1.47085 0.619537 0
M  V30 6815 C 690.411 -1.83463 -0.833291 0
M  V30 6816 O 689.467 -1.94363 -1.61181 0
M  V30 6817 C 690.78 -2.56878 1.56314 0
M  V30 6818 C 692.328 -2.70743 1.57058 0
M  V30 6819 C 692.803 -3.83687 2.50097 0
M  V30 6820 N 694.294 -3.9105 2.48262 0
M  V30 6821 C 695.029 -4.77842 3.16945 0
M  V30 6822 N 694.525 -5.69176 3.94982 0
M  V30 6823 N 696.318 -4.71509 3.06 0
M  V30 6824 H 688.469 -1.02601 1.85975 0
M  V30 6825 H 690.732 -0.511682 0.798051 0
M  V30 6826 H 690.438 -2.36923 2.59923 0
M  V30 6827 H 690.312 -3.54117 1.29928 0
M  V30 6828 H 692.699 -2.90083 0.541832 0
M  V30 6829 H 692.78 -1.74015 1.8749 0
M  V30 6830 H 692.424 -3.65101 3.53077 0
M  V30 6831 H 692.354 -4.79827 2.16964 0
M  V30 6832 H 694.845 -3.25738 1.91581 0
M  V30 6833 H 695.158 -6.32245 4.44394 0
M  V30 6834 H 693.503 -5.68995 3.99086 0
M  V30 6835 H 696.694 -3.99151 2.44533 0
M  V30 6836 H 696.867 -5.38933 3.59799 0
M  V30 6837 N 690.273 -0.685099 -1.4193 0
M  V30 6838 C 691.55 -0.140152 -1.95097 0
M  V30 6839 C 691.93 1.34745 -1.62502 0
M  V30 6840 O 691.278 2.08872 -0.926534 0
M  V30 6841 C 691.488 -0.420268 -3.4646 0
M  V30 6842 C 692.836 -0.342338 -4.23218 0
M  V30 6843 O 693.86 -0.354592 -3.54431 0
M  V30 6844 O 692.719 -0.293404 -5.45712 0
M  V30 6845 H 689.813 -0.00885998 -0.826953 0
M  V30 6846 H 692.359 -0.760539 -1.51703 0
M  V30 6847 H 691.131 -1.45037 -3.63428 0
M  V30 6848 H 690.754 0.231616 -3.96925 0
M  V30 6849 N 691.751 1.51645 -0.429126 0
M  V30 6850 C 692.976 2.06917 0.141399 0
M  V30 6851 C 693.401 1.29527 1.36398 0
M  V30 6852 O 692.759 0.33094 1.78254 0
M  V30 6853 C 692.807 3.57776 0.4504 0
M  V30 6854 O 691.911 3.82639 1.53821 0
M  V30 6855 H 691.252 0.663978 0.0054647 0
M  V30 6856 H 693.782 1.95355 -0.608093 0
M  V30 6857 H 693.792 4.01894 0.703249 0
M  V30 6858 H 692.467 4.13532 -0.443213 0
M  V30 6859 H 691.044 3.5039 1.27597 0
M  V30 6860 N 693.229 0.160201 1.56784 0
M  V30 6861 C 694.454 -0.497373 2.01348 0
M  V30 6862 C 694.879 -1.56757 1.03966 0
M  V30 6863 O 694.237 -1.81292 0.0174455 0
M  V30 6864 C 694.285 -1.0628 3.44582 0
M  V30 6865 O 693.389 -2.17723 3.50244 0
M  V30 6866 H 692.73 -0.120295 0.653012 0
M  V30 6867 H 695.26 0.260821 2.02931 0
M  V30 6868 H 695.27 -1.38819 3.83658 0
M  V30 6869 H 693.945 -0.279166 4.14962 0
M  V30 6870 H 692.522 -1.86313 3.2302 0
M  V30 6871 N 694.707 -1.5719 -0.113559 0
M  V30 6872 C 695.932 -1.89702 -0.838336 0
M  V30 6873 C 696.357 -0.752679 -1.72384 0
M  V30 6874 O 695.715 0.296575 -1.78858 0
M  V30 6875 C 695.763 -3.20989 -1.64312 0
M  V30 6876 O 694.867 -3.07278 -2.75053 0
M  V30 6877 H 694.208 -0.622339 -0.231496 0
M  V30 6878 H 696.738 -2.04382 -0.0943228 0
M  V30 6879 H 696.748 -3.53843 -2.03123 0
M  V30 6880 H 695.423 -4.03869 -0.993119 0
M  V30 6881 H 694 -2.85901 -2.39406 0
M  V30 6882 N 696.185 0.383891 -1.52853 0
M  V30 6883 C 697.462 1.14296 -1.58732 0
M  V30 6884 C 697.842 2.07585 -0.383611 0
M  V30 6885 O 697.19 2.1971 0.627661 0
M  V30 6886 C 697.4 1.89816 -2.92867 0
M  V30 6887 C 698.748 2.44998 -3.46787 0
M  V30 6888 O 699.772 1.99966 -2.94774 0
M  V30 6889 O 698.631 3.2727 -4.37672 0
M  V30 6890 H 695.725 0.52326 -0.640413 0
M  V30 6891 H 698.271 0.388631 -1.6519 0
M  V30 6892 H 697.043 1.21626 -3.71918 0
M  V30 6893 H 696.666 2.72199 -2.89816 0
M  V30 6894 N 697.663 1.43903 0.642637 0
M  V30 6895 C 698.888 1.49758 1.43483 0
M  V30 6896 C 699.313 0.119911 1.87717 0
M  V30 6897 O 698.671 -0.888558 1.58033 0
M  V30 6898 C 698.719 2.45744 2.63898 0
M  V30 6899 O 697.823 1.95101 3.63331 0
M  V30 6900 H 697.164 0.506138 0.429791 0
M  V30 6901 H 699.694 1.88923 0.785438 0
M  V30 6902 H 699.704 2.63399 3.11584 0
M  V30 6903 H 698.379 3.45818 2.31046 0
M  V30 6904 H 696.956 1.87158 3.22531 0
M  V30 6905 N 699.141 -0.881989 1.30609 0
M  V30 6906 C 700.418 -1.61563 1.10258 0
M  V30 6907 C 700.798 -2.08228 -0.347053 0
M  V30 6908 O 700.146 -1.85151 -1.33908 0
M  V30 6909 C 700.356 -2.78287 2.10612 0
M  V30 6910 C 701.704 -3.48545 2.4249 0
M  V30 6911 O 702.728 -2.88479 2.08945 0
M  V30 6912 O 701.587 -4.56873 2.99883 0
M  V30 6913 H 698.681 -0.710238 0.423663 0
M  V30 6914 H 701.227 -0.928503 1.42045 0
M  V30 6915 H 699.999 -2.41131 3.08174 0
M  V30 6916 H 699.622 -3.54695 1.79659 0
M  V30 6917 N 700.619 -1.13374 -1.09472 0
M  V30 6918 C 701.844 -0.918711 -1.85942 0
M  V30 6919 C 702.269 0.527225 -1.8056 0
M  V30 6920 O 701.627 1.37408 -1.18274 0
M  V30 6921 C 701.675 -1.41056 -3.31867 0
M  V30 6922 O 700.779 -0.595496 -4.08078 0
M  V30 6923 H 700.12 -0.329297 -0.576593 0
M  V30 6924 H 702.65 -1.50829 -1.38245 0
M  V30 6925 H 702.66 -1.41398 -3.82715 0
M  V30 6926 H 701.335 -2.46335 -3.35099 0
M  V30 6927 H 699.912 -0.659911 -3.67014 0
M  V30 6928 N 702.098 1.27442 -0.927168 0
M  V30 6929 C 703.323 1.99036 -0.583042 0
M  V30 6930 C 703.748 1.68711 0.83176 0
M  V30 6931 O 703.106 0.927081 1.55804 0
M  V30 6932 C 703.154 3.51271 -0.814925 0
M  V30 6933 O 702.258 4.12226 0.119742 0
M  V30 6934 H 701.599 0.624883 -0.224538 0
M  V30 6935 H 704.129 1.62263 -1.24628 0
M  V30 6936 H 704.139 4.01411 -0.730282 0
M  V30 6937 H 702.814 3.72676 -1.84623 0
M  V30 6938 H 701.391 3.72897 -0.0147688 0
M  V30 6939 N 703.576 0.692616 1.41565 0
M  V30 6940 C 704.801 0.229776 2.06123 0
M  V30 6941 C 705.226 -1.11119 1.5177 0
M  V30 6942 O 704.584 -1.69498 0.643444 0
M  V30 6943 C 704.632 0.19469 3.60074 0
M  V30 6944 O 703.736 -0.831366 4.03933 0
M  V30 6945 H 703.077 0.113002 0.654314 0
M  V30 6946 H 705.607 0.946645 1.81383 0
M  V30 6947 H 705.617 0.0245487 4.07993 0
M  V30 6948 H 704.292 1.17339 3.99004 0
M  V30 6949 H 702.869 -0.630819 3.67526 0
M  V30 6950 N 705.054 -1.51416 0.437162 0
M  V30 6951 C 706.279 -2.0699 -0.130424 0
M  V30 6952 C 706.704 -1.30249 -1.35709 0
M  V30 6953 O 706.062 -0.340388 -1.78076 0
M  V30 6954 C 706.11 -3.5801 -0.43142 0
M  V30 6955 O 705.214 -3.8345 -1.5179 0
M  V30 6956 H 704.555 -0.663997 -0.00194339 0
M  V30 6957 H 707.085 -1.95029 0.618445 0
M  V30 6958 H 707.095 -4.02261 -0.681926 0
M  V30 6959 H 705.77 -4.13291 0.465137 0
M  V30 6960 H 704.347 -3.51062 -1.25737 0
M  V30 6961 N 706.532 -0.168513 -1.56696 0
M  V30 6962 C 707.442 0.775435 -2.21414 0
M  V30 6963 C 708.458 1.25529 -1.20492 0
M  V30 6964 O 709.634 1.30801 -1.53144 0
M  V30 6965 C 706.699 1.9886 -2.83999 0
M  V30 6966 C 705.76 1.5559 -4.00113 0
M  V30 6967 C 704.993 2.71124 -4.59704 0
M  V30 6968 O 705.216 3.87917 -4.18182 0
M  V30 6969 O 704.15 2.4536 -5.4962 0
M  V30 6970 H 707.976 0.254416 -3.02632 0
M  V30 6971 H 705.561 0.0595507 -1.49281 0
M  V30 6972 H 707.443 2.69816 -3.23693 0
M  V30 6973 H 706.118 2.49874 -2.05779 0
M  V30 6974 H 705.025 0.815924 -3.65094 0
M  V30 6975 H 706.358 1.09271 -4.79917 0
M  V30 6976 N 708.01 1.57248 0.105221 0
M  V30 6977 C 708.92 2.04653 1.14693 0
M  V30 6978 C 709.936 0.969488 1.44489 0
M  V30 6979 O 711.112 1.28196 1.55331 0
M  V30 6980 C 708.177 2.45297 2.45011 0
M  V30 6981 C 707.238 3.67148 2.22489 0
M  V30 6982 C 706.471 4.05844 3.46592 0
M  V30 6983 O 706.694 3.44736 4.54437 0
M  V30 6984 O 705.628 4.98862 3.36779 0
M  V30 6985 H 709.454 2.93663 0.774336 0
M  V30 6986 H 707.039 1.45998 0.31701 0
M  V30 6987 H 708.921 2.72112 3.21766 0
M  V30 6988 H 707.596 1.59429 2.81717 0
M  V30 6989 H 706.503 3.45463 1.43547 0
M  V30 6990 H 707.836 4.53764 1.9068 0
M  V30 6991 N 709.488 -0.375779 1.53054 0
M  V30 6992 C 710.398 -1.48381 1.81715 0
M  V30 6993 C 711.414 -1.59087 0.704795 0
M  V30 6994 O 712.59 -1.75174 0.993785 0
M  V30 6995 C 709.655 -2.83767 1.99192 0
M  V30 6996 C 708.716 -2.82673 3.23102 0
M  V30 6997 C 707.949 -4.11601 3.39736 0
M  V30 6998 O 708.172 -5.07243 2.60885 0
M  V30 6999 O 707.106 -4.18034 4.33049 0
M  V30 7000 H 710.932 -1.27089 2.7583 0
M  V30 7001 H 708.517 -0.564902 1.38308 0
M  V30 7002 H 710.399 -3.64004 2.12318 0
M  V30 7003 H 709.074 -3.05057 1.08267 0
M  V30 7004 H 707.981 -2.0117 3.15407 0
M  V30 7005 H 709.314 -2.66335 4.13916 0
M  V30 7006 N 710.966 -1.44241 -0.634997 0
M  V30 7007 C 711.876 -1.53293 -1.77591 0
M  V30 7008 C 712.892 -0.418831 -1.68884 0
M  V30 7009 O 714.068 -0.675619 -1.8973 0
M  V30 7010 C 711.133 -1.47075 -3.13958 0
M  V30 7011 C 710.194 -2.69304 -3.34326 0
M  V30 7012 C 709.427 -2.63374 -4.64187 0
M  V30 7013 O 709.65 -1.69161 -5.44739 0
M  V30 7014 O 708.584 -3.54166 -4.86673 0
M  V30 7015 H 712.41 -2.49673 -1.72908 0
M  V30 7016 H 709.995 -1.26445 -0.795745 0
M  V30 7017 H 711.877 -1.46117 -3.95257 0
M  V30 7018 H 710.552 -0.538373 -3.19192 0
M  V30 7019 H 709.459 -2.75831 -2.52721 0
M  V30 7020 H 710.792 -3.61576 -3.33951 0
M  V30 7021 N 712.444 0.87505 -1.31075 0
M  V30 7022 C 713.354 2.01441 -1.20244 0
M  V30 7023 C 714.37 1.73584 -0.120227 0
M  V30 7024 O 715.546 1.98559 -0.337063 0
M  V30 7025 C 712.611 3.34675 -0.905199 0
M  V30 7026 C 711.672 3.75889 -2.0738 0
M  V30 7027 C 710.905 5.02764 -1.79064 0
M  V30 7028 O 711.128 5.65795 -0.723318 0
M  V30 7029 O 710.062 5.40623 -2.64594 0
M  V30 7030 H 713.888 2.13509 -2.1598 0
M  V30 7031 H 711.473 1.00257 -1.10765 0
M  V30 7032 H 713.355 4.1458 -0.755057 0
M  V30 7033 H 712.03 3.23692 0.0221695 0
M  V30 7034 H 710.937 2.96645 -2.27931 0
M  V30 7035 H 712.27 3.91489 -2.98324 0
M  V30 7036 N 713.922 1.13953 1.08869 0
M  V30 7037 C 714.869 0.82213 2.15661 0
M  V30 7038 C 715.839 -0.218274 1.6466 0
M  V30 7039 O 717.024 -0.0892475 1.90591 0
M  V30 7040 C 714.164 0.300572 3.43789 0
M  V30 7041 C 713.277 1.40071 4.08661 0
M  V30 7042 C 712.412 0.836897 5.24566 0
M  V30 7043 C 711.451 1.91504 5.81371 0
M  V30 7044 N 710.588 1.36875 6.88629 0
M  V30 7045 H 715.428 1.73683 2.42153 0
M  V30 7046 H 712.965 0.866879 1.18843 0
M  V30 7047 H 714.923 -0.0199943 4.17195 0
M  V30 7048 H 713.553 -0.577248 3.17597 0
M  V30 7049 H 712.605 1.83776 3.33062 0
M  V30 7050 H 713.917 2.21534 4.46905 0
M  V30 7051 H 713.071 0.467953 6.04893 0
M  V30 7052 H 711.81 -0.00874207 4.87699 0
M  V30 7053 H 710.815 2.29299 4.99702 0
M  V30 7054 H 712.04 2.76419 6.20298 0
M  V30 7055 H 709.986 0.545211 6.5373 0
M  V30 7056 H 709.903 2.1198 7.25672 0
M  V30 7057 H 711.171 1.02756 7.72698 0
M  V30 7058 N 715.4 -1.26948 0.933913 0
M  V30 7059 C 716.628 -1.98186 0.59414 0
M  V30 7060 C 717.043 -1.69614 -0.829257 0
M  V30 7061 O 716.4 -0.960213 -1.55197 0
M  V30 7062 C 716.451 -3.52123 0.818026 0
M  V30 7063 O 716.172 -3.79698 2.18543 0
M  V30 7064 C 717.673 -4.40608 0.48781 0
M  V30 7065 H 714.893 -0.632305 0.224569 0
M  V30 7066 H 717.437 -1.61646 1.25263 0
M  V30 7067 H 715.592 -3.86851 0.206246 0
M  V30 7068 H 716.006 -4.7426 2.24005 0
M  V30 7069 H 717.48 -5.47606 0.695126 0
M  V30 7070 H 717.957 -4.35394 -0.576913 0
M  V30 7071 H 718.563 -4.11411 1.078 0
M  V30 7072 N 716.879 -0.700114 -1.41195 0
M  V30 7073 C 718.104 -0.240704 -2.05998 0
M  V30 7074 C 718.529 1.10313 -1.52357 0
M  V30 7075 O 717.887 1.69154 -0.652424 0
M  V30 7076 C 717.935 -0.213783 -3.59966 0
M  V30 7077 O 717.039 0.809933 -4.04368 0
M  V30 7078 H 716.38 -0.116471 -0.653705 0
M  V30 7079 H 718.91 -0.956251 -1.80878 0
M  V30 7080 H 718.92 -0.0461852 -4.07974 0
M  V30 7081 H 717.595 -1.19454 -3.98376 0
M  V30 7082 H 716.172 0.611319 -3.67855 0
M  V30 7083 N 718.357 1.51182 -0.445186 0
M  V30 7084 C 719.304 2.27939 0.362291 0
M  V30 7085 C 720.274 1.31864 1.01 0
M  V30 7086 O 721.459 1.60776 1.02741 0
M  V30 7087 C 718.599 3.13016 1.45311 0
M  V30 7088 C 717.712 4.24093 0.822757 0
M  V30 7089 C 716.847 4.96467 1.88928 0
M  V30 7090 C 715.886 5.99454 1.23778 0
M  V30 7091 N 715.023 6.65206 2.24602 0
M  V30 7092 H 719.863 2.965 -0.29862 0
M  V30 7093 H 717.4 1.46237 -0.15911 0
M  V30 7094 H 719.358 3.60673 2.09692 0
M  V30 7095 H 717.988 2.46553 2.08354 0
M  V30 7096 H 717.04 3.80341 0.0670364 0
M  V30 7097 H 718.352 4.97853 0.307184 0
M  V30 7098 H 717.506 5.47712 2.60953 0
M  V30 7099 H 716.245 4.22355 2.4386 0
M  V30 7100 H 715.25 5.47494 0.503042 0
M  V30 7101 H 716.475 6.75527 0.695694 0
M  V30 7102 H 714.421 5.93901 2.78599 0
M  V30 7103 H 714.338 7.34756 1.77958 0
M  V30 7104 H 715.606 7.21078 2.96085 0
M  V30 7105 N 719.835 0.176821 1.56605 0
M  V30 7106 C 721.06 -0.47599 2.01864 0
M  V30 7107 C 721.485 -1.55645 1.05623 0
M  V30 7108 O 720.843 -1.81263 0.0366729 0
M  V30 7109 C 720.891 -1.02619 3.4569 0
M  V30 7110 O 719.995 -2.13996 3.52533 0
M  V30 7111 H 719.336 -0.113363 0.654251 0
M  V30 7112 H 721.866 0.28233 2.02643 0
M  V30 7113 H 721.876 -1.34742 3.85109 0
M  V30 7114 H 720.551 -0.235138 4.15235 0
M  V30 7115 H 719.128 -1.82876 3.24978 0
M  V30 7116 N 721.313 -1.57302 -0.09688 0
M  V30 7117 C 722.276 -2.00976 -1.10188 0
M  V30 7118 C 723.276 -0.903009 -1.3305 0
M  V30 7119 O 724.466 -1.16853 -1.29194 0
M  V30 7120 C 721.598 -2.36893 -2.45142 0
M  V30 7121 H 722.791 -2.9098 -0.726003 0
M  V30 7122 H 720.344 -1.52515 -0.341872 0
M  V30 7123 H 721.079 -1.49837 -2.8761 0
M  V30 7124 H 720.864 -3.17632 -2.29897 0
M  V30 7125 H 722.354 -2.71345 -3.1743 0
M  V30 7126 N 722.791 0.367657 -1.53252 0
M  V30 7127 C 724.037 1.11216 -1.69584 0
M  V30 7128 C 724.37 1.89026 -0.445269 0
M  V30 7129 O 723.645 1.86342 0.557404 0
M  V30 7130 C 723.928 2.07308 -2.94441 0
M  V30 7131 C 723.781 1.3312 -4.2965 0
M  V30 7132 C 725.1 3.07459 -3.14892 0
M  V30 7133 H 722.219 0.40294 -0.617096 0
M  V30 7134 H 724.861 0.393201 -1.85887 0
M  V30 7135 H 723.011 2.68617 -2.80673 0
M  V30 7136 H 724.683 0.746111 -4.55226 0
M  V30 7137 H 722.926 0.633051 -4.29156 0
M  V30 7138 H 723.597 2.03443 -5.13142 0
M  V30 7139 H 726.073 2.56252 -3.27832 0
M  V30 7140 H 724.949 3.71919 -4.03693 0
M  V30 7141 H 725.21 3.77514 -2.30077 0
M  V30 7142 N 724.269 1.44576 0.627338 0
M  V30 7143 C 725.216 1.51734 1.73912 0
M  V30 7144 C 726.186 0.364745 1.62046 0
M  V30 7145 O 727.371 0.575503 1.81914 0
M  V30 7146 C 724.511 1.47116 3.12171 0
M  V30 7147 C 723.624 2.72778 3.34986 0
M  V30 7148 C 722.759 2.59968 4.63239 0
M  V30 7149 C 721.798 3.80776 4.79245 0
M  V30 7150 N 720.935 3.66618 5.98778 0
M  V30 7151 H 725.775 2.46722 1.6713 0
M  V30 7152 H 723.312 1.22444 0.815224 0
M  V30 7153 H 725.27 1.42429 3.92135 0
M  V30 7154 H 723.9 0.556928 3.17959 0
M  V30 7155 H 722.952 2.87637 2.48936 0
M  V30 7156 H 724.264 3.62441 3.42692 0
M  V30 7157 H 723.418 2.53135 5.51369 0
M  V30 7158 H 722.157 1.67872 4.57898 0
M  V30 7159 H 721.162 3.87989 3.89544 0
M  V30 7160 H 722.387 4.73913 4.86398 0
M  V30 7161 H 720.333 2.77277 5.9452 0
M  V30 7162 H 720.25 4.499 6.07557 0
M  V30 7163 H 721.518 3.63684 6.89459 0
M  V30 7164 N 725.747 -0.868086 1.31537 0
M  V30 7165 C 726.694 -1.97548 1.19346 0
M  V30 7166 C 727.664 -1.65913 0.0787922 0
M  V30 7167 O 728.849 -1.89129 0.251985 0
M  V30 7168 C 725.989 -3.32922 0.908692 0
M  V30 7169 C 725.102 -3.77141 2.10687 0
M  V30 7170 C 724.237 -5.01241 1.75873 0
M  V30 7171 C 723.276 -5.37914 2.92088 0
M  V30 7172 N 722.413 -6.53192 2.57457 0
M  V30 7173 H 727.253 -2.07307 2.14074 0
M  V30 7174 H 724.79 -1.01483 1.06487 0
M  V30 7175 H 726.748 -4.10867 0.724138 0
M  V30 7176 H 725.378 -3.228 -0.0017611 0
M  V30 7177 H 724.43 -2.94961 2.40213 0
M  V30 7178 H 725.742 -4.00248 2.97663 0
M  V30 7179 H 724.896 -5.86858 1.53891 0
M  V30 7180 H 723.635 -4.80041 0.86091 0
M  V30 7181 H 722.64 -4.50814 3.14717 0
M  V30 7182 H 723.865 -5.61077 3.82582 0
M  V30 7183 H 721.811 -6.33536 1.702 0
M  V30 7184 H 721.728 -6.76252 3.37963 0
M  V30 7185 H 722.996 -7.41997 2.38873 0
M  V30 7186 N 727.225 -1.14528 -1.08264 0
M  V30 7187 C 728.172 -0.833556 -2.15222 0
M  V30 7188 C 729.142 0.209539 -1.64773 0
M  V30 7189 O 730.327 0.0791388 -1.90636 0
M  V30 7190 C 727.467 -0.318799 -3.43624 0
M  V30 7191 C 726.58 -1.42237 -4.07913 0
M  V30 7192 C 725.715 -0.864704 -5.24115 0
M  V30 7193 C 724.754 -1.94585 -5.80347 0
M  V30 7194 N 723.891 -1.40525 -6.87893 0
M  V30 7195 H 728.731 -1.74965 -2.41228 0
M  V30 7196 H 726.268 -0.873169 -1.18381 0
M  V30 7197 H 728.226 -0.00213088 -4.172 0
M  V30 7198 H 726.856 0.560397 -3.17898 0
M  V30 7199 H 725.908 -1.8554 -3.32083 0
M  V30 7200 H 727.22 -2.23901 -4.45724 0
M  V30 7201 H 726.374 -0.500025 -6.04636 0
M  V30 7202 H 725.113 -0.0171219 -4.87697 0
M  V30 7203 H 724.118 -2.31946 -4.98479 0
M  V30 7204 H 725.343 -2.79704 -6.18823 0
M  V30 7205 H 723.289 -0.579873 -6.53432 0
M  V30 7206 H 723.206 -2.15825 -7.24538 0
M  V30 7207 H 724.474 -1.06852 -7.72142 0
M  V30 7208 N 728.703 1.26451 -0.940633 0
M  V30 7209 C 730.114 1.75726 -0.630653 0
M  V30 7210 C 730.465 1.76631 0.854167 0
M  V30 7211 O 729.59 1.37807 1.66848 0
M  V30 7212 C 730.185 3.19114 -1.13805 0
M  V30 7213 C 728.744 3.66005 -0.878497 0
M  V30 7214 C 727.891 2.45505 -1.28928 0
M  V30 7215 H 730.842 1.12535 -1.119 0
M  V30 7216 H 730.863 3.77311 -0.491625 0
M  V30 7217 H 730.375 3.18424 -2.21874 0
M  V30 7218 H 728.476 3.72126 0.187833 0
M  V30 7219 H 728.589 4.54844 -1.50512 0
M  V30 7220 H 726.953 2.4467 -0.707713 0
M  V30 7221 H 727.736 2.47516 -2.37888 0
M  V30 7222 N 730.181 0.707592 1.40822 0
M  V30 7223 C 731.113 0.0105968 2.29198 0
M  V30 7224 C 732.126 -0.732035 1.45414 0
M  V30 7225 O 733.315 -0.580741 1.68789 0
M  V30 7226 C 730.415 -1.00921 3.23525 0
M  V30 7227 C 729.588 -0.333747 4.36125 0
M  V30 7228 C 728.647 -1.25783 5.10945 0
M  V30 7229 O 727.673 -0.745646 5.64295 0
M  V30 7230 N 728.875 -2.58947 5.19545 0
M  V30 7231 H 731.64 0.76938 2.89656 0
M  V30 7232 H 729.201 0.554579 1.52105 0
M  V30 7233 H 731.193 -1.6294 3.70449 0
M  V30 7234 H 729.763 -1.66942 2.6429 0
M  V30 7235 H 728.983 0.466518 3.9143 0
M  V30 7236 H 730.271 0.135444 5.0862 0
M  V30 7237 H 729.669 -3.03065 4.7767 0
M  V30 7238 H 728.226 -3.16131 5.70004 0
M  V30 7239 N 731.66 -1.50943 0.453197 0
M  V30 7240 C 732.607 -2.28128 -0.350197 0
M  V30 7241 C 733.577 -1.32398 -1.00299 0
M  V30 7242 O 734.762 -1.61319 -1.01887 0
M  V30 7243 C 731.902 -3.13782 -1.43649 0
M  V30 7244 C 731.015 -4.24523 -0.800255 0
M  V30 7245 C 730.15 -4.97462 -1.86293 0
M  V30 7246 C 729.189 -6.00102 -1.20598 0
M  V30 7247 N 728.326 -6.66387 -2.21071 0
M  V30 7248 H 733.166 -2.96337 0.31434 0
M  V30 7249 H 730.703 -1.46151 0.166863 0
M  V30 7250 H 732.661 -3.6178 -2.07776 0
M  V30 7251 H 731.291 -2.47655 -2.07044 0
M  V30 7252 H 730.343 -3.80371 -0.0468651 0
M  V30 7253 H 731.655 -4.98009 -0.280777 0
M  V30 7254 H 730.809 -5.49088 -2.58044 0
M  V30 7255 H 729.548 -4.23642 -2.41617 0
M  V30 7256 H 728.553 -5.47753 -0.474 0
M  V30 7257 H 729.778 -6.75887 -0.659859 0
M  V30 7258 H 727.724 -5.9537 -2.75446 0
M  V30 7259 H 727.641 -7.3569 -1.74058 0
M  V30 7260 H 728.909 -7.22638 -2.92257 0
M  V30 7261 N 733.138 -0.185124 -1.56509 0
M  V30 7262 C 734.384 0.456934 -1.97585 0
M  V30 7263 C 734.717 1.61957 -1.07161 0
M  V30 7264 O 733.992 1.9412 -0.121546 0
M  V30 7265 C 734.275 0.926666 -3.47973 0
M  V30 7266 C 734.128 -0.237097 -4.49175 0
M  V30 7267 C 735.447 1.79561 -4.01803 0
M  V30 7268 H 732.566 0.164619 -0.71838 0
M  V30 7269 H 735.208 -0.274039 -1.88013 0
M  V30 7270 H 733.358 1.54954 -3.56261 0
M  V30 7271 H 735.03 -0.87454 -4.52934 0
M  V30 7272 H 733.273 -0.890446 -4.24563 0
M  V30 7273 H 733.944 0.133924 -5.51838 0
M  V30 7274 H 736.42 1.27039 -3.96232 0
M  V30 7275 H 735.296 2.09327 -5.07418 0
M  V30 7276 H 735.557 2.74629 -3.46455 0
M  V30 7277 N 734.616 1.57351 0.0885366 0
M  V30 7278 C 735.579 2.01557 1.09121 0
M  V30 7279 C 736.579 0.910052 1.3257 0
M  V30 7280 O 737.769 1.17537 1.28572 0
M  V30 7281 C 734.901 2.38189 2.43883 0
M  V30 7282 H 736.094 2.91361 0.710562 0
M  V30 7283 H 733.647 1.52694 0.333779 0
M  V30 7284 H 734.382 1.5136 2.86811 0
M  V30 7285 H 734.167 3.18846 2.28209 0
M  V30 7286 H 735.657 2.73025 3.15986 0
M  V30 7287 N 736.094 -0.359525 1.53444 0
M  V30 7288 C 737.342 -1.09935 1.69584 0
M  V30 7289 C 737.663 -1.89656 0.453371 0
M  V30 7290 O 736.933 -1.8852 -0.53263 0
M  V30 7291 H 735.513 -0.408843 0.625185 0
M  V30 7292 H 738.175 -0.40467 1.90653 0
M  V30 7293 H 737.271 -1.78575 2.55964 0
M  V30 7294 N 737.572 -1.44907 -0.619662 0
M  V30 7295 C 738.82 -1.47999 -1.37625 0
M  V30 7296 C 739.141 -0.118295 -1.94641 0
M  V30 7297 O 738.411 0.85086 -1.76457 0
M  V30 7298 H 736.991 -0.544993 -0.510873 0
M  V30 7299 H 739.653 -1.80772 -0.728522 0
M  V30 7300 H 738.749 -2.21196 -2.20179 0
M  V30 7301 N 739.05 0.861098 -1.31996 0
M  V30 7302 C 740.013 1.95068 -1.20338 0
M  V30 7303 C 741.013 1.60289 -0.128114 0
M  V30 7304 O 742.203 1.70048 -0.378044 0
M  V30 7305 C 739.335 3.30153 -0.849205 0
M  V30 7306 H 740.528 2.06833 -2.17164 0
M  V30 7307 H 738.081 1.05049 -1.15734 0
M  V30 7308 H 738.816 3.24087 0.117508 0
M  V30 7309 H 738.601 3.56771 -1.62655 0
M  V30 7310 H 740.091 4.10025 -0.791782 0
M  V30 7311 N 740.528 1.15101 1.07655 0
M  V30 7312 C 741.491 0.847625 2.12951 0
M  V30 7313 C 742.491 -0.151227 1.60087 0
M  V30 7314 O 743.681 0.0780399 1.74025 0
M  V30 7315 C 740.813 0.265 3.39868 0
M  V30 7316 H 742.006 1.7809 2.41296 0
M  V30 7317 H 739.559 0.958072 1.23494 0
M  V30 7318 H 740.294 -0.676625 3.17163 0
M  V30 7319 H 740.079 0.984554 3.79538 0
M  V30 7320 H 741.569 0.0702121 4.17541 0
M  V30 7321 N 742.006 -1.2595 0.947325 0
M  V30 7322 C 743.417 -1.75389 0.639963 0
M  V30 7323 C 743.768 -1.77081 -0.844788 0
M  V30 7324 O 742.893 -1.3869 -1.66114 0
M  V30 7325 C 743.488 -3.18506 1.15496 0
M  V30 7326 C 742.047 -3.65534 0.897894 0
M  V30 7327 C 741.194 -2.44818 1.30228 0
M  V30 7328 H 744.145 -1.1194 1.12495 0
M  V30 7329 H 744.166 -3.77045 0.511627 0
M  V30 7330 H 743.678 -3.17243 2.23559 0
M  V30 7331 H 741.779 -3.72221 -0.168096 0
M  V30 7332 H 741.892 -4.54039 1.52922 0
M  V30 7333 H 740.256 -2.44291 0.720678 0
M  V30 7334 H 741.039 -2.46251 2.39198 0
M  V30 7335 N 743.484 -0.715051 -1.40445 0
M  V30 7336 C 744.709 -0.26254 -2.05732 0
M  V30 7337 C 745.134 1.08691 -1.53519 0
M  V30 7338 O 744.492 1.68453 -0.670328 0
M  V30 7339 C 744.54 -0.25195 -3.59719 0
M  V30 7340 O 743.644 0.766998 -4.05205 0
M  V30 7341 H 742.985 -0.123398 -0.652433 0
M  V30 7342 H 745.515 -0.975382 -1.79854 0
M  V30 7343 H 745.525 -0.0894537 -4.07902 0
M  V30 7344 H 744.2 -1.23672 -3.97087 0
M  V30 7345 H 742.777 0.572269 -3.68483 0
M  V30 7346 N 744.962 1.50701 -0.461195 0
M  V30 7347 C 745.909 2.2831 0.338094 0
M  V30 7348 C 746.879 1.32928 0.995957 0
M  V30 7349 O 748.064 1.61857 1.0103 0
M  V30 7350 C 745.204 3.14539 1.41983 0
M  V30 7351 C 744.317 4.24942 0.77773 0
M  V30 7352 C 743.452 4.98443 1.83652 0
M  V30 7353 C 742.491 6.00733 1.17413 0
M  V30 7354 N 741.628 6.6755 2.17533 0
M  V30 7355 H 746.468 2.96167 -0.330051 0
M  V30 7356 H 744.005 1.4606 -0.174611 0
M  V30 7357 H 745.963 3.62877 2.05855 0
M  V30 7358 H 744.593 2.48749 2.05727 0
M  V30 7359 H 743.645 3.80391 0.0266924 0
M  V30 7360 H 744.957 4.98151 0.254362 0
M  V30 7361 H 744.111 5.50449 2.55129 0
M  V30 7362 H 742.85 4.24917 2.39367 0
M  V30 7363 H 741.855 5.47997 0.444944 0
M  V30 7364 H 743.08 6.76227 0.624006 0
M  V30 7365 H 741.026 5.96823 2.72284 0
M  V30 7366 H 740.943 7.36603 1.70154 0
M  V30 7367 H 742.211 7.24178 2.88421 0
M  V30 7368 N 746.441 0.193421 1.56409 0
M  V30 7369 C 747.852 -0.319471 1.83946 0
M  V30 7370 C 748.203 -1.61505 1.11403 0
M  V30 7371 O 747.328 -2.13139 0.374289 0
M  V30 7372 C 747.923 -0.586411 3.33686 0
M  V30 7373 C 746.482 -1.04368 3.61641 0
M  V30 7374 C 745.629 -0.0913834 2.77149 0
M  V30 7375 H 748.58 0.417242 1.53117 0
M  V30 7376 H 748.601 -1.43591 3.52366 0
M  V30 7377 H 748.113 0.356701 3.86457 0
M  V30 7378 H 746.214 -2.00113 3.14302 0
M  V30 7379 H 746.327 -0.937549 4.69837 0
M  V30 7380 H 744.691 -0.592954 2.47702 0
M  V30 7381 H 745.474 0.846142 3.32709 0
M  V30 7382 N 747.919 -1.57396 -0.0801906 0
M  V30 7383 C 748.882 -2.02133 -1.0805 0
M  V30 7384 C 749.882 -0.91707 -1.32085 0
M  V30 7385 O 751.072 -1.18217 -1.27947 0
M  V30 7386 C 748.204 -2.39479 -2.42616 0
M  V30 7387 H 749.397 -2.91733 -0.6951 0
M  V30 7388 H 746.95 -1.52869 -0.325677 0
M  V30 7389 H 747.685 -1.52879 -2.86004 0
M  V30 7390 H 747.47 -3.20052 -2.26515 0
M  V30 7391 H 748.96 -2.74697 -3.14534 0
M  V30 7392 N 749.397 0.351382 -1.53633 0
M  V30 7393 C 750.622 1.11718 -1.74739 0
M  V30 7394 C 751.047 1.81829 -0.481657 0
M  V30 7395 O 750.405 1.72264 0.565233 0
M  V30 7396 C 750.453 2.11234 -2.92254 0
M  V30 7397 O 749.557 3.186 -2.61855 0
M  V30 7398 H 748.898 0.323482 -0.579875 0
M  V30 7399 H 751.428 0.404167 -2.00568 0
M  V30 7400 H 751.438 2.54591 -3.18822 0
M  V30 7401 H 750.113 1.59599 -3.84058 0
M  V30 7402 H 748.69 2.80115 -2.4615 0
M  V30 7403 N 750.875 1.45233 0.611969 0
M  V30 7404 C 751.838 1.53189 1.70487 0
M  V30 7405 C 752.838 0.411839 1.55437 0
M  V30 7406 O 754.028 0.675164 1.60584 0
M  V30 7407 C 751.16 1.42422 3.09723 0
M  V30 7408 H 752.353 2.5056 1.64802 0
M  V30 7409 H 749.906 1.32609 0.827318 0
M  V30 7410 H 750.641 0.462185 3.2099 0
M  V30 7411 H 750.426 2.23658 3.22055 0
M  V30 7412 H 751.916 1.51012 3.89339 0
M  V30 7413 N 752.353 -0.854086 1.3245 0
M  V30 7414 C 753.3 -1.96271 1.21434 0
M  V30 7415 C 754.27 -1.6582 0.0963851 0
M  V30 7416 O 755.455 -1.88851 0.27203 0
M  V30 7417 C 752.595 -3.31939 0.943952 0
M  V30 7418 C 751.708 -3.74885 2.14675 0
M  V30 7419 C 750.843 -4.99347 1.81179 0
M  V30 7420 C 749.882 -5.34785 2.97777 0
M  V30 7421 N 749.019 -6.50425 2.6437 0
M  V30 7422 H 753.859 -2.05025 2.16261 0
M  V30 7423 H 751.396 -1.00348 1.07558 0
M  V30 7424 H 753.354 -4.10076 0.767675 0
M  V30 7425 H 751.984 -3.22784 0.0324763 0
M  V30 7426 H 751.036 -2.92396 2.43328 0
M  V30 7427 H 752.348 -3.97068 3.01891 0
M  V30 7428 H 751.502 -5.85193 1.60107 0
M  V30 7429 H 750.241 -4.79101 0.911777 0
M  V30 7430 H 749.246 -4.47451 3.1948 0
M  V30 7431 H 750.471 -5.56988 3.88511 0
M  V30 7432 H 748.417 -6.31695 1.7691 0
M  V30 7433 H 748.334 -6.7263 3.45116 0
M  V30 7434 H 749.602 -7.39422 2.46729 0
M  V30 7435 N 753.831 -1.1567 -1.07043 0
M  V30 7436 C 754.778 -0.856336 -2.14326 0
M  V30 7437 C 755.748 0.192051 -1.64986 0
M  V30 7438 O 756.933 0.0589148 -1.90709 0
M  V30 7439 C 754.073 -0.355227 -3.43267 0
M  V30 7440 C 753.186 -1.46555 -4.06381 0
M  V30 7441 C 752.321 -0.920245 -5.23168 0
M  V30 7442 C 751.36 -2.00729 -5.78251 0
M  V30 7443 N 750.497 -1.47813 -6.86364 0
M  V30 7444 H 755.337 -1.77514 -2.39359 0
M  V30 7445 H 752.874 -0.885676 -1.17449 0
M  V30 7446 H 754.832 -0.0463804 -4.17174 0
M  V30 7447 H 753.462 0.526649 -3.18475 0
M  V30 7448 H 752.514 -1.89052 -3.30096 0
M  V30 7449 H 753.826 -2.28616 -4.43324 0
M  V30 7450 H 752.98 -0.564127 -6.04072 0
M  V30 7451 H 751.719 -0.0688477 -4.87651 0
M  V30 7452 H 750.724 -2.3722 -4.95991 0
M  V30 7453 H 751.949 -2.86252 -6.15822 0
M  V30 7454 H 749.895 -0.649145 -6.5278 0
M  V30 7455 H 749.812 -2.23498 -7.22208 0
M  V30 7456 H 751.08 -1.15036 -7.70965 0
M  V30 7457 N 755.309 1.25446 -0.953992 0
M  V30 7458 C 756.557 1.92762 -0.607227 0
M  V30 7459 C 756.878 1.7509 0.858399 0
M  V30 7460 O 756.148 1.11416 1.61132 0
M  V30 7461 H 754.728 0.713377 -0.221591 0
M  V30 7462 H 757.39 1.52625 -1.21209 0
M  V30 7463 H 756.486 3.00695 -0.835998 0
M  V30 7464 N 756.787 0.722489 1.40064 0
M  V30 7465 C 757.734 0.0743738 2.3068 0
M  V30 7466 C 758.704 -0.743004 1.48555 0
M  V30 7467 O 759.889 -0.705536 1.77276 0
M  V30 7468 C 757.029 -0.836292 3.34814 0
M  V30 7469 C 756.142 -0.00764663 4.31999 0
M  V30 7470 C 755.277 -0.918428 5.232 0
M  V30 7471 C 754.316 -0.0842838 6.12042 0
M  V30 7472 N 753.453 -0.950316 6.95639 0
M  V30 7473 H 758.293 0.852794 2.85537 0
M  V30 7474 H 755.83 0.432222 1.40607 0
M  V30 7475 H 757.788 -1.3786 3.93765 0
M  V30 7476 H 756.418 -1.58082 2.81443 0
M  V30 7477 H 755.47 0.651928 3.74772 0
M  V30 7478 H 756.782 0.63786 4.94705 0
M  V30 7479 H 755.936 -1.52902 5.87116 0
M  V30 7480 H 754.675 -1.59774 4.60786 0
M  V30 7481 H 753.68 0.5392 5.4715 0
M  V30 7482 H 754.905 0.591628 6.76518 0
M  V30 7483 H 752.851 -1.61515 6.35806 0
M  V30 7484 H 752.768 -0.361004 7.55138 0
M  V30 7485 H 754.036 -1.54687 7.63997 0
M  V30 7486 N 758.265 -1.50454 0.469181 0
M  V30 7487 C 759.228 -2.2703 -0.314643 0
M  V30 7488 C 760.228 -1.31734 -0.922111 0
M  V30 7489 O 761.418 -1.55176 -0.791588 0
M  V30 7490 C 758.55 -3.08616 -1.44806 0
M  V30 7491 H 759.743 -2.97769 0.356892 0
M  V30 7492 H 757.296 -1.54698 0.223191 0
M  V30 7493 H 758.031 -2.42369 -2.1547 0
M  V30 7494 H 757.816 -3.78647 -1.01829 0
M  V30 7495 H 759.306 -3.66536 -2.00103 0
M  V30 7496 N 759.743 -0.201713 -1.56304 0
M  V30 7497 C 760.653 0.728296 -2.23009 0
M  V30 7498 C 761.669 1.22945 -1.23128 0
M  V30 7499 O 762.845 1.27523 -1.55884 0
M  V30 7500 C 759.91 1.92792 -2.88153 0
M  V30 7501 C 758.971 1.47068 -4.03323 0
M  V30 7502 C 758.204 2.61312 -4.65351 0
M  V30 7503 O 758.427 3.7896 -4.26317 0
M  V30 7504 O 757.361 2.33646 -5.54701 0
M  V30 7505 H 761.187 0.190166 -3.03104 0
M  V30 7506 H 758.772 0.0278725 -1.49374 0
M  V30 7507 H 760.654 2.6289 -3.29343 0
M  V30 7508 H 759.329 2.45452 -2.11033 0
M  V30 7509 H 758.236 0.738299 -3.66742 0
M  V30 7510 H 759.569 0.990666 -4.82127 0
M  V30 7511 N 761.222 1.57436 0.0718424 0
M  V30 7512 C 762.447 1.91858 0.787745 0
M  V30 7513 C 762.872 0.798119 1.70328 0
M  V30 7514 O 762.23 -0.24905 1.79581 0
M  V30 7515 C 762.278 3.25232 1.55744 0
M  V30 7516 O 761.382 3.14462 2.6681 0
M  V30 7517 H 760.723 0.628258 0.214914 0
M  V30 7518 H 763.253 2.04561 0.0401012 0
M  V30 7519 H 763.263 3.59105 1.9367 0
M  V30 7520 H 761.938 4.0636 0.885691 0
M  V30 7521 H 760.515 2.92148 2.31741 0
M  V30 7522 N 762.7 -0.34323 1.53817 0
M  V30 7523 C 763.925 -1.1079 1.75329 0
M  V30 7524 C 764.35 -1.81571 0.491293 0
M  V30 7525 O 763.708 -1.72561 -0.556089 0
M  V30 7526 C 763.756 -2.09681 2.9337 0
M  V30 7527 O 762.86 -3.17207 2.63541 0
M  V30 7528 H 762.201 -0.320402 0.581583 0
M  V30 7529 H 764.731 -0.393525 2.0078 0
M  V30 7530 H 764.741 -2.52897 3.20168 0
M  V30 7531 H 763.416 -1.5756 3.84899 0
M  V30 7532 H 761.993 -2.78806 2.47632 0
M  V30 7533 N 764.178 -1.45556 -0.604258 0
M  V30 7534 C 765.126 -1.5482 -1.7359 0
M  V30 7535 C 766.12 -0.417966 -1.64163 0
M  V30 7536 O 767.326 -0.594007 -1.69916 0
M  V30 7537 H 763.701 -0.486352 -0.573556 0
M  V30 7538 H 765.672 -2.5001 -1.62903 0
M  V30 7539 C 764.421 -1.53521 -3.11972 0
M  V30 7540 H 763.744 -2.39818 -3.19886 0
M  V30 7541 H 765.184 -1.64061 -3.90973 0
M  V30 7542 C 763.643 -0.260191 -3.35894 0
M  V30 7543 O 764.173 0.658582 -3.96265 0
M  V30 7544 N 762.379 -0.154839 -2.90187 0
M  V30 7545 H 761.926 -0.903378 -2.4124 0
M  V30 7546 H 761.884 0.697437 -3.06567 0
M  V30 7547 N 765.656 0.84705 -1.32902 0
M  V30 7548 C 766.881 1.63925 -1.27056 0
M  V30 7549 C 767.306 1.87443 0.157136 0
M  V30 7550 O 766.664 1.43266 1.11106 0
M  V30 7551 C 766.712 2.97134 -2.04313 0
M  V30 7552 O 765.816 3.88049 -1.39614 0
M  V30 7553 H 765.157 0.499477 -0.437514 0
M  V30 7554 H 767.687 1.05443 -1.75336 0
M  V30 7555 H 767.697 3.46896 -2.14772 0
M  V30 7556 H 766.372 2.79339 -3.08128 0
M  V30 7557 H 764.949 3.46525 -1.3775 0
M  V30 7558 N 767.134 1.16236 1.06428 0
M  V30 7559 C 768.359 0.967688 1.83441 0
M  V30 7560 C 768.784 -0.479167 1.81894 0
M  V30 7561 O 768.142 -1.34224 1.21875 0
M  V30 7562 C 768.19 1.49806 3.2801 0
M  V30 7563 O 767.294 0.703481 4.06356 0
M  V30 7564 H 766.635 0.344468 0.56766 0
M  V30 7565 H 769.165 1.54442 1.34197 0
M  V30 7566 H 769.175 1.51495 3.78831 0
M  V30 7567 H 767.85 2.55133 3.2845 0
M  V30 7568 H 766.427 0.756986 3.65136 0
M  V30 7569 N 768.612 -1.24939 0.960631 0
M  V30 7570 C 769.837 -1.9742 0.635608 0
M  V30 7571 C 770.262 -1.70857 -0.786737 0
M  V30 7572 O 769.62 -0.968063 -1.53291 0
M  V30 7573 C 769.668 -3.48987 0.907771 0
M  V30 7574 O 768.772 -4.12399 -0.0104053 0
M  V30 7575 H 768.113 -0.61871 0.241027 0
M  V30 7576 H 770.643 -1.58901 1.28886 0
M  V30 7577 H 770.653 -3.99334 0.836453 0
M  V30 7578 H 769.328 -3.6765 1.94439 0
M  V30 7579 H 767.905 -3.72727 0.113631 0
M  V30 7580 N 770.09 -0.729906 -1.39679 0
M  V30 7581 C 771.315 -0.284345 -2.05442 0
M  V30 7582 C 771.74 1.07056 -1.54663 0
M  V30 7583 O 771.098 1.67732 -0.688157 0
M  V30 7584 C 771.146 -0.290089 -3.59431 0
M  V30 7585 O 770.25 0.723978 -4.05995 0
M  V30 7586 H 769.591 -0.130311 -0.651088 0
M  V30 7587 H 772.121 -0.994403 -1.78809 0
M  V30 7588 H 772.131 -0.132712 -4.07784 0
M  V30 7589 H 770.806 -1.27877 -3.95753 0
M  V30 7590 H 769.383 0.533154 -3.69069 0
M  V30 7591 N 771.568 1.50203 -0.477153 0
M  V30 7592 C 772.845 1.95115 0.137609 0
M  V30 7593 C 773.225 1.41778 1.56404 0
M  V30 7594 O 772.573 0.621333 2.1989 0
M  V30 7595 C 772.783 3.4892 0.0747168 0
M  V30 7596 C 774.131 4.238 0.260585 0
M  V30 7597 O 775.155 3.5588 0.151021 0
M  V30 7598 O 774.014 5.44366 0.482534 0
M  V30 7599 H 771.108 0.81987 0.108364 0
M  V30 7600 H 773.654 1.60946 -0.537989 0
M  V30 7601 H 772.426 3.80308 -0.920966 0
M  V30 7602 H 772.049 3.89642 0.791509 0
M  V30 7603 N 773.046 0.209999 1.56195 0
M  V30 7604 C 774.323 -0.473214 1.89789 0
M  V30 7605 C 774.703 -1.78581 1.1257 0
M  V30 7606 O 774.051 -2.27325 0.231398 0
M  V30 7607 C 774.261 -0.677458 3.42362 0
M  V30 7608 C 775.609 -0.990114 4.12895 0
M  V30 7609 O 776.633 -0.764655 3.47896 0
M  V30 7610 O 775.492 -1.41737 5.278 0
M  V30 7611 H 772.586 -0.248622 0.788743 0
M  V30 7612 H 775.132 0.251324 1.67829 0
M  V30 7613 H 773.904 0.248878 3.90508 0
M  V30 7614 H 773.527 -1.45391 3.70064 0
M  V30 7615 N 774.524 -1.57472 -0.0634922 0
M  V30 7616 C 775.749 -1.92273 -0.77756 0
M  V30 7617 C 776.174 -0.807141 -1.69902 0
M  V30 7618 O 775.532 0.239523 -1.79711 0
M  V30 7619 C 775.58 -3.26054 -1.54017 0
M  V30 7620 O 774.684 -3.15873 -2.65138 0
M  V30 7621 H 774.025 -0.629389 -0.211579 0
M  V30 7622 H 776.555 -2.04579 -0.0292523 0
M  V30 7623 H 776.565 -3.60127 -1.91763 0
M  V30 7624 H 775.24 -4.06824 -0.864128 0
M  V30 7625 H 773.817 -2.93373 -2.30189 0
M  V30 7626 N 776.003 0.335068 -1.53997 0
M  V30 7627 C 777.228 1.09859 -1.75914 0
M  V30 7628 C 777.653 1.81308 -0.500915 0
M  V30 7629 O 777.011 1.72854 0.54693 0
M  V30 7630 C 777.059 2.08122 -2.94478 0
M  V30 7631 O 776.163 3.15805 -2.65219 0
M  V30 7632 H 775.504 0.317313 -0.583274 0
M  V30 7633 H 778.034 0.382872 -2.00986 0
M  V30 7634 H 778.044 2.51195 -3.21504 0
M  V30 7635 H 776.719 1.55517 -3.8573 0
M  V30 7636 H 775.296 2.77489 -2.49107 0
M  V30 7637 N 777.481 1.45874 0.596531 0
M  V30 7638 C 778.391 1.57947 1.73464 0
M  V30 7639 C 779.407 0.463461 1.67714 0
M  V30 7640 O 780.583 0.725685 1.87872 0
M  V30 7641 C 777.648 1.55348 3.09948 0
M  V30 7642 C 776.709 2.78074 3.27068 0
M  V30 7643 C 775.942 2.75589 4.57041 0
M  V30 7644 O 776.165 1.83545 5.40063 0
M  V30 7645 O 775.099 3.66945 4.77111 0
M  V30 7646 H 778.925 2.54169 1.66228 0
M  V30 7647 H 776.51 1.2851 0.76194 0
M  V30 7648 H 778.392 1.56545 3.91244 0
M  V30 7649 H 777.067 0.622811 3.17652 0
M  V30 7650 H 775.974 2.82435 2.45319 0
M  V30 7651 H 777.307 3.70303 3.24248 0
M  V30 7652 N 778.959 -0.83999 1.33349 0
M  V30 7653 C 779.869 -1.98182 1.25543 0
M  V30 7654 C 780.885 -1.73204 0.166208 0
M  V30 7655 O 782.061 -1.97596 0.389589 0
M  V30 7656 C 779.126 -3.32157 0.993614 0
M  V30 7657 C 778.187 -3.70258 2.17273 0
M  V30 7658 C 777.42 -4.9784 1.92331 0
M  V30 7659 O 777.643 -5.63679 0.873074 0
M  V30 7660 O 776.577 -5.33418 2.78835 0
M  V30 7661 H 780.403 -2.07708 2.21565 0
M  V30 7662 H 777.988 -0.972852 1.13384 0
M  V30 7663 H 779.87 -4.12433 0.864711 0
M  V30 7664 H 778.545 -3.23637 0.0636596 0
M  V30 7665 H 777.452 -2.90497 2.35716 0
M  V30 7666 H 778.785 -3.83442 3.08598 0
M  V30 7667 N 780.437 -1.16799 -1.0581 0
M  V30 7668 C 781.347 -0.893492 -2.16919 0
M  V30 7669 C 782.363 0.136061 -1.73467 0
M  V30 7670 O 783.539 -0.0417348 -2.01357 0
M  V30 7671 C 780.604 -0.403763 -3.44341 0
M  V30 7672 C 779.665 -1.49914 -4.02274 0
M  V30 7673 C 778.898 -1.03269 -5.23614 0
M  V30 7674 O 779.121 0.115647 -5.70283 0
M  V30 7675 O 778.055 -1.8231 -5.73626 0
M  V30 7676 H 781.881 -1.82274 -2.42919 0
M  V30 7677 H 779.466 -0.948361 -1.1544 0
M  V30 7678 H 781.348 -0.137874 -4.21174 0
M  V30 7679 H 780.023 0.497413 -3.19855 0
M  V30 7680 H 778.93 -1.81883 -3.26909 0
M  V30 7681 H 780.263 -2.3758 -4.31064 0
M  V30 7682 N 781.915 1.24427 -0.967243 0
M  V30 7683 C 782.825 2.29109 -0.504592 0
M  V30 7684 C 783.841 1.68495 0.434224 0
M  V30 7685 O 785.017 1.99041 0.307379 0
M  V30 7686 C 782.082 3.46133 0.198273 0
M  V30 7687 C 781.143 4.22149 -0.780313 0
M  V30 7688 C 780.376 5.33585 -0.110896 0
M  V30 7689 O 780.599 5.59676 1.10088 0
M  V30 7690 O 779.533 5.96522 -0.802823 0
M  V30 7691 H 783.359 2.708 -1.37482 0
M  V30 7692 H 780.944 1.30111 -0.73426 0
M  V30 7693 H 782.826 4.17205 0.593124 0
M  V30 7694 H 781.501 3.0642 1.04347 0
M  V30 7695 H 780.408 3.53454 -1.22561 0
M  V30 7696 H 781.741 4.65677 -1.59392 0
M  V30 7697 N 783.393 0.737304 1.3929 0
M  V30 7698 C 784.303 0.100464 2.34385 0
M  V30 7699 C 785.319 -0.719282 1.58437 0
M  V30 7700 O 786.495 -0.647216 1.90717 0
M  V30 7701 C 783.56 -0.794325 3.37478 0
M  V30 7702 C 782.621 0.0379345 4.29283 0
M  V30 7703 C 781.854 -0.814241 5.27452 0
M  V30 7704 O 782.077 -2.05288 5.32177 0
M  V30 7705 O 781.011 -0.241679 6.01415 0
M  V30 7706 H 784.837 0.885407 2.90507 0
M  V30 7707 H 782.422 0.497999 1.40856 0
M  V30 7708 H 784.304 -1.30622 4.00644 0
M  V30 7709 H 782.979 -1.55804 2.83737 0
M  V30 7710 H 781.886 0.595405 3.69331 0
M  V30 7711 H 783.219 0.763926 4.86236 0
M  V30 7712 N 784.871 -1.49948 0.485112 0
M  V30 7713 C 785.818 -2.28819 -0.301729 0
M  V30 7714 C 786.788 -1.34496 -0.974683 0
M  V30 7715 O 787.973 -1.63444 -0.984418 0
M  V30 7716 C 785.113 -3.16758 -1.36961 0
M  V30 7717 C 784.226 -4.26125 -0.710027 0
M  V30 7718 C 783.361 -5.01302 -1.75699 0
M  V30 7719 C 782.4 -6.02525 -1.07841 0
M  V30 7720 N 781.537 -6.70927 -2.06886 0
M  V30 7721 H 786.377 -2.95604 0.377127 0
M  V30 7722 H 783.914 -1.45764 0.197826 0
M  V30 7723 H 785.872 -3.66106 -2.00056 0
M  V30 7724 H 784.502 -2.51991 -2.01744 0
M  V30 7725 H 783.554 -3.80385 0.0338278 0
M  V30 7726 H 784.866 -4.98493 -0.175079 0
M  V30 7727 H 784.02 -5.54438 -2.46339 0
M  V30 7728 H 782.759 -4.28672 -2.32577 0
M  V30 7729 H 781.764 -5.48635 -0.357706 0
M  V30 7730 H 782.989 -6.77134 -0.516345 0
M  V30 7731 H 780.935 -6.01079 -2.62755 0
M  V30 7732 H 780.852 -7.39216 -1.58414 0
M  V30 7733 H 782.12 -7.28675 -2.76863 0
M  V30 7734 N 786.349 -0.21828 -1.56081 0
M  V30 7735 C 787.279 0.687922 -2.23136 0
M  V30 7736 C 788.26 1.20357 -1.202 0
M  V30 7737 O 789.445 1.24817 -1.48776 0
M  V30 7738 C 786.575 1.89762 -2.90874 0
M  V30 7739 C 785.529 1.51595 -4.00254 0
M  V30 7740 C 784.855 2.80415 -4.55271 0
M  V30 7741 C 786.155 0.708404 -5.17474 0
M  V30 7742 H 787.849 0.128854 -2.99123 0
M  V30 7743 H 785.395 0.0605354 -1.43873 0
M  V30 7744 H 787.348 2.53699 -3.36474 0
M  V30 7745 H 786.072 2.4816 -2.1233 0
M  V30 7746 H 784.731 0.900058 -3.55379 0
M  V30 7747 H 784.379 3.36951 -3.73461 0
M  V30 7748 H 784.079 2.55613 -5.2909 0
M  V30 7749 H 785.603 3.453 -5.03587 0
M  V30 7750 H 787.017 1.2514 -5.59476 0
M  V30 7751 H 785.414 0.557593 -5.97504 0
M  V30 7752 H 786.484 -0.285679 -4.84058 0
M  V30 7753 N 787.827 1.57504 0.0551401 0
M  V30 7754 C 788.774 2.04825 1.06373 0
M  V30 7755 C 789.744 0.932108 1.37481 0
M  V30 7756 O 790.929 1.20093 1.48265 0
M  V30 7757 C 788.069 2.51091 2.36743 0
M  V30 7758 C 787.182 3.76392 2.12021 0
M  V30 7759 C 786.317 4.11373 3.36074 0
M  V30 7760 C 785.356 5.29666 3.0679 0
M  V30 7761 N 784.493 5.60205 4.2322 0
M  V30 7762 H 789.333 2.90753 0.653216 0
M  V30 7763 H 786.87 1.43776 0.310951 0
M  V30 7764 H 788.828 2.75973 3.12881 0
M  V30 7765 H 787.458 1.68118 2.75565 0
M  V30 7766 H 786.51 3.58751 1.26498 0
M  V30 7767 H 787.822 4.62662 1.86401 0
M  V30 7768 H 786.976 4.37245 4.20597 0
M  V30 7769 H 785.715 3.23704 3.64784 0
M  V30 7770 H 784.72 5.03574 2.20664 0
M  V30 7771 H 785.945 6.18968 2.79385 0
M  V30 7772 H 783.891 4.75495 4.5193 0
M  V30 7773 H 783.808 6.40928 4.00933 0
M  V30 7774 H 785.076 5.90637 5.08692 0
M  V30 7775 N 789.305 -0.326896 1.54172 0
M  V30 7776 C 790.553 -1.06313 1.71878 0
M  V30 7777 C 790.874 -1.88652 0.493498 0
M  V30 7778 O 790.144 -1.89608 -0.492522 0
M  V30 7779 H 788.724 -0.39549 0.633716 0
M  V30 7780 H 791.386 -0.364139 1.91468 0
M  V30 7781 H 790.482 -1.73105 2.59694 0
M  V30 7782 N 790.784 -1.46188 -0.588786 0
M  V30 7783 C 791.731 -1.56292 -1.69828 0
M  V30 7784 C 792.701 -0.407581 -1.61022 0
M  V30 7785 O 793.886 -0.623532 -1.80324 0
M  V30 7786 C 791.026 -1.55341 -3.08161 0
M  V30 7787 C 790.139 -2.81564 -3.27636 0
M  V30 7788 C 789.274 -2.72158 -4.56183 0
M  V30 7789 C 788.313 -3.93348 -4.68981 0
M  V30 7790 N 787.45 -3.82365 -5.88848 0
M  V30 7791 H 792.29 -2.51066 -1.6053 0
M  V30 7792 H 789.827 -1.24562 -0.782474 0
M  V30 7793 H 791.785 -1.52776 -3.88221 0
M  V30 7794 H 790.415 -0.641034 -3.16371 0
M  V30 7795 H 789.467 -2.94136 -2.41223 0
M  V30 7796 H 790.779 -3.714 -3.32962 0
M  V30 7797 H 789.933 -2.67665 -5.44464 0
M  V30 7798 H 788.672 -1.79953 -4.53286 0
M  V30 7799 H 787.677 -3.98181 -3.7912 0
M  V30 7800 H 788.902 -4.86643 -4.73662 0
M  V30 7801 H 786.848 -2.92942 -5.86959 0
M  V30 7802 H 786.765 -4.65851 -5.95415 0
M  V30 7803 H 788.033 -3.81836 -6.79575 0
M  V30 7804 N 792.262 0.832906 -1.33792 0
M  V30 7805 C 793.51 1.58539 -1.25338 0
M  V30 7806 C 793.831 1.94175 0.179204 0
M  V30 7807 O 793.101 1.61458 1.10941 0
M  V30 7808 H 791.681 0.58784 -0.460926 0
M  V30 7809 H 794.343 0.995064 -1.67584 0
M  V30 7810 H 793.439 2.51268 -1.85123 0
M  V30 7811 N 793.74 1.17359 1.05189 0
M  V30 7812 C 794.965 0.98709 1.82404 0
M  V30 7813 C 795.39 -0.459848 1.82392 0
M  V30 7814 O 794.748 -1.32924 1.23292 0
M  V30 7815 C 794.796 1.53276 3.26403 0
M  V30 7816 O 793.9 0.746541 4.05587 0
M  V30 7817 H 793.241 0.35047 0.563974 0
M  V30 7818 H 795.771 1.55856 1.32552 0
M  V30 7819 H 795.781 1.55504 3.77203 0
M  V30 7820 H 794.456 2.58603 3.25726 0
M  V30 7821 H 793.033 0.795671 3.64312 0
M  V30 7822 N 795.218 -1.23913 0.973828 0
M  V30 7823 C 796.629 -1.73992 0.677021 0
M  V30 7824 C 796.98 -1.78833 -0.807036 0
M  V30 7825 O 796.105 -1.42183 -1.63135 0
M  V30 7826 C 796.7 -3.15985 1.22226 0
M  V30 7827 C 795.259 -3.63547 0.975228 0
M  V30 7828 C 794.406 -2.42001 1.35392 0
M  V30 7829 H 797.357 -1.09529 1.14844 0
M  V30 7830 H 797.378 -3.75875 0.591489 0
M  V30 7831 H 796.89 -3.12429 2.30238 0
M  V30 7832 H 794.991 -3.72493 -0.0891047 0
M  V30 7833 H 795.104 -4.50693 1.62518 0
M  V30 7834 H 793.468 -2.42708 0.772334 0
M  V30 7835 H 794.251 -2.41122 2.44367 0
M  V30 7836 N 796.696 -0.74468 -1.38897 0
M  V30 7837 C 798.112 -0.421302 -1.53939 0
M  V30 7838 C 798.312 1.06668 -1.70951 0
M  V30 7839 O 797.368 1.85278 -1.71547 0
M  V30 7840 C 798.681 -1.21278 -2.75159 0
M  V30 7841 C 800.229 -1.20196 -2.89001 0
M  V30 7842 C 800.704 -1.97621 -4.13171 0
M  V30 7843 N 802.195 -1.94836 -4.2023 0
M  V30 7844 C 802.93 -2.51545 -5.15279 0
M  V30 7845 N 802.426 -3.1693 -6.16058 0
M  V30 7846 N 804.219 -2.41524 -5.07565 0
M  V30 7847 H 796.37 -1.70914 -1.26103 0
M  V30 7848 H 798.633 -0.724058 -0.611919 0
M  V30 7849 H 798.339 -2.26609 -2.68963 0
M  V30 7850 H 798.213 -0.823677 -3.68097 0
M  V30 7851 H 800.6 -0.156742 -2.94683 0
M  V30 7852 H 800.681 -1.63051 -1.97099 0
M  V30 7853 H 800.325 -3.02149 -4.0825 0
M  V30 7854 H 800.255 -1.52166 -5.04136 0
M  V30 7855 H 802.746 -1.4721 -3.48048 0
M  V30 7856 H 803.059 -3.57644 -6.85062 0
M  V30 7857 H 801.404 -3.21023 -6.16417 0
M  V30 7858 H 804.595 -1.90077 -4.27771 0
M  V30 7859 H 804.768 -2.86016 -5.81462 0
M  V30 7860 N 798.174 1.49689 -0.493057 0
M  V30 7861 C 799.585 1.8665 -0.0433032 0
M  V30 7862 C 799.936 1.40607 1.36836 0
M  V30 7863 O 799.061 0.780503 2.01834 0
M  V30 7864 C 799.656 3.38724 -0.0718069 0
M  V30 7865 C 798.215 3.75015 0.32257 0
M  V30 7866 C 797.362 2.7366 -0.4478 0
M  V30 7867 H 800.313 1.42119 -0.706246 0
M  V30 7868 H 800.334 3.73522 0.725347 0
M  V30 7869 H 799.846 3.72204 -1.09935 0
M  V30 7870 H 797.947 3.47142 1.35364 0
M  V30 7871 H 798.06 4.79099 0.00864259 0
M  V30 7872 H 796.424 2.54498 0.101354 0
M  V30 7873 H 797.207 3.09985 -1.47527 0
M  V30 7874 N 799.652 0.226554 1.55963 0
M  V30 7875 C 800.584 -0.713907 2.17798 0
M  V30 7876 C 801.597 -1.15387 1.14846 0
M  V30 7877 O 802.786 -1.08416 1.41804 0
M  V30 7878 C 799.886 -1.97945 2.75084 0
M  V30 7879 C 799.059 -1.69424 4.03255 0
M  V30 7880 C 798.118 -2.80734 4.45056 0
M  V30 7881 O 797.144 -2.4899 5.11852 0
M  V30 7882 N 798.346 -4.09797 4.11152 0
M  V30 7883 H 801.111 -0.18494 2.99129 0
M  V30 7884 H 798.672 0.0457346 1.61835 0
M  V30 7885 H 800.664 -2.71611 3.00016 0
M  V30 7886 H 799.234 -2.41876 1.98027 0
M  V30 7887 H 798.454 -0.793767 3.86126 0
M  V30 7888 H 799.742 -1.47806 4.86858 0
M  V30 7889 H 799.14 -4.38429 3.57486 0
M  V30 7890 H 797.697 -4.79992 4.40966 0
M  V30 7891 N 801.13 -1.57531 -0.0467866 0
M  V30 7892 C 802.093 -2.04379 -1.03738 0
M  V30 7893 C 803.093 -0.944881 -1.3011 0
M  V30 7894 O 804.283 -1.20904 -1.25411 0
M  V30 7895 C 801.415 -2.44572 -2.37482 0
M  V30 7896 H 802.608 -2.93142 -0.633063 0
M  V30 7897 H 800.161 -1.53526 -0.293177 0
M  V30 7898 H 800.896 -1.58911 -2.82697 0
M  V30 7899 H 800.681 -3.24785 -2.19675 0
M  V30 7900 H 802.171 -2.81307 -3.08636 0
M  V30 7901 N 802.608 0.318715 -1.54344 0
M  V30 7902 C 804.019 0.89285 -1.63967 0
M  V30 7903 C 804.37 1.88712 -0.536855 0
M  V30 7904 O 803.495 2.13877 0.329457 0
M  V30 7905 C 804.09 1.62618 -2.97222 0
M  V30 7906 C 802.649 2.14897 -3.09025 0
M  V30 7907 C 801.796 0.975909 -2.5956 0
M  V30 7908 H 804.747 0.0961687 -1.58408 0
M  V30 7909 H 804.768 2.4907 -2.87653 0
M  V30 7910 H 804.28 0.902286 -3.77466 0
M  V30 7911 H 802.381 2.90387 -2.33465 0
M  V30 7912 H 802.494 2.39565 -4.14904 0
M  V30 7913 H 800.858 1.35646 -2.15574 0
M  V30 7914 H 801.641 0.266253 -3.42266 0
M  V30 7915 N 804.086 1.46499 0.581025 0
M  V30 7916 C 805.033 1.5719 1.68997 0
M  V30 7917 C 806.003 0.416114 1.60803 0
M  V30 7918 O 807.188 0.633086 1.79991 0
M  V30 7919 C 804.328 1.56973 3.07333 0
M  V30 7920 C 803.441 2.83298 3.26139 0
M  V30 7921 C 802.576 2.74574 4.54734 0
M  V30 7922 C 801.615 3.9583 4.66889 0
M  V30 7923 N 800.752 3.85482 5.86811 0
M  V30 7924 H 805.592 2.51914 1.59196 0
M  V30 7925 H 803.129 1.24975 0.775857 0
M  V30 7926 H 805.087 1.54832 3.87405 0
M  V30 7927 H 803.717 0.657803 3.16027 0
M  V30 7928 H 802.769 2.95411 2.3966 0
M  V30 7929 H 804.081 3.7316 3.30988 0
M  V30 7930 H 803.235 2.70548 5.43036 0
M  V30 7931 H 801.974 1.82354 4.52325 0
M  V30 7932 H 800.979 4.00186 3.77003 0
M  V30 7933 H 802.204 4.89148 4.71075 0
M  V30 7934 H 800.15 2.96051 5.85397 0
M  V30 7935 H 800.067 4.69002 5.92936 0
M  V30 7936 H 801.335 3.85434 6.7754 0
M  V30 7937 N 805.565 -0.825799 1.34232 0
M  V30 7938 C 806.528 -1.91808 1.25468 0
M  V30 7939 C 807.528 -1.59893 0.170567 0
M  V30 7940 O 808.718 -1.68986 0.422996 0
M  V30 7941 C 805.85 -3.27786 0.93644 0
M  V30 7942 H 807.043 -2.01003 2.22571 0
M  V30 7943 H 804.596 -1.01944 1.18479 0
M  V30 7944 H 805.331 -3.24285 -0.0315408 0
M  V30 7945 H 805.116 -3.52333 1.72057 0
M  V30 7946 H 806.606 -4.07782 0.900214 0
M  V30 7947 N 807.043 -1.17915 -1.04565 0
M  V30 7948 C 807.991 -0.897919 -2.1457 0
M  V30 7949 C 808.985 0.139883 -1.68821 0
M  V30 7950 O 810.191 -0.00779463 -1.79998 0
M  V30 7951 H 806.566 -0.272867 -0.700748 0
M  V30 7952 H 808.537 -1.83268 -2.3549 0
M  V30 7953 C 807.286 -0.434634 -3.44973 0
M  V30 7954 H 806.609 -1.22469 -3.8058 0
M  V30 7955 H 808.049 -0.276804 -4.23095 0
M  V30 7956 C 806.508 0.848738 -3.26034 0
M  V30 7957 O 807.038 1.9141 -3.53164 0
M  V30 7958 N 805.244 0.799373 -2.79389 0
M  V30 7959 H 804.791 -0.0678192 -2.57511 0
M  V30 7960 H 804.749 1.6585 -2.67098 0
M  V30 7961 N 808.521 1.23394 -0.980386 0
M  V30 7962 C 809.769 1.91431 -0.647978 0
M  V30 7963 C 810.09 1.76871 0.821066 0
M  V30 7964 O 809.36 1.14808 1.58732 0
M  V30 7965 H 807.94 0.708516 -0.236673 0
M  V30 7966 H 810.602 1.50019 -1.2442 0
M  V30 7967 H 809.698 2.98854 -0.899592 0
M  V30 7968 N 809.999 0.752036 1.385 0
M  V30 7969 C 811.227 0.318274 2.04437 0
M  V30 7970 C 811.642 -1.05285 1.56718 0
M  V30 7971 O 810.999 -1.66844 0.73956 0
M  V30 7972 C 811.05 0.330106 3.5999 0
M  V30 7973 O 810.771 1.64712 4.05957 0
M  V30 7974 C 812.272 -0.117713 4.43144 0
M  V30 7975 H 809.492 0.136228 0.657026 0
M  V30 7976 H 812.036 1.02045 1.7722 0
M  V30 7977 H 810.191 -0.323323 3.86048 0
M  V30 7978 H 810.605 1.57225 5.0038 0
M  V30 7979 H 812.079 -0.0582735 5.51969 0
M  V30 7980 H 812.556 -1.16538 4.23457 0
M  V30 7981 H 813.162 0.506784 4.2227 0
M  V30 7982 N 811.477 -1.49425 0.500989 0
M  V30 7983 C 812.702 -2.07356 -0.0425154 0
M  V30 7984 C 813.127 -1.35887 -1.30063 0
M  V30 7985 O 812.485 -0.41561 -1.76472 0
M  V30 7986 C 812.533 -3.59518 -0.279188 0
M  V30 7987 O 811.637 -3.89542 -1.3539 0
M  V30 7988 H 810.978 -0.663482 0.0262207 0
M  V30 7989 H 813.508 -1.92231 0.700607 0
M  V30 7990 H 813.518 -4.04791 -0.5107 0
M  V30 7991 H 812.193 -4.10946 0.640009 0
M  V30 7992 H 810.77 -3.56079 -1.10734 0
M  V30 7993 N 812.955 -0.234822 -1.55841 0
M  V30 7994 C 813.918 0.656378 -2.196 0
M  V30 7995 C 814.918 1.11179 -1.16171 0
M  V30 7996 O 816.108 1.01845 -1.41326 0
M  V30 7997 C 813.24 1.90072 -2.82993 0
M  V30 7998 H 814.433 0.100281 -2.99732 0
M  V30 7999 H 811.986 0.0147613 -1.56293 0
M  V30 8000 H 812.721 2.49836 -2.06767 0
M  V30 8001 H 812.506 1.5825 -3.58747 0
M  V30 8002 H 813.996 2.53538 -3.31826 0
M  V30 8003 N 814.433 1.57553 0.0384317 0
M  V30 8004 C 815.363 2.0898 1.04161 0
M  V30 8005 C 816.344 0.99029 1.38301 0
M  V30 8006 O 817.529 1.26499 1.47349 0
M  V30 8007 C 814.659 2.56145 2.34536 0
M  V30 8008 C 813.613 3.70275 2.14663 0
M  V30 8009 C 812.939 4.03612 3.50715 0
M  V30 8010 C 814.239 4.99067 1.54045 0
M  V30 8011 H 815.933 2.93046 0.613548 0
M  V30 8012 H 813.479 1.40973 0.293684 0
M  V30 8013 H 815.432 2.90741 3.05037 0
M  V30 8014 H 814.156 1.6915 2.79385 0
M  V30 8015 H 812.815 3.36013 1.46597 0
M  V30 8016 H 812.463 3.13698 3.93195 0
M  V30 8017 H 812.163 4.80482 3.38247 0
M  V30 8018 H 813.687 4.40735 4.22593 0
M  V30 8019 H 815.101 5.3168 2.14451 0
M  V30 8020 H 813.498 5.80484 1.52178 0
M  V30 8021 H 814.568 4.8226 0.505259 0
M  V30 8022 N 815.911 -0.310526 1.54511 0
M  V30 8023 C 817.139 -1.06611 1.77318 0
M  V30 8024 C 817.554 -1.81265 0.528043 0
M  V30 8025 O 816.911 -1.75466 -0.50178 0
M  V30 8026 C 816.962 -2.05409 2.97472 0
M  V30 8027 O 816.683 -1.33785 4.17173 0
M  V30 8028 C 818.184 -2.93082 3.32593 0
M  V30 8029 H 815.404 -0.316578 0.591624 0
M  V30 8030 H 817.948 -0.352691 2.01436 0
M  V30 8031 H 816.103 -2.72266 2.7559 0
M  V30 8032 H 816.517 -2.00055 4.84849 0
M  V30 8033 H 817.991 -3.58274 4.19933 0
M  V30 8034 H 818.468 -3.60877 2.50329 0
M  V30 8035 H 819.074 -2.31768 3.566 0
M  V30 8036 N 817.389 -1.46805 -0.573248 0
M  V30 8037 C 818.352 -1.57655 -1.66366 0
M  V30 8038 C 819.352 -0.452905 -1.5429 0
M  V30 8039 O 820.542 -0.717502 -1.58737 0
M  V30 8040 C 817.674 -1.50584 -3.05839 0
M  V30 8041 H 818.867 -2.54842 -1.581 0
M  V30 8042 H 816.42 -1.34756 -0.791868 0
M  V30 8043 H 817.155 -0.547127 -3.19651 0
M  V30 8044 H 816.94 -2.32118 -3.16012 0
M  V30 8045 H 818.43 -1.61282 -3.85199 0
M  V30 8046 N 818.867 0.818669 -1.34668 0
M  V30 8047 C 819.799 1.93754 -1.22442 0
M  V30 8048 C 820.812 1.62103 -0.150501 0
M  V30 8049 O 822.001 1.73898 -0.402728 0
M  V30 8050 C 819.101 3.27806 -0.860031 0
M  V30 8051 C 818.274 3.8745 -2.02981 0
M  V30 8052 C 817.333 4.99887 -1.64314 0
M  V30 8053 O 816.359 5.17957 -2.36029 0
M  V30 8054 N 817.561 5.77795 -0.55976 0
M  V30 8055 H 820.326 2.04773 -2.18833 0
M  V30 8056 H 817.887 0.995472 -1.27679 0
M  V30 8057 H 819.879 4.00478 -0.583068 0
M  V30 8058 H 818.449 3.12597 0.0138253 0
M  V30 8059 H 817.669 3.07119 -2.47127 0
M  V30 8060 H 818.957 4.2403 -2.81204 0
M  V30 8061 H 818.355 5.65688 0.0363329 0
M  V30 8062 H 816.912 6.50899 -0.342541 0
M  V30 8063 N 820.346 1.18468 1.03938 0
M  V30 8064 C 821.294 0.909286 2.14091 0
M  V30 8065 C 822.288 -0.130928 1.68893 0
M  V30 8066 O 823.494 0.0173403 1.79992 0
M  V30 8067 H 819.869 0.27658 0.699291 0
M  V30 8068 H 821.84 1.84514 2.34515 0
M  V30 8069 C 820.589 0.452922 3.44737 0
M  V30 8070 H 819.912 1.24485 3.79926 0
M  V30 8071 H 821.352 0.299238 4.22943 0
M  V30 8072 C 819.811 -0.831435 3.26479 0
M  V30 8073 O 820.341 -1.89535 3.54174 0
M  V30 8074 N 818.547 -0.784545 2.79809 0
M  V30 8075 H 818.094 0.0814746 2.57471 0
M  V30 8076 H 818.052 -1.64431 2.67973 0
M  V30 8077 N 821.824 -1.22873 0.986916 0
M  V30 8078 C 823.072 -1.91084 0.658121 0
M  V30 8079 C 823.393 -1.77304 -0.811675 0
M  V30 8080 O 822.663 -1.15649 -1.58121 0
M  V30 8081 H 821.243 -0.707251 0.240427 0
M  V30 8082 H 823.905 -1.49357 1.25213 0
M  V30 8083 H 823.001 -2.98373 0.915428 0
M  V30 8084 N 823.302 -0.75937 -1.38099 0
M  V30 8085 C 824.249 -0.135508 -2.30402 0
M  V30 8086 C 825.219 0.703356 -1.50473 0
M  V30 8087 O 826.404 0.658287 -1.79084 0
M  V30 8088 C 823.544 0.747228 -3.36913 0
M  V30 8089 C 822.657 -0.106893 -4.31868 0
M  V30 8090 C 821.792 0.779388 -5.25451 0
M  V30 8091 C 820.831 -0.0780179 -6.1205 0
M  V30 8092 N 819.968 0.765545 -6.97914 0
M  V30 8093 H 824.808 -0.9282 -2.83176 0
M  V30 8094 H 822.345 -0.46935 -1.39411 0
M  V30 8095 H 824.303 1.27371 -3.97281 0
M  V30 8096 H 822.933 1.50565 -2.85535 0
M  V30 8097 H 821.985 -0.751063 -3.72912 0
M  V30 8098 H 823.297 -0.768798 -4.9284 0
M  V30 8099 H 822.451 1.37282 -5.90964 0
M  V30 8100 H 821.19 1.47501 -4.6486 0
M  V30 8101 H 820.195 -0.684078 -5.45528 0
M  V30 8102 H 821.42 -0.770786 -6.74712 0
M  V30 8103 H 819.366 1.44601 -6.39864 0
M  V30 8104 H 819.283 0.160666 -7.55829 0
M  V30 8105 H 820.551 1.34377 -7.6783 0
M  V30 8106 N 824.78 1.49157 -0.508906 0
M  V30 8107 C 825.743 2.27784 0.25434 0
M  V30 8108 C 826.743 1.34132 0.88686 0
M  V30 8109 O 827.933 1.5722 0.750168 0
M  V30 8110 C 825.065 3.12347 1.36573 0
M  V30 8111 H 826.258 2.96718 -0.435714 0
M  V30 8112 H 823.811 1.54052 -0.264128 0
M  V30 8113 H 824.546 2.47997 2.08969 0
M  V30 8114 H 824.331 3.81213 0.917543 0
M  V30 8115 H 825.821 3.71712 1.90315 0
M  V30 8116 N 826.258 0.243083 1.55714 0
M  V30 8117 C 827.221 -0.644723 2.19945 0
M  V30 8118 C 828.221 -1.10562 1.16759 0
M  V30 8119 O 829.411 -1.01095 1.41865 0
M  V30 8120 C 826.543 -1.88569 2.83997 0
M  V30 8121 H 827.736 -0.0843839 2.99781 0
M  V30 8122 H 825.289 -0.00647246 1.56299 0
M  V30 8123 H 826.024 -2.48736 2.08089 0
M  V30 8124 H 825.809 -1.56345 3.59581 0
M  V30 8125 H 827.299 -2.51774 3.33166 0
M  V30 8126 N 827.736 -1.57571 -0.0300757 0
M  V30 8127 C 828.683 -2.06492 -1.03101 0
M  V30 8128 C 829.653 -0.953862 -1.3598 0
M  V30 8129 O 830.838 -1.22436 -1.46335 0
M  V30 8130 C 827.978 -2.54826 -2.32718 0
M  V30 8131 C 827.091 -3.79718 -2.06006 0
M  V30 8132 C 826.226 -4.16668 -3.29487 0
M  V30 8133 C 825.265 -5.3448 -2.98324 0
M  V30 8134 N 824.402 -5.66867 -4.14254 0
M  V30 8135 H 829.242 -2.91755 -0.606877 0
M  V30 8136 H 826.779 -1.44252 -0.288038 0
M  V30 8137 H 828.737 -2.80916 -3.08451 0
M  V30 8138 H 827.367 -1.72481 -2.72856 0
M  V30 8139 H 826.419 -3.60718 -1.20774 0
M  V30 8140 H 827.731 -4.65569 -1.79017 0
M  V30 8141 H 826.885 -4.43881 -4.13588 0
M  V30 8142 H 825.624 -3.29466 -3.59588 0
M  V30 8143 H 824.629 -5.07021 -2.12625 0
M  V30 8144 H 825.854 -6.23334 -2.69502 0
M  V30 8145 H 823.8 -4.82625 -4.44308 0
M  V30 8146 H 823.717 -6.47226 -3.90685 0
M  V30 8147 H 824.985 -5.98656 -4.99231 0
M  V30 8148 N 829.214 0.302327 -1.54673 0
M  V30 8149 C 830.162 1.39286 -1.86285 0
M  V30 8150 C 831.156 1.52553 -0.736478 0
M  V30 8151 O 832.362 1.54686 -0.92045 0
M  V30 8152 H 828.737 0.465228 -0.590819 0
M  V30 8153 H 830.708 1.09859 -2.77441 0
M  V30 8154 C 829.457 2.75155 -2.12567 0
M  V30 8155 H 828.78 2.65728 -2.98712 0
M  V30 8156 H 830.22 3.50476 -2.38627 0
M  V30 8157 C 828.679 3.23987 -0.923813 0
M  V30 8158 O 829.209 4.01443 -0.143649 0
M  V30 8159 N 827.415 2.81293 -0.72956 0
M  V30 8160 H 826.962 2.18421 -1.36565 0
M  V30 8161 H 826.92 3.14315 0.0730351 0
M  V30 8162 N 830.692 1.47107 0.565454 0
M  V30 8163 C 831.917 1.57153 1.35343 0
M  V30 8164 C 832.342 0.219247 1.86818 0
M  V30 8165 O 831.7 -0.803539 1.62521 0
M  V30 8166 C 831.748 2.59387 2.50501 0
M  V30 8167 O 830.852 2.14086 3.52478 0
M  V30 8168 H 830.193 0.528209 0.402357 0
M  V30 8169 H 832.723 1.92821 0.684189 0
M  V30 8170 H 832.733 2.79546 2.97184 0
M  V30 8171 H 831.408 3.57579 2.12391 0
M  V30 8172 H 829.985 2.03991 3.12157 0
M  V30 8173 N 832.17 -0.811516 1.35101 0
M  V30 8174 C 833.08 -1.95475 1.29718 0
M  V30 8175 C 834.096 -1.72813 0.202909 0
M  V30 8176 O 835.272 -1.96725 0.431414 0
M  V30 8177 C 832.337 -3.29975 1.06385 0
M  V30 8178 C 831.398 -3.65566 2.25077 0
M  V30 8179 C 830.631 -4.93648 2.02848 0
M  V30 8180 O 830.854 -5.617 0.992442 0
M  V30 8181 O 829.788 -5.27384 2.90087 0
M  V30 8182 H 833.614 -2.02961 2.25921 0
M  V30 8183 H 831.199 -0.948583 1.15422 0
M  V30 8184 H 833.081 -4.10506 0.951999 0
M  V30 8185 H 831.756 -3.2343 0.132294 0
M  V30 8186 H 830.663 -2.85432 2.41825 0
M  V30 8187 H 831.996 -3.7681 3.16662 0
M  V30 8188 N 833.648 -1.19017 -1.03309 0
M  V30 8189 C 834.558 -0.939303 -2.14975 0
M  V30 8190 C 835.574 0.0992359 -1.73717 0
M  V30 8191 O 836.75 -0.0844362 -2.01223 0
M  V30 8192 C 833.815 -0.476712 -3.43407 0
M  V30 8193 C 832.876 -1.58413 -3.99003 0
M  V30 8194 C 832.109 -1.14352 -5.21305 0
M  V30 8195 O 832.332 -0.00534408 -5.704 0
M  V30 8196 O 831.266 -1.94436 -5.6963 0
M  V30 8197 H 835.092 -1.87386 -2.38998 0
M  V30 8198 H 832.677 -0.972635 -1.13403 0
M  V30 8199 H 834.559 -0.22718 -4.20787 0
M  V30 8200 H 833.234 0.429455 -3.20839 0
M  V30 8201 H 832.141 -1.88777 -3.22977 0
M  V30 8202 H 833.474 -2.4667 -4.25928 0
M  V30 8203 N 835.127 1.22348 -0.993418 0
M  V30 8204 C 836.037 2.27987 -0.553076 0
M  V30 8205 C 837.053 1.69378 0.398386 0
M  V30 8206 O 838.229 1.99648 0.26509 0
M  V30 8207 C 835.294 3.46475 0.124809 0
M  V30 8208 C 834.355 4.20399 -0.869682 0
M  V30 8209 C 833.588 5.33229 -0.224052 0
M  V30 8210 O 833.811 5.61885 0.981915 0
M  V30 8211 O 832.745 5.94685 -0.929174 0
M  V30 8212 H 836.571 2.67822 -1.43195 0
M  V30 8213 H 834.156 1.28525 -0.761694 0
M  V30 8214 H 836.038 4.18369 0.504496 0
M  V30 8215 H 834.713 3.08565 0.978243 0
M  V30 8216 H 833.62 3.50774 -1.30031 0
M  V30 8217 H 834.953 4.62191 -1.69233 0
M  V30 8218 N 836.605 0.766683 1.37694 0
M  V30 8219 C 837.515 0.150158 2.34119 0
M  V30 8220 C 838.531 -0.685513 1.59927 0
M  V30 8221 O 839.707 -0.606616 1.92047 0
M  V30 8222 C 836.772 -0.722562 3.39087 0
M  V30 8223 C 835.833 0.128983 4.29106 0
M  V30 8224 C 835.066 -0.702178 5.29061 0
M  V30 8225 O 835.289 -1.93954 5.36412 0
M  V30 8226 O 834.223 -0.114056 6.01792 0
M  V30 8227 H 838.049 0.946829 2.88563 0
M  V30 8228 H 835.634 0.527765 1.39768 0
M  V30 8229 H 837.516 -1.22095 4.03325 0
M  V30 8230 H 836.191 -1.49751 2.86978 0
M  V30 8231 H 835.098 0.673612 3.67985 0
M  V30 8232 H 836.431 0.866892 4.84506 0
M  V30 8233 N 838.083 -1.48885 0.516809 0
M  V30 8234 C 838.993 -2.33185 -0.257293 0
M  V30 8235 C 840.009 -1.4565 -0.951952 0
M  V30 8236 O 841.185 -1.78651 -0.929834 0
M  V30 8237 C 838.25 -3.21465 -1.29851 0
M  V30 8238 C 837.311 -4.24863 -0.615608 0
M  V30 8239 C 836.544 -5.08925 -1.60722 0
M  V30 8240 O 836.767 -4.9475 -2.83863 0
M  V30 8241 O 835.701 -5.90737 -1.15384 0
M  V30 8242 H 839.527 -3.00596 0.433131 0
M  V30 8243 H 837.112 -1.46792 0.277908 0
M  V30 8244 H 838.994 -3.76108 -1.90055 0
M  V30 8245 H 837.669 -2.5673 -1.97158 0
M  V30 8246 H 836.576 -3.74091 0.0265829 0
M  V30 8247 H 837.909 -4.92198 0.0152871 0
M  V30 8248 N 839.561 -0.251338 -1.55583 0
M  V30 8249 C 840.471 0.656978 -2.25213 0
M  V30 8250 C 841.487 1.18966 -1.26977 0
M  V30 8251 O 842.663 1.22499 -1.59862 0
M  V30 8252 C 839.728 1.83527 -2.94141 0
M  V30 8253 C 838.789 1.34162 -4.07798 0
M  V30 8254 C 838.022 2.46375 -4.73429 0
M  V30 8255 O 838.245 3.65205 -4.38157 0
M  V30 8256 O 837.179 2.15881 -5.61853 0
M  V30 8257 H 841.005 0.0936395 -3.03556 0
M  V30 8258 H 838.59 -0.0196638 -1.49387 0
M  V30 8259 H 840.472 2.52279 -3.3754 0
M  V30 8260 H 839.147 2.38614 -2.18735 0
M  V30 8261 H 838.054 0.621249 -3.68906 0
M  V30 8262 H 839.387 0.836779 -4.85035 0
M  V30 8263 N 841.039 1.57585 0.0217189 0
M  V30 8264 C 841.986 2.07036 1.02004 0
M  V30 8265 C 842.956 0.96106 1.35473 0
M  V30 8266 O 844.141 1.23211 1.45684 0
M  V30 8267 C 841.281 2.56056 2.31364 0
M  V30 8268 C 840.394 3.80805 2.03989 0
M  V30 8269 C 839.529 4.18409 3.27272 0
M  V30 8270 C 838.568 5.36055 2.95486 0
M  V30 8271 N 837.705 5.69056 4.11242 0
M  V30 8272 H 842.545 2.92073 0.591396 0
M  V30 8273 H 840.082 1.44403 0.280384 0
M  V30 8274 H 842.04 2.82548 3.06957 0
M  V30 8275 H 840.67 1.73925 2.71937 0
M  V30 8276 H 839.722 3.61354 1.1886 0
M  V30 8277 H 841.034 4.66512 1.76546 0
M  V30 8278 H 840.188 4.46068 4.11228 0
M  V30 8279 H 838.927 3.31369 3.57835 0
M  V30 8280 H 837.932 5.08142 2.09933 0
M  V30 8281 H 839.157 6.24755 2.66193 0
M  V30 8282 H 837.103 4.84974 4.41742 0
M  V30 8283 H 837.02 6.49288 3.87247 0
M  V30 8284 H 838.288 6.01295 4.96049 0
M  V30 8285 N 842.517 -0.29412 1.54831 0
M  V30 8286 C 843.464 -1.36296 1.86258 0
M  V30 8287 C 844.434 -1.50061 0.712097 0
M  V30 8288 O 845.619 -1.64809 0.961381 0
M  V30 8289 C 842.759 -2.72187 2.12151 0
M  V30 8290 C 841.872 -2.66816 3.39755 0
M  V30 8291 C 841.007 -3.94747 3.55455 0
M  V30 8292 C 840.046 -3.838 4.76827 0
M  V30 8293 N 839.183 -5.03521 4.89296 0
M  V30 8294 H 844.023 -1.08796 2.7743 0
M  V30 8295 H 841.56 -0.526069 1.37371 0
M  V30 8296 H 843.518 -3.51225 2.25159 0
M  V30 8297 H 842.148 -2.97934 1.24237 0
M  V30 8298 H 841.2 -1.79605 3.3533 0
M  V30 8299 H 842.512 -2.5462 4.28917 0
M  V30 8300 H 841.666 -4.82223 3.68166 0
M  V30 8301 H 840.405 -4.09785 2.64438 0
M  V30 8302 H 839.41 -2.94708 4.64141 0
M  V30 8303 H 840.635 -3.70301 5.69258 0
M  V30 8304 H 838.581 -5.1901 4.01204 0
M  V30 8305 H 838.498 -4.93775 5.72471 0
M  V30 8306 H 839.766 -5.92629 5.06371 0
M  V30 8307 N 843.995 -1.47404 -0.557645 0
M  V30 8308 C 844.942 -1.59859 -1.66475 0
M  V30 8309 C 845.912 -0.441644 -1.60121 0
M  V30 8310 O 847.097 -0.661641 -1.78961 0
M  V30 8311 C 844.237 -1.61843 -3.04797 0
M  V30 8312 C 843.35 -2.8845 -3.2159 0
M  V30 8313 C 842.485 -2.81773 -4.50308 0
M  V30 8314 C 841.524 -4.03208 -4.60532 0
M  V30 8315 N 840.661 -3.94769 -5.80604 0
M  V30 8316 H 845.501 -2.54415 -1.55168 0
M  V30 8317 H 843.038 -1.26194 -0.755876 0
M  V30 8318 H 844.996 -1.60976 -3.84893 0
M  V30 8319 H 843.626 -0.707997 -3.1494 0
M  V30 8320 H 842.678 -2.99186 -2.34929 0
M  V30 8321 H 843.99 -3.78379 -3.25009 0
M  V30 8322 H 843.144 -2.79153 -5.38663 0
M  V30 8323 H 841.883 -1.89527 -4.49367 0
M  V30 8324 H 840.888 -4.06133 -3.70589 0
M  V30 8325 H 842.113 -4.9658 -4.63233 0
M  V30 8326 H 840.059 -3.05326 -5.80613 0
M  V30 8327 H 839.976 -4.78375 -5.854 0
M  V30 8328 H 841.244 -3.96165 -6.71322 0
M  V30 8329 N 845.473 0.80434 -1.35529 0
M  V30 8330 C 846.436 1.89788 -1.28503 0
M  V30 8331 C 847.436 1.59601 -0.195983 0
M  V30 8332 O 848.626 1.68292 -0.449827 0
M  V30 8333 C 845.758 3.26255 -0.98847 0
M  V30 8334 H 846.951 1.97436 -2.25741 0
M  V30 8335 H 844.504 1.00046 -1.20086 0
M  V30 8336 H 845.239 3.24294 -0.0200541 0
M  V30 8337 H 845.024 3.49551 -1.77641 0
M  V30 8338 H 846.514 4.06298 -0.964975 0
M  V30 8339 N 846.951 1.19563 1.02676 0
M  V30 8340 C 847.914 0.937182 2.09164 0
M  V30 8341 C 848.914 -0.0831927 1.60585 0
M  V30 8342 O 850.104 0.15178 1.73538 0
M  V30 8343 C 847.236 0.408912 3.38439 0
M  V30 8344 H 848.429 1.88164 2.33526 0
M  V30 8345 H 845.982 1.00959 1.19319 0
M  V30 8346 H 846.717 -0.541497 3.19747 0
M  V30 8347 H 846.502 1.14464 3.7502 0
M  V30 8348 H 847.992 0.247242 4.16867 0
M  V30 8349 N 848.429 -1.21819 0.999893 0
M  V30 8350 C 849.675 -1.91035 0.680701 0
M  V30 8351 C 850.008 -1.77582 -0.786021 0
M  V30 8352 O 849.283 -1.14917 -1.56921 0
M  V30 8353 C 849.566 -3.43013 1.0961 0
M  V30 8354 C 849.419 -3.65481 2.6219 0
M  V30 8355 C 850.738 -4.35204 0.654616 0
M  V30 8356 H 847.857 -0.693748 0.248763 0
M  V30 8357 H 850.499 -1.43555 1.24466 0
M  V30 8358 H 848.649 -3.83581 0.616253 0
M  V30 8359 H 850.321 -3.34273 3.17899 0
M  V30 8360 H 848.564 -3.09522 3.03938 0
M  V30 8361 H 849.235 -4.71945 2.86307 0
M  V30 8362 H 851.711 -4.0219 1.06688 0
M  V30 8363 H 850.587 -5.40198 0.973492 0
M  V30 8364 H 850.848 -4.3986 -0.444458 0
M  V30 8365 N 849.908 -0.773975 -1.37286 0
M  V30 8366 C 851.154 -0.339809 -1.99933 0
M  V30 8367 C 851.487 1.0815 -1.61299 0
M  V30 8368 O 850.762 1.74442 -0.860252 0
M  V30 8369 C 851.045 -0.485919 -3.56806 0
M  V30 8370 C 850.898 -1.9498 -4.05343 0
M  V30 8371 C 852.217 0.108461 -4.39966 0
M  V30 8372 H 849.336 -0.124944 -0.726332 0
M  V30 8373 H 851.978 -0.977433 -1.6293 0
M  V30 8374 H 850.128 0.0569023 -3.88458 0
M  V30 8375 H 851.8 -2.5525 -3.84246 0
M  V30 8376 H 850.043 -2.45784 -3.57453 0
M  V30 8377 H 850.714 -2.00308 -5.14374 0
M  V30 8378 H 853.19 -0.354722 -4.14585 0
M  V30 8379 H 852.066 -0.0238926 -5.48895 0
M  V30 8380 H 852.327 1.19901 -4.25531 0
M  V30 8381 N 851.386 1.48609 -0.524698 0
M  V30 8382 C 852.632 2.02797 0.0113382 0
M  V30 8383 C 852.965 1.40147 1.34433 0
M  V30 8384 O 852.24 0.545368 1.86698 0
M  V30 8385 C 852.523 3.59832 0.138931 0
M  V30 8386 C 852.376 4.32971 -1.21886 0
M  V30 8387 C 853.695 4.3145 0.868265 0
M  V30 8388 H 850.814 0.736995 0.00264645 0
M  V30 8389 H 853.456 1.77388 -0.680704 0
M  V30 8390 H 851.606 3.81612 0.72834 0
M  V30 8391 H 853.278 4.22624 -1.84897 0
M  V30 8392 H 851.521 3.94597 -1.80211 0
M  V30 8393 H 852.192 5.41279 -1.08263 0
M  V30 8394 H 854.668 4.14468 0.368145 0
M  V30 8395 H 853.544 5.41025 0.926428 0
M  V30 8396 H 853.805 3.98358 1.91737 0
M  V30 8397 N 852.864 0.259585 1.55447 0
M  V30 8398 C 854.089 -0.368317 2.04103 0
M  V30 8399 C 854.514 -1.49827 1.13725 0
M  V30 8400 O 853.872 -1.80814 0.132705 0
M  V30 8401 C 853.92 -0.841506 3.50644 0
M  V30 8402 O 853.024 -1.95008 3.63381 0
M  V30 8403 H 852.365 -0.0785227 0.659341 0
M  V30 8404 H 854.895 0.389349 2.00861 0
M  V30 8405 H 854.905 -1.14138 3.9171 0
M  V30 8406 H 853.58 -0.0147001 4.15897 0
M  V30 8407 H 852.157 -1.65393 3.34215 0
M  V30 8408 N 854.342 -1.57594 -0.0133615 0
M  V30 8409 C 855.289 -2.07574 -1.00905 0
M  V30 8410 C 856.259 -0.968231 -1.34961 0
M  V30 8411 O 857.444 -1.23981 -1.45028 0
M  V30 8412 C 854.584 -2.5728 -2.30002 0
M  V30 8413 C 853.697 -3.81881 -2.01967 0
M  V30 8414 C 852.832 -4.20139 -3.25049 0
M  V30 8415 C 851.871 -5.37614 -2.92639 0
M  V30 8416 N 851.008 -5.71229 -4.08218 0
M  V30 8417 H 855.848 -2.92382 -0.575899 0
M  V30 8418 H 853.385 -1.4455 -0.272722 0
M  V30 8419 H 855.343 -2.84171 -3.05454 0
M  V30 8420 H 853.973 -1.75365 -2.71011 0
M  V30 8421 H 853.025 -3.61979 -1.16942 0
M  V30 8422 H 854.337 -4.67441 -1.74069 0
M  V30 8423 H 853.491 -4.48242 -4.08857 0
M  V30 8424 H 852.23 -3.33262 -3.56073 0
M  V30 8425 H 851.235 -5.09248 -2.07235 0
M  V30 8426 H 852.46 -6.26157 -2.62876 0
M  V30 8427 H 850.406 -4.8731 -4.39164 0
M  V30 8428 H 850.323 -6.51333 -3.83799 0
M  V30 8429 H 851.591 -6.03917 -4.92854 0
M  V30 8430 N 855.82 0.285905 -1.54985 0
M  V30 8431 C 857.045 1.04207 -1.7932 0
M  V30 8432 C 857.47 1.79622 -0.558343 0
M  V30 8433 O 856.828 1.74506 0.491661 0
M  V30 8434 C 856.876 1.98648 -3.0095 0
M  V30 8435 O 855.98 3.07207 -2.75132 0
M  V30 8436 H 855.321 0.298596 -0.593074 0
M  V30 8437 H 857.851 0.318736 -2.02102 0
M  V30 8438 H 857.861 2.4084 -3.29333 0
M  V30 8439 H 856.536 1.43167 -3.90482 0
M  V30 8440 H 855.113 2.69423 -2.57809 0
M  V30 8441 N 857.298 1.47698 0.54982 0
M  V30 8442 C 858.546 1.54397 1.30407 0
M  V30 8443 C 858.867 0.211026 1.93855 0
M  V30 8444 O 858.137 -0.765701 1.80316 0
M  V30 8445 H 856.717 0.568747 0.484289 0
M  V30 8446 H 859.379 1.84042 0.641444 0
M  V30 8447 H 858.475 2.31449 2.09375 0
M  V30 8448 N 858.776 -0.797141 1.35954 0
M  V30 8449 C 860.001 -1.59097 1.33053 0
M  V30 8450 C 860.426 -1.87897 -0.0874592 0
M  V30 8451 O 859.784 -1.47291 -1.05712 0
M  V30 8452 C 859.832 -2.89346 2.152 0
M  V30 8453 O 858.936 -3.826 1.5392 0
M  V30 8454 H 858.277 -0.482895 0.45575 0
M  V30 8455 H 860.807 -0.988633 1.79129 0
M  V30 8456 H 860.817 -3.38686 2.27499 0
M  V30 8457 H 859.492 -2.6771 3.18283 0
M  V30 8458 H 858.069 -3.41174 1.50516 0
M  V30 8459 N 860.254 -1.20106 -1.0204 0
M  V30 8460 C 861.184 -0.970301 -2.12385 0
M  V30 8461 C 862.165 0.099378 -1.69809 0
M  V30 8462 O 863.35 -0.057365 -1.94115 0
M  V30 8463 C 860.48 -0.517431 -3.43424 0
M  V30 8464 C 859.434 -1.52992 -3.99722 0
M  V30 8465 C 858.76 -0.933817 -5.26483 0
M  V30 8466 C 860.06 -2.91257 -4.33551 0
M  V30 8467 H 861.754 -1.89316 -2.31948 0
M  V30 8468 H 859.3 -0.911655 -1.11467 0
M  V30 8469 H 861.253 -0.343243 -4.2 0
M  V30 8470 H 859.977 0.441049 -3.23608 0
M  V30 8471 H 858.636 -1.6914 -3.2525 0
M  V30 8472 H 858.284 0.0324763 -5.0299 0
M  V30 8473 H 857.984 -1.60999 -5.65113 0
M  V30 8474 H 859.508 -0.770614 -6.05718 0
M  V30 8475 H 860.922 -2.78642 -5.0103 0
M  V30 8476 H 859.319 -3.55745 -4.83286 0
M  V30 8477 H 860.389 -3.43269 -3.42483 0
M  V30 8478 N 861.732 1.21287 -1.00634 0
M  V30 8479 C 862.679 2.23705 -0.567876 0
M  V30 8480 C 863.649 1.61043 0.406753 0
M  V30 8481 O 864.834 1.88289 0.308499 0
M  V30 8482 C 861.974 3.44961 0.097996 0
M  V30 8483 C 861.087 4.22091 -0.919972 0
M  V30 8484 C 860.222 5.30718 -0.226222 0
M  V30 8485 C 859.261 5.99581 -1.23165 0
M  V30 8486 N 858.398 6.99821 -0.565278 0
M  V30 8487 H 863.238 2.60571 -1.44592 0
M  V30 8488 H 860.775 1.28049 -0.724006 0
M  V30 8489 H 862.733 4.1418 0.501097 0
M  V30 8490 H 861.363 3.08818 0.939744 0
M  V30 8491 H 860.415 3.52038 -1.44131 0
M  V30 8492 H 861.727 4.69476 -1.68505 0
M  V30 8493 H 860.881 6.06253 0.232917 0
M  V30 8494 H 859.62 4.84343 0.571247 0
M  V30 8495 H 858.625 5.22816 -1.70128 0
M  V30 8496 H 859.85 6.48042 -2.03022 0
M  V30 8497 H 857.796 6.55656 0.212508 0
M  V30 8498 H 857.713 7.4528 -1.26858 0
M  V30 8499 H 858.981 7.79393 -0.129389 0
M  V30 8500 N 863.21 0.781244 1.36873 0
M  V30 8501 C 864.157 0.172146 2.30157 0
M  V30 8502 C 865.127 -0.679328 1.51573 0
M  V30 8503 O 866.312 -0.629713 1.80109 0
M  V30 8504 C 863.452 -0.693534 3.38059 0
M  V30 8505 C 862.565 0.175586 4.31643 0
M  V30 8506 C 861.7 -0.695695 5.26625 0
M  V30 8507 C 860.739 0.17538 6.11849 0
M  V30 8508 N 859.876 -0.654416 6.99043 0
M  V30 8509 H 864.716 0.973133 2.81663 0
M  V30 8510 H 862.253 0.491469 1.38647 0
M  V30 8511 H 864.211 -1.21035 3.99257 0
M  V30 8512 H 862.841 -1.46003 2.87894 0
M  V30 8513 H 861.893 0.810295 3.7167 0
M  V30 8514 H 863.205 0.847107 4.91554 0
M  V30 8515 H 862.359 -1.27863 5.93073 0
M  V30 8516 H 861.098 -1.40087 4.67148 0
M  V30 8517 H 860.103 0.77078 5.4437 0
M  V30 8518 H 861.328 0.87803 6.734 0
M  V30 8519 H 859.274 -1.34403 6.42084 0
M  V30 8520 H 859.191 -0.0403998 7.55989 0
M  V30 8521 H 860.459 -1.22144 7.69871 0
M  V30 8522 N 864.689 -1.48329 0.532571 0
M  V30 8523 C 866.105 -1.58458 0.190605 0
M  V30 8524 C 866.305 -1.53427 -1.30623 0
M  V30 8525 O 865.361 -1.4247 -2.08467 0
M  V30 8526 C 866.674 -2.89989 0.79543 0
M  V30 8527 C 868.222 -3.03523 0.7644 0
M  V30 8528 C 868.697 -4.37718 1.34785 0
M  V30 8529 N 870.188 -4.44292 1.30993 0
M  V30 8530 C 870.923 -5.4664 1.73124 0
M  V30 8531 N 870.419 -6.5593 2.22997 0
M  V30 8532 N 872.212 -5.37538 1.64346 0
M  V30 8533 H 864.363 -1.49842 1.50537 0
M  V30 8534 H 866.626 -0.71164 0.626316 0
M  V30 8535 H 866.332 -2.99333 1.84642 0
M  V30 8536 H 866.206 -3.76203 0.27403 0
M  V30 8537 H 868.593 -2.93789 -0.277831 0
M  V30 8538 H 868.674 -2.18912 1.3233 0
M  V30 8539 H 868.318 -4.48206 2.38902 0
M  V30 8540 H 868.248 -5.21019 0.764609 0
M  V30 8541 H 870.739 -3.65897 0.944868 0
M  V30 8542 H 871.052 -7.30167 2.53133 0
M  V30 8543 H 869.397 -6.56886 2.26992 0
M  V30 8544 H 872.588 -4.51052 1.25178 0
M  V30 8545 H 872.761 -6.17169 1.97501 0
M  V30 8546 N 866.167 -0.267825 -1.55308 0
M  V30 8547 C 867.114 0.6228 -2.22238 0
M  V30 8548 C 868.084 1.15536 -1.19334 0
M  V30 8549 O 869.269 1.206 -1.47852 0
M  V30 8550 C 866.409 1.80447 -2.94164 0
M  V30 8551 C 865.522 1.30646 -4.11771 0
M  V30 8552 C 864.657 2.44935 -4.7136 0
M  V30 8553 C 863.696 1.92099 -5.81175 0
M  V30 8554 N 862.833 2.99834 -6.34857 0
M  V30 8555 H 867.673 0.0453874 -2.97965 0
M  V30 8556 H 865.21 0.0106371 -1.47096 0
M  V30 8557 H 867.168 2.49896 -3.34078 0
M  V30 8558 H 865.798 2.35403 -2.20874 0
M  V30 8559 H 864.85 0.505314 -3.77029 0
M  V30 8560 H 866.162 0.879409 -4.90987 0
M  V30 8561 H 865.316 3.2239 -5.13955 0
M  V30 8562 H 864.055 2.90951 -3.91406 0
M  V30 8563 H 863.06 1.13122 -5.38037 0
M  V30 8564 H 864.285 1.47027 -6.62993 0
M  V30 8565 H 862.231 3.45246 -5.578 0
M  V30 8566 H 862.148 2.61524 -7.09324 0
M  V30 8567 H 863.416 3.77286 -6.82111 0
M  V30 8568 N 867.645 1.57599 0.00500368 0
M  V30 8569 C 868.577 2.04949 1.02609 0
M  V30 8570 C 869.59 0.966507 1.31006 0
M  V30 8571 O 870.779 1.2434 1.2807 0
M  V30 8572 C 867.879 2.43023 2.36206 0
M  V30 8573 C 867.052 3.73993 2.26821 0
M  V30 8574 C 866.111 3.9899 3.43065 0
M  V30 8575 O 865.137 4.69725 3.21477 0
M  V30 8576 N 866.339 3.46496 4.65748 0
M  V30 8577 H 869.104 2.93167 0.622336 0
M  V30 8578 H 866.665 1.60752 0.192488 0
M  V30 8579 H 868.657 2.56863 3.12735 0
M  V30 8580 H 867.227 1.60349 2.68341 0
M  V30 8581 H 866.447 3.70277 1.35235 0
M  V30 8582 H 867.735 4.59865 2.17719 0
M  V30 8583 H 867.133 2.89206 4.86186 0
M  V30 8584 H 865.69 3.65675 5.3956 0
M  V30 8585 N 869.123 -0.277682 1.55134 0
M  V30 8586 C 870.071 -1.36305 1.88478 0
M  V30 8587 C 871.065 -1.51362 0.760654 0
M  V30 8588 O 872.271 -1.53202 0.944943 0
M  V30 8589 H 868.646 -0.45577 0.598146 0
M  V30 8590 H 870.617 -1.05431 2.79154 0
M  V30 8591 C 869.366 -2.71739 2.16918 0
M  V30 8592 H 868.689 -2.60942 3.02901 0
M  V30 8593 H 870.129 -3.46635 2.44172 0
M  V30 8594 C 868.588 -3.22476 0.975239 0
M  V30 8595 O 869.118 -4.01164 0.207497 0
M  V30 8596 N 867.324 -2.80097 0.774219 0
M  V30 8597 H 866.871 -2.16221 1.40022 0
M  V30 8598 H 866.829 -3.14392 -0.023021 0
M  V30 8599 N 870.601 -1.47988 -0.541979 0
M  V30 8600 C 871.511 -1.64276 -1.67483 0
M  V30 8601 C 872.527 -0.525387 -1.65879 0
M  V30 8602 O 873.703 -0.794912 -1.85049 0
M  V30 8603 C 870.768 -1.66744 -3.03969 0
M  V30 8604 C 869.829 -2.90021 -3.16522 0
M  V30 8605 C 869.062 -2.92362 -4.46498 0
M  V30 8606 O 869.285 -2.03462 -5.32878 0
M  V30 8607 O 868.219 -3.84399 -4.63164 0
M  V30 8608 H 872.045 -2.60164 -1.5668 0
M  V30 8609 H 869.63 -1.31249 -0.71372 0
M  V30 8610 H 871.512 -1.70958 -3.85164 0
M  V30 8611 H 870.187 -0.740277 -3.15122 0
M  V30 8612 H 869.094 -2.91345 -2.34667 0
M  V30 8613 H 870.427 -3.82082 -3.10281 0
M  V30 8614 N 872.079 0.78992 -1.36375 0
M  V30 8615 C 873.042 1.88414 -1.30509 0
M  V30 8616 C 874.042 1.59384 -0.2129 0
M  V30 8617 O 875.232 1.67805 -0.467651 0
M  V30 8618 C 872.364 3.25188 -1.02302 0
M  V30 8619 H 873.557 1.95031 -2.27822 0
M  V30 8620 H 871.11 0.987664 -1.2114 0
M  V30 8621 H 871.845 3.24254 -0.0544486 0
M  V30 8622 H 871.63 3.47647 -1.81338 0
M  V30 8623 H 873.12 4.05252 -1.00801 0
M  V30 8624 N 873.557 1.20646 1.01402 0
M  V30 8625 C 874.52 0.959314 2.08158 0
M  V30 8626 C 875.52 -0.0661558 1.60664 0
M  V30 8627 O 876.71 0.170177 1.73367 0
M  V30 8628 C 873.842 0.444785 3.37986 0
M  V30 8629 H 875.035 1.90631 2.31517 0
M  V30 8630 H 872.588 1.02219 1.18241 0
M  V30 8631 H 873.323 -0.507553 3.20304 0
M  V30 8632 H 873.108 1.18435 3.73785 0
M  V30 8633 H 874.598 0.291443 4.16582 0
M  V30 8634 N 875.035 -1.20752 1.01276 0
M  V30 8635 C 875.982 -2.234 0.579732 0
M  V30 8636 C 876.952 -1.61256 -0.398206 0
M  V30 8637 O 878.137 -1.8845 -0.29851 0
M  V30 8638 C 875.277 -3.45008 -0.0797006 0
M  V30 8639 C 874.39 -4.21597 0.942343 0
M  V30 8640 C 873.525 -5.30591 0.254364 0
M  V30 8641 C 872.564 -5.98919 1.26343 0
M  V30 8642 N 871.701 -6.99511 0.602384 0
M  V30 8643 H 876.541 -2.59801 1.45971 0
M  V30 8644 H 874.078 -1.27663 0.730787 0
M  V30 8645 H 876.036 -4.1444 -0.479125 0
M  V30 8646 H 874.666 -3.09312 -0.923354 0
M  V30 8647 H 873.718 -3.51268 1.45996 0
M  V30 8648 H 875.03 -4.68576 1.70992 0
M  V30 8649 H 874.184 -6.06368 -0.200763 0
M  V30 8650 H 872.923 -4.84639 -0.545553 0
M  V30 8651 H 871.928 -5.21906 1.72898 0
M  V30 8652 H 873.153 -6.46957 2.06456 0
M  V30 8653 H 871.099 -6.55759 -0.177734 0
M  V30 8654 H 871.016 -7.44597 1.30809 0
M  V30 8655 H 872.284 -7.79313 0.17072 0
M  V30 8656 N 876.513 -0.788492 -1.36457 0
M  V30 8657 C 877.423 -0.187385 -2.3385 0
M  V30 8658 C 878.439 0.659984 -1.60998 0
M  V30 8659 O 879.615 0.575986 -1.92988 0
M  V30 8660 C 876.68 0.668525 -3.40194 0
M  V30 8661 C 875.741 -0.197234 -4.28847 0
M  V30 8662 C 874.974 0.61792 -5.30111 0
M  V30 8663 O 875.197 1.85396 -5.3943 0
M  V30 8664 O 874.131 0.0183016 -6.01897 0
M  V30 8665 H 877.957 -0.992617 -2.87021 0
M  V30 8666 H 875.542 -0.549934 -1.3891 0
M  V30 8667 H 877.424 1.15663 -4.05216 0
M  V30 8668 H 876.099 1.45166 -2.89324 0
M  V30 8669 H 875.006 -0.73207 -3.66867 0
M  V30 8670 H 876.339 -0.943863 -4.83065 0
M  V30 8671 N 877.991 1.48044 -0.54043 0
M  V30 8672 C 878.954 2.28273 0.205966 0
M  V30 8673 C 879.954 1.35983 0.858209 0
M  V30 8674 O 881.144 1.58776 0.716651 0
M  V30 8675 C 878.276 3.15174 1.29917 0
M  V30 8676 H 879.469 2.95727 -0.498555 0
M  V30 8677 H 877.022 1.53457 -0.296745 0
M  V30 8678 H 877.757 2.52374 2.03661 0
M  V30 8679 H 877.542 3.83074 0.836475 0
M  V30 8680 H 879.032 3.75666 1.82387 0
M  V30 8681 N 879.47 0.276058 1.55163 0
M  V30 8682 C 880.38 -0.621066 2.2623 0
M  V30 8683 C 881.396 -1.16931 1.28853 0
M  V30 8684 O 882.572 -1.1994 1.61791 0
M  V30 8685 C 879.637 -1.78824 2.97023 0
M  V30 8686 C 878.698 -1.27657 4.09881 0
M  V30 8687 C 877.931 -2.38812 4.77289 0
M  V30 8688 O 878.154 -3.58188 4.43912 0
M  V30 8689 O 877.088 -2.06915 5.65217 0
M  V30 8690 H 880.914 -0.0453346 3.03666 0
M  V30 8691 H 878.499 0.0434275 1.49337 0
M  V30 8692 H 880.381 -2.46877 3.41511 0
M  V30 8693 H 879.056 -2.35104 2.22503 0
M  V30 8694 H 877.963 -0.56248 3.69847 0
M  V30 8695 H 879.296 -0.759509 4.86305 0
M  V30 8696 N 880.948 -1.576 0.00335426 0
M  V30 8697 C 882.176 -1.94996 -0.691685 0
M  V30 8698 C 882.591 -0.878405 -1.67121 0
M  V30 8699 O 881.948 0.142343 -1.81944 0
M  V30 8700 C 881.999 -3.32416 -1.42063 0
M  V30 8701 O 881.72 -4.35458 -0.48038 0
M  V30 8702 C 883.221 -3.84291 -2.20987 0
M  V30 8703 H 880.441 -0.642814 -0.192434 0
M  V30 8704 H 882.985 -2.04425 0.0554706 0
M  V30 8705 H 881.14 -3.24285 -2.11939 0
M  V30 8706 H 881.554 -5.14975 -0.995054 0
M  V30 8707 H 883.028 -4.82863 -2.67483 0
M  V30 8708 H 883.505 -3.17174 -3.03805 0
M  V30 8709 H 884.111 -3.95609 -1.56121 0
M  V30 8710 N 882.426 0.269451 -1.5528 0
M  V30 8711 C 883.837 0.840233 -1.66724 0
M  V30 8712 C 884.188 1.86909 -0.596621 0
M  V30 8713 O 883.313 2.14817 0.261246 0
M  V30 8714 C 883.908 1.5308 -3.02245 0
M  V30 8715 C 882.467 2.04957 -3.15705 0
M  V30 8716 C 881.614 0.892838 -2.62533 0
M  V30 8717 H 884.565 0.0457236 -1.58634 0
M  V30 8718 H 884.586 2.39792 -2.95432 0
M  V30 8719 H 884.098 0.781741 -3.80145 0
M  V30 8720 H 882.199 2.82813 -2.42585 0
M  V30 8721 H 882.312 2.26244 -4.22316 0
M  V30 8722 H 880.676 1.28719 -2.19781 0
M  V30 8723 H 881.459 0.157229 -3.4294 0
M  V30 8724 N 883.904 1.48273 0.534124 0
M  V30 8725 C 884.836 1.5857 1.65494 0
M  V30 8726 C 885.849 0.470266 1.5586 0
M  V30 8727 O 887.038 0.740928 1.62396 0
M  V30 8728 C 884.138 1.49554 3.04117 0
M  V30 8729 C 883.311 2.76066 3.39273 0
M  V30 8730 C 882.37 2.60562 4.57159 0
M  V30 8731 O 881.396 3.34438 4.60587 0
M  V30 8732 N 882.598 1.69906 5.55079 0
M  V30 8733 H 885.363 2.55226 1.57099 0
M  V30 8734 H 882.924 1.44944 0.721303 0
M  V30 8735 H 884.916 1.36882 3.80848 0
M  V30 8736 H 883.486 0.608895 3.06613 0
M  V30 8737 H 882.706 3.03332 2.51761 0
M  V30 8738 H 883.994 3.60006 3.59546 0
M  V30 8739 H 883.392 1.09079 5.55084 0
M  V30 8740 H 881.949 1.63175 6.31044 0
M  V30 8741 N 885.382 -0.782676 1.36792 0
M  V30 8742 C 886.345 -1.8772 1.31507 0
M  V30 8743 C 887.345 -1.59269 0.221349 0
M  V30 8744 O 888.535 -1.67555 0.476544 0
M  V30 8745 C 885.667 -3.24641 1.04025 0
M  V30 8746 H 886.86 -1.9382 2.28853 0
M  V30 8747 H 884.413 -0.981226 1.21662 0
M  V30 8748 H 885.148 -3.24221 0.0716439 0
M  V30 8749 H 884.933 -3.46681 1.8318 0
M  V30 8750 H 886.423 -4.04711 1.02949 0
M  V30 8751 N 886.86 -1.21182 -1.00761 0
M  V30 8752 C 887.807 -0.968741 -2.09485 0
M  V30 8753 C 888.777 0.104325 -1.65772 0
M  V30 8754 O 889.962 -0.0422587 -1.90753 0
M  V30 8755 C 887.102 -0.536686 -3.40901 0
M  V30 8756 C 886.215 -1.6789 -3.98041 0
M  V30 8757 C 885.35 -1.19627 -5.17555 0
M  V30 8758 C 884.389 -2.31099 -5.66798 0
M  V30 8759 N 883.526 -1.83988 -6.77564 0
M  V30 8760 H 888.366 -1.89952 -2.29613 0
M  V30 8761 H 885.903 -0.946688 -1.12589 0
M  V30 8762 H 887.861 -0.26745 -4.16342 0
M  V30 8763 H 886.491 0.357092 -3.20819 0
M  V30 8764 H 885.543 -2.06284 -3.19611 0
M  V30 8765 H 886.855 -2.51794 -4.30582 0
M  V30 8766 H 886.009 -0.883539 -6.00232 0
M  V30 8767 H 884.748 -0.327244 -4.86601 0
M  V30 8768 H 883.753 -2.63178 -4.82719 0
M  V30 8769 H 884.978 -3.18493 -5.99782 0
M  V30 8770 H 882.924 -0.994257 -6.48422 0
M  V30 8771 H 882.841 -2.61466 -7.09346 0
M  V30 8772 H 884.109 -1.55741 -7.63783 0
M  V30 8773 N 888.338 1.20213 -1.01915 0
M  V30 8774 C 889.285 2.2309 -0.591571 0
M  V30 8775 C 890.255 1.61465 0.389649 0
M  V30 8776 O 891.44 1.88606 0.288511 0
M  V30 8777 C 888.58 3.45045 0.0614028 0
M  V30 8778 C 887.693 4.21091 -0.964688 0
M  V30 8779 C 886.828 5.30448 -0.282499 0
M  V30 8780 C 885.867 5.98241 -1.29517 0
M  V30 8781 N 885.004 6.99182 -0.639472 0
M  V30 8782 H 889.844 2.59023 -1.47347 0
M  V30 8783 H 887.381 1.27274 -0.737547 0
M  V30 8784 H 889.339 4.14688 0.45714 0
M  V30 8785 H 887.969 3.09797 0.906937 0
M  V30 8786 H 887.021 3.50489 -1.47857 0
M  V30 8787 H 888.333 4.67662 -1.73475 0
M  V30 8788 H 887.487 6.06466 0.168603 0
M  V30 8789 H 886.226 4.84922 0.519843 0
M  V30 8790 H 885.231 5.20982 -1.75663 0
M  V30 8791 H 886.456 6.45853 -2.09884 0
M  V30 8792 H 884.402 6.55844 0.142955 0
M  V30 8793 H 884.319 7.43893 -1.34756 0
M  V30 8794 H 885.587 7.79212 -0.212047 0
M  V30 8795 N 889.816 0.795718 1.36037 0
M  V30 8796 C 891.065 0.367575 1.98322 0
M  V30 8797 C 891.378 -1.06823 1.63854 0
M  V30 8798 O 892.584 -1.59895 2.19421 0
M  V30 8799 C 891.04 0.606272 3.54757 0
M  V30 8800 C 890.648 2.0539 3.98144 0
M  V30 8801 C 892.392 0.242947 4.23804 0
M  V30 8802 C 890.299 2.23893 5.47381 0
M  V30 8803 H 889.229 0.133699 0.742052 0
M  V30 8804 H 891.88 0.978242 1.5525 0
M  V30 8805 H 890.262 -0.0741957 3.9593 0
M  V30 8806 H 891.436 2.77129 3.68152 0
M  V30 8807 H 889.751 2.37607 3.41953 0
M  V30 8808 H 892.348 0.359382 5.33491 0
M  V30 8809 H 892.691 -0.809661 4.08351 0
M  V30 8810 H 893.224 0.876899 3.88015 0
M  V30 8811 H 889.963 3.27559 5.6779 0
M  V30 8812 H 889.483 1.56666 5.78978 0
M  V30 8813 H 891.162 2.04914 6.13693 0
M  V30 8814 N 891.294 -1.47756 0.548274 0
M  V30 8815 C 892.241 -2.29893 -0.204408 0
M  V30 8816 C 893.211 -1.38509 -0.916761 0
M  V30 8817 O 894.396 -1.67472 -0.91421 0
M  V30 8818 C 891.536 -3.22282 -1.23403 0
M  V30 8819 C 890.649 -4.28753 -0.528654 0
M  V30 8820 C 889.784 -5.08303 -1.54279 0
M  V30 8821 C 888.823 -6.06557 -0.821893 0
M  V30 8822 N 887.96 -6.79098 -1.78243 0
M  V30 8823 H 892.8 -2.93739 0.502163 0
M  V30 8824 H 890.337 -1.44793 0.259471 0
M  V30 8825 H 892.295 -3.74262 -1.84348 0
M  V30 8826 H 890.925 -2.6032 -1.90875 0
M  V30 8827 H 889.977 -3.79899 0.195132 0
M  V30 8828 H 891.289 -4.98787 0.0365066 0
M  V30 8829 H 890.443 -5.64388 -2.22602 0
M  V30 8830 H 889.182 -4.3815 -2.14186 0
M  V30 8831 H 888.187 -5.49659 -0.12469 0
M  V30 8832 H 889.412 -6.78715 -0.228685 0
M  V30 8833 H 887.358 -6.11682 -2.37025 0
M  V30 8834 H 887.275 -7.4527 -1.26919 0
M  V30 8835 H 888.543 -7.39762 -2.45709 0
M  V30 8836 N 892.772 -0.284283 -1.55015 0
M  V30 8837 C 893.702 0.592663 -2.25853 0
M  V30 8838 C 894.683 1.15151 -1.25197 0
M  V30 8839 O 895.868 1.18395 -1.53936 0
M  V30 8840 C 892.998 1.77254 -2.98661 0
M  V30 8841 C 891.952 1.34482 -4.06323 0
M  V30 8842 C 891.278 2.60853 -4.66754 0
M  V30 8843 C 892.578 0.488288 -5.20013 0
M  V30 8844 H 894.272 0.00187041 -2.994 0
M  V30 8845 H 891.818 -0.000540402 -1.44 0
M  V30 8846 H 893.771 2.39199 -3.46932 0
M  V30 8847 H 892.495 2.38931 -2.22664 0
M  V30 8848 H 891.154 0.748519 -3.58877 0
M  V30 8849 H 890.802 3.20808 -3.87416 0
M  V30 8850 H 890.502 2.32942 -5.39455 0
M  V30 8851 H 892.026 3.23631 -5.1778 0
M  V30 8852 H 893.44 1.01298 -5.6428 0
M  V30 8853 H 891.837 0.303669 -5.99331 0
M  V30 8854 H 892.907 -0.490727 -4.8241 0
M  V30 8855 N 894.251 1.57596 -0.0117121 0
M  V30 8856 C 895.183 2.06025 1.0043 0
M  V30 8857 C 896.196 0.980348 1.29973 0
M  V30 8858 O 897.385 1.25691 1.26744 0
M  V30 8859 C 894.485 2.45514 2.33615 0
M  V30 8860 C 893.658 3.76378 2.22842 0
M  V30 8861 C 892.717 4.02606 3.38814 0
M  V30 8862 O 891.743 4.73108 3.16477 0
M  V30 8863 N 892.945 3.51416 4.62047 0
M  V30 8864 H 895.71 2.93811 0.591206 0
M  V30 8865 H 893.271 1.60947 0.175427 0
M  V30 8866 H 895.263 2.60166 3.09993 0
M  V30 8867 H 893.833 1.63186 2.66625 0
M  V30 8868 H 893.053 3.71691 1.313 0
M  V30 8869 H 894.341 4.62149 2.12829 0
M  V30 8870 H 893.739 2.94346 4.83091 0
M  V30 8871 H 892.296 3.71377 5.35651 0
M  V30 8872 N 895.729 -0.261212 1.5542 0
M  V30 8873 C 896.957 -1.00916 1.8062 0
M  V30 8874 C 897.372 -1.79494 0.585444 0
M  V30 8875 O 896.729 -1.76974 -0.445702 0
M  V30 8876 C 896.78 -1.95841 3.03856 0
M  V30 8877 O 896.501 -1.20445 4.21218 0
M  V30 8878 C 898.002 -2.82352 3.41749 0
M  V30 8879 H 895.222 -0.297596 0.601397 0
M  V30 8880 H 897.766 -0.288427 2.02456 0
M  V30 8881 H 895.921 -2.63361 2.84112 0
M  V30 8882 H 896.335 -1.84528 4.90968 0
M  V30 8883 H 897.809 -3.44733 4.31118 0
M  V30 8884 H 898.286 -3.5273 2.61683 0
M  V30 8885 H 898.892 -2.20306 3.63793 0
M  V30 8886 N 897.207 -1.48554 -0.526253 0
M  V30 8887 C 898.618 -1.50256 -1.10815 0
M  V30 8888 C 898.969 -0.274445 -1.94271 0
M  V30 8889 O 898.094 0.618094 -2.07385 0
M  V30 8890 C 898.689 -2.72264 -2.01638 0
M  V30 8891 C 897.248 -2.76826 -2.55038 0
M  V30 8892 C 896.395 -2.43823 -1.32081 0
M  V30 8893 H 899.346 -1.55616 -0.31133 0
M  V30 8894 H 899.367 -2.50993 -2.85977 0
M  V30 8895 H 898.879 -3.61632 -1.4087 0
M  V30 8896 H 896.98 -1.91676 -3.19517 0
M  V30 8897 H 897.093 -3.78351 -2.93917 0
M  V30 8898 H 895.457 -1.95058 -1.63781 0
M  V30 8899 H 896.24 -3.35436 -0.730596 0
M  V30 8900 N 898.685 0.775411 -1.37205 0
M  V30 8901 C 899.633 1.90996 -1.32752 0
M  V30 8902 C 900.627 1.68006 -0.216907 0
M  V30 8903 O 901.833 1.7584 -0.384723 0
M  V30 8904 H 898.208 0.62803 -0.413621 0
M  V30 8905 H 900.179 1.91869 -2.28536 0
M  V30 8906 C 898.928 3.28211 -1.14772 0
M  V30 8907 H 898.251 3.46477 -1.99484 0
M  V30 8908 H 899.691 4.07907 -1.15706 0
M  V30 8909 C 898.15 3.3658 0.146852 0
M  V30 8910 O 898.68 3.85428 1.13173 0
M  V30 8911 N 896.886 2.89936 0.196305 0
M  V30 8912 H 896.433 2.50375 -0.605807 0
M  V30 8913 H 896.391 2.95916 1.06212 0
M  V30 8914 N 900.163 1.21714 1.00117 0
M  V30 8915 C 901.391 1.06278 1.77518 0
M  V30 8916 C 901.806 -0.387193 1.84787 0
M  V30 8917 O 901.163 -1.26854 1.31203 0
M  V30 8918 C 901.214 1.65795 3.21239 0
M  V30 8919 O 900.935 3.05119 3.14378 0
M  V30 8920 C 902.436 1.55521 4.15124 0
M  V30 8921 H 899.656 0.373013 0.557765 0
M  V30 8922 H 902.2 1.61133 1.25922 0
M  V30 8923 H 900.355 1.15022 3.69931 0
M  V30 8924 H 900.769 3.33643 4.04701 0
M  V30 8925 H 902.243 2.01902 5.13751 0
M  V30 8926 H 902.72 0.510307 4.36225 0
M  V30 8927 H 903.326 2.0556 3.72324 0
M  V30 8928 N 901.641 -1.19671 1.02551 0
M  V30 8929 C 902.888 -1.89268 0.720002 0
M  V30 8930 C 903.216 -1.79411 -0.751127 0
M  V30 8931 O 902.471 -1.17859 -1.5623 0
M  V30 8932 C 902.77 -3.39647 1.11241 0
M  V30 8933 C 902.436 -3.69706 2.58125 0
M  V30 8934 C 901.098 -3.7762 2.98256 0
M  V30 8935 C 903.45 -3.83301 3.53171 0
M  V30 8936 C 900.778 -3.96594 4.32354 0
M  V30 8937 C 903.13 -4.03788 4.86968 0
M  V30 8938 C 901.794 -4.09934 5.26793 0
M  V30 8939 H 901.064 -0.692579 0.263467 0
M  V30 8940 H 903.711 -1.41738 1.28774 0
M  V30 8941 H 902.016 -3.89052 0.463234 0
M  V30 8942 H 903.713 -3.91809 0.853602 0
M  V30 8943 H 900.303 -3.64152 2.26033 0
M  V30 8944 H 904.487 -3.76534 3.2332 0
M  V30 8945 H 899.743 -3.9959 4.6275 0
M  V30 8946 H 903.917 -4.1325 5.60533 0
M  V30 8947 H 901.544 -4.24389 6.30712 0
M  V30 8948 N 903.119 -0.802921 -1.35613 0
M  V30 8949 C 904.53 -0.443004 -1.81368 0
M  V30 8950 C 904.881 1.03459 -1.66706 0
M  V30 8951 O 904.006 1.80372 -1.19561 0
M  V30 8952 C 904.601 -0.797324 -3.29284 0
M  V30 8953 C 903.16 -0.490055 -3.73196 0
M  V30 8954 C 902.307 -1.02487 -2.57666 0
M  V30 8955 H 905.258 -0.994888 -1.23643 0
M  V30 8956 H 905.279 -0.0934638 -3.80385 0
M  V30 8957 H 904.791 -1.87278 -3.39924 0
M  V30 8958 H 902.892 0.576818 -3.68108 0
M  V30 8959 H 903.005 -1.02012 -4.68114 0
M  V30 8960 H 901.369 -0.44738 -2.5074 0
M  V30 8961 H 902.152 -2.10636 -2.71085 0
M  V30 8962 N 904.597 1.47463 -0.556102 0
M  V30 8963 C 905.544 2.29998 0.192213 0
M  V30 8964 C 906.514 1.38993 0.909403 0
M  V30 8965 O 907.699 1.67954 0.905316 0
M  V30 8966 C 904.839 3.22932 1.21692 0
M  V30 8967 C 903.952 4.29027 0.505908 0
M  V30 8968 C 903.087 5.09114 1.51581 0
M  V30 8969 C 902.126 6.06984 0.789714 0
M  V30 8970 N 901.263 6.80033 1.74639 0
M  V30 8971 H 906.103 2.93468 -0.517734 0
M  V30 8972 H 903.64 1.44654 -0.267147 0
M  V30 8973 H 905.598 3.75234 1.8236 0
M  V30 8974 H 904.228 2.61329 1.89491 0
M  V30 8975 H 903.28 3.7979 -0.215276 0
M  V30 8976 H 904.592 4.9876 -0.062958 0
M  V30 8977 H 903.746 5.6556 2.19606 0
M  V30 8978 H 902.485 4.3928 2.11859 0
M  V30 8979 H 901.49 5.49717 0.0955382 0
M  V30 8980 H 902.715 6.78827 0.192688 0
M  V30 8981 H 900.661 6.12931 2.33777 0
M  V30 8982 H 900.578 7.45933 1.22965 0
M  V30 8983 H 901.846 7.41054 2.41782 0
M  V30 8984 N 906.075 0.2925 1.54862 0
M  V30 8985 C 907.491 -0.0611461 1.59483 0
M  V30 8986 C 907.691 -1.53141 1.30958 0
M  V30 8987 O 906.747 -2.28291 1.07887 0
M  V30 8988 C 908.06 0.329143 2.98893 0
M  V30 8989 C 909.608 0.2772 3.1177 0
M  V30 8990 C 910.083 0.642185 4.53475 0
M  V30 8991 N 911.574 0.594396 4.5937 0
M  V30 8992 C 912.309 0.849385 5.67074 0
M  V30 8993 N 911.805 1.1699 6.82851 0
M  V30 8994 N 913.598 0.777016 5.56704 0
M  V30 8995 H 905.749 1.25079 1.71665 0
M  V30 8996 H 908.012 0.506516 0.80134 0
M  V30 8997 H 907.718 1.35233 3.24661 0
M  V30 8998 H 907.592 -0.321442 3.75828 0
M  V30 8999 H 909.979 -0.736725 2.85756 0
M  V30 9000 H 910.06 0.962289 2.3701 0
M  V30 9001 H 909.704 1.65388 4.80218 0
M  V30 9002 H 909.634 -0.0648831 5.2656 0
M  V30 9003 H 912.125 0.357256 3.76208 0
M  V30 9004 H 912.438 1.35067 7.60905 0
M  V30 9005 H 910.783 1.20785 6.84424 0
M  V30 9006 H 913.974 0.526333 4.65132 0
M  V30 9007 H 914.147 0.979113 6.4056 0
M  V30 9008 N 907.553 -1.57587 0.0200696 0
M  V30 9009 C 908.5 -2.09667 -0.964791 0
M  V30 9010 C 909.47 -0.99664 -1.32877 0
M  V30 9011 O 910.655 -1.2703 -1.42366 0
M  V30 9012 C 907.795 -2.62101 -2.24493 0
M  V30 9013 C 906.908 -3.8608 -1.93821 0
M  V30 9014 C 906.043 -4.26939 -3.16064 0
M  V30 9015 C 905.082 -5.43701 -2.81169 0
M  V30 9016 N 904.219 -5.79759 -3.9601 0
M  V30 9017 H 909.059 -2.93538 -0.513751 0
M  V30 9018 H 906.596 -1.45096 -0.242 0
M  V30 9019 H 908.554 -2.90587 -2.99358 0
M  V30 9020 H 907.184 -1.81074 -2.6723 0
M  V30 9021 H 906.236 -3.64378 -1.09237 0
M  V30 9022 H 907.548 -4.71028 -1.64115 0
M  V30 9023 H 906.702 -4.56814 -3.99257 0
M  V30 9024 H 905.441 -3.40739 -3.48924 0
M  V30 9025 H 904.446 -5.13529 -1.96387 0
M  V30 9026 H 905.671 -6.31593 -2.49535 0
M  V30 9027 H 903.617 -4.96516 -4.28729 0
M  V30 9028 H 903.534 -6.59327 -3.69896 0
M  V30 9029 H 904.802 -6.14235 -4.79933 0
M  V30 9030 N 909.032 0.252966 -1.55557 0
M  V30 9031 C 909.979 1.3131 -1.89806 0
M  V30 9032 C 910.949 1.48121 -0.751633 0
M  V30 9033 O 912.134 1.62202 -1.00474 0
M  V30 9034 C 909.274 2.66467 -2.19293 0
M  V30 9035 C 908.387 2.57714 -3.46709 0
M  V30 9036 C 907.522 3.85184 -3.65796 0
M  V30 9037 C 906.561 3.71023 -4.86835 0
M  V30 9038 N 905.698 4.90371 -5.02474 0
M  V30 9039 H 910.538 1.01402 -2.80217 0
M  V30 9040 H 908.075 0.489462 -1.38718 0
M  V30 9041 H 910.033 3.45132 -2.34392 0
M  V30 9042 H 908.663 2.94536 -1.32093 0
M  V30 9043 H 907.715 1.70651 -3.39974 0
M  V30 9044 H 909.027 2.43158 -4.35517 0
M  V30 9045 H 908.181 4.72292 -3.80822 0
M  V30 9046 H 906.92 4.0263 -2.7521 0
M  V30 9047 H 905.925 2.82299 -4.71792 0
M  V30 9048 H 907.15 3.55078 -5.78875 0
M  V30 9049 H 905.096 5.0819 -4.14824 0
M  V30 9050 H 905.013 4.78423 -5.85361 0
M  V30 9051 H 906.281 5.78995 -5.21905 0
M  V30 9052 N 910.51 1.48831 0.518367 0
M  V30 9053 C 911.758 1.57128 1.27103 0
M  V30 9054 C 912.079 0.252098 1.93364 0
M  V30 9055 O 911.349 -0.727281 1.819 0
M  V30 9056 H 909.929 0.578891 0.472116 0
M  V30 9057 H 912.591 1.85361 0.602262 0
M  V30 9058 H 911.687 2.35838 2.04418 0
M  V30 9059 N 911.988 -0.768124 1.37614 0
M  V30 9060 C 912.898 -1.91249 1.35871 0
M  V30 9061 C 913.914 -1.7208 0.257786 0
M  V30 9062 O 915.09 -1.95253 0.493782 0
M  V30 9063 C 912.155 -3.26423 1.16829 0
M  V30 9064 C 911.216 -3.5822 2.36594 0
M  V30 9065 C 910.449 -4.86945 2.1845 0
M  V30 9066 O 910.672 -5.58258 1.17064 0
M  V30 9067 O 909.606 -5.17888 3.06718 0
M  V30 9068 H 913.432 -1.95671 2.32264 0
M  V30 9069 H 911.017 -0.911382 1.18382 0
M  V30 9070 H 912.899 -4.07269 1.08212 0
M  V30 9071 H 911.574 -3.22845 0.235123 0
M  V30 9072 H 910.481 -2.77594 2.50783 0
M  V30 9073 H 911.814 -3.66545 3.2849 0
M  V30 9074 N 913.466 -1.22244 -0.994698 0
M  V30 9075 C 914.413 -0.990906 -2.08446 0
M  V30 9076 C 915.383 0.086737 -1.65873 0
M  V30 9077 O 916.568 -0.0624882 -1.90698 0
M  V30 9078 C 913.708 -0.572813 -3.40313 0
M  V30 9079 C 912.821 -1.72103 -3.96238 0
M  V30 9080 C 911.956 -1.2511 -5.16257 0
M  V30 9081 C 910.995 -2.37098 -5.64315 0
M  V30 9082 N 910.132 -1.91164 -6.75574 0
M  V30 9083 H 914.972 -1.92377 -2.27585 0
M  V30 9084 H 912.509 -0.958576 -1.11578 0
M  V30 9085 H 914.467 -0.311594 -4.16035 0
M  V30 9086 H 913.097 0.323044 -3.21179 0
M  V30 9087 H 912.149 -2.09662 -3.17405 0
M  V30 9088 H 913.461 -2.56347 -4.27888 0
M  V30 9089 H 912.615 -0.947152 -5.99261 0
M  V30 9090 H 911.354 -0.378836 -4.86226 0
M  V30 9091 H 910.359 -2.68283 -4.799 0
M  V30 9092 H 911.584 -3.24837 -5.96371 0
M  V30 9093 H 909.53 -1.06298 -6.47331 0
M  V30 9094 H 909.447 -2.68975 -7.06533 0
M  V30 9095 H 910.715 -1.63833 -7.62088 0
M  V30 9096 N 914.944 1.19125 -1.03184 0
M  V30 9097 C 916.36 1.40909 -0.749447 0
M  V30 9098 C 916.56 1.9022 0.664729 0
M  V30 9099 O 915.616 2.08085 1.43028 0
M  V30 9100 C 916.929 2.41761 -1.78807 0
M  V30 9101 C 918.477 2.55503 -1.80796 0
M  V30 9102 C 918.952 3.59612 -2.83626 0
M  V30 9103 N 920.443 3.6711 -2.82461 0
M  V30 9104 C 921.178 4.47366 -3.5868 0
M  V30 9105 N 920.674 5.31302 -4.44623 0
M  V30 9106 N 922.467 4.42044 -3.47208 0
M  V30 9107 H 914.618 0.854399 -1.94458 0
M  V30 9108 H 916.881 0.437753 -0.840878 0
M  V30 9109 H 916.587 2.12559 -2.80199 0
M  V30 9110 H 916.461 3.40981 -1.61283 0
M  V30 9111 H 918.848 2.84027 -0.800803 0
M  V30 9112 H 918.929 1.56427 -2.02396 0
M  V30 9113 H 918.573 3.3183 -3.84515 0
M  V30 9114 H 918.503 4.58345 -2.59283 0
M  V30 9115 H 920.994 3.07166 -2.2013 0
M  V30 9116 H 921.307 5.89667 -4.99512 0
M  V30 9117 H 919.652 5.30753 -4.48694 0
M  V30 9118 H 922.843 3.75513 -2.79477 0
M  V30 9119 H 923.016 5.0435 -4.06859 0
M  V30 9120 N 916.422 0.810101 1.35185 0
M  V30 9121 C 917.385 0.22852 2.28058 0
M  V30 9122 C 918.385 -0.586168 1.49735 0
M  V30 9123 O 919.575 -0.40414 1.69447 0
M  V30 9124 C 916.707 -0.681041 3.34028 0
M  V30 9125 H 917.9 1.04768 2.81005 0
M  V30 9126 H 915.453 0.58101 1.451 0
M  V30 9127 H 916.188 -1.52375 2.86273 0
M  V30 9128 H 915.973 -0.0985276 3.91976 0
M  V30 9129 H 917.463 -1.08217 4.03335 0
M  V30 9130 N 917.9 -1.47166 0.563914 0
M  V30 9131 C 919.125 -2.0735 0.0454698 0
M  V30 9132 C 919.55 -1.41281 -1.24182 0
M  V30 9133 O 918.908 -0.490084 -1.7455 0
M  V30 9134 C 918.956 -3.60378 -0.126453 0
M  V30 9135 O 918.06 -3.94934 -1.18746 0
M  V30 9136 H 917.401 -0.661773 0.0543377 0
M  V30 9137 H 919.931 -1.89086 0.781508 0
M  V30 9138 H 919.941 -4.06593 -0.338554 0
M  V30 9139 H 918.616 -4.07862 0.81373 0
M  V30 9140 H 917.193 -3.60455 -0.955318 0
M  V30 9141 N 919.378 -0.300708 -1.54705 0
M  V30 9142 C 920.603 0.314073 -2.05008 0
M  V30 9143 C 921.028 1.46759 -1.17657 0
M  V30 9144 O 920.386 1.80398 -0.180598 0
M  V30 9145 C 920.434 0.748243 -3.52752 0
M  V30 9146 O 919.538 1.85305 -3.68424 0
M  V30 9147 H 918.879 0.0610139 -0.661191 0
M  V30 9148 H 921.409 -0.442467 -1.99758 0
M  V30 9149 H 921.419 1.03713 -3.94598 0
M  V30 9150 H 920.094 -0.095573 -4.1579 0
M  V30 9151 H 918.671 1.56473 -3.38483 0
M  V30 9152 N 920.856 1.57574 -0.0284266 0
M  V30 9153 C 922.267 1.79585 0.510502 0
M  V30 9154 C 922.618 0.938625 1.72291 0
M  V30 9155 O 921.743 0.14884 2.15888 0
M  V30 9156 C 922.338 3.25703 0.932912 0
M  V30 9157 C 920.897 3.48711 1.41696 0
M  V30 9158 C 920.044 2.74665 0.381356 0
M  V30 9159 H 922.995 1.56647 -0.254464 0
M  V30 9160 H 923.016 3.35376 1.79731 0
M  V30 9161 H 922.528 3.88067 0.0503036 0
M  V30 9162 H 920.629 2.91597 2.31952 0
M  V30 9163 H 920.742 4.57423 1.42481 0
M  V30 9164 H 919.106 2.40123 0.8493 0
M  V30 9165 H 919.889 3.39745 -0.492775 0
M  V30 9166 N 922.334 -0.244713 1.55689 0
M  V30 9167 C 923.581 -0.972446 1.77622 0
M  V30 9168 C 923.909 -1.85235 0.593137 0
M  V30 9169 O 923.164 -1.91064 -0.423464 0
M  V30 9170 C 923.463 -1.8617 3.05083 0
M  V30 9171 C 923.129 -1.13696 4.3633 0
M  V30 9172 C 921.791 -0.936679 4.71996 0
M  V30 9173 C 924.143 -0.623451 5.17458 0
M  V30 9174 C 921.471 -0.210612 5.86322 0
M  V30 9175 C 923.823 0.0891587 6.32537 0
M  V30 9176 C 922.487 0.300904 6.66821 0
M  V30 9177 H 921.757 -0.355843 0.649967 0
M  V30 9178 H 924.404 -0.242372 1.8996 0
M  V30 9179 H 922.709 -2.6589 2.87767 0
M  V30 9180 H 924.406 -2.4265 3.19253 0
M  V30 9181 H 920.996 -1.30301 4.08313 0
M  V30 9182 H 925.18 -0.765725 4.90357 0
M  V30 9183 H 920.436 -0.0361062 6.11389 0
M  V30 9184 H 924.61 0.494685 6.94641 0
M  V30 9185 H 922.237 0.865466 7.55257 0
M  V30 9186 N 923.813 -1.49104 -0.510467 0
M  V30 9187 C 925.229 -1.35657 -0.840797 0
M  V30 9188 C 925.429 -0.382425 -1.97838 0
M  V30 9189 O 924.485 0.189331 -2.51789 0
M  V30 9190 C 925.798 -2.76155 -1.18992 0
M  V30 9191 C 927.346 -2.84786 -1.29868 0
M  V30 9192 C 927.821 -4.2603 -1.68115 0
M  V30 9193 N 929.312 -4.28796 -1.75181 0
M  V30 9194 C 930.047 -5.35041 -2.062 0
M  V30 9195 N 929.543 -6.51543 -2.35508 0
M  V30 9196 N 931.336 -5.2245 -2.07371 0
M  V30 9197 H 923.487 -2.11042 0.23982 0
M  V30 9198 H 925.75 -0.946946 0.0446824 0
M  V30 9199 H 925.456 -3.49092 -0.427484 0
M  V30 9200 H 925.33 -3.10922 -2.13558 0
M  V30 9201 H 927.717 -2.12092 -2.05186 0
M  V30 9202 H 927.798 -2.53613 -0.333758 0
M  V30 9203 H 927.442 -4.99247 -0.933512 0
M  V30 9204 H 927.372 -4.5466 -2.65691 0
M  V30 9205 H 929.863 -3.44771 -1.5473 0
M  V30 9206 H 930.176 -7.28342 -2.58337 0
M  V30 9207 H 928.521 -6.54785 -2.32985 0
M  V30 9208 H 931.712 -4.30444 -1.83945 0
M  V30 9209 H 931.885 -6.05347 -2.31212 0
M  V30 9210 N 925.291 0.760815 -1.38019 0
M  V30 9211 C 926.707 1.06289 -1.19058 0
M  V30 9212 C 926.907 2.01471 -0.0342603 0
M  V30 9213 O 925.963 2.44713 0.62224 0
M  V30 9214 C 927.276 1.6499 -2.51394 0
M  V30 9215 C 928.824 1.77196 -2.58013 0
M  V30 9216 C 929.299 2.3931 -3.90506 0
M  V30 9217 N 930.79 2.46749 -3.92007 0
M  V30 9218 C 931.525 2.95687 -4.91281 0
M  V30 9219 N 931.021 3.44715 -6.00952 0
M  V30 9220 N 932.814 2.94661 -4.78677 0
M  V30 9221 H 924.965 0.129045 -2.12008 0
M  V30 9222 H 927.228 0.119878 -0.94039 0
M  V30 9223 H 926.934 1.0252 -3.36426 0
M  V30 9224 H 926.808 2.64146 -2.6927 0
M  V30 9225 H 929.195 2.38796 -1.7338 0
M  V30 9226 H 929.276 0.767645 -2.4401 0
M  V30 9227 H 928.92 1.78346 -4.75558 0
M  V30 9228 H 928.85 3.40369 -4.01817 0
M  V30 9229 H 931.341 2.12064 -3.12789 0
M  V30 9230 H 931.654 3.80492 -6.72641 0
M  V30 9231 H 929.999 3.42791 -6.04582 0
M  V30 9232 H 933.19 2.55665 -3.92113 0
M  V30 9233 H 933.363 3.32489 -5.56197 0
M  V30 9234 N 926.769 1.22769 0.988202 0
M  V30 9235 C 928.015 1.05665 1.73097 0
M  V30 9236 C 928.348 -0.406615 1.89895 0
M  V30 9237 O 927.623 -1.30132 1.44554 0
M  V30 9238 C 927.906 1.77381 3.13382 0
M  V30 9239 C 927.759 3.31332 3.04203 0
M  V30 9240 C 929.078 1.52999 4.12649 0
M  V30 9241 H 926.197 0.385258 0.628288 0
M  V30 9242 H 928.839 1.51171 1.15097 0
M  V30 9243 H 926.989 1.38696 3.62899 0
M  V30 9244 H 928.661 3.79489 2.6227 0
M  V30 9245 H 926.904 3.60767 2.40894 0
M  V30 9246 H 927.575 3.76692 4.03493 0
M  V30 9247 H 930.051 1.86611 3.71908 0
M  V30 9248 H 928.927 2.05666 5.08913 0
M  V30 9249 H 929.188 0.463615 4.39662 0
M  V30 9250 N 928.247 -1.18576 1.03814 0
M  V30 9251 C 929.663 -1.4051 0.756909 0
M  V30 9252 C 929.863 -1.9057 -0.654631 0
M  V30 9253 O 928.919 -2.0884 -1.41922 0
M  V30 9254 C 930.232 -2.4081 1.80087 0
M  V30 9255 C 931.78 -2.54541 1.82148 0
M  V30 9256 C 932.255 -3.58102 2.85529 0
M  V30 9257 N 933.746 -3.65607 2.84404 0
M  V30 9258 C 934.481 -4.45458 3.61047 0
M  V30 9259 N 933.977 -5.28937 4.47434 0
M  V30 9260 N 935.77 -4.40196 3.49548 0
M  V30 9261 H 927.921 -0.844075 1.94908 0
M  V30 9262 H 930.184 -0.433287 0.843188 0
M  V30 9263 H 929.89 -2.1107 2.81322 0
M  V30 9264 H 929.764 -3.4012 1.63089 0
M  V30 9265 H 932.151 -2.83598 0.815855 0
M  V30 9266 H 932.232 -1.55352 2.03223 0
M  V30 9267 H 931.876 -3.29786 3.86269 0
M  V30 9268 H 931.806 -4.56963 2.6171 0
M  V30 9269 H 934.297 -3.05994 2.21756 0
M  V30 9270 H 934.61 -5.8701 5.02632 0
M  V30 9271 H 932.955 -5.28366 4.51503 0
M  V30 9272 H 936.146 -3.74026 2.81464 0
M  V30 9273 H 936.319 -5.02186 4.09528 0
M  V30 9274 N 929.725 -0.817259 -1.34754 0
M  V30 9275 C 930.635 -0.236946 -2.334 0
M  V30 9276 C 931.651 0.625685 -1.62361 0
M  V30 9277 O 932.827 0.534921 -1.94166 0
M  V30 9278 C 929.892 0.596215 -3.41535 0
M  V30 9279 C 928.953 -0.288154 -4.28332 0
M  V30 9280 C 928.186 0.505337 -5.31302 0
M  V30 9281 O 928.409 1.73912 -5.43241 0
M  V30 9282 O 927.343 -0.109374 -6.01801 0
M  V30 9283 H 931.169 -1.05327 -2.84851 0
M  V30 9284 H 928.754 -0.579275 -1.37713 0
M  V30 9285 H 930.636 1.07041 -4.07578 0
M  V30 9286 H 929.311 1.38997 -2.92338 0
M  V30 9287 H 928.218 -0.809724 -3.65232 0
M  V30 9288 H 929.551 -1.04612 -4.80955 0
M  V30 9289 N 931.203 1.46865 -0.571711 0
M  V30 9290 C 932.113 2.33979 0.170571 0
M  V30 9291 C 933.129 1.49083 0.897239 0
M  V30 9292 O 934.305 1.81979 0.862888 0
M  V30 9293 C 931.37 3.26063 1.17831 0
M  V30 9294 C 930.431 4.26855 0.457499 0
M  V30 9295 C 929.664 5.14539 1.41722 0
M  V30 9296 O 929.887 5.04945 2.65305 0
M  V30 9297 O 928.821 5.94612 0.9338 0
M  V30 9298 H 932.647 2.98781 -0.544396 0
M  V30 9299 H 930.232 1.4566 -0.332198 0
M  V30 9300 H 932.114 3.82903 1.75965 0
M  V30 9301 H 930.789 2.63871 1.87493 0
M  V30 9302 H 929.696 3.73734 -0.165406 0
M  V30 9303 H 931.029 4.91802 -0.197953 0
M  V30 9304 N 932.681 0.308908 1.54543 0
M  V30 9305 C 933.591 -0.572939 2.27496 0
M  V30 9306 C 934.607 -1.14171 1.31305 0
M  V30 9307 O 935.783 -1.16481 1.64299 0
M  V30 9308 C 932.848 -1.72483 3.0075 0
M  V30 9309 C 931.909 -1.18934 4.12496 0
M  V30 9310 C 931.142 -2.28634 4.82247 0
M  V30 9311 O 931.365 -3.48691 4.5141 0
M  V30 9312 O 930.299 -1.94879 5.69478 0
M  V30 9313 H 934.125 0.0190877 3.03694 0
M  V30 9314 H 931.71 0.0750943 1.49211 0
M  V30 9315 H 933.592 -2.39578 3.46671 0
M  V30 9316 H 932.267 -2.30332 2.2744 0
M  V30 9317 H 931.174 -0.483904 3.70957 0
M  V30 9318 H 932.507 -0.656185 4.87806 0
M  V30 9319 N 934.159 -1.57557 0.0367827 0
M  V30 9320 C 935.408 -1.91291 -0.639569 0
M  V30 9321 C 935.721 -0.915601 -1.72847 0
M  V30 9322 O 936.927 -1.14447 -2.46199 0
M  V30 9323 C 935.383 -3.39697 -1.18888 0
M  V30 9324 C 934.991 -4.47803 -0.132851 0
M  V30 9325 C 936.735 -3.82487 -1.8413 0
M  V30 9326 C 934.642 -5.87311 -0.694229 0
M  V30 9327 H 933.572 -0.713886 -0.242658 0
M  V30 9328 H 936.223 -1.83209 0.103332 0
M  V30 9329 H 934.605 -3.42736 -1.98363 0
M  V30 9330 H 935.779 -4.56334 0.640009 0
M  V30 9331 H 934.094 -4.14264 0.421264 0
M  V30 9332 H 936.691 -4.84076 -2.27101 0
M  V30 9333 H 937.034 -3.17959 -2.68716 0
M  V30 9334 H 937.567 -3.81903 -1.11332 0
M  V30 9335 H 934.306 -6.55401 0.113667 0
M  V30 9336 H 933.826 -5.82371 -1.4354 0
M  V30 9337 H 935.505 -6.36119 -1.1816 0
M  V30 9338 N 935.637 0.236453 -1.55816 0
M  V30 9339 C 936.547 1.31418 -1.94336 0
M  V30 9340 C 937.563 1.52095 -0.845164 0
M  V30 9341 O 938.739 1.65515 -1.14746 0
M  V30 9342 C 935.804 2.6468 -2.23932 0
M  V30 9343 C 934.865 2.52435 -3.47239 0
M  V30 9344 C 934.098 3.79342 -3.75414 0
M  V30 9345 O 934.321 4.81694 -3.05495 0
M  V30 9346 O 933.255 3.77347 -4.68927 0
M  V30 9347 H 937.081 1.01739 -2.86152 0
M  V30 9348 H 934.666 0.438084 -1.42833 0
M  V30 9349 H 936.548 3.4341 -2.44228 0
M  V30 9350 H 935.223 2.94071 -1.35292 0
M  V30 9351 H 934.13 1.71955 -3.32238 0
M  V30 9352 H 935.463 2.27987 -4.36214 0
M  V30 9353 N 937.115 1.49373 0.502552 0
M  V30 9354 C 938.361 1.59016 1.25864 0
M  V30 9355 C 938.694 0.27532 1.92238 0
M  V30 9356 O 937.969 -0.720988 1.80643 0
M  V30 9357 C 938.252 2.74828 2.32683 0
M  V30 9358 C 938.105 4.16102 1.7082 0
M  V30 9359 C 939.424 2.86288 3.34256 0
M  V30 9360 H 936.543 0.578798 0.456248 0
M  V30 9361 H 939.185 1.81651 0.557032 0
M  V30 9362 H 937.335 2.5566 2.92524 0
M  V30 9363 H 939.007 4.46782 1.14818 0
M  V30 9364 H 937.25 4.21822 1.01238 0
M  V30 9365 H 937.921 4.93006 2.48292 0
M  V30 9366 H 940.397 3.03733 2.84404 0
M  V30 9367 H 939.273 3.69001 4.06362 0
M  V30 9368 H 939.534 1.95576 3.96488 0
M  V30 9369 N 938.594 -0.753485 1.38421 0
M  V30 9370 C 939.871 -1.50318 1.25155 0
M  V30 9371 C 940.251 -2.10588 -0.147003 0
M  V30 9372 O 939.599 -1.97071 -1.15651 0
M  V30 9373 C 939.809 -2.56946 2.36177 0
M  V30 9374 C 941.157 -3.23846 2.74607 0
M  V30 9375 O 942.181 -2.67251 2.3549 0
M  V30 9376 O 941.04 -4.2621 3.42064 0
M  V30 9377 H 938.134 -0.666624 0.48943 0
M  V30 9378 H 940.68 -0.788887 1.50249 0
M  V30 9379 H 939.452 -2.1066 3.29754 0
M  V30 9380 H 939.075 -3.35956 2.12648 0
M  V30 9381 N 940.072 -1.23292 -0.981677 0
M  V30 9382 C 941.297 -1.09176 -1.76339 0
M  V30 9383 C 941.722 0.352726 -1.84763 0
M  V30 9384 O 941.08 1.25509 -1.30832 0
M  V30 9385 C 941.128 -1.72046 -3.16911 0
M  V30 9386 O 940.232 -0.98174 -4.00544 0
M  V30 9387 H 939.573 -0.382755 -0.542581 0
M  V30 9388 H 942.103 -1.63319 -1.23239 0
M  V30 9389 H 942.113 -1.77232 -3.67495 0
M  V30 9390 H 940.788 -2.77154 -3.10095 0
M  V30 9391 H 939.365 -1.00672 -3.59054 0
M  V30 9392 N 941.55 1.18024 -1.04442 0
M  V30 9393 C 942.966 1.40107 -0.76435 0
M  V30 9394 C 943.166 1.90914 0.644516 0
M  V30 9395 O 942.222 2.0959 1.40813 0
M  V30 9396 C 943.535 2.39851 -1.81361 0
M  V30 9397 C 945.083 2.53571 -1.83496 0
M  V30 9398 C 945.558 3.56583 -2.87424 0
M  V30 9399 N 947.049 3.64094 -2.86339 0
M  V30 9400 C 947.784 4.43537 -3.63405 0
M  V30 9401 N 947.28 5.26557 -4.50233 0
M  V30 9402 N 949.073 4.38336 -3.51877 0
M  V30 9403 H 941.224 0.833726 -1.95353 0
M  V30 9404 H 943.487 0.42881 -0.845474 0
M  V30 9405 H 943.193 2.09576 -2.82438 0
M  V30 9406 H 943.067 3.39251 -1.6489 0
M  V30 9407 H 945.454 2.83161 -0.830883 0
M  V30 9408 H 945.535 1.54272 -2.04044 0
M  V30 9409 H 945.179 3.27733 -3.88012 0
M  V30 9410 H 945.109 4.55569 -2.6413 0
M  V30 9411 H 947.6 3.04814 -2.23376 0
M  V30 9412 H 947.913 5.84336 -5.05738 0
M  V30 9413 H 946.258 5.25964 -4.54298 0
M  V30 9414 H 949.449 3.72528 -2.83444 0
M  V30 9415 H 949.622 5.00007 -4.12186 0
M  V30 9416 N 943.028 0.824394 1.34319 0
M  V30 9417 C 944.274 0.413779 1.98534 0
M  V30 9418 C 944.607 -1.02089 1.65201 0
M  V30 9419 O 943.882 -1.71129 0.924402 0
M  V30 9420 C 944.165 0.61801 3.54757 0
M  V30 9421 C 944.018 2.0989 3.97827 0
M  V30 9422 C 945.337 0.0549041 4.40066 0
M  V30 9423 H 942.456 0.151815 0.721194 0
M  V30 9424 H 945.098 1.03723 1.5919 0
M  V30 9425 H 943.248 0.0873107 3.88402 0
M  V30 9426 H 944.92 2.69335 3.74508 0
M  V30 9427 H 943.163 2.58881 3.48085 0
M  V30 9428 H 943.834 2.1926 5.06586 0
M  V30 9429 H 946.31 0.508348 4.12983 0
M  V30 9430 H 945.186 0.227595 5.48428 0
M  V30 9431 H 945.447 -1.04025 4.29687 0
M  V30 9432 N 944.506 -1.46559 0.579492 0
M  V30 9433 C 945.469 -2.28739 -0.145371 0
M  V30 9434 C 946.469 -1.38211 -0.821854 0
M  V30 9435 O 947.659 -1.6062 -0.674302 0
M  V30 9436 C 944.791 -3.18507 -1.21515 0
M  V30 9437 H 945.984 -2.94301 0.576786 0
M  V30 9438 H 943.537 -1.52616 0.337327 0
M  V30 9439 H 944.272 -2.57685 -1.96899 0
M  V30 9440 H 944.057 -3.85157 -0.734616 0
M  V30 9441 H 945.547 -3.80369 -1.72363 0
M  V30 9442 N 945.984 -0.3171 -1.54377 0
M  V30 9443 C 947.261 0.341348 -1.92598 0
M  V30 9444 C 947.641 1.70402 -1.24605 0
M  V30 9445 O 946.989 2.25191 -0.387448 0
M  V30 9446 C 947.199 0.440003 -3.46215 0
M  V30 9447 C 948.547 0.703327 -4.18734 0
M  V30 9448 O 949.571 0.523181 -3.52337 0
M  V30 9449 O 948.43 1.05042 -5.3631 0
M  V30 9450 H 945.524 0.193696 -0.803997 0
M  V30 9451 H 948.07 -0.366341 -1.65699 0
M  V30 9452 H 946.842 -0.517299 -3.87866 0
M  V30 9453 H 946.465 1.19553 -3.792 0
M  V30 9454 N 947.462 1.57535 -0.0451378 0
M  V30 9455 C 948.41 2.12351 0.949205 0
M  V30 9456 C 949.404 1.05386 1.32628 0
M  V30 9457 O 950.61 1.23802 1.30664 0
M  V30 9458 H 946.985 0.678648 0.323945 0
M  V30 9459 H 948.956 2.94806 0.461718 0
M  V30 9460 C 947.705 2.67862 2.21687 0
M  V30 9461 H 947.028 3.49826 1.93551 0
M  V30 9462 H 948.468 3.09844 2.89435 0
M  V30 9463 C 946.927 1.61353 2.95748 0
M  V30 9464 O 947.457 1.02276 3.88462 0
M  V30 9465 N 945.663 1.33017 2.5837 0
M  V30 9466 H 945.21 1.81246 1.83051 0
M  V30 9467 H 945.168 0.619812 3.0823 0
M  V30 9468 N 948.94 -0.228186 1.55939 0
M  V30 9469 C 950.165 -0.974795 1.83064 0
M  V30 9470 C 950.59 -1.77426 0.624624 0
M  V30 9471 O 949.948 -1.76211 -0.426556 0
M  V30 9472 C 949.996 -1.87342 3.08116 0
M  V30 9473 O 949.1 -2.96784 2.86344 0
M  V30 9474 H 948.441 -0.276379 0.603747 0
M  V30 9475 H 950.971 -0.243507 2.03146 0
M  V30 9476 H 950.981 -2.28451 3.38045 0
M  V30 9477 H 949.656 -1.28575 3.95526 0
M  V30 9478 H 948.233 -2.59669 2.67631 0
M  V30 9479 N 950.418 -1.49637 -0.494624 0
M  V30 9480 C 951.665 -1.59445 -1.24834 0
M  V30 9481 C 951.993 -0.284028 -1.92415 0
M  V30 9482 O 951.248 0.728519 -1.81634 0
M  V30 9483 C 951.547 -2.70749 -2.33302 0
M  V30 9484 C 951.213 -4.12034 -1.83135 0
M  V30 9485 C 949.875 -4.50482 -1.69173 0
M  V30 9486 C 952.227 -5.00432 -1.4566 0
M  V30 9487 C 949.555 -5.75093 -1.16124 0
M  V30 9488 C 951.907 -6.25568 -0.940608 0
M  V30 9489 C 950.571 -6.62839 -0.787432 0
M  V30 9490 H 949.841 -0.583451 -0.456799 0
M  V30 9491 H 952.488 -1.8349 -0.548044 0
M  V30 9492 H 950.793 -2.407 -3.09145 0
M  V30 9493 H 952.49 -2.75546 -2.91334 0
M  V30 9494 H 949.08 -3.8169 -1.94964 0
M  V30 9495 H 953.264 -4.71379 -1.55291 0
M  V30 9496 H 948.52 -6.02665 -1.02982 0
M  V30 9497 H 952.694 -6.93439 -0.641467 0
M  V30 9498 H 950.321 -7.59279 -0.374191 0
M  V30 9499 N 951.896 0.746133 -1.38819 0
M  V30 9500 C 953.173 1.49652 -1.25951 0
M  V30 9501 C 953.553 2.10663 0.135833 0
M  V30 9502 O 952.901 1.97682 1.14604 0
M  V30 9503 C 953.111 2.5569 -2.37537 0
M  V30 9504 C 954.459 3.22385 -2.76321 0
M  V30 9505 O 955.483 2.65998 -2.36904 0
M  V30 9506 O 954.342 4.2439 -3.44319 0
M  V30 9507 H 951.436 0.664019 -0.492958 0
M  V30 9508 H 953.982 0.780908 -1.50665 0
M  V30 9509 H 952.754 2.08908 -3.30867 0
M  V30 9510 H 952.377 3.34823 -2.14427 0
M  V30 9511 N 953.375 1.23811 0.975125 0
M  V30 9512 C 954.338 1.02505 2.05001 0
M  V30 9513 C 955.338 -0.0150084 1.60793 0
M  V30 9514 O 956.528 0.225246 1.72738 0
M  V30 9515 C 953.66 0.552087 3.364 0
M  V30 9516 H 954.853 1.979 2.25335 0
M  V30 9517 H 952.406 1.05929 1.1493 0
M  V30 9518 H 953.141 -0.405394 3.21756 0
M  V30 9519 H 952.926 1.30267 3.69828 0
M  V30 9520 H 954.416 0.423828 4.15444 0
M  V30 9521 N 954.853 -1.17469 1.05066 0
M  V30 9522 C 955.8 -2.21443 0.650512 0
M  V30 9523 C 956.77 -1.62441 -0.346702 0
M  V30 9524 O 957.955 -1.89305 -0.238404 0
M  V30 9525 C 955.095 -3.45087 0.0301014 0
M  V30 9526 C 954.208 -4.18385 1.07599 0
M  V30 9527 C 953.343 -5.29513 0.423038 0
M  V30 9528 C 952.382 -5.94596 1.45333 0
M  V30 9529 N 951.519 -6.97241 0.824623 0
M  V30 9530 H 956.359 -2.55025 1.54163 0
M  V30 9531 H 953.896 -1.25274 0.771032 0
M  V30 9532 H 955.854 -4.15754 -0.347032 0
M  V30 9533 H 954.484 -3.12093 -0.824481 0
M  V30 9534 H 953.536 -3.46446 1.57097 0
M  V30 9535 H 954.848 -4.62899 1.85813 0
M  V30 9536 H 954.002 -6.067 -0.00774975 0
M  V30 9537 H 952.741 -4.86129 -0.391092 0
M  V30 9538 H 951.746 -5.16142 1.89415 0
M  V30 9539 H 952.971 -6.40061 2.26934 0
M  V30 9540 H 950.917 -6.55993 0.0309804 0
M  V30 9541 H 950.834 -7.40059 1.54432 0
M  V30 9542 H 952.102 -7.78375 0.418567 0
M  V30 9543 N 956.331 -0.831506 -1.3388 0
M  V30 9544 C 957.747 -0.518349 -1.50948 0
M  V30 9545 C 957.947 0.955807 -1.77388 0
M  V30 9546 O 957.003 1.73993 -1.82983 0
M  V30 9547 C 958.316 -1.38531 -2.66889 0
M  V30 9548 C 959.864 -1.38332 -2.80772 0
M  V30 9549 C 960.339 -2.23497 -3.99766 0
M  V30 9550 N 961.83 -2.21167 -4.06988 0
M  V30 9551 C 962.565 -2.83805 -4.98239 0
M  V30 9552 N 962.061 -3.55468 -5.94655 0
M  V30 9553 N 963.854 -2.73314 -4.91178 0
M  V30 9554 H 956.005 -1.78588 -1.14978 0
M  V30 9555 H 958.268 -0.761508 -0.564633 0
M  V30 9556 H 957.974 -2.43255 -2.54007 0
M  V30 9557 H 957.848 -1.05611 -3.62114 0
M  V30 9558 H 960.235 -0.343832 -2.9309 0
M  V30 9559 H 960.316 -1.75256 -1.86331 0
M  V30 9560 H 959.96 -3.27501 -3.88208 0
M  V30 9561 H 959.89 -1.83919 -4.93438 0
M  V30 9562 H 962.381 -1.69046 -3.37982 0
M  V30 9563 H 962.694 -4.00487 -6.60931 0
M  V30 9564 H 961.039 -3.59575 -5.94753 0
M  V30 9565 H 964.23 -2.16897 -4.14817 0
M  V30 9566 H 964.403 -3.22416 -5.62096 0
M  V30 9567 N 957.809 1.4625 -0.587256 0
M  V30 9568 C 959.057 2.01963 -0.0744273 0
M  V30 9569 C 959.378 1.46065 1.29189 0
M  V30 9570 O 958.648 0.647077 1.84905 0
M  V30 9571 H 957.228 0.746597 -0.0245236 0
M  V30 9572 H 959.89 1.79299 -0.764063 0
M  V30 9573 H 958.986 3.12099 -0.00884894 0
M  V30 9574 N 959.287 0.325282 1.54207 0
M  V30 9575 C 960.25 -0.527228 2.23054 0
M  V30 9576 C 961.25 -1.04217 1.22456 0
M  V30 9577 O 962.44 -0.934325 1.47024 0
M  V30 9578 C 959.572 -1.7325 2.93594 0
M  V30 9579 H 960.765 0.0746423 2.99807 0
M  V30 9580 H 958.318 0.0763872 1.56113 0
M  V30 9581 H 959.053 -2.37356 2.20981 0
M  V30 9582 H 958.838 -1.37065 3.67363 0
M  V30 9583 H 960.328 -2.3376 3.46043 0
M  V30 9584 N 960.765 -1.57509 0.0534917 0
M  V30 9585 C 961.728 -2.10563 -0.905307 0
M  V30 9586 C 962.728 -1.02571 -1.23838 0
M  V30 9587 O 963.918 -1.28635 -1.17468 0
M  V30 9588 C 961.05 -2.5918 -2.21447 0
M  V30 9589 H 962.243 -2.96575 -0.445354 0
M  V30 9590 H 959.796 -1.55079 -0.194947 0
M  V30 9591 H 960.531 -1.76568 -2.72019 0
M  V30 9592 H 960.316 -3.38098 -1.98575 0
M  V30 9593 H 961.806 -3.00365 -2.90122 0
M  V30 9594 N 962.243 0.219913 -1.56058 0
M  V30 9595 C 963.491 0.942199 -1.78793 0
M  V30 9596 C 963.812 1.84804 -0.622284 0
M  V30 9597 O 963.082 1.9255 0.360735 0
M  V30 9598 H 961.662 0.350895 -0.659455 0
M  V30 9599 H 964.324 0.231376 -1.93522 0
M  V30 9600 H 963.42 1.54804 -2.71002 0
M  V30 9601 N 963.721 1.49897 0.486681 0
M  V30 9602 C 964.998 1.50614 1.24799 0
M  V30 9603 C 965.378 0.24193 2.09709 0
M  V30 9604 O 964.726 -0.775237 2.14947 0
M  V30 9605 C 964.936 2.79318 2.09243 0
M  V30 9606 C 966.284 3.29371 2.67955 0
M  V30 9607 O 967.308 2.80533 2.19499 0
M  V30 9608 O 966.167 4.14466 3.56202 0
M  V30 9609 H 963.261 0.603447 0.565491 0
M  V30 9610 H 965.807 1.62174 0.499778 0
M  V30 9611 H 964.579 3.62812 1.46572 0
M  V30 9612 H 964.202 2.70687 2.91229 0
M  V30 9613 N 965.199 -0.738761 1.39212 0
M  V30 9614 C 966.445 -1.49942 1.37437 0
M  V30 9615 C 966.8 -1.92375 -0.0309496 0
M  V30 9616 O 966.093 -1.63635 -0.996706 0
M  V30 9617 C 966.287 -2.75435 2.2775 0
M  V30 9618 C 966.116 -2.45273 3.76924 0
M  V30 9619 C 964.886 -2.37755 4.45871 0
M  V30 9620 C 967.084 -2.11064 4.68995 0
M  V30 9621 N 965.066 -2.00023 5.804 0
M  V30 9622 C 966.437 -1.83746 5.92147 0
M  V30 9623 C 968.492 -1.975 4.57054 0
M  V30 9624 C 967.195 -1.4423 7.04692 0
M  V30 9625 C 969.221 -1.59388 5.69517 0
M  V30 9626 C 968.583 -1.32951 6.91739 0
M  V30 9627 H 964.682 -0.547671 0.558194 0
M  V30 9628 H 967.266 -0.858925 1.7473 0
M  V30 9629 H 965.437 -3.3727 1.92622 0
M  V30 9630 H 967.169 -3.41607 2.16995 0
M  V30 9631 H 963.924 -2.54725 3.99264 0
M  V30 9632 H 964.348 -1.83761 6.51583 0
M  V30 9633 H 968.99 -2.16609 3.63099 0
M  V30 9634 H 966.708 -1.23863 7.98551 0
M  V30 9635 H 970.294 -1.49504 5.62263 0
M  V30 9636 H 969.174 -1.039 7.77287 0
M  V30 9637 N 966.677 -1.24326 -0.968545 0
M  V30 9638 C 967.925 -1.08032 -1.70803 0
M  V30 9639 C 968.246 0.381728 -1.91227 0
M  V30 9640 O 967.516 1.27253 -1.48942 0
M  V30 9641 H 966.096 -0.396777 -0.632912 0
M  V30 9642 H 968.758 -1.56232 -1.16523 0
M  V30 9643 H 967.854 -1.57769 -2.69287 0
M  V30 9644 N 968.156 1.1691 -1.05688 0
M  V30 9645 C 969.066 2.24735 -0.67315 0
M  V30 9646 C 970.082 1.71252 0.308043 0
M  V30 9647 O 971.258 2.00772 0.158889 0
M  V30 9648 C 968.323 3.4665 -0.059026 0
M  V30 9649 C 967.384 4.15198 -1.0913 0
M  V30 9650 C 966.617 5.31292 -0.50639 0
M  V30 9651 O 966.84 5.663 0.682692 0
M  V30 9652 O 965.774 5.88923 -1.2431 0
M  V30 9653 H 969.6 2.59855 -1.57191 0
M  V30 9654 H 967.185 1.24306 -0.828751 0
M  V30 9655 H 969.067 4.20455 0.282018 0
M  V30 9656 H 967.742 3.13316 0.813304 0
M  V30 9657 H 966.649 3.43389 -1.48442 0
M  V30 9658 H 967.982 4.52571 -1.93495 0
M  V30 9659 N 969.634 0.838594 1.33437 0
M  V30 9660 C 971.05 0.526347 1.50671 0
M  V30 9661 C 971.25 -0.946387 1.77893 0
M  V30 9662 O 970.306 -1.7302 1.83903 0
M  V30 9663 C 971.619 1.39945 2.6615 0
M  V30 9664 C 973.167 1.3982 2.80035 0
M  V30 9665 C 973.642 2.25614 3.98576 0
M  V30 9666 N 975.133 2.23322 4.0581 0
M  V30 9667 C 975.868 2.86443 4.96727 0
M  V30 9668 N 975.364 3.58616 5.92762 0
M  V30 9669 N 977.157 2.75915 4.89722 0
M  V30 9670 H 969.308 1.79195 1.1403 0
M  V30 9671 H 971.571 0.764491 0.560586 0
M  V30 9672 H 971.277 2.44599 2.52714 0
M  V30 9673 H 971.151 1.07529 3.61548 0
M  V30 9674 H 973.538 0.35937 2.92904 0
M  V30 9675 H 973.619 1.76241 1.85399 0
M  V30 9676 H 973.263 3.29555 3.86466 0
M  V30 9677 H 973.193 1.86533 4.92456 0
M  V30 9678 H 975.684 1.70836 3.37081 0
M  V30 9679 H 975.997 4.03987 6.58798 0
M  V30 9680 H 974.342 3.62724 5.92838 0
M  V30 9681 H 977.533 2.19094 4.13661 0
M  V30 9682 H 977.706 3.25393 5.60378 0
M  V30 9683 N 971.112 -1.45937 0.595003 0
M  V30 9684 C 972.075 -2.2888 -0.121102 0
M  V30 9685 C 973.075 -1.39075 -0.807149 0
M  V30 9686 O 974.265 -1.61326 -0.657228 0
M  V30 9687 C 971.397 -3.19778 -1.1813 0
M  V30 9688 H 972.59 -2.93673 0.607968 0
M  V30 9689 H 970.143 -1.5225 0.353495 0
M  V30 9690 H 970.878 -2.59759 -1.94154 0
M  V30 9691 H 970.663 -3.85914 -0.693724 0
M  V30 9692 H 972.153 -3.82176 -1.68319 0
M  V30 9693 N 972.59 -0.333456 -1.54032 0
M  V30 9694 C 973.538 0.543414 -2.26163 0
M  V30 9695 C 974.532 1.11037 -1.27934 0
M  V30 9696 O 975.738 1.05727 -1.45677 0
M  V30 9697 H 972.113 0.19391 -0.726569 0
M  V30 9698 H 974.084 -0.0871052 -2.98273 0
M  V30 9699 C 972.833 1.68769 -3.03994 0
M  V30 9700 H 972.156 1.26069 -3.79403 0
M  V30 9701 H 973.596 2.27662 -3.57695 0
M  V30 9702 C 972.055 2.61117 -2.12884 0
M  V30 9703 O 972.585 3.63097 -1.71823 0
M  V30 9704 N 970.791 2.29573 -1.7817 0
M  V30 9705 H 970.338 1.46684 -2.11759 0
M  V30 9706 H 970.296 2.91622 -1.1749 0
M  V30 9707 N 974.068 1.57479 -0.061844 0
M  V30 9708 C 975 2.09116 0.938245 0
M  V30 9709 C 976.013 1.0212 1.26788 0
M  V30 9710 O 977.202 1.2966 1.22681 0
M  V30 9711 C 974.302 2.52822 2.25686 0
M  V30 9712 C 973.475 3.83277 2.10755 0
M  V30 9713 C 972.534 4.13182 3.25833 0
M  V30 9714 O 971.56 4.82937 3.01265 0
M  V30 9715 N 972.762 3.65938 4.50633 0
M  V30 9716 H 975.527 2.95543 0.497433 0
M  V30 9717 H 973.088 1.61423 0.124134 0
M  V30 9718 H 975.08 2.69896 3.01559 0
M  V30 9719 H 973.65 1.71586 2.61299 0
M  V30 9720 H 972.87 3.7568 1.19409 0
M  V30 9721 H 974.158 4.68686 1.98018 0
M  V30 9722 H 973.556 3.09566 4.73482 0
M  V30 9723 H 972.113 3.8823 5.23565 0
M  V30 9724 N 975.546 -0.211634 1.56173 0
M  V30 9725 C 976.792 -0.935935 1.79911 0
M  V30 9726 C 977.125 -1.83589 0.633155 0
M  V30 9727 O 976.4 -1.91004 -0.367132 0
M  V30 9728 C 976.683 -1.76638 3.13801 0
M  V30 9729 C 976.536 -0.892259 4.40861 0
M  V30 9730 C 977.855 -2.74224 3.44223 0
M  V30 9731 H 974.974 -0.338822 0.654499 0
M  V30 9732 H 977.616 -0.20422 1.88899 0
M  V30 9733 H 975.766 -2.39021 3.0627 0
M  V30 9734 H 977.438 -0.284407 4.60422 0
M  V30 9735 H 975.681 -0.198145 4.33347 0
M  V30 9736 H 976.352 -1.50793 5.31004 0
M  V30 9737 H 978.828 -2.21975 3.51946 0
M  V30 9738 H 977.704 -3.29424 4.39057 0
M  V30 9739 H 977.965 -3.52455 2.66885 0
M  V30 9740 N 977.024 -1.50153 -0.478725 0
M  V30 9741 C 977.954 -1.71384 -1.58587 0
M  V30 9742 C 978.935 -0.562705 -1.60523 0
M  V30 9743 O 980.12 -0.80101 -1.76911 0
M  V30 9744 C 977.25 -1.80094 -2.96957 0
M  V30 9745 C 976.204 -2.95218 -3.09888 0
M  V30 9746 C 975.53 -2.89063 -4.49829 0
M  V30 9747 C 976.83 -4.35841 -2.8782 0
M  V30 9748 H 978.524 -2.64081 -1.41073 0
M  V30 9749 H 976.07 -1.27081 -0.677239 0
M  V30 9750 H 978.023 -1.93531 -3.74331 0
M  V30 9751 H 976.747 -0.840131 -3.1561 0
M  V30 9752 H 975.406 -2.81419 -2.34944 0
M  V30 9753 H 975.054 -1.90844 -4.6539 0
M  V30 9754 H 974.754 -3.66345 -4.59418 0
M  V30 9755 H 976.278 -3.04539 -5.29234 0
M  V30 9756 H 977.692 -4.50205 -3.54948 0
M  V30 9757 H 976.089 -5.14515 -3.0886 0
M  V30 9758 H 977.159 -4.48739 -1.83742 0
M  V30 9759 N 978.502 0.731368 -1.39602 0
M  V30 9760 C 979.449 1.84541 -1.38612 0
M  V30 9761 C 980.419 1.64279 -0.245287 0
M  V30 9762 O 981.604 1.85635 -0.440954 0
M  V30 9763 C 978.744 3.22092 -1.23897 0
M  V30 9764 C 977.857 3.54034 -2.47555 0
M  V30 9765 C 976.992 4.81007 -2.25402 0
M  V30 9766 C 976.031 5.05804 -3.44716 0
M  V30 9767 N 975.168 6.23981 -3.21857 0
M  V30 9768 H 980.008 1.84722 -2.33841 0
M  V30 9769 H 977.545 0.902569 -1.16156 0
M  V30 9770 H 979.503 4.01499 -1.13376 0
M  V30 9771 H 978.133 3.2118 -0.322958 0
M  V30 9772 H 977.185 2.69301 -2.68665 0
M  V30 9773 H 978.497 3.68275 -3.36415 0
M  V30 9774 H 977.651 5.68401 -2.12143 0
M  V30 9775 H 976.39 4.68946 -1.33943 0
M  V30 9776 H 975.395 4.1687 -3.58468 0
M  V30 9777 H 976.62 5.19747 -4.37081 0
M  V30 9778 H 974.566 6.13202 -2.33065 0
M  V30 9779 H 974.483 6.38826 -4.04274 0
M  V30 9780 H 975.751 7.14205 -3.123 0
M  V30 9781 N 979.98 1.24838 0.961938 0
M  V30 9782 C 981.227 1.09151 1.70564 0
M  V30 9783 C 981.555 -0.368719 1.90973 0
M  V30 9784 O 980.81 -1.28854 1.47293 0
M  V30 9785 C 981.109 1.78289 3.09754 0
M  V30 9786 C 980.775 3.28216 3.09169 0
M  V30 9787 C 979.437 3.69118 3.08716 0
M  V30 9788 C 981.789 4.24035 3.03058 0
M  V30 9789 C 979.117 5.04263 2.99892 0
M  V30 9790 C 981.469 5.59195 2.95776 0
M  V30 9791 C 980.133 5.99436 2.93655 0
M  V30 9792 H 979.403 0.399414 0.624139 0
M  V30 9793 H 982.05 1.55016 1.12438 0
M  V30 9794 H 980.355 1.24835 3.7138 0
M  V30 9795 H 982.052 1.63612 3.66104 0
M  V30 9796 H 978.642 2.95667 3.10289 0
M  V30 9797 H 982.826 3.93431 3.02532 0
M  V30 9798 H 978.082 5.3463 2.96615 0
M  V30 9799 H 982.256 6.33142 2.90007 0
M  V30 9800 H 979.883 7.04116 2.86573 0
M  V30 9801 N 981.458 -1.16348 1.06306 0
M  V30 9802 C 982.686 -1.90782 0.800614 0
M  V30 9803 C 983.101 -1.77439 -0.645033 0
M  V30 9804 O 982.458 -1.11912 -1.4416 0
M  V30 9805 C 982.509 -3.41484 1.18621 0
M  V30 9806 O 982.23 -3.54428 2.57512 0
M  V30 9807 C 983.731 -4.32968 0.951525 0
M  V30 9808 H 980.951 -0.604977 0.290247 0
M  V30 9809 H 983.495 -1.47476 1.41672 0
M  V30 9810 H 981.65 -3.82493 0.614633 0
M  V30 9811 H 982.064 -4.4788 2.72954 0
M  V30 9812 H 983.538 -5.37169 1.27095 0
M  V30 9813 H 984.015 -4.39055 -0.112734 0
M  V30 9814 H 984.621 -3.97687 1.50749 0
M  V30 9815 N 982.937 -0.845659 -1.3299 0
M  V30 9816 C 983.884 -0.281761 -2.29074 0
M  V30 9817 C 984.854 0.606237 -1.54641 0
M  V30 9818 O 986.039 0.543063 -1.82908 0
M  V30 9819 C 983.179 0.531451 -3.40983 0
M  V30 9820 C 982.292 -0.381328 -4.30314 0
M  V30 9821 C 981.427 0.443643 -5.29344 0
M  V30 9822 C 980.466 -0.467101 -6.10315 0
M  V30 9823 N 979.603 0.320148 -7.0137 0
M  V30 9824 H 984.443 -1.10641 -2.76699 0
M  V30 9825 H 981.98 -0.55706 -1.36144 0
M  V30 9826 H 983.938 1.01848 -4.04577 0
M  V30 9827 H 982.568 1.32101 -2.94532 0
M  V30 9828 H 981.62 -0.986701 -3.6738 0
M  V30 9829 H 982.932 -1.08067 -4.86953 0
M  V30 9830 H 982.086 0.994212 -5.98498 0
M  V30 9831 H 980.825 1.17639 -4.73299 0
M  V30 9832 H 979.83 -1.02963 -5.40073 0
M  V30 9833 H 981.055 -1.19832 -6.68444 0
M  V30 9834 H 979.001 1.03615 -6.47765 0
M  V30 9835 H 978.918 -0.320338 -7.55321 0
M  V30 9836 H 980.186 0.852735 -7.74822 0
M  V30 9837 N 984.415 1.45619 -0.602734 0
M  V30 9838 C 985.663 2.01873 -0.095844 0
M  V30 9839 C 985.984 1.47427 1.27633 0
M  V30 9840 O 985.254 0.666652 1.84208 0
M  V30 9841 H 983.834 0.746295 -0.0324408 0
M  V30 9842 H 986.496 1.78478 -0.783037 0
M  V30 9843 H 985.592 3.12072 -0.0419507 0
M  V30 9844 N 985.893 0.34162 1.53853 0
M  V30 9845 C 986.84 -0.516058 2.24957 0
M  V30 9846 C 987.81 -1.09711 1.2471 0
M  V30 9847 O 988.995 -1.13409 1.53438 0
M  V30 9848 C 986.135 -1.66207 3.02439 0
M  V30 9849 C 985.248 -1.10851 4.17536 0
M  V30 9850 C 984.383 -2.22167 4.82509 0
M  V30 9851 C 983.422 -1.64152 5.89678 0
M  V30 9852 N 982.559 -2.69203 6.4844 0
M  V30 9853 H 987.399 0.0968275 2.97843 0
M  V30 9854 H 984.936 0.0595565 1.46979 0
M  V30 9855 H 986.894 -2.33672 3.4562 0
M  V30 9856 H 985.524 -2.24597 2.31853 0
M  V30 9857 H 984.576 -0.324853 3.7901 0
M  V30 9858 H 985.888 -0.644151 4.94623 0
M  V30 9859 H 985.042 -2.97501 5.28751 0
M  V30 9860 H 983.781 -2.71946 4.04842 0
M  V30 9861 H 982.786 -0.873228 5.42821 0
M  V30 9862 H 984.011 -1.15228 6.69253 0
M  V30 9863 H 981.957 -3.1824 5.73637 0
M  V30 9864 H 981.874 -2.27383 7.20994 0
M  V30 9865 H 983.142 -3.44312 6.99335 0
M  V30 9866 N 987.371 -1.57444 0.0701946 0
M  V30 9867 C 988.596 -1.98171 -0.61181 0
M  V30 9868 C 989.021 -0.94823 -1.62451 0
M  V30 9869 O 988.379 0.0863553 -1.81094 0
M  V30 9870 C 988.427 -3.37934 -1.2583 0
M  V30 9871 O 987.531 -3.37207 -2.37414 0
M  V30 9872 H 986.872 -0.645056 -0.157477 0
M  V30 9873 H 989.402 -2.04091 0.144235 0
M  V30 9874 H 989.412 -3.75083 -1.60552 0
M  V30 9875 H 988.087 -4.12684 -0.516234 0
M  V30 9876 H 986.664 -3.11826 -2.04497 0
M  V30 9877 N 988.849 0.203349 -1.56283 0
M  V30 9878 C 990.096 0.92501 -1.80138 0
M  V30 9879 C 990.424 1.83598 -0.64204 0
M  V30 9880 O 989.679 1.92119 0.372658 0
M  V30 9881 C 989.978 1.78016 -3.09912 0
M  V30 9882 C 989.644 1.02088 -4.39191 0
M  V30 9883 C 988.306 0.811208 -4.74313 0
M  V30 9884 C 990.658 0.486037 -5.18929 0
M  V30 9885 C 987.986 0.0550856 -5.86674 0
M  V30 9886 C 990.338 -0.256833 -6.32078 0
M  V30 9887 C 989.002 -0.477594 -6.65789 0
M  V30 9888 H 988.272 0.338485 -0.659173 0
M  V30 9889 H 990.919 0.191923 -1.90536 0
M  V30 9890 H 989.224 2.58167 -2.94715 0
M  V30 9891 H 990.921 2.341 -3.25574 0
M  V30 9892 H 987.511 1.1943 -4.11624 0
M  V30 9893 H 991.695 0.635446 -4.92215 0
M  V30 9894 H 986.951 -0.126006 -6.1127 0
M  V30 9895 H 991.125 -0.678683 -6.93085 0
M  V30 9896 H 988.752 -1.0654 -7.52697 0
M  V30 9897 N 990.327 1.50405 0.470755 0
M  V30 9898 C 991.743 1.37838 0.804534 0
M  V30 9899 C 991.943 0.434743 1.96754 0
M  V30 9900 O 990.999 -0.122507 2.52203 0
M  V30 9901 C 992.312 2.79212 1.11629 0
M  V30 9902 C 993.86 2.88129 1.22272 0
M  V30 9903 C 994.335 4.30337 1.5676 0
M  V30 9904 N 995.826 4.3329 1.63751 0
M  V30 9905 C 996.561 5.4032 1.91942 0
M  V30 9906 N 996.057 6.57558 2.18151 0
M  V30 9907 N 997.85 5.27764 1.93446 0
M  V30 9908 H 990.001 2.10332 -0.295689 0
M  V30 9909 H 992.264 0.945429 -0.0697733 0
M  V30 9910 H 991.97 3.50103 0.334778 0
M  V30 9911 H 991.844 3.16475 2.0524 0
M  V30 9912 H 994.231 2.17457 1.9949 0
M  V30 9913 H 994.312 2.54409 0.2664 0
M  V30 9914 H 993.956 5.01547 0.800817 0
M  V30 9915 H 993.886 4.61545 2.53543 0
M  V30 9916 H 996.377 3.48752 1.45535 0
M  V30 9917 H 996.69 7.34935 2.38936 0
M  V30 9918 H 995.035 6.60732 2.15542 0
M  V30 9919 H 998.226 4.35169 1.72468 0
M  V30 9920 H 998.399 6.11264 2.15081 0
M  V30 9921 N 991.805 -0.723954 1.39988 0
M  V30 9922 C 992.755 -1.82943 1.36073 0
M  V30 9923 C 993.739 -1.59105 0.239682 0
M  V30 9924 O 994.931 -1.7042 0.478116 0
M  V30 9925 C 992.06 -3.20988 1.21745 0
M  V30 9926 C 991.146 -3.50618 2.38596 0
M  V30 9927 N 991.537 -3.51115 3.64077 0
M  V30 9928 C 989.835 -3.81035 2.31794 0
M  V30 9929 C 990.536 -3.78852 4.41413 0
M  V30 9930 N 989.512 -3.97182 3.71143 0
M  V30 9931 H 993.314 -1.81649 2.31043 0
M  V30 9932 H 990.828 -0.922703 1.33641 0
M  V30 9933 H 992.825 -4.00139 1.17022 0
M  V30 9934 H 991.485 -3.23513 0.277344 0
M  V30 9935 H 992.496 -3.32163 3.97351 0
M  V30 9936 H 989.173 -3.911 1.46105 0
M  V30 9937 H 990.563 -3.85612 5.5023 0
M  V30 9938 N 993.283 -1.25346 -0.955304 0
M  V30 9939 C 994.193 -1.07412 -2.08566 0
M  V30 9940 C 995.209 -0.0114424 -1.73996 0
M  V30 9941 O 996.385 -0.212236 -2.00279 0
M  V30 9942 C 993.45 -0.694141 -3.3968 0
M  V30 9943 C 992.511 -1.83468 -3.88121 0
M  V30 9944 C 991.744 -1.47274 -5.12978 0
M  V30 9945 O 991.967 -0.368086 -5.69211 0
M  V30 9946 O 990.901 -2.30269 -5.56111 0
M  V30 9947 H 994.727 -2.02206 -2.26598 0
M  V30 9948 H 992.312 -1.04279 -1.06988 0
M  V30 9949 H 994.194 -0.494325 -4.18491 0
M  V30 9950 H 992.869 0.224545 -3.2292 0
M  V30 9951 H 991.776 -2.08935 -3.10318 0
M  V30 9952 H 993.109 -2.73258 -4.09379 0
M  V30 9953 N 994.761 1.15782 -1.06922 0
M  V30 9954 C 995.708 2.2038 -0.685659 0
M  V30 9955 C 996.678 1.62972 0.320816 0
M  V30 9956 O 997.863 1.8966 0.208258 0
M  V30 9957 C 995.003 3.44995 -0.084998 0
M  V30 9958 C 994.116 4.16621 -1.14242 0
M  V30 9959 C 993.251 5.28773 -0.507226 0
M  V30 9960 C 992.29 5.92209 -1.54774 0
M  V30 9961 N 991.427 6.9584 -0.935443 0
M  V30 9962 H 996.267 2.5254 -1.58201 0
M  V30 9963 H 993.804 1.24031 -0.790864 0
M  V30 9964 H 995.762 4.16254 0.280845 0
M  V30 9965 H 994.392 3.13365 0.774725 0
M  V30 9966 H 993.444 3.43903 -1.62589 0
M  V30 9967 H 994.756 4.59884 -1.93154 0
M  V30 9968 H 993.91 6.06635 -0.0887719 0
M  V30 9969 H 992.649 4.8669 0.313704 0
M  V30 9970 H 991.654 5.13063 -1.97602 0
M  V30 9971 H 992.879 6.3637 -2.37088 0
M  V30 9972 H 990.825 6.5586 -0.135339 0
M  V30 9973 H 990.742 7.37508 -1.66186 0
M  V30 9974 H 992.01 7.77611 -0.542346 0
M  V30 9975 N 996.239 0.8527 1.3254 0
M  V30 9976 C 997.467 0.469044 2.01513 0
M  V30 9977 C 997.882 -0.933701 1.64096 0
M  V30 9978 O 997.239 -1.60898 0.861283 0
M  V30 9979 C 997.29 0.596228 3.56549 0
M  V30 9980 O 997.011 1.94371 3.92621 0
M  V30 9981 C 998.512 0.211324 4.42796 0
M  V30 9982 H 995.732 0.184589 0.645111 0
M  V30 9983 H 998.276 1.1491 1.69163 0
M  V30 9984 H 996.431 -0.0360712 3.87383 0
M  V30 9985 H 996.845 1.93909 4.87339 0
M  V30 9986 H 998.319 0.351324 5.50881 0
M  V30 9987 H 998.796 -0.848055 4.30935 0
M  V30 9988 H 999.402 0.818617 4.17347 0
M  V30 9989 N 997.718 -1.45297 0.610449 0
M  V30 9990 C 998.665 -2.30553 -0.106718 0
M  V30 9991 C 999.635 -1.42272 -0.85719 0
M  V30 9992 O 1000.82 -1.71199 -0.842357 0
M  V30 9993 C 997.96 -3.27226 -1.09623 0
M  V30 9994 C 997.073 -4.3061 -0.346329 0
M  V30 9995 C 996.208 -5.14389 -1.32581 0
M  V30 9996 C 995.247 -6.09497 -0.563892 0
M  V30 9997 N 994.384 -6.86047 -1.4928 0
M  V30 9998 H 999.224 -2.91344 0.626296 0
M  V30 9999 H 996.761 -1.43563 0.32065 0
M  V30 10000 H 998.719 -3.81744 -1.68308 0
M  V30 10001 H 997.349 -2.68182 -1.79662 0
M  V30 10002 H 996.401 -3.7873 0.356084 0
M  V30 10003 H 997.713 -4.98183 0.248026 0
M  V30 10004 H 996.867 -5.73321 -1.98464 0
M  V30 10005 H 995.606 -4.4684 -1.9541 0
M  V30 10006 H 994.611 -5.49693 0.108551 0
M  V30 10007 H 995.836 -6.79074 0.0593872 0
M  V30 10008 H 993.782 -6.21185 -2.10868 0
M  V30 10009 H 993.699 -7.49983 -0.951953 0
M  V30 10010 H 994.967 -7.49518 -2.14112 0
M  V30 10011 N 999.196 -0.349774 -1.5367 0
M  V30 10012 C 1000.14 0.504121 -2.25227 0
M  V30 10013 C 1001.11 1.09048 -1.2529 0
M  V30 10014 O 1002.3 1.12594 -1.54037 0
M  V30 10015 C 999.438 1.64601 -3.03316 0
M  V30 10016 C 998.551 1.08635 -4.18118 0
M  V30 10017 C 997.686 2.19605 -4.83681 0
M  V30 10018 C 996.725 1.61023 -5.90541 0
M  V30 10019 N 995.862 2.6576 -6.49858 0
M  V30 10020 H 1000.7 -0.112621 -2.97787 0
M  V30 10021 H 998.239 -0.0673503 -1.46946 0
M  V30 10022 H 1000.2 2.31836 -3.46854 0
M  V30 10023 H 998.827 2.23364 -2.33041 0
M  V30 10024 H 997.879 0.304748 -3.79177 0
M  V30 10025 H 999.191 0.617911 -4.94958 0
M  V30 10026 H 998.345 2.94693 -5.30322 0
M  V30 10027 H 997.084 2.69795 -4.06278 0
M  V30 10028 H 996.089 0.844428 -5.43277 0
M  V30 10029 H 997.314 1.11677 -6.69855 0
M  V30 10030 H 995.26 3.15193 -5.75317 0
M  V30 10031 H 995.177 2.23557 -7.2219 0
M  V30 10032 H 996.445 3.40598 -7.01151 0
M  V30 10033 N 1000.67 1.57404 -0.0785433 0
M  V30 10034 C 1001.62 2.13104 0.88631 0
M  V30 10035 C 1002.59 1.04527 1.29086 0
M  V30 10036 O 1003.78 1.32226 1.37553 0
M  V30 10037 C 1000.92 2.70252 2.14611 0
M  V30 10038 C 1000.03 3.93007 1.79358 0
M  V30 10039 C 999.164 4.38376 3 0
M  V30 10040 C 998.203 5.53761 2.60796 0
M  V30 10041 N 997.34 5.94058 3.74219 0
M  V30 10042 H 1002.18 2.95243 0.404452 0
M  V30 10043 H 999.717 1.45894 0.187982 0
M  V30 10044 H 1001.67 3.01497 2.88367 0
M  V30 10045 H 1000.3 1.90868 2.60326 0
M  V30 10046 H 999.357 3.68181 0.956384 0
M  V30 10047 H 1000.67 4.76795 1.4652 0
M  V30 10048 H 999.823 4.71317 3.82027 0
M  V30 10049 H 998.562 3.53455 3.36037 0
M  V30 10050 H 997.567 5.20464 1.77192 0
M  V30 10051 H 998.792 6.40419 2.25922 0
M  V30 10052 H 996.738 5.12085 4.10005 0
M  V30 10053 H 996.655 6.72602 3.45171 0
M  V30 10054 H 997.923 6.31624 4.56805 0
M  V30 10055 N 1002.15 -0.195058 1.56388 0
M  V30 10056 C 1003.57 -0.545894 1.49974 0
M  V30 10057 C 1003.77 -1.85851 0.778568 0
M  V30 10058 O 1002.82 -2.50346 0.329105 0
M  V30 10059 C 1004.14 -0.600599 2.94641 0
M  V30 10060 C 1005.68 -0.689429 3.05313 0
M  V30 10061 C 1006.16 -0.775243 4.51391 0
M  V30 10062 N 1007.65 -0.838769 4.55542 0
M  V30 10063 C 1008.39 -0.925337 5.65884 0
M  V30 10064 N 1007.88 -0.974204 6.85916 0
M  V30 10065 N 1009.67 -0.962528 5.53798 0
M  V30 10066 H 1001.83 0.66595 2.0169 0
M  V30 10067 H 1004.09 0.237215 0.917842 0
M  V30 10068 H 1003.79 0.29478 3.50462 0
M  V30 10069 H 1003.67 -1.45528 3.47996 0
M  V30 10070 H 1006.06 -1.57524 2.4954 0
M  V30 10071 H 1006.14 0.191451 2.55083 0
M  V30 10072 H 1005.78 0.106215 5.07789 0
M  V30 10073 H 1005.71 -1.67193 4.99354 0
M  V30 10074 H 1008.2 -0.810249 3.69112 0
M  V30 10075 H 1008.51 -1.04077 7.6576 0
M  V30 10076 H 1006.86 -0.942881 6.88574 0
M  V30 10077 H 1010.05 -0.921188 4.58946 0
M  V30 10078 H 1010.22 -1.02653 6.39817 0
M  V30 10079 N 1003.63 -1.50653 -0.462772 0
M  V30 10080 C 1004.88 -1.61737 -1.21184 0
M  V30 10081 C 1005.2 -0.32369 -1.92295 0
M  V30 10082 O 1004.47 0.659269 -1.84473 0
M  V30 10083 H 1003.05 -0.596015 -0.450306 0
M  V30 10084 H 1005.71 -1.87469 -0.533051 0
M  V30 10085 H 1004.81 -2.43262 -1.95525 0
M  V30 10086 N 1005.11 0.71652 -1.4037 0
M  V30 10087 C 1006.33 1.51069 -1.42102 0
M  V30 10088 C 1006.76 1.88087 -0.0222387 0
M  V30 10089 O 1006.12 1.53204 0.969448 0
M  V30 10090 C 1006.16 2.76307 -2.31704 0
M  V30 10091 O 1005.27 3.72975 -1.75964 0
M  V30 10092 H 1004.61 0.455502 -0.483129 0
M  V30 10093 H 1007.14 0.882514 -1.84588 0
M  V30 10094 H 1007.15 3.24846 -2.46859 0
M  V30 10095 H 1005.82 2.48698 -3.3335 0
M  V30 10096 H 1004.4 3.31818 -1.70151 0
M  V30 10097 N 1006.59 1.25851 0.948643 0
M  V30 10098 C 1007.82 1.13546 1.726 0
M  V30 10099 C 1008.22 -0.312857 1.86595 0
M  V30 10100 O 1007.57 -1.22657 1.36751 0
M  V30 10101 C 1007.63 1.72315 3.15512 0
M  V30 10102 C 1007.29 3.2136 3.24926 0
M  V30 10103 C 1008.29 4.18274 3.08777 0
M  V30 10104 C 1005.98 3.61683 3.48555 0
M  V30 10105 C 1007.97 5.53491 3.16112 0
M  V30 10106 C 1005.66 4.97035 3.55526 0
M  V30 10107 C 1006.65 5.92749 3.3932 0
M  V30 10108 O 1006.34 7.25637 3.45985 0
M  V30 10109 H 1006.07 0.396555 0.547467 0
M  V30 10110 H 1008.63 1.66822 1.19832 0
M  V30 10111 H 1006.86 1.13494 3.6967 0
M  V30 10112 H 1008.55 1.55024 3.7513 0
M  V30 10113 H 1009.31 3.88461 2.90385 0
M  V30 10114 H 1005.19 2.87674 3.60229 0
M  V30 10115 H 1008.74 6.28177 3.0338 0
M  V30 10116 H 1004.63 5.26512 3.73437 0
M  V30 10117 H 1005.4 7.33812 3.62577 0
M  V30 10118 N 1008.06 -1.15214 1.07534 0
M  V30 10119 C 1009.48 -1.38031 0.801228 0
M  V30 10120 C 1009.68 -1.92556 -0.593672 0
M  V30 10121 O 1008.74 -2.1325 -1.35206 0
M  V30 10122 C 1010.05 -2.34958 1.87657 0
M  V30 10123 C 1011.6 -2.48617 1.90154 0
M  V30 10124 C 1012.07 -3.48837 2.96777 0
M  V30 10125 N 1013.56 -3.56374 2.95892 0
M  V30 10126 C 1014.3 -4.33746 3.75036 0
M  V30 10127 N 1013.79 -5.14435 4.64036 0
M  V30 10128 N 1015.59 -4.28853 3.63375 0
M  V30 10129 H 1007.74 -0.781639 1.97495 0
M  V30 10130 H 1010 -0.406243 0.856546 0
M  V30 10131 H 1009.71 -2.02013 2.87895 0
M  V30 10132 H 1009.58 -3.3476 1.73827 0
M  V30 10133 H 1011.97 -2.80859 0.905666 0
M  V30 10134 H 1012.05 -1.48808 2.08062 0
M  V30 10135 H 1011.69 -3.1733 3.96565 0
M  V30 10136 H 1011.62 -4.48406 2.76116 0
M  V30 10137 H 1014.11 -2.98784 2.31379 0
M  V30 10138 H 1014.43 -5.70722 5.21053 0
M  V30 10139 H 1012.77 -5.13734 4.68084 0
M  V30 10140 H 1015.96 -3.64882 2.93221 0
M  V30 10141 H 1016.14 -4.88903 4.25298 0
M  V30 10142 N 1009.54 -0.859717 -1.32086 0
M  V30 10143 C 1010.79 -0.464662 -1.96686 0
M  V30 10144 C 1011.11 0.98412 -1.68345 0
M  V30 10145 O 1010.38 1.68847 -0.993361 0
M  V30 10146 H 1008.96 -0.168838 -0.727669 0
M  V30 10147 H 1011.62 -1.09726 -1.61079 0
M  V30 10148 H 1010.72 -0.613904 -3.06003 0
M  V30 10149 N 1011.02 1.44971 -0.618145 0
M  V30 10150 C 1012.27 2.0176 -0.11725 0
M  V30 10151 C 1012.59 1.48773 1.26062 0
M  V30 10152 O 1011.86 0.686152 1.83491 0
M  V30 10153 H 1010.44 0.745909 -0.0403545 0
M  V30 10154 H 1013.1 1.77638 -0.801923 0
M  V30 10155 H 1012.2 3.1201 -0.0750477 0
M  V30 10156 N 1012.5 0.357919 1.53482 0
M  V30 10157 C 1013.72 -0.237769 2.06033 0
M  V30 10158 C 1014.15 -1.42292 1.23023 0
M  V30 10159 O 1013.51 -1.79604 0.247427 0
M  V30 10160 C 1013.55 -0.616806 3.55286 0
M  V30 10161 O 1012.66 -1.71503 3.75047 0
M  V30 10162 H 1012 -0.0364322 0.663 0
M  V30 10163 H 1014.53 0.516301 1.97979 0
M  V30 10164 H 1014.54 -0.88996 3.98175 0
M  V30 10165 H 1013.21 0.249825 4.15149 0
M  V30 10166 H 1011.79 -1.43803 3.44057 0
M  V30 10167 N 1013.98 -1.5736 0.0868897 0
M  V30 10168 C 1015.23 -1.93229 -0.578387 0
M  V30 10169 C 1015.54 -0.970127 -1.69847 0
M  V30 10170 O 1016.74 -1.22222 -2.42434 0
M  V30 10171 C 1015.2 -3.43307 -1.0802 0
M  V30 10172 C 1014.81 -4.47999 0.00968135 0
M  V30 10173 C 1016.55 -3.88151 -1.71868 0
M  V30 10174 C 1014.46 -5.89223 -0.507029 0
M  V30 10175 H 1013.39 -0.721245 -0.219823 0
M  V30 10176 H 1016.04 -1.82787 0.161566 0
M  V30 10177 H 1014.42 -3.48873 -1.87359 0
M  V30 10178 H 1015.6 -4.54067 0.784865 0
M  V30 10179 H 1013.91 -4.12714 0.552845 0
M  V30 10180 H 1016.51 -4.91056 -2.11585 0
M  V30 10181 H 1016.85 -3.26347 -2.58464 0
M  V30 10182 H 1017.38 -3.85252 -0.991259 0
M  V30 10183 H 1014.12 -6.54708 0.322121 0
M  V30 10184 H 1013.64 -5.86643 -1.2494 0
M  V30 10185 H 1015.32 -6.39556 -0.978628 0
M  V30 10186 N 1015.45 0.186762 -1.56489 0
M  V30 10187 C 1016.68 0.925916 -1.85584 0
M  V30 10188 C 1017.1 1.75708 -0.671446 0
M  V30 10189 O 1016.46 1.7728 0.379687 0
M  V30 10190 C 1016.51 1.79107 -3.12975 0
M  V30 10191 O 1015.61 2.89088 -2.94112 0
M  V30 10192 H 1014.96 0.260275 -0.610863 0
M  V30 10193 H 1017.49 0.189561 -2.0372 0
M  V30 10194 H 1017.5 2.19408 -3.43983 0
M  V30 10195 H 1016.17 1.18044 -3.98796 0
M  V30 10196 H 1014.75 2.52482 -2.74422 0
M  V30 10197 N 1016.93 1.50896 0.454776 0
M  V30 10198 C 1018.18 1.6294 1.20741 0
M  V30 10199 C 1018.51 0.336339 1.91265 0
M  V30 10200 O 1017.79 -0.663153 1.82846 0
M  V30 10201 C 1018.07 2.82092 2.23822 0
M  V30 10202 C 1017.92 4.21326 1.57495 0
M  V30 10203 C 1019.24 2.96777 3.24979 0
M  V30 10204 H 1016.36 0.59302 0.437603 0
M  V30 10205 H 1019 1.83331 0.498959 0
M  V30 10206 H 1017.15 2.64837 2.84243 0
M  V30 10207 H 1018.82 4.50209 1.00546 0
M  V30 10208 H 1017.07 4.24829 0.877664 0
M  V30 10209 H 1017.74 5.00656 2.32482 0
M  V30 10210 H 1020.21 3.12627 2.74597 0
M  V30 10211 H 1019.09 3.81742 3.94416 0
M  V30 10212 H 1019.35 2.08091 3.90065 0
M  V30 10213 N 1018.41 -0.709066 1.40748 0
M  V30 10214 C 1019.34 -1.83412 1.37451 0
M  V30 10215 C 1020.36 -1.60394 0.27884 0
M  V30 10216 O 1021.54 -1.70147 0.539642 0
M  V30 10217 C 1018.64 -3.19935 1.1178 0
M  V30 10218 C 1017.82 -3.70095 2.33128 0
M  V30 10219 C 1016.88 -4.85249 2.03518 0
M  V30 10220 O 1015.9 -4.97563 2.76442 0
M  V30 10221 N 1017.1 -5.7152 1.01714 0
M  V30 10222 H 1019.87 -1.86736 2.34414 0
M  V30 10223 H 1017.43 -0.890863 1.35186 0
M  V30 10224 H 1019.42 -3.94578 0.899464 0
M  V30 10225 H 1017.99 -3.11718 0.234624 0
M  V30 10226 H 1017.21 -2.8651 2.70751 0
M  V30 10227 H 1018.5 -4.00344 3.1401 0
M  V30 10228 H 1017.9 -5.64188 0.413307 0
M  V30 10229 H 1016.46 -6.46119 0.858696 0
M  V30 10230 N 1019.89 -1.26353 -0.941956 0
M  V30 10231 C 1021.14 -1.12017 -1.69056 0
M  V30 10232 C 1021.47 0.335856 -1.91274 0
M  V30 10233 O 1020.74 1.24677 -1.49285 0
M  V30 10234 C 1021.03 -1.88889 -3.06583 0
M  V30 10235 C 1020.88 -3.42394 -2.91696 0
M  V30 10236 C 1022.2 -1.68209 -4.06686 0
M  V30 10237 H 1019.32 -0.408311 -0.613556 0
M  V30 10238 H 1021.96 -1.55339 -1.09407 0
M  V30 10239 H 1020.11 -1.5207 -3.57501 0
M  V30 10240 H 1021.78 -3.88962 -2.48005 0
M  V30 10241 H 1020.02 -3.69459 -2.27338 0
M  V30 10242 H 1020.7 -3.91408 -3.89235 0
M  V30 10243 H 1023.17 -2.00286 -3.64726 0
M  V30 10244 H 1022.05 -2.24412 -5.00929 0
M  V30 10245 H 1022.31 -0.626474 -4.37639 0
M  V30 10246 N 1021.37 1.14642 -1.08144 0
M  V30 10247 C 1022.32 2.21708 -0.703448 0
M  V30 10248 C 1023.31 1.66907 0.289535 0
M  V30 10249 O 1024.52 1.79354 0.152387 0
M  V30 10250 H 1020.89 0.722247 -0.209437 0
M  V30 10251 H 1022.86 2.50862 -1.61588 0
M  V30 10252 C 1021.61 3.47472 -0.125975 0
M  V30 10253 H 1020.93 3.89967 -0.881216 0
M  V30 10254 H 1022.37 4.2388 0.100737 0
M  V30 10255 C 1020.83 3.17189 1.13546 0
M  V30 10256 O 1021.36 3.34733 2.22073 0
M  V30 10257 N 1019.57 2.71169 1.04479 0
M  V30 10258 H 1019.12 2.57093 0.161566 0
M  V30 10259 H 1019.07 2.51282 1.88957 0
M  V30 10260 N 1022.85 0.866709 1.31628 0
M  V30 10261 C 1024.07 0.48956 2.01539 0
M  V30 10262 C 1024.5 -0.909556 1.64647 0
M  V30 10263 O 1023.85 -1.59959 0.853391 0
M  V30 10264 C 1023.9 0.650176 3.5469 0
M  V30 10265 O 1023.01 -0.311908 4.11219 0
M  V30 10266 H 1022.35 0.195144 0.634677 0
M  V30 10267 H 1024.88 1.16923 1.679 0
M  V30 10268 H 1024.89 0.542236 4.04381 0
M  V30 10269 H 1023.56 1.67038 3.80882 0
M  V30 10270 H 1022.14 -0.159197 3.7256 0
M  V30 10271 N 1024.32 -1.44642 0.625825 0
M  V30 10272 C 1025.57 -2.01308 0.125682 0
M  V30 10273 C 1025.89 -1.49773 -1.25807 0
M  V30 10274 O 1027.09 -1.98533 -1.85194 0
M  V30 10275 C 1025.55 -3.59479 0.17395 0
M  V30 10276 C 1025.16 -4.20011 1.55868 0
M  V30 10277 C 1026.9 -4.2364 -0.270005 0
M  V30 10278 C 1024.81 -5.7039 1.56235 0
M  V30 10279 H 1023.74 -0.75276 0.0432194 0
M  V30 10280 H 1026.39 -1.65916 0.783842 0
M  V30 10281 H 1024.77 -3.92145 -0.551212 0
M  V30 10282 H 1025.94 -3.98891 2.307 0
M  V30 10283 H 1024.26 -3.68116 1.94627 0
M  V30 10284 H 1026.86 -5.33931 -0.28672 0
M  V30 10285 H 1027.2 -3.95603 -1.29629 0
M  V30 10286 H 1027.73 -3.95759 0.402487 0
M  V30 10287 H 1024.47 -6.03154 2.56683 0
M  V30 10288 H 1023.99 -5.93648 0.856881 0
M  V30 10289 H 1025.67 -6.33929 1.29396 0
M  V30 10290 N 1025.8 -0.366053 -1.5329 0
M  V30 10291 C 1026.75 0.480205 -2.25749 0
M  V30 10292 C 1027.72 1.07713 -1.2644 0
M  V30 10293 O 1028.9 1.10953 -1.55222 0
M  V30 10294 C 1026.04 1.61374 -3.05045 0
M  V30 10295 C 1025.16 1.04194 -4.19246 0
M  V30 10296 C 1024.29 2.14462 -4.85983 0
M  V30 10297 C 1023.33 1.5475 -5.92215 0
M  V30 10298 N 1022.47 2.58852 -6.52641 0
M  V30 10299 H 1027.31 -0.144199 -2.97651 0
M  V30 10300 H 1024.84 -0.0829321 -1.46866 0
M  V30 10301 H 1026.8 2.28144 -3.49294 0
M  V30 10302 H 1025.43 2.2088 -2.35397 0
M  V30 10303 H 1024.48 0.264514 -3.79479 0
M  V30 10304 H 1025.8 0.565379 -4.95585 0
M  V30 10305 H 1024.95 2.89051 -5.33418 0
M  V30 10306 H 1023.69 2.6547 -4.09117 0
M  V30 10307 H 1022.69 0.786759 -5.44142 0
M  V30 10308 H 1023.92 1.04566 -6.71001 0
M  V30 10309 H 1021.87 3.09073 -5.78627 0
M  V30 10310 H 1021.78 2.15884 -7.24521 0
M  V30 10311 H 1023.05 3.33142 -7.04724 0
M  V30 10312 N 1027.28 1.57312 -0.0952337 0
M  V30 10313 C 1028.53 1.94358 0.568442 0
M  V30 10314 C 1028.85 0.97698 1.68182 0
M  V30 10315 O 1028.11 -0.00340398 1.957 0
M  V30 10316 C 1028.41 3.37937 1.16332 0
M  V30 10317 C 1028.07 4.50565 0.173715 0
M  V30 10318 C 1026.74 4.81099 -0.0984673 0
M  V30 10319 C 1029.09 5.18777 -0.501992 0
M  V30 10320 C 1026.42 5.77172 -1.05305 0
M  V30 10321 C 1028.77 6.15874 -1.44505 0
M  V30 10322 C 1027.43 6.44813 -1.72546 0
M  V30 10323 H 1026.7 0.711206 0.208007 0
M  V30 10324 H 1029.35 1.90734 -0.171096 0
M  V30 10325 H 1027.65 3.3814 1.97911 0
M  V30 10326 H 1029.35 3.63902 1.68453 0
M  V30 10327 H 1025.94 4.26766 0.396042 0
M  V30 10328 H 1030.13 4.95363 -0.304855 0
M  V30 10329 H 1025.38 5.97909 -1.2773 0
M  V30 10330 H 1029.56 6.67824 -1.97444 0
M  V30 10331 H 1027.18 7.19067 -2.46671 0
M  V30 10332 N 1028.76 -0.17846 1.56586 0
M  V30 10333 C 1030.03 -0.923096 1.72448 0
M  V30 10334 C 1030.41 -2.00692 0.654659 0
M  V30 10335 O 1029.76 -2.26079 -0.33171 0
M  V30 10336 C 1029.97 -1.49435 3.15389 0
M  V30 10337 C 1031.32 -1.97005 3.76131 0
M  V30 10338 O 1032.34 -1.59244 3.18622 0
M  V30 10339 O 1031.2 -2.66541 4.77094 0
M  V30 10340 H 1028.3 -0.434009 0.703964 0
M  V30 10341 H 1030.84 -0.16685 1.68878 0
M  V30 10342 H 1029.62 -0.713933 3.84732 0
M  V30 10343 H 1029.24 -2.31498 3.23256 0
M  V30 10344 N 1030.24 -1.51135 -0.446768 0
M  V30 10345 C 1031.46 -1.67411 -1.22427 0
M  V30 10346 C 1031.89 -0.367009 -1.84485 0
M  V30 10347 O 1031.24 0.67185 -1.68392 0
M  V30 10348 C 1031.29 -2.78473 -2.29096 0
M  V30 10349 O 1030.4 -2.41419 -3.34351 0
M  V30 10350 H 1029.74 -0.558512 -0.359111 0
M  V30 10351 H 1032.27 -1.97648 -0.5288 0
M  V30 10352 H 1032.28 -3.02277 -2.7403 0
M  V30 10353 H 1030.95 -3.73326 -1.83304 0
M  V30 10354 H 1029.53 -2.28152 -2.9496 0
M  V30 10355 N 1031.71 0.701592 -1.41122 0
M  V30 10356 C 1032.62 1.84548 -1.44841 0
M  V30 10357 C 1033.64 1.70654 -0.339594 0
M  V30 10358 O 1034.82 1.92675 -0.586378 0
M  V30 10359 C 1031.88 3.20477 -1.3227 0
M  V30 10360 C 1030.94 3.46524 -2.53415 0
M  V30 10361 C 1030.17 4.75968 -2.41434 0
M  V30 10362 O 1030.4 5.52037 -1.43566 0
M  V30 10363 O 1029.33 5.02664 -3.31078 0
M  V30 10364 H 1033.16 1.84367 -2.41335 0
M  V30 10365 H 1030.74 0.853863 -1.22595 0
M  V30 10366 H 1032.62 4.01642 -1.2752 0
M  V30 10367 H 1031.3 3.21355 -0.388889 0
M  V30 10368 H 1030.21 2.65313 -2.63742 0
M  V30 10369 H 1031.54 3.50455 -3.45604 0
M  V30 10370 O 1033.23 1.37719 0.843548 0
M  V30 10371 H 1033.92 1.24374 1.48496 0
M  V30 END ATOM
M  V30 BEGIN BOND
M  V30 END BOND
M  V30 END CTAB
M  END
$$$$
