drugbank_target|Q15067 Peroxisomal acyl-coenzyme A oxidase 1 (DB03147; DB07930)
 OpenBabel12092120473D

  0  0  0     0  0            999 V3000
M  V30 BEGIN CTAB
M  V30 COUNTS 10495 10611 0 0 0
M  V30 BEGIN ATOM
M  V30 1 H -0.908 1.98254 -0.117106 0
M  V30 2 N 0 1.576 0 0
M  V30 3 C 0.933 2.03868 1.02534 0
M  V30 4 C 1.911 0.928543 1.3348 0
M  V30 5 O 3.095 1.19667 1.45644 0
M  V30 6 C 0.222 2.43627 2.35294 0
M  V30 7 C -0.732 3.65373 2.2001 0
M  V30 8 S 0.101 5.13292 1.52614 0
M  V30 9 C 1.257 5.56322 2.86805 0
M  V30 10 H 1.49 2.90518 0.631377 0
M  V30 11 H -0.977 1.52953 0.210867 0
M  V30 12 H 0.981 2.67203 3.11629 0
M  V30 13 H -0.358 1.57376 2.7183 0
M  V30 14 H -1.165 3.90944 3.18086 0
M  V30 15 H -1.563 3.418 1.51819 0
M  V30 16 H 0.729 5.58782 3.83104 0
M  V30 17 H 1.672 6.56266 2.65933 0
M  V30 18 H 2.08 4.83886 2.90714 0
M  V30 19 N 1.4781 -0.272755 1.55222 0
M  V30 20 C 2.4261 -1.35705 1.88909 0
M  V30 21 C 3.4201 -1.5112 0.765456 0
M  V30 22 O 4.6261 -1.52901 0.949802 0
M  V30 23 H 1.0011 -0.453868 0.59959 0
M  V30 24 H 2.9721 -1.04544 2.79487 0
M  V30 25 C 1.7211 -2.71049 2.17779 0
M  V30 26 H 1.0441 -2.59979 3.03728 0
M  V30 27 H 2.4841 -3.45858 2.45272 0
M  V30 28 C 0.9431 -3.22165 0.985473 0
M  V30 29 O 1.4731 -4.01096 0.220233 0
M  V30 30 N -0.3209 -2.7985 0.783108 0
M  V30 31 H -0.7739 -2.15775 1.40708 0
M  V30 32 H -0.8159 -3.14397 -0.0130392 0
M  V30 33 N 2.9562 -1.48159 -0.537278 0
M  V30 34 C 4.3672 -1.49429 -1.11928 0
M  V30 35 C 4.7182 -0.26 -1.9447 0
M  V30 36 O 3.8432 0.633489 -2.0692 0
M  V30 37 C 4.4382 -2.70758 -2.03656 0
M  V30 38 C 2.9972 -2.74923 -2.57088 0
M  V30 39 C 2.1442 -2.42835 -1.3389 0
M  V30 40 H 5.0952 -1.55381 -0.322886 0
M  V30 41 H 5.1162 -2.48861 -2.87834 0
M  V30 42 H 4.6282 -3.60575 -1.43553 0
M  V30 43 H 2.7292 -1.89296 -3.20933 0
M  V30 44 H 2.8422 -3.76157 -2.9672 0
M  V30 45 H 1.2062 -1.93836 -1.65226 0
M  V30 46 H 1.9892 -3.34884 -0.755504 0
M  V30 47 N 4.4343 0.785586 -1.36625 0
M  V30 48 C 5.7113 1.53198 -1.21613 0
M  V30 49 C 6.0913 2.10187 0.196113 0
M  V30 50 O 5.4393 1.94318 1.20219 0
M  V30 51 C 5.6493 2.62388 -2.30116 0
M  V30 52 C 6.9973 3.30167 -2.66974 0
M  V30 53 O 8.0213 2.72674 -2.29188 0
M  V30 54 O 6.8803 4.34077 -3.32023 0
M  V30 55 H 3.9743 0.677865 -0.473738 0
M  V30 56 H 6.5203 0.823739 -1.48367 0
M  V30 57 H 5.2923 2.18299 -3.24748 0
M  V30 58 H 4.9153 3.40827 -2.0475 0
M  V30 59 N 5.9124 1.20967 1.01018 0
M  V30 60 C 6.8424 0.988272 2.11555 0
M  V30 61 C 7.8234 -0.0849778 1.69888 0
M  V30 62 O 9.0084 0.0738202 1.9406 0
M  V30 63 C 6.1384 0.546528 3.42973 0
M  V30 64 C 5.0924 1.56375 3.9841 0
M  V30 65 C 4.4184 0.97842 5.25672 0
M  V30 66 C 5.7184 2.94922 4.31066 0
M  V30 67 H 7.4124 1.91276 2.30334 0
M  V30 68 H 4.9584 0.921073 1.1069 0
M  V30 69 H 6.9114 0.378839 4.19694 0
M  V30 70 H 5.6354 -0.413598 3.23971 0
M  V30 71 H 4.2944 1.71891 3.23804 0
M  V30 72 H 3.9424 0.0101688 5.02999 0
M  V30 73 H 3.6424 1.65784 5.63728 0
M  V30 74 H 5.1664 0.821939 6.05043 0
M  V30 75 H 6.5804 2.8288 4.9865 0
M  V30 76 H 4.9774 3.5983 4.80253 0
M  V30 77 H 6.0474 3.4616 3.39561 0
M  V30 78 N 7.3905 -1.2043 1.01659 0
M  V30 79 C 8.8065 -1.41852 0.731442 0
M  V30 80 C 9.0065 -1.89358 -0.688898 0
M  V30 81 O 8.0625 -2.06247 -1.45666 0
M  V30 82 C 9.3755 -2.44019 1.75714 0
M  V30 83 C 10.9235 -2.57785 1.77527 0
M  V30 84 C 11.3985 -3.63194 2.79023 0
M  V30 85 N 12.8895 -3.70678 2.77763 0
M  V30 86 C 13.6245 -4.51897 3.52954 0
M  V30 87 N 13.1205 -5.36921 4.37821 0
M  V30 88 N 14.9135 -4.4643 3.41551 0
M  V30 89 H 7.0645 -0.879093 1.93354 0
M  V30 90 H 9.3275 -0.448425 0.835236 0
M  V30 91 H 9.0335 -2.1611 2.77469 0
M  V30 92 H 8.9075 -3.43007 1.56927 0
M  V30 93 H 11.2945 -2.85023 0.764569 0
M  V30 94 H 11.3755 -1.58992 2.00387 0
M  V30 95 H 11.0195 -3.36699 3.80258 0
M  V30 96 H 10.9495 -4.61609 2.53425 0
M  V30 97 H 13.4405 -3.09944 2.16201 0
M  V30 98 H 13.7535 -5.95981 4.91962 0
M  V30 99 H 12.0985 -5.36424 4.41899 0
M  V30 100 H 15.2895 -3.79042 2.74672 0
M  V30 101 H 15.4625 -5.09491 4.00404 0
M  V30 102 N 8.8686 -0.792821 -1.36206 0
M  V30 103 C 10.2846 -0.474903 -1.52371 0
M  V30 104 C 10.4846 1.00622 -1.74578 0
M  V30 105 O 9.5406 1.79162 -1.77924 0
M  V30 106 C 10.8536 -1.3083 -2.70747 0
M  V30 107 C 12.4016 -1.30234 -2.84619 0
M  V30 108 C 12.8766 -2.11956 -4.06004 0
M  V30 109 N 14.3676 -2.09419 -4.13156 0
M  V30 110 C 15.1026 -2.69419 -5.06163 0
M  V30 111 N 14.5986 -3.3829 -6.04592 0
M  V30 112 N 16.3916 -2.59134 -4.98804 0
M  V30 113 H 8.5426 -1.75222 -1.20046 0
M  V30 114 H 10.8056 -0.745024 -0.586211 0
M  V30 115 H 10.5116 -2.35881 -2.6087 0
M  V30 116 H 10.3856 -0.95196 -3.6499 0
M  V30 117 H 12.7726 -0.259748 -2.93955 0
M  V30 118 H 12.8536 -1.69847 -1.91274 0
M  V30 119 H 12.4976 -3.16248 -3.97429 0
M  V30 120 H 12.4276 -1.69711 -4.98503 0
M  V30 121 H 14.9186 -1.59297 -3.42685 0
M  V30 122 H 15.2316 -3.81394 -6.7213 0
M  V30 123 H 13.5766 -3.42393 -6.04807 0
M  V30 124 H 16.7676 -2.04927 -4.20859 0
M  V30 125 H 16.9406 -3.06185 -5.711 0
M  V30 126 N 10.3467 1.47872 -0.545128 0
M  V30 127 C 11.2567 2.33633 0.212746 0
M  V30 128 C 12.2727 1.4744 0.923983 0
M  V30 129 O 13.4487 1.80393 0.895572 0
M  V30 130 C 10.5137 3.23884 1.23693 0
M  V30 131 C 9.5747 4.25961 0.534417 0
M  V30 132 C 8.8077 5.11899 1.5098 0
M  V30 133 O 9.0307 5.00077 2.7437 0
M  V30 134 O 7.9647 5.92831 1.0409 0
M  V30 135 H 11.7907 2.99714 -0.490416 0
M  V30 136 H 9.3757 1.46235 -0.305871 0
M  V30 137 H 11.2577 3.79666 1.82843 0
M  V30 138 H 9.9327 2.60446 1.92222 0
M  V30 139 H 8.8397 3.73972 -0.0979679 0
M  V30 140 H 10.1727 4.92079 -0.109213 0
M  V30 141 N 11.8248 0.280983 1.55075 0
M  V30 142 C 13.2408 -0.0729964 1.59433 0
M  V30 143 C 13.4408 -1.5411 1.29817 0
M  V30 144 O 12.4968 -2.29086 1.06187 0
M  V30 145 C 13.8098 0.306921 2.9913 0
M  V30 146 C 15.3578 0.254023 3.11968 0
M  V30 147 C 15.8328 0.608467 4.5394 0
M  V30 148 N 17.3238 0.560241 4.59799 0
M  V30 149 C 18.0588 0.80722 5.6769 0
M  V30 150 N 17.5548 1.11912 6.83701 0
M  V30 151 N 19.3478 0.735623 5.57266 0
M  V30 152 H 11.4988 1.238 1.7259 0
M  V30 153 H 13.7618 0.500547 0.805082 0
M  V30 154 H 13.4678 1.32816 3.25657 0
M  V30 155 H 13.3418 -0.349363 3.75579 0
M  V30 156 H 15.7288 -0.75794 2.852 0
M  V30 157 H 15.8098 0.944649 2.37718 0
M  V30 158 H 15.4538 1.61814 4.81434 0
M  V30 159 H 15.3838 -0.104013 5.26497 0
M  V30 160 H 17.8748 0.329288 3.76463 0
M  V30 161 H 18.1878 1.29409 7.61888 0
M  V30 162 H 16.5328 1.15695 6.85303 0
M  V30 163 H 19.7238 0.491752 4.6551 0
M  V30 164 H 19.8968 0.931482 6.4127 0
M  V30 165 N 13.3029 -1.57598 0.00835791 0
M  V30 166 C 14.5799 -1.82172 -0.712235 0
M  V30 167 C 14.9599 -0.887873 -1.9152 0
M  V30 168 O 14.3079 0.06146 -2.28417 0
M  V30 169 C 14.5179 -3.30875 -1.11008 0
M  V30 170 C 15.8659 -3.96826 -1.51044 0
M  V30 171 O 16.8899 -3.35248 -1.20364 0
M  V30 172 O 15.7489 -5.05318 -2.08125 0
M  V30 173 H 12.8429 -0.750435 -0.347529 0
M  V30 174 H 15.3889 -1.69665 0.0344523 0
M  V30 175 H 14.1609 -3.90481 -0.252982 0
M  V30 176 H 13.7839 -3.48412 -1.9156 0
M  V30 177 N 14.781 0.264519 -1.55364 0
M  V30 178 C 16.006 1.01726 -1.80739 0
M  V30 179 C 16.431 1.78836 -0.583044 0
M  V30 180 O 15.789 1.75167 0.467566 0
M  V30 181 C 15.837 1.94482 -3.03659 0
M  V30 182 O 14.941 3.03386 -2.7934 0
M  V30 183 H 14.282 0.290395 -0.597132 0
M  V30 184 H 16.812 0.290854 -2.02522 0
M  V30 185 H 16.822 2.36278 -3.32621 0
M  V30 186 H 15.497 1.37772 -3.92418 0
M  V30 187 H 14.074 2.65844 -2.61498 0
M  V30 188 N 16.2591 1.48442 0.529413 0
M  V30 189 C 17.2221 1.62524 1.61612 0
M  V30 190 C 18.2221 0.498509 1.52877 0
M  V30 191 O 19.4121 0.76431 1.56537 0
M  V30 192 C 16.5441 1.59597 3.01233 0
M  V30 193 H 17.7371 2.59423 1.50465 0
M  V30 194 H 15.2901 1.37047 0.751514 0
M  V30 195 H 16.0251 0.641781 3.17886 0
M  V30 196 H 15.8101 2.41397 3.08982 0
M  V30 197 H 17.3001 1.72646 3.80241 0
M  V30 198 N 17.7372 -0.778329 1.37039 0
M  V30 199 C 18.9622 -1.57248 1.35233 0
M  V30 200 C 19.3872 -1.87999 -0.0615568 0
M  V30 201 O 18.7452 -1.48734 -1.03672 0
M  V30 202 C 18.7932 -2.86353 2.19167 0
M  V30 203 O 17.8972 -3.80442 1.59178 0
M  V30 204 H 17.2382 -0.476569 0.462362 0
M  V30 205 H 19.7682 -0.963853 1.80474 0
M  V30 206 H 19.7782 -3.35519 2.32145 0
M  V30 207 H 18.4532 -2.63299 3.21942 0
M  V30 208 H 17.0302 -3.39067 1.55203 0
M  V30 209 N 19.2153 -1.21501 -1.00376 0
M  V30 210 C 20.4623 -1.03299 -1.74171 0
M  V30 211 C 20.7903 0.433326 -1.89612 0
M  V30 212 O 20.0453 1.33779 -1.42834 0
M  V30 213 C 20.3443 -1.67673 -3.15627 0
M  V30 214 C 20.0103 -3.17533 -3.2013 0
M  V30 215 C 18.6723 -3.58427 -3.21067 0
M  V30 216 C 21.0243 -4.13504 -3.17275 0
M  V30 217 C 18.3523 -4.93794 -3.16835 0
M  V30 218 C 20.7043 -5.48834 -3.14585 0
M  V30 219 C 19.3683 -5.89123 -3.13831 0
M  V30 220 H 18.6383 -0.377999 -0.637336 0
M  V30 221 H 21.2853 -1.51111 -1.17634 0
M  V30 222 H 19.5903 -1.12158 -3.75404 0
M  V30 223 H 21.2873 -1.51091 -3.71446 0
M  V30 224 H 17.8773 -2.84965 -3.20145 0
M  V30 225 H 22.0613 -3.82936 -3.15711 0
M  V30 226 H 17.3173 -5.24255 -3.1459 0
M  V30 227 H 21.4913 -6.22934 -3.1133 0
M  V30 228 H 19.1183 -6.93984 -3.10307 0
M  V30 229 N 20.6934 1.19889 -1.02296 0
M  V30 230 C 21.6414 2.24938 -0.592081 0
M  V30 231 C 22.6354 1.65257 0.372357 0
M  V30 232 O 23.8414 1.78371 0.241583 0
M  V30 233 H 20.2164 0.731787 -0.173182 0
M  V30 234 H 22.1874 2.58603 -1.48885 0
M  V30 235 C 20.9364 3.47668 0.047351 0
M  V30 236 H 20.2594 3.93875 -0.685772 0
M  V30 237 H 21.6994 4.22852 0.311862 0
M  V30 238 C 20.1584 3.11136 1.29212 0
M  V30 239 O 20.6884 3.2325 2.38479 0
M  V30 240 N 18.8944 2.65625 1.17863 0
M  V30 241 H 18.4414 2.55968 0.289493 0
M  V30 242 H 18.3994 2.41553 2.01245 0
M  V30 243 N 22.1715 0.800033 1.35784 0
M  V30 244 C 23.5825 0.439142 1.81462 0
M  V30 245 C 23.9335 -1.03813 1.66485 0
M  V30 246 O 23.0585 -1.80626 1.19177 0
M  V30 247 C 23.6535 0.790314 3.29453 0
M  V30 248 C 22.2125 0.482111 3.733 0
M  V30 249 C 21.3595 1.01938 2.57883 0
M  V30 250 H 24.3105 0.992254 1.23855 0
M  V30 251 H 24.3315 0.0853677 3.80404 0
M  V30 252 H 23.8435 1.86554 3.40322 0
M  V30 253 H 21.9445 -0.584652 3.67984 0
M  V30 254 H 22.0575 1.01015 4.6833 0
M  V30 255 H 20.4215 0.442043 2.50835 0
M  V30 256 H 21.2045 2.10059 2.71533 0
M  V30 257 N 23.6496 -1.47581 0.552962 0
M  V30 258 C 24.5596 -2.33743 -0.200353 0
M  V30 259 C 25.5756 -1.47928 -0.916151 0
M  V30 260 O 26.7516 -1.80865 -0.885993 0
M  V30 261 C 23.8166 -3.24536 -1.21973 0
M  V30 262 C 22.8776 -4.26238 -0.511819 0
M  V30 263 C 22.1106 -5.12693 -1.48263 0
M  V30 264 O 22.3336 -5.01525 -2.71714 0
M  V30 265 O 21.2676 -5.93375 -1.00945 0
M  V30 266 H 25.0936 -2.9945 0.506304 0
M  V30 267 H 22.6786 -1.46071 0.313622 0
M  V30 268 H 24.5606 -3.80631 -1.80827 0
M  V30 269 H 23.2356 -2.61462 -1.90839 0
M  V30 270 H 22.1426 -3.73914 0.117799 0
M  V30 271 H 23.4756 -4.92014 0.135308 0
M  V30 272 N 25.1277 -0.289203 -1.54924 0
M  V30 273 C 26.0577 0.58549 -2.2604 0
M  V30 274 C 27.0387 1.14753 -1.25562 0
M  V30 275 O 28.2237 1.17906 -1.54311 0
M  V30 276 C 25.3537 1.76305 -2.99222 0
M  V30 277 C 24.3077 1.33191 -4.06748 0
M  V30 278 C 23.6337 2.5937 -4.6758 0
M  V30 279 C 24.9337 0.471775 -5.20165 0
M  V30 280 H 26.6277 -0.00763532 -2.99399 0
M  V30 281 H 24.1737 -0.00511229 -1.43999 0
M  V30 282 H 26.1267 2.38097 -3.47689 0
M  V30 283 H 24.8507 2.38223 -2.23422 0
M  V30 284 H 23.5097 0.737121 -3.59113 0
M  V30 285 H 23.1577 3.19576 -3.88433 0
M  V30 286 H 22.8577 2.31228 -5.40192 0
M  V30 287 H 24.3817 3.21985 -5.18804 0
M  V30 288 H 25.7957 0.995056 -5.64599 0
M  V30 289 H 24.1927 0.284639 -5.99425 0
M  V30 290 H 25.2627 -0.506041 -4.82252 0
M  V30 291 N 26.6058 1.57591 -0.0167156 0
M  V30 292 C 27.5358 2.12496 0.967858 0
M  V30 293 C 28.5168 1.03807 1.34752 0
M  V30 294 O 29.7018 1.31577 1.42833 0
M  V30 295 C 26.8318 2.64194 2.25431 0
M  V30 296 C 25.7858 3.77559 2.01576 0
M  V30 297 C 25.1118 4.15636 3.36379 0
M  V30 298 C 26.4118 5.04151 1.36489 0
M  V30 299 H 28.1058 2.95013 0.510643 0
M  V30 300 H 25.6518 1.41915 0.244181 0
M  V30 301 H 27.6048 3.01236 2.94678 0
M  V30 302 H 26.3288 1.78821 2.73296 0
M  V30 303 H 24.9878 3.40937 1.34751 0
M  V30 304 H 24.6358 3.27263 3.81979 0
M  V30 305 H 24.3358 4.92022 3.21229 0
M  V30 306 H 25.8598 4.5525 4.06915 0
M  V30 307 H 27.2738 5.38857 1.95718 0
M  V30 308 H 25.6708 5.85453 1.31776 0
M  V30 309 H 26.7408 4.83733 0.336219 0
M  V30 310 N 28.0839 -0.256276 1.55502 0
M  V30 311 C 29.3119 -1.00342 1.8094 0
M  V30 312 C 29.7269 -1.79307 0.59114 0
M  V30 313 O 29.0839 -1.77114 -0.440081 0
M  V30 314 C 29.1349 -1.94875 3.04476 0
M  V30 315 O 28.8559 -1.19107 4.21598 0
M  V30 316 C 30.3569 -2.81266 3.42644 0
M  V30 317 H 27.5769 -0.295685 0.602338 0
M  V30 318 H 30.1209 -0.281998 2.02546 0
M  V30 319 H 28.2759 -2.62457 2.84947 0
M  V30 320 H 28.6899 -1.82969 4.91551 0
M  V30 321 H 30.1639 -3.43362 4.32211 0
M  V30 322 H 30.6409 -3.51897 2.62802 0
M  V30 323 H 31.2469 -2.1915 3.64491 0
M  V30 324 N 29.562 -1.4872 -0.521534 0
M  V30 325 C 30.512 -1.60269 -1.62166 0
M  V30 326 C 31.496 -0.45935 -1.54204 0
M  V30 327 O 32.688 -0.711241 -1.62081 0
M  V30 328 C 29.817 -1.65344 -3.00859 0
M  V30 329 C 28.903 -2.85187 -3.13894 0
M  V30 330 N 29.294 -4.09509 -2.96877 0
M  V30 331 C 27.592 -2.82695 -3.44963 0
M  V30 332 C 28.293 -4.89959 -3.13552 0
M  V30 333 N 27.269 -4.22934 -3.41508 0
M  V30 334 H 31.071 -2.5413 -1.47632 0
M  V30 335 H 28.585 -1.45209 -0.727194 0
M  V30 336 H 30.582 -1.71713 -3.79895 0
M  V30 337 H 29.242 -0.726058 -3.16478 0
M  V30 338 H 30.253 -4.39814 -2.73467 0
M  V30 339 H 26.93 -1.99249 -3.66887 0
M  V30 340 H 28.32 -5.98654 -3.05061 0
M  V30 341 N 31.0401 0.771051 -1.3745 0
M  V30 342 C 32.2891 1.52491 -1.3202 0
M  V30 343 C 32.6021 1.9538 0.0927347 0
M  V30 344 O 33.8081 2.70159 0.269503 0
M  V30 345 C 32.2641 2.75366 -2.31736 0
M  V30 346 C 31.8721 2.39573 -3.78562 0
M  V30 347 C 33.6161 3.53307 -2.35318 0
M  V30 348 C 31.5231 3.58954 -4.70007 0
M  V30 349 H 30.4531 0.572506 -0.490666 0
M  V30 350 H 33.1041 0.844474 -1.62914 0
M  V30 351 H 31.4861 3.45303 -1.93861 0
M  V30 352 H 32.6601 1.77415 -4.25277 0
M  V30 353 H 30.9751 1.74805 -3.77932 0
M  V30 354 H 33.5721 4.42039 -3.00842 0
M  V30 355 H 33.9151 3.93217 -1.36698 0
M  V30 356 H 34.4481 2.90367 -2.71904 0
M  V30 357 H 31.1871 3.24125 -5.69757 0
M  V30 358 H 30.7071 4.20214 -4.27996 0
M  V30 359 H 32.3861 4.25758 -4.87175 0
M  V30 360 N 32.5182 1.22032 0.997298 0
M  V30 361 C 33.4482 1.01065 2.10495 0
M  V30 362 C 34.4292 -0.0669542 1.69968 0
M  V30 363 O 35.6142 0.0943987 1.9397 0
M  V30 364 C 32.7442 0.582874 3.42374 0
M  V30 365 C 31.6982 1.60592 3.96729 0
M  V30 366 C 31.0242 1.03412 5.24605 0
M  V30 367 C 32.3242 2.99478 4.27914 0
M  V30 368 H 34.0182 1.93708 2.28292 0
M  V30 369 H 31.5642 0.932761 1.09707 0
M  V30 370 H 33.5172 0.423332 4.19268 0
M  V30 371 H 32.2412 -0.379213 3.24391 0
M  V30 372 H 30.9002 1.75316 3.21963 0
M  V30 373 H 30.5482 0.063518 5.0296 0
M  V30 374 H 30.2482 1.71754 5.61938 0
M  V30 375 H 31.7722 0.886066 6.04137 0
M  V30 376 H 33.1862 2.88153 4.95622 0
M  V30 377 H 31.5832 3.64903 4.76409 0
M  V30 378 H 32.6532 3.49742 3.3587 0
M  V30 379 N 33.9963 -1.19345 1.0293 0
M  V30 380 C 35.2733 -1.84811 0.640642 0
M  V30 381 C 35.6533 -1.91855 -0.88062 0
M  V30 382 O 35.0013 -1.43587 -1.7775 0
M  V30 383 C 35.2113 -3.23755 1.30321 0
M  V30 384 C 36.5593 -3.99912 1.42673 0
M  V30 385 O 37.5833 -3.33155 1.26041 0
M  V30 386 O 36.4423 -5.19494 1.6967 0
M  V30 387 H 33.5363 -0.796443 0.222726 0
M  V30 388 H 36.0823 -1.26831 1.12748 0
M  V30 389 H 34.8543 -3.13466 2.34211 0
M  V30 390 H 34.4773 -3.89381 0.804261 0
M  V30 391 N 35.4744 -0.807222 -1.35358 0
M  V30 392 C 36.7224 -0.387122 -1.98358 0
M  V30 393 C 37.0434 1.04942 -1.64354 0
M  V30 394 O 36.3134 1.72615 -0.926339 0
M  V30 395 H 34.8934 -0.140154 -0.733734 0
M  V30 396 H 37.5554 -1.0332 -1.6526 0
M  V30 397 H 36.6514 -0.493352 -3.08176 0
M  V30 398 N 36.9525 1.47285 -0.560781 0
M  V30 399 C 38.1775 2.07359 -0.0410566 0
M  V30 400 C 38.6025 1.41017 1.24483 0
M  V30 401 O 37.9605 0.486368 1.74654 0
M  V30 402 C 38.0085 3.6035 0.134123 0
M  V30 403 O 37.1125 3.94681 1.19587 0
M  V30 404 H 36.4535 0.661887 -0.0529291 0
M  V30 405 H 38.9835 1.89252 -0.777482 0
M  V30 406 H 38.9935 4.0652 0.347207 0
M  V30 407 H 37.6685 4.08034 -0.805047 0
M  V30 408 H 36.2455 3.60251 0.962987 0
M  V30 409 N 38.4306 0.297415 1.54768 0
M  V30 410 C 39.8416 -0.195947 1.85669 0
M  V30 411 C 40.1926 -1.53707 1.21937 0
M  V30 412 O 39.3176 -2.10164 0.515754 0
M  V30 413 C 39.9126 -0.362318 3.36857 0
M  V30 414 C 38.4716 -0.799901 3.67802 0
M  V30 415 C 37.6186 0.0938578 2.77141 0
M  V30 416 H 40.5696 0.518538 1.4999 0
M  V30 417 H 40.5906 -1.19745 3.61167 0
M  V30 418 H 40.1026 0.613921 3.83214 0
M  V30 419 H 38.2036 -1.78682 3.26961 0
M  V30 420 H 38.3166 -0.621773 4.75048 0
M  V30 421 H 36.6806 -0.426254 2.51108 0
M  V30 422 H 37.4636 1.06639 3.26318 0
M  V30 423 N 39.9087 -1.5758 0.0250728 0
M  V30 424 C 40.8187 -2.1343 -0.973905 0
M  V30 425 C 41.8347 -1.08556 -1.35984 0
M  V30 426 O 43.0107 -1.40592 -1.44207 0
M  V30 427 C 40.0757 -2.64703 -2.23904 0
M  V30 428 C 39.1367 -3.84276 -1.91391 0
M  V30 429 C 38.3697 -4.33095 -3.11873 0
M  V30 430 O 38.5927 -3.81107 -4.24398 0
M  V30 431 O 37.5267 -5.24984 -2.94406 0
M  V30 432 H 41.3527 -2.99057 -0.529036 0
M  V30 433 H 38.9377 -1.48118 -0.195288 0
M  V30 434 H 40.8197 -2.97769 -2.98181 0
M  V30 435 H 39.4947 -1.82161 -2.6758 0
M  V30 436 H 38.4017 -3.56143 -1.14511 0
M  V30 437 H 39.7347 -4.67968 -1.52534 0
M  V30 438 N 41.3868 0.248026 -1.55636 0
M  V30 439 C 42.3338 1.30707 -1.90222 0
M  V30 440 C 43.3038 1.47881 -0.756332 0
M  V30 441 O 44.4888 1.61883 -1.00988 0
M  V30 442 C 41.6288 2.65769 -2.20138 0
M  V30 443 C 40.7418 2.56612 -3.47526 0
M  V30 444 C 39.8768 3.8402 -3.67017 0
M  V30 445 C 38.9158 3.69476 -4.8801 0
M  V30 446 N 38.0528 4.88774 -5.04029 0
M  V30 447 H 42.8928 1.00512 -2.80538 0
M  V30 448 H 40.4298 0.485055 -1.38873 0
M  V30 449 H 42.3878 3.44386 -2.35487 0
M  V30 450 H 41.0178 2.94115 -1.33027 0
M  V30 451 H 40.0698 1.69571 -3.40514 0
M  V30 452 H 41.3818 2.41774 -4.36287 0
M  V30 453 H 40.5358 4.7108 -3.8232 0
M  V30 454 H 39.2748 4.01754 -2.76487 0
M  V30 455 H 38.2798 2.80799 -4.72686 0
M  V30 456 H 39.5048 3.53238 -5.8 0
M  V30 457 H 37.4508 5.0687 -4.16435 0
M  V30 458 H 37.3678 4.76562 -5.86877 0
M  V30 459 H 38.6358 5.77335 -5.23741 0
M  V30 460 N 42.8649 1.48995 0.513639 0
M  V30 461 C 44.0929 1.61531 1.29288 0
M  V30 462 C 44.5079 0.281801 1.86685 0
M  V30 463 O 43.8649 -0.731111 1.67215 0
M  V30 464 C 43.9159 2.67449 2.43215 0
M  V30 465 O 43.6369 3.95626 1.88179 0
M  V30 466 C 45.1379 2.90575 3.34785 0
M  V30 467 H 42.3579 0.544165 0.392588 0
M  V30 468 H 44.9019 1.9494 0.617956 0
M  V30 469 H 43.0569 2.36853 3.0656 0
M  V30 470 H 43.4709 4.53868 2.62876 0
M  V30 471 H 44.9449 3.68449 4.11035 0
M  V30 472 H 45.4219 2.00011 3.91015 0
M  V30 473 H 46.0279 3.22538 2.77218 0
M  V30 474 N 44.343 -0.763751 1.37857 0
M  V30 475 C 45.759 -1.06542 1.18832 0
M  V30 476 C 45.959 -2.01478 0.0299722 0
M  V30 477 O 45.015 -2.4458 -0.627447 0
M  V30 478 C 46.328 -1.65525 2.51042 0
M  V30 479 C 47.876 -1.77745 2.57635 0
M  V30 480 C 48.351 -2.4014 3.89996 0
M  V30 481 N 49.842 -2.47582 3.91481 0
M  V30 482 C 50.577 -2.96732 4.9065 0
M  V30 483 N 50.073 -3.45993 6.00217 0
M  V30 484 N 51.866 -2.95679 4.78048 0
M  V30 485 H 44.017 -0.133556 2.1198 0
M  V30 486 H 46.28 -0.121879 0.940133 0
M  V30 487 H 45.986 -1.03236 3.36207 0
M  V30 488 H 45.86 -2.64719 2.68707 0
M  V30 489 H 48.247 -2.39164 1.72872 0
M  V30 490 H 48.328 -0.772836 2.43846 0
M  V30 491 H 47.972 -1.79358 4.75177 0
M  V30 492 H 47.902 -3.41223 4.01092 0
M  V30 493 H 50.393 -2.1273 3.12337 0
M  V30 494 H 50.706 -3.81922 6.7183 0
M  V30 495 H 49.051 -3.44077 6.03851 0
M  V30 496 H 52.242 -2.56499 3.91568 0
M  V30 497 H 52.415 -3.33672 5.55488 0
M  V30 498 N 45.8211 -1.22559 -0.990812 0
M  V30 499 C 47.2371 -0.985996 -1.255 0
M  V30 500 C 47.4371 0.319173 -1.98956 0
M  V30 501 O 46.4931 1.04127 -2.3003 0
M  V30 502 C 47.8061 -2.18607 -2.06474 0
M  V30 503 C 49.3541 -2.22985 -2.19651 0
M  V30 504 C 49.8291 -3.4255 -3.04012 0
M  V30 505 N 51.3201 -3.42725 -3.11599 0
M  V30 506 C 52.0551 -4.31892 -3.7717 0
M  V30 507 N 51.5511 -5.31279 -4.44651 0
M  V30 508 N 53.3441 -4.19662 -3.73952 0
M  V30 509 H 45.4951 -2.06469 -0.49841 0
M  V30 510 H 47.7581 -0.904853 -0.282747 0
M  V30 511 H 47.4641 -3.13267 -1.59865 0
M  V30 512 H 47.3381 -2.18838 -3.07229 0
M  V30 513 H 49.7251 -1.28871 -2.65474 0
M  V30 514 H 49.8061 -2.26791 -1.18319 0
M  V30 515 H 49.4501 -4.36965 -2.58889 0
M  V30 516 H 49.3801 -3.35984 -4.0549 0
M  V30 517 H 51.8711 -2.70807 -2.63575 0
M  V30 518 H 52.1841 -5.95593 -4.92431 0
M  V30 519 H 50.5291 -5.3519 -4.43392 0
M  V30 520 H 53.7201 -3.41268 -3.20396 0
M  V30 521 H 53.8931 -4.89358 -4.24774 0
M  V30 522 N 47.2992 1.18797 -1.03562 0
M  V30 523 C 48.7152 1.40671 -0.753917 0
M  V30 524 C 48.9152 1.9043 0.658686 0
M  V30 525 O 47.9712 2.08538 1.42366 0
M  V30 526 C 49.2842 2.41192 -1.79574 0
M  V30 527 C 50.8322 2.54928 -1.81606 0
M  V30 528 C 51.3072 3.58709 -2.84766 0
M  V30 529 N 52.7982 3.66212 -2.83625 0
M  V30 530 C 53.5332 4.46225 -3.60098 0
M  V30 531 N 53.0292 5.29888 -4.46308 0
M  V30 532 N 54.8222 4.40939 -3.4861 0
M  V30 533 H 46.9732 0.848221 -1.94728 0
M  V30 534 H 49.2362 0.435081 -0.842264 0
M  V30 535 H 48.9422 2.11669 -2.80872 0
M  V30 536 H 48.8162 3.40467 -1.62365 0
M  V30 537 H 51.2032 2.83771 -0.809817 0
M  V30 538 H 51.2842 1.55784 -2.02891 0
M  V30 539 H 50.9282 3.30607 -3.85566 0
M  V30 540 H 50.8582 4.57519 -2.60737 0
M  V30 541 H 53.3492 3.06466 -2.21105 0
M  V30 542 H 53.6622 5.88078 -5.01382 0
M  V30 543 H 52.0072 5.29326 -4.50377 0
M  V30 544 H 55.1982 3.74624 -2.80668 0
M  V30 545 H 55.3712 5.03056 -4.08459 0
M  V30 546 N 48.7773 0.814389 1.34928 0
M  V30 547 C 50.1933 0.499084 1.51596 0
M  V30 548 C 50.3933 -0.978319 1.76157 0
M  V30 549 O 49.4493 -1.76309 1.80752 0
M  V30 550 C 50.7623 1.35121 2.68631 0
M  V30 551 C 52.3103 1.34746 2.82511 0
M  V30 552 C 52.7853 2.18388 4.0258 0
M  V30 553 N 54.2763 2.15966 4.09772 0
M  V30 554 C 55.0113 2.77437 5.01813 0
M  V30 555 N 54.5073 3.47866 5.99134 0
M  V30 556 N 56.3003 2.67037 4.94619 0
M  V30 557 H 48.4513 1.7711 1.17243 0
M  V30 558 H 50.7143 0.754256 0.574284 0
M  V30 559 H 50.4203 2.40001 2.57085 0
M  V30 560 H 50.2943 1.00991 3.63429 0
M  V30 561 H 52.6813 0.30648 2.93504 0
M  V30 562 H 52.7623 1.72869 1.88547 0
M  V30 563 H 52.4063 3.2253 3.92347 0
M  V30 564 H 52.3363 1.77621 4.9574 0
M  V30 565 H 54.8273 1.64729 3.40107 0
M  V30 566 H 55.1403 3.92038 6.65977 0
M  V30 567 H 53.4853 3.51972 5.99284 0
M  V30 568 H 56.6763 2.11597 4.17546 0
M  V30 569 H 56.8493 3.15232 5.66156 0
M  V30 570 N 50.2554 -1.46986 0.568584 0
M  V30 571 C 51.1654 -2.33942 -0.17555 0
M  V30 572 C 52.1814 -1.48891 -0.90041 0
M  V30 573 O 53.3574 -1.81794 -0.86676 0
M  V30 574 C 50.4224 -3.25811 -1.18524 0
M  V30 575 C 49.4834 -4.26757 -0.466582 0
M  V30 576 C 48.7164 -5.14236 -1.42817 0
M  V30 577 O 48.9394 -5.04379 -2.66379 0
M  V30 578 O 47.8734 -5.94412 -0.946453 0
M  V30 579 H 51.6994 -2.98896 0.538036 0
M  V30 580 H 49.2844 -1.4573 0.329097 0
M  V30 581 H 51.1664 -3.82527 -1.76779 0
M  V30 582 H 49.8414 -2.63471 -1.88055 0
M  V30 583 H 48.7484 -3.73769 0.157451 0
M  V30 584 H 50.0814 -4.91843 0.187485 0
M  V30 585 N 51.7335 -0.305618 -1.54608 0
M  V30 586 C 52.9825 0.303098 -1.9941 0
M  V30 587 C 53.2955 1.54648 -1.19764 0
M  V30 588 O 54.5015 2.23007 -1.54855 0
M  V30 589 C 52.9575 0.590588 -3.55021 0
M  V30 590 C 52.5655 -0.634719 -4.43481 0
M  V30 591 C 54.3095 1.16025 -4.08336 0
M  V30 592 C 52.2165 -0.320126 -5.90533 0
M  V30 593 H 51.1465 0.117031 -0.744862 0
M  V30 594 H 53.7975 -0.415045 -1.78745 0
M  V30 595 H 52.1795 1.36845 -3.71604 0
M  V30 596 H 53.3535 -1.41079 -4.38672 0
M  V30 597 H 51.6685 -1.12333 -4.00962 0
M  V30 598 H 54.2655 1.40994 -5.15776 0
M  V30 599 H 54.6085 2.10397 -3.5922 0
M  V30 600 H 55.1415 0.443985 -3.95315 0
M  V30 601 H 51.8805 -1.23254 -6.43808 0
M  V30 602 H 51.4005 0.418579 -5.98338 0
M  V30 603 H 53.0795 0.0766241 -6.46955 0
M  V30 604 N 53.2116 1.57565 -0.0334293 0
M  V30 605 C 54.1216 2.13943 0.962572 0
M  V30 606 C 55.1376 1.09276 1.35406 0
M  V30 607 O 56.3136 1.41355 1.4346 0
M  V30 608 C 53.3786 2.65887 2.22497 0
M  V30 609 C 52.4396 3.85286 1.8935 0
M  V30 610 C 51.6726 4.34743 3.09571 0
M  V30 611 O 51.8956 3.83352 4.22371 0
M  V30 612 O 50.8296 5.26538 2.91618 0
M  V30 613 H 54.6556 2.99333 0.513169 0
M  V30 614 H 52.2406 1.4822 0.18743 0
M  V30 615 H 54.1226 2.99346 2.96598 0
M  V30 616 H 52.7976 1.83578 2.6661 0
M  V30 617 H 51.7046 3.56746 1.1262 0
M  V30 618 H 53.0376 4.68771 1.5005 0
M  V30 619 N 54.6897 -0.239769 1.55765 0
M  V30 620 C 55.6377 -1.31668 1.91745 0
M  V30 621 C 56.6317 -1.49462 0.797338 0
M  V30 622 O 57.8377 -1.50852 0.982021 0
M  V30 623 H 54.2127 -0.441048 0.609082 0
M  V30 624 H 56.1837 -0.985923 2.81642 0
M  V30 625 C 54.9327 -2.66368 2.2348 0
M  V30 626 H 54.2557 -2.53478 3.09175 0
M  V30 627 H 55.6957 -3.40578 2.52553 0
M  V30 628 C 54.1547 -3.20002 1.05359 0
M  V30 629 O 54.6847 -4.00538 0.305261 0
M  V30 630 N 52.8907 -2.78126 0.842292 0
M  V30 631 H 52.4377 -2.12742 1.45253 0
M  V30 632 H 52.3957 -3.14354 0.053652 0
M  V30 633 N 56.1678 -1.49265 -0.50573 0
M  V30 634 C 57.1008 -1.60183 -1.62532 0
M  V30 635 C 58.0788 -0.451107 -1.56217 0
M  V30 636 O 59.2628 -0.666016 -1.76342 0
M  V30 637 C 56.3898 -1.55238 -3.01029 0
M  V30 638 C 55.4358 -2.7545 -3.25621 0
M  V30 639 S 56.2688 -4.37174 -3.09256 0
M  V30 640 C 57.4248 -4.34866 -4.50158 0
M  V30 641 H 57.6578 -2.54894 -1.53025 0
M  V30 642 H 55.1908 -1.38098 -0.690535 0
M  V30 643 H 57.1488 -1.53071 -3.80893 0
M  V30 644 H 55.8098 -0.618238 -3.07956 0
M  V30 645 H 55.0028 -2.68197 -4.26716 0
M  V30 646 H 54.6048 -2.75005 -2.53472 0
M  V30 647 H 56.8968 -4.06295 -5.42154 0
M  V30 648 H 57.8398 -5.36223 -4.62462 0
M  V30 649 H 58.2478 -3.65007 -4.30616 0
M  V30 650 N 57.6459 0.756429 -1.3826 0
M  V30 651 C 58.8949 1.51082 -1.3363 0
M  V30 652 C 59.2079 1.95467 0.0720068 0
M  V30 653 O 60.4139 2.7043 0.240834 0
M  V30 654 C 58.8699 2.72893 -2.34644 0
M  V30 655 C 58.4779 2.35544 -3.81081 0
M  V30 656 C 60.2219 3.50791 -2.39052 0
M  V30 657 C 58.1289 3.53948 -4.73787 0
M  V30 658 H 57.0589 0.56727 -0.49671 0
M  V30 659 H 59.7099 0.827147 -1.638 0
M  V30 660 H 58.0919 3.43227 -1.97513 0
M  V30 661 H 59.2659 1.72894 -4.27135 0
M  V30 662 H 57.5809 1.70786 -3.79764 0
M  V30 663 H 60.1779 4.38823 -3.05513 0
M  V30 664 H 60.5209 3.91745 -1.40861 0
M  V30 665 H 61.0539 2.87467 -2.74968 0
M  V30 666 H 57.7929 3.18064 -5.73163 0
M  V30 667 H 57.3129 4.15651 -4.32428 0
M  V30 668 H 58.9919 4.20566 -4.91663 0
M  V30 669 N 59.124 1.23083 0.984299 0
M  V30 670 C 60.054 1.03292 2.09411 0
M  V30 671 C 61.035 -0.048923 1.7003 0
M  V30 672 O 62.22 0.114967 1.93859 0
M  V30 673 C 59.35 0.619155 3.41736 0
M  V30 674 C 58.304 1.64791 3.95004 0
M  V30 675 C 57.63 1.0897 5.23478 0
M  V30 676 C 58.93 3.03999 4.24714 0
M  V30 677 H 60.624 1.96119 2.26225 0
M  V30 678 H 58.17 0.944344 1.08711 0
M  V30 679 H 60.123 0.467777 4.18796 0
M  V30 680 H 58.847 -0.344786 3.24775 0
M  V30 681 H 57.506 1.78721 3.20085 0
M  V30 682 H 57.154 0.11686 5.02864 0
M  V30 683 H 56.854 1.77704 5.60085 0
M  V30 684 H 58.378 0.950093 6.03163 0
M  V30 685 H 59.792 2.93393 4.92538 0
M  V30 686 H 58.189 3.69936 4.72512 0
M  V30 687 H 59.259 3.53285 3.32142 0
M  V30 688 N 60.6021 -1.18246 1.0419 0
M  V30 689 C 61.5501 -2.23968 0.627792 0
M  V30 690 C 62.5441 -1.65828 -0.346019 0
M  V30 691 O 63.7501 -1.78733 -0.213175 0
M  V30 692 H 60.1251 -0.728939 0.184802 0
M  V30 693 H 62.0961 -2.56202 1.52981 0
M  V30 694 C 60.8451 -3.47699 0.00796591 0
M  V30 695 H 60.1681 -3.92734 0.748347 0
M  V30 696 H 61.6081 -4.23294 -0.24455 0
M  V30 697 C 60.0671 -3.13153 -1.24246 0
M  V30 698 O 60.5971 -3.27003 -2.33307 0
M  V30 699 N 58.8031 -2.67467 -1.13622 0
M  V30 700 H 58.3501 -2.56396 -0.248734 0
M  V30 701 H 58.3081 -2.44724 -1.97377 0
M  V30 702 N 62.0802 -0.821533 -1.34494 0
M  V30 703 C 63.3572 -0.33159 -1.92769 0
M  V30 704 C 63.7372 1.18088 -1.74981 0
M  V30 705 O 63.0852 1.98733 -1.12772 0
M  V30 706 C 63.2952 -0.759398 -3.40638 0
M  V30 707 C 64.6432 -0.757433 -4.1779 0
M  V30 708 O 65.6672 -0.70189 -3.49216 0
M  V30 709 O 64.5262 -0.829361 -5.4017 0
M  V30 710 H 61.6202 -0.0902502 -0.822061 0
M  V30 711 H 64.1662 -0.906231 -1.43477 0
M  V30 712 H 62.9382 -1.8012 -3.47379 0
M  V30 713 H 62.5612 -0.160378 -3.97276 0
M  V30 714 N 63.5583 1.46682 -0.576371 0
M  V30 715 C 64.9693 1.86112 -0.148091 0
M  V30 716 C 65.3203 1.48073 1.2872 0
M  V30 717 O 64.4453 0.892656 1.97131 0
M  V30 718 C 65.0403 3.37786 -0.261982 0
M  V30 719 C 63.5993 3.76235 0.111384 0
M  V30 720 C 62.7463 2.70713 -0.60083 0
M  V30 721 H 65.6973 1.37927 -0.78497 0
M  V30 722 H 65.7183 3.77007 0.514364 0
M  V30 723 H 65.2303 3.6544 -1.30671 0
M  V30 724 H 63.3313 3.54198 1.15649 0
M  V30 725 H 63.4443 4.78391 -0.26052 0
M  V30 726 H 61.8083 2.54666 -0.0417783 0
M  V30 727 H 62.5913 3.01208 -1.64708 0
M  V30 728 N 65.0364 0.313813 1.54444 0
M  V30 729 C 66.3134 -0.345447 1.92525 0
M  V30 730 C 66.6934 -1.70667 1.24242 0
M  V30 731 O 66.0414 -2.25273 0.382654 0
M  V30 732 C 66.2514 -0.44737 3.46121 0
M  V30 733 C 67.5994 -0.712238 4.18584 0
M  V30 734 O 68.6234 -0.530678 3.52225 0
M  V30 735 O 67.4824 -1.06183 5.36085 0
M  V30 736 H 64.5764 -0.195407 0.803583 0
M  V30 737 H 67.1224 0.362813 1.65776 0
M  V30 738 H 65.8944 0.509043 3.87975 0
M  V30 739 H 65.5174 -1.20359 3.78945 0
M  V30 740 N 66.5145 -1.57545 0.0417849 0
M  V30 741 C 67.7615 -1.92317 -0.634082 0
M  V30 742 C 68.0895 -0.919334 -1.71402 0
M  V30 743 O 67.3445 0.0698253 -1.95575 0
M  V30 744 C 67.6435 -3.33794 -1.27735 0
M  V30 745 C 67.3095 -4.49716 -0.326543 0
M  V30 746 C 65.9715 -4.81156 -0.0648814 0
M  V30 747 C 68.3235 -5.20182 0.325623 0
M  V30 748 C 65.6515 -5.80414 0.856539 0
M  V30 749 C 68.0035 -6.20424 1.23518 0
M  V30 750 C 66.6675 -6.50298 1.5056 0
M  V30 751 H 65.9375 -0.703736 -0.232027 0
M  V30 752 H 68.5845 -1.91205 0.106259 0
M  V30 753 H 66.8895 -3.31228 -2.09274 0
M  V30 754 H 68.5865 -3.57975 -1.80707 0
M  V30 755 H 65.1765 -4.25176 -0.540665 0
M  V30 756 H 69.3605 -4.96112 0.136546 0
M  V30 757 H 64.6165 -6.019 1.07363 0
M  V30 758 H 68.7905 -6.74141 1.74664 0
M  V30 759 H 66.4175 -7.27025 2.22123 0
M  V30 760 N 67.9926 0.231505 -1.5589 0
M  V30 761 C 68.9246 1.31006 -1.8807 0
M  V30 762 C 69.9376 1.43539 -0.768145 0
M  V30 763 O 71.1266 1.44614 -1.04638 0
M  V30 764 C 68.2266 2.68688 -2.06543 0
M  V30 765 C 67.3996 2.78228 -3.37502 0
M  V30 766 C 66.4586 3.96857 -3.4553 0
M  V30 767 O 65.4846 3.85662 -4.18633 0
M  V30 768 N 66.6866 5.1072 -2.75944 0
M  V30 769 H 69.4516 1.03731 -2.81176 0
M  V30 770 H 67.0126 0.421573 -1.56315 0
M  V30 771 H 69.0046 3.46412 -2.09239 0
M  V30 772 H 67.5746 2.88605 -1.20109 0
M  V30 773 H 66.7946 1.87059 -3.46991 0
M  V30 774 H 68.0826 2.81564 -4.23791 0
M  V30 775 H 67.4806 5.2271 -2.16311 0
M  V30 776 H 66.0376 5.86523 -2.84314 0
M  V30 777 N 69.4707 1.49531 0.497807 0
M  V30 778 C 70.4207 1.62829 1.59596 0
M  V30 779 C 71.4047 0.483824 1.53453 0
M  V30 780 O 72.5967 0.736937 1.60929 0
M  V30 781 C 69.7257 1.7011 2.98191 0
M  V30 782 C 68.8117 2.90144 3.09317 0
M  V30 783 N 69.2027 4.1418 2.90324 0
M  V30 784 C 67.5007 2.88148 3.40422 0
M  V30 785 C 68.2017 4.94886 3.05717 0
M  V30 786 N 67.1777 4.28314 3.34736 0
M  V30 787 H 70.9797 2.56446 1.4357 0
M  V30 788 H 68.4937 1.46347 0.704001 0
M  V30 789 H 70.4907 1.77735 3.77115 0
M  V30 790 H 69.1507 0.776315 3.15283 0
M  V30 791 H 70.1617 4.44109 2.66436 0
M  V30 792 H 66.8387 2.05061 3.63671 0
M  V30 793 H 68.2287 6.03432 2.95499 0
M  V30 794 N 70.9488 -0.749086 1.3866 0
M  V30 795 C 71.8588 -1.89358 1.38494 0
M  V30 796 C 72.8748 -1.71708 0.281476 0
M  V30 797 O 74.0508 -1.94554 0.520643 0
M  V30 798 C 71.1158 -3.24782 1.21316 0
M  V30 799 C 70.1768 -3.54926 2.41508 0
M  V30 800 C 69.4098 -4.83888 2.2514 0
M  V30 801 O 69.6328 -5.56592 1.24746 0
M  V30 802 O 68.5668 -5.13612 3.13826 0
M  V30 803 H 72.3928 -1.92452 2.34938 0
M  V30 804 H 69.9778 -0.894981 1.19626 0
M  V30 805 H 71.8598 -4.05739 1.13814 0
M  V30 806 H 70.5348 -3.2249 0.279592 0
M  V30 807 H 69.4418 -2.74112 2.54585 0
M  V30 808 H 70.7748 -3.61983 3.3351 0
M  V30 809 N 72.4269 -1.23603 -0.977757 0
M  V30 810 C 73.7039 -0.977897 -1.69401 0
M  V30 811 C 74.0839 0.502738 -2.05026 0
M  V30 812 O 73.4319 1.47459 -1.74551 0
M  V30 813 C 73.6419 -1.89077 -2.93345 0
M  V30 814 C 74.9899 -2.15579 -3.65802 0
M  V30 815 O 76.0139 -1.86648 -3.03383 0
M  V30 816 O 74.8729 -2.64658 -4.78141 0
M  V30 817 H 71.9669 -0.369025 -0.740101 0
M  V30 818 H 74.5129 -1.34657 -1.03274 0
M  V30 819 H 73.2849 -2.89158 -2.63634 0
M  V30 820 H 72.9079 -1.52463 -3.67207 0
M  V30 821 N 73.905 1.17692 -1.04816 0
M  V30 822 C 74.835 2.23777 -0.666791 0
M  V30 823 C 75.816 1.66796 0.33361 0
M  V30 824 O 77.001 1.93039 0.212042 0
M  V30 825 C 74.131 3.47281 -0.0367933 0
M  V30 826 C 73.085 4.17059 -0.961546 0
M  V30 827 C 72.411 5.34342 -0.195626 0
M  V30 828 C 73.711 4.69713 -2.28402 0
M  V30 829 H 75.405 2.55933 -1.55367 0
M  V30 830 H 72.951 1.23019 -0.748484 0
M  V30 831 H 74.904 4.20706 0.241775 0
M  V30 832 H 73.628 3.14381 0.885004 0
M  V30 833 H 72.287 3.45541 -1.22462 0
M  V30 834 H 71.935 4.97692 0.728816 0
M  V30 835 H 71.635 5.81966 -0.811775 0
M  V30 836 H 73.159 6.10553 0.0757473 0
M  V30 837 H 74.573 5.34794 -2.06563 0
M  V30 838 H 72.97 5.279 -2.8538 0
M  V30 839 H 74.04 3.86726 -2.92525 0
M  V30 840 N 75.3831 0.828654 1.34056 0
M  V30 841 C 76.3311 0.242973 2.31327 0
M  V30 842 C 77.3251 -0.61944 1.57668 0
M  V30 843 O 78.5311 -0.51014 1.7262 0
M  V30 844 H 74.9061 0.059834 0.749616 0
M  V30 845 H 76.8771 1.07809 2.78244 0
M  V30 846 C 75.6261 -0.575733 3.429 0
M  V30 847 H 74.9491 0.0785582 3.99723 0
M  V30 848 H 76.3891 -0.951547 4.13185 0
M  V30 849 C 74.8481 -1.75044 2.87856 0
M  V30 850 O 75.3781 -2.84882 2.83205 0
M  V30 851 N 73.5841 -1.56903 2.44602 0
M  V30 852 H 73.1311 -0.675547 2.48584 0
M  V30 853 H 73.0891 -2.35652 2.08124 0
M  V30 854 N 76.8612 -1.46375 0.584142 0
M  V30 855 C 78.1082 -2.02378 0.0702675 0
M  V30 856 C 78.4362 -1.45545 -1.29023 0
M  V30 857 O 77.6912 -0.610967 -1.85918 0
M  V30 858 C 77.9902 -3.57373 -0.0439342 0
M  V30 859 C 77.6562 -4.33252 1.24915 0
M  V30 860 C 76.3182 -4.53701 1.60341 0
M  V30 861 C 78.6702 -4.7681 2.1048 0
M  V30 862 C 75.9982 -5.1496 2.81128 0
M  V30 863 C 78.3502 -5.39404 3.30494 0
M  V30 864 C 77.0142 -5.5808 3.66201 0
M  V30 865 H 76.2842 -0.740554 0.0257127 0
M  V30 866 H 78.9312 -1.75727 0.761065 0
M  V30 867 H 77.2362 -3.83169 -0.817869 0
M  V30 868 H 78.9332 -3.98384 -0.457318 0
M  V30 869 H 75.5232 -4.17633 0.963364 0
M  V30 870 H 79.7072 -4.60766 1.84414 0
M  V30 871 H 74.9632 -5.27611 3.08928 0
M  V30 872 H 79.1372 -5.72114 3.97063 0
M  V30 873 H 76.7642 -6.05318 4.59885 0
M  V30 874 N 78.3393 -0.321999 -1.54275 0
M  V30 875 C 79.2693 0.537411 -2.27231 0
M  V30 876 C 80.2503 1.12064 -1.27968 0
M  V30 877 O 81.4353 1.14606 -1.56777 0
M  V30 878 C 78.5653 1.69919 -3.02894 0
M  V30 879 C 77.5193 1.24534 -4.09482 0
M  V30 880 C 76.8453 2.49394 -4.72977 0
M  V30 881 C 78.1453 0.361335 -5.21049 0
M  V30 882 H 79.8393 -0.0711406 -2.99315 0
M  V30 883 H 77.3853 -0.0356555 -1.43956 0
M  V30 884 H 79.3383 2.30668 -3.52662 0
M  V30 885 H 78.0623 2.33431 -2.28424 0
M  V30 886 H 76.7213 0.660782 -3.60596 0
M  V30 887 H 76.3693 3.11265 -3.95124 0
M  V30 888 H 76.0693 2.19718 -5.44975 0
M  V30 889 H 77.5933 3.10908 -5.25517 0
M  V30 890 H 79.0073 0.875072 -5.66582 0
M  V30 891 H 77.4043 0.157428 -5.99893 0
M  V30 892 H 78.4743 -0.60822 -4.8107 0
M  V30 893 N 79.8174 1.5752 -0.0501392 0
M  V30 894 C 81.0454 1.96963 0.633492 0
M  V30 895 C 81.4604 0.927631 1.6444 0
M  V30 896 O 80.8174 -0.0882665 1.82286 0
M  V30 897 C 80.8684 3.36487 1.32132 0
M  V30 898 O 80.5894 4.36693 0.350894 0
M  V30 899 C 82.0904 3.90682 2.09481 0
M  V30 900 H 79.3104 0.648244 0.173266 0
M  V30 901 H 81.8544 2.0417 -0.116134 0
M  V30 902 H 80.0094 3.30434 2.02218 0
M  V30 903 H 80.4234 5.17702 0.841735 0
M  V30 904 H 81.8974 4.90591 2.5303 0
M  V30 905 H 82.3744 3.26053 2.94255 0
M  V30 906 H 82.9804 4.00069 1.44307 0
M  V30 907 N 81.2955 -0.223234 1.56011 0
M  V30 908 C 82.7115 -0.572856 1.48965 0
M  V30 909 C 82.9115 -1.87225 0.74492 0
M  V30 910 O 81.9675 -2.50899 0.283896 0
M  V30 911 C 83.2805 -0.653646 2.9351 0
M  V30 912 C 84.8285 -0.744386 3.0402 0
M  V30 913 C 85.3035 -0.856535 4.49919 0
M  V30 914 N 86.7945 -0.9208 4.53955 0
M  V30 915 C 87.5295 -1.02726 5.64123 0
M  V30 916 N 87.0255 -1.09777 6.84047 0
M  V30 917 N 88.8185 -1.06226 5.51971 0
M  V30 918 H 80.9695 0.629462 2.02858 0
M  V30 919 H 83.2325 0.220621 0.921971 0
M  V30 920 H 82.9385 0.231518 3.50937 0
M  V30 921 H 82.8125 -1.51781 3.45315 0
M  V30 922 H 85.1995 -1.61999 2.46658 0
M  V30 923 H 85.2805 0.14541 2.55386 0
M  V30 924 H 84.9245 0.0146069 5.07898 0
M  V30 925 H 84.8545 -1.76172 4.96257 0
M  V30 926 H 87.3455 -0.876694 3.6759 0
M  V30 927 H 87.6585 -1.17872 7.63758 0
M  V30 928 H 86.0035 -1.06693 6.86762 0
M  V30 929 H 89.1945 -1.00382 4.5721 0
M  V30 930 H 89.3675 -1.14177 6.37862 0
M  V30 931 N 82.7736 -1.49793 -0.48987 0
M  V30 932 C 83.9986 -1.63836 -1.27172 0
M  V30 933 C 84.4236 -0.31402 -1.8546 0
M  V30 934 O 83.7816 0.719803 -1.66399 0
M  V30 935 C 83.8296 -2.71797 -2.36978 0
M  V30 936 O 82.9336 -2.31744 -3.41128 0
M  V30 937 H 82.2746 -0.547997 -0.37496 0
M  V30 938 H 84.8046 -1.96053 -0.585191 0
M  V30 939 H 84.8146 -2.94305 -2.82575 0
M  V30 940 H 83.4896 -3.67923 -1.93921 0
M  V30 941 H 82.0666 -2.1961 -3.01373 0
M  V30 942 N 84.2517 0.741722 -1.39055 0
M  V30 943 C 85.1837 1.8657 -1.33133 0
M  V30 944 C 86.1967 1.61001 -0.241329 0
M  V30 945 O 87.3857 1.7136 -0.499784 0
M  V30 946 C 84.4857 3.22457 -1.04283 0
M  V30 947 C 83.6587 3.75435 -2.24427 0
M  V30 948 C 82.7177 4.89867 -1.92138 0
M  V30 949 O 81.7437 5.03879 -2.64754 0
M  V30 950 N 82.9457 5.73738 -0.88347 0
M  V30 951 H 85.7107 1.92156 -2.29991 0
M  V30 952 H 83.2717 0.922172 -1.3307 0
M  V30 953 H 85.2637 3.9657 -0.807128 0
M  V30 954 H 83.8337 3.12181 -0.161807 0
M  V30 955 H 83.0537 2.92751 -2.6399 0
M  V30 956 H 84.3417 4.07563 -3.04581 0
M  V30 957 H 83.7397 5.64999 -0.281517 0
M  V30 958 H 82.2967 6.47947 -0.707662 0
M  V30 959 N 85.7298 1.2412 0.971189 0
M  V30 960 C 87.1458 1.00584 1.23916 0
M  V30 961 C 87.3458 -0.287481 1.99439 0
M  V30 962 O 86.4018 -1.00454 2.31658 0
M  V30 963 C 87.7148 2.21864 2.0297 0
M  V30 964 C 89.2628 2.26452 2.16076 0
M  V30 965 C 89.7378 3.47343 2.98524 0
M  V30 966 N 91.2288 3.47639 3.06107 0
M  V30 967 C 91.9638 4.37837 3.70251 0
M  V30 968 N 91.4598 5.38286 4.36142 0
M  V30 969 N 93.2528 4.25558 3.67228 0
M  V30 970 H 85.4038 2.07236 0.465499 0
M  V30 971 H 87.6668 0.909236 0.268315 0
M  V30 972 H 87.3728 3.15771 1.54861 0
M  V30 973 H 87.2468 2.23698 3.03709 0
M  V30 974 H 89.6338 1.33078 2.6339 0
M  V30 975 H 89.7148 2.28645 1.14696 0
M  V30 976 H 89.3588 4.41029 2.51905 0
M  V30 977 H 89.2888 3.42393 4.00093 0
M  V30 978 H 91.7798 2.74966 2.59233 0
M  V30 979 H 92.0928 6.03352 4.82894 0
M  V30 980 H 90.4378 5.42176 4.34822 0
M  V30 981 H 93.6288 3.46322 3.14927 0
M  V30 982 H 93.8018 4.96054 4.16935 0
M  V30 983 N 87.2079 -1.17134 1.05439 0
M  V30 984 C 88.4379 -1.91094 0.785274 0
M  V30 985 C 88.8459 -1.77198 -0.663142 0
M  V30 986 O 88.1889 -1.10835 -1.46497 0
M  V30 987 C 88.2509 -3.42594 1.08949 0
M  V30 988 C 87.9149 -3.80274 2.53458 0
M  V30 989 C 88.9119 -3.82912 3.51673 0
M  V30 990 C 86.5969 -4.11162 2.88532 0
M  V30 991 C 88.5909 -4.15913 4.83006 0
M  V30 992 C 86.2779 -4.43831 4.20068 0
M  V30 993 C 87.2759 -4.46185 5.17115 0
M  V30 994 O 86.9639 -4.78083 6.46291 0
M  V30 995 H 86.6959 -0.613073 0.284811 0
M  V30 996 H 89.2499 -1.49461 1.40893 0
M  V30 997 H 87.4799 -3.84534 0.408741 0
M  V30 998 H 89.1689 -3.97817 0.805991 0
M  V30 999 H 89.9349 -3.5917 3.25917 0
M  V30 1000 H 85.8139 -4.085 2.13656 0
M  V30 1001 H 89.3579 -4.17665 5.5875 0
M  V30 1002 H 85.2549 -4.67037 4.45586 0
M  V30 1003 H 86.0229 -4.9593 6.51149 0
M  V30 1004 N 88.686 -0.835752 -1.33615 0
M  V30 1005 C 89.596 -0.269088 -2.33052 0
M  V30 1006 C 90.612 0.603251 -1.63208 0
M  V30 1007 O 91.788 0.508112 -1.94885 0
M  V30 1008 C 88.853 0.549091 -3.42324 0
M  V30 1009 C 87.914 -0.347156 -4.27894 0
M  V30 1010 C 87.147 0.43207 -5.31948 0
M  V30 1011 O 87.37 1.66409 -5.45586 0
M  V30 1012 O 86.304 -0.192298 -6.01593 0
M  V30 1013 H 90.13 -1.09243 -2.83372 0
M  V30 1014 H 87.715 -0.598198 -1.36901 0
M  V30 1015 H 89.597 1.01414 -4.09015 0
M  V30 1016 H 88.272 1.34955 -2.94226 0
M  V30 1017 H 87.179 -0.859979 -3.64081 0
M  V30 1018 H 88.512 -1.1123 -4.79467 0
M  V30 1019 N 90.1641 1.46063 -0.591896 0
M  V30 1020 C 91.4101 2.02638 -0.0811191 0
M  V30 1021 C 91.7431 1.4613 1.27905 0
M  V30 1022 O 91.0181 0.629908 1.84017 0
M  V30 1023 C 91.3011 3.60091 -0.0252436 0
M  V30 1024 C 91.1541 4.26965 -1.41496 0
M  V30 1025 C 92.4731 4.3496 0.670685 0
M  V30 1026 H 89.5921 0.73635 -0.0309524 0
M  V30 1027 H 92.2341 1.741 -0.760859 0
M  V30 1028 H 90.3841 3.84535 0.553624 0
M  V30 1029 H 92.0561 4.13756 -2.0397 0
M  V30 1030 H 90.2991 3.85971 -1.98011 0
M  V30 1031 H 90.9701 5.35781 -1.32825 0
M  V30 1032 H 93.4461 4.15716 0.178825 0
M  V30 1033 H 92.3221 5.44686 0.678837 0
M  V30 1034 H 92.5831 4.06685 1.73379 0
M  V30 1035 N 91.6422 0.330177 1.54103 0
M  V30 1036 C 92.6052 -0.520144 2.2322 0
M  V30 1037 C 93.6052 -1.03828 1.22786 0
M  V30 1038 O 94.7952 -0.929652 1.4732 0
M  V30 1039 C 91.9272 -1.72317 2.94142 0
M  V30 1040 H 93.1202 0.0841605 2.99782 0
M  V30 1041 H 90.6732 0.0813433 1.56088 0
M  V30 1042 H 91.4082 -2.36653 2.21734 0
M  V30 1043 H 91.1932 -1.35898 3.67796 0
M  V30 1044 H 92.6832 -2.3266 3.46784 0
M  V30 1045 N 93.1203 -1.57491 0.0584922 0
M  V30 1046 C 94.3663 -1.93264 -0.614558 0
M  V30 1047 C 94.6993 -0.937717 -1.7006 0
M  V30 1048 O 93.9743 0.0351652 -1.94468 0
M  V30 1049 C 94.2573 -3.3938 -1.20386 0
M  V30 1050 C 94.1103 -4.49625 -0.125375 0
M  V30 1051 C 95.4293 -3.86039 -2.11334 0
M  V30 1052 H 92.5483 -0.702791 -0.221933 0
M  V30 1053 H 95.1903 -1.8961 0.12175 0
M  V30 1054 H 93.3403 -3.42626 -1.83139 0
M  V30 1055 H 95.0123 -4.58506 0.506971 0
M  V30 1056 H 93.2553 -4.30354 0.545672 0
M  V30 1057 H 93.9263 -5.48967 -0.577861 0
M  V30 1058 H 96.4023 -3.84716 -1.58534 0
M  V30 1059 H 95.2783 -4.88914 -2.49507 0
M  V30 1060 H 95.5393 -3.23215 -3.01636 0
M  V30 1061 N 94.5984 0.214957 -1.56127 0
M  V30 1062 C 96.0144 0.564948 -1.49267 0
M  V30 1063 C 96.2144 1.86827 -0.754838 0
M  V30 1064 O 95.2704 2.50745 -0.297198 0
M  V30 1065 C 96.5834 0.638071 -2.93852 0
M  V30 1066 C 98.1314 0.728253 -3.0441 0
M  V30 1067 C 98.6064 0.832663 -4.50367 0
M  V30 1068 N 100.097 0.896712 -4.54437 0
M  V30 1069 C 100.832 0.997324 -5.6466 0
M  V30 1070 N 100.328 1.06147 -6.8462 0
M  V30 1071 N 102.121 1.03297 -5.52527 0
M  V30 1072 H 94.2724 -0.640211 -2.02522 0
M  V30 1073 H 96.5354 -0.225507 -0.920788 0
M  V30 1074 H 96.2414 -0.250126 -3.50809 0
M  V30 1075 H 96.1154 1.49947 -3.46115 0
M  V30 1076 H 98.5024 1.60689 -2.47514 0
M  V30 1077 H 98.5834 -0.158952 -2.55306 0
M  V30 1078 H 98.2274 -0.0415417 -5.07883 0
M  V30 1079 H 98.1574 1.73538 -4.97184 0
M  V30 1080 H 100.648 0.857188 -3.6805 0
M  V30 1081 H 100.961 1.1382 -7.64372 0
M  V30 1082 H 99.3064 1.03049 -6.87318 0
M  V30 1083 H 102.497 0.979558 -4.57736 0
M  V30 1084 H 102.67 1.10793 -6.38458 0
M  V30 1085 N 96.0765 1.50051 0.48192 0
M  V30 1086 C 97.0235 1.68122 1.58125 0
M  V30 1087 C 97.9935 0.522545 1.57666 0
M  V30 1088 O 99.1785 0.751844 1.75362 0
M  V30 1089 C 96.3185 1.77142 2.96167 0
M  V30 1090 C 95.4315 3.0444 3.06497 0
M  V30 1091 C 94.5665 3.04321 4.35387 0
M  V30 1092 C 93.6055 4.26118 4.3942 0
M  V30 1093 N 92.7425 4.238 5.59766 0
M  V30 1094 H 97.5825 2.6198 1.42022 0
M  V30 1095 H 95.1195 1.29877 0.690687 0
M  V30 1096 H 97.0775 1.80352 3.76203 0
M  V30 1097 H 95.7075 0.867329 3.1093 0
M  V30 1098 H 94.7595 3.10752 2.19402 0
M  V30 1099 H 96.0715 3.94426 3.05336 0
M  V30 1100 H 95.2255 3.062 5.23762 0
M  V30 1101 H 93.9645 2.12147 4.39141 0
M  V30 1102 H 92.9695 4.24463 3.49444 0
M  V30 1103 H 94.1945 5.19507 4.37366 0
M  V30 1104 H 92.1405 3.34474 5.64326 0
M  V30 1105 H 92.0575 5.07542 5.60301 0
M  V30 1106 H 93.3255 4.2981 6.50295 0
M  V30 1107 N 97.5546 -0.734337 1.39446 0
M  V30 1108 C 98.7796 -1.52866 1.40167 0
M  V30 1109 C 99.2046 -1.881 -0.00171513 0
M  V30 1110 O 98.5626 -1.51957 -0.988879 0
M  V30 1111 C 98.6106 -2.79235 2.28167 0
M  V30 1112 O 97.7146 -3.75185 1.71201 0
M  V30 1113 H 97.0556 -0.461618 0.477289 0
M  V30 1114 H 99.5856 -0.905949 1.8345 0
M  V30 1115 H 99.5956 -3.27963 2.42702 0
M  V30 1116 H 98.2706 -2.52923 3.30156 0
M  V30 1117 H 96.8476 -3.33958 1.65912 0
M  V30 1118 N 99.0327 -1.24633 -0.964593 0
M  V30 1119 C 99.9957 -1.0424 -2.04124 0
M  V30 1120 C 100.996 0.00137563 -1.608 0
M  V30 1121 O 102.186 -0.239883 -1.7254 0
M  V30 1122 C 99.3177 -0.580588 -3.3592 0
M  V30 1123 H 100.511 -1.99803 -2.23649 0
M  V30 1124 H 98.0637 -1.06899 -1.14027 0
M  V30 1125 H 98.7987 0.3781 -3.22088 0
M  V30 1126 H 98.5837 -1.33398 -3.6871 0
M  V30 1127 H 100.074 -0.459034 -4.15069 0
M  V30 1128 N 100.511 1.16574 -1.06058 0
M  V30 1129 C 101.76 1.86385 -0.770944 0
M  V30 1130 C 102.073 1.82448 0.705129 0
M  V30 1131 O 103.279 2.47815 1.10905 0
M  V30 1132 C 101.735 3.34466 -1.32893 0
M  V30 1133 C 101.343 3.46883 -2.83507 0
M  V30 1134 C 103.087 4.09548 -1.11672 0
M  V30 1135 C 100.994 4.89036 -3.32562 0
M  V30 1136 H 99.9238 0.698181 -0.284709 0
M  V30 1137 H 102.575 1.31583 -1.27899 0
M  V30 1138 H 100.957 3.88859 -0.748662 0
M  V30 1139 H 102.131 3.02663 -3.47465 0
M  V30 1140 H 100.446 2.85232 -3.03368 0
M  V30 1141 H 103.043 5.14434 -1.45814 0
M  V30 1142 H 103.386 4.16264 -0.0549535 0
M  V30 1143 H 103.919 3.61387 -1.66265 0
M  V30 1144 H 100.658 4.87499 -4.38207 0
M  V30 1145 H 100.178 5.3389 -2.73351 0
M  V30 1146 H 101.857 5.57843 -3.2775 0
M  V30 1147 N 101.989 0.842826 1.3317 0
M  V30 1148 C 102.922 0.223862 2.27099 0
M  V30 1149 C 103.9 -0.631311 1.49844 0
M  V30 1150 O 105.084 -0.590708 1.79005 0
M  V30 1151 C 102.211 -0.685313 3.31694 0
M  V30 1152 C 101.257 0.094919 4.26394 0
M  V30 1153 S 102.09 1.45546 5.15341 0
M  V30 1154 C 103.246 0.551685 6.23464 0
M  V30 1155 H 103.479 1.02015 2.79249 0
M  V30 1156 H 101.012 0.639797 1.4052 0
M  V30 1157 H 102.97 -1.20426 3.92438 0
M  V30 1158 H 101.631 -1.4553 2.78352 0
M  V30 1159 H 100.824 -0.597059 5.00451 0
M  V30 1160 H 100.426 0.545054 3.70007 0
M  V30 1161 H 102.718 -0.248877 6.77043 0
M  V30 1162 H 103.661 1.26253 6.96754 0
M  V30 1163 H 104.069 0.131275 5.64347 0
M  V30 1164 N 103.467 -1.45747 0.599634 0
M  V30 1165 C 104.713 -2.02592 0.0918643 0
M  V30 1166 C 105.046 -1.46806 -1.27128 0
M  V30 1167 O 104.321 -0.639658 -1.83681 0
M  V30 1168 C 104.604 -3.60073 0.0443398 0
M  V30 1169 C 104.457 -4.26208 1.43759 0
M  V30 1170 C 105.776 -4.35309 -0.647608 0
M  V30 1171 H 102.895 -0.736175 0.034857 0
M  V30 1172 H 105.537 -1.73694 0.770081 0
M  V30 1173 H 103.687 -3.84823 -0.533224 0
M  V30 1174 H 105.359 -4.12668 2.06162 0
M  V30 1175 H 103.602 -3.84916 2.00056 0
M  V30 1176 H 104.273 -5.35069 1.35665 0
M  V30 1177 H 106.749 -4.15805 -0.156776 0
M  V30 1178 H 105.625 -5.45038 -0.649942 0
M  V30 1179 H 105.886 -4.07598 -1.71219 0
M  V30 1180 N 104.945 -0.338344 -1.53925 0
M  V30 1181 C 105.892 0.520845 -2.24846 0
M  V30 1182 C 106.862 1.09976 -1.24477 0
M  V30 1183 O 108.047 1.13735 -1.53196 0
M  V30 1184 C 105.187 1.6685 -3.02084 0
M  V30 1185 C 104.3 1.11739 -4.17299 0
M  V30 1186 C 103.435 2.23193 -4.82036 0
M  V30 1187 C 102.474 1.65407 -5.89328 0
M  V30 1188 N 101.611 2.70582 -6.47866 0
M  V30 1189 H 106.451 -0.0904881 -2.97863 0
M  V30 1190 H 103.988 -0.0564282 -1.46992 0
M  V30 1191 H 105.946 2.34407 -3.45122 0
M  V30 1192 H 104.576 2.2509 -2.31375 0
M  V30 1193 H 103.628 0.332919 -3.7894 0
M  V30 1194 H 104.94 0.654677 -4.94485 0
M  V30 1195 H 104.094 2.98626 -5.28117 0
M  V30 1196 H 102.833 2.72807 -4.04262 0
M  V30 1197 H 101.838 0.884779 -5.42634 0
M  V30 1198 H 103.063 1.16652 -6.69006 0
M  V30 1199 H 101.009 3.1946 -5.72959 0
M  V30 1200 H 100.926 2.28917 -7.20509 0
M  V30 1201 H 102.194 3.45799 -6.98601 0
M  V30 1202 N 106.423 1.57458 -0.0668435 0
M  V30 1203 C 107.37 2.12439 0.902122 0
M  V30 1204 C 108.34 1.03565 1.2986 0
M  V30 1205 O 109.525 1.312 1.38532 0
M  V30 1206 C 106.665 2.6865 2.16614 0
M  V30 1207 C 105.778 3.91663 1.82274 0
M  V30 1208 C 104.913 4.36134 3.0325 0
M  V30 1209 C 103.952 5.51808 2.64904 0
M  V30 1210 N 103.089 5.9126 3.78624 0
M  V30 1211 H 107.929 2.94934 0.426382 0
M  V30 1212 H 105.466 1.4575 0.198819 0
M  V30 1213 H 107.424 2.99346 2.90599 0
M  V30 1214 H 106.054 1.88928 2.61737 0
M  V30 1215 H 105.106 3.6746 0.983719 0
M  V30 1216 H 106.418 4.75693 1.50059 0
M  V30 1217 H 105.572 4.68465 3.85519 0
M  V30 1218 H 104.311 3.50948 3.38655 0
M  V30 1219 H 103.316 5.19133 1.81055 0
M  V30 1220 H 104.541 6.38722 2.30675 0
M  V30 1221 H 102.487 5.09024 4.138 0
M  V30 1222 H 102.404 6.70018 3.5016 0
M  V30 1223 H 103.672 6.28212 4.61486 0
M  V30 1224 N 107.901 -0.206675 1.56239 0
M  V30 1225 C 108.834 -1.28383 1.88661 0
M  V30 1226 C 109.812 -1.44504 0.745481 0
M  V30 1227 O 110.996 -1.60079 0.995336 0
M  V30 1228 C 108.123 -2.65211 2.10667 0
M  V30 1229 C 107.169 -2.66025 3.33366 0
M  V30 1230 S 108.002 -2.18609 4.88846 0
M  V30 1231 C 109.158 -3.57283 5.13906 0
M  V30 1232 H 109.391 -1.00691 2.7973 0
M  V30 1233 H 106.924 -0.409627 1.48867 0
M  V30 1234 H 108.882 -3.43979 2.24029 0
M  V30 1235 H 107.543 -2.90121 1.20369 0
M  V30 1236 H 106.736 -3.66607 3.45855 0
M  V30 1237 H 106.338 -1.95331 3.18938 0
M  V30 1238 H 108.63 -4.53074 5.03717 0
M  V30 1239 H 109.573 -3.49699 6.15724 0
M  V30 1240 H 109.981 -3.51659 4.41583 0
M  V30 1241 N 109.379 -1.50304 -0.473955 0
M  V30 1242 C 110.795 -1.37667 -0.807466 0
M  V30 1243 C 110.995 -0.430555 -1.96846 0
M  V30 1244 O 110.051 0.127874 -2.52176 0
M  V30 1245 C 111.364 -2.78974 -1.12223 0
M  V30 1246 C 112.912 -2.87868 -1.22885 0
M  V30 1247 C 113.387 -4.30003 -1.57676 0
M  V30 1248 N 114.878 -4.3294 -1.64673 0
M  V30 1249 C 115.613 -5.3991 -1.93091 0
M  V30 1250 N 115.109 -6.57092 -2.1955 0
M  V30 1251 N 116.902 -5.27351 -1.94569 0
M  V30 1252 H 109.053 -2.10394 0.291212 0
M  V30 1253 H 111.316 -0.945575 0.0677609 0
M  V30 1254 H 111.022 -3.50031 -0.342229 0
M  V30 1255 H 110.896 -3.16038 -2.05913 0
M  V30 1256 H 113.283 -2.17032 -1.99953 0
M  V30 1257 H 113.364 -2.54352 -0.271814 0
M  V30 1258 H 113.008 -5.01375 -0.81149 0
M  V30 1259 H 112.938 -4.61004 -2.54525 0
M  V30 1260 H 115.429 -3.48441 -1.46277 0
M  V30 1261 H 115.742 -7.34425 -2.405 0
M  V30 1262 H 114.087 -6.60272 -2.16948 0
M  V30 1263 H 117.278 -4.34801 -1.73394 0
M  V30 1264 H 117.451 -6.10805 -2.16381 0
M  V30 1265 N 110.857 0.726932 -1.39834 0
M  V30 1266 C 111.767 1.87131 -1.41489 0
M  V30 1267 C 112.783 1.71239 -0.308757 0
M  V30 1268 O 113.959 1.93701 -0.551529 0
M  V30 1269 C 111.024 3.22811 -1.26468 0
M  V30 1270 C 110.085 3.51039 -2.47124 0
M  V30 1271 C 109.318 4.80245 -2.3281 0
M  V30 1272 O 109.541 5.54537 -1.33585 0
M  V30 1273 O 108.475 5.08554 -3.21957 0
M  V30 1274 H 112.301 1.8869 -2.3797 0
M  V30 1275 H 109.886 0.875837 -1.21035 0
M  V30 1276 H 111.768 4.03877 -1.20255 0
M  V30 1277 H 110.443 3.22005 -0.330862 0
M  V30 1278 H 109.35 2.70027 -2.58914 0
M  V30 1279 H 110.683 3.56632 -3.39227 0
M  V30 1280 N 112.336 1.25143 0.95797 0
M  V30 1281 C 113.583 1.09692 1.70217 0
M  V30 1282 C 113.911 -0.362654 1.91089 0
M  V30 1283 O 113.166 -1.28386 1.47701 0
M  V30 1284 C 113.465 1.79272 3.09187 0
M  V30 1285 C 113.131 3.29196 3.08125 0
M  V30 1286 C 111.793 3.70096 3.07543 0
M  V30 1287 C 114.145 4.24995 3.0171 0
M  V30 1288 C 111.473 5.05213 2.9829 0
M  V30 1289 C 113.825 5.60132 2.93999 0
M  V30 1290 C 112.489 6.00365 2.9175 0
M  V30 1291 H 111.759 0.401393 0.622868 0
M  V30 1292 H 114.406 1.55372 1.11945 0
M  V30 1293 H 112.711 1.26014 3.70982 0
M  V30 1294 H 114.408 1.64773 3.65583 0
M  V30 1295 H 110.998 2.96651 3.09348 0
M  V30 1296 H 115.182 3.9439 3.01281 0
M  V30 1297 H 110.438 5.35569 2.94916 0
M  V30 1298 H 114.612 6.3406 2.87996 0
M  V30 1299 H 112.239 7.05023 2.84336 0
M  V30 1300 N 113.814 -1.1601 1.06675 0
M  V30 1301 C 115.062 -1.86264 0.784229 0
M  V30 1302 C 115.383 -1.82328 -0.691488 0
M  V30 1303 O 114.653 -1.25947 -1.50047 0
M  V30 1304 H 113.233 -0.689621 0.28711 0
M  V30 1305 H 115.895 -1.40664 1.34906 0
M  V30 1306 H 114.991 -2.91595 1.11259 0
M  V30 1307 N 115.292 -0.849877 -1.32721 0
M  V30 1308 C 116.541 -0.447175 -1.96681 0
M  V30 1309 C 116.854 1.00135 -1.68025 0
M  V30 1310 O 118.06 1.50926 -2.25685 0
M  V30 1311 C 116.516 -0.7487 -3.52026 0
M  V30 1312 C 116.124 -2.21264 -3.89546 0
M  V30 1313 C 117.868 -0.413487 -4.22481 0
M  V30 1314 C 115.775 -2.45763 -5.37917 0
M  V30 1315 H 114.705 -0.163486 -0.736063 0
M  V30 1316 H 117.356 -1.03999 -1.51183 0
M  V30 1317 H 115.738 -0.0853727 -3.95908 0
M  V30 1318 H 116.912 -2.91736 -3.56689 0
M  V30 1319 H 115.227 -2.5119 -3.32103 0
M  V30 1320 H 117.824 -0.574017 -5.3161 0
M  V30 1321 H 118.167 0.644492 -4.11281 0
M  V30 1322 H 118.7 -1.03251 -3.84167 0
M  V30 1323 H 115.439 -3.50168 -5.54132 0
M  V30 1324 H 114.959 -1.79864 -5.72197 0
M  V30 1325 H 116.638 -2.29471 -6.0494 0
M  V30 1326 N 116.77 1.45427 -0.607355 0
M  V30 1327 C 117.733 2.28974 0.101693 0
M  V30 1328 C 118.733 1.39754 0.795329 0
M  V30 1329 O 119.923 1.61878 0.643527 0
M  V30 1330 C 117.055 3.20768 1.15414 0
M  V30 1331 H 118.248 2.93147 -0.632844 0
M  V30 1332 H 115.801 1.51945 -0.366391 0
M  V30 1333 H 116.536 2.61395 1.91945 0
M  V30 1334 H 116.321 3.86489 0.66098 0
M  V30 1335 H 117.811 3.83589 1.65073 0
M  V30 1336 N 118.248 0.346503 1.53744 0
M  V30 1337 C 119.525 -0.304532 1.93215 0
M  V30 1338 C 119.905 -1.67993 1.27834 0
M  V30 1339 O 119.253 -2.24411 0.430352 0
M  V30 1340 C 119.463 -0.373852 3.46992 0
M  V30 1341 C 120.811 -0.62329 4.2 0
M  V30 1342 O 121.835 -0.455847 3.53271 0
M  V30 1343 O 120.694 -0.947879 5.38217 0
M  V30 1344 H 117.788 -0.178318 0.807547 0
M  V30 1345 H 120.334 0.397895 1.64969 0
M  V30 1346 H 119.106 0.591224 3.86808 0
M  V30 1347 H 118.729 -1.12294 3.81413 0
M  V30 1348 N 119.726 -1.57421 0.075193 0
M  V30 1349 C 121.137 -1.81021 -0.456964 0
M  V30 1350 C 121.488 -0.98936 -1.69429 0
M  V30 1351 O 120.613 -0.212865 -2.15351 0
M  V30 1352 C 121.208 -3.28329 -0.83581 0
M  V30 1353 C 119.767 -3.52764 -1.31281 0
M  V30 1354 C 118.914 -2.75676 -0.299648 0
M  V30 1355 H 121.865 -1.55822 0.300856 0
M  V30 1356 H 121.886 -3.40564 -1.69696 0
M  V30 1357 H 121.398 -3.88046 0.0649238 0
M  V30 1358 H 119.499 -2.98355 -2.23193 0
M  V30 1359 H 119.612 -4.61451 -1.28839 0
M  V30 1360 H 117.976 -2.42538 -0.777641 0
M  V30 1361 H 118.759 -3.38132 0.593417 0
M  V30 1362 N 121.204 0.198386 -1.56346 0
M  V30 1363 C 122.481 0.944982 -1.71258 0
M  V30 1364 C 122.861 2.0151 -0.629048 0
M  V30 1365 O 122.209 2.25639 0.360473 0
M  V30 1366 C 122.419 1.5344 -3.1346 0
M  V30 1367 C 123.767 2.01778 -3.73591 0
M  V30 1368 O 124.791 1.63288 -3.16568 0
M  V30 1369 O 123.65 2.72594 -4.73661 0
M  V30 1370 H 120.744 0.442939 -0.69838 0
M  V30 1371 H 123.29 0.188342 -1.68652 0
M  V30 1372 H 122.062 0.762869 -3.83792 0
M  V30 1373 H 121.685 2.35596 -3.20282 0
M  V30 1374 N 122.682 1.50554 0.465978 0
M  V30 1375 C 123.592 1.72585 1.58907 0
M  V30 1376 C 124.608 0.60911 1.6299 0
M  V30 1377 O 125.784 0.88804 1.80765 0
M  V30 1378 C 122.849 1.81995 2.95091 0
M  V30 1379 C 121.91 3.05751 3.01355 0
M  V30 1380 C 121.143 3.14702 4.31043 0
M  V30 1381 O 121.366 2.30313 5.21835 0
M  V30 1382 O 120.3 4.07468 4.43005 0
M  V30 1383 H 124.126 2.67799 1.43239 0
M  V30 1384 H 121.711 1.34711 0.646013 0
M  V30 1385 H 123.593 1.90335 3.75966 0
M  V30 1386 H 122.268 0.899659 3.10947 0
M  V30 1387 H 121.175 3.02908 2.19539 0
M  V30 1388 H 122.508 3.97375 2.90437 0
M  V30 1389 N 124.16 -0.719506 1.40217 0
M  V30 1390 C 125.409 -1.47486 1.37589 0
M  V30 1391 C 125.722 -1.9559 -0.0201568 0
M  V30 1392 O 126.928 -2.70973 -0.169049 0
M  V30 1393 C 125.384 -2.66575 2.41796 0
M  V30 1394 C 124.992 -2.25358 3.87192 0
M  V30 1395 C 126.736 -3.4433 2.48269 0
M  V30 1396 C 124.643 -3.41262 4.83005 0
M  V30 1397 H 123.573 -0.553901 0.511576 0
M  V30 1398 H 126.224 -0.783427 1.65936 0
M  V30 1399 H 124.606 -3.3787 2.06543 0
M  V30 1400 H 125.78 -1.61509 4.31569 0
M  V30 1401 H 124.095 -1.60657 3.84159 0
M  V30 1402 H 126.692 -4.30569 3.17041 0
M  V30 1403 H 127.035 -3.87872 1.51198 0
M  V30 1404 H 127.568 -2.80076 2.82493 0
M  V30 1405 H 124.307 -3.02755 5.81394 0
M  V30 1406 H 123.827 -4.0404 4.43297 0
M  V30 1407 H 125.506 -4.07383 5.02641 0
M  V30 1408 N 125.638 -1.25649 -0.95132 0
M  V30 1409 C 126.571 -1.00644 -2.04807 0
M  V30 1410 C 127.549 0.0654271 -1.62468 0
M  V30 1411 O 128.733 -0.074911 -1.88351 0
M  V30 1412 C 125.86 -0.522052 -3.34653 0
M  V30 1413 C 124.906 -1.58495 -3.95957 0
M  V30 1414 S 125.739 -3.17108 -4.31512 0
M  V30 1415 C 126.895 -2.70412 -5.64471 0
M  V30 1416 H 127.128 -1.93508 -2.25703 0
M  V30 1417 H 124.661 -1.09216 -1.09139 0
M  V30 1418 H 126.619 -0.24923 -4.09743 0
M  V30 1419 H 125.28 0.386146 -3.11717 0
M  V30 1420 H 124.473 -1.1968 -4.89584 0
M  V30 1421 H 124.075 -1.80862 -3.2736 0
M  V30 1422 H 126.367 -2.14245 -6.42733 0
M  V30 1423 H 127.31 -3.62693 -6.08161 0
M  V30 1424 H 127.718 -2.10302 -5.23864 0
M  V30 1425 N 127.117 1.15442 -1.07289 0
M  V30 1426 C 128.363 1.8672 -0.806679 0
M  V30 1427 C 128.718 1.80723 0.660084 0
M  V30 1428 O 128.011 1.21902 1.47819 0
M  V30 1429 C 128.205 3.3489 -1.24834 0
M  V30 1430 C 128.034 3.55313 -2.7565 0
M  V30 1431 C 126.804 3.7082 -3.4325 0
M  V30 1432 C 129.002 3.53188 -3.73848 0
M  V30 1433 N 126.984 3.7929 -4.82713 0
M  V30 1434 C 128.355 3.67765 -4.99149 0
M  V30 1435 C 130.41 3.36459 -3.67015 0
M  V30 1436 C 129.113 3.6734 -6.18428 0
M  V30 1437 C 131.139 3.37333 -4.85758 0
M  V30 1438 C 130.501 3.52438 -6.09891 0
M  V30 1439 H 126.6 0.700433 -0.347733 0
M  V30 1440 H 129.184 1.38441 -1.36902 0
M  V30 1441 H 127.355 3.81786 -0.713713 0
M  V30 1442 H 129.087 3.93875 -0.929745 0
M  V30 1443 H 125.842 3.71568 -2.93656 0
M  V30 1444 H 126.266 3.8727 -5.55294 0
M  V30 1445 H 130.908 3.237 -2.71989 0
M  V30 1446 H 128.626 3.78878 -7.13777 0
M  V30 1447 H 132.212 3.25617 -4.82146 0
M  V30 1448 H 131.092 3.53047 -7.00234 0
M  V30 1449 N 128.595 0.856903 1.32268 0
M  V30 1450 C 129.842 0.461386 1.97174 0
M  V30 1451 C 130.17 -0.983491 1.67803 0
M  V30 1452 O 129.425 -1.70541 0.959903 0
M  V30 1453 C 129.724 0.649919 3.51441 0
M  V30 1454 C 129.39 2.0656 4.00804 0
M  V30 1455 C 128.052 2.45279 4.13995 0
M  V30 1456 C 130.404 2.98947 4.26943 0
M  V30 1457 C 127.732 3.75653 4.50668 0
M  V30 1458 C 130.084 4.28822 4.65075 0
M  V30 1459 C 128.748 4.67472 4.76472 0
M  V30 1460 H 128.018 0.168833 0.72151 0
M  V30 1461 H 130.665 1.08739 1.57633 0
M  V30 1462 H 128.97 -0.0593018 3.91755 0
M  V30 1463 H 130.667 0.32391 3.9969 0
M  V30 1464 H 127.257 1.75495 3.91024 0
M  V30 1465 H 131.441 2.70265 4.16258 0
M  V30 1466 H 126.697 4.05379 4.57688 0
M  V30 1467 H 130.871 5.0047 4.84255 0
M  V30 1468 H 128.498 5.68539 5.04646 0
M  V30 1469 N 130.073 -1.45103 0.615059 0
M  V30 1470 C 131.02 -2.30586 -0.0993978 0
M  V30 1471 C 131.99 -1.42544 -0.852669 0
M  V30 1472 O 133.175 -1.71465 -0.836917 0
M  V30 1473 C 130.315 -3.27572 -1.08583 0
M  V30 1474 C 129.428 -4.30717 -0.332656 0
M  V30 1475 C 128.563 -5.14807 -1.30947 0
M  V30 1476 C 127.602 -6.09673 -0.544538 0
M  V30 1477 N 126.739 -6.86517 -1.47101 0
M  V30 1478 H 131.579 -2.91144 0.635542 0
M  V30 1479 H 129.116 -1.4346 0.325206 0
M  V30 1480 H 131.074 -3.82276 -1.67095 0
M  V30 1481 H 129.704 -2.68751 -1.78809 0
M  V30 1482 H 128.756 -3.78615 0.368107 0
M  V30 1483 H 130.068 -4.98102 0.263842 0
M  V30 1484 H 129.222 -5.73948 -1.96643 0
M  V30 1485 H 127.961 -4.47458 -1.9399 0
M  V30 1486 H 126.966 -5.49656 0.126003 0
M  V30 1487 H 128.191 -6.79052 0.080947 0
M  V30 1488 H 126.137 -6.21851 -2.08895 0
M  V30 1489 H 126.054 -7.50281 -0.928137 0
M  V30 1490 H 127.322 -7.50194 -2.11731 0
M  V30 1491 N 131.551 -0.354651 -1.53558 0
M  V30 1492 C 132.498 0.496968 -2.25386 0
M  V30 1493 C 133.468 1.0865 -1.25636 0
M  V30 1494 O 134.653 1.12104 -1.54394 0
M  V30 1495 C 131.793 1.63637 -3.03837 0
M  V30 1496 C 130.906 1.07307 -4.18461 0
M  V30 1497 C 130.041 2.18068 -4.84376 0
M  V30 1498 C 129.08 1.59147 -5.91049 0
M  V30 1499 N 128.217 2.63695 -6.50699 0
M  V30 1500 H 133.057 -0.122075 -2.9775 0
M  V30 1501 H 130.594 -0.0720154 -1.46924 0
M  V30 1502 H 132.552 2.30734 -3.47589 0
M  V30 1503 H 131.182 2.22623 -2.33749 0
M  V30 1504 H 130.234 0.292708 -3.79272 0
M  V30 1505 H 131.546 0.602193 -4.95152 0
M  V30 1506 H 130.7 2.93007 -5.31255 0
M  V30 1507 H 129.439 2.68504 -4.07133 0
M  V30 1508 H 128.444 0.827175 -5.43542 0
M  V30 1509 H 129.669 1.09549 -6.70206 0
M  V30 1510 H 127.615 3.13365 -5.76315 0
M  V30 1511 H 127.532 2.21263 -7.22896 0
M  V30 1512 H 128.8 3.3837 -7.02229 0
M  V30 1513 N 133.029 1.57378 -0.0835403 0
M  V30 1514 C 133.959 2.1641 0.87686 0
M  V30 1515 C 134.94 1.09429 1.30228 0
M  V30 1516 O 136.125 1.37516 1.37124 0
M  V30 1517 C 133.255 2.73517 2.14022 0
M  V30 1518 C 132.209 3.85769 1.85381 0
M  V30 1519 C 131.535 4.29529 3.18448 0
M  V30 1520 C 132.835 5.09486 1.14984 0
M  V30 1521 H 134.529 2.96914 0.385059 0
M  V30 1522 H 132.075 1.42823 0.18377 0
M  V30 1523 H 134.028 3.13463 2.81636 0
M  V30 1524 H 132.752 1.90252 2.65465 0
M  V30 1525 H 131.411 3.46345 1.20169 0
M  V30 1526 H 131.059 3.43169 3.67755 0
M  V30 1527 H 130.759 5.05204 3.00071 0
M  V30 1528 H 132.283 4.72099 3.8724 0
M  V30 1529 H 133.697 5.46674 1.72687 0
M  V30 1530 H 132.094 5.90515 1.06826 0
M  V30 1531 H 133.164 4.84724 0.130749 0
M  V30 1532 N 134.507 -0.190092 1.56449 0
M  V30 1533 C 135.457 -1.23977 1.91347 0
M  V30 1534 C 136.441 -1.40747 0.779693 0
M  V30 1535 O 137.633 -1.43033 1.04262 0
M  V30 1536 C 134.762 -2.58347 2.26079 0
M  V30 1537 C 133.848 -2.4535 3.45925 0
M  V30 1538 N 134.239 -2.02039 4.63696 0
M  V30 1539 C 132.537 -2.76229 3.50162 0
M  V30 1540 C 133.238 -2.01053 5.4585 0
M  V30 1541 N 132.214 -2.42747 4.8639 0
M  V30 1542 H 136.016 -0.896318 2.79899 0
M  V30 1543 H 133.53 -0.398496 1.57435 0
M  V30 1544 H 135.527 -3.34173 2.49267 0
M  V30 1545 H 134.187 -2.93512 1.38856 0
M  V30 1546 H 135.198 -1.7267 4.88268 0
M  V30 1547 H 131.875 -3.15556 2.73369 0
M  V30 1548 H 133.265 -1.69426 6.50188 0
M  V30 1549 N 135.985 -1.50799 -0.457987 0
M  V30 1550 C 136.915 -1.73553 -1.5621 0
M  V30 1551 C 137.896 -0.584774 -1.59732 0
M  V30 1552 O 139.081 -0.825314 -1.7579 0
M  V30 1553 C 136.211 -1.84169 -2.94447 0
M  V30 1554 C 135.165 -2.99461 -3.0579 0
M  V30 1555 C 134.491 -2.95235 -4.45803 0
M  V30 1556 C 135.791 -4.39766 -2.81786 0
M  V30 1557 H 137.485 -2.66 -1.37421 0
M  V30 1558 H 135.031 -1.28002 -0.659662 0
M  V30 1559 H 136.984 -1.98672 -3.71628 0
M  V30 1560 H 135.708 -0.883545 -3.14422 0
M  V30 1561 H 134.367 -2.8463 -2.31044 0
M  V30 1562 H 134.015 -1.97239 -4.62715 0
M  V30 1563 H 133.715 -3.72642 -4.54326 0
M  V30 1564 H 135.239 -3.11803 -5.24987 0
M  V30 1565 H 136.653 -4.55054 -3.4871 0
M  V30 1566 H 135.05 -5.18722 -3.0174 0
M  V30 1567 H 136.12 -4.51229 -1.7754 0
M  V30 1568 N 137.463 0.71206 -1.40597 0
M  V30 1569 C 138.709 1.47416 -1.39271 0
M  V30 1570 C 139.042 1.942 0.00388791 0
M  V30 1571 O 138.317 1.68403 0.973179 0
M  V30 1572 C 138.6 2.69774 -2.38525 0
M  V30 1573 C 138.453 2.28861 -3.87224 0
M  V30 1574 C 139.772 3.71939 -2.35264 0
M  V30 1575 H 136.891 0.534713 -0.5072 0
M  V30 1576 H 139.533 0.812375 -1.71757 0
M  V30 1577 H 137.683 3.26238 -2.10953 0
M  V30 1578 H 139.355 1.77852 -4.25636 0
M  V30 1579 H 137.598 1.60824 -4.02887 0
M  V30 1580 H 138.269 3.16584 -4.52193 0
M  V30 1581 H 140.745 3.25113 -2.59694 0
M  V30 1582 H 139.621 4.55186 -3.06753 0
M  V30 1583 H 139.882 4.20484 -1.36549 0
M  V30 1584 N 138.941 1.26152 0.944643 0
M  V30 1585 C 139.889 1.07215 2.06417 0
M  V30 1586 C 140.883 9.2007e-05 1.694 0
M  V30 1587 O 142.089 0.1565 1.79318 0
M  V30 1588 H 138.464 0.329837 0.675805 0
M  V30 1589 H 140.435 2.02099 2.19541 0
M  V30 1590 C 139.184 0.718197 3.40202 0
M  V30 1591 H 138.507 1.53497 3.69159 0
M  V30 1592 H 139.947 0.625459 4.19361 0
M  V30 1593 C 138.406 -0.576435 3.31932 0
M  V30 1594 O 138.936 -1.61574 3.67773 0
M  V30 1595 N 137.142 -0.565781 2.85039 0
M  V30 1596 H 136.689 0.280367 2.5607 0
M  V30 1597 H 136.647 -1.43213 2.79888 0
M  V30 1598 N 140.419 -1.14872 1.07899 0
M  V30 1599 C 141.666 -1.85789 0.805532 0
M  V30 1600 C 141.994 -1.82649 -0.668561 0
M  V30 1601 O 141.249 -1.24858 -1.50695 0
M  V30 1602 C 141.548 -3.34223 1.26609 0
M  V30 1603 C 141.214 -3.57555 2.74709 0
M  V30 1604 C 139.876 -3.63631 3.1516 0
M  V30 1605 C 142.228 -3.66803 3.70277 0
M  V30 1606 C 139.556 -3.76473 4.49983 0
M  V30 1607 C 141.908 -3.8117 5.04869 0
M  V30 1608 C 140.572 -3.85494 5.44932 0
M  V30 1609 H 139.842 -0.679849 0.294765 0
M  V30 1610 H 142.489 -1.3572 1.35101 0
M  V30 1611 H 140.794 -3.86536 0.640103 0
M  V30 1612 H 142.491 -3.87511 1.03132 0
M  V30 1613 H 139.081 -3.5347 2.42398 0
M  V30 1614 H 143.265 -3.61404 3.40149 0
M  V30 1615 H 138.521 -3.7808 4.80484 0
M  V30 1616 H 142.695 -3.87268 5.78789 0
M  V30 1617 H 140.322 -3.95197 6.49403 0
M  V30 1618 N 141.898 -0.863906 -1.31812 0
M  V30 1619 C 143.144 -0.472535 -1.97218 0
M  V30 1620 C 143.477 0.971394 -1.68159 0
M  V30 1621 O 142.752 1.68309 -0.974798 0
M  V30 1622 C 143.035 -0.723054 -3.52766 0
M  V30 1623 C 142.888 -2.21608 -3.91421 0
M  V30 1624 C 144.207 -0.185522 -4.39709 0
M  V30 1625 H 141.326 -0.173158 -0.71637 0
M  V30 1626 H 143.968 -1.08403 -1.56041 0
M  V30 1627 H 142.118 -0.202577 -3.87971 0
M  V30 1628 H 143.79 -2.80334 -3.66347 0
M  V30 1629 H 142.033 -2.691 -3.40246 0
M  V30 1630 H 142.704 -2.34203 -4.99853 0
M  V30 1631 H 145.18 -0.630726 -4.11292 0
M  V30 1632 H 144.056 -0.390306 -5.47511 0
M  V30 1633 H 144.317 0.912229 -4.32586 0
M  V30 1634 N 143.376 1.44774 -0.622745 0
M  V30 1635 C 144.286 2.34433 0.0886031 0
M  V30 1636 C 145.302 1.52131 0.844529 0
M  V30 1637 O 146.478 1.84886 0.798691 0
M  V30 1638 C 143.543 3.29986 1.0635 0
M  V30 1639 C 142.604 4.28195 0.307873 0
M  V30 1640 C 141.837 5.19183 1.23633 0
M  V30 1641 O 142.06 5.13918 2.47476 0
M  V30 1642 O 140.994 5.97515 0.725189 0
M  V30 1643 H 144.82 2.96693 -0.648599 0
M  V30 1644 H 142.405 1.44408 -0.382957 0
M  V30 1645 H 144.287 3.88825 1.6246 0
M  V30 1646 H 142.962 2.70269 1.78146 0
M  V30 1647 H 141.869 3.72927 -0.296064 0
M  V30 1648 H 143.202 4.90808 -0.3699 0
M  V30 1649 N 144.854 0.36279 1.53368 0
M  V30 1650 C 146.265 -0.117022 1.86333 0
M  V30 1651 C 146.616 -1.48397 1.28347 0
M  V30 1652 O 145.741 -2.07787 0.604428 0
M  V30 1653 C 146.336 -0.21912 3.38091 0
M  V30 1654 C 144.895 -0.643184 3.70864 0
M  V30 1655 C 144.042 0.211318 2.76494 0
M  V30 1656 H 146.993 0.581687 1.47655 0
M  V30 1657 H 147.014 -1.04319 3.6592 0
M  V30 1658 H 146.526 0.775902 3.80265 0
M  V30 1659 H 144.627 -1.64654 3.34245 0
M  V30 1660 H 144.74 -0.41973 4.77258 0
M  V30 1661 H 143.104 -0.319367 2.5269 0
M  V30 1662 H 143.887 1.20383 3.21501 0
M  V30 1663 N 146.332 -1.57332 0.0918853 0
M  V30 1664 C 147.578 -1.94524 -0.573425 0
M  V30 1665 C 147.911 -0.973578 -1.68033 0
M  V30 1666 O 147.186 -0.00609226 -1.94499 0
M  V30 1667 C 147.469 -3.41858 -1.13161 0
M  V30 1668 C 147.322 -4.4979 -0.0299747 0
M  V30 1669 C 148.641 -3.90435 -2.03098 0
M  V30 1670 H 145.76 -0.70734 -0.206975 0
M  V30 1671 H 148.402 -1.89309 0.161942 0
M  V30 1672 H 146.552 -3.46433 -1.7583 0
M  V30 1673 H 148.224 -4.57327 0.604112 0
M  V30 1674 H 146.467 -4.291 0.636833 0
M  V30 1675 H 147.138 -5.50069 -0.461287 0
M  V30 1676 H 149.614 -3.87992 -1.50338 0
M  V30 1677 H 148.49 -4.94097 -2.39081 0
M  V30 1678 H 148.751 -3.29541 -2.94712 0
M  V30 1679 N 147.81 0.181792 -1.56548 0
M  V30 1680 C 149.058 0.89832 -1.81038 0
M  V30 1681 C 149.379 1.83232 -0.667164 0
M  V30 1682 O 148.649 1.93372 0.313673 0
M  V30 1683 H 147.229 0.33471 -0.667816 0
M  V30 1684 H 149.891 0.184116 -1.94028 0
M  V30 1685 H 148.987 1.4815 -2.74696 0
M  V30 1686 N 149.288 1.51039 0.449983 0
M  V30 1687 C 150.218 1.74379 1.55288 0
M  V30 1688 C 151.199 0.593236 1.5942 0
M  V30 1689 O 152.384 0.834625 1.7535 0
M  V30 1690 C 149.514 1.85728 2.93466 0
M  V30 1691 C 148.468 3.01078 3.04197 0
M  V30 1692 C 147.794 2.97595 4.44231 0
M  V30 1693 C 149.094 4.41254 2.7945 0
M  V30 1694 H 150.788 2.66725 1.36008 0
M  V30 1695 H 148.334 1.2835 0.652864 0
M  V30 1696 H 150.287 2.0064 3.70569 0
M  V30 1697 H 149.011 0.900207 3.13949 0
M  V30 1698 H 147.67 2.85851 2.29531 0
M  V30 1699 H 147.318 1.99691 4.61663 0
M  V30 1700 H 147.018 3.75046 4.52343 0
M  V30 1701 H 148.542 3.14583 5.23326 0
M  V30 1702 H 149.956 4.56897 3.46292 0
M  V30 1703 H 148.353 5.20315 2.98985 0
M  V30 1704 H 149.423 4.52164 1.75144 0
M  V30 1705 N 150.766 -0.704594 1.40972 0
M  V30 1706 C 151.714 -1.83994 1.42299 0
M  V30 1707 C 152.708 -1.66684 0.302111 0
M  V30 1708 O 153.914 -1.73655 0.473697 0
M  V30 1709 H 150.289 -0.606171 0.44504 0
M  V30 1710 H 152.26 -1.79992 2.38003 0
M  V30 1711 C 151.009 -3.21946 1.31323 0
M  V30 1712 H 150.332 -3.35878 2.16855 0
M  V30 1713 H 151.772 -4.01491 1.36311 0
M  V30 1714 C 150.231 -3.36891 0.0245977 0
M  V30 1715 O 150.761 -3.90687 -0.934153 0
M  V30 1716 N 148.967 -2.90559 -0.0485243 0
M  V30 1717 H 148.514 -2.46968 0.732419 0
M  V30 1718 H 148.472 -3.00937 -0.910171 0
M  V30 1719 N 152.244 -1.26651 -0.937939 0
M  V30 1720 C 153.474 -1.15006 -1.71631 0
M  V30 1721 C 153.882 0.297026 -1.86854 0
M  V30 1722 O 153.225 1.21493 -1.37786 0
M  V30 1723 C 153.287 -1.74984 -3.14039 0
M  V30 1724 C 152.951 -3.24103 -3.2219 0
M  V30 1725 C 153.948 -4.20877 -3.05219 0
M  V30 1726 C 151.633 -3.64625 -3.45476 0
M  V30 1727 C 153.627 -5.56151 -3.11408 0
M  V30 1728 C 151.314 -5.00032 -3.513 0
M  V30 1729 C 152.312 -5.95604 -3.34282 0
M  V30 1730 O 152 -7.28545 -3.3982 0
M  V30 1731 H 151.732 -0.401183 -0.544085 0
M  V30 1732 H 154.286 -1.67832 -1.18413 0
M  V30 1733 H 152.516 -1.16624 -3.68695 0
M  V30 1734 H 154.205 -1.58199 -3.73802 0
M  V30 1735 H 154.971 -3.90908 -2.87081 0
M  V30 1736 H 150.85 -2.90718 -3.57777 0
M  V30 1737 H 154.394 -6.30727 -2.98043 0
M  V30 1738 H 150.291 -5.29659 -3.68959 0
M  V30 1739 H 151.059 -7.3686 -3.56343 0
M  V30 1740 N 153.722 1.14298 -1.08507 0
M  V30 1741 C 154.947 1.8976 -0.837001 0
M  V30 1742 C 155.372 1.78097 0.605228 0
M  V30 1743 O 154.73 1.12188 1.4242 0
M  V30 1744 C 154.778 3.37685 -1.26495 0
M  V30 1745 O 153.882 4.10281 -0.417514 0
M  V30 1746 H 153.223 0.590365 -0.303917 0
M  V30 1747 H 155.753 1.44672 -1.44676 0
M  V30 1748 H 155.763 3.88501 -1.24625 0
M  V30 1749 H 154.438 3.45492 -2.31534 0
M  V30 1750 H 153.015 3.69536 -0.499722 0
M  V30 1751 N 155.201 0.870884 1.31352 0
M  V30 1752 C 156.134 0.271983 2.26573 0
M  V30 1753 C 157.112 -0.599385 1.51149 0
M  V30 1754 O 158.296 -0.552605 1.80218 0
M  V30 1755 C 155.423 -0.614801 3.33073 0
M  V30 1756 C 154.469 0.185342 4.26097 0
M  V30 1757 S 155.302 1.56444 5.12138 0
M  V30 1758 C 156.458 0.683807 6.22153 0
M  V30 1759 H 156.691 1.07916 2.77023 0
M  V30 1760 H 154.224 0.669459 1.39132 0
M  V30 1761 H 156.182 -1.12074 3.94905 0
M  V30 1762 H 154.843 -1.39593 2.81376 0
M  V30 1763 H 154.036 -0.490771 5.01605 0
M  V30 1764 H 153.638 0.623415 3.68768 0
M  V30 1765 H 155.93 -0.10521 6.77418 0
M  V30 1766 H 156.873 1.41004 6.93919 0
M  V30 1767 H 157.281 0.250952 5.63942 0
M  V30 1768 N 156.679 -1.44442 0.630414 0
M  V30 1769 C 157.926 -2.02052 0.134617 0
M  V30 1770 C 158.254 -1.49576 -1.24327 0
M  V30 1771 O 157.509 -0.669806 -1.83881 0
M  V30 1772 C 157.808 -3.57332 0.0697835 0
M  V30 1773 C 157.474 -4.29058 1.38635 0
M  V30 1774 C 156.136 -4.4837 1.74694 0
M  V30 1775 C 158.488 -4.69872 2.25543 0
M  V30 1776 C 155.816 -5.05756 2.97369 0
M  V30 1777 C 158.168 -5.28616 3.47487 0
M  V30 1778 C 156.832 -5.46147 3.8377 0
M  V30 1779 H 156.102 -0.739361 0.0492598 0
M  V30 1780 H 158.749 -1.73217 0.816586 0
M  V30 1781 H 157.054 -3.85577 -0.695553 0
M  V30 1782 H 158.751 -3.99637 -0.330344 0
M  V30 1783 H 155.341 -4.14357 1.09574 0
M  V30 1784 H 159.525 -4.54666 1.98979 0
M  V30 1785 H 154.781 -5.17515 3.25558 0
M  V30 1786 H 158.955 -5.59192 4.15063 0
M  V30 1787 H 156.582 -5.9038 4.7891 0
M  V30 1788 N 158.157 -0.370918 -1.53173 0
M  V30 1789 C 159.406 0.218249 -2.00516 0
M  V30 1790 C 159.719 1.49429 -1.26215 0
M  V30 1791 O 160.925 2.16239 -1.64174 0
M  V30 1792 C 159.381 0.43948 -3.57207 0
M  V30 1793 C 158.989 -0.822244 -4.4039 0
M  V30 1794 C 160.733 0.986012 -4.1289 0
M  V30 1795 C 158.64 -0.570304 -5.88644 0
M  V30 1796 H 157.57 0.0853333 -0.749156 0
M  V30 1797 H 160.221 -0.490483 -1.76823 0
M  V30 1798 H 158.603 1.20961 -3.77074 0
M  V30 1799 H 159.777 -1.59557 -4.32294 0
M  V30 1800 H 158.092 -1.29238 -3.95836 0
M  V30 1801 H 160.689 1.18991 -5.21292 0
M  V30 1802 H 161.032 1.94972 -3.6782 0
M  V30 1803 H 161.565 0.27592 -3.96842 0
M  V30 1804 H 158.304 -1.50449 -6.38001 0
M  V30 1805 H 157.824 0.164427 -5.99575 0
M  V30 1806 H 159.503 -0.19784 -6.46697 0
M  V30 1807 N 159.635 1.57281 -0.100228 0
M  V30 1808 C 161.046 1.81725 0.428107 0
M  V30 1809 C 161.397 1.01619 1.67833 0
M  V30 1810 O 160.522 0.247098 2.14985 0
M  V30 1811 C 161.117 3.29617 0.78347 0
M  V30 1812 C 159.676 3.54808 1.25653 0
M  V30 1813 C 158.823 2.76118 0.255752 0
M  V30 1814 H 161.774 1.55324 -0.325608 0
M  V30 1815 H 161.795 3.4322 1.64256 0
M  V30 1816 H 161.307 3.87893 -0.12665 0
M  V30 1817 H 159.408 3.01868 2.18418 0
M  V30 1818 H 159.521 4.63443 1.21482 0
M  V30 1819 H 157.885 2.43745 0.738956 0
M  V30 1820 H 158.668 3.37145 -0.647136 0
M  V30 1821 N 161.113 -0.173488 1.56642 0
M  V30 1822 C 162.341 -0.906095 1.86004 0
M  V30 1823 C 162.756 -1.75921 0.685355 0
M  V30 1824 O 162.113 -1.79198 -0.345578 0
M  V30 1825 C 162.164 -1.78462 3.14378 0
M  V30 1826 O 161.885 -0.965914 4.27319 0
M  V30 1827 C 163.386 -2.62707 3.57071 0
M  V30 1828 H 160.606 -0.263341 0.617165 0
M  V30 1829 H 163.15 -0.174236 2.03756 0
M  V30 1830 H 161.305 -2.46984 2.98459 0
M  V30 1831 H 161.719 -1.56655 5.00559 0
M  V30 1832 H 163.193 -3.19969 4.49804 0
M  V30 1833 H 163.67 -3.37472 2.81086 0
M  V30 1834 H 164.276 -1.99521 3.75595 0
M  V30 1835 N 162.591 -1.51276 -0.441967 0
M  V30 1836 C 163.521 -1.752 -1.54361 0
M  V30 1837 C 164.502 -0.601682 -1.59103 0
M  V30 1838 O 165.687 -0.843913 -1.74905 0
M  V30 1839 C 162.817 -1.87282 -2.92477 0
M  V30 1840 C 161.771 -3.02687 -3.02596 0
M  V30 1841 C 161.097 -2.99947 -4.42647 0
M  V30 1842 C 162.397 -4.4273 -2.77106 0
M  V30 1843 H 164.091 -2.67442 -1.34592 0
M  V30 1844 H 161.637 -1.28694 -0.646048 0
M  V30 1845 H 163.59 -2.02602 -3.695 0
M  V30 1846 H 162.314 -0.916844 -3.13467 0
M  V30 1847 H 160.973 -2.87065 -2.28012 0
M  V30 1848 H 160.621 -2.02136 -4.60597 0
M  V30 1849 H 160.321 -3.77439 -4.50348 0
M  V30 1850 H 161.845 -3.17354 -5.2165 0
M  V30 1851 H 163.259 -4.58727 -3.43864 0
M  V30 1852 H 161.656 -5.21893 -2.96222 0
M  V30 1853 H 162.726 -4.53087 -1.72744 0
M  V30 1854 N 164.069 0.697108 -1.41344 0
M  V30 1855 C 164.999 1.82353 -1.45841 0
M  V30 1856 C 165.98 1.67115 -0.317247 0
M  V30 1857 O 167.165 1.86871 -0.528474 0
M  V30 1858 C 164.295 3.20476 -1.33838 0
M  V30 1859 C 163.249 3.50415 -2.4575 0
M  V30 1860 C 162.575 4.87878 -2.18813 0
M  V30 1861 C 163.875 3.49546 -3.88091 0
M  V30 1862 H 165.569 1.78846 -2.40113 0
M  V30 1863 H 163.115 0.859028 -1.15571 0
M  V30 1864 H 165.068 3.98988 -1.35596 0
M  V30 1865 H 163.792 3.24604 -0.360498 0
M  V30 1866 H 162.451 2.74253 -2.43271 0
M  V30 1867 H 162.099 4.8863 -1.19371 0
M  V30 1868 H 161.799 5.08875 -2.93803 0
M  V30 1869 H 163.323 5.68702 -2.22284 0
M  V30 1870 H 164.737 4.18066 -3.92293 0
M  V30 1871 H 163.134 3.82075 -4.62751 0
M  V30 1872 H 164.204 2.48552 -4.16353 0
M  V30 1873 N 165.547 1.27147 0.931209 0
M  V30 1874 C 166.495 1.09398 2.05268 0
M  V30 1875 C 167.489 0.0180591 1.6939 0
M  V30 1876 O 168.695 0.17551 1.79142 0
M  V30 1877 H 165.07 0.336986 0.672268 0
M  V30 1878 H 167.041 2.04416 2.17386 0
M  V30 1879 C 165.79 0.75424 3.39421 0
M  V30 1880 H 165.113 1.57404 3.67511 0
M  V30 1881 H 166.553 0.669903 4.18674 0
M  V30 1882 C 165.012 -0.541197 3.32525 0
M  V30 1883 O 165.542 -1.57664 3.69466 0
M  V30 1884 N 163.748 -0.535517 2.85623 0
M  V30 1885 H 163.295 0.307511 2.55758 0
M  V30 1886 H 163.253 -1.40236 2.81392 0
M  V30 1887 N 167.025 -1.13721 1.09112 0
M  V30 1888 C 167.957 -2.1871 0.685467 0
M  V30 1889 C 168.97 -1.60527 -0.271068 0
M  V30 1890 O 170.159 -1.78407 -0.0576148 0
M  V30 1891 C 167.259 -3.38898 -0.0111255 0
M  V30 1892 C 166.432 -4.26597 0.966131 0
M  V30 1893 C 165.491 -5.25324 0.303539 0
M  V30 1894 O 164.517 -5.61213 0.950177 0
M  V30 1895 N 165.719 -5.72779 -0.943651 0
M  V30 1896 H 168.484 -2.54126 1.58871 0
M  V30 1897 H 166.045 -1.29012 0.978143 0
M  V30 1898 H 168.037 -4.02014 -0.465517 0
M  V30 1899 H 166.607 -3.01747 -0.816565 0
M  V30 1900 H 165.827 -3.60306 1.59917 0
M  V30 1901 H 167.115 -4.82048 1.6281 0
M  V30 1902 H 166.513 -5.45762 -1.48862 0
M  V30 1903 H 165.07 -6.37847 -1.34142 0
M  V30 1904 N 168.503 -0.877838 -1.30888 0
M  V30 1905 C 169.751 -0.491723 -1.96027 0
M  V30 1906 C 170.072 0.960827 -1.69685 0
M  V30 1907 O 169.342 1.67462 -1.01654 0
M  V30 1908 H 167.922 -0.17885 -0.725273 0
M  V30 1909 H 170.584 -1.11935 -1.59551 0
M  V30 1910 H 169.68 -0.656016 -3.05128 0
M  V30 1911 N 169.982 1.44106 -0.638065 0
M  V30 1912 C 171.21 2.06336 -0.152615 0
M  V30 1913 C 171.625 1.47731 1.17563 0
M  V30 1914 O 170.982 0.602806 1.72257 0
M  V30 1915 C 171.033 3.61479 -0.0391491 0
M  V30 1916 O 170.754 4.17903 -1.31487 0
M  V30 1917 C 172.255 4.40757 0.474176 0
M  V30 1918 H 169.475 0.665862 -0.0828776 0
M  V30 1919 H 172.019 1.84862 -0.87443 0
M  V30 1920 H 170.174 3.82191 0.633142 0
M  V30 1921 H 170.588 5.11416 -1.16421 0
M  V30 1922 H 172.062 5.49707 0.502562 0
M  V30 1923 H 172.539 4.12697 1.50258 0
M  V30 1924 H 173.145 4.24979 -0.165102 0
M  V30 1925 N 171.46 0.379036 1.52974 0
M  V30 1926 C 172.688 -0.20679 2.05864 0
M  V30 1927 C 173.103 -1.41356 1.25155 0
M  V30 1928 O 172.46 -1.8009 0.295588 0
M  V30 1929 C 172.511 -0.587045 3.56702 0
M  V30 1930 O 172.232 0.571776 4.34353 0
M  V30 1931 C 173.733 -1.22983 4.25899 0
M  V30 1932 H 170.953 -0.0336123 0.670158 0
M  V30 1933 H 173.497 0.541298 1.97206 0
M  V30 1934 H 171.652 -1.28504 3.65466 0
M  V30 1935 H 172.066 0.261544 5.23847 0
M  V30 1936 H 173.54 -1.44635 5.32715 0
M  V30 1937 H 174.017 -2.19416 3.80465 0
M  V30 1938 H 174.623 -0.572892 4.21424 0
M  V30 1939 N 172.938 -1.57226 0.108567 0
M  V30 1940 C 173.901 -2.13602 -0.831082 0
M  V30 1941 C 174.901 -1.06841 -1.20173 0
M  V30 1942 O 176.091 -1.32666 -1.12895 0
M  V30 1943 C 173.223 -2.66769 -2.12243 0
M  V30 1944 H 174.416 -2.97951 -0.341317 0
M  V30 1945 H 171.969 -1.55667 -0.14057 0
M  V30 1946 H 172.704 -1.85977 -2.65675 0
M  V30 1947 H 172.489 -3.44839 -1.86625 0
M  V30 1948 H 173.979 -3.10332 -2.79435 0
M  V30 1949 N 174.416 0.165178 -1.56732 0
M  V30 1950 C 175.348 1.22911 -1.93457 0
M  V30 1951 C 176.361 1.40152 -0.828333 0
M  V30 1952 O 177.55 1.40046 -1.10677 0
M  V30 1953 C 174.65 2.59686 -2.17753 0
M  V30 1954 C 173.823 2.63663 -3.48999 0
M  V30 1955 C 172.882 3.81845 -3.62051 0
M  V30 1956 O 171.908 3.67559 -4.34613 0
M  V30 1957 N 173.11 4.98557 -2.97357 0
M  V30 1958 H 175.875 0.917118 -2.85323 0
M  V30 1959 H 173.436 0.354895 -1.57962 0
M  V30 1960 H 175.428 3.37225 -2.23743 0
M  V30 1961 H 173.998 2.83251 -1.32242 0
M  V30 1962 H 173.218 1.72173 -3.54612 0
M  V30 1963 H 174.506 2.63336 -4.35352 0
M  V30 1964 H 173.904 5.13065 -2.38287 0
M  V30 1965 H 172.461 5.73936 -3.08934 0
M  V30 1966 N 175.894 1.51508 0.433938 0
M  V30 1967 C 176.841 1.73068 1.52696 0
M  V30 1968 C 177.811 0.572441 1.55924 0
M  V30 1969 O 178.996 0.807253 1.72882 0
M  V30 1970 C 176.136 1.86474 2.90381 0
M  V30 1971 C 175.249 3.14037 2.96656 0
M  V30 1972 C 174.384 3.18019 4.25485 0
M  V30 1973 C 173.423 4.39882 4.2564 0
M  V30 1974 N 172.56 4.41394 5.45999 0
M  V30 1975 H 177.4 2.66366 1.33615 0
M  V30 1976 H 174.937 1.32008 0.649018 0
M  V30 1977 H 176.895 1.92229 3.70275 0
M  V30 1978 H 175.525 0.965809 3.08013 0
M  V30 1979 H 174.577 3.17575 2.09404 0
M  V30 1980 H 175.889 4.0394 2.92633 0
M  V30 1981 H 175.043 3.22708 5.13755 0
M  V30 1982 H 173.782 2.2601 4.3217 0
M  V30 1983 H 172.787 4.35366 3.35763 0
M  V30 1984 H 174.012 5.33159 4.20617 0
M  V30 1985 H 171.958 3.52258 5.53399 0
M  V30 1986 H 171.875 5.25111 5.4387 0
M  V30 1987 H 173.143 4.50281 6.36292 0
M  V30 1988 N 177.372 -0.689602 1.41712 0
M  V30 1989 C 178.282 -1.83314 1.46401 0
M  V30 1990 C 179.298 -1.7036 0.35405 0
M  V30 1991 O 180.474 -1.92171 0.602692 0
M  V30 1992 C 177.539 -3.19344 1.34982 0
M  V30 1993 C 176.6 -3.44363 2.56344 0
M  V30 1994 C 175.833 -4.73904 2.45461 0
M  V30 1995 O 176.056 -5.508 1.48241 0
M  V30 1996 O 174.99 -4.99839 3.35328 0
M  V30 1997 H 178.816 -1.82314 2.42889 0
M  V30 1998 H 176.401 -0.843438 1.23315 0
M  V30 1999 H 178.283 -4.00547 1.3092 0
M  V30 2000 H 176.958 -3.21014 0.41612 0
M  V30 2001 H 175.865 -2.63067 2.65982 0
M  V30 2002 H 177.198 -3.47512 3.48563 0
M  V30 2003 N 178.85 -1.27639 -0.924453 0
M  V30 2004 C 179.797 -1.10644 -2.0255 0
M  V30 2005 C 180.767 -0.00658438 -1.66099 0
M  V30 2006 O 181.952 -0.16952 -1.90045 0
M  V30 2007 C 179.092 -0.76309 -3.36557 0
M  V30 2008 C 178.205 -1.94091 -3.85944 0
M  V30 2009 C 177.34 -1.53914 -5.08413 0
M  V30 2010 C 176.379 -2.68425 -5.50104 0
M  V30 2011 N 175.516 -2.28815 -6.63768 0
M  V30 2012 H 180.356 -2.04858 -2.16419 0
M  V30 2013 H 177.893 -1.01974 -1.06017 0
M  V30 2014 H 179.851 -0.544822 -4.13627 0
M  V30 2015 H 178.481 0.142102 -3.22487 0
M  V30 2016 H 177.533 -2.27162 -3.05125 0
M  V30 2017 H 178.845 -2.7998 -4.12811 0
M  V30 2018 H 177.999 -1.28231 -5.92994 0
M  V30 2019 H 176.738 -0.651391 -4.8333 0
M  V30 2020 H 175.743 -2.94819 -4.64071 0
M  V30 2021 H 176.968 -3.57826 -5.7718 0
M  V30 2022 H 174.914 -1.42495 -6.40337 0
M  V30 2023 H 174.831 -3.08242 -6.90306 0
M  V30 2024 H 176.099 -2.06387 -7.51681 0
M  V30 2025 N 180.328 1.1314 -1.09713 0
M  V30 2026 C 181.574 1.84967 -0.846104 0
M  V30 2027 C 181.929 1.82082 0.621601 0
M  V30 2028 O 181.222 1.2501 1.452 0
M  V30 2029 C 181.416 3.32167 -1.3191 0
M  V30 2030 C 181.245 3.49386 -2.83125 0
M  V30 2031 C 180.015 3.63456 -3.51038 0
M  V30 2032 C 182.213 3.45179 -3.81256 0
M  V30 2033 N 180.195 3.68966 -4.9065 0
M  V30 2034 C 181.566 3.57094 -5.06837 0
M  V30 2035 C 183.621 3.28598 -3.74069 0
M  V30 2036 C 182.324 3.5414 -6.26081 0
M  V30 2037 C 184.35 3.26953 -4.92804 0
M  V30 2038 C 183.712 3.39422 -6.17229 0
M  V30 2039 H 179.811 0.692899 -0.362512 0
M  V30 2040 H 182.395 1.35506 -1.39808 0
M  V30 2041 H 180.566 3.80186 -0.794535 0
M  V30 2042 H 182.298 3.91815 -1.01308 0
M  V30 2043 H 179.053 3.65256 -3.01471 0
M  V30 2044 H 179.477 3.75404 -5.63383 0
M  V30 2045 H 184.119 3.17858 -2.78794 0
M  V30 2046 H 181.837 3.63653 -7.21653 0
M  V30 2047 H 185.423 3.15316 -4.88945 0
M  V30 2048 H 184.303 3.38114 -7.07565 0
M  V30 2049 N 181.806 0.884767 1.30421 0
M  V30 2050 C 182.736 0.367574 2.30589 0
M  V30 2051 C 183.717 -0.549464 1.60981 0
M  V30 2052 O 184.902 -0.46336 1.88591 0
M  V30 2053 C 182.032 -0.418944 3.44764 0
M  V30 2054 C 180.986 0.406316 4.26067 0
M  V30 2055 C 180.312 -0.506793 5.32293 0
M  V30 2056 C 181.612 1.64832 4.95608 0
M  V30 2057 H 183.306 1.20462 2.74097 0
M  V30 2058 H 180.852 0.580695 1.31772 0
M  V30 2059 H 182.805 -0.791395 4.13902 0
M  V30 2060 H 181.529 -1.28964 3.0006 0
M  V30 2061 H 180.188 0.760903 3.58617 0
M  V30 2062 H 179.836 -1.37519 4.83836 0
M  V30 2063 H 179.536 0.0415828 5.87585 0
M  V30 2064 H 181.06 -0.875764 6.04287 0
M  V30 2065 H 182.474 1.34646 5.57264 0
M  V30 2066 H 180.871 2.13688 5.60765 0
M  V30 2067 H 181.941 2.39284 4.21748 0
M  V30 2068 N 183.284 -1.43765 0.645699 0
M  V30 2069 C 184.214 -2.33471 -0.0370477 0
M  V30 2070 C 185.195 -1.49042 -0.819779 0
M  V30 2071 O 186.38 -1.77726 -0.782758 0
M  V30 2072 C 183.51 -3.32311 -1.0093 0
M  V30 2073 C 182.464 -4.2667 -0.337201 0
M  V30 2074 C 181.79 -5.1549 -1.42037 0
M  V30 2075 C 183.09 -5.16657 0.765706 0
M  V30 2076 H 184.784 -2.90809 0.712069 0
M  V30 2077 H 182.33 -1.39834 0.343876 0
M  V30 2078 H 184.283 -3.9396 -1.49578 0
M  V30 2079 H 183.007 -2.73213 -1.78948 0
M  V30 2080 H 181.666 -3.66374 0.128771 0
M  V30 2081 H 181.314 -4.52735 -2.1918 0
M  V30 2082 H 181.014 -5.79438 -0.975966 0
M  V30 2083 H 182.538 -5.80012 -1.90838 0
M  V30 2084 H 183.952 -5.72158 0.361702 0
M  V30 2085 H 182.349 -5.89286 1.13413 0
M  V30 2086 H 183.419 -4.56796 1.62683 0
M  V30 2087 N 184.763 -0.387143 -1.52771 0
M  V30 2088 C 185.988 0.198407 -2.06449 0
M  V30 2089 C 186.413 1.39918 -1.25716 0
M  V30 2090 O 185.771 1.79099 -0.281657 0
M  V30 2091 C 185.819 0.548893 -3.56398 0
M  V30 2092 O 184.923 1.64315 -3.78252 0
M  V30 2093 H 184.264 0.0237731 -0.663574 0
M  V30 2094 H 186.794 -0.553989 -1.96957 0
M  V30 2095 H 186.804 0.813812 -3.99801 0
M  V30 2096 H 185.479 -0.329005 -4.14597 0
M  V30 2097 H 184.056 1.37211 -3.46738 0
M  V30 2098 N 186.241 1.57166 -0.116904 0
M  V30 2099 C 187.466 1.999 0.55271 0
M  V30 2100 C 187.891 0.996039 1.59564 0
M  V30 2101 O 187.249 -0.032556 1.81271 0
M  V30 2102 C 187.297 3.4152 1.15742 0
M  V30 2103 O 186.401 3.44106 2.27299 0
M  V30 2104 H 185.742 0.649447 0.138258 0
M  V30 2105 H 188.272 2.03573 -0.204759 0
M  V30 2106 H 188.282 3.79684 1.49346 0
M  V30 2107 H 186.957 4.14034 0.393493 0
M  V30 2108 H 185.534 3.17759 1.9515 0
M  V30 2109 N 187.719 -0.156864 1.56817 0
M  V30 2110 C 188.666 -1.19394 1.97519 0
M  V30 2111 C 189.636 -1.4322 0.841265 0
M  V30 2112 O 190.821 -1.55719 1.10255 0
M  V30 2113 C 187.961 -2.52483 2.35258 0
M  V30 2114 C 187.074 -2.35914 3.61896 0
M  V30 2115 C 186.209 -3.61969 3.88782 0
M  V30 2116 C 185.248 -3.40395 5.08722 0
M  V30 2117 N 184.385 -4.58556 5.31668 0
M  V30 2118 H 189.225 -0.839845 2.85921 0
M  V30 2119 H 186.762 -0.403264 1.41464 0
M  V30 2120 H 188.72 -3.30071 2.55165 0
M  V30 2121 H 187.35 -2.85859 1.49949 0
M  V30 2122 H 186.402 -1.49429 3.49821 0
M  V30 2123 H 187.714 -2.15926 4.49641 0
M  V30 2124 H 186.868 -4.47989 4.09135 0
M  V30 2125 H 185.607 -3.84951 2.9944 0
M  V30 2126 H 184.612 -2.52763 4.88253 0
M  V30 2127 H 185.837 -3.18822 5.99608 0
M  V30 2128 H 183.783 -4.81729 4.45279 0
M  V30 2129 H 183.7 -4.41535 6.13664 0
M  V30 2130 H 184.968 -5.45817 5.5651 0
M  V30 2131 N 189.197 -1.51736 -0.425897 0
M  V30 2132 C 190.445 -1.64644 -1.17204 0
M  V30 2133 C 190.766 -0.370486 -1.91448 0
M  V30 2134 O 190.036 0.614088 -1.86026 0
M  V30 2135 H 188.616 -0.606819 -0.435638 0
M  V30 2136 H 191.278 -1.88713 -0.487177 0
M  V30 2137 H 190.374 -2.47958 -1.89534 0
M  V30 2138 N 190.675 0.682077 -1.42076 0
M  V30 2139 C 191.605 1.80796 -1.47767 0
M  V30 2140 C 192.586 1.6677 -0.334954 0
M  V30 2141 O 193.771 1.863 -0.548264 0
M  V30 2142 C 190.901 3.19038 -1.37229 0
M  V30 2143 C 189.855 3.47789 -2.49453 0
M  V30 2144 C 189.181 4.8553 -2.23975 0
M  V30 2145 C 190.481 3.45411 -3.91776 0
M  V30 2146 H 192.175 1.7629 -2.41997 0
M  V30 2147 H 189.721 0.846721 -1.16476 0
M  V30 2148 H 191.674 3.97528 -1.39821 0
M  V30 2149 H 190.398 3.24204 -0.394907 0
M  V30 2150 H 189.057 2.71657 -2.46166 0
M  V30 2151 H 188.705 4.87337 -1.24547 0
M  V30 2152 H 188.405 5.0573 -2.99184 0
M  V30 2153 H 189.929 5.66312 -2.28304 0
M  V30 2154 H 191.343 4.13882 -3.96705 0
M  V30 2155 H 189.74 3.77145 -4.66778 0
M  V30 2156 H 190.81 2.44122 -4.18966 0
M  V30 2157 N 192.153 1.28127 0.917671 0
M  V30 2158 C 193.085 1.07517 2.02417 0
M  V30 2159 C 194.098 0.0281099 1.62776 0
M  V30 2160 O 195.287 0.270748 1.76435 0
M  V30 2161 C 192.387 0.610957 3.33347 0
M  V30 2162 C 191.56 1.73255 4.01624 0
M  V30 2163 C 190.619 1.26238 5.10833 0
M  V30 2164 O 189.645 1.96389 5.34247 0
M  V30 2165 N 190.847 0.123448 5.80369 0
M  V30 2166 H 193.612 2.02806 2.20658 0
M  V30 2167 H 191.173 1.19827 1.08871 0
M  V30 2168 H 193.165 0.280101 4.0373 0
M  V30 2169 H 191.735 -0.24898 3.11607 0
M  V30 2170 H 190.955 2.23319 3.24842 0
M  V30 2171 H 192.243 2.48503 4.43986 0
M  V30 2172 H 191.641 -0.461847 5.63812 0
M  V30 2173 H 190.198 -0.148158 6.51632 0
M  V30 2174 N 193.631 -1.12557 1.10312 0
M  V30 2175 C 194.88 -1.83395 0.839588 0
M  V30 2176 C 195.193 -1.84939 -0.636929 0
M  V30 2177 O 196.399 -2.51761 -1.01631 0
M  V30 2178 C 194.855 -3.29303 1.45215 0
M  V30 2179 C 194.463 -3.36122 2.96186 0
M  V30 2180 C 196.207 -4.05121 1.26796 0
M  V30 2181 C 194.114 -4.76357 3.50483 0
M  V30 2182 H 193.044 -0.687133 0.310425 0
M  V30 2183 H 195.695 -1.26746 1.32694 0
M  V30 2184 H 194.077 -3.85812 0.892469 0
M  V30 2185 H 195.251 -2.89559 3.58458 0
M  V30 2186 H 193.566 -2.73776 3.13745 0
M  V30 2187 H 196.163 -5.08668 1.64806 0
M  V30 2188 H 196.506 -4.15773 0.209409 0
M  V30 2189 H 197.039 -3.54967 1.79563 0
M  V30 2190 H 193.778 -4.70899 4.55998 0
M  V30 2191 H 193.298 -5.23377 2.92978 0
M  V30 2192 H 194.977 -5.45294 3.48228 0
M  V30 2193 N 195.109 -0.891671 -1.2995 0
M  V30 2194 C 196.358 -0.509521 -1.95158 0
M  V30 2195 C 196.671 0.947388 -1.71125 0
M  V30 2196 O 197.877 1.43669 -2.30372 0
M  V30 2197 C 196.333 -0.860315 -3.49466 0
M  V30 2198 C 195.941 -2.33545 -3.8231 0
M  V30 2199 C 197.685 -0.547687 -4.20952 0
M  V30 2200 C 195.592 -2.62752 -5.29826 0
M  V30 2201 H 194.522 -0.18682 -0.730489 0
M  V30 2202 H 197.173 -1.08756 -1.47798 0
M  V30 2203 H 195.555 -0.211285 -3.95436 0
M  V30 2204 H 196.729 -3.02936 -3.47227 0
M  V30 2205 H 195.044 -2.61629 -3.23944 0
M  V30 2206 H 197.641 -0.742854 -5.29515 0
M  V30 2207 H 197.984 0.51332 -4.13123 0
M  V30 2208 H 198.517 -1.1542 -3.80688 0
M  V30 2209 H 195.256 -3.6762 -5.42712 0
M  V30 2210 H 194.776 -1.97977 -5.66185 0
M  V30 2211 H 196.455 -2.48601 -5.97333 0
M  V30 2212 N 196.587 1.43421 -0.653314 0
M  V30 2213 C 197.835 2.01414 -0.166415 0
M  V30 2214 C 198.156 1.51803 1.22397 0
M  V30 2215 O 197.426 0.730693 1.81763 0
M  V30 2216 H 196.006 0.744703 -0.0585319 0
M  V30 2217 H 198.668 1.75629 -0.845003 0
M  V30 2218 H 197.764 3.11734 -0.151111 0
M  V30 2219 N 198.065 0.39524 1.52563 0
M  V30 2220 C 199.293 -0.184943 2.06072 0
M  V30 2221 C 199.708 -1.40021 1.26647 0
M  V30 2222 O 199.065 -1.79767 0.314672 0
M  V30 2223 C 199.116 -0.549179 3.57304 0
M  V30 2224 O 198.837 0.617813 4.33722 0
M  V30 2225 C 200.338 -1.18459 4.2718 0
M  V30 2226 H 197.558 -0.0265025 0.670476 0
M  V30 2227 H 200.102 0.562184 1.96621 0
M  V30 2228 H 198.257 -1.2462 3.66809 0
M  V30 2229 H 198.671 0.317091 5.23541 0
M  V30 2230 H 200.145 -1.38976 5.34219 0
M  V30 2231 H 200.622 -2.15368 3.82771 0
M  V30 2232 H 201.228 -0.528163 4.22008 0
M  V30 2233 N 199.544 -1.57102 0.125237 0
M  V30 2234 C 200.774 -1.99472 -0.538015 0
M  V30 2235 C 201.182 -1.00395 -1.60366 0
M  V30 2236 O 200.525 0.0103875 -1.83697 0
M  V30 2237 C 200.587 -3.38262 -1.21734 0
M  V30 2238 C 200.251 -4.56021 -0.298897 0
M  V30 2239 C 201.248 -5.17817 0.464943 0
M  V30 2240 C 198.933 -5.01869 -0.208149 0
M  V30 2241 C 200.927 -6.23852 1.3072 0
M  V30 2242 C 198.614 -6.07763 0.637736 0
M  V30 2243 C 199.612 -6.68622 1.39403 0
M  V30 2244 O 199.3 -7.7247 2.22586 0
M  V30 2245 H 199.032 -0.659934 -0.146501 0
M  V30 2246 H 201.586 -2.04321 0.210267 0
M  V30 2247 H 199.816 -3.30185 -2.01282 0
M  V30 2248 H 201.505 -3.6488 -1.77813 0
M  V30 2249 H 202.271 -4.83308 0.404741 0
M  V30 2250 H 198.15 -4.54241 -0.786522 0
M  V30 2251 H 201.694 -6.71284 1.898 0
M  V30 2252 H 197.591 -6.41701 0.699309 0
M  V30 2253 H 198.359 -7.89595 2.15596 0
M  V30 2254 N 201.022 0.148545 -1.56898 0
M  V30 2255 C 201.985 1.16736 -1.97244 0
M  V30 2256 C 202.985 1.35947 -0.858777 0
M  V30 2257 O 204.175 1.32966 -1.12542 0
M  V30 2258 C 201.307 2.52798 -2.28705 0
M  V30 2259 H 202.5 0.821279 -2.88435 0
M  V30 2260 H 200.053 0.391831 -1.51309 0
M  V30 2261 H 200.788 2.92381 -1.403 0
M  V30 2262 H 200.573 2.40216 -3.09901 0
M  V30 2263 H 202.063 3.26179 -2.60762 0
M  V30 2264 N 202.5 1.5196 0.417844 0
M  V30 2265 C 203.432 1.70895 1.52733 0
M  V30 2266 C 204.445 0.589405 1.51756 0
M  V30 2267 O 205.634 0.864312 1.56179 0
M  V30 2268 C 202.734 1.72627 2.91639 0
M  V30 2269 C 201.907 3.01479 3.16905 0
M  V30 2270 C 200.966 2.95139 4.35637 0
M  V30 2271 O 199.992 3.69059 4.3334 0
M  V30 2272 N 201.194 2.12328 5.40275 0
M  V30 2273 H 203.959 2.66612 1.36888 0
M  V30 2274 H 201.52 1.50089 0.607037 0
M  V30 2275 H 203.512 1.65928 3.6912 0
M  V30 2276 H 202.082 0.844216 3.00985 0
M  V30 2277 H 201.302 3.21895 2.27546 0
M  V30 2278 H 202.59 3.86736 3.30625 0
M  V30 2279 H 201.988 1.51685 5.44985 0
M  V30 2280 H 200.545 2.11494 6.16534 0
M  V30 2281 N 203.978 -0.674533 1.42435 0
M  V30 2282 C 205.206 -1.46283 1.46317 0
M  V30 2283 C 205.621 -1.88653 0.0745836 0
M  V30 2284 O 204.978 -1.58151 -0.91074 0
M  V30 2285 C 205.029 -2.71178 2.3905 0
M  V30 2286 O 204.75 -2.30586 3.72507 0
M  V30 2287 C 206.251 -3.64738 2.51955 0
M  V30 2288 H 203.471 -0.450104 0.497642 0
M  V30 2289 H 206.015 -0.828792 1.86953 0
M  V30 2290 H 204.17 -3.3077 2.01667 0
M  V30 2291 H 204.584 -3.11241 4.22172 0
M  V30 2292 H 206.058 -4.49096 3.20962 0
M  V30 2293 H 206.535 -4.10656 1.55752 0
M  V30 2294 H 207.141 -3.11038 2.90061 0
M  V30 2295 N 205.456 -1.28612 -0.910864 0
M  V30 2296 C 206.366 -1.14643 -2.0468 0
M  V30 2297 C 207.382 -0.0723121 -1.7385 0
M  V30 2298 O 208.558 -0.282178 -1.99413 0
M  V30 2299 C 205.623 -0.812561 -3.37044 0
M  V30 2300 C 204.684 -1.96935 -3.81465 0
M  V30 2301 C 203.917 -1.65131 -5.07511 0
M  V30 2302 O 204.14 -0.567013 -5.67575 0
M  V30 2303 O 203.074 -2.49585 -5.47714 0
M  V30 2304 H 206.9 -2.1001 -2.19384 0
M  V30 2305 H 204.485 -1.07958 -1.03274 0
M  V30 2306 H 206.367 -0.640441 -4.16505 0
M  V30 2307 H 205.042 0.111426 -3.23508 0
M  V30 2308 H 203.949 -2.19664 -3.02818 0
M  V30 2309 H 205.282 -2.87414 -3.99567 0
M  V30 2310 N 206.934 1.1197 -1.10907 0
M  V30 2311 C 207.867 2.16998 -0.706192 0
M  V30 2312 C 208.845 1.59903 0.294897 0
M  V30 2313 O 210.029 1.87513 0.192636 0
M  V30 2314 C 207.156 3.38673 -0.0427664 0
M  V30 2315 C 206.202 4.14414 -1.00811 0
M  V30 2316 S 207.035 4.72079 -2.52789 0
M  V30 2317 C 208.191 5.97083 -1.87731 0
M  V30 2318 H 208.424 2.50837 -1.59587 0
M  V30 2319 H 205.957 1.23508 -0.926555 0
M  V30 2320 H 207.915 4.09142 0.333668 0
M  V30 2321 H 206.576 3.03105 0.823788 0
M  V30 2322 H 205.769 5.016 -0.491259 0
M  V30 2323 H 205.371 3.49678 -1.3267 0
M  V30 2324 H 207.663 6.66599 -1.21044 0
M  V30 2325 H 208.606 6.53403 -2.72892 0
M  V30 2326 H 209.014 5.4837 -1.33979 0
M  V30 2327 N 208.412 0.89855 1.29475 0
M  V30 2328 C 209.66 0.522847 1.9522 0
M  V30 2329 C 209.981 -0.93371 1.71192 0
M  V30 2330 O 209.251 -1.65823 1.04305 0
M  V30 2331 H 207.831 0.190366 0.722336 0
M  V30 2332 H 210.493 1.14459 1.5775 0
M  V30 2333 H 209.589 0.704476 3.04045 0
M  V30 2334 N 209.89 -1.43072 0.660911 0
M  V30 2335 C 210.84 -2.27948 -0.04847 0
M  V30 2336 C 211.824 -1.40325 -0.787246 0
M  V30 2337 O 213.016 -1.63893 -0.668446 0
M  V30 2338 C 210.145 -3.28143 -1.00881 0
M  V30 2339 C 209.231 -4.23252 -0.268108 0
M  V30 2340 N 209.622 -5.00656 0.719528 0
M  V30 2341 C 207.92 -4.43092 -0.508493 0
M  V30 2342 C 208.621 -5.70019 1.15988 0
M  V30 2343 N 207.597 -5.41364 0.492584 0
M  V30 2344 H 211.399 -2.85213 0.709279 0
M  V30 2345 H 208.913 -1.54869 0.488822 0
M  V30 2346 H 210.91 -3.87736 -1.53188 0
M  V30 2347 H 209.57 -2.7244 -1.76654 0
M  V30 2348 H 210.581 -5.06115 1.09855 0
M  V30 2349 H 207.258 -3.98449 -1.24679 0
M  V30 2350 H 208.648 -6.4214 1.97751 0
M  V30 2351 N 211.368 -0.403325 -1.52352 0
M  V30 2352 C 212.616 0.174003 -2.0135 0
M  V30 2353 C 212.937 1.46139 -1.29106 0
M  V30 2354 O 212.207 1.91448 -0.415253 0
M  V30 2355 H 210.787 0.0672911 -0.743963 0
M  V30 2356 H 213.449 -0.538235 -1.87321 0
M  V30 2357 H 212.545 0.374254 -3.09848 0
M  V30 2358 N 212.846 1.57033 -0.133567 0
M  V30 2359 C 214.074 2.00044 0.528195 0
M  V30 2360 C 214.489 1.01349 1.59291 0
M  V30 2361 O 213.846 0.00848369 1.82498 0
M  V30 2362 C 213.897 3.43018 1.1411 0
M  V30 2363 O 213.618 4.37939 0.11892 0
M  V30 2364 C 215.119 4.01237 1.88477 0
M  V30 2365 H 212.339 0.656517 0.138661 0
M  V30 2366 H 214.883 2.03267 -0.224196 0
M  V30 2367 H 213.038 3.40688 1.84418 0
M  V30 2368 H 213.452 5.21436 0.56613 0
M  V30 2369 H 214.926 5.03314 2.26669 0
M  V30 2370 H 215.403 3.41193 2.76558 0
M  V30 2371 H 216.009 4.07156 1.22898 0
M  V30 2372 N 214.325 -0.140222 1.56975 0
M  V30 2373 C 215.275 -1.17827 1.95194 0
M  V30 2374 C 216.259 -1.38195 0.824075 0
M  V30 2375 O 217.451 -1.39643 1.0876 0
M  V30 2376 C 214.58 -2.51024 2.34184 0
M  V30 2377 C 213.666 -2.3422 3.53556 0
M  V30 2378 N 214.057 -1.87185 4.69889 0
M  V30 2379 C 212.355 -2.64949 3.58773 0
M  V30 2380 C 213.056 -1.83586 5.5197 0
M  V30 2381 N 212.032 -2.2715 4.93866 0
M  V30 2382 H 215.834 -0.806817 2.82609 0
M  V30 2383 H 213.348 -0.348208 1.58623 0
M  V30 2384 H 215.345 -3.26074 2.59772 0
M  V30 2385 H 214.005 -2.88945 1.48124 0
M  V30 2386 H 215.016 -1.57048 4.93514 0
M  V30 2387 H 211.693 -3.067 2.8327 0
M  V30 2388 H 213.083 -1.48655 6.55249 0
M  V30 2389 N 215.803 -1.52179 -0.40978 0
M  V30 2390 C 216.733 -1.78435 -1.5061 0
M  V30 2391 C 217.714 -0.635295 -1.57791 0
M  V30 2392 O 218.899 -0.880823 -1.73076 0
M  V30 2393 C 216.029 -1.93444 -2.88439 0
M  V30 2394 C 214.983 -3.09038 -2.96108 0
M  V30 2395 C 214.309 -3.09268 -4.36185 0
M  V30 2396 C 215.609 -4.48508 -2.67652 0
M  V30 2397 H 217.303 -2.70237 -1.28889 0
M  V30 2398 H 214.849 -1.30036 -0.618605 0
M  V30 2399 H 216.802 -2.10394 -3.65119 0
M  V30 2400 H 215.526 -0.983129 -3.11452 0
M  V30 2401 H 214.185 -2.91837 -2.21872 0
M  V30 2402 H 213.833 -2.11861 -4.56206 0
M  V30 2403 H 213.533 -3.86907 -4.42241 0
M  V30 2404 H 215.057 -3.28348 -5.14801 0
M  V30 2405 H 216.471 -4.65918 -3.34056 0
M  V30 2406 H 214.868 -5.28059 -2.85085 0
M  V30 2407 H 215.938 -4.56649 -1.63095 0
M  V30 2408 N 217.281 0.66697 -1.42791 0
M  V30 2409 C 218.697 0.981027 -1.25889 0
M  V30 2410 C 218.897 2.00793 -0.168695 0
M  V30 2411 O 217.953 2.48321 0.45747 0
M  V30 2412 C 219.266 1.47838 -2.61848 0
M  V30 2413 C 220.814 1.59575 -2.69267 0
M  V30 2414 C 221.289 2.12704 -4.05612 0
M  V30 2415 N 222.78 2.20026 -4.07606 0
M  V30 2416 C 223.515 2.62227 -5.09926 0
M  V30 2417 N 223.011 3.03824 -6.22626 0
M  V30 2418 N 224.804 2.62045 -4.97281 0
M  V30 2419 H 216.955 -0.0127891 -2.12396 0
M  V30 2420 H 219.218 0.0568258 -0.946295 0
M  V30 2421 H 218.924 0.798299 -3.4252 0
M  V30 2422 H 218.798 2.45579 -2.86305 0
M  V30 2423 H 221.185 2.26687 -1.88936 0
M  V30 2424 H 221.266 0.60302 -2.48591 0
M  V30 2425 H 220.91 1.46198 -4.86404 0
M  V30 2426 H 220.84 3.12782 -4.23645 0
M  V30 2427 H 223.331 1.90708 -3.2625 0
M  V30 2428 H 223.644 3.34734 -6.96544 0
M  V30 2429 H 221.989 3.01662 -6.26119 0
M  V30 2430 H 225.18 2.28916 -4.08308 0
M  V30 2431 H 225.353 2.94613 -5.77154 0
M  V30 2432 N 218.759 1.29093 0.90403 0
M  V30 2433 C 220.007 1.16583 1.65085 0
M  V30 2434 C 220.328 -0.283933 1.92922 0
M  V30 2435 O 219.598 -1.19509 1.55224 0
M  V30 2436 H 218.178 0.428467 0.611903 0
M  V30 2437 H 220.84 1.61959 1.08422 0
M  V30 2438 H 219.936 1.71266 2.6091 0
M  V30 2439 N 220.237 -1.11381 1.11499 0
M  V30 2440 C 221.167 -2.19509 0.796125 0
M  V30 2441 C 222.148 -1.68458 -0.235796 0
M  V30 2442 O 223.333 -1.93947 -0.0991344 0
M  V30 2443 C 220.463 -3.46475 0.239205 0
M  V30 2444 C 219.417 -4.10744 1.20307 0
M  V30 2445 C 218.743 -5.32293 0.50683 0
M  V30 2446 C 220.043 -4.55597 2.55399 0
M  V30 2447 H 221.737 -2.46439 1.70024 0
M  V30 2448 H 219.283 -1.18446 0.818935 0
M  V30 2449 H 221.236 -4.214 0.00392006 0
M  V30 2450 H 219.96 -3.19006 -0.700206 0
M  V30 2451 H 218.619 -3.37813 1.42399 0
M  V30 2452 H 218.267 -5.01095 -0.437408 0
M  V30 2453 H 217.967 -5.76243 1.1497 0
M  V30 2454 H 219.491 -6.09956 0.280351 0
M  V30 2455 H 220.905 -5.21841 2.37391 0
M  V30 2456 H 219.302 -5.10363 3.15673 0
M  V30 2457 H 220.372 -3.69013 3.14575 0
M  V30 2458 N 221.715 -0.905404 -1.28997 0
M  V30 2459 C 222.625 -0.392246 -2.31298 0
M  V30 2460 C 223.641 0.515889 -1.66176 0
M  V30 2461 O 224.817 0.404093 -1.97304 0
M  V30 2462 C 221.882 0.36686 -3.44754 0
M  V30 2463 C 220.943 -0.573485 -4.25452 0
M  V30 2464 C 220.176 0.149488 -5.33491 0
M  V30 2465 O 220.399 1.37255 -5.5364 0
M  V30 2466 O 219.333 -0.510919 -5.99728 0
M  V30 2467 H 223.159 -1.2411 -2.77183 0
M  V30 2468 H 220.744 -0.669926 -1.33538 0
M  V30 2469 H 222.626 0.795907 -4.13816 0
M  V30 2470 H 221.301 1.19169 -3.00966 0
M  V30 2471 H 220.208 -1.05176 -3.59011 0
M  V30 2472 H 221.541 -1.36489 -4.72897 0
M  V30 2473 N 223.193 1.4272 -0.668489 0
M  V30 2474 C 224.421 2.05966 -0.196348 0
M  V30 2475 C 224.836 1.50191 1.14403 0
M  V30 2476 O 224.193 0.639208 1.7094 0
M  V30 2477 C 224.244 3.61314 -0.115815 0
M  V30 2478 O 223.965 4.1502 -1.40322 0
M  V30 2479 C 225.466 4.41663 0.380579 0
M  V30 2480 H 222.686 0.663954 -0.0969829 0
M  V30 2481 H 225.23 1.82966 -0.913446 0
M  V30 2482 H 223.385 3.83448 0.551931 0
M  V30 2483 H 223.799 5.08832 -1.27243 0
M  V30 2484 H 225.273 5.5065 0.385848 0
M  V30 2485 H 225.75 4.15792 1.41471 0
M  V30 2486 H 226.356 4.24534 -0.255209 0
M  V30 2487 N 224.671 0.411399 1.52136 0
M  V30 2488 C 225.899 -0.163076 2.06256 0
M  V30 2489 C 226.314 -1.3867 1.28125 0
M  V30 2490 O 225.671 -1.79423 0.333721 0
M  V30 2491 C 225.722 -0.511252 3.57867 0
M  V30 2492 O 225.443 0.66378 4.33042 0
M  V30 2493 C 226.944 -1.13921 4.28412 0
M  V30 2494 H 224.164 -0.0193897 0.67072 0
M  V30 2495 H 226.708 0.583007 1.96013 0
M  V30 2496 H 224.863 -1.20723 3.6811 0
M  V30 2497 H 225.277 0.372601 5.23175 0
M  V30 2498 H 226.751 -1.33302 5.35663 0
M  V30 2499 H 227.228 -2.11296 3.85033 0
M  V30 2500 H 227.834 -0.483373 4.22544 0
M  V30 2501 N 226.149 -1.5696 0.141893 0
M  V30 2502 C 227.112 -2.15316 -0.785587 0
M  V30 2503 C 228.112 -1.09366 -1.1788 0
M  V30 2504 O 229.302 -1.35031 -1.10056 0
M  V30 2505 C 226.434 -2.71211 -2.06537 0
M  V30 2506 H 227.627 -2.98608 -0.278041 0
M  V30 2507 H 225.18 -1.5593 -0.107519 0
M  V30 2508 H 225.915 -1.91571 -2.6167 0
M  V30 2509 H 225.7 -3.4872 -1.79268 0
M  V30 2510 H 227.19 -3.16189 -2.72789 0
M  V30 2511 N 227.627 0.131896 -1.57047 0
M  V30 2512 C 228.855 0.856461 -1.88341 0
M  V30 2513 C 229.27 1.74042 -0.731757 0
M  V30 2514 O 228.627 1.80051 0.297945 0
M  V30 2515 C 228.678 1.70064 -3.18999 0
M  V30 2516 O 228.399 0.852278 -4.2973 0
M  V30 2517 C 229.9 2.53148 -3.63911 0
M  V30 2518 H 227.12 0.246885 -0.62393 0
M  V30 2519 H 229.664 0.120152 -2.04147 0
M  V30 2520 H 227.819 2.38984 -3.04902 0
M  V30 2521 H 228.233 1.43329 -5.04537 0
M  V30 2522 H 229.707 3.07931 -4.58129 0
M  V30 2523 H 230.184 3.29901 -2.89935 0
M  V30 2524 H 230.79 1.89492 -3.80753 0
M  V30 2525 N 229.106 1.52395 0.401703 0
M  V30 2526 C 230.336 1.70429 1.1678 0
M  V30 2527 C 230.744 0.416702 1.84554 0
M  V30 2528 O 230.087 -0.617697 1.73003 0
M  V30 2529 C 230.149 2.78919 2.26814 0
M  V30 2530 C 229.813 4.20437 1.79113 0
M  V30 2531 C 230.81 5.04028 1.27482 0
M  V30 2532 C 228.495 4.66704 1.85722 0
M  V30 2533 C 230.489 6.31961 0.830913 0
M  V30 2534 C 228.176 5.94625 1.40942 0
M  V30 2535 C 229.174 6.77082 0.897128 0
M  V30 2536 O 228.862 8.02607 0.455822 0
M  V30 2537 H 228.594 0.574272 0.356634 0
M  V30 2538 H 231.148 1.99767 0.477724 0
M  V30 2539 H 229.378 2.44973 2.99207 0
M  V30 2540 H 231.067 2.8548 2.88541 0
M  V30 2541 H 231.833 4.69471 1.21744 0
M  V30 2542 H 227.712 4.0262 2.24539 0
M  V30 2543 H 231.256 6.96271 0.430368 0
M  V30 2544 H 227.153 6.28688 1.46362 0
M  V30 2545 H 227.921 8.16453 0.578457 0
M  V30 2546 N 230.584 -0.659388 1.43143 0
M  V30 2547 C 231.861 -1.41627 1.34912 0
M  V30 2548 C 232.241 -2.11099 -0.00607785 0
M  V30 2549 O 231.589 -2.04353 -1.02236 0
M  V30 2550 C 231.799 -2.40604 2.52805 0
M  V30 2551 C 233.147 -3.04789 2.95616 0
M  V30 2552 O 234.171 -2.50932 2.52807 0
M  V30 2553 O 233.03 -4.02421 3.69756 0
M  V30 2554 H 230.124 -0.63246 0.532844 0
M  V30 2555 H 232.67 -0.686814 1.5518 0
M  V30 2556 H 231.442 -1.88174 3.43083 0
M  V30 2557 H 231.065 -3.21009 2.34604 0
M  V30 2558 N 232.062 -1.29571 -0.897171 0
M  V30 2559 C 233.473 -1.15964 -1.46319 0
M  V30 2560 C 233.824 0.244267 -1.94674 0
M  V30 2561 O 232.949 1.13998 -1.83939 0
M  V30 2562 C 233.544 -2.09906 -2.65942 0
M  V30 2563 C 232.103 -2.00314 -3.18671 0
M  V30 2564 C 231.25 -2.00687 -1.91363 0
M  V30 2565 H 234.201 -1.42019 -0.708268 0
M  V30 2566 H 234.222 -1.67276 -3.41759 0
M  V30 2567 H 233.734 -3.12075 -2.30718 0
M  V30 2568 H 231.835 -1.01242 -3.58582 0
M  V30 2569 H 231.948 -2.88102 -3.82798 0
M  V30 2570 H 230.312 -1.45319 -2.09175 0
M  V30 2571 H 231.095 -3.04566 -1.58413 0
M  V30 2572 N 233.54 1.10788 -1.12088 0
M  V30 2573 C 234.45 2.20599 -0.798338 0
M  V30 2574 C 235.466 1.72712 0.21135 0
M  V30 2575 O 236.642 2.01348 0.0458477 0
M  V30 2576 C 233.707 3.45771 -0.253674 0
M  V30 2577 C 232.768 4.08411 -1.32283 0
M  V30 2578 C 232.001 5.27608 -0.80406 0
M  V30 2579 O 232.224 5.69241 0.363478 0
M  V30 2580 O 231.158 5.8101 -1.57198 0
M  V30 2581 H 234.984 2.50614 -1.7154 0
M  V30 2582 H 232.569 1.19454 -0.897275 0
M  V30 2583 H 234.451 4.21376 0.0453691 0
M  V30 2584 H 233.126 3.1739 0.636005 0
M  V30 2585 H 232.033 3.34507 -1.67499 0
M  V30 2586 H 233.366 4.40986 -2.18614 0
M  V30 2587 N 235.018 0.912232 1.28515 0
M  V30 2588 C 236.246 0.560416 1.99166 0
M  V30 2589 C 236.661 -0.857927 1.68182 0
M  V30 2590 O 236.018 -1.56805 0.933733 0
M  V30 2591 C 236.069 0.758142 3.53461 0
M  V30 2592 O 235.79 2.12067 3.83352 0
M  V30 2593 C 237.291 0.412954 4.41372 0
M  V30 2594 H 234.511 0.213805 0.636026 0
M  V30 2595 H 237.055 1.22502 1.63749 0
M  V30 2596 H 235.21 0.140556 3.87145 0
M  V30 2597 H 235.624 2.15923 4.77993 0
M  V30 2598 H 237.098 0.60208 5.48707 0
M  V30 2599 H 237.575 -0.65073 4.34353 0
M  V30 2600 H 238.181 1.00802 4.13182 0
M  V30 2601 N 236.496 -1.42363 0.676048 0
M  V30 2602 C 237.428 -2.29164 -0.0404605 0
M  V30 2603 C 238.441 -1.43747 -0.764245 0
M  V30 2604 O 239.63 -1.67453 -0.618195 0
M  V30 2605 C 236.73 -3.21196 -1.08103 0
M  V30 2606 C 235.903 -4.35273 -0.430812 0
M  V30 2607 C 234.962 -5.08017 -1.37133 0
M  V30 2608 O 233.988 -5.62494 -0.87116 0
M  V30 2609 N 235.19 -5.13647 -2.70456 0
M  V30 2610 H 237.955 -2.91298 0.704667 0
M  V30 2611 H 235.516 -1.53303 0.520559 0
M  V30 2612 H 237.508 -3.66728 -1.71152 0
M  V30 2613 H 236.078 -2.60505 -1.72788 0
M  V30 2614 H 235.298 -3.92372 0.379209 0
M  V30 2615 H 236.586 -5.08795 0.0221132 0
M  V30 2616 H 235.984 -4.708 -3.1363 0
M  V30 2617 H 234.541 -5.62821 -3.28749 0
M  V30 2618 N 237.974 -0.419461 -1.51915 0
M  V30 2619 C 238.884 0.407528 -2.31033 0
M  V30 2620 C 239.9 1.04413 -1.3919 0
M  V30 2621 O 241.076 1.0434 -1.72265 0
M  V30 2622 C 238.141 1.50365 -3.12396 0
M  V30 2623 C 237.202 0.889029 -4.19994 0
M  V30 2624 C 236.435 1.93291 -4.97468 0
M  V30 2625 O 236.658 3.15259 -4.75361 0
M  V30 2626 O 235.592 1.53339 -5.8204 0
M  V30 2627 H 239.418 -0.237865 -3.02767 0
M  V30 2628 H 237.003 -0.182413 -1.48282 0
M  V30 2629 H 238.885 2.13975 -3.63032 0
M  V30 2630 H 237.56 2.13345 -2.43445 0
M  V30 2631 H 236.467 0.215353 -3.7348 0
M  V30 2632 H 237.8 0.302991 -4.91267 0
M  V30 2633 N 239.452 1.56882 -0.150215 0
M  V30 2634 C 240.699 1.96228 0.500093 0
M  V30 2635 C 241.027 1.03522 1.64661 0
M  V30 2636 O 240.282 0.0650683 1.95592 0
M  V30 2637 C 240.581 3.41801 1.04437 0
M  V30 2638 C 240.247 4.50897 0.0159671 0
M  V30 2639 C 238.909 4.8046 -0.266731 0
M  V30 2640 C 241.261 5.16703 -0.683192 0
M  V30 2641 C 238.589 5.73135 -1.25434 0
M  V30 2642 C 240.941 6.10441 -1.65964 0
M  V30 2643 C 239.605 6.38382 -1.95 0
M  V30 2644 H 238.875 0.718048 0.182997 0
M  V30 2645 H 241.522 1.90019 -0.237724 0
M  V30 2646 H 239.827 3.44857 1.85959 0
M  V30 2647 H 241.524 3.69573 1.55618 0
M  V30 2648 H 238.114 4.27891 0.246485 0
M  V30 2649 H 242.298 4.93993 -0.477983 0
M  V30 2650 H 237.554 5.93074 -1.48571 0
M  V30 2651 H 241.728 6.60507 -2.20689 0
M  V30 2652 H 239.355 7.09996 -2.71679 0
M  V30 2653 N 240.93 -0.123565 1.57115 0
M  V30 2654 C 242.179 -0.830704 1.83799 0
M  V30 2655 C 242.492 -1.81259 0.735158 0
M  V30 2656 O 243.698 -2.56558 0.888278 0
M  V30 2657 C 242.154 -1.52802 3.25852 0
M  V30 2658 C 241.762 -0.587356 4.44133 0
M  V30 2659 C 243.506 -2.22056 3.61789 0
M  V30 2660 C 241.413 -1.28764 5.77212 0
M  V30 2661 H 240.343 -0.313967 0.685522 0
M  V30 2662 H 242.994 -0.0834359 1.8331 0
M  V30 2663 H 241.376 -2.32175 3.20797 0
M  V30 2664 H 242.55 0.172829 4.60476 0
M  V30 2665 H 240.865 -0.00201892 4.164 0
M  V30 2666 H 243.462 -2.75131 4.58483 0
M  V30 2667 H 243.805 -2.99644 2.88997 0
M  V30 2668 H 244.338 -1.49576 3.68608 0
M  V30 2669 H 241.077 -0.55314 6.53162 0
M  V30 2670 H 240.597 -2.01995 5.64764 0
M  V30 2671 H 242.276 -1.8221 6.20813 0
M  V30 2672 N 242.408 -1.52605 -0.393616 0
M  V30 2673 C 243.338 -1.80022 -1.48709 0
M  V30 2674 C 244.319 -0.651995 -1.57108 0
M  V30 2675 O 245.504 -0.89913 -1.72132 0
M  V30 2676 C 242.634 -1.96492 -2.86371 0
M  V30 2677 C 241.588 -3.12161 -2.92813 0
M  V30 2678 C 240.914 -3.13877 -4.3288 0
M  V30 2679 C 242.214 -4.51322 -2.6288 0
M  V30 2680 H 243.908 -2.71589 -1.26015 0
M  V30 2681 H 241.454 -1.30684 -0.604778 0
M  V30 2682 H 243.407 -2.14255 -3.62867 0
M  V30 2683 H 242.131 -1.01611 -3.10391 0
M  V30 2684 H 240.79 -2.94173 -2.18764 0
M  V30 2685 H 240.438 -2.16687 -4.53933 0
M  V30 2686 H 240.138 -3.91576 -4.38112 0
M  V30 2687 H 241.662 -3.33789 -5.1129 0
M  V30 2688 H 243.076 -4.69435 -3.29096 0
M  V30 2689 H 241.473 -5.31053 -2.79468 0
M  V30 2690 H 242.543 -4.58353 -1.58242 0
M  V30 2691 N 243.887 0.651787 -1.4349 0
M  V30 2692 C 244.835 1.78586 -1.49029 0
M  V30 2693 C 245.829 1.65448 -0.363767 0
M  V30 2694 O 247.035 1.71777 -0.537821 0
M  V30 2695 H 243.41 0.589236 -0.467231 0
M  V30 2696 H 245.381 1.71035 -2.44519 0
M  V30 2697 C 244.13 3.16851 -1.43181 0
M  V30 2698 H 243.453 3.27598 -2.29171 0
M  V30 2699 H 244.893 3.96156 -1.51118 0
M  V30 2700 C 243.352 3.36568 -0.149616 0
M  V30 2701 O 243.882 3.93885 0.788509 0
M  V30 2702 N 242.088 2.90539 -0.0593484 0
M  V30 2703 H 241.635 2.4408 -0.823575 0
M  V30 2704 H 241.593 3.04108 0.797853 0
M  V30 2705 N 245.365 1.30045 0.890287 0
M  V30 2706 C 246.59 1.21598 1.68014 0
M  V30 2707 C 247.015 -0.218678 1.86825 0
M  V30 2708 O 246.373 -1.15756 1.39536 0
M  V30 2709 C 246.421 1.94434 3.03691 0
M  V30 2710 O 245.525 1.2678 3.92429 0
M  V30 2711 H 244.866 0.420856 0.513592 0
M  V30 2712 H 247.396 1.71775 1.11151 0
M  V30 2713 H 247.406 2.03251 3.5377 0
M  V30 2714 H 246.081 2.98777 2.89318 0
M  V30 2715 H 244.658 1.26282 3.50866 0
M  V30 2716 N 246.843 -1.10192 1.12674 0
M  V30 2717 C 248.254 -1.63707 0.897604 0
M  V30 2718 C 248.605 -1.87812 -0.567546 0
M  V30 2719 O 247.73 -1.62196 -1.43253 0
M  V30 2720 C 248.325 -2.974 1.62292 0
M  V30 2721 C 246.884 -3.47772 1.43986 0
M  V30 2722 C 246.031 -2.22332 1.65722 0
M  V30 2723 H 248.982 -0.936587 1.28116 0
M  V30 2724 H 249.003 -3.64986 1.07541 0
M  V30 2725 H 248.515 -2.79824 2.68924 0
M  V30 2726 H 246.616 -3.70487 0.396206 0
M  V30 2727 H 246.729 -4.25723 2.19765 0
M  V30 2728 H 245.093 -2.30599 1.08149 0
M  V30 2729 H 245.876 -2.07285 2.73657 0
M  V30 2730 N 248.321 -0.919034 -1.28029 0
M  V30 2731 C 249.549 -0.570971 -1.98866 0
M  V30 2732 C 249.964 0.848996 -1.68634 0
M  V30 2733 O 249.321 1.56307 -0.942036 0
M  V30 2734 C 249.372 -0.776876 -3.53054 0
M  V30 2735 O 249.093 -2.14097 -3.82222 0
M  V30 2736 C 250.594 -0.436356 -4.41147 0
M  V30 2737 H 247.814 -0.217175 -0.634883 0
M  V30 2738 H 250.358 -1.23368 -1.63097 0
M  V30 2739 H 248.513 -0.161085 -3.87065 0
M  V30 2740 H 248.927 -2.18455 -4.76841 0
M  V30 2741 H 250.401 -0.63117 -5.4838 0
M  V30 2742 H 250.878 0.627686 -4.34692 0
M  V30 2743 H 251.484 -1.02991 -4.12641 0
M  V30 2744 N 249.799 1.42003 -0.683588 0
M  V30 2745 C 251.045 2.01712 -0.209825 0
M  V30 2746 C 251.378 1.53968 1.18353 0
M  V30 2747 O 250.653 0.745661 1.79639 0
M  V30 2748 C 250.936 3.59202 -0.254197 0
M  V30 2749 C 250.789 4.17102 -1.68363 0
M  V30 2750 C 252.108 4.38344 0.392709 0
M  V30 2751 H 249.227 0.732891 -0.0777189 0
M  V30 2752 H 251.869 1.68909 -0.87004 0
M  V30 2753 H 250.019 3.87278 0.307954 0
M  V30 2754 H 251.691 3.99946 -2.29871 0
M  V30 2755 H 249.934 3.72597 -2.22157 0
M  V30 2756 H 250.605 5.26249 -1.6663 0
M  V30 2757 H 253.081 4.16011 -0.0859162 0
M  V30 2758 H 251.957 5.47901 0.331063 0
M  V30 2759 H 252.218 4.16887 1.47164 0
M  V30 2760 N 251.277 0.427512 1.51691 0
M  V30 2761 C 252.505 -0.141191 2.06418 0
M  V30 2762 C 252.92 -1.37303 1.29589 0
M  V30 2763 O 252.277 -1.79059 0.352732 0
M  V30 2764 C 252.328 -0.473266 3.58389 0
M  V30 2765 O 252.049 0.709673 4.32314 0
M  V30 2766 C 253.55 -1.09371 4.29596 0
M  V30 2767 H 250.77 -0.0122747 0.670888 0
M  V30 2768 H 253.314 0.603764 1.95384 0
M  V30 2769 H 251.469 -1.16812 3.69369 0
M  V30 2770 H 251.883 0.42807 5.2275 0
M  V30 2771 H 253.357 -1.27613 5.37046 0
M  V30 2772 H 253.834 -2.072 3.87253 0
M  V30 2773 H 254.44 -0.43853 4.23033 0
M  V30 2774 N 252.755 -1.56801 0.158532 0
M  V30 2775 C 253.98 -2.01295 -0.499516 0
M  V30 2776 C 254.405 -1.03799 -1.56867 0
M  V30 2777 O 253.763 -0.0155162 -1.81293 0
M  V30 2778 C 253.811 -3.44469 -1.06647 0
M  V30 2779 O 252.915 -3.50012 -2.18095 0
M  V30 2780 H 252.256 -0.652884 -0.12099 0
M  V30 2781 H 254.786 -2.02958 0.258661 0
M  V30 2782 H 254.796 -3.8351 -1.39227 0
M  V30 2783 H 253.471 -4.14932 -0.283581 0
M  V30 2784 H 252.048 -3.22822 -1.86656 0
M  V30 2785 N 254.233 0.115231 -1.57178 0
M  V30 2786 C 255.482 0.820945 -1.84237 0
M  V30 2787 C 255.795 1.80866 -0.744761 0
M  V30 2788 O 257.001 2.56083 -0.901871 0
M  V30 2789 C 255.457 1.51072 -3.26658 0
M  V30 2790 C 255.065 0.563795 -4.44438 0
M  V30 2791 C 256.809 2.20134 -3.62962 0
M  V30 2792 C 254.716 1.25701 -5.77887 0
M  V30 2793 H 253.646 0.310328 -0.687177 0
M  V30 2794 H 256.297 0.0737134 -1.83352 0
M  V30 2795 H 254.679 2.30471 -3.22024 0
M  V30 2796 H 255.853 -0.197247 -4.60378 0
M  V30 2797 H 254.168 -0.0200638 -4.16395 0
M  V30 2798 H 256.765 2.72696 -4.59936 0
M  V30 2799 H 257.108 2.98107 -2.90582 0
M  V30 2800 H 257.641 1.47619 -3.69396 0
M  V30 2801 H 254.38 0.518493 -6.53446 0
M  V30 2802 H 253.9 1.98997 -5.65827 0
M  V30 2803 H 255.579 1.78915 -6.2177 0
M  V30 2804 N 255.711 1.52812 0.385517 0
M  V30 2805 C 256.658 1.77838 1.47113 0
M  V30 2806 C 257.628 0.621757 1.54024 0
M  V30 2807 O 258.813 0.861846 1.70226 0
M  V30 2808 C 255.953 1.95618 2.84302 0
M  V30 2809 C 255.066 3.23316 2.86515 0
M  V30 2810 C 254.201 3.31394 4.15152 0
M  V30 2811 C 253.24 4.53201 4.1143 0
M  V30 2812 N 252.377 4.58542 5.3168 0
M  V30 2813 H 257.217 2.70482 1.25073 0
M  V30 2814 H 254.754 1.34006 0.606692 0
M  V30 2815 H 256.712 2.03912 3.63972 0
M  V30 2816 H 255.342 1.06331 3.04784 0
M  V30 2817 H 254.394 3.24076 1.99195 0
M  V30 2818 H 255.706 4.13045 2.79634 0
M  V30 2819 H 254.86 3.3889 5.03228 0
M  V30 2820 H 253.599 2.39645 4.24761 0
M  V30 2821 H 252.604 4.45827 3.21742 0
M  V30 2822 H 253.829 5.46271 4.03442 0
M  V30 2823 H 251.775 3.69686 5.41912 0
M  V30 2824 H 251.692 5.42148 5.26889 0
M  V30 2825 H 252.96 4.70296 6.21644 0
M  V30 2826 N 257.189 -0.644168 1.43834 0
M  V30 2827 C 258.435 -1.40431 1.47141 0
M  V30 2828 C 258.79 -1.92153 0.0975577 0
M  V30 2829 O 258.083 -1.69924 -0.885232 0
M  V30 2830 C 258.277 -2.59615 2.45631 0
M  V30 2831 C 258.106 -2.1956 3.92458 0
M  V30 2832 C 256.876 -2.07456 4.60749 0
M  V30 2833 C 259.074 -1.79281 4.8204 0
M  V30 2834 N 257.056 -1.60827 5.92459 0
M  V30 2835 C 258.427 -1.43801 6.03093 0
M  V30 2836 C 260.482 -1.66545 4.6922 0
M  V30 2837 C 259.185 -0.968599 7.12749 0
M  V30 2838 C 261.211 -1.21008 5.78888 0
M  V30 2839 C 260.573 -0.864711 6.99072 0
M  V30 2840 H 256.672 -0.509182 0.593513 0
M  V30 2841 H 259.256 -0.740351 1.80075 0
M  V30 2842 H 257.427 -3.23658 2.1471 0
M  V30 2843 H 259.159 -3.26357 2.39318 0
M  V30 2844 H 255.914 -2.275 4.1538 0
M  V30 2845 H 256.338 -1.39848 6.62398 0
M  V30 2846 H 260.98 -1.91883 3.7675 0
M  V30 2847 H 258.698 -0.702715 8.05039 0
M  V30 2848 H 262.284 -1.11631 5.7099 0
M  V30 2849 H 261.164 -0.517736 7.82489 0
M  V30 2850 N 258.668 -1.30515 -0.883378 0
M  V30 2851 C 259.914 -1.20617 -1.63778 0
M  V30 2852 C 260.269 0.236469 -1.90941 0
M  V30 2853 O 259.562 1.16596 -1.52039 0
M  V30 2854 C 259.756 -1.96994 -2.98209 0
M  V30 2855 C 259.585 -3.48537 -2.84169 0
M  V30 2856 C 258.355 -4.17893 -2.84067 0
M  V30 2857 C 260.553 -4.43738 -2.60001 0
M  V30 2858 N 258.535 -5.55685 -2.60936 0
M  V30 2859 C 259.906 -5.69105 -2.46007 0
M  V30 2860 C 261.961 -4.33316 -2.45239 0
M  V30 2861 C 260.664 -6.8523 -2.18752 0
M  V30 2862 C 262.69 -5.4921 -2.19369 0
M  V30 2863 C 262.052 -6.73558 -2.06153 0
M  V30 2864 H 258.151 -0.496434 -0.604216 0
M  V30 2865 H 260.735 -1.64544 -1.04083 0
M  V30 2866 H 258.906 -1.55455 -3.55933 0
M  V30 2867 H 260.638 -1.79225 -3.62851 0
M  V30 2868 H 257.393 -3.69739 -2.95956 0
M  V30 2869 H 257.817 -6.28199 -2.52378 0
M  V30 2870 H 262.459 -3.37856 -2.54191 0
M  V30 2871 H 260.177 -7.80729 -2.08537 0
M  V30 2872 H 263.763 -5.43054 -2.08766 0
M  V30 2873 H 262.643 -7.61721 -1.86416 0
M  V30 2874 N 260.146 1.09593 -1.13257 0
M  V30 2875 C 261.557 1.63229 -0.906274 0
M  V30 2876 C 261.908 1.8811 0.557578 0
M  V30 2877 O 261.033 1.62953 1.42391 0
M  V30 2878 C 261.628 2.96535 -1.63867 0
M  V30 2879 C 260.187 3.47003 -1.45828 0
M  V30 2880 C 259.334 2.2145 -1.66898 0
M  V30 2881 H 262.285 0.92978 -1.28611 0
M  V30 2882 H 262.306 3.64411 -1.09476 0
M  V30 2883 H 261.818 2.78394 -2.70404 0
M  V30 2884 H 259.919 3.70272 -0.415848 0
M  V30 2885 H 260.032 4.24551 -2.2202 0
M  V30 2886 H 258.396 2.30022 -1.09371 0
M  V30 2887 H 259.179 2.0583 -2.74752 0
M  V30 2888 N 261.624 0.925811 1.2754 0
M  V30 2889 C 262.872 0.564138 1.94067 0
M  V30 2890 C 263.193 -0.897188 1.73134 0
M  V30 2891 O 262.463 -1.63573 1.07799 0
M  V30 2892 H 261.043 0.205645 0.718136 0
M  V30 2893 H 263.705 1.1778 1.55287 0
M  V30 2894 H 262.801 0.76881 3.02483 0
M  V30 2895 N 263.102 -1.41638 0.69111 0
M  V30 2896 C 264.35 -2.00902 0.219758 0
M  V30 2897 C 264.671 -1.54994 -1.18329 0
M  V30 2898 O 263.941 -0.778628 -1.79762 0
M  V30 2899 H 262.521 -0.74289 0.0782558 0
M  V30 2900 H 265.183 -1.73327 0.891271 0
M  V30 2901 H 264.279 -3.11224 0.233708 0
M  V30 2902 N 264.58 -0.43555 -1.51462 0
M  V30 2903 C 265.51 0.367376 -2.30592 0
M  V30 2904 C 266.491 1.02263 -1.35928 0
M  V30 2905 O 267.676 1.02661 -1.64847 0
M  V30 2906 C 264.806 1.46983 -3.14664 0
M  V30 2907 C 263.76 0.938161 -4.17591 0
M  V30 2908 C 263.086 2.13622 -4.90173 0
M  V30 2909 C 264.386 -0.0261621 -5.22293 0
M  V30 2910 H 266.08 -0.292969 -2.97963 0
M  V30 2911 H 263.626 -0.14234 -1.43295 0
M  V30 2912 H 265.579 2.03873 -3.688 0
M  V30 2913 H 264.303 2.15843 -2.4511 0
M  V30 2914 H 262.962 0.391481 -3.64504 0
M  V30 2915 H 262.61 2.81098 -4.17124 0
M  V30 2916 H 262.31 1.78688 -5.59772 0
M  V30 2917 H 263.834 2.7107 -5.47132 0
M  V30 2918 H 265.248 0.452384 -5.71512 0
M  V30 2919 H 263.645 -0.287992 -5.99409 0
M  V30 2920 H 264.715 -0.963391 -4.75233 0
M  V30 2921 N 266.058 1.56714 -0.166846 0
M  V30 2922 C 267.306 1.96358 0.478305 0
M  V30 2923 C 267.627 1.0537 1.6408 0
M  V30 2924 O 266.897 0.119154 1.95537 0
M  V30 2925 H 265.477 0.725065 0.179692 0
M  V30 2926 H 268.139 1.93329 -0.246985 0
M  V30 2927 H 267.235 3.00547 0.841292 0
M  V30 2928 N 267.536 -0.106894 1.57237 0
M  V30 2929 C 268.483 -1.13049 2.01217 0
M  V30 2930 C 269.453 -1.40471 0.886403 0
M  V30 2931 O 270.638 -1.52133 1.15153 0
M  V30 2932 C 267.778 -2.4487 2.43172 0
M  V30 2933 C 266.891 -2.24281 3.69218 0
M  V30 2934 C 266.026 -3.49417 4.00101 0
M  V30 2935 C 265.065 -3.24038 5.19294 0
M  V30 2936 N 264.202 -4.41409 5.45988 0
M  V30 2937 H 269.042 -0.748456 2.88448 0
M  V30 2938 H 266.579 -0.358054 1.42676 0
M  V30 2939 H 268.537 -3.21786 2.65537 0
M  V30 2940 H 267.167 -2.80944 1.58967 0
M  V30 2941 H 266.219 -1.38224 3.54398 0
M  V30 2942 H 267.531 -2.01512 4.56283 0
M  V30 2943 H 266.685 -4.34746 4.2318 0
M  V30 2944 H 265.424 -3.75229 3.11535 0
M  V30 2945 H 264.429 -2.37102 4.96047 0
M  V30 2946 H 265.654 -2.99584 6.09447 0
M  V30 2947 H 263.6 -4.67319 4.60379 0
M  V30 2948 H 263.517 -4.21788 6.274 0
M  V30 2949 H 264.785 -5.27836 5.73593 0
M  V30 2950 N 269.014 -1.53014 -0.377408 0
M  V30 2951 C 270.242 -1.72515 -1.14219 0
M  V30 2952 C 270.657 -0.448735 -1.8339 0
M  V30 2953 O 270.014 0.577592 -1.73119 0
M  V30 2954 C 270.065 -2.8826 -2.18148 0
M  V30 2955 O 269.786 -4.10962 -1.51795 0
M  V30 2956 C 271.287 -3.19536 -3.07264 0
M  V30 2957 H 268.507 -0.577301 -0.342001 0
M  V30 2958 H 271.051 -1.99712 -0.439935 0
M  V30 2959 H 269.206 -2.63492 -2.83991 0
M  V30 2960 H 269.62 -4.75693 -2.20945 0
M  V30 2961 H 271.094 -4.03959 -3.76193 0
M  V30 2962 H 271.571 -2.34403 -3.71419 0
M  V30 2963 H 272.177 -3.46186 -2.47053 0
M  V30 2964 N 270.492 0.636531 -1.44174 0
M  V30 2965 C 271.717 1.42847 -1.50364 0
M  V30 2966 C 272.142 1.87665 -0.127867 0
M  V30 2967 O 271.5 1.58408 0.88185 0
M  V30 2968 C 271.548 2.62854 -2.4686 0
M  V30 2969 O 270.652 3.62501 -1.9664 0
M  V30 2970 H 269.993 0.427642 -0.507955 0
M  V30 2971 H 272.523 0.777422 -1.89255 0
M  V30 2972 H 272.533 3.10465 -2.64718 0
M  V30 2973 H 271.208 2.29578 -3.46795 0
M  V30 2974 H 269.785 3.21735 -1.88523 0
M  V30 2975 N 271.97 1.30982 0.876444 0
M  V30 2976 C 272.918 1.18006 2.00443 0
M  V30 2977 C 273.912 0.0898871 1.69161 0
M  V30 2978 O 275.118 0.251333 1.78237 0
M  V30 2979 H 271.493 0.365196 0.65737 0
M  V30 2980 H 273.464 2.13453 2.0852 0
M  V30 2981 C 272.213 0.897521 3.35916 0
M  V30 2982 H 271.536 1.7285 3.60504 0
M  V30 2983 H 272.976 0.846874 4.15456 0
M  V30 2984 C 271.435 -0.399674 3.34521 0
M  V30 2985 O 271.965 -1.41852 3.7582 0
M  V30 2986 N 270.171 -0.413893 2.87637 0
M  V30 2987 H 269.718 0.41571 2.54224 0
M  V30 2988 H 269.676 -1.28175 2.87086 0
M  V30 2989 N 273.449 -1.08991 1.13837 0
M  V30 2990 C 274.399 -2.1393 0.788535 0
M  V30 2991 C 275.383 -1.59396 -0.219516 0
M  V30 2992 O 276.575 -1.76985 -0.0227557 0
M  V30 2993 C 273.704 -3.42305 0.261147 0
M  V30 2994 C 272.79 -4.03736 1.29837 0
M  V30 2995 N 273.181 -4.39659 2.50067 0
M  V30 2996 C 271.479 -4.30993 1.1472 0
M  V30 2997 C 272.18 -4.88113 3.16419 0
M  V30 2998 N 271.156 -4.85846 2.43832 0
M  V30 2999 H 274.958 -2.39516 1.70322 0
M  V30 3000 H 272.472 -1.26263 1.02134 0
M  V30 3001 H 274.469 -4.16899 -0.0077405 0
M  V30 3002 H 273.129 -3.18172 -0.647805 0
M  V30 3003 H 274.14 -4.30878 2.8734 0
M  V30 3004 H 270.817 -4.16444 0.296773 0
M  V30 3005 H 272.207 -5.25336 4.18894 0
M  V30 3006 N 274.927 -0.932562 -1.27047 0
M  V30 3007 C 275.89 -0.440064 -2.24936 0
M  V30 3008 C 276.89 0.444071 -1.54547 0
M  V30 3009 O 278.08 0.244465 -1.72476 0
M  V30 3010 C 275.212 0.36678 -3.38921 0
M  V30 3011 H 276.405 -1.305 -2.70018 0
M  V30 3012 H 273.958 -0.713707 -1.39054 0
M  V30 3013 H 274.693 1.25033 -2.99228 0
M  V30 3014 H 274.478 -0.267204 -3.91188 0
M  V30 3015 H 275.968 0.701567 -4.11665 0
M  V30 3016 N 276.405 1.4127 -0.698611 0
M  V30 3017 C 277.654 2.00408 -0.227949 0
M  V30 3018 C 277.967 1.55981 1.18023 0
M  V30 3019 O 279.173 2.07699 1.74852 0
M  V30 3020 C 277.629 3.58129 -0.356636 0
M  V30 3021 C 277.237 4.11536 -1.77037 0
M  V30 3022 C 278.981 4.24466 0.0540969 0
M  V30 3023 C 276.888 5.61701 -1.85055 0
M  V30 3024 H 275.818 0.749586 -0.0814657 0
M  V30 3025 H 278.469 1.61713 -0.867249 0
M  V30 3026 H 276.851 3.94442 0.350965 0
M  V30 3027 H 278.025 3.86636 -2.50698 0
M  V30 3028 H 276.34 3.57736 -2.13105 0
M  V30 3029 H 278.937 5.34698 0.0146723 0
M  V30 3030 H 279.28 4.01687 1.09332 0
M  V30 3031 H 279.813 3.93198 -0.603337 0
M  V30 3032 H 276.552 5.89312 -2.8704 0
M  V30 3033 H 276.072 5.88519 -1.15783 0
M  V30 3034 H 277.751 6.26524 -1.61484 0
M  V30 3035 N 277.883 0.443576 1.51229 0
M  V30 3036 C 279.129 -0.120975 2.02439 0
M  V30 3037 C 279.462 -1.41815 1.32674 0
M  V30 3038 O 278.737 -1.89373 0.443622 0
M  V30 3039 C 279.02 -0.333291 3.58554 0
M  V30 3040 C 278.873 0.982968 4.38928 0
M  V30 3041 C 280.192 -1.10028 4.26124 0
M  V30 3042 H 277.311 -0.0424923 0.735774 0
M  V30 3043 H 279.953 0.583794 1.80809 0
M  V30 3044 H 278.103 -0.933614 3.77115 0
M  V30 3045 H 279.775 1.61775 4.32003 0
M  V30 3046 H 278.018 1.58611 4.03763 0
M  V30 3047 H 278.689 0.788379 5.46341 0
M  V30 3048 H 281.165 -0.591711 4.11871 0
M  V30 3049 H 280.041 -1.21761 5.35225 0
M  V30 3050 H 280.302 -2.12996 3.87408 0
M  V30 3051 N 279.361 -1.56624 0.175154 0
M  V30 3052 C 280.291 -2.21155 -0.749195 0
M  V30 3053 C 281.272 -1.16836 -1.23626 0
M  V30 3054 O 282.457 -1.45277 -1.28873 0
M  V30 3055 C 279.587 -2.8553 -1.97711 0
M  V30 3056 C 278.541 -3.95921 -1.62575 0
M  V30 3057 C 277.867 -4.47365 -2.92864 0
M  V30 3058 C 279.167 -5.15323 -0.850838 0
M  V30 3059 H 280.861 -2.98653 -0.211295 0
M  V30 3060 H 278.407 -1.43651 -0.100188 0
M  V30 3061 H 280.36 -3.2935 -2.62881 0
M  V30 3062 H 279.084 -2.05406 -2.53921 0
M  V30 3063 H 277.743 -3.52762 -0.997719 0
M  V30 3064 H 277.391 -3.64027 -3.47122 0
M  V30 3065 H 277.091 -5.21839 -2.70106 0
M  V30 3066 H 278.615 -4.93873 -3.59056 0
M  V30 3067 H 280.029 -5.55812 -1.40521 0
M  V30 3068 H 278.426 -5.95739 -0.722154 0
M  V30 3069 H 279.496 -4.84661 0.152082 0
M  V30 3070 N 280.839 0.0985539 -1.57292 0
M  V30 3071 C 281.802 1.10402 -2.00858 0
M  V30 3072 C 282.802 1.33146 -0.901593 0
M  V30 3073 O 283.992 1.29318 -1.16716 0
M  V30 3074 C 281.124 2.45394 -2.36632 0
M  V30 3075 H 282.317 0.729099 -2.90902 0
M  V30 3076 H 279.87 0.343495 -1.52479 0
M  V30 3077 H 280.605 2.87769 -1.49531 0
M  V30 3078 H 280.39 2.30235 -3.17387 0
M  V30 3079 H 281.88 3.17718 -2.71007 0
M  V30 3080 N 282.317 1.53212 0.369288 0
M  V30 3081 C 283.249 1.75668 1.47219 0
M  V30 3082 C 284.262 0.637387 1.49804 0
M  V30 3083 O 285.451 0.913561 1.5335 0
M  V30 3084 C 282.551 1.81818 2.85999 0
M  V30 3085 C 281.724 3.11409 3.07153 0
M  V30 3086 C 280.783 3.08849 4.26026 0
M  V30 3087 O 279.809 3.82659 4.2138 0
M  V30 3088 N 281.011 2.29409 5.33246 0
M  V30 3089 H 283.776 2.70832 1.28337 0
M  V30 3090 H 281.337 1.51944 0.55898 0
M  V30 3091 H 283.329 1.77588 3.63655 0
M  V30 3092 H 281.899 0.939544 2.98146 0
M  V30 3093 H 281.119 3.28971 2.1719 0
M  V30 3094 H 282.407 3.97059 3.18154 0
M  V30 3095 H 281.805 1.68946 5.39883 0
M  V30 3096 H 280.362 2.31001 6.09493 0
M  V30 3097 N 283.795 -0.628877 1.44509 0
M  V30 3098 C 284.725 -1.75187 1.54376 0
M  V30 3099 C 285.706 -1.65411 0.396618 0
M  V30 3100 O 286.891 -1.84137 0.617031 0
M  V30 3101 C 284.021 -3.13725 1.48976 0
M  V30 3102 C 282.975 -3.38291 2.62189 0
M  V30 3103 C 282.301 -4.76883 2.41841 0
M  V30 3104 C 283.601 -3.30632 4.04326 0
M  V30 3105 H 285.295 -1.67187 2.48373 0
M  V30 3106 H 282.841 -0.802909 1.19538 0
M  V30 3107 H 284.794 -3.92064 1.54478 0
M  V30 3108 H 283.518 -3.22515 0.514961 0
M  V30 3109 H 282.177 -2.62334 2.56079 0
M  V30 3110 H 281.825 -4.82378 1.42548 0
M  V30 3111 H 281.525 -4.94278 3.17747 0
M  V30 3112 H 283.049 -5.57449 2.49165 0
M  V30 3113 H 284.463 -3.98873 4.11793 0
M  V30 3114 H 282.86 -3.59561 4.80454 0
M  V30 3115 H 283.93 -2.28404 4.27738 0
M  V30 3116 N 285.273 -1.31445 -0.869486 0
M  V30 3117 C 286.522 -1.20517 -1.61736 0
M  V30 3118 C 286.835 0.235341 -1.94179 0
M  V30 3119 O 288.041 0.466312 -2.67465 0
M  V30 3120 C 286.497 -2.10982 -2.91573 0
M  V30 3121 C 286.105 -3.60032 -2.66611 0
M  V30 3122 C 287.849 -2.08856 -3.69567 0
M  V30 3123 C 285.756 -4.42503 -3.92358 0
M  V30 3124 H 284.686 -0.447493 -0.606849 0
M  V30 3125 H 287.337 -1.56303 -0.96133 0
M  V30 3126 H 285.719 -1.68095 -3.58553 0
M  V30 3127 H 286.893 -4.11167 -2.08035 0
M  V30 3128 H 285.208 -3.64139 -2.0197 0
M  V30 3129 H 287.805 -2.67716 -4.62852 0
M  V30 3130 H 288.148 -1.07582 -4.02159 0
M  V30 3131 H 288.681 -2.49945 -3.09471 0
M  V30 3132 H 285.42 -5.44533 -3.64916 0
M  V30 3133 H 284.94 -3.96125 -4.50383 0
M  V30 3134 H 286.619 -4.54741 -4.60238 0
M  V30 3135 N 286.751 1.08385 -1.14413 0
M  V30 3136 C 287.979 1.84517 -0.936001 0
M  V30 3137 C 288.394 1.81626 0.515503 0
M  V30 3138 O 287.751 1.22008 1.35721 0
M  V30 3139 C 287.802 3.32049 -1.42918 0
M  V30 3140 O 287.523 3.34951 -2.82381 0
M  V30 3141 C 289.024 4.24986 -1.26103 0
M  V30 3142 H 286.244 0.582491 -0.333084 0
M  V30 3143 H 288.788 1.36885 -1.5193 0
M  V30 3144 H 286.943 3.7707 -0.888641 0
M  V30 3145 H 287.357 4.27048 -3.04517 0
M  V30 3146 H 288.831 5.26615 -1.6547 0
M  V30 3147 H 289.308 4.38726 -0.20392 0
M  V30 3148 H 289.914 3.85791 -1.79012 0
M  V30 3149 N 288.23 0.939286 1.26551 0
M  V30 3150 C 289.177 0.446088 2.26448 0
M  V30 3151 C 290.147 -0.493234 1.58608 0
M  V30 3152 O 291.332 -0.409857 1.86346 0
M  V30 3153 C 288.472 -0.284375 3.43926 0
M  V30 3154 C 287.585 0.690399 4.26448 0
M  V30 3155 C 286.72 -0.0610712 5.31165 0
M  V30 3156 C 285.759 0.905649 6.05363 0
M  V30 3157 N 284.896 0.186055 7.01853 0
M  V30 3158 H 289.736 1.30291 2.68008 0
M  V30 3159 H 287.273 0.65371 1.31776 0
M  V30 3160 H 289.231 -0.724313 4.10864 0
M  V30 3161 H 287.861 -1.10535 3.03285 0
M  V30 3162 H 286.913 1.24885 3.59316 0
M  V30 3163 H 288.225 1.42873 4.779 0
M  V30 3164 H 287.379 -0.56038 6.04106 0
M  V30 3165 H 286.118 -0.832297 4.80546 0
M  V30 3166 H 285.123 1.4161 5.3125 0
M  V30 3167 H 286.348 1.67685 6.58072 0
M  V30 3168 H 284.294 -0.566714 6.53548 0
M  V30 3169 H 284.211 0.863752 7.51049 0
M  V30 3170 H 285.479 -0.292221 7.78952 0
M  V30 3171 N 289.708 -1.40897 0.706093 0
M  V30 3172 C 290.956 -2.00657 0.241054 0
M  V30 3173 C 291.277 -1.56241 -1.16678 0
M  V30 3174 O 290.547 -0.79765 -1.78926 0
M  V30 3175 H 289.127 -0.742018 0.0861308 0
M  V30 3176 H 291.789 -1.72372 0.909604 0
M  V30 3177 H 290.885 -3.10958 0.266705 0
M  V30 3178 N 291.186 -0.45159 -1.50991 0
M  V30 3179 C 292.133 0.352625 -2.2809 0
M  V30 3180 C 293.103 1.0044 -1.32291 0
M  V30 3181 O 294.288 1.02058 -1.6121 0
M  V30 3182 C 291.428 1.43983 -3.13629 0
M  V30 3183 C 290.541 0.804772 -4.24438 0
M  V30 3184 C 289.676 1.86822 -4.97263 0
M  V30 3185 C 288.715 1.21236 -5.99973 0
M  V30 3186 N 287.852 2.2178 -6.66152 0
M  V30 3187 H 292.692 -0.311186 -2.96371 0
M  V30 3188 H 290.229 -0.165308 -1.46168 0
M  V30 3189 H 292.187 2.08161 -3.61559 0
M  V30 3190 H 290.817 2.07307 -2.47434 0
M  V30 3191 H 289.869 0.0509129 -3.80366 0
M  V30 3192 H 291.181 0.286076 -4.97979 0
M  V30 3193 H 290.335 2.58628 -5.48813 0
M  V30 3194 H 289.074 2.42068 -4.23385 0
M  V30 3195 H 288.079 0.479828 -5.47702 0
M  V30 3196 H 289.304 0.667051 -6.75816 0
M  V30 3197 H 287.25 2.76079 -5.95077 0
M  V30 3198 H 287.167 1.74841 -7.35504 0
M  V30 3199 H 288.435 2.93026 -7.22327 0
M  V30 3200 N 292.664 1.56529 -0.183458 0
M  V30 3201 C 293.904 1.99141 0.460667 0
M  V30 3202 C 294.268 1.06736 1.59597 0
M  V30 3203 O 295.469 1.38538 2.30349 0
M  V30 3204 C 293.74 3.45358 0.919939 0
M  V30 3205 S 295.299 4.09999 1.56354 0
M  V30 3206 H 292.117 0.695479 0.147748 0
M  V30 3207 H 294.719 1.93429 -0.283782 0
M  V30 3208 H 293.423 4.10315 0.0834208 0
M  V30 3209 H 292.954 3.54862 1.69814 0
M  V30 3210 H 294.969 4.06046 2.85203 0
M  V30 3211 N 294.142 -0.090211 1.57342 0
M  V30 3212 C 295.372 -0.805055 1.90269 0
M  V30 3213 C 295.78 -1.72561 0.775842 0
M  V30 3214 O 295.123 -1.81839 -0.260843 0
M  V30 3215 C 295.185 -1.66734 3.18497 0
M  V30 3216 C 294.849 -0.918092 4.47683 0
M  V30 3217 C 295.846 -0.245674 5.19319 0
M  V30 3218 C 293.531 -0.890724 4.94339 0
M  V30 3219 C 295.525 0.444088 6.35851 0
M  V30 3220 C 293.212 -0.197179 6.10782 0
M  V30 3221 C 294.21 0.469044 6.81388 0
M  V30 3222 O 293.898 1.15146 7.95611 0
M  V30 3223 H 293.63 -0.235143 0.633785 0
M  V30 3224 H 296.184 -0.0703805 2.05279 0
M  V30 3225 H 294.414 -2.44437 2.99646 0
M  V30 3226 H 296.103 -2.25919 3.37217 0
M  V30 3227 H 296.869 -0.258246 4.84312 0
M  V30 3228 H 292.748 -1.39873 4.39268 0
M  V30 3229 H 296.292 0.964667 6.90898 0
M  V30 3230 H 292.189 -0.18247 6.45242 0
M  V30 3231 H 292.957 1.05885 8.11622 0
M  V30 3232 N 295.62 -1.53406 -0.361157 0
M  V30 3233 C 296.868 -1.69467 -1.10115 0
M  V30 3234 C 297.189 -0.451352 -1.89705 0
M  V30 3235 O 296.459 0.534636 -1.88463 0
M  V30 3236 H 295.039 -0.624749 -0.409508 0
M  V30 3237 H 297.701 -1.90609 -0.406699 0
M  V30 3238 H 296.797 -2.55774 -1.78847 0
M  V30 3239 N 297.098 0.621204 -1.44841 0
M  V30 3240 C 298.028 1.74366 -1.55303 0
M  V30 3241 C 299.009 1.65199 -0.405385 0
M  V30 3242 O 300.194 1.83807 -0.626787 0
M  V30 3243 C 297.324 3.12931 -1.50637 0
M  V30 3244 C 296.278 3.36896 -2.63979 0
M  V30 3245 C 295.604 4.75594 -2.44366 0
M  V30 3246 C 296.904 3.28483 -4.06074 0
M  V30 3247 H 298.598 1.65867 -2.49256 0
M  V30 3248 H 296.144 0.796558 -1.19962 0
M  V30 3249 H 298.097 3.9124 -1.56555 0
M  V30 3250 H 296.821 3.22237 -0.532057 0
M  V30 3251 H 295.48 2.60972 -2.57467 0
M  V30 3252 H 295.128 4.81616 -1.45105 0
M  V30 3253 H 294.828 4.92586 -3.20364 0
M  V30 3254 H 296.352 5.5612 -2.52117 0
M  V30 3255 H 297.766 3.96684 -4.13902 0
M  V30 3256 H 296.163 3.57008 -4.82354 0
M  V30 3257 H 297.233 2.26133 -4.28943 0
M  V30 3258 N 298.576 1.31904 0.862503 0
M  V30 3259 C 299.526 1.16772 1.95827 0
M  V30 3260 C 300.51 0.0767098 1.60717 0
M  V30 3261 O 301.702 0.302407 1.74398 0
M  V30 3262 C 298.831 0.884858 3.317 0
M  V30 3263 C 297.917 2.0172 3.73055 0
M  V30 3264 N 298.308 3.265 3.86305 0
M  V30 3265 C 296.606 1.91861 4.02623 0
M  V30 3266 C 297.307 4.00616 4.2176 0
M  V30 3267 N 296.283 3.28847 4.32852 0
M  V30 3268 H 300.085 2.11382 2.04193 0
M  V30 3269 H 297.599 1.2357 1.05377 0
M  V30 3270 H 299.596 0.757419 4.09962 0
M  V30 3271 H 298.256 -0.0529448 3.24657 0
M  V30 3272 H 299.267 3.61529 3.70833 0
M  V30 3273 H 295.944 1.05593 4.03926 0
M  V30 3274 H 297.334 5.08182 4.39546 0
M  V30 3275 N 300.054 -1.07777 1.14986 0
M  V30 3276 C 301.017 -2.13041 0.845358 0
M  V30 3277 C 302.017 -1.60071 -0.152931 0
M  V30 3278 O 303.207 -1.74033 0.0761879 0
M  V30 3279 C 300.339 -3.39896 0.261383 0
M  V30 3280 H 301.532 -2.41485 1.77834 0
M  V30 3281 H 299.085 -1.23595 0.956757 0
M  V30 3282 H 299.82 -3.17091 -0.68 0
M  V30 3283 H 299.605 -3.79642 0.980514 0
M  V30 3284 H 301.095 -4.17548 0.0657687 0
M  V30 3285 N 301.532 -0.945985 -1.26051 0
M  V30 3286 C 302.779 -0.596118 -1.93527 0
M  V30 3287 C 303.107 0.865559 -1.74179 0
M  V30 3288 O 302.362 1.63524 -1.0751 0
M  V30 3289 C 302.661 -0.890475 -3.46129 0
M  V30 3290 C 302.327 -2.3368 -3.85622 0
M  V30 3291 C 300.989 -2.73216 -3.96114 0
M  V30 3292 C 303.341 -3.27648 -4.05334 0
M  V30 3293 C 300.669 -4.05806 -4.2372 0
M  V30 3294 C 303.021 -4.59841 -4.3443 0
M  V30 3295 C 301.685 -4.99185 -4.43137 0
M  V30 3296 H 300.955 -0.218135 -0.708165 0
M  V30 3297 H 303.602 -1.1934 -1.49768 0
M  V30 3298 H 301.907 -0.210711 -3.91233 0
M  V30 3299 H 303.604 -0.598478 -3.96509 0
M  V30 3300 H 300.194 -2.02015 -3.78005 0
M  V30 3301 H 304.378 -2.98298 -3.96651 0
M  V30 3302 H 299.634 -4.35945 -4.28675 0
M  V30 3303 H 303.808 -5.32641 -4.48628 0
M  V30 3304 H 301.435 -6.01952 -4.64282 0
M  V30 3305 N 303.011 1.40521 -0.713556 0
M  V30 3306 C 304.26 2.00155 -0.249192 0
M  V30 3307 C 304.573 1.57224 1.16362 0
M  V30 3308 O 305.779 2.09542 1.72639 0
M  V30 3309 C 304.235 3.5773 -0.3946 0
M  V30 3310 C 303.843 4.09635 -1.81392 0
M  V30 3311 C 305.587 4.24499 0.00907364 0
M  V30 3312 C 303.494 5.59707 -1.91003 0
M  V30 3313 H 302.424 0.74868 -0.0894114 0
M  V30 3314 H 305.075 1.60784 -0.884352 0
M  V30 3315 H 303.457 3.94792 0.30911 0
M  V30 3316 H 304.631 3.83955 -2.54785 0
M  V30 3317 H 302.946 3.55456 -2.16888 0
M  V30 3318 H 305.543 5.34683 -0.0420404 0
M  V30 3319 H 305.886 4.02824 1.05065 0
M  V30 3320 H 306.419 3.92536 -0.645007 0
M  V30 3321 H 303.158 5.86234 -2.93275 0
M  V30 3322 H 302.678 5.87258 -1.22019 0
M  V30 3323 H 304.357 6.24776 -1.6812 0
M  V30 3324 N 304.489 0.459591 1.5075 0
M  V30 3325 C 305.735 -0.0994966 2.02556 0
M  V30 3326 C 306.068 -1.40399 1.3417 0
M  V30 3327 O 305.343 -1.88892 0.463683 0
M  V30 3328 C 305.626 -0.295242 3.58888 0
M  V30 3329 C 305.479 1.02947 4.37861 0
M  V30 3330 C 306.798 -1.05502 4.27267 0
M  V30 3331 H 303.917 -0.034686 0.736183 0
M  V30 3332 H 306.559 0.602938 1.8018 0
M  V30 3333 H 304.709 -0.893563 3.78084 0
M  V30 3334 H 306.381 1.66348 4.30263 0
M  V30 3335 H 304.624 1.62885 4.02058 0
M  V30 3336 H 305.295 0.846281 5.45474 0
M  V30 3337 H 307.771 -0.547993 4.12476 0
M  V30 3338 H 306.647 -1.16077 5.36486 0
M  V30 3339 H 306.908 -2.08875 3.89645 0
M  V30 3340 N 305.967 -1.56429 0.191757 0
M  V30 3341 C 307.378 -1.83912 -0.321428 0
M  V30 3342 C 307.729 -1.11231 -1.61623 0
M  V30 3343 O 306.854 -0.37202 -2.13178 0
M  V30 3344 C 307.449 -3.33624 -0.589961 0
M  V30 3345 C 306.008 -3.6153 -1.04753 0
M  V30 3346 C 305.155 -2.7714 -0.0943327 0
M  V30 3347 H 308.106 -1.53161 0.415612 0
M  V30 3348 H 308.127 -3.52213 -1.43966 0
M  V30 3349 H 307.639 -3.86495 0.352588 0
M  V30 3350 H 305.74 -3.14089 -2.00447 0
M  V30 3351 H 305.853 -4.69737 -0.942549 0
M  V30 3352 H 304.217 -2.47638 -0.595589 0
M  V30 3353 H 305 -3.32799 0.842601 0
M  V30 3354 N 307.445 0.0818655 -1.57387 0
M  V30 3355 C 308.694 0.781681 -1.85937 0
M  V30 3356 C 309.007 1.79246 -0.782957 0
M  V30 3357 O 310.213 2.54112 -0.955987 0
M  V30 3358 C 308.669 1.44109 -3.29789 0
M  V30 3359 C 308.277 0.469396 -4.45534 0
M  V30 3360 C 310.021 2.12386 -3.67549 0
M  V30 3361 C 307.928 1.13415 -5.80423 0
M  V30 3362 H 306.858 0.295682 -0.693605 0
M  V30 3363 H 309.509 0.0348051 -1.83467 0
M  V30 3364 H 307.891 2.23588 -3.2684 0
M  V30 3365 H 309.065 -0.294856 -4.59856 0
M  V30 3366 H 307.38 -0.108383 -4.16259 0
M  V30 3367 H 309.977 2.62878 -4.65617 0
M  V30 3368 H 310.32 2.91877 -2.96839 0
M  V30 3369 H 310.853 1.39751 -3.72444 0
M  V30 3370 H 307.592 0.379771 -6.54399 0
M  V30 3371 H 307.112 1.8695 -5.69921 0
M  V30 3372 H 308.791 1.65686 -6.25426 0
M  V30 3373 N 308.923 1.53595 0.353017 0
M  V30 3374 C 310.339 1.43648 0.695516 0
M  V30 3375 C 310.539 0.585617 1.92802 0
M  V30 3376 O 309.595 0.0729223 2.52395 0
M  V30 3377 C 310.908 2.8701 0.896991 0
M  V30 3378 C 312.456 2.96723 0.996209 0
M  V30 3379 C 312.931 4.41173 1.23007 0
M  V30 3380 N 314.422 4.44657 1.29749 0
M  V30 3381 C 315.157 5.53547 1.49577 0
M  V30 3382 N 314.653 6.72461 1.66639 0
M  V30 3383 N 316.446 5.41145 1.52048 0
M  V30 3384 H 308.597 2.07415 -0.457481 0
M  V30 3385 H 310.86 0.9372 -0.142687 0
M  V30 3386 H 310.566 3.51644 0.0629938 0
M  V30 3387 H 310.44 3.31401 1.80148 0
M  V30 3388 H 312.827 2.32235 1.82074 0
M  V30 3389 H 312.908 2.55707 0.0688331 0
M  V30 3390 H 312.552 5.06238 0.410505 0
M  V30 3391 H 312.482 4.79772 2.17086 0
M  V30 3392 H 314.973 3.58963 1.18126 0
M  V30 3393 H 315.286 7.51214 1.81378 0
M  V30 3394 H 313.631 6.75423 1.63794 0
M  V30 3395 H 316.822 4.47205 1.38294 0
M  V30 3396 H 316.995 6.26068 1.67159 0
M  V30 3397 N 310.401 -0.613514 1.45168 0
M  V30 3398 C 311.311 -1.75296 1.55912 0
M  V30 3399 C 312.327 -1.68244 0.443856 0
M  V30 3400 O 313.503 -1.88706 0.70371 0
M  V30 3401 C 310.568 -3.1174 1.5172 0
M  V30 3402 C 309.629 -3.30291 2.74238 0
M  V30 3403 C 308.862 -4.60226 2.70236 0
M  V30 3404 O 309.085 -5.42168 1.77229 0
M  V30 3405 O 308.019 -4.81361 3.61352 0
M  V30 3406 H 311.845 -1.69183 2.52212 0
M  V30 3407 H 309.43 -0.776886 1.27612 0
M  V30 3408 H 311.312 -3.93044 1.51968 0
M  V30 3409 H 309.987 -3.18357 0.585697 0
M  V30 3410 H 308.894 -2.48598 2.79553 0
M  V30 3411 H 310.227 -3.28547 3.66494 0
M  V30 3412 N 311.879 -1.3236 -0.855495 0
M  V30 3413 C 313.128 -1.22226 -1.60448 0
M  V30 3414 C 313.441 0.214733 -1.94418 0
M  V30 3415 O 314.647 0.437917 -2.67945 0
M  V30 3416 C 313.103 -2.14063 -2.89318 0
M  V30 3417 C 312.711 -3.62839 -2.62777 0
M  V30 3418 C 314.455 -2.12764 -3.67331 0
M  V30 3419 C 312.362 -4.4664 -3.87643 0
M  V30 3420 H 311.292 -0.453904 -0.602069 0
M  V30 3421 H 313.943 -1.57314 -0.944698 0
M  V30 3422 H 312.325 -1.71889 -3.5675 0
M  V30 3423 H 313.499 -4.1335 -2.03662 0
M  V30 3424 H 311.814 -3.66261 -1.98096 0
M  V30 3425 H 314.411 -2.72611 -4.59987 0
M  V30 3426 H 314.754 -1.11841 -4.00995 0
M  V30 3427 H 315.287 -2.53214 -3.06802 0
M  V30 3428 H 312.026 -5.48373 -3.5912 0
M  V30 3429 H 311.546 -4.0088 -4.46156 0
M  V30 3430 H 313.225 -4.59597 -4.55389 0
M  V30 3431 N 313.357 1.07166 -1.15556 0
M  V30 3432 C 314.605 1.79443 -0.929764 0
M  V30 3433 C 314.926 1.87246 0.544414 0
M  V30 3434 O 314.196 1.37473 1.39564 0
M  V30 3435 H 312.776 0.664625 -0.341003 0
M  V30 3436 H 315.438 1.29499 -1.45657 0
M  V30 3437 H 314.534 2.81832 -1.34079 0
M  V30 3438 N 314.835 0.952656 1.25548 0
M  V30 3439 C 316.063 0.623496 1.97282 0
M  V30 3440 C 316.478 -0.803987 1.70826 0
M  V30 3441 O 315.835 -1.53755 0.983147 0
M  V30 3442 C 315.886 0.870209 3.5087 0
M  V30 3443 O 315.607 2.24156 3.76412 0
M  V30 3444 C 317.108 0.553164 4.39835 0
M  V30 3445 H 314.328 0.233931 0.628902 0
M  V30 3446 H 316.872 1.27649 1.59768 0
M  V30 3447 H 315.027 0.263652 3.86502 0
M  V30 3448 H 315.441 2.31021 4.70882 0
M  V30 3449 H 316.915 0.776342 5.46513 0
M  V30 3450 H 317.392 -0.512215 4.36203 0
M  V30 3451 H 317.998 1.13896 4.09766 0
M  V30 3452 N 316.313 -1.40141 0.720998 0
M  V30 3453 C 317.263 -2.27949 0.0482544 0
M  V30 3454 C 318.247 -1.43538 -0.727021 0
M  V30 3455 O 319.439 -1.6658 -0.598332 0
M  V30 3456 C 316.568 -3.32126 -0.868729 0
M  V30 3457 C 315.654 -4.24008 -0.0883515 0
M  V30 3458 N 316.045 -4.97154 0.931226 0
M  V30 3459 C 314.343 -4.4485 -0.320105 0
M  V30 3460 C 315.044 -5.64587 1.4006 0
M  V30 3461 N 314.02 -5.38787 0.721752 0
M  V30 3462 H 317.822 -2.81948 0.829609 0
M  V30 3463 H 315.336 -1.52656 0.554067 0
M  V30 3464 H 317.333 -3.93884 -1.36605 0
M  V30 3465 H 315.993 -2.79687 -1.6494 0
M  V30 3466 H 317.004 -5.01 1.31222 0
M  V30 3467 H 313.681 -4.03378 -1.07668 0
M  V30 3468 H 315.071 -6.33175 2.24808 0
M  V30 3469 N 317.792 -0.46758 -1.50504 0
M  V30 3470 C 318.739 0.328413 -2.28452 0
M  V30 3471 C 319.709 0.990313 -1.33349 0
M  V30 3472 O 320.894 1.00343 -1.62284 0
M  V30 3473 C 318.034 1.40648 -3.15138 0
M  V30 3474 C 317.147 0.759709 -4.25267 0
M  V30 3475 C 316.282 1.81537 -4.99217 0
M  V30 3476 C 315.321 1.14866 -6.01226 0
M  V30 3477 N 314.458 2.14702 -6.68467 0
M  V30 3478 H 319.298 -0.342603 -2.96024 0
M  V30 3479 H 316.835 -0.180801 -1.45985 0
M  V30 3480 H 318.793 2.04315 -3.63746 0
M  V30 3481 H 317.423 2.04671 -2.49619 0
M  V30 3482 H 316.475 0.0105671 -3.80399 0
M  V30 3483 H 317.787 0.233243 -4.98254 0
M  V30 3484 H 316.941 2.52793 -5.51526 0
M  V30 3485 H 315.68 2.37564 -4.25928 0
M  V30 3486 H 314.685 0.42171 -5.4818 0
M  V30 3487 H 315.91 0.595334 -6.76485 0
M  V30 3488 H 313.856 2.69752 -5.97972 0
M  V30 3489 H 313.773 1.6703 -7.37317 0
M  V30 3490 H 315.041 2.85348 -7.25394 0
M  V30 3491 N 319.27 1.56325 -0.20005 0
M  V30 3492 C 320.681 1.8408 0.31167 0
M  V30 3493 C 321.032 1.12087 1.61031 0
M  V30 3494 O 320.157 0.38332 2.12978 0
M  V30 3495 C 320.752 3.33932 0.57226 0
M  V30 3496 C 319.311 3.6208 1.02834 0
M  V30 3497 C 318.458 2.77186 0.079634 0
M  V30 3498 H 321.409 1.52939 -0.423729 0
M  V30 3499 H 321.43 3.52971 1.42096 0
M  V30 3500 H 320.942 3.86303 -0.37308 0
M  V30 3501 H 319.043 3.15147 1.98778 0
M  V30 3502 H 319.156 4.7023 0.917624 0
M  V30 3503 H 317.52 2.47951 0.582448 0
M  V30 3504 H 318.303 3.32347 -0.860238 0
M  V30 3505 N 320.748 -0.0735177 1.57428 0
M  V30 3506 C 321.678 -1.0879 2.06608 0
M  V30 3507 C 322.659 -1.40473 0.959237 0
M  V30 3508 O 323.844 -1.5013 1.23185 0
M  V30 3509 C 320.974 -2.40183 2.50857 0
M  V30 3510 C 319.928 -2.22858 3.65402 0
M  V30 3511 C 319.254 -3.59619 3.957 0
M  V30 3512 C 320.554 -1.65123 4.95511 0
M  V30 3513 H 322.248 -0.678673 2.91607 0
M  V30 3514 H 319.794 -0.325013 1.40284 0
M  V30 3515 H 321.747 -3.11437 2.83874 0
M  V30 3516 H 320.471 -2.83083 1.62885 0
M  V30 3517 H 319.13 -1.54045 3.32664 0
M  V30 3518 H 318.778 -4.00086 3.04861 0
M  V30 3519 H 318.478 -3.48866 4.72828 0
M  V30 3520 H 320.002 -4.32306 4.31212 0
M  V30 3521 H 321.416 -2.26241 5.26771 0
M  V30 3522 H 319.813 -1.65071 5.7695 0
M  V30 3523 H 320.883 -0.612559 4.81015 0
M  V30 3524 N 322.226 -1.5378 -0.344866 0
M  V30 3525 C 323.637 -1.62428 -0.920552 0
M  V30 3526 C 323.988 -0.504747 -1.89596 0
M  V30 3527 O 323.113 0.365711 -2.13287 0
M  V30 3528 C 323.708 -2.94419 -1.67639 0
M  V30 3529 C 322.267 -3.05333 -2.20111 0
M  V30 3530 C 321.414 -2.57866 -1.01982 0
M  V30 3531 H 324.365 -1.58222 -0.123042 0
M  V30 3532 H 324.386 -2.83384 -2.53917 0
M  V30 3533 H 323.898 -3.7588 -0.966224 0
M  V30 3534 H 321.999 -2.28502 -2.94308 0
M  V30 3535 H 322.112 -4.10778 -2.46573 0
M  V30 3536 H 320.476 -2.13241 -1.39285 0
M  V30 3537 H 321.259 -3.41765 -0.324308 0
M  V30 3538 N 323.704 0.605807 -1.45491 0
M  V30 3539 C 324.952 1.36207 -1.49305 0
M  V30 3540 C 325.273 1.94519 -0.136863 0
M  V30 3541 O 324.543 1.77261 0.833983 0
M  V30 3542 H 323.123 0.50565 -0.549843 0
M  V30 3543 H 325.785 0.711239 -1.81459 0
M  V30 3544 H 324.881 2.18058 -2.23287 0
M  V30 3545 N 325.182 1.32811 0.848464 0
M  V30 3546 C 326.431 1.23075 1.59798 0
M  V30 3547 C 326.744 -0.204419 1.94529 0
M  V30 3548 O 327.95 -0.423701 2.68173 0
M  V30 3549 C 326.406 2.15594 2.88179 0
M  V30 3550 C 326.014 3.64228 2.60849 0
M  V30 3551 C 327.758 2.14709 3.66197 0
M  V30 3552 C 325.665 4.48689 3.85269 0
M  V30 3553 H 324.595 0.457091 0.599653 0
M  V30 3554 H 327.246 1.57813 0.936342 0
M  V30 3555 H 325.628 1.73778 3.55833 0
M  V30 3556 H 326.802 4.14424 2.01467 0
M  V30 3557 H 325.117 3.67306 1.96151 0
M  V30 3558 H 327.714 2.75046 4.58534 0
M  V30 3559 H 328.057 1.13966 4.00397 0
M  V30 3560 H 328.59 2.54837 3.05455 0
M  V30 3561 H 325.329 5.5027 3.56207 0
M  V30 3562 H 324.849 4.03241 4.44024 0
M  V30 3563 H 326.528 4.62006 4.52946 0
M  V30 3564 N 326.66 -1.06551 1.16123 0
M  V30 3565 C 327.888 -1.83005 0.965237 0
M  V30 3566 C 328.303 -1.82423 -0.486542 0
M  V30 3567 O 327.66 -1.24152 -1.33763 0
M  V30 3568 C 327.711 -3.29733 1.48183 0
M  V30 3569 O 327.432 -3.30416 2.87674 0
M  V30 3570 C 328.933 -4.22926 1.32848 0
M  V30 3571 H 326.153 -0.577118 0.342309 0
M  V30 3572 H 328.697 -1.3445 1.54089 0
M  V30 3573 H 326.852 -3.75609 0.948517 0
M  V30 3574 H 327.266 -4.22149 3.11272 0
M  V30 3575 H 328.74 -5.23916 1.73827 0
M  V30 3576 H 329.217 -4.38346 0.273692 0
M  V30 3577 H 329.823 -3.82894 1.85127 0
M  V30 3578 N 328.138 -0.959301 -1.25041 0
M  V30 3579 C 329.384 -0.617525 -1.9317 0
M  V30 3580 C 329.717 0.843981 -1.74902 0
M  V30 3581 O 328.992 1.60615 -1.09696 0
M  V30 3582 C 329.275 -0.982736 -3.46431 0
M  V30 3583 C 329.128 -2.50032 -3.73904 0
M  V30 3584 C 330.447 -0.511176 -4.37121 0
M  V30 3585 H 327.566 -0.22582 -0.701552 0
M  V30 3586 H 330.208 -1.19679 -1.4757 0
M  V30 3587 H 328.358 -0.489806 -3.854 0
M  V30 3588 H 330.03 -3.06737 -3.44544 0
M  V30 3589 H 328.273 -2.93598 -3.19348 0
M  V30 3590 H 328.944 -2.70635 -4.81103 0
M  V30 3591 H 331.42 -0.934075 -4.0548 0
M  V30 3592 H 330.296 -0.795361 -5.43107 0
M  V30 3593 H 330.557 0.588834 -4.38161 0
M  V30 3594 N 329.616 1.39756 -0.72842 0
M  V30 3595 C 330.864 2.00248 -0.272946 0
M  V30 3596 C 331.185 1.58077 1.14178 0
M  V30 3597 O 330.455 0.826014 1.77634 0
M  V30 3598 H 329.035 0.740554 -0.0979247 0
M  V30 3599 H 331.697 1.70903 -0.936912 0
M  V30 3600 H 330.793 3.10495 -0.316142 0
M  V30 3601 N 331.094 0.475555 1.50254 0
M  V30 3602 C 332.371 -0.139685 1.95101 0
M  V30 3603 C 332.751 -1.56555 1.41611 0
M  V30 3604 O 332.099 -2.19956 0.618993 0
M  V30 3605 C 332.309 -0.0784298 3.48912 0
M  V30 3606 C 333.657 -0.265095 4.23772 0
M  V30 3607 O 334.681 -0.154808 3.55863 0
M  V30 3608 O 333.54 -0.488327 5.44314 0
M  V30 3609 H 330.634 -0.109236 0.819754 0
M  V30 3610 H 333.18 0.536276 1.61004 0
M  V30 3611 H 331.952 0.916918 3.80405 0
M  V30 3612 H 331.575 -0.795655 3.89558 0
M  V30 3613 N 332.573 -1.56217 0.208337 0
M  V30 3614 C 333.822 -1.97124 -0.427204 0
M  V30 3615 C 334.135 -1.09859 -1.61835 0
M  V30 3616 O 335.341 -1.40606 -2.32255 0
M  V30 3617 C 333.797 -3.50633 -0.811442 0
M  V30 3618 C 333.405 -4.46582 0.35615 0
M  V30 3619 C 335.149 -4.00282 -1.41332 0
M  V30 3620 C 333.056 -5.91379 -0.0497852 0
M  V30 3621 H 331.986 -0.736086 -0.163381 0
M  V30 3622 H 334.637 -1.8099 0.302456 0
M  V30 3623 H 333.019 -3.62319 -1.59815 0
M  V30 3624 H 334.193 -4.46636 1.1337 0
M  V30 3625 H 332.508 -4.07202 0.870396 0
M  V30 3626 H 335.105 -5.0595 -1.72972 0
M  V30 3627 H 335.448 -3.45359 -2.32449 0
M  V30 3628 H 335.981 -3.91764 -0.690323 0
M  V30 3629 H 332.72 -6.50255 0.827529 0
M  V30 3630 H 332.24 -5.94549 -0.791926 0
M  V30 3631 H 333.919 -6.45209 -0.481042 0
M  V30 3632 N 334.051 0.0651679 -1.57465 0
M  V30 3633 C 335.299 0.761555 -1.87202 0
M  V30 3634 C 335.62 1.77778 -0.801243 0
M  V30 3635 O 334.89 1.95166 0.16937 0
M  V30 3636 H 333.47 0.284251 -0.690804 0
M  V30 3637 H 336.132 0.0396827 -1.9486 0
M  V30 3638 H 335.228 1.27365 -2.84929 0
M  V30 3639 N 335.529 1.53961 0.336706 0
M  V30 3640 C 336.94 1.62914 0.911925 0
M  V30 3641 C 337.291 0.514795 1.89326 0
M  V30 3642 O 336.416 -0.354395 2.13478 0
M  V30 3643 C 337.011 2.95304 1.66076 0
M  V30 3644 C 335.57 3.06496 2.18489 0
M  V30 3645 C 334.717 2.58403 1.00613 0
M  V30 3646 H 337.668 1.58285 0.114649 0
M  V30 3647 H 337.689 2.84727 2.5241 0
M  V30 3648 H 337.201 3.76387 0.946276 0
M  V30 3649 H 335.302 2.3006 2.93092 0
M  V30 3650 H 335.415 4.1208 2.44391 0
M  V30 3651 H 333.779 2.13977 1.38152 0
M  V30 3652 H 334.562 3.41932 0.306179 0
M  V30 3653 N 337.007 -0.598083 1.45811 0
M  V30 3654 C 337.954 -1.7082 1.55207 0
M  V30 3655 C 338.924 -1.61278 0.39732 0
M  V30 3656 O 340.109 -1.80717 0.612038 0
M  V30 3657 C 337.249 -3.09144 1.53376 0
M  V30 3658 C 336.362 -3.29423 2.79472 0
M  V30 3659 C 335.497 -4.57907 2.69248 0
M  V30 3660 C 334.536 -4.71476 3.90354 0
M  V30 3661 N 333.673 -5.9127 3.78608 0
M  V30 3662 H 338.513 -1.62125 2.50039 0
M  V30 3663 H 336.05 -0.790389 1.24062 0
M  V30 3664 H 338.008 -3.89186 1.50301 0
M  V30 3665 H 336.638 -3.16773 0.620876 0
M  V30 3666 H 335.69 -2.43091 2.92594 0
M  V30 3667 H 337.002 -3.3532 3.69272 0
M  V30 3668 H 336.156 -5.46157 2.64192 0
M  V30 3669 H 334.895 -4.54423 1.77063 0
M  V30 3670 H 333.9 -3.81648 3.95759 0
M  V30 3671 H 335.125 -4.76751 4.83617 0
M  V30 3672 H 333.071 -5.88813 2.89199 0
M  V30 3673 H 332.988 -5.98369 4.6205 0
M  V30 3674 H 334.256 -6.81992 3.77501 0
M  V30 3675 N 338.485 -1.33259 -0.841409 0
M  V30 3676 C 339.732 -1.24572 -1.5965 0
M  V30 3677 C 340.06 0.189137 -1.93578 0
M  V30 3678 O 339.315 1.14566 -1.5866 0
M  V30 3679 C 339.614 -2.06381 -2.9179 0
M  V30 3680 C 339.28 -3.556 -2.77235 0
M  V30 3681 C 337.942 -3.96282 -2.72973 0
M  V30 3682 C 340.294 -4.50433 -2.62221 0
M  V30 3683 C 337.622 -5.30017 -2.51592 0
M  V30 3684 C 339.974 -5.84327 -2.42374 0
M  V30 3685 C 338.638 -6.24194 -2.36512 0
M  V30 3686 H 337.908 -0.455842 -0.5842 0
M  V30 3687 H 340.555 -1.6482 -0.975016 0
M  V30 3688 H 338.86 -1.58903 -3.5813 0
M  V30 3689 H 340.557 -1.97019 -3.49263 0
M  V30 3690 H 337.147 -3.23298 -2.81384 0
M  V30 3691 H 341.331 -4.19914 -2.64549 0
M  V30 3692 H 336.587 -5.59947 -2.45499 0
M  V30 3693 H 340.761 -6.57414 -2.29739 0
M  V30 3694 H 338.388 -7.27759 -2.19706 0
M  V30 3695 N 339.963 1.05934 -1.16686 0
M  V30 3696 C 341.211 1.78447 -0.948744 0
M  V30 3697 C 341.532 1.87813 0.524523 0
M  V30 3698 O 340.802 1.38945 1.38098 0
M  V30 3699 H 339.382 0.660971 -0.348033 0
M  V30 3700 H 342.044 1.27947 -1.47022 0
M  V30 3701 H 341.14 2.80394 -1.37061 0
M  V30 3702 N 341.441 0.965919 1.2453 0
M  V30 3703 C 342.671 0.643451 1.96324 0
M  V30 3704 C 343.079 -0.790927 1.71875 0
M  V30 3705 O 342.422 -1.54208 0.998273 0
M  V30 3706 C 342.484 0.836078 3.49643 0
M  V30 3707 C 342.148 2.24975 3.97788 0
M  V30 3708 C 343.145 3.22735 4.07601 0
M  V30 3709 C 340.83 2.57697 4.31158 0
M  V30 3710 C 342.824 4.51303 4.50116 0
M  V30 3711 C 340.511 3.86492 4.73357 0
M  V30 3712 C 341.509 4.83107 4.828 0
M  V30 3713 O 341.197 6.09605 5.24058 0
M  V30 3714 H 340.929 0.239223 0.632257 0
M  V30 3715 H 343.483 1.29587 1.59362 0
M  V30 3716 H 341.713 0.12649 3.86493 0
M  V30 3717 H 343.402 0.512965 4.02646 0
M  V30 3718 H 344.168 2.98783 3.82039 0
M  V30 3719 H 340.047 1.83216 4.23028 0
M  V30 3720 H 343.591 5.26716 4.57401 0
M  V30 3721 H 339.488 4.10245 4.98366 0
M  V30 3722 H 340.256 6.13146 5.42213 0
M  V30 3723 N 342.919 -1.39368 0.735821 0
M  V30 3724 C 344.196 -1.94465 0.210395 0
M  V30 3725 C 344.576 -1.67254 -1.28799 0
M  V30 3726 O 343.924 -1.00123 -2.05396 0
M  V30 3727 C 344.134 -3.4472 0.544897 0
M  V30 3728 C 345.482 -4.21708 0.494689 0
M  V30 3729 O 346.506 -3.52922 0.482136 0
M  V30 3730 O 345.365 -5.44299 0.489947 0
M  V30 3731 H 342.459 -0.826096 0.0386666 0
M  V30 3732 H 345.005 -1.48863 0.814735 0
M  V30 3733 H 343.777 -3.57963 1.58045 0
M  V30 3734 H 343.4 -3.97502 -0.08837 0
M  V30 3735 N 344.397 -0.483516 -1.5 0
M  V30 3736 C 345.307 0.309172 -2.32554 0
M  V30 3737 C 346.323 0.984159 -1.43493 0
M  V30 3738 O 347.499 0.969399 -1.76535 0
M  V30 3739 C 344.564 1.36979 -3.18493 0
M  V30 3740 C 343.625 0.710095 -4.23387 0
M  V30 3741 C 342.858 1.72018 -5.05218 0
M  V30 3742 O 343.081 2.94813 -4.88305 0
M  V30 3743 O 342.015 1.28515 -5.8802 0
M  V30 3744 H 345.841 -0.366064 -3.01486 0
M  V30 3745 H 343.426 -0.24514 -1.47375 0
M  V30 3746 H 345.308 1.98385 -3.71781 0
M  V30 3747 H 343.983 2.02828 -2.52275 0
M  V30 3748 H 342.89 0.0567539 -3.74057 0
M  V30 3749 H 344.223 0.0943557 -4.9211 0
M  V30 3750 N 345.875 1.56104 -0.216619 0
M  V30 3751 C 347.124 1.97348 0.416744 0
M  V30 3752 C 347.437 1.10715 1.6125 0
M  V30 3753 O 348.643 1.41836 2.31506 0
M  V30 3754 C 347.099 3.51059 0.792835 0
M  V30 3755 C 346.707 4.46387 -0.379828 0
M  V30 3756 C 348.451 4.01026 1.39208 0
M  V30 3757 C 346.358 5.91397 0.0184223 0
M  V30 3758 H 345.288 0.736942 0.159475 0
M  V30 3759 H 347.939 1.80827 -0.31205 0
M  V30 3760 H 346.321 3.63162 1.57891 0
M  V30 3761 H 347.495 4.46029 -1.15737 0
M  V30 3762 H 345.81 4.06734 -0.891979 0
M  V30 3763 H 348.407 5.0686 1.70286 0
M  V30 3764 H 348.75 3.46587 2.30614 0
M  V30 3765 H 349.283 3.92125 0.669537 0
M  V30 3766 H 346.022 6.49807 -0.862002 0
M  V30 3767 H 345.542 5.94961 0.760384 0
M  V30 3768 H 347.221 6.45455 0.446818 0
M  V30 3769 N 347.353 -0.0568162 1.57498 0
M  V30 3770 C 348.63 -0.786954 1.79071 0
M  V30 3771 C 349.01 -1.95028 0.80792 0
M  V30 3772 O 348.358 -2.27968 -0.155858 0
M  V30 3773 C 348.568 -1.24594 3.26002 0
M  V30 3774 C 349.916 -1.67323 3.90241 0
M  V30 3775 O 350.94 -1.34124 3.29984 0
M  V30 3776 O 349.799 -2.28842 4.9628 0
M  V30 3777 H 346.893 -0.378262 0.735423 0
M  V30 3778 H 349.439 -0.035734 1.69662 0
M  V30 3779 H 348.211 -0.41423 3.89101 0
M  V30 3780 H 347.834 -2.05803 3.40192 0
M  V30 3781 N 348.832 -1.54138 -0.328536 0
M  V30 3782 C 349.78 -1.83894 -1.42428 0
M  V30 3783 C 350.774 -0.710478 -1.53781 0
M  V30 3784 O 351.98 -0.894062 -1.56226 0
M  V30 3785 H 348.355 -0.582837 -0.475189 0
M  V30 3786 H 350.326 -2.75537 -1.14552 0
M  V30 3787 C 349.075 -2.07866 -2.78724 0
M  V30 3788 H 348.398 -2.94158 -2.7076 0
M  V30 3789 H 349.838 -2.32644 -3.54476 0
M  V30 3790 C 348.297 -0.868689 -3.25508 0
M  V30 3791 O 348.827 -0.0754908 -4.01629 0
M  V30 3792 N 347.033 -0.681711 -2.82491 0
M  V30 3793 H 346.58 -1.32838 -2.20708 0
M  V30 3794 H 346.538 0.126374 -3.14146 0
M  V30 3795 N 350.31 0.590341 -1.46126 0
M  V30 3796 C 351.558 1.34616 -1.50742 0
M  V30 3797 C 351.879 1.94363 -0.157486 0
M  V30 3798 O 351.149 1.78136 0.815136 0
M  V30 3799 H 349.729 0.499789 -0.555175 0
M  V30 3800 H 352.391 0.691953 -1.82203 0
M  V30 3801 H 351.487 2.15678 -2.25587 0
M  V30 3802 N 351.788 1.33704 0.83433 0
M  V30 3803 C 353.018 1.28281 1.6195 0
M  V30 3804 C 353.426 -0.147603 1.88623 0
M  V30 3805 O 352.769 -1.1016 1.47005 0
M  V30 3806 C 352.831 1.99386 2.99141 0
M  V30 3807 C 352.495 3.48681 2.95416 0
M  V30 3808 C 353.492 4.438 2.70809 0
M  V30 3809 C 351.177 3.90925 3.15409 0
M  V30 3810 C 353.171 5.79138 2.66229 0
M  V30 3811 C 350.858 5.26366 3.10454 0
M  V30 3812 C 351.856 6.20284 2.85895 0
M  V30 3813 O 351.544 7.53245 2.80852 0
M  V30 3814 H 351.276 0.44315 0.510484 0
M  V30 3815 H 353.83 1.76711 1.04702 0
M  V30 3816 H 352.06 1.45554 3.58261 0
M  V30 3817 H 353.749 1.87403 3.60049 0
M  V30 3818 H 354.515 4.12485 2.5511 0
M  V30 3819 H 350.394 3.18229 3.33543 0
M  V30 3820 H 353.938 6.52416 2.4698 0
M  V30 3821 H 349.835 5.57304 3.25703 0
M  V30 3822 H 350.603 7.62846 2.96661 0
M  V30 3823 N 353.266 -1.05314 1.17247 0
M  V30 3824 C 354.196 -2.1498 0.911362 0
M  V30 3825 C 355.177 -1.69471 -0.146169 0
M  V30 3826 O 356.362 -1.942 0.003812 0
M  V30 3827 C 353.492 -3.4472 0.422528 0
M  V30 3828 C 352.446 -4.03789 1.4191 0
M  V30 3829 C 351.772 -5.28858 0.788274 0
M  V30 3830 C 353.072 -4.41418 2.7919 0
M  V30 3831 H 354.766 -2.3708 1.82848 0
M  V30 3832 H 352.312 -1.13938 0.880569 0
M  V30 3833 H 354.265 -4.20787 0.227289 0
M  V30 3834 H 352.989 -3.22269 -0.530123 0
M  V30 3835 H 351.648 -3.2979 1.60106 0
M  V30 3836 H 351.296 -5.02709 -0.171173 0
M  V30 3837 H 350.996 -5.69338 1.45353 0
M  V30 3838 H 352.52 -6.07612 0.603282 0
M  V30 3839 H 353.934 -5.08524 2.64719 0
M  V30 3840 H 352.331 -4.92913 3.42282 0
M  V30 3841 H 353.401 -3.51819 3.33693 0
M  V30 3842 N 354.744 -0.972509 -1.24016 0
M  V30 3843 C 355.691 -0.505969 -2.25186 0
M  V30 3844 C 356.661 0.451009 -1.5986 0
M  V30 3845 O 357.846 0.360307 -1.87367 0
M  V30 3846 C 354.986 0.193089 -3.44559 0
M  V30 3847 C 354.099 -0.803222 -4.24467 0
M  V30 3848 C 353.234 -0.0797793 -5.3114 0
M  V30 3849 C 352.273 -1.06583 -6.02749 0
M  V30 3850 N 351.41 -0.372074 -7.01113 0
M  V30 3851 H 356.25 -1.37351 -2.64459 0
M  V30 3852 H 353.787 -0.688419 -1.29997 0
M  V30 3853 H 355.745 0.615125 -4.1264 0
M  V30 3854 H 354.375 1.02455 -3.06109 0
M  V30 3855 H 353.427 -1.34368 -3.55878 0
M  V30 3856 H 354.739 -1.55494 -4.73944 0
M  V30 3857 H 353.893 0.400015 -6.0538 0
M  V30 3858 H 352.632 0.704597 -4.82583 0
M  V30 3859 H 351.637 -1.55645 -5.27309 0
M  V30 3860 H 352.862 -1.85074 -6.53395 0
M  V30 3861 H 350.808 0.393238 -6.5482 0
M  V30 3862 H 350.725 -1.06258 -7.48495 0
M  V30 3863 H 351.993 0.0855932 -7.79453 0
M  V30 3864 N 356.222 1.38976 -0.743202 0
M  V30 3865 C 357.155 2.28128 -0.0572165 0
M  V30 3866 C 358.133 1.44827 0.739182 0
M  V30 3867 O 359.317 1.74207 0.720009 0
M  V30 3868 C 356.444 3.25796 0.926001 0
M  V30 3869 C 355.49 4.25947 0.217099 0
M  V30 3870 S 356.323 5.24604 -1.07477 0
M  V30 3871 C 357.479 6.25829 -0.0943545 0
M  V30 3872 H 357.712 2.85961 -0.813246 0
M  V30 3873 H 355.245 1.44822 -0.535341 0
M  V30 3874 H 357.203 3.82583 1.48797 0
M  V30 3875 H 355.864 2.66966 1.65493 0
M  V30 3876 H 355.057 4.94746 0.961372 0
M  V30 3877 H 354.659 3.73002 -0.273059 0
M  V30 3878 H 356.951 6.73411 0.743239 0
M  V30 3879 H 357.894 7.0412 -0.749713 0
M  V30 3880 H 358.302 5.63797 0.281706 0
M  V30 3881 N 357.7 0.491464 1.49741 0
M  V30 3882 C 358.977 -0.118984 1.95238 0
M  V30 3883 C 359.357 -1.55044 1.43264 0
M  V30 3884 O 358.705 -2.19287 0.642287 0
M  V30 3885 C 358.915 -0.0414187 3.48975 0
M  V30 3886 C 360.263 -0.220133 4.24029 0
M  V30 3887 O 361.287 -0.117055 3.56008 0
M  V30 3888 O 360.146 -0.430567 5.44801 0
M  V30 3889 H 357.24 -0.100536 0.820866 0
M  V30 3890 H 359.786 0.553322 1.60426 0
M  V30 3891 H 358.558 0.957214 3.79412 0
M  V30 3892 H 358.181 -0.754292 3.9038 0
M  V30 3893 N 359.178 -1.55987 0.224894 0
M  V30 3894 C 360.126 -2.21808 -0.700283 0
M  V30 3895 C 361.12 -1.19854 -1.19714 0
M  V30 3896 O 362.326 -1.37925 -1.15658 0
M  V30 3897 H 358.701 -0.711226 -0.244258 0
M  V30 3898 H 360.672 -2.98152 -0.121749 0
M  V30 3899 C 359.421 -2.91444 -1.8962 0
M  V30 3900 H 358.744 -3.69655 -1.52299 0
M  V30 3901 H 360.184 -3.40894 -2.52125 0
M  V30 3902 C 358.643 -1.94098 -2.75368 0
M  V30 3903 O 359.173 -1.46004 -3.74227 0
M  V30 3904 N 357.379 -1.61675 -2.41474 0
M  V30 3905 H 356.926 -2.00979 -1.61137 0
M  V30 3906 H 356.884 -0.968036 -2.99126 0
M  V30 3907 N 360.656 0.0484629 -1.57525 0
M  V30 3908 C 361.606 1.06246 -2.01732 0
M  V30 3909 C 362.59 1.33155 -0.903245 0
M  V30 3910 O 363.782 1.33065 -1.16717 0
M  V30 3911 C 360.911 2.36943 -2.48421 0
M  V30 3912 C 359.997 2.13208 -3.6661 0
M  V30 3913 N 360.388 1.5947 -4.80003 0
M  V30 3914 C 358.686 2.43581 -3.7361 0
M  V30 3915 C 359.387 1.51092 -5.61735 0
M  V30 3916 N 358.363 1.9797 -5.0627 0
M  V30 3917 H 362.165 0.640675 -2.86832 0
M  V30 3918 H 359.679 0.255134 -1.60383 0
M  V30 3919 H 361.676 3.10374 -2.78341 0
M  V30 3920 H 360.336 2.79818 -1.64718 0
M  V30 3921 H 361.347 1.28008 -5.01831 0
M  V30 3922 H 358.024 2.89662 -3.00669 0
M  V30 3923 H 359.414 1.10199 -6.62801 0
M  V30 3924 N 362.134 1.5431 0.320358 0
M  V30 3925 C 363.55 1.45091 0.664889 0
M  V30 3926 C 363.75 0.626382 1.91517 0
M  V30 3927 O 362.806 0.126443 2.52183 0
M  V30 3928 C 364.119 2.88848 0.83591 0
M  V30 3929 C 365.667 2.9877 0.933046 0
M  V30 3930 C 366.142 4.43683 1.13621 0
M  V30 3931 N 367.633 4.47309 1.20287 0
M  V30 3932 C 368.368 5.56595 1.37801 0
M  V30 3933 N 367.864 6.75844 1.52338 0
M  V30 3934 N 369.657 5.44248 1.40535 0
M  V30 3935 H 361.808 2.06398 -0.501374 0
M  V30 3936 H 364.071 0.933963 -0.162534 0
M  V30 3937 H 363.777 3.51698 -0.0116092 0
M  V30 3938 H 363.651 3.35148 1.73078 0
M  V30 3939 H 366.038 2.36045 1.77107 0
M  V30 3940 H 366.119 2.55796 0.0145782 0
M  V30 3941 H 365.763 5.06995 0.303032 0
M  V30 3942 H 365.693 4.84269 2.0686 0
M  V30 3943 H 368.184 3.61388 1.10485 0
M  V30 3944 H 368.497 7.54892 1.65403 0
M  V30 3945 H 366.842 6.78746 1.4943 0
M  V30 3946 H 370.033 4.50038 1.28777 0
M  V30 3947 H 370.206 6.29473 1.53842 0
M  V30 3948 N 363.613 -0.582584 1.46437 0
M  V30 3949 C 364.862 -1.337 1.5102 0
M  V30 3950 C 365.175 -1.94891 0.166359 0
M  V30 3951 O 366.381 -2.71351 0.0899954 0
M  V30 3952 C 364.837 -2.42315 2.66104 0
M  V30 3953 C 364.445 -1.87427 4.06909 0
M  V30 3954 C 366.189 -3.19099 2.79958 0
M  V30 3955 C 364.096 -2.93672 5.13333 0
M  V30 3956 H 363.026 -0.502619 0.562041 0
M  V30 3957 H 365.677 -0.621701 1.72647 0
M  V30 3958 H 364.059 -3.16645 2.37807 0
M  V30 3959 H 365.233 -1.19639 4.44998 0
M  V30 3960 H 363.548 -1.2331 3.97723 0
M  V30 3961 H 366.145 -3.9839 3.56636 0
M  V30 3962 H 366.488 -3.71695 1.87479 0
M  V30 3963 H 367.021 -2.51875 3.07902 0
M  V30 3964 H 363.76 -2.45962 6.07604 0
M  V30 3965 H 363.28 -3.59948 4.79789 0
M  V30 3966 H 364.959 -3.5762 5.39182 0
M  V30 3967 N 365.091 -1.34144 -0.827227 0
M  V30 3968 C 366.502 -1.23557 -1.39966 0
M  V30 3969 C 366.853 0.140731 -1.95695 0
M  V30 3970 O 365.978 1.04087 -1.89723 0
M  V30 3971 C 366.573 -2.23708 -2.54441 0
M  V30 3972 C 365.132 -2.16924 -3.07605 0
M  V30 3973 C 364.279 -2.10549 -1.80456 0
M  V30 3974 H 367.23 -1.45573 -0.631991 0
M  V30 3975 H 367.251 -1.85157 -3.32411 0
M  V30 3976 H 366.763 -3.23866 -2.13851 0
M  V30 3977 H 364.864 -1.20107 -3.52711 0
M  V30 3978 H 364.977 -3.07988 -3.66988 0
M  V30 3979 H 363.341 -1.56203 -2.01178 0
M  V30 3980 H 364.124 -3.12535 -1.42046 0
M  V30 3981 N 366.569 1.04691 -1.17803 0
M  V30 3982 C 367.985 1.29963 -0.926379 0
M  V30 3983 C 368.185 1.97251 0.411635 0
M  V30 3984 O 367.241 2.24922 1.14744 0
M  V30 3985 C 368.554 2.16447 -2.08737 0
M  V30 3986 C 370.102 2.29814 -2.12496 0
M  V30 3987 C 370.577 3.19661 -3.27995 0
M  V30 3988 N 372.068 3.27247 -3.27816 0
M  V30 3989 C 372.803 3.96906 -4.13827 0
M  V30 3990 N 372.299 4.6895 -5.09959 0
M  V30 3991 N 374.092 3.93122 -4.01761 0
M  V30 3992 H 366.243 0.594182 -2.0392 0
M  V30 3993 H 368.506 0.324649 -0.890678 0
M  V30 3994 H 368.212 1.74304 -3.05469 0
M  V30 3995 H 368.086 3.17103 -2.04268 0
M  V30 3996 H 370.473 2.71196 -1.16347 0
M  V30 3997 H 370.554 1.2877 -2.21025 0
M  V30 3998 H 370.198 2.78991 -4.24413 0
M  V30 3999 H 370.128 4.20722 -3.16703 0
M  V30 4000 H 372.619 2.75921 -2.58217 0
M  V30 4001 H 372.932 5.19679 -5.71974 0
M  V30 4002 H 371.277 4.67875 -5.13924 0
M  V30 4003 H 374.468 3.35967 -3.2595 0
M  V30 4004 H 374.641 4.47139 -4.6901 0
M  V30 4005 N 368.047 0.979072 1.23499 0
M  V30 4006 C 368.957 0.526431 2.28617 0
M  V30 4007 C 369.973 -0.418126 1.68901 0
M  V30 4008 O 371.149 -0.288372 1.99325 0
M  V30 4009 C 368.214 -0.165235 3.46306 0
M  V30 4010 C 367.275 0.82056 4.21385 0
M  V30 4011 C 366.508 0.161807 5.33455 0
M  V30 4012 O 366.731 -1.04742 5.60701 0
M  V30 4013 O 365.665 0.859708 5.95729 0
M  V30 4014 H 369.491 1.4006 2.69475 0
M  V30 4015 H 367.076 0.746643 1.29405 0
M  V30 4016 H 368.958 -0.553287 4.17752 0
M  V30 4017 H 367.633 -1.01419 3.07402 0
M  V30 4018 H 366.54 1.25929 3.52268 0
M  V30 4019 H 367.873 1.63828 4.64135 0
M  V30 4020 N 369.525 -1.3858 0.750561 0
M  V30 4021 C 370.473 -2.32339 0.110162 0
M  V30 4022 C 371.467 -1.53864 -0.708674 0
M  V30 4023 O 372.673 -1.69417 -0.608112 0
M  V30 4024 H 369.048 -0.751812 0.0168275 0
M  V30 4025 H 371.019 -2.83959 0.917053 0
M  V30 4026 C 369.768 -3.39043 -0.771067 0
M  V30 4027 H 369.091 -3.99517 -0.150374 0
M  V30 4028 H 370.531 -4.07061 -1.1865 0
M  V30 4029 C 368.99 -2.77365 -1.91234 0
M  V30 4030 O 369.52 -2.66434 -3.00626 0
M  V30 4031 N 367.726 -2.35219 -1.70646 0
M  V30 4032 H 367.273 -2.4431 -0.81673 0
M  V30 4033 H 367.231 -1.94294 -2.47178 0
M  V30 4034 N 371.003 -0.499398 -1.49478 0
M  V30 4035 C 371.936 0.326491 -2.25852 0
M  V30 4036 C 372.914 0.971776 -1.30366 0
M  V30 4037 O 374.098 1.00219 -1.59651 0
M  V30 4038 C 371.225 1.45969 -3.05632 0
M  V30 4039 C 370.271 0.928938 -4.16261 0
M  V30 4040 S 371.104 -0.179012 -5.35201 0
M  V30 4041 C 372.26 0.957389 -6.18534 0
M  V30 4042 H 372.493 -0.321746 -2.95554 0
M  V30 4043 H 370.026 -0.284674 -1.51753 0
M  V30 4044 H 371.984 2.109 -3.52181 0
M  V30 4045 H 370.645 2.07953 -2.35402 0
M  V30 4046 H 369.838 1.77813 -4.71592 0
M  V30 4047 H 369.44 0.356869 -3.72293 0
M  V30 4048 H 371.732 1.86296 -6.51383 0
M  V30 4049 H 372.675 0.442733 -7.06715 0
M  V30 4050 H 373.083 1.224 -5.5107 0
M  V30 4051 N 372.481 1.55866 -0.233164 0
M  V30 4052 C 373.411 2.23783 0.666599 0
M  V30 4053 C 374.392 1.21343 1.19205 0
M  V30 4054 O 375.577 1.4996 1.23392 0
M  V30 4055 C 372.707 2.92671 1.86978 0
M  V30 4056 C 371.661 4.01682 1.47768 0
M  V30 4057 C 370.987 4.57926 2.76058 0
M  V30 4058 C 372.287 5.18126 0.658993 0
M  V30 4059 H 373.981 2.99232 0.100306 0
M  V30 4060 H 371.527 1.43924 0.046804 0
M  V30 4061 H 373.48 3.3888 2.50476 0
M  V30 4062 H 372.204 2.14688 2.46123 0
M  V30 4063 H 370.863 3.56222 0.866106 0
M  V30 4064 H 370.511 3.76659 3.33372 0
M  V30 4065 H 370.211 5.31505 2.50552 0
M  V30 4066 H 371.735 5.06859 3.40479 0
M  V30 4067 H 373.149 5.60644 1.19795 0
M  V30 4068 H 371.546 5.98009 0.500552 0
M  V30 4069 H 372.616 4.83763 -0.331856 0
M  V30 4070 N 373.959 -0.0401083 1.57549 0
M  V30 4071 C 374.892 -1.07689 2.01192 0
M  V30 4072 C 375.87 -1.358 0.894273 0
M  V30 4073 O 377.054 -1.48642 1.15921 0
M  V30 4074 C 374.181 -2.41418 2.3756 0
M  V30 4075 C 373.227 -2.29237 3.59656 0
M  V30 4076 S 374.06 -1.65628 5.09242 0
M  V30 4077 C 375.216 -3.0087 5.48843 0
M  V30 4078 H 375.449 -0.705108 2.88817 0
M  V30 4079 H 372.982 -0.249724 1.52367 0
M  V30 4080 H 374.94 -3.18329 2.59186 0
M  V30 4081 H 373.601 -2.75747 1.50407 0
M  V30 4082 H 372.794 -3.27932 3.82722 0
M  V30 4083 H 372.396 -1.60469 3.37825 0
M  V30 4084 H 374.688 -3.97201 5.48851 0
M  V30 4085 H 375.631 -2.82549 6.49286 0
M  V30 4086 H 376.039 -3.02934 4.76331 0
M  V30 4087 N 375.437 -1.54477 -0.31217 0
M  V30 4088 C 376.384 -1.84655 -1.38461 0
M  V30 4089 C 377.354 -0.694536 -1.50882 0
M  V30 4090 O 378.539 -0.942081 -1.6592 0
M  V30 4091 C 375.679 -2.0896 -2.74645 0
M  V30 4092 C 374.792 -3.36618 -2.70763 0
M  V30 4093 C 373.927 -3.50824 -3.98868 0
M  V30 4094 C 372.966 -4.72315 -3.89339 0
M  V30 4095 N 372.103 -4.83387 -5.09197 0
M  V30 4096 H 376.943 -2.76142 -1.12026 0
M  V30 4097 H 374.48 -1.36748 -0.542065 0
M  V30 4098 H 376.438 -2.21045 -3.53829 0
M  V30 4099 H 375.068 -1.20752 -2.99364 0
M  V30 4100 H 374.12 -3.33211 -1.83506 0
M  V30 4101 H 375.432 -4.25917 -2.59608 0
M  V30 4102 H 374.586 -3.62513 -4.86486 0
M  V30 4103 H 373.325 -2.59638 -4.12843 0
M  V30 4104 H 372.33 -4.6067 -3.00105 0
M  V30 4105 H 373.555 -5.64897 -3.76919 0
M  V30 4106 H 371.501 -3.9512 -5.23657 0
M  V30 4107 H 371.418 -5.66669 -5.00422 0
M  V30 4108 H 372.686 -4.9942 -5.98498 0
M  V30 4109 N 376.915 0.57481 -1.46744 0
M  V30 4110 C 378.145 1.35659 -1.55821 0
M  V30 4111 C 378.553 1.88129 -0.201036 0
M  V30 4112 O 377.896 1.64723 0.813134 0
M  V30 4113 C 377.958 2.57473 -2.50894 0
M  V30 4114 C 377.622 2.26415 -3.9697 0
M  V30 4115 C 378.619 1.84771 -4.85958 0
M  V30 4116 C 376.304 2.38316 -4.42166 0
M  V30 4117 C 378.298 1.55434 -6.18158 0
M  V30 4118 C 375.985 2.08591 -5.74398 0
M  V30 4119 C 376.983 1.67216 -6.62214 0
M  V30 4120 O 376.671 1.37859 -7.91991 0
M  V30 4121 H 376.403 0.420496 -0.529301 0
M  V30 4122 H 378.957 0.704967 -1.92923 0
M  V30 4123 H 377.187 3.25468 -2.08824 0
M  V30 4124 H 378.876 3.19546 -2.50291 0
M  V30 4125 H 379.642 1.75085 -4.52295 0
M  V30 4126 H 375.521 2.69483 -3.74032 0
M  V30 4127 H 379.065 1.23065 -6.86659 0
M  V30 4128 H 374.962 2.17905 -6.07608 0
M  V30 4129 H 375.73 1.51638 -8.04331 0
M  V30 4130 N 378.394 1.34581 0.820102 0
M  V30 4131 C 379.357 1.2628 1.91275 0
M  V30 4132 C 380.357 0.177344 1.59819 0
M  V30 4133 O 381.547 0.430156 1.68806 0
M  V30 4134 C 378.679 0.950327 3.27386 0
M  V30 4135 H 379.872 2.23421 2.00057 0
M  V30 4136 H 377.425 1.1891 1.0144 0
M  V30 4137 H 378.16 -0.0177938 3.24295 0
M  V30 4138 H 377.945 1.73549 3.51601 0
M  V30 4139 H 379.435 0.917492 4.07396 0
M  V30 4140 N 379.872 -1.04064 1.18357 0
M  V30 4141 C 380.804 -2.12114 0.868358 0
M  V30 4142 C 381.817 -1.62247 -0.134045 0
M  V30 4143 O 383.006 -1.78253 0.0937933 0
M  V30 4144 C 380.106 -3.37773 0.276132 0
M  V30 4145 C 379.279 -4.16874 1.3242 0
M  V30 4146 C 378.338 -5.20861 0.747662 0
M  V30 4147 O 377.364 -5.51141 1.42239 0
M  V30 4148 N 378.566 -5.78715 -0.454823 0
M  V30 4149 H 381.331 -2.39748 1.79836 0
M  V30 4150 H 378.892 -1.20258 1.08396 0
M  V30 4151 H 380.884 -4.04513 -0.123133 0
M  V30 4152 H 379.454 -3.07581 -0.557895 0
M  V30 4153 H 378.674 -3.45456 1.89878 0
M  V30 4154 H 379.962 -4.66516 2.03078 0
M  V30 4155 H 379.36 -5.56415 -1.02073 0
M  V30 4156 H 377.917 -6.46921 -0.79601 0
M  V30 4157 N 381.35 -0.985608 -1.22978 0
M  V30 4158 C 382.596 -0.65836 -1.91816 0
M  V30 4159 C 382.929 0.806692 -1.76653 0
M  V30 4160 O 382.204 1.58252 -1.13078 0
M  V30 4161 C 382.487 -1.056 -3.44268 0
M  V30 4162 C 382.34 -2.57906 -3.68516 0
M  V30 4163 C 383.659 -0.603781 -4.35939 0
M  V30 4164 H 380.778 -0.24065 -0.696604 0
M  V30 4165 H 383.42 -1.22783 -1.44998 0
M  V30 4166 H 381.57 -0.571445 -3.84274 0
M  V30 4167 H 383.242 -3.13976 -3.3796 0
M  V30 4168 H 381.485 -3.00305 -3.13048 0
M  V30 4169 H 382.156 -2.80779 -4.75255 0
M  V30 4170 H 384.632 -1.01987 -4.03408 0
M  V30 4171 H 383.508 -0.910383 -5.41298 0
M  V30 4172 H 383.769 0.495761 -4.39312 0
M  V30 4173 N 382.828 1.3818 -0.7579 0
M  V30 4174 C 383.775 2.30416 -0.133057 0
M  V30 4175 C 384.745 1.50398 0.704957 0
M  V30 4176 O 385.93 1.79014 0.660192 0
M  V30 4177 C 383.07 3.36834 0.750813 0
M  V30 4178 C 382.183 4.31879 -0.102297 0
M  V30 4179 C 381.318 5.25368 0.784979 0
M  V30 4180 C 380.357 6.12058 -0.0715046 0
M  V30 4181 N 379.494 6.97832 0.772972 0
M  V30 4182 H 384.334 2.83274 -0.925186 0
M  V30 4183 H 381.871 1.39461 -0.467866 0
M  V30 4184 H 383.829 3.97145 1.27794 0
M  V30 4185 H 382.459 2.85374 1.50868 0
M  V30 4186 H 381.511 3.72991 -0.747095 0
M  V30 4187 H 382.823 4.92921 -0.763552 0
M  V30 4188 H 381.977 5.90818 1.37911 0
M  V30 4189 H 380.716 4.64703 1.47996 0
M  V30 4190 H 379.721 5.456 -0.678272 0
M  V30 4191 H 380.946 6.74793 -0.763606 0
M  V30 4192 H 378.892 6.3971 1.45282 0
M  V30 4193 H 378.809 7.55812 0.168709 0
M  V30 4194 H 380.077 7.67687 1.35194 0
M  V30 4195 N 384.306 0.507319 1.49211 0
M  V30 4196 C 385.717 0.0611118 1.866 0
M  V30 4197 C 386.068 -1.35488 1.41907 0
M  V30 4198 O 385.193 -2.0108 0.799726 0
M  V30 4199 C 385.788 0.104125 3.3864 0
M  V30 4200 C 384.347 -0.28677 3.75306 0
M  V30 4201 C 383.494 0.473893 2.73221 0
M  V30 4202 H 386.445 0.719775 1.41439 0
M  V30 4203 H 386.466 -0.689672 3.74198 0
M  V30 4204 H 385.978 1.13482 3.71138 0
M  V30 4205 H 384.079 -1.32046 3.48417 0
M  V30 4206 H 384.192 0.0370745 4.79086 0
M  V30 4207 H 382.556 -0.0770644 2.54583 0
M  V30 4208 H 383.339 1.50478 3.08563 0
M  V30 4209 N 385.784 -1.5574 0.241426 0
M  V30 4210 C 387.061 -1.90704 -0.434881 0
M  V30 4211 C 387.441 -1.16145 -1.76277 0
M  V30 4212 O 386.789 -0.277152 -2.26813 0
M  V30 4213 C 386.999 -3.43657 -0.608343 0
M  V30 4214 C 388.347 -4.14806 -0.906725 0
M  V30 4215 O 389.371 -3.49366 -0.694408 0
M  V30 4216 O 388.23 -5.30548 -1.31075 0
M  V30 4217 H 385.324 -0.793592 -0.23268 0
M  V30 4218 H 387.87 -1.67288 0.285086 0
M  V30 4219 H 386.642 -3.89927 0.327505 0
M  V30 4220 H 386.265 -3.72918 -1.37906 0
M  V30 4221 N 387.262 0.0317525 -1.57568 0
M  V30 4222 C 388.51 0.721676 -1.88776 0
M  V30 4223 C 388.831 1.76039 -0.838772 0
M  V30 4224 O 388.101 1.95482 0.127935 0
M  V30 4225 H 386.681 0.269534 -0.696678 0
M  V30 4226 H 389.343 -0.00165879 -1.949 0
M  V30 4227 H 388.439 1.21293 -2.87566 0
M  V30 4228 N 388.74 1.54641 0.303973 0
M  V30 4229 C 389.968 1.77768 1.05858 0
M  V30 4230 C 390.383 0.535722 1.8104 0
M  V30 4231 O 389.74 -0.494337 1.75677 0
M  V30 4232 C 389.791 2.9834 2.04146 0
M  V30 4233 O 389.512 4.17736 1.32015 0
M  V30 4234 C 391.013 3.33832 2.91669 0
M  V30 4235 H 388.233 0.592961 0.314067 0
M  V30 4236 H 390.777 2.01583 0.344149 0
M  V30 4237 H 388.932 2.76742 2.71096 0
M  V30 4238 H 389.346 4.85693 1.97998 0
M  V30 4239 H 390.82 4.21448 3.56491 0
M  V30 4240 H 391.297 2.51857 3.59812 0
M  V30 4241 H 391.903 3.57579 2.30254 0
M  V30 4242 N 390.218 -0.567019 1.47046 0
M  V30 4243 C 391.448 -1.34831 1.56538 0
M  V30 4244 C 391.856 -1.8802 0.21101 0
M  V30 4245 O 391.199 -1.65152 -0.804387 0
M  V30 4246 C 391.261 -2.56139 2.52256 0
M  V30 4247 C 390.925 -2.24307 3.98165 0
M  V30 4248 C 391.922 -1.82192 4.86931 0
M  V30 4249 C 389.607 -2.35968 4.43423 0
M  V30 4250 C 391.601 -1.52153 6.18973 0
M  V30 4251 C 389.288 -2.05542 5.75496 0
M  V30 4252 C 390.286 -1.63701 6.63092 0
M  V30 4253 O 389.974 -1.33657 7.92711 0
M  V30 4254 H 389.706 -0.417683 0.531523 0
M  V30 4255 H 392.26 -0.694726 1.93294 0
M  V30 4256 H 390.49 -3.24356 2.10548 0
M  V30 4257 H 392.179 -3.18214 2.51982 0
M  V30 4258 H 392.945 -1.72684 4.53217 0
M  V30 4259 H 388.824 -2.67495 3.75456 0
M  V30 4260 H 392.368 -1.19421 6.87302 0
M  V30 4261 H 388.265 -2.14679 6.08755 0
M  V30 4262 H 389.033 -1.4737 8.05124 0
M  V30 4263 N 391.696 -1.35014 -0.812953 0
M  V30 4264 C 392.942 -1.2812 -1.57204 0
M  V30 4265 C 393.275 0.145869 -1.93651 0
M  V30 4266 O 392.55 1.0937 -1.60836 0
M  V30 4267 C 392.833 -2.18162 -2.86492 0
M  V30 4268 C 392.686 -3.69454 -2.56561 0
M  V30 4269 C 394.005 -2.07439 -3.88145 0
M  V30 4270 H 391.124 -0.466746 -0.570366 0
M  V30 4271 H 393.766 -1.65357 -0.935783 0
M  V30 4272 H 391.916 -1.86535 -3.40789 0
M  V30 4273 H 393.588 -4.11493 -2.08497 0
M  V30 4274 H 391.831 -3.9005 -1.89851 0
M  V30 4275 H 392.502 -4.27835 -3.48799 0
M  V30 4276 H 394.978 -2.35228 -3.4323 0
M  V30 4277 H 393.854 -2.7265 -4.76396 0
M  V30 4278 H 394.115 -1.05439 -4.29343 0
M  V30 4279 N 393.175 1.03435 -1.18907 0
M  V30 4280 C 394.122 2.11591 -0.921837 0
M  V30 4281 C 395.092 1.65499 0.141226 0
M  V30 4282 O 396.277 1.908 0.000242829 0
M  V30 4283 C 393.417 3.42012 -0.460616 0
M  V30 4284 C 392.53 4.01682 -1.58982 0
M  V30 4285 C 391.665 5.20091 -1.08069 0
M  V30 4286 C 390.704 5.71805 -2.18416 0
M  V30 4287 N 389.841 6.81494 -1.68849 0
M  V30 4288 H 394.681 2.33787 -1.8479 0
M  V30 4289 H 392.218 1.1467 -0.921373 0
M  V30 4290 H 394.176 4.16834 -0.174642 0
M  V30 4291 H 392.806 3.19944 0.428467 0
M  V30 4292 H 391.858 3.24127 -1.99113 0
M  V30 4293 H 393.17 4.36084 -2.4214 0
M  V30 4294 H 392.324 6.02051 -0.749615 0
M  V30 4295 H 391.063 4.87209 -0.218771 0
M  V30 4296 H 390.068 4.88461 -2.5236 0
M  V30 4297 H 391.293 6.06728 -3.05054 0
M  V30 4298 H 389.239 6.50475 -0.849572 0
M  V30 4299 H 389.156 7.14994 -2.45601 0
M  V30 4300 H 390.424 7.67063 -1.38689 0
M  V30 4301 N 394.653 0.992116 1.22453 0
M  V30 4302 C 396.064 0.702776 1.72968 0
M  V30 4303 C 396.415 -0.780399 1.80012 0
M  V30 4304 O 395.54 -1.61007 1.44589 0
M  V30 4305 C 396.135 1.26903 3.14135 0
M  V30 4306 C 394.694 1.02909 3.62059 0
M  V30 4307 C 393.841 1.38969 2.39964 0
M  V30 4308 H 396.792 1.16457 1.07812 0
M  V30 4309 H 396.813 0.647223 3.74955 0
M  V30 4310 H 396.325 2.34851 3.08977 0
M  V30 4311 H 394.426 -0.0337979 3.72585 0
M  V30 4312 H 394.539 1.69191 4.48231 0
M  V30 4313 H 392.903 0.808279 2.41535 0
M  V30 4314 H 393.686 2.4792 2.37467 0
M  V30 4315 N 396.131 -1.37776 0.765217 0
M  V30 4316 C 397.061 -2.32945 0.160953 0
M  V30 4317 C 398.042 -1.55454 -0.690516 0
M  V30 4318 O 399.227 -1.83721 -0.629318 0
M  V30 4319 C 396.357 -3.39669 -0.724031 0
M  V30 4320 C 395.311 -4.27992 0.0256173 0
M  V30 4321 C 394.637 -5.25673 -0.978383 0
M  V30 4322 C 395.937 -5.08309 1.20082 0
M  V30 4323 H 397.631 -2.83728 0.955969 0
M  V30 4324 H 395.177 -1.36416 0.461149 0
M  V30 4325 H 397.13 -4.05219 -1.15652 0
M  V30 4326 H 395.854 -2.87396 -1.5515 0
M  V30 4327 H 394.513 -3.63964 0.438812 0
M  V30 4328 H 394.161 -4.69682 -1.80022 0
M  V30 4329 H 393.861 -5.85625 -0.481378 0
M  V30 4330 H 395.385 -5.94098 -1.40995 0
M  V30 4331 H 396.799 -5.67034 0.845307 0
M  V30 4332 H 395.196 -5.77554 1.62947 0
M  V30 4333 H 396.266 -4.41365 2.00811 0
M  V30 4334 N 397.609 -0.515225 -1.4894 0
M  V30 4335 C 398.834 0.022727 -2.07388 0
M  V30 4336 C 399.259 1.2876 -1.37122 0
M  V30 4337 O 398.617 1.76067 -0.432431 0
M  V30 4338 C 398.665 0.244869 -3.59768 0
M  V30 4339 O 397.769 1.31667 -3.90817 0
M  V30 4340 H 397.11 -0.0325506 -0.663202 0
M  V30 4341 H 399.64 -0.718918 -1.91553 0
M  V30 4342 H 399.65 0.47205 -4.0526 0
M  V30 4343 H 398.325 -0.679194 -4.10317 0
M  V30 4344 H 396.902 1.07331 -3.5712 0
M  V30 4345 N 399.087 1.5561 -0.249682 0
M  V30 4346 C 400.035 2.22894 0.664906 0
M  V30 4347 C 401.029 1.21743 1.17792 0
M  V30 4348 O 402.235 1.39748 1.13449 0
M  V30 4349 H 398.61 0.715022 0.232912 0
M  V30 4350 H 400.581 2.98307 0.0742998 0
M  V30 4351 C 399.33 2.94424 1.84959 0
M  V30 4352 H 398.653 3.72031 1.46399 0
M  V30 4353 H 400.093 3.44862 2.4667 0
M  V30 4354 C 398.552 1.98454 2.72245 0
M  V30 4355 O 399.082 1.51939 3.71857 0
M  V30 4356 N 397.288 1.65496 2.38871 0
M  V30 4357 H 396.835 2.03517 1.57919 0
M  V30 4358 H 396.793 1.0155 2.97548 0
M  V30 4359 N 400.565 -0.0233959 1.57583 0
M  V30 4360 C 401.512 -1.02224 2.06927 0
M  V30 4361 C 402.482 -1.35575 0.959617 0
M  V30 4362 O 403.667 -1.45815 1.23055 0
M  V30 4363 C 400.807 -2.31636 2.5581 0
M  V30 4364 C 399.92 -2.04394 3.80588 0
M  V30 4365 C 399.055 -3.27717 4.18061 0
M  V30 4366 C 398.094 -2.96056 5.3574 0
M  V30 4367 N 397.231 -4.11847 5.68618 0
M  V30 4368 H 402.071 -0.594504 2.9201 0
M  V30 4369 H 399.608 -0.281921 1.44373 0
M  V30 4370 H 401.566 -3.07258 2.82221 0
M  V30 4371 H 400.196 -2.72122 1.73636 0
M  V30 4372 H 399.248 -1.19244 3.61227 0
M  V30 4373 H 400.56 -1.77042 4.66323 0
M  V30 4374 H 399.714 -4.11702 4.4563 0
M  V30 4375 H 398.453 -3.58188 3.30988 0
M  V30 4376 H 397.458 -2.10474 5.07918 0
M  V30 4377 H 398.683 -2.66857 6.24471 0
M  V30 4378 H 396.629 -4.42258 4.84504 0
M  V30 4379 H 396.546 -3.87938 6.48876 0
M  V30 4380 H 397.814 -4.96689 6.00766 0
M  V30 4381 N 402.043 -1.548 -0.295768 0
M  V30 4382 C 402.973 -1.89115 -1.36959 0
M  V30 4383 C 403.954 -0.75059 -1.52644 0
M  V30 4384 O 405.139 -1.00678 -1.66065 0
M  V30 4385 C 402.269 -2.14307 -2.73295 0
M  V30 4386 C 401.223 -3.30151 -2.72368 0
M  V30 4387 C 400.549 -3.40772 -4.12042 0
M  V30 4388 C 401.849 -4.67126 -2.33646 0
M  V30 4389 H 403.543 -2.79053 -1.08488 0
M  V30 4390 H 401.089 -1.34266 -0.520443 0
M  V30 4391 H 403.042 -2.36898 -3.48507 0
M  V30 4392 H 401.766 -1.21145 -3.03301 0
M  V30 4393 H 400.425 -3.0749 -1.99613 0
M  V30 4394 H 400.073 -2.45117 -4.39234 0
M  V30 4395 H 399.773 -4.18645 -4.12322 0
M  V30 4396 H 401.297 -3.6563 -4.89027 0
M  V30 4397 H 402.711 -4.89414 -2.98575 0
M  V30 4398 H 401.108 -5.47751 -2.45129 0
M  V30 4399 H 402.178 -4.67489 -1.28772 0
M  V30 4400 N 403.521 0.559213 -1.47345 0
M  V30 4401 C 404.749 1.34194 -1.57479 0
M  V30 4402 C 405.164 1.87463 -0.224261 0
M  V30 4403 O 404.521 1.64888 0.782185 0
M  V30 4404 C 404.572 2.51324 -2.59843 0
M  V30 4405 O 404.293 2.00256 -3.89653 0
M  V30 4406 C 405.794 3.43563 -2.80142 0
M  V30 4407 H 403.014 0.409136 -0.531835 0
M  V30 4408 H 405.558 0.677609 -1.92947 0
M  V30 4409 H 403.713 3.13699 -2.27314 0
M  V30 4410 H 404.127 2.76708 -4.4557 0
M  V30 4411 H 405.601 4.2217 -3.55635 0
M  V30 4412 H 406.078 3.9698 -1.87892 0
M  V30 4413 H 406.684 2.87005 -3.1386 0
M  V30 4414 N 404.999 1.35443 0.805782 0
M  V30 4415 C 406.229 1.31687 1.59192 0
M  V30 4416 C 406.637 -0.10756 1.88894 0
M  V30 4417 O 405.98 -1.07017 1.49309 0
M  V30 4418 C 406.042 2.05686 2.94845 0
M  V30 4419 C 405.706 3.54868 2.87954 0
M  V30 4420 C 406.703 4.49444 2.61335 0
M  V30 4421 C 404.388 3.97528 3.07046 0
M  V30 4422 C 406.382 5.84655 2.53885 0
M  V30 4423 C 404.069 5.32833 2.99219 0
M  V30 4424 C 405.067 6.26209 2.72674 0
M  V30 4425 O 404.755 7.59032 2.64811 0
M  V30 4426 H 404.487 0.453878 0.50097 0
M  V30 4427 H 407.041 1.78892 1.0093 0
M  V30 4428 H 405.271 1.5312 3.55093 0
M  V30 4429 H 406.96 1.94998 3.55993 0
M  V30 4430 H 407.726 4.17804 2.46303 0
M  V30 4431 H 403.605 3.25233 3.26718 0
M  V30 4432 H 407.149 6.57508 2.33086 0
M  V30 4433 H 403.046 5.64087 3.13809 0
M  V30 4434 H 403.814 7.68967 2.80413 0
M  V30 4435 N 406.477 -1.02803 1.19454 0
M  V30 4436 C 407.725 -1.75869 0.995722 0
M  V30 4437 C 408.046 -1.89138 -0.474543 0
M  V30 4438 O 407.316 -1.42558 -1.34366 0
M  V30 4439 H 405.896 -0.651511 0.365435 0
M  V30 4440 H 408.558 -1.24004 1.50363 0
M  V30 4441 H 407.654 -2.76661 1.44447 0
M  V30 4442 N 407.956 -0.998596 -1.21925 0
M  V30 4443 C 409.184 -0.696286 -1.94832 0
M  V30 4444 C 409.599 0.740032 -1.73692 0
M  V30 4445 O 408.956 1.5 -1.03953 0
M  V30 4446 C 409.007 -0.999833 -3.47398 0
M  V30 4447 O 408.728 -2.37972 -3.67833 0
M  V30 4448 C 410.229 -0.716025 -4.37479 0
M  V30 4449 H 407.449 -0.257111 -0.619786 0
M  V30 4450 H 409.993 -1.33491 -1.54921 0
M  V30 4451 H 408.148 -0.406918 -3.85257 0
M  V30 4452 H 408.562 -2.48338 -4.61983 0
M  V30 4453 H 410.036 -0.978642 -5.43256 0
M  V30 4454 H 410.513 0.349968 -4.37803 0
M  V30 4455 H 411.119 -1.29025 -4.05256 0
M  V30 4456 N 409.434 1.37368 -0.772513 0
M  V30 4457 C 410.367 2.27956 -0.105593 0
M  V30 4458 C 411.345 1.46362 0.708295 0
M  V30 4459 O 412.529 1.75695 0.682895 0
M  V30 4460 C 409.656 3.27687 0.856686 0
M  V30 4461 C 408.702 4.26312 0.1267 0
M  V30 4462 S 409.535 5.22206 -1.1858 0
M  V30 4463 C 410.691 6.25488 -0.227081 0
M  V30 4464 H 410.924 2.84171 -0.87372 0
M  V30 4465 H 408.457 1.43654 -0.565939 0
M  V30 4466 H 410.415 3.85653 1.40648 0
M  V30 4467 H 409.076 2.70417 1.59793 0
M  V30 4468 H 408.269 4.96674 0.856212 0
M  V30 4469 H 407.871 3.72339 -0.352117 0
M  V30 4470 H 410.163 6.74836 0.600231 0
M  V30 4471 H 411.106 7.02371 -0.898899 0
M  V30 4472 H 411.514 5.64267 0.162053 0
M  V30 4473 N 410.912 0.523116 1.48665 0
M  V30 4474 C 412.158 -0.0134963 2.02796 0
M  V30 4475 C 412.491 -1.34582 1.40004 0
M  V30 4476 O 411.766 -1.86756 0.543381 0
M  V30 4477 C 412.049 -0.14276 3.59817 0
M  V30 4478 C 411.902 1.21425 4.331 0
M  V30 4479 C 413.221 -0.872856 4.31357 0
M  V30 4480 H 410.34 -0.00343074 0.736992 0
M  V30 4481 H 412.982 0.678816 1.7746 0
M  V30 4482 H 411.132 -0.732401 3.81534 0
M  V30 4483 H 412.804 1.84447 4.2282 0
M  V30 4484 H 411.047 1.79791 3.94788 0
M  V30 4485 H 411.718 1.07687 5.41394 0
M  V30 4486 H 414.194 -0.372555 4.14429 0
M  V30 4487 H 413.07 -0.932185 5.40927 0
M  V30 4488 H 413.331 -1.92161 3.98154 0
M  V30 4489 N 412.39 -1.55475 0.257931 0
M  V30 4490 C 413.637 -1.99207 -0.363728 0
M  V30 4491 C 413.965 -1.1462 -1.57139 0
M  V30 4492 O 413.22 -0.199653 -1.94679 0
M  V30 4493 C 413.519 -3.48183 -0.806433 0
M  V30 4494 C 413.185 -4.49936 0.294684 0
M  V30 4495 C 411.847 -4.77481 0.597076 0
M  V30 4496 C 414.199 -5.10769 1.03751 0
M  V30 4497 C 411.527 -5.63132 1.64618 0
M  V30 4498 C 413.879 -5.97558 2.07622 0
M  V30 4499 C 412.543 -6.23432 2.38514 0
M  V30 4500 H 411.813 -0.728949 -0.133097 0
M  V30 4501 H 414.46 -1.8793 0.368059 0
M  V30 4502 H 412.765 -3.56848 -1.61761 0
M  V30 4503 H 414.462 -3.79415 -1.29789 0
M  V30 4504 H 411.052 -4.28572 0.0488649 0
M  V30 4505 H 415.236 -4.89527 0.817149 0
M  V30 4506 H 410.492 -5.8143 1.89074 0
M  V30 4507 H 414.666 -6.43735 2.65666 0
M  V30 4508 H 412.293 -6.89594 3.19943 0
M  V30 4509 N 413.868 0.0150385 -1.57593 0
M  V30 4510 C 415.114 0.704043 -1.90187 0
M  V30 4511 C 415.447 1.74249 -0.857366 0
M  V30 4512 O 414.722 1.94092 0.125843 0
M  V30 4513 C 415.005 1.36087 -3.33395 0
M  V30 4514 C 414.858 0.334981 -4.48551 0
M  V30 4515 C 416.177 2.29112 -3.7576 0
M  V30 4516 H 413.296 0.254475 -0.691673 0
M  V30 4517 H 415.938 -0.0331678 -1.89971 0
M  V30 4518 H 414.088 1.98922 -3.3371 0
M  V30 4519 H 415.76 -0.292534 -4.60372 0
M  V30 4520 H 414.003 -0.344325 -4.32431 0
M  V30 4521 H 414.674 0.833316 -5.45674 0
M  V30 4522 H 417.15 1.76308 -3.76902 0
M  V30 4523 H 416.026 2.72043 -4.76743 0
M  V30 4524 H 416.287 3.16385 -3.08793 0
M  V30 4525 N 415.346 1.54954 0.287554 0
M  V30 4526 C 416.762 1.46469 0.633964 0
M  V30 4527 C 416.962 0.666865 1.90145 0
M  V30 4528 O 416.018 0.179906 2.51858 0
M  V30 4529 C 417.331 2.90556 0.774454 0
M  V30 4530 C 418.879 3.00681 0.869462 0
M  V30 4531 C 419.354 4.45993 1.04184 0
M  V30 4532 N 420.845 4.4976 1.10772 0
M  V30 4533 C 421.58 5.59393 1.25964 0
M  V30 4534 N 421.076 6.78923 1.37968 0
M  V30 4535 N 422.869 5.47107 1.28959 0
M  V30 4536 H 415.02 2.05288 -0.545041 0
M  V30 4537 H 417.283 0.930305 -0.182308 0
M  V30 4538 H 416.989 3.51594 -0.086207 0
M  V30 4539 H 416.863 3.38743 1.6593 0
M  V30 4540 H 419.25 2.39749 1.7206 0
M  V30 4541 H 419.331 2.55769 -0.0396831 0
M  V30 4542 H 418.975 5.07524 0.195422 0
M  V30 4543 H 418.905 4.88548 1.96542 0
M  V30 4544 H 421.396 3.63651 1.02794 0
M  V30 4545 H 421.709 7.58231 1.49353 0
M  V30 4546 H 420.054 6.81763 1.34999 0
M  V30 4547 H 423.245 4.52668 1.19202 0
M  V30 4548 H 423.418 6.32595 1.40455 0
M  V30 4549 N 416.824 -0.551391 1.4764 0
M  V30 4550 C 418.049 -1.33837 1.58437 0
M  V30 4551 C 418.474 -1.866 0.237063 0
M  V30 4552 O 417.832 -1.6328 -0.787994 0
M  V30 4553 C 417.88 -2.48014 2.61766 0
M  V30 4554 O 416.984 -3.50419 2.1744 0
M  V30 4555 H 416.325 -0.397299 0.532024 0
M  V30 4556 H 418.855 -0.665759 1.93465 0
M  V30 4557 H 418.865 -2.94503 2.82369 0
M  V30 4558 H 417.54 -2.08969 3.5959 0
M  V30 4559 H 416.117 -3.10196 2.06961 0
M  V30 4560 N 418.302 -1.35869 -0.798587 0
M  V30 4561 C 419.549 -1.29588 -1.55606 0
M  V30 4562 C 419.877 0.127456 -1.94082 0
M  V30 4563 O 419.132 1.09461 -1.62225 0
M  V30 4564 C 419.431 -2.1556 -2.85077 0
M  V30 4565 C 419.097 -3.6424 -2.65781 0
M  V30 4566 C 417.759 -4.04766 -2.60227 0
M  V30 4567 C 420.111 -4.58547 -2.47758 0
M  V30 4568 C 417.439 -5.37753 -2.34603 0
M  V30 4569 C 419.791 -5.91742 -2.23662 0
M  V30 4570 C 418.455 -6.31402 -2.16534 0
M  V30 4571 H 417.725 -0.474197 -0.569402 0
M  V30 4572 H 420.372 -1.67839 -0.922086 0
M  V30 4573 H 418.677 -1.70216 -3.52893 0
M  V30 4574 H 420.374 -2.08031 -3.42818 0
M  V30 4575 H 416.964 -3.32086 -2.70956 0
M  V30 4576 H 421.148 -4.28117 -2.51056 0
M  V30 4577 H 416.404 -5.67474 -2.2756 0
M  V30 4578 H 420.578 -6.6439 -2.08708 0
M  V30 4579 H 418.205 -7.34381 -1.96441 0
M  V30 4580 N 419.78 1.02168 -1.19998 0
M  V30 4581 C 420.71 2.12488 -0.96804 0
M  V30 4582 C 421.691 1.69799 0.101185 0
M  V30 4583 O 422.876 1.94121 -0.0552993 0
M  V30 4584 C 420.006 3.43479 -0.513776 0
M  V30 4585 C 418.96 3.99884 -1.52566 0
M  V30 4586 C 418.286 5.26582 -0.928214 0
M  V30 4587 C 419.586 4.33861 -2.90795 0
M  V30 4588 H 421.28 2.32149 -1.89069 0
M  V30 4589 H 418.826 1.11564 -0.910468 0
M  V30 4590 H 420.779 4.20036 -0.338774 0
M  V30 4591 H 419.503 3.23561 0.444493 0
M  V30 4592 H 418.162 3.25429 -1.68794 0
M  V30 4593 H 417.81 5.02986 0.0378289 0
M  V30 4594 H 417.51 5.65284 -1.60397 0
M  V30 4595 H 419.034 6.05799 -0.764167 0
M  V30 4596 H 420.448 5.01327 -2.78109 0
M  V30 4597 H 418.845 4.83664 -3.55231 0
M  V30 4598 H 419.915 3.42848 -3.42904 0
M  V30 4599 N 421.258 1.00505 1.21394 0
M  V30 4600 C 422.504 0.688793 1.90745 0
M  V30 4601 C 422.837 -0.778486 1.77914 0
M  V30 4602 O 422.112 -1.56433 1.15581 0
M  V30 4603 C 422.395 1.11063 3.42545 0
M  V30 4604 C 422.248 2.63737 3.64367 0
M  V30 4605 C 423.567 0.673059 4.34923 0
M  V30 4606 H 420.686 0.251702 0.692687 0
M  V30 4607 H 423.328 1.25074 1.43026 0
M  V30 4608 H 421.478 0.632508 3.83317 0
M  V30 4609 H 423.15 3.19313 3.32922 0
M  V30 4610 H 421.393 3.05248 3.08231 0
M  V30 4611 H 422.064 2.88305 4.70727 0
M  V30 4612 H 424.54 1.08392 4.01734 0
M  V30 4613 H 423.416 0.996383 5.39781 0
M  V30 4614 H 423.677 -0.425808 4.40045 0
M  V30 4615 N 422.737 -1.36956 0.779787 0
M  V30 4616 C 423.985 -1.99097 0.347079 0
M  V30 4617 C 424.306 -1.62206 -1.08232 0
M  V30 4618 O 423.576 -0.891373 -1.74446 0
M  V30 4619 H 422.156 -0.736409 0.125342 0
M  V30 4620 H 424.818 -1.67308 0.999696 0
M  V30 4621 H 423.914 -3.09107 0.431162 0
M  V30 4622 N 424.215 -0.530993 -1.48385 0
M  V30 4623 C 425.125 0.23503 -2.3342 0
M  V30 4624 C 426.141 0.93801 -1.46552 0
M  V30 4625 O 427.317 0.912745 -1.7953 0
M  V30 4626 C 424.382 1.26778 -3.22689 0
M  V30 4627 C 423.443 0.575038 -4.25431 0
M  V30 4628 C 422.676 1.55858 -5.10435 0
M  V30 4629 O 422.899 2.79129 -4.97437 0
M  V30 4630 O 421.833 1.09742 -5.91811 0
M  V30 4631 H 425.659 -0.461794 -3.00169 0
M  V30 4632 H 423.244 -0.291903 -1.46521 0
M  V30 4633 H 425.126 1.86457 -3.77904 0
M  V30 4634 H 423.801 1.94699 -2.586 0
M  V30 4635 H 422.708 -0.0622782 -3.74048 0
M  V30 4636 H 424.041 -0.062253 -4.92161 0
M  V30 4637 N 425.693 1.55336 -0.266172 0
M  V30 4638 C 426.656 2.20878 0.612001 0
M  V30 4639 C 427.656 1.18388 1.08816 0
M  V30 4640 O 428.846 1.4335 0.989774 0
M  V30 4641 C 425.978 2.86765 1.84332 0
M  V30 4642 H 427.171 2.99873 0.0398718 0
M  V30 4643 H 424.724 1.56291 -0.0167309 0
M  V30 4644 H 425.459 2.11759 2.45619 0
M  V30 4645 H 425.244 3.61862 1.5099 0
M  V30 4646 H 426.734 3.36867 2.46801 0
M  V30 4647 N 427.171 -0.0066808 1.57599 0
M  V30 4648 C 428.134 -0.985035 2.06953 0
M  V30 4649 C 429.134 -1.27663 0.977687 0
M  V30 4650 O 430.324 -1.22293 1.24057 0
M  V30 4651 C 427.456 -2.3118 2.50536 0
M  V30 4652 H 428.649 -0.558255 2.94658 0
M  V30 4653 H 426.202 -0.254011 1.54222 0
M  V30 4654 H 426.937 -2.78561 1.66054 0
M  V30 4655 H 426.722 -2.11338 3.3027 0
M  V30 4656 H 428.212 -3.01377 2.8907 0
M  V30 4657 N 428.649 -1.55105 -0.279332 0
M  V30 4658 C 430.065 -1.46803 -0.626187 0
M  V30 4659 C 430.265 -0.676939 -1.89789 0
M  V30 4660 O 429.321 -0.19326 -2.51759 0
M  V30 4661 C 430.634 -2.90962 -0.759034 0
M  V30 4662 C 432.182 -3.01138 -0.853504 0
M  V30 4663 C 432.657 -4.46539 -1.01818 0
M  V30 4664 N 434.148 -4.50341 -1.08386 0
M  V30 4665 C 434.883 -5.60053 -1.22996 0
M  V30 4666 N 434.379 -6.79645 -1.34366 0
M  V30 4667 N 436.172 -5.47783 -1.26056 0
M  V30 4668 H 428.323 -2.04996 0.555921 0
M  V30 4669 H 430.586 -0.929325 0.187239 0
M  V30 4670 H 430.292 -3.51544 0.104852 0
M  V30 4671 H 430.166 -3.39619 -1.64131 0
M  V30 4672 H 432.553 -2.40658 -1.70786 0
M  V30 4673 H 432.634 -2.55745 0.0532466 0
M  V30 4674 H 432.278 -5.0762 -0.168504 0
M  V30 4675 H 432.208 -4.89583 -1.93948 0
M  V30 4676 H 434.699 -3.64191 -1.00864 0
M  V30 4677 H 435.012 -7.59012 -1.4533 0
M  V30 4678 H 433.357 -6.82469 -1.31382 0
M  V30 4679 H 436.548 -4.53294 -1.168 0
M  V30 4680 H 436.721 -6.33331 -1.37098 0
M  V30 4681 N 430.127 0.543554 -1.4793 0
M  V30 4682 C 431.09 1.63156 -1.60975 0
M  V30 4683 C 432.09 1.53346 -0.483899 0
M  V30 4684 O 433.28 1.5726 -0.749339 0
M  V30 4685 C 430.412 3.02743 -1.56716 0
M  V30 4686 H 431.605 1.52934 -2.57975 0
M  V30 4687 H 429.158 0.764557 -1.36324 0
M  V30 4688 H 429.893 3.18484 -0.611418 0
M  V30 4689 H 429.678 3.11272 -2.38438 0
M  V30 4690 H 431.168 3.81871 -1.6901 0
M  V30 4691 N 431.605 1.3629 0.791371 0
M  V30 4692 C 432.535 1.33137 1.91825 0
M  V30 4693 C 433.516 0.203168 1.68882 0
M  V30 4694 O 434.701 0.400509 1.90025 0
M  V30 4695 C 431.831 1.11793 3.28816 0
M  V30 4696 C 430.785 2.21417 3.66277 0
M  V30 4697 C 430.111 1.85218 5.01596 0
M  V30 4698 C 431.411 3.63489 3.75064 0
M  V30 4699 H 433.105 2.2743 1.9472 0
M  V30 4700 H 430.651 1.09479 0.935437 0
M  V30 4701 H 432.604 1.08222 4.07266 0
M  V30 4702 H 431.328 0.139501 3.26302 0
M  V30 4703 H 429.987 2.2411 2.90121 0
M  V30 4704 H 429.635 0.859544 4.95602 0
M  V30 4705 H 429.335 2.58611 5.27631 0
M  V30 4706 H 430.859 1.832 5.82469 0
M  V30 4707 H 432.273 3.63034 4.43711 0
M  V30 4708 H 430.67 4.35771 4.12582 0
M  V30 4709 H 431.74 3.98536 2.76219 0
M  V30 4710 N 433.083 -1.0153 1.20538 0
M  V30 4711 C 434.308 -1.79283 1.04271 0
M  V30 4712 C 434.733 -1.8372 -0.403544 0
M  V30 4713 O 434.091 -1.27321 -1.2907 0
M  V30 4714 C 434.139 -3.21535 1.63241 0
M  V30 4715 O 433.243 -4.03099 0.870908 0
M  V30 4716 H 432.584 -0.55293 0.367647 0
M  V30 4717 H 435.114 -1.27696 1.59859 0
M  V30 4718 H 435.124 -3.72243 1.6703 0
M  V30 4719 H 433.799 -3.1762 2.68497 0
M  V30 4720 H 432.376 -3.61693 0.907323 0
M  V30 4721 N 434.561 -1.01147 -1.20859 0
M  V30 4722 C 435.508 -0.577354 -2.23462 0
M  V30 4723 C 436.478 0.399922 -1.61214 0
M  V30 4724 O 437.663 0.300515 -1.88419 0
M  V30 4725 C 434.803 0.083372 -3.44999 0
M  V30 4726 C 433.916 -0.937856 -4.21697 0
M  V30 4727 C 433.051 -0.248717 -5.30617 0
M  V30 4728 C 432.09 -1.25705 -5.99053 0
M  V30 4729 N 431.227 -0.594939 -6.99575 0
M  V30 4730 H 436.067 -1.45695 -2.59956 0
M  V30 4731 H 433.604 -0.729428 -1.27741 0
M  V30 4732 H 435.562 0.483535 -4.14388 0
M  V30 4733 H 434.192 0.926645 -3.09214 0
M  V30 4734 H 433.244 -1.45622 -3.51423 0
M  V30 4735 H 434.556 -1.70493 -4.68757 0
M  V30 4736 H 433.71 0.207215 -6.06346 0
M  V30 4737 H 432.449 0.55071 -4.84581 0
M  V30 4738 H 431.454 -1.72343 -5.2209 0
M  V30 4739 H 432.679 -2.05767 -6.47176 0
M  V30 4740 H 430.625 0.184713 -6.5574 0
M  V30 4741 H 430.542 -1.30017 -7.44736 0
M  V30 4742 H 431.81 -0.162427 -7.79331 0
M  V30 4743 N 436.039 1.36541 -0.78704 0
M  V30 4744 C 437.002 2.28413 -0.189778 0
M  V30 4745 C 438.002 1.48719 0.611499 0
M  V30 4746 O 439.192 1.68737 0.432842 0
M  V30 4747 C 436.324 3.32824 0.737638 0
M  V30 4748 H 437.517 2.82743 -0.999831 0
M  V30 4749 H 435.07 1.46065 -0.556298 0
M  V30 4750 H 435.805 2.83646 1.57212 0
M  V30 4751 H 435.59 3.91752 0.165044 0
M  V30 4752 H 437.08 4.0144 1.15047 0
M  V30 4753 N 437.518 0.538854 1.48102 0
M  V30 4754 C 438.758 0.0101209 2.04397 0
M  V30 4755 C 439.122 -1.30741 1.40609 0
M  V30 4756 O 440.323 -1.92272 1.87843 0
M  V30 4757 C 438.594 -0.100232 3.57259 0
M  V30 4758 S 440.153 -0.577746 4.3498 0
M  V30 4759 H 436.971 0.0163171 0.710813 0
M  V30 4760 H 439.573 0.721429 1.81702 0
M  V30 4761 H 438.277 0.863351 4.01216 0
M  V30 4762 H 437.808 -0.835651 3.84422 0
M  V30 4763 H 439.823 -1.84073 4.60794 0
M  V30 4764 N 438.996 -1.55193 0.274407 0
M  V30 4765 C 440.224 -2.03987 -0.345943 0
M  V30 4766 C 440.639 -1.15279 -1.4952 0
M  V30 4767 O 439.996 -0.172759 -1.8168 0
M  V30 4768 C 440.047 -3.51898 -0.827631 0
M  V30 4769 O 439.768 -4.37231 0.275855 0
M  V30 4770 C 441.269 -4.16577 -1.51587 0
M  V30 4771 H 438.489 -0.666335 -0.0789892 0
M  V30 4772 H 441.033 -2.00423 0.406294 0
M  V30 4773 H 439.188 -3.55909 -1.52996 0
M  V30 4774 H 439.602 -5.24415 -0.0943638 0
M  V30 4775 H 441.076 -5.21678 -1.80433 0
M  V30 4776 H 441.553 -3.64707 -2.44716 0
M  V30 4777 H 442.159 -4.16568 -0.857409 0
M  V30 4778 N 440.474 -0.00167713 -1.576 0
M  V30 4779 C 441.723 0.682021 -1.89819 0
M  V30 4780 C 442.036 1.74844 -0.876871 0
M  V30 4781 O 443.242 2.48688 -1.08934 0
M  V30 4782 C 441.698 1.26425 -3.36964 0
M  V30 4783 C 441.306 0.232568 -4.47396 0
M  V30 4784 C 443.05 1.92604 -3.78291 0
M  V30 4785 C 440.957 0.824882 -5.85619 0
M  V30 4786 H 439.887 0.258499 -0.708304 0
M  V30 4787 H 442.538 -0.0624957 -1.83394 0
M  V30 4788 H 440.92 2.05949 -3.38232 0
M  V30 4789 H 442.094 -0.5382 -4.57646 0
M  V30 4790 H 440.409 -0.32888 -4.15099 0
M  V30 4791 H 443.006 2.37827 -4.78897 0
M  V30 4792 H 443.349 2.75732 -3.11894 0
M  V30 4793 H 443.882 1.19812 -3.79328 0
M  V30 4794 H 440.621 0.0323542 -6.55492 0
M  V30 4795 H 440.141 1.56477 -5.79029 0
M  V30 4796 H 441.82 1.32301 -6.33329 0
M  V30 4797 N 441.952 1.55251 0.271103 0
M  V30 4798 C 442.915 1.87484 1.31842 0
M  V30 4799 C 443.915 0.749545 1.42262 0
M  V30 4800 O 445.105 1.01771 1.4138 0
M  V30 4801 C 442.237 2.0818 2.69951 0
M  V30 4802 H 443.43 2.81108 1.0449 0
M  V30 4803 H 440.983 1.47771 0.509258 0
M  V30 4804 H 441.718 1.16944 3.02481 0
M  V30 4805 H 441.503 2.90114 2.63774 0
M  V30 4806 H 442.993 2.34385 3.4562 0
M  V30 4807 N 443.43 -0.535701 1.48216 0
M  V30 4808 C 444.679 -1.28828 1.55197 0
M  V30 4809 C 444.992 -1.94263 0.228278 0
M  V30 4810 O 446.198 -2.70927 0.176278 0
M  V30 4811 C 444.654 -2.33727 2.73678 0
M  V30 4812 C 444.262 -1.74386 4.12666 0
M  V30 4813 C 446.006 -3.1003 2.89968 0
M  V30 4814 C 443.913 -2.77192 5.22416 0
M  V30 4815 H 442.843 -0.484484 0.577747 0
M  V30 4816 H 445.494 -0.56646 1.74538 0
M  V30 4817 H 443.876 -3.08919 2.4776 0
M  V30 4818 H 445.05 -1.05421 4.48579 0
M  V30 4819 H 443.365 -1.10595 4.01445 0
M  V30 4820 H 445.962 -3.86842 3.6913 0
M  V30 4821 H 446.305 -3.65542 1.9921 0
M  V30 4822 H 446.838 -2.41952 3.15759 0
M  V30 4823 H 443.577 -2.26507 6.15122 0
M  V30 4824 H 443.097 -3.44502 4.90998 0
M  V30 4825 H 444.776 -3.40285 5.50286 0
M  V30 4826 N 444.908 -1.36708 -0.784132 0
M  V30 4827 C 446.324 -1.17237 -1.08294 0
M  V30 4828 C 446.524 -5.93947e-05 -2.015 0
M  V30 4829 O 445.58 0.663686 -2.43622 0
M  V30 4830 C 446.893 -2.48557 -1.69233 0
M  V30 4831 C 448.441 -2.54968 -1.8155 0
M  V30 4832 C 448.916 -3.86388 -2.45904 0
M  V30 4833 N 450.407 -3.87762 -2.53367 0
M  V30 4834 C 451.142 -4.86191 -3.03983 0
M  V30 4835 N 450.638 -5.95015 -3.54866 0
M  V30 4836 N 452.431 -4.73606 -3.02743 0
M  V30 4837 H 444.582 -2.11758 -0.16501 0
M  V30 4838 H 446.845 -0.93822 -0.135822 0
M  V30 4839 H 446.551 -3.34638 -1.08215 0
M  V30 4840 H 446.425 -2.64748 -2.68679 0
M  V30 4841 H 448.812 -1.69302 -2.41704 0
M  V30 4842 H 448.893 -2.42672 -0.80895 0
M  V30 4843 H 448.537 -4.72462 -1.86392 0
M  V30 4844 H 448.467 -3.95982 -3.4714 0
M  V30 4845 H 450.958 -3.09145 -2.17343 0
M  V30 4846 H 451.271 -6.66086 -3.91854 0
M  V30 4847 H 449.616 -5.98676 -3.53003 0
M  V30 4848 H 452.807 -3.87717 -2.62284 0
M  V30 4849 H 452.98 -5.50473 -3.41881 0
M  V30 4850 N 446.386 1.0089 -1.21074 0
M  V30 4851 C 447.616 1.77933 -1.04993 0
M  V30 4852 C 448.024 1.84847 0.403495 0
M  V30 4853 O 447.367 1.30606 1.29181 0
M  V30 4854 C 447.429 3.23541 -1.56722 0
M  V30 4855 C 447.093 3.40214 -3.05129 0
M  V30 4856 C 448.09 3.2881 -4.02716 0
M  V30 4857 C 445.775 3.65781 -3.44252 0
M  V30 4858 C 447.769 3.42732 -5.37414 0
M  V30 4859 C 445.456 3.79346 -4.79103 0
M  V30 4860 C 446.454 3.67827 -5.75493 0
M  V30 4861 O 446.142 3.80965 -7.07899 0
M  V30 4862 H 445.874 0.566157 -0.369381 0
M  V30 4863 H 448.428 1.27826 -1.60779 0
M  V30 4864 H 446.658 3.74766 -0.953285 0
M  V30 4865 H 448.347 3.82245 -1.36543 0
M  V30 4866 H 449.113 3.08986 -3.73835 0
M  V30 4867 H 444.992 3.73831 -2.69762 0
M  V30 4868 H 448.536 3.33658 -6.12632 0
M  V30 4869 H 444.433 3.98672 -5.07672 0
M  V30 4870 H 445.201 3.97937 -7.15254 0
M  V30 4871 N 447.864 1.01787 1.20321 0
M  V30 4872 C 449.089 0.727009 1.9424 0
M  V30 4873 C 449.514 -0.706179 1.74341 0
M  V30 4874 O 448.872 -1.48609 1.03852 0
M  V30 4875 C 448.92 1.06958 3.44372 0
M  V30 4876 O 448.024 0.181983 4.11998 0
M  V30 4877 H 447.365 0.269626 0.606793 0
M  V30 4878 H 449.895 1.36158 1.52716 0
M  V30 4879 H 449.905 1.02182 3.94997 0
M  V30 4880 H 448.58 2.11378 3.58179 0
M  V30 4881 H 447.157 0.287378 3.71791 0
M  V30 4882 N 449.342 -1.36122 0.79427 0
M  V30 4883 C 450.305 -2.28309 0.201889 0
M  V30 4884 C 451.305 -1.49041 -0.603603 0
M  V30 4885 O 452.495 -1.68964 -0.423888 0
M  V30 4886 C 449.627 -3.3321 -0.719978 0
M  V30 4887 H 450.82 -2.82208 1.01481 0
M  V30 4888 H 448.373 -1.45768 0.564037 0
M  V30 4889 H 449.108 -2.84475 -1.55706 0
M  V30 4890 H 448.893 -3.91835 -0.144266 0
M  V30 4891 H 450.383 -4.02044 -1.12916 0
M  V30 4892 N 450.82 -0.546701 -1.47814 0
M  V30 4893 C 452.066 -0.0187684 -2.02791 0
M  V30 4894 C 452.399 1.32338 -1.42128 0
M  V30 4895 O 451.674 1.85867 -0.573023 0
M  V30 4896 C 451.957 0.0854985 -3.59998 0
M  V30 4897 C 451.81 -1.283 -4.31114 0
M  V30 4898 C 453.129 0.80412 -4.32691 0
M  V30 4899 H 450.248 -0.0082946 -0.736953 0
M  V30 4900 H 452.89 -0.706962 -1.76358 0
M  V30 4901 H 451.04 0.671609 -3.82651 0
M  V30 4902 H 452.712 -1.91151 -4.19832 0
M  V30 4903 H 450.955 -1.86049 -3.91878 0
M  V30 4904 H 451.626 -1.16287 -5.39612 0
M  V30 4905 H 454.102 0.306576 -4.14969 0
M  V30 4906 H 452.978 0.846011 -5.42341 0
M  V30 4907 H 453.239 1.85802 -4.01161 0
M  V30 4908 N 452.299 1.55045 -0.282633 0
M  V30 4909 C 453.715 1.59441 0.0712997 0
M  V30 4910 C 453.915 1.2998 1.53972 0
M  V30 4911 O 452.971 1.06431 2.28973 0
M  V30 4912 C 454.284 2.99097 -0.310104 0
M  V30 4913 C 455.832 3.1194 -0.257343 0
M  V30 4914 C 456.307 4.53875 -0.613297 0
M  V30 4915 N 457.798 4.5974 -0.565134 0
M  V30 4916 C 458.533 5.67603 -0.81326 0
M  V30 4917 N 458.029 6.83582 -1.1264 0
M  V30 4918 N 459.822 5.57187 -0.741553 0
M  V30 4919 H 451.973 1.72458 -1.23984 0
M  V30 4920 H 454.236 0.804549 -0.501403 0
M  V30 4921 H 453.942 3.25516 -1.33163 0
M  V30 4922 H 453.816 3.75616 0.345366 0
M  V30 4923 H 456.203 2.85281 0.754905 0
M  V30 4924 H 456.284 2.37618 -0.947178 0
M  V30 4925 H 455.928 4.81261 -1.62327 0
M  V30 4926 H 455.858 5.26508 0.09841 0
M  V30 4927 H 458.349 3.76427 -0.333294 0
M  V30 4928 H 458.662 7.6175 -1.30219 0
M  V30 4929 H 457.007 6.85179 -1.16425 0
M  V30 4930 H 460.198 4.65457 -0.496705 0
M  V30 4931 H 460.371 6.41171 -0.938306 0
M  V30 4932 N 453.777 0.010035 1.57597 0
M  V30 4933 C 454.727 -0.986858 2.05536 0
M  V30 4934 C 455.711 -1.29711 0.952042 0
M  V30 4935 O 456.903 -1.28641 1.21575 0
M  V30 4936 C 454.032 -2.2756 2.57043 0
M  V30 4937 C 453.118 -1.99455 3.74271 0
M  V30 4938 N 453.509 -1.41546 4.85591 0
M  V30 4939 C 451.807 -2.29547 3.82393 0
M  V30 4940 C 452.508 -1.3014 5.66956 0
M  V30 4941 N 451.484 -1.79044 5.13268 0
M  V30 4942 H 455.286 -0.533778 2.89012 0
M  V30 4943 H 452.8 -0.195432 1.6122 0
M  V30 4944 H 454.797 -2.99829 2.89669 0
M  V30 4945 H 453.457 -2.73512 1.7499 0
M  V30 4946 H 454.468 -1.09294 5.06236 0
M  V30 4947 H 451.145 -2.78304 3.11213 0
M  V30 4948 H 452.535 -0.855237 6.66435 0
M  V30 4949 N 455.255 -1.55392 -0.262866 0
M  V30 4950 C 456.187 -1.85392 -1.34768 0
M  V30 4951 C 457.2 -0.739069 -1.45057 0
M  V30 4952 O 458.389 -1.01703 -1.46693 0
M  V30 4953 C 455.489 -2.01088 -2.72795 0
M  V30 4954 C 454.662 -3.31828 -2.84972 0
M  V30 4955 C 453.721 -3.37464 -4.03738 0
M  V30 4956 O 452.747 -4.10778 -3.94018 0
M  V30 4957 N 453.949 -2.65599 -5.16176 0
M  V30 4958 H 456.714 -2.79029 -1.09375 0
M  V30 4959 H 454.275 -1.55434 -0.452981 0
M  V30 4960 H 456.267 -2.02217 -3.50557 0
M  V30 4961 H 454.837 -1.1427 -2.90966 0
M  V30 4962 H 454.057 -3.43152 -1.94012 0
M  V30 4963 H 455.345 -4.18032 -2.90045 0
M  V30 4964 H 454.743 -2.05736 -5.26962 0
M  V30 4965 H 453.3 -2.72439 -5.92132 0
M  V30 4966 N 456.733 0.527833 -1.48498 0
M  V30 4967 C 457.958 1.313 -1.60546 0
M  V30 4968 C 458.383 1.86199 -0.26672 0
M  V30 4969 O 457.741 1.64513 0.761918 0
M  V30 4970 C 457.789 2.43818 -2.65678 0
M  V30 4971 O 456.893 3.46916 -2.22987 0
M  V30 4972 H 456.234 0.388784 -0.538277 0
M  V30 4973 H 458.764 0.634896 -1.945 0
M  V30 4974 H 458.774 2.89973 -2.87018 0
M  V30 4975 H 457.449 2.03222 -3.62869 0
M  V30 4976 H 456.026 3.06864 -2.11869 0
M  V30 4977 N 458.211 1.37122 0.776871 0
M  V30 4978 C 459.121 1.34651 1.9211 0
M  V30 4979 C 460.137 0.246824 1.7224 0
M  V30 4980 O 461.313 0.48134 1.95563 0
M  V30 4981 C 458.378 1.14748 3.2716 0
M  V30 4982 C 457.439 2.34308 3.5972 0
M  V30 4983 C 456.672 2.15345 4.88326 0
M  V30 4984 O 456.895 1.13507 5.58992 0
M  V30 4985 O 455.829 3.03414 5.1983 0
M  V30 4986 H 459.655 2.31013 1.97146 0
M  V30 4987 H 457.24 1.17799 0.918901 0
M  V30 4988 H 459.122 1.05616 4.0795 0
M  V30 4989 H 457.797 0.214562 3.22988 0
M  V30 4990 H 456.704 2.49011 2.79185 0
M  V30 4991 H 458.037 3.26149 3.68629 0
M  V30 4992 N 459.689 -1.00246 1.21608 0
M  V30 4993 C 460.938 -1.73476 1.02902 0
M  V30 4994 C 461.251 -1.90643 -0.437561 0
M  V30 4995 O 462.457 -2.61105 -0.74407 0
M  V30 4996 C 460.913 -3.12079 1.79261 0
M  V30 4997 C 460.521 -3.02877 3.30106 0
M  V30 4998 C 462.265 -3.89421 1.68972 0
M  V30 4999 C 460.172 -4.36575 3.98944 0
M  V30 5000 H 459.102 -0.650408 0.381425 0
M  V30 5001 H 461.753 -1.11985 1.45367 0
M  V30 5002 H 460.135 -3.74196 1.2959 0
M  V30 5003 H 461.309 -2.49983 3.87098 0
M  V30 5004 H 459.624 -2.39022 3.40965 0
M  V30 5005 H 462.221 -4.88362 2.17731 0
M  V30 5006 H 462.564 -4.1122 0.648397 0
M  V30 5007 H 463.097 -3.33963 2.16133 0
M  V30 5008 H 459.836 -4.19978 5.03288 0
M  V30 5009 H 459.356 -4.8942 3.4674 0
M  V30 5010 H 461.035 -5.05364 4.04 0
M  V30 5011 N 461.167 -1.02423 -1.1978 0
M  V30 5012 C 462.114 -0.601023 -2.22837 0
M  V30 5013 C 463.084 0.382801 -1.61629 0
M  V30 5014 O 464.269 0.280514 -1.88727 0
M  V30 5015 C 461.409 0.0467755 -3.45068 0
M  V30 5016 C 460.522 -0.98253 -4.20678 0
M  V30 5017 C 459.657 -0.304982 -5.30324 0
M  V30 5018 C 458.696 -1.32052 -5.97686 0
M  V30 5019 N 457.833 -0.669105 -6.98904 0
M  V30 5020 H 462.673 -1.48444 -2.58396 0
M  V30 5021 H 460.21 -0.742936 -1.2696 0
M  V30 5022 H 462.168 0.439556 -4.14878 0
M  V30 5023 H 460.798 0.893796 -3.10179 0
M  V30 5024 H 459.85 -1.49341 -3.49859 0
M  V30 5025 H 461.162 -1.75455 -4.66923 0
M  V30 5026 H 460.316 0.142893 -6.06532 0
M  V30 5027 H 459.055 0.499283 -4.85138 0
M  V30 5028 H 458.06 -1.7787 -5.20233 0
M  V30 5029 H 459.285 -2.1262 -6.44957 0
M  V30 5030 H 457.231 0.115152 -6.55899 0
M  V30 5031 H 457.148 -1.37908 -7.43315 0
M  V30 5032 H 458.416 -0.245076 -7.79115 0
M  V30 5033 N 462.645 1.35699 -0.801477 0
M  V30 5034 C 464.056 1.81415 -0.441073 0
M  V30 5035 C 464.407 1.66595 1.03636 0
M  V30 5036 O 463.532 1.19369 1.80499 0
M  V30 5037 C 464.127 3.29369 -0.793819 0
M  V30 5038 C 462.686 3.73248 -0.486083 0
M  V30 5039 C 461.833 2.57775 -1.02213 0
M  V30 5040 H 464.784 1.23749 -0.993572 0
M  V30 5041 H 464.805 3.80395 -0.0894158 0
M  V30 5042 H 464.317 3.40123 -1.86917 0
M  V30 5043 H 462.418 3.68046 0.580735 0
M  V30 5044 H 462.531 4.68222 -1.01513 0
M  V30 5045 H 460.895 2.50788 -0.444712 0
M  V30 5046 H 461.678 2.71309 -2.10348 0
M  V30 5047 N 464.123 0.554532 1.47522 0
M  V30 5048 C 465.371 0.0294208 2.02079 0
M  V30 5049 C 465.692 -1.32411 1.43151 0
M  V30 5050 O 464.962 -1.863 0.605728 0
M  V30 5051 H 463.542 0.00788672 0.746958 0
M  V30 5052 H 466.204 0.723934 1.80956 0
M  V30 5053 H 465.3 -0.0606745 3.12041 0
M  V30 5054 N 465.601 -1.54893 0.290851 0
M  V30 5055 C 466.511 -2.26812 -0.59945 0
M  V30 5056 C 467.527 -1.29963 -1.15696 0
M  V30 5057 O 468.703 -1.62928 -1.18391 0
M  V30 5058 C 465.768 -2.98716 -1.75982 0
M  V30 5059 C 464.829 -4.1108 -1.2374 0
M  V30 5060 C 464.062 -4.79546 -2.34246 0
M  V30 5061 O 464.285 -4.47309 -3.53936 0
M  V30 5062 O 463.219 -5.67165 -2.01512 0
M  V30 5063 H 467.045 -3.03696 -0.0163561 0
M  V30 5064 H 464.63 -1.49289 0.0576755 0
M  V30 5065 H 466.512 -3.43851 -2.43607 0
M  V30 5066 H 465.187 -2.24737 -2.3297 0
M  V30 5067 H 464.094 -3.70367 -0.527163 0
M  V30 5068 H 465.427 -4.87007 -0.71307 0
M  V30 5069 N 467.08 -0.0183926 -1.57589 0
M  V30 5070 C 468.491 0.521927 -1.79256 0
M  V30 5071 C 468.842 1.72885 -0.927636 0
M  V30 5072 O 467.967 2.15978 -0.135091 0
M  V30 5073 C 468.562 0.953632 -3.25102 0
M  V30 5074 C 467.121 1.43913 -3.47801 0
M  V30 5075 C 466.268 0.398837 -2.74417 0
M  V30 5076 H 469.219 -0.244485 -1.56805 0
M  V30 5077 H 469.24 1.81863 -3.34224 0
M  V30 5078 H 468.752 0.0750123 -3.88028 0
M  V30 5079 H 466.853 2.33804 -2.90115 0
M  V30 5080 H 466.966 1.45391 -4.56507 0
M  V30 5081 H 465.33 0.864572 -2.39577 0
M  V30 5082 H 466.113 -0.471132 -3.40052 0
M  V30 5083 N 468.558 1.5553 0.254621 0
M  V30 5084 C 469.468 1.92789 1.33677 0
M  V30 5085 C 470.484 0.827356 1.53071 0
M  V30 5086 O 471.66 1.12807 1.66843 0
M  V30 5087 C 468.725 2.20827 2.67275 0
M  V30 5088 C 467.786 3.4427 2.5647 0
M  V30 5089 C 467.019 3.70961 3.83697 0
M  V30 5090 O 467.242 2.99852 4.85227 0
M  V30 5091 O 466.176 4.64491 3.82794 0
M  V30 5092 H 470.002 2.84945 1.05071 0
M  V30 5093 H 467.587 1.42312 0.454723 0
M  V30 5094 H 469.469 2.40204 3.46237 0
M  V30 5095 H 468.144 1.31851 2.9563 0
M  V30 5096 H 467.051 3.30209 1.75821 0
M  V30 5097 H 468.384 4.33524 2.33062 0
M  V30 5098 N 470.036 -0.519951 1.48776 0
M  V30 5099 C 471.447 -1.10177 1.50725 0
M  V30 5100 C 471.798 -1.94153 0.282678 0
M  V30 5101 O 470.923 -2.07645 -0.609298 0
M  V30 5102 C 471.518 -2.00482 2.73116 0
M  V30 5103 C 470.077 -2.53862 2.77905 0
M  V30 5104 C 469.224 -1.31047 2.44381 0
M  V30 5105 H 472.175 -0.30473 1.55747 0
M  V30 5106 H 472.196 -2.8491 2.52203 0
M  V30 5107 H 471.708 -1.39335 3.62225 0
M  V30 5108 H 469.809 -3.18702 1.93029 0
M  V30 5109 H 469.922 -2.9231 3.79594 0
M  V30 5110 H 468.286 -1.62953 1.95751 0
M  V30 5111 H 469.069 -0.71637 3.35743 0
M  V30 5112 N 471.514 -1.37532 -0.769588 0
M  V30 5113 C 472.446 -1.29347 -1.89214 0
M  V30 5114 C 473.459 -0.208842 -1.61455 0
M  V30 5115 O 474.648 -0.465158 -1.72333 0
M  V30 5116 C 471.748 -0.977649 -3.24492 0
M  V30 5117 C 470.921 -2.16817 -3.7988 0
M  V30 5118 C 469.98 -1.82229 -4.93639 0
M  V30 5119 O 469.006 -2.54548 -5.09111 0
M  V30 5120 N 470.208 -0.767696 -5.75401 0
M  V30 5121 H 472.973 -2.26073 -1.96751 0
M  V30 5122 H 470.534 -1.31185 -0.948795 0
M  V30 5123 H 472.526 -0.727065 -3.98115 0
M  V30 5124 H 471.096 -0.0988777 -3.12444 0
M  V30 5125 H 470.316 -2.58038 -2.9801 0
M  V30 5126 H 471.604 -2.96308 -4.13617 0
M  V30 5127 H 471.002 -0.167626 -5.65452 0
M  V30 5128 H 469.559 -0.576973 -6.49241 0
M  V30 5129 N 472.992 0.995999 -1.22138 0
M  V30 5130 C 474.241 1.72928 -1.03821 0
M  V30 5131 C 474.554 1.90872 0.427444 0
M  V30 5132 O 475.76 2.61496 0.730212 0
M  V30 5133 C 474.216 3.11124 -1.80913 0
M  V30 5134 C 473.824 3.01122 -3.31707 0
M  V30 5135 C 475.568 3.8852 -1.71035 0
M  V30 5136 C 473.475 4.34453 -4.01253 0
M  V30 5137 H 472.405 0.648376 -0.384869 0
M  V30 5138 H 475.056 1.11213 -1.45959 0
M  V30 5139 H 473.438 3.73503 -1.31573 0
M  V30 5140 H 474.612 2.47926 -3.88419 0
M  V30 5141 H 472.927 2.3721 -3.42228 0
M  V30 5142 H 475.524 4.872 -2.20318 0
M  V30 5143 H 475.867 4.1087 -0.670196 0
M  V30 5144 H 476.4 3.32812 -2.17902 0
M  V30 5145 H 473.139 4.17303 -5.05508 0
M  V30 5146 H 472.659 4.87574 -3.49331 0
M  V30 5147 H 474.338 5.03215 -4.06674 0
M  V30 5148 N 474.47 1.03057 1.19235 0
M  V30 5149 C 475.4 0.633497 2.24742 0
M  V30 5150 C 476.381 -0.358335 1.66283 0
M  V30 5151 O 477.566 -0.240676 1.92703 0
M  V30 5152 C 474.696 -0.0147648 3.47297 0
M  V30 5153 C 473.65 0.899527 4.18441 0
M  V30 5154 C 472.976 0.116281 5.34574 0
M  V30 5155 C 474.276 2.21404 4.73051 0
M  V30 5156 H 475.97 1.5155 2.58211 0
M  V30 5157 H 473.516 0.73014 1.24117 0
M  V30 5158 H 475.469 -0.304202 4.20301 0
M  V30 5159 H 474.193 -0.931577 3.13032 0
M  V30 5160 H 472.852 1.17319 3.47321 0
M  V30 5161 H 472.5 -0.802619 4.96555 0
M  V30 5162 H 472.2 0.725293 5.83107 0
M  V30 5163 H 473.724 -0.166376 6.10373 0
M  V30 5164 H 475.138 1.98601 5.37802 0
M  V30 5165 H 473.535 2.77512 5.32078 0
M  V30 5166 H 474.605 2.86752 3.91026 0
M  V30 5167 N 475.948 -1.35272 0.808662 0
M  V30 5168 C 477.225 -1.93077 0.313181 0
M  V30 5169 C 477.605 -1.73847 -1.19752 0
M  V30 5170 O 476.953 -1.1087 -1.998 0
M  V30 5171 C 477.163 -3.41347 0.726859 0
M  V30 5172 C 478.511 -4.18493 0.717532 0
M  V30 5173 O 479.535 -3.4987 0.668535 0
M  V30 5174 O 478.394 -5.40937 0.777779 0
M  V30 5175 H 475.488 -0.822885 0.0824018 0
M  V30 5176 H 478.034 -1.44335 0.892499 0
M  V30 5177 H 476.806 -3.49082 1.76797 0
M  V30 5178 H 476.429 -3.97411 0.122461 0
M  V30 5179 N 477.426 -0.562348 -1.47226 0
M  V30 5180 C 478.673 -0.0402165 -2.0246 0
M  V30 5181 C 479.001 1.31169 -1.43614 0
M  V30 5182 O 478.256 1.86805 -0.5833 0
M  V30 5183 C 478.555 0.0969817 -3.57268 0
M  V30 5184 C 478.221 -1.1847 -4.35058 0
M  V30 5185 C 476.883 -1.53588 -4.56031 0
M  V30 5186 C 479.235 -2.03378 -4.79882 0
M  V30 5187 C 476.563 -2.73452 -5.19077 0
M  V30 5188 C 478.915 -3.2245 -5.44251 0
M  V30 5189 C 477.579 -3.57876 -5.63455 0
M  V30 5190 H 476.849 -0.0147163 -0.740854 0
M  V30 5191 H 479.496 -0.734895 -1.76838 0
M  V30 5192 H 477.801 0.87466 -3.81912 0
M  V30 5193 H 479.498 0.516408 -3.97661 0
M  V30 5194 H 476.088 -0.90126 -4.19017 0
M  V30 5195 H 480.272 -1.77553 -4.63453 0
M  V30 5196 H 475.528 -3.01062 -5.32139 0
M  V30 5197 H 479.702 -3.88526 -5.77945 0
M  V30 5198 H 477.329 -4.50849 -6.12078 0
M  V30 5199 N 478.904 1.54736 -0.299062 0
M  V30 5200 C 479.836 2.20891 0.61153 0
M  V30 5201 C 480.849 1.20104 1.09904 0
M  V30 5202 O 482.038 1.46707 1.01683 0
M  V30 5203 C 479.138 2.84018 1.84897 0
M  V30 5204 C 478.311 4.10719 1.50428 0
M  V30 5205 C 477.37 4.57667 2.59667 0
M  V30 5206 O 476.396 5.2291 2.24842 0
M  V30 5207 N 477.598 4.29821 3.90172 0
M  V30 5208 H 480.363 2.99666 0.0452001 0
M  V30 5209 H 477.924 1.61446 -0.121178 0
M  V30 5210 H 479.916 3.1236 2.5732 0
M  V30 5211 H 478.486 2.09095 2.32375 0
M  V30 5212 H 477.706 3.89408 0.612781 0
M  V30 5213 H 478.994 4.93223 1.24934 0
M  V30 5214 H 478.392 3.77549 4.21276 0
M  V30 5215 H 476.949 4.62877 4.58899 0
M  V30 5216 N 480.382 0.0267497 1.57577 0
M  V30 5217 C 481.61 -0.662661 1.96001 0
M  V30 5218 C 482.025 -1.65799 0.903117 0
M  V30 5219 O 481.382 -1.82135 -0.115317 0
M  V30 5220 C 481.433 -1.37112 3.34488 0
M  V30 5221 O 481.154 -0.415683 4.36123 0
M  V30 5222 C 482.655 -2.15257 3.8753 0
M  V30 5223 H 479.875 -0.18287 0.6456 0
M  V30 5224 H 482.419 0.0858116 2.0432 0
M  V30 5225 H 480.574 -2.07101 3.27395 0
M  V30 5226 H 480.988 -0.918496 5.16395 0
M  V30 5227 H 482.462 -2.60285 4.86781 0
M  V30 5228 H 482.939 -2.99063 3.21649 0
M  V30 5229 H 483.545 -1.50231 3.97883 0
M  V30 5230 N 481.861 -1.55662 -0.24637 0
M  V30 5231 C 482.793 -1.86811 -1.32794 0
M  V30 5232 C 483.806 -0.754413 -1.44265 0
M  V30 5233 O 484.995 -1.03253 -1.45606 0
M  V30 5234 C 482.095 -2.0397 -2.70646 0
M  V30 5235 C 481.268 -3.34832 -2.81436 0
M  V30 5236 C 480.327 -3.41727 -4.00136 0
M  V30 5237 O 479.353 -4.14934 -3.89639 0
M  V30 5238 N 480.555 -2.71058 -5.1333 0
M  V30 5239 H 483.32 -2.80174 -1.06409 0
M  V30 5240 H 480.881 -1.55906 -0.43647 0
M  V30 5241 H 482.873 -2.05924 -3.48393 0
M  V30 5242 H 481.443 -1.1735 -2.89738 0
M  V30 5243 H 480.663 -3.4519 -1.90361 0
M  V30 5244 H 481.951 -4.21085 -2.85595 0
M  V30 5245 H 481.349 -2.11314 -5.2475 0
M  V30 5246 H 479.906 -2.78704 -5.89209 0
M  V30 5247 N 483.339 0.512053 -1.4905 0
M  V30 5248 C 484.271 1.63121 -1.6101 0
M  V30 5249 C 485.284 1.55145 -0.493352 0
M  V30 5250 O 486.473 1.61278 -0.764955 0
M  V30 5251 C 483.573 3.01863 -1.54052 0
M  V30 5252 C 482.746 3.35138 -2.81072 0
M  V30 5253 C 481.805 4.5324 -2.67319 0
M  V30 5254 O 480.831 4.55571 -3.41238 0
M  V30 5255 N 482.033 5.52495 -1.78127 0
M  V30 5256 H 484.798 1.53292 -2.5753 0
M  V30 5257 H 482.359 0.699706 -1.45999 0
M  V30 5258 H 484.351 3.78774 -1.42521 0
M  V30 5259 H 482.921 3.05675 -0.654345 0
M  V30 5260 H 482.141 2.4723 -3.07036 0
M  V30 5261 H 483.429 3.54162 -3.65304 0
M  V30 5262 H 482.827 5.53403 -1.17308 0
M  V30 5263 H 481.384 6.28553 -1.72525 0
M  V30 5264 N 484.817 1.37938 0.762283 0
M  V30 5265 C 486.047 1.36685 1.54922 0
M  V30 5266 C 486.455 -0.0474099 1.89141 0
M  V30 5267 O 485.798 -1.02213 1.52638 0
M  V30 5268 C 485.86 2.14963 2.88152 0
M  V30 5269 C 485.524 3.6385 2.76518 0
M  V30 5270 C 486.521 4.57531 2.46904 0
M  V30 5271 C 484.206 4.07095 2.94243 0
M  V30 5272 C 486.2 5.92436 2.35156 0
M  V30 5273 C 483.887 5.42083 2.82116 0
M  V30 5274 C 484.885 6.34567 2.52614 0
M  V30 5275 O 484.573 7.67073 2.40529 0
M  V30 5276 H 484.305 0.469586 0.486276 0
M  V30 5277 H 486.859 1.82012 0.951876 0
M  V30 5278 H 485.089 1.6434 3.50042 0
M  V30 5279 H 486.778 2.06224 3.49609 0
M  V30 5280 H 487.544 4.25428 2.32886 0
M  V30 5281 H 483.423 3.35462 3.16206 0
M  V30 5282 H 486.967 6.64591 2.12049 0
M  V30 5283 H 482.864 5.73785 2.95704 0
M  V30 5284 H 483.632 7.77499 2.55807 0
M  V30 5285 N 486.295 -0.989507 1.22664 0
M  V30 5286 C 487.242 -2.08024 0.999733 0
M  V30 5287 C 488.212 -1.65909 -0.0797047 0
M  V30 5288 O 489.397 -1.90669 0.0705715 0
M  V30 5289 C 486.537 -3.40067 0.587234 0
M  V30 5290 C 485.65 -3.95505 1.73781 0
M  V30 5291 C 484.785 -5.15722 1.27297 0
M  V30 5292 C 483.824 -5.63305 2.39488 0
M  V30 5293 N 482.961 -6.74758 1.94026 0
M  V30 5294 H 487.801 -2.26768 1.9334 0
M  V30 5295 H 485.338 -1.11171 0.963297 0
M  V30 5296 H 487.296 -4.15899 0.329227 0
M  V30 5297 H 485.926 -3.21314 -0.309426 0
M  V30 5298 H 484.978 -3.16513 2.11006 0
M  V30 5299 H 486.29 -4.26797 2.58158 0
M  V30 5300 H 485.444 -5.98854 0.972546 0
M  V30 5301 H 484.183 -4.86061 0.399445 0
M  V30 5302 H 483.188 -4.78759 2.70315 0
M  V30 5303 H 484.413 -5.94988 3.27362 0
M  V30 5304 H 482.359 -6.46874 1.09041 0
M  V30 5305 H 482.276 -7.05386 2.71968 0
M  V30 5306 H 483.544 -7.61387 1.67062 0
M  V30 5307 N 487.773 -1.03688 -1.18687 0
M  V30 5308 C 488.703 -0.645407 -2.24403 0
M  V30 5309 C 489.684 0.349511 -1.66471 0
M  V30 5310 O 490.869 0.230453 -1.92828 0
M  V30 5311 C 487.999 -0.00365337 -3.473 0
M  V30 5312 C 486.953 -0.921705 -4.17958 0
M  V30 5313 C 486.279 -0.144629 -5.34504 0
M  V30 5314 C 487.579 -2.23909 -4.71871 0
M  V30 5315 H 489.273 -1.52917 -2.57404 0
M  V30 5316 H 486.819 -0.736711 -1.23728 0
M  V30 5317 H 488.772 0.281908 -4.20456 0
M  V30 5318 H 487.496 0.914963 -3.13522 0
M  V30 5319 H 486.155 -1.19159 -3.46694 0
M  V30 5320 H 485.803 0.776274 -4.96974 0
M  V30 5321 H 485.503 -0.756206 -5.82714 0
M  V30 5322 H 487.027 0.134004 -6.10453 0
M  V30 5323 H 488.441 -2.0145 -5.36741 0
M  V30 5324 H 486.838 -2.8033 -5.30599 0
M  V30 5325 H 487.908 -2.88822 -3.895 0
M  V30 5326 N 489.251 1.34841 -0.815825 0
M  V30 5327 C 490.498 1.98499 -0.400535 0
M  V30 5328 C 490.826 1.64699 1.03463 0
M  V30 5329 O 490.081 0.907006 1.73412 0
M  V30 5330 C 490.38 3.53273 -0.541541 0
M  V30 5331 C 490.046 4.06966 -1.94138 0
M  V30 5332 C 488.708 4.21341 -2.32433 0
M  V30 5333 C 491.06 4.35933 -2.85677 0
M  V30 5334 C 488.388 4.62007 -3.61617 0
M  V30 5335 C 490.74 4.78042 -4.14317 0
M  V30 5336 C 489.404 4.90622 -4.52599 0
M  V30 5337 H 488.674 0.72636 -0.146566 0
M  V30 5338 H 491.321 1.60902 -1.0384 0
M  V30 5339 H 489.626 3.91387 0.179741 0
M  V30 5340 H 491.323 4.00497 -0.20085 0
M  V30 5341 H 487.913 3.96235 -1.63388 0
M  V30 5342 H 492.097 4.24372 -2.57337 0
M  V30 5343 H 487.353 4.69937 -3.91113 0
M  V30 5344 H 491.527 4.99415 -4.85342 0
M  V30 5345 H 489.154 5.2189 -5.52752 0
M  V30 5346 N 490.729 0.570148 1.46925 0
M  V30 5347 C 492.14 0.1402 1.86173 0
M  V30 5348 C 492.491 -1.29347 1.47526 0
M  V30 5349 O 491.616 -1.97508 0.884292 0
M  V30 5350 C 492.211 0.247661 3.37894 0
M  V30 5351 C 490.77 -0.127332 3.76185 0
M  V30 5352 C 489.917 0.589349 2.70965 0
M  V30 5353 H 492.868 0.779117 1.38259 0
M  V30 5354 H 492.889 -0.530341 3.76786 0
M  V30 5355 H 492.401 1.29121 3.65991 0
M  V30 5356 H 490.502 -1.17149 3.53704 0
M  V30 5357 H 490.615 0.240238 4.78497 0
M  V30 5358 H 488.979 0.0309824 2.54681 0
M  V30 5359 H 489.762 1.6343 3.01903 0
M  V30 5360 N 492.207 -1.54576 0.307264 0
M  V30 5361 C 493.137 -2.26708 -0.55907 0
M  V30 5362 C 494.118 -1.26893 -1.1328 0
M  V30 5363 O 495.303 -1.55677 -1.16097 0
M  V30 5364 C 492.433 -3.01259 -1.72801 0
M  V30 5365 C 491.387 -4.08275 -1.28435 0
M  V30 5366 C 490.713 -4.70575 -2.53895 0
M  V30 5367 C 492.013 -5.2068 -0.411038 0
M  V30 5368 H 493.707 -2.9937 0.042576 0
M  V30 5369 H 491.253 -1.43983 0.0219173 0
M  V30 5370 H 493.206 -3.50444 -2.34023 0
M  V30 5371 H 491.93 -2.26187 -2.356 0
M  V30 5372 H 490.589 -3.59949 -0.695161 0
M  V30 5373 H 490.237 -3.92136 -3.15021 0
M  V30 5374 H 489.937 -5.42854 -2.24908 0
M  V30 5375 H 491.461 -5.22527 -3.15908 0
M  V30 5376 H 492.875 -5.65721 -0.929097 0
M  V30 5377 H 491.272 -5.99716 -0.214664 0
M  V30 5378 H 492.342 -4.81629 0.562287 0
M  V30 5379 N 493.685 -0.035106 -1.57561 0
M  V30 5380 C 494.615 0.942993 -2.13612 0
M  V30 5381 C 495.596 1.33531 -1.05373 0
M  V30 5382 O 496.781 1.41287 -1.33235 0
M  V30 5383 C 493.911 2.22332 -2.66807 0
M  V30 5384 C 492.865 1.97156 -3.79886 0
M  V30 5385 C 492.191 3.31506 -4.19533 0
M  V30 5386 C 493.491 1.30596 -5.05709 0
M  V30 5387 H 495.185 0.476179 -2.95589 0
M  V30 5388 H 492.731 0.227602 -1.4219 0
M  V30 5389 H 494.684 2.91142 -3.04654 0
M  V30 5390 H 493.408 2.7119 -1.81999 0
M  V30 5391 H 492.067 1.30763 -3.42486 0
M  V30 5392 H 491.715 3.78134 -3.31698 0
M  V30 5393 H 491.415 3.15465 -4.95738 0
M  V30 5394 H 492.939 4.01574 -4.59968 0
M  V30 5395 H 494.353 1.89416 -5.41105 0
M  V30 5396 H 492.75 1.24934 -5.86951 0
M  V30 5397 H 493.82 0.279742 -4.84092 0
M  V30 5398 N 495.163 1.55791 0.238111 0
M  V30 5399 C 496.126 1.90239 1.27835 0
M  V30 5400 C 497.126 0.779552 1.4064 0
M  V30 5401 O 498.316 1.04747 1.3919 0
M  V30 5402 C 495.448 2.13859 2.65475 0
M  V30 5403 H 496.641 2.83262 0.985034 0
M  V30 5404 H 494.194 1.48818 0.477799 0
M  V30 5405 H 494.929 1.23334 2.99932 0
M  V30 5406 H 494.714 2.95643 2.57561 0
M  V30 5407 H 496.204 2.41664 3.40571 0
M  V30 5408 N 496.642 -0.504142 1.49319 0
M  V30 5409 C 497.87 -1.28256 1.62351 0
M  V30 5410 C 498.285 -1.86502 0.293682 0
M  V30 5411 O 497.642 -1.67678 -0.720449 0
M  V30 5412 C 497.693 -2.41507 2.68992 0
M  V30 5413 O 497.414 -1.85656 3.96817 0
M  V30 5414 C 498.915 -3.32929 2.927 0
M  V30 5415 H 496.135 -0.389115 0.546654 0
M  V30 5416 H 498.679 -0.605531 1.95329 0
M  V30 5417 H 496.834 -3.05046 2.38801 0
M  V30 5418 H 497.248 -2.59981 4.55533 0
M  V30 5419 H 498.722 -4.0868 3.71058 0
M  V30 5420 H 499.199 -3.89733 2.02496 0
M  V30 5421 H 499.805 -2.75158 3.24296 0
M  V30 5422 N 498.12 -1.38341 -0.754957 0
M  V30 5423 C 499.083 -1.35262 -1.85032 0
M  V30 5424 C 500.083 -0.253393 -1.58791 0
M  V30 5425 O 501.273 -0.510205 -1.66561 0
M  V30 5426 C 498.405 -1.10544 -3.22479 0
M  V30 5427 H 499.598 -2.32712 -1.8917 0
M  V30 5428 H 497.151 -1.23614 -0.956515 0
M  V30 5429 H 497.886 -0.136952 -3.24011 0
M  V30 5430 H 497.671 -1.90127 -3.4292 0
M  V30 5431 H 499.161 -1.11082 -4.02555 0
M  V30 5432 N 499.598 0.982988 -1.23187 0
M  V30 5433 C 500.828 1.75666 -1.08743 0
M  V30 5434 C 501.236 1.85662 0.364195 0
M  V30 5435 O 500.579 1.33317 1.26382 0
M  V30 5436 C 500.641 3.20144 -1.63549 0
M  V30 5437 C 500.305 3.33665 -3.12277 0
M  V30 5438 C 501.302 3.20194 -4.096 0
M  V30 5439 C 498.987 3.58397 -3.51933 0
M  V30 5440 C 500.981 3.31256 -5.44563 0
M  V30 5441 C 498.668 3.69098 -4.87042 0
M  V30 5442 C 499.666 3.55537 -5.83166 0
M  V30 5443 O 499.354 3.65864 -7.1582 0
M  V30 5444 H 499.086 0.558194 -0.381307 0
M  V30 5445 H 501.64 1.24387 -1.63454 0
M  V30 5446 H 499.87 3.72659 -1.03256 0
M  V30 5447 H 501.559 3.79262 -1.4462 0
M  V30 5448 H 502.325 3.00987 -3.80305 0
M  V30 5449 H 498.204 3.68025 -2.77631 0
M  V30 5450 H 501.748 3.20588 -6.19572 0
M  V30 5451 H 497.645 3.87814 -5.16014 0
M  V30 5452 H 498.413 3.82675 -7.23534 0
M  V30 5453 N 501.076 1.04316 1.18135 0
M  V30 5454 C 502.039 0.640794 2.2006 0
M  V30 5455 C 503.039 -0.303124 1.57917 0
M  V30 5456 O 504.229 -0.0881855 1.73977 0
M  V30 5457 C 501.361 -0.060148 3.40847 0
M  V30 5458 H 502.554 1.54281 2.57172 0
M  V30 5459 H 500.107 0.836004 1.32063 0
M  V30 5460 H 500.842 -0.975845 3.0927 0
M  V30 5461 H 500.627 0.618319 3.87194 0
M  V30 5462 H 502.117 -0.328082 4.16309 0
M  V30 5463 N 502.554 -1.34406 0.822964 0
M  V30 5464 C 503.801 -1.98284 0.411057 0
M  V30 5465 C 504.129 -1.65245 -1.02588 0
M  V30 5466 O 503.384 -0.91619 -1.72929 0
M  V30 5467 C 503.683 -3.52981 0.560268 0
M  V30 5468 C 503.349 -4.05931 1.96293 0
M  V30 5469 C 502.011 -4.20103 2.34664 0
M  V30 5470 C 504.363 -4.34412 2.87985 0
M  V30 5471 C 501.691 -4.60082 3.64062 0
M  V30 5472 C 504.043 -4.75838 4.16847 0
M  V30 5473 C 502.707 -4.88215 4.55195 0
M  V30 5474 H 501.977 -0.725573 0.150416 0
M  V30 5475 H 504.624 -1.60349 1.04692 0
M  V30 5476 H 502.929 -3.91477 -0.158982 0
M  V30 5477 H 504.626 -4.00385 0.222087 0
M  V30 5478 H 501.216 -3.95363 1.65487 0
M  V30 5479 H 505.4 -4.23001 2.59584 0
M  V30 5480 H 500.656 -4.67856 3.93599 0
M  V30 5481 H 504.83 -4.96834 4.87984 0
M  V30 5482 H 502.457 -5.18952 5.55512 0
M  V30 5483 N 504.032 -0.577932 -1.46621 0
M  V30 5484 C 504.964 0.195801 -2.28362 0
M  V30 5485 C 505.977 0.859983 -1.38232 0
M  V30 5486 O 507.166 0.730349 -1.62875 0
M  V30 5487 C 504.266 1.29639 -3.13124 0
M  V30 5488 C 503.439 0.725049 -4.31349 0
M  V30 5489 C 502.498 1.71274 -4.97546 0
M  V30 5490 O 501.524 1.25067 -5.5529 0
M  V30 5491 N 502.726 3.04672 -4.94121 0
M  V30 5492 H 505.491 -0.505468 -2.95407 0
M  V30 5493 H 503.052 -0.415381 -1.56481 0
M  V30 5494 H 505.044 1.95631 -3.54275 0
M  V30 5495 H 503.614 1.90059 -2.48186 0
M  V30 5496 H 502.834 -0.112205 -3.9404 0
M  V30 5497 H 504.122 0.323034 -5.07774 0
M  V30 5498 H 503.52 3.4484 -4.48444 0
M  V30 5499 H 502.077 3.66166 -5.39227 0
M  V30 5500 N 505.51 1.54411 -0.315457 0
M  V30 5501 C 506.757 2.00419 0.289543 0
M  V30 5502 C 507.085 1.20373 1.52776 0
M  V30 5503 O 506.34 0.271769 1.93804 0
M  V30 5504 C 506.639 3.50936 0.676652 0
M  V30 5505 C 506.305 4.48532 -0.461472 0
M  V30 5506 C 504.967 4.74936 -0.773879 0
M  V30 5507 C 507.319 5.06567 -1.22637 0
M  V30 5508 C 504.647 5.56634 -1.85405 0
M  V30 5509 C 506.999 5.89441 -2.29657 0
M  V30 5510 C 505.663 6.1415 -2.61488 0
M  V30 5511 H 504.933 0.733386 0.105951 0
M  V30 5512 H 507.58 1.86434 -0.437554 0
M  V30 5513 H 505.885 3.62606 1.48405 0
M  V30 5514 H 507.582 3.83971 1.15618 0
M  V30 5515 H 504.172 4.28096 -0.207893 0
M  V30 5516 H 508.356 4.86157 -0.998271 0
M  V30 5517 H 503.612 5.74012 -2.10523 0
M  V30 5518 H 507.786 6.33432 -2.89374 0
M  V30 5519 H 505.413 6.77245 -3.45317 0
M  V30 5520 N 506.988 0.0434614 1.5754 0
M  V30 5521 C 508.234 -0.632971 1.92669 0
M  V30 5522 C 508.567 -1.70947 0.921446 0
M  V30 5523 O 507.842 -1.94426 -0.0537202 0
M  V30 5524 C 508.125 -1.23619 3.38216 0
M  V30 5525 C 507.978 -0.168274 4.49485 0
M  V30 5526 C 509.297 -2.15008 3.84005 0
M  V30 5527 H 506.416 -0.228629 0.700641 0
M  V30 5528 H 509.058 0.103651 1.89717 0
M  V30 5529 H 507.208 -1.864 3.40863 0
M  V30 5530 H 508.88 0.463196 4.58969 0
M  V30 5531 H 507.123 0.504581 4.30855 0
M  V30 5532 H 507.794 -0.630218 5.48391 0
M  V30 5533 H 510.27 -1.62198 3.83185 0
M  V30 5534 H 509.146 -2.54161 4.86511 0
M  V30 5535 H 509.407 -3.04707 3.20322 0
M  V30 5536 N 508.466 -1.55915 -0.229846 0
M  V30 5537 C 509.714 -1.7819 -0.953565 0
M  V30 5538 C 510.035 -0.610504 -1.85197 0
M  V30 5539 O 509.305 0.372988 -1.92316 0
M  V30 5540 H 507.885 -0.657208 -0.355087 0
M  V30 5541 H 510.547 -1.9337 -0.243693 0
M  V30 5542 H 509.643 -2.70011 -1.56527 0
M  V30 5543 N 509.944 0.496216 -1.49584 0
M  V30 5544 C 510.907 1.57952 -1.66084 0
M  V30 5545 C 511.907 1.51729 -0.53244 0
M  V30 5546 O 513.097 1.54796 -0.79899 0
M  V30 5547 C 510.229 2.97604 -1.66268 0
M  V30 5548 H 511.422 1.44649 -2.6271 0
M  V30 5549 H 508.975 0.7208 -1.38687 0
M  V30 5550 H 509.71 3.16378 -0.712432 0
M  V30 5551 H 509.495 3.03528 -2.4822 0
M  V30 5552 H 510.985 3.76301 -1.81073 0
M  V30 5553 N 511.423 1.38739 0.74761 0
M  V30 5554 C 512.653 1.3832 1.53464 0
M  V30 5555 C 513.061 -0.0273464 1.8918 0
M  V30 5556 O 512.404 -1.00588 1.53713 0
M  V30 5557 C 512.466 2.18007 2.85855 0
M  V30 5558 C 512.13 3.66762 2.72644 0
M  V30 5559 C 513.127 4.60124 2.42037 0
M  V30 5560 C 510.812 4.10193 2.89909 0
M  V30 5561 C 512.806 5.94897 2.28859 0
M  V30 5562 C 510.493 5.45045 2.7635 0
M  V30 5563 C 511.491 6.37211 2.45869 0
M  V30 5564 O 511.179 7.69581 2.3238 0
M  V30 5565 H 510.911 0.474718 0.481268 0
M  V30 5566 H 513.465 1.83012 0.932518 0
M  V30 5567 H 511.695 1.68043 3.48279 0
M  V30 5568 H 513.384 2.09921 3.47402 0
M  V30 5569 H 514.15 4.27874 2.28361 0
M  V30 5570 H 510.029 3.38797 3.1263 0
M  V30 5571 H 513.573 6.66802 2.04989 0
M  V30 5572 H 509.47 5.76889 2.89601 0
M  V30 5573 H 510.238 7.80169 2.47546 0
M  V30 5574 N 512.901 -0.976442 1.23707 0
M  V30 5575 C 513.834 -2.06793 0.964973 0
M  V30 5576 C 514.812 -1.62304 -0.0981472 0
M  V30 5577 O 515.996 -1.88464 0.0369477 0
M  V30 5578 C 513.123 -3.35636 0.454522 0
M  V30 5579 C 512.169 -3.99069 1.50485 0
M  V30 5580 S 513.002 -4.37814 3.0835 0
M  V30 5581 C 514.158 -5.69805 2.58985 0
M  V30 5582 H 514.391 -2.29556 1.88922 0
M  V30 5583 H 511.924 -1.11317 1.06995 0
M  V30 5584 H 513.882 -4.10162 0.166626 0
M  V30 5585 H 512.543 -3.10876 -0.448871 0
M  V30 5586 H 511.736 -4.91896 1.09792 0
M  V30 5587 H 511.338 -3.30938 1.7423 0
M  V30 5588 H 513.63 -6.46919 2.01252 0
M  V30 5589 H 514.573 -6.15345 3.50366 0
M  V30 5590 H 514.981 -5.27994 1.99705 0
M  V30 5591 N 514.379 -1.04941 -1.1758 0
M  V30 5592 C 515.326 -0.648155 -2.21512 0
M  V30 5593 C 516.296 0.348431 -1.62404 0
M  V30 5594 O 517.481 0.240419 -1.89279 0
M  V30 5595 C 514.621 -0.0264291 -3.4509 0
M  V30 5596 C 513.734 -1.07154 -4.185 0
M  V30 5597 C 512.869 -0.417403 -5.29558 0
M  V30 5598 C 511.908 -1.447 -5.94751 0
M  V30 5599 N 511.045 -0.817203 -6.97328 0
M  V30 5600 H 515.885 -1.53891 -2.55189 0
M  V30 5601 H 513.422 -0.769699 -1.25356 0
M  V30 5602 H 515.38 0.351456 -4.15717 0
M  V30 5603 H 514.01 0.827802 -3.12005 0
M  V30 5604 H 513.062 -1.56728 -3.46613 0
M  V30 5605 H 514.374 -1.8532 -4.63096 0
M  V30 5606 H 513.528 0.0142061 -6.06698 0
M  V30 5607 H 512.267 0.396265 -4.86087 0
M  V30 5608 H 511.272 -1.88865 -5.16343 0
M  V30 5609 H 512.497 -2.26252 -6.40302 0
M  V30 5610 H 510.443 -0.0239995 -6.55996 0
M  V30 5611 H 510.36 -1.53644 -7.40223 0
M  V30 5612 H 511.628 -0.410283 -7.7842 0
M  V30 5613 N 515.857 1.33968 -0.830081 0
M  V30 5614 C 516.767 2.33164 -0.259207 0
M  V30 5615 C 517.783 1.62951 0.610164 0
M  V30 5616 O 518.959 1.94668 0.516369 0
M  V30 5617 C 516.024 3.42088 0.563598 0
M  V30 5618 C 515.085 4.28037 -0.329014 0
M  V30 5619 C 514.318 5.3176 0.454616 0
M  V30 5620 O 514.541 5.44876 1.6872 0
M  V30 5621 O 513.475 6.01669 -0.166794 0
M  V30 5622 H 517.301 2.83832 -1.08041 0
M  V30 5623 H 514.886 1.37154 -0.59239 0
M  V30 5624 H 516.768 4.08581 1.03147 0
M  V30 5625 H 515.443 2.93651 1.36201 0
M  V30 5626 H 514.35 3.64443 -0.844538 0
M  V30 5627 H 515.683 4.79934 -1.09196 0
M  V30 5628 N 517.335 0.585699 1.46312 0
M  V30 5629 C 518.563 0.0781299 2.06752 0
M  V30 5630 C 518.978 -1.22812 1.43396 0
M  V30 5631 O 518.335 -1.74318 0.540314 0
M  V30 5632 C 518.386 -0.0911927 3.61385 0
M  V30 5633 O 518.107 1.16336 4.22371 0
M  V30 5634 C 519.608 -0.632765 4.38761 0
M  V30 5635 H 516.828 0.0588188 0.668417 0
M  V30 5636 H 519.372 0.807218 1.87894 0
M  V30 5637 H 517.527 -0.770514 3.7966 0
M  V30 5638 H 517.941 0.979082 5.15281 0
M  V30 5639 H 519.415 -0.70041 5.47538 0
M  V30 5640 H 519.892 -1.65039 4.07012 0
M  V30 5641 H 520.498 0.0117856 4.25298 0
M  V30 5642 N 518.813 -1.54241 0.323641 0
M  V30 5643 C 520.043 -2.04687 -0.280464 0
M  V30 5644 C 520.451 -1.19939 -1.46326 0
M  V30 5645 O 519.794 -0.222872 -1.82343 0
M  V30 5646 C 519.856 -3.50978 -0.778123 0
M  V30 5647 C 519.52 -4.56127 0.282371 0
M  V30 5648 C 520.517 -5.07726 1.11847 0
M  V30 5649 C 518.202 -5.00451 0.430582 0
M  V30 5650 C 520.196 -6.02212 2.08851 0
M  V30 5651 C 517.883 -5.94752 1.40404 0
M  V30 5652 C 518.881 -6.45519 2.23147 0
M  V30 5653 O 518.569 -7.37968 3.1884 0
M  V30 5654 H 518.301 -0.673192 -0.0615473 0
M  V30 5655 H 520.855 -1.99999 0.467921 0
M  V30 5656 H 519.085 -3.53064 -1.57742 0
M  V30 5657 H 520.774 -3.84499 -1.30058 0
M  V30 5658 H 521.54 -4.74261 1.01496 0
M  V30 5659 H 517.419 -4.6055 -0.203569 0
M  V30 5660 H 520.963 -6.41761 2.73474 0
M  V30 5661 H 516.86 -6.27633 1.5082 0
M  V30 5662 H 517.628 -7.55841 3.14079 0
M  V30 5663 N 520.291 -0.0518155 -1.57515 0
M  V30 5664 C 521.241 0.932017 -2.0808 0
M  V30 5665 C 522.225 1.27141 -0.986098 0
M  V30 5666 O 523.417 1.25373 -1.24943 0
M  V30 5667 C 520.546 2.20665 -2.62986 0
M  V30 5668 C 519.632 1.89462 -3.79427 0
M  V30 5669 N 520.023 1.28621 -4.89173 0
M  V30 5670 C 518.321 2.19327 -3.88345 0
M  V30 5671 C 519.022 1.15062 -5.70207 0
M  V30 5672 N 517.998 1.65372 -5.17835 0
M  V30 5673 H 521.8 0.456964 -2.90326 0
M  V30 5674 H 519.314 0.152619 -1.61681 0
M  V30 5675 H 521.311 2.92044 -2.97516 0
M  V30 5676 H 519.971 2.68776 -1.8218 0
M  V30 5677 H 520.982 0.958341 -5.08956 0
M  V30 5678 H 517.659 2.69955 -3.18482 0
M  V30 5679 H 519.049 0.678243 -6.68468 0
M  V30 5680 N 521.769 1.56035 0.221574 0
M  V30 5681 C 523.185 1.49026 0.571271 0
M  V30 5682 C 523.385 0.746912 1.87146 0
M  V30 5683 O 522.441 0.286566 2.50869 0
M  V30 5684 C 523.754 2.93579 0.650522 0
M  V30 5685 C 525.302 3.04099 0.741151 0
M  V30 5686 C 525.777 4.5001 0.851747 0
M  V30 5687 N 527.268 4.54053 0.915968 0
M  V30 5688 C 528.003 5.64232 1.02125 0
M  V30 5689 N 527.499 6.84164 1.09049 0
M  V30 5690 N 529.292 5.52084 1.05639 0
M  V30 5691 H 521.443 2.02791 -0.63162 0
M  V30 5692 H 523.706 0.921736 -0.221602 0
M  V30 5693 H 523.412 3.50912 -0.235253 0
M  V30 5694 H 523.286 3.45476 1.51413 0
M  V30 5695 H 525.673 2.4683 1.61737 0
M  V30 5696 H 525.754 2.55371 -0.148128 0
M  V30 5697 H 525.398 5.07896 -0.0200117 0
M  V30 5698 H 525.328 4.96444 1.75644 0
M  V30 5699 H 527.819 3.67683 0.872782 0
M  V30 5700 H 528.132 7.63883 1.1706 0
M  V30 5701 H 526.477 6.86875 1.05962 0
M  V30 5702 H 529.668 4.57317 0.998953 0
M  V30 5703 H 529.841 6.37983 1.13498 0
M  V30 5704 N 523.247 -0.488276 1.49845 0
M  V30 5705 C 524.496 -1.23826 1.59217 0
M  V30 5706 C 524.809 -1.93439 0.289966 0
M  V30 5707 O 526.015 -2.70229 0.262382 0
M  V30 5708 C 524.471 -2.24902 2.80976 0
M  V30 5709 C 524.079 -1.6117 4.18005 0
M  V30 5710 C 525.823 -3.00648 2.99685 0
M  V30 5711 C 523.73 -2.60431 5.3097 0
M  V30 5712 H 522.66 -0.465858 0.592868 0
M  V30 5713 H 525.311 -0.510645 1.76252 0
M  V30 5714 H 523.693 -3.0088 2.57463 0
M  V30 5715 H 524.867 -0.910968 4.51706 0
M  V30 5716 H 523.182 -0.97767 4.0476 0
M  V30 5717 H 525.779 -3.74903 3.81251 0
M  V30 5718 H 526.122 -3.5902 2.10738 0
M  V30 5719 H 526.655 -2.31784 3.23297 0
M  V30 5720 H 523.394 -2.06823 6.22017 0
M  V30 5721 H 522.914 -3.28707 5.01709 0
M  V30 5722 H 524.593 -3.22606 5.60834 0
M  V30 5723 N 524.725 -1.39134 -0.740242 0
M  V30 5724 C 525.673 -1.3757 -1.87556 0
M  V30 5725 C 526.667 -0.259593 -1.67399 0
M  V30 5726 O 527.873 -0.429349 -1.74804 0
M  V30 5727 H 524.248 -0.42947 -0.6173 0
M  V30 5728 H 526.219 -2.33345 -1.85991 0
M  V30 5729 C 524.968 -1.23087 -3.25184 0
M  V30 5730 H 524.291 -2.08237 -3.41288 0
M  V30 5731 H 525.731 -1.26049 -4.0483 0
M  V30 5732 C 524.19 0.0611471 -3.36845 0
M  V30 5733 O 524.72 1.03328 -3.88183 0
M  V30 5734 N 522.926 0.122454 -2.90342 0
M  V30 5735 H 522.473 -0.669329 -2.48752 0
M  V30 5736 H 522.431 0.986463 -2.98523 0
M  V30 5737 N 526.204 0.969867 -1.24223 0
M  V30 5738 C 527.114 2.09806 -1.0497 0
M  V30 5739 C 528.13 1.73998 0.00886455 0
M  V30 5740 O 529.306 2.00513 -0.188848 0
M  V30 5741 C 526.371 3.40467 -0.654452 0
M  V30 5742 C 525.432 3.90236 -1.78926 0
M  V30 5743 C 524.665 5.14662 -1.41277 0
M  V30 5744 O 524.888 5.69602 -0.301632 0
M  V30 5745 O 523.822 5.58761 -2.23763 0
M  V30 5746 H 527.648 2.28942 -1.99548 0
M  V30 5747 H 525.233 1.08197 -1.03023 0
M  V30 5748 H 527.115 4.19039 -0.445452 0
M  V30 5749 H 525.79 3.22636 0.262216 0
M  V30 5750 H 524.697 3.12735 -2.05299 0
M  V30 5751 H 526.03 4.1254 -2.68462 0
M  V30 5752 N 527.682 1.05563 1.17022 0
M  V30 5753 C 528.93 0.76642 1.87004 0
M  V30 5754 C 529.251 -0.708854 1.8166 0
M  V30 5755 O 528.521 -1.51242 1.2451 0
M  V30 5756 H 527.101 0.280516 0.692329 0
M  V30 5757 H 529.763 1.33557 1.41945 0
M  V30 5758 H 528.859 1.08472 2.92644 0
M  V30 5759 N 529.16 -1.33526 0.837174 0
M  V30 5760 C 530.409 -1.97098 0.428387 0
M  V30 5761 C 530.722 -1.67062 -1.01734 0
M  V30 5762 O 531.928 -2.24235 -1.53072 0
M  V30 5763 C 530.384 -3.52725 0.715075 0
M  V30 5764 C 529.992 -3.9164 2.17537 0
M  V30 5765 C 531.736 -4.22857 0.373154 0
M  V30 5766 C 529.643 -5.40237 2.40619 0
M  V30 5767 H 528.573 -0.737589 0.156455 0
M  V30 5768 H 531.224 -1.52169 1.02552 0
M  V30 5769 H 529.606 -3.95971 0.0475904 0
M  V30 5770 H 530.78 -3.59456 2.88319 0
M  V30 5771 H 529.095 -3.34485 2.4801 0
M  V30 5772 H 531.692 -5.32133 0.523264 0
M  V30 5773 H 532.035 -4.10647 -0.683708 0
M  V30 5774 H 532.568 -3.85135 0.995801 0
M  V30 5775 H 529.307 -5.57449 3.44864 0
M  V30 5776 H 528.827 -5.73887 1.74396 0
M  V30 5777 H 530.506 -6.07102 2.23688 0
M  V30 5778 N 530.638 -0.59345 -1.46 0
M  V30 5779 C 531.886 -0.082988 -2.0193 0
M  V30 5780 C 532.207 1.28569 -1.46612 0
M  V30 5781 O 531.477 1.84629 -0.654909 0
M  V30 5782 H 530.057 -0.0276882 -0.746487 0
M  V30 5783 H 532.719 -0.771657 -1.78973 0
M  V30 5784 H 531.815 -0.022079 -3.12092 0
M  V30 5785 N 532.116 1.54067 -0.331816 0
M  V30 5786 C 533.048 2.22139 0.564538 0
M  V30 5787 C 534.061 1.22408 1.07332 0
M  V30 5788 O 535.25 1.4883 0.985481 0
M  V30 5789 C 532.35 2.87876 1.78831 0
M  V30 5790 C 531.523 4.13817 1.41682 0
M  V30 5791 C 530.582 4.63072 2.49901 0
M  V30 5792 O 529.608 5.27562 2.13699 0
M  V30 5793 N 530.81 4.38001 3.80967 0
M  V30 5794 H 533.575 2.99694 -0.0183736 0
M  V30 5795 H 531.136 1.61153 -0.155396 0
M  V30 5796 H 533.128 3.17747 2.50637 0
M  V30 5797 H 531.698 2.13977 2.27887 0
M  V30 5798 H 530.918 3.9062 0.530044 0
M  V30 5799 H 532.206 4.95762 1.14443 0
M  V30 5800 H 531.604 3.864 4.13173 0
M  V30 5801 H 530.161 4.72507 4.48977 0
M  V30 5802 N 533.594 0.0601682 1.57485 0
M  V30 5803 C 534.842 -0.610386 1.92662 0
M  V30 5804 C 535.163 -1.70849 0.939981 0
M  V30 5805 O 534.433 -1.95895 -0.0137455 0
M  V30 5806 H 533.013 -0.228457 0.711208 0
M  V30 5807 H 535.675 0.115288 1.94559 0
M  V30 5808 H 534.771 -1.0432 2.94149 0
M  V30 5809 N 535.072 -1.5615 -0.213296 0
M  V30 5810 C 536.349 -1.70349 -0.961281 0
M  V30 5811 C 536.729 -0.609791 -2.02101 0
M  V30 5812 O 536.077 0.381987 -2.25285 0
M  V30 5813 C 536.287 -3.11982 -1.56424 0
M  V30 5814 C 537.635 -3.71649 -2.05334 0
M  V30 5815 O 538.659 -3.14995 -1.66302 0
M  V30 5816 O 537.518 -4.71038 -2.77102 0
M  V30 5817 H 534.612 -0.694121 -0.449582 0
M  V30 5818 H 537.158 -1.68464 -0.204426 0
M  V30 5819 H 535.93 -3.83046 -0.799457 0
M  V30 5820 H 535.553 -3.18019 -2.38641 0
M  V30 5821 N 536.55 0.480323 -1.50102 0
M  V30 5822 C 537.48 1.58769 -1.71215 0
M  V30 5823 C 538.461 1.60583 -0.560997 0
M  V30 5824 O 539.646 1.76996 -0.799127 0
M  V30 5825 C 536.776 2.97148 -1.79778 0
M  V30 5826 C 535.73 3.10201 -2.94888 0
M  V30 5827 C 535.056 4.50137 -2.88584 0
M  V30 5828 C 536.356 2.88283 -4.35534 0
M  V30 5829 H 538.05 1.41354 -2.6393 0
M  V30 5830 H 535.596 0.678591 -1.27008 0
M  V30 5831 H 537.549 3.74536 -1.93133 0
M  V30 5832 H 536.273 3.15699 -0.836772 0
M  V30 5833 H 534.932 2.35244 -2.81169 0
M  V30 5834 H 534.58 4.65593 -1.90349 0
M  V30 5835 H 534.28 4.59808 -3.65856 0
M  V30 5836 H 535.804 5.29558 -3.03976 0
M  V30 5837 H 537.218 3.55427 -4.49827 0
M  V30 5838 H 535.615 3.09408 -5.14186 0
M  V30 5839 H 536.685 1.84219 -4.48544 0
M  V30 5840 N 538.028 1.39524 0.732853 0
M  V30 5841 C 539.253 1.40329 1.52717 0
M  V30 5842 C 539.678 0.000286574 1.881 0
M  V30 5843 O 539.036 -0.987262 1.52062 0
M  V30 5844 C 539.084 2.28464 2.78992 0
M  V30 5845 O 538.188 1.716 3.75003 0
M  V30 5846 H 537.529 0.47778 0.461109 0
M  V30 5847 H 540.059 1.83546 0.903996 0
M  V30 5848 H 540.069 2.43051 3.27705 0
M  V30 5849 H 538.744 3.30425 2.52572 0
M  V30 5850 H 537.321 1.66267 3.33781 0
M  V30 5851 N 539.506 -0.963266 1.24736 0
M  V30 5852 C 540.416 -2.09246 1.06082 0
M  V30 5853 C 541.432 -1.74 0.000363101 0
M  V30 5854 O 542.608 -2.0041 0.199479 0
M  V30 5855 C 539.673 -3.40115 0.672498 0
M  V30 5856 C 538.734 -3.89282 1.80993 0
M  V30 5857 C 537.967 -5.13905 1.44004 0
M  V30 5858 O 538.19 -5.69434 0.331835 0
M  V30 5859 O 537.124 -5.57566 2.26723 0
M  V30 5860 H 540.95 -2.27881 2.00759 0
M  V30 5861 H 538.535 -1.07649 1.03595 0
M  V30 5862 H 540.417 -4.18797 0.467668 0
M  V30 5863 H 539.092 -3.22771 -0.245102 0
M  V30 5864 H 537.999 -3.11642 2.06955 0
M  V30 5865 H 539.332 -4.1111 2.70646 0
M  V30 5866 N 540.985 -1.06182 -1.16461 0
M  V30 5867 C 541.915 -0.692861 -2.22984 0
M  V30 5868 C 542.896 0.314122 -1.67174 0
M  V30 5869 O 544.081 0.189499 -1.93273 0
M  V30 5870 C 541.211 -0.07732 -3.47214 0
M  V30 5871 C 540.165 -1.01015 -4.15909 0
M  V30 5872 C 539.491 -0.257973 -5.34077 0
M  V30 5873 C 540.791 -2.33868 -4.67015 0
M  V30 5874 H 542.485 -1.58343 -2.54102 0
M  V30 5875 H 540.031 -0.76279 -1.22137 0
M  V30 5876 H 541.984 0.19266 -4.20959 0
M  V30 5877 H 540.708 0.848254 -3.15392 0
M  V30 5878 H 539.367 -1.26486 -3.44088 0
M  V30 5879 H 539.015 0.670684 -4.98509 0
M  V30 5880 H 538.715 -0.879638 -5.80979 0
M  V30 5881 H 540.239 0.00448788 -6.106 0
M  V30 5882 H 541.653 -2.1279 -5.32347 0
M  V30 5883 H 540.05 -2.91522 -5.24533 0
M  V30 5884 H 541.12 -2.97019 -3.83286 0
M  V30 5885 N 542.463 1.3308 -0.844243 0
M  V30 5886 C 543.874 1.7992 -0.498566 0
M  V30 5887 C 544.225 1.69808 0.982834 0
M  V30 5888 O 543.35 1.25051 1.7661 0
M  V30 5889 C 543.945 3.26677 -0.898204 0
M  V30 5890 C 542.504 3.71513 -0.604583 0
M  V30 5891 C 541.651 2.54393 -1.10362 0
M  V30 5892 H 544.602 1.20526 -1.03244 0
M  V30 5893 H 544.623 3.79918 -0.21039 0
M  V30 5894 H 544.135 3.34004 -1.97643 0
M  V30 5895 H 542.236 3.69708 0.46335 0
M  V30 5896 H 542.349 4.64755 -1.16358 0
M  V30 5897 H 540.713 2.49246 -0.524273 0
M  V30 5898 H 541.496 2.6448 -2.18873 0
M  V30 5899 N 543.941 0.601185 1.45683 0
M  V30 5900 C 544.851 -0.123395 2.34275 0
M  V30 5901 C 545.867 -0.86702 1.5086 0
M  V30 5902 O 547.043 -0.826049 1.8368 0
M  V30 5903 C 544.108 -1.11237 3.2837 0
M  V30 5904 C 543.169 -0.371405 4.2769 0
M  V30 5905 C 542.402 -1.31327 5.1729 0
M  V30 5906 O 542.625 -2.55078 5.10188 0
M  V30 5907 O 541.559 -0.813811 5.96373 0
M  V30 5908 H 545.385 0.604483 2.97623 0
M  V30 5909 H 542.97 0.361477 1.44961 0
M  V30 5910 H 544.852 -1.68214 3.8637 0
M  V30 5911 H 543.527 -1.82139 2.67595 0
M  V30 5912 H 542.434 0.24067 3.73325 0
M  V30 5913 H 543.767 0.296998 4.91303 0
M  V30 5914 N 545.419 -1.53889 0.339982 0
M  V30 5915 C 546.349 -2.27843 -0.510856 0
M  V30 5916 C 547.33 -1.29267 -1.10563 0
M  V30 5917 O 548.515 -1.58104 -1.12768 0
M  V30 5918 C 545.645 -3.04857 -1.66372 0
M  V30 5919 C 544.599 -4.10907 -1.19746 0
M  V30 5920 C 543.925 -4.75855 -2.43857 0
M  V30 5921 C 545.225 -5.21435 -0.300501 0
M  V30 5922 H 546.919 -2.99212 0.106067 0
M  V30 5923 H 544.465 -1.43904 0.0524533 0
M  V30 5924 H 546.418 -3.5533 -2.26537 0
M  V30 5925 H 545.142 -2.31133 -2.30749 0
M  V30 5926 H 543.801 -3.61342 -0.618654 0
M  V30 5927 H 543.449 -3.9873 -3.06633 0
M  V30 5928 H 543.149 -5.47502 -2.13343 0
M  V30 5929 H 544.673 -5.2911 -3.04754 0
M  V30 5930 H 546.087 -5.67565 -0.80889 0
M  V30 5931 H 544.484 -6.00036 -0.0874076 0
M  V30 5932 H 545.554 -4.80328 0.664321 0
M  V30 5933 N 546.897 -0.0685191 -1.57451 0
M  V30 5934 C 547.847 0.909895 -2.09057 0
M  V30 5935 C 548.831 1.26088 -0.999528 0
M  V30 5936 O 550.023 1.24041 -1.26265 0
M  V30 5937 C 547.152 2.17863 -2.65312 0
M  V30 5938 C 546.238 1.85427 -3.81415 0
M  V30 5939 N 546.629 1.23426 -4.9051 0
M  V30 5940 C 544.927 2.15196 -3.90649 0
M  V30 5941 C 545.628 1.09008 -5.71395 0
M  V30 5942 N 544.604 1.59871 -5.1956 0
M  V30 5943 H 548.406 0.426145 -2.90794 0
M  V30 5944 H 545.92 0.135462 -1.61834 0
M  V30 5945 H 547.917 2.88872 -3.00597 0
M  V30 5946 H 546.577 2.66829 -1.85021 0
M  V30 5947 H 547.588 0.904305 -5.09944 0
M  V30 5948 H 544.265 2.66562 -3.21327 0
M  V30 5949 H 545.655 0.607305 -6.6915 0
M  V30 5950 N 548.375 1.56261 0.205012 0
M  V30 5951 C 549.338 1.92908 1.23771 0
M  V30 5952 C 550.338 0.809208 1.38955 0
M  V30 5953 O 551.528 1.07676 1.36936 0
M  V30 5954 C 548.66 2.19442 2.60879 0
M  V30 5955 H 549.853 2.85287 0.924728 0
M  V30 5956 H 547.406 1.49798 0.446125 0
M  V30 5957 H 548.141 1.29668 2.97248 0
M  V30 5958 H 547.926 3.0104 2.51232 0
M  V30 5959 H 549.416 2.48833 3.35368 0
M  V30 5960 N 549.853 -0.472356 1.50355 0
M  V30 5961 C 550.783 -1.57859 1.72055 0
M  V30 5962 C 551.764 -1.60283 0.569505 0
M  V30 5963 O 552.949 -1.7657 0.808503 0
M  V30 5964 C 550.079 -2.96191 1.81351 0
M  V30 5965 C 549.033 -3.08633 2.96529 0
M  V30 5966 C 548.359 -4.486 2.90968 0
M  V30 5967 C 549.659 -2.85969 4.37057 0
M  V30 5968 H 551.353 -1.39953 2.64676 0
M  V30 5969 H 548.899 -0.671846 1.27367 0
M  V30 5970 H 550.852 -3.73507 1.95117 0
M  V30 5971 H 549.576 -3.15251 0.853502 0
M  V30 5972 H 548.235 -2.33749 2.82413 0
M  V30 5973 H 547.883 -4.64577 1.92815 0
M  V30 5974 H 547.583 -4.57861 3.68289 0
M  V30 5975 H 549.107 -5.27938 3.0678 0
M  V30 5976 H 550.521 -3.53036 4.51706 0
M  V30 5977 H 548.918 -3.06677 5.15819 0
M  V30 5978 H 549.988 -1.81838 4.49514 0
M  V30 5979 N 551.331 -1.39911 -0.725443 0
M  V30 5980 C 552.559 -1.40949 -1.51463 0
M  V30 5981 C 552.974 -0.0065242 -1.88799 0
M  V30 5982 O 552.331 0.967163 -1.54765 0
M  V30 5983 C 552.382 -2.29119 -2.79619 0
M  V30 5984 O 552.103 -3.63952 -2.43866 0
M  V30 5985 C 553.604 -2.38642 -3.73584 0
M  V30 5986 H 550.824 -0.481091 -0.467752 0
M  V30 5987 H 553.368 -1.83843 -0.895651 0
M  V30 5988 H 551.523 -1.89612 -3.37826 0
M  V30 5989 H 551.937 -4.10677 -3.26258 0
M  V30 5990 H 553.411 -3.04563 -4.60375 0
M  V30 5991 H 553.888 -1.40846 -4.16004 0
M  V30 5992 H 554.494 -2.78659 -3.21293 0
M  V30 5993 N 552.809 0.956637 -1.25245 0
M  V30 5994 C 553.772 2.03457 -1.05537 0
M  V30 5995 C 554.772 1.60798 -0.00886317 0
M  V30 5996 O 555.962 1.72384 -0.250865 0
M  V30 5997 C 553.094 3.35543 -0.601965 0
M  V30 5998 H 554.287 2.22372 -2.01223 0
M  V30 5999 H 551.84 1.13344 -1.07623 0
M  V30 6000 H 552.575 3.22323 0.357584 0
M  V30 6001 H 552.36 3.67854 -1.35743 0
M  V30 6002 H 553.85 4.14769 -0.485454 0
M  V30 6003 N 554.287 1.06798 1.15896 0
M  V30 6004 C 555.535 0.786211 1.8618 0
M  V30 6005 C 555.856 -0.689547 1.82401 0
M  V30 6006 O 555.126 -1.49913 1.26107 0
M  V30 6007 H 553.706 0.287843 0.689315 0
M  V30 6008 H 556.368 1.35055 1.40521 0
M  V30 6009 H 555.464 1.1157 2.91477 0
M  V30 6010 N 555.766 -1.3263 0.851289 0
M  V30 6011 C 556.696 -2.31449 0.308771 0
M  V30 6012 C 557.677 -1.59531 -0.590255 0
M  V30 6013 O 558.862 -1.87351 -0.511205 0
M  V30 6014 C 555.992 -3.43586 -0.506548 0
M  V30 6015 C 554.946 -4.26963 0.297753 0
M  V30 6016 C 554.272 -5.30831 -0.642094 0
M  V30 6017 C 555.572 -4.99643 1.52166 0
M  V30 6018 H 557.266 -2.77074 1.13447 0
M  V30 6019 H 554.812 -1.33207 0.546971 0
M  V30 6020 H 556.765 -4.11754 -0.896474 0
M  V30 6021 H 555.489 -2.96681 -1.36558 0
M  V30 6022 H 554.148 -3.60437 0.669391 0
M  V30 6023 H 553.796 -4.8018 -1.49788 0
M  V30 6024 H 553.496 -5.87501 -0.107968 0
M  V30 6025 H 555.02 -6.01862 -1.02927 0
M  V30 6026 H 556.434 -5.6051 1.20421 0
M  V30 6027 H 554.831 -5.66022 1.99347 0
M  V30 6028 H 555.901 -4.27701 2.28474 0
M  V30 6029 N 557.244 -0.608902 -1.45362 0
M  V30 6030 C 558.191 0.109172 -2.30542 0
M  V30 6031 C 559.161 0.858704 -1.42181 0
M  V30 6032 O 560.346 0.844178 -1.71109 0
M  V30 6033 C 557.486 1.09971 -3.27109 0
M  V30 6034 C 556.599 0.350911 -4.30572 0
M  V30 6035 C 555.734 1.33129 -5.14247 0
M  V30 6036 C 554.773 0.570377 -6.09437 0
M  V30 6037 N 553.91 1.5001 -6.85887 0
M  V30 6038 H 558.75 -0.623195 -2.91411 0
M  V30 6039 H 556.287 -0.319122 -1.43597 0
M  V30 6040 H 558.245 1.68714 -3.81564 0
M  V30 6041 H 556.875 1.79947 -2.67991 0
M  V30 6042 H 555.927 -0.352054 -3.78767 0
M  V30 6043 H 557.239 -0.242725 -4.98209 0
M  V30 6044 H 556.393 1.99074 -5.73109 0
M  V30 6045 H 555.132 1.95885 -4.46632 0
M  V30 6046 H 554.137 -0.102702 -5.49704 0
M  V30 6047 H 555.362 -0.0521607 -6.7908 0
M  V30 6048 H 553.308 2.11529 -6.2096 0
M  V30 6049 H 553.225 0.959934 -7.49881 0
M  V30 6050 H 554.493 2.14909 -7.49289 0
M  V30 6051 N 558.722 1.53707 -0.348139 0
M  V30 6052 C 559.685 2.23812 0.494058 0
M  V30 6053 C 560.685 1.23989 1.02388 0
M  V30 6054 O 561.875 1.48395 0.912396 0
M  V30 6055 C 559.007 2.96133 1.68872 0
M  V30 6056 H 560.2 2.99663 -0.119141 0
M  V30 6057 H 557.753 1.55983 -0.0995539 0
M  V30 6058 H 558.488 2.24481 2.34049 0
M  V30 6059 H 558.273 3.69357 1.31596 0
M  V30 6060 H 559.763 3.49475 2.28597 0
M  V30 6061 N 560.2 0.0768682 1.57412 0
M  V30 6062 C 561.447 -0.591085 1.93681 0
M  V30 6063 C 561.775 -1.69311 0.957286 0
M  V30 6064 O 561.03 -1.95682 -0.0262428 0
M  V30 6065 C 561.329 -1.20268 3.36557 0
M  V30 6066 C 560.995 -0.226286 4.50332 0
M  V30 6067 C 559.657 0.0423142 4.81181 0
M  V30 6068 C 562.009 0.441415 5.19327 0
M  V30 6069 C 559.337 0.985616 5.78362 0
M  V30 6070 C 561.689 1.37307 6.17519 0
M  V30 6071 C 560.353 1.65009 6.46783 0
M  V30 6072 H 559.623 -0.216293 0.70873 0
M  V30 6073 H 562.27 0.148824 1.90921 0
M  V30 6074 H 560.575 -2.01844 3.35807 0
M  V30 6075 H 562.272 -1.72688 3.61911 0
M  V30 6076 H 558.862 -0.445821 4.26275 0
M  V30 6077 H 563.046 0.247023 4.95685 0
M  V30 6078 H 558.302 1.20743 5.99359 0
M  V30 6079 H 562.476 1.89637 6.70083 0
M  V30 6080 H 560.103 2.38263 7.21897 0
M  V30 6081 N 561.678 -1.56367 -0.196722 0
M  V30 6082 C 562.906 -1.84639 -0.933608 0
M  V30 6083 C 563.321 -0.659164 -1.76919 0
M  V30 6084 O 562.678 0.372142 -1.78665 0
M  V30 6085 C 562.729 -3.11694 -1.83109 0
M  V30 6086 O 562.45 -4.25838 -1.02924 0
M  V30 6087 C 563.951 -3.53132 -2.67979 0
M  V30 6088 H 561.171 -0.613188 -0.272473 0
M  V30 6089 H 563.715 -2.03475 -0.204465 0
M  V30 6090 H 561.87 -2.94759 -2.51387 0
M  V30 6091 H 562.284 -4.98178 -1.64069 0
M  V30 6092 H 563.758 -4.45005 -3.26611 0
M  V30 6093 H 564.235 -2.76045 -3.41608 0
M  V30 6094 H 564.841 -3.72592 -2.05074 0
M  V30 6095 N 563.156 0.464375 -1.50603 0
M  V30 6096 C 564.381 1.24372 -1.65971 0
M  V30 6097 C 564.806 1.84901 -0.345453 0
M  V30 6098 O 564.164 1.67596 0.691457 0
M  V30 6099 C 564.212 2.32331 -2.7578 0
M  V30 6100 O 563.316 3.37146 -2.375 0
M  V30 6101 H 562.657 0.365604 -0.554283 0
M  V30 6102 H 565.187 0.55183 -1.97018 0
M  V30 6103 H 565.197 2.77539 -2.99059 0
M  V30 6104 H 563.872 1.87648 -3.71162 0
M  V30 6105 H 562.449 2.97602 -2.24694 0
M  V30 6106 N 564.634 1.40294 0.718013 0
M  V30 6107 C 565.88 1.39648 1.47885 0
M  V30 6108 C 566.235 -0.0023879 1.924 0
M  V30 6109 O 565.528 -0.972304 1.65096 0
M  V30 6110 C 565.722 2.31814 2.72024 0
M  V30 6111 C 565.551 3.80523 2.3965 0
M  V30 6112 C 564.321 4.49351 2.3111 0
M  V30 6113 C 566.519 4.72077 2.04079 0
M  V30 6114 N 564.501 5.83305 1.91385 0
M  V30 6115 C 565.872 5.94809 1.74935 0
M  V30 6116 C 567.927 4.59935 1.90694 0
M  V30 6117 C 566.63 7.06755 1.33753 0
M  V30 6118 C 568.656 5.7182 1.50915 0
M  V30 6119 C 568.018 6.93637 1.22668 0
M  V30 6120 H 564.117 0.566263 0.539324 0
M  V30 6121 H 566.701 1.75986 0.832891 0
M  V30 6122 H 564.872 1.97607 3.34374 0
M  V30 6123 H 566.604 2.22042 3.38348 0
M  V30 6124 H 563.359 4.03002 2.4877 0
M  V30 6125 H 563.783 6.54239 1.74068 0
M  V30 6126 H 568.425 3.66274 2.11194 0
M  V30 6127 H 566.143 8.00302 1.11995 0
M  V30 6128 H 569.729 5.64421 1.4114 0
M  V30 6129 H 568.609 7.78743 0.923502 0
M  V30 6130 N 566.112 -0.949982 1.2575 0
M  V30 6131 C 567.34 -1.72972 1.13527 0
M  V30 6132 C 567.755 -1.8623 -0.310453 0
M  V30 6133 O 567.112 -1.36336 -1.2132 0
M  V30 6134 C 567.163 -3.14108 1.78936 0
M  V30 6135 O 566.884 -3.01493 3.17858 0
M  V30 6136 C 568.385 -4.08338 1.72554 0
M  V30 6137 H 565.605 -0.541864 0.395758 0
M  V30 6138 H 568.149 -1.19151 1.66202 0
M  V30 6139 H 566.304 -3.64858 1.30221 0
M  V30 6140 H 566.718 -3.90559 3.50092 0
M  V30 6141 H 568.192 -5.04963 2.22973 0
M  V30 6142 H 568.669 -4.33742 0.690251 0
M  V30 6143 H 569.275 -3.63506 2.2078 0
M  V30 6144 N 567.59 -1.07411 -1.15328 0
M  V30 6145 C 568.553 -0.698914 -2.18284 0
M  V30 6146 C 569.553 0.261149 -1.58665 0
M  V30 6147 O 570.743 0.0420277 -1.74149 0
M  V30 6148 C 567.875 -0.0302427 -3.40887 0
M  V30 6149 H 569.068 -1.61045 -2.52991 0
M  V30 6150 H 566.621 -0.870724 -1.298 0
M  V30 6151 H 567.356 0.893505 -3.11748 0
M  V30 6152 H 567.141 -0.720759 -3.85419 0
M  V30 6153 H 568.631 0.21759 -4.17033 0
M  V30 6154 N 569.068 1.32177 -0.85831 0
M  V30 6155 C 570.016 2.30729 -0.294442 0
M  V30 6156 C 571.01 1.59009 0.584165 0
M  V30 6157 O 572.216 1.73713 0.471562 0
M  V30 6158 H 568.591 0.748097 -0.0765171 0
M  V30 6159 H 570.562 2.75774 -1.1398 0
M  V30 6160 C 569.311 3.44098 0.499208 0
M  V30 6161 H 568.634 3.99449 -0.167579 0
M  V30 6162 H 570.074 4.15202 0.859273 0
M  V30 6163 C 568.533 2.91684 1.68588 0
M  V30 6164 O 569.063 2.89481 2.78503 0
M  V30 6165 N 567.269 2.48036 1.51415 0
M  V30 6166 H 566.816 2.50027 0.620006 0
M  V30 6167 H 566.774 2.13322 2.30957 0
M  V30 6168 N 570.547 0.616602 1.45037 0
M  V30 6169 C 571.775 0.121968 2.0654 0
M  V30 6170 C 572.19 -1.19743 1.45969 0
M  V30 6171 O 571.547 -1.73133 0.577168 0
M  V30 6172 C 571.598 -0.0145171 3.61497 0
M  V30 6173 O 571.319 1.25269 4.19809 0
M  V30 6174 C 572.82 -0.539555 4.40004 0
M  V30 6175 H 570.04 0.0729837 0.667019 0
M  V30 6176 H 572.584 0.846891 1.8614 0
M  V30 6177 H 570.739 -0.689809 3.81209 0
M  V30 6178 H 571.153 1.08816 5.13088 0
M  V30 6179 H 572.627 -0.584112 5.48901 0
M  V30 6180 H 573.104 -1.56368 4.10421 0
M  V30 6181 H 573.71 0.101995 4.25178 0
M  V30 6182 N 572.025 -1.5352 0.356285 0
M  V30 6183 C 573.273 -2.00719 -0.235837 0
M  V30 6184 C 573.594 -1.24551 -1.5004 0
M  V30 6185 O 572.864 -0.356185 -1.92635 0
M  V30 6186 H 571.444 -0.741542 -0.0901366 0
M  V30 6187 H 574.106 -1.88887 0.480378 0
M  V30 6188 H 573.202 -3.08551 -0.469357 0
M  V30 6189 N 573.503 -0.0852151 -1.57369 0
M  V30 6190 C 574.752 0.580443 -1.93168 0
M  V30 6191 C 575.065 1.6995 -0.968319 0
M  V30 6192 O 576.271 2.42564 -1.21963 0
M  V30 6193 C 574.727 1.08386 -3.43192 0
M  V30 6194 C 574.335 -0.00491388 -4.48 0
M  V30 6195 C 576.079 1.72281 -3.87968 0
M  V30 6196 C 573.986 0.513299 -5.89168 0
M  V30 6197 H 572.916 0.22059 -0.72101 0
M  V30 6198 H 575.567 -0.159621 -1.82804 0
M  V30 6199 H 573.949 1.8773 -3.48674 0
M  V30 6200 H 575.123 -0.780032 -4.5415 0
M  V30 6201 H 573.438 -0.548453 -4.12772 0
M  V30 6202 H 576.035 2.12108 -4.9083 0
M  V30 6203 H 576.378 2.58811 -3.26071 0
M  V30 6204 H 576.911 0.995359 -3.85146 0
M  V30 6205 H 573.65 -0.315153 -6.54742 0
M  V30 6206 H 573.17 1.25564 -5.8651 0
M  V30 6207 H 574.849 0.985433 -6.39451 0
M  V30 6208 N 574.981 1.5647 0.188427 0
M  V30 6209 C 575.891 1.98285 1.2538 0
M  V30 6210 C 576.907 0.891535 1.49424 0
M  V30 6211 O 578.083 1.19782 1.61908 0
M  V30 6212 C 575.148 2.31965 2.57669 0
M  V30 6213 C 574.209 3.54838 2.41638 0
M  V30 6214 C 573.442 3.86901 3.67618 0
M  V30 6215 O 573.665 3.20163 4.72072 0
M  V30 6216 O 572.599 4.80309 3.62749 0
M  V30 6217 H 576.425 2.89145 0.928912 0
M  V30 6218 H 574.01 1.44112 0.393955 0
M  V30 6219 H 575.892 2.54673 3.35737 0
M  V30 6220 H 574.567 1.44271 2.89771 0
M  V30 6221 H 573.474 3.37369 1.61658 0
M  V30 6222 H 574.807 4.43019 2.14465 0
M  V30 6223 N 576.459 -0.456382 1.50847 0
M  V30 6224 C 577.422 -1.53493 1.70213 0
M  V30 6225 C 578.422 -1.50264 0.572481 0
M  V30 6226 O 579.612 -1.52623 0.839751 0
M  V30 6227 C 576.744 -2.93091 1.741 0
M  V30 6228 H 577.937 -1.37633 2.66453 0
M  V30 6229 H 575.49 -0.683776 1.4055 0
M  V30 6230 H 576.225 -3.14378 0.796063 0
M  V30 6231 H 576.01 -2.9684 2.5618 0
M  V30 6232 H 577.5 -3.71368 1.90987 0
M  V30 6233 N 577.937 -1.40673 -0.710563 0
M  V30 6234 C 579.177 -1.40677 -1.48288 0
M  V30 6235 C 579.541 -0.0097193 -1.91998 0
M  V30 6236 O 580.742 0.115381 -2.68552 0
M  V30 6237 C 579.013 -2.37289 -2.67262 0
M  V30 6238 S 580.572 -2.55694 -3.56603 0
M  V30 6239 H 577.39 -0.498545 -0.506926 0
M  V30 6240 H 579.992 -1.76984 -0.830472 0
M  V30 6241 H 578.696 -3.37617 -2.3333 0
M  V30 6242 H 578.227 -2.02282 -3.3741 0
M  V30 6243 H 580.242 -1.81311 -4.61888 0
M  V30 6244 N 579.415 0.9433 -1.26252 0
M  V30 6245 C 580.831 1.21644 -1.03319 0
M  V30 6246 C 581.031 2.0003 0.242983 0
M  V30 6247 O 580.087 2.33838 0.952688 0
M  V30 6248 C 581.4 1.97978 -2.2633 0
M  V30 6249 C 582.948 2.10978 -2.31209 0
M  V30 6250 C 583.423 2.90713 -3.53907 0
M  V30 6251 N 584.914 2.98287 -3.54371 0
M  V30 6252 C 585.649 3.60406 -4.45976 0
M  V30 6253 N 585.145 4.24043 -5.47868 0
M  V30 6254 N 586.938 3.57658 -4.33633 0
M  V30 6255 H 579.089 0.419221 -2.08222 0
M  V30 6256 H 581.352 0.247995 -0.914988 0
M  V30 6257 H 581.058 1.47788 -3.19142 0
M  V30 6258 H 580.932 2.9865 -2.30408 0
M  V30 6259 H 583.319 2.6036 -1.38913 0
M  V30 6260 H 583.4 1.09575 -2.31143 0
M  V30 6261 H 583.044 2.42018 -4.46531 0
M  V30 6262 H 582.974 3.92367 -3.5122 0
M  V30 6263 H 585.465 2.53044 -2.80673 0
M  V30 6264 H 585.778 4.69334 -6.13959 0
M  V30 6265 H 584.123 4.22637 -5.51728 0
M  V30 6266 H 587.314 3.07134 -3.53251 0
M  V30 6267 H 587.487 4.05782 -5.05218 0
M  V30 6268 N 580.893 1.08022 1.14757 0
M  V30 6269 C 581.826 0.650738 2.18725 0
M  V30 6270 C 582.804 -0.335496 1.59101 0
M  V30 6271 O 583.988 -0.240295 1.86962 0
M  V30 6272 C 581.115 -0.0434377 3.38672 0
M  V30 6273 C 580.161 0.90232 4.16846 0
M  V30 6274 S 580.994 2.40693 4.78359 0
M  V30 6275 C 582.15 1.72475 6.01667 0
M  V30 6276 H 582.383 1.53152 2.54817 0
M  V30 6277 H 579.916 0.894823 1.25826 0
M  V30 6278 H 581.874 -0.437684 4.0816 0
M  V30 6279 H 580.535 -0.900659 3.0091 0
M  V30 6280 H 579.728 0.363445 5.02688 0
M  V30 6281 H 579.33 1.23728 3.52941 0
M  V30 6282 H 581.622 1.0404 6.69464 0
M  V30 6283 H 582.565 2.56175 6.60136 0
M  V30 6284 H 582.973 1.19979 5.51602 0
M  V30 6285 N 582.371 -1.3172 0.865308 0
M  V30 6286 C 583.334 -2.26918 0.322627 0
M  V30 6287 C 584.334 -1.52031 -0.523751 0
M  V30 6288 O 585.524 -1.70973 -0.333727 0
M  V30 6289 C 582.656 -3.36558 -0.542338 0
M  V30 6290 H 583.849 -2.76432 1.16298 0
M  V30 6291 H 581.402 -1.42573 0.640512 0
M  V30 6292 H 582.137 -2.92329 -1.40407 0
M  V30 6293 H 581.922 -3.92048 0.0636395 0
M  V30 6294 H 583.412 -4.07465 -0.91446 0
M  V30 6295 N 583.85 -0.624285 -1.44708 0
M  V30 6296 C 585.09 -0.129273 -2.03991 0
M  V30 6297 C 585.454 1.22321 -1.47992 0
M  V30 6298 O 586.654 1.80993 -1.98734 0
M  V30 6299 C 584.926 -0.108231 -3.57236 0
M  V30 6300 S 586.485 0.323158 -4.37608 0
M  V30 6301 H 583.303 -0.0577318 -0.708652 0
M  V30 6302 H 585.904 -0.826139 -1.77187 0
M  V30 6303 H 584.609 -1.0958 -3.955 0
M  V30 6304 H 584.139 0.610101 -3.8864 0
M  V30 6305 H 586.154 1.56894 -4.70743 0
M  V30 6306 N 585.328 1.53329 -0.364422 0
M  V30 6307 C 586.576 2.00842 0.225189 0
M  V30 6308 C 586.897 1.25345 1.49378 0
M  V30 6309 O 586.167 0.366396 1.92443 0
M  V30 6310 H 584.747 0.742009 0.0862027 0
M  V30 6311 H 587.409 1.8863 -0.490389 0
M  V30 6312 H 586.505 3.08795 0.452987 0
M  V30 6313 N 586.806 0.0935595 1.57322 0
M  V30 6314 C 588.054 -0.569383 1.93913 0
M  V30 6315 C 588.375 -1.68817 0.976009 0
M  V30 6316 O 587.645 -1.9588 0.0278099 0
M  V30 6317 H 586.225 -0.21332 0.715894 0
M  V30 6318 H 588.887 0.156531 1.9427 0
M  V30 6319 H 587.983 -0.980577 2.96296 0
M  V30 6320 N 588.284 -1.56567 -0.180126 0
M  V30 6321 C 589.234 -1.92132 -1.22756 0
M  V30 6322 C 590.218 -0.788639 -1.40247 0
M  V30 6323 O 591.41 -1.05171 -1.42366 0
M  V30 6324 C 588.539 -2.27719 -2.56902 0
M  V30 6325 C 587.625 -3.47481 -2.43142 0
M  V30 6326 N 588.016 -4.64973 -1.99082 0
M  V30 6327 C 586.314 -3.51914 -2.73994 0
M  V30 6328 C 587.015 -5.47119 -1.97574 0
M  V30 6329 N 585.991 -4.87925 -2.39645 0
M  V30 6330 H 589.793 -2.80464 -0.878478 0
M  V30 6331 H 587.307 -1.57686 -0.388463 0
M  V30 6332 H 589.304 -2.51389 -3.32579 0
M  V30 6333 H 587.964 -1.40722 -2.92621 0
M  V30 6334 H 588.975 -4.89358 -1.69557 0
M  V30 6335 H 585.652 -2.75372 -3.13809 0
M  V30 6336 H 587.042 -6.51254 -1.65282 0
M  V30 6337 N 589.762 0.448376 -1.51087 0
M  V30 6338 C 591.01 1.19635 -1.62886 0
M  V30 6339 C 591.331 1.91977 -0.342024 0
M  V30 6340 O 590.601 1.85094 0.641636 0
M  V30 6341 H 589.181 0.444598 -0.600285 0
M  V30 6342 H 591.843 0.515138 -1.87969 0
M  V30 6343 H 590.939 1.93194 -2.45117 0
M  V30 6344 N 591.24 1.41047 0.703093 0
M  V30 6345 C 592.47 1.43133 1.48985 0
M  V30 6346 C 592.878 0.0328537 1.89171 0
M  V30 6347 O 592.221 -0.956469 1.56835 0
M  V30 6348 C 592.283 2.26991 2.78775 0
M  V30 6349 C 591.947 3.7525 2.60837 0
M  V30 6350 C 592.944 4.67591 2.27276 0
M  V30 6351 C 590.629 4.19208 2.76712 0
M  V30 6352 C 592.623 6.01877 2.09817 0
M  V30 6353 C 590.31 5.53561 2.5887 0
M  V30 6354 C 591.308 6.4471 2.25472 0
M  V30 6355 O 590.996 7.76584 2.07778 0
M  V30 6356 H 590.728 0.489788 0.465922 0
M  V30 6357 H 593.282 1.85886 0.873822 0
M  V30 6358 H 591.512 1.79038 3.42757 0
M  V30 6359 H 593.201 2.20867 3.40547 0
M  V30 6360 H 593.967 4.34923 2.14633 0
M  V30 6361 H 589.846 3.48572 3.01693 0
M  V30 6362 H 593.39 6.72986 1.83671 0
M  V30 6363 H 589.287 5.85811 2.71102 0
M  V30 6364 H 590.055 7.87649 2.22601 0
M  V30 6365 N 592.718 -0.936591 1.26751 0
M  V30 6366 C 593.943 -1.72288 1.15462 0
M  V30 6367 C 594.368 -1.85915 -0.285887 0
M  V30 6368 O 593.726 -1.35272 -1.20711 0
M  V30 6369 C 593.774 -3.10503 1.83359 0
M  V30 6370 O 592.878 -3.96745 1.1255 0
M  V30 6371 H 592.219 -0.52843 0.402067 0
M  V30 6372 H 594.749 -1.17271 1.67656 0
M  V30 6373 H 594.759 -3.60867 1.90365 0
M  V30 6374 H 593.434 -2.99901 2.88153 0
M  V30 6375 H 592.011 -3.55191 1.13551 0
M  V30 6376 N 594.196 -1.08629 -1.14182 0
M  V30 6377 C 595.146 -0.687882 -2.17376 0
M  V30 6378 C 596.13 0.293632 -1.58198 0
M  V30 6379 O 597.322 0.105292 -1.76687 0
M  V30 6380 C 594.451 -0.101184 -3.43151 0
M  V30 6381 C 593.537 -1.10862 -4.09354 0
M  V30 6382 N 593.928 -2.29285 -4.50846 0
M  V30 6383 C 592.226 -0.944897 -4.35876 0
M  V30 6384 C 592.927 -2.93305 -5.02342 0
M  V30 6385 N 591.903 -2.20903 -4.96692 0
M  V30 6386 H 595.705 -1.58963 -2.472 0
M  V30 6387 H 593.219 -0.961329 -1.3089 0
M  V30 6388 H 595.216 0.202209 -4.16409 0
M  V30 6389 H 593.876 0.795522 -3.14804 0
M  V30 6390 H 594.887 -2.66927 -4.43813 0
M  V30 6391 H 591.564 -0.102186 -4.17375 0
M  V30 6392 H 592.954 -3.93932 -5.44304 0
M  V30 6393 N 595.674 1.31259 -0.872281 0
M  V30 6394 C 596.914 1.98418 -0.490894 0
M  V30 6395 C 597.278 1.67429 0.939755 0
M  V30 6396 O 598.479 2.27818 1.42661 0
M  V30 6397 C 596.75 3.49583 -0.743408 0
M  V30 6398 S 598.309 4.36359 -0.462226 0
M  V30 6399 H 595.127 0.687005 -0.183151 0
M  V30 6400 H 597.729 1.59619 -1.12881 0
M  V30 6401 H 596.433 3.69627 -1.78338 0
M  V30 6402 H 595.964 3.93291 -0.0925758 0
M  V30 6403 H 597.979 4.91173 0.704525 0
M  V30 6404 N 597.152 0.631951 1.44375 0
M  V30 6405 C 598.377 0.142146 2.06912 0
M  V30 6406 C 598.802 -1.17456 1.4692 0
M  V30 6407 O 598.16 -1.72074 0.570975 0
M  V30 6408 C 598.208 0.0417952 3.60576 0
M  V30 6409 O 597.312 -1.00194 4.00044 0
M  V30 6410 H 596.653 0.0851491 0.658518 0
M  V30 6411 H 599.183 0.868863 1.85235 0
M  V30 6412 H 599.193 -0.148517 4.0773 0
M  V30 6413 H 597.868 1.0031 4.03622 0
M  V30 6414 H 596.445 -0.786131 3.64519 0
M  V30 6415 N 598.631 -1.53133 0.372548 0
M  V30 6416 C 599.879 -2.00958 -0.214534 0
M  V30 6417 C 600.2 -1.26135 -1.48711 0
M  V30 6418 O 599.47 -0.376597 -1.92246 0
M  V30 6419 H 598.05 -0.742456 -0.0822664 0
M  V30 6420 H 600.712 -1.88367 0.500385 0
M  V30 6421 H 599.808 -3.09031 -0.436605 0
M  V30 6422 N 600.109 -0.101901 -1.5727 0
M  V30 6423 C 601.039 0.851544 -2.17419 0
M  V30 6424 C 602.02 1.28942 -1.10941 0
M  V30 6425 O 603.205 1.35509 -1.39107 0
M  V30 6426 C 600.335 2.10816 -2.75996 0
M  V30 6427 C 599.289 1.80867 -3.87906 0
M  V30 6428 C 598.615 3.13413 -4.33216 0
M  V30 6429 C 599.915 1.0903 -5.10793 0
M  V30 6430 H 601.609 0.350381 -2.97343 0
M  V30 6431 H 599.155 0.16709 -1.43027 0
M  V30 6432 H 601.108 2.77959 -3.16729 0
M  V30 6433 H 599.832 2.63227 -1.93337 0
M  V30 6434 H 598.491 1.16119 -3.47724 0
M  V30 6435 H 598.139 3.63725 -3.47438 0
M  V30 6436 H 597.839 2.94155 -5.08671 0
M  V30 6437 H 599.363 3.81704 -4.76586 0
M  V30 6438 H 600.777 1.66295 -5.48652 0
M  V30 6439 H 599.174 0.99927 -5.91722 0
M  V30 6440 H 600.244 0.0741704 -4.84843 0
M  V30 6441 N 601.587 1.56661 0.17182 0
M  V30 6442 C 602.998 1.71652 0.734329 0
M  V30 6443 C 603.349 0.712335 1.82812 0
M  V30 6444 O 602.474 -0.126401 2.16031 0
M  V30 6445 C 603.069 3.11226 1.3388 0
M  V30 6446 C 601.628 3.27904 1.84813 0
M  V30 6447 C 600.775 2.67603 0.726917 0
M  V30 6448 H 603.726 1.5861 -0.0535665 0
M  V30 6449 H 603.747 3.09849 2.20849 0
M  V30 6450 H 603.259 3.8429 0.54249 0
M  V30 6451 H 601.36 2.59796 2.6709 0
M  V30 6452 H 601.473 4.35637 1.99392 0
M  V30 6453 H 599.837 2.274 1.14723 0
M  V30 6454 H 600.62 3.43252 -0.0575334 0
M  V30 6455 N 603.065 -0.440357 1.51323 0
M  V30 6456 C 604.013 -1.55492 1.72988 0
M  V30 6457 C 605.007 -1.58564 0.596138 0
M  V30 6458 O 606.213 -1.62345 0.777443 0
M  V30 6459 H 602.588 -0.516532 0.546533 0
M  V30 6460 H 604.559 -1.34392 2.66423 0
M  V30 6461 C 603.308 -2.93176 1.86931 0
M  V30 6462 H 602.631 -2.91543 2.73574 0
M  V30 6463 H 604.071 -3.70537 2.06103 0
M  V30 6464 C 602.53 -3.30988 0.628365 0
M  V30 6465 O 603.06 -4.01106 -0.218367 0
M  V30 6466 N 601.266 -2.86719 0.473339 0
M  V30 6467 H 600.813 -2.2983 1.16345 0
M  V30 6468 H 600.771 -3.12381 -0.355727 0
M  V30 6469 N 604.543 -1.41418 -0.695603 0
M  V30 6470 C 605.792 -1.40073 -1.4513 0
M  V30 6471 C 606.105 -0.0130439 -1.95596 0
M  V30 6472 O 607.311 0.123032 -2.71221 0
M  V30 6473 C 605.767 -2.46286 -2.62433 0
M  V30 6474 C 605.375 -3.90962 -2.18753 0
M  V30 6475 C 607.119 -2.54077 -3.40066 0
M  V30 6476 C 605.026 -4.88728 -3.33015 0
M  V30 6477 H 603.956 -0.520903 -0.545138 0
M  V30 6478 H 606.607 -1.67242 -0.75515 0
M  V30 6479 H 604.989 -2.12248 -3.34315 0
M  V30 6480 H 606.163 -4.34248 -1.54161 0
M  V30 6481 H 604.478 -3.86831 -1.54114 0
M  V30 6482 H 607.075 -3.24303 -4.25125 0
M  V30 6483 H 607.418 -1.5776 -3.8525 0
M  V30 6484 H 607.951 -2.87206 -2.75241 0
M  V30 6485 H 604.69 -5.86449 -2.92844 0
M  V30 6486 H 604.21 -4.50091 -3.96457 0
M  V30 6487 H 605.889 -5.09483 -3.98793 0
M  V30 6488 N 606.021 0.929856 -1.27246 0
M  V30 6489 C 607.251 1.70895 -1.16096 0
M  V30 6490 C 607.659 1.87039 0.285122 0
M  V30 6491 O 607.002 1.38557 1.20614 0
M  V30 6492 C 607.064 3.12919 -1.7698 0
M  V30 6493 C 606.728 3.2012 -3.26148 0
M  V30 6494 C 607.725 3.02533 -4.22812 0
M  V30 6495 C 605.41 3.43148 -3.66817 0
M  V30 6496 C 607.404 3.07861 -5.58122 0
M  V30 6497 C 605.091 3.48109 -5.02258 0
M  V30 6498 C 606.089 3.30483 -5.97721 0
M  V30 6499 O 605.777 3.35175 -7.30694 0
M  V30 6500 H 605.509 0.54152 -0.404639 0
M  V30 6501 H 608.063 1.17342 -1.68582 0
M  V30 6502 H 606.293 3.67945 -1.18969 0
M  V30 6503 H 607.982 3.72787 -1.60576 0
M  V30 6504 H 608.748 2.84586 -3.92728 0
M  V30 6505 H 604.627 3.55918 -2.9299 0
M  V30 6506 H 608.171 2.94021 -6.32612 0
M  V30 6507 H 604.068 3.65579 -5.31998 0
M  V30 6508 H 604.836 3.51644 -7.39114 0
M  V30 6509 N 607.499 1.09233 1.13605 0
M  V30 6510 C 608.745 0.828385 1.8511 0
M  V30 6511 C 609.078 -0.64437 1.83198 0
M  V30 6512 O 608.353 -1.47428 1.26867 0
M  V30 6513 C 608.636 1.36167 3.33363 0
M  V30 6514 C 608.489 2.90038 3.438 0
M  V30 6515 C 609.808 0.993819 4.28732 0
M  V30 6516 H 606.927 0.30239 0.672108 0
M  V30 6517 H 609.569 1.35339 1.33355 0
M  V30 6518 H 607.719 0.9151 3.77569 0
M  V30 6519 H 609.391 3.43128 3.08319 0
M  V30 6520 H 607.634 3.27271 2.84739 0
M  V30 6521 H 608.305 3.22428 4.48045 0
M  V30 6522 H 610.781 1.37893 3.92587 0
M  V30 6523 H 609.657 1.39403 5.30903 0
M  V30 6524 H 609.918 -0.0982206 4.41991 0
M  V30 6525 N 608.977 -1.30795 0.87923 0
M  V30 6526 C 609.925 -2.30231 0.331112 0
M  V30 6527 C 610.919 -1.59918 -0.558794 0
M  V30 6528 O 612.125 -1.74441 -0.443866 0
M  V30 6529 H 608.5 -0.746785 0.088409 0
M  V30 6530 H 610.471 -2.73925 1.18353 0
M  V30 6531 C 609.22 -3.44848 -0.444401 0
M  V30 6532 H 608.543 -3.99131 0.231106 0
M  V30 6533 H 609.983 -4.16516 -0.793109 0
M  V30 6534 C 608.442 -2.94329 -1.63926 0
M  V30 6535 O 608.972 -2.93875 -2.73862 0
M  V30 6536 N 607.178 -2.50413 -1.4745 0
M  V30 6537 H 606.725 -2.50982 -0.58015 0
M  V30 6538 H 606.683 -2.16969 -2.27534 0
M  V30 6539 N 610.455 -0.639598 -1.44038 0
M  V30 6540 C 611.702 -0.14748 -2.01962 0
M  V30 6541 C 612.03 1.23372 -1.50365 0
M  V30 6542 O 611.285 1.8345 -0.681501 0
M  V30 6543 C 611.584 -0.0925348 -3.5728 0
M  V30 6544 C 611.25 -1.41365 -4.28167 0
M  V30 6545 C 609.912 -1.77545 -4.47248 0
M  V30 6546 C 612.264 -2.2853 -4.68427 0
M  V30 6547 C 609.592 -3.00583 -5.03852 0
M  V30 6548 C 611.944 -3.50846 -5.26393 0
M  V30 6549 C 610.608 -3.8724 -5.43692 0
M  V30 6550 H 609.878 -0.0539666 -0.739032 0
M  V30 6551 H 612.525 -0.827599 -1.72694 0
M  V30 6552 H 610.83 0.670987 -3.86012 0
M  V30 6553 H 612.527 0.304891 -3.99839 0
M  V30 6554 H 609.117 -1.1221 -4.13651 0
M  V30 6555 H 613.301 -2.0187 -4.5339 0
M  V30 6556 H 608.557 -3.28846 -5.15432 0
M  V30 6557 H 612.731 -4.18616 -5.56537 0
M  V30 6558 H 610.358 -4.8266 -5.87319 0
M  V30 6559 N 611.933 1.52934 -0.380664 0
M  V30 6560 C 613.161 2.05886 0.204599 0
M  V30 6561 C 613.576 1.25305 1.41223 0
M  V30 6562 O 612.933 0.297504 1.80059 0
M  V30 6563 C 612.984 3.56764 0.583249 0
M  V30 6564 O 612.705 4.34292 -0.576398 0
M  V30 6565 C 614.206 4.2603 1.2253 0
M  V30 6566 H 611.426 0.670193 0.0328991 0
M  V30 6567 H 613.97 1.97148 -0.543397 0
M  V30 6568 H 612.125 3.65603 1.28115 0
M  V30 6569 H 612.539 5.23819 -0.267119 0
M  V30 6570 H 614.013 5.32868 1.44068 0
M  V30 6571 H 614.49 3.80698 2.19011 0
M  V30 6572 H 615.096 4.21485 0.568407 0
M  V30 6573 N 613.412 0.11024 1.57214 0
M  V30 6574 C 614.823 -0.416527 1.81994 0
M  V30 6575 C 615.174 -1.67183 1.02686 0
M  V30 6576 O 614.299 -2.14823 0.260782 0
M  V30 6577 C 614.894 -0.762466 3.30109 0
M  V30 6578 C 613.453 -1.23391 3.556 0
M  V30 6579 C 612.6 -0.238166 2.76275 0
M  V30 6580 H 615.551 0.335491 1.55113 0
M  V30 6581 H 615.572 -1.62068 3.44259 0
M  V30 6582 H 615.084 0.151346 3.87805 0
M  V30 6583 H 613.185 -2.16492 3.03253 0
M  V30 6584 H 613.298 -1.18528 4.64207 0
M  V30 6585 H 611.662 -0.723421 2.4421 0
M  V30 6586 H 612.445 0.668591 3.36727 0
M  V30 6587 N 614.89 -1.56749 -0.16351 0
M  V30 6588 C 616.115 -1.86938 -0.898264 0
M  V30 6589 C 616.54 -0.697456 -1.74692 0
M  V30 6590 O 615.898 0.353327 -1.77824 0
M  V30 6591 C 615.946 -3.15599 -1.74441 0
M  V30 6592 O 615.05 -2.98371 -2.8469 0
M  V30 6593 H 614.391 -0.614659 -0.251178 0
M  V30 6594 H 616.921 -2.03979 -0.159298 0
M  V30 6595 H 616.931 -3.47202 -2.14277 0
M  V30 6596 H 615.606 -4.00505 -1.1211 0
M  V30 6597 H 614.183 -2.7814 -2.4838 0
M  V30 6598 N 616.368 0.432326 -1.51554 0
M  V30 6599 C 617.608 1.19076 -1.66133 0
M  V30 6600 C 617.972 1.88364 -0.371873 0
M  V30 6601 O 619.173 2.65904 -0.39349 0
M  V30 6602 C 617.444 2.1768 -2.83461 0
M  V30 6603 S 619.003 3.01943 -3.18396 0
M  V30 6604 H 615.821 0.403735 -0.585251 0
M  V30 6605 H 618.423 0.481554 -1.89476 0
M  V30 6606 H 617.127 1.65424 -3.75583 0
M  V30 6607 H 616.658 2.93174 -2.62322 0
M  V30 6608 H 618.673 4.19373 -2.65219 0
M  V30 6609 N 617.846 1.41785 0.688094 0
M  V30 6610 C 619.074 1.44915 1.47673 0
M  V30 6611 C 619.489 0.0565786 1.88715 0
M  V30 6612 O 618.846 -0.92579 1.57275 0
M  V30 6613 C 618.897 2.36452 2.73446 0
M  V30 6614 O 618.618 3.7029 2.34131 0
M  V30 6615 C 620.119 2.48463 3.67125 0
M  V30 6616 H 617.339 0.493324 0.454832 0
M  V30 6617 H 619.883 1.86153 0.846594 0
M  V30 6618 H 618.038 1.98502 3.3268 0
M  V30 6619 H 618.452 4.19183 3.15255 0
M  V30 6620 H 619.926 3.16662 4.52138 0
M  V30 6621 H 620.403 1.51826 4.12123 0
M  V30 6622 H 621.009 2.8708 3.13792 0
M  V30 6623 N 619.324 -0.923095 1.27737 0
M  V30 6624 C 620.571 -1.67127 1.14345 0
M  V30 6625 C 620.899 -1.92017 -0.30982 0
M  V30 6626 O 620.154 -1.51185 -1.24264 0
M  V30 6627 C 620.453 -3.04125 1.8773 0
M  V30 6628 C 620.119 -2.98929 3.37568 0
M  V30 6629 C 618.781 -2.9722 3.78436 0
M  V30 6630 C 621.133 -2.89875 4.33154 0
M  V30 6631 C 618.461 -2.84244 5.13247 0
M  V30 6632 C 620.813 -2.7844 5.68026 0
M  V30 6633 C 619.477 -2.75083 6.08182 0
M  V30 6634 H 618.747 -0.611562 0.418417 0
M  V30 6635 H 621.394 -1.07618 1.584 0
M  V30 6636 H 619.699 -3.67366 1.36196 0
M  V30 6637 H 621.396 -3.609 1.74792 0
M  V30 6638 H 617.986 -3.0105 3.05069 0
M  V30 6639 H 622.17 -2.9029 4.02548 0
M  V30 6640 H 617.426 -2.80034 5.43499 0
M  V30 6641 H 621.6 -2.70401 6.4176 0
M  V30 6642 H 619.227 -2.64786 7.12596 0
M  V30 6643 N 620.802 -1.09834 -1.13024 0
M  V30 6644 C 621.712 -0.753731 -2.22162 0
M  V30 6645 C 622.728 0.246105 -1.72251 0
M  V30 6646 O 623.904 0.0864051 -2.01215 0
M  V30 6647 C 620.969 -0.183958 -3.46212 0
M  V30 6648 C 620.03 -1.24028 -4.10993 0
M  V30 6649 C 619.263 -0.697597 -5.29121 0
M  V30 6650 O 619.486 0.478092 -5.68393 0
M  V30 6651 O 618.42 -1.4546 -5.84059 0
M  V30 6652 H 622.246 -1.66456 -2.5402 0
M  V30 6653 H 619.831 -0.873026 -1.21238 0
M  V30 6654 H 621.713 0.130257 -4.21199 0
M  V30 6655 H 620.388 0.699823 -3.16045 0
M  V30 6656 H 619.295 -1.60725 -3.37814 0
M  V30 6657 H 620.628 -2.09685 -4.45301 0
M  V30 6658 N 622.28 1.30327 -0.886154 0
M  V30 6659 C 623.528 1.9571 -0.504195 0
M  V30 6660 C 623.849 1.70294 0.950003 0
M  V30 6661 O 623.119 1.02718 1.66811 0
M  V30 6662 H 621.699 0.72412 -0.183465 0
M  V30 6663 H 624.361 1.58835 -1.12949 0
M  V30 6664 H 623.457 3.04704 -0.675431 0
M  V30 6665 N 623.758 0.647228 1.43697 0
M  V30 6666 C 624.668 -0.0487997 2.34549 0
M  V30 6667 C 625.684 -0.818586 1.53542 0
M  V30 6668 O 626.86 -0.767195 1.86215 0
M  V30 6669 C 623.925 -1.00734 3.31743 0
M  V30 6670 C 622.986 -0.23515 4.28655 0
M  V30 6671 C 622.219 -1.14803 5.21206 0
M  V30 6672 O 622.442 -2.38717 5.18045 0
M  V30 6673 O 621.376 -0.623667 5.9866 0
M  V30 6674 H 625.202 0.698863 2.9555 0
M  V30 6675 H 622.787 0.407412 1.43738 0
M  V30 6676 H 624.669 -1.55837 3.91526 0
M  V30 6677 H 623.344 -1.73534 2.73254 0
M  V30 6678 H 622.251 0.359319 3.7237 0
M  V30 6679 H 623.584 0.453152 4.9011 0
M  V30 6680 N 625.236 -1.5273 0.388769 0
M  V30 6681 C 626.184 -2.27975 -0.461527 0
M  V30 6682 C 627.178 -1.31854 -1.06352 0
M  V30 6683 O 628.384 -1.49394 -1.00406 0
M  V30 6684 H 624.759 -0.733088 -0.16759 0
M  V30 6685 H 626.73 -2.97765 0.194579 0
M  V30 6686 C 625.479 -3.09881 -1.577 0
M  V30 6687 H 624.802 -3.83701 -1.12309 0
M  V30 6688 H 626.242 -3.6567 -2.14619 0
M  V30 6689 C 624.701 -2.22159 -2.53272 0
M  V30 6690 O 625.231 -1.84802 -3.56667 0
M  V30 6691 N 623.437 -1.8633 -2.23001 0
M  V30 6692 H 622.984 -2.16909 -1.38954 0
M  V30 6693 H 622.942 -1.27927 -2.87197 0
M  V30 6694 N 626.714 -0.118576 -1.57153 0
M  V30 6695 C 627.942 0.54726 -1.99531 0
M  V30 6696 C 628.357 1.60251 -0.998246 0
M  V30 6697 O 627.714 1.82498 0.00893106 0
M  V30 6698 C 627.765 1.17378 -3.41913 0
M  V30 6699 O 627.486 0.160703 -4.37805 0
M  V30 6700 C 628.987 1.92297 -3.9942 0
M  V30 6701 H 626.207 0.144919 -0.655164 0
M  V30 6702 H 628.751 -0.20479 -2.03472 0
M  V30 6703 H 626.906 1.87661 -3.38913 0
M  V30 6704 H 627.32 0.61586 -5.20872 0
M  V30 6705 H 628.794 2.31462 -5.01128 0
M  V30 6706 H 629.271 2.79801 -3.38538 0
M  V30 6707 H 629.877 1.26777 -4.05965 0
M  V30 6708 N 628.193 1.56834 0.155195 0
M  V30 6709 C 629.439 1.83169 0.870467 0
M  V30 6710 C 629.772 0.698929 1.81187 0
M  V30 6711 O 629.047 -0.298035 1.92203 0
M  V30 6712 C 629.33 3.19965 1.65211 0
M  V30 6713 C 629.183 4.43792 0.732744 0
M  V30 6714 C 630.502 3.53885 2.61636 0
M  V30 6715 H 627.621 0.666288 0.315006 0
M  V30 6716 H 630.263 1.89513 0.135988 0
M  V30 6717 H 628.413 3.14687 2.27825 0
M  V30 6718 H 630.085 4.61148 0.118236 0
M  V30 6719 H 628.328 4.3378 0.0417906 0
M  V30 6720 H 628.999 5.36095 1.31552 0
M  V30 6721 H 631.475 3.5972 2.09143 0
M  V30 6722 H 630.351 4.50648 3.13381 0
M  V30 6723 H 630.612 2.79418 3.42605 0
M  V30 6724 N 629.671 -0.424282 1.51781 0
M  V30 6725 C 630.604 -1.53633 1.68737 0
M  V30 6726 C 631.582 -1.53549 0.534915 0
M  V30 6727 O 632.766 -1.72483 0.760391 0
M  V30 6728 C 629.893 -2.92195 1.71288 0
M  V30 6729 C 628.939 -3.10251 2.92654 0
M  V30 6730 S 629.772 -2.85166 4.53256 0
M  V30 6731 C 630.928 -4.25986 4.58571 0
M  V30 6732 H 631.161 -1.39018 2.62795 0
M  V30 6733 H 628.694 -0.614854 1.41629 0
M  V30 6734 H 630.652 -3.72059 1.73443 0
M  V30 6735 H 629.313 -3.04162 0.783847 0
M  V30 6736 H 628.506 -4.1159 2.90877 0
M  V30 6737 H 628.108 -2.38231 2.88308 0
M  V30 6738 H 630.4 -5.19392 4.35015 0
M  V30 6739 H 631.343 -4.32792 5.60444 0
M  V30 6740 H 631.751 -4.1025 3.87757 0
M  V30 6741 N 631.149 -1.42148 -0.680565 0
M  V30 6742 C 632.082 -1.39602 -1.80517 0
M  V30 6743 C 633.06 -0.261098 -1.6049 0
M  V30 6744 O 634.244 -0.450404 -1.8304 0
M  V30 6745 C 631.371 -1.18134 -3.1743 0
M  V30 6746 C 630.417 -2.34543 -3.56219 0
M  V30 6747 S 631.25 -3.97063 -3.59306 0
M  V30 6748 C 632.406 -3.77926 -4.98921 0
M  V30 6749 H 632.639 -2.3477 -1.82402 0
M  V30 6750 H 630.172 -1.28851 -0.850691 0
M  V30 6751 H 632.13 -1.06434 -3.96462 0
M  V30 6752 H 630.791 -0.245611 -3.13138 0
M  V30 6753 H 629.984 -2.15255 -4.55721 0
M  V30 6754 H 629.586 -2.42728 -2.84533 0
M  V30 6755 H 631.878 -3.3856 -5.86842 0
M  V30 6756 H 632.821 -4.77084 -5.23256 0
M  V30 6757 H 633.229 -3.10904 -4.71167 0
M  V30 6758 N 632.627 0.916307 -1.28225 0
M  V30 6759 C 633.557 2.0352 -1.14464 0
M  V30 6760 C 634.538 1.70045 -0.0430844 0
M  V30 6761 O 635.723 1.92954 -0.219619 0
M  V30 6762 C 632.853 3.37889 -0.803027 0
M  V30 6763 C 631.807 3.85516 -1.85908 0
M  V30 6764 C 631.133 5.1682 -1.37116 0
M  V30 6765 C 632.433 4.07655 -3.26519 0
M  V30 6766 H 634.127 2.1529 -2.08064 0
M  V30 6767 H 631.673 1.03446 -1.00174 0
M  V30 6768 H 633.626 4.15654 -0.693537 0
M  V30 6769 H 632.35 3.26164 0.168674 0
M  V30 6770 H 631.009 3.09953 -1.95767 0
M  V30 6771 H 630.657 5.01497 -0.38859 0
M  V30 6772 H 630.357 5.49657 -2.07728 0
M  V30 6773 H 631.881 5.97143 -1.27484 0
M  V30 6774 H 633.295 4.75953 -3.19596 0
M  V30 6775 H 631.692 4.51818 -3.94943 0
M  V30 6776 H 632.762 3.12553 -3.70727 0
M  V30 6777 N 634.105 1.10431 1.1244 0
M  V30 6778 C 635.037 0.710945 2.17895 0
M  V30 6779 C 636.05 -0.252315 1.60833 0
M  V30 6780 O 637.239 -0.03679 1.78462 0
M  V30 6781 C 634.339 0.0284262 3.38888 0
M  V30 6782 C 633.512 1.01585 4.2544 0
M  V30 6783 C 632.571 0.364826 5.24934 0
M  V30 6784 O 631.597 1.01561 5.60066 0
M  V30 6785 N 632.799 -0.87674 5.73841 0
M  V30 6786 H 635.564 1.61826 2.52255 0
M  V30 6787 H 633.125 0.993132 1.27861 0
M  V30 6788 H 635.117 -0.418568 4.0253 0
M  V30 6789 H 633.687 -0.781294 3.02679 0
M  V30 6790 H 632.907 1.64111 3.58415 0
M  V30 6791 H 634.195 1.68425 4.80115 0
M  V30 6792 H 633.593 -1.42483 5.47462 0
M  V30 6793 H 632.15 -1.26688 6.39369 0
M  V30 6794 N 635.583 -1.29855 0.893053 0
M  V30 6795 C 636.811 -1.99976 0.530788 0
M  V30 6796 C 637.226 -1.66889 -0.882799 0
M  V30 6797 O 636.583 -0.910352 -1.58173 0
M  V30 6798 C 636.634 -3.54547 0.705587 0
M  V30 6799 O 636.355 -3.86458 2.06353 0
M  V30 6800 C 637.856 -4.41937 0.347387 0
M  V30 6801 H 635.076 -0.639129 0.204339 0
M  V30 6802 H 637.62 -1.65549 1.20057 0
M  V30 6803 H 635.775 -3.87311 0.0830685 0
M  V30 6804 H 636.189 -4.81146 2.08803 0
M  V30 6805 H 637.663 -5.4954 0.520557 0
M  V30 6806 H 638.14 -4.33339 -0.715139 0
M  V30 6807 H 638.746 -4.14633 0.946567 0
M  V30 6808 N 637.061 -0.65484 -1.43351 0
M  V30 6809 C 638.024 0.0263562 -2.29185 0
M  V30 6810 C 639.024 0.748951 -1.42293 0
M  V30 6811 O 640.214 0.589957 -1.63906 0
M  V30 6812 C 637.346 1.04806 -3.2439 0
M  V30 6813 H 638.539 -0.728883 -2.90908 0
M  V30 6814 H 636.092 -0.416149 -1.50658 0
M  V30 6815 H 636.827 1.83247 -2.67565 0
M  V30 6816 H 636.612 0.533554 -3.88453 0
M  V30 6817 H 638.102 1.52372 -3.88809 0
M  V30 6818 N 638.539 1.52521 -0.396863 0
M  V30 6819 C 639.955 1.5953 -0.0471659 0
M  V30 6820 C 640.155 1.41044 1.43906 0
M  V30 6821 O 639.211 1.23122 2.20448 0
M  V30 6822 C 640.524 2.95972 -0.531113 0
M  V30 6823 C 642.072 3.09172 -0.488024 0
M  V30 6824 C 642.547 4.48075 -0.948281 0
M  V30 6825 N 644.038 4.54281 -0.9046 0
M  V30 6826 C 644.773 5.60007 -1.23205 0
M  V30 6827 N 644.269 6.73343 -1.63036 0
M  V30 6828 N 646.062 5.50151 -1.15282 0
M  V30 6829 H 638.213 1.62786 -1.36435 0
M  V30 6830 H 640.476 0.76514 -0.559701 0
M  V30 6831 H 640.182 3.14741 -1.56942 0
M  V30 6832 H 640.056 3.77143 0.0657922 0
M  V30 6833 H 642.443 2.90095 0.541211 0
M  V30 6834 H 642.524 2.29937 -1.12083 0
M  V30 6835 H 642.168 4.67894 -1.97578 0
M  V30 6836 H 642.098 5.25788 -0.292412 0
M  V30 6837 H 644.589 3.72918 -0.6116 0
M  V30 6838 H 644.902 7.49992 -1.86365 0
M  V30 6839 H 643.247 6.74655 -1.66929 0
M  V30 6840 H 646.438 4.6049 -0.840602 0
M  V30 6841 H 646.611 6.32444 -1.41133 0
M  V30 6842 N 640.017 0.126909 1.57088 0
M  V30 6843 C 641.264 -0.529168 1.95464 0
M  V30 6844 C 641.592 -1.6618 1.01067 0
M  V30 6845 O 640.847 -1.95667 0.0360254 0
M  V30 6846 C 641.146 -1.095 3.40212 0
M  V30 6847 C 640.812 -0.0829015 4.50824 0
M  V30 6848 C 639.474 0.195377 4.80803 0
M  V30 6849 C 641.826 0.606411 5.1766 0
M  V30 6850 C 639.154 1.16912 5.74933 0
M  V30 6851 C 641.506 1.56884 6.12838 0
M  V30 6852 C 640.17 1.85502 6.41206 0
M  V30 6853 H 639.44 -0.193636 0.715252 0
M  V30 6854 H 642.087 0.209489 1.90351 0
M  V30 6855 H 640.392 -1.91058 3.42059 0
M  V30 6856 H 642.089 -1.61087 3.67222 0
M  V30 6857 H 638.679 -0.309979 4.27478 0
M  V30 6858 H 642.863 0.404597 4.94648 0
M  V30 6859 H 638.119 1.3975 5.95214 0
M  V30 6860 H 642.293 2.10859 6.6371 0
M  V30 6861 H 639.92 2.61109 7.13951 0
M  V30 6862 N 641.495 -1.56914 -0.146875 0
M  V30 6863 C 642.425 -2.01308 -1.1831 0
M  V30 6864 C 643.406 -0.892664 -1.44795 0
M  V30 6865 O 644.591 -1.16048 -1.55713 0
M  V30 6866 C 641.721 -2.3938 -2.51624 0
M  V30 6867 C 640.675 -3.54608 -2.3966 0
M  V30 6868 C 640.001 -3.78493 -3.77686 0
M  V30 6869 C 641.301 -4.87269 -1.88058 0
M  V30 6870 H 642.995 -2.88123 -0.813964 0
M  V30 6871 H 640.541 -1.38615 -0.3901 0
M  V30 6872 H 642.494 -2.69037 -3.24341 0
M  V30 6873 H 641.218 -1.49502 -2.90373 0
M  V30 6874 H 639.877 -3.25116 -1.69396 0
M  V30 6875 H 639.525 -2.85866 -4.13871 0
M  V30 6876 H 639.225 -4.56039 -3.70543 0
M  V30 6877 H 640.749 -4.10576 -4.51951 0
M  V30 6878 H 642.163 -5.15644 -2.50568 0
M  V30 6879 H 640.56 -5.68622 -1.91805 0
M  V30 6880 H 641.63 -4.77634 -0.836277 0
M  V30 6881 N 642.974 0.416227 -1.52004 0
M  V30 6882 C 643.907 1.52736 -1.6955 0
M  V30 6883 C 644.885 1.53264 -0.54305 0
M  V30 6884 O 646.069 1.72077 -0.769527 0
M  V30 6885 C 643.196 2.91283 -1.72835 0
M  V30 6886 C 642.242 3.08695 -2.94295 0
M  V30 6887 S 643.075 2.82758 -4.54762 0
M  V30 6888 C 644.231 4.23548 -4.60823 0
M  V30 6889 H 644.464 1.37623 -2.63528 0
M  V30 6890 H 641.997 0.607335 -1.41954 0
M  V30 6891 H 643.955 3.71134 -1.75413 0
M  V30 6892 H 642.616 3.03742 -0.799966 0
M  V30 6893 H 641.809 4.10042 -2.93056 0
M  V30 6894 H 641.411 2.36699 -2.89568 0
M  V30 6895 H 643.703 5.17078 -4.37763 0
M  V30 6896 H 644.646 4.29813 -5.62731 0
M  V30 6897 H 645.054 4.08188 -3.89927 0
M  V30 6898 N 644.452 1.42507 0.673017 0
M  V30 6899 C 645.399 1.46124 1.78651 0
M  V30 6900 C 646.369 0.313007 1.63124 0
M  V30 6901 O 647.554 0.517337 1.83653 0
M  V30 6902 C 644.694 1.3711 3.16694 0
M  V30 6903 C 643.807 2.61983 3.43495 0
M  V30 6904 C 642.942 2.45098 4.71275 0
M  V30 6905 C 641.981 3.65336 4.91117 0
M  V30 6906 N 641.118 3.47383 6.10139 0
M  V30 6907 H 645.958 2.4128 1.74895 0
M  V30 6908 H 643.495 1.19788 0.853766 0
M  V30 6909 H 645.453 1.29881 3.96468 0
M  V30 6910 H 644.083 0.45549 3.1957 0
M  V30 6911 H 643.135 2.79571 2.57961 0
M  V30 6912 H 644.447 3.51355 3.5405 0
M  V30 6913 H 643.601 2.35466 5.59143 0
M  V30 6914 H 642.34 1.53219 4.63007 0
M  V30 6915 H 641.345 3.754 4.0169 0
M  V30 6916 H 642.57 4.58199 5.01229 0
M  V30 6917 H 640.516 2.58222 6.0304 0
M  V30 6918 H 640.433 4.30344 6.21563 0
M  V30 6919 H 641.701 3.41565 7.00681 0
M  V30 6920 N 645.93 -0.909495 1.28709 0
M  V30 6921 C 647.155 -1.69801 1.1909 0
M  V30 6922 C 647.58 -1.86479 -0.246388 0
M  V30 6923 O 646.938 -1.37802 -1.17815 0
M  V30 6924 C 646.986 -3.06543 1.89904 0
M  V30 6925 O 646.09 -3.94268 1.2094 0
M  V30 6926 H 645.431 -0.519783 0.413185 0
M  V30 6927 H 647.961 -1.13689 1.70106 0
M  V30 6928 H 647.971 -3.56748 1.97977 0
M  V30 6929 H 646.646 -2.93722 2.94449 0
M  V30 6930 H 645.223 -3.52702 1.2106 0
M  V30 6931 N 647.408 -1.11026 -1.11852 0
M  V30 6932 C 648.638 -0.877544 -1.87037 0
M  V30 6933 C 649.046 0.575925 -1.80221 0
M  V30 6934 O 648.389 1.40916 -1.17849 0
M  V30 6935 C 648.451 -1.25529 -3.36872 0
M  V30 6936 C 648.115 -2.71704 -3.67459 0
M  V30 6937 C 649.112 -3.69931 -3.65304 0
M  V30 6938 C 646.797 -3.08243 -3.966 0
M  V30 6939 C 648.791 -5.02717 -3.9186 0
M  V30 6940 C 646.478 -4.41215 -4.22815 0
M  V30 6941 C 647.476 -5.38262 -4.20432 0
M  V30 6942 O 647.164 -6.68839 -4.45992 0
M  V30 6943 H 646.896 -0.314374 -0.598452 0
M  V30 6944 H 649.45 -1.48015 -1.42411 0
M  V30 6945 H 647.68 -0.595808 -3.82082 0
M  V30 6946 H 649.369 -0.999064 -3.93413 0
M  V30 6947 H 650.135 -3.43047 -3.42846 0
M  V30 6948 H 646.014 -2.33326 -3.97593 0
M  V30 6949 H 649.558 -5.78456 -3.89916 0
M  V30 6950 H 645.455 -4.67835 -4.44748 0
M  V30 6951 H 646.223 -6.74563 -4.63581 0
M  V30 6952 N 648.886 1.2938 -0.899927 0
M  V30 6953 C 650.163 1.9046 -0.445443 0
M  V30 6954 C 650.543 1.81683 1.07492 0
M  V30 6955 O 649.891 1.24371 1.91688 0
M  V30 6956 C 650.101 3.35529 -0.960279 0
M  V30 6957 C 651.449 4.12556 -1.00412 0
M  V30 6958 O 652.473 3.44434 -0.907965 0
M  V30 6959 O 651.332 5.34294 -1.14857 0
M  V30 6960 H 648.426 0.815253 -0.138893 0
M  V30 6961 H 650.972 1.37844 -0.989808 0
M  V30 6962 H 649.744 3.36074 -2.00425 0
M  V30 6963 H 649.367 3.95624 -0.395939 0
M  V30 6964 N 650.364 0.662433 1.43002 0
M  V30 6965 C 651.296 -0.062326 2.29115 0
M  V30 6966 C 652.309 -0.777926 1.43011 0
M  V30 6967 O 653.498 -0.634146 1.66856 0
M  V30 6968 C 650.598 -1.11163 3.2015 0
M  V30 6969 C 649.771 -0.472327 4.34842 0
M  V30 6970 C 648.83 -1.41974 5.06685 0
M  V30 6971 O 647.856 -0.924795 5.61637 0
M  V30 6972 N 649.058 -2.75345 5.11043 0
M  V30 6973 H 651.823 0.676838 2.91957 0
M  V30 6974 H 649.384 0.505907 1.53793 0
M  V30 6975 H 651.376 -1.74643 3.65078 0
M  V30 6976 H 649.946 -1.75266 2.58845 0
M  V30 6977 H 649.166 0.341751 3.92716 0
M  V30 6978 H 650.454 -0.0264381 5.08793 0
M  V30 6979 H 649.852 -3.18108 4.67786 0
M  V30 6980 H 648.409 -3.34105 5.59658 0
M  V30 6981 N 651.842 -1.52309 0.404946 0
M  V30 6982 C 653.088 -2.02065 -0.172455 0
M  V30 6983 C 653.421 -1.29022 -1.45145 0
M  V30 6984 O 652.696 -0.395284 -1.90441 0
M  V30 6985 C 652.979 -3.5759 -0.424433 0
M  V30 6986 C 652.832 -4.41287 0.870945 0
M  V30 6987 C 654.151 -4.23186 -1.20837 0
M  V30 6988 H 651.27 -0.734454 -0.0612035 0
M  V30 6989 H 653.912 -1.82236 0.53759 0
M  V30 6990 H 652.062 -3.74617 -1.02929 0
M  V30 6991 H 653.734 -4.3598 1.50729 0
M  V30 6992 H 651.977 -4.07669 1.48284 0
M  V30 6993 H 652.648 -5.48171 0.649083 0
M  V30 6994 H 655.124 -4.10232 -0.696338 0
M  V30 6995 H 654 -5.31953 -1.35343 0
M  V30 6996 H 654.261 -3.81862 -2.22786 0
M  V30 6997 N 653.32 -0.135238 -1.57019 0
M  V30 6998 C 654.27 0.820408 -2.12728 0
M  V30 6999 C 655.254 1.21735 -1.05211 0
M  V30 7000 O 656.446 1.18574 -1.31413 0
M  V30 7001 C 653.575 2.06414 -2.74314 0
M  V30 7002 C 652.661 1.69083 -3.88937 0
M  V30 7003 N 653.052 1.0251 -4.95303 0
M  V30 7004 C 651.35 1.98434 -3.99425 0
M  V30 7005 C 652.051 0.846749 -5.75504 0
M  V30 7006 N 651.027 1.3769 -5.25873 0
M  V30 7007 H 654.829 0.302426 -2.9234 0
M  V30 7008 H 652.343 0.0667009 -1.62263 0
M  V30 7009 H 654.34 2.75863 -3.12579 0
M  V30 7010 H 653 2.58741 -1.96171 0
M  V30 7011 H 654.011 0.687207 -5.1332 0
M  V30 7012 H 650.688 2.52693 -3.32344 0
M  V30 7013 H 652.078 0.322949 -6.71123 0
M  V30 7014 N 654.798 1.5699 0.138552 0
M  V30 7015 C 656.023 1.88344 0.86841 0
M  V30 7016 C 656.448 0.725159 1.7356 0
M  V30 7017 O 655.806 -0.324992 1.78363 0
M  V30 7018 C 655.854 3.18334 1.69398 0
M  V30 7019 O 654.958 3.02863 2.79907 0
M  V30 7020 H 654.299 0.618577 0.241367 0
M  V30 7021 H 656.829 2.04207 0.126826 0
M  V30 7022 H 656.839 3.50567 2.08726 0
M  V30 7023 H 655.514 4.02238 1.05725 0
M  V30 7024 H 654.091 2.82056 2.43924 0
M  V30 7025 N 656.276 -0.40816 1.52223 0
M  V30 7026 C 657.524 -1.15274 1.66001 0
M  V30 7027 C 657.845 -1.91003 0.392803 0
M  V30 7028 O 657.115 -1.8673 -0.592336 0
M  V30 7029 H 655.695 -0.428526 0.611861 0
M  V30 7030 H 658.357 -0.46512 1.89269 0
M  V30 7031 H 657.453 -1.86628 2.50153 0
M  V30 7032 N 657.755 -1.42862 -0.66545 0
M  V30 7033 C 658.702 -1.4707 -1.77874 0
M  V30 7034 C 659.672 -0.321654 -1.62956 0
M  V30 7035 O 660.857 -0.52707 -1.83376 0
M  V30 7036 C 657.997 -1.38788 -3.15962 0
M  V30 7037 C 657.11 -2.63801 -3.42101 0
M  V30 7038 C 656.245 -2.47594 -4.69969 0
M  V30 7039 C 655.284 -3.67936 -4.89172 0
M  V30 7040 N 654.421 -3.50614 -6.08288 0
M  V30 7041 H 659.261 -2.42204 -1.73613 0
M  V30 7042 H 656.798 -1.20239 -0.847401 0
M  V30 7043 H 658.756 -1.31982 -3.95773 0
M  V30 7044 H 657.386 -0.472431 -3.19324 0
M  V30 7045 H 656.438 -2.80935 -2.56475 0
M  V30 7046 H 657.75 -3.53228 -3.52181 0
M  V30 7047 H 656.904 -2.38427 -5.57886 0
M  V30 7048 H 655.643 -1.55672 -4.62188 0
M  V30 7049 H 654.648 -3.77525 -3.99694 0
M  V30 7050 H 655.873 -4.60851 -4.98792 0
M  V30 7051 H 653.819 -2.61417 -6.01662 0
M  V30 7052 H 653.736 -4.33634 -6.19272 0
M  V30 7053 H 655.004 -3.45276 -6.98859 0
M  V30 7054 N 659.233 0.902656 -1.29189 0
M  V30 7055 C 660.163 2.02294 -1.16616 0
M  V30 7056 C 661.144 1.6999 -0.0611175 0
M  V30 7057 O 662.329 1.9271 -0.240072 0
M  V30 7058 C 659.459 3.37018 -0.83882 0
M  V30 7059 C 658.413 3.83522 -1.89986 0
M  V30 7060 C 657.739 5.15337 -1.42589 0
M  V30 7061 C 659.039 4.04169 -3.30824 0
M  V30 7062 H 660.733 2.13071 -2.10336 0
M  V30 7063 H 658.279 1.02378 -1.01266 0
M  V30 7064 H 660.232 4.14895 -0.737584 0
M  V30 7065 H 658.956 3.26325 0.134071 0
M  V30 7066 H 657.615 3.07859 -1.99043 0
M  V30 7067 H 657.263 5.01056 -0.441759 0
M  V30 7068 H 656.963 5.47423 -2.13547 0
M  V30 7069 H 658.487 5.95758 -1.3381 0
M  V30 7070 H 659.901 4.72537 -3.24626 0
M  V30 7071 H 658.298 4.47604 -3.99713 0
M  V30 7072 H 659.368 3.08604 -3.74021 0
M  V30 7073 N 660.711 1.11618 1.11262 0
M  V30 7074 C 661.957 0.867463 1.83311 0
M  V30 7075 C 662.29 -0.605366 1.84524 0
M  V30 7076 O 661.565 -1.44704 1.29965 0
M  V30 7077 C 661.848 1.43207 3.30399 0
M  V30 7078 C 661.701 2.97265 3.3757 0
M  V30 7079 C 663.02 1.08454 4.26528 0
M  V30 7080 H 660.139 0.316578 0.665543 0
M  V30 7081 H 662.781 1.38137 1.30454 0
M  V30 7082 H 660.931 0.994982 3.75543 0
M  V30 7083 H 662.603 3.49591 3.00971 0
M  V30 7084 H 660.846 3.33237 2.77733 0
M  V30 7085 H 661.517 3.31859 4.41105 0
M  V30 7086 H 663.993 1.4619 3.89574 0
M  V30 7087 H 662.869 1.50633 5.27826 0
M  V30 7088 H 663.13 -0.00444568 4.421 0
M  V30 7089 N 662.189 -1.289 0.906776 0
M  V30 7090 C 663.429 -1.97046 0.543329 0
M  V30 7091 C 663.793 -1.69862 -0.895034 0
M  V30 7092 O 664.994 -2.31521 -1.36571 0
M  V30 7093 C 663.265 -3.47489 0.835833 0
M  V30 7094 S 664.824 -4.3498 0.577756 0
M  V30 7095 H 661.642 -0.681908 0.201302 0
M  V30 7096 H 664.244 -1.5657 1.17073 0
M  V30 7097 H 662.948 -3.64768 1.88075 0
M  V30 7098 H 662.479 -3.92907 0.196817 0
M  V30 7099 H 664.494 -4.92868 -0.574052 0
M  V30 7100 N 663.667 -0.670007 -1.42649 0
M  V30 7101 C 664.915 -0.18991 -2.01206 0
M  V30 7102 C 665.236 1.20617 -1.53221 0
M  V30 7103 O 664.506 1.80898 -0.751856 0
M  V30 7104 H 663.086 -0.0672189 -0.743969 0
M  V30 7105 H 665.748 -0.865442 -1.74631 0
M  V30 7106 H 664.844 -0.187481 -3.11536 0
M  V30 7107 N 665.145 1.52092 -0.413018 0
M  V30 7108 C 666.078 2.23613 0.455234 0
M  V30 7109 C 667.056 1.2459 1.04481 0
M  V30 7110 O 668.24 1.53653 1.09193 0
M  V30 7111 C 665.367 2.96775 1.63224 0
M  V30 7112 C 664.413 4.10261 1.16568 0
M  V30 7113 S 665.246 5.35348 0.127633 0
M  V30 7114 C 666.402 6.1204 1.30987 0
M  V30 7115 H 666.635 2.96911 -0.152042 0
M  V30 7116 H 664.168 1.53134 -0.197343 0
M  V30 7117 H 666.126 3.39532 2.30713 0
M  V30 7118 H 664.787 2.23113 2.21087 0
M  V30 7119 H 663.98 4.6064 2.04515 0
M  V30 7120 H 663.582 3.6964 0.569386 0
M  V30 7121 H 665.874 6.39651 2.23276 0
M  V30 7122 H 666.817 7.03022 0.846533 0
M  V30 7123 H 667.225 5.43161 1.53743 0
M  V30 7124 N 666.623 0.143563 1.56945 0
M  V30 7125 C 667.869 -0.50916 1.96304 0
M  V30 7126 C 668.202 -1.64741 1.0283 0
M  V30 7127 O 667.477 -1.94374 0.0700361 0
M  V30 7128 C 667.76 -1.0186 3.45393 0
M  V30 7129 C 667.613 0.117923 4.49645 0
M  V30 7130 C 668.932 -1.90151 3.96901 0
M  V30 7131 H 666.051 -0.183608 0.713763 0
M  V30 7132 H 668.693 0.224095 1.88674 0
M  V30 7133 H 666.843 -1.64345 3.52027 0
M  V30 7134 H 668.515 0.754145 4.55094 0
M  V30 7135 H 666.758 0.777568 4.26774 0
M  V30 7136 H 667.429 -0.280187 5.51288 0
M  V30 7137 H 669.905 -1.375 3.92725 0
M  V30 7138 H 668.781 -2.22707 5.0169 0
M  V30 7139 H 669.042 -2.83718 3.39052 0
M  V30 7140 N 668.101 -1.57061 -0.130224 0
M  V30 7141 C 669.326 -1.88802 -0.858409 0
M  V30 7142 C 669.751 -0.734353 -1.73173 0
M  V30 7143 O 669.109 0.315529 -1.78533 0
M  V30 7144 C 669.157 -3.19228 -1.67708 0
M  V30 7145 O 668.261 -3.04343 -2.78297 0
M  V30 7146 H 667.602 -0.619849 -0.238083 0
M  V30 7147 H 670.132 -2.04271 -0.115995 0
M  V30 7148 H 670.142 -3.51669 -2.06864 0
M  V30 7149 H 668.817 -4.02793 -1.0359 0
M  V30 7150 H 667.394 -2.83346 -2.42425 0
M  V30 7151 N 669.579 0.400081 -1.52437 0
M  V30 7152 C 670.809 1.16598 -1.70553 0
M  V30 7153 C 671.217 1.8451 -0.418665 0
M  V30 7154 O 670.56 1.73069 0.615855 0
M  V30 7155 C 670.622 2.26517 -2.7916 0
M  V30 7156 C 670.286 1.78666 -4.20628 0
M  V30 7157 C 671.283 1.26946 -5.04163 0
M  V30 7158 C 668.968 1.85225 -4.66902 0
M  V30 7159 C 670.962 0.824187 -6.32049 0
M  V30 7160 C 668.649 1.40309 -5.94774 0
M  V30 7161 C 669.647 0.889922 -6.77178 0
M  V30 7162 O 669.335 0.447281 -8.02655 0
M  V30 7163 H 669.067 0.356023 -0.574651 0
M  V30 7164 H 671.621 0.475598 -1.99818 0
M  V30 7165 H 669.851 2.98946 -2.45292 0
M  V30 7166 H 671.54 2.88237 -2.85787 0
M  V30 7167 H 672.306 1.21244 -4.69601 0
M  V30 7168 H 668.185 2.24111 -4.02859 0
M  V30 7169 H 671.729 0.422958 -6.96317 0
M  V30 7170 H 667.626 1.45693 -6.28843 0
M  V30 7171 H 668.394 0.569768 -8.16514 0
M  V30 7172 N 671.057 1.43213 0.657864 0
M  V30 7173 C 671.987 1.50815 1.78262 0
M  V30 7174 C 672.968 0.363211 1.66177 0
M  V30 7175 O 674.153 0.579806 1.85343 0
M  V30 7176 C 671.283 1.42625 3.16663 0
M  V30 7177 C 670.237 2.5532 3.43505 0
M  V30 7178 C 669.563 2.32184 4.81658 0
M  V30 7179 C 670.863 3.97583 3.38711 0
M  V30 7180 H 672.557 2.44954 1.72157 0
M  V30 7181 H 670.103 1.17896 0.82683 0
M  V30 7182 H 672.056 1.46548 3.95097 0
M  V30 7183 H 670.78 0.449877 3.23487 0
M  V30 7184 H 669.439 2.50742 2.6744 0
M  V30 7185 H 669.087 1.32801 4.85153 0
M  V30 7186 H 668.787 3.07724 5.00579 0
M  V30 7187 H 670.311 2.37883 5.62356 0
M  V30 7188 H 671.725 4.03673 4.07089 0
M  V30 7189 H 670.122 4.73112 3.69168 0
M  V30 7190 H 671.192 4.23049 2.36976 0
M  V30 7191 N 672.536 -0.895792 1.29666 0
M  V30 7192 C 673.484 -2.02173 1.15017 0
M  V30 7193 C 674.478 -1.69276 0.0647651 0
M  V30 7194 O 675.684 -1.7859 0.224846 0
M  V30 7195 H 672.059 -0.662719 0.355397 0
M  V30 7196 H 674.03 -2.11666 2.10334 0
M  V30 7197 C 672.779 -3.37212 0.847555 0
M  V30 7198 H 672.102 -3.6303 1.67479 0
M  V30 7199 H 673.542 -4.16668 0.785106 0
M  V30 7200 C 672.001 -3.33891 -0.44929 0
M  V30 7201 O 672.531 -3.73673 -1.47415 0
M  V30 7202 N 670.737 -2.86991 -0.456547 0
M  V30 7203 H 670.284 -2.54813 0.377925 0
M  V30 7204 H 670.242 -2.85152 -1.32423 0
M  V30 7205 N 674.014 -1.12206 -1.10668 0
M  V30 7206 C 675.291 -0.787382 -1.79052 0
M  V30 7207 C 675.671 0.723267 -1.98323 0
M  V30 7208 O 675.019 1.6561 -1.57434 0
M  V30 7209 C 675.229 -1.55968 -3.1221 0
M  V30 7210 C 676.577 -1.74413 -3.87125 0
M  V30 7211 O 677.601 -1.5246 -3.21923 0
M  V30 7212 O 676.46 -2.10952 -5.04144 0
M  V30 7213 H 673.554 -0.286137 -0.775922 0
M  V30 7214 H 676.1 -1.22595 -1.1734 0
M  V30 7215 H 674.872 -2.58692 -2.93588 0
M  V30 7216 H 674.495 -1.1152 -3.8164 0
M  V30 7217 N 675.492 1.28418 -0.913599 0
M  V30 7218 C 676.422 2.29713 -0.418847 0
M  V30 7219 C 677.403 1.62165 0.513469 0
M  V30 7220 O 678.588 1.89576 0.421235 0
M  V30 7221 C 675.718 3.45612 0.342042 0
M  V30 7222 C 674.672 4.25056 -0.501123 0
M  V30 7223 C 673.998 5.3329 0.388097 0
M  V30 7224 C 675.298 4.91814 -1.75831 0
M  V30 7225 H 676.992 2.71346 -1.26538 0
M  V30 7226 H 674.538 1.30446 -0.609903 0
M  V30 7227 H 676.491 4.15562 0.699 0
M  V30 7228 H 675.215 3.02858 1.22248 0
M  V30 7229 H 673.874 3.56833 -0.840598 0
M  V30 7230 H 673.522 4.8678 1.26707 0
M  V30 7231 H 673.222 5.87347 -0.172459 0
M  V30 7232 H 674.746 6.06088 0.74094 0
M  V30 7233 H 676.16 5.54126 -1.47026 0
M  V30 7234 H 674.557 5.55866 -2.26126 0
M  V30 7235 H 675.627 4.16313 -2.4862 0
M  V30 7236 N 676.97 0.677563 1.42291 0
M  V30 7237 C 678.381 0.277912 1.8462 0
M  V30 7238 C 678.732 -1.18048 1.56714 0
M  V30 7239 O 677.857 -1.90404 1.02836 0
M  V30 7240 C 678.452 0.497619 3.35126 0
M  V30 7241 C 677.011 0.152063 3.76093 0
M  V30 7242 C 676.158 0.78872 2.65847 0
M  V30 7243 H 679.109 0.879527 1.32098 0
M  V30 7244 H 679.13 -0.24939 3.79682 0
M  V30 7245 H 678.642 1.55913 3.55405 0
M  V30 7246 H 676.743 -0.905896 3.6142 0
M  V30 7247 H 676.856 0.594514 4.75397 0
M  V30 7248 H 675.22 0.219813 2.5375 0
M  V30 7249 H 676.003 1.85374 2.88949 0
M  V30 7250 N 678.448 -1.51871 0.421078 0
M  V30 7251 C 679.673 -2.0684 -0.152371 0
M  V30 7252 C 680.098 -1.28802 -1.37083 0
M  V30 7253 O 679.456 -0.321482 -1.78427 0
M  V30 7254 C 679.504 -3.57532 -0.469368 0
M  V30 7255 O 678.608 -3.81818 -1.55848 0
M  V30 7256 H 677.949 -0.663939 -0.00898586 0
M  V30 7257 H 680.479 -1.95674 0.597724 0
M  V30 7258 H 680.489 -4.01515 -0.724553 0
M  V30 7259 H 679.164 -4.13761 0.421276 0
M  V30 7260 H 677.741 -3.49709 -1.29453 0
M  V30 7261 N 679.926 -0.151884 -1.56866 0
M  V30 7262 C 680.858 0.817008 -2.14144 0
M  V30 7263 C 681.871 1.20735 -1.0921 0
M  V30 7264 O 683.06 1.15058 -1.36469 0
M  V30 7265 C 680.16 2.10844 -2.65326 0
M  V30 7266 C 679.333 1.88471 -3.94712 0
M  V30 7267 C 678.392 3.01649 -4.31155 0
M  V30 7268 O 677.418 2.73127 -4.9939 0
M  V30 7269 N 678.62 4.28947 -3.91132 0
M  V30 7270 H 681.385 0.327448 -2.97906 0
M  V30 7271 H 678.946 0.0315313 -1.61869 0
M  V30 7272 H 680.938 2.85616 -2.86715 0
M  V30 7273 H 679.508 2.51049 -1.86262 0
M  V30 7274 H 678.728 0.977088 -3.81899 0
M  V30 7275 H 680.016 1.70866 -4.79252 0
M  V30 7276 H 679.414 4.54986 -3.36161 0
M  V30 7277 H 677.971 5.00484 -4.17563 0
M  V30 7278 N 681.404 1.57128 0.121893 0
M  V30 7279 C 682.82 1.52357 0.47534 0
M  V30 7280 C 683.02 0.864417 1.82017 0
M  V30 7281 O 682.076 0.445529 2.48538 0
M  V30 7282 C 683.389 2.97122 0.4625 0
M  V30 7283 C 684.937 3.08196 0.546255 0
M  V30 7284 C 685.412 4.54516 0.563833 0
M  V30 7285 N 686.903 4.58959 0.625353 0
M  V30 7286 C 687.638 5.69585 0.660354 0
M  V30 7287 N 687.134 6.89714 0.653175 0
M  V30 7288 N 688.927 5.57685 0.703143 0
M  V30 7289 H 681.078 1.98364 -0.75931 0
M  V30 7290 H 683.341 0.905777 -0.279772 0
M  V30 7291 H 683.047 3.48706 -0.457943 0
M  V30 7292 H 682.921 3.54406 1.29136 0
M  V30 7293 H 685.308 2.56617 1.45712 0
M  V30 7294 H 685.389 2.53912 -0.310234 0
M  V30 7295 H 685.033 5.06741 -0.342974 0
M  V30 7296 H 684.963 5.06609 1.43716 0
M  V30 7297 H 687.454 3.72489 0.637182 0
M  V30 7298 H 687.767 7.69781 0.682425 0
M  V30 7299 H 686.112 6.92223 0.620646 0
M  V30 7300 H 689.303 4.62744 0.706095 0
M  V30 7301 H 689.476 6.43909 0.726952 0
M  V30 7302 N 682.882 -0.391992 1.52647 0
M  V30 7303 C 684.131 -1.13449 1.6677 0
M  V30 7304 C 684.444 -1.91203 0.412399 0
M  V30 7305 O 685.65 -2.68013 0.433707 0
M  V30 7306 C 684.106 -2.06577 2.9471 0
M  V30 7307 C 683.714 -1.3426 4.27409 0
M  V30 7308 C 685.458 -2.80981 3.18198 0
M  V30 7309 C 683.365 -2.26136 5.46458 0
M  V30 7310 H 682.295 -0.427211 0.621295 0
M  V30 7311 H 684.946 -0.397522 1.79142 0
M  V30 7312 H 683.328 -2.83898 2.76076 0
M  V30 7313 H 684.502 -0.621856 4.56585 0
M  V30 7314 H 682.817 -0.718279 4.10158 0
M  V30 7315 H 685.414 -3.49898 4.04321 0
M  V30 7316 H 685.757 -3.44891 2.33144 0
M  V30 7317 H 686.29 -2.10754 3.37383 0
M  V30 7318 H 683.029 -1.66846 6.33911 0
M  V30 7319 H 682.549 -2.96134 5.21598 0
M  V30 7320 H 684.228 -2.86286 5.80215 0
M  V30 7321 N 684.36 -1.4356 -0.65026 0
M  V30 7322 C 685.292 -1.44918 -1.77571 0
M  V30 7323 C 686.305 -0.344925 -1.59104 0
M  V30 7324 O 687.494 -0.609537 -1.6777 0
M  V30 7325 C 684.594 -1.24914 -3.15039 0
M  V30 7326 C 683.767 -2.48232 -3.60138 0
M  V30 7327 C 682.826 -2.23409 -4.76419 0
M  V30 7328 O 681.852 -2.9678 -4.85706 0
M  V30 7329 N 683.054 -1.25259 -5.66825 0
M  V30 7330 H 685.819 -2.41935 -1.76883 0
M  V30 7331 H 683.38 -1.38754 -0.834202 0
M  V30 7332 H 685.372 -1.06185 -3.90521 0
M  V30 7333 H 683.942 -0.363319 -3.10481 0
M  V30 7334 H 683.162 -2.82366 -2.75069 0
M  V30 7335 H 684.45 -3.30296 -3.87017 0
M  V30 7336 H 683.848 -0.646246 -5.61997 0
M  V30 7337 H 682.405 -1.12513 -6.42016 0
M  V30 7338 N 685.838 0.888903 -1.30139 0
M  V30 7339 C 687.249 1.45578 -1.16893 0
M  V30 7340 C 687.6 1.94825 0.231866 0
M  V30 7341 O 686.725 1.84661 1.12824 0
M  V30 7342 C 687.32 2.646 -2.11595 0
M  V30 7343 C 685.879 3.17389 -2.02339 0
M  V30 7344 C 685.026 1.90081 -2.01902 0
M  V30 7345 H 687.977 0.69921 -1.42467 0
M  V30 7346 H 687.998 3.40687 -1.69449 0
M  V30 7347 H 687.51 2.28726 -3.13538 0
M  V30 7348 H 685.611 3.5793 -1.03523 0
M  V30 7349 H 685.724 3.80955 -2.90534 0
M  V30 7350 H 684.088 2.08246 -1.46648 0
M  V30 7351 H 684.871 1.5647 -3.05568 0
M  V30 7352 N 687.317 1.12792 1.10072 0
M  V30 7353 C 688.249 0.757003 2.16338 0
M  V30 7354 C 689.262 -0.218144 1.61332 0
M  V30 7355 O 690.451 0.0010727 1.785 0
M  V30 7356 C 687.551 0.100303 3.38752 0
M  V30 7357 C 686.724 1.10586 4.2319 0
M  V30 7358 C 685.783 0.47609 5.24042 0
M  V30 7359 O 684.809 1.13418 5.57786 0
M  V30 7360 N 686.011 -0.754823 5.75572 0
M  V30 7361 H 688.776 1.6714 2.48766 0
M  V30 7362 H 686.337 1.02003 1.25726 0
M  V30 7363 H 688.329 -0.333092 4.03327 0
M  V30 7364 H 686.899 -0.716915 3.04268 0
M  V30 7365 H 686.119 1.71677 3.54853 0
M  V30 7366 H 687.407 1.78571 4.76435 0
M  V30 7367 H 686.805 -1.30838 5.50362 0
M  V30 7368 H 685.362 -1.13098 6.41913 0
M  V30 7369 N 688.795 -1.27931 0.920396 0
M  V30 7370 C 689.727 -2.26175 0.371169 0
M  V30 7371 C 690.74 -1.55122 -0.494065 0
M  V30 7372 O 691.929 -1.75825 -0.30787 0
M  V30 7373 C 689.029 -3.35376 -0.487481 0
M  V30 7374 C 688.202 -4.35943 0.356772 0
M  V30 7375 C 687.261 -5.24374 -0.438042 0
M  V30 7376 O 686.287 -5.68998 0.151715 0
M  V30 7377 N 687.489 -5.53823 -1.73956 0
M  V30 7378 H 690.254 -2.73938 1.21564 0
M  V30 7379 H 687.815 -1.41482 0.787047 0
M  V30 7380 H 689.807 -3.91476 -1.02609 0
M  V30 7381 H 688.377 -2.87269 -1.23269 0
M  V30 7382 H 687.597 -3.7921 1.07672 0
M  V30 7383 H 688.885 -5.0015 0.934206 0
M  V30 7384 H 688.283 -5.19413 -2.24114 0
M  V30 7385 H 686.84 -6.12653 -2.22486 0
M  V30 7386 N 690.273 -0.685099 -1.4193 0
M  V30 7387 C 691.519 -0.211971 -2.01689 0
M  V30 7388 C 691.852 1.18189 -1.54094 0
M  V30 7389 O 691.127 1.79559 -0.747572 0
M  V30 7390 C 691.41 -0.258019 -3.59174 0
M  V30 7391 C 691.263 -1.68807 -4.16922 0
M  V30 7392 C 692.582 0.388044 -4.38386 0
M  V30 7393 H 689.701 -0.0784987 -0.732808 0
M  V30 7394 H 692.343 -0.871837 -1.68816 0
M  V30 7395 H 690.493 0.303832 -3.8731 0
M  V30 7396 H 692.165 -2.30296 -3.99702 0
M  V30 7397 H 690.408 -2.22553 -3.72361 0
M  V30 7398 H 691.079 -1.6719 -5.26072 0
M  V30 7399 H 693.555 -0.0903432 -4.16002 0
M  V30 7400 H 692.431 0.325232 -5.47936 0
M  V30 7401 H 692.692 1.4672 -4.17044 0
M  V30 7402 N 691.751 1.51645 -0.429126 0
M  V30 7403 C 692.714 2.26116 0.374726 0
M  V30 7404 C 693.714 1.29242 0.956714 0
M  V30 7405 O 694.904 1.53022 0.832452 0
M  V30 7406 C 692.036 3.04669 1.52937 0
M  V30 7407 H 693.229 2.9861 -0.277818 0
M  V30 7408 H 690.782 1.55236 -0.182097 0
M  V30 7409 H 691.517 2.36571 2.21821 0
M  V30 7410 H 691.302 3.75814 1.11833 0
M  V30 7411 H 692.792 3.61102 2.09751 0
M  V30 7412 N 693.229 0.160201 1.56784 0
M  V30 7413 C 694.475 -0.48831 1.96833 0
M  V30 7414 C 694.808 -1.63641 1.04571 0
M  V30 7415 O 694.083 -1.94289 0.0906481 0
M  V30 7416 C 694.366 -0.981908 3.46454 0
M  V30 7417 C 694.219 0.165607 4.49495 0
M  V30 7418 C 695.538 -1.85931 3.98896 0
M  V30 7419 H 692.657 -0.176027 0.71567 0
M  V30 7420 H 695.299 0.244093 1.88426 0
M  V30 7421 H 693.449 -1.60602 3.5375 0
M  V30 7422 H 695.121 0.802372 4.54268 0
M  V30 7423 H 693.364 0.822789 4.25926 0
M  V30 7424 H 694.035 -0.221699 5.51555 0
M  V30 7425 H 696.511 -1.33327 3.94161 0
M  V30 7426 H 695.387 -2.17373 5.04024 0
M  V30 7427 H 695.648 -2.80106 3.42042 0
M  V30 7428 N 694.707 -1.5719 -0.113559 0
M  V30 7429 C 695.953 -1.86289 -0.816583 0
M  V30 7430 C 696.308 -0.748672 -1.77236 0
M  V30 7431 O 695.601 0.250889 -1.8995 0
M  V30 7432 C 695.795 -3.19593 -1.59984 0
M  V30 7433 C 695.624 -4.43876 -0.721414 0
M  V30 7434 C 694.394 -5.03913 -0.374172 0
M  V30 7435 C 696.592 -5.14287 -0.0366045 0
M  V30 7436 N 694.574 -6.11741 0.514352 0
M  V30 7437 C 695.945 -6.15913 0.710706 0
M  V30 7438 C 698 -4.97885 0.039247 0
M  V30 7439 C 696.703 -7.0291 1.52675 0
M  V30 7440 C 698.729 -5.85373 0.842135 0
M  V30 7441 C 698.091 -6.86506 1.57762 0
M  V30 7442 H 694.19 -0.731839 -0.275564 0
M  V30 7443 H 696.774 -1.94535 -0.080033 0
M  V30 7444 H 694.945 -3.12432 -2.30739 0
M  V30 7445 H 696.677 -3.3648 -2.24862 0
M  V30 7446 H 693.432 -4.68131 -0.717653 0
M  V30 7447 H 693.856 -6.70293 0.950623 0
M  V30 7448 H 698.498 -4.19651 -0.51503 0
M  V30 7449 H 696.216 -7.80547 2.09217 0
M  V30 7450 H 699.802 -5.74746 0.903256 0
M  V30 7451 H 698.682 -7.53032 2.1889 0
M  V30 7452 N 696.185 0.383891 -1.52853 0
M  V30 7453 C 697.596 0.961591 -1.60032 0
M  V30 7454 C 697.947 1.90819 -0.456333 0
M  V30 7455 O 697.072 2.12288 0.419873 0
M  V30 7456 C 697.667 1.75078 -2.90057 0
M  V30 7457 C 696.226 2.2781 -2.99632 0
M  V30 7458 C 695.373 1.08512 -2.55187 0
M  V30 7459 H 698.324 0.163269 -1.57858 0
M  V30 7460 H 698.345 2.61046 -2.7683 0
M  V30 7461 H 697.857 1.06157 -3.73299 0
M  V30 7462 H 695.958 3.00028 -2.20939 0
M  V30 7463 H 696.071 2.56947 -4.0437 0
M  V30 7464 H 694.435 1.44667 -2.09627 0
M  V30 7465 H 695.218 0.41118 -3.40829 0
M  V30 7466 N 697.663 1.43903 0.642637 0
M  V30 7467 C 698.891 1.4954 1.42988 0
M  V30 7468 C 699.306 0.116588 1.8844 0
M  V30 7469 O 698.663 -0.875285 1.60141 0
M  V30 7470 C 698.714 2.45031 2.65785 0
M  V30 7471 O 698.435 3.77551 2.22232 0
M  V30 7472 C 699.936 2.60017 3.59035 0
M  V30 7473 H 697.156 0.507544 0.438907 0
M  V30 7474 H 699.7 1.88752 0.786942 0
M  V30 7475 H 697.855 2.08985 3.26196 0
M  V30 7476 H 698.269 4.29001 3.01759 0
M  V30 7477 H 699.743 3.30887 4.41835 0
M  V30 7478 H 700.22 1.64861 4.07084 0
M  V30 7479 H 700.826 2.96918 3.045 0
M  V30 7480 N 699.141 -0.881989 1.30609 0
M  V30 7481 C 700.074 -1.99066 1.11571 0
M  V30 7482 C 701.052 -1.62584 0.022516 0
M  V30 7483 O 702.236 -1.87671 0.176644 0
M  V30 7484 C 699.363 -3.3134 0.702237 0
M  V30 7485 C 698.409 -3.86807 1.79673 0
M  V30 7486 S 699.242 -4.13735 3.39976 0
M  V30 7487 C 700.398 -5.49024 3.00538 0
M  V30 7488 H 700.631 -2.1491 2.05429 0
M  V30 7489 H 698.164 -1.03074 1.14957 0
M  V30 7490 H 700.122 -4.07796 0.470415 0
M  V30 7491 H 698.783 -3.13349 -0.217034 0
M  V30 7492 H 697.976 -4.82397 1.45977 0
M  V30 7493 H 697.578 -3.17102 1.98298 0
M  V30 7494 H 699.87 -6.30208 2.48684 0
M  V30 7495 H 700.813 -5.8766 3.95046 0
M  V30 7496 H 701.221 -5.11726 2.3832 0
M  V30 7497 N 700.619 -1.13374 -1.09472 0
M  V30 7498 C 701.865 -0.896516 -1.81908 0
M  V30 7499 C 702.198 0.575933 -1.85463 0
M  V30 7500 O 701.473 1.42618 -1.32251 0
M  V30 7501 C 701.756 -1.48445 -3.28079 0
M  V30 7502 C 701.609 -3.02598 -3.32798 0
M  V30 7503 C 702.928 -1.15226 -4.24748 0
M  V30 7504 H 700.047 -0.327127 -0.660422 0
M  V30 7505 H 702.689 -1.40195 -1.2824 0
M  V30 7506 H 700.839 -1.0546 -3.73912 0
M  V30 7507 H 702.511 -3.54335 -2.95372 0
M  V30 7508 H 700.754 -3.37613 -2.72397 0
M  V30 7509 H 701.425 -3.38835 -4.3577 0
M  V30 7510 H 703.901 -1.52369 -3.87199 0
M  V30 7511 H 702.777 -1.59012 -5.25363 0
M  V30 7512 H 703.038 -0.0658891 -4.42051 0
M  V30 7513 N 702.098 1.27442 -0.927168 0
M  V30 7514 C 703.375 1.89473 -0.485742 0
M  V30 7515 C 703.755 1.83922 1.03614 0
M  V30 7516 O 703.103 1.28409 1.89007 0
M  V30 7517 C 703.313 3.33417 -1.03123 0
M  V30 7518 C 704.661 4.10333 -1.0914 0
M  V30 7519 O 705.685 3.4243 -0.98082 0
M  V30 7520 O 704.544 5.31737 -1.26165 0
M  V30 7521 H 701.638 0.812124 -0.156154 0
M  V30 7522 H 704.184 1.35713 -1.01882 0
M  V30 7523 H 702.956 3.31747 -2.07508 0
M  V30 7524 H 702.579 3.94695 -0.479767 0
M  V30 7525 N 703.576 0.692616 1.41565 0
M  V30 7526 C 704.825 0.219452 2.00503 0
M  V30 7527 C 705.138 -1.18683 1.55479 0
M  V30 7528 O 706.344 -1.75731 2.06956 0
M  V30 7529 C 704.8 0.341451 3.58277 0
M  V30 7530 C 704.408 1.75291 4.12283 0
M  V30 7531 C 706.152 -0.0720899 4.24439 0
M  V30 7532 C 704.059 1.82673 5.62481 0
M  V30 7533 H 702.989 0.0782874 0.749925 0
M  V30 7534 H 705.64 0.860386 1.62079 0
M  V30 7535 H 704.022 -0.367683 3.94289 0
M  V30 7536 H 705.196 2.49057 3.87695 0
M  V30 7537 H 703.511 2.11587 3.58636 0
M  V30 7538 H 706.108 -0.0373385 5.34687 0
M  V30 7539 H 706.451 -1.11034 4.0122 0
M  V30 7540 H 706.984 0.586663 3.9345 0
M  V30 7541 H 703.723 2.84539 5.90523 0
M  V30 7542 H 703.243 1.13288 5.89004 0
M  V30 7543 H 704.922 1.58827 6.27203 0
M  V30 7544 N 705.054 -1.51416 0.437162 0
M  V30 7545 C 706.002 -2.29328 -0.388765 0
M  V30 7546 C 706.996 -1.35171 -1.02104 0
M  V30 7547 O 708.202 -1.52513 -0.956024 0
M  V30 7548 H 704.577 -0.738048 -0.144183 0
M  V30 7549 H 706.548 -2.96995 0.289212 0
M  V30 7550 C 705.297 -3.14741 -1.47761 0
M  V30 7551 H 704.62 -3.8708 -1.00045 0
M  V30 7552 H 706.06 -3.72313 -2.02877 0
M  V30 7553 C 704.519 -2.30105 -2.46076 0
M  V30 7554 O 705.049 -1.96055 -3.50607 0
M  V30 7555 N 703.255 -1.93331 -2.1696 0
M  V30 7556 H 702.802 -2.2122 -1.31983 0
M  V30 7557 H 702.76 -1.36999 -2.82982 0
M  V30 7558 N 706.532 -0.168513 -1.56696 0
M  V30 7559 C 707.757 0.486688 -2.01609 0
M  V30 7560 C 708.182 1.56203 -1.04796 0
M  V30 7561 O 707.54 1.8128 -0.0270596 0
M  V30 7562 C 707.588 1.04451 -3.45141 0
M  V30 7563 O 706.692 2.15862 -3.51393 0
M  V30 7564 H 706.033 0.116831 -0.653641 0
M  V30 7565 H 708.563 -0.271579 -2.0279 0
M  V30 7566 H 708.573 1.36782 -3.84389 0
M  V30 7567 H 707.248 0.257155 -4.15104 0
M  V30 7568 H 705.825 1.84597 -3.24004 0
M  V30 7569 N 708.01 1.57248 0.105221 0
M  V30 7570 C 709.421 1.74612 0.660865 0
M  V30 7571 C 709.772 0.789231 1.79626 0
M  V30 7572 O 708.897 -0.0346611 2.16372 0
M  V30 7573 C 709.492 3.16624 1.20559 0
M  V30 7574 C 708.051 3.35447 1.7074 0
M  V30 7575 C 707.198 2.70445 0.612764 0
M  V30 7576 H 710.149 1.5824 -0.12079 0
M  V30 7577 H 710.17 3.18937 2.07508 0
M  V30 7578 H 709.682 3.86245 0.379012 0
M  V30 7579 H 707.783 2.7089 2.5583 0
M  V30 7580 H 707.896 4.43702 1.80736 0
M  V30 7581 H 706.26 2.32061 1.04975 0
M  V30 7582 H 707.043 3.42699 -0.203066 0
M  V30 7583 N 709.488 -0.375779 1.53054 0
M  V30 7584 C 710.398 -1.48381 1.81715 0
M  V30 7585 C 711.414 -1.59087 0.704795 0
M  V30 7586 O 712.59 -1.75174 0.993785 0
M  V30 7587 C 709.655 -2.83767 1.99192 0
M  V30 7588 C 708.716 -2.82673 3.23102 0
M  V30 7589 C 707.949 -4.11601 3.39736 0
M  V30 7590 O 708.172 -5.07243 2.60885 0
M  V30 7591 O 707.106 -4.18034 4.33049 0
M  V30 7592 H 710.932 -1.27089 2.7583 0
M  V30 7593 H 708.517 -0.564902 1.38308 0
M  V30 7594 H 710.399 -3.64004 2.12318 0
M  V30 7595 H 709.074 -3.05057 1.08267 0
M  V30 7596 H 707.981 -2.0117 3.15407 0
M  V30 7597 H 709.314 -2.66335 4.13916 0
M  V30 7598 N 710.966 -1.44241 -0.634997 0
M  V30 7599 C 712.191 -1.50516 -1.42687 0
M  V30 7600 C 712.616 -0.129864 -1.87651 0
M  V30 7601 O 711.974 0.880164 -1.58502 0
M  V30 7602 C 712.022 -2.4714 -2.62591 0
M  V30 7603 O 711.126 -1.97025 -3.62291 0
M  V30 7604 H 710.467 -0.50841 -0.427101 0
M  V30 7605 H 712.997 -1.89337 -0.775408 0
M  V30 7606 H 713.007 -2.65048 -3.10183 0
M  V30 7607 H 711.682 -3.47039 -2.29209 0
M  V30 7608 H 710.259 -1.88866 -3.21534 0
M  V30 7609 N 712.444 0.87505 -1.31075 0
M  V30 7610 C 713.374 1.99775 -1.20881 0
M  V30 7611 C 714.355 1.69822 -0.0971612 0
M  V30 7612 O 715.54 1.92158 -0.280895 0
M  V30 7613 C 712.67 3.35163 -0.910118 0
M  V30 7614 C 711.624 3.79406 -1.98078 0
M  V30 7615 C 710.95 5.12197 -1.53488 0
M  V30 7616 C 712.25 3.97061 -3.39323 0
M  V30 7617 H 713.944 2.08562 -2.14808 0
M  V30 7618 H 711.49 1.00207 -1.03415 0
M  V30 7619 H 713.443 4.13237 -0.825423 0
M  V30 7620 H 712.167 3.26536 0.064822 0
M  V30 7621 H 710.826 3.03568 -2.05528 0
M  V30 7622 H 710.474 5.00007 -0.547941 0
M  V30 7623 H 710.174 5.4277 -2.2511 0
M  V30 7624 H 711.698 5.92785 -1.46417 0
M  V30 7625 H 713.112 4.65545 -3.34576 0
M  V30 7626 H 711.509 4.39025 -4.09118 0
M  V30 7627 H 712.579 3.00601 -3.80483 0
M  V30 7628 N 713.922 1.13953 1.08869 0
M  V30 7629 C 715.15 0.92817 1.84912 0
M  V30 7630 C 715.565 -0.523197 1.81406 0
M  V30 7631 O 714.922 -1.36237 1.21432 0
M  V30 7632 C 714.973 1.41509 3.32652 0
M  V30 7633 O 714.694 2.80959 3.36145 0
M  V30 7634 C 716.195 1.243 4.25517 0
M  V30 7635 H 713.415 0.330612 0.583898 0
M  V30 7636 H 715.959 1.51349 1.37527 0
M  V30 7637 H 714.114 0.872648 3.77444 0
M  V30 7638 H 714.528 3.02704 4.28335 0
M  V30 7639 H 716.002 1.63237 5.27312 0
M  V30 7640 H 716.479 0.18532 4.38809 0
M  V30 7641 H 717.085 1.77375 3.86546 0
M  V30 7642 N 715.4 -1.26948 0.933913 0
M  V30 7643 C 716.31 -2.30366 0.443671 0
M  V30 7644 C 717.326 -1.67284 -0.478745 0
M  V30 7645 O 718.502 -1.98156 -0.360043 0
M  V30 7646 C 715.567 -3.45485 -0.289974 0
M  V30 7647 C 714.628 -4.24069 0.668114 0
M  V30 7648 C 713.861 -5.33691 -0.0306138 0
M  V30 7649 O 714.084 -5.5656 -1.24888 0
M  V30 7650 O 713.018 -5.98441 0.644384 0
M  V30 7651 H 716.844 -2.74349 1.30254 0
M  V30 7652 H 714.429 -1.32012 0.699506 0
M  V30 7653 H 716.311 -4.15486 -0.70353 0
M  V30 7654 H 714.986 -3.03546 -1.12435 0
M  V30 7655 H 713.893 -3.56579 1.13147 0
M  V30 7656 H 715.226 -4.69739 1.46989 0
M  V30 7657 N 716.879 -0.700114 -1.41195 0
M  V30 7658 C 717.842 -0.0465706 -2.29153 0
M  V30 7659 C 718.842 0.703302 -1.44604 0
M  V30 7660 O 720.032 0.537513 -1.657 0
M  V30 7661 C 717.164 0.944324 -3.2756 0
M  V30 7662 H 718.357 -0.821064 -2.88442 0
M  V30 7663 H 715.91 -0.463869 -1.49258 0
M  V30 7664 H 716.645 1.74642 -2.73259 0
M  V30 7665 H 716.43 0.409701 -3.89954 0
M  V30 7666 H 717.92 1.39925 -3.9346 0
M  V30 7667 N 718.357 1.51182 -0.445186 0
M  V30 7668 C 719.587 2.06269 0.116922 0
M  V30 7669 C 719.995 1.31188 1.36332 0
M  V30 7670 O 719.338 0.367067 1.79995 0
M  V30 7671 C 719.4 3.56051 0.496757 0
M  V30 7672 C 719.064 4.52441 -0.64394 0
M  V30 7673 C 720.061 4.97233 -1.5184 0
M  V30 7674 C 717.746 4.95447 -0.826905 0
M  V30 7675 C 719.74 5.83712 -2.56046 0
M  V30 7676 C 717.427 5.81714 -1.87222 0
M  V30 7677 C 718.425 6.25745 -2.73738 0
M  V30 7678 O 718.113 7.10298 -3.76474 0
M  V30 7679 H 717.845 0.675954 0.00785733 0
M  V30 7680 H 720.399 1.95648 -0.625371 0
M  V30 7681 H 718.629 3.64483 1.29187 0
M  V30 7682 H 720.318 3.93618 0.990928 0
M  V30 7683 H 721.084 4.64696 -1.38862 0
M  V30 7684 H 716.963 4.60712 -0.163052 0
M  V30 7685 H 720.507 6.18 -3.23607 0
M  V30 7686 H 716.404 6.13664 -2.00218 0
M  V30 7687 H 717.172 7.28493 -3.73149 0
M  V30 7688 N 719.835 0.176821 1.56605 0
M  V30 7689 C 720.782 -0.751312 2.18229 0
M  V30 7690 C 721.752 -1.22297 1.12395 0
M  V30 7691 O 722.937 -1.29015 1.40569 0
M  V30 7692 C 720.077 -1.97291 2.83143 0
M  V30 7693 C 719.19 -1.54431 4.03454 0
M  V30 7694 C 718.325 -2.72 4.56278 0
M  V30 7695 C 717.364 -2.25657 5.68986 0
M  V30 7696 N 716.501 -3.36338 6.16296 0
M  V30 7697 H 721.341 -0.219033 2.97194 0
M  V30 7698 H 718.878 -0.0963803 1.46784 0
M  V30 7699 H 720.836 -2.68949 3.1894 0
M  V30 7700 H 719.466 -2.4788 2.06773 0
M  V30 7701 H 718.518 -0.724273 3.73441 0
M  V30 7702 H 719.83 -1.16417 4.85024 0
M  V30 7703 H 718.984 -3.51806 4.94285 0
M  V30 7704 H 717.723 -3.13277 3.73777 0
M  V30 7705 H 716.728 -1.44299 5.30526 0
M  V30 7706 H 717.953 -1.85432 6.53293 0
M  V30 7707 H 715.899 -3.7718 5.36723 0
M  V30 7708 H 715.816 -3.02435 6.9287 0
M  V30 7709 H 717.084 -4.16413 6.58954 0
M  V30 7710 N 721.313 -1.57302 -0.09688 0
M  V30 7711 C 722.243 -2.0497 -1.11846 0
M  V30 7712 C 723.224 -0.938278 -1.41882 0
M  V30 7713 O 724.409 -1.20943 -1.51942 0
M  V30 7714 C 721.539 -2.47264 -2.43881 0
M  V30 7715 C 720.493 -3.62053 -2.28257 0
M  V30 7716 C 719.819 -3.90318 -3.65453 0
M  V30 7717 C 721.119 -4.93005 -1.72461 0
M  V30 7718 H 722.813 -2.90567 -0.721888 0
M  V30 7719 H 720.359 -1.39786 -0.345803 0
M  V30 7720 H 722.312 -2.7922 -3.15617 0
M  V30 7721 H 721.036 -1.58664 -2.8547 0
M  V30 7722 H 719.695 -3.30341 -1.58967 0
M  V30 7723 H 719.343 -2.98889 -4.04567 0
M  V30 7724 H 719.043 -4.67597 -3.55846 0
M  V30 7725 H 720.567 -4.24747 -4.3866 0
M  V30 7726 H 721.981 -5.23354 -2.34036 0
M  V30 7727 H 720.378 -5.74436 -1.73618 0
M  V30 7728 H 721.448 -4.80053 -0.683898 0
M  V30 7729 N 722.791 0.367657 -1.53252 0
M  V30 7730 C 724.207 0.709191 -1.42978 0
M  V30 7731 C 724.407 1.93352 -0.567193 0
M  V30 7732 O 723.463 2.52453 -0.0488349 0
M  V30 7733 C 724.776 0.924338 -2.86141 0
M  V30 7734 C 726.324 1.02448 -2.95759 0
M  V30 7735 C 726.799 1.27211 -4.39979 0
M  V30 7736 N 728.29 1.33986 -4.43398 0
M  V30 7737 C 729.025 1.54852 -5.52095 0
M  V30 7738 N 728.521 1.73049 -6.7084 0
M  V30 7739 N 730.314 1.57205 -5.39669 0
M  V30 7740 H 722.465 -0.437669 -2.07842 0
M  V30 7741 H 724.728 -0.133737 -0.938519 0
M  V30 7742 H 724.434 0.0965455 -3.51567 0
M  V30 7743 H 724.308 1.83302 -3.29667 0
M  V30 7744 H 726.695 1.84282 -2.30487 0
M  V30 7745 H 726.776 0.0932301 -2.5563 0
M  V30 7746 H 726.42 0.458792 -5.05824 0
M  V30 7747 H 726.35 2.21654 -4.77679 0
M  V30 7748 H 728.841 1.21545 -3.5782 0
M  V30 7749 H 729.154 1.88538 -7.49449 0
M  V30 7750 H 727.499 1.70231 -6.7383 0
M  V30 7751 H 730.69 1.42555 -4.45865 0
M  V30 7752 H 730.863 1.73126 -6.24445 0
M  V30 7753 N 724.269 1.44576 0.627338 0
M  V30 7754 C 725.232 1.51372 1.72102 0
M  V30 7755 C 726.232 0.395329 1.55865 0
M  V30 7756 O 727.422 0.658094 1.61291 0
M  V30 7757 C 724.554 1.39129 3.11217 0
M  V30 7758 H 725.747 2.48798 1.6745 0
M  V30 7759 H 723.3 1.31724 0.841336 0
M  V30 7760 H 724.035 0.428114 3.21462 0
M  V30 7761 H 723.82 2.20229 3.24409 0
M  V30 7762 H 725.31 1.46874 3.90919 0
M  V30 7763 N 725.747 -0.868086 1.31537 0
M  V30 7764 C 726.71 -1.95703 1.19302 0
M  V30 7765 C 727.71 -1.60355 0.119612 0
M  V30 7766 O 728.9 -1.70247 0.36902 0
M  V30 7767 C 726.032 -3.30599 0.831684 0
M  V30 7768 H 727.225 -2.07982 2.16064 0
M  V30 7769 H 724.778 -1.05661 1.15176 0
M  V30 7770 H 725.513 -3.2402 -0.134694 0
M  V30 7771 H 725.298 -3.57629 1.60761 0
M  V30 7772 H 726.788 -4.10439 0.770026 0
M  V30 7773 N 727.225 -1.14528 -1.08264 0
M  V30 7774 C 728.641 -0.885976 -1.3275 0
M  V30 7775 C 728.841 0.472096 -1.95892 0
M  V30 7776 O 727.897 1.21606 -2.21288 0
M  V30 7777 C 729.21 -2.01982 -2.22764 0
M  V30 7778 C 730.758 -2.05329 -2.36239 0
M  V30 7779 C 731.233 -3.1801 -3.29596 0
M  V30 7780 N 732.724 -3.17598 -3.37173 0
M  V30 7781 C 733.459 -4.01426 -4.09444 0
M  V30 7782 N 732.955 -4.95297 -4.8441 0
M  V30 7783 N 734.748 -3.89482 -4.0529 0
M  V30 7784 H 726.899 -2.01996 -0.656607 0
M  V30 7785 H 729.162 -0.880274 -0.351884 0
M  V30 7786 H 728.868 -2.99964 -1.83615 0
M  V30 7787 H 728.742 -1.94421 -3.23234 0
M  V30 7788 H 731.129 -1.07953 -2.74646 0
M  V30 7789 H 731.21 -2.1696 -1.35506 0
M  V30 7790 H 730.854 -4.15633 -2.9191 0
M  V30 7791 H 730.784 -3.03616 -4.30261 0
M  V30 7792 H 733.275 -2.4961 -2.83731 0
M  V30 7793 H 733.588 -5.55723 -5.37021 0
M  V30 7794 H 731.933 -4.99293 -4.83457 0
M  V30 7795 H 735.124 -3.15465 -3.45832 0
M  V30 7796 H 735.297 -4.55039 -4.6135 0
M  V30 7797 N 728.703 1.26451 -0.940633 0
M  V30 7798 C 729.633 2.28773 -0.467479 0
M  V30 7799 C 730.614 1.63218 0.478955 0
M  V30 7800 O 731.799 1.90427 0.380929 0
M  V30 7801 C 728.929 3.46259 0.268656 0
M  V30 7802 C 727.883 4.23898 -0.591171 0
M  V30 7803 C 727.209 5.33993 0.274891 0
M  V30 7804 C 728.509 4.87974 -1.86223 0
M  V30 7805 H 730.203 2.68601 -1.32265 0
M  V30 7806 H 727.749 1.29123 -0.637436 0
M  V30 7807 H 729.702 4.16951 0.610696 0
M  V30 7808 H 728.426 3.05383 1.15796 0
M  V30 7809 H 727.085 3.54969 -0.916098 0
M  V30 7810 H 726.733 4.89358 1.16353 0
M  V30 7811 H 726.433 5.86849 -0.297006 0
M  V30 7812 H 727.957 6.07523 0.612213 0
M  V30 7813 H 729.371 5.50883 -1.58747 0
M  V30 7814 H 727.768 5.50945 -2.37866 0
M  V30 7815 H 728.838 4.10945 -2.57394 0
M  V30 7816 N 730.181 0.707592 1.40822 0
M  V30 7817 C 731.427 0.244031 2.01326 0
M  V30 7818 C 731.76 -1.15722 1.55955 0
M  V30 7819 O 731.035 -1.78347 0.776044 0
M  V30 7820 C 731.318 0.315128 3.58718 0
M  V30 7821 C 731.171 1.75419 4.14184 0
M  V30 7822 C 732.49 -0.318251 4.38948 0
M  V30 7823 H 729.609 0.0901471 0.731466 0
M  V30 7824 H 732.251 0.898584 1.67408 0
M  V30 7825 H 730.401 -0.242176 3.87744 0
M  V30 7826 H 732.073 2.36626 3.95987 0
M  V30 7827 H 730.316 2.28449 3.68773 0
M  V30 7828 H 730.987 1.75538 5.23345 0
M  V30 7829 H 733.463 0.156514 4.15806 0
M  V30 7830 H 732.339 -0.238019 5.48384 0
M  V30 7831 H 732.6 -1.40067 4.19325 0
M  V30 7832 N 731.66 -1.50943 0.453197 0
M  V30 7833 C 732.57 -2.31884 -0.355963 0
M  V30 7834 C 733.586 -1.41481 -1.01287 0
M  V30 7835 O 734.762 -1.74546 -1.00477 0
M  V30 7836 C 731.827 -3.15668 -1.43369 0
M  V30 7837 C 730.888 -4.2187 -0.795253 0
M  V30 7838 C 730.121 -5.0165 -1.82162 0
M  V30 7839 O 730.344 -4.82266 -3.04592 0
M  V30 7840 O 729.278 -5.85311 -1.40336 0
M  V30 7841 H 733.104 -3.02162 0.305248 0
M  V30 7842 H 730.689 -1.47839 0.215398 0
M  V30 7843 H 732.571 -3.67709 -2.05836 0
M  V30 7844 H 731.246 -2.48137 -2.07869 0
M  V30 7845 H 730.153 -3.73867 -0.132106 0
M  V30 7846 H 731.486 -4.9182 -0.193484 0
M  V30 7847 N 733.138 -0.185124 -1.56509 0
M  V30 7848 C 734.387 0.456421 -1.96468 0
M  V30 7849 C 734.7 1.63448 -1.07444 0
M  V30 7850 O 735.906 2.34316 -1.37143 0
M  V30 7851 C 734.362 0.863404 -3.4939 0
M  V30 7852 C 733.97 -0.289815 -4.47062 0
M  V30 7853 C 735.714 1.47259 -3.98139 0
M  V30 7854 C 733.621 0.137571 -5.9124 0
M  V30 7855 H 732.551 0.17429 -0.733579 0
M  V30 7856 H 735.202 -0.275554 -1.81419 0
M  V30 7857 H 733.584 1.65176 -3.59907 0
M  V30 7858 H 734.758 -1.06728 -4.4827 0
M  V30 7859 H 733.073 -0.809851 -4.08449 0
M  V30 7860 H 735.67 1.80463 -5.03326 0
M  V30 7861 H 736.013 2.3755 -3.41871 0
M  V30 7862 H 736.546 0.748405 -3.90696 0
M  V30 7863 H 733.285 -0.730907 -6.51412 0
M  V30 7864 H 732.805 0.8801 -5.93308 0
M  V30 7865 H 734.484 0.576771 -6.44424 0
M  V30 7866 N 734.616 1.57351 0.0885366 0
M  V30 7867 C 735.579 2.01557 1.09121 0
M  V30 7868 C 736.579 0.910052 1.3257 0
M  V30 7869 O 737.769 1.17537 1.28572 0
M  V30 7870 C 734.901 2.38189 2.43883 0
M  V30 7871 H 736.094 2.91361 0.710562 0
M  V30 7872 H 733.647 1.52694 0.333779 0
M  V30 7873 H 734.382 1.5136 2.86811 0
M  V30 7874 H 734.167 3.18846 2.28209 0
M  V30 7875 H 735.657 2.73025 3.15986 0
M  V30 7876 N 736.094 -0.359525 1.53444 0
M  V30 7877 C 737.057 -1.42357 1.7963 0
M  V30 7878 C 738.057 -1.46319 0.666884 0
M  V30 7879 O 739.247 -1.46974 0.935113 0
M  V30 7880 C 736.379 -2.81425 1.92387 0
M  V30 7881 H 737.572 -1.20409 2.74666 0
M  V30 7882 H 735.125 -0.593007 1.44614 0
M  V30 7883 H 735.86 -3.08679 0.994384 0
M  V30 7884 H 735.645 -2.79947 2.74539 0
M  V30 7885 H 737.135 -3.5847 2.14218 0
M  V30 7886 N 737.572 -1.44907 -0.619662 0
M  V30 7887 C 738.519 -1.52654 -1.73105 0
M  V30 7888 C 739.489 -0.373334 -1.6185 0
M  V30 7889 O 740.674 -0.585143 -1.81606 0
M  V30 7890 C 737.814 -1.48769 -3.11387 0
M  V30 7891 C 736.927 -2.74551 -3.33535 0
M  V30 7892 C 736.062 -2.62421 -4.61854 0
M  V30 7893 C 735.101 -3.83312 -4.77219 0
M  V30 7894 N 734.238 -3.69789 -5.96826 0
M  V30 7895 H 739.078 -2.47605 -1.65819 0
M  V30 7896 H 736.615 -1.22875 -0.808719 0
M  V30 7897 H 738.573 -1.44507 -3.91374 0
M  V30 7898 H 737.203 -0.573783 -3.1766 0
M  V30 7899 H 736.255 -2.88953 -2.47408 0
M  V30 7900 H 737.567 -3.64253 -3.40765 0
M  V30 7901 H 736.721 -2.56056 -5.50019 0
M  V30 7902 H 735.46 -1.70298 -4.57001 0
M  V30 7903 H 734.465 -3.90049 -3.87481 0
M  V30 7904 H 735.69 -4.76486 -4.83878 0
M  V30 7905 H 733.636 -2.80426 -5.93041 0
M  V30 7906 H 733.553 -4.53116 -6.05163 0
M  V30 7907 H 734.821 -3.67335 -6.87521 0
M  V30 7908 N 739.05 0.861098 -1.31996 0
M  V30 7909 C 739.998 1.99052 -1.20337 0
M  V30 7910 C 740.992 1.69045 -0.109623 0
M  V30 7911 O 742.198 1.77931 -0.272117 0
M  V30 7912 H 738.573 0.653064 -0.372843 0
M  V30 7913 H 740.544 2.06015 -2.15872 0
M  V30 7914 C 739.293 3.34846 -0.936663 0
M  V30 7915 H 738.616 3.58462 -1.77045 0
M  V30 7916 H 740.056 4.1444 -0.895302 0
M  V30 7917 C 738.515 3.34965 0.360607 0
M  V30 7918 O 739.045 3.7745 1.37456 0
M  V30 7919 N 737.251 2.88101 0.380296 0
M  V30 7920 H 736.798 2.53721 -0.445351 0
M  V30 7921 H 736.756 2.88563 1.24816 0
M  V30 7922 N 740.528 1.15101 1.07655 0
M  V30 7923 C 741.458 0.867864 2.16773 0
M  V30 7924 C 742.439 -0.180283 1.69142 0
M  V30 7925 O 743.624 -0.0353152 1.94168 0
M  V30 7926 C 740.754 0.35299 3.45501 0
M  V30 7927 C 739.708 1.33746 4.06566 0
M  V30 7928 C 739.034 0.681562 5.30338 0
M  V30 7929 C 740.334 2.7024 4.46954 0
M  V30 7930 H 742.028 1.78034 2.40716 0
M  V30 7931 H 739.574 0.857435 1.15689 0
M  V30 7932 H 741.527 0.142465 4.21159 0
M  V30 7933 H 740.251 -0.594945 3.21135 0
M  V30 7934 H 738.91 1.53429 3.32949 0
M  V30 7935 H 738.558 -0.272422 5.02262 0
M  V30 7936 H 738.258 1.33853 5.72151 0
M  V30 7937 H 739.782 0.48074 6.08705 0
M  V30 7938 H 741.196 2.5442 5.13754 0
M  V30 7939 H 739.593 3.32282 4.99709 0
M  V30 7940 H 740.663 3.26537 3.58471 0
M  V30 7941 N 742.006 -1.2595 0.947325 0
M  V30 7942 C 742.938 -2.25336 0.41906 0
M  V30 7943 C 743.951 -1.56135 -0.461051 0
M  V30 7944 O 745.14 -1.76438 -0.270505 0
M  V30 7945 C 742.24 -3.36334 -0.416233 0
M  V30 7946 C 741.413 -4.35088 0.449162 0
M  V30 7947 C 740.472 -5.25185 -0.326716 0
M  V30 7948 O 739.498 -5.68548 0.272374 0
M  V30 7949 N 740.7 -5.57388 -1.6217 0
M  V30 7950 H 743.465 -2.71298 1.27348 0
M  V30 7951 H 741.026 -1.39781 0.81688 0
M  V30 7952 H 743.018 -3.93564 -0.942826 0
M  V30 7953 H 741.588 -2.89819 -1.17148 0
M  V30 7954 H 740.808 -3.76841 1.15692 0
M  V30 7955 H 742.096 -4.98056 1.04008 0
M  V30 7956 H 741.494 -5.2405 -2.13046 0
M  V30 7957 H 740.051 -6.17234 -2.0944 0
M  V30 7958 N 743.484 -0.715051 -1.40445 0
M  V30 7959 C 744.431 -0.0621393 -2.30716 0
M  V30 7960 C 745.401 0.750871 -1.48159 0
M  V30 7961 O 746.586 0.714928 -1.76899 0
M  V30 7962 C 743.726 0.854036 -3.34365 0
M  V30 7963 C 742.839 0.0305565 -4.31989 0
M  V30 7964 C 741.974 0.946162 -5.22706 0
M  V30 7965 C 741.013 0.116741 -6.11989 0
M  V30 7966 N 740.15 0.987194 -6.95125 0
M  V30 7967 H 744.99 -0.83764 -2.85985 0
M  V30 7968 H 742.527 -0.424759 -1.40834 0
M  V30 7969 H 744.485 1.39946 -3.93028 0
M  V30 7970 H 743.115 1.59572 -2.806 0
M  V30 7971 H 742.167 -0.632044 -3.75112 0
M  V30 7972 H 743.479 -0.611615 -4.95036 0
M  V30 7973 H 742.633 1.56014 -5.86297 0
M  V30 7974 H 741.372 1.62216 -4.59932 0
M  V30 7975 H 740.377 -0.510176 -5.47428 0
M  V30 7976 H 741.602 -0.555742 -6.76822 0
M  V30 7977 H 739.548 1.64885 -6.3494 0
M  V30 7978 H 739.465 0.401046 -7.54936 0
M  V30 7979 H 740.733 1.58737 -7.63166 0
M  V30 7980 N 744.962 1.50701 -0.461195 0
M  V30 7981 C 745.872 2.32069 0.343661 0
M  V30 7982 C 746.888 1.42016 1.00535 0
M  V30 7983 O 748.064 1.75077 0.995498 0
M  V30 7984 C 745.129 3.16424 1.41692 0
M  V30 7985 C 744.19 4.22286 0.772869 0
M  V30 7986 C 743.423 5.02609 1.79499 0
M  V30 7987 O 743.646 4.83874 3.0203 0
M  V30 7988 O 742.58 5.86047 1.3723 0
M  V30 7989 H 746.406 3.01996 -0.321268 0
M  V30 7990 H 743.991 1.47723 -0.223235 0
M  V30 7991 H 745.873 3.68795 2.03883 0
M  V30 7992 H 744.548 2.49236 2.0655 0
M  V30 7993 H 743.455 3.73931 0.112277 0
M  V30 7994 H 744.788 4.91915 0.167399 0
M  V30 7995 N 746.441 0.193421 1.56409 0
M  V30 7996 C 747.687 -0.446449 1.97825 0
M  V30 7997 C 748.02 -1.61386 1.08019 0
M  V30 7998 O 747.295 -1.94053 0.131839 0
M  V30 7999 C 747.578 -0.908199 3.48459 0
M  V30 8000 C 747.431 0.260914 4.49043 0
M  V30 8001 C 748.75 -1.77428 4.0275 0
M  V30 8002 H 745.869 -0.160807 0.719243 0
M  V30 8003 H 748.511 0.284006 1.87865 0
M  V30 8004 H 746.661 -1.53062 3.57077 0
M  V30 8005 H 748.333 0.898548 4.52464 0
M  V30 8006 H 746.576 0.912949 4.24085 0
M  V30 8007 H 747.247 -0.104657 5.51901 0
M  V30 8008 H 749.723 -1.24936 3.96901 0
M  V30 8009 H 748.599 -2.06633 5.08521 0
M  V30 8010 H 748.86 -2.72788 3.47907 0
M  V30 8011 N 747.919 -1.57396 -0.0801906 0
M  V30 8012 C 749.168 -1.8602 -0.779702 0
M  V30 8013 C 749.481 -0.784864 -1.79163 0
M  V30 8014 O 750.687 -0.958691 -2.54011 0
M  V30 8015 C 749.143 -3.29942 -1.43758 0
M  V30 8016 C 748.751 -4.45584 -0.464654 0
M  V30 8017 C 750.495 -3.67775 -2.11995 0
M  V30 8018 C 748.402 -5.80544 -1.12797 0
M  V30 8019 H 747.332 -0.69392 -0.294943 0
M  V30 8020 H 749.983 -1.83471 -0.0328527 0
M  V30 8021 H 748.365 -3.27078 -2.2324 0
M  V30 8022 H 749.539 -4.59824 0.299749 0
M  V30 8023 H 747.854 -4.16247 0.112813 0
M  V30 8024 H 750.451 -4.65896 -2.62383 0
M  V30 8025 H 750.794 -2.9715 -2.91561 0
M  V30 8026 H 751.327 -3.72593 -1.39354 0
M  V30 8027 H 748.066 -6.54439 -0.372807 0
M  V30 8028 H 747.586 -5.70119 -1.86344 0
M  V30 8029 H 749.265 -6.25602 -1.6502 0
M  V30 8030 N 749.397 0.351382 -1.53633 0
M  V30 8031 C 750.347 1.4316 -1.77452 0
M  V30 8032 C 751.331 1.48076 -0.62946 0
M  V30 8033 O 752.523 1.53078 -0.888599 0
M  V30 8034 C 749.652 2.80409 -1.98055 0
M  V30 8035 C 748.738 2.79915 -3.18604 0
M  V30 8036 N 749.129 2.49057 -4.40232 0
M  V30 8037 C 747.427 3.11067 -3.19614 0
M  V30 8038 C 748.128 2.566 -5.22045 0
M  V30 8039 N 747.104 2.919 -4.5858 0
M  V30 8040 H 750.906 1.18188 -2.69089 0
M  V30 8041 H 748.42 0.559684 -1.52451 0
M  V30 8042 H 750.417 3.58231 -2.13251 0
M  V30 8043 H 749.077 3.06334 -1.07655 0
M  V30 8044 H 750.088 2.22395 -4.67719 0
M  V30 8045 H 746.765 3.42215 -2.39154 0
M  V30 8046 H 748.155 2.35968 -6.29101 0
M  V30 8047 N 750.875 1.45233 0.611969 0
M  V30 8048 C 752.291 1.29542 0.932251 0
M  V30 8049 C 752.491 0.24523 2.00002 0
M  V30 8050 O 751.547 -0.362333 2.49887 0
M  V30 8051 C 752.86 2.67301 1.37733 0
M  V30 8052 C 754.408 2.75163 1.49178 0
M  V30 8053 C 754.883 4.13437 1.97064 0
M  V30 8054 N 756.374 4.15709 2.04304 0
M  V30 8055 C 757.109 5.19566 2.42568 0
M  V30 8056 N 756.605 6.33771 2.79832 0
M  V30 8057 N 758.398 5.06923 2.42869 0
M  V30 8058 H 750.549 2.12192 -0.0938679 0
M  V30 8059 H 752.812 0.947775 0.0206569 0
M  V30 8060 H 752.518 3.45318 0.666951 0
M  V30 8061 H 752.392 2.95472 2.3447 0
M  V30 8062 H 754.779 1.97453 2.19309 0
M  V30 8063 H 754.86 2.50712 0.507674 0
M  V30 8064 H 754.504 4.91631 1.27521 0
M  V30 8065 H 754.434 4.35277 2.9638 0
M  V30 8066 H 756.925 3.33293 1.78113 0
M  V30 8067 H 757.238 7.08815 3.07898 0
M  V30 8068 H 755.583 6.37179 2.77538 0
M  V30 8069 H 758.774 4.1675 2.1316 0
M  V30 8070 H 758.947 5.87981 2.72364 0
M  V30 8071 N 752.353 -0.854086 1.3245 0
M  V30 8072 C 753.3 -1.96271 1.21434 0
M  V30 8073 C 754.27 -1.6582 0.0963851 0
M  V30 8074 O 755.455 -1.88851 0.27203 0
M  V30 8075 C 752.595 -3.31939 0.943952 0
M  V30 8076 C 751.708 -3.74885 2.14675 0
M  V30 8077 C 750.843 -4.99347 1.81179 0
M  V30 8078 C 749.882 -5.34785 2.97777 0
M  V30 8079 N 749.019 -6.50425 2.6437 0
M  V30 8080 H 753.859 -2.05025 2.16261 0
M  V30 8081 H 751.396 -1.00348 1.07558 0
M  V30 8082 H 753.354 -4.10076 0.767675 0
M  V30 8083 H 751.984 -3.22784 0.0324763 0
M  V30 8084 H 751.036 -2.92396 2.43328 0
M  V30 8085 H 752.348 -3.97068 3.01891 0
M  V30 8086 H 751.502 -5.85193 1.60107 0
M  V30 8087 H 750.241 -4.79101 0.911777 0
M  V30 8088 H 749.246 -4.47451 3.1948 0
M  V30 8089 H 750.471 -5.56988 3.88511 0
M  V30 8090 H 748.417 -6.31695 1.7691 0
M  V30 8091 H 748.334 -6.7263 3.45116 0
M  V30 8092 H 749.602 -7.39422 2.46729 0
M  V30 8093 N 753.831 -1.1567 -1.07043 0
M  V30 8094 C 755.056 -0.957946 -1.83952 0
M  V30 8095 C 755.481 0.488807 -1.81638 0
M  V30 8096 O 754.839 1.34869 -1.21162 0
M  V30 8097 C 754.887 -1.48064 -3.288 0
M  V30 8098 O 753.991 -0.681921 -4.06723 0
M  V30 8099 H 753.332 -0.341453 -0.569479 0
M  V30 8100 H 755.862 -1.53728 -1.35015 0
M  V30 8101 H 755.872 -1.49484 -3.7963 0
M  V30 8102 H 754.547 -2.53388 -3.29799 0
M  V30 8103 H 753.124 -0.737612 -3.65532 0
M  V30 8104 N 755.309 1.25446 -0.953992 0
M  V30 8105 C 756.256 2.25912 -0.472485 0
M  V30 8106 C 757.226 1.59173 0.47469 0
M  V30 8107 O 758.411 1.86812 0.388082 0
M  V30 8108 C 755.551 3.44235 0.244218 0
M  V30 8109 C 754.664 4.25613 -0.740121 0
M  V30 8110 C 753.799 5.312 -0.000922267 0
M  V30 8111 C 752.838 6.04265 -0.976236 0
M  V30 8112 N 751.975 7.01589 -0.267952 0
M  V30 8113 H 756.815 2.66469 -1.3341 0
M  V30 8114 H 754.352 1.31005 -0.669045 0
M  V30 8115 H 756.31 4.11682 0.676314 0
M  V30 8116 H 754.94 3.04554 1.06988 0
M  V30 8117 H 753.992 3.57834 -1.2907 0
M  V30 8118 H 755.304 4.762 -1.48441 0
M  V30 8119 H 754.458 6.04719 0.48984 0
M  V30 8120 H 753.197 4.81484 0.776159 0
M  V30 8121 H 752.202 5.29561 -1.478 0
M  V30 8122 H 753.427 6.5607 -1.75354 0
M  V30 8123 H 751.373 6.54164 0.490403 0
M  V30 8124 H 751.29 7.4999 -0.951344 0
M  V30 8125 H 752.558 7.7924 0.201294 0
M  V30 8126 N 756.787 0.722489 1.40064 0
M  V30 8127 C 757.697 0.0755984 2.34478 0
M  V30 8128 C 758.713 -0.736046 1.57665 0
M  V30 8129 O 759.889 -0.667407 1.9002 0
M  V30 8130 C 756.954 -0.830075 3.36616 0
M  V30 8131 C 756.015 -0.00759884 4.29299 0
M  V30 8132 C 755.248 -0.870139 5.26559 0
M  V30 8133 O 755.471 -2.10921 5.2997 0
M  V30 8134 O 754.405 -0.305454 6.01124 0
M  V30 8135 H 758.231 0.854545 2.9143 0
M  V30 8136 H 755.816 0.483032 1.41376 0
M  V30 8137 H 757.698 -1.34864 3.99236 0
M  V30 8138 H 756.373 -1.58805 2.82069 0
M  V30 8139 H 755.28 0.556199 3.69942 0
M  V30 8140 H 756.613 0.712312 4.87018 0
M  V30 8141 N 758.265 -1.50454 0.469181 0
M  V30 8142 C 759.511 -2.02615 -0.0865971 0
M  V30 8143 C 759.844 -1.35062 -1.39542 0
M  V30 8144 O 759.119 -0.475701 -1.88593 0
M  V30 8145 C 759.402 -3.59068 -0.272385 0
M  V30 8146 C 759.255 -4.37196 1.05733 0
M  V30 8147 C 760.574 -4.2793 -1.0278 0
M  V30 8148 H 757.693 -0.736389 -0.0299977 0
M  V30 8149 H 760.335 -1.79792 0.614399 0
M  V30 8150 H 758.485 -3.78646 -0.869471 0
M  V30 8151 H 760.157 -4.29195 1.69084 0
M  V30 8152 H 758.4 -4.01013 1.65442 0
M  V30 8153 H 759.071 -5.44924 0.880997 0
M  V30 8154 H 761.547 -4.12816 -0.521718 0
M  V30 8155 H 760.423 -5.37214 -1.12659 0
M  V30 8156 H 760.684 -3.90968 -2.0639 0
M  V30 8157 N 759.743 -0.201713 -1.56304 0
M  V30 8158 C 760.706 0.702811 -2.18159 0
M  V30 8159 C 761.706 1.13619 -1.13787 0
M  V30 8160 O 762.896 1.0482 -1.39134 0
M  V30 8161 C 760.028 1.96032 -2.78898 0
M  V30 8162 H 761.221 0.163836 -2.99452 0
M  V30 8163 H 758.774 0.04791 -1.56227 0
M  V30 8164 H 759.509 2.54165 -2.01421 0
M  V30 8165 H 759.294 1.65824 -3.55309 0
M  V30 8166 H 760.784 2.60519 -3.26373 0
M  V30 8167 N 761.222 1.57436 0.0718424 0
M  V30 8168 C 762.468 1.88388 0.766904 0
M  V30 8169 C 762.823 0.7954 1.75189 0
M  V30 8170 O 762.116 -0.200438 1.90549 0
M  V30 8171 C 762.31 3.23723 1.51455 0
M  V30 8172 C 762.139 4.45632 0.603475 0
M  V30 8173 C 760.909 5.04728 0.240437 0
M  V30 8174 C 763.107 5.14203 -0.0997624 0
M  V30 8175 N 761.089 6.10163 -0.676363 0
M  V30 8176 C 762.46 6.13812 -0.873755 0
M  V30 8177 C 764.515 4.97605 -0.171238 0
M  V30 8178 C 763.218 6.98615 -1.71258 0
M  V30 8179 C 765.244 5.82935 -0.997041 0
M  V30 8180 C 764.606 6.82082 -1.75908 0
M  V30 8181 H 760.705 0.738888 0.256064 0
M  V30 8182 H 763.289 1.94679 0.0284273 0
M  V30 8183 H 761.46 3.1844 2.22375 0
M  V30 8184 H 763.192 3.42324 2.15862 0
M  V30 8185 H 759.947 4.69869 0.593284 0
M  V30 8186 H 760.371 6.67537 -1.12801 0
M  V30 8187 H 765.013 4.20869 0.403586 0
M  V30 8188 H 762.731 7.74726 -2.29838 0
M  V30 8189 H 766.317 5.72149 -1.05532 0
M  V30 8190 H 765.197 7.46964 -2.38778 0
M  V30 8191 N 762.7 -0.34323 1.53817 0
M  V30 8192 C 763.648 -1.44176 1.82527 0
M  V30 8193 C 764.642 -1.54452 0.695772 0
M  V30 8194 O 765.848 -1.57072 0.879114 0
M  V30 8195 H 762.223 -0.480729 0.578277 0
M  V30 8196 H 764.194 -1.17176 2.74431 0
M  V30 8197 C 762.943 -2.80695 2.05197 0
M  V30 8198 H 762.266 -2.73554 2.91561 0
M  V30 8199 H 763.706 -3.56679 2.29251 0
M  V30 8200 C 762.165 -3.26322 0.837589 0
M  V30 8201 O 762.695 -4.01683 0.0371631 0
M  V30 8202 N 760.901 -2.83128 0.654724 0
M  V30 8203 H 760.448 -2.21965 1.30725 0
M  V30 8204 H 760.406 -3.14011 -0.156345 0
M  V30 8205 N 764.178 -1.45556 -0.604258 0
M  V30 8206 C 765.108 -1.57327 -1.72541 0
M  V30 8207 C 766.089 -0.424637 -1.64714 0
M  V30 8208 O 767.274 -0.648196 -1.83063 0
M  V30 8209 C 764.404 -1.54279 -3.11152 0
M  V30 8210 C 763.358 -2.67893 -3.33792 0
M  V30 8211 C 762.684 -2.499 -4.72709 0
M  V30 8212 C 763.984 -4.0988 -3.23722 0
M  V30 8213 H 765.678 -2.51175 -1.62947 0
M  V30 8214 H 763.224 -1.20884 -0.782504 0
M  V30 8215 H 765.177 -1.6111 -3.89386 0
M  V30 8216 H 763.901 -0.569627 -3.21594 0
M  V30 8217 H 762.56 -2.60495 -2.57949 0
M  V30 8218 H 762.208 -1.50715 -4.79889 0
M  V30 8219 H 761.908 -3.26091 -4.88813 0
M  V30 8220 H 763.432 -2.5859 -5.5314 0
M  V30 8221 H 764.846 -4.18503 -3.91826 0
M  V30 8222 H 763.243 -4.86487 -3.51355 0
M  V30 8223 H 764.313 -4.31553 -2.21111 0
M  V30 8224 N 765.656 0.84705 -1.32902 0
M  V30 8225 C 766.884 1.63403 -1.26913 0
M  V30 8226 C 767.299 1.88108 0.161483 0
M  V30 8227 O 766.656 1.45546 1.10103 0
M  V30 8228 C 766.707 2.98896 -2.03331 0
M  V30 8229 O 766.428 2.75281 -3.40811 0
M  V30 8230 C 767.929 3.93335 -2.04457 0
M  V30 8231 H 765.149 0.508701 -0.437566 0
M  V30 8232 H 767.693 1.05567 -1.75145 0
M  V30 8233 H 765.848 3.53356 -1.58802 0
M  V30 8234 H 766.262 3.61504 -3.8002 0
M  V30 8235 H 767.736 4.85647 -2.62394 0
M  V30 8236 H 768.213 4.26885 -1.03274 0
M  V30 8237 H 768.819 3.44812 -2.48967 0
M  V30 8238 N 767.134 1.16236 1.06428 0
M  V30 8239 C 768.359 0.967688 1.83441 0
M  V30 8240 C 768.784 -0.479167 1.81894 0
M  V30 8241 O 768.142 -1.34224 1.21875 0
M  V30 8242 C 768.19 1.49806 3.2801 0
M  V30 8243 O 767.294 0.703481 4.06356 0
M  V30 8244 H 766.635 0.344468 0.56766 0
M  V30 8245 H 769.165 1.54442 1.34197 0
M  V30 8246 H 769.175 1.51495 3.78831 0
M  V30 8247 H 767.85 2.55133 3.2845 0
M  V30 8248 H 766.427 0.756986 3.65136 0
M  V30 8249 N 768.612 -1.24939 0.960631 0
M  V30 8250 C 769.858 -1.93104 0.61958 0
M  V30 8251 C 770.191 -1.74991 -0.84212 0
M  V30 8252 O 769.466 -1.09867 -1.60498 0
M  V30 8253 C 769.749 -3.46326 0.986422 0
M  V30 8254 C 769.602 -3.73638 2.50429 0
M  V30 8255 C 770.921 -4.37067 0.515827 0
M  V30 8256 H 768.04 -0.701311 0.226566 0
M  V30 8257 H 770.682 -1.47442 1.19836 0
M  V30 8258 H 768.832 -3.85348 0.493907 0
M  V30 8259 H 770.504 -3.44217 3.07103 0
M  V30 8260 H 768.747 -3.19035 2.93937 0
M  V30 8261 H 769.418 -4.80815 2.71147 0
M  V30 8262 H 771.894 -4.05381 0.938389 0
M  V30 8263 H 770.77 -5.43022 0.80114 0
M  V30 8264 H 771.031 -4.38224 -0.584171 0
M  V30 8265 N 770.09 -0.729906 -1.39679 0
M  V30 8266 C 771.367 -0.202149 -1.94553 0
M  V30 8267 C 771.747 1.29507 -1.66707 0
M  V30 8268 O 771.095 2.05819 -0.992517 0
M  V30 8269 C 771.305 -0.530279 -3.44948 0
M  V30 8270 C 772.653 -0.476808 -4.21914 0
M  V30 8271 O 773.677 -0.467171 -3.53123 0
M  V30 8272 O 772.536 -0.466869 -5.44502 0
M  V30 8273 H 769.63 -0.0351644 -0.826252 0
M  V30 8274 H 772.176 -0.808417 -1.49207 0
M  V30 8275 H 770.948 -1.56526 -3.5863 0
M  V30 8276 H 770.571 0.10522 -3.97461 0
M  V30 8277 N 771.568 1.50203 -0.477153 0
M  V30 8278 C 772.498 2.31517 0.303646 0
M  V30 8279 C 773.479 1.38696 0.984753 0
M  V30 8280 O 774.664 1.67615 0.980758 0
M  V30 8281 C 771.794 3.18598 1.38249 0
M  V30 8282 C 770.748 4.2002 0.822645 0
M  V30 8283 C 770.074 4.95878 2.00024 0
M  V30 8284 C 771.374 5.22023 -0.170185 0
M  V30 8285 H 773.068 2.97042 -0.375027 0
M  V30 8286 H 770.614 1.42848 -0.181802 0
M  V30 8287 H 772.567 3.74282 1.93625 0
M  V30 8288 H 771.291 2.5097 2.09002 0
M  V30 8289 H 769.95 3.65445 0.290813 0
M  V30 8290 H 769.598 4.24717 2.69489 0
M  V30 8291 H 769.298 5.64487 1.63183 0
M  V30 8292 H 770.822 5.54399 2.55878 0
M  V30 8293 H 772.236 5.72543 0.294606 0
M  V30 8294 H 770.633 5.98386 -0.453181 0
M  V30 8295 H 771.703 4.72396 -1.09408 0
M  V30 8296 N 773.046 0.209999 1.56195 0
M  V30 8297 C 774.292 -0.425442 1.98287 0
M  V30 8298 C 774.625 -1.60232 1.09724 0
M  V30 8299 O 773.9 -1.93902 0.152414 0
M  V30 8300 C 774.183 -0.871189 3.49403 0
M  V30 8301 C 774.036 0.308527 4.48741 0
M  V30 8302 C 775.355 -1.73146 4.04609 0
M  V30 8303 H 772.474 -0.153169 0.720908 0
M  V30 8304 H 775.116 0.303916 1.87554 0
M  V30 8305 H 773.266 -1.49266 3.58681 0
M  V30 8306 H 774.938 0.946487 4.51486 0
M  V30 8307 H 773.181 0.957878 4.23092 0
M  V30 8308 H 773.852 -0.0461143 5.51981 0
M  V30 8309 H 776.328 -1.2072 3.98203 0
M  V30 8310 H 775.204 -2.01228 5.10684 0
M  V30 8311 H 775.465 -2.69083 3.5078 0
M  V30 8312 N 774.524 -1.57472 -0.0634922 0
M  V30 8313 C 775.94 -1.54016 -0.418466 0
M  V30 8314 C 776.14 -0.931376 -1.78683 0
M  V30 8315 O 775.196 -0.537465 -2.46714 0
M  V30 8316 C 776.509 -2.98634 -0.351906 0
M  V30 8317 C 778.057 -3.10012 -0.431494 0
M  V30 8318 C 778.532 -4.56296 -0.394754 0
M  V30 8319 N 780.023 -4.60964 -0.454583 0
M  V30 8320 C 780.758 -5.71643 -0.448501 0
M  V30 8321 N 780.254 -6.91663 -0.396742 0
M  V30 8322 N 782.047 -5.5991 -0.495677 0
M  V30 8323 H 774.198 -1.95409 0.832408 0
M  V30 8324 H 776.461 -0.894769 0.313197 0
M  V30 8325 H 776.167 -3.46766 0.587048 0
M  V30 8326 H 776.041 -3.58955 -1.15893 0
M  V30 8327 H 778.428 -2.61848 -1.36087 0
M  V30 8328 H 778.509 -2.52585 0.404258 0
M  V30 8329 H 778.153 -5.05119 0.530811 0
M  V30 8330 H 778.083 -5.11594 -1.24815 0
M  V30 8331 H 780.574 -3.74598 -0.498496 0
M  V30 8332 H 780.887 -7.71783 -0.396256 0
M  V30 8333 H 779.232 -6.9405 -0.363304 0
M  V30 8334 H 782.423 -4.65046 -0.533864 0
M  V30 8335 H 782.596 -6.46164 -0.487469 0
M  V30 8336 N 776.003 0.335068 -1.53997 0
M  V30 8337 C 776.966 1.39481 -1.81872 0
M  V30 8338 C 777.966 1.4524 -0.690078 0
M  V30 8339 O 779.156 1.45467 -0.958377 0
M  V30 8340 C 776.288 2.78329 -1.9684 0
M  V30 8341 H 777.481 1.16024 -2.76547 0
M  V30 8342 H 775.034 0.569926 -1.45539 0
M  V30 8343 H 775.769 3.07058 -1.04337 0
M  V30 8344 H 775.554 2.75544 -2.78958 0
M  V30 8345 H 777.044 3.55016 -2.19894 0
M  V30 8346 N 777.481 1.45874 0.596531 0
M  V30 8347 C 778.706 1.54247 1.38646 0
M  V30 8348 C 779.131 0.179571 1.87241 0
M  V30 8349 O 778.489 -0.837831 1.6078 0
M  V30 8350 C 778.537 2.54015 2.55946 0
M  V30 8351 O 777.641 2.06561 3.5694 0
M  V30 8352 H 776.982 0.519555 0.413471 0
M  V30 8353 H 779.512 1.91327 0.724936 0
M  V30 8354 H 779.522 2.73179 3.03047 0
M  V30 8355 H 778.197 3.52994 2.19928 0
M  V30 8356 H 776.774 1.97324 3.16414 0
M  V30 8357 N 778.959 -0.83999 1.33349 0
M  V30 8358 C 779.869 -1.98182 1.25543 0
M  V30 8359 C 780.885 -1.73204 0.166208 0
M  V30 8360 O 782.061 -1.97596 0.389589 0
M  V30 8361 C 779.126 -3.32157 0.993614 0
M  V30 8362 C 778.187 -3.70258 2.17273 0
M  V30 8363 C 777.42 -4.9784 1.92331 0
M  V30 8364 O 777.643 -5.63679 0.873074 0
M  V30 8365 O 776.577 -5.33418 2.78835 0
M  V30 8366 H 780.403 -2.07708 2.21565 0
M  V30 8367 H 777.988 -0.972852 1.13384 0
M  V30 8368 H 779.87 -4.12433 0.864711 0
M  V30 8369 H 778.545 -3.23637 0.0636596 0
M  V30 8370 H 777.452 -2.90497 2.35716 0
M  V30 8371 H 778.785 -3.83442 3.08598 0
M  V30 8372 N 780.437 -1.16799 -1.0581 0
M  V30 8373 C 781.4 -0.881396 -2.11575 0
M  V30 8374 C 782.4 0.12574 -1.60308 0
M  V30 8375 O 783.59 -0.105716 -1.73879 0
M  V30 8376 C 780.722 -0.319037 -3.39404 0
M  V30 8377 H 781.915 -1.81907 -2.38432 0
M  V30 8378 H 779.468 -0.977597 -1.21954 0
M  V30 8379 H 780.203 0.626082 -3.18199 0
M  V30 8380 H 779.988 -1.04481 -3.77923 0
M  V30 8381 H 781.478 -0.13663 -4.17376 0
M  V30 8382 N 781.915 1.24427 -0.967243 0
M  V30 8383 C 782.865 2.23143 -0.468106 0
M  V30 8384 C 783.849 1.5449 0.449633 0
M  V30 8385 O 785.041 1.74761 0.28063 0
M  V30 8386 C 782.17 3.42454 0.240867 0
M  V30 8387 C 781.256 4.18355 -0.695674 0
M  V30 8388 N 781.647 4.71428 -1.83273 0
M  V30 8389 C 779.945 4.43116 -0.506365 0
M  V30 8390 C 780.646 5.29041 -2.41849 0
M  V30 8391 N 779.622 5.16213 -1.70369 0
M  V30 8392 H 783.424 2.61795 -1.3357 0
M  V30 8393 H 780.938 1.39809 -0.826277 0
M  V30 8394 H 782.935 4.12329 0.615668 0
M  V30 8395 H 781.595 3.05323 1.10491 0
M  V30 8396 H 782.606 4.68177 -2.21428 0
M  V30 8397 H 779.283 4.16319 0.313747 0
M  V30 8398 H 780.673 5.80811 -3.37799 0
M  V30 8399 N 783.393 0.737304 1.3929 0
M  V30 8400 C 784.633 0.290966 2.02318 0
M  V30 8401 C 784.997 -1.10174 1.57244 0
M  V30 8402 O 786.198 -1.64628 2.12488 0
M  V30 8403 C 784.469 0.391767 3.55246 0
M  V30 8404 S 786.028 0.0256103 4.38793 0
M  V30 8405 H 782.846 0.113862 0.701824 0
M  V30 8406 H 785.448 0.964329 1.70062 0
M  V30 8407 H 784.152 1.40662 3.85542 0
M  V30 8408 H 783.683 -0.299338 3.9226 0
M  V30 8409 H 785.698 -1.18991 4.81722 0
M  V30 8410 N 784.871 -1.49948 0.485112 0
M  V30 8411 C 785.821 -2.25734 -0.320658 0
M  V30 8412 C 786.805 -1.29907 -0.949373 0
M  V30 8413 O 787.997 -1.54725 -0.859601 0
M  V30 8414 C 785.126 -3.13728 -1.39391 0
M  V30 8415 C 784.212 -4.1701 -0.772225 0
M  V30 8416 N 784.603 -5.05667 0.115782 0
M  V30 8417 C 782.901 -4.33834 -1.03461 0
M  V30 8418 C 783.602 -5.79798 0.47004 0
M  V30 8419 N 782.578 -5.4337 -0.158204 0
M  V30 8420 H 786.38 -2.91647 0.36319 0
M  V30 8421 H 783.894 -1.59602 0.300154 0
M  V30 8422 H 785.891 -3.66639 -1.98447 0
M  V30 8423 H 784.551 -2.49365 -2.0796 0
M  V30 8424 H 785.562 -5.15619 0.485557 0
M  V30 8425 H 782.239 -3.80684 -1.71424 0
M  V30 8426 H 783.629 -6.61177 1.19558 0
M  V30 8427 N 786.349 -0.21828 -1.56081 0
M  V30 8428 C 787.579 0.41865 -2.02314 0
M  V30 8429 C 787.987 1.54124 -1.09739 0
M  V30 8430 O 787.33 1.83435 -0.0986829 0
M  V30 8431 C 787.392 1.01439 -3.44892 0
M  V30 8432 C 787.056 0.0276523 -4.56992 0
M  V30 8433 C 788.053 -0.771526 -5.14143 0
M  V30 8434 C 785.738 -0.0901537 -5.02219 0
M  V30 8435 C 787.732 -1.67525 -6.14991 0
M  V30 8436 C 785.419 -0.997411 -6.02905 0
M  V30 8437 C 786.417 -1.78851 -6.59167 0
M  V30 8438 O 786.105 -2.68052 -7.57894 0
M  V30 8439 H 785.837 0.107066 -0.667468 0
M  V30 8440 H 788.391 -0.331191 -2.02712 0
M  V30 8441 H 786.621 1.81326 -3.41552 0
M  V30 8442 H 788.31 1.55838 -3.74792 0
M  V30 8443 H 789.076 -0.690945 -4.80053 0
M  V30 8444 H 784.955 0.515474 -4.58109 0
M  V30 8445 H 788.499 -2.29316 -6.58832 0
M  V30 8446 H 784.396 -1.07902 -6.36418 0
M  V30 8447 H 785.164 -2.6209 -7.75404 0
M  V30 8448 N 787.827 1.57504 0.0551401 0
M  V30 8449 C 789.073 1.88334 0.752216 0
M  V30 8450 C 789.406 0.812742 1.76375 0
M  V30 8451 O 788.681 -0.175198 1.93709 0
M  V30 8452 C 788.964 3.29824 1.44528 0
M  V30 8453 C 788.817 4.47553 0.449026 0
M  V30 8454 C 790.136 3.69808 2.38601 0
M  V30 8455 H 787.255 0.684973 0.271995 0
M  V30 8456 H 789.897 1.89994 0.0151895 0
M  V30 8457 H 788.047 3.28539 2.07351 0
M  V30 8458 H 789.719 4.60967 -0.175277 0
M  V30 8459 H 787.962 4.33168 -0.234162 0
M  V30 8460 H 788.633 5.43376 0.971917 0
M  V30 8461 H 791.109 3.72293 1.85842 0
M  V30 8462 H 789.985 4.69665 2.84088 0
M  V30 8463 H 790.246 3.00641 3.24141 0
M  V30 8464 N 789.305 -0.326896 1.54172 0
M  V30 8465 C 790.551 -1.06681 1.72473 0
M  V30 8466 C 790.884 -1.87779 0.49523 0
M  V30 8467 O 790.159 -1.87754 -0.507803 0
M  V30 8468 C 790.442 -1.99429 2.99834 0
M  V30 8469 C 790.295 -1.21682 4.33028 0
M  V30 8470 C 791.614 -2.99002 3.22933 0
M  V30 8471 H 788.733 -0.386438 0.627563 0
M  V30 8472 H 791.375 -0.343779 1.86864 0
M  V30 8473 H 789.525 -2.61081 2.87696 0
M  V30 8474 H 791.197 -0.625153 4.57044 0
M  V30 8475 H 789.44 -0.519045 4.30684 0
M  V30 8476 H 790.111 -1.89766 5.18356 0
M  V30 8477 H 792.587 -2.4747 3.34511 0
M  V30 8478 H 791.463 -3.61085 4.13412 0
M  V30 8479 H 791.724 -3.71281 2.40006 0
M  V30 8480 N 790.784 -1.46188 -0.588786 0
M  V30 8481 C 792.03 -1.51407 -1.34921 0
M  V30 8482 C 792.363 -0.162771 -1.93517 0
M  V30 8483 O 791.638 0.825082 -1.76132 0
M  V30 8484 C 791.921 -2.60795 -2.48311 0
M  V30 8485 C 791.774 -4.05435 -1.94789 0
M  V30 8486 C 793.093 -2.66313 -3.50379 0
M  V30 8487 H 790.212 -0.551213 -0.489217 0
M  V30 8488 H 792.854 -1.78095 -0.661993 0
M  V30 8489 H 791.004 -2.3817 -3.06932 0
M  V30 8490 H 792.676 -4.39328 -1.40672 0
M  V30 8491 H 790.919 -4.15202 -1.25659 0
M  V30 8492 H 791.59 -4.77691 -2.76613 0
M  V30 8493 H 794.066 -2.86634 -3.01629 0
M  V30 8494 H 792.942 -3.44681 -4.27184 0
M  V30 8495 H 793.203 -1.72127 -4.07216 0
M  V30 8496 N 792.262 0.832906 -1.33792 0
M  V30 8497 C 793.209 1.94314 -1.24541 0
M  V30 8498 C 794.179 1.65646 -0.122753 0
M  V30 8499 O 795.364 1.88394 -0.30204 0
M  V30 8500 C 792.504 3.30395 -0.996641 0
M  V30 8501 C 791.617 3.71422 -2.20612 0
M  V30 8502 C 790.752 4.96401 -1.89101 0
M  V30 8503 C 789.791 5.2998 -3.06247 0
M  V30 8504 N 788.928 6.46137 -2.74685 0
M  V30 8505 H 793.768 2.01559 -2.19495 0
M  V30 8506 H 791.305 0.986243 -1.09141 0
M  V30 8507 H 793.263 4.08803 -0.832817 0
M  V30 8508 H 791.893 3.22691 -0.0838242 0
M  V30 8509 H 790.945 2.88488 -2.47949 0
M  V30 8510 H 792.257 3.92215 -3.0817 0
M  V30 8511 H 791.411 5.82572 -1.69396 0
M  V30 8512 H 790.15 4.7759 -0.987882 0
M  V30 8513 H 789.155 4.42312 -3.26559 0
M  V30 8514 H 790.38 5.50737 -3.97323 0
M  V30 8515 H 788.326 6.28801 -1.86938 0
M  V30 8516 H 788.243 6.67054 -3.55774 0
M  V30 8517 H 789.511 7.35403 -2.58461 0
M  V30 8518 N 793.74 1.17359 1.05189 0
M  V30 8519 C 794.67 0.91365 2.14883 0
M  V30 8520 C 795.651 -0.144365 1.69486 0
M  V30 8521 O 796.836 0.00587861 1.94199 0
M  V30 8522 C 793.966 0.426196 3.44675 0
M  V30 8523 C 792.92 1.4234 4.03638 0
M  V30 8524 C 792.246 0.793902 5.28773 0
M  V30 8525 C 793.546 2.7966 4.41121 0
M  V30 8526 H 795.24 1.831 2.36885 0
M  V30 8527 H 792.786 0.881781 1.13845 0
M  V30 8528 H 794.739 0.231767 4.20762 0
M  V30 8529 H 793.463 -0.526693 3.22325 0
M  V30 8530 H 792.122 1.60457 3.2962 0
M  V30 8531 H 791.77 -0.165824 5.02727 0
M  V30 8532 H 791.47 1.45959 5.69183 0
M  V30 8533 H 792.994 0.609747 6.07548 0
M  V30 8534 H 794.408 2.6526 5.08242 0
M  V30 8535 H 792.805 3.42807 4.92548 0
M  V30 8536 H 793.875 3.34068 3.51464 0
M  V30 8537 N 795.218 -1.23913 0.973828 0
M  V30 8538 C 796.465 -1.92151 0.639079 0
M  V30 8539 C 796.793 -1.76064 -0.826545 0
M  V30 8540 O 796.048 -1.11126 -1.61088 0
M  V30 8541 C 796.347 -3.4406 0.967356 0
M  V30 8542 C 796.013 -3.80321 2.42212 0
M  V30 8543 C 794.675 -3.8993 2.81971 0
M  V30 8544 C 797.027 -3.97935 3.36596 0
M  V30 8545 C 794.355 -4.14575 4.15144 0
M  V30 8546 C 796.707 -4.24079 4.69404 0
M  V30 8547 C 795.371 -4.31908 5.08932 0
M  V30 8548 H 794.641 -0.70313 0.233856 0
M  V30 8549 H 797.288 -1.47072 1.22646 0
M  V30 8550 H 795.593 -3.90667 0.297807 0
M  V30 8551 H 797.29 -3.95077 0.686654 0
M  V30 8552 H 793.88 -3.73411 2.10385 0
M  V30 8553 H 798.064 -3.89908 3.07059 0
M  V30 8554 H 793.32 -4.18858 4.45385 0
M  V30 8555 H 797.494 -4.36652 5.42502 0
M  V30 8556 H 795.121 -4.50758 6.12145 0
M  V30 8557 N 796.696 -0.74468 -1.38897 0
M  V30 8558 C 797.921 -0.306119 -2.05128 0
M  V30 8559 C 798.346 1.0541 -1.55789 0
M  V30 8560 O 797.704 1.66993 -0.705909 0
M  V30 8561 C 797.752 -0.328195 -3.59103 0
M  V30 8562 O 796.856 0.680876 -4.06741 0
M  V30 8563 H 796.197 -0.137209 -0.649669 0
M  V30 8564 H 798.727 -1.01331 -1.77745 0
M  V30 8565 H 798.737 -0.175956 -4.0762 0
M  V30 8566 H 797.412 -1.32067 -3.94374 0
M  V30 8567 H 795.989 0.49398 -3.69614 0
M  V30 8568 N 798.174 1.49689 -0.493057 0
M  V30 8569 C 799.084 2.32746 0.294358 0
M  V30 8570 C 800.1 1.44117 0.975003 0
M  V30 8571 O 801.276 1.77149 0.958138 0
M  V30 8572 C 798.341 3.19358 1.34949 0
M  V30 8573 C 797.402 4.2383 0.683122 0
M  V30 8574 C 796.635 5.06303 1.68798 0
M  V30 8575 O 796.858 4.90172 2.91698 0
M  V30 8576 O 795.792 5.88826 1.24768 0
M  V30 8577 H 799.618 3.01247 -0.385254 0
M  V30 8578 H 797.203 1.47216 -0.254519 0
M  V30 8579 H 799.085 3.73037 1.96014 0
M  V30 8580 H 797.76 2.53561 2.01217 0
M  V30 8581 H 796.667 3.74086 0.0329351 0
M  V30 8582 H 798 4.9216 0.0630192 0
M  V30 8583 N 799.652 0.226554 1.55963 0
M  V30 8584 C 800.599 -0.681504 2.20509 0
M  V30 8585 C 801.569 -1.1866 1.16229 0
M  V30 8586 O 802.754 -1.24478 1.44602 0
M  V30 8587 C 799.894 -1.88183 2.89277 0
M  V30 8588 C 799.007 -1.41517 4.08163 0
M  V30 8589 C 798.142 -2.57346 4.647 0
M  V30 8590 C 797.181 -2.07441 5.75877 0
M  V30 8591 N 796.318 -3.16561 6.26685 0
M  V30 8592 H 801.158 -0.124372 2.9774 0
M  V30 8593 H 798.695 -0.0496333 1.47016 0
M  V30 8594 H 800.653 -2.58666 3.27335 0
M  V30 8595 H 799.283 -2.41177 2.14555 0
M  V30 8596 H 798.335 -0.605099 3.75557 0
M  V30 8597 H 799.647 -1.00928 4.88482 0
M  V30 8598 H 798.801 -3.35903 5.05227 0
M  V30 8599 H 797.54 -3.01227 3.83554 0
M  V30 8600 H 796.545 -1.27347 5.34848 0
M  V30 8601 H 797.77 -1.64554 6.58862 0
M  V30 8602 H 795.716 -3.59914 5.48451 0
M  V30 8603 H 795.633 -2.80239 7.02141 0
M  V30 8604 H 796.901 -3.95238 6.71868 0
M  V30 8605 N 801.13 -1.57531 -0.0467866 0
M  V30 8606 C 802.06 -2.08425 -1.05268 0
M  V30 8607 C 803.041 -0.982941 -1.38825 0
M  V30 8608 O 804.226 -1.25716 -1.48018 0
M  V30 8609 C 801.356 -2.54897 -2.35891 0
M  V30 8610 C 800.31 -3.69132 -2.16623 0
M  V30 8611 C 799.636 -4.01747 -3.52851 0
M  V30 8612 C 800.936 -4.98243 -1.56689 0
M  V30 8613 H 802.63 -2.92716 -0.62908 0
M  V30 8614 H 800.176 -1.40816 -0.301156 0
M  V30 8615 H 802.129 -2.8912 -3.06574 0
M  V30 8616 H 800.853 -1.67666 -2.80278 0
M  V30 8617 H 799.512 -3.35231 -1.48377 0
M  V30 8618 H 799.16 -3.11608 -3.94853 0
M  V30 8619 H 798.86 -4.78681 -3.4079 0
M  V30 8620 H 800.384 -4.38487 -4.24925 0
M  V30 8621 H 801.798 -5.30535 -2.17268 0
M  V30 8622 H 800.195 -5.79669 -1.55255 0
M  V30 8623 H 801.265 -4.81986 -0.530827 0
M  V30 8624 N 802.608 0.318715 -1.54344 0
M  V30 8625 C 803.538 1.39751 -1.87061 0
M  V30 8626 C 804.519 1.53741 -0.727848 0
M  V30 8627 O 805.704 1.67541 -0.982016 0
M  V30 8628 C 802.834 2.76446 -2.10226 0
M  V30 8629 C 801.788 2.77239 -3.26071 0
M  V30 8630 C 801.114 4.17056 -3.34617 0
M  V30 8631 C 802.414 2.40555 -4.63606 0
M  V30 8632 H 804.108 1.12619 -2.77412 0
M  V30 8633 H 801.654 0.540318 -1.33479 0
M  V30 8634 H 803.607 3.51985 -2.31699 0
M  V30 8635 H 802.331 3.05066 -1.16629 0
M  V30 8636 H 800.99 2.04155 -3.04493 0
M  V30 8637 H 800.638 4.42824 -2.3857 0
M  V30 8638 H 800.338 4.18492 -4.12478 0
M  V30 8639 H 801.862 4.94401 -3.5833 0
M  V30 8640 H 803.276 3.05808 -4.84927 0
M  V30 8641 H 801.673 2.53234 -5.44052 0
M  V30 8642 H 802.743 1.35698 -4.65526 0
M  V30 8643 N 804.086 1.46499 0.581025 0
M  V30 8644 C 805.033 1.5719 1.68997 0
M  V30 8645 C 806.003 0.416114 1.60803 0
M  V30 8646 O 807.188 0.633086 1.79991 0
M  V30 8647 C 804.328 1.56973 3.07333 0
M  V30 8648 C 803.441 2.83298 3.26139 0
M  V30 8649 C 802.576 2.74574 4.54734 0
M  V30 8650 C 801.615 3.9583 4.66889 0
M  V30 8651 N 800.752 3.85482 5.86811 0
M  V30 8652 H 805.592 2.51914 1.59196 0
M  V30 8653 H 803.129 1.24975 0.775857 0
M  V30 8654 H 805.087 1.54832 3.87405 0
M  V30 8655 H 803.717 0.657803 3.16027 0
M  V30 8656 H 802.769 2.95411 2.3966 0
M  V30 8657 H 804.081 3.7316 3.30988 0
M  V30 8658 H 803.235 2.70548 5.43036 0
M  V30 8659 H 801.974 1.82354 4.52325 0
M  V30 8660 H 800.979 4.00186 3.77003 0
M  V30 8661 H 802.204 4.89148 4.71075 0
M  V30 8662 H 800.15 2.96051 5.85397 0
M  V30 8663 H 800.067 4.69002 5.92936 0
M  V30 8664 H 801.335 3.85434 6.7754 0
M  V30 8665 N 805.565 -0.825799 1.34232 0
M  V30 8666 C 806.814 -1.57686 1.2577 0
M  V30 8667 C 807.127 -1.94848 -0.171372 0
M  V30 8668 O 808.333 -2.68854 -0.378123 0
M  V30 8669 C 806.789 -2.84478 2.20454 0
M  V30 8670 C 806.397 -2.54629 3.68603 0
M  V30 8671 C 808.141 -3.625 2.20893 0
M  V30 8672 C 806.048 -3.77597 4.55164 0
M  V30 8673 H 804.978 -0.591809 0.467203 0
M  V30 8674 H 807.629 -0.909421 1.59379 0
M  V30 8675 H 806.011 -3.52832 1.79793 0
M  V30 8676 H 807.185 -1.94404 4.17784 0
M  V30 8677 H 805.5 -1.89888 3.70582 0
M  V30 8678 H 808.097 -4.538 2.82789 0
M  V30 8679 H 808.44 -3.98404 1.20746 0
M  V30 8680 H 808.973 -3.01086 2.59985 0
M  V30 8681 H 805.712 -3.46815 5.56237 0
M  V30 8682 H 805.232 -4.37116 4.10719 0
M  V30 8683 H 806.911 -4.45039 4.69627 0
M  V30 8684 N 807.043 -1.17915 -1.04565 0
M  V30 8685 C 807.975 -0.859359 -2.1248 0
M  V30 8686 C 808.988 0.140922 -1.62189 0
M  V30 8687 O 810.177 -0.0862361 -1.78292 0
M  V30 8688 C 807.277 -0.261811 -3.37887 0
M  V30 8689 C 806.45 -1.30651 -4.17431 0
M  V30 8690 C 805.509 -0.725575 -5.21174 0
M  V30 8691 O 804.535 -1.39901 -5.51739 0
M  V30 8692 N 805.737 0.479351 -5.78517 0
M  V30 8693 H 808.502 -1.78818 -2.40508 0
M  V30 8694 H 806.063 -1.07885 -1.20716 0
M  V30 8695 H 808.055 0.14028 -4.04457 0
M  V30 8696 H 806.625 0.570929 -3.07342 0
M  V30 8697 H 805.845 -1.88412 -3.46258 0
M  V30 8698 H 807.133 -2.01099 -4.67372 0
M  V30 8699 H 806.531 1.04431 -5.55977 0
M  V30 8700 H 805.088 0.823427 -6.46578 0
M  V30 8701 N 808.521 1.23394 -0.980386 0
M  V30 8702 C 809.798 1.87242 -0.565667 0
M  V30 8703 C 810.178 1.88151 0.957197 0
M  V30 8704 O 809.526 1.36309 1.8339 0
M  V30 8705 C 809.736 3.28743 -1.17172 0
M  V30 8706 C 811.084 4.05335 -1.26446 0
M  V30 8707 O 812.108 3.37962 -1.12517 0
M  V30 8708 O 810.967 5.25908 -1.48604 0
M  V30 8709 H 808.061 0.80477 -0.190459 0
M  V30 8710 H 810.607 1.3127 -1.07547 0
M  V30 8711 H 809.379 3.22647 -2.21392 0
M  V30 8712 H 809.002 3.92305 -0.646739 0
M  V30 8713 N 809.999 0.752036 1.385 0
M  V30 8714 C 810.946 0.123288 2.3047 0
M  V30 8715 C 811.916 -0.711326 1.50098 0
M  V30 8716 O 813.101 -0.667775 1.78733 0
M  V30 8717 C 810.241 -0.765085 3.36512 0
M  V30 8718 C 809.354 0.0839885 4.31918 0
M  V30 8719 C 808.489 -0.807243 5.25031 0
M  V30 8720 C 807.528 0.0455583 6.12083 0
M  V30 8721 N 806.665 -0.802547 6.97498 0
M  V30 8722 H 811.505 0.913169 2.83664 0
M  V30 8723 H 809.042 0.46195 1.39658 0
M  V30 8724 H 811 -1.29476 3.966 0
M  V30 8725 H 809.63 -1.52077 2.84732 0
M  V30 8726 H 808.682 0.731276 3.73305 0
M  V30 8727 H 809.994 0.74265 4.9324 0
M  V30 8728 H 809.148 -1.40414 5.90228 0
M  V30 8729 H 807.887 -1.49964 4.64071 0
M  V30 8730 H 806.892 0.655137 5.45883 0
M  V30 8731 H 808.117 0.734994 6.75111 0
M  V30 8732 H 806.063 -1.47992 6.39089 0
M  V30 8733 H 805.98 -0.200747 7.55733 0
M  V30 8734 H 807.248 -1.38447 7.67107 0
M  V30 8735 N 811.477 -1.49425 0.500989 0
M  V30 8736 C 812.44 -2.27646 -0.266416 0
M  V30 8737 C 813.44 -1.3366 -0.893961 0
M  V30 8738 O 814.63 -1.5682 -0.758495 0
M  V30 8739 C 811.762 -3.11618 -1.38227 0
M  V30 8740 H 812.955 -2.96945 0.419973 0
M  V30 8741 H 810.508 -1.5419 0.255954 0
M  V30 8742 H 811.243 -2.46885 -2.10281 0
M  V30 8743 H 811.028 -3.80721 -0.937746 0
M  V30 8744 H 812.518 -3.70698 -1.92283 0
M  V30 8745 N 812.955 -0.234822 -1.55841 0
M  V30 8746 C 814.204 0.393685 -1.97821 0
M  V30 8747 C 814.517 1.59947 -1.1259 0
M  V30 8748 O 815.723 2.29835 -1.44528 0
M  V30 8749 C 814.179 0.751811 -3.5196 0
M  V30 8750 C 813.787 -0.431898 -4.45913 0
M  V30 8751 C 815.531 1.34518 -4.02623 0
M  V30 8752 C 813.438 -0.0505976 -5.91378 0
M  V30 8753 H 812.368 0.150864 -0.738753 0
M  V30 8754 H 815.019 -0.333132 -1.80451 0
M  V30 8755 H 813.401 1.53642 -3.6498 0
M  V30 8756 H 814.575 -1.20935 -4.44647 0
M  V30 8757 H 812.89 -0.939385 -4.05666 0
M  V30 8758 H 815.487 1.64359 -5.08813 0
M  V30 8759 H 815.83 2.26554 -3.49255 0
M  V30 8760 H 816.363 0.623729 -3.9288 0
M  V30 8761 H 813.102 -0.937779 -6.48757 0
M  V30 8762 H 812.622 0.690898 -5.95808 0
M  V30 8763 H 814.301 0.37146 -6.45933 0
M  V30 8764 N 814.433 1.57553 0.0384317 0
M  V30 8765 C 815.365 2.02726 1.06934 0
M  V30 8766 C 816.378 0.938502 1.33026 0
M  V30 8767 O 817.567 1.21595 1.30678 0
M  V30 8768 C 814.667 2.37958 2.41308 0
M  V30 8769 C 813.84 3.69098 2.34703 0
M  V30 8770 C 812.899 3.91623 3.51451 0
M  V30 8771 O 811.925 4.628 3.31368 0
M  V30 8772 N 813.127 3.36538 4.72993 0
M  V30 8773 H 815.892 2.91781 0.684381 0
M  V30 8774 H 813.453 1.60307 0.226542 0
M  V30 8775 H 815.445 2.50172 3.18113 0
M  V30 8776 H 814.015 1.54621 2.71682 0
M  V30 8777 H 813.235 3.67325 1.43059 0
M  V30 8778 H 814.523 4.55144 2.27424 0
M  V30 8779 H 813.921 2.78828 4.92211 0
M  V30 8780 H 812.478 3.54148 5.47195 0
M  V30 8781 N 815.911 -0.310526 1.54511 0
M  V30 8782 C 816.874 -1.3657 1.84068 0
M  V30 8783 C 817.874 -1.44123 0.713097 0
M  V30 8784 O 819.064 -1.43924 0.981399 0
M  V30 8785 C 816.196 -2.75162 2.01243 0
M  V30 8786 H 817.389 -1.1161 2.78358 0
M  V30 8787 H 814.942 -0.546699 1.46427 0
M  V30 8788 H 815.677 -3.05359 1.09208 0
M  V30 8789 H 815.462 -2.71071 2.83307 0
M  V30 8790 H 816.952 -3.51473 2.25514 0
M  V30 8791 N 817.389 -1.46805 -0.573248 0
M  V30 8792 C 818.635 -1.5283 -1.33307 0
M  V30 8793 C 818.968 -0.183287 -1.93333 0
M  V30 8794 O 818.243 0.806354 -1.76998 0
M  V30 8795 C 818.526 -2.63414 -2.45531 0
M  V30 8796 C 818.379 -4.07478 -1.90478 0
M  V30 8797 C 819.698 -2.70014 -3.47535 0
M  V30 8798 H 816.817 -0.556371 -0.483343 0
M  V30 8799 H 819.459 -1.78787 -0.643066 0
M  V30 8800 H 817.609 -2.41412 -3.04389 0
M  V30 8801 H 819.281 -4.40795 -1.36004 0
M  V30 8802 H 817.524 -4.16511 -1.21248 0
M  V30 8803 H 818.195 -4.80598 -2.71531 0
M  V30 8804 H 820.671 -2.89817 -2.98572 0
M  V30 8805 H 819.547 -3.49192 -4.23504 0
M  V30 8806 H 819.808 -1.76436 -4.05367 0
M  V30 8807 N 818.867 0.818669 -1.34668 0
M  V30 8808 C 819.797 1.94468 -1.29245 0
M  V30 8809 C 820.778 1.69257 -0.169101 0
M  V30 8810 O 821.963 1.90794 -0.362143 0
M  V30 8811 C 819.093 3.31001 -1.05145 0
M  V30 8812 C 818.047 3.70663 -2.13992 0
M  V30 8813 C 817.373 5.05226 -1.75074 0
M  V30 8814 C 818.673 3.82312 -3.55858 0
M  V30 8815 H 820.367 1.99263 -2.2346 0
M  V30 8816 H 817.913 0.957304 -1.07572 0
M  V30 8817 H 819.866 4.09364 -0.999949 0
M  V30 8818 H 818.59 3.26517 -0.0737312 0
M  V30 8819 H 817.249 2.94578 -2.18219 0
M  V30 8820 H 816.897 4.97233 -0.759518 0
M  V30 8821 H 816.597 5.32734 -2.47928 0
M  V30 8822 H 818.121 5.86042 -1.71427 0
M  V30 8823 H 819.535 4.50935 -3.5402 0
M  V30 8824 H 817.932 4.21278 -4.2737 0
M  V30 8825 H 819.002 2.84193 -3.9289 0
M  V30 8826 N 820.346 1.18468 1.03938 0
M  V30 8827 C 821.762 0.934635 1.29371 0
M  V30 8828 C 821.962 -0.399067 1.97509 0
M  V30 8829 O 821.018 -1.13309 2.25648 0
M  V30 8830 C 822.331 2.10111 2.15114 0
M  V30 8831 C 823.879 2.13955 2.28456 0
M  V30 8832 C 824.354 3.30024 3.17566 0
M  V30 8833 N 825.845 3.29893 3.25153 0
M  V30 8834 C 826.58 4.16346 3.94263 0
M  V30 8835 N 826.076 5.12934 4.65693 0
M  V30 8836 N 827.869 4.04256 3.90556 0
M  V30 8837 H 820.02 2.04294 0.581185 0
M  V30 8838 H 822.283 0.892727 0.318971 0
M  V30 8839 H 821.989 3.06572 1.72355 0
M  V30 8840 H 821.863 2.06283 3.15796 0
M  V30 8841 H 824.25 1.18072 2.7045 0
M  V30 8842 H 824.331 2.2184 1.2736 0
M  V30 8843 H 823.975 4.26181 2.76283 0
M  V30 8844 H 823.905 3.19376 4.18697 0
M  V30 8845 H 826.396 2.59969 2.74271 0
M  V30 8846 H 826.709 5.75271 5.16026 0
M  V30 8847 H 825.054 5.16893 4.64593 0
M  V30 8848 H 828.245 3.28083 3.33885 0
M  V30 8849 H 828.418 4.71848 4.44144 0
M  V30 8850 N 821.824 -1.22873 0.986916 0
M  V30 8851 C 823.049 -1.96028 0.677341 0
M  V30 8852 C 823.474 -1.72487 -0.750319 0
M  V30 8853 O 822.832 -1.00036 -1.51203 0
M  V30 8854 C 822.88 -3.46983 0.981593 0
M  V30 8855 O 821.984 -4.12328 0.0770729 0
M  V30 8856 H 821.325 -0.613458 0.254096 0
M  V30 8857 H 823.855 -1.56132 1.32227 0
M  V30 8858 H 823.865 -3.9747 0.920969 0
M  V30 8859 H 822.54 -3.63442 2.02194 0
M  V30 8860 H 821.117 -3.72402 0.192666 0
M  V30 8861 N 823.302 -0.75937 -1.38099 0
M  V30 8862 C 824.232 -0.151077 -2.33011 0
M  V30 8863 C 825.213 0.697099 -1.5516 0
M  V30 8864 O 826.398 0.637101 -1.83452 0
M  V30 8865 C 823.528 0.738423 -3.39359 0
M  V30 8866 C 822.482 -0.0074741 -4.27999 0
M  V30 8867 C 821.808 1.00066 -5.25253 0
M  V30 8868 C 823.108 -1.17926 -5.08813 0
M  V30 8869 H 824.802 -0.943933 -2.84131 0
M  V30 8870 H 822.348 -0.455362 -1.36611 0
M  V30 8871 H 824.301 1.17369 -4.04725 0
M  V30 8872 H 823.025 1.56366 -2.86735 0
M  V30 8873 H 821.684 -0.423379 -3.64147 0
M  V30 8874 H 821.332 1.82012 -4.68914 0
M  V30 8875 H 821.032 0.506199 -5.85416 0
M  V30 8876 H 822.556 1.43512 -5.93495 0
M  V30 8877 H 823.97 -0.821262 -5.67387 0
M  V30 8878 H 822.367 -1.60497 -5.78239 0
M  V30 8879 H 823.437 -1.98938 -4.42212 0
M  V30 8880 N 824.78 1.49157 -0.508906 0
M  V30 8881 C 826.02 2.04376 0.0310623 0
M  V30 8882 C 826.384 1.37946 1.33547 0
M  V30 8883 O 827.585 1.83931 1.96017 0
M  V30 8884 C 825.856 3.56985 0.172191 0
M  V30 8885 S 827.415 4.33728 0.665267 0
M  V30 8886 H 824.233 0.710997 -0.00199266 0
M  V30 8887 H 826.835 1.83119 -0.684674 0
M  V30 8888 H 825.539 4.02874 -0.78234 0
M  V30 8889 H 825.07 3.82661 0.912933 0
M  V30 8890 H 827.085 4.56992 1.9332 0
M  V30 8891 N 826.258 0.243083 1.55714 0
M  V30 8892 C 827.188 -0.652336 2.24203 0
M  V30 8893 C 828.169 -1.1843 1.221 0
M  V30 8894 O 829.354 -1.22435 1.50743 0
M  V30 8895 C 826.484 -1.85111 2.93856 0
M  V30 8896 C 825.438 -1.45208 4.02615 0
M  V30 8897 C 824.764 -2.73137 4.59674 0
M  V30 8898 C 826.064 -0.625988 5.18535 0
M  V30 8899 H 827.758 -0.0812504 2.9929 0
M  V30 8900 H 825.304 -0.0376388 1.43951 0
M  V30 8901 H 827.257 -2.48314 3.40468 0
M  V30 8902 H 825.981 -2.44751 2.16251 0
M  V30 8903 H 824.64 -0.843406 3.56766 0
M  V30 8904 H 824.288 -3.30967 3.78774 0
M  V30 8905 H 823.988 -2.47163 5.33089 0
M  V30 8906 H 825.512 -3.37245 5.09017 0
M  V30 8907 H 826.926 -1.16223 5.61396 0
M  V30 8908 H 825.323 -0.462465 5.98315 0
M  V30 8909 H 826.393 0.362652 4.83542 0
M  V30 8910 N 827.736 -1.57571 -0.0300757 0
M  V30 8911 C 828.666 -2.0953 -1.03051 0
M  V30 8912 C 829.647 -0.99761 -1.37774 0
M  V30 8913 O 830.832 -1.27279 -1.46676 0
M  V30 8914 C 827.962 -2.57385 -2.33174 0
M  V30 8915 C 826.916 -3.71409 -2.12696 0
M  V30 8916 C 826.242 -4.05467 -3.4857 0
M  V30 8917 C 827.542 -4.99877 -1.51396 0
M  V30 8918 H 829.236 -2.93367 -0.597999 0
M  V30 8919 H 826.782 -1.41127 -0.286203 0
M  V30 8920 H 828.735 -2.92355 -3.03491 0
M  V30 8921 H 827.459 -1.70629 -2.78484 0
M  V30 8922 H 826.118 -3.36786 -1.44813 0
M  V30 8923 H 825.766 -3.15779 -3.91526 0
M  V30 8924 H 825.466 -4.82269 -3.35694 0
M  V30 8925 H 826.99 -4.4297 -4.2025 0
M  V30 8926 H 828.404 -5.3281 -2.11629 0
M  V30 8927 H 826.801 -5.81283 -1.49098 0
M  V30 8928 H 827.871 -4.82522 -0.479676 0
M  V30 8929 N 829.214 0.302327 -1.54673 0
M  V30 8930 C 830.444 1.05516 -1.77623 0
M  V30 8931 C 830.852 1.81474 -0.535159 0
M  V30 8932 O 830.195 1.76635 0.504543 0
M  V30 8933 C 830.257 2.08305 -2.93001 0
M  V30 8934 C 829.921 1.51554 -4.31139 0
M  V30 8935 C 830.918 0.946261 -5.11216 0
M  V30 8936 C 828.603 1.55157 -4.77736 0
M  V30 8937 C 830.597 0.420559 -6.36011 0
M  V30 8938 C 828.284 1.022 -6.02494 0
M  V30 8939 C 829.282 0.457461 -6.81466 0
M  V30 8940 O 828.97 -0.064083 -8.03874 0
M  V30 8941 H 828.702 0.318756 -0.59613 0
M  V30 8942 H 831.256 0.347558 -2.02438 0
M  V30 8943 H 829.486 2.82742 -2.63807 0
M  V30 8944 H 831.175 2.69479 -3.03539 0
M  V30 8945 H 831.941 0.911338 -4.76361 0
M  V30 8946 H 827.82 1.98037 -4.16296 0
M  V30 8947 H 831.364 -0.0207298 -6.97597 0
M  V30 8948 H 827.261 1.05406 -6.36836 0
M  V30 8949 H 828.029 0.0493422 -8.18485 0
M  V30 8950 N 830.692 1.47107 0.565454 0
M  V30 8951 C 831.917 1.57153 1.35343 0
M  V30 8952 C 832.342 0.219247 1.86818 0
M  V30 8953 O 831.7 -0.803539 1.62521 0
M  V30 8954 C 831.748 2.59387 2.50501 0
M  V30 8955 O 830.852 2.14086 3.52478 0
M  V30 8956 H 830.193 0.528209 0.402357 0
M  V30 8957 H 832.723 1.92821 0.684189 0
M  V30 8958 H 832.733 2.79546 2.97184 0
M  V30 8959 H 831.408 3.57579 2.12391 0
M  V30 8960 H 829.985 2.03991 3.12157 0
M  V30 8961 N 832.17 -0.811516 1.35101 0
M  V30 8962 C 833.1 -1.9378 1.30275 0
M  V30 8963 C 834.081 -1.69165 0.178075 0
M  V30 8964 O 835.266 -1.90599 0.372256 0
M  V30 8965 C 832.396 -3.30439 1.06899 0
M  V30 8966 C 831.35 -3.69523 2.15955 0
M  V30 8967 C 830.676 -5.0429 1.77751 0
M  V30 8968 C 831.976 -3.80419 3.57881 0
M  V30 8969 H 833.67 -1.98075 2.24514 0
M  V30 8970 H 831.216 -0.951586 1.08078 0
M  V30 8971 H 833.169 -4.08828 1.02164 0
M  V30 8972 H 831.893 -3.26473 0.0910462 0
M  V30 8973 H 830.552 -2.93416 2.19778 0
M  V30 8974 H 830.2 -4.96823 0.785876 0
M  V30 8975 H 829.9 -5.31411 2.5075 0
M  V30 8976 H 831.424 -5.85125 1.74533 0
M  V30 8977 H 832.838 -4.49051 3.56407 0
M  V30 8978 H 831.235 -4.19005 4.29598 0
M  V30 8979 H 832.305 -2.82105 3.94391 0
M  V30 8980 N 833.648 -1.19017 -1.03309 0
M  V30 8981 C 834.878 -1.01387 -1.80012 0
M  V30 8982 C 835.286 0.440655 -1.83997 0
M  V30 8983 O 834.629 1.31786 -1.27977 0
M  V30 8984 C 834.691 -1.50171 -3.26633 0
M  V30 8985 C 834.355 -2.98213 -3.46292 0
M  V30 8986 C 835.352 -3.96009 -3.36857 0
M  V30 8987 C 833.037 -3.36812 -3.72643 0
M  V30 8988 C 835.031 -5.30399 -3.5349 0
M  V30 8989 C 832.718 -4.71363 -3.88922 0
M  V30 8990 C 833.716 -5.67966 -3.79347 0
M  V30 8991 O 833.404 -7.00079 -3.95151 0
M  V30 8992 H 833.136 -0.357899 -0.573484 0
M  V30 8993 H 835.69 -1.58171 -1.31039 0
M  V30 8994 H 833.92 -0.877586 -3.7661 0
M  V30 8995 H 835.609 -1.28814 -3.84918 0
M  V30 8996 H 836.375 -3.67534 -3.16455 0
M  V30 8997 H 832.254 -2.62175 -3.7919 0
M  V30 8998 H 835.798 -6.05786 -3.45933 0
M  V30 8999 H 831.695 -4.99536 -4.0882 0
M  V30 9000 H 832.463 -7.07092 -4.12266 0
M  V30 9001 N 835.127 1.22348 -0.993418 0
M  V30 9002 C 836.375 1.90733 -0.668246 0
M  V30 9003 C 836.696 1.77732 0.802261 0
M  V30 9004 O 835.966 1.16486 1.57505 0
M  V30 9005 H 834.546 0.705966 -0.244174 0
M  V30 9006 H 837.208 1.48691 -1.26004 0
M  V30 9007 H 836.304 2.97883 -0.931239 0
M  V30 9008 N 836.605 0.766683 1.37694 0
M  V30 9009 C 837.854 0.325425 1.99057 0
M  V30 9010 C 838.167 -1.10275 1.61551 0
M  V30 9011 O 839.373 -1.64513 2.1598 0
M  V30 9012 C 837.829 0.530886 3.55963 0
M  V30 9013 C 837.437 1.96899 4.02411 0
M  V30 9014 C 839.181 0.152997 4.24224 0
M  V30 9015 C 837.088 2.12232 5.52007 0
M  V30 9016 H 836.018 0.117929 0.744721 0
M  V30 9017 H 838.669 0.945091 1.5729 0
M  V30 9018 H 837.051 -0.158162 3.95684 0
M  V30 9019 H 838.225 2.69258 3.73948 0
M  V30 9020 H 836.54 2.303 3.46916 0
M  V30 9021 H 839.137 0.24614 5.34133 0
M  V30 9022 H 839.48 -0.896096 4.06541 0
M  V30 9023 H 840.013 0.794398 3.89787 0
M  V30 9024 H 836.752 3.15442 5.7461 0
M  V30 9025 H 836.272 1.4435 5.82171 0
M  V30 9026 H 837.951 1.9185 6.17902 0
M  V30 9027 N 838.083 -1.48885 0.516809 0
M  V30 9028 C 839.308 -2.0739 -0.0205201 0
M  V30 9029 C 839.733 -1.37259 -1.28614 0
M  V30 9030 O 839.091 -0.434304 -1.76021 0
M  V30 9031 C 839.139 -3.59793 -0.24104 0
M  V30 9032 O 838.243 -3.90957 -1.31251 0
M  V30 9033 H 837.584 -0.663167 0.0332564 0
M  V30 9034 H 840.114 -1.91477 0.720956 0
M  V30 9035 H 840.124 -4.0531 -0.467737 0
M  V30 9036 H 838.799 -4.10244 0.68356 0
M  V30 9037 H 837.376 -3.57234 -1.06951 0
M  V30 9038 N 839.561 -0.251338 -1.55583 0
M  V30 9039 C 840.493 0.679167 -2.18906 0
M  V30 9040 C 841.506 1.13545 -1.16667 0
M  V30 9041 O 842.695 1.06146 -1.4351 0
M  V30 9042 C 839.795 1.93544 -2.78198 0
M  V30 9043 C 838.968 1.62987 -4.05899 0
M  V30 9044 C 838.027 2.73618 -4.49466 0
M  V30 9045 O 837.053 2.40815 -5.15749 0
M  V30 9046 N 838.255 4.03204 -4.1762 0
M  V30 9047 H 841.02 0.137328 -2.99385 0
M  V30 9048 H 838.581 -0.0714754 -1.61742 0
M  V30 9049 H 840.573 2.66804 -3.04299 0
M  V30 9050 H 839.143 2.38695 -2.0185 0
M  V30 9051 H 838.363 0.732237 -3.8734 0
M  V30 9052 H 839.651 1.40041 -4.89148 0
M  V30 9053 H 839.049 4.32686 -3.64416 0
M  V30 9054 H 837.606 4.72916 -4.48547 0
M  V30 9055 N 841.039 1.57585 0.0217189 0
M  V30 9056 C 841.987 2.08134 1.03842 0
M  V30 9057 C 842.981 0.996662 1.36978 0
M  V30 9058 O 844.187 1.18149 1.35797 0
M  V30 9059 H 840.562 0.664298 0.352438 0
M  V30 9060 H 842.533 2.92583 0.58634 0
M  V30 9061 C 841.282 2.58218 2.32849 0
M  V30 9062 H 840.605 3.41302 2.08214 0
M  V30 9063 H 842.045 2.97289 3.02316 0
M  V30 9064 C 840.504 1.48664 3.02325 0
M  V30 9065 O 841.034 0.857075 3.9245 0
M  V30 9066 N 839.24 1.21938 2.63779 0
M  V30 9067 H 838.787 1.73319 1.90574 0
M  V30 9068 H 838.745 0.488523 3.10581 0
M  V30 9069 N 842.517 -0.29412 1.54831 0
M  V30 9070 C 843.48 -1.3461 1.85507 0
M  V30 9071 C 844.48 -1.43359 0.728343 0
M  V30 9072 O 845.67 -1.42875 0.996609 0
M  V30 9073 C 842.802 -2.73012 2.0415 0
M  V30 9074 H 843.995 -1.08651 2.79526 0
M  V30 9075 H 841.548 -0.531138 1.46999 0
M  V30 9076 H 842.283 -3.04183 1.12441 0
M  V30 9077 H 842.068 -2.68051 2.86166 0
M  V30 9078 H 843.558 -3.49061 2.29229 0
M  V30 9079 N 843.995 -1.47404 -0.557645 0
M  V30 9080 C 845.243 -1.53703 -1.31224 0
M  V30 9081 C 845.564 -0.200742 -1.93964 0
M  V30 9082 O 844.834 0.775253 -1.79907 0
M  V30 9083 H 843.414 -0.566171 -0.487299 0
M  V30 9084 H 846.076 -1.83699 -0.651195 0
M  V30 9085 H 845.172 -2.30335 -2.10599 0
M  V30 9086 N 845.473 0.80434 -1.35529 0
M  V30 9087 C 846.75 1.5486 -1.1949 0
M  V30 9088 C 847.13 2.09897 0.22506 0
M  V30 9089 O 846.478 1.92643 1.22886 0
M  V30 9090 C 846.688 2.65535 -2.26478 0
M  V30 9091 C 848.036 3.33814 -2.62399 0
M  V30 9092 O 849.06 2.75807 -2.25409 0
M  V30 9093 O 847.919 4.38612 -3.26009 0
M  V30 9094 H 845.013 0.68433 -0.464351 0
M  V30 9095 H 847.559 0.844107 -1.47217 0
M  V30 9096 H 846.331 2.22754 -3.21709 0
M  V30 9097 H 845.954 3.43617 -2.00033 0
M  V30 9098 N 846.951 1.19563 1.02676 0
M  V30 9099 C 848.198 0.999568 1.7611 0
M  V30 9100 C 848.526 -0.469432 1.8875 0
M  V30 9101 O 847.781 -1.36481 1.40255 0
M  V30 9102 C 848.08 1.61619 3.18769 0
M  V30 9103 C 847.746 3.11366 3.26132 0
M  V30 9104 C 846.408 3.52234 3.27848 0
M  V30 9105 C 848.76 4.07374 3.25109 0
M  V30 9106 C 846.088 4.87658 3.26201 0
M  V30 9107 C 848.44 5.42731 3.25002 0
M  V30 9108 C 847.104 5.83027 3.25017 0
M  V30 9109 H 846.374 0.365768 0.644434 0
M  V30 9110 H 849.021 1.48838 1.20497 0
M  V30 9111 H 847.326 1.04974 3.77476 0
M  V30 9112 H 849.023 1.43975 3.74262 0
M  V30 9113 H 845.613 2.78804 3.25525 0
M  V30 9114 H 849.797 3.76842 3.22961 0
M  V30 9115 H 845.053 5.18156 3.24537 0
M  V30 9116 H 849.227 6.16879 3.23161 0
M  V30 9117 H 846.854 6.87936 3.23494 0
M  V30 9118 N 848.429 -1.21819 0.999893 0
M  V30 9119 C 849.359 -2.26282 0.576096 0
M  V30 9120 C 850.34 -1.65317 -0.400537 0
M  V30 9121 O 851.525 -1.92028 -0.28964 0
M  V30 9122 C 848.655 -3.47147 -0.103145 0
M  V30 9123 C 847.609 -4.20594 0.792745 0
M  V30 9124 C 846.935 -5.34696 -0.0198026 0
M  V30 9125 C 848.235 -4.78533 2.09293 0
M  V30 9126 H 849.929 -2.61984 1.4493 0
M  V30 9127 H 847.475 -1.25935 0.698316 0
M  V30 9128 H 849.428 -4.1939 -0.411068 0
M  V30 9129 H 848.152 -3.1056 -1.01094 0
M  V30 9130 H 846.811 -3.50194 1.08442 0
M  V30 9131 H 846.459 -4.94352 -0.928729 0
M  V30 9132 H 846.159 -5.84764 0.576661 0
M  V30 9133 H 847.683 -6.09752 -0.321659 0
M  V30 9134 H 849.097 -5.42682 1.8485 0
M  V30 9135 H 847.494 -5.38968 2.63881 0
M  V30 9136 H 848.564 -3.98197 2.76708 0
M  V30 9137 N 849.908 -0.773975 -1.37286 0
M  V30 9138 C 850.84 -0.119938 -2.28886 0
M  V30 9139 C 851.853 0.661822 -1.48741 0
M  V30 9140 O 853.042 0.499548 -1.71367 0
M  V30 9141 C 850.142 0.853703 -3.27971 0
M  V30 9142 C 849.315 0.125286 -4.37221 0
M  V30 9143 C 848.374 1.01261 -5.16365 0
M  V30 9144 O 847.4 0.475565 -5.6721 0
M  V30 9145 N 848.602 2.33864 -5.31308 0
M  V30 9146 H 851.367 -0.906702 -2.85655 0
M  V30 9147 H 848.928 -0.626519 -1.49286 0
M  V30 9148 H 850.92 1.4508 -3.77801 0
M  V30 9149 H 849.49 1.54142 -2.71954 0
M  V30 9150 H 848.71 -0.652742 -3.88758 0
M  V30 9151 H 849.998 -0.377959 -5.07394 0
M  V30 9152 H 849.396 2.79929 -4.91585 0
M  V30 9153 H 847.953 2.88575 -5.84438 0
M  V30 9154 N 851.386 1.48609 -0.524698 0
M  V30 9155 C 852.634 2.02097 0.0112991 0
M  V30 9156 C 852.955 1.40455 1.35268 0
M  V30 9157 O 852.225 0.56807 1.87483 0
M  V30 9158 H 850.805 0.746966 0.00716426 0
M  V30 9159 H 853.467 1.82378 -0.687329 0
M  V30 9160 H 852.563 3.11855 0.123531 0
M  V30 9161 N 852.864 0.259585 1.55447 0
M  V30 9162 C 854.089 -0.368317 2.04103 0
M  V30 9163 C 854.514 -1.49827 1.13725 0
M  V30 9164 O 853.872 -1.80814 0.132705 0
M  V30 9165 C 853.92 -0.841506 3.50644 0
M  V30 9166 O 853.024 -1.95008 3.63381 0
M  V30 9167 H 852.365 -0.0785227 0.659341 0
M  V30 9168 H 854.895 0.389349 2.00861 0
M  V30 9169 H 854.905 -1.14138 3.9171 0
M  V30 9170 H 853.58 -0.0147001 4.15897 0
M  V30 9171 H 852.157 -1.65393 3.34215 0
M  V30 9172 N 854.342 -1.57594 -0.0133615 0
M  V30 9173 C 855.591 -1.8916 -0.700103 0
M  V30 9174 C 855.904 -0.860147 -1.75673 0
M  V30 9175 O 857.11 -1.06556 -2.49716 0
M  V30 9176 C 855.566 -3.35742 -1.29635 0
M  V30 9177 C 855.174 -4.47154 -0.275249 0
M  V30 9178 C 856.918 -3.76436 -1.96205 0
M  V30 9179 C 854.825 -5.84805 -0.880726 0
M  V30 9180 H 853.755 -0.705805 -0.265247 0
M  V30 9181 H 856.406 -1.83445 0.044993 0
M  V30 9182 H 854.788 -3.36252 -2.09167 0
M  V30 9183 H 855.962 -4.58139 0.494506 0
M  V30 9184 H 854.277 -4.15394 0.289256 0
M  V30 9185 H 856.874 -4.76606 -2.42386 0
M  V30 9186 H 857.217 -3.09249 -2.78695 0
M  V30 9187 H 857.75 -3.78168 -1.23426 0
M  V30 9188 H 854.489 -6.55431 -0.0949013 0
M  V30 9189 H 854.009 -5.7751 -1.61995 0
M  V30 9190 H 855.688 -6.32038 -1.38338 0
M  V30 9191 N 855.82 0.285905 -1.54985 0
M  V30 9192 C 856.753 1.37817 -1.81884 0
M  V30 9193 C 857.731 1.4811 -0.670988 0
M  V30 9194 O 858.915 1.64936 -0.912595 0
M  V30 9195 C 856.042 2.75587 -1.969 0
M  V30 9196 C 855.088 2.82643 -3.19398 0
M  V30 9197 S 855.921 2.43199 -4.7709 0
M  V30 9198 C 857.077 3.82969 -4.95061 0
M  V30 9199 H 857.31 1.14794 -2.74244 0
M  V30 9200 H 854.843 0.484843 -1.4659 0
M  V30 9201 H 856.801 3.54932 -2.06236 0
M  V30 9202 H 855.462 2.9587 -1.05451 0
M  V30 9203 H 854.655 3.8373 -3.26753 0
M  V30 9204 H 854.257 2.11306 -3.08586 0
M  V30 9205 H 856.549 4.78117 -4.80011 0
M  V30 9206 H 857.492 3.80575 -5.97133 0
M  V30 9207 H 857.9 3.73673 -4.23118 0
M  V30 9208 N 857.298 1.47698 0.54982 0
M  V30 9209 C 858.526 1.5833 1.33188 0
M  V30 9210 C 858.941 0.236193 1.87317 0
M  V30 9211 O 858.298 -0.77167 1.65383 0
M  V30 9212 C 858.349 2.61438 2.49664 0
M  V30 9213 O 858.07 3.9092 1.97771 0
M  V30 9214 C 859.571 2.82324 3.41772 0
M  V30 9215 H 856.791 0.53443 0.405741 0
M  V30 9216 H 859.335 1.93375 0.665309 0
M  V30 9217 H 857.49 2.29307 3.12245 0
M  V30 9218 H 857.904 4.47323 2.73866 0
M  V30 9219 H 859.378 3.58316 4.19897 0
M  V30 9220 H 859.855 1.90416 3.95776 0
M  V30 9221 H 860.461 3.15682 2.85 0
M  V30 9222 N 858.776 -0.797141 1.35954 0
M  V30 9223 C 859.686 -1.94088 1.31784 0
M  V30 9224 C 860.702 -1.72588 0.221227 0
M  V30 9225 O 861.878 -1.96256 0.452255 0
M  V30 9226 C 858.943 -3.28828 1.09878 0
M  V30 9227 C 858.004 -3.63158 2.28942 0
M  V30 9228 C 857.237 -4.91469 2.08072 0
M  V30 9229 O 857.46 -5.60616 1.05196 0
M  V30 9230 O 856.394 -5.24277 2.95664 0
M  V30 9231 H 860.22 -2.00554 2.28061 0
M  V30 9232 H 857.805 -0.936288 1.16422 0
M  V30 9233 H 859.687 -4.09473 0.995485 0
M  V30 9234 H 858.362 -3.23271 0.16659 0
M  V30 9235 H 857.269 -2.82851 2.44839 0
M  V30 9236 H 858.602 -3.7343 3.20641 0
M  V30 9237 N 860.254 -1.20106 -1.0204 0
M  V30 9238 C 861.665 -1.00992 -1.57027 0
M  V30 9239 C 862.016 0.434782 -1.91322 0
M  V30 9240 O 861.141 1.31557 -1.71819 0
M  V30 9241 C 861.736 -1.82697 -2.85319 0
M  V30 9242 C 860.295 -1.67959 -3.36848 0
M  V30 9243 C 859.442 -1.80868 -2.10195 0
M  V30 9244 H 862.393 -1.34354 -0.844676 0
M  V30 9245 H 862.414 -1.32809 -3.5657 0
M  V30 9246 H 861.926 -2.87839 -2.60328 0
M  V30 9247 H 860.027 -0.654389 -3.66809 0
M  V30 9248 H 860.14 -2.49006 -4.09308 0
M  V30 9249 H 858.504 -1.24015 -2.22469 0
M  V30 9250 H 859.287 -2.87486 -1.87635 0
M  V30 9251 N 861.732 1.21287 -1.00634 0
M  V30 9252 C 862.664 2.2308 -0.526094 0
M  V30 9253 C 863.677 1.58157 0.386031 0
M  V30 9254 O 864.866 1.77528 0.186016 0
M  V30 9255 C 861.966 3.37937 0.255289 0
M  V30 9256 C 861.139 4.32449 -0.656236 0
M  V30 9257 C 860.198 5.26145 0.0757714 0
M  V30 9258 O 859.224 5.66601 -0.543325 0
M  V30 9259 N 860.426 5.6449 1.35391 0
M  V30 9260 H 863.191 2.64913 -1.40147 0
M  V30 9261 H 860.752 1.35724 -0.882641 0
M  V30 9262 H 862.744 3.97614 0.753977 0
M  V30 9263 H 861.314 2.95078 1.03187 0
M  V30 9264 H 860.534 3.70892 -1.3354 0
M  V30 9265 H 861.822 4.92526 -1.27653 0
M  V30 9266 H 861.22 5.33617 1.878 0
M  V30 9267 H 859.777 6.26524 1.79753 0
M  V30 9268 N 863.21 0.781244 1.36873 0
M  V30 9269 C 864.459 0.34652 1.98701 0
M  V30 9270 C 864.772 -1.08555 1.62712 0
M  V30 9271 O 865.978 -1.62213 2.17713 0
M  V30 9272 C 864.434 0.568611 3.5538 0
M  V30 9273 C 864.042 2.01156 4.003 0
M  V30 9274 C 865.786 0.197983 4.24038 0
M  V30 9275 C 863.693 2.18074 5.49725 0
M  V30 9276 H 862.623 0.125821 0.743428 0
M  V30 9277 H 865.274 0.961721 1.56279 0
M  V30 9278 H 863.656 -0.116185 3.9583 0
M  V30 9279 H 864.83 2.73209 3.71071 0
M  V30 9280 H 863.145 2.33967 3.44454 0
M  V30 9281 H 865.742 0.302778 5.33842 0
M  V30 9282 H 866.085 -0.852927 4.07469 0
M  V30 9283 H 866.618 0.835696 3.88923 0
M  V30 9284 H 863.357 3.21519 5.71232 0
M  V30 9285 H 862.877 1.50517 5.80607 0
M  V30 9286 H 864.556 1.98393 6.15832 0
M  V30 9287 N 864.689 -1.48329 0.532571 0
M  V30 9288 C 865.917 -2.069 0.00354299 0
M  V30 9289 C 866.332 -1.38876 -1.27902 0
M  V30 9290 O 865.689 -0.477119 -1.76153 0
M  V30 9291 C 865.74 -3.60821 -0.221416 0
M  V30 9292 O 865.461 -4.26291 1.01034 0
M  V30 9293 C 866.962 -4.36194 -0.790531 0
M  V30 9294 H 864.182 -0.670103 0.0346836 0
M  V30 9295 H 866.726 -1.90682 0.738955 0
M  V30 9296 H 864.881 -3.76636 -0.906884 0
M  V30 9297 H 865.295 -5.18475 0.792683 0
M  V30 9298 H 866.769 -5.44657 -0.897347 0
M  V30 9299 H 867.246 -4.00798 -1.79605 0
M  V30 9300 H 867.852 -4.25064 -0.141546 0
M  V30 9301 N 866.167 -0.267825 -1.55308 0
M  V30 9302 C 867.099 0.65591 -2.19614 0
M  V30 9303 C 868.112 1.12302 -1.17865 0
M  V30 9304 O 869.301 1.04618 -1.44628 0
M  V30 9305 C 866.401 1.90582 -2.80235 0
M  V30 9306 C 865.574 1.58673 -4.07605 0
M  V30 9307 C 864.633 2.68836 -4.52343 0
M  V30 9308 O 863.659 2.35331 -5.18274 0
M  V30 9309 N 864.861 3.98752 -4.21873 0
M  V30 9310 H 867.626 0.105566 -2.99514 0
M  V30 9311 H 865.187 -0.0886263 -1.61657 0
M  V30 9312 H 867.179 2.63561 -3.07112 0
M  V30 9313 H 865.749 2.3654 -2.04371 0
M  V30 9314 H 864.969 0.691113 -3.88094 0
M  V30 9315 H 866.257 1.34845 -4.90606 0
M  V30 9316 H 865.655 4.28797 -3.68985 0
M  V30 9317 H 864.212 4.68131 -4.53537 0
M  V30 9318 N 867.645 1.57599 0.00500368 0
M  V30 9319 C 868.891 1.90631 0.691919 0
M  V30 9320 C 869.224 0.868443 1.737 0
M  V30 9321 O 868.499 -0.113482 1.94169 0
M  V30 9322 C 868.782 3.34255 1.33961 0
M  V30 9323 C 868.635 4.48755 0.306413 0
M  V30 9324 C 869.954 3.77211 2.26715 0
M  V30 9325 H 867.073 0.693279 0.250066 0
M  V30 9326 H 869.715 1.89946 -0.0452634 0
M  V30 9327 H 867.865 3.3497 1.96793 0
M  V30 9328 H 869.537 4.60176 -0.321841 0
M  V30 9329 H 867.78 4.32203 -0.371852 0
M  V30 9330 H 868.451 5.46193 0.798554 0
M  V30 9331 H 870.927 3.78017 1.73904 0
M  V30 9332 H 869.803 4.78466 2.69002 0
M  V30 9333 H 870.064 3.10801 3.14413 0
M  V30 9334 N 869.123 -0.277682 1.55134 0
M  V30 9335 C 870.071 -1.36305 1.88478 0
M  V30 9336 C 871.065 -1.51362 0.760654 0
M  V30 9337 O 872.271 -1.53202 0.944943 0
M  V30 9338 H 868.646 -0.45577 0.598146 0
M  V30 9339 H 870.617 -1.05431 2.79154 0
M  V30 9340 C 869.366 -2.71739 2.16918 0
M  V30 9341 H 868.689 -2.60942 3.02901 0
M  V30 9342 H 870.129 -3.46635 2.44172 0
M  V30 9343 C 868.588 -3.22476 0.975239 0
M  V30 9344 O 869.118 -4.01164 0.207497 0
M  V30 9345 N 867.324 -2.80097 0.774219 0
M  V30 9346 H 866.871 -2.16221 1.40022 0
M  V30 9347 H 866.829 -3.14392 -0.023021 0
M  V30 9348 N 870.601 -1.47988 -0.541979 0
M  V30 9349 C 871.533 -1.5769 -1.66332 0
M  V30 9350 C 872.546 -0.461994 -1.56107 0
M  V30 9351 O 873.735 -0.732306 -1.62787 0
M  V30 9352 C 870.835 -1.47939 -3.04905 0
M  V30 9353 C 870.008 -2.74263 -3.40733 0
M  V30 9354 C 869.067 -2.58133 -4.58534 0
M  V30 9355 O 868.093 -3.31991 -4.62354 0
M  V30 9356 N 869.295 -1.6696 -5.55972 0
M  V30 9357 H 872.06 -2.54389 -1.5845 0
M  V30 9358 H 869.621 -1.4456 -0.728979 0
M  V30 9359 H 871.613 -1.34861 -3.81569 0
M  V30 9360 H 870.183 -0.592626 -3.06931 0
M  V30 9361 H 869.403 -3.01992 -2.53366 0
M  V30 9362 H 870.691 -3.58094 -3.6145 0
M  V30 9363 H 870.089 -1.06134 -5.55655 0
M  V30 9364 H 868.646 -1.59826 -6.31901 0
M  V30 9365 N 872.079 0.78992 -1.36375 0
M  V30 9366 C 873.495 1.0879 -1.16777 0
M  V30 9367 C 873.695 2.01498 0.00848236 0
M  V30 9368 O 872.751 2.43338 0.674007 0
M  V30 9369 C 874.064 1.70285 -2.47837 0
M  V30 9370 C 875.612 1.82629 -2.54196 0
M  V30 9371 C 876.087 2.47539 -3.85342 0
M  V30 9372 N 877.578 2.55008 -3.86685 0
M  V30 9373 C 878.313 3.06041 -4.84898 0
M  V30 9374 N 877.809 3.57385 -5.93505 0
M  V30 9375 N 879.602 3.04748 -4.72319 0
M  V30 9376 H 871.753 0.173985 -2.11686 0
M  V30 9377 H 874.016 0.139798 -0.937636 0
M  V30 9378 H 873.722 1.09633 -3.34176 0
M  V30 9379 H 873.596 2.69799 -2.63607 0
M  V30 9380 H 875.983 2.42419 -1.68276 0
M  V30 9381 H 876.064 0.81923 -2.42327 0
M  V30 9382 H 875.708 1.88393 -4.71668 0
M  V30 9383 H 875.638 3.48815 -3.94507 0
M  V30 9384 H 878.129 2.18651 -3.08221 0
M  V30 9385 H 878.442 3.94674 -6.64419 0
M  V30 9386 H 876.787 3.55538 -5.97175 0
M  V30 9387 H 879.978 2.63925 -3.86602 0
M  V30 9388 H 880.151 3.44212 -5.49019 0
M  V30 9389 N 873.557 1.20646 1.01402 0
M  V30 9390 C 874.803 1.0197 1.753 0
M  V30 9391 C 875.136 -0.446803 1.8899 0
M  V30 9392 O 874.411 -1.33169 1.41762 0
M  V30 9393 C 874.694 1.70693 3.17074 0
M  V30 9394 C 874.547 3.24805 3.11162 0
M  V30 9395 C 875.866 1.44212 4.15802 0
M  V30 9396 H 872.985 0.371844 0.636318 0
M  V30 9397 H 875.627 1.48696 1.18277 0
M  V30 9398 H 873.777 1.30968 3.65759 0
M  V30 9399 H 875.449 3.73841 2.70261 0
M  V30 9400 H 873.692 3.55576 2.48492 0
M  V30 9401 H 874.363 3.68049 4.11393 0
M  V30 9402 H 876.839 1.7868 3.75783 0
M  V30 9403 H 875.715 1.94825 5.13161 0
M  V30 9404 H 875.976 0.370252 4.40547 0
M  V30 9405 N 875.035 -1.20752 1.01276 0
M  V30 9406 C 875.982 -2.234 0.579732 0
M  V30 9407 C 876.952 -1.61256 -0.398206 0
M  V30 9408 O 878.137 -1.8845 -0.29851 0
M  V30 9409 C 875.277 -3.45008 -0.0797006 0
M  V30 9410 C 874.39 -4.21597 0.942343 0
M  V30 9411 C 873.525 -5.30591 0.254364 0
M  V30 9412 C 872.564 -5.98919 1.26343 0
M  V30 9413 N 871.701 -6.99511 0.602384 0
M  V30 9414 H 876.541 -2.59801 1.45971 0
M  V30 9415 H 874.078 -1.27663 0.730787 0
M  V30 9416 H 876.036 -4.1444 -0.479125 0
M  V30 9417 H 874.666 -3.09312 -0.923354 0
M  V30 9418 H 873.718 -3.51268 1.45996 0
M  V30 9419 H 875.03 -4.68576 1.70992 0
M  V30 9420 H 874.184 -6.06368 -0.200763 0
M  V30 9421 H 872.923 -4.84639 -0.545553 0
M  V30 9422 H 871.928 -5.21906 1.72898 0
M  V30 9423 H 873.153 -6.46957 2.06456 0
M  V30 9424 H 871.099 -6.55759 -0.177734 0
M  V30 9425 H 871.016 -7.44597 1.30809 0
M  V30 9426 H 872.284 -7.79313 0.17072 0
M  V30 9427 N 876.513 -0.788492 -1.36457 0
M  V30 9428 C 877.423 -0.187385 -2.3385 0
M  V30 9429 C 878.439 0.659984 -1.60998 0
M  V30 9430 O 879.615 0.575986 -1.92988 0
M  V30 9431 C 876.68 0.668525 -3.40194 0
M  V30 9432 C 875.741 -0.197234 -4.28847 0
M  V30 9433 C 874.974 0.61792 -5.30111 0
M  V30 9434 O 875.197 1.85396 -5.3943 0
M  V30 9435 O 874.131 0.0183016 -6.01897 0
M  V30 9436 H 877.957 -0.992617 -2.87021 0
M  V30 9437 H 875.542 -0.549934 -1.3891 0
M  V30 9438 H 877.424 1.15663 -4.05216 0
M  V30 9439 H 876.099 1.45166 -2.89324 0
M  V30 9440 H 875.006 -0.73207 -3.66867 0
M  V30 9441 H 876.339 -0.943863 -4.83065 0
M  V30 9442 N 877.991 1.48044 -0.54043 0
M  V30 9443 C 878.921 2.32597 0.205178 0
M  V30 9444 C 879.902 1.42748 0.925041 0
M  V30 9445 O 881.087 1.71624 0.908784 0
M  V30 9446 C 878.217 3.24175 1.24612 0
M  V30 9447 C 877.171 4.23131 0.64376 0
M  V30 9448 C 876.497 5.03915 1.78812 0
M  V30 9449 C 877.797 5.20831 -0.39144 0
M  V30 9450 H 879.491 2.95184 -0.500676 0
M  V30 9451 H 877.037 1.41948 -0.242225 0
M  V30 9452 H 878.99 3.82158 1.77576 0
M  V30 9453 H 877.714 2.59608 1.98169 0
M  V30 9454 H 876.373 3.66349 0.135554 0
M  V30 9455 H 876.021 4.35765 2.51232 0
M  V30 9456 H 875.721 5.709 1.39094 0
M  V30 9457 H 877.245 5.64753 2.32134 0
M  V30 9458 H 878.659 5.73277 0.0515064 0
M  V30 9459 H 877.056 5.95926 -0.706569 0
M  V30 9460 H 878.126 4.6733 -1.29345 0
M  V30 9461 N 879.47 0.276058 1.55163 0
M  V30 9462 C 880.4 -0.604633 2.25536 0
M  V30 9463 C 881.381 -1.15813 1.24585 0
M  V30 9464 O 882.566 -1.1921 1.53306 0
M  V30 9465 C 879.696 -1.78836 2.97716 0
M  V30 9466 C 878.65 -1.36635 4.05604 0
M  V30 9467 C 877.976 -2.63325 4.65364 0
M  V30 9468 C 879.276 -0.515858 5.19746 0
M  V30 9469 H 880.97 -0.0177483 2.99395 0
M  V30 9470 H 878.516 -0.00709627 1.43998 0
M  V30 9471 H 880.469 -2.41036 3.45658 0
M  V30 9472 H 879.193 -2.40109 2.21394 0
M  V30 9473 H 877.852 -0.767541 3.58475 0
M  V30 9474 H 877.5 -3.22858 3.85709 0
M  V30 9475 H 877.2 -2.358 5.38212 0
M  V30 9476 H 878.724 -3.26372 5.16056 0
M  V30 9477 H 880.138 -1.04289 5.63735 0
M  V30 9478 H 878.535 -0.335449 5.99162 0
M  V30 9479 H 879.605 0.465137 4.82664 0
M  V30 9480 N 880.948 -1.576 0.00335426 0
M  V30 9481 C 882.176 -1.94996 -0.691685 0
M  V30 9482 C 882.591 -0.878405 -1.67121 0
M  V30 9483 O 881.948 0.142343 -1.81944 0
M  V30 9484 C 881.999 -3.32416 -1.42063 0
M  V30 9485 O 881.72 -4.35458 -0.48038 0
M  V30 9486 C 883.221 -3.84291 -2.20987 0
M  V30 9487 H 880.441 -0.642814 -0.192434 0
M  V30 9488 H 882.985 -2.04425 0.0554706 0
M  V30 9489 H 881.14 -3.24285 -2.11939 0
M  V30 9490 H 881.554 -5.14975 -0.995054 0
M  V30 9491 H 883.028 -4.82863 -2.67483 0
M  V30 9492 H 883.505 -3.17174 -3.03805 0
M  V30 9493 H 884.111 -3.95609 -1.56121 0
M  V30 9494 N 882.426 0.269451 -1.5528 0
M  V30 9495 C 883.356 1.33729 -1.91413 0
M  V30 9496 C 884.337 1.51348 -0.776391 0
M  V30 9497 O 885.522 1.64332 -1.03482 0
M  V30 9498 C 882.652 2.69618 -2.18914 0
M  V30 9499 C 881.606 2.66725 -3.34726 0
M  V30 9500 C 880.932 4.06199 -3.47716 0
M  V30 9501 C 882.232 2.25684 -4.71025 0
M  V30 9502 H 883.926 1.03736 -2.80854 0
M  V30 9503 H 881.472 0.497579 -1.3513 0
M  V30 9504 H 883.425 3.44436 -2.42779 0
M  V30 9505 H 882.149 3.01201 -1.26275 0
M  V30 9506 H 880.808 1.94365 -3.10834 0
M  V30 9507 H 880.456 4.3501 -2.52537 0
M  V30 9508 H 880.156 4.05157 -4.25583 0
M  V30 9509 H 881.68 4.8275 -3.73877 0
M  V30 9510 H 883.094 2.90225 -4.94411 0
M  V30 9511 H 881.491 2.35797 -5.51833 0
M  V30 9512 H 882.561 1.20819 -4.69607 0
M  V30 9513 N 883.904 1.48273 0.534124 0
M  V30 9514 C 885.153 1.55334 1.28663 0
M  V30 9515 C 885.466 0.230345 1.94239 0
M  V30 9516 O 886.672 0.179161 2.70908 0
M  V30 9517 C 885.128 2.73927 2.33435 0
M  V30 9518 C 884.736 4.12852 1.73947 0
M  V30 9519 C 886.48 2.90298 3.09722 0
M  V30 9520 C 884.387 5.22711 2.76636 0
M  V30 9521 H 883.317 0.578262 0.483869 0
M  V30 9522 H 885.968 1.74598 0.564602 0
M  V30 9523 H 884.35 2.48089 3.08655 0
M  V30 9524 H 885.524 4.48691 1.04944 0
M  V30 9525 H 883.839 4.01562 1.10167 0
M  V30 9526 H 886.436 3.69542 3.86449 0
M  V30 9527 H 886.779 1.99598 3.6533 0
M  V30 9528 H 887.312 3.16017 2.41616 0
M  V30 9529 H 884.051 6.15362 2.25852 0
M  V30 9530 H 883.571 4.91364 3.43979 0
M  V30 9531 H 885.25 5.50648 3.39699 0
M  V30 9532 N 885.382 -0.782676 1.36792 0
M  V30 9533 C 886.798 -1.08169 1.17352 0
M  V30 9534 C 886.998 -2.015 0.0022037 0
M  V30 9535 O 886.054 -2.43692 -0.661093 0
M  V30 9536 C 887.367 -1.68969 2.48737 0
M  V30 9537 C 888.915 -1.81278 2.55161 0
M  V30 9538 C 889.39 -2.45492 3.86649 0
M  V30 9539 N 890.881 -2.52954 3.88032 0
M  V30 9540 C 891.616 -3.03465 4.86515 0
M  V30 9541 N 891.112 -3.54232 5.95392 0
M  V30 9542 N 892.905 -3.02239 4.73928 0
M  V30 9543 H 885.056 -0.162757 2.11775 0
M  V30 9544 H 887.319 -0.134823 0.938364 0
M  V30 9545 H 887.025 -1.07859 3.34753 0
M  V30 9546 H 886.899 -2.68397 2.65034 0
M  V30 9547 H 889.286 -2.41524 1.69559 0
M  V30 9548 H 889.367 -0.806367 2.42758 0
M  V30 9549 H 889.011 -1.85889 4.7266 0
M  V30 9550 H 888.941 -3.46718 3.96351 0
M  V30 9551 H 891.432 -2.17014 3.09376 0
M  V30 9552 H 891.745 -3.91145 6.66503 0
M  V30 9553 H 890.09 -3.52366 5.99052 0
M  V30 9554 H 893.281 -2.61871 3.87996 0
M  V30 9555 H 893.454 -3.41295 5.50837 0
M  V30 9556 N 886.86 -1.21182 -1.00761 0
M  V30 9557 C 888.085 -1.05411 -1.78615 0
M  V30 9558 C 888.51 0.391837 -1.83973 0
M  V30 9559 O 887.868 1.28256 -1.28141 0
M  V30 9560 C 887.916 -1.65285 -3.20489 0
M  V30 9561 O 887.02 -0.896558 -4.02536 0
M  V30 9562 H 886.361 -0.37116 -0.550578 0
M  V30 9563 H 888.891 -1.60669 -1.26676 0
M  V30 9564 H 888.901 -1.69397 -3.71172 0
M  V30 9565 H 887.576 -2.70514 -3.15904 0
M  V30 9566 H 886.153 -0.930335 -3.61108 0
M  V30 9567 N 888.338 1.20213 -1.01915 0
M  V30 9568 C 889.615 1.85348 -0.62495 0
M  V30 9569 C 889.995 1.91101 0.896854 0
M  V30 9570 O 889.343 1.42075 1.78961 0
M  V30 9571 C 889.553 3.24849 -1.27571 0
M  V30 9572 C 890.901 4.01107 -1.39277 0
M  V30 9573 O 891.925 3.34211 -1.23212 0
M  V30 9574 O 890.784 5.20914 -1.6526 0
M  V30 9575 H 887.878 0.798303 -0.215965 0
M  V30 9576 H 890.424 1.27782 -1.11669 0
M  V30 9577 H 889.196 3.1544 -2.31545 0
M  V30 9578 H 888.819 3.90049 -0.77122 0
M  V30 9579 N 889.816 0.795718 1.36037 0
M  V30 9580 C 890.779 0.204318 2.28287 0
M  V30 9581 C 891.779 -0.602017 1.49105 0
M  V30 9582 O 892.969 -0.422089 1.69009 0
M  V30 9583 C 890.101 -0.716431 3.33287 0
M  V30 9584 H 891.294 1.01781 2.821 0
M  V30 9585 H 888.847 0.565588 1.45708 0
M  V30 9586 H 889.582 -1.55403 2.84641 0
M  V30 9587 H 889.367 -0.140096 3.9185 0
M  V30 9588 H 890.857 -1.12488 4.02164 0
M  V30 9589 N 891.294 -1.47756 0.548274 0
M  V30 9590 C 892.54 -2.02789 0.0209265 0
M  V30 9591 C 892.873 -1.42268 -1.32187 0
M  V30 9592 O 892.148 -0.575001 -1.85806 0
M  V30 9593 C 892.431 -3.60007 -0.0816674 0
M  V30 9594 C 892.284 -4.30977 1.28759 0
M  V30 9595 C 893.603 -4.32777 -0.799515 0
M  V30 9596 H 890.722 -0.736944 0.00907884 0
M  V30 9597 H 893.364 -1.76282 0.708839 0
M  V30 9598 H 891.514 -3.82722 -0.667537 0
M  V30 9599 H 893.186 -4.19629 1.91597 0
M  V30 9600 H 891.429 -3.9168 1.86466 0
M  V30 9601 H 892.1 -5.39488 1.16861 0
M  V30 9602 H 894.576 -4.15001 -0.30216 0
M  V30 9603 H 893.452 -5.42431 -0.840239 0
M  V30 9604 H 893.713 -4.01358 -1.85375 0
M  V30 9605 N 892.772 -0.284283 -1.55015 0
M  V30 9606 C 893.735 0.586182 -2.21577 0
M  V30 9607 C 894.735 1.07427 -1.1965 0
M  V30 9608 O 895.925 0.972977 -1.44495 0
M  V30 9609 C 893.057 1.80973 -2.88897 0
M  V30 9610 H 894.25 0.00487253 -2.999 0
M  V30 9611 H 891.803 -0.0349696 -1.56261 0
M  V30 9612 H 892.538 2.43131 -2.14611 0
M  V30 9613 H 892.323 1.46757 -3.636 0
M  V30 9614 H 893.813 2.42853 -3.39724 0
M  V30 9615 N 894.251 1.57596 -0.0117121 0
M  V30 9616 C 895.181 2.12188 0.9746 0
M  V30 9617 C 896.162 1.03379 1.35081 0
M  V30 9618 O 897.347 1.31123 1.4325 0
M  V30 9619 C 894.477 2.63477 2.26268 0
M  V30 9620 C 893.431 3.76917 2.02774 0
M  V30 9621 C 892.757 4.14566 3.37697 0
M  V30 9622 C 894.057 5.03715 1.38089 0
M  V30 9623 H 895.751 2.9485 0.520007 0
M  V30 9624 H 893.297 1.41836 0.248685 0
M  V30 9625 H 895.25 3.00299 2.95633 0
M  V30 9626 H 893.974 1.77953 2.73862 0
M  V30 9627 H 892.633 3.40507 1.35832 0
M  V30 9628 H 892.281 3.26048 3.83016 0
M  V30 9629 H 891.981 4.91 3.22789 0
M  V30 9630 H 893.505 4.53956 4.08358 0
M  V30 9631 H 894.919 5.38233 1.97428 0
M  V30 9632 H 893.316 5.85032 1.33634 0
M  V30 9633 H 894.386 4.83624 0.351575 0
M  V30 9634 N 895.729 -0.261212 1.5542 0
M  V30 9635 C 896.975 -0.992699 1.76843 0
M  V30 9636 C 897.308 -1.8551 0.574428 0
M  V30 9637 O 896.583 -1.89739 -0.427713 0
M  V30 9638 C 896.866 -1.86532 3.08022 0
M  V30 9639 C 896.719 -1.03206 4.378 0
M  V30 9640 C 898.038 -2.85036 3.35324 0
M  V30 9641 H 895.157 -0.359473 0.643388 0
M  V30 9642 H 897.799 -0.264214 1.88154 0
M  V30 9643 H 895.949 -2.48644 2.9851 0
M  V30 9644 H 897.621 -0.430743 4.59285 0
M  V30 9645 H 895.864 -0.335911 4.32497 0
M  V30 9646 H 896.535 -1.6761 5.25938 0
M  V30 9647 H 899.011 -2.3306 3.44706 0
M  V30 9648 H 897.887 -3.43226 4.28354 0
M  V30 9649 H 898.148 -3.60768 2.55537 0
M  V30 9650 N 897.207 -1.48554 -0.526253 0
M  V30 9651 C 898.484 -1.47252 -1.28748 0
M  V30 9652 C 898.864 -0.186245 -2.10277 0
M  V30 9653 O 898.212 0.831954 -2.12816 0
M  V30 9654 C 898.422 -2.73672 -2.16575 0
M  V30 9655 C 899.77 -3.22151 -2.76593 0
M  V30 9656 O 900.794 -2.74614 -2.2686 0
M  V30 9657 O 899.653 -4.04877 -3.67066 0
M  V30 9658 H 896.747 -0.588242 -0.581292 0
M  V30 9659 H 899.293 -1.60792 -0.5426 0
M  V30 9660 H 898.065 -3.58798 -1.56139 0
M  V30 9661 H 897.688 -2.6287 -2.98304 0
M  V30 9662 N 898.685 0.775411 -1.37205 0
M  V30 9663 C 899.648 1.8702 -1.325 0
M  V30 9664 C 900.648 1.5915 -0.229793 0
M  V30 9665 O 901.838 1.673 -0.485423 0
M  V30 9666 C 898.97 3.24085 -1.05745 0
M  V30 9667 H 900.163 1.92604 -2.29878 0
M  V30 9668 H 897.716 0.97476 -1.22181 0
M  V30 9669 H 898.451 3.24178 -0.0888371 0
M  V30 9670 H 898.236 3.45705 -1.85016 0
M  V30 9671 H 899.726 4.0416 -1.05094 0
M  V30 9672 N 900.163 1.21714 1.00117 0
M  V30 9673 C 901.41 1.0367 1.73951 0
M  V30 9674 C 901.738 -0.429289 1.89703 0
M  V30 9675 O 900.993 -1.33475 1.43119 0
M  V30 9676 C 901.292 1.68345 3.15269 0
M  V30 9677 C 900.958 3.18214 3.19454 0
M  V30 9678 C 899.62 3.59109 3.20303 0
M  V30 9679 C 901.972 4.14179 3.16394 0
M  V30 9680 C 899.3 4.94467 3.15783 0
M  V30 9681 C 901.652 5.49502 3.13416 0
M  V30 9682 C 900.316 5.8979 3.12577 0
M  V30 9683 H 899.586 0.379355 0.63653 0
M  V30 9684 H 902.233 1.51361 1.17312 0
M  V30 9685 H 900.538 1.12957 3.75164 0
M  V30 9686 H 902.235 1.51882 3.71124 0
M  V30 9687 H 898.825 2.85646 3.19538 0
M  V30 9688 H 903.009 3.83607 3.14895 0
M  V30 9689 H 898.265 5.24923 3.13473 0
M  V30 9690 H 902.439 6.23595 3.10003 0
M  V30 9691 H 900.066 6.94643 3.08829 0
M  V30 9692 N 901.641 -1.19671 1.02551 0
M  V30 9693 C 902.918 -1.85014 0.634771 0
M  V30 9694 C 903.298 -1.91574 -0.886706 0
M  V30 9695 O 902.646 -1.43022 -1.78205 0
M  V30 9696 C 902.856 -3.24167 1.29292 0
M  V30 9697 C 904.204 -4.00363 1.41402 0
M  V30 9698 O 905.228 -3.33553 1.24983 0
M  V30 9699 O 904.087 -5.2003 1.6802 0
M  V30 9700 H 901.181 -0.797147 0.220196 0
M  V30 9701 H 903.727 -1.27188 1.12345 0
M  V30 9702 H 902.499 -3.14208 2.33215 0
M  V30 9703 H 902.122 -3.89634 0.791895 0
M  V30 9704 N 903.119 -0.802921 -1.35613 0
M  V30 9705 C 904.366 -0.381576 -1.98872 0
M  V30 9706 C 904.694 1.0503 -1.63704 0
M  V30 9707 O 903.949 1.7427 -0.890418 0
M  V30 9708 C 904.248 -0.507806 -3.53774 0
M  V30 9709 C 903.914 -1.90245 -4.088 0
M  V30 9710 C 902.576 -2.28401 -4.2354 0
M  V30 9711 C 904.928 -2.81504 -4.3864 0
M  V30 9712 C 902.256 -3.57192 -4.65436 0
M  V30 9713 C 904.608 -4.09737 -4.81973 0
M  V30 9714 C 903.272 -4.47897 -4.94919 0
M  V30 9715 H 902.542 -0.139629 -0.727726 0
M  V30 9716 H 905.189 -1.023 -1.61886 0
M  V30 9717 H 903.494 0.21708 -3.91198 0
M  V30 9718 H 905.191 -0.162625 -4.0067 0
M  V30 9719 H 901.781 -1.596 -3.97776 0
M  V30 9720 H 905.965 -2.53276 -4.26808 0
M  V30 9721 H 901.221 -3.86611 -4.73648 0
M  V30 9722 H 905.395 -4.80555 -5.04024 0
M  V30 9723 H 903.022 -5.47747 -5.27141 0
M  V30 9724 N 904.597 1.47463 -0.556102 0
M  V30 9725 C 905.529 2.28046 0.22968 0
M  V30 9726 C 906.542 1.3694 0.880409 0
M  V30 9727 O 907.731 1.61773 0.754447 0
M  V30 9728 C 904.831 3.11165 1.34273 0
M  V30 9729 C 904.004 4.30225 0.789004 0
M  V30 9730 C 903.063 4.94948 1.78641 0
M  V30 9731 O 902.089 5.53372 1.33297 0
M  V30 9732 N 903.291 4.89543 3.11974 0
M  V30 9733 H 906.056 2.96125 -0.461558 0
M  V30 9734 H 903.617 1.5708 -0.392105 0
M  V30 9735 H 905.609 3.51331 2.00869 0
M  V30 9736 H 904.179 2.45337 1.93722 0
M  V30 9737 H 903.399 3.94163 -0.0536971 0
M  V30 9738 H 904.687 5.07238 0.398378 0
M  V30 9739 H 904.085 4.43275 3.51459 0
M  V30 9740 H 902.642 5.33732 3.74131 0
M  V30 9741 N 906.075 0.2925 1.54862 0
M  V30 9742 C 907.352 -0.371946 1.92031 0
M  V30 9743 C 907.732 -1.72363 1.21878 0
M  V30 9744 O 907.08 -2.25779 0.351573 0
M  V30 9745 C 907.29 -0.495027 3.45471 0
M  V30 9746 C 908.638 -0.769855 4.17562 0
M  V30 9747 O 909.662 -0.579168 3.5146 0
M  V30 9748 O 908.521 -1.13561 5.34571 0
M  V30 9749 H 905.615 -0.206463 0.800813 0
M  V30 9750 H 908.161 0.339933 1.6626 0
M  V30 9751 H 906.933 0.455528 3.88639 0
M  V30 9752 H 906.556 -1.2557 3.7725 0
M  V30 9753 N 907.553 -1.57587 0.0200696 0
M  V30 9754 C 908.799 -1.91708 -0.661503 0
M  V30 9755 C 909.132 -0.895968 -1.72296 0
M  V30 9756 O 908.407 0.082577 -1.94325 0
M  V30 9757 C 908.69 -3.36344 -1.28627 0
M  V30 9758 C 908.543 -4.49186 -0.234982 0
M  V30 9759 C 909.862 -3.80771 -2.20685 0
M  V30 9760 H 906.981 -0.69717 -0.239005 0
M  V30 9761 H 909.623 -1.8985 0.0754764 0
M  V30 9762 H 907.773 -3.38058 -1.91439 0
M  V30 9763 H 909.445 -4.59606 0.395011 0
M  V30 9764 H 907.688 -4.31557 0.440565 0
M  V30 9765 H 908.359 -5.47395 -0.711558 0
M  V30 9766 H 910.835 -3.80735 -1.67868 0
M  V30 9767 H 909.711 -4.82685 -2.61356 0
M  V30 9768 H 909.972 -3.15764 -3.09428 0
M  V30 9769 N 909.032 0.252966 -1.55557 0
M  V30 9770 C 910.26 0.999565 -1.81153 0
M  V30 9771 C 910.675 1.79181 -0.594955 0
M  V30 9772 O 910.032 1.77208 0.436311 0
M  V30 9773 C 910.083 1.94227 -3.04891 0
M  V30 9774 O 909.804 1.18209 -4.21851 0
M  V30 9775 C 911.305 2.80536 -3.43241 0
M  V30 9776 H 908.525 0.294402 -0.602966 0
M  V30 9777 H 911.069 0.277686 -2.02606 0
M  V30 9778 H 909.224 2.6185 -2.85505 0
M  V30 9779 H 909.638 1.81922 -4.9194 0
M  V30 9780 H 911.112 3.42442 -4.32941 0
M  V30 9781 H 911.589 3.51337 -2.6355 0
M  V30 9782 H 912.195 2.18373 -3.64956 0
M  V30 9783 N 910.51 1.48831 0.518367 0
M  V30 9784 C 911.44 1.67119 1.63075 0
M  V30 9785 C 912.421 0.519948 1.61958 0
M  V30 9786 O 913.606 0.753824 1.78972 0
M  V30 9787 C 910.736 1.72158 3.01627 0
M  V30 9788 C 909.69 2.86898 3.17606 0
M  V30 9789 C 909.016 2.77035 4.57335 0
M  V30 9790 C 910.316 4.28057 2.99274 0
M  V30 9791 H 912.01 2.60248 1.48025 0
M  V30 9792 H 909.556 1.2524 0.710694 0
M  V30 9793 H 911.509 1.83539 3.7933 0
M  V30 9794 H 910.233 0.756157 3.17726 0
M  V30 9795 H 908.892 2.75091 2.42323 0
M  V30 9796 H 908.54 1.78438 4.70286 0
M  V30 9797 H 908.24 3.54036 4.6897 0
M  V30 9798 H 909.764 2.904 5.37122 0
M  V30 9799 H 911.178 4.40636 3.6676 0
M  V30 9800 H 909.575 5.06145 3.22393 0
M  V30 9801 H 910.645 4.4371 1.95574 0
M  V30 9802 N 911.988 -0.768124 1.37614 0
M  V30 9803 C 913.236 -1.52379 1.3276 0
M  V30 9804 C 913.557 -1.94809 -0.0863564 0
M  V30 9805 O 912.827 -1.66568 -1.03112 0
M  V30 9806 H 911.407 -0.565179 0.488448 0
M  V30 9807 H 914.069 -0.913974 1.72141 0
M  V30 9808 H 913.165 -2.4215 1.96901 0
M  V30 9809 N 913.466 -1.22244 -0.994698 0
M  V30 9810 C 914.691 -1.07299 -1.77487 0
M  V30 9811 C 915.116 0.372302 -1.84379 0
M  V30 9812 O 914.474 1.2689 -1.29494 0
M  V30 9813 C 914.522 -1.68675 -3.18718 0
M  V30 9814 O 913.626 -0.939202 -4.01563 0
M  V30 9815 H 912.967 -0.376979 -0.546611 0
M  V30 9816 H 915.497 -1.62003 -1.24965 0
M  V30 9817 H 915.507 -1.73324 -3.69354 0
M  V30 9818 H 914.182 -2.73849 -3.13017 0
M  V30 9819 H 912.759 -0.968583 -3.60101 0
M  V30 9820 N 914.944 1.19125 -1.03184 0
M  V30 9821 C 916.19 1.89163 -0.731111 0
M  V30 9822 C 916.523 1.79604 0.738662 0
M  V30 9823 O 915.798 1.19037 1.53819 0
M  V30 9824 C 916.081 3.39986 -1.18666 0
M  V30 9825 C 915.934 3.58401 -2.71788 0
M  V30 9826 C 917.253 4.33316 -0.769772 0
M  V30 9827 H 914.372 0.686908 -0.267069 0
M  V30 9828 H 917.014 1.40205 -1.28229 0
M  V30 9829 H 915.164 3.81813 -0.717736 0
M  V30 9830 H 916.836 3.25727 -3.26649 0
M  V30 9831 H 915.079 3.01355 -3.12038 0
M  V30 9832 H 915.75 4.64189 -2.98719 0
M  V30 9833 H 918.226 3.9922 -1.17314 0
M  V30 9834 H 917.102 5.37427 -1.11637 0
M  V30 9835 H 917.363 4.40884 0.327681 0
M  V30 9836 N 916.422 0.810101 1.35185 0
M  V30 9837 C 917.352 0.237453 2.32289 0
M  V30 9838 C 918.333 -0.639032 1.5764 0
M  V30 9839 O 919.518 -0.568575 1.8569 0
M  V30 9840 C 916.648 -0.611964 3.41866 0
M  V30 9841 C 915.602 0.166318 4.27677 0
M  V30 9842 C 914.928 -0.805024 5.28605 0
M  V30 9843 C 916.228 1.36729 5.04086 0
M  V30 9844 H 917.922 1.04874 2.80432 0
M  V30 9845 H 915.468 0.505751 1.34826 0
M  V30 9846 H 917.421 -1.02267 4.08802 0
M  V30 9847 H 916.145 -1.45617 2.92341 0
M  V30 9848 H 914.804 0.558238 3.62325 0
M  V30 9849 H 914.452 -1.64483 4.75347 0
M  V30 9850 H 914.152 -0.288577 5.86891 0
M  V30 9851 H 915.676 -1.21386 5.98413 0
M  V30 9852 H 917.09 1.03128 5.63948 0
M  V30 9853 H 915.487 1.81848 5.71884 0
M  V30 9854 H 916.557 2.15214 4.34524 0
M  V30 9855 N 917.9 -1.47166 0.563914 0
M  V30 9856 C 919.148 -2.02056 0.0422873 0
M  V30 9857 C 919.469 -1.43992 -1.31497 0
M  V30 9858 O 918.739 -0.617578 -1.85911 0
M  V30 9859 H 917.319 -0.746893 0.0126427 0
M  V30 9860 H 919.981 -1.80492 0.735441 0
M  V30 9861 H 919.077 -3.12073 -0.0408044 0
M  V30 9862 N 919.378 -0.300708 -1.54705 0
M  V30 9863 C 920.794 0.0526874 -1.59513 0
M  V30 9864 C 920.994 1.52444 -1.31769 0
M  V30 9865 O 920.05 2.27716 -1.09096 0
M  V30 9866 C 921.363 -0.344989 -2.98714 0
M  V30 9867 C 922.911 -0.29373 -3.11619 0
M  V30 9868 C 923.386 -0.666225 -4.53129 0
M  V30 9869 N 924.877 -0.618749 -4.59049 0
M  V30 9870 C 925.612 -0.879447 -5.66616 0
M  V30 9871 N 925.108 -1.2061 -6.82221 0
M  V30 9872 N 926.901 -0.806528 -5.56284 0
M  V30 9873 H 919.052 -1.25988 -1.71 0
M  V30 9874 H 921.315 -0.510758 -0.798643 0
M  V30 9875 H 921.021 -1.36953 -3.2394 0
M  V30 9876 H 920.895 0.301507 -3.75993 0
M  V30 9877 H 923.282 0.72156 -2.86142 0
M  V30 9878 H 923.363 -0.974844 -2.36496 0
M  V30 9879 H 923.007 -1.67932 -4.79334 0
M  V30 9880 H 922.937 0.0369575 -5.26587 0
M  V30 9881 H 925.428 -0.377202 -3.76013 0
M  V30 9882 H 925.741 -1.391 -7.60178 0
M  V30 9883 H 924.086 -1.24413 -6.83774 0
M  V30 9884 H 927.277 -0.550993 -4.64846 0
M  V30 9885 H 927.45 -1.01307 -6.40032 0
M  V30 9886 N 920.856 1.57574 -0.0284266 0
M  V30 9887 C 922.086 1.95787 0.659617 0
M  V30 9888 C 922.494 0.903475 1.66235 0
M  V30 9889 O 921.837 -0.12329 1.83286 0
M  V30 9890 C 921.899 3.30139 1.42298 0
M  V30 9891 C 921.563 4.53322 0.578658 0
M  V30 9892 C 922.56 5.19696 -0.145751 0
M  V30 9893 C 920.245 4.9964 0.516264 0
M  V30 9894 C 922.239 6.30708 -0.921235 0
M  V30 9895 C 919.926 6.10534 -0.262925 0
M  V30 9896 C 920.924 6.75927 -0.980382 0
M  V30 9897 O 920.612 7.84692 -1.7468 0
M  V30 9898 H 920.344 0.649681 0.186792 0
M  V30 9899 H 922.898 2.05227 -0.0842687 0
M  V30 9900 H 921.128 3.17188 2.21199 0
M  V30 9901 H 922.817 3.53259 1.99906 0
M  V30 9902 H 923.583 4.84882 -0.106876 0
M  V30 9903 H 919.462 4.48547 1.06427 0
M  V30 9904 H 923.006 6.81682 -1.48176 0
M  V30 9905 H 918.903 6.44786 -0.303519 0
M  V30 9906 H 919.671 8.01355 -1.6665 0
M  V30 9907 N 922.334 -0.244713 1.55689 0
M  V30 9908 C 923.611 -0.995407 1.68378 0
M  V30 9909 C 923.991 -2.03288 0.568949 0
M  V30 9910 O 923.339 -2.24469 -0.427299 0
M  V30 9911 C 923.549 -1.62678 3.08767 0
M  V30 9912 C 924.897 -2.1278 3.67437 0
M  V30 9913 O 925.921 -1.72614 3.11581 0
M  V30 9914 O 924.78 -2.86536 4.65359 0
M  V30 9915 H 921.874 -0.463476 0.684923 0
M  V30 9916 H 924.42 -0.238326 1.68018 0
M  V30 9917 H 923.192 -0.876469 3.81358 0
M  V30 9918 H 922.815 -2.45 3.13146 0
M  V30 9919 N 923.813 -1.49104 -0.510467 0
M  V30 9920 C 925.061 -1.578 -1.26268 0
M  V30 9921 C 925.382 -0.262349 -1.93227 0
M  V30 9922 O 924.652 0.717624 -1.82283 0
M  V30 9923 H 923.232 -0.581387 -0.46904 0
M  V30 9924 H 925.894 -1.85678 -0.592423 0
M  V30 9925 H 924.99 -2.36919 -2.03165 0
M  V30 9926 N 925.291 0.760815 -1.38019 0
M  V30 9927 C 926.239 1.89578 -1.34771 0
M  V30 9928 C 927.233 1.67766 -0.234714 0
M  V30 9929 O 928.439 1.75423 -0.403352 0
M  V30 9930 H 924.814 0.623608 -0.420258 0
M  V30 9931 H 926.785 1.89434 -2.30558 0
M  V30 9932 C 925.534 3.26976 -1.18246 0
M  V30 9933 H 924.857 3.44342 -2.03147 0
M  V30 9934 H 926.297 4.06657 -1.20026 0
M  V30 9935 C 924.756 3.36717 0.111145 0
M  V30 9936 O 925.286 3.86607 1.09079 0
M  V30 9937 N 923.492 2.90128 0.165542 0
M  V30 9938 H 923.039 2.49719 -0.632328 0
M  V30 9939 H 922.997 2.97026 1.03067 0
M  V30 9940 N 926.769 1.22769 0.988202 0
M  V30 9941 C 928.015 1.05665 1.73097 0
M  V30 9942 C 928.348 -0.406615 1.89895 0
M  V30 9943 O 927.623 -1.30132 1.44554 0
M  V30 9944 C 927.906 1.77381 3.13382 0
M  V30 9945 C 927.759 3.31332 3.04203 0
M  V30 9946 C 929.078 1.52999 4.12649 0
M  V30 9947 H 926.197 0.385258 0.628288 0
M  V30 9948 H 928.839 1.51171 1.15097 0
M  V30 9949 H 926.989 1.38696 3.62899 0
M  V30 9950 H 928.661 3.79489 2.6227 0
M  V30 9951 H 926.904 3.60767 2.40894 0
M  V30 9952 H 927.575 3.76692 4.03493 0
M  V30 9953 H 930.051 1.86611 3.71908 0
M  V30 9954 H 928.927 2.05666 5.08913 0
M  V30 9955 H 929.188 0.463615 4.39662 0
M  V30 9956 N 928.247 -1.18576 1.03814 0
M  V30 9957 C 929.477 -1.92158 0.758864 0
M  V30 9958 C 929.885 -1.76267 -0.687498 0
M  V30 9959 O 929.228 -1.08806 -1.4801 0
M  V30 9960 C 929.29 -3.44063 1.04217 0
M  V30 9961 C 928.954 -3.8373 2.48193 0
M  V30 9962 C 929.951 -3.87722 3.46363 0
M  V30 9963 C 927.636 -4.151 2.82838 0
M  V30 9964 C 929.63 -4.2253 4.77229 0
M  V30 9965 C 927.317 -4.49578 4.13911 0
M  V30 9966 C 928.315 -4.53269 5.10917 0
M  V30 9967 O 928.003 -4.86945 6.39641 0
M  V30 9968 H 927.735 -0.61694 0.276335 0
M  V30 9969 H 930.289 -1.51388 1.38819 0
M  V30 9970 H 928.519 -3.85061 0.355709 0
M  V30 9971 H 930.208 -3.9889 0.751091 0
M  V30 9972 H 930.974 -3.63627 3.20936 0
M  V30 9973 H 926.853 -4.11406 2.08006 0
M  V30 9974 H 930.397 -4.25326 5.52941 0
M  V30 9975 H 926.294 -4.73133 4.39107 0
M  V30 9976 H 927.062 -5.04857 6.44253 0
M  V30 9977 N 929.725 -0.817259 -1.34754 0
M  V30 9978 C 930.635 -0.236946 -2.334 0
M  V30 9979 C 931.651 0.625685 -1.62361 0
M  V30 9980 O 932.827 0.534921 -1.94166 0
M  V30 9981 C 929.892 0.596215 -3.41535 0
M  V30 9982 C 928.953 -0.288154 -4.28332 0
M  V30 9983 C 928.186 0.505337 -5.31302 0
M  V30 9984 O 928.409 1.73912 -5.43241 0
M  V30 9985 O 927.343 -0.109374 -6.01801 0
M  V30 9986 H 931.169 -1.05327 -2.84851 0
M  V30 9987 H 928.754 -0.579275 -1.37713 0
M  V30 9988 H 930.636 1.07041 -4.07578 0
M  V30 9989 H 929.311 1.38997 -2.92338 0
M  V30 9990 H 928.218 -0.809724 -3.65232 0
M  V30 9991 H 929.551 -1.04612 -4.80955 0
M  V30 9992 N 931.203 1.46865 -0.571711 0
M  V30 9993 C 932.151 2.31897 0.180714 0
M  V30 9994 C 933.145 1.43815 0.895191 0
M  V30 9995 O 934.351 1.60501 0.814828 0
M  V30 9996 H 930.726 0.748032 0.077148 0
M  V30 9997 H 932.697 2.93185 -0.555432 0
M  V30 9998 C 931.446 3.26766 1.18824 0
M  V30 9999 H 930.769 3.94515 0.64789 0
M  V30 10000 H 932.209 3.89067 1.68532 0
M  V30 10001 C 930.668 2.51325 2.2436 0
M  V30 10002 O 931.198 2.26825 3.31532 0
M  V30 10003 N 929.404 2.12079 1.98673 0
M  V30 10004 H 928.951 2.32204 1.1153 0
M  V30 10005 H 928.909 1.61921 2.69498 0
M  V30 10006 N 932.681 0.308908 1.54543 0
M  V30 10007 C 933.611 -0.556657 2.26768 0
M  V30 10008 C 934.592 -1.13145 1.27013 0
M  V30 10009 O 935.777 -1.15931 1.558 0
M  V30 10010 C 932.907 -1.72481 3.01443 0
M  V30 10011 C 931.861 -1.28001 4.08411 0
M  V30 10012 C 931.187 -2.53395 4.70845 0
M  V30 10013 C 932.487 -0.405497 5.20724 0
M  V30 10014 H 934.181 0.0457618 2.99365 0
M  V30 10015 H 931.727 0.0234495 1.43981 0
M  V30 10016 H 933.68 -2.3365 3.50693 0
M  V30 10017 H 932.404 -2.35359 2.26437 0
M  V30 10018 H 931.063 -0.69133 3.60022 0
M  V30 10019 H 930.711 -3.14604 3.92471 0
M  V30 10020 H 930.411 -2.2433 5.43093 0
M  V30 10021 H 931.935 -3.15352 5.22863 0
M  V30 10022 H 933.349 -0.923076 5.6582 0
M  V30 10023 H 931.746 -0.208282 5.99738 0
M  V30 10024 H 932.816 0.567412 4.81569 0
M  V30 10025 N 934.159 -1.57557 0.0367827 0
M  V30 10026 C 935.406 -1.92114 -0.640185 0
M  V30 10027 C 935.734 -0.913887 -1.71693 0
M  V30 10028 O 934.989 0.0760343 -1.95552 0
M  V30 10029 C 935.288 -3.33387 -1.28794 0
M  V30 10030 C 934.954 -4.4961 -0.340819 0
M  V30 10031 C 933.616 -4.81133 -0.0801574 0
M  V30 10032 C 935.968 -5.20283 0.309106 0
M  V30 10033 C 933.296 -5.80683 0.838107 0
M  V30 10034 C 935.648 -6.20813 1.21547 0
M  V30 10035 C 934.312 -6.50773 1.48495 0
M  V30 10036 H 933.582 -0.702996 -0.23426 0
M  V30 10037 H 936.229 -1.91238 0.100188 0
M  V30 10038 H 934.534 -3.30561 -2.10324 0
M  V30 10039 H 936.231 -3.57399 -1.81843 0
M  V30 10040 H 932.821 -4.25002 -0.554161 0
M  V30 10041 H 937.005 -4.96153 0.120794 0
M  V30 10042 H 932.261 -6.02238 1.05451 0
M  V30 10043 H 936.435 -6.74692 1.72522 0
M  V30 10044 H 934.062 -7.27727 2.19814 0
M  V30 10045 N 935.637 0.236453 -1.55816 0
M  V30 10046 C 936.547 1.31418 -1.94336 0
M  V30 10047 C 937.563 1.52095 -0.845164 0
M  V30 10048 O 938.739 1.65515 -1.14746 0
M  V30 10049 C 935.804 2.6468 -2.23932 0
M  V30 10050 C 934.865 2.52435 -3.47239 0
M  V30 10051 C 934.098 3.79342 -3.75414 0
M  V30 10052 O 934.321 4.81694 -3.05495 0
M  V30 10053 O 933.255 3.77347 -4.68927 0
M  V30 10054 H 937.081 1.01739 -2.86152 0
M  V30 10055 H 934.666 0.438084 -1.42833 0
M  V30 10056 H 936.548 3.4341 -2.44228 0
M  V30 10057 H 935.223 2.94071 -1.35292 0
M  V30 10058 H 934.13 1.71955 -3.32238 0
M  V30 10059 H 935.463 2.27987 -4.36214 0
M  V30 10060 N 937.115 1.49373 0.502552 0
M  V30 10061 C 938.361 1.5999 1.25597 0
M  V30 10062 C 938.716 0.282287 1.90318 0
M  V30 10063 O 938.009 -0.71735 1.77664 0
M  V30 10064 C 938.203 2.69508 2.34735 0
M  V30 10065 C 938.032 4.11791 1.80716 0
M  V30 10066 C 936.802 4.78598 1.62087 0
M  V30 10067 C 939 4.97074 1.31991 0
M  V30 10068 N 936.982 6.05201 1.02981 0
M  V30 10069 C 938.353 6.14144 0.850098 0
M  V30 10070 C 940.408 4.83086 1.20549 0
M  V30 10071 C 939.111 7.18766 0.277192 0
M  V30 10072 C 941.137 5.87855 0.64656 0
M  V30 10073 C 940.499 7.04152 0.186968 0
M  V30 10074 H 936.598 0.639822 0.449613 0
M  V30 10075 H 939.182 1.86371 0.563361 0
M  V30 10076 H 937.353 2.44902 3.01459 0
M  V30 10077 H 939.085 2.69656 3.01774 0
M  V30 10078 H 935.84 4.35372 1.8641 0
M  V30 10079 H 936.264 6.72793 0.753601 0
M  V30 10080 H 940.906 3.93489 1.54681 0
M  V30 10081 H 938.624 8.08064 -0.0763971 0
M  V30 10082 H 942.21 5.79091 0.560832 0
M  V30 10083 H 941.09 7.83836 -0.238784 0
M  V30 10084 N 938.594 -0.753485 1.38421 0
M  V30 10085 C 939.557 -1.84888 1.35459 0
M  V30 10086 C 940.557 -1.58764 0.255083 0
M  V30 10087 O 941.747 -1.66507 0.511978 0
M  V30 10088 C 938.879 -3.22361 1.10888 0
M  V30 10089 H 940.072 -1.88922 2.32913 0
M  V30 10090 H 937.625 -0.955199 1.23716 0
M  V30 10091 H 938.36 -3.23996 0.1404 0
M  V30 10092 H 938.145 -3.42717 1.90492 0
M  V30 10093 H 939.635 -4.02437 1.1151 0
M  V30 10094 N 940.072 -1.23292 -0.981677 0
M  V30 10095 C 941.019 -1.01296 -2.07383 0
M  V30 10096 C 941.989 0.069139 -1.65956 0
M  V30 10097 O 943.174 -0.0827108 -1.90621 0
M  V30 10098 C 940.314 -0.608876 -3.39686 0
M  V30 10099 C 939.427 -1.76296 -3.9439 0
M  V30 10100 C 938.562 -1.30578 -5.14901 0
M  V30 10101 C 937.601 -2.4307 -5.61768 0
M  V30 10102 N 936.738 -1.98319 -6.73509 0
M  V30 10103 H 941.578 -1.9478 -2.25532 0
M  V30 10104 H 939.115 -0.970356 -1.10555 0
M  V30 10105 H 941.073 -0.355702 -4.15681 0
M  V30 10106 H 939.703 0.288961 -3.21504 0
M  V30 10107 H 938.755 -2.13017 -3.15163 0
M  V30 10108 H 940.067 -2.60871 -4.25145 0
M  V30 10109 H 939.221 -1.01066 -5.98223 0
M  V30 10110 H 937.96 -0.430386 -4.85797 0
M  V30 10111 H 936.965 -2.73358 -4.77028 0
M  V30 10112 H 938.19 -3.31144 -5.92892 0
M  V30 10113 H 936.136 -1.13157 -6.46167 0
M  V30 10114 H 936.053 -2.76454 -7.0364 0
M  V30 10115 H 937.321 -1.71907 -7.60308 0
M  V30 10116 N 941.55 1.18024 -1.04442 0
M  V30 10117 C 942.498 2.23834 -0.632557 0
M  V30 10118 C 943.492 1.65902 0.342488 0
M  V30 10119 O 944.698 1.78778 0.20937 0
M  V30 10120 H 941.073 0.728544 -0.186353 0
M  V30 10121 H 943.044 2.55876 -1.53526 0
M  V30 10122 C 941.793 3.47697 -0.0153661 0
M  V30 10123 H 941.116 3.92574 -0.756704 0
M  V30 10124 H 942.556 4.23345 0.235541 0
M  V30 10125 C 941.015 3.13416 1.23579 0
M  V30 10126 O 941.545 3.27499 2.3261 0
M  V30 10127 N 939.751 2.67708 1.13053 0
M  V30 10128 H 939.298 2.56449 0.243277 0
M  V30 10129 H 939.256 2.45143 1.96855 0
M  V30 10130 N 943.028 0.824394 1.34319 0
M  V30 10131 C 944.253 0.425194 2.02995 0
M  V30 10132 C 944.678 -0.961476 1.6167 0
M  V30 10133 O 944.036 -1.62593 0.80207 0
M  V30 10134 C 944.084 0.537004 3.56579 0
M  V30 10135 O 943.188 -0.442576 4.10018 0
M  V30 10136 H 942.529 0.174853 0.640564 0
M  V30 10137 H 945.059 1.11522 1.71534 0
M  V30 10138 H 945.069 0.413311 4.05901 0
M  V30 10139 H 943.744 1.54836 3.86004 0
M  V30 10140 H 942.321 -0.277644 3.71865 0
M  V30 10141 N 944.506 -1.46559 0.579492 0
M  V30 10142 C 945.917 -1.8608 0.152052 0
M  V30 10143 C 946.268 -1.48346 -1.28405 0
M  V30 10144 O 945.393 -0.89685 -1.9694 0
M  V30 10145 C 945.988 -3.37729 0.269171 0
M  V30 10146 C 944.547 -3.76258 -0.103376 0
M  V30 10147 C 943.694 -2.70584 0.60659 0
M  V30 10148 H 946.645 -1.3776 0.787904 0
M  V30 10149 H 946.666 -3.77116 -0.506339 0
M  V30 10150 H 946.178 -3.65162 1.31448 0
M  V30 10151 H 944.279 -3.54443 -1.14895 0
M  V30 10152 H 944.392 -4.78335 0.270701 0
M  V30 10153 H 942.756 -2.54656 0.0471984 0
M  V30 10154 H 943.539 -3.00856 1.65349 0
M  V30 10155 N 945.984 -0.3171 -1.54377 0
M  V30 10156 C 946.914 0.544623 -2.2706 0
M  V30 10157 C 947.895 1.12469 -1.27611 0
M  V30 10158 O 949.08 1.15103 -1.56413 0
M  V30 10159 C 946.21 1.70879 -3.02353 0
M  V30 10160 C 945.164 1.25833 -4.09084 0
M  V30 10161 C 944.49 2.50894 -4.72182 0
M  V30 10162 C 945.79 0.377876 -5.20931 0
M  V30 10163 H 947.484 -0.0616372 -2.99337 0
M  V30 10164 H 945.03 -0.0310848 -1.43966 0
M  V30 10165 H 946.983 2.31787 -3.51927 0
M  V30 10166 H 945.707 2.34155 -2.27682 0
M  V30 10167 H 944.366 0.672228 -3.60384 0
M  V30 10168 H 944.014 3.12518 -3.94134 0
M  V30 10169 H 943.714 2.21447 -5.44275 0
M  V30 10170 H 945.238 3.12575 -5.24528 0
M  V30 10171 H 946.652 0.893056 -5.66302 0
M  V30 10172 H 945.049 0.176474 -5.9984 0
M  V30 10173 H 946.119 -0.592943 -4.81261 0
M  V30 10174 N 947.462 1.57535 -0.0451378 0
M  V30 10175 C 948.41 2.12351 0.949205 0
M  V30 10176 C 949.404 1.05386 1.32628 0
M  V30 10177 O 950.61 1.23802 1.30664 0
M  V30 10178 H 946.985 0.678648 0.323945 0
M  V30 10179 H 948.956 2.94806 0.461718 0
M  V30 10180 C 947.705 2.67862 2.21687 0
M  V30 10181 H 947.028 3.49826 1.93551 0
M  V30 10182 H 948.468 3.09844 2.89435 0
M  V30 10183 C 946.927 1.61353 2.95748 0
M  V30 10184 O 947.457 1.02276 3.88462 0
M  V30 10185 N 945.663 1.33017 2.5837 0
M  V30 10186 H 945.21 1.81246 1.83051 0
M  V30 10187 H 945.168 0.619812 3.0823 0
M  V30 10188 N 948.94 -0.228186 1.55939 0
M  V30 10189 C 949.887 -1.28274 1.91871 0
M  V30 10190 C 950.857 -1.46906 0.775103 0
M  V30 10191 O 952.042 -1.60583 1.03042 0
M  V30 10192 C 949.182 -2.62945 2.23504 0
M  V30 10193 C 948.295 -2.52166 3.50766 0
M  V30 10194 C 947.43 -3.79316 3.71878 0
M  V30 10195 C 946.469 -3.63231 4.92676 0
M  V30 10196 N 945.606 -4.82315 5.10212 0
M  V30 10197 H 950.446 -0.96931 2.81795 0
M  V30 10198 H 947.983 -0.467331 1.39479 0
M  V30 10199 H 949.941 -3.41359 2.39854 0
M  V30 10200 H 948.571 -2.92397 1.36762 0
M  V30 10201 H 947.623 -1.65221 3.42646 0
M  V30 10202 H 948.935 -2.36199 4.39331 0
M  V30 10203 H 948.089 -4.66173 3.88288 0
M  V30 10204 H 946.828 -3.982 2.81581 0
M  V30 10205 H 945.833 -2.74757 4.76223 0
M  V30 10206 H 947.058 -3.45823 5.84451 0
M  V30 10207 H 945.004 -5.01526 4.22856 0
M  V30 10208 H 944.921 -4.6905 5.92898 0
M  V30 10209 H 946.189 -5.70618 5.31051 0
M  V30 10210 N 950.418 -1.49637 -0.494624 0
M  V30 10211 C 951.381 -1.66252 -1.57775 0
M  V30 10212 C 952.381 -0.534054 -1.51672 0
M  V30 10213 O 953.571 -0.800637 -1.54711 0
M  V30 10214 C 950.703 -1.66584 -2.97426 0
M  V30 10215 H 951.896 -2.62864 -1.4437 0
M  V30 10216 H 949.449 -1.38764 -0.719323 0
M  V30 10217 H 950.184 -0.715798 -3.16302 0
M  V30 10218 H 949.969 -2.48543 -3.03264 0
M  V30 10219 H 951.459 -1.81474 -3.76108 0
M  V30 10220 N 951.896 0.746133 -1.38819 0
M  V30 10221 C 952.806 1.89063 -1.38897 0
M  V30 10222 C 953.822 1.71648 -0.28513 0
M  V30 10223 O 954.998 1.94443 -0.524783 0
M  V30 10224 C 952.063 3.24523 -1.22007 0
M  V30 10225 C 951.124 3.54411 -2.42263 0
M  V30 10226 C 950.357 4.83408 -2.26169 0
M  V30 10227 O 950.58 5.56325 -1.25931 0
M  V30 10228 O 949.514 5.12943 -3.14918 0
M  V30 10229 H 953.34 1.91951 -2.35347 0
M  V30 10230 H 950.925 0.892433 -1.19816 0
M  V30 10231 H 952.807 4.05496 -1.14677 0
M  V30 10232 H 951.482 3.2243 -0.286455 0
M  V30 10233 H 950.389 2.73569 -2.55168 0
M  V30 10234 H 951.722 3.61273 -3.3428 0
M  V30 10235 N 953.375 1.23811 0.975125 0
M  V30 10236 C 954.621 1.07495 1.71967 0
M  V30 10237 C 954.954 -0.386451 1.90316 0
M  V30 10238 O 954.229 -1.28591 1.45927 0
M  V30 10239 C 954.512 1.80694 3.11483 0
M  V30 10240 C 954.365 3.3454 3.00671 0
M  V30 10241 C 955.684 1.57367 4.11003 0
M  V30 10242 H 952.803 0.3919 0.624166 0
M  V30 10243 H 955.445 1.52383 1.13487 0
M  V30 10244 H 953.595 1.42538 3.61407 0
M  V30 10245 H 955.267 3.8225 2.5823 0
M  V30 10246 H 953.51 3.63301 2.37054 0
M  V30 10247 H 954.181 3.80951 3.99475 0
M  V30 10248 H 956.657 1.90545 3.69908 0
M  V30 10249 H 955.533 2.11052 5.06703 0
M  V30 10250 H 955.794 0.510221 4.39146 0
M  V30 10251 N 954.853 -1.17469 1.05066 0
M  V30 10252 C 955.803 -2.19388 0.620713 0
M  V30 10253 C 956.787 -1.5722 -0.34214 0
M  V30 10254 O 957.979 -1.76279 -0.159574 0
M  V30 10255 C 955.108 -3.433 -0.00438518 0
M  V30 10256 C 954.194 -4.12569 0.982218 0
M  V30 10257 N 954.585 -4.57683 2.15313 0
M  V30 10258 C 952.883 -4.38575 0.810416 0
M  V30 10259 C 953.584 -5.11124 2.77719 0
M  V30 10260 N 952.56 -5.0325 2.05525 0
M  V30 10261 H 956.362 -2.51971 1.51287 0
M  V30 10262 H 953.876 -1.33784 0.920625 0
M  V30 10263 H 955.873 -4.15591 -0.330161 0
M  V30 10264 H 954.533 -3.12209 -0.89195 0
M  V30 10265 H 955.544 -4.51812 2.53154 0
M  V30 10266 H 952.221 -4.17492 -0.0262078 0
M  V30 10267 H 953.611 -5.56161 3.77008 0
M  V30 10268 N 956.331 -0.831506 -1.3388 0
M  V30 10269 C 957.241 -0.261688 -2.33136 0
M  V30 10270 C 958.257 0.608429 -1.63016 0
M  V30 10271 O 959.433 0.514297 -1.94723 0
M  V30 10272 C 956.498 0.559957 -3.42148 0
M  V30 10273 C 955.559 -0.333569 -4.28002 0
M  V30 10274 C 954.792 0.448956 -5.31808 0
M  V30 10275 O 955.015 1.6814 -5.45055 0
M  V30 10276 O 953.949 -0.173197 -6.01651 0
M  V30 10277 H 957.775 -1.08343 -2.83717 0
M  V30 10278 H 955.36 -0.593849 -1.3709 0
M  V30 10279 H 957.242 1.02712 -4.08691 0
M  V30 10280 H 955.917 1.35888 -2.93796 0
M  V30 10281 H 954.824 -0.848416 -3.64352 0
M  V30 10282 H 956.157 -1.09707 -4.79818 0
M  V30 10283 N 957.809 1.4625 -0.587256 0
M  V30 10284 C 959.034 2.07252 -0.0784517 0
M  V30 10285 C 959.459 1.43239 1.21919 0
M  V30 10286 O 958.817 0.517791 1.73749 0
M  V30 10287 C 958.865 3.60534 0.0691037 0
M  V30 10288 O 957.969 3.96773 1.12448 0
M  V30 10289 H 957.31 0.660825 -0.064859 0
M  V30 10290 H 959.84 1.87819 -0.811491 0
M  V30 10291 H 959.85 4.0708 0.273826 0
M  V30 10292 H 958.525 4.06516 -0.878514 0
M  V30 10293 H 957.102 3.6193 0.897852 0
M  V30 10294 N 959.287 0.325282 1.54207 0
M  V30 10295 C 960.517 -0.278285 2.04717 0
M  V30 10296 C 960.925 -1.46198 1.20095 0
M  V30 10297 O 960.268 -1.82319 0.224813 0
M  V30 10298 C 960.33 -0.774387 3.51061 0
M  V30 10299 C 959.994 0.287225 4.56096 0
M  V30 10300 C 960.991 1.12388 5.07607 0
M  V30 10301 C 958.676 0.435908 5.00405 0
M  V30 10302 C 960.67 2.09492 6.0199 0
M  V30 10303 C 958.357 1.41037 5.94602 0
M  V30 10304 C 959.355 2.23834 6.45281 0
M  V30 10305 O 959.043 3.19625 7.37628 0
M  V30 10306 H 958.775 -0.0608309 0.673257 0
M  V30 10307 H 961.329 0.470049 1.99949 0
M  V30 10308 H 959.559 -1.57366 3.53232 0
M  V30 10309 H 961.248 -1.29649 3.84637 0
M  V30 10310 H 962.014 1.02 4.74153 0
M  V30 10311 H 957.893 -0.198668 4.60572 0
M  V30 10312 H 961.437 2.74157 6.4147 0
M  V30 10313 H 957.334 1.51487 6.27473 0
M  V30 10314 H 958.102 3.14884 7.55507 0
M  V30 10315 N 960.765 -1.57509 0.0534917 0
M  V30 10316 C 961.712 -2.11667 -0.920101 0
M  V30 10317 C 962.682 -1.0246 -1.30733 0
M  V30 10318 O 963.867 -1.30021 -1.39639 0
M  V30 10319 C 961.007 -2.66803 -2.18883 0
M  V30 10320 C 960.12 -3.90104 -1.85588 0
M  V30 10321 C 959.255 -4.33547 -3.06937 0
M  V30 10322 C 958.294 -5.49542 -2.69573 0
M  V30 10323 N 957.431 -5.88029 -3.83623 0
M  V30 10324 H 962.271 -2.94562 -0.451371 0
M  V30 10325 H 959.808 -1.45576 -0.211168 0
M  V30 10326 H 961.766 -2.96871 -2.93127 0
M  V30 10327 H 960.396 -1.86702 -2.63329 0
M  V30 10328 H 959.448 -3.66613 -1.01484 0
M  V30 10329 H 960.76 -4.74404 -1.54087 0
M  V30 10330 H 959.914 -4.6518 -3.89477 0
M  V30 10331 H 958.653 -3.48064 -3.41618 0
M  V30 10332 H 957.658 -5.17579 -1.8545 0
M  V30 10333 H 958.883 -6.36743 -2.36082 0
M  V30 10334 H 956.829 -5.05498 -4.181 0
M  V30 10335 H 956.746 -6.67025 -3.55828 0
M  V30 10336 H 958.014 -6.24277 -4.66796 0
M  V30 10337 N 962.243 0.219913 -1.56058 0
M  V30 10338 C 963.193 1.27606 -1.88946 0
M  V30 10339 C 964.177 1.42209 -0.752691 0
M  V30 10340 O 965.369 1.44996 -1.01514 0
M  V30 10341 C 962.498 2.62614 -2.21108 0
M  V30 10342 C 961.584 2.51906 -3.4118 0
M  V30 10343 N 961.975 2.10851 -4.59756 0
M  V30 10344 C 960.273 2.82861 -3.44827 0
M  V30 10345 C 960.974 2.11434 -5.41914 0
M  V30 10346 N 959.95 2.51985 -4.81669 0
M  V30 10347 H 963.752 0.94957 -2.78137 0
M  V30 10348 H 961.266 0.428468 -1.56646 0
M  V30 10349 H 963.263 3.38869 -2.42844 0
M  V30 10350 H 961.923 2.96108 -1.3323 0
M  V30 10351 H 962.934 1.81956 -4.84884 0
M  V30 10352 H 959.611 3.20716 -2.67297 0
M  V30 10353 H 961.001 1.81803 -6.46836 0
M  V30 10354 N 963.721 1.49897 0.486681 0
M  V30 10355 C 964.651 1.7054 1.59494 0
M  V30 10356 C 965.632 0.554184 1.60819 0
M  V30 10357 O 966.817 0.791617 1.77333 0
M  V30 10358 C 963.947 1.78517 2.97908 0
M  V30 10359 C 962.901 2.93571 3.11449 0
M  V30 10360 C 962.227 2.86674 4.51356 0
M  V30 10361 C 963.527 4.34308 2.90127 0
M  V30 10362 H 965.221 2.63329 1.42472 0
M  V30 10363 H 962.767 1.2672 0.683969 0
M  V30 10364 H 964.72 1.91544 3.75352 0
M  V30 10365 H 963.444 0.823381 3.16051 0
M  V30 10366 H 962.103 2.80169 2.36433 0
M  V30 10367 H 961.751 1.88373 4.66395 0
M  V30 10368 H 961.451 3.63903 4.61355 0
M  V30 10369 H 962.975 3.01728 5.30841 0
M  V30 10370 H 964.389 4.48317 3.57331 0
M  V30 10371 H 962.786 5.12869 3.11585 0
M  V30 10372 H 963.856 4.47759 1.86119 0
M  V30 10373 N 965.199 -0.738761 1.39212 0
M  V30 10374 C 966.146 -1.85273 1.37631 0
M  V30 10375 C 967.116 -1.64407 0.236572 0
M  V30 10376 O 968.301 -1.85866 0.431104 0
M  V30 10377 C 965.441 -3.22745 1.22188 0
M  V30 10378 C 964.554 -3.55342 2.45674 0
M  V30 10379 C 963.689 -4.82195 2.22847 0
M  V30 10380 C 962.728 -5.07625 3.42029 0
M  V30 10381 N 961.865 -6.25679 3.18543 0
M  V30 10382 H 966.705 -1.85959 2.32859 0
M  V30 10383 H 964.242 -0.908716 1.15675 0
M  V30 10384 H 966.2 -4.02095 1.11245 0
M  V30 10385 H 964.83 -3.21347 0.30592 0
M  V30 10386 H 963.882 -2.70722 2.67233 0
M  V30 10387 H 965.194 -3.70054 3.34457 0
M  V30 10388 H 964.348 -5.69518 2.09126 0
M  V30 10389 H 963.087 -4.6965 1.31454 0
M  V30 10390 H 962.092 -4.18765 3.56253 0
M  V30 10391 H 963.317 -5.22058 4.34319 0
M  V30 10392 H 961.263 -6.14429 2.2981 0
M  V30 10393 H 961.18 -6.40961 4.0088 0
M  V30 10394 H 962.448 -7.15851 3.08508 0
M  V30 10395 N 966.677 -1.24326 -0.968545 0
M  V30 10396 C 967.902 -1.1104 -1.75171 0
M  V30 10397 C 968.327 0.333109 -1.85127 0
M  V30 10398 O 967.685 1.24115 -1.32156 0
M  V30 10399 C 967.733 -1.75397 -3.15068 0
M  V30 10400 O 966.837 -1.02417 -3.9948 0
M  V30 10401 H 966.178 -0.388488 -0.538491 0
M  V30 10402 H 968.708 -1.64617 -1.215 0
M  V30 10403 H 968.718 -1.8112 -3.65595 0
M  V30 10404 H 967.393 -2.80427 -3.07138 0
M  V30 10405 H 965.97 -1.04475 -3.57966 0
M  V30 10406 N 968.156 1.1691 -1.05688 0
M  V30 10407 C 969.086 2.23275 -0.683402 0
M  V30 10408 C 970.067 1.6704 0.321206 0
M  V30 10409 O 971.252 1.93191 0.197691 0
M  V30 10410 C 968.382 3.47244 -0.0626006 0
M  V30 10411 C 967.336 4.16333 -0.992513 0
M  V30 10412 C 966.662 5.34182 -0.23533 0
M  V30 10413 C 967.962 4.68002 -2.31886 0
M  V30 10414 H 969.656 2.54771 -1.57264 0
M  V30 10415 H 967.202 1.2246 -0.757606 0
M  V30 10416 H 969.155 4.20874 0.210503 0
M  V30 10417 H 967.879 3.1503 0.861616 0
M  V30 10418 H 966.538 3.44622 -1.25026 0
M  V30 10419 H 966.186 4.9822 0.69181 0
M  V30 10420 H 965.886 5.81346 -0.855002 0
M  V30 10421 H 967.41 6.10592 0.0303717 0
M  V30 10422 H 968.824 5.33244 -2.10531 0
M  V30 10423 H 967.221 5.25764 -2.89296 0
M  V30 10424 H 968.291 3.84541 -2.95391 0
M  V30 10425 N 969.634 0.838594 1.33437 0
M  V30 10426 C 970.566 0.229006 2.28053 0
M  V30 10427 C 971.579 -0.590103 1.51729 0
M  V30 10428 O 972.768 -0.417218 1.73556 0
M  V30 10429 C 969.868 -0.696251 3.31671 0
M  V30 10430 C 969.041 0.0834606 4.3732 0
M  V30 10431 C 968.1 -0.765097 5.20608 0
M  V30 10432 O 967.126 -0.2044 5.68833 0
M  V30 10433 N 968.328 -2.08249 5.4186 0
M  V30 10434 H 971.093 1.04196 2.81004 0
M  V30 10435 H 968.654 0.697031 1.46127 0
M  V30 10436 H 970.646 -1.26889 3.84293 0
M  V30 10437 H 969.216 -1.40992 2.78998 0
M  V30 10438 H 968.436 0.837481 3.85201 0
M  V30 10439 H 969.724 0.619613 5.05013 0
M  V30 10440 H 969.122 -2.56156 5.04381 0
M  V30 10441 H 967.679 -2.60362 5.97541 0
M  V30 10442 N 971.112 -1.45937 0.595003 0
M  V30 10443 C 972.337 -2.07207 0.0894416 0
M  V30 10444 C 972.762 -1.43884 -1.21157 0
M  V30 10445 O 972.12 -0.526998 -1.73472 0
M  V30 10446 C 972.168 -3.60565 -0.0499828 0
M  V30 10447 O 971.272 -3.97364 -1.10342 0
M  V30 10448 H 970.613 -0.660471 0.0683627 0
M  V30 10449 H 973.143 -1.87386 0.82144 0
M  V30 10450 H 973.153 -4.0722 -0.252234 0
M  V30 10451 H 971.828 -4.06044 0.90006 0
M  V30 10452 H 970.405 -3.62401 -0.878645 0
M  V30 10453 N 972.59 -0.333456 -1.54032 0
M  V30 10454 C 973.537 0.527981 -2.2468 0
M  V30 10455 C 974.507 1.10371 -1.24127 0
M  V30 10456 O 975.692 1.14221 -1.52834 0
M  V30 10457 C 972.832 1.67808 -3.01553 0
M  V30 10458 C 971.945 1.13064 -4.16942 0
M  V30 10459 C 971.08 2.24722 -4.81325 0
M  V30 10460 C 970.119 1.67277 -5.88799 0
M  V30 10461 N 969.256 2.72638 -6.47003 0
M  V30 10462 H 974.096 -0.0810308 -2.9789 0
M  V30 10463 H 971.633 -0.051761 -1.47009 0
M  V30 10464 H 973.591 2.35502 -3.44376 0
M  V30 10465 H 972.221 2.25823 -2.30659 0
M  V30 10466 H 971.273 0.344948 -3.78833 0
M  V30 10467 H 972.585 0.670373 -4.94275 0
M  V30 10468 H 971.739 3.00301 -5.27166 0
M  V30 10469 H 970.478 2.74089 -4.03394 0
M  V30 10470 H 969.483 0.902002 -5.4235 0
M  V30 10471 H 970.708 1.18775 -6.68632 0
M  V30 10472 H 968.654 3.21277 -5.71941 0
M  V30 10473 H 968.571 2.31204 -7.19778 0
M  V30 10474 H 969.839 3.48015 -6.97499 0
M  V30 10475 N 974.068 1.57479 -0.061844 0
M  V30 10476 C 974.998 2.15181 0.9066 0
M  V30 10477 C 975.979 1.07624 1.31724 0
M  V30 10478 O 977.164 1.35614 1.39006 0
M  V30 10479 C 974.294 2.70542 2.17771 0
M  V30 10480 C 973.248 3.83178 1.9068 0
M  V30 10481 C 972.574 4.25099 3.24337 0
M  V30 10482 C 973.874 5.07853 1.21994 0
M  V30 10483 H 975.568 2.96355 0.42594 0
M  V30 10484 H 973.114 1.42556 0.203435 0
M  V30 10485 H 975.067 3.09552 2.85929 0
M  V30 10486 H 973.791 1.86575 2.68062 0
M  V30 10487 H 972.45 3.44656 1.24931 0
M  V30 10488 H 972.098 3.38069 3.72449 0
M  V30 10489 H 971.798 5.01021 3.07005 0
M  V30 10490 H 973.322 4.66718 3.93709 0
M  V30 10491 H 974.736 5.44242 1.80204 0
M  V30 10492 H 973.133 5.88987 1.14954 0
M  V30 10493 H 974.203 4.84497 0.197536 0
M  V30 10494 O 975.585 -0.0790267 1.61307 0
M  V30 10495 H 976.276 -0.705778 1.80384 0
M  V30 END ATOM
M  V30 BEGIN BOND
M  V30 END BOND
M  V30 END CTAB
M  END
$$$$
