drugbank_target|Q15075 Early endosome antigen 1 (DB02942)
 OpenBabel12092120003D

  0  0  0     0  0            999 V3000
M  V30 BEGIN CTAB
M  V30 COUNTS 22944 23012 0 0 0
M  V30 BEGIN ATOM
M  V30 1 H -0.908 1.98254 -0.117106 0
M  V30 2 N 0 1.576 0 0
M  V30 3 C 0.933 2.03868 1.02534 0
M  V30 4 C 1.911 0.928543 1.3348 0
M  V30 5 O 3.095 1.19667 1.45644 0
M  V30 6 C 0.222 2.43627 2.35294 0
M  V30 7 C -0.732 3.65373 2.2001 0
M  V30 8 S 0.101 5.13292 1.52614 0
M  V30 9 C 1.257 5.56322 2.86805 0
M  V30 10 H 1.49 2.90518 0.631377 0
M  V30 11 H -0.977 1.52953 0.210867 0
M  V30 12 H 0.981 2.67203 3.11629 0
M  V30 13 H -0.358 1.57376 2.7183 0
M  V30 14 H -1.165 3.90944 3.18086 0
M  V30 15 H -1.563 3.418 1.51819 0
M  V30 16 H 0.729 5.58782 3.83104 0
M  V30 17 H 1.672 6.56266 2.65933 0
M  V30 18 H 2.08 4.83886 2.90714 0
M  V30 19 N 1.4781 -0.272755 1.55222 0
M  V30 20 C 2.4081 -1.34136 1.91127 0
M  V30 21 C 3.3891 -1.51513 0.773168 0
M  V30 22 O 4.5741 -1.64552 1.03132 0
M  V30 23 C 1.7041 -2.70083 2.1834 0
M  V30 24 C 0.6581 -2.67437 3.34158 0
M  V30 25 C -0.0159 -4.06938 3.46851 0
M  V30 26 C 1.2841 -2.26686 4.70543 0
M  V30 27 H 2.9781 -1.04333 2.80633 0
M  V30 28 H 0.5241 -0.500454 1.35024 0
M  V30 29 H 2.4771 -3.44952 2.42046 0
M  V30 30 H 1.2011 -3.01469 1.25634 0
M  V30 31 H -0.1399 -1.95026 3.1042 0
M  V30 32 H -0.4919 -4.35547 2.51611 0
M  V30 33 H -0.7919 -4.06062 4.2472 0
M  V30 34 H 0.7321 -4.83545 3.72849 0
M  V30 35 H 2.1461 -2.91277 4.93792 0
M  V30 36 H 0.5431 -2.36971 5.5133 0
M  V30 37 H 1.6131 -1.21818 4.69349 0
M  V30 38 N 2.9562 -1.48159 -0.537278 0
M  V30 39 C 4.3722 -1.34118 -0.865129 0
M  V30 40 C 4.5722 -0.346678 -1.98495 0
M  V30 41 O 3.6282 0.234715 -2.51407 0
M  V30 42 C 4.9412 -2.73963 -1.23954 0
M  V30 43 C 6.4892 -2.82397 -1.34984 0
M  V30 44 C 6.9642 -4.22928 -1.75772 0
M  V30 45 N 8.4552 -4.25566 -1.82887 0
M  V30 46 C 9.1902 -5.31235 -2.15817 0
M  V30 47 N 8.6862 -6.47189 -2.47222 0
M  V30 48 N 10.4792 -5.18624 -2.16761 0
M  V30 49 H 2.6302 -2.1144 0.201715 0
M  V30 50 H 4.8932 -0.947598 0.0275949 0
M  V30 51 H 4.5992 -3.48264 -0.490381 0
M  V30 52 H 4.4732 -3.0702 -2.19132 0
M  V30 53 H 6.8602 -2.08356 -2.08978 0
M  V30 54 H 6.9412 -2.5297 -0.379448 0
M  V30 55 H 6.5852 -4.97482 -1.02341 0
M  V30 56 H 6.5152 -4.49794 -2.73848 0
M  V30 57 H 9.0062 -3.41924 -1.60924 0
M  V30 58 H 9.3192 -7.23564 -2.71433 0
M  V30 59 H 7.6642 -6.50476 -2.44757 0
M  V30 60 H 10.8552 -4.27056 -1.91679 0
M  V30 61 H 11.0282 -6.01078 -2.42093 0
M  V30 62 N 4.4343 0.785586 -1.36625 0
M  V30 63 C 5.8503 1.08419 -1.17122 0
M  V30 64 C 6.0503 2.015 0.00208491 0
M  V30 65 O 5.1063 2.43551 0.666278 0
M  V30 66 C 6.4193 1.69498 -2.48377 0
M  V30 67 C 7.9673 1.81821 -2.54775 0
M  V30 68 C 8.4423 2.46315 -3.86126 0
M  V30 69 N 9.9333 2.53779 -3.87492 0
M  V30 70 C 10.6683 3.045 -4.85868 0
M  V30 71 N 10.1643 3.55499 -5.94637 0
M  V30 72 N 11.9573 3.03247 -4.73284 0
M  V30 73 H 4.1083 0.167264 -2.1174 0
M  V30 74 H 6.3713 0.13682 -0.938075 0
M  V30 75 H 6.0773 1.08571 -3.34522 0
M  V30 76 H 5.9513 2.6896 -2.64462 0
M  V30 77 H 8.3383 2.41884 -1.69045 0
M  V30 78 H 8.4193 0.811532 -2.42586 0
M  V30 79 H 8.0633 1.86895 -4.72263 0
M  V30 80 H 7.9933 3.47561 -3.95612 0
M  V30 81 H 10.4843 2.17672 -3.08913 0
M  V30 82 H 10.7973 3.92562 -6.65669 0
M  V30 83 H 9.1423 3.5364 -5.98301 0
M  V30 84 H 12.3333 2.62696 -3.87438 0
M  V30 85 H 12.5063 3.42467 -5.50109 0
M  V30 86 N 5.9124 1.20967 1.01018 0
M  V30 87 C 7.1614 1.01796 1.74128 0
M  V30 88 C 7.4744 -0.449691 1.90361 0
M  V30 89 O 8.6804 -0.76068 2.60626 0
M  V30 90 C 7.1364 1.7727 3.13215 0
M  V30 91 C 6.7444 3.28171 3.04972 0
M  V30 92 C 8.4884 1.66489 3.90489 0
M  V30 93 C 6.3954 3.96156 4.39107 0
M  V30 94 H 5.3254 0.377276 0.652824 0
M  V30 95 H 7.9764 1.44651 1.12909 0
M  V30 96 H 6.3584 1.27205 3.75013 0
M  V30 97 H 7.5324 3.85499 2.52443 0
M  V30 98 H 5.8474 3.39437 2.41188 0
M  V30 99 H 8.4444 2.14617 4.89738 0
M  V30 100 H 8.7874 0.6222 4.11624 0
M  V30 101 H 9.3204 2.14003 3.35332 0
M  V30 102 H 6.0594 5.00604 4.23174 0
M  V30 103 H 5.5794 3.43617 4.91617 0
M  V30 104 H 7.2584 4.00774 5.07926 0
M  V30 105 N 7.3905 -1.2043 1.01659 0
M  V30 106 C 8.3205 -2.25466 0.607226 0
M  V30 107 C 9.3015 -1.65853 -0.377716 0
M  V30 108 O 10.4865 -1.92409 -0.263149 0
M  V30 109 C 7.6165 -3.47256 -0.0552949 0
M  V30 110 C 6.5705 -4.19462 0.850632 0
M  V30 111 C 5.8965 -5.34673 0.0538859 0
M  V30 112 C 7.1965 -4.75603 2.15868 0
M  V30 113 H 8.8905 -2.59962 1.48526 0
M  V30 114 H 6.4365 -1.2496 0.715605 0
M  V30 115 H 8.3895 -4.19917 -0.353233 0
M  V30 116 H 7.1135 -3.11924 -0.968045 0
M  V30 117 H 5.7725 -3.48667 1.13257 0
M  V30 118 H 5.4205 -4.95585 -0.860514 0
M  V30 119 H 5.1205 -5.83913 0.657192 0
M  V30 120 H 6.6445 -6.10138 -0.237598 0
M  V30 121 H 8.0585 -5.40083 1.92311 0
M  V30 122 H 6.4555 -5.3528 2.71284 0
M  V30 123 H 7.5255 -3.94346 2.82169 0
M  V30 124 N 8.8686 -0.792821 -1.36206 0
M  V30 125 C 9.8006 -0.151469 -2.28699 0
M  V30 126 C 10.8136 0.641262 -1.49638 0
M  V30 127 O 12.0026 0.475885 -1.72039 0
M  V30 128 C 9.1026 0.808424 -3.29117 0
M  V30 129 C 8.2756 0.0650202 -4.37352 0
M  V30 130 C 7.3346 0.941358 -5.17711 0
M  V30 131 O 6.3606 0.397352 -5.67811 0
M  V30 132 N 7.5626 2.2652 -5.3448 0
M  V30 133 H 10.3276 -0.945982 -2.84379 0
M  V30 134 H 7.8886 -0.647032 -1.48409 0
M  V30 135 H 9.8806 1.3986 -3.79765 0
M  V30 136 H 8.4506 1.5038 -2.74052 0
M  V30 137 H 7.6706 -0.706255 -3.87822 0
M  V30 138 H 8.9586 -0.447847 -5.06825 0
M  V30 139 H 8.3566 2.73128 -4.95396 0
M  V30 140 H 6.9136 2.80493 -5.88359 0
M  V30 141 N 10.3467 1.47872 -0.545128 0
M  V30 142 C 11.7627 1.5829 -0.204032 0
M  V30 143 C 11.9627 1.54529 1.29317 0
M  V30 144 O 11.0187 1.44232 2.07252 0
M  V30 145 C 12.3317 2.89304 -0.819987 0
M  V30 146 C 13.8797 3.02864 -0.790105 0
M  V30 147 C 14.3547 4.3656 -1.38491 0
M  V30 148 N 15.8457 4.43165 -1.34755 0
M  V30 149 C 16.5807 5.45153 -1.77753 0
M  V30 150 N 16.0767 6.54016 -2.2855 0
M  V30 151 N 17.8697 5.36125 -1.68897 0
M  V30 152 H 10.0207 1.4856 -1.51802 0
M  V30 153 H 12.2837 0.706305 -0.632327 0
M  V30 154 H 11.9897 2.97757 -1.87173 0
M  V30 155 H 11.8637 3.75957 -0.305915 0
M  V30 156 H 14.2507 2.94014 0.252913 0
M  V30 157 H 14.3317 2.17782 -1.34181 0
M  V30 158 H 13.9757 4.46164 -2.42693 0
M  V30 159 H 13.9057 5.20353 -0.808754 0
M  V30 160 H 16.3967 3.65083 -0.975855 0
M  V30 161 H 16.7097 7.27994 -2.59314 0
M  V30 162 H 15.0547 6.54938 -2.32553 0
M  V30 163 H 18.2457 4.49975 -1.28998 0
M  V30 164 H 18.4187 6.15472 -2.02726 0
M  V30 165 N 11.8248 0.280983 1.55075 0
M  V30 166 C 13.0528 -0.337293 2.04132 0
M  V30 167 C 13.4678 -1.4903 1.15912 0
M  V30 168 O 12.8248 -1.81606 0.180459 0
M  V30 169 C 12.8758 -0.812706 3.52246 0
M  V30 170 O 12.5968 0.294387 4.3711 0
M  V30 171 C 14.0978 -1.4982 4.17216 0
M  V30 172 H 11.3178 -0.0761638 0.666663 0
M  V30 173 H 13.8618 0.414787 2.00249 0
M  V30 174 H 12.0168 -1.51486 3.56554 0
M  V30 175 H 12.4308 -0.0721325 5.2445 0
M  V30 176 H 13.9048 -1.7822 5.22438 0
M  V30 177 H 14.3818 -2.43168 3.65741 0
M  V30 178 H 14.9878 -0.839742 4.16927 0
M  V30 179 N 13.3029 -1.57598 0.00835791 0
M  V30 180 C 14.7139 -1.7892 -0.53333 0
M  V30 181 C 15.0649 -0.916609 -1.73473 0
M  V30 182 O 14.1899 -0.121336 -2.1606 0
M  V30 183 C 14.7849 -3.24488 -0.974313 0
M  V30 184 C 13.3439 -3.46878 -1.46125 0
M  V30 185 C 12.4909 -2.74157 -0.416302 0
M  V30 186 H 15.4419 -1.56958 0.234495 0
M  V30 187 H 15.4629 -3.3306 -1.83988 0
M  V30 188 H 14.9749 -3.87972 -0.099718 0
M  V30 189 H 13.0759 -2.8862 -2.35646 0
M  V30 190 H 13.1889 -4.55572 -1.48295 0
M  V30 191 H 11.5529 -2.39022 -0.87981 0
M  V30 192 H 12.3359 -3.40345 0.44947 0
M  V30 193 N 14.781 0.264519 -1.55364 0
M  V30 194 C 16.029 0.993021 -1.76021 0
M  V30 195 C 16.35 1.86511 -0.569099 0
M  V30 196 O 15.62 1.91438 0.415735 0
M  V30 197 H 14.2 0.369639 -0.649135 0
M  V30 198 H 16.862 0.286707 -1.9278 0
M  V30 199 H 15.958 1.62502 -2.66457 0
M  V30 200 N 16.2591 1.48442 0.529413 0
M  V30 201 C 17.6751 1.34575 0.858004 0
M  V30 202 C 17.8751 0.3572 1.98309 0
M  V30 203 O 16.9311 -0.221379 2.51528 0
M  V30 204 C 18.2441 2.74617 1.22499 0
M  V30 205 C 19.7921 2.83109 1.33484 0
M  V30 206 C 20.2671 4.23854 1.73526 0
M  V30 207 N 21.7581 4.2653 1.80628 0
M  V30 208 C 22.4931 5.32372 2.12997 0
M  V30 209 N 21.9891 6.48491 2.43786 0
M  V30 210 N 23.7821 5.19766 2.14008 0
M  V30 211 H 15.9331 2.1133 -0.212925 0
M  V30 212 H 18.1961 0.947439 -0.0326199 0
M  V30 213 H 17.9021 3.4852 0.471905 0
M  V30 214 H 17.7761 3.08177 2.17501 0
M  V30 215 H 20.1631 2.09462 2.0787 0
M  V30 216 H 20.2441 2.53168 0.366027 0
M  V30 217 H 19.8881 4.98018 0.997013 0
M  V30 218 H 19.8181 4.5124 2.71459 0
M  V30 219 H 22.3091 3.42772 1.59108 0
M  V30 220 H 22.6221 7.24993 2.67592 0
M  V30 221 H 20.9671 6.51765 2.41304 0
M  V30 222 H 24.1581 4.28066 1.89412 0
M  V30 223 H 24.3311 6.02354 2.38902 0
M  V30 224 N 17.7372 -0.778329 1.37039 0
M  V30 225 C 18.9832 -1.53892 1.32079 0
M  V30 226 C 19.3162 -1.9396 -0.0965386 0
M  V30 227 O 18.5912 -1.63568 -1.05242 0
M  V30 228 C 18.8742 -2.80847 2.25382 0
M  V30 229 C 18.7272 -2.47076 3.75864 0
M  V30 230 C 20.0462 -3.82741 2.1725 0
M  V30 231 H 17.1652 -0.558303 0.48111 0
M  V30 232 H 19.8072 -0.893397 1.67685 0
M  V30 233 H 17.9572 -3.35931 1.95148 0
M  V30 234 H 19.6292 -1.97957 4.16666 0
M  V30 235 H 17.8722 -1.79863 3.94755 0
M  V30 236 H 18.5432 -3.37798 4.36574 0
M  V30 237 H 21.0192 -3.37133 2.43887 0
M  V30 238 H 19.8952 -4.69303 2.84686 0
M  V30 239 H 20.1562 -4.2652 1.16331 0
M  V30 240 N 19.2153 -1.21501 -1.00376 0
M  V30 241 C 20.4633 -1.03095 -1.73827 0
M  V30 242 C 20.7843 0.436341 -1.90055 0
M  V30 243 O 20.0543 1.31466 -1.45236 0
M  V30 244 H 18.6343 -0.378487 -0.644016 0
M  V30 245 H 21.2963 -1.52831 -1.20949 0
M  V30 246 H 20.3923 -1.49991 -2.73695 0
M  V30 247 N 20.6934 1.19889 -1.02296 0
M  V30 248 C 21.9184 1.9393 -0.735237 0
M  V30 249 C 22.3434 1.74639 0.698782 0
M  V30 250 O 21.7014 1.04481 1.48167 0
M  V30 251 C 21.7494 3.43916 -1.08417 0
M  V30 252 O 20.8534 4.11917 -0.199446 0
M  V30 253 H 20.1944 0.605645 -0.272196 0
M  V30 254 H 22.7244 1.52137 -1.36804 0
M  V30 255 H 22.7344 3.9456 -1.03856 0
M  V30 256 H 21.4094 3.5728 -2.12894 0
M  V30 257 H 19.9864 3.71666 -0.303136 0
M  V30 258 N 22.1715 0.800033 1.35784 0
M  V30 259 C 23.1035 0.163596 2.28615 0
M  V30 260 C 24.1165 -0.633317 1.49976 0
M  V30 261 O 25.3055 -0.466754 1.72289 0
M  V30 262 C 22.4055 -0.790958 3.29541 0
M  V30 263 C 21.5785 -0.0418255 4.3738 0
M  V30 264 C 20.6375 -0.91389 5.18203 0
M  V30 265 O 19.6635 -0.367234 5.68014 0
M  V30 266 N 20.8655 -2.23682 5.35674 0
M  V30 267 H 23.6305 0.96105 2.83873 0
M  V30 268 H 21.1915 0.654894 1.48063 0
M  V30 269 H 23.1835 -1.37844 3.80501 0
M  V30 270 H 21.7535 -1.48925 2.74846 0
M  V30 271 H 20.9735 0.726813 3.87442 0
M  V30 272 H 22.2615 0.474719 5.06581 0
M  V30 273 H 21.6595 -2.70497 4.96838 0
M  V30 274 H 20.2165 -2.77369 5.89839 0
M  V30 275 N 23.6496 -1.47581 0.552962 0
M  V30 276 C 24.8976 -2.02082 0.0272703 0
M  V30 277 C 25.2186 -1.4301 -1.32563 0
M  V30 278 O 24.4886 -0.603745 -1.86365 0
M  V30 279 H 23.0686 -0.746966 0.00709182 0
M  V30 280 H 25.7306 -1.81033 0.722008 0
M  V30 281 H 24.8266 -3.12034 -0.0639951 0
M  V30 282 N 25.1277 -0.289203 -1.54924 0
M  V30 283 C 26.3527 0.329299 -2.04769 0
M  V30 284 C 26.7777 1.4763 -1.16564 0
M  V30 285 O 26.1357 1.80527 -0.167186 0
M  V30 286 C 26.1837 0.774438 -3.52186 0
M  V30 287 O 25.2877 1.88038 -3.67036 0
M  V30 288 H 24.6287 0.0659259 -0.660719 0
M  V30 289 H 27.1587 -0.42761 -2.00082 0
M  V30 290 H 27.1687 1.06642 -3.93816 0
M  V30 291 H 25.8437 -0.0646707 -4.1585 0
M  V30 292 H 24.4207 1.58985 -3.3731 0
M  V30 293 N 26.6058 1.57591 -0.0167156 0
M  V30 294 C 27.8828 1.82547 0.702564 0
M  V30 295 C 28.2628 0.898018 1.91047 0
M  V30 296 O 27.6108 -0.0493456 2.28447 0
M  V30 297 C 27.8208 3.31459 1.09251 0
M  V30 298 C 29.1688 3.97622 1.48937 0
M  V30 299 O 30.1928 3.35881 1.18584 0
M  V30 300 O 29.0518 5.06415 2.05442 0
M  V30 301 H 26.1458 0.752268 0.343544 0
M  V30 302 H 28.6918 1.69644 -0.0434495 0
M  V30 303 H 27.4638 3.9061 0.23227 0
M  V30 304 H 27.0868 3.49422 1.89709 0
M  V30 305 N 28.0839 -0.256276 1.55502 0
M  V30 306 C 29.0139 -1.32102 1.92539 0
M  V30 307 C 29.9949 -1.50684 0.789194 0
M  V30 308 O 31.1799 -1.63449 1.04872 0
M  V30 309 C 28.3099 -2.67752 2.21192 0
M  V30 310 C 27.2639 -2.63878 3.36975 0
M  V30 311 C 26.5899 -4.03236 3.51147 0
M  V30 312 C 27.8899 -2.21682 4.72921 0
M  V30 313 H 29.5839 -1.01351 2.81724 0
M  V30 314 H 27.1299 -0.486105 1.35547 0
M  V30 315 H 29.0829 -3.42365 2.45691 0
M  V30 316 H 27.8069 -3.0012 1.28824 0
M  V30 317 H 26.4659 -1.91722 3.12471 0
M  V30 318 H 26.1139 -4.32854 2.56216 0
M  V30 319 H 25.8139 -4.01535 4.29003 0
M  V30 320 H 27.3379 -4.79563 3.77957 0
M  V30 321 H 28.7519 -2.86023 4.96854 0
M  V30 322 H 27.1489 -2.3111 5.53812 0
M  V30 323 H 28.2189 -1.16833 4.70615 0
M  V30 324 N 29.562 -1.4872 -0.521534 0
M  V30 325 C 30.839 -1.4766 -1.2828 0
M  V30 326 C 31.219 -0.19292 -2.10217 0
M  V30 327 O 30.567 0.825193 -2.13079 0
M  V30 328 C 30.777 -2.74358 -2.15705 0
M  V30 329 C 32.125 -3.23028 -2.75569 0
M  V30 330 O 33.149 -2.75333 -2.25987 0
M  V30 331 O 32.008 -4.0604 -3.65778 0
M  V30 332 H 29.102 -0.590085 -0.579421 0
M  V30 333 H 31.648 -1.60963 -0.537492 0
M  V30 334 H 30.42 -3.59292 -1.54999 0
M  V30 335 H 30.043 -2.63816 -2.97467 0
M  V30 336 N 31.0401 0.771051 -1.3745 0
M  V30 337 C 32.2651 1.56529 -1.36065 0
M  V30 338 C 32.6901 1.88029 0.0515859 0
M  V30 339 O 32.0481 1.49282 1.02882 0
M  V30 340 C 32.0961 2.85187 -2.20683 0
M  V30 341 O 31.2001 3.79593 -1.61193 0
M  V30 342 H 30.5411 0.47411 -0.464883 0
M  V30 343 H 33.0711 0.954269 -1.80983 0
M  V30 344 H 33.0811 3.34283 -2.33921 0
M  V30 345 H 31.7561 2.61588 -3.23334 0
M  V30 346 H 30.3331 3.38239 -1.56999 0
M  V30 347 N 32.5182 1.22032 0.997298 0
M  V30 348 C 33.7432 1.06921 1.77715 0
M  V30 349 C 34.1682 -0.376226 1.84299 0
M  V30 350 O 33.5262 -1.27165 1.29223 0
M  V30 351 C 33.5742 1.67996 3.19076 0
M  V30 352 O 32.6782 0.930653 4.01762 0
M  V30 353 H 32.0192 0.375814 0.547412 0
M  V30 354 H 34.5492 1.61737 1.25309 0
M  V30 355 H 34.5592 1.72538 3.69723 0
M  V30 356 H 33.2342 2.73182 3.13599 0
M  V30 357 H 31.8112 0.960917 3.60307 0
M  V30 358 N 33.9963 -1.19345 1.0293 0
M  V30 359 C 34.9593 -2.20793 0.615069 0
M  V30 360 C 35.9593 -1.57553 -0.321533 0
M  V30 361 O 37.1493 -1.73862 -0.108483 0
M  V30 362 C 34.2813 -3.40754 -0.0999222 0
M  V30 363 H 35.4743 -2.58955 1.51269 0
M  V30 364 H 33.0273 -1.3303 0.820534 0
M  V30 365 H 33.7623 -3.0811 -1.01187 0
M  V30 366 H 33.5473 -3.87889 0.57309 0
M  V30 367 H 35.0373 -4.15898 -0.376645 0
M  V30 368 N 35.4744 -0.807222 -1.35358 0
M  V30 369 C 36.7024 -0.400377 -2.02989 0
M  V30 370 C 37.1174 0.988859 -1.60832 0
M  V30 371 O 36.4744 1.63729 -0.806175 0
M  V30 372 C 36.5254 -0.474867 -3.58368 0
M  V30 373 O 36.2464 -1.80933 -3.98992 0
M  V30 374 C 37.7474 -0.0609112 -4.43258 0
M  V30 375 H 34.9674 -0.162587 -0.651004 0
M  V30 376 H 37.5114 -1.09102 -1.72965 0
M  V30 377 H 35.6664 0.167534 -3.87038 0
M  V30 378 H 36.0804 -1.77256 -4.9364 0
M  V30 379 H 37.5544 -0.164145 -5.51756 0
M  V30 380 H 38.0314 0.993831 -4.27808 0
M  V30 381 H 38.6374 -0.676492 -4.19885 0
M  V30 382 N 36.9525 1.47285 -0.560781 0
M  V30 383 C 38.3635 1.86258 -0.128343 0
M  V30 384 C 38.7145 1.46699 1.30284 0
M  V30 385 O 37.8395 0.871698 1.98067 0
M  V30 386 C 38.4345 3.38044 -0.22614 0
M  V30 387 C 36.9935 3.76096 0.151283 0
M  V30 388 C 36.1405 2.71335 -0.572084 0
M  V30 389 H 39.0915 1.38752 -0.770297 0
M  V30 390 H 39.1125 3.76441 0.554322 0
M  V30 391 H 38.6245 3.66806 -1.26788 0
M  V30 392 H 36.7255 3.52951 1.19399 0
M  V30 393 H 36.8385 4.78641 -0.209765 0
M  V30 394 H 35.2025 2.54696 -0.0147653 0
M  V30 395 H 35.9855 3.02938 -1.61504 0
M  V30 396 N 38.4306 0.297415 1.54768 0
M  V30 397 C 39.6796 -0.313669 1.99246 0
M  V30 398 C 39.9926 -1.55281 1.18942 0
M  V30 399 O 41.1986 -2.23825 1.5367 0
M  V30 400 C 39.6546 -0.609407 3.54703 0
M  V30 401 C 39.2626 0.611192 4.43811 0
M  V30 402 C 41.0066 -1.18188 4.07715 0
M  V30 403 C 38.9136 0.288805 5.90694 0
M  V30 404 H 37.8436 -0.120979 0.744231 0
M  V30 405 H 40.4946 0.40556 1.78962 0
M  V30 406 H 38.8766 -1.38813 3.70873 0
M  V30 407 H 40.0506 1.3875 4.39414 0
M  V30 408 H 38.3656 1.10205 4.01552 0
M  V30 409 H 40.9626 -1.43727 5.15021 0
M  V30 410 H 41.3056 -2.12299 3.58099 0
M  V30 411 H 41.8386 -0.464944 3.95074 0
M  V30 412 H 38.5776 1.19838 6.44453 0
M  V30 413 H 38.0976 -0.450305 5.98107 0
M  V30 414 H 39.7766 -0.110933 6.46905 0
M  V30 415 N 39.9087 -1.5758 0.0250728 0
M  V30 416 C 40.8567 -2.11125 -0.97617 0
M  V30 417 C 41.8507 -1.03689 -1.33959 0
M  V30 418 O 43.0567 -1.22128 -1.3223 0
M  V30 419 H 39.4317 -0.674468 -0.332561 0
M  V30 420 H 41.4027 -2.94194 -0.499223 0
M  V30 421 C 40.1517 -2.65017 -2.2508 0
M  V30 422 H 39.4747 -3.47333 -1.9799 0
M  V30 423 H 40.9147 -3.06133 -2.93357 0
M  V30 424 C 39.3737 -1.57574 -2.97779 0
M  V30 425 O 39.9037 -0.973203 -3.89733 0
M  V30 426 N 38.1097 -1.29716 -2.60043 0
M  V30 427 H 37.6567 -1.789 -1.85345 0
M  V30 428 H 37.6147 -0.58051 -3.08994 0
M  V30 429 N 41.3868 0.248026 -1.55636 0
M  V30 430 C 42.6148 0.993808 -1.81469 0
M  V30 431 C 43.0298 1.78991 -0.60064 0
M  V30 432 O 42.3868 1.77345 0.430682 0
M  V30 433 C 42.4378 1.93258 -3.05506 0
M  V30 434 O 42.1588 1.16869 -4.22224 0
M  V30 435 C 43.6598 2.79444 -3.4413 0
M  V30 436 H 40.8798 0.292486 -0.603898 0
M  V30 437 H 43.4238 0.271253 -2.02693 0
M  V30 438 H 41.5788 2.60943 -2.86335 0
M  V30 439 H 41.9928 1.80359 -4.92515 0
M  V30 440 H 43.4668 3.41066 -4.34026 0
M  V30 441 H 43.9438 3.50499 -2.64665 0
M  V30 442 H 44.5498 2.17214 -3.65648 0
M  V30 443 N 42.8649 1.48995 0.513639 0
M  V30 444 C 44.1109 1.58076 1.27042 0
M  V30 445 C 44.4439 0.261026 1.92438 0
M  V30 446 O 43.7189 -0.734393 1.80103 0
M  V30 447 C 44.0019 2.73091 2.34719 0
M  V30 448 C 43.8549 4.14821 1.73907 0
M  V30 449 C 45.1739 2.83796 3.36375 0
M  V30 450 H 42.2929 0.575391 0.460536 0
M  V30 451 H 44.9349 1.81232 0.570516 0
M  V30 452 H 43.0849 2.53479 2.94416 0
M  V30 453 H 44.7569 4.45917 1.18135 0
M  V30 454 H 42.9999 4.21058 1.0437 0
M  V30 455 H 43.6709 4.91147 2.51949 0
M  V30 456 H 46.1469 3.01611 2.86653 0
M  V30 457 H 45.0229 3.65971 4.09093 0
M  V30 458 H 45.2839 1.92624 3.9793 0
M  V30 459 N 44.343 -0.763751 1.37857 0
M  V30 460 C 45.62 -1.51244 1.24035 0
M  V30 461 C 46 -2.10472 -0.162649 0
M  V30 462 O 45.348 -1.96206 -1.17112 0
M  V30 463 C 45.558 -2.58694 2.34261 0
M  V30 464 C 46.906 -3.25878 2.72193 0
M  V30 465 O 47.93 -2.68993 2.33497 0
M  V30 466 O 46.789 -4.2874 3.38887 0
M  V30 467 H 43.883 -0.670243 0.484462 0
M  V30 468 H 46.429 -0.800031 1.49658 0
M  V30 469 H 45.201 -2.13105 3.2818 0
M  V30 470 H 44.824 -3.37527 2.10146 0
M  V30 471 N 45.8211 -1.22559 -0.990812 0
M  V30 472 C 47.0671 -1.05297 -1.73322 0
M  V30 473 C 47.4001 0.410655 -1.89808 0
M  V30 474 O 46.6751 1.30439 -1.44277 0
M  V30 475 C 46.9581 -1.76713 -3.13759 0
M  V30 476 C 46.8111 -3.30684 -3.04907 0
M  V30 477 C 48.1301 -1.52121 -4.12974 0
M  V30 478 H 45.2491 -0.38392 -0.629106 0
M  V30 479 H 47.8911 -1.50926 -1.15418 0
M  V30 480 H 46.0411 -1.37924 -3.63193 0
M  V30 481 H 47.7131 -3.7893 -2.63077 0
M  V30 482 H 45.9561 -3.60253 -2.41661 0
M  V30 483 H 46.6271 -3.75833 -4.04294 0
M  V30 484 H 49.1031 -1.85819 -3.72304 0
M  V30 485 H 47.9791 -2.04582 -5.0935 0
M  V30 486 H 48.2401 -0.454257 -4.3976 0
M  V30 487 N 47.2992 1.18797 -1.03562 0
M  V30 488 C 48.2472 2.24297 -0.615905 0
M  V30 489 C 49.2412 1.65643 0.354808 0
M  V30 490 O 50.4472 1.78618 0.22265 0
M  V30 491 H 46.8222 0.729909 -0.180934 0
M  V30 492 H 48.7932 2.5701 -1.5162 0
M  V30 493 C 47.5422 3.47698 0.0104735 0
M  V30 494 H 46.8652 3.93125 -0.727509 0
M  V30 495 H 48.3052 4.23159 0.266995 0
M  V30 496 C 46.7642 3.12489 1.25905 0
M  V30 497 O 47.2942 3.25761 2.35038 0
M  V30 498 N 45.5002 2.6686 1.15039 0
M  V30 499 H 45.0472 2.56261 0.262328 0
M  V30 500 H 45.0052 2.43674 1.98672 0
M  V30 501 N 48.7773 0.814389 1.34928 0
M  V30 502 C 49.7253 0.218424 2.31572 0
M  V30 503 C 50.7193 -0.636128 1.57002 0
M  V30 504 O 51.9253 -0.52842 1.72069 0
M  V30 505 H 48.3003 0.0518799 0.750208 0
M  V30 506 H 50.2713 1.04852 2.79372 0
M  V30 507 C 49.0203 -0.61207 3.4227 0
M  V30 508 H 48.3433 0.0361578 3.99784 0
M  V30 509 H 49.7833 -0.995317 4.12152 0
M  V30 510 C 48.2423 -1.78087 2.85984 0
M  V30 511 O 48.7723 -2.8787 2.80168 0
M  V30 512 N 46.9783 -1.59488 2.42924 0
M  V30 513 H 46.5253 -0.701874 2.47854 0
M  V30 514 H 46.4833 -2.37846 2.05613 0
M  V30 515 N 50.2554 -1.46986 0.568584 0
M  V30 516 C 51.1654 -2.33942 -0.17555 0
M  V30 517 C 52.1814 -1.48891 -0.90041 0
M  V30 518 O 53.3574 -1.81794 -0.86676 0
M  V30 519 C 50.4224 -3.25811 -1.18524 0
M  V30 520 C 49.4834 -4.26757 -0.466582 0
M  V30 521 C 48.7164 -5.14236 -1.42817 0
M  V30 522 O 48.9394 -5.04379 -2.66379 0
M  V30 523 O 47.8734 -5.94412 -0.946453 0
M  V30 524 H 51.6994 -2.98896 0.538036 0
M  V30 525 H 49.2844 -1.4573 0.329097 0
M  V30 526 H 51.1664 -3.82527 -1.76779 0
M  V30 527 H 49.8414 -2.63471 -1.88055 0
M  V30 528 H 48.7484 -3.73769 0.157451 0
M  V30 529 H 50.0814 -4.91843 0.187485 0
M  V30 530 N 51.7335 -0.305618 -1.54608 0
M  V30 531 C 52.9585 0.307562 -2.05107 0
M  V30 532 C 53.3835 1.46385 -1.18123 0
M  V30 533 O 52.7415 1.8034 -0.186324 0
M  V30 534 C 52.7895 0.73704 -3.52987 0
M  V30 535 O 51.8935 1.84134 -3.6901 0
M  V30 536 H 51.2345 0.0589143 -0.661381 0
M  V30 537 H 53.7645 -0.448807 -1.99617 0
M  V30 538 H 53.7745 1.02459 -3.94925 0
M  V30 539 H 52.4495 -0.108773 -4.15758 0
M  V30 540 H 51.0265 1.55398 -3.38978 0
M  V30 541 N 53.2116 1.57565 -0.0334293 0
M  V30 542 C 54.4366 1.96689 0.657895 0
M  V30 543 C 54.8616 0.910057 1.64619 0
M  V30 544 O 54.2196 -0.128598 1.80843 0
M  V30 545 C 54.2676 3.34905 1.33683 0
M  V30 546 O 53.3716 3.31574 2.45219 0
M  V30 547 H 52.7126 0.641205 0.172489 0
M  V30 548 H 55.2426 2.04372 -0.0965621 0
M  V30 549 H 55.2526 3.71234 1.69262 0
M  V30 550 H 53.9276 4.11366 0.612411 0
M  V30 551 H 52.5046 3.06968 2.11719 0
M  V30 552 N 54.6897 -0.239769 1.55765 0
M  V30 553 C 55.9147 -0.988373 1.82335 0
M  V30 554 C 56.3397 -1.77886 0.611421 0
M  V30 555 O 55.6977 -1.75889 -0.439639 0
M  V30 556 C 55.7457 -1.89627 3.06715 0
M  V30 557 O 54.8497 -2.98904 2.84131 0
M  V30 558 H 54.1907 -0.280858 0.601677 0
M  V30 559 H 56.7207 -0.258597 2.02959 0
M  V30 560 H 56.7307 -2.30957 3.36338 0
M  V30 561 H 55.4057 -1.31511 3.9456 0
M  V30 562 H 53.9827 -2.61651 2.65694 0
M  V30 563 N 56.1678 -1.49265 -0.50573 0
M  V30 564 C 57.0778 -1.68312 -1.63427 0
M  V30 565 C 58.0938 -0.565682 -1.64548 0
M  V30 566 O 59.2698 -0.839801 -1.83055 0
M  V30 567 C 56.3348 -1.74107 -2.99813 0
M  V30 568 C 55.3958 -2.97653 -3.09356 0
M  V30 569 C 54.6288 -3.03163 -4.39236 0
M  V30 570 O 54.8518 -2.16396 -5.27758 0
M  V30 571 O 53.7858 -3.9558 -4.53652 0
M  V30 572 H 57.6118 -2.63907 -1.50289 0
M  V30 573 H 55.1968 -1.32951 -0.681502 0
M  V30 574 H 57.0788 -1.803 -3.80881 0
M  V30 575 H 55.7538 -0.816901 -3.13223 0
M  V30 576 H 54.6608 -2.96981 -2.27493 0
M  V30 577 H 55.9938 -3.89535 -3.00871 0
M  V30 578 N 57.6459 0.756429 -1.3826 0
M  V30 579 C 58.8939 1.51248 -1.34047 0
M  V30 580 C 59.2149 1.94875 0.0698372 0
M  V30 581 O 58.4849 1.67436 1.01696 0
M  V30 582 H 57.0649 0.561018 -0.493222 0
M  V30 583 H 59.7269 0.899347 -1.7291 0
M  V30 584 H 58.8229 2.40472 -1.98947 0
M  V30 585 N 59.124 1.23083 0.984299 0
M  V30 586 C 60.371 1.06057 1.72505 0
M  V30 587 C 60.699 -0.403105 1.90277 0
M  V30 588 O 59.954 -1.3149 1.44944 0
M  V30 589 C 60.253 1.72673 3.1292 0
M  V30 590 C 59.919 3.22586 3.15038 0
M  V30 591 C 58.581 3.63489 3.15324 0
M  V30 592 C 60.933 4.185 3.10657 0
M  V30 593 C 58.261 4.98772 3.08939 0
M  V30 594 C 60.613 5.53769 3.05814 0
M  V30 595 C 59.277 5.94041 3.04419 0
M  V30 596 H 58.547 0.388091 0.631242 0
M  V30 597 H 61.194 1.52963 1.15215 0
M  V30 598 H 59.499 1.18116 3.73572 0
M  V30 599 H 61.196 1.56982 3.68996 0
M  V30 600 H 57.786 2.90022 3.15571 0
M  V30 601 H 61.97 3.87911 3.09579 0
M  V30 602 H 57.226 5.29193 3.0621 0
M  V30 603 H 61.4 6.27808 3.0138 0
M  V30 604 H 59.027 6.98833 2.99227 0
M  V30 605 N 60.6021 -1.18246 1.0419 0
M  V30 606 C 61.8511 -1.87588 0.741194 0
M  V30 607 C 62.1641 -1.81303 -0.734066 0
M  V30 608 O 63.3701 -2.46019 -1.14834 0
M  V30 609 C 61.8261 -3.36538 1.27555 0
M  V30 610 C 61.4341 -3.51349 2.77953 0
M  V30 611 C 63.1781 -4.11273 1.05143 0
M  V30 612 C 61.0851 -4.94265 3.2474 0
M  V30 613 H 60.0151 -0.702622 0.273565 0
M  V30 614 H 62.6661 -1.33601 1.25789 0
M  V30 615 H 61.0481 -3.9 0.686703 0
M  V30 616 H 62.2221 -3.08153 3.42605 0
M  V30 617 H 60.5371 -2.90022 2.98791 0
M  V30 618 H 63.1341 -5.16689 1.37611 0
M  V30 619 H 63.4771 -4.16298 -0.0112774 0
M  V30 620 H 64.0101 -3.63987 1.60495 0
M  V30 621 H 60.7491 -4.94408 4.30396 0
M  V30 622 H 60.2691 -5.38172 2.64823 0
M  V30 623 H 61.9481 -5.62987 3.18834 0
M  V30 624 N 62.0802 -0.821533 -1.34494 0
M  V30 625 C 63.3202 -0.414785 -2.00147 0
M  V30 626 C 63.6842 1.00299 -1.6372 0
M  V30 627 O 64.8852 1.51255 -2.22206 0
M  V30 628 C 63.1562 -0.609403 -3.52166 0
M  V30 629 S 64.7152 -0.295297 -4.37805 0
M  V30 630 H 61.5332 -0.15679 -0.693497 0
M  V30 631 H 64.1352 -1.06705 -1.63812 0
M  V30 632 H 62.8392 -1.64096 -3.76166 0
M  V30 633 H 62.3702 0.0576414 -3.93358 0
M  V30 634 H 64.3852 0.891531 -4.88125 0
M  V30 635 N 63.5583 1.46682 -0.576371 0
M  V30 636 C 64.9693 1.86112 -0.148091 0
M  V30 637 C 65.3203 1.48073 1.2872 0
M  V30 638 O 64.4453 0.892656 1.97131 0
M  V30 639 C 65.0403 3.37786 -0.261982 0
M  V30 640 C 63.5993 3.76235 0.111384 0
M  V30 641 C 62.7463 2.70713 -0.60083 0
M  V30 642 H 65.6973 1.37927 -0.78497 0
M  V30 643 H 65.7183 3.77007 0.514364 0
M  V30 644 H 65.2303 3.6544 -1.30671 0
M  V30 645 H 63.3313 3.54198 1.15649 0
M  V30 646 H 63.4443 4.78391 -0.26052 0
M  V30 647 H 61.8083 2.54666 -0.0417783 0
M  V30 648 H 62.5913 3.01208 -1.64708 0
M  V30 649 N 65.0364 0.313813 1.54444 0
M  V30 650 C 65.9684 -0.590425 2.21465 0
M  V30 651 C 66.9814 -1.08753 1.21147 0
M  V30 652 O 68.1704 -1.00278 1.4767 0
M  V30 653 C 65.2704 -1.82179 2.85769 0
M  V30 654 C 64.4434 -1.46502 4.12136 0
M  V30 655 C 63.5024 -2.55288 4.60124 0
M  V30 656 O 62.5284 -2.19842 5.25032 0
M  V30 657 N 63.7304 -3.86053 4.33525 0
M  V30 658 H 66.4954 -0.0166033 2.99695 0
M  V30 659 H 64.0564 0.136578 1.61323 0
M  V30 660 H 66.0484 -2.54328 3.14801 0
M  V30 661 H 64.6184 -2.30369 2.11303 0
M  V30 662 H 63.8384 -0.575595 3.89975 0
M  V30 663 H 65.1264 -1.20221 4.94393 0
M  V30 664 H 64.5244 -4.17654 3.81552 0
M  V30 665 H 63.0814 -4.54461 4.67235 0
M  V30 666 N 66.5145 -1.57545 0.0417849 0
M  V30 667 C 67.7545 -1.94185 -0.63809 0
M  V30 668 C 68.1185 -0.919339 -1.68559 0
M  V30 669 O 69.3195 -1.17236 -2.41886 0
M  V30 670 C 67.5905 -3.35672 -1.22714 0
M  V30 671 S 69.1495 -3.94256 -1.92633 0
M  V30 672 H 65.9675 -0.679353 -0.209764 0
M  V30 673 H 68.5695 -1.95199 0.108479 0
M  V30 674 H 67.2735 -4.07898 -0.452503 0
M  V30 675 H 66.8045 -3.38132 -2.01073 0
M  V30 676 H 68.8195 -3.7872 -3.20602 0
M  V30 677 N 67.9926 0.231505 -1.5589 0
M  V30 678 C 68.9256 1.31369 -1.86595 0
M  V30 679 C 69.9036 1.45671 -0.722397 0
M  V30 680 O 71.0876 1.61642 -0.969743 0
M  V30 681 C 68.2146 2.68529 -2.06421 0
M  V30 682 C 67.2606 2.71295 -3.29092 0
M  V30 683 S 68.0936 2.26358 -4.85306 0
M  V30 684 C 69.2496 3.65414 -5.08157 0
M  V30 685 H 69.4826 1.05128 -2.78092 0
M  V30 686 H 67.0156 0.433259 -1.48197 0
M  V30 687 H 68.9736 3.47499 -2.18528 0
M  V30 688 H 67.6346 2.91999 -1.15738 0
M  V30 689 H 66.8276 3.72063 -3.39978 0
M  V30 690 H 66.4296 2.0038 -3.15791 0
M  V30 691 H 68.7216 4.6103 -4.96445 0
M  V30 692 H 69.6646 3.5945 -6.10083 0
M  V30 693 H 70.0726 3.5864 -4.35933 0
M  V30 694 N 69.4707 1.49531 0.497807 0
M  V30 695 C 70.4177 1.66436 1.59899 0
M  V30 696 C 71.3877 0.505793 1.58212 0
M  V30 697 O 72.5727 0.733202 1.7615 0
M  V30 698 C 69.7127 1.7399 2.98029 0
M  V30 699 C 68.8257 3.01172 3.09708 0
M  V30 700 C 67.9607 2.99686 4.38591 0
M  V30 701 C 66.9997 4.21434 4.43914 0
M  V30 702 N 66.1367 4.1784 5.64229 0
M  V30 703 H 70.9767 2.60459 1.44793 0
M  V30 704 H 68.5137 1.29137 0.704423 0
M  V30 705 H 70.4717 1.76352 3.78095 0
M  V30 706 H 69.1017 0.834301 3.11832 0
M  V30 707 H 68.1537 3.08408 2.22685 0
M  V30 708 H 69.4657 3.91165 3.09502 0
M  V30 709 H 68.6197 3.00628 5.2698 0
M  V30 710 H 67.3587 2.07477 4.41367 0
M  V30 711 H 66.3637 4.20733 3.53926 0
M  V30 712 H 67.5887 5.14839 4.42851 0
M  V30 713 H 65.5347 3.28469 5.67841 0
M  V30 714 H 65.4517 5.01571 5.65652 0
M  V30 715 H 66.7197 4.22889 6.54817 0
M  V30 716 N 70.9488 -0.749086 1.3866 0
M  V30 717 C 72.1738 -1.54344 1.38538 0
M  V30 718 C 72.5988 -1.88088 -0.0216655 0
M  V30 719 O 71.9568 -1.50899 -1.00494 0
M  V30 720 C 72.0048 -2.8164 2.25192 0
M  V30 721 O 71.1088 -3.7698 1.67212 0
M  V30 722 H 70.4498 -0.466654 0.472367 0
M  V30 723 H 72.9798 -0.925355 1.82478 0
M  V30 724 H 72.9898 -3.30519 2.3921 0
M  V30 725 H 71.6648 -2.56411 3.27454 0
M  V30 726 H 70.2418 -3.35699 1.6236 0
M  V30 727 N 72.4269 -1.23603 -0.977757 0
M  V30 728 C 73.3569 -1.04401 -2.0886 0
M  V30 729 C 74.3379 0.0399052 -1.70053 0
M  V30 730 O 75.5229 -0.125246 -1.93796 0
M  V30 731 C 72.6529 -0.637269 -3.41403 0
M  V30 732 C 71.6069 -1.66883 -3.94124 0
M  V30 733 C 70.9329 -1.11745 -5.22893 0
M  V30 734 C 72.2329 -3.06247 -4.23096 0
M  V30 735 H 73.9269 -1.97316 -2.25182 0
M  V30 736 H 71.4729 -0.950096 -1.08209 0
M  V30 737 H 73.4259 -0.48998 -4.18542 0
M  V30 738 H 72.1499 0.327557 -3.24953 0
M  V30 739 H 70.8089 -1.80416 -3.19133 0
M  V30 740 H 70.4569 -0.143527 -5.02795 0
M  V30 741 H 70.1569 -1.80672 -5.59134 0
M  V30 742 H 71.6809 -0.982067 -6.02651 0
M  V30 743 H 73.0949 -2.96001 -4.90975 0
M  V30 744 H 71.4919 -3.72436 -4.70544 0
M  V30 745 H 72.5619 -3.55041 -3.30263 0
M  V30 746 N 73.905 1.17692 -1.04816 0
M  V30 747 C 75.153 1.87488 -0.754497 0
M  V30 748 C 75.474 1.81205 0.720407 0
M  V30 749 O 74.744 1.23544 1.52032 0
M  V30 750 H 73.324 0.694101 -0.276102 0
M  V30 751 H 75.986 1.42793 -1.32651 0
M  V30 752 H 75.082 2.93328 -1.06606 0
M  V30 753 N 75.3831 0.828654 1.34056 0
M  V30 754 C 76.6081 0.431637 2.02859 0
M  V30 755 C 77.0331 -0.956339 1.61975 0
M  V30 756 O 76.3911 -1.62338 0.807228 0
M  V30 757 C 76.4391 0.548323 3.56407 0
M  V30 758 O 75.5431 -0.429556 4.10157 0
M  V30 759 H 74.8841 0.176886 0.640006 0
M  V30 760 H 77.4141 1.12066 1.71179 0
M  V30 761 H 77.4241 0.426196 4.05768 0
M  V30 762 H 76.0991 1.5606 3.8551 0
M  V30 763 H 74.6761 -0.265836 3.71951 0
M  V30 764 N 76.8612 -1.46375 0.584142 0
M  V30 765 C 77.8242 -2.28784 -0.138108 0
M  V30 766 C 78.8242 -1.38471 -0.817462 0
M  V30 767 O 80.0142 -1.60833 -0.669199 0
M  V30 768 C 77.1462 -3.18892 -1.20503 0
M  V30 769 H 78.3392 -2.94117 0.586127 0
M  V30 770 H 75.8922 -1.52509 0.342171 0
M  V30 771 H 76.6272 -2.58309 -1.96079 0
M  V30 772 H 76.4122 -3.85388 -0.722384 0
M  V30 773 H 77.9022 -3.80914 -1.71155 0
M  V30 774 N 78.3393 -0.321999 -1.54275 0
M  V30 775 C 79.6163 0.335232 -1.92706 0
M  V30 776 C 79.9963 1.70006 -1.25145 0
M  V30 777 O 79.3443 2.25067 -0.394596 0
M  V30 778 C 79.5543 0.429008 -3.46353 0
M  V30 779 C 80.9023 0.690029 -4.18956 0
M  V30 780 O 81.9263 0.511992 -3.52501 0
M  V30 781 O 80.7853 1.03338 -5.36641 0
M  V30 782 H 77.8793 0.191143 -0.804608 0
M  V30 783 H 80.4253 -0.3716 -1.65581 0
M  V30 784 H 79.1973 -0.529611 -3.87699 0
M  V30 785 H 78.8203 1.18348 -3.79578 0
M  V30 786 N 79.8174 1.5752 -0.0501392 0
M  V30 787 C 80.7274 2.14952 0.939827 0
M  V30 788 C 81.7434 1.10706 1.34239 0
M  V30 789 O 82.9194 1.42869 1.41952 0
M  V30 790 C 79.9844 2.68232 2.19665 0
M  V30 791 C 79.0454 3.87272 1.85253 0
M  V30 792 C 78.2784 4.38002 3.04943 0
M  V30 793 O 78.5014 3.87811 4.18281 0
M  V30 794 O 77.4354 5.29602 2.86017 0
M  V30 795 H 81.2614 2.9986 0.481392 0
M  V30 796 H 78.8464 1.4841 0.171699 0
M  V30 797 H 80.7284 3.02475 2.93406 0
M  V30 798 H 79.4034 1.86395 2.64648 0
M  V30 799 H 78.3104 3.5792 1.0883 0
M  V30 800 H 79.6434 4.70336 1.4507 0
M  V30 801 N 81.2955 -0.223234 1.56011 0
M  V30 802 C 82.2255 -1.27988 1.95298 0
M  V30 803 C 83.2065 -1.48976 0.820979 0
M  V30 804 O 84.3915 -1.61188 1.08315 0
M  V30 805 C 81.5215 -2.63 2.26822 0
M  V30 806 C 80.4755 -2.56671 3.42497 0
M  V30 807 C 79.8015 -3.95697 3.59622 0
M  V30 808 C 81.1015 -2.11601 4.77517 0
M  V30 809 H 82.7955 -0.953525 2.8381 0
M  V30 810 H 80.3415 -0.457244 1.36548 0
M  V30 811 H 82.2945 -3.37077 2.52898 0
M  V30 812 H 81.0185 -2.9732 1.35161 0
M  V30 813 H 79.6775 -1.85051 3.16467 0
M  V30 814 H 79.3255 -4.27322 2.6534 0
M  V30 815 H 79.0255 -3.92345 4.37424 0
M  V30 816 H 80.5495 -4.71438 3.88044 0
M  V30 817 H 81.9635 -2.7542 5.02809 0
M  V30 818 H 80.3605 -2.19311 5.5859 0
M  V30 819 H 81.4305 -1.06824 4.72987 0
M  V30 820 N 82.7736 -1.49793 -0.48987 0
M  V30 821 C 84.0206 -1.59841 -1.24327 0
M  V30 822 C 84.3486 -0.290135 -1.92324 0
M  V30 823 O 83.6036 0.722749 -1.81865 0
M  V30 824 C 83.9026 -2.71488 -2.32441 0
M  V30 825 C 83.5686 -4.12614 -1.81826 0
M  V30 826 C 82.2306 -4.51017 -1.67742 0
M  V30 827 C 84.5826 -5.00892 -1.4407 0
M  V30 828 C 81.9106 -5.75459 -1.14297 0
M  V30 829 C 84.2626 -6.25863 -0.920742 0
M  V30 830 C 82.9266 -6.63086 -0.766383 0
M  V30 831 H 82.1966 -0.584899 -0.454944 0
M  V30 832 H 84.8436 -1.83663 -0.542215 0
M  V30 833 H 83.1486 -2.4168 -3.0838 0
M  V30 834 H 84.8456 -2.76469 -2.90458 0
M  V30 835 H 81.4356 -3.82307 -1.93751 0
M  V30 836 H 85.6196 -4.7187 -1.53794 0
M  V30 837 H 80.8756 -6.02989 -1.01068 0
M  V30 838 H 85.0496 -6.9364 -0.619448 0
M  V30 839 H 82.6766 -7.59393 -0.350083 0
M  V30 840 N 84.2517 0.741722 -1.39055 0
M  V30 841 C 85.1987 1.85566 -1.37237 0
M  V30 842 C 86.1687 1.64457 -0.233072 0
M  V30 843 O 87.3537 1.85957 -0.427147 0
M  V30 844 C 84.4937 3.23004 -1.215 0
M  V30 845 C 83.6067 3.55864 -2.44918 0
M  V30 846 C 82.7417 4.82669 -2.21821 0
M  V30 847 C 81.7807 5.08351 -3.40948 0
M  V30 848 N 80.9177 6.26356 -3.17211 0
M  V30 849 H 85.7577 1.86455 -2.32462 0
M  V30 850 H 83.2947 0.911176 -1.15482 0
M  V30 851 H 85.2527 4.02331 -1.10389 0
M  V30 852 H 83.8827 3.21411 -0.29908 0
M  V30 853 H 82.9347 2.7129 -2.66657 0
M  V30 854 H 84.2467 3.70765 -3.33668 0
M  V30 855 H 83.4007 5.69962 -2.07914 0
M  V30 856 H 82.1397 4.69929 -1.30454 0
M  V30 857 H 81.1447 4.19522 -3.55361 0
M  V30 858 H 82.3697 5.22981 -4.33207 0
M  V30 859 H 80.3157 6.14917 -2.28502 0
M  V30 860 H 80.2327 6.41813 -3.99515 0
M  V30 861 H 81.5007 7.16506 -3.06984 0
M  V30 862 N 85.7298 1.2412 0.971189 0
M  V30 863 C 86.6798 0.997551 2.05019 0
M  V30 864 C 87.6638 -0.0597747 1.60789 0
M  V30 865 O 88.8558 0.153516 1.76333 0
M  V30 866 C 85.9848 0.600557 3.38006 0
M  V30 867 C 85.0708 1.69377 3.88809 0
M  V30 868 N 85.4618 2.92586 4.12586 0
M  V30 869 C 83.7598 1.57048 4.17435 0
M  V30 870 C 84.4608 3.63431 4.54195 0
M  V30 871 N 83.4368 2.90979 4.59165 0
M  V30 872 H 87.2388 1.93316 2.21374 0
M  V30 873 H 84.7528 1.14194 1.1547 0
M  V30 874 H 86.7498 0.40725 4.14906 0
M  V30 875 H 85.4098 -0.327903 3.2304 0
M  V30 876 H 86.4208 3.288 4.00139 0
M  V30 877 H 83.0978 0.709798 4.11422 0
M  V30 878 H 84.4878 4.69102 4.81033 0
M  V30 879 N 87.2079 -1.17134 1.05439 0
M  V30 880 C 88.4379 -1.91094 0.785274 0
M  V30 881 C 88.8459 -1.77198 -0.663142 0
M  V30 882 O 88.1889 -1.10835 -1.46497 0
M  V30 883 C 88.2509 -3.42594 1.08949 0
M  V30 884 C 87.9149 -3.80274 2.53458 0
M  V30 885 C 88.9119 -3.82912 3.51673 0
M  V30 886 C 86.5969 -4.11162 2.88532 0
M  V30 887 C 88.5909 -4.15913 4.83006 0
M  V30 888 C 86.2779 -4.43831 4.20068 0
M  V30 889 C 87.2759 -4.46185 5.17115 0
M  V30 890 O 86.9639 -4.78083 6.46291 0
M  V30 891 H 86.6959 -0.613073 0.284811 0
M  V30 892 H 89.2499 -1.49461 1.40893 0
M  V30 893 H 87.4799 -3.84534 0.408741 0
M  V30 894 H 89.1689 -3.97817 0.805991 0
M  V30 895 H 89.9349 -3.5917 3.25917 0
M  V30 896 H 85.8139 -4.085 2.13656 0
M  V30 897 H 89.3579 -4.17665 5.5875 0
M  V30 898 H 85.2549 -4.67037 4.45586 0
M  V30 899 H 86.0229 -4.9593 6.51149 0
M  V30 900 N 88.686 -0.835752 -1.33615 0
M  V30 901 C 89.596 -0.269088 -2.33052 0
M  V30 902 C 90.612 0.603251 -1.63208 0
M  V30 903 O 91.788 0.508112 -1.94885 0
M  V30 904 C 88.853 0.549091 -3.42324 0
M  V30 905 C 87.914 -0.347156 -4.27894 0
M  V30 906 C 87.147 0.43207 -5.31948 0
M  V30 907 O 87.37 1.66409 -5.45586 0
M  V30 908 O 86.304 -0.192298 -6.01593 0
M  V30 909 H 90.13 -1.09243 -2.83372 0
M  V30 910 H 87.715 -0.598198 -1.36901 0
M  V30 911 H 89.597 1.01414 -4.09015 0
M  V30 912 H 88.272 1.34955 -2.94226 0
M  V30 913 H 87.179 -0.859979 -3.64081 0
M  V30 914 H 88.512 -1.1123 -4.79467 0
M  V30 915 N 90.1641 1.46063 -0.591896 0
M  V30 916 C 91.1271 2.28854 0.125973 0
M  V30 917 C 92.1271 1.38903 0.810107 0
M  V30 918 O 93.3171 1.61186 0.66066 0
M  V30 919 C 90.4491 3.19526 1.1881 0
M  V30 920 H 91.6421 2.93802 -0.601717 0
M  V30 921 H 89.1951 1.52325 -0.350254 0
M  V30 922 H 89.9301 2.59345 1.94707 0
M  V30 923 H 89.7151 3.85766 0.701936 0
M  V30 924 H 91.2051 3.81817 1.69132 0
M  V30 925 N 91.6422 0.330177 1.54103 0
M  V30 926 C 92.8882 -0.270806 2.00984 0
M  V30 927 C 93.2212 -1.51265 1.21789 0
M  V30 928 O 92.4962 -1.92142 0.301927 0
M  V30 929 C 92.7792 -0.598339 3.55094 0
M  V30 930 C 92.6322 0.654674 4.4501 0
M  V30 931 C 93.9512 -1.41334 4.16789 0
M  V30 932 H 91.0702 -0.0969531 0.730595 0
M  V30 933 H 93.7122 0.448066 1.84641 0
M  V30 934 H 91.8622 -1.21078 3.69151 0
M  V30 935 H 93.5342 1.29285 4.42813 0
M  V30 936 H 91.7772 1.28224 4.14416 0
M  V30 937 H 92.4482 0.380944 5.50684 0
M  V30 938 H 94.9242 -0.895597 4.06347 0
M  V30 939 H 93.8002 -1.61127 5.24718 0
M  V30 940 H 94.0612 -2.41146 3.70541 0
M  V30 941 N 93.1203 -1.57491 0.0584922 0
M  V30 942 C 94.0703 -2.08474 -0.923188 0
M  V30 943 C 95.0543 -0.991479 -1.26722 0
M  V30 944 O 96.2463 -1.25473 -1.24842 0
M  V30 945 C 93.3753 -2.6392 -2.19548 0
M  V30 946 C 92.4613 -3.80227 -1.87852 0
M  V30 947 N 92.8523 -4.89714 -1.26546 0
M  V30 948 C 91.1503 -3.89271 -2.17679 0
M  V30 949 C 91.8513 -5.70689 -1.12644 0
M  V30 950 N 90.8273 -5.18531 -1.63176 0
M  V30 951 H 94.6293 -2.90517 -0.444653 0
M  V30 952 H 92.1433 -1.61745 -0.145764 0
M  V30 953 H 94.1403 -2.98752 -2.9078 0
M  V30 954 H 92.8003 -1.83318 -2.68001 0
M  V30 955 H 93.8113 -5.09358 -0.936757 0
M  V30 956 H 90.4883 -3.19623 -2.68602 0
M  V30 957 H 91.8783 -6.6875 -0.6499 0
M  V30 958 N 94.5984 0.214957 -1.56127 0
M  V30 959 C 95.8754 0.963093 -1.70247 0
M  V30 960 C 96.2554 2.02166 -0.60764 0
M  V30 961 O 95.6034 2.25244 0.384385 0
M  V30 962 C 95.8134 1.56756 -3.11815 0
M  V30 963 C 97.1614 2.0573 -3.7143 0
M  V30 964 O 98.1854 1.66637 -3.14818 0
M  V30 965 O 97.0444 2.77603 -4.70743 0
M  V30 966 H 94.1384 0.450321 -0.693643 0
M  V30 967 H 96.6844 0.206219 -1.68442 0
M  V30 968 H 95.4564 0.803533 -3.82961 0
M  V30 969 H 95.0794 2.3898 -3.17765 0
M  V30 970 N 96.0765 1.50051 0.48192 0
M  V30 971 C 97.0395 1.67584 1.5636 0
M  V30 972 C 98.0395 0.546894 1.51214 0
M  V30 973 O 99.2295 0.813725 1.54026 0
M  V30 974 C 96.3615 1.691 2.96003 0
M  V30 975 H 97.5545 2.64078 1.42136 0
M  V30 976 H 95.1075 1.39369 0.707533 0
M  V30 977 H 95.8425 0.742589 3.15684 0
M  V30 978 H 95.6275 2.51105 3.01146 0
M  V30 979 H 97.1175 1.84656 3.74556 0
M  V30 980 N 97.5546 -0.734337 1.39446 0
M  V30 981 C 98.8026 -1.49096 1.36436 0
M  V30 982 C 99.1236 -1.94961 -0.0388255 0
M  V30 983 O 98.3936 -1.69033 -0.990191 0
M  V30 984 H 96.9736 -0.5531 0.502085 0
M  V30 985 H 99.6356 -0.871725 1.74319 0
M  V30 986 H 98.7316 -2.37276 2.02747 0
M  V30 987 N 99.0327 -1.24633 -0.964593 0
M  V30 988 C 99.9807 -1.03917 -2.08096 0
M  V30 989 C 100.975 0.0268581 -1.69379 0
M  V30 990 O 102.181 -0.127952 -1.79545 0
M  V30 991 H 98.5557 -0.319044 -0.680966 0
M  V30 992 H 100.527 -1.98581 -2.22729 0
M  V30 993 C 99.2757 -0.663983 -3.41301 0
M  V30 994 H 98.5987 -1.47605 -3.71555 0
M  V30 995 H 100.039 -0.558663 -4.20303 0
M  V30 996 C 98.4977 0.629169 -3.30973 0
M  V30 997 O 99.0277 1.67404 -3.65156 0
M  V30 998 N 97.2337 0.611057 -2.84103 0
M  V30 999 H 96.7807 -0.239593 -2.56483 0
M  V30 1000 H 96.7387 1.47647 -2.77575 0
M  V30 1001 N 100.511 1.16574 -1.06058 0
M  V30 1002 C 101.788 1.83048 -0.689416 0
M  V30 1003 C 102.168 1.94122 0.829443 0
M  V30 1004 O 101.516 1.48249 1.7388 0
M  V30 1005 C 101.726 3.20186 -1.38859 0
M  V30 1006 C 103.074 3.95989 -1.53226 0
M  V30 1007 O 104.098 3.29696 -1.3483 0
M  V30 1008 O 102.957 5.14813 -1.83384 0
M  V30 1009 H 100.051 0.790258 -0.243764 0
M  V30 1010 H 102.597 1.23797 -1.16071 0
M  V30 1011 H 101.369 3.07146 -2.4244 0
M  V30 1012 H 100.992 3.87112 -0.907216 0
M  V30 1013 N 101.989 0.842826 1.3317 0
M  V30 1014 C 103.214 0.453129 2.02389 0
M  V30 1015 C 103.639 -0.939105 1.6298 0
M  V30 1016 O 102.997 -1.61472 0.8244 0
M  V30 1017 C 103.045 0.586094 3.55805 0
M  V30 1018 O 102.149 -0.386029 4.10589 0
M  V30 1019 H 101.49 0.183664 0.638094 0
M  V30 1020 H 104.02 1.13875 1.69981 0
M  V30 1021 H 104.03 0.469209 4.05293 0
M  V30 1022 H 102.705 1.6014 3.83833 0
M  V30 1023 H 101.282 -0.226371 3.72212 0
M  V30 1024 N 103.467 -1.45747 0.599634 0
M  V30 1025 C 104.715 -2.01893 0.0915472 0
M  V30 1026 C 105.036 -1.47155 -1.27946 0
M  V30 1027 O 104.306 -0.66273 -1.84349 0
M  V30 1028 H 102.886 -0.746363 0.0308524 0
M  V30 1029 H 105.548 -1.78645 0.779237 0
M  V30 1030 H 104.644 -3.1208 0.0353086 0
M  V30 1031 N 104.945 -0.338344 -1.53925 0
M  V30 1032 C 105.895 0.536712 -2.21593 0
M  V30 1033 C 106.879 1.07015 -1.20153 0
M  V30 1034 O 108.071 1.00471 -1.45721 0
M  V30 1035 C 105.2 1.68977 -2.98834 0
M  V30 1036 C 104.286 1.17052 -4.07627 0
M  V30 1037 N 104.677 0.372085 -5.0443 0
M  V30 1038 C 102.975 1.44789 -4.21844 0
M  V30 1039 C 103.676 0.0909171 -5.81629 0
M  V30 1040 N 102.652 0.681131 -5.39316 0
M  V30 1041 H 106.454 -0.0804298 -2.9379 0
M  V30 1042 H 103.968 -0.144943 -1.61752 0
M  V30 1043 H 105.965 2.32857 -3.45808 0
M  V30 1044 H 104.625 2.31024 -2.28162 0
M  V30 1045 H 105.636 0.0136217 -5.17898 0
M  V30 1046 H 102.313 2.07313 -3.62391 0
M  V30 1047 H 103.703 -0.552817 -6.69622 0
M  V30 1048 N 106.423 1.57458 -0.0668435 0
M  V30 1049 C 107.671 1.92919 0.602214 0
M  V30 1050 C 107.992 0.947215 1.70449 0
M  V30 1051 O 107.262 -0.00544117 1.95899 0
M  V30 1052 H 105.842 0.71217 0.22544 0
M  V30 1053 H 108.504 1.94508 -0.123535 0
M  V30 1054 H 107.6 2.94589 1.03073 0
M  V30 1055 N 107.901 -0.206675 1.56239 0
M  V30 1056 C 109.149 -0.927007 1.79586 0
M  V30 1057 C 109.47 -1.8427 0.637929 0
M  V30 1058 O 108.74 -1.92849 -0.344398 0
M  V30 1059 H 107.32 -0.345292 0.662407 0
M  V30 1060 H 109.982 -0.21496 1.93711 0
M  V30 1061 H 109.078 -1.52501 2.72305 0
M  V30 1062 N 109.379 -1.50304 -0.473955 0
M  V30 1063 C 110.289 -1.7174 -1.5982 0
M  V30 1064 C 111.305 -0.600457 -1.63311 0
M  V30 1065 O 112.481 -0.878441 -1.81233 0
M  V30 1066 C 109.546 -1.80427 -2.96052 0
M  V30 1067 C 108.607 -3.04148 -3.02972 0
M  V30 1068 C 107.84 -3.12411 -4.32706 0
M  V30 1069 O 108.063 -2.27542 -5.23049 0
M  V30 1070 O 106.997 -4.05113 -4.45159 0
M  V30 1071 H 110.823 -2.67035 -1.44657 0
M  V30 1072 H 108.408 -1.34366 -0.653148 0
M  V30 1073 H 110.29 -1.88338 -3.7697 0
M  V30 1074 H 108.965 -0.883156 -3.11419 0
M  V30 1075 H 107.872 -3.0174 -2.21142 0
M  V30 1076 H 109.205 -3.95829 -2.92541 0
M  V30 1077 N 110.857 0.726932 -1.39834 0
M  V30 1078 C 112.082 1.52121 -1.40976 0
M  V30 1079 C 112.507 1.88098 -0.00826029 0
M  V30 1080 O 111.865 1.52479 0.980807 0
M  V30 1081 C 111.913 2.78021 -2.29644 0
M  V30 1082 O 111.017 3.74272 -1.73188 0
M  V30 1083 H 110.358 0.45908 -0.479731 0
M  V30 1084 H 112.888 0.896207 -1.83927 0
M  V30 1085 H 112.898 3.26671 -2.44438 0
M  V30 1086 H 111.573 2.51169 -3.31492 0
M  V30 1087 H 110.15 3.33073 -1.6768 0
M  V30 1088 N 112.336 1.25143 0.95797 0
M  V30 1089 C 113.284 1.05019 2.07542 0
M  V30 1090 C 114.278 -0.0178751 1.69391 0
M  V30 1091 O 115.484 0.137472 1.79474 0
M  V30 1092 H 111.859 0.32265 0.679265 0
M  V30 1093 H 113.83 1.99759 2.21673 0
M  V30 1094 C 112.579 0.682074 3.40944 0
M  V30 1095 H 111.902 1.49573 3.70767 0
M  V30 1096 H 113.342 0.580945 4.20001 0
M  V30 1097 C 111.801 -0.611608 3.31302 0
M  V30 1098 O 112.331 -1.65465 3.66038 0
M  V30 1099 N 110.537 -0.595982 2.84423 0
M  V30 1100 H 110.084 0.253192 2.56353 0
M  V30 1101 H 110.042 -1.46173 2.78354 0
M  V30 1102 N 113.814 -1.1601 1.06675 0
M  V30 1103 C 114.744 -2.22688 0.702307 0
M  V30 1104 C 115.725 -1.67306 -0.307032 0
M  V30 1105 O 116.91 -1.93352 -0.181305 0
M  V30 1106 C 114.04 -3.47178 0.092038 0
M  V30 1107 C 112.994 -4.15477 1.02777 0
M  V30 1108 C 112.32 -5.33963 0.28061 0
M  V30 1109 C 113.62 -4.66019 2.35846 0
M  V30 1110 H 115.314 -2.53429 1.59419 0
M  V30 1111 H 112.86 -1.21813 0.767961 0
M  V30 1112 H 114.813 -4.21037 -0.174814 0
M  V30 1113 H 113.537 -3.15749 -0.834877 0
M  V30 1114 H 112.196 -3.43549 1.27944 0
M  V30 1115 H 111.844 -4.98788 -0.649545 0
M  V30 1116 H 111.544 -5.806 0.904258 0
M  V30 1117 H 113.068 -6.10596 0.021396 0
M  V30 1118 H 114.482 -5.3144 2.15045 0
M  V30 1119 H 112.879 -5.23293 2.93743 0
M  V30 1120 H 113.949 -3.82023 2.98641 0
M  V30 1121 N 115.292 -0.849877 -1.32721 0
M  V30 1122 C 116.255 -0.296122 -2.27279 0
M  V30 1123 C 117.255 0.541458 -1.5141 0
M  V30 1124 O 118.445 0.353658 -1.70572 0
M  V30 1125 C 115.577 0.581579 -3.35902 0
M  V30 1126 H 116.77 -1.13064 -2.77771 0
M  V30 1127 H 114.323 -0.62383 -1.43311 0
M  V30 1128 H 115.058 1.43809 -2.9067 0
M  V30 1129 H 114.843 -0.0178814 -3.92096 0
M  V30 1130 H 116.333 0.961951 -4.0637 0
M  V30 1131 N 116.77 1.45427 -0.607355 0
M  V30 1132 C 117.7 2.3329 0.0989352 0
M  V30 1133 C 118.681 1.46816 0.859007 0
M  V30 1134 O 119.866 1.75588 0.829604 0
M  V30 1135 C 116.996 3.29518 1.09705 0
M  V30 1136 C 115.95 4.25626 0.450206 0
M  V30 1137 C 115.276 5.11542 1.55655 0
M  V30 1138 C 116.576 5.18505 -0.628455 0
M  V30 1139 H 118.27 2.92595 -0.634716 0
M  V30 1140 H 115.816 1.40696 -0.306681 0
M  V30 1141 H 117.769 3.89855 1.59971 0
M  V30 1142 H 116.493 2.68372 1.86129 0
M  V30 1143 H 115.152 3.66586 -0.0315886 0
M  V30 1144 H 114.8 4.46765 2.31107 0
M  V30 1145 H 114.5 5.76647 1.12925 0
M  V30 1146 H 116.024 5.74748 2.06148 0
M  V30 1147 H 117.438 5.72916 -0.209877 0
M  V30 1148 H 115.835 5.92085 -0.977489 0
M  V30 1149 H 116.905 4.60948 -1.50514 0
M  V30 1150 N 118.248 0.346503 1.53744 0
M  V30 1151 C 119.195 -0.508914 2.25119 0
M  V30 1152 C 120.165 -1.09315 1.25058 0
M  V30 1153 O 121.35 -1.12921 1.53797 0
M  V30 1154 C 118.49 -1.65246 3.02965 0
M  V30 1155 C 117.603 -1.09525 4.17886 0
M  V30 1156 C 116.738 -2.20634 4.83212 0
M  V30 1157 C 115.777 -1.62279 5.90196 0
M  V30 1158 N 114.914 -2.67143 6.49291 0
M  V30 1159 H 119.754 0.106283 2.9781 0
M  V30 1160 H 117.291 0.0642227 1.4696 0
M  V30 1161 H 119.249 -2.32574 3.4636 0
M  V30 1162 H 117.879 -2.2386 2.32565 0
M  V30 1163 H 116.931 -0.312818 3.79112 0
M  V30 1164 H 118.243 -0.628444 4.94825 0
M  V30 1165 H 117.397 -2.95821 5.29693 0
M  V30 1166 H 116.136 -2.70659 4.05703 0
M  V30 1167 H 115.141 -0.855989 5.43096 0
M  V30 1168 H 116.366 -1.13102 6.69615 0
M  V30 1169 H 114.312 -3.16417 5.74645 0
M  V30 1170 H 114.229 -2.25093 7.21713 0
M  V30 1171 H 115.497 -3.4209 7.00425 0
M  V30 1172 N 119.726 -1.57421 0.075193 0
M  V30 1173 C 121.142 -1.57099 -0.281444 0
M  V30 1174 C 121.342 -1.08486 -1.69803 0
M  V30 1175 O 120.398 -0.752279 -2.41033 0
M  V30 1176 C 121.711 -3.00571 -0.0880041 0
M  V30 1177 C 123.259 -3.12605 -0.157281 0
M  V30 1178 C 123.734 -4.57999 0.0079207 0
M  V30 1179 N 125.225 -4.63176 -0.0475725 0
M  V30 1180 C 125.96 -5.73373 0.0557876 0
M  V30 1181 N 125.456 -6.92473 0.21286 0
M  V30 1182 N 127.249 -5.621 -0.00152098 0
M  V30 1183 H 119.4 -1.87335 1.00098 0
M  V30 1184 H 121.663 -0.86377 0.390646 0
M  V30 1185 H 121.369 -3.40262 0.889629 0
M  V30 1186 H 121.243 -3.67754 -0.838875 0
M  V30 1187 H 123.63 -2.72798 -1.1254 0
M  V30 1188 H 123.711 -2.48053 0.62475 0
M  V30 1189 H 123.355 -4.98496 0.972824 0
M  V30 1190 H 123.285 -5.20586 -0.793556 0
M  V30 1191 H 125.776 -3.7753 -0.167244 0
M  V30 1192 H 126.089 -7.72279 0.283781 0
M  V30 1193 H 124.434 -6.94556 0.248267 0
M  V30 1194 H 127.625 -4.67938 -0.122958 0
M  V30 1195 H 127.798 -6.47948 0.0824844 0
M  V30 1196 N 121.204 0.198386 -1.56346 0
M  V30 1197 C 122.481 0.944982 -1.71258 0
M  V30 1198 C 122.861 2.0151 -0.629048 0
M  V30 1199 O 122.209 2.25639 0.360473 0
M  V30 1200 C 122.419 1.5344 -3.1346 0
M  V30 1201 C 123.767 2.01778 -3.73591 0
M  V30 1202 O 124.791 1.63288 -3.16568 0
M  V30 1203 O 123.65 2.72594 -4.73661 0
M  V30 1204 H 120.744 0.442939 -0.69838 0
M  V30 1205 H 123.29 0.188342 -1.68652 0
M  V30 1206 H 122.062 0.762869 -3.83792 0
M  V30 1207 H 121.685 2.35596 -3.20282 0
M  V30 1208 N 122.682 1.50554 0.465978 0
M  V30 1209 C 123.959 1.5232 1.22712 0
M  V30 1210 C 124.339 0.270807 2.09356 0
M  V30 1211 O 123.687 -0.745541 2.15995 0
M  V30 1212 C 123.897 2.82175 2.05374 0
M  V30 1213 C 125.245 3.33033 2.6339 0
M  V30 1214 O 126.269 2.83531 2.15612 0
M  V30 1215 O 125.128 4.19336 3.50456 0
M  V30 1216 H 122.222 0.611183 0.557122 0
M  V30 1217 H 124.768 1.62847 0.477381 0
M  V30 1218 H 123.54 3.64797 1.41558 0
M  V30 1219 H 123.163 2.74675 2.87471 0
M  V30 1220 N 124.16 -0.719506 1.40217 0
M  V30 1221 C 125.406 -1.48152 1.38488 0
M  V30 1222 C 125.739 -1.94195 -0.0141867 0
M  V30 1223 O 125.014 -1.67884 -0.982096 0
M  V30 1224 C 125.297 -2.71035 2.37091 0
M  V30 1225 C 125.15 -2.30912 3.86005 0
M  V30 1226 C 126.469 -3.73182 2.33288 0
M  V30 1227 H 123.588 -0.537395 0.504357 0
M  V30 1228 H 126.23 -0.821472 1.71324 0
M  V30 1229 H 124.38 -3.27352 2.0922 0
M  V30 1230 H 126.052 -1.80107 4.24687 0
M  V30 1231 H 124.295 -1.62958 4.02029 0
M  V30 1232 H 124.966 -3.18978 4.50508 0
M  V30 1233 H 127.442 -3.26485 2.57966 0
M  V30 1234 H 126.318 -4.56806 3.04334 0
M  V30 1235 H 126.579 -4.21202 1.34317 0
M  V30 1236 N 125.638 -1.25649 -0.95132 0
M  V30 1237 C 126.866 -1.13343 -1.73092 0
M  V30 1238 C 127.281 0.312434 -1.86197 0
M  V30 1239 O 126.638 1.21465 -1.36207 0
M  V30 1240 C 126.689 -1.78602 -3.14299 0
M  V30 1241 O 126.41 -3.17537 -3.01831 0
M  V30 1242 C 127.911 -1.72119 -4.08522 0
M  V30 1243 H 125.131 -0.395181 -0.542285 0
M  V30 1244 H 127.675 -1.66076 -1.19328 0
M  V30 1245 H 125.83 -1.29832 -3.64996 0
M  V30 1246 H 126.244 -3.49676 -3.90931 0
M  V30 1247 H 127.718 -2.22435 -5.052 0
M  V30 1248 H 128.195 -0.685635 -4.33815 0
M  V30 1249 H 128.801 -2.20393 -3.63741 0
M  V30 1250 N 127.117 1.15442 -1.07289 0
M  V30 1251 C 128.047 2.22312 -0.714107 0
M  V30 1252 C 129.028 1.67467 0.298155 0
M  V30 1253 O 130.213 1.93445 0.171048 0
M  V30 1254 C 127.343 3.47124 -0.110448 0
M  V30 1255 C 126.297 4.14926 -1.04979 0
M  V30 1256 C 125.623 5.33807 -0.308924 0
M  V30 1257 C 126.923 4.64762 -2.38314 0
M  V30 1258 H 128.617 2.5258 -1.6076 0
M  V30 1259 H 126.163 1.21404 -0.77441 0
M  V30 1260 H 128.116 4.21124 0.152482 0
M  V30 1261 H 126.84 3.16187 0.81812 0
M  V30 1262 H 125.499 3.42866 -1.29764 0
M  V30 1263 H 125.147 4.99126 0.623084 0
M  V30 1264 H 124.847 5.80113 -0.935036 0
M  V30 1265 H 126.371 6.10576 -0.0537771 0
M  V30 1266 H 127.785 5.30292 -2.1786 0
M  V30 1267 H 126.182 5.21728 -2.96514 0
M  V30 1268 H 127.252 3.80434 -3.00663 0
M  V30 1269 N 128.595 0.856903 1.32268 0
M  V30 1270 C 129.525 0.31858 2.31316 0
M  V30 1271 C 130.506 -0.583487 1.59779 0
M  V30 1272 O 131.691 -0.503259 1.87566 0
M  V30 1273 C 128.821 -0.491979 3.43798 0
M  V30 1274 C 127.775 0.315849 4.26833 0
M  V30 1275 C 127.101 -0.619586 5.31098 0
M  V30 1276 C 128.401 1.54282 4.98993 0
M  V30 1277 H 130.095 1.14621 2.76591 0
M  V30 1278 H 127.641 0.552613 1.32974 0
M  V30 1279 H 129.594 -0.879012 4.1213 0
M  V30 1280 H 128.318 -1.35299 2.97257 0
M  V30 1281 H 126.977 0.684664 3.6015 0
M  V30 1282 H 126.625 -1.47751 4.8081 0
M  V30 1283 H 126.325 -0.0830621 5.87541 0
M  V30 1284 H 127.849 -1.00375 6.02293 0
M  V30 1285 H 129.263 1.22796 5.59995 0
M  V30 1286 H 127.66 2.01745 5.65172 0
M  V30 1287 H 128.73 2.30285 4.26728 0
M  V30 1288 N 130.073 -1.45103 0.615059 0
M  V30 1289 C 131.489 -1.57137 0.279322 0
M  V30 1290 C 131.689 -1.60523 -1.21797 0
M  V30 1291 O 130.745 -1.53956 -2.00134 0
M  V30 1292 C 132.058 -2.85062 0.957083 0
M  V30 1293 C 133.606 -2.98749 0.933706 0
M  V30 1294 C 134.081 -4.29455 1.59162 0
M  V30 1295 N 135.572 -4.36231 1.55746 0
M  V30 1296 C 136.307 -5.36051 2.0356 0
M  V30 1297 N 135.803 -6.42367 2.59494 0
M  V30 1298 N 137.596 -5.27456 1.94284 0
M  V30 1299 H 129.747 -1.41148 1.58717 0
M  V30 1300 H 132.01 -0.675331 0.665306 0
M  V30 1301 H 131.716 -2.88488 2.01166 0
M  V30 1302 H 131.59 -3.7407 0.48494 0
M  V30 1303 H 133.977 -2.94886 -0.112347 0
M  V30 1304 H 134.058 -2.11132 1.44419 0
M  V30 1305 H 133.702 -4.34077 2.63704 0
M  V30 1306 H 133.632 -5.15901 1.0561 0
M  V30 1307 H 136.123 -3.60011 1.14893 0
M  V30 1308 H 136.436 -7.14793 2.93752 0
M  V30 1309 H 134.781 -6.43097 2.63537 0
M  V30 1310 H 137.972 -4.43308 1.5032 0
M  V30 1311 H 138.145 -6.05099 2.3186 0
M  V30 1312 N 131.551 -0.354651 -1.53558 0
M  V30 1313 C 132.483 0.5315 -2.22952 0
M  V30 1314 C 133.496 1.05503 -1.23988 0
M  V30 1315 O 134.685 0.963279 -1.50277 0
M  V30 1316 C 131.785 1.74538 -2.90499 0
M  V30 1317 C 130.958 1.35524 -4.15875 0
M  V30 1318 C 130.017 2.42999 -4.66731 0
M  V30 1319 O 129.043 2.05844 -5.30676 0
M  V30 1320 N 130.245 3.74423 -4.43608 0
M  V30 1321 H 133.01 -0.0628615 -2.99634 0
M  V30 1322 H 130.571 -0.179302 -1.60904 0
M  V30 1323 H 132.563 2.45892 -3.21433 0
M  V30 1324 H 131.133 2.24686 -2.17336 0
M  V30 1325 H 130.353 0.471998 -3.91364 0
M  V30 1326 H 131.641 1.07071 -4.97406 0
M  V30 1327 H 131.039 4.07391 -3.92491 0
M  V30 1328 H 129.596 4.41913 -4.7912 0
M  V30 1329 N 133.029 1.57378 -0.0835403 0
M  V30 1330 C 133.939 2.16897 0.894021 0
M  V30 1331 C 134.955 1.13528 1.31861 0
M  V30 1332 O 136.131 1.45848 1.3889 0
M  V30 1333 C 133.196 2.72831 2.13925 0
M  V30 1334 C 132.257 3.91115 1.76997 0
M  V30 1335 C 131.49 4.44371 2.95584 0
M  V30 1336 O 131.713 3.96596 4.09961 0
M  V30 1337 O 130.647 5.35549 2.74719 0
M  V30 1338 H 134.473 3.00814 0.417679 0
M  V30 1339 H 132.058 1.48741 0.140181 0
M  V30 1340 H 133.94 3.0863 2.86924 0
M  V30 1341 H 132.615 1.91967 2.60635 0
M  V30 1342 H 131.522 3.60148 1.01214 0
M  V30 1343 H 132.855 4.73307 1.3506 0
M  V30 1344 N 134.507 -0.190092 1.56449 0
M  V30 1345 C 135.753 -0.911052 1.81184 0
M  V30 1346 C 136.086 -1.82699 0.658396 0
M  V30 1347 O 135.361 -1.91491 -0.340775 0
M  V30 1348 C 135.644 -1.72297 3.16205 0
M  V30 1349 C 135.497 -0.831419 4.42049 0
M  V30 1350 C 136.816 -2.69454 3.47969 0
M  V30 1351 H 133.935 -0.32977 0.659106 0
M  V30 1352 H 136.577 -0.178169 1.89163 0
M  V30 1353 H 134.727 -2.34778 3.09534 0
M  V30 1354 H 136.399 -0.220929 4.60771 0
M  V30 1355 H 134.642 -0.138406 4.33579 0
M  V30 1356 H 135.313 -1.43461 5.33032 0
M  V30 1357 H 137.789 -2.17104 3.54972 0
M  V30 1358 H 136.665 -3.23342 4.43555 0
M  V30 1359 H 136.926 -3.48744 2.71717 0
M  V30 1360 N 135.985 -1.50799 -0.457987 0
M  V30 1361 C 136.917 -1.66786 -1.57211 0
M  V30 1362 C 137.93 -0.548962 -1.53265 0
M  V30 1363 O 139.119 -0.8226 -1.58416 0
M  V30 1364 C 136.219 -1.64834 -2.96113 0
M  V30 1365 C 135.392 -2.92971 -3.24787 0
M  V30 1366 C 134.451 -2.83485 -4.43309 0
M  V30 1367 O 133.477 -3.5744 -4.42973 0
M  V30 1368 N 134.679 -1.97929 -5.45714 0
M  V30 1369 H 137.444 -2.62889 -1.43909 0
M  V30 1370 H 135.005 -1.48427 -0.646617 0
M  V30 1371 H 136.997 -1.56084 -3.7339 0
M  V30 1372 H 135.567 -0.764118 -3.03117 0
M  V30 1373 H 134.787 -3.15749 -2.36 0
M  V30 1374 H 136.075 -3.77834 -3.40762 0
M  V30 1375 H 135.473 -1.37182 -5.48815 0
M  V30 1376 H 134.03 -1.95073 -6.21924 0
M  V30 1377 N 137.463 0.71206 -1.40597 0
M  V30 1378 C 138.74 1.46536 -1.29563 0
M  V30 1379 C 139.12 2.10931 0.0844217 0
M  V30 1380 O 138.468 2.00418 1.0975 0
M  V30 1381 C 138.678 2.49821 -2.43701 0
M  V30 1382 C 140.026 3.15551 -2.841 0
M  V30 1383 O 141.05 2.60142 -2.4332 0
M  V30 1384 O 139.909 4.15867 -3.54566 0
M  V30 1385 H 137.003 0.651801 -0.509004 0
M  V30 1386 H 139.549 0.743935 -1.52524 0
M  V30 1387 H 138.321 2.00778 -3.35863 0
M  V30 1388 H 137.944 3.29495 -2.22528 0
M  V30 1389 N 138.941 1.26152 0.944643 0
M  V30 1390 C 139.871 1.09902 2.06019 0
M  V30 1391 C 140.852 0.00519538 1.70099 0
M  V30 1392 O 142.037 0.176583 1.93396 0
M  V30 1393 C 139.167 0.727562 3.39594 0
M  V30 1394 C 138.121 1.77274 3.89561 0
M  V30 1395 C 137.447 1.25569 5.19747 0
M  V30 1396 C 138.747 3.17357 4.14827 0
M  V30 1397 H 140.441 2.03217 2.19871 0
M  V30 1398 H 137.987 0.978452 1.05652 0
M  V30 1399 H 139.94 0.600777 4.17095 0
M  V30 1400 H 138.664 -0.241287 3.25707 0
M  V30 1401 H 137.323 1.88814 3.14237 0
M  V30 1402 H 136.971 0.276783 5.02238 0
M  V30 1403 H 136.671 1.95433 5.54148 0
M  V30 1404 H 138.195 1.1415 5.99835 0
M  V30 1405 H 139.609 3.08914 4.82954 0
M  V30 1406 H 138.006 3.84781 4.60504 0
M  V30 1407 H 139.076 3.63673 3.20734 0
M  V30 1408 N 140.419 -1.14872 1.07899 0
M  V30 1409 C 141.351 -2.19425 0.662231 0
M  V30 1410 C 142.364 -1.60231 -0.288079 0
M  V30 1411 O 143.553 -1.78336 -0.076534 0
M  V30 1412 C 140.653 -3.38867 -0.0470695 0
M  V30 1413 C 139.826 -4.27597 0.920831 0
M  V30 1414 C 138.885 -5.25616 0.247805 0
M  V30 1415 O 137.911 -5.62189 0.890599 0
M  V30 1416 N 139.113 -5.71746 -1.00435 0
M  V30 1417 H 141.878 -2.55797 1.56166 0
M  V30 1418 H 139.439 -1.30042 0.964404 0
M  V30 1419 H 141.431 -4.01497 -0.50813 0
M  V30 1420 H 140.001 -3.00864 -0.848523 0
M  V30 1421 H 139.221 -3.61982 1.56087 0
M  V30 1422 H 140.509 -4.83748 1.57688 0
M  V30 1423 H 139.907 -5.44153 -1.54642 0
M  V30 1424 H 138.464 -6.36389 -1.40899 0
M  V30 1425 N 141.898 -0.863906 -1.31812 0
M  V30 1426 C 142.861 -0.320212 -2.26952 0
M  V30 1427 C 143.861 0.525369 -1.51975 0
M  V30 1428 O 145.051 0.335547 -1.70938 0
M  V30 1429 C 142.183 0.545919 -3.365 0
M  V30 1430 H 143.376 -1.16004 -2.76556 0
M  V30 1431 H 140.929 -0.638995 -1.42641 0
M  V30 1432 H 141.664 1.40718 -2.92179 0
M  V30 1433 H 141.449 -0.0594674 -3.92055 0
M  V30 1434 H 142.939 0.918796 -4.07367 0
M  V30 1435 N 143.376 1.44774 -0.622745 0
M  V30 1436 C 144.601 2.06999 -0.128968 0
M  V30 1437 C 145.026 1.4617 1.1839 0
M  V30 1438 O 144.384 0.560007 1.72434 0
M  V30 1439 C 144.432 3.60595 -0.0188351 0
M  V30 1440 O 143.536 3.99398 1.02739 0
M  V30 1441 H 142.877 0.659047 -0.0809544 0
M  V30 1442 H 145.407 1.85784 -0.85705 0
M  V30 1443 H 145.417 4.07627 0.174476 0
M  V30 1444 H 144.092 4.04252 -0.977384 0
M  V30 1445 H 142.669 3.64011 0.809326 0
M  V30 1446 N 144.854 0.36279 1.53368 0
M  V30 1447 C 145.784 -0.476976 2.28576 0
M  V30 1448 C 146.765 -1.08631 1.30894 0
M  V30 1449 O 147.95 -1.10409 1.59761 0
M  V30 1450 C 145.08 -1.61828 3.07293 0
M  V30 1451 C 144.034 -1.13633 4.1264 0
M  V30 1452 C 143.36 -2.36766 4.79423 0
M  V30 1453 C 144.66 -0.223061 5.21823 0
M  V30 1454 H 146.354 0.150474 2.99022 0
M  V30 1455 H 143.9 0.0738103 1.43811 0
M  V30 1456 H 145.853 -2.21237 3.58653 0
M  V30 1457 H 144.577 -2.27292 2.34533 0
M  V30 1458 H 143.236 -0.564945 3.62221 0
M  V30 1459 H 142.884 -3.0068 4.03238 0
M  V30 1460 H 142.584 -2.05192 5.50609 0
M  V30 1461 H 144.108 -2.96865 5.33576 0
M  V30 1462 H 145.522 -0.724545 5.68703 0
M  V30 1463 H 143.919 0.001678 6.001 0
M  V30 1464 H 144.989 0.735553 4.79289 0
M  V30 1465 N 146.332 -1.57332 0.0918853 0
M  V30 1466 C 147.279 -2.13847 -0.868211 0
M  V30 1467 C 148.249 -1.05618 -1.28196 0
M  V30 1468 O 149.434 -1.33387 -1.36427 0
M  V30 1469 C 146.574 -2.72062 -2.12312 0
M  V30 1470 C 145.687 -3.94514 -1.7602 0
M  V30 1471 C 144.822 -4.40903 -2.96273 0
M  V30 1472 C 143.861 -5.55953 -2.56092 0
M  V30 1473 N 142.998 -5.97209 -3.69169 0
M  V30 1474 H 147.838 -2.95575 -0.379406 0
M  V30 1475 H 145.375 -1.46048 -0.175606 0
M  V30 1476 H 147.333 -3.03931 -2.858 0
M  V30 1477 H 145.963 -1.93068 -2.58698 0
M  V30 1478 H 145.015 -3.68979 -0.925135 0
M  V30 1479 H 146.327 -4.7802 -1.42472 0
M  V30 1480 H 145.481 -4.74539 -3.78018 0
M  V30 1481 H 144.22 -3.56291 -3.33029 0
M  V30 1482 H 143.225 -5.21948 -1.72773 0
M  V30 1483 H 144.45 -6.42311 -2.20484 0
M  V30 1484 H 142.396 -5.15543 -4.05649 0
M  V30 1485 H 142.313 -6.75504 -3.39456 0
M  V30 1486 H 143.581 -6.35475 -4.51434 0
M  V30 1487 N 147.81 0.181792 -1.56548 0
M  V30 1488 C 148.72 1.24538 -1.98815 0
M  V30 1489 C 149.736 1.49045 -0.897861 0
M  V30 1490 O 150.912 1.61399 -1.20467 0
M  V30 1491 C 147.977 2.56683 -2.33055 0
M  V30 1492 C 147.038 2.40131 -3.55859 0
M  V30 1493 C 146.271 3.65975 -3.88456 0
M  V30 1494 O 146.494 4.70711 -3.22161 0
M  V30 1495 O 145.428 3.6071 -4.81842 0
M  V30 1496 H 149.254 0.916647 -2.89536 0
M  V30 1497 H 146.839 0.387842 -1.44278 0
M  V30 1498 H 148.721 3.34655 -2.56094 0
M  V30 1499 H 147.396 2.89157 -1.45498 0
M  V30 1500 H 146.303 1.60226 -3.38051 0
M  V30 1501 H 147.636 2.12585 -4.43924 0
M  V30 1502 N 149.288 1.51039 0.449983 0
M  V30 1503 C 150.198 1.74261 1.57067 0
M  V30 1504 C 151.214 0.626363 1.62335 0
M  V30 1505 O 152.39 0.907162 1.79812 0
M  V30 1506 C 149.455 1.85114 2.93144 0
M  V30 1507 C 148.516 3.0893 2.98095 0
M  V30 1508 C 147.749 3.19256 4.27681 0
M  V30 1509 O 147.972 2.35835 5.19363 0
M  V30 1510 O 146.906 4.12144 4.38658 0
M  V30 1511 H 150.732 2.69303 1.40391 0
M  V30 1512 H 148.317 1.35389 0.631688 0
M  V30 1513 H 150.199 1.94311 3.73926 0
M  V30 1514 H 148.874 0.932588 3.09975 0
M  V30 1515 H 147.781 3.0522 2.16314 0
M  V30 1516 H 149.114 4.00433 2.86206 0
M  V30 1517 N 150.766 -0.704594 1.40972 0
M  V30 1518 C 151.713 -1.81862 1.42109 0
M  V30 1519 C 152.683 -1.63781 0.276593 0
M  V30 1520 O 153.868 -1.84759 0.4763 0
M  V30 1521 C 151.008 -3.19669 1.30022 0
M  V30 1522 C 150.121 -3.49246 2.54267 0
M  V30 1523 C 149.256 -4.76618 2.3454 0
M  V30 1524 C 148.295 -4.99133 3.54306 0
M  V30 1525 N 147.432 -6.17726 3.33706 0
M  V30 1526 H 152.272 -1.80226 2.37324 0
M  V30 1527 H 149.809 -0.880238 1.17857 0
M  V30 1528 H 151.767 -3.99263 1.21018 0
M  V30 1529 H 150.397 -3.20506 0.384192 0
M  V30 1530 H 149.449 -2.64125 2.73756 0
M  V30 1531 H 150.761 -3.61788 3.43381 0
M  V30 1532 H 149.915 -5.64249 2.22952 0
M  V30 1533 H 148.654 -4.66305 1.42867 0
M  V30 1534 H 147.659 -4.09953 3.66359 0
M  V30 1535 H 148.884 -5.11311 4.4692 0
M  V30 1536 H 146.83 -6.08642 2.44725 0
M  V30 1537 H 146.747 -6.30995 4.16391 0
M  V30 1538 H 148.015 -7.08115 3.25873 0
M  V30 1539 N 152.244 -1.26651 -0.937939 0
M  V30 1540 C 153.49 -1.13562 -1.68746 0
M  V30 1541 C 153.845 0.317241 -1.89767 0
M  V30 1542 O 153.138 1.22939 -1.46957 0
M  V30 1543 C 153.332 -1.84168 -3.06295 0
M  V30 1544 C 153.161 -3.36171 -2.98696 0
M  V30 1545 C 151.931 -4.05468 -3.01535 0
M  V30 1546 C 154.129 -4.32312 -2.78588 0
M  V30 1547 N 152.111 -5.44118 -2.84269 0
M  V30 1548 C 153.482 -5.58159 -2.69924 0
M  V30 1549 C 155.537 -4.22524 -2.63396 0
M  V30 1550 C 154.24 -6.75335 -2.47618 0
M  V30 1551 C 156.266 -5.39411 -2.42466 0
M  V30 1552 C 155.628 -6.64208 -2.34536 0
M  V30 1553 H 151.727 -0.470361 -0.624728 0
M  V30 1554 H 154.311 -1.59982 -1.10968 0
M  V30 1555 H 152.482 -1.40219 -3.62206 0
M  V30 1556 H 154.214 -1.63674 -3.70126 0
M  V30 1557 H 150.969 -3.56854 -3.11372 0
M  V30 1558 H 151.393 -6.1693 -2.78795 0
M  V30 1559 H 156.035 -3.26771 -2.68292 0
M  V30 1560 H 153.753 -7.71182 -2.41463 0
M  V30 1561 H 157.339 -5.33711 -2.31611 0
M  V30 1562 H 156.219 -7.53129 -2.18555 0
M  V30 1563 N 153.722 1.14298 -1.08507 0
M  V30 1564 C 154.952 1.88945 -0.835663 0
M  V30 1565 C 155.36 1.78894 0.615928 0
M  V30 1566 O 154.703 1.1468 1.43506 0
M  V30 1567 C 154.765 3.39585 -1.17994 0
M  V30 1568 C 154.429 3.7342 -2.63451 0
M  V30 1569 C 155.426 3.73454 -3.61702 0
M  V30 1570 C 153.111 4.03368 -2.99332 0
M  V30 1571 C 155.105 4.02961 -4.93864 0
M  V30 1572 C 152.792 4.32538 -4.31687 0
M  V30 1573 C 153.79 4.32318 -5.28763 0
M  V30 1574 O 153.478 4.6078 -6.58739 0
M  V30 1575 H 153.21 0.605307 -0.300965 0
M  V30 1576 H 155.764 1.45673 -1.44806 0
M  V30 1577 H 153.994 3.83315 -0.51055 0
M  V30 1578 H 155.683 3.9554 -0.911182 0
M  V30 1579 H 156.449 3.50403 -3.35325 0
M  V30 1580 H 152.328 4.02692 -2.24411 0
M  V30 1581 H 155.872 4.02704 -5.69627 0
M  V30 1582 H 151.769 4.55059 -4.57812 0
M  V30 1583 H 152.537 4.78492 -6.64069 0
M  V30 1584 N 155.201 0.870884 1.31352 0
M  V30 1585 C 156.426 0.495957 2.01383 0
M  V30 1586 C 156.851 -0.904324 1.64935 0
M  V30 1587 O 156.209 -1.59687 0.858466 0
M  V30 1588 C 156.257 0.661433 3.54482 0
M  V30 1589 O 155.361 -0.298851 4.11316 0
M  V30 1590 H 154.702 0.197158 0.634054 0
M  V30 1591 H 157.232 1.17455 1.67527 0
M  V30 1592 H 157.242 0.555072 4.04207 0
M  V30 1593 H 155.917 1.68246 3.8035 0
M  V30 1594 H 154.494 -0.147368 3.72609 0
M  V30 1595 N 156.679 -1.44442 0.630414 0
M  V30 1596 C 157.589 -2.34476 -0.0761693 0
M  V30 1597 C 158.605 -1.52576 -0.836449 0
M  V30 1598 O 159.781 -1.85307 -0.788874 0
M  V30 1599 C 156.846 -3.30545 -1.04599 0
M  V30 1600 C 155.907 -4.28352 -0.28516 0
M  V30 1601 C 155.14 -5.19831 -1.20878 0
M  V30 1602 O 155.363 -5.15223 -2.44747 0
M  V30 1603 O 154.297 -5.97892 -0.693491 0
M  V30 1604 H 158.123 -2.96345 0.664324 0
M  V30 1605 H 155.708 -1.44203 0.39061 0
M  V30 1606 H 157.59 -3.89681 -1.60396 0
M  V30 1607 H 156.265 -2.7121 -1.76711 0
M  V30 1608 H 155.172 -3.72764 0.315837 0
M  V30 1609 H 156.505 -4.90605 0.395924 0
M  V30 1610 N 158.157 -0.370918 -1.53173 0
M  V30 1611 C 159.067 0.480823 -2.2962 0
M  V30 1612 C 160.083 1.08789 -1.35798 0
M  V30 1613 O 161.259 1.09768 -1.68858 0
M  V30 1614 C 158.324 1.60227 -3.07454 0
M  V30 1615 C 157.385 1.0222 -4.16953 0
M  V30 1616 C 156.618 2.0902 -4.91066 0
M  V30 1617 O 156.841 3.30222 -4.65091 0
M  V30 1618 O 155.775 1.71778 -5.76867 0
M  V30 1619 H 159.601 -0.141421 -3.03371 0
M  V30 1620 H 157.186 -0.135146 -1.48787 0
M  V30 1621 H 159.068 2.25417 -3.56041 0
M  V30 1622 H 157.743 2.20982 -2.36535 0
M  V30 1623 H 156.65 0.334064 -3.72605 0
M  V30 1624 H 157.983 0.459131 -4.90054 0
M  V30 1625 N 159.635 1.57281 -0.100228 0
M  V30 1626 C 160.565 2.17328 0.853857 0
M  V30 1627 C 161.546 1.10804 1.2906 0
M  V30 1628 O 162.731 1.38963 1.35657 0
M  V30 1629 C 159.861 2.75772 2.11109 0
M  V30 1630 C 158.815 3.87713 1.81279 0
M  V30 1631 C 158.141 4.32882 3.13874 0
M  V30 1632 C 159.441 5.10677 1.09574 0
M  V30 1633 H 161.135 2.97305 0.353545 0
M  V30 1634 H 158.681 1.43009 0.168612 0
M  V30 1635 H 160.634 3.16433 2.78296 0
M  V30 1636 H 159.358 1.93057 2.63432 0
M  V30 1637 H 158.017 3.476 1.16489 0
M  V30 1638 H 157.665 3.47051 3.64095 0
M  V30 1639 H 157.365 5.08358 2.94696 0
M  V30 1640 H 158.889 4.7618 3.82211 0
M  V30 1641 H 160.303 5.48474 1.66879 0
M  V30 1642 H 158.7 5.91615 1.00557 0
M  V30 1643 H 159.77 4.84835 0.0793299 0
M  V30 1644 N 161.113 -0.173488 1.56642 0
M  V30 1645 C 162.06 -1.21482 1.96242 0
M  V30 1646 C 163.03 -1.44104 0.826027 0
M  V30 1647 O 164.215 -1.5688 1.08597 0
M  V30 1648 C 161.355 -2.54964 2.32567 0
M  V30 1649 C 160.468 -2.39739 3.59373 0
M  V30 1650 C 159.603 -3.66072 3.84921 0
M  V30 1651 C 158.642 -3.45771 5.05083 0
M  V30 1652 N 157.779 -4.64169 5.26775 0
M  V30 1653 H 162.619 -0.870123 2.85014 0
M  V30 1654 H 160.156 -0.418245 1.41029 0
M  V30 1655 H 162.114 -3.32758 2.5165 0
M  V30 1656 H 160.744 -2.87433 1.46908 0
M  V30 1657 H 159.796 -1.53131 3.48217 0
M  V30 1658 H 161.108 -2.20683 4.47326 0
M  V30 1659 H 160.262 -4.52303 4.0436 0
M  V30 1660 H 159.001 -3.88105 2.9534 0
M  V30 1661 H 158.006 -2.57927 4.85545 0
M  V30 1662 H 159.231 -3.25163 5.96193 0
M  V30 1663 H 157.177 -4.86425 4.40144 0
M  V30 1664 H 157.094 -4.48019 6.08946 0
M  V30 1665 H 158.362 -5.51689 5.5069 0
M  V30 1666 N 162.591 -1.51276 -0.441967 0
M  V30 1667 C 163.538 -1.72256 -1.53612 0
M  V30 1668 C 164.508 -0.564164 -1.56225 0
M  V30 1669 O 165.693 -0.798074 -1.73307 0
M  V30 1670 C 162.833 -1.84932 -2.91366 0
M  V30 1671 C 161.946 -3.12459 -2.98317 0
M  V30 1672 C 161.081 -3.15758 -4.27166 0
M  V30 1673 C 160.12 -4.37619 -4.27967 0
M  V30 1674 N 159.257 -4.38493 -5.48333 0
M  V30 1675 H 164.097 -2.65654 -1.35026 0
M  V30 1676 H 161.634 -1.31662 -0.656009 0
M  V30 1677 H 163.592 -1.90263 -3.7129 0
M  V30 1678 H 162.222 -0.949461 -3.08521 0
M  V30 1679 H 161.274 -3.1646 -2.11086 0
M  V30 1680 H 162.586 -4.02382 -2.94771 0
M  V30 1681 H 161.74 -3.19979 -5.15459 0
M  V30 1682 H 160.479 -2.23715 -4.33362 0
M  V30 1683 H 159.484 -4.33579 -3.38067 0
M  V30 1684 H 160.709 -5.30921 -4.23438 0
M  V30 1685 H 158.655 -3.49318 -5.55259 0
M  V30 1686 H 158.572 -5.22219 -5.46647 0
M  V30 1687 H 159.84 -4.469 -6.38671 0
M  V30 1688 N 164.069 0.697108 -1.41344 0
M  V30 1689 C 164.979 1.84088 -1.45427 0
M  V30 1690 C 165.995 1.70545 -0.34501 0
M  V30 1691 O 167.171 1.92488 -0.592492 0
M  V30 1692 C 164.236 3.20056 -1.33286 0
M  V30 1693 C 163.297 3.45718 -2.54514 0
M  V30 1694 C 162.53 4.75199 -2.42944 0
M  V30 1695 O 162.753 5.51579 -1.45318 0
M  V30 1696 O 161.687 5.0161 -3.32672 0
M  V30 1697 H 165.513 1.836 -2.41919 0
M  V30 1698 H 163.098 0.849966 -1.22866 0
M  V30 1699 H 164.98 4.01236 -1.28794 0
M  V30 1700 H 163.655 3.2123 -0.39909 0
M  V30 1701 H 162.562 2.64474 -2.64583 0
M  V30 1702 H 163.895 3.49356 -3.46715 0
M  V30 1703 N 165.547 1.27147 0.931209 0
M  V30 1704 C 166.477 1.12081 2.04842 0
M  V30 1705 C 167.458 0.0232364 1.70084 0
M  V30 1706 O 168.643 0.197085 1.93197 0
M  V30 1707 C 165.773 0.76354 3.38803 0
M  V30 1708 C 164.727 1.81396 3.87659 0
M  V30 1709 C 164.053 1.31075 5.18385 0
M  V30 1710 C 165.353 3.21739 4.11438 0
M  V30 1711 H 167.047 2.05537 2.17703 0
M  V30 1712 H 164.593 0.989603 1.04608 0
M  V30 1713 H 166.546 0.644982 4.16435 0
M  V30 1714 H 165.27 -0.206727 3.25945 0
M  V30 1715 H 163.929 1.92136 3.12217 0
M  V30 1716 H 163.577 0.330037 5.01916 0
M  V30 1717 H 163.277 2.013 5.52044 0
M  V30 1718 H 164.801 1.20506 5.98591 0
M  V30 1719 H 166.215 3.14019 4.79651 0
M  V30 1720 H 164.612 3.89644 4.56397 0
M  V30 1721 H 165.682 3.67054 3.16859 0
M  V30 1722 N 167.025 -1.13721 1.09112 0
M  V30 1723 C 167.935 -2.22638 0.73957 0
M  V30 1724 C 168.951 -1.72091 -0.257068 0
M  V30 1725 O 170.127 -2.01155 -0.0992154 0
M  V30 1726 C 167.192 -3.46322 0.16191 0
M  V30 1727 C 166.253 -4.11775 1.21408 0
M  V30 1728 C 165.486 -5.29555 0.663891 0
M  V30 1729 O 165.709 -5.68077 -0.514274 0
M  V30 1730 O 164.643 -5.84973 1.41738 0
M  V30 1731 H 168.469 -2.55074 1.64836 0
M  V30 1732 H 166.054 -1.21791 0.865289 0
M  V30 1733 H 167.936 -4.21107 -0.157073 0
M  V30 1734 H 166.611 -3.15593 -0.719932 0
M  V30 1735 H 165.518 -3.3883 1.58571 0
M  V30 1736 H 166.851 -4.46627 2.06845 0
M  V30 1737 N 168.503 -0.877838 -1.30888 0
M  V30 1738 C 169.45 -0.337538 -2.28318 0
M  V30 1739 C 170.42 0.568346 -1.56074 0
M  V30 1740 O 171.605 0.498298 -1.84178 0
M  V30 1741 C 168.745 0.448142 -3.42178 0
M  V30 1742 C 167.858 -0.48615 -4.29256 0
M  V30 1743 C 166.993 0.314427 -5.30269 0
M  V30 1744 C 166.032 -0.615791 -6.08995 0
M  V30 1745 N 165.169 0.14902 -7.01942 0
M  V30 1746 H 170.009 -1.17356 -2.73919 0
M  V30 1747 H 167.546 -0.590094 -1.34745 0
M  V30 1748 H 169.504 0.919517 -4.06941 0
M  V30 1749 H 168.134 1.24879 -2.97666 0
M  V30 1750 H 167.186 -1.076 -3.64865 0
M  V30 1751 H 168.498 -1.19909 -4.84173 0
M  V30 1752 H 167.652 0.847969 -6.00745 0
M  V30 1753 H 166.391 1.06062 -4.76027 0
M  V30 1754 H 165.396 -1.16102 -5.37401 0
M  V30 1755 H 166.621 -1.36097 -6.65323 0
M  V30 1756 H 164.567 0.877884 -6.50099 0
M  V30 1757 H 164.484 -0.504433 -7.54315 0
M  V30 1758 H 165.752 0.663537 -7.76671 0
M  V30 1759 N 169.982 1.44106 -0.638065 0
M  V30 1760 C 171.212 2.06037 -0.152394 0
M  V30 1761 C 171.62 1.47808 1.18108 0
M  V30 1762 O 170.963 0.598092 1.73691 0
M  V30 1763 C 171.025 3.59488 0.0293714 0
M  V30 1764 C 170.689 4.4022 -1.22702 0
M  V30 1765 C 171.686 4.73256 -2.15232 0
M  V30 1766 C 169.371 4.8048 -1.46437 0
M  V30 1767 C 171.365 5.45444 -3.29802 0
M  V30 1768 C 169.052 5.52417 -2.61303 0
M  V30 1769 C 170.05 5.84819 -3.52811 0
M  V30 1770 O 169.738 6.55289 -4.65673 0
M  V30 1771 H 169.47 0.671233 -0.0801401 0
M  V30 1772 H 172.024 1.85851 -0.874563 0
M  V30 1773 H 170.254 3.78191 0.806758 0
M  V30 1774 H 171.943 4.03164 0.470475 0
M  V30 1775 H 172.709 4.42684 -1.98131 0
M  V30 1776 H 168.588 4.54676 -0.760977 0
M  V30 1777 H 172.132 5.70653 -4.01249 0
M  V30 1778 H 168.029 5.82404 -2.78344 0
M  V30 1779 H 168.797 6.73762 -4.64744 0
M  V30 1780 N 171.46 0.379036 1.52974 0
M  V30 1781 C 172.392 -0.495963 2.2377 0
M  V30 1782 C 173.405 -1.03517 1.25651 0
M  V30 1783 O 174.594 -0.939249 1.51791 0
M  V30 1784 C 171.694 -1.69894 2.93239 0
M  V30 1785 C 170.867 -1.2889 4.17979 0
M  V30 1786 C 169.926 -2.35543 4.70538 0
M  V30 1787 O 168.952 -1.97375 5.33883 0
M  V30 1788 N 170.154 -3.67318 4.49508 0
M  V30 1789 H 172.919 0.110523 2.99496 0
M  V30 1790 H 170.48 0.204878 1.60598 0
M  V30 1791 H 172.472 -2.40747 3.25304 0
M  V30 1792 H 171.042 -2.212 2.20883 0
M  V30 1793 H 170.262 -0.409676 3.92065 0
M  V30 1794 H 171.55 -0.991443 4.99047 0
M  V30 1795 H 170.948 -4.01095 3.98923 0
M  V30 1796 H 169.505 -4.34235 4.8609 0
M  V30 1797 N 172.938 -1.57226 0.108567 0
M  V30 1798 C 174.186 -1.94448 -0.550853 0
M  V30 1799 C 174.507 -0.992074 -1.67878 0
M  V30 1800 O 173.777 -0.0465 -1.95845 0
M  V30 1801 H 172.357 -0.717897 -0.206479 0
M  V30 1802 H 175.019 -1.94112 0.175062 0
M  V30 1803 H 174.115 -2.97218 -0.952259 0
M  V30 1804 N 174.416 0.165178 -1.56732 0
M  V30 1805 C 175.346 1.20651 -1.99914 0
M  V30 1806 C 176.327 1.45827 -0.875705 0
M  V30 1807 O 177.512 1.57057 -1.14223 0
M  V30 1808 C 174.642 2.54401 -2.36427 0
M  V30 1809 C 173.596 2.43782 -3.51787 0
M  V30 1810 C 172.922 3.82078 -3.7406 0
M  V30 1811 C 174.222 1.93732 -4.85041 0
M  V30 1812 H 175.916 0.847534 -2.87154 0
M  V30 1813 H 173.462 0.40625 -1.38151 0
M  V30 1814 H 175.415 3.27458 -2.65234 0
M  V30 1815 H 174.139 2.92098 -1.46103 0
M  V30 1816 H 172.798 1.73178 -3.23117 0
M  V30 1817 H 172.446 4.17179 -2.81017 0
M  V30 1818 H 172.146 3.7584 -4.51684 0
M  V30 1819 H 173.67 4.56712 -4.05274 0
M  V30 1820 H 175.084 2.56569 -5.12684 0
M  V30 1821 H 173.481 1.98428 -5.66345 0
M  V30 1822 H 174.551 0.891962 -4.76626 0
M  V30 1823 N 175.894 1.51508 0.433938 0
M  V30 1824 C 176.826 1.69266 1.54537 0
M  V30 1825 C 177.839 0.573276 1.52373 0
M  V30 1826 O 179.028 0.847698 1.57087 0
M  V30 1827 C 176.128 1.69524 2.93453 0
M  V30 1828 C 175.301 2.98101 3.20085 0
M  V30 1829 C 174.36 2.90502 4.38742 0
M  V30 1830 O 173.386 3.64442 4.3723 0
M  V30 1831 N 174.588 2.06586 5.42496 0
M  V30 1832 H 177.353 2.65145 1.39708 0
M  V30 1833 H 174.914 1.49437 0.622922 0
M  V30 1834 H 176.906 1.62004 3.70859 0
M  V30 1835 H 175.476 0.812245 3.01863 0
M  V30 1836 H 174.696 3.19464 2.30947 0
M  V30 1837 H 175.984 3.83207 3.34708 0
M  V30 1838 H 175.382 1.45896 5.46563 0
M  V30 1839 H 173.939 2.04943 6.18742 0
M  V30 1840 N 177.372 -0.689602 1.41712 0
M  V30 1841 C 178.304 -1.815 1.39966 0
M  V30 1842 C 179.317 -1.59995 0.300917 0
M  V30 1843 O 180.506 -1.69387 0.563039 0
M  V30 1844 C 177.606 -3.18364 1.16179 0
M  V30 1845 C 176.779 -3.66847 2.38206 0
M  V30 1846 C 175.838 -4.82398 2.10186 0
M  V30 1847 O 174.864 -4.93706 2.83272 0
M  V30 1848 N 176.066 -5.70064 1.0958 0
M  V30 1849 H 178.831 -1.83488 2.36965 0
M  V30 1850 H 176.392 -0.872149 1.36401 0
M  V30 1851 H 178.384 -3.93301 0.953756 0
M  V30 1852 H 176.954 -3.11365 0.27756 0
M  V30 1853 H 176.174 -2.82751 2.74673 0
M  V30 1854 H 177.462 -3.95978 3.19498 0
M  V30 1855 H 176.86 -5.63565 0.491019 0
M  V30 1856 H 175.417 -6.44874 0.947656 0
M  V30 1857 N 178.85 -1.27639 -0.924453 0
M  V30 1858 C 179.782 -1.06442 -2.02985 0
M  V30 1859 C 180.795 -0.0194771 -1.62788 0
M  V30 1860 O 181.984 -0.261388 -1.76576 0
M  V30 1861 C 179.084 -0.59327 -3.33667 0
M  V30 1862 C 178.257 -1.71123 -4.02537 0
M  V30 1863 C 177.316 -1.23527 -5.11495 0
M  V30 1864 O 176.342 -1.93553 -5.35281 0
M  V30 1865 N 177.544 -0.0926678 -5.80426 0
M  V30 1866 H 180.309 -2.01633 -2.2173 0
M  V30 1867 H 177.87 -1.19248 -1.09505 0
M  V30 1868 H 179.862 -0.258686 -4.03872 0
M  V30 1869 H 178.432 0.265502 -3.1147 0
M  V30 1870 H 177.652 -2.21593 -3.26022 0
M  V30 1871 H 178.94 -2.46145 -4.45298 0
M  V30 1872 H 178.338 0.491741 -5.63559 0
M  V30 1873 H 176.895 0.182714 -6.51544 0
M  V30 1874 N 180.328 1.1314 -1.09713 0
M  V30 1875 C 181.238 2.22242 -0.751367 0
M  V30 1876 C 182.254 1.72224 0.247938 0
M  V30 1877 O 183.43 2.01205 0.0885463 0
M  V30 1878 C 180.495 3.46231 -0.180274 0
M  V30 1879 C 179.556 4.11125 -1.2359 0
M  V30 1880 C 178.789 5.29195 -0.691966 0
M  V30 1881 O 179.012 5.68342 0.48414 0
M  V30 1882 O 177.946 5.84214 -1.44838 0
M  V30 1883 H 181.772 2.54197 -1.66186 0
M  V30 1884 H 179.357 1.21331 -0.871735 0
M  V30 1885 H 181.239 4.21185 0.134739 0
M  V30 1886 H 179.914 3.1597 0.703185 0
M  V30 1887 H 178.821 3.37985 -1.60366 0
M  V30 1888 H 180.154 4.45524 -2.09211 0
M  V30 1889 N 181.806 0.884767 1.30421 0
M  V30 1890 C 182.769 0.356277 2.26414 0
M  V30 1891 C 183.769 -0.501124 1.52792 0
M  V30 1892 O 184.959 -0.30831 1.7145 0
M  V30 1893 C 182.091 -0.492316 3.37326 0
M  V30 1894 H 183.284 1.20389 2.74675 0
M  V30 1895 H 180.837 0.661607 1.41607 0
M  V30 1896 H 181.572 -1.36052 2.94381 0
M  V30 1897 H 181.357 0.121832 3.91911 0
M  V30 1898 H 182.847 -0.853871 4.08777 0
M  V30 1899 N 183.284 -1.43765 0.645699 0
M  V30 1900 C 184.231 -2.30745 -0.0504648 0
M  V30 1901 C 185.201 -1.4432 -0.822241 0
M  V30 1902 O 186.386 -1.73202 -0.800358 0
M  V30 1903 C 183.526 -3.29802 -1.0161 0
M  V30 1904 C 182.639 -4.31326 -0.241219 0
M  V30 1905 C 181.774 -5.17469 -1.19998 0
M  V30 1906 C 180.813 -6.10691 -0.415094 0
M  V30 1907 N 179.95 -6.89483 -1.32506 0
M  V30 1908 H 184.79 -2.8973 0.697155 0
M  V30 1909 H 182.327 -1.42738 0.355563 0
M  V30 1910 H 184.285 -3.85734 -1.58949 0
M  V30 1911 H 182.915 -2.72483 -1.73069 0
M  V30 1912 H 181.967 -3.77749 0.448334 0
M  V30 1913 H 183.279 -4.9743 0.369437 0
M  V30 1914 H 182.433 -5.7799 -1.84424 0
M  V30 1915 H 181.172 -4.51473 -1.84455 0
M  V30 1916 H 180.177 -5.49265 0.242565 0
M  V30 1917 H 181.402 -6.78727 0.224966 0
M  V30 1918 H 179.348 -6.26142 -1.95657 0
M  V30 1919 H 179.265 -7.52081 -0.768783 0
M  V30 1920 H 180.533 -7.54516 -1.9577 0
M  V30 1921 N 184.763 -0.387143 -1.52771 0
M  V30 1922 C 186.174 0.0873634 -1.86495 0
M  V30 1923 C 186.525 1.46336 -1.30691 0
M  V30 1924 O 185.65 2.068 -0.637409 0
M  V30 1925 C 186.245 0.165305 -3.38396 0
M  V30 1926 C 184.804 0.584101 -3.7184 0
M  V30 1927 C 183.951 -0.255279 -2.76122 0
M  V30 1928 H 186.902 -0.605104 -1.46711 0
M  V30 1929 H 186.923 0.984848 -3.67534 0
M  V30 1930 H 186.435 -0.836301 -3.78982 0
M  V30 1931 H 184.536 1.59315 -3.36823 0
M  V30 1932 H 184.649 0.343749 -4.77865 0
M  V30 1933 H 183.013 0.279126 -2.53166 0
M  V30 1934 H 183.796 -1.25482 -3.19545 0
M  V30 1935 N 186.241 1.57166 -0.116904 0
M  V30 1936 C 187.518 1.86645 0.585049 0
M  V30 1937 C 187.898 1.0177 1.84949 0
M  V30 1938 O 187.246 0.0960379 2.28298 0
M  V30 1939 C 187.456 3.37736 0.879507 0
M  V30 1940 C 188.804 4.06289 1.23348 0
M  V30 1941 O 189.828 3.42743 0.969836 0
M  V30 1942 O 188.687 5.18455 1.7282 0
M  V30 1943 H 185.781 0.772593 0.295007 0
M  V30 1944 H 188.327 1.69025 -0.151249 0
M  V30 1945 H 187.099 3.91296 -0.0166136 0
M  V30 1946 H 186.722 3.6078 1.67103 0
M  V30 1947 N 187.719 -0.156864 1.56817 0
M  V30 1948 C 188.967 -0.869404 1.82444 0
M  V30 1949 C 189.288 -1.82147 0.69623 0
M  V30 1950 O 188.558 -1.93847 -0.28287 0
M  V30 1951 H 187.138 -0.324043 0.673056 0
M  V30 1952 H 189.8 -0.153224 1.94297 0
M  V30 1953 H 188.896 -1.43761 2.77019 0
M  V30 1954 N 189.197 -1.51736 -0.425897 0
M  V30 1955 C 190.127 -1.76827 -1.52494 0
M  V30 1956 C 191.108 -0.618524 -1.58456 0
M  V30 1957 O 192.293 -0.862416 -1.74 0
M  V30 1958 C 189.423 -1.90374 -2.90474 0
M  V30 1959 C 188.377 -3.0588 -2.99369 0
M  V30 1960 C 187.703 -3.04625 -4.3944 0
M  V30 1961 C 189.003 -4.45644 -2.72394 0
M  V30 1962 H 190.697 -2.68855 -1.31748 0
M  V30 1963 H 188.243 -1.29372 -0.632362 0
M  V30 1964 H 190.196 -2.0651 -3.6733 0
M  V30 1965 H 188.92 -0.95004 -3.12477 0
M  V30 1966 H 187.579 -2.89467 -2.24954 0
M  V30 1967 H 187.227 -2.0701 -4.58428 0
M  V30 1968 H 186.927 -3.82195 -4.46319 0
M  V30 1969 H 188.451 -3.22869 -5.18255 0
M  V30 1970 H 189.865 -4.62348 -3.38979 0
M  V30 1971 H 188.262 -5.25006 -2.9067 0
M  V30 1972 H 189.332 -4.54893 -1.67929 0
M  V30 1973 N 190.675 0.682077 -1.42076 0
M  V30 1974 C 191.921 1.44428 -1.42367 0
M  V30 1975 C 192.254 1.94164 -0.0373056 0
M  V30 1976 O 191.529 1.70429 0.937239 0
M  V30 1977 C 191.812 2.64654 -2.44194 0
M  V30 1978 C 191.665 2.20596 -3.91991 0
M  V30 1979 C 192.984 3.66865 -2.431 0
M  V30 1980 H 190.103 0.523834 -0.518428 0
M  V30 1981 H 192.745 0.77576 -1.73442 0
M  V30 1982 H 190.895 3.2169 -2.17826 0
M  V30 1983 H 192.567 1.68783 -4.29313 0
M  V30 1984 H 190.81 1.52242 -4.06208 0
M  V30 1985 H 191.481 3.06921 -4.58807 0
M  V30 1986 H 193.957 3.19531 -2.66532 0
M  V30 1987 H 192.833 4.48577 -3.16339 0
M  V30 1988 H 193.094 4.17493 -1.45437 0
M  V30 1989 N 192.153 1.28127 0.917671 0
M  V30 1990 C 193.381 1.17892 1.70026 0
M  V30 1991 C 193.796 -0.262958 1.8696 0
M  V30 1992 O 193.153 -1.17811 1.3938 0
M  V30 1993 C 193.204 1.86872 3.09453 0
M  V30 1994 O 192.925 3.25428 2.93306 0
M  V30 1995 C 194.426 1.8289 4.03815 0
M  V30 1996 H 191.646 0.40942 0.531617 0
M  V30 1997 H 194.19 1.69181 1.14883 0
M  V30 1998 H 192.345 1.39464 3.61426 0
M  V30 1999 H 192.759 3.59918 3.81523 0
M  V30 2000 H 194.233 2.35751 4.99125 0
M  V30 2001 H 194.71 0.800412 4.31845 0
M  V30 2002 H 195.316 2.29959 3.57769 0
M  V30 2003 N 193.631 -1.12557 1.10312 0
M  V30 2004 C 194.908 -1.80363 0.756878 0
M  V30 2005 C 195.288 -1.97067 -0.756824 0
M  V30 2006 O 194.636 -1.54601 -1.68259 0
M  V30 2007 C 194.846 -3.14812 1.50647 0
M  V30 2008 C 196.194 -3.90029 1.67817 0
M  V30 2009 O 197.218 -3.24464 1.46974 0
M  V30 2010 O 196.077 -5.07652 2.02365 0
M  V30 2011 H 193.171 -0.780667 0.272926 0
M  V30 2012 H 195.717 -1.19404 1.20586 0
M  V30 2013 H 194.489 -2.97936 2.53672 0
M  V30 2014 H 194.112 -3.83478 1.05026 0
M  V30 2015 N 195.109 -0.891671 -1.2995 0
M  V30 2016 C 196.334 -0.527932 -2.00568 0
M  V30 2017 C 196.759 0.877969 -1.66353 0
M  V30 2018 O 196.117 1.58301 -0.883762 0
M  V30 2019 C 196.165 -0.717745 -3.53385 0
M  V30 2020 O 195.269 0.233376 -4.11739 0
M  V30 2021 H 194.61 -0.20722 -0.630837 0
M  V30 2022 H 197.14 -1.20105 -1.65638 0
M  V30 2023 H 197.15 -0.619307 -4.03272 0
M  V30 2024 H 195.825 -1.74276 -3.77625 0
M  V30 2025 H 194.402 0.0880706 -3.72796 0
M  V30 2026 N 196.587 1.43421 -0.653314 0
M  V30 2027 C 197.812 2.06678 -0.172846 0
M  V30 2028 C 198.237 1.48648 1.15262 0
M  V30 2029 O 197.595 0.596457 1.71208 0
M  V30 2030 C 197.643 3.60474 -0.0953184 0
M  V30 2031 O 196.747 4.01487 0.942442 0
M  V30 2032 H 196.088 0.657181 -0.0949155 0
M  V30 2033 H 198.618 1.83925 -0.896265 0
M  V30 2034 H 198.628 4.07905 0.0879728 0
M  V30 2035 H 197.303 4.02088 -1.06291 0
M  V30 2036 H 195.88 3.65646 0.731932 0
M  V30 2037 N 198.065 0.39524 1.52563 0
M  V30 2038 C 199.028 -0.425001 2.25225 0
M  V30 2039 C 200.028 -0.985266 1.27079 0
M  V30 2040 O 201.218 -0.866332 1.5113 0
M  V30 2041 C 198.35 -1.59686 3.01186 0
M  V30 2042 H 199.543 0.211233 2.99155 0
M  V30 2043 H 197.096 0.147472 1.55603 0
M  V30 2044 H 197.831 -2.27035 2.31572 0
M  V30 2045 H 197.616 -1.20176 3.73229 0
M  V30 2046 H 199.106 -2.17743 3.5634 0
M  V30 2047 N 199.544 -1.57102 0.125237 0
M  V30 2048 C 200.454 -2.19191 -0.8362 0
M  V30 2049 C 201.47 -1.16985 -1.28805 0
M  V30 2050 O 202.646 -1.49479 -1.34974 0
M  V30 2051 C 199.711 -2.78407 -2.06617 0
M  V30 2052 C 198.772 -3.9567 -1.66565 0
M  V30 2053 C 198.005 -4.52052 -2.83698 0
M  V30 2054 O 198.228 -4.07326 -3.99302 0
M  V30 2055 O 197.162 -5.42645 -2.60423 0
M  V30 2056 H 200.988 -3.01816 -0.337776 0
M  V30 2057 H 198.573 -1.4906 -0.100695 0
M  V30 2058 H 200.455 -3.16129 -2.7864 0
M  V30 2059 H 199.13 -1.9881 -2.55453 0
M  V30 2060 H 198.037 -3.62705 -0.916296 0
M  V30 2061 H 199.37 -4.76722 -1.22464 0
M  V30 2062 N 201.022 0.148545 -1.56898 0
M  V30 2063 C 201.952 1.18524 -2.01182 0
M  V30 2064 C 202.933 1.4489 -0.891123 0
M  V30 2065 O 204.118 1.55836 -1.15882 0
M  V30 2066 C 201.248 2.51879 -2.39112 0
M  V30 2067 C 200.202 2.40038 -3.54353 0
M  V30 2068 C 199.528 3.78089 -3.78091 0
M  V30 2069 C 200.828 1.88577 -4.87069 0
M  V30 2070 H 202.522 0.817029 -2.88036 0
M  V30 2071 H 200.068 0.391575 -1.38574 0
M  V30 2072 H 202.021 3.24627 -2.68692 0
M  V30 2073 H 200.745 2.90532 -1.49193 0
M  V30 2074 H 199.404 1.69742 -3.24936 0
M  V30 2075 H 199.052 4.14175 -2.85426 0
M  V30 2076 H 198.752 3.71028 -4.55645 0
M  V30 2077 H 200.276 4.52387 -4.10095 0
M  V30 2078 H 201.69 2.51117 -5.15377 0
M  V30 2079 H 200.087 1.9241 -5.68417 0
M  V30 2080 H 201.157 0.84136 -4.77545 0
M  V30 2081 N 202.5 1.5196 0.417844 0
M  V30 2082 C 203.432 1.70895 1.52733 0
M  V30 2083 C 204.445 0.589405 1.51756 0
M  V30 2084 O 205.634 0.864312 1.56179 0
M  V30 2085 C 202.734 1.72627 2.91639 0
M  V30 2086 C 201.907 3.01479 3.16905 0
M  V30 2087 C 200.966 2.95139 4.35637 0
M  V30 2088 O 199.992 3.69059 4.3334 0
M  V30 2089 N 201.194 2.12328 5.40275 0
M  V30 2090 H 203.959 2.66612 1.36888 0
M  V30 2091 H 201.52 1.50089 0.607037 0
M  V30 2092 H 203.512 1.65928 3.6912 0
M  V30 2093 H 202.082 0.844216 3.00985 0
M  V30 2094 H 201.302 3.21895 2.27546 0
M  V30 2095 H 202.59 3.86736 3.30625 0
M  V30 2096 H 201.988 1.51685 5.44985 0
M  V30 2097 H 200.545 2.11494 6.16534 0
M  V30 2098 N 203.978 -0.674533 1.42435 0
M  V30 2099 C 205.203 -1.46784 1.46524 0
M  V30 2100 C 205.628 -1.87938 0.078066 0
M  V30 2101 O 204.986 -1.56014 -0.92354 0
M  V30 2102 C 205.034 -2.69307 2.39805 0
M  V30 2103 O 204.138 -3.67587 1.86959 0
M  V30 2104 H 203.479 -0.440959 0.496439 0
M  V30 2105 H 206.009 -0.827326 1.87127 0
M  V30 2106 H 206.019 -3.17374 2.56393 0
M  V30 2107 H 204.694 -2.38692 3.40586 0
M  V30 2108 H 203.271 -3.2662 1.79927 0
M  V30 2109 N 205.456 -1.28612 -0.910864 0
M  V30 2110 C 206.386 -1.15326 -2.03032 0
M  V30 2111 C 207.367 -0.0502924 -1.70026 0
M  V30 2112 O 208.552 -0.227797 -1.92859 0
M  V30 2113 C 205.682 -0.817343 -3.37545 0
M  V30 2114 C 204.636 -1.8754 -3.84724 0
M  V30 2115 C 203.962 -1.39305 -5.16235 0
M  V30 2116 C 205.262 -3.28244 -4.06267 0
M  V30 2117 H 206.956 -2.08975 -2.14406 0
M  V30 2118 H 204.502 -1.00612 -1.03021 0
M  V30 2119 H 206.455 -0.711151 -4.15356 0
M  V30 2120 H 205.179 0.154846 -3.26233 0
M  V30 2121 H 203.838 -1.97079 -3.09121 0
M  V30 2122 H 203.486 -0.409846 -5.01328 0
M  V30 2123 H 203.186 -2.10057 -5.48771 0
M  V30 2124 H 204.71 -1.30014 -5.96598 0
M  V30 2125 H 206.124 -3.21611 -4.74594 0
M  V30 2126 H 204.521 -3.96855 -4.5014 0
M  V30 2127 H 205.591 -3.72048 -3.10979 0
M  V30 2128 N 206.934 1.1197 -1.10907 0
M  V30 2129 C 207.844 2.21433 -0.774896 0
M  V30 2130 C 208.86 1.72478 0.229657 0
M  V30 2131 O 210.036 2.01288 0.0672008 0
M  V30 2132 C 207.101 3.4602 -0.216986 0
M  V30 2133 C 206.162 4.09791 -1.27944 0
M  V30 2134 C 205.395 5.28431 -0.748055 0
M  V30 2135 O 205.618 5.68823 0.423833 0
M  V30 2136 O 204.552 5.82644 -1.51027 0
M  V30 2137 H 208.378 2.5242 -1.68873 0
M  V30 2138 H 205.963 1.20399 -0.884555 0
M  V30 2139 H 207.845 4.21304 0.090059 0
M  V30 2140 H 206.52 3.16698 0.669633 0
M  V30 2141 H 205.427 3.36265 -1.63941 0
M  V30 2142 H 206.76 4.4328 -2.13925 0
M  V30 2143 N 208.412 0.89855 1.29475 0
M  V30 2144 C 209.344 0.332726 2.26772 0
M  V30 2145 C 210.357 -0.520323 1.54261 0
M  V30 2146 O 211.546 -0.337668 1.75277 0
M  V30 2147 C 208.646 -0.544334 3.345 0
M  V30 2148 C 207.819 0.282728 4.36485 0
M  V30 2149 C 206.878 -0.526982 5.23555 0
M  V30 2150 O 205.904 0.0551165 5.69173 0
M  V30 2151 N 207.106 -1.83331 5.5079 0
M  V30 2152 H 209.871 1.16897 2.75962 0
M  V30 2153 H 207.432 0.762919 1.42798 0
M  V30 2154 H 209.424 -1.09239 3.89678 0
M  V30 2155 H 207.994 -1.28127 2.85136 0
M  V30 2156 H 207.214 1.01221 3.80983 0
M  V30 2157 H 208.502 0.84918 5.01664 0
M  V30 2158 H 207.9 -2.32898 5.15534 0
M  V30 2159 H 206.457 -2.32852 6.08788 0
M  V30 2160 N 209.89 -1.43072 0.660911 0
M  V30 2161 C 210.822 -2.29108 -0.0647641 0
M  V30 2162 C 211.835 -1.42928 -0.779448 0
M  V30 2163 O 213.024 -1.66788 -0.635921 0
M  V30 2164 C 210.124 -3.20032 -1.11503 0
M  V30 2165 C 209.297 -4.34792 -0.476955 0
M  V30 2166 C 208.356 -5.06534 -1.42513 0
M  V30 2167 O 207.382 -5.61538 -0.930771 0
M  V30 2168 N 208.584 -5.1075 -2.75889 0
M  V30 2169 H 211.349 -2.92029 0.673731 0
M  V30 2170 H 208.91 -1.53846 0.50427 0
M  V30 2171 H 210.902 -3.64892 -1.75032 0
M  V30 2172 H 209.472 -2.58658 -1.75541 0
M  V30 2173 H 208.692 -3.92752 0.337572 0
M  V30 2174 H 209.98 -5.0879 -0.0318525 0
M  V30 2175 H 209.378 -4.67447 -3.18606 0
M  V30 2176 H 207.935 -5.59302 -3.347 0
M  V30 2177 N 211.368 -0.403325 -1.52352 0
M  V30 2178 C 212.298 0.416205 -2.29761 0
M  V30 2179 C 213.279 1.05123 -1.33728 0
M  V30 2180 O 214.464 1.06134 -1.62632 0
M  V30 2181 C 211.594 1.53624 -3.11475 0
M  V30 2182 C 210.548 1.02653 -4.15507 0
M  V30 2183 C 209.874 2.23971 -4.85532 0
M  V30 2184 C 211.174 0.08463 -5.22231 0
M  V30 2185 H 212.868 -0.229701 -2.98518 0
M  V30 2186 H 210.414 -0.111913 -1.43564 0
M  V30 2187 H 212.367 2.1165 -3.64393 0
M  V30 2188 H 211.091 2.20994 -2.40477 0
M  V30 2189 H 209.75 0.46871 -3.63591 0
M  V30 2190 H 209.398 2.89883 -4.11068 0
M  V30 2191 H 209.098 1.90521 -5.55856 0
M  V30 2192 H 210.622 2.82614 -5.41259 0
M  V30 2193 H 212.036 0.573509 -5.70424 0
M  V30 2194 H 210.433 -0.160783 -5.99885 0
M  V30 2195 H 211.503 -0.86237 -4.7717 0
M  V30 2196 N 212.846 1.57033 -0.133567 0
M  V30 2197 C 213.756 2.19632 0.824564 0
M  V30 2198 C 214.772 1.17666 1.28182 0
M  V30 2199 O 215.948 1.50193 1.3418 0
M  V30 2200 C 213.013 2.79499 2.05137 0
M  V30 2201 C 212.074 3.96548 1.64464 0
M  V30 2202 C 211.307 4.5355 2.81297 0
M  V30 2203 O 211.53 4.09438 3.97136 0
M  V30 2204 O 210.464 5.44018 2.57542 0
M  V30 2205 H 214.29 3.01991 0.321766 0
M  V30 2206 H 211.875 1.49112 0.0927889 0
M  V30 2207 H 213.757 3.17602 2.7696 0
M  V30 2208 H 212.432 2.00162 2.54395 0
M  V30 2209 H 211.339 3.63186 0.897048 0
M  V30 2210 H 212.672 4.77364 1.19934 0
M  V30 2211 N 214.325 -0.140222 1.56975 0
M  V30 2212 C 215.235 -1.19223 2.02047 0
M  V30 2213 C 216.251 -1.46612 0.937062 0
M  V30 2214 O 217.427 -1.58148 1.24704 0
M  V30 2215 C 214.492 -2.50414 2.39778 0
M  V30 2216 C 213.553 -2.30612 3.621 0
M  V30 2217 C 212.786 -3.55547 3.98023 0
M  V30 2218 O 213.009 -4.62004 3.34528 0
M  V30 2219 O 211.943 -3.47808 4.91237 0
M  V30 2220 H 215.769 -0.839559 2.91865 0
M  V30 2221 H 213.354 -0.349453 1.45256 0
M  V30 2222 H 215.236 -3.27747 2.64877 0
M  V30 2223 H 213.911 -2.85198 1.53114 0
M  V30 2224 H 212.818 -1.51207 3.4218 0
M  V30 2225 H 214.151 -2.00741 4.49404 0
M  V30 2226 N 215.803 -1.52179 -0.40978 0
M  V30 2227 C 216.766 -1.74853 -1.48186 0
M  V30 2228 C 217.766 -0.618417 -1.48433 0
M  V30 2229 O 218.956 -0.886286 -1.49969 0
M  V30 2230 C 216.088 -1.8303 -2.87598 0
M  V30 2231 H 217.281 -2.70559 -1.29374 0
M  V30 2232 H 214.834 -1.42586 -0.640233 0
M  V30 2233 H 215.569 -0.89236 -3.11781 0
M  V30 2234 H 215.354 -2.65187 -2.88822 0
M  V30 2235 H 216.844 -2.02316 -3.65319 0
M  V30 2236 N 217.281 0.66697 -1.42791 0
M  V30 2237 C 218.213 1.7925 -1.42836 0
M  V30 2238 C 219.226 1.59496 -0.326333 0
M  V30 2239 O 220.415 1.6847 -0.589916 0
M  V30 2240 C 217.515 3.16476 -1.21229 0
M  V30 2241 C 216.688 3.63011 -2.44013 0
M  V30 2242 C 215.747 4.78993 -2.17834 0
M  V30 2243 O 214.773 4.89137 -2.91091 0
M  V30 2244 N 215.975 5.68248 -1.18635 0
M  V30 2245 H 218.74 1.79695 -2.39854 0
M  V30 2246 H 216.301 0.850338 -1.37771 0
M  V30 2247 H 218.293 3.91734 -1.01621 0
M  V30 2248 H 216.863 3.10884 -0.32706 0
M  V30 2249 H 216.083 2.78346 -2.79137 0
M  V30 2250 H 217.371 3.90845 -3.25757 0
M  V30 2251 H 216.769 5.62712 -0.580615 0
M  V30 2252 H 215.326 6.43285 -1.05013 0
M  V30 2253 N 218.759 1.29093 0.90403 0
M  V30 2254 C 219.987 1.19689 1.68766 0
M  V30 2255 C 220.402 -0.243113 1.87228 0
M  V30 2256 O 219.759 -1.16326 1.40621 0
M  V30 2257 C 219.81 1.90144 3.07453 0
M  V30 2258 O 219.531 3.2852 2.89838 0
M  V30 2259 C 221.032 1.87162 4.01852 0
M  V30 2260 H 218.252 0.415035 0.527244 0
M  V30 2261 H 220.796 1.7039 1.13082 0
M  V30 2262 H 218.951 1.43289 3.59926 0
M  V30 2263 H 219.365 3.63944 3.77684 0
M  V30 2264 H 220.839 2.41032 4.96596 0
M  V30 2265 H 221.316 0.84617 4.30972 0
M  V30 2266 H 221.922 2.33741 3.5531 0
M  V30 2267 N 220.237 -1.11381 1.11499 0
M  V30 2268 C 221.147 -2.21019 0.786628 0
M  V30 2269 C 222.163 -1.72597 -0.220507 0
M  V30 2270 O 223.339 -2.01321 -0.0565251 0
M  V30 2271 C 220.404 -3.459 0.235333 0
M  V30 2272 C 219.465 -4.09107 1.30115 0
M  V30 2273 C 218.698 -5.28027 0.776068 0
M  V30 2274 O 218.921 -5.6904 -0.393661 0
M  V30 2275 O 217.855 -5.81835 1.54114 0
M  V30 2276 H 221.681 -2.51521 1.70209 0
M  V30 2277 H 219.266 -1.19928 0.890928 0
M  V30 2278 H 221.148 -4.21346 -0.067715 0
M  V30 2279 H 219.823 -3.17049 -0.652828 0
M  V30 2280 H 218.73 -3.35391 1.65722 0
M  V30 2281 H 220.063 -4.42139 2.16273 0
M  V30 2282 N 221.715 -0.905404 -1.28997 0
M  V30 2283 C 222.663 -0.377431 -2.29517 0
M  V30 2284 C 223.657 0.526461 -1.61012 0
M  V30 2285 O 224.863 0.40863 -1.753 0
M  V30 2286 H 221.238 -0.103437 -0.744852 0
M  V30 2287 H 223.209 -1.23848 -2.71485 0
M  V30 2288 C 221.958 0.374833 -3.45674 0
M  V30 2289 H 221.281 -0.311474 -3.98585 0
M  V30 2290 H 222.721 0.70903 -4.1803 0
M  V30 2291 C 221.18 1.57963 -2.97572 0
M  V30 2292 O 221.71 2.67886 -2.99333 0
M  V30 2293 N 219.916 1.42375 -2.53333 0
M  V30 2294 H 219.463 0.529466 -2.521 0
M  V30 2295 H 219.421 2.23117 -2.21509 0
M  V30 2296 N 223.193 1.4272 -0.668489 0
M  V30 2297 C 224.44 2.01624 -0.18814 0
M  V30 2298 C 224.768 1.5282 1.20317 0
M  V30 2299 O 224.023 0.718323 1.8204 0
M  V30 2300 C 224.322 3.57021 -0.164499 0
M  V30 2301 C 223.988 4.25232 -1.49962 0
M  V30 2302 C 222.65 4.4358 -1.8652 0
M  V30 2303 C 225.002 4.63727 -2.37921 0
M  V30 2304 C 222.33 4.97694 -3.10674 0
M  V30 2305 C 224.682 5.19218 -3.6138 0
M  V30 2306 C 223.346 5.3578 -3.98115 0
M  V30 2307 H 222.616 0.737795 -0.0688454 0
M  V30 2308 H 225.263 1.70991 -0.862225 0
M  V30 2309 H 223.568 3.87285 0.593079 0
M  V30 2310 H 225.265 4.00372 0.224271 0
M  V30 2311 H 221.855 4.11306 -1.20522 0
M  V30 2312 H 226.039 4.4923 -2.10964 0
M  V30 2313 H 221.295 5.08702 -3.39164 0
M  V30 2314 H 225.469 5.4799 -4.29743 0
M  V30 2315 H 223.096 5.77475 -4.94395 0
M  V30 2316 N 224.671 0.411399 1.52136 0
M  V30 2317 C 225.619 -0.427633 2.28635 0
M  V30 2318 C 226.613 -1.04383 1.33419 0
M  V30 2319 O 227.819 -0.981772 1.50868 0
M  V30 2320 H 224.194 -0.156689 0.735495 0
M  V30 2321 H 226.165 0.238761 2.97443 0
M  V30 2322 C 224.914 -1.53082 3.12188 0
M  V30 2323 H 224.237 -1.06601 3.85326 0
M  V30 2324 H 225.677 -2.09167 3.68816 0
M  V30 2325 C 224.136 -2.49946 2.25895 0
M  V30 2326 O 224.666 -3.53884 1.90076 0
M  V30 2327 N 222.872 -2.2021 1.8962 0
M  V30 2328 H 222.419 -1.35719 2.18948 0
M  V30 2329 H 222.377 -2.85266 1.32176 0
M  V30 2330 N 226.149 -1.5696 0.141893 0
M  V30 2331 C 227.398 -1.95135 -0.510427 0
M  V30 2332 C 227.711 -1.02896 -1.66348 0
M  V30 2333 O 228.917 -1.30629 -2.38009 0
M  V30 2334 C 227.373 -3.46876 -0.959427 0
M  V30 2335 C 226.981 -4.47691 0.166419 0
M  V30 2336 C 228.725 -3.93927 -1.58183 0
M  V30 2337 C 226.632 -5.90636 -0.300565 0
M  V30 2338 H 225.562 -0.728494 -0.194454 0
M  V30 2339 H 228.213 -1.8211 0.22542 0
M  V30 2340 H 226.595 -3.55215 -1.75038 0
M  V30 2341 H 227.769 -4.51043 0.94325 0
M  V30 2342 H 226.084 -4.10527 0.696905 0
M  V30 2343 H 228.681 -4.98158 -1.94275 0
M  V30 2344 H 229.024 -3.3519 -2.46888 0
M  V30 2345 H 229.557 -3.88484 -0.855863 0
M  V30 2346 H 226.296 -6.5318 0.550989 0
M  V30 2347 H 225.816 -5.90655 -1.04338 0
M  V30 2348 H 227.495 -6.42588 -0.754265 0
M  V30 2349 N 227.627 0.131896 -1.57047 0
M  V30 2350 C 228.574 1.16236 -1.99393 0
M  V30 2351 C 229.544 1.41863 -0.863943 0
M  V30 2352 O 230.729 1.53946 -1.12718 0
M  V30 2353 C 227.869 2.48708 -2.39245 0
M  V30 2354 C 226.982 2.30127 -3.65603 0
M  V30 2355 C 226.117 3.55738 -3.94492 0
M  V30 2356 C 225.156 3.32259 -5.14073 0
M  V30 2357 N 224.293 4.50039 -5.38896 0
M  V30 2358 H 229.133 0.794251 -2.87221 0
M  V30 2359 H 226.67 0.380707 -1.42088 0
M  V30 2360 H 228.628 3.25969 -2.60384 0
M  V30 2361 H 227.258 2.83437 -1.54478 0
M  V30 2362 H 226.31 1.43845 -3.52154 0
M  V30 2363 H 227.622 2.08746 -4.5302 0
M  V30 2364 H 226.776 4.41423 -4.1621 0
M  V30 2365 H 225.515 3.80138 -3.05526 0
M  V30 2366 H 224.52 2.44963 -4.92212 0
M  V30 2367 H 225.745 3.09242 -6.04604 0
M  V30 2368 H 223.691 4.74584 -4.52886 0
M  V30 2369 H 223.608 4.31716 -6.2061 0
M  V30 2370 H 224.876 5.36895 -5.65123 0
M  V30 2371 N 229.106 1.52395 0.401703 0
M  V30 2372 C 230.038 1.72505 1.50912 0
M  V30 2373 C 231.051 0.605468 1.51122 0
M  V30 2374 O 232.24 0.880828 1.55254 0
M  V30 2375 C 229.34 1.75711 2.89791 0
M  V30 2376 C 228.513 3.04824 3.1369 0
M  V30 2377 C 227.572 2.99743 4.32482 0
M  V30 2378 O 226.598 3.73635 4.29402 0
M  V30 2379 N 227.8 2.18047 5.37992 0
M  V30 2380 H 230.565 2.68049 1.34052 0
M  V30 2381 H 228.126 1.50724 0.591084 0
M  V30 2382 H 230.118 1.69834 3.6734 0
M  V30 2383 H 228.688 0.876092 3.00072 0
M  V30 2384 H 227.908 3.2429 2.24119 0
M  V30 2385 H 229.196 3.90221 3.26504 0
M  V30 2386 H 228.594 1.57456 5.43345 0
M  V30 2387 H 227.151 2.18021 6.14256 0
M  V30 2388 N 230.584 -0.659388 1.43143 0
M  V30 2389 C 231.517 -1.78425 1.42267 0
M  V30 2390 C 232.495 -1.60085 0.284894 0
M  V30 2391 O 233.679 -1.82351 0.477527 0
M  V30 2392 C 230.806 -3.15642 1.22833 0
M  V30 2393 C 229.852 -3.52698 2.39806 0
M  V30 2394 S 230.685 -3.53372 4.02353 0
M  V30 2395 C 231.841 -4.93256 3.85291 0
M  V30 2396 H 232.074 -1.78897 2.37452 0
M  V30 2397 H 229.607 -0.831469 1.301 0
M  V30 2398 H 231.565 -3.94838 1.12308 0
M  V30 2399 H 230.226 -3.12739 0.29207 0
M  V30 2400 H 229.419 -4.52475 2.21996 0
M  V30 2401 H 229.021 -2.80899 2.46925 0
M  V30 2402 H 231.313 -5.81751 3.47235 0
M  V30 2403 H 232.256 -5.16115 4.84799 0
M  V30 2404 H 232.664 -4.665 3.17865 0
M  V30 2405 N 232.062 -1.29571 -0.897171 0
M  V30 2406 C 233.009 -1.14916 -2.00158 0
M  V30 2407 C 233.979 -0.0418149 -1.66047 0
M  V30 2408 O 235.164 -0.209793 -1.89643 0
M  V30 2409 C 232.304 -0.834307 -3.34863 0
M  V30 2410 C 231.417 -2.02234 -3.8174 0
M  V30 2411 C 230.552 -1.64664 -5.05034 0
M  V30 2412 C 229.591 -2.80033 -5.44286 0
M  V30 2413 N 228.728 -2.42843 -6.58765 0
M  V30 2414 H 233.568 -2.09403 -2.12025 0
M  V30 2415 H 231.105 -1.042 -1.0383 0
M  V30 2416 H 233.063 -0.632436 -4.12379 0
M  V30 2417 H 231.693 0.0736656 -3.22716 0
M  V30 2418 H 230.745 -2.33583 -3.00238 0
M  V30 2419 H 232.057 -2.88673 -4.06779 0
M  V30 2420 H 231.211 -1.4078 -5.9014 0
M  V30 2421 H 229.95 -0.753766 -4.8184 0
M  V30 2422 H 228.955 -3.04596 -4.57713 0
M  V30 2423 H 230.18 -3.69989 -5.6946 0
M  V30 2424 H 228.126 -1.56046 -6.3717 0
M  V30 2425 H 228.043 -3.22815 -6.83613 0
M  V30 2426 H 229.311 -2.22285 -7.47134 0
M  V30 2427 N 233.54 1.10788 -1.12088 0
M  V30 2428 C 234.817 1.79136 -0.785476 0
M  V30 2429 C 235.197 1.98246 0.725377 0
M  V30 2430 O 234.545 1.57258 1.65778 0
M  V30 2431 C 234.755 3.12375 -1.55636 0
M  V30 2432 C 236.103 3.8731 -1.74001 0
M  V30 2433 O 237.127 3.22085 -1.52117 0
M  V30 2434 O 235.986 5.04369 -2.10415 0
M  V30 2435 H 233.08 0.776226 -0.285311 0
M  V30 2436 H 235.626 1.1747 -1.2247 0
M  V30 2437 H 234.398 2.93863 -2.5838 0
M  V30 2438 H 234.021 3.81758 -1.11114 0
M  V30 2439 N 235.018 0.912232 1.28515 0
M  V30 2440 C 235.948 0.416403 2.29757 0
M  V30 2441 C 236.929 -0.515194 1.6211 0
M  V30 2442 O 238.114 -0.423253 1.89532 0
M  V30 2443 C 235.244 -0.34572 3.45575 0
M  V30 2444 C 234.198 0.496599 4.25109 0
M  V30 2445 C 233.524 -0.393771 5.33248 0
M  V30 2446 C 234.824 1.75307 4.92001 0
M  V30 2447 H 236.518 1.26249 2.7148 0
M  V30 2448 H 234.064 0.608515 1.30511 0
M  V30 2449 H 236.017 -0.703422 4.15488 0
M  V30 2450 H 234.741 -1.2257 3.02728 0
M  V30 2451 H 233.4 0.8368 3.56922 0
M  V30 2452 H 233.048 -1.27225 4.86644 0
M  V30 2453 H 232.748 0.166209 5.87365 0
M  V30 2454 H 234.272 -0.747389 6.06009 0
M  V30 2455 H 235.686 1.46437 5.54283 0
M  V30 2456 H 234.083 2.25534 5.56106 0
M  V30 2457 H 235.153 2.48176 4.16577 0
M  V30 2458 N 236.496 -1.42363 0.676048 0
M  V30 2459 C 237.743 -2.01522 0.19883 0
M  V30 2460 C 238.071 -1.53456 -1.19505 0
M  V30 2461 O 237.326 -0.727967 -1.81657 0
M  V30 2462 C 237.625 -3.56929 0.183431 0
M  V30 2463 C 237.291 -4.24431 1.52215 0
M  V30 2464 C 235.953 -4.42585 1.8887 0
M  V30 2465 C 238.305 -4.62459 2.40377 0
M  V30 2466 C 235.633 -4.96039 3.13309 0
M  V30 2467 C 237.985 -5.17294 3.64129 0
M  V30 2468 C 236.649 -5.33661 4.00951 0
M  V30 2469 H 235.919 -0.737419 0.0727571 0
M  V30 2470 H 238.566 -1.70531 0.871281 0
M  V30 2471 H 236.871 -3.87594 -0.572532 0
M  V30 2472 H 238.568 -4.00486 -0.203035 0
M  V30 2473 H 235.158 -4.10661 1.22701 0
M  V30 2474 H 239.342 -4.48105 2.13343 0
M  V30 2475 H 234.598 -5.06896 3.41857 0
M  V30 2476 H 238.772 -5.45704 4.32644 0
M  V30 2477 H 236.399 -5.74845 4.9745 0
M  V30 2478 N 237.974 -0.419461 -1.51915 0
M  V30 2479 C 238.884 0.407528 -2.31033 0
M  V30 2480 C 239.9 1.04413 -1.3919 0
M  V30 2481 O 241.076 1.0434 -1.72265 0
M  V30 2482 C 238.141 1.50365 -3.12396 0
M  V30 2483 C 237.202 0.889029 -4.19994 0
M  V30 2484 C 236.435 1.93291 -4.97468 0
M  V30 2485 O 236.658 3.15259 -4.75361 0
M  V30 2486 O 235.592 1.53339 -5.8204 0
M  V30 2487 H 239.418 -0.237865 -3.02767 0
M  V30 2488 H 237.003 -0.182413 -1.48282 0
M  V30 2489 H 238.885 2.13975 -3.63032 0
M  V30 2490 H 237.56 2.13345 -2.43445 0
M  V30 2491 H 236.467 0.215353 -3.7348 0
M  V30 2492 H 237.8 0.302991 -4.91267 0
M  V30 2493 N 239.452 1.56882 -0.150215 0
M  V30 2494 C 240.384 2.14057 0.819286 0
M  V30 2495 C 241.397 1.09082 1.20851 0
M  V30 2496 O 242.586 1.36347 1.15203 0
M  V30 2497 C 239.686 2.65102 2.11127 0
M  V30 2498 C 238.859 3.94511 1.88891 0
M  V30 2499 C 237.918 4.30834 3.02107 0
M  V30 2500 O 236.944 4.99099 2.73659 0
M  V30 2501 N 238.146 3.90676 4.29363 0
M  V30 2502 H 240.911 2.97871 0.330618 0
M  V30 2503 H 238.472 1.61866 0.0332538 0
M  V30 2504 H 240.464 2.86411 2.85921 0
M  V30 2505 H 239.034 1.85994 2.51247 0
M  V30 2506 H 238.254 3.81795 0.981152 0
M  V30 2507 H 239.542 4.7907 1.71376 0
M  V30 2508 H 238.94 3.35677 4.55343 0
M  V30 2509 H 237.497 4.1703 5.00928 0
M  V30 2510 N 240.93 -0.123565 1.57115 0
M  V30 2511 C 241.877 -1.15177 2.00007 0
M  V30 2512 C 242.847 -1.41403 0.871454 0
M  V30 2513 O 244.032 -1.53346 1.13533 0
M  V30 2514 C 241.172 -2.47436 2.40561 0
M  V30 2515 C 240.285 -2.28184 3.66819 0
M  V30 2516 C 239.42 -3.53641 3.96373 0
M  V30 2517 C 238.459 -3.29528 5.15827 0
M  V30 2518 N 237.596 -4.47175 5.41275 0
M  V30 2519 H 242.436 -0.779008 2.87638 0
M  V30 2520 H 239.973 -0.373166 1.42288 0
M  V30 2521 H 241.931 -3.24584 2.62109 0
M  V30 2522 H 240.561 -2.82614 1.55978 0
M  V30 2523 H 239.613 -1.41976 3.52912 0
M  V30 2524 H 240.925 -2.0634 4.5412 0
M  V30 2525 H 240.079 -4.39209 4.18545 0
M  V30 2526 H 238.818 -3.78512 3.07538 0
M  V30 2527 H 237.823 -2.42349 4.93505 0
M  V30 2528 H 239.048 -3.06031 6.06236 0
M  V30 2529 H 236.994 -4.72175 4.55397 0
M  V30 2530 H 236.911 -4.28419 6.22891 0
M  V30 2531 H 238.179 -5.3389 5.67963 0
M  V30 2532 N 242.408 -1.52605 -0.393616 0
M  V30 2533 C 243.371 -1.76415 -1.46323 0
M  V30 2534 C 244.371 -0.634126 -1.47768 0
M  V30 2535 O 245.561 -0.902142 -1.4902 0
M  V30 2536 C 242.693 -1.8607 -2.85641 0
M  V30 2537 H 243.886 -2.71916 -1.26498 0
M  V30 2538 H 241.439 -1.43257 -0.625073 0
M  V30 2539 H 242.174 -0.925378 -3.10817 0
M  V30 2540 H 241.959 -2.68235 -2.85993 0
M  V30 2541 H 243.449 -2.06179 -3.63153 0
M  V30 2542 N 243.887 0.651787 -1.4349 0
M  V30 2543 C 244.85 1.74647 -1.48429 0
M  V30 2544 C 245.85 1.56513 -0.368817 0
M  V30 2545 O 247.04 1.62385 -0.630623 0
M  V30 2546 C 244.172 3.13533 -1.33827 0
M  V30 2547 H 245.365 1.71649 -2.4592 0
M  V30 2548 H 242.918 0.863573 -1.30277 0
M  V30 2549 H 243.653 3.22142 -0.37349 0
M  V30 2550 H 243.438 3.28101 -2.14691 0
M  V30 2551 H 244.928 3.93356 -1.40218 0
M  V30 2552 N 245.365 1.30045 0.890287 0
M  V30 2553 C 246.297 1.11786 2.00091 0
M  V30 2554 C 247.31 0.0626307 1.62679 0
M  V30 2555 O 248.499 0.308112 1.75821 0
M  V30 2556 C 245.599 0.681527 3.31977 0
M  V30 2557 C 244.772 1.81735 3.97858 0
M  V30 2558 C 243.831 1.37045 5.08041 0
M  V30 2559 O 242.857 2.07677 5.29961 0
M  V30 2560 N 244.059 0.246525 5.79976 0
M  V30 2561 H 246.824 2.07441 2.16306 0
M  V30 2562 H 244.385 1.2211 1.06305 0
M  V30 2563 H 246.377 0.365675 4.03045 0
M  V30 2564 H 244.947 -0.182828 3.12065 0
M  V30 2565 H 244.167 2.30159 3.20032 0
M  V30 2566 H 245.455 2.57865 4.38615 0
M  V30 2567 H 244.853 -0.34215 5.64664 0
M  V30 2568 H 243.41 -0.00990438 6.51799 0
M  V30 2569 N 246.843 -1.10192 1.12674 0
M  V30 2570 C 247.773 -2.18652 0.819362 0
M  V30 2571 C 248.754 -1.68698 -0.217915 0
M  V30 2572 O 249.939 -1.94041 -0.0785581 0
M  V30 2573 C 247.069 -3.46202 0.27594 0
M  V30 2574 C 246.023 -4.09444 1.24656 0
M  V30 2575 C 245.349 -5.31725 0.563258 0
M  V30 2576 C 246.649 -4.52863 2.60217 0
M  V30 2577 H 248.343 -2.44622 1.72628 0
M  V30 2578 H 245.889 -1.17571 0.831451 0
M  V30 2579 H 247.842 -4.21372 0.0486149 0
M  V30 2580 H 246.566 -3.1973 -0.666331 0
M  V30 2581 H 245.225 -3.36284 1.45974 0
M  V30 2582 H 244.873 -5.0153 -0.384235 0
M  V30 2583 H 244.573 -5.74991 1.21075 0
M  V30 2584 H 246.097 -6.09624 0.34503 0
M  V30 2585 H 247.511 -5.19294 2.42913 0
M  V30 2586 H 245.908 -5.06986 3.21068 0
M  V30 2587 H 246.978 -3.65656 3.18471 0
M  V30 2588 N 248.321 -0.919034 -1.28029 0
M  V30 2589 C 249.284 -0.416182 -2.2539 0
M  V30 2590 C 250.284 0.460438 -1.54067 0
M  V30 2591 O 251.474 0.262744 -1.72207 0
M  V30 2592 C 248.606 0.402707 -3.38513 0
M  V30 2593 H 249.799 -1.27629 -2.71387 0
M  V30 2594 H 247.352 -0.698919 -1.39803 0
M  V30 2595 H 248.087 1.282 -2.97885 0
M  V30 2596 H 247.872 -0.225698 -3.9145 0
M  V30 2597 H 249.362 0.745191 -4.10897 0
M  V30 2598 N 249.799 1.42003 -0.683588 0
M  V30 2599 C 251.027 2.05746 -0.218182 0
M  V30 2600 C 251.442 1.51396 1.12804 0
M  V30 2601 O 250.799 0.657303 1.70252 0
M  V30 2602 C 250.85 3.61171 -0.154131 0
M  V30 2603 O 250.571 4.13508 -1.44716 0
M  V30 2604 C 252.072 4.42042 0.333713 0
M  V30 2605 H 249.292 0.662888 -0.10402 0
M  V30 2606 H 251.836 1.81987 -0.9328 0
M  V30 2607 H 249.991 3.84012 0.511231 0
M  V30 2608 H 250.405 5.07453 -1.32632 0
M  V30 2609 H 251.879 5.51028 0.327423 0
M  V30 2610 H 252.356 4.17269 1.37053 0
M  V30 2611 H 252.962 4.24239 -0.300222 0
M  V30 2612 N 251.277 0.427512 1.51691 0
M  V30 2613 C 252.187 -0.39527 2.31246 0
M  V30 2614 C 253.203 -1.03674 1.39742 0
M  V30 2615 O 254.379 -1.03425 1.72816 0
M  V30 2616 C 251.444 -1.48706 3.13189 0
M  V30 2617 C 250.505 -0.866743 4.20459 0
M  V30 2618 C 249.738 -1.90651 4.98486 0
M  V30 2619 O 249.961 -3.12733 4.77026 0
M  V30 2620 O 248.895 -1.5025 5.82845 0
M  V30 2621 H 252.721 0.253918 3.02637 0
M  V30 2622 H 250.306 0.190274 1.48183 0
M  V30 2623 H 252.188 -2.12047 3.64162 0
M  V30 2624 H 250.863 -2.12051 2.44573 0
M  V30 2625 H 249.77 -0.195544 3.73589 0
M  V30 2626 H 251.103 -0.276934 4.9142 0
M  V30 2627 N 252.755 -1.56801 0.158532 0
M  V30 2628 C 254.004 -1.95665 -0.489702 0
M  V30 2629 C 254.317 -1.04654 -1.65248 0
M  V30 2630 O 255.523 -1.33146 -2.3661 0
M  V30 2631 C 253.979 -3.47874 -0.922582 0
M  V30 2632 C 253.587 -4.47489 0.213893 0
M  V30 2633 C 255.331 -3.95583 -1.53996 0
M  V30 2634 C 253.238 -5.90921 -0.237903 0
M  V30 2635 H 252.168 -0.730516 -0.186716 0
M  V30 2636 H 254.819 -1.81861 0.244722 0
M  V30 2637 H 253.201 -3.57051 -1.71261 0
M  V30 2638 H 254.375 -4.50017 0.991036 0
M  V30 2639 H 252.69 -4.09764 0.740407 0
M  V30 2640 H 255.287 -5.0019 -1.8898 0
M  V30 2641 H 255.63 -3.37789 -2.43319 0
M  V30 2642 H 256.163 -3.8937 -0.814611 0
M  V30 2643 H 252.902 -6.52559 0.620236 0
M  V30 2644 H 252.422 -5.91729 -0.980676 0
M  V30 2645 H 254.101 -6.43352 -0.686067 0
M  V30 2646 N 254.233 0.115231 -1.57178 0
M  V30 2647 C 255.196 1.12526 -1.99676 0
M  V30 2648 C 256.196 1.34095 -0.88742 0
M  V30 2649 O 257.386 1.30548 -1.15337 0
M  V30 2650 C 254.518 2.4789 -2.34015 0
M  V30 2651 H 255.711 0.759912 -2.90113 0
M  V30 2652 H 253.264 0.359648 -1.52106 0
M  V30 2653 H 253.999 2.89339 -1.4647 0
M  V30 2654 H 253.784 2.33588 -3.14927 0
M  V30 2655 H 255.274 3.20575 -2.67622 0
M  V30 2656 N 255.711 1.52812 0.385517 0
M  V30 2657 C 256.988 1.5861 1.14465 0
M  V30 2658 C 257.368 0.381402 2.07626 0
M  V30 2659 O 256.716 -0.629999 2.19643 0
M  V30 2660 C 256.926 2.92664 1.90128 0
M  V30 2661 C 258.274 3.46526 2.45367 0
M  V30 2662 O 259.298 2.94562 2.0028 0
M  V30 2663 O 258.157 4.37323 3.27736 0
M  V30 2664 H 255.251 0.639855 0.523941 0
M  V30 2665 H 257.797 1.65149 0.390389 0
M  V30 2666 H 256.569 3.71788 1.22022 0
M  V30 2667 H 256.192 2.89527 2.72507 0
M  V30 2668 N 257.189 -0.644168 1.43834 0
M  V30 2669 C 258.438 -1.39985 1.45214 0
M  V30 2670 C 258.751 -1.95421 0.0835494 0
M  V30 2671 O 259.957 -2.71488 -0.0251748 0
M  V30 2672 C 258.413 -2.53384 2.55587 0
M  V30 2673 C 258.021 -2.04517 3.98594 0
M  V30 2674 C 259.765 -3.30685 2.66172 0
M  V30 2675 C 257.672 -3.1518 5.00416 0
M  V30 2676 H 256.602 -0.526005 0.540218 0
M  V30 2677 H 259.253 -0.694367 1.69855 0
M  V30 2678 H 257.635 -3.26446 2.24163 0
M  V30 2679 H 258.809 -1.38405 4.39523 0
M  V30 2680 H 257.124 -1.40068 3.92135 0
M  V30 2681 H 259.721 -4.13158 3.39418 0
M  V30 2682 H 260.064 -3.79312 1.71546 0
M  V30 2683 H 260.597 -2.64708 2.96942 0
M  V30 2684 H 257.336 -2.71511 5.96625 0
M  V30 2685 H 256.856 -3.79974 4.64091 0
M  V30 2686 H 258.535 -3.80166 5.23529 0
M  V30 2687 N 258.668 -1.30515 -0.883378 0
M  V30 2688 C 259.615 -1.17032 -1.98927 0
M  V30 2689 C 260.585 -0.0594241 -1.65994 0
M  V30 2690 O 261.77 -0.229895 -1.8941 0
M  V30 2691 C 258.91 -0.869777 -3.33959 0
M  V30 2692 C 258.023 -2.06271 -3.79574 0
M  V30 2693 C 257.158 -1.70011 -5.03259 0
M  V30 2694 C 256.197 -2.8579 -5.41286 0
M  V30 2695 N 255.334 -2.49816 -6.56153 0
M  V30 2696 H 260.174 -2.1164 -2.09792 0
M  V30 2697 H 257.711 -1.05296 -1.02719 0
M  V30 2698 H 259.669 -0.676138 -4.11685 0
M  V30 2699 H 258.299 0.0394332 -3.22776 0
M  V30 2700 H 257.351 -2.36755 -2.97744 0
M  V30 2701 H 258.663 -2.92971 -4.03694 0
M  V30 2702 H 257.817 -1.47032 -5.88614 0
M  V30 2703 H 256.556 -0.804829 -4.81013 0
M  V30 2704 H 255.561 -3.09434 -4.54456 0
M  V30 2705 H 256.786 -3.76008 -5.65504 0
M  V30 2706 H 254.732 -1.62795 -6.35479 0
M  V30 2707 H 254.649 -3.30048 -6.8015 0
M  V30 2708 H 255.917 -2.30197 -7.44735 0
M  V30 2709 N 260.146 1.09593 -1.13257 0
M  V30 2710 C 261.371 1.8604 -0.916732 0
M  V30 2711 C 261.796 1.80504 0.529146 0
M  V30 2712 O 261.154 1.18127 1.37534 0
M  V30 2713 C 261.202 3.32017 -1.40703 0
M  V30 2714 O 260.306 4.08141 -0.591153 0
M  V30 2715 H 259.647 0.576943 -0.328683 0
M  V30 2716 H 262.177 1.38405 -1.50682 0
M  V30 2717 H 262.187 3.82865 -1.4099 0
M  V30 2718 H 260.862 3.35361 -2.45979 0
M  V30 2719 H 259.439 3.67084 -0.656005 0
M  V30 2720 N 261.624 0.925811 1.2754 0
M  V30 2721 C 262.571 0.422045 2.26908 0
M  V30 2722 C 263.541 -0.510029 1.58076 0
M  V30 2723 O 264.726 -0.429599 1.85901 0
M  V30 2724 C 261.866 -0.320837 3.43605 0
M  V30 2725 C 260.979 0.64513 4.27156 0
M  V30 2726 C 260.114 -0.117405 5.3107 0
M  V30 2727 C 259.153 0.841391 6.0629 0
M  V30 2728 N 258.29 0.111604 7.02011 0
M  V30 2729 H 263.13 1.27441 2.69375 0
M  V30 2730 H 260.667 0.639697 1.32462 0
M  V30 2731 H 262.625 -0.76785 4.10073 0
M  V30 2732 H 261.255 -1.13745 3.02096 0
M  V30 2733 H 260.307 1.21067 3.6062 0
M  V30 2734 H 261.619 1.37797 4.79389 0
M  V30 2735 H 260.773 -0.624422 6.03478 0
M  V30 2736 H 259.512 -0.883219 4.79636 0
M  V30 2737 H 258.517 1.35967 5.32722 0
M  V30 2738 H 259.742 1.60696 6.59813 0
M  V30 2739 H 257.688 -0.635999 6.5291 0
M  V30 2740 H 257.605 0.784044 7.51923 0
M  V30 2741 H 258.873 -0.374823 7.78598 0
M  V30 2742 N 263.102 -1.41638 0.69111 0
M  V30 2743 C 264.332 -2.0533 0.228758 0
M  V30 2744 C 264.74 -1.52089 -1.12541 0
M  V30 2745 O 264.083 -0.662145 -1.71351 0
M  V30 2746 C 264.145 -3.59349 0.10407 0
M  V30 2747 C 263.809 -4.35362 1.38956 0
M  V30 2748 C 264.806 -4.64942 2.32648 0
M  V30 2749 C 262.491 -4.74714 1.64169 0
M  V30 2750 C 264.485 -5.32828 3.49818 0
M  V30 2751 C 262.172 -5.42338 2.81625 0
M  V30 2752 C 263.17 -5.71322 3.74273 0
M  V30 2753 O 262.858 -6.37554 4.89673 0
M  V30 2754 H 262.59 -0.667796 0.104997 0
M  V30 2755 H 265.144 -1.82477 0.942938 0
M  V30 2756 H 263.374 -3.80924 -0.665839 0
M  V30 2757 H 265.063 -4.04633 -0.320519 0
M  V30 2758 H 265.829 -4.35025 2.14425 0
M  V30 2759 H 261.708 -4.51538 0.929202 0
M  V30 2760 H 265.252 -5.55368 4.22152 0
M  V30 2761 H 261.149 -5.71673 2.99768 0
M  V30 2762 H 261.917 -6.56049 4.8943 0
M  V30 2763 N 264.58 -0.43555 -1.51462 0
M  V30 2764 C 265.857 0.191364 -1.94662 0
M  V30 2765 C 266.237 1.60254 -1.37411 0
M  V30 2766 O 265.585 2.2152 -0.560458 0
M  V30 2767 C 265.795 0.17091 -3.48581 0
M  V30 2768 C 267.143 0.377357 -4.2292 0
M  V30 2769 O 268.167 0.249104 -3.55328 0
M  V30 2770 O 267.026 0.63247 -5.42828 0
M  V30 2771 H 264.12 0.130932 -0.816569 0
M  V30 2772 H 266.666 -0.4934 -1.62369 0
M  V30 2773 H 265.438 -0.815738 -3.82703 0
M  V30 2774 H 265.061 0.898659 -3.87311 0
M  V30 2775 N 266.058 1.56714 -0.166846 0
M  V30 2776 C 266.968 2.21331 0.777791 0
M  V30 2777 C 267.984 1.20358 1.25658 0
M  V30 2778 O 269.16 1.53005 1.30964 0
M  V30 2779 C 266.225 2.83787 1.99163 0
M  V30 2780 C 265.286 3.99947 1.56016 0
M  V30 2781 C 264.519 4.59415 2.71613 0
M  V30 2782 O 264.742 4.17769 3.88362 0
M  V30 2783 O 263.676 5.49359 2.45945 0
M  V30 2784 H 267.502 3.02605 0.257636 0
M  V30 2785 H 265.087 1.49275 0.0611393 0
M  V30 2786 H 266.969 3.23405 2.70161 0
M  V30 2787 H 265.644 2.05513 2.50092 0
M  V30 2788 H 264.551 3.65007 0.819809 0
M  V30 2789 H 265.884 4.79801 1.09782 0
M  V30 2790 N 267.536 -0.106894 1.57237 0
M  V30 2791 C 268.446 -1.14911 2.0453 0
M  V30 2792 C 269.462 -1.44592 0.96795 0
M  V30 2793 O 270.638 -1.55468 1.2803 0
M  V30 2794 C 267.703 -2.45272 2.45036 0
M  V30 2795 C 266.764 -2.22879 3.66911 0
M  V30 2796 C 265.997 -3.47024 4.05475 0
M  V30 2797 O 266.22 -4.54804 3.44252 0
M  V30 2798 O 265.154 -3.3731 4.98504 0
M  V30 2799 H 268.98 -0.777461 2.9358 0
M  V30 2800 H 266.565 -0.318563 1.45964 0
M  V30 2801 H 268.447 -3.22055 2.71769 0
M  V30 2802 H 267.122 -2.81886 1.59129 0
M  V30 2803 H 266.029 -1.43915 3.45311 0
M  V30 2804 H 267.362 -1.91163 4.53561 0
M  V30 2805 N 269.014 -1.53014 -0.377408 0
M  V30 2806 C 270.43 -1.42523 -0.718281 0
M  V30 2807 C 270.63 -0.55487 -1.9371 0
M  V30 2808 O 269.686 -0.0327593 -2.52479 0
M  V30 2809 C 270.999 -2.85546 -0.942539 0
M  V30 2810 C 272.547 -2.95101 -1.04329 0
M  V30 2811 C 273.022 -4.3916 -1.3001 0
M  V30 2812 N 274.513 -4.42536 -1.36806 0
M  V30 2813 C 275.248 -5.51097 -1.58364 0
M  V30 2814 N 274.744 -6.69724 -1.77317 0
M  V30 2815 N 276.537 -5.38657 -1.60638 0
M  V30 2816 H 268.688 -2.08116 0.424426 0
M  V30 2817 H 270.951 -0.939352 0.127759 0
M  V30 2818 H 270.657 -3.51499 -0.118929 0
M  V30 2819 H 270.531 -3.28493 -1.85397 0
M  V30 2820 H 272.918 -2.29309 -1.85745 0
M  V30 2821 H 272.999 -2.55566 -0.109505 0
M  V30 2822 H 272.643 -5.05521 -0.490991 0
M  V30 2823 H 272.573 -4.76258 -2.24691 0
M  V30 2824 H 275.064 -3.57039 -1.23821 0
M  V30 2825 H 275.377 -7.48233 -1.93306 0
M  V30 2826 H 273.722 -6.72732 -1.74518 0
M  V30 2827 H 276.913 -4.44948 -1.45391 0
M  V30 2828 H 277.086 -6.2333 -1.77098 0
M  V30 2829 N 270.492 0.636531 -1.44174 0
M  V30 2830 C 271.717 1.42847 -1.50364 0
M  V30 2831 C 272.142 1.87665 -0.127867 0
M  V30 2832 O 271.5 1.58408 0.88185 0
M  V30 2833 C 271.548 2.62854 -2.4686 0
M  V30 2834 O 270.652 3.62501 -1.9664 0
M  V30 2835 H 269.993 0.427642 -0.507955 0
M  V30 2836 H 272.523 0.777422 -1.89255 0
M  V30 2837 H 272.533 3.10465 -2.64718 0
M  V30 2838 H 271.208 2.29578 -3.46795 0
M  V30 2839 H 269.785 3.21735 -1.88523 0
M  V30 2840 N 271.97 1.30982 0.876444 0
M  V30 2841 C 272.9 1.20668 1.99903 0
M  V30 2842 C 273.881 0.095354 1.69833 0
M  V30 2843 O 275.066 0.27885 1.92188 0
M  V30 2844 C 272.196 0.90655 3.3526 0
M  V30 2845 C 271.15 1.97675 3.79617 0
M  V30 2846 C 270.476 1.52943 5.1236 0
M  V30 2847 C 271.776 3.389 3.97422 0
M  V30 2848 H 273.47 2.14586 2.0879 0
M  V30 2849 H 271.016 1.03308 1.00317 0
M  V30 2850 H 272.969 0.821025 4.13324 0
M  V30 2851 H 271.693 -0.0682969 3.26529 0
M  V30 2852 H 270.352 2.05205 3.03787 0
M  V30 2853 H 270 0.54262 5.00065 0
M  V30 2854 H 269.7 2.24532 5.43009 0
M  V30 2855 H 271.224 1.45786 5.92941 0
M  V30 2856 H 272.638 3.34081 4.659 0
M  V30 2857 H 271.035 4.0865 4.3946 0
M  V30 2858 H 272.105 3.80163 3.01006 0
M  V30 2859 N 273.449 -1.08991 1.13837 0
M  V30 2860 C 274.865 -1.33312 0.877506 0
M  V30 2861 C 275.065 -1.95587 -0.48456 0
M  V30 2862 O 274.121 -2.20509 -1.23013 0
M  V30 2863 C 275.434 -2.24045 2.0056 0
M  V30 2864 C 276.982 -2.37542 2.03821 0
M  V30 2865 C 277.457 -3.31614 3.15905 0
M  V30 2866 N 278.948 -3.39189 3.15445 0
M  V30 2867 C 279.683 -4.11992 3.98811 0
M  V30 2868 N 279.179 -4.87553 4.92203 0
M  V30 2869 N 280.972 -4.07762 3.86894 0
M  V30 2870 H 273.123 -0.669456 2.01574 0
M  V30 2871 H 275.386 -0.357482 0.878015 0
M  V30 2872 H 275.092 -1.85521 2.98789 0
M  V30 2873 H 274.966 -3.24466 1.92359 0
M  V30 2874 H 277.353 -2.75327 1.06202 0
M  V30 2875 H 277.434 -1.36884 2.16093 0
M  V30 2876 H 277.078 -2.94551 4.13766 0
M  V30 2877 H 277.008 -4.32186 3.0087 0
M  V30 2878 H 279.499 -2.85314 2.47799 0
M  V30 2879 H 279.812 -5.40549 5.52292 0
M  V30 2880 H 278.157 -4.86627 4.96205 0
M  V30 2881 H 281.348 -3.47833 3.13257 0
M  V30 2882 H 281.521 -4.64238 4.52092 0
M  V30 2883 N 274.927 -0.932562 -1.27047 0
M  V30 2884 C 275.837 -0.441219 -2.30414 0
M  V30 2885 C 276.853 0.480525 -1.67233 0
M  V30 2886 O 278.029 0.362151 -1.98117 0
M  V30 2887 C 275.094 0.293651 -3.45454 0
M  V30 2888 C 274.155 -0.663601 -4.2414 0
M  V30 2889 C 273.388 0.0362932 -5.33688 0
M  V30 2890 O 273.611 1.2548 -5.56427 0
M  V30 2891 O 272.545 -0.638015 -5.98509 0
M  V30 2892 H 276.371 -1.29962 -2.74488 0
M  V30 2893 H 273.956 -0.6981 -1.32087 0
M  V30 2894 H 275.838 0.707951 -4.15411 0
M  V30 2895 H 274.513 1.12758 -3.03426 0
M  V30 2896 H 273.42 -1.12768 -3.56699 0
M  V30 2897 H 274.753 -1.46489 -4.69896 0
M  V30 2898 N 276.405 1.4127 -0.698611 0
M  V30 2899 C 277.368 2.29158 -0.044132 0
M  V30 2900 C 278.368 1.44529 0.704841 0
M  V30 2901 O 279.558 1.65643 0.539276 0
M  V30 2902 C 276.69 3.27459 0.947809 0
M  V30 2903 H 277.883 2.88529 -0.817994 0
M  V30 2904 H 275.436 1.49307 -0.46228 0
M  V30 2905 H 276.171 2.73073 1.74933 0
M  V30 2906 H 275.956 3.8991 0.41385 0
M  V30 2907 H 277.446 3.93311 1.40344 0
M  V30 2908 N 277.883 0.443576 1.51229 0
M  V30 2909 C 278.846 -0.353132 2.26463 0
M  V30 2910 C 279.846 -0.944338 1.3015 0
M  V30 2911 O 281.036 -0.817813 1.5381 0
M  V30 2912 C 278.168 -1.50023 3.06114 0
M  V30 2913 H 279.361 0.3063 2.98332 0
M  V30 2914 H 276.914 0.196902 1.55055 0
M  V30 2915 H 277.649 -2.19553 2.38677 0
M  V30 2916 H 277.434 -1.08241 3.76864 0
M  V30 2917 H 278.924 -2.06296 3.63087 0
M  V30 2918 N 279.361 -1.56624 0.175154 0
M  V30 2919 C 280.271 -2.21741 -0.766042 0
M  V30 2920 C 281.287 -1.21023 -1.25018 0
M  V30 2921 O 282.463 -1.53697 -1.3015 0
M  V30 2922 C 279.528 -2.84839 -1.97655 0
M  V30 2923 C 278.589 -4.00769 -1.53892 0
M  V30 2924 C 277.822 -4.60849 -2.69173 0
M  V30 2925 O 278.045 -4.19823 -3.86141 0
M  V30 2926 O 276.979 -5.50655 -2.43028 0
M  V30 2927 H 280.805 -3.02738 -0.241585 0
M  V30 2928 H 278.39 -1.49305 -0.053222 0
M  V30 2929 H 280.272 -3.24834 -2.68442 0
M  V30 2930 H 278.947 -2.06836 -2.48999 0
M  V30 2931 H 277.854 -3.65436 -0.80044 0
M  V30 2932 H 279.187 -4.80376 -1.07236 0
M  V30 2933 N 280.839 0.0985539 -1.57292 0
M  V30 2934 C 281.771 1.14595 -1.98496 0
M  V30 2935 C 282.784 1.36512 -0.887031 0
M  V30 2936 O 283.973 1.35225 -1.16518 0
M  V30 2937 C 281.073 2.50216 -2.28572 0
M  V30 2938 C 280.246 2.48624 -3.59868 0
M  V30 2939 C 279.305 3.66146 -3.7792 0
M  V30 2940 O 278.331 3.48795 -4.49812 0
M  V30 2941 N 279.533 4.85496 -3.18235 0
M  V30 2942 H 282.298 0.795277 -2.88956 0
M  V30 2943 H 279.859 0.287579 -1.59325 0
M  V30 2944 H 281.851 3.27432 -2.37845 0
M  V30 2945 H 280.421 2.77387 -1.44136 0
M  V30 2946 H 279.641 1.56978 -3.61596 0
M  V30 2947 H 280.929 2.44635 -4.46129 0
M  V30 2948 H 280.327 5.02497 -2.59833 0
M  V30 2949 H 278.884 5.60317 -3.32999 0
M  V30 2950 N 282.317 1.53212 0.369288 0
M  V30 2951 C 283.264 1.79388 1.45219 0
M  V30 2952 C 284.234 0.638059 1.53356 0
M  V30 2953 O 285.419 0.879852 1.69302 0
M  V30 2954 C 282.559 1.98623 2.82211 0
M  V30 2955 C 281.672 3.26337 2.8307 0
M  V30 2956 C 280.807 3.35779 4.11614 0
M  V30 2957 C 279.846 4.5754 4.06601 0
M  V30 2958 N 278.983 4.64155 5.26787 0
M  V30 2959 H 283.823 2.71794 1.22198 0
M  V30 2960 H 281.36 1.34642 0.592444 0
M  V30 2961 H 283.318 2.07761 3.61789 0
M  V30 2962 H 281.948 1.09558 3.03639 0
M  V30 2963 H 281 3.26171 1.95747 0
M  V30 2964 H 282.312 4.15988 2.75237 0
M  V30 2965 H 281.466 3.44208 4.99606 0
M  V30 2966 H 280.205 2.44137 4.22195 0
M  V30 2967 H 279.21 4.49215 3.16996 0
M  V30 2968 H 280.435 5.50519 3.97625 0
M  V30 2969 H 278.381 3.75413 5.3796 0
M  V30 2970 H 278.298 5.47706 5.21109 0
M  V30 2971 H 279.566 4.76863 6.16621 0
M  V30 2972 N 283.795 -0.628877 1.44509 0
M  V30 2973 C 285.041 -1.39045 1.47629 0
M  V30 2974 C 285.374 -1.93892 0.109343 0
M  V30 2975 O 284.649 -1.7379 -0.87334 0
M  V30 2976 C 284.932 -2.55408 2.53848 0
M  V30 2977 C 284.785 -2.05896 3.99909 0
M  V30 2978 C 286.104 -3.5759 2.56549 0
M  V30 2979 H 283.223 -0.504232 0.537512 0
M  V30 2980 H 285.865 -0.710854 1.76201 0
M  V30 2981 H 284.015 -3.13384 2.29615 0
M  V30 2982 H 285.687 -1.52734 4.35282 0
M  V30 2983 H 283.93 -1.37061 4.11578 0
M  V30 2984 H 284.601 -2.89681 4.69882 0
M  V30 2985 H 287.077 -3.09419 2.78207 0
M  V30 2986 H 285.953 -4.36527 3.32769 0
M  V30 2987 H 286.214 -4.11808 1.60832 0
M  V30 2988 N 285.273 -1.31445 -0.869486 0
M  V30 2989 C 286.501 -1.24122 -1.65534 0
M  V30 2990 C 286.916 0.193387 -1.87807 0
M  V30 2991 O 286.273 1.12557 -1.43656 0
M  V30 2992 C 286.324 -1.98229 -3.02304 0
M  V30 2993 O 286.045 -3.3609 -2.81026 0
M  V30 2994 C 287.546 -1.97751 -3.96749 0
M  V30 2995 H 284.766 -0.428868 -0.516055 0
M  V30 2996 H 287.31 -1.73328 -1.08525 0
M  V30 2997 H 285.465 -1.52782 -3.56001 0
M  V30 2998 H 285.879 -3.7383 -3.67902 0
M  V30 2999 H 287.353 -2.54114 -4.90031 0
M  V30 3000 H 287.83 -0.960137 -4.28577 0
M  V30 3001 H 288.436 -2.43079 -3.48988 0
M  V30 3002 N 286.751 1.08385 -1.14413 0
M  V30 3003 C 288.167 1.32844 -0.884563 0
M  V30 3004 C 288.367 1.95841 0.474181 0
M  V30 3005 O 287.423 2.21158 1.21842 0
M  V30 3006 C 288.736 2.22978 -2.01745 0
M  V30 3007 C 290.284 2.36458 -2.05077 0
M  V30 3008 C 290.759 3.29934 -3.1766 0
M  V30 3009 N 292.25 3.37511 -3.17239 0
M  V30 3010 C 292.985 4.09871 -4.0099 0
M  V30 3011 N 292.481 4.84936 -4.94781 0
M  V30 3012 N 294.274 4.05704 -3.89051 0
M  V30 3013 H 286.425 0.658756 -2.01926 0
M  V30 3014 H 288.688 0.352821 -0.879899 0
M  V30 3015 H 288.394 1.83934 -2.99769 0
M  V30 3016 H 288.268 3.23441 -1.94077 0
M  V30 3017 H 290.655 2.7476 -1.0766 0
M  V30 3018 H 290.736 1.35736 -2.16816 0
M  V30 3019 H 290.38 2.92352 -4.15322 0
M  V30 3020 H 290.31 4.30584 -3.03158 0
M  V30 3021 H 292.801 2.83996 -2.49308 0
M  V30 3022 H 293.114 5.37612 -5.55151 0
M  V30 3023 H 291.459 4.83988 -4.98779 0
M  V30 3024 H 294.65 3.46167 -3.15097 0
M  V30 3025 H 294.823 4.61834 -4.54547 0
M  V30 3026 N 288.23 0.939286 1.26551 0
M  V30 3027 C 289.16 0.465044 2.28822 0
M  V30 3028 C 290.141 -0.480692 1.63167 0
M  V30 3029 O 291.326 -0.382955 1.90387 0
M  V30 3030 C 288.456 -0.27234 3.46231 0
M  V30 3031 C 287.41 0.58666 4.2396 0
M  V30 3032 C 286.736 -0.280573 5.33963 0
M  V30 3033 C 288.036 1.85704 4.88171 0
M  V30 3034 H 289.73 1.31979 2.68741 0
M  V30 3035 H 287.276 0.636061 1.29191 0
M  V30 3036 H 289.229 -0.615133 4.16886 0
M  V30 3037 H 287.953 -1.16121 3.0526 0
M  V30 3038 H 286.612 0.91232 3.55067 0
M  V30 3039 H 286.26 -1.16874 4.89234 0
M  V30 3040 H 285.96 0.29076 5.8688 0
M  V30 3041 H 287.484 -0.618678 6.07458 0
M  V30 3042 H 288.898 1.58161 5.51052 0
M  V30 3043 H 287.295 2.37279 5.51197 0
M  V30 3044 H 288.365 2.56957 4.11219 0
M  V30 3045 N 289.708 -1.40897 0.706093 0
M  V30 3046 C 290.936 -2.05373 0.250887 0
M  V30 3047 C 291.351 -1.53172 -1.10381 0
M  V30 3048 O 290.708 -0.684305 -1.69185 0
M  V30 3049 C 290.759 -3.6088 0.211571 0
M  V30 3050 O 290.48 -4.11153 1.51276 0
M  V30 3051 C 291.981 -4.42517 -0.263346 0
M  V30 3052 H 289.201 -0.66115 0.114552 0
M  V30 3053 H 291.745 -1.80479 0.961635 0
M  V30 3054 H 289.9 -3.84777 -0.450073 0
M  V30 3055 H 290.314 -5.05279 1.40689 0
M  V30 3056 H 291.788 -5.51479 -0.239718 0
M  V30 3057 H 292.265 -4.19396 -1.30397 0
M  V30 3058 H 292.871 -4.23708 0.367677 0
M  V30 3059 N 291.186 -0.45159 -1.50991 0
M  V30 3060 C 292.096 0.358431 -2.31846 0
M  V30 3061 C 293.112 1.01438 -1.41373 0
M  V30 3062 O 294.288 1.00663 -1.74439 0
M  V30 3063 C 291.353 1.43704 -3.15515 0
M  V30 3064 C 290.414 0.799742 -4.21785 0
M  V30 3065 C 289.647 1.82696 -5.01456 0
M  V30 3066 O 289.87 3.05105 -4.81941 0
M  V30 3067 O 288.804 1.40958 -5.85162 0
M  V30 3068 H 292.63 -0.302032 -3.02194 0
M  V30 3069 H 290.215 -0.213825 -1.47862 0
M  V30 3070 H 292.097 2.06227 -3.67489 0
M  V30 3071 H 290.772 2.08133 -2.47916 0
M  V30 3072 H 289.679 0.136084 -3.73852 0
M  V30 3073 H 291.012 0.198718 -4.91799 0
M  V30 3074 N 292.664 1.56529 -0.183458 0
M  V30 3075 C 293.574 2.22144 0.754272 0
M  V30 3076 C 294.59 1.21684 1.24374 0
M  V30 3077 O 295.766 1.54385 1.29333 0
M  V30 3078 C 292.831 2.85884 1.96141 0
M  V30 3079 C 291.892 4.01579 1.51765 0
M  V30 3080 C 291.125 4.6227 2.66725 0
M  V30 3081 O 291.348 4.21865 3.83909 0
M  V30 3082 O 290.282 5.51936 2.40104 0
M  V30 3083 H 294.108 3.02861 0.225527 0
M  V30 3084 H 291.693 1.49331 0.0453032 0
M  V30 3085 H 293.575 3.26253 2.66715 0
M  V30 3086 H 292.25 2.08154 2.47899 0
M  V30 3087 H 291.157 3.65856 0.781049 0
M  V30 3088 H 292.49 4.80938 1.04686 0
M  V30 3089 N 294.142 -0.090211 1.57342 0
M  V30 3090 C 295.072 -1.10976 2.05443 0
M  V30 3091 C 296.053 -1.41482 0.944284 0
M  V30 3092 O 297.238 -1.51428 1.21586 0
M  V30 3093 C 294.368 -2.42831 2.48295 0
M  V30 3094 C 293.322 -2.26721 3.63018 0
M  V30 3095 C 292.648 -3.63796 3.91863 0
M  V30 3096 C 293.948 -1.7037 4.93732 0
M  V30 3097 H 295.642 -0.709564 2.9087 0
M  V30 3098 H 293.188 -0.339874 1.39932 0
M  V30 3099 H 295.141 -3.14431 2.80555 0
M  V30 3100 H 293.865 -2.84795 1.59873 0
M  V30 3101 H 292.524 -1.57565 3.31012 0
M  V30 3102 H 292.172 -4.03297 3.00601 0
M  V30 3103 H 291.872 -3.53861 4.69101 0
M  V30 3104 H 293.396 -4.36855 4.26603 0
M  V30 3105 H 294.81 -2.31816 5.24342 0
M  V30 3106 H 293.207 -1.71181 5.75167 0
M  V30 3107 H 294.277 -0.663542 4.80339 0
M  V30 3108 N 295.62 -1.53406 -0.361157 0
M  V30 3109 C 296.568 -1.80832 -1.46296 0
M  V30 3110 C 297.562 -0.677699 -1.55253 0
M  V30 3111 O 298.768 -0.860723 -1.58087 0
M  V30 3112 H 295.143 -0.572627 -0.487445 0
M  V30 3113 H 297.114 -2.73045 -1.20371 0
M  V30 3114 C 295.863 -2.01907 -2.8307 0
M  V30 3115 H 295.186 -2.88349 -2.76938 0
M  V30 3116 H 296.626 -2.25072 -3.59331 0
M  V30 3117 C 295.085 -0.799449 -3.27277 0
M  V30 3118 O 295.615 0.00971761 -4.01699 0
M  V30 3119 N 293.821 -0.621637 -2.83873 0
M  V30 3120 H 293.368 -1.28126 -2.23476 0
M  V30 3121 H 293.326 0.19298 -3.13807 0
M  V30 3122 N 297.098 0.621204 -1.44841 0
M  V30 3123 C 298.045 1.73267 -1.5247 0
M  V30 3124 C 299.015 1.6189 -0.371611 0
M  V30 3125 O 300.2 1.81668 -0.58321 0
M  V30 3126 C 297.34 3.11545 -1.48438 0
M  V30 3127 C 296.453 3.33827 -2.74196 0
M  V30 3128 C 295.588 4.62133 -2.61929 0
M  V30 3129 C 294.627 4.77627 -3.82804 0
M  V30 3130 N 293.764 5.97219 -3.69153 0
M  V30 3131 H 298.604 1.66082 -2.47428 0
M  V30 3132 H 296.141 0.810026 -1.22788 0
M  V30 3133 H 298.099 3.91528 -1.4409 0
M  V30 3134 H 296.729 3.1772 -0.570402 0
M  V30 3135 H 295.781 2.47715 -2.88689 0
M  V30 3136 H 297.093 3.41153 -3.6389 0
M  V30 3137 H 296.247 5.50291 -2.5547 0
M  V30 3138 H 294.986 4.57182 -1.69811 0
M  V30 3139 H 293.991 3.87896 -3.89637 0
M  V30 3140 H 295.216 4.84385 -4.75971 0
M  V30 3141 H 293.162 5.93339 -2.79794 0
M  V30 3142 H 293.079 6.05644 -4.52472 0
M  V30 3143 H 294.347 6.87912 -3.66603 0
M  V30 3144 N 298.576 1.31904 0.862503 0
M  V30 3145 C 299.486 1.22161 2.00285 0
M  V30 3146 C 300.502 0.136785 1.73462 0
M  V30 3147 O 301.678 0.355994 1.98229 0
M  V30 3148 C 298.743 0.937093 3.33796 0
M  V30 3149 C 297.804 2.10957 3.73893 0
M  V30 3150 C 297.037 1.83853 5.01033 0
M  V30 3151 O 297.26 0.777274 5.65079 0
M  V30 3152 O 296.194 2.69741 5.38074 0
M  V30 3153 H 300.02 2.18008 2.11439 0
M  V30 3154 H 297.605 1.11716 0.991957 0
M  V30 3155 H 299.487 0.794583 4.13841 0
M  V30 3156 H 298.162 0.00871894 3.23699 0
M  V30 3157 H 297.069 2.30752 2.94456 0
M  V30 3158 H 298.402 3.02046 3.88625 0
M  V30 3159 N 300.054 -1.07777 1.14986 0
M  V30 3160 C 301.017 -2.13041 0.845358 0
M  V30 3161 C 302.017 -1.60071 -0.152931 0
M  V30 3162 O 303.207 -1.74033 0.0761879 0
M  V30 3163 C 300.339 -3.39896 0.261383 0
M  V30 3164 H 301.532 -2.41485 1.77834 0
M  V30 3165 H 299.085 -1.23595 0.956757 0
M  V30 3166 H 299.82 -3.17091 -0.68 0
M  V30 3167 H 299.605 -3.79642 0.980514 0
M  V30 3168 H 301.095 -4.17548 0.0657687 0
M  V30 3169 N 301.532 -0.945985 -1.26051 0
M  V30 3170 C 302.76 -0.613025 -1.9761 0
M  V30 3171 C 303.175 0.813035 -1.70397 0
M  V30 3172 O 302.532 1.54274 -0.974979 0
M  V30 3173 C 302.583 -0.85159 -3.51326 0
M  V30 3174 O 302.304 -2.22157 -3.77595 0
M  V30 3175 C 303.805 -0.529831 -4.40122 0
M  V30 3176 H 301.025 -0.230593 -0.630133 0
M  V30 3177 H 303.569 -1.268 -1.60443 0
M  V30 3178 H 301.724 -0.243151 -3.86636 0
M  V30 3179 H 302.138 -2.2852 -4.721 0
M  V30 3180 H 303.612 -0.747348 -5.46917 0
M  V30 3181 H 304.089 0.535341 -4.35925 0
M  V30 3182 H 304.695 -1.11721 -4.10364 0
M  V30 3183 N 303.011 1.40521 -0.713556 0
M  V30 3184 C 304.257 2.01221 -0.252564 0
M  V30 3185 C 304.59 1.56444 1.1506 0
M  V30 3186 O 303.865 0.783597 1.78017 0
M  V30 3187 C 304.148 3.58582 -0.330332 0
M  V30 3188 C 304.001 4.13437 -1.77173 0
M  V30 3189 C 305.32 4.39079 0.299641 0
M  V30 3190 H 302.439 0.731077 -0.0932471 0
M  V30 3191 H 305.081 1.67026 -0.905673 0
M  V30 3192 H 303.231 3.87844 0.225737 0
M  V30 3193 H 304.903 3.9498 -2.38303 0
M  V30 3194 H 303.146 3.67801 -2.3001 0
M  V30 3195 H 303.817 5.22597 -1.77755 0
M  V30 3196 H 306.293 4.15735 -0.174139 0
M  V30 3197 H 305.169 5.4848 0.214771 0
M  V30 3198 H 305.43 4.19915 1.38288 0
M  V30 3199 N 304.489 0.459591 1.5075 0
M  V30 3200 C 305.738 -0.100971 2.01447 0
M  V30 3201 C 306.051 -1.41816 1.34713 0
M  V30 3202 O 307.257 -2.06299 1.76502 0
M  V30 3203 C 305.713 -0.23047 3.59161 0
M  V30 3204 C 305.321 1.0776 4.34847 0
M  V30 3205 C 307.065 -0.743608 4.17936 0
M  V30 3206 C 304.972 0.91253 5.84317 0
M  V30 3207 H 303.902 -0.0415102 0.752856 0
M  V30 3208 H 306.553 0.592742 1.73663 0
M  V30 3209 H 304.935 -0.987703 3.83485 0
M  V30 3210 H 306.109 1.8449 4.22256 0
M  V30 3211 H 304.424 1.52097 3.87628 0
M  V30 3212 H 307.021 -0.883959 5.27343 0
M  V30 3213 H 307.364 -1.73196 3.78562 0
M  V30 3214 H 307.897 -0.04408 3.97776 0
M  V30 3215 H 304.636 1.87391 6.28144 0
M  V30 3216 H 304.156 0.185422 5.99513 0
M  V30 3217 H 305.835 0.574547 6.44444 0
M  V30 3218 N 305.967 -1.56429 0.191757 0
M  V30 3219 C 306.899 -2.16154 -0.762245 0
M  V30 3220 C 307.912 -1.12247 -1.17917 0
M  V30 3221 O 309.101 -1.39353 -1.11548 0
M  V30 3222 C 306.201 -2.70606 -2.04024 0
M  V30 3223 C 305.374 -3.99381 -1.78364 0
M  V30 3224 C 304.433 -4.38692 -2.90578 0
M  V30 3225 O 303.459 -5.06179 -2.6033 0
M  V30 3226 N 304.661 -4.01922 -4.18854 0
M  V30 3227 H 307.426 -2.98643 -0.251526 0
M  V30 3228 H 304.987 -1.61897 0.00967373 0
M  V30 3229 H 306.979 -2.93891 -2.78227 0
M  V30 3230 H 305.549 -1.9259 -2.46227 0
M  V30 3231 H 304.769 -3.84262 -0.879581 0
M  V30 3232 H 306.057 -4.83445 -1.58614 0
M  V30 3233 H 305.455 -3.47631 -4.46283 0
M  V30 3234 H 304.012 -4.30165 -4.89695 0
M  V30 3235 N 307.445 0.0818655 -1.57387 0
M  V30 3236 C 308.722 0.815343 -1.77796 0
M  V30 3237 C 309.102 1.96289 -0.77679 0
M  V30 3238 O 308.45 2.27691 0.192106 0
M  V30 3239 C 308.66 1.29765 -3.23978 0
M  V30 3240 C 310.008 1.7351 -3.8753 0
M  V30 3241 O 311.032 1.39356 -3.27808 0
M  V30 3242 O 309.891 2.36708 -4.92576 0
M  V30 3243 H 306.985 0.389914 -0.729312 0
M  V30 3244 H 309.531 0.0627213 -1.69584 0
M  V30 3245 H 308.303 0.47608 -3.88393 0
M  V30 3246 H 307.926 2.11189 -3.36875 0
M  V30 3247 N 308.923 1.53595 0.353017 0
M  V30 3248 C 309.853 1.83902 1.43883 0
M  V30 3249 C 310.834 0.693421 1.55324 0
M  V30 3250 O 312.019 0.944452 1.69687 0
M  V30 3251 C 309.149 2.04016 2.8106 0
M  V30 3252 C 308.103 3.19814 2.84434 0
M  V30 3253 C 307.429 3.25244 4.24406 0
M  V30 3254 C 308.729 4.58133 2.50822 0
M  V30 3255 H 310.423 2.74835 1.1877 0
M  V30 3256 H 307.969 1.32242 0.569917 0
M  V30 3257 H 309.922 2.238 3.57059 0
M  V30 3258 H 308.646 1.09804 3.07588 0
M  V30 3259 H 307.305 2.9987 2.10887 0
M  V30 3260 H 306.953 2.28646 4.48029 0
M  V30 3261 H 306.653 4.03054 4.27576 0
M  V30 3262 H 308.177 3.47228 5.0226 0
M  V30 3263 H 309.591 4.77995 3.16534 0
M  V30 3264 H 307.988 5.38276 2.6529 0
M  V30 3265 H 309.058 4.62387 1.46034 0
M  V30 3266 N 310.401 -0.613514 1.45168 0
M  V30 3267 C 311.348 -1.72456 1.53387 0
M  V30 3268 C 312.318 -1.6169 0.380191 0
M  V30 3269 O 313.503 -1.81356 0.592836 0
M  V30 3270 C 310.643 -3.10753 1.50088 0
M  V30 3271 C 309.756 -3.32368 2.75963 0
M  V30 3272 C 308.891 -4.60737 2.64376 0
M  V30 3273 C 307.93 -4.7559 3.85332 0
M  V30 3274 N 307.067 -5.95253 3.72315 0
M  V30 3275 H 311.907 -1.64768 2.48305 0
M  V30 3276 H 309.444 -0.803503 1.23216 0
M  V30 3277 H 311.402 -3.90758 1.46164 0
M  V30 3278 H 310.032 -3.17413 0.587243 0
M  V30 3279 H 309.084 -2.4618 2.89999 0
M  V30 3280 H 310.396 -3.39218 3.65695 0
M  V30 3281 H 309.55 -5.48928 2.58385 0
M  V30 3282 H 308.289 -4.56275 1.72233 0
M  V30 3283 H 307.294 -3.85824 3.91688 0
M  V30 3284 H 308.519 -4.81854 4.78533 0
M  V30 3285 H 306.465 -5.91847 2.82937 0
M  V30 3286 H 306.382 -6.03236 4.55677 0
M  V30 3287 H 307.65 -6.85958 3.70246 0
M  V30 3288 N 311.879 -1.3236 -0.855495 0
M  V30 3289 C 313.107 -1.2587 -1.64208 0
M  V30 3290 C 313.522 0.173457 -1.88002 0
M  V30 3291 O 312.879 1.11027 -1.44842 0
M  V30 3292 C 312.93 -2.01424 -3.00184 0
M  V30 3293 O 312.651 -3.39051 -2.77445 0
M  V30 3294 C 314.152 -2.01948 -3.94629 0
M  V30 3295 H 311.372 -0.434318 -0.511477 0
M  V30 3296 H 313.916 -1.74469 -1.0668 0
M  V30 3297 H 312.071 -1.56549 -3.5436 0
M  V30 3298 H 312.485 -3.77711 -3.63916 0
M  V30 3299 H 313.959 -2.59297 -4.87308 0
M  V30 3300 H 314.436 -1.00554 -4.27534 0
M  V30 3301 H 315.042 -2.46767 -3.4639 0
M  V30 3302 N 313.357 1.07166 -1.15556 0
M  V30 3303 C 314.267 2.17947 -0.868116 0
M  V30 3304 C 315.283 1.73297 0.156297 0
M  V30 3305 O 316.459 2.01392 -0.0182327 0
M  V30 3306 C 313.524 3.44789 -0.36355 0
M  V30 3307 C 312.585 4.03996 -1.45209 0
M  V30 3308 C 311.818 5.24783 -0.971508 0
M  V30 3309 O 312.041 5.70109 0.182194 0
M  V30 3310 O 310.975 5.75715 -1.75603 0
M  V30 3311 H 314.801 2.4503 -1.79427 0
M  V30 3312 H 312.386 1.16539 -0.934824 0
M  V30 3313 H 314.268 4.21307 -0.0887113 0
M  V30 3314 H 312.943 3.19253 0.534708 0
M  V30 3315 H 311.85 3.29009 -1.78056 0
M  V30 3316 H 313.183 4.33808 -2.32533 0
M  V30 3317 N 314.835 0.952656 1.25548 0
M  V30 3318 C 315.765 0.489287 2.28316 0
M  V30 3319 C 316.746 -0.463359 1.63667 0
M  V30 3320 O 317.931 -0.36274 1.90782 0
M  V30 3321 C 315.061 -0.235603 3.465 0
M  V30 3322 C 314.015 0.631593 4.23314 0
M  V30 3323 C 313.341 -0.223923 5.34231 0
M  V30 3324 C 314.641 1.90871 4.86174 0
M  V30 3325 H 316.335 1.34822 2.67326 0
M  V30 3326 H 313.881 0.649728 1.28509 0
M  V30 3327 H 315.834 -0.570882 4.17515 0
M  V30 3328 H 314.558 -1.12877 3.06474 0
M  V30 3329 H 313.217 0.949929 3.54079 0
M  V30 3330 H 312.865 -1.11678 4.90446 0
M  V30 3331 H 312.565 0.35299 5.86539 0
M  V30 3332 H 314.089 -0.554214 6.0808 0
M  V30 3333 H 315.503 1.63997 5.49343 0
M  V30 3334 H 313.9 2.43112 5.4865 0
M  V30 3335 H 314.97 2.61304 4.08471 0
M  V30 3336 N 316.313 -1.40141 0.720998 0
M  V30 3337 C 317.243 -2.33339 0.0867621 0
M  V30 3338 C 318.224 -1.53178 -0.739622 0
M  V30 3339 O 319.409 -1.81625 -0.687449 0
M  V30 3340 C 316.539 -3.37194 -0.831728 0
M  V30 3341 C 315.493 -4.27857 -0.110558 0
M  V30 3342 C 314.819 -5.22294 -1.14513 0
M  V30 3343 C 316.119 -5.11872 1.0385 0
M  V30 3344 H 317.813 -2.86626 0.865219 0
M  V30 3345 H 315.359 -1.37814 0.417516 0
M  V30 3346 H 317.312 -4.01335 -1.28485 0
M  V30 3347 H 316.036 -2.82314 -1.64214 0
M  V30 3348 H 314.695 -3.65176 0.322797 0
M  V30 3349 H 314.343 -4.63717 -1.94874 0
M  V30 3350 H 314.043 -5.83797 -0.667446 0
M  V30 3351 H 315.567 -5.89312 -1.59824 0
M  V30 3352 H 316.981 -5.69436 0.664482 0
M  V30 3353 H 315.378 -5.82445 1.4449 0
M  V30 3354 H 316.448 -4.4753 1.86668 0
M  V30 3355 N 317.792 -0.46758 -1.50504 0
M  V30 3356 C 318.724 0.364655 -2.26281 0
M  V30 3357 C 319.737 0.960151 -1.31472 0
M  V30 3358 O 320.926 0.849153 -1.57008 0
M  V30 3359 C 318.026 1.52509 -3.02645 0
M  V30 3360 C 317.199 1.04302 -4.24782 0
M  V30 3361 C 316.258 2.07709 -4.8347 0
M  V30 3362 O 315.284 1.65913 -5.44483 0
M  V30 3363 N 316.486 3.40485 -4.70159 0
M  V30 3364 H 319.251 -0.28495 -2.98342 0
M  V30 3365 H 316.812 -0.298163 -1.59131 0
M  V30 3366 H 318.804 2.21371 -3.38787 0
M  V30 3367 H 317.374 2.07945 -2.33404 0
M  V30 3368 H 316.594 0.180393 -3.93787 0
M  V30 3369 H 317.882 0.698798 -5.03978 0
M  V30 3370 H 317.28 3.77155 -4.21629 0
M  V30 3371 H 315.837 4.05156 -5.1058 0
M  V30 3372 N 319.27 1.56325 -0.20005 0
M  V30 3373 C 320.686 1.58839 0.155716 0
M  V30 3374 C 320.886 1.21636 1.60645 0
M  V30 3375 O 319.942 0.941437 2.34293 0
M  V30 3376 C 321.255 3.0032 -0.151124 0
M  V30 3377 C 322.803 3.12866 -0.0916284 0
M  V30 3378 C 323.278 4.56488 -0.371845 0
M  V30 3379 N 324.769 4.62089 -0.320641 0
M  V30 3380 C 325.504 5.71116 -0.511243 0
M  V30 3381 N 325 6.88592 -0.762461 0
M  V30 3382 N 326.793 5.60335 -0.445157 0
M  V30 3383 H 318.944 1.78788 -1.14668 0
M  V30 3384 H 321.207 0.829996 -0.458051 0
M  V30 3385 H 320.913 3.32117 -1.15721 0
M  V30 3386 H 320.787 3.73257 0.543986 0
M  V30 3387 H 323.174 2.80878 0.905065 0
M  V30 3388 H 323.255 2.42304 -0.81989 0
M  V30 3389 H 322.899 4.89189 -1.36588 0
M  V30 3390 H 322.829 5.25246 0.377362 0
M  V30 3391 H 325.32 3.77665 -0.13329 0
M  V30 3392 H 325.633 7.67581 -0.896576 0
M  V30 3393 H 323.978 6.90387 -0.799412 0
M  V30 3394 H 327.169 4.67436 -0.249278 0
M  V30 3395 H 327.342 6.45243 -0.597116 0
M  V30 3396 N 320.748 -0.0735177 1.57428 0
M  V30 3397 C 322.159 -0.625551 1.75908 0
M  V30 3398 C 322.51 -1.78 0.825261 0
M  V30 3399 O 321.635 -2.16398 0.00893964 0
M  V30 3400 C 322.23 -1.14155 3.18989 0
M  V30 3401 C 320.789 -1.63946 3.38819 0
M  V30 3402 C 319.936 -0.558151 2.71625 0
M  V30 3403 H 322.887 0.152647 1.57964 0
M  V30 3404 H 322.908 -2.0104 3.23053 0
M  V30 3405 H 322.42 -0.301116 3.8693 0
M  V30 3406 H 320.521 -2.50321 2.7599 0
M  V30 3407 H 320.634 -1.71759 4.47253 0
M  V30 3408 H 318.998 -1.00278 2.34129 0
M  V30 3409 H 319.781 0.272071 3.4222 0
M  V30 3410 N 322.226 -1.5378 -0.344866 0
M  V30 3411 C 323.474 -1.70625 -1.08311 0
M  V30 3412 C 323.795 -0.471447 -1.89215 0
M  V30 3413 O 323.065 0.514616 -1.8902 0
M  V30 3414 H 321.645 -0.629058 -0.402859 0
M  V30 3415 H 324.307 -1.9103 -0.386459 0
M  V30 3416 H 323.403 -2.57656 -1.76124 0
M  V30 3417 N 323.704 0.605807 -1.45491 0
M  V30 3418 C 324.953 1.36086 -1.48874 0
M  V30 3419 C 325.266 1.95131 -0.135333 0
M  V30 3420 O 326.472 2.7146 -0.0468144 0
M  V30 3421 C 324.928 2.46518 -2.62215 0
M  V30 3422 C 324.536 1.93877 -4.03876 0
M  V30 3423 C 326.28 3.23512 -2.74846 0
M  V30 3424 C 324.187 3.01801 -5.08596 0
M  V30 3425 H 323.117 0.511497 -0.553974 0
M  V30 3426 H 325.768 0.649089 -1.71636 0
M  V30 3427 H 324.15 3.20388 -2.32739 0
M  V30 3428 H 325.324 1.26704 -4.43038 0
M  V30 3429 H 323.639 1.29622 -3.95711 0
M  V30 3430 H 326.236 4.04013 -3.50253 0
M  V30 3431 H 326.579 3.74631 -1.81542 0
M  V30 3432 H 327.112 2.56742 -3.03856 0
M  V30 3433 H 323.851 2.55597 -6.03614 0
M  V30 3434 H 323.371 3.67535 -4.74002 0
M  V30 3435 H 325.05 3.66152 -5.33424 0
M  V30 3436 N 325.182 1.32811 0.848464 0
M  V30 3437 C 326.092 1.24278 1.98978 0
M  V30 3438 C 327.108 0.155176 1.73307 0
M  V30 3439 O 328.284 0.376999 1.9784 0
M  V30 3440 C 325.349 0.972444 3.32783 0
M  V30 3441 C 324.41 2.14911 3.71634 0
M  V30 3442 C 323.643 1.89157 4.99054 0
M  V30 3443 O 323.866 0.837165 5.64223 0
M  V30 3444 O 322.8 2.75433 5.35183 0
M  V30 3445 H 326.626 2.20238 2.09115 0
M  V30 3446 H 324.211 1.12762 0.980052 0
M  V30 3447 H 326.093 0.838432 4.12975 0
M  V30 3448 H 324.768 0.043051 3.23671 0
M  V30 3449 H 323.675 2.33862 2.91992 0
M  V30 3450 H 325.008 3.06151 3.85399 0
M  V30 3451 N 326.66 -1.06551 1.16123 0
M  V30 3452 C 327.937 -1.76097 0.85142 0
M  V30 3453 C 328.317 -2.00802 -0.6513 0
M  V30 3454 O 327.665 -1.63302 -1.59827 0
M  V30 3455 C 327.875 -3.06384 1.67122 0
M  V30 3456 C 329.223 -3.80585 1.88255 0
M  V30 3457 O 330.247 -3.16218 1.63966 0
M  V30 3458 O 329.106 -4.96212 2.2899 0
M  V30 3459 H 326.2 -0.765102 0.313923 0
M  V30 3460 H 328.746 -1.12844 1.26745 0
M  V30 3461 H 327.518 -2.84071 2.69108 0
M  V30 3462 H 327.141 -3.77371 1.25206 0
M  V30 3463 N 328.138 -0.959301 -1.25041 0
M  V30 3464 C 329.384 -0.617525 -1.9317 0
M  V30 3465 C 329.717 0.843981 -1.74902 0
M  V30 3466 O 328.992 1.60615 -1.09696 0
M  V30 3467 C 329.275 -0.982736 -3.46431 0
M  V30 3468 C 329.128 -2.50032 -3.73904 0
M  V30 3469 C 330.447 -0.511176 -4.37121 0
M  V30 3470 H 327.566 -0.22582 -0.701552 0
M  V30 3471 H 330.208 -1.19679 -1.4757 0
M  V30 3472 H 328.358 -0.489806 -3.854 0
M  V30 3473 H 330.03 -3.06737 -3.44544 0
M  V30 3474 H 328.273 -2.93598 -3.19348 0
M  V30 3475 H 328.944 -2.70635 -4.81103 0
M  V30 3476 H 331.42 -0.934075 -4.0548 0
M  V30 3477 H 330.296 -0.795361 -5.43107 0
M  V30 3478 H 330.557 0.588834 -4.38161 0
M  V30 3479 N 329.616 1.39756 -0.72842 0
M  V30 3480 C 330.579 2.29012 -0.0927297 0
M  V30 3481 C 331.579 1.45992 0.674025 0
M  V30 3482 O 332.769 1.66749 0.50402 0
M  V30 3483 C 329.901 3.29396 0.878137 0
M  V30 3484 H 331.094 2.86729 -0.879011 0
M  V30 3485 H 328.647 1.48293 -0.493847 0
M  V30 3486 H 329.382 2.76722 1.69101 0
M  V30 3487 H 329.167 3.907 0.331051 0
M  V30 3488 H 330.657 3.96199 1.3197 0
M  V30 3489 N 331.094 0.475555 1.50254 0
M  V30 3490 C 332.34 -0.0780073 2.0265 0
M  V30 3491 C 332.673 -1.38968 1.35652 0
M  V30 3492 O 331.948 -1.8839 0.483691 0
M  V30 3493 C 332.231 -0.257161 3.59181 0
M  V30 3494 C 332.084 1.07585 4.36744 0
M  V30 3495 C 333.403 -1.00965 4.28362 0
M  V30 3496 H 330.522 -0.0268758 0.73651 0
M  V30 3497 H 333.164 0.622015 1.7953 0
M  V30 3498 H 331.314 -0.853412 3.79011 0
M  V30 3499 H 332.986 1.70902 4.28474 0
M  V30 3500 H 331.229 1.6714 4.00308 0
M  V30 3501 H 331.9 0.904088 5.44546 0
M  V30 3502 H 334.376 -0.504214 4.13034 0
M  V30 3503 H 333.252 -1.10381 5.37687 0
M  V30 3504 H 333.513 -2.04731 3.91839 0
M  V30 3505 N 332.573 -1.56217 0.208337 0
M  V30 3506 C 333.503 -2.22694 -0.702116 0
M  V30 3507 C 334.484 -1.19432 -1.2112 0
M  V30 3508 O 335.669 -1.47978 -1.25762 0
M  V30 3509 C 332.799 -2.8966 -1.9161 0
M  V30 3510 C 331.753 -3.9928 -1.5414 0
M  V30 3511 C 331.079 -4.53476 -2.83308 0
M  V30 3512 C 332.379 -5.17012 -0.741339 0
M  V30 3513 H 334.073 -2.99034 -0.147898 0
M  V30 3514 H 331.619 -1.43831 -0.0696951 0
M  V30 3515 H 333.572 -3.34852 -2.55836 0
M  V30 3516 H 332.296 -2.10746 -2.49507 0
M  V30 3517 H 330.955 -3.54799 -0.922668 0
M  V30 3518 H 330.603 -3.71308 -3.39322 0
M  V30 3519 H 330.303 -5.27451 -2.58976 0
M  V30 3520 H 331.827 -5.01378 -3.485 0
M  V30 3521 H 333.241 -5.58667 -1.28699 0
M  V30 3522 H 331.638 -5.97137 -0.595627 0
M  V30 3523 H 332.708 -4.8423 0.254851 0
M  V30 3524 N 334.051 0.0651679 -1.57465 0
M  V30 3525 C 334.998 1.07675 -2.04144 0
M  V30 3526 C 335.968 1.38071 -0.923335 0
M  V30 3527 O 337.153 1.49026 -1.19146 0
M  V30 3528 C 334.293 2.38337 -2.49579 0
M  V30 3529 C 333.406 2.14413 -3.75035 0
M  V30 3530 C 332.541 3.38686 -4.09225 0
M  V30 3531 C 331.58 3.10156 -5.27702 0
M  V30 3532 N 330.717 4.26778 -5.57499 0
M  V30 3533 H 335.557 0.671716 -2.90331 0
M  V30 3534 H 333.094 0.3201 -1.43575 0
M  V30 3535 H 335.052 3.14632 -2.73975 0
M  V30 3536 H 333.682 2.7663 -1.6636 0
M  V30 3537 H 332.734 1.2878 -3.57939 0
M  V30 3538 H 334.046 1.89344 -4.61466 0
M  V30 3539 H 333.2 4.23373 -4.34558 0
M  V30 3540 H 331.939 3.66837 -3.21374 0
M  V30 3541 H 330.944 2.23866 -5.02159 0
M  V30 3542 H 332.169 2.8332 -6.17176 0
M  V30 3543 H 330.115 4.54948 -4.72608 0
M  V30 3544 H 330.032 4.05005 -6.38362 0
M  V30 3545 H 331.3 5.12443 -5.87386 0
M  V30 3546 N 335.529 1.53961 0.336706 0
M  V30 3547 C 336.476 1.82428 1.41381 0
M  V30 3548 C 337.446 0.670444 1.51968 0
M  V30 3549 O 338.631 0.915565 1.67398 0
M  V30 3550 C 335.771 2.04564 2.77934 0
M  V30 3551 C 334.884 3.32267 2.76084 0
M  V30 3552 C 334.019 3.44434 4.04399 0
M  V30 3553 C 333.058 4.66061 3.96804 0
M  V30 3554 N 332.195 4.75224 5.16823 0
M  V30 3555 H 337.035 2.74324 1.16405 0
M  V30 3556 H 334.572 1.35869 0.563752 0
M  V30 3557 H 336.53 2.15388 3.57301 0
M  V30 3558 H 335.16 1.15974 3.01247 0
M  V30 3559 H 334.212 3.3025 1.88784 0
M  V30 3560 H 335.524 4.21733 2.66351 0
M  V30 3561 H 334.678 3.54728 4.92192 0
M  V30 3562 H 333.417 2.53037 4.16921 0
M  V30 3563 H 332.422 4.55838 3.07396 0
M  V30 3564 H 333.647 5.58829 3.85858 0
M  V30 3565 H 331.593 3.86739 5.29876 0
M  V30 3566 H 331.51 5.58636 5.09374 0
M  V30 3567 H 332.778 4.89835 6.06367 0
M  V30 3568 N 337.007 -0.598083 1.45811 0
M  V30 3569 C 337.917 -1.73632 1.57763 0
M  V30 3570 C 338.933 -1.67763 0.461676 0
M  V30 3571 O 340.109 -1.87949 0.723685 0
M  V30 3572 C 337.174 -3.10114 1.55018 0
M  V30 3573 C 336.235 -3.27364 2.77726 0
M  V30 3574 C 335.468 -4.57334 2.75102 0
M  V30 3575 O 335.691 -5.40258 1.8297 0
M  V30 3576 O 334.625 -4.77502 3.66437 0
M  V30 3577 H 338.451 -1.66498 2.53992 0
M  V30 3578 H 336.036 -0.763308 1.28429 0
M  V30 3579 H 337.918 -3.9141 1.56129 0
M  V30 3580 H 336.593 -3.17718 0.619431 0
M  V30 3581 H 335.5 -2.45619 2.82174 0
M  V30 3582 H 336.833 -3.24641 3.69958 0
M  V30 3583 N 338.485 -1.33259 -0.841409 0
M  V30 3584 C 339.415 -1.25926 -1.96634 0
M  V30 3585 C 340.396 -0.140349 -1.6952 0
M  V30 3586 O 341.581 -0.329707 -1.91381 0
M  V30 3587 C 338.711 -0.99512 -3.32738 0
M  V30 3588 C 337.665 -2.0767 -3.74242 0
M  V30 3589 C 336.991 -1.66474 -5.08125 0
M  V30 3590 C 338.291 -3.49318 -3.88297 0
M  V30 3591 H 339.985 -2.20046 -2.03027 0
M  V30 3592 H 337.531 -1.05931 -0.975425 0
M  V30 3593 H 339.484 -0.930323 -4.11002 0
M  V30 3594 H 338.208 -0.0183004 -3.26595 0
M  V30 3595 H 336.867 -2.13187 -2.98239 0
M  V30 3596 H 336.515 -0.675012 -4.9845 0
M  V30 3597 H 336.215 -2.3885 -5.36865 0
M  V30 3598 H 337.739 -1.61455 -5.88867 0
M  V30 3599 H 339.153 -3.46316 -4.56879 0
M  V30 3600 H 337.55 -4.20158 -4.28471 0
M  V30 3601 H 338.62 -3.8801 -2.9082 0
M  V30 3602 N 339.963 1.05934 -1.16686 0
M  V30 3603 C 341.209 1.79065 -0.95203 0
M  V30 3604 C 341.542 1.87147 0.518629 0
M  V30 3605 O 340.817 1.36574 1.38484 0
M  V30 3606 C 341.1 3.23359 -1.58464 0
M  V30 3607 C 340.953 3.23336 -3.12689 0
M  V30 3608 C 342.272 4.21004 -1.28232 0
M  V30 3609 H 339.391 0.65005 -0.34728 0
M  V30 3610 H 342.033 1.23868 -1.44072 0
M  V30 3611 H 340.183 3.70493 -1.16908 0
M  V30 3612 H 341.855 2.84336 -3.6325 0
M  V30 3613 H 340.098 2.61886 -3.4583 0
M  V30 3614 H 340.769 4.25144 -3.52075 0
M  V30 3615 H 343.245 3.8233 -1.64203 0
M  V30 3616 H 342.121 5.20225 -1.75092 0
M  V30 3617 H 342.382 4.41639 -0.201791 0
M  V30 3618 N 341.441 0.965919 1.2453 0
M  V30 3619 C 342.373 0.452465 2.2469 0
M  V30 3620 C 343.386 -0.437821 1.56802 0
M  V30 3621 O 344.575 -0.244283 1.76821 0
M  V30 3622 C 341.675 -0.366258 3.36915 0
M  V30 3623 C 340.848 0.513701 4.34373 0
M  V30 3624 C 339.907 -0.248716 5.25612 0
M  V30 3625 O 338.933 0.356745 5.68081 0
M  V30 3626 N 340.135 -1.53877 5.59734 0
M  V30 3627 H 342.9 1.31361 2.69378 0
M  V30 3628 H 340.461 0.837541 1.38553 0
M  V30 3629 H 342.453 -0.884297 3.94921 0
M  V30 3630 H 341.023 -1.12832 2.91526 0
M  V30 3631 H 340.243 1.21273 3.75082 0
M  V30 3632 H 341.531 1.11391 4.96457 0
M  V30 3633 H 340.929 -2.05243 5.27154 0
M  V30 3634 H 339.486 -2.00254 6.20275 0
M  V30 3635 N 342.919 -1.39368 0.735821 0
M  V30 3636 C 344.165 -2.00794 0.284544 0
M  V30 3637 C 344.498 -1.58255 -1.12557 0
M  V30 3638 O 343.773 -0.811819 -1.76748 0
M  V30 3639 C 344.056 -3.58011 0.387337 0
M  V30 3640 C 343.909 -4.10566 1.83728 0
M  V30 3641 C 345.228 -4.395 -0.22975 0
M  V30 3642 H 342.347 -0.729501 0.104866 0
M  V30 3643 H 344.989 -1.65564 0.93213 0
M  V30 3644 H 343.139 -3.88154 -0.164006 0
M  V30 3645 H 344.811 -3.91139 2.44556 0
M  V30 3646 H 343.054 -3.64095 2.35833 0
M  V30 3647 H 343.725 -5.19702 1.86047 0
M  V30 3648 H 346.201 -4.15406 0.240257 0
M  V30 3649 H 345.077 -5.48752 -0.127485 0
M  V30 3650 H 345.338 -4.22062 -1.3159 0
M  V30 3651 N 344.397 -0.483516 -1.5 0
M  V30 3652 C 345.329 0.340634 -2.26655 0
M  V30 3653 C 346.342 0.946152 -1.32483 0
M  V30 3654 O 347.531 0.832453 -1.579 0
M  V30 3655 C 344.631 1.4929 -3.04246 0
M  V30 3656 C 343.804 0.997903 -4.25865 0
M  V30 3657 C 342.863 2.02569 -4.85646 0
M  V30 3658 O 341.889 1.60128 -5.46212 0
M  V30 3659 N 343.091 3.3548 -4.73744 0
M  V30 3660 H 345.856 -0.316577 -2.98023 0
M  V30 3661 H 343.417 -0.315024 -1.58806 0
M  V30 3662 H 345.409 2.17766 -3.41116 0
M  V30 3663 H 343.979 2.05458 -2.35597 0
M  V30 3664 H 343.199 0.138617 -3.93956 0
M  V30 3665 H 344.487 0.645305 -5.04691 0
M  V30 3666 H 343.885 3.72661 -4.25605 0
M  V30 3667 H 342.442 3.99718 -5.14848 0
M  V30 3668 N 345.875 1.56104 -0.216619 0
M  V30 3669 C 347.103 2.02563 0.421413 0
M  V30 3670 C 347.518 1.0965 1.53695 0
M  V30 3671 O 346.875 0.10521 1.82196 0
M  V30 3672 C 346.926 3.48584 0.957665 0
M  V30 3673 O 346.647 4.37953 -0.113389 0
M  V30 3674 C 348.148 4.10664 1.66943 0
M  V30 3675 H 345.368 0.662944 0.103665 0
M  V30 3676 H 347.912 2.01793 -0.331629 0
M  V30 3677 H 346.067 3.49985 1.661 0
M  V30 3678 H 346.481 5.23704 0.288932 0
M  V30 3679 H 347.955 5.14622 1.99671 0
M  V30 3680 H 348.432 3.55373 2.58083 0
M  V30 3681 H 349.038 4.13098 1.01142 0
M  V30 3682 N 347.353 -0.0568162 1.57498 0
M  V30 3683 C 348.283 -1.06593 2.0775 0
M  V30 3684 C 349.264 -1.39448 0.974082 0
M  V30 3685 O 350.449 -1.48815 1.24771 0
M  V30 3686 C 347.579 -2.37509 2.5339 0
M  V30 3687 C 346.533 -2.1897 3.67745 0
M  V30 3688 C 345.859 -3.55402 3.99492 0
M  V30 3689 C 347.159 -1.59859 4.97235 0
M  V30 3690 H 348.853 -0.647706 2.9231 0
M  V30 3691 H 346.399 -0.310116 1.40621 0
M  V30 3692 H 348.352 -3.08409 2.87162 0
M  V30 3693 H 347.076 -2.8134 1.65878 0
M  V30 3694 H 345.735 -1.50508 3.3428 0
M  V30 3695 H 345.383 -3.9683 3.09088 0
M  V30 3696 H 345.083 -3.43831 4.76502 0
M  V30 3697 H 346.607 -4.27708 4.35773 0
M  V30 3698 H 348.021 -2.20642 5.29141 0
M  V30 3699 H 346.418 -1.58942 5.78669 0
M  V30 3700 H 347.488 -0.561506 4.81638 0
M  V30 3701 N 348.832 -1.54138 -0.328536 0
M  V30 3702 C 349.765 -1.78014 -1.4278 0
M  V30 3703 C 350.743 -0.629889 -1.49904 0
M  V30 3704 O 351.927 -0.866763 -1.6739 0
M  V30 3705 C 349.054 -1.89225 -2.80912 0
M  V30 3706 C 348.1 -3.11483 -2.91343 0
M  V30 3707 S 348.933 -4.70201 -2.56263 0
M  V30 3708 C 350.089 -4.84312 -3.96476 0
M  V30 3709 H 350.322 -2.70974 -1.22313 0
M  V30 3710 H 347.855 -1.45197 -0.525084 0
M  V30 3711 H 349.813 -1.9637 -3.60485 0
M  V30 3712 H 348.474 -0.972518 -2.98665 0
M  V30 3713 H 347.667 -3.16046 -3.92595 0
M  V30 3714 H 347.269 -3.02642 -2.19736 0
M  V30 3715 H 349.561 -4.66643 -4.91173 0
M  V30 3716 H 350.504 -5.86411 -3.96898 0
M  V30 3717 H 350.912 -4.12652 -3.85199 0
M  V30 3718 N 350.31 0.590341 -1.46126 0
M  V30 3719 C 351.587 1.35029 -1.41515 0
M  V30 3720 C 351.967 2.10888 -0.0946472 0
M  V30 3721 O 351.315 2.08998 0.923693 0
M  V30 3722 C 351.525 2.28269 -2.63997 0
M  V30 3723 C 352.873 2.90338 -3.09821 0
M  V30 3724 O 353.897 2.38585 -2.64492 0
M  V30 3725 O 352.756 3.84321 -3.88535 0
M  V30 3726 H 349.85 0.606317 -0.562413 0
M  V30 3727 H 352.396 0.611994 -1.58281 0
M  V30 3728 H 351.168 1.71591 -3.51671 0
M  V30 3729 H 350.791 3.0945 -2.49652 0
M  V30 3730 N 351.788 1.33704 0.83433 0
M  V30 3731 C 352.736 1.24323 1.96587 0
M  V30 3732 C 353.73 0.143659 1.6879 0
M  V30 3733 O 354.936 0.30791 1.77347 0
M  V30 3734 H 351.311 0.385925 0.645419 0
M  V30 3735 H 353.282 2.19978 2.01624 0
M  V30 3736 C 352.031 1.00394 3.32891 0
M  V30 3737 H 351.354 1.84231 3.54822 0
M  V30 3738 H 352.794 0.97862 4.12552 0
M  V30 3739 C 351.253 -0.293047 3.35623 0
M  V30 3740 O 351.783 -1.29823 3.80143 0
M  V30 3741 N 349.989 -0.322174 2.88809 0
M  V30 3742 H 349.536 0.496379 2.52772 0
M  V30 3743 H 349.494 -1.18977 2.91019 0
M  V30 3744 N 353.266 -1.05314 1.17247 0
M  V30 3745 C 354.199 -2.12512 0.831507 0
M  V30 3746 C 355.177 -1.61351 -0.201168 0
M  V30 3747 O 356.361 -1.88317 -0.0829831 0
M  V30 3748 C 353.488 -3.37848 0.24015 0
M  V30 3749 C 352.534 -4.07832 1.24801 0
M  V30 3750 S 353.367 -4.56537 2.79882 0
M  V30 3751 C 354.523 -5.85122 2.22223 0
M  V30 3752 H 354.756 -2.41106 1.7394 0
M  V30 3753 H 352.289 -1.17896 0.996988 0
M  V30 3754 H 354.247 -4.10391 -0.0945588 0
M  V30 3755 H 352.908 -3.07392 -0.645668 0
M  V30 3756 H 352.101 -4.97883 0.78287 0
M  V30 3757 H 351.703 -3.41348 1.52831 0
M  V30 3758 H 353.995 -6.58408 1.59703 0
M  V30 3759 H 354.938 -6.36381 3.10523 0
M  V30 3760 H 355.346 -5.39626 1.65722 0
M  V30 3761 N 354.744 -0.972509 -1.24016 0
M  V30 3762 C 355.972 -0.654803 -1.96265 0
M  V30 3763 C 356.387 0.776708 -1.72083 0
M  V30 3764 O 355.744 1.52171 -1.00748 0
M  V30 3765 C 355.795 -0.92592 -3.49441 0
M  V30 3766 O 355.516 -2.30116 -3.72798 0
M  V30 3767 C 357.017 -0.623068 -4.38899 0
M  V30 3768 H 354.237 -0.243907 -0.6251 0
M  V30 3769 H 356.781 -1.30175 -1.57717 0
M  V30 3770 H 354.936 -0.325108 -3.86033 0
M  V30 3771 H 355.35 -2.38483 -4.67147 0
M  V30 3772 H 356.824 -0.863189 -5.45209 0
M  V30 3773 H 357.301 0.442754 -4.36963 0
M  V30 3774 H 357.907 -1.204 -4.07902 0
M  V30 3775 N 356.222 1.38976 -0.743202 0
M  V30 3776 C 357.152 2.33171 -0.123873 0
M  V30 3777 C 358.133 1.54336 0.71516 0
M  V30 3778 O 359.318 1.82696 0.658467 0
M  V30 3779 C 356.448 3.38474 0.777978 0
M  V30 3780 C 355.402 4.27979 0.0424758 0
M  V30 3781 C 354.728 5.2405 1.06189 0
M  V30 3782 C 356.028 5.10155 -1.1198 0
M  V30 3783 H 357.722 2.85213 -0.910709 0
M  V30 3784 H 355.268 1.37133 -0.439388 0
M  V30 3785 H 357.221 4.03328 1.22084 0
M  V30 3786 H 355.945 2.84891 1.59702 0
M  V30 3787 H 354.604 3.64616 -0.380853 0
M  V30 3788 H 354.252 4.66758 1.87472 0
M  V30 3789 H 353.952 5.84785 0.574485 0
M  V30 3790 H 355.476 5.9178 1.50428 0
M  V30 3791 H 356.89 5.68307 -0.75499 0
M  V30 3792 H 355.287 5.80073 -1.53738 0
M  V30 3793 H 356.357 4.44504 -1.93764 0
M  V30 3794 N 357.7 0.491464 1.49741 0
M  V30 3795 C 358.61 -0.296835 2.32715 0
M  V30 3796 C 359.626 -0.976536 1.44013 0
M  V30 3797 O 360.802 -0.960023 1.77047 0
M  V30 3798 C 357.867 -1.35288 3.19215 0
M  V30 3799 C 356.928 -0.687632 4.23757 0
M  V30 3800 C 356.161 -1.69336 5.06123 0
M  V30 3801 O 356.384 -2.92219 4.89861 0
M  V30 3802 O 355.318 -1.25394 5.88693 0
M  V30 3803 H 359.144 0.382048 3.01287 0
M  V30 3804 H 356.729 0.252953 1.47243 0
M  V30 3805 H 358.611 -1.96411 3.72828 0
M  V30 3806 H 357.286 -2.01487 2.53347 0
M  V30 3807 H 356.193 -0.0369159 3.74082 0
M  V30 3808 H 357.526 -0.0682566 4.92153 0
M  V30 3809 N 359.178 -1.55987 0.224894 0
M  V30 3810 C 360.594 -1.59066 -0.130426 0
M  V30 3811 C 360.794 -1.24176 -1.5869 0
M  V30 3812 O 359.85 -0.978592 -2.32766 0
M  V30 3813 C 361.163 -3.00042 0.198883 0
M  V30 3814 C 362.711 -3.1268 0.141391 0
M  V30 3815 C 363.186 -4.55839 0.444422 0
M  V30 3816 N 364.677 -4.6152 0.394115 0
M  V30 3817 C 365.412 -5.70231 0.602038 0
M  V30 3818 N 364.908 -6.87291 0.871914 0
M  V30 3819 N 366.701 -5.59555 0.534245 0
M  V30 3820 H 358.852 -1.76941 1.17497 0
M  V30 3821 H 361.115 -0.822604 0.471197 0
M  V30 3822 H 360.821 -3.30234 1.2099 0
M  V30 3823 H 360.695 -3.74075 -0.484535 0
M  V30 3824 H 363.082 -2.82283 -0.860265 0
M  V30 3825 H 363.163 -2.40969 0.858335 0
M  V30 3826 H 362.807 -4.86954 1.44353 0
M  V30 3827 H 362.737 -5.2578 -0.293752 0
M  V30 3828 H 365.228 -3.77405 0.193356 0
M  V30 3829 H 365.541 -7.66058 1.01858 0
M  V30 3830 H 363.886 -6.89028 0.909145 0
M  V30 3831 H 367.077 -4.6698 0.323612 0
M  V30 3832 H 367.25 -6.44211 0.699693 0
M  V30 3833 N 360.656 0.0484629 -1.57525 0
M  V30 3834 C 361.566 1.07241 -2.08654 0
M  V30 3835 C 362.582 1.409 -1.02095 0
M  V30 3836 O 363.758 1.50609 -1.33712 0
M  V30 3837 C 360.823 2.36008 -2.5397 0
M  V30 3838 C 359.884 2.09108 -3.7493 0
M  V30 3839 C 359.117 3.31736 -4.18075 0
M  V30 3840 O 359.34 4.41714 -3.60895 0
M  V30 3841 O 358.274 3.18576 -5.10679 0
M  V30 3842 H 362.1 0.667965 -2.96263 0
M  V30 3843 H 359.685 0.26417 -1.47046 0
M  V30 3844 H 361.567 3.11747 -2.83535 0
M  V30 3845 H 360.242 2.75786 -1.69481 0
M  V30 3846 H 359.149 1.31 -3.50414 0
M  V30 3847 H 360.482 1.74198 -4.60343 0
M  V30 3848 N 362.134 1.5431 0.320358 0
M  V30 3849 C 363.55 1.45091 0.664889 0
M  V30 3850 C 363.75 0.626382 1.91517 0
M  V30 3851 O 362.806 0.126443 2.52183 0
M  V30 3852 C 364.119 2.88848 0.83591 0
M  V30 3853 C 365.667 2.9877 0.933046 0
M  V30 3854 C 366.142 4.43683 1.13621 0
M  V30 3855 N 367.633 4.47309 1.20287 0
M  V30 3856 C 368.368 5.56595 1.37801 0
M  V30 3857 N 367.864 6.75844 1.52338 0
M  V30 3858 N 369.657 5.44248 1.40535 0
M  V30 3859 H 361.808 2.06398 -0.501374 0
M  V30 3860 H 364.071 0.933963 -0.162534 0
M  V30 3861 H 363.777 3.51698 -0.0116092 0
M  V30 3862 H 363.651 3.35148 1.73078 0
M  V30 3863 H 366.038 2.36045 1.77107 0
M  V30 3864 H 366.119 2.55796 0.0145782 0
M  V30 3865 H 365.763 5.06995 0.303032 0
M  V30 3866 H 365.693 4.84269 2.0686 0
M  V30 3867 H 368.184 3.61388 1.10485 0
M  V30 3868 H 368.497 7.54892 1.65403 0
M  V30 3869 H 366.842 6.78746 1.4943 0
M  V30 3870 H 370.033 4.50038 1.28777 0
M  V30 3871 H 370.206 6.29473 1.53842 0
M  V30 3872 N 363.613 -0.582584 1.46437 0
M  V30 3873 C 364.523 -1.71949 1.59595 0
M  V30 3874 C 365.539 -1.67264 0.479443 0
M  V30 3875 O 366.715 -1.87171 0.743579 0
M  V30 3876 C 363.78 -3.08452 1.58298 0
M  V30 3877 C 362.841 -3.244 2.81182 0
M  V30 3878 C 362.074 -4.54391 2.79937 0
M  V30 3879 O 362.297 -5.38287 1.8869 0
M  V30 3880 O 361.231 -4.73588 3.71481 0
M  V30 3881 H 365.057 -1.63795 2.55744 0
M  V30 3882 H 362.642 -0.749643 1.29231 0
M  V30 3883 H 364.524 -3.89732 1.60271 0
M  V30 3884 H 363.199 -3.17043 0.653094 0
M  V30 3885 H 362.106 -2.42613 2.84763 0
M  V30 3886 H 363.439 -3.20699 3.7338 0
M  V30 3887 N 365.091 -1.34144 -0.827227 0
M  V30 3888 C 366.316 -1.29476 -1.62021 0
M  V30 3889 C 366.741 0.129292 -1.87655 0
M  V30 3890 O 366.099 1.08967 -1.449 0
M  V30 3891 C 366.147 -2.08702 -2.94068 0
M  V30 3892 O 365.251 -1.45359 -3.85933 0
M  V30 3893 H 364.592 -0.444881 -0.492927 0
M  V30 3894 H 367.122 -1.76882 -1.02829 0
M  V30 3895 H 367.132 -2.19898 -3.43669 0
M  V30 3896 H 365.807 -3.12241 -2.74734 0
M  V30 3897 H 364.384 -1.42879 -3.44442 0
M  V30 3898 N 366.569 1.04691 -1.17803 0
M  V30 3899 C 367.479 2.16057 -0.914151 0
M  V30 3900 C 368.495 1.73589 0.119503 0
M  V30 3901 O 369.671 2.01308 -0.0609468 0
M  V30 3902 C 366.736 3.4394 -0.436603 0
M  V30 3903 C 365.797 4.00825 -1.53746 0
M  V30 3904 C 365.03 5.22604 -1.0826 0
M  V30 3905 O 365.253 5.70367 0.0612244 0
M  V30 3906 O 364.187 5.7186 -1.87775 0
M  V30 3907 H 368.013 2.41169 -1.84584 0
M  V30 3908 H 365.598 1.1453 -0.959334 0
M  V30 3909 H 367.48 4.21024 -0.178057 0
M  V30 3910 H 366.155 3.20316 0.466869 0
M  V30 3911 H 365.062 3.25158 -1.84995 0
M  V30 3912 H 366.395 4.28778 -2.41683 0
M  V30 3913 N 368.047 0.979072 1.23499 0
M  V30 3914 C 368.994 0.517904 2.24914 0
M  V30 3915 C 369.964 -0.442525 1.60097 0
M  V30 3916 O 371.149 -0.350365 1.87556 0
M  V30 3917 C 368.289 -0.174813 3.44657 0
M  V30 3918 C 367.402 0.825721 4.24035 0
M  V30 3919 C 366.537 0.107946 5.3109 0
M  V30 3920 C 365.576 1.09778 6.02175 0
M  V30 3921 N 364.713 0.40925 7.00906 0
M  V30 3922 H 369.553 1.38751 2.63727 0
M  V30 3923 H 367.09 0.695303 1.2963 0
M  V30 3924 H 369.048 -0.593233 4.12961 0
M  V30 3925 H 367.678 -1.0083 3.06648 0
M  V30 3926 H 366.73 1.36253 3.55161 0
M  V30 3927 H 368.042 1.58005 4.73113 0
M  V30 3928 H 367.196 -0.367904 6.05583 0
M  V30 3929 H 365.935 -0.678994 4.8295 0
M  V30 3930 H 364.94 1.5844 5.26476 0
M  V30 3931 H 366.165 1.88536 6.52404 0
M  V30 3932 H 364.111 -0.358506 6.5502 0
M  V30 3933 H 364.028 1.10226 7.47921 0
M  V30 3934 H 365.296 -0.0442557 7.79487 0
M  V30 3935 N 369.525 -1.3858 0.750561 0
M  V30 3936 C 370.455 -2.33102 0.136237 0
M  V30 3937 C 371.436 -1.54713 -0.706965 0
M  V30 3938 O 372.621 -1.83043 -0.648769 0
M  V30 3939 C 369.751 -3.38882 -0.760017 0
M  V30 3940 C 368.705 -4.27995 -0.0197785 0
M  V30 3941 C 368.031 -5.24605 -1.03408 0
M  V30 3942 C 369.331 -5.09554 1.14684 0
M  V30 3943 H 371.025 -2.84726 0.925822 0
M  V30 3944 H 368.571 -1.36898 0.446654 0
M  V30 3945 H 370.524 -4.0397 -1.19943 0
M  V30 3946 H 369.248 -2.85734 -1.58189 0
M  V30 3947 H 367.907 -3.64409 0.400184 0
M  V30 3948 H 367.555 -4.67746 -1.84994 0
M  V30 3949 H 367.255 -5.85081 -0.543464 0
M  V30 3950 H 368.779 -5.9257 -1.47288 0
M  V30 3951 H 370.193 -5.67899 0.785118 0
M  V30 3952 H 368.59 -5.7925 1.56812 0
M  V30 3953 H 369.66 -4.4347 1.96118 0
M  V30 3954 N 371.003 -0.499398 -1.49478 0
M  V30 3955 C 371.95 0.279881 -2.29097 0
M  V30 3956 C 372.92 0.961805 -1.3542 0
M  V30 3957 O 374.105 0.968777 -1.64376 0
M  V30 3958 C 371.245 1.33932 -3.18051 0
M  V30 3959 C 370.358 0.669333 -4.26783 0
M  V30 3960 C 369.493 1.70907 -5.02955 0
M  V30 3961 C 368.532 1.02087 -6.03527 0
M  V30 3962 N 367.669 2.00474 -6.7287 0
M  V30 3963 H 372.509 -0.405317 -2.95231 0
M  V30 3964 H 370.046 -0.211726 -1.45568 0
M  V30 3965 H 372.004 1.96553 -3.67998 0
M  V30 3966 H 370.634 1.9933 -2.53904 0
M  V30 3967 H 369.686 -0.0701234 -3.80335 0
M  V30 3968 H 370.998 0.127503 -4.98637 0
M  V30 3969 H 370.152 2.41037 -5.56764 0
M  V30 3970 H 368.891 2.28476 -4.30871 0
M  V30 3971 H 367.896 0.305338 -5.48951 0
M  V30 3972 H 369.121 0.451708 -6.77596 0
M  V30 3973 H 367.067 2.57007 -6.03559 0
M  V30 3974 H 366.984 1.51353 -7.40694 0
M  V30 3975 H 368.252 2.69897 -7.31284 0
M  V30 3976 N 372.481 1.55866 -0.233164 0
M  V30 3977 C 373.758 1.90471 0.444988 0
M  V30 3978 C 374.138 1.15209 1.7689 0
M  V30 3979 O 373.486 0.265119 2.26957 0
M  V30 3980 C 373.696 3.4333 0.626559 0
M  V30 3981 C 375.044 4.14319 0.92871 0
M  V30 3982 O 376.068 3.48993 0.712926 0
M  V30 3983 O 374.927 5.29846 1.33887 0
M  V30 3984 H 372.021 0.792347 0.236885 0
M  V30 3985 H 374.567 1.67437 -0.276211 0
M  V30 3986 H 373.339 3.90095 -0.306822 0
M  V30 3987 H 372.962 3.72181 1.39881 0
M  V30 3988 N 373.959 -0.0401083 1.57549 0
M  V30 3989 C 374.869 -1.06133 2.0922 0
M  V30 3990 C 375.885 -1.40356 1.0284 0
M  V30 3991 O 377.061 -1.49897 1.34509 0
M  V30 3992 C 374.126 -2.34658 2.55218 0
M  V30 3993 C 373.187 -2.07117 3.76033 0
M  V30 3994 C 372.42 -3.29514 4.19829 0
M  V30 3995 O 372.643 -4.39794 3.63232 0
M  V30 3996 O 371.577 -3.15863 5.12362 0
M  V30 3997 H 375.403 -0.652244 2.96613 0
M  V30 3998 H 372.988 -0.256368 1.47184 0
M  V30 3999 H 374.87 -3.10239 2.85184 0
M  V30 4000 H 373.545 -2.74883 1.70941 0
M  V30 4001 H 372.452 -1.29139 3.51104 0
M  V30 4002 H 373.785 -1.71754 4.61261 0
M  V30 4003 N 375.437 -1.54477 -0.31217 0
M  V30 4004 C 376.677 -1.74958 -1.05684 0
M  V30 4005 C 377.041 -0.518414 -1.84869 0
M  V30 4006 O 378.242 -0.600759 -2.62001 0
M  V30 4007 C 376.513 -2.99656 -1.94785 0
M  V30 4008 S 378.072 -3.4109 -2.76049 0
M  V30 4009 H 374.89 -0.615104 -0.356606 0
M  V30 4010 H 377.492 -1.92669 -0.331514 0
M  V30 4011 H 376.196 -3.87397 -1.35468 0
M  V30 4012 H 375.727 -2.845 -2.71704 0
M  V30 4013 H 377.742 -2.97283 -3.97287 0
M  V30 4014 N 376.915 0.57481 -1.46744 0
M  V30 4015 C 377.862 1.68329 -1.57905 0
M  V30 4016 C 378.832 1.60625 -0.422927 0
M  V30 4017 O 380.017 1.79721 -0.640711 0
M  V30 4018 C 377.157 3.06665 -1.58274 0
M  V30 4019 C 376.27 3.24935 -2.84678 0
M  V30 4020 C 375.405 4.53566 -2.76499 0
M  V30 4021 C 374.444 4.65207 -3.97806 0
M  V30 4022 N 373.581 5.85172 -3.87967 0
M  V30 4023 H 378.421 1.58127 -2.52587 0
M  V30 4024 H 375.958 0.770552 -1.25303 0
M  V30 4025 H 377.916 3.86745 -1.56473 0
M  V30 4026 H 376.546 3.15745 -0.671194 0
M  V30 4027 H 375.598 2.38405 -2.96424 0
M  V30 4028 H 376.91 3.29403 -3.7456 0
M  V30 4029 H 376.064 5.41885 -2.72848 0
M  V30 4030 H 374.803 4.51548 -1.8427 0
M  V30 4031 H 373.808 3.75304 -4.0178 0
M  V30 4032 H 375.033 4.68997 -4.9114 0
M  V30 4033 H 372.979 5.84137 -2.98529 0
M  V30 4034 H 372.896 5.90943 -4.71511 0
M  V30 4035 H 374.164 6.759 -3.88303 0
M  V30 4036 N 378.394 1.34581 0.820102 0
M  V30 4037 C 379.341 1.2639 1.93117 0
M  V30 4038 C 380.311 0.138554 1.65521 0
M  V30 4039 O 381.496 0.320004 1.88097 0
M  V30 4040 C 378.636 1.02812 3.29429 0
M  V30 4041 C 377.749 2.24146 3.693 0
M  V30 4042 C 376.884 1.93829 4.94574 0
M  V30 4043 C 375.923 3.1129 5.27034 0
M  V30 4044 N 375.06 2.80838 6.43486 0
M  V30 4045 H 379.9 2.21408 1.99455 0
M  V30 4046 H 377.437 1.10077 0.975784 0
M  V30 4047 H 379.395 0.871788 4.0799 0
M  V30 4048 H 378.025 0.114612 3.22596 0
M  V30 4049 H 377.077 2.50691 2.86109 0
M  V30 4050 H 378.389 3.11899 3.89257 0
M  V30 4051 H 377.543 1.74948 5.80929 0
M  V30 4052 H 376.282 1.03341 4.76626 0
M  V30 4053 H 375.287 3.30764 4.39175 0
M  V30 4054 H 376.512 4.02561 5.4692 0
M  V30 4055 H 374.458 1.92929 6.26988 0
M  V30 4056 H 374.375 3.62123 6.63629 0
M  V30 4057 H 375.643 2.65467 7.32903 0
M  V30 4058 N 379.872 -1.04064 1.18357 0
M  V30 4059 C 380.802 -2.14001 0.934113 0
M  V30 4060 C 381.783 -1.69616 -0.128186 0
M  V30 4061 O 382.968 -1.94185 0.0244093 0
M  V30 4062 C 380.098 -3.44253 0.459066 0
M  V30 4063 C 379.052 -4.02261 1.46185 0
M  V30 4064 C 378.378 -5.27992 0.844322 0
M  V30 4065 C 379.678 -4.38432 2.83856 0
M  V30 4066 H 381.372 -2.35127 1.85352 0
M  V30 4067 H 378.918 -1.12998 0.892604 0
M  V30 4068 H 380.871 -4.20522 0.271907 0
M  V30 4069 H 379.595 -3.22813 -0.495912 0
M  V30 4070 H 378.254 -3.28074 1.63595 0
M  V30 4071 H 377.902 -5.02862 -0.117845 0
M  V30 4072 H 377.602 -5.67765 1.51384 0
M  V30 4073 H 379.126 -6.06938 0.667693 0
M  V30 4074 H 380.54 -5.05688 2.70098 0
M  V30 4075 H 378.937 -4.89254 3.47491 0
M  V30 4076 H 380.007 -3.4826 3.37406 0
M  V30 4077 N 381.35 -0.985608 -1.22978 0
M  V30 4078 C 382.282 -0.488154 -2.23941 0
M  V30 4079 C 383.295 0.41282 -1.57479 0
M  V30 4080 O 384.484 0.216121 -1.77187 0
M  V30 4081 C 381.584 0.312611 -3.37455 0
M  V30 4082 C 380.757 -0.582741 -4.33501 0
M  V30 4083 C 379.816 0.165064 -5.25941 0
M  V30 4084 O 378.842 -0.447077 -5.67442 0
M  V30 4085 N 380.044 1.44953 -5.62111 0
M  V30 4086 H 382.809 -1.3563 -2.67254 0
M  V30 4087 H 380.37 -0.859477 -1.37203 0
M  V30 4088 H 382.362 0.821357 -3.96277 0
M  V30 4089 H 380.932 1.0818 -2.93285 0
M  V30 4090 H 380.152 -1.27225 -3.73105 0
M  V30 4091 H 381.44 -1.19275 -4.94622 0
M  V30 4092 H 380.838 1.9683 -5.30353 0
M  V30 4093 H 379.395 1.90361 -6.23383 0
M  V30 4094 N 382.828 1.3818 -0.7579 0
M  V30 4095 C 384.053 2.04827 -0.325679 0
M  V30 4096 C 384.478 1.56788 1.03919 0
M  V30 4097 O 383.836 0.721811 1.66312 0
M  V30 4098 C 383.884 3.58774 -0.362447 0
M  V30 4099 O 382.988 4.07372 0.642033 0
M  V30 4100 H 382.329 0.64833 -0.143402 0
M  V30 4101 H 384.859 1.7677 -1.03023 0
M  V30 4102 H 384.869 4.07434 -0.214844 0
M  V30 4103 H 383.544 3.93096 -1.35824 0
M  V30 4104 H 382.121 3.70068 0.458688 0
M  V30 4105 N 384.306 0.507319 1.49211 0
M  V30 4106 C 385.238 -0.304532 2.27168 0
M  V30 4107 C 386.251 -0.924956 1.33972 0
M  V30 4108 O 387.44 -0.807227 1.59205 0
M  V30 4109 C 384.54 -1.44431 3.06583 0
M  V30 4110 C 383.713 -0.930026 4.27398 0
M  V30 4111 C 382.772 -1.94817 4.88807 0
M  V30 4112 O 381.798 -1.51418 5.4869 0
M  V30 4113 N 383 -3.279 4.79022 0
M  V30 4114 H 385.765 0.36395 2.97482 0
M  V30 4115 H 383.326 0.340249 1.58284 0
M  V30 4116 H 385.318 -2.12311 3.44537 0
M  V30 4117 H 383.888 -2.01684 2.38835 0
M  V30 4118 H 383.108 -0.0759244 3.94127 0
M  V30 4119 H 384.396 -0.564932 5.05654 0
M  V30 4120 H 383.794 -3.65843 4.3148 0
M  V30 4121 H 382.351 -3.91476 5.21142 0
M  V30 4122 N 385.784 -1.5574 0.241426 0
M  V30 4123 C 387.014 -2.02913 -0.38857 0
M  V30 4124 C 387.422 -1.12014 -1.52478 0
M  V30 4125 O 386.765 -0.125903 -1.83268 0
M  V30 4126 C 386.827 -3.4636 -0.963075 0
M  V30 4127 C 386.491 -4.56982 0.0401916 0
M  V30 4128 C 387.488 -5.12941 0.847766 0
M  V30 4129 C 385.173 -5.0203 0.164699 0
M  V30 4130 C 387.167 -6.12437 1.76636 0
M  V30 4131 C 384.854 -6.01358 1.0868 0
M  V30 4132 C 385.852 -6.5644 1.88616 0
M  V30 4133 O 385.54 -7.53831 2.79273 0
M  V30 4134 H 385.272 -0.668983 -0.0971452 0
M  V30 4135 H 387.826 -2.02198 0.361248 0
M  V30 4136 H 386.056 -3.44206 -1.76235 0
M  V30 4137 H 387.745 -3.77065 -1.50257 0
M  V30 4138 H 388.511 -4.78974 0.762133 0
M  V30 4139 H 384.39 -4.58824 -0.447411 0
M  V30 4140 H 387.934 -6.55355 2.39071 0
M  V30 4141 H 383.831 -6.34746 1.17338 0
M  V30 4142 H 384.599 -7.71428 2.73572 0
M  V30 4143 N 387.262 0.0317525 -1.57568 0
M  V30 4144 C 388.225 1.01783 -2.0536 0
M  V30 4145 C 389.225 1.29203 -0.957253 0
M  V30 4146 O 390.415 1.24251 -1.22095 0
M  V30 4147 C 387.547 2.35137 -2.46827 0
M  V30 4148 H 388.74 0.605062 -2.93733 0
M  V30 4149 H 386.293 0.278514 -1.53799 0
M  V30 4150 H 387.028 2.81168 -1.61602 0
M  V30 4151 H 386.813 2.16566 -3.26866 0
M  V30 4152 H 388.303 3.05938 -2.84239 0
M  V30 4153 N 388.74 1.54641 0.303973 0
M  V30 4154 C 389.965 1.78092 1.06292 0
M  V30 4155 C 390.39 0.537342 1.80262 0
M  V30 4156 O 389.748 -0.511993 1.7392 0
M  V30 4157 C 389.796 2.98612 2.02147 0
M  V30 4158 O 388.9 2.71528 3.10397 0
M  V30 4159 H 388.241 0.589548 0.305497 0
M  V30 4160 H 390.771 2.01716 0.3423 0
M  V30 4161 H 390.781 3.265 2.44667 0
M  V30 4162 H 389.456 3.88785 1.47714 0
M  V30 4163 H 388.033 2.54648 2.72413 0
M  V30 4164 N 390.218 -0.567019 1.47046 0
M  V30 4165 C 391.443 -1.3551 1.57009 0
M  V30 4166 C 391.868 -1.86841 0.217259 0
M  V30 4167 O 391.226 -1.62435 -0.805268 0
M  V30 4168 C 391.274 -2.50777 2.5912 0
M  V30 4169 O 390.378 -3.52706 2.13711 0
M  V30 4170 H 389.719 -0.402919 0.52778 0
M  V30 4171 H 392.249 -0.686241 1.92748 0
M  V30 4172 H 392.259 -2.97481 2.79229 0
M  V30 4173 H 390.934 -2.12771 3.57353 0
M  V30 4174 H 389.511 -3.12374 2.03659 0
M  V30 4175 N 391.696 -1.35014 -0.812953 0
M  V30 4176 C 392.606 -1.2951 -1.95613 0
M  V30 4177 C 393.622 -0.20107 -1.72834 0
M  V30 4178 O 394.798 -0.42932 -1.96771 0
M  V30 4179 C 391.863 -1.06033 -3.30088 0
M  V30 4180 C 390.924 -2.24688 -3.65805 0
M  V30 4181 C 390.157 -2.02322 -4.93864 0
M  V30 4182 O 390.38 -0.986464 -5.61805 0
M  V30 4183 O 389.314 -2.89525 -5.27692 0
M  V30 4184 H 393.14 -2.25705 -2.03202 0
M  V30 4185 H 390.725 -1.15321 -0.949811 0
M  V30 4186 H 392.607 -0.94763 -4.10607 0
M  V30 4187 H 391.282 -0.128852 -3.23443 0
M  V30 4188 H 390.189 -2.41521 -2.85689 0
M  V30 4189 H 391.522 -3.16261 -3.77147 0
M  V30 4190 N 393.175 1.03435 -1.18907 0
M  V30 4191 C 394.138 2.09756 -0.923844 0
M  V30 4192 C 395.138 1.60528 0.093416 0
M  V30 4193 O 396.328 1.73631 -0.140727 0
M  V30 4194 C 393.46 3.38692 -0.387354 0
M  V30 4195 H 394.653 2.34719 -1.86674 0
M  V30 4196 H 392.206 1.19959 -1.00197 0
M  V30 4197 H 392.941 3.19396 0.561845 0
M  V30 4198 H 392.726 3.75742 -1.12074 0
M  V30 4199 H 394.216 4.17016 -0.220694 0
M  V30 4200 N 394.653 0.992116 1.22453 0
M  V30 4201 C 395.881 0.685944 1.95198 0
M  V30 4202 C 396.296 -0.749233 1.73297 0
M  V30 4203 O 395.653 -1.50549 1.03156 0
M  V30 4204 C 395.704 0.981395 3.47924 0
M  V30 4205 O 395.425 2.36018 3.6909 0
M  V30 4206 C 396.926 0.692815 4.37853 0
M  V30 4207 H 394.146 0.253821 0.621141 0
M  V30 4208 H 396.69 1.32668 1.55626 0
M  V30 4209 H 394.845 0.386481 3.85467 0
M  V30 4210 H 395.259 2.45884 4.63294 0
M  V30 4211 H 396.733 0.949818 5.43767 0
M  V30 4212 H 397.21 -0.373181 4.37612 0
M  V30 4213 H 397.816 1.26874 4.05935 0
M  V30 4214 N 396.131 -1.37776 0.765217 0
M  V30 4215 C 397.38 -1.99092 0.323307 0
M  V30 4216 C 397.693 -1.61434 -1.10446 0
M  V30 4217 O 398.899 -2.15805 -1.64743 0
M  V30 4218 C 397.355 -3.56019 0.527098 0
M  V30 4219 C 396.963 -4.0262 1.96471 0
M  V30 4220 C 398.707 -4.2424 0.148483 0
M  V30 4221 C 396.614 -5.52233 2.11644 0
M  V30 4222 H 395.544 -0.744846 0.117137 0
M  V30 4223 H 398.195 -1.57391 0.943417 0
M  V30 4224 H 396.577 -3.95667 -0.162372 0
M  V30 4225 H 397.751 -3.74234 2.68859 0
M  V30 4226 H 396.066 -3.47161 2.29931 0
M  V30 4227 H 398.663 -5.34159 0.240456 0
M  V30 4228 H 399.006 -4.06446 -0.900422 0
M  V30 4229 H 399.539 -3.89872 0.79025 0
M  V30 4230 H 396.278 -5.74945 3.1483 0
M  V30 4231 H 395.798 -5.82324 1.4373 0
M  V30 4232 H 397.477 -6.18106 1.91193 0
M  V30 4233 N 397.609 -0.515225 -1.4894 0
M  V30 4234 C 398.834 0.022727 -2.07388 0
M  V30 4235 C 399.259 1.2876 -1.37122 0
M  V30 4236 O 398.617 1.76067 -0.432431 0
M  V30 4237 C 398.665 0.244869 -3.59768 0
M  V30 4238 O 397.769 1.31667 -3.90817 0
M  V30 4239 H 397.11 -0.0325506 -0.663202 0
M  V30 4240 H 399.64 -0.718918 -1.91553 0
M  V30 4241 H 399.65 0.47205 -4.0526 0
M  V30 4242 H 398.325 -0.679194 -4.10317 0
M  V30 4243 H 396.902 1.07331 -3.5712 0
M  V30 4244 N 399.087 1.5561 -0.249682 0
M  V30 4245 C 400.019 2.18834 0.681496 0
M  V30 4246 C 401.032 1.16546 1.1367 0
M  V30 4247 O 402.221 1.43397 1.06299 0
M  V30 4248 C 399.321 2.77992 1.9384 0
M  V30 4249 C 398.494 4.05725 1.63419 0
M  V30 4250 C 397.553 4.49174 2.74096 0
M  V30 4251 O 396.579 5.15492 2.41364 0
M  V30 4252 N 397.781 4.17191 4.03649 0
M  V30 4253 H 400.546 2.9937 0.140514 0
M  V30 4254 H 398.107 1.6175 -0.0697541 0
M  V30 4255 H 400.099 3.04015 2.67127 0
M  V30 4256 H 398.669 2.01596 2.38909 0
M  V30 4257 H 397.889 3.87261 0.736358 0
M  V30 4258 H 399.177 4.88999 1.40562 0
M  V30 4259 H 398.575 3.63955 4.33074 0
M  V30 4260 H 397.132 4.48043 4.73393 0
M  V30 4261 N 400.565 -0.0233959 1.57583 0
M  V30 4262 C 401.495 -1.02162 2.09965 0
M  V30 4263 C 402.476 -1.3735 1.00344 0
M  V30 4264 O 403.661 -1.46135 1.27899 0
M  V30 4265 C 400.791 -2.32081 2.58371 0
M  V30 4266 C 399.745 -2.1112 3.72307 0
M  V30 4267 C 399.071 -3.46848 4.06941 0
M  V30 4268 C 400.371 -1.49276 5.00514 0
M  V30 4269 H 402.065 -0.585557 2.93618 0
M  V30 4270 H 399.611 -0.280218 1.41247 0
M  V30 4271 H 401.564 -3.02249 2.93639 0
M  V30 4272 H 400.288 -2.77758 1.71808 0
M  V30 4273 H 398.947 -1.43384 3.37397 0
M  V30 4274 H 398.595 -3.90184 3.17436 0
M  V30 4275 H 398.295 -3.33646 4.83688 0
M  V30 4276 H 399.819 -4.18369 4.44747 0
M  V30 4277 H 401.233 -2.09368 5.33702 0
M  V30 4278 H 399.63 -1.46632 5.8191 0
M  V30 4279 H 400.7 -0.459217 4.82721 0
M  V30 4280 N 402.043 -1.548 -0.295768 0
M  V30 4281 C 403.459 -1.4613 -0.641722 0
M  V30 4282 C 403.659 -0.656771 -1.90496 0
M  V30 4283 O 402.715 -0.166547 -2.5195 0
M  V30 4284 C 404.028 -2.90141 -0.789852 0
M  V30 4285 C 405.576 -3.00216 -0.885396 0
M  V30 4286 C 406.051 -4.45434 -1.06548 0
M  V30 4287 N 407.542 -4.49166 -1.13156 0
M  V30 4288 C 408.277 -5.58717 -1.28929 0
M  V30 4289 N 407.773 -6.78182 -1.41567 0
M  V30 4290 N 409.566 -5.46415 -1.31859 0
M  V30 4291 H 401.717 -2.05574 0.534147 0
M  V30 4292 H 403.98 -0.931259 0.177372 0
M  V30 4293 H 403.686 -3.51635 0.0675598 0
M  V30 4294 H 403.56 -3.37859 -1.67724 0
M  V30 4295 H 405.947 -2.38833 -1.73329 0
M  V30 4296 H 406.028 -2.55787 0.0261185 0
M  V30 4297 H 405.672 -5.07413 -0.222335 0
M  V30 4298 H 405.602 -4.87499 -1.9913 0
M  V30 4299 H 408.093 -3.631 -1.04721 0
M  V30 4300 H 408.406 -7.57428 -1.53372 0
M  V30 4301 H 406.751 -6.81037 -1.38613 0
M  V30 4302 H 409.942 -4.5203 -1.21601 0
M  V30 4303 H 410.115 -6.31841 -1.43808 0
M  V30 4304 N 403.521 0.559213 -1.47345 0
M  V30 4305 C 404.746 1.34676 -1.57725 0
M  V30 4306 C 405.171 1.86723 -0.227164 0
M  V30 4307 O 404.529 1.6286 0.796642 0
M  V30 4308 C 404.577 2.49399 -2.60447 0
M  V30 4309 O 403.681 3.51567 -2.15578 0
M  V30 4310 H 403.022 0.400115 -0.52991 0
M  V30 4311 H 405.552 0.676009 -1.93109 0
M  V30 4312 H 405.562 2.95996 -2.80803 0
M  V30 4313 H 404.237 2.10873 -3.58477 0
M  V30 4314 H 402.814 3.11289 -2.05313 0
M  V30 4315 N 404.999 1.35443 0.805782 0
M  V30 4316 C 405.909 1.30546 1.94923 0
M  V30 4317 C 406.925 0.210233 1.72725 0
M  V30 4318 O 408.101 0.43975 1.9654 0
M  V30 4319 C 405.166 1.07782 3.29521 0
M  V30 4320 C 404.227 2.26625 3.64609 0
M  V30 4321 C 403.46 2.04938 4.92784 0
M  V30 4322 O 403.683 1.01624 5.61274 0
M  V30 4323 O 402.617 2.9232 5.26149 0
M  V30 4324 H 406.443 2.26779 2.02002 0
M  V30 4325 H 404.028 1.15823 0.943682 0
M  V30 4326 H 405.91 0.969392 4.10098 0
M  V30 4327 H 404.585 0.146003 3.23371 0
M  V30 4328 H 403.492 2.43033 2.84404 0
M  V30 4329 H 404.825 3.18257 3.75464 0
M  V30 4330 N 406.477 -1.02803 1.19454 0
M  V30 4331 C 407.407 -2.12999 0.956758 0
M  V30 4332 C 408.388 -1.69743 -0.110188 0
M  V30 4333 O 409.573 -1.94148 0.0450038 0
M  V30 4334 C 406.703 -3.43746 0.495553 0
M  V30 4335 C 405.657 -4.00688 1.50443 0
M  V30 4336 C 404.983 -5.27067 0.900275 0
M  V30 4337 C 406.283 -4.35397 2.8849 0
M  V30 4338 H 407.977 -2.33148 1.87836 0
M  V30 4339 H 405.523 -1.12045 0.904539 0
M  V30 4340 H 407.476 -4.2021 0.316493 0
M  V30 4341 H 406.2 -3.23321 -0.461646 0
M  V30 4342 H 404.859 -3.2632 1.67065 0
M  V30 4343 H 404.507 -5.02959 -0.064503 0
M  V30 4344 H 404.207 -5.66127 1.57397 0
M  V30 4345 H 405.731 -6.06196 0.73203 0
M  V30 4346 H 407.145 -5.02795 2.75446 0
M  V30 4347 H 405.542 -4.85541 3.52661 0
M  V30 4348 H 406.612 -3.44662 3.41081 0
M  V30 4349 N 407.956 -0.998596 -1.21925 0
M  V30 4350 C 408.919 -0.558679 -2.22287 0
M  V30 4351 C 409.919 0.361525 -1.56683 0
M  V30 4352 O 411.109 0.152695 -1.73529 0
M  V30 4353 C 408.241 0.18661 -3.40389 0
M  V30 4354 H 409.434 -1.4463 -2.62721 0
M  V30 4355 H 406.987 -0.786413 -1.35075 0
M  V30 4356 H 407.722 1.08996 -3.05435 0
M  V30 4357 H 407.507 -0.474188 -3.89222 0
M  V30 4358 H 408.997 0.482367 -4.14805 0
M  V30 4359 N 409.434 1.37368 -0.772513 0
M  V30 4360 C 410.381 2.30262 -0.157488 0
M  V30 4361 C 411.351 1.51137 0.688965 0
M  V30 4362 O 412.536 1.79704 0.641168 0
M  V30 4363 C 409.676 3.37611 0.715045 0
M  V30 4364 C 408.789 4.31746 -0.148098 0
M  V30 4365 C 407.924 5.26171 0.729213 0
M  V30 4366 C 406.963 6.11948 -0.136418 0
M  V30 4367 N 406.1 6.98613 0.698914 0
M  V30 4368 H 410.94 2.82277 -0.955179 0
M  V30 4369 H 408.477 1.38957 -0.482631 0
M  V30 4370 H 410.435 3.98479 1.23575 0
M  V30 4371 H 409.065 2.86959 1.47833 0
M  V30 4372 H 408.117 3.72178 -0.786613 0
M  V30 4373 H 409.429 4.92084 -0.81579 0
M  V30 4374 H 408.583 5.92247 1.31637 0
M  V30 4375 H 407.322 4.66246 1.43059 0
M  V30 4376 H 406.327 5.4485 -0.736102 0
M  V30 4377 H 407.552 6.73945 -0.835134 0
M  V30 4378 H 405.498 6.41215 1.38489 0
M  V30 4379 H 405.415 7.55948 0.0885358 0
M  V30 4380 H 406.683 7.69077 1.27044 0
M  V30 4381 N 410.912 0.523116 1.48665 0
M  V30 4382 C 412.16 -0.0134497 2.02096 0
M  V30 4383 C 412.481 -1.35418 1.40311 0
M  V30 4384 O 411.751 -1.87543 0.566074 0
M  V30 4385 H 410.331 -0.00795915 0.746958 0
M  V30 4386 H 412.993 0.685388 1.82451 0
M  V30 4387 H 412.089 -0.126849 3.11842 0
M  V30 4388 N 412.39 -1.55475 0.257931 0
M  V30 4389 C 413.801 -1.8511 -0.243135 0
M  V30 4390 C 414.152 -1.17986 -1.5676 0
M  V30 4391 O 413.277 -0.462102 -2.11409 0
M  V30 4392 C 413.872 -3.35826 -0.447929 0
M  V30 4393 C 412.431 -3.65647 -0.893245 0
M  V30 4394 C 411.578 -2.7729 0.0232965 0
M  V30 4395 H 414.529 -1.51261 0.480199 0
M  V30 4396 H 414.55 -3.58002 -1.28898 0
M  V30 4397 H 414.062 -3.84652 0.516196 0
M  V30 4398 H 412.163 -3.22308 -1.86945 0
M  V30 4399 H 412.276 -4.73312 -0.742469 0
M  V30 4400 H 410.64 -2.49942 -0.490021 0
M  V30 4401 H 411.423 -3.28926 0.982994 0
M  V30 4402 N 413.868 0.0150385 -1.57593 0
M  V30 4403 C 414.8 1.03912 -2.04291 0
M  V30 4404 C 415.813 1.31618 -0.958146 0
M  V30 4405 O 417.002 1.28859 -1.23522 0
M  V30 4406 C 414.102 2.37749 -2.41514 0
M  V30 4407 C 413.275 2.29198 -3.72541 0
M  V30 4408 C 412.334 3.45598 -3.96797 0
M  V30 4409 O 411.36 3.24461 -4.67668 0
M  V30 4410 N 412.562 4.67945 -3.43523 0
M  V30 4411 H 415.327 0.64099 -2.92765 0
M  V30 4412 H 412.888 0.20272 -1.60626 0
M  V30 4413 H 414.88 3.14364 -2.54867 0
M  V30 4414 H 413.45 2.69357 -1.58637 0
M  V30 4415 H 412.67 1.3759 -3.69408 0
M  V30 4416 H 413.958 2.20642 -4.5847 0
M  V30 4417 H 413.356 4.88017 -2.86104 0
M  V30 4418 H 411.913 5.41878 -3.62232 0
M  V30 4419 N 415.346 1.54954 0.287554 0
M  V30 4420 C 416.256 1.8991 1.37736 0
M  V30 4421 C 417.272 0.794701 1.54792 0
M  V30 4422 O 418.448 1.09243 1.69198 0
M  V30 4423 C 415.513 2.15108 2.71899 0
M  V30 4424 C 414.574 3.38752 2.63715 0
M  V30 4425 C 413.807 3.62739 3.91479 0
M  V30 4426 O 414.03 2.89492 4.91478 0
M  V30 4427 O 412.964 4.56267 3.92561 0
M  V30 4428 H 416.79 2.82652 1.11092 0
M  V30 4429 H 414.375 1.41315 0.484807 0
M  V30 4430 H 416.257 2.32806 3.51254 0
M  V30 4431 H 414.932 1.25551 2.9836 0
M  V30 4432 H 413.839 3.26405 1.82786 0
M  V30 4433 H 415.172 4.28483 2.42205 0
M  V30 4434 N 416.824 -0.551391 1.4764 0
M  V30 4435 C 418.07 -1.31024 1.54792 0
M  V30 4436 C 418.403 -1.9304 0.211967 0
M  V30 4437 O 417.678 -1.78175 -0.77999 0
M  V30 4438 C 417.961 -2.41593 2.67029 0
M  V30 4439 C 417.814 -1.84408 4.10261 0
M  V30 4440 C 419.133 -3.43488 2.75143 0
M  V30 4441 H 416.252 -0.475031 0.563485 0
M  V30 4442 H 418.894 -0.616454 1.79722 0
M  V30 4443 H 417.044 -3.00772 2.45904 0
M  V30 4444 H 418.716 -1.29445 4.42766 0
M  V30 4445 H 416.959 -1.15051 4.18265 0
M  V30 4446 H 417.63 -2.64367 4.84576 0
M  V30 4447 H 420.106 -2.94236 2.94218 0
M  V30 4448 H 418.982 -4.18274 3.55441 0
M  V30 4449 H 419.243 -4.02703 1.82435 0
M  V30 4450 N 418.302 -1.35869 -0.798587 0
M  V30 4451 C 419.265 -1.29307 -1.89242 0
M  V30 4452 C 420.265 -0.202747 -1.59517 0
M  V30 4453 O 421.455 -0.456957 -1.681 0
M  V30 4454 C 418.587 -1.00229 -3.25833 0
M  V30 4455 H 419.78 -2.26576 -1.96478 0
M  V30 4456 H 417.333 -1.20509 -0.995358 0
M  V30 4457 H 418.068 -0.033801 -3.24282 0
M  V30 4458 H 417.853 -1.79121 -3.48795 0
M  V30 4459 H 419.343 -0.98219 -4.05885 0
M  V30 4460 N 419.78 1.02168 -1.19998 0
M  V30 4461 C 421.026 1.75945 -1.00852 0
M  V30 4462 C 421.359 1.88702 0.458828 0
M  V30 4463 O 420.634 1.40911 1.34069 0
M  V30 4464 C 420.917 3.18154 -1.68671 0
M  V30 4465 C 420.77 3.13224 -3.22817 0
M  V30 4466 C 422.089 4.16711 -1.41561 0
M  V30 4467 H 419.208 0.638673 -0.367785 0
M  V30 4468 H 421.85 1.19222 -1.4794 0
M  V30 4469 H 420 3.66586 -1.28636 0
M  V30 4470 H 421.672 2.72635 -3.72112 0
M  V30 4471 H 419.915 2.50751 -3.53986 0
M  V30 4472 H 420.586 4.13728 -3.65422 0
M  V30 4473 H 423.062 3.76913 -1.76284 0
M  V30 4474 H 421.938 5.14391 -1.91553 0
M  V30 4475 H 422.199 4.40774 -0.342193 0
M  V30 4476 N 421.258 1.00505 1.21394 0
M  V30 4477 C 422.488 0.705584 1.94178 0
M  V30 4478 C 422.896 -0.735846 1.74304 0
M  V30 4479 O 422.239 -1.50954 1.04683 0
M  V30 4480 C 422.301 0.94689 3.46806 0
M  V30 4481 C 421.965 2.37517 3.90429 0
M  V30 4482 C 422.962 3.35539 3.97127 0
M  V30 4483 C 420.647 2.71284 4.22742 0
M  V30 4484 C 422.641 4.65395 4.3553 0
M  V30 4485 C 420.328 4.01356 4.60822 0
M  V30 4486 C 421.326 4.98223 4.67186 0
M  V30 4487 O 421.014 6.25969 5.04399 0
M  V30 4488 H 420.746 0.259216 0.624326 0
M  V30 4489 H 423.3 1.34592 1.55159 0
M  V30 4490 H 421.53 0.249386 3.85895 0
M  V30 4491 H 423.219 0.640804 4.0081 0
M  V30 4492 H 423.985 3.10786 3.7234 0
M  V30 4493 H 419.864 1.96581 4.16985 0
M  V30 4494 H 423.408 5.41002 4.40412 0
M  V30 4495 H 419.305 4.25893 4.85063 0
M  V30 4496 H 420.073 6.30085 5.22431 0
M  V30 4497 N 422.737 -1.36956 0.779787 0
M  V30 4498 C 423.983 -1.99787 0.348281 0
M  V30 4499 C 424.316 -1.61756 -1.07465 0
M  V30 4500 O 423.591 -0.867639 -1.74075 0
M  V30 4501 C 423.874 -3.56597 0.50104 0
M  V30 4502 C 423.727 -4.04513 1.96697 0
M  V30 4503 C 425.046 -4.40008 -0.0898097 0
M  V30 4504 H 422.165 -0.725796 0.128022 0
M  V30 4505 H 424.807 -1.62514 0.984331 0
M  V30 4506 H 422.957 -3.88479 -0.0404347 0
M  V30 4507 H 424.629 -3.83161 2.56876 0
M  V30 4508 H 422.872 -3.56408 2.47297 0
M  V30 4509 H 423.543 -5.1352 2.02486 0
M  V30 4510 H 426.019 -4.14431 0.372293 0
M  V30 4511 H 424.895 -5.4888 0.0471605 0
M  V30 4512 H 425.156 -4.26035 -1.18096 0
M  V30 4513 N 424.215 -0.530993 -1.48385 0
M  V30 4514 C 425.147 0.268353 -2.27624 0
M  V30 4515 C 426.16 0.903525 -1.35426 0
M  V30 4516 O 427.349 0.781796 -1.60469 0
M  V30 4517 C 424.449 1.39535 -3.08842 0
M  V30 4518 C 423.622 0.861913 -4.28824 0
M  V30 4519 C 422.681 1.87016 -4.91845 0
M  V30 4520 O 421.707 1.4267 -5.5103 0
M  V30 4521 N 422.909 3.20238 -4.84178 0
M  V30 4522 H 425.674 -0.41123 -2.96865 0
M  V30 4523 H 423.235 -0.365387 -1.57723 0
M  V30 4524 H 425.227 2.06803 -3.47871 0
M  V30 4525 H 423.797 1.97859 -2.42014 0
M  V30 4526 H 423.017 0.0132126 -3.94198 0
M  V30 4527 H 424.305 0.484415 -5.06489 0
M  V30 4528 H 423.703 3.58932 -4.37246 0
M  V30 4529 H 422.26 3.83136 -5.27305 0
M  V30 4530 N 425.693 1.55336 -0.266172 0
M  V30 4531 C 426.603 2.2583 0.635458 0
M  V30 4532 C 427.619 1.28106 1.17749 0
M  V30 4533 O 428.795 1.61024 1.20968 0
M  V30 4534 C 425.86 2.95879 1.80712 0
M  V30 4535 C 424.921 4.09059 1.30265 0
M  V30 4536 C 424.154 4.75759 2.41846 0
M  V30 4537 O 424.377 4.41622 3.61007 0
M  V30 4538 O 423.311 5.63888 2.1051 0
M  V30 4539 H 427.137 3.03631 0.0646693 0
M  V30 4540 H 424.722 1.49361 -0.0339177 0
M  V30 4541 H 426.604 3.39932 2.49047 0
M  V30 4542 H 425.279 2.21002 2.36516 0
M  V30 4543 H 424.186 3.69482 0.586019 0
M  V30 4544 H 425.519 4.85811 0.790458 0
M  V30 4545 N 427.171 -0.0066808 1.57599 0
M  V30 4546 C 428.101 -0.999296 2.11036 0
M  V30 4547 C 429.082 -1.36278 1.01795 0
M  V30 4548 O 430.267 -1.4477 1.29442 0
M  V30 4549 C 427.397 -2.29328 2.60818 0
M  V30 4550 C 426.351 -2.07159 3.74525 0
M  V30 4551 C 425.677 -3.42512 4.10596 0
M  V30 4552 C 426.977 -1.43959 5.02069 0
M  V30 4553 H 428.671 -0.554382 2.94223 0
M  V30 4554 H 426.217 -0.265221 1.41536 0
M  V30 4555 H 428.17 -2.99117 2.96828 0
M  V30 4556 H 426.894 -2.7592 1.74745 0
M  V30 4557 H 425.553 -1.39797 3.38899 0
M  V30 4558 H 425.201 -3.86795 3.21556 0
M  V30 4559 H 424.901 -3.28498 4.87199 0
M  V30 4560 H 426.425 -4.13628 4.4916 0
M  V30 4561 H 427.839 -2.03696 5.35893 0
M  V30 4562 H 426.236 -1.40452 5.83432 0
M  V30 4563 H 427.306 -0.407992 4.83181 0
M  V30 4564 N 428.649 -1.55105 -0.279332 0
M  V30 4565 C 429.581 -1.83952 -1.36727 0
M  V30 4566 C 430.594 -0.723642 -1.45833 0
M  V30 4567 O 431.783 -1.00141 -1.47763 0
M  V30 4568 C 428.883 -1.98183 -2.74912 0
M  V30 4569 C 428.056 -3.28787 -2.88475 0
M  V30 4570 C 427.115 -3.33162 -4.07295 0
M  V30 4571 O 426.141 -4.06576 -3.98353 0
M  V30 4572 N 427.343 -2.60109 -5.18964 0
M  V30 4573 H 430.108 -2.77853 -1.12328 0
M  V30 4574 H 427.669 -1.54945 -0.469442 0
M  V30 4575 H 429.661 -1.98488 -3.52682 0
M  V30 4576 H 428.231 -1.11177 -2.92162 0
M  V30 4577 H 427.451 -3.41075 -1.97641 0
M  V30 4578 H 428.739 -4.14933 -2.94463 0
M  V30 4579 H 428.137 -2.00136 -5.29115 0
M  V30 4580 H 426.694 -2.66143 -5.94988 0
M  V30 4581 N 430.127 0.543554 -1.4793 0
M  V30 4582 C 431.074 1.64942 -1.6144 0
M  V30 4583 C 432.044 1.59692 -0.456903 0
M  V30 4584 O 433.229 1.78321 -0.678688 0
M  V30 4585 C 430.369 3.03238 -1.64744 0
M  V30 4586 C 429.482 3.18823 -2.91506 0
M  V30 4587 C 428.617 4.47599 -2.86057 0
M  V30 4588 C 427.656 4.56664 -4.07584 0
M  V30 4589 N 426.793 5.76811 -4.00292 0
M  V30 4590 H 431.633 1.52733 -2.55884 0
M  V30 4591 H 429.17 0.7438 -1.2691 0
M  V30 4592 H 431.128 3.83339 -1.64641 0
M  V30 4593 H 429.758 3.1425 -0.738017 0
M  V30 4594 H 428.81 2.32064 -3.01414 0
M  V30 4595 H 430.122 3.21384 -3.81463 0
M  V30 4596 H 429.276 5.35975 -2.84281 0
M  V30 4597 H 428.015 4.47538 -1.93807 0
M  V30 4598 H 427.02 3.66697 -4.09651 0
M  V30 4599 H 428.245 4.58474 -5.00978 0
M  V30 4600 H 426.191 5.77673 -3.10853 0
M  V30 4601 H 426.108 5.80808 -4.8394 0
M  V30 4602 H 427.376 6.67512 -4.02553 0
M  V30 4603 N 431.605 1.3629 0.791371 0
M  V30 4604 C 432.535 1.33137 1.91825 0
M  V30 4605 C 433.516 0.203168 1.68882 0
M  V30 4606 O 434.701 0.400509 1.90025 0
M  V30 4607 C 431.831 1.11793 3.28816 0
M  V30 4608 C 430.785 2.21417 3.66277 0
M  V30 4609 C 430.111 1.85218 5.01596 0
M  V30 4610 C 431.411 3.63489 3.75064 0
M  V30 4611 H 433.105 2.2743 1.9472 0
M  V30 4612 H 430.651 1.09479 0.935437 0
M  V30 4613 H 432.604 1.08222 4.07266 0
M  V30 4614 H 431.328 0.139501 3.26302 0
M  V30 4615 H 429.987 2.2411 2.90121 0
M  V30 4616 H 429.635 0.859544 4.95602 0
M  V30 4617 H 429.335 2.58611 5.27631 0
M  V30 4618 H 430.859 1.832 5.82469 0
M  V30 4619 H 432.273 3.63034 4.43711 0
M  V30 4620 H 430.67 4.35771 4.12582 0
M  V30 4621 H 431.74 3.98536 2.76219 0
M  V30 4622 N 433.083 -1.0153 1.20538 0
M  V30 4623 C 434.03 -2.10098 0.955383 0
M  V30 4624 C 435 -1.65702 -0.114878 0
M  V30 4625 O 436.185 -1.90776 0.0301118 0
M  V30 4626 C 433.325 -3.41236 0.514969 0
M  V30 4627 C 432.438 -3.99102 1.65353 0
M  V30 4628 C 431.573 -5.18306 1.16329 0
M  V30 4629 C 430.612 -5.68258 2.27485 0
M  V30 4630 N 429.749 -6.78722 1.7967 0
M  V30 4631 H 434.589 -2.30818 1.88486 0
M  V30 4632 H 432.126 -1.13189 0.939499 0
M  V30 4633 H 434.084 -4.16504 0.240935 0
M  V30 4634 H 432.714 -3.20585 -0.377512 0
M  V30 4635 H 431.766 -3.20918 2.04245 0
M  V30 4636 H 433.078 -4.32177 2.49047 0
M  V30 4637 H 432.232 -6.00782 0.845302 0
M  V30 4638 H 430.971 -4.86799 0.296254 0
M  V30 4639 H 429.976 -4.84385 2.60099 0
M  V30 4640 H 431.201 -6.01798 3.14667 0
M  V30 4641 H 429.147 -6.49042 0.95295 0
M  V30 4642 H 429.064 -7.10996 2.56944 0
M  V30 4643 H 430.332 -7.64759 1.50875 0
M  V30 4644 N 434.561 -1.01147 -1.20859 0
M  V30 4645 C 435.786 -0.716698 -1.94623 0
M  V30 4646 C 436.211 0.715415 -1.73964 0
M  V30 4647 O 435.569 1.49157 -1.03062 0
M  V30 4648 C 435.617 -1.0513 -3.44935 0
M  V30 4649 O 434.721 -0.160131 -4.12089 0
M  V30 4650 H 434.062 -0.266404 -0.608214 0
M  V30 4651 H 436.592 -1.35346 -1.53436 0
M  V30 4652 H 436.602 -1.00086 -3.95533 0
M  V30 4653 H 435.277 -2.09475 -3.59295 0
M  V30 4654 H 433.854 -0.267657 -3.71938 0
M  V30 4655 N 436.039 1.36541 -0.78704 0
M  V30 4656 C 437.264 2.0409 -0.369053 0
M  V30 4657 C 437.689 1.58957 1.00569 0
M  V30 4658 O 437.047 0.756926 1.64743 0
M  V30 4659 C 437.095 3.57924 -0.438466 0
M  V30 4660 O 436.199 4.08642 0.555479 0
M  V30 4661 H 435.54 0.645142 -0.157122 0
M  V30 4662 H 438.07 1.74545 -1.06749 0
M  V30 4663 H 438.08 4.06887 -0.301218 0
M  V30 4664 H 436.755 3.90127 -1.44132 0
M  V30 4665 H 435.332 3.70958 0.380088 0
M  V30 4666 N 437.518 0.538854 1.48102 0
M  V30 4667 C 438.764 0.00801365 2.02798 0
M  V30 4668 C 439.097 -1.3309 1.41424 0
M  V30 4669 O 438.372 -1.86169 0.563158 0
M  V30 4670 C 438.655 -0.104589 3.59948 0
M  V30 4671 C 438.508 1.26012 4.31788 0
M  V30 4672 C 439.827 -0.827055 4.32259 0
M  V30 4673 H 436.946 0.00438624 0.736987 0
M  V30 4674 H 439.588 0.6976 1.7673 0
M  V30 4675 H 437.738 -0.691893 3.82289 0
M  V30 4676 H 439.41 1.88922 4.2084 0
M  V30 4677 H 437.653 1.83968 3.92859 0
M  V30 4678 H 438.324 1.13424 5.40221 0
M  V30 4679 H 440.8 -0.328578 4.14801 0
M  V30 4680 H 439.676 -0.87476 5.41885 0
M  V30 4681 H 439.937 -1.87927 4.0017 0
M  V30 4682 N 438.996 -1.55193 0.274407 0
M  V30 4683 C 439.944 -2.23924 -0.629362 0
M  V30 4684 C 440.938 -1.23602 -1.1584 0
M  V30 4685 O 442.144 -1.41535 -1.11211 0
M  V30 4686 H 438.519 -0.718637 -0.221507 0
M  V30 4687 H 440.49 -2.98388 -0.0268322 0
M  V30 4688 C 439.239 -2.97329 -1.80252 0
M  V30 4689 H 438.562 -3.74313 -1.40462 0
M  V30 4690 H 440.002 -3.48743 -2.41152 0
M  V30 4691 C 438.461 -2.0276 -2.69054 0
M  V30 4692 O 438.991 -1.57836 -3.69392 0
M  V30 4693 N 437.197 -1.69275 -2.36208 0
M  V30 4694 H 436.744 -2.06004 -1.54661 0
M  V30 4695 H 436.702 -1.06271 -2.95895 0
M  V30 4696 N 440.474 -0.00167713 -1.576 0
M  V30 4697 C 441.384 1.00548 -2.1196 0
M  V30 4698 C 442.4 1.3758 -1.06526 0
M  V30 4699 O 443.576 1.46278 -1.38436 0
M  V30 4700 C 440.641 2.27809 -2.6135 0
M  V30 4701 C 439.702 1.97074 -3.81393 0
M  V30 4702 C 438.935 3.18267 -4.28417 0
M  V30 4703 O 439.158 4.30009 -3.74765 0
M  V30 4704 O 438.092 3.02167 -5.20556 0
M  V30 4705 H 441.918 0.573373 -2.98238 0
M  V30 4706 H 439.503 0.217255 -1.47812 0
M  V30 4707 H 441.385 3.02568 -2.93309 0
M  V30 4708 H 440.06 2.70254 -1.78169 0
M  V30 4709 H 438.967 1.19785 -3.54404 0
M  V30 4710 H 440.3 1.59464 -4.65652 0
M  V30 4711 N 441.952 1.55251 0.271103 0
M  V30 4712 C 442.882 1.9127 1.33933 0
M  V30 4713 C 443.863 0.77478 1.5143 0
M  V30 4714 O 445.048 1.03307 1.64442 0
M  V30 4715 C 442.178 2.18627 2.69851 0
M  V30 4716 C 441.132 3.34442 2.67081 0
M  V30 4717 C 440.458 3.47284 4.06569 0
M  V30 4718 C 441.758 4.70784 2.26185 0
M  V30 4719 H 443.452 2.80744 1.04035 0
M  V30 4720 H 440.998 1.35077 0.499017 0
M  V30 4721 H 442.951 2.42413 3.44694 0
M  V30 4722 H 441.675 1.25955 3.01335 0
M  V30 4723 H 440.334 3.10627 1.94695 0
M  V30 4724 H 439.982 2.52074 4.35279 0
M  V30 4725 H 439.682 4.25152 4.0561 0
M  V30 4726 H 441.206 3.73363 4.83148 0
M  V30 4727 H 442.62 4.94102 2.90751 0
M  V30 4728 H 441.017 5.51582 2.36384 0
M  V30 4729 H 442.087 4.69478 1.21319 0
M  V30 4730 N 443.43 -0.535701 1.48216 0
M  V30 4731 C 444.658 -1.31671 1.59594 0
M  V30 4732 C 445.073 -1.87083 0.254056 0
M  V30 4733 O 444.43 -1.66112 -0.755854 0
M  V30 4734 C 444.481 -2.47158 2.63809 0
M  V30 4735 O 444.202 -1.94032 3.92789 0
M  V30 4736 C 445.703 -3.39062 2.85573 0
M  V30 4737 H 442.923 -0.400623 0.538277 0
M  V30 4738 H 445.467 -0.646827 1.94001 0
M  V30 4739 H 443.622 -3.10043 2.32276 0
M  V30 4740 H 444.036 -2.69585 4.49916 0
M  V30 4741 H 445.51 -4.16459 3.62306 0
M  V30 4742 H 445.987 -3.93941 1.94184 0
M  V30 4743 H 446.593 -2.81975 3.18387 0
M  V30 4744 N 444.908 -1.36708 -0.784132 0
M  V30 4745 C 445.84 -1.27333 -1.90575 0
M  V30 4746 C 446.853 -0.191706 -1.61667 0
M  V30 4747 O 448.042 -0.446854 -1.72816 0
M  V30 4748 C 445.142 -0.943177 -3.25511 0
M  V30 4749 C 444.315 -2.12776 -3.82158 0
M  V30 4750 C 443.374 -1.76983 -4.95544 0
M  V30 4751 O 442.4 -2.49134 -5.11782 0
M  V30 4752 N 443.602 -0.706624 -5.76183 0
M  V30 4753 H 446.367 -2.23974 -1.99138 0
M  V30 4754 H 443.928 -1.30171 -0.962656 0
M  V30 4755 H 445.92 -0.684799 -3.98864 0
M  V30 4756 H 444.49 -0.0657333 -3.12531 0
M  V30 4757 H 443.71 -2.54863 -3.0073 0
M  V30 4758 H 444.998 -2.91904 -4.16737 0
M  V30 4759 H 444.396 -0.107643 -5.65598 0
M  V30 4760 H 442.953 -0.50808 -6.49817 0
M  V30 4761 N 446.386 1.0089 -1.21074 0
M  V30 4762 C 447.333 2.09588 -0.966512 0
M  V30 4763 C 448.303 1.65761 0.106089 0
M  V30 4764 O 449.488 1.90758 -0.0402287 0
M  V30 4765 C 446.628 3.40958 -0.533058 0
M  V30 4766 C 445.741 3.9822 -1.67467 0
M  V30 4767 C 444.876 5.17682 -1.19076 0
M  V30 4768 C 443.915 5.67043 -2.30496 0
M  V30 4769 N 443.052 6.77759 -1.83267 0
M  V30 4770 H 447.892 2.29815 -1.89708 0
M  V30 4771 H 445.429 1.12689 -0.945489 0
M  V30 4772 H 447.387 4.1637 -0.263019 0
M  V30 4773 H 446.017 3.20781 0.360505 0
M  V30 4774 H 445.069 3.1983 -2.05944 0
M  V30 4775 H 446.381 4.3085 -2.51336 0
M  V30 4776 H 445.535 6.00326 -0.877151 0
M  V30 4777 H 444.274 4.86635 -0.322066 0
M  V30 4778 H 443.279 4.82999 -2.62664 0
M  V30 4779 H 444.504 6.00121 -3.17855 0
M  V30 4780 H 442.45 6.48527 -0.987356 0
M  V30 4781 H 442.367 7.09624 -2.60711 0
M  V30 4782 H 443.635 7.63949 -1.54928 0
M  V30 4783 N 447.864 1.01787 1.20321 0
M  V30 4784 C 448.812 0.58254 2.25187 0
M  V30 4785 C 449.806 -0.379359 1.65098 0
M  V30 4786 O 451.012 -0.249142 1.78267 0
M  V30 4787 H 447.387 0.170078 0.732514 0
M  V30 4788 H 449.358 1.47788 2.59232 0
M  V30 4789 C 448.107 -0.0620885 3.47645 0
M  V30 4790 H 447.43 0.669069 3.94162 0
M  V30 4791 H 448.87 -0.329784 4.22716 0
M  V30 4792 C 447.329 -1.3053 3.10586 0
M  V30 4793 O 447.859 -2.39848 3.22236 0
M  V30 4794 N 446.065 -1.18988 2.65123 0
M  V30 4795 H 445.612 -0.300341 2.55843 0
M  V30 4796 H 445.57 -2.02267 2.40698 0
M  V30 4797 N 449.342 -1.36122 0.79427 0
M  V30 4798 C 450.274 -2.28683 0.153903 0
M  V30 4799 C 451.287 -1.49707 -0.639669 0
M  V30 4800 O 452.476 -1.7209 -0.474054 0
M  V30 4801 C 449.576 -3.29202 -0.804921 0
M  V30 4802 C 448.749 -4.37358 -0.060366 0
M  V30 4803 C 447.808 -5.17811 -0.935849 0
M  V30 4804 O 446.834 -5.67853 -0.391309 0
M  V30 4805 N 448.036 -5.34721 -2.25951 0
M  V30 4806 H 450.801 -2.84278 0.949008 0
M  V30 4807 H 448.362 -1.4834 0.648611 0
M  V30 4808 H 450.354 -3.79914 -1.39455 0
M  V30 4809 H 448.924 -2.74212 -1.50088 0
M  V30 4810 H 448.144 -3.87746 0.710382 0
M  V30 4811 H 449.432 -5.06777 0.45324 0
M  V30 4812 H 448.83 -4.95687 -2.72601 0
M  V30 4813 H 447.387 -5.88657 -2.79867 0
M  V30 4814 N 450.82 -0.546701 -1.47814 0
M  V30 4815 C 452.048 -0.0232857 -2.06887 0
M  V30 4816 C 452.463 1.26571 -1.4009 0
M  V30 4817 O 451.82 1.7569 -0.493906 0
M  V30 4818 C 451.871 0.186975 -3.61016 0
M  V30 4819 O 451.592 -1.05097 -4.25307 0
M  V30 4820 C 453.093 0.748872 -4.36929 0
M  V30 4821 H 450.313 -0.0410763 -0.669742 0
M  V30 4822 H 452.857 -0.757117 -1.89968 0
M  V30 4823 H 451.012 0.870903 -3.77484 0
M  V30 4824 H 451.426 -0.842121 -5.17695 0
M  V30 4825 H 452.9 0.845334 -5.45489 0
M  V30 4826 H 453.377 1.75772 -4.02493 0
M  V30 4827 H 453.983 0.100979 -4.2518 0
M  V30 4828 N 452.299 1.55045 -0.282633 0
M  V30 4829 C 453.229 2.2579 0.595066 0
M  V30 4830 C 454.21 1.25074 1.15284 0
M  V30 4831 O 455.395 1.5381 1.18559 0
M  V30 4832 C 452.525 2.98472 1.77572 0
M  V30 4833 C 451.479 4.0618 1.34914 0
M  V30 4834 C 450.805 4.66477 2.6135 0
M  V30 4835 C 452.105 5.1996 0.493821 0
M  V30 4836 H 453.799 2.994 0.00505653 0
M  V30 4837 H 451.345 1.44 0.000992001 0
M  V30 4838 H 453.298 3.46677 2.39568 0
M  V30 4839 H 452.022 2.2241 2.39168 0
M  V30 4840 H 450.681 3.58797 0.752338 0
M  V30 4841 H 450.329 3.87074 3.2122 0
M  V30 4842 H 450.029 5.39207 2.33516 0
M  V30 4843 H 451.553 5.17435 3.24181 0
M  V30 4844 H 452.967 5.64172 1.01898 0
M  V30 4845 H 451.364 5.99299 0.310047 0
M  V30 4846 H 452.434 4.82462 -0.485593 0
M  V30 4847 N 453.777 0.010035 1.57597 0
M  V30 4848 C 455.005 -0.683413 1.95287 0
M  V30 4849 C 455.42 -1.66747 0.885481 0
M  V30 4850 O 454.777 -1.82003 -0.134629 0
M  V30 4851 C 454.828 -1.40652 3.33015 0
M  V30 4852 O 454.549 -0.461916 4.35658 0
M  V30 4853 C 456.05 -2.19356 3.85225 0
M  V30 4854 H 453.27 -0.189708 0.643624 0
M  V30 4855 H 455.814 0.0641359 2.04399 0
M  V30 4856 H 453.969 -2.10562 3.2518 0
M  V30 4857 H 454.383 -0.973215 5.15392 0
M  V30 4858 H 455.857 -2.65433 4.83993 0
M  V30 4859 H 456.334 -3.02457 3.18459 0
M  V30 4860 H 456.94 -1.54442 3.96267 0
M  V30 4861 N 455.255 -1.55392 -0.262866 0
M  V30 4862 C 456.165 -1.92077 -1.34698 0
M  V30 4863 C 457.181 -0.819227 -1.53508 0
M  V30 4864 O 458.357 -1.11921 -1.67439 0
M  V30 4865 C 455.422 -2.19407 -2.68443 0
M  V30 4866 C 454.483 -3.42905 -2.58292 0
M  V30 4867 C 453.716 -3.68921 -3.85659 0
M  V30 4868 O 453.939 -2.97275 -4.8681 0
M  V30 4869 O 452.873 -4.62455 -3.85252 0
M  V30 4870 H 456.699 -2.84384 -1.06581 0
M  V30 4871 H 454.284 -1.42069 -0.462264 0
M  V30 4872 H 456.166 -2.38365 -3.47506 0
M  V30 4873 H 454.841 -1.30282 -2.96325 0
M  V30 4874 H 453.748 -3.29272 -1.7757 0
M  V30 4875 H 455.081 -4.32282 -2.35358 0
M  V30 4876 N 456.733 0.527833 -1.48498 0
M  V30 4877 C 457.681 1.65313 -1.63628 0
M  V30 4878 C 458.675 1.6177 -0.502676 0
M  V30 4879 O 459.881 1.66601 -0.681469 0
M  V30 4880 H 456.256 0.547518 -0.515488 0
M  V30 4881 H 458.227 1.49696 -2.58135 0
M  V30 4882 C 456.976 3.03576 -1.6952 0
M  V30 4883 H 456.299 3.06997 -2.56111 0
M  V30 4884 H 457.739 3.81923 -1.84149 0
M  V30 4885 C 456.198 3.34089 -0.43432 0
M  V30 4886 O 456.728 3.99151 0.451852 0
M  V30 4887 N 454.934 2.88991 -0.305368 0
M  V30 4888 H 454.481 2.36222 -1.02747 0
M  V30 4889 H 454.439 3.09776 0.537249 0
M  V30 4890 N 458.211 1.37122 0.776871 0
M  V30 4891 C 459.141 1.35164 1.90402 0
M  V30 4892 C 460.122 0.221069 1.68657 0
M  V30 4893 O 461.307 0.420642 1.8959 0
M  V30 4894 C 458.437 1.15274 3.27611 0
M  V30 4895 C 457.391 2.25289 3.63908 0
M  V30 4896 C 456.717 1.90527 4.99603 0
M  V30 4897 C 458.017 3.67446 3.71188 0
M  V30 4898 H 459.711 2.29482 1.92297 0
M  V30 4899 H 457.257 1.10465 0.923773 0
M  V30 4900 H 459.21 1.12536 4.06096 0
M  V30 4901 H 457.934 0.174102 3.26136 0
M  V30 4902 H 456.593 2.27174 2.87728 0
M  V30 4903 H 456.241 0.91206 4.94662 0
M  V30 4904 H 455.941 2.64193 5.24858 0
M  V30 4905 H 457.465 1.89367 5.80493 0
M  V30 4906 H 458.879 3.67719 4.39836 0
M  V30 4907 H 457.276 4.40123 4.07936 0
M  V30 4908 H 458.346 4.01443 2.71977 0
M  V30 4909 N 459.689 -1.00246 1.21608 0
M  V30 4910 C 460.619 -2.10921 1.00172 0
M  V30 4911 C 461.6 -1.69938 -0.0741587 0
M  V30 4912 O 462.785 -1.94009 0.0861753 0
M  V30 4913 C 459.915 -3.42618 0.568355 0
M  V30 4914 C 458.869 -3.97407 1.58909 0
M  V30 4915 C 458.195 -5.25038 1.01187 0
M  V30 4916 C 459.495 -4.2918 2.97661 0
M  V30 4917 H 461.189 -2.29112 1.92739 0
M  V30 4918 H 458.735 -1.10101 0.928102 0
M  V30 4919 H 460.688 -4.19444 0.405555 0
M  V30 4920 H 459.412 -3.24227 -0.392961 0
M  V30 4921 H 458.071 -3.22703 1.73949 0
M  V30 4922 H 457.719 -5.02982 0.0421965 0
M  V30 4923 H 457.419 -5.62661 1.6937 0
M  V30 4924 H 458.943 -6.04507 0.860448 0
M  V30 4925 H 460.357 -4.96839 2.86049 0
M  V30 4926 H 458.754 -4.77952 3.6288 0
M  V30 4927 H 459.824 -3.3735 3.48315 0
M  V30 4928 N 461.167 -1.02423 -1.1978 0
M  V30 4929 C 462.114 -0.601023 -2.22837 0
M  V30 4930 C 463.084 0.382801 -1.61629 0
M  V30 4931 O 464.269 0.280514 -1.88727 0
M  V30 4932 C 461.409 0.0467755 -3.45068 0
M  V30 4933 C 460.522 -0.98253 -4.20678 0
M  V30 4934 C 459.657 -0.304982 -5.30324 0
M  V30 4935 C 458.696 -1.32052 -5.97686 0
M  V30 4936 N 457.833 -0.669105 -6.98904 0
M  V30 4937 H 462.673 -1.48444 -2.58396 0
M  V30 4938 H 460.21 -0.742936 -1.2696 0
M  V30 4939 H 462.168 0.439556 -4.14878 0
M  V30 4940 H 460.798 0.893796 -3.10179 0
M  V30 4941 H 459.85 -1.49341 -3.49859 0
M  V30 4942 H 461.162 -1.75455 -4.66923 0
M  V30 4943 H 460.316 0.142893 -6.06532 0
M  V30 4944 H 459.055 0.499283 -4.85138 0
M  V30 4945 H 458.06 -1.7787 -5.20233 0
M  V30 4946 H 459.285 -2.1262 -6.44957 0
M  V30 4947 H 457.231 0.115152 -6.55899 0
M  V30 4948 H 457.148 -1.37908 -7.43315 0
M  V30 4949 H 458.416 -0.245076 -7.79115 0
M  V30 4950 N 462.645 1.35699 -0.801477 0
M  V30 4951 C 463.592 2.29876 -0.206294 0
M  V30 4952 C 464.562 1.52565 0.656752 0
M  V30 4953 O 465.747 1.81024 0.602906 0
M  V30 4954 C 462.887 3.39052 0.643272 0
M  V30 4955 C 462 4.31335 -0.239644 0
M  V30 4956 C 461.135 5.27599 0.61744 0
M  V30 4957 C 460.174 6.11521 -0.26619 0
M  V30 4958 N 459.311 6.99938 0.550571 0
M  V30 4959 H 464.151 2.80187 -1.01484 0
M  V30 4960 H 461.688 1.37902 -0.511997 0
M  V30 4961 H 463.646 4.0101 1.15094 0
M  V30 4962 H 462.276 2.9003 1.41713 0
M  V30 4963 H 461.328 3.70426 -0.865381 0
M  V30 4964 H 462.64 4.90243 -0.919985 0
M  V30 4965 H 461.794 5.94906 1.19045 0
M  V30 4966 H 460.533 4.69176 1.33137 0
M  V30 4967 H 459.538 5.43166 -0.851507 0
M  V30 4968 H 460.763 6.72022 -0.9779 0
M  V30 4969 H 458.709 6.44008 1.24856 0
M  V30 4970 H 458.626 7.55966 -0.071832 0
M  V30 4971 H 459.894 7.71599 1.10702 0
M  V30 4972 N 464.123 0.554532 1.47522 0
M  V30 4973 C 465.033 -0.197865 2.33764 0
M  V30 4974 C 466.049 -0.914576 1.48025 0
M  V30 4975 O 467.225 -0.884067 1.80959 0
M  V30 4976 C 464.29 -1.21628 3.24665 0
M  V30 4977 C 463.351 -0.507283 4.26292 0
M  V30 4978 C 462.584 -1.47718 5.1285 0
M  V30 4979 O 462.807 -2.7118 5.01814 0
M  V30 4980 O 461.741 -1.00313 5.93482 0
M  V30 4981 H 465.567 0.50949 2.99396 0
M  V30 4982 H 463.152 0.315176 1.46038 0
M  V30 4983 H 465.034 -1.80421 3.80823 0
M  V30 4984 H 463.709 -1.9056 2.61665 0
M  V30 4985 H 462.616 0.121778 3.73902 0
M  V30 4986 H 463.949 0.140544 4.91999 0
M  V30 4987 N 465.601 -1.54893 0.290851 0
M  V30 4988 C 466.533 -2.20564 -0.623236 0
M  V30 4989 C 467.546 -1.19519 -1.1054 0
M  V30 4990 O 468.735 -1.46165 -1.02459 0
M  V30 4991 C 465.835 -2.83033 -1.86401 0
M  V30 4992 C 465.008 -4.09916 -1.52604 0
M  V30 4993 C 464.067 -4.56284 -2.62091 0
M  V30 4994 O 463.093 -5.2171 -2.27612 0
M  V30 4995 N 464.295 -4.27746 -3.92446 0
M  V30 4996 H 467.06 -2.99638 -0.0610915 0
M  V30 4997 H 464.621 -1.61508 0.112615 0
M  V30 4998 H 466.613 -3.1099 -2.58973 0
M  V30 4999 H 465.183 -2.0786 -2.33481 0
M  V30 5000 H 464.403 -3.89078 -0.633424 0
M  V30 5001 H 465.691 -4.92554 -1.27547 0
M  V30 5002 H 465.089 -3.7531 -4.23272 0
M  V30 5003 H 463.646 -4.60437 -4.61347 0
M  V30 5004 N 467.08 -0.0183926 -1.57589 0
M  V30 5005 C 468.357 0.700621 -1.82622 0
M  V30 5006 C 468.737 1.90951 -0.90005 0
M  V30 5007 O 468.085 2.28452 0.0469145 0
M  V30 5008 C 468.295 1.08899 -3.31575 0
M  V30 5009 C 469.643 1.48514 -3.9778 0
M  V30 5010 O 470.667 1.18227 -3.36007 0
M  V30 5011 O 469.526 2.04903 -5.06633 0
M  V30 5012 H 466.62 0.342743 -0.752633 0
M  V30 5013 H 469.166 -0.0452548 -1.6964 0
M  V30 5014 H 467.938 0.228113 -3.90635 0
M  V30 5015 H 467.561 1.89338 -3.49624 0
M  V30 5016 N 468.558 1.5553 0.254621 0
M  V30 5017 C 469.788 1.80784 1.00004 0
M  V30 5018 C 470.196 0.59071 1.79742 0
M  V30 5019 O 469.539 -0.449988 1.78103 0
M  V30 5020 C 469.601 2.99268 1.99196 0
M  V30 5021 C 469.265 4.35595 1.38224 0
M  V30 5022 C 470.262 5.13884 0.788611 0
M  V30 5023 C 467.947 4.82281 1.40393 0
M  V30 5024 C 469.941 6.37004 0.224783 0
M  V30 5025 C 467.628 6.05351 0.836243 0
M  V30 5026 C 468.626 6.82551 0.24769 0
M  V30 5027 O 468.314 8.03297 -0.311249 0
M  V30 5028 H 468.046 0.60565 0.300274 0
M  V30 5029 H 470.6 2.03411 0.285143 0
M  V30 5030 H 468.83 2.72377 2.74496 0
M  V30 5031 H 470.519 3.11682 2.60018 0
M  V30 5032 H 471.285 4.78938 0.764423 0
M  V30 5033 H 467.164 4.22189 1.85142 0
M  V30 5034 H 470.708 6.97203 -0.235235 0
M  V30 5035 H 466.605 6.39776 0.857733 0
M  V30 5036 H 467.373 8.1825 -0.20237 0
M  V30 5037 N 470.036 -0.519951 1.48776 0
M  V30 5038 C 471.264 -1.29971 1.60982 0
M  V30 5039 C 471.679 -1.86803 0.273885 0
M  V30 5040 O 471.036 -1.66904 -0.738193 0
M  V30 5041 C 471.087 -2.44346 2.66415 0
M  V30 5042 O 470.808 -1.89855 3.94825 0
M  V30 5043 C 472.309 -3.36014 2.89153 0
M  V30 5044 H 469.529 -0.394891 0.542496 0
M  V30 5045 H 472.073 -0.626214 1.94676 0
M  V30 5046 H 470.228 -3.07562 2.35552 0
M  V30 5047 H 470.642 -2.64798 4.5275 0
M  V30 5048 H 472.116 -4.12593 3.66703 0
M  V30 5049 H 472.593 -3.91859 1.98351 0
M  V30 5050 H 473.199 -2.78582 3.21359 0
M  V30 5051 N 471.514 -1.37532 -0.769588 0
M  V30 5052 C 472.461 -1.3347 -1.88293 0
M  V30 5053 C 473.431 -0.199891 -1.64893 0
M  V30 5054 O 474.616 -0.389594 -1.8678 0
M  V30 5055 C 471.756 -1.14968 -3.25387 0
M  V30 5056 C 470.869 -2.37698 -3.60727 0
M  V30 5057 C 470.004 -2.12051 -4.8704 0
M  V30 5058 C 469.043 -3.30636 -5.15117 0
M  V30 5059 N 468.18 -3.04527 -6.3262 0
M  V30 5060 H 473.02 -2.28658 -1.911 0
M  V30 5061 H 470.557 -1.13622 -0.934257 0
M  V30 5062 H 472.515 -1.02261 -4.04473 0
M  V30 5063 H 471.145 -0.234263 -3.21949 0
M  V30 5064 H 470.197 -2.61137 -2.76608 0
M  V30 5065 H 471.509 -3.26131 -3.77413 0
M  V30 5066 H 470.663 -1.96388 -5.74035 0
M  V30 5067 H 469.402 -1.20959 -4.72462 0
M  V30 5068 H 468.407 -3.46836 -4.26597 0
M  V30 5069 H 469.632 -4.22582 -5.31603 0
M  V30 5070 H 467.578 -2.16067 -6.19396 0
M  V30 5071 H 467.495 -3.86503 -6.49732 0
M  V30 5072 H 468.763 -2.92485 -7.22546 0
M  V30 5073 N 472.992 0.995999 -1.22138 0
M  V30 5074 C 473.922 2.10387 -1.01289 0
M  V30 5075 C 474.903 1.69975 0.0651454 0
M  V30 5076 O 476.088 1.9396 -0.0964628 0
M  V30 5077 C 473.218 3.42312 -0.586517 0
M  V30 5078 C 472.172 3.96558 -1.61014 0
M  V30 5079 C 471.498 5.24494 -1.0397 0
M  V30 5080 C 472.798 4.27595 -2.99933 0
M  V30 5081 H 474.492 2.28086 -1.93951 0
M  V30 5082 H 472.038 1.09607 -0.933928 0
M  V30 5083 H 473.991 4.19223 -0.427793 0
M  V30 5084 H 472.715 3.24431 0.375761 0
M  V30 5085 H 471.374 3.21776 -1.75658 0
M  V30 5086 H 471.022 5.02953 -0.0688703 0
M  V30 5087 H 470.722 5.61755 -1.72352 0
M  V30 5088 H 472.246 6.04042 -0.892494 0
M  V30 5089 H 473.66 4.95315 -2.8868 0
M  V30 5090 H 472.057 4.76021 -3.6541 0
M  V30 5091 H 473.127 3.35498 -3.50099 0
M  V30 5092 N 474.47 1.03057 1.19235 0
M  V30 5093 C 475.38 0.622922 2.26179 0
M  V30 5094 C 476.396 -0.346113 1.70523 0
M  V30 5095 O 477.572 -0.203572 2.00369 0
M  V30 5096 C 474.637 -0.0182063 3.46695 0
M  V30 5097 C 473.698 0.998546 4.17526 0
M  V30 5098 C 472.931 0.387917 5.32288 0
M  V30 5099 O 473.154 -0.808668 5.64639 0
M  V30 5100 O 472.088 1.1116 5.91546 0
M  V30 5101 H 475.914 1.51363 2.63292 0
M  V30 5102 H 473.499 0.800856 1.26122 0
M  V30 5103 H 475.381 -0.375606 4.19723 0
M  V30 5104 H 474.056 -0.882895 3.11427 0
M  V30 5105 H 472.963 1.40756 3.4661 0
M  V30 5106 H 474.296 1.83366 4.56769 0
M  V30 5107 N 475.948 -1.35272 0.808662 0
M  V30 5108 C 476.858 -2.33546 0.222079 0
M  V30 5109 C 477.874 -1.6196 -0.636011 0
M  V30 5110 O 479.05 -1.93822 -0.547274 0
M  V30 5111 C 476.115 -3.41148 -0.61795 0
M  V30 5112 C 475.176 -4.28507 0.260875 0
M  V30 5113 C 474.409 -5.3097 -0.539156 0
M  V30 5114 O 474.632 -5.42123 -1.77367 0
M  V30 5115 O 473.566 -6.01858 0.0710526 0
M  V30 5116 H 477.392 -2.85515 1.03512 0
M  V30 5117 H 474.977 -1.38079 0.570495 0
M  V30 5118 H 476.859 -4.06889 -1.09634 0
M  V30 5119 H 475.534 -2.91447 -1.40855 0
M  V30 5120 H 474.441 -3.6574 0.786451 0
M  V30 5121 H 475.774 -4.81611 1.01547 0
M  V30 5122 N 477.426 -0.562348 -1.47226 0
M  V30 5123 C 478.373 0.182461 -2.30078 0
M  V30 5124 C 479.343 0.903503 -1.39377 0
M  V30 5125 O 480.528 0.898188 -1.68337 0
M  V30 5126 C 477.668 1.20322 -3.23445 0
M  V30 5127 C 476.781 0.487717 -4.29238 0
M  V30 5128 C 475.916 1.49422 -5.09752 0
M  V30 5129 C 474.955 0.763976 -6.07314 0
M  V30 5130 N 474.092 1.71755 -6.80768 0
M  V30 5131 H 478.932 -0.530169 -2.93246 0
M  V30 5132 H 476.469 -0.273276 -1.44539 0
M  V30 5133 H 478.427 1.80768 -3.76004 0
M  V30 5134 H 477.057 1.88382 -2.6213 0
M  V30 5135 H 476.109 -0.231374 -3.79696 0
M  V30 5136 H 477.421 -0.0841003 -4.98729 0
M  V30 5137 H 476.575 2.17206 -5.66486 0
M  V30 5138 H 475.314 2.09995 -4.40174 0
M  V30 5139 H 474.319 0.0722344 -5.49753 0
M  V30 5140 H 475.544 0.16391 -6.78902 0
M  V30 5141 H 473.49 2.31177 -6.13916 0
M  V30 5142 H 473.407 1.19802 -7.46447 0
M  V30 5143 H 474.675 2.38638 -7.42073 0
M  V30 5144 N 478.904 1.54736 -0.299062 0
M  V30 5145 C 479.854 2.20155 0.592932 0
M  V30 5146 C 480.838 1.1739 1.10038 0
M  V30 5147 O 482.03 1.43116 1.04147 0
M  V30 5148 C 479.159 2.94437 1.76527 0
M  V30 5149 C 478.245 4.04516 1.27388 0
M  V30 5150 N 478.636 5.03319 0.500339 0
M  V30 5151 C 476.934 4.18022 1.55478 0
M  V30 5152 C 477.635 5.81209 0.238909 0
M  V30 5153 N 476.611 5.37408 0.818163 0
M  V30 5154 H 480.413 2.93899 -0.00563596 0
M  V30 5155 H 477.927 1.62068 -0.103732 0
M  V30 5156 H 479.924 3.3977 2.41582 0
M  V30 5157 H 478.584 2.22209 2.36756 0
M  V30 5158 H 479.595 5.17696 0.145419 0
M  V30 5159 H 476.272 3.56998 2.16469 0
M  V30 5160 H 477.662 6.70812 -0.382223 0
M  V30 5161 N 480.382 0.0267497 1.57577 0
M  V30 5162 C 481.33 -0.973923 2.11229 0
M  V30 5163 C 482.324 -1.33849 1.03831 0
M  V30 5164 O 483.53 -1.321 1.22269 0
M  V30 5165 H 479.905 -0.331844 0.674821 0
M  V30 5166 H 481.876 -0.496092 2.94247 0
M  V30 5167 C 480.625 -2.24798 2.65257 0
M  V30 5168 H 479.948 -1.9762 3.47543 0
M  V30 5169 H 481.388 -2.93031 3.06445 0
M  V30 5170 C 479.847 -2.97611 1.57891 0
M  V30 5171 O 480.377 -3.89629 0.97735 0
M  V30 5172 N 478.583 -2.59905 1.29992 0
M  V30 5173 H 478.13 -1.85154 1.79097 0
M  V30 5174 H 478.088 -3.08932 0.583798 0
M  V30 5175 N 481.861 -1.55662 -0.24637 0
M  V30 5176 C 482.771 -1.93495 -1.32653 0
M  V30 5177 C 483.787 -0.835462 -1.5263 0
M  V30 5178 O 484.963 -1.1369 -1.66242 0
M  V30 5179 C 482.028 -2.22242 -2.66101 0
M  V30 5180 C 481.089 -3.45625 -2.54641 0
M  V30 5181 C 480.322 -3.72991 -3.81724 0
M  V30 5182 O 480.545 -3.02421 -4.8363 0
M  V30 5183 O 479.479 -4.66515 -3.80325 0
M  V30 5184 H 483.305 -2.85498 -1.03559 0
M  V30 5185 H 480.89 -1.42551 -0.44717 0
M  V30 5186 H 482.772 -2.42037 -3.44958 0
M  V30 5187 H 481.447 -1.33417 -2.94926 0
M  V30 5188 H 480.354 -3.31136 -1.74067 0
M  V30 5189 H 481.687 -4.34754 -2.3076 0
M  V30 5190 N 483.339 0.512053 -1.4905 0
M  V30 5191 C 484.249 1.64139 -1.67617 0
M  V30 5192 C 485.265 1.64786 -0.558701 0
M  V30 5193 O 486.441 1.8341 -0.832034 0
M  V30 5194 C 483.506 3.00548 -1.72835 0
M  V30 5195 C 482.567 3.10615 -2.96339 0
M  V30 5196 C 481.8 4.40517 -3.01298 0
M  V30 5197 O 482.023 5.28671 -2.14157 0
M  V30 5198 O 480.957 4.55325 -3.93653 0
M  V30 5199 H 484.783 1.51407 -2.63267 0
M  V30 5200 H 482.368 0.687131 -1.32661 0
M  V30 5201 H 484.25 3.81641 -1.78683 0
M  V30 5202 H 482.925 3.13566 -0.803616 0
M  V30 5203 H 481.832 2.2875 -2.96014 0
M  V30 5204 H 483.165 3.0252 -3.88256 0
M  V30 5205 N 484.817 1.37938 0.762283 0
M  V30 5206 C 486.042 1.37059 1.55659 0
M  V30 5207 C 486.467 -0.0396123 1.88058 0
M  V30 5208 O 485.825 -1.01929 1.49934 0
M  V30 5209 C 485.873 2.22494 2.83776 0
M  V30 5210 O 484.977 1.63607 3.78559 0
M  V30 5211 H 484.318 0.467892 0.47114 0
M  V30 5212 H 486.848 1.81587 0.942725 0
M  V30 5213 H 486.858 2.36045 3.32786 0
M  V30 5214 H 485.533 3.24993 2.59524 0
M  V30 5215 H 484.11 1.5915 3.37233 0
M  V30 5216 N 486.295 -0.989507 1.22664 0
M  V30 5217 C 487.541 -1.7321 1.05481 0
M  V30 5218 C 487.874 -1.89852 -0.408635 0
M  V30 5219 O 487.149 -1.44416 -1.30285 0
M  V30 5220 C 487.432 -3.1357 1.77047 0
M  V30 5221 C 487.285 -3.04555 3.31008 0
M  V30 5222 C 488.604 -4.12812 1.5256 0
M  V30 5223 H 485.723 -0.628697 0.384589 0
M  V30 5224 H 488.365 -1.15258 1.51049 0
M  V30 5225 H 486.515 -3.63046 1.3831 0
M  V30 5226 H 488.187 -2.62674 3.7921 0
M  V30 5227 H 486.43 -2.41278 3.6051 0
M  V30 5228 H 487.101 -4.03894 3.76263 0
M  V30 5229 H 489.577 -3.72106 1.86215 0
M  V30 5230 H 488.453 -5.09132 2.05124 0
M  V30 5231 H 488.714 -4.39711 0.458936 0
M  V30 5232 N 487.773 -1.03688 -1.18687 0
M  V30 5233 C 488.998 -0.757819 -1.93059 0
M  V30 5234 C 489.423 0.678353 -1.75442 0
M  V30 5235 O 488.781 1.46938 -1.06203 0
M  V30 5236 C 488.829 -1.12423 -3.42627 0
M  V30 5237 O 487.933 -0.247505 -4.11657 0
M  V30 5238 H 487.274 -0.279245 -0.602427 0
M  V30 5239 H 489.804 -1.3857 -1.5053 0
M  V30 5240 H 489.814 -1.08454 -3.93322 0
M  V30 5241 H 488.489 -2.17049 -3.54771 0
M  V30 5242 H 487.066 -0.34649 -3.71287 0
M  V30 5243 N 489.251 1.34841 -0.815825 0
M  V30 5244 C 490.198 2.29644 -0.230664 0
M  V30 5245 C 491.168 1.53253 0.640533 0
M  V30 5246 O 492.353 1.81653 0.583672 0
M  V30 5247 C 489.493 3.39715 0.607275 0
M  V30 5248 C 488.606 4.31056 -0.28538 0
M  V30 5249 C 487.741 5.28225 0.561446 0
M  V30 5250 C 486.78 6.11204 -0.331035 0
M  V30 5251 N 485.917 7.00483 0.476302 0
M  V30 5252 H 490.757 2.79095 -1.0445 0
M  V30 5253 H 488.294 1.37351 -0.526595 0
M  V30 5254 H 490.252 4.02208 1.10835 0
M  V30 5255 H 488.882 2.91517 1.38629 0
M  V30 5256 H 487.934 3.69487 -0.904621 0
M  V30 5257 H 489.246 4.89239 -0.97193 0
M  V30 5258 H 488.4 5.96135 1.12728 0
M  V30 5259 H 487.139 4.70562 1.28153 0
M  V30 5260 H 486.144 5.42232 -0.909069 0
M  V30 5261 H 487.369 6.70947 -1.04912 0
M  V30 5262 H 485.315 6.45296 1.18019 0
M  V30 5263 H 485.232 7.55847 -0.152008 0
M  V30 5264 H 486.5 7.7273 1.02512 0
M  V30 5265 N 490.729 0.570148 1.46925 0
M  V30 5266 C 491.676 -0.170257 2.30171 0
M  V30 5267 C 492.646 -0.896099 1.39855 0
M  V30 5268 O 493.831 -0.889248 1.68811 0
M  V30 5269 C 490.971 -1.18605 3.24079 0
M  V30 5270 C 490.084 -0.464947 4.29491 0
M  V30 5271 C 489.219 -1.46716 5.10537 0
M  V30 5272 C 488.258 -0.731758 6.0771 0
M  V30 5273 N 487.395 -1.68142 6.81669 0
M  V30 5274 H 492.235 0.545713 2.92961 0
M  V30 5275 H 489.772 0.280938 1.44392 0
M  V30 5276 H 491.73 -1.78771 3.76957 0
M  V30 5277 H 490.36 -1.86989 2.63125 0
M  V30 5278 H 489.412 0.251506 3.79568 0
M  V30 5279 H 490.724 0.110548 4.98677 0
M  V30 5280 H 489.878 -2.14199 5.6763 0
M  V30 5281 H 488.617 -2.07658 4.41282 0
M  V30 5282 H 487.622 -0.0430787 5.49783 0
M  V30 5283 H 488.847 -0.127904 6.7898 0
M  V30 5284 H 486.793 -2.27918 6.15134 0
M  V30 5285 H 486.71 -1.15841 7.47072 0
M  V30 5286 H 487.978 -2.347 7.43328 0
M  V30 5287 N 492.207 -1.54576 0.307264 0
M  V30 5288 C 493.155 -2.25208 -0.581723 0
M  V30 5289 C 494.149 -1.26031 -1.13192 0
M  V30 5290 O 495.355 -1.43862 -1.08184 0
M  V30 5291 H 491.73 -0.723173 -0.206214 0
M  V30 5292 H 493.701 -2.98378 0.0364663 0
M  V30 5293 C 492.45 -3.01086 -1.73904 0
M  V30 5294 H 491.773 -3.77208 -1.32491 0
M  V30 5295 H 493.213 -3.5378 -2.33701 0
M  V30 5296 C 491.672 -2.08422 -2.64692 0
M  V30 5297 O 492.202 -1.65636 -3.65961 0
M  V30 5298 N 490.408 -1.74247 -2.32564 0
M  V30 5299 H 489.955 -2.09238 -1.50257 0
M  V30 5300 H 489.913 -1.12524 -2.93574 0
M  V30 5301 N 493.685 -0.035106 -1.57561 0
M  V30 5302 C 494.934 0.641604 -1.91223 0
M  V30 5303 C 495.247 1.72944 -0.913761 0
M  V30 5304 O 496.453 2.46321 -1.14185 0
M  V30 5305 C 494.909 1.19249 -3.3957 0
M  V30 5306 C 494.517 0.137616 -4.47789 0
M  V30 5307 C 496.261 1.84537 -3.82291 0
M  V30 5308 C 494.168 0.700478 -5.87237 0
M  V30 5309 H 493.098 0.243417 -0.713627 0
M  V30 5310 H 495.749 -0.101382 -1.8322 0
M  V30 5311 H 494.131 1.98728 -3.42525 0
M  V30 5312 H 495.305 -0.635153 -4.56402 0
M  V30 5313 H 493.62 -0.416855 -4.14308 0
M  V30 5314 H 496.217 2.27616 -4.83834 0
M  V30 5315 H 496.56 2.69054 -3.17672 0
M  V30 5316 H 497.093 1.11739 -3.81784 0
M  V30 5317 H 493.832 -0.106693 -6.55413 0
M  V30 5318 H 493.352 1.4416 -5.82218 0
M  V30 5319 H 495.031 1.18837 -6.35993 0
M  V30 5320 N 495.163 1.55791 0.238111 0
M  V30 5321 C 496.095 1.87513 1.31802 0
M  V30 5322 C 497.108 0.762053 1.43863 0
M  V30 5323 O 498.297 1.04024 1.45056 0
M  V30 5324 C 495.397 2.05402 2.69561 0
M  V30 5325 C 494.57 3.3632 2.79656 0
M  V30 5326 C 493.629 3.43844 3.98319 0
M  V30 5327 O 492.655 4.16994 3.87433 0
M  V30 5328 N 493.857 2.73777 5.11885 0
M  V30 5329 H 496.622 2.80734 1.04922 0
M  V30 5330 H 494.183 1.56135 0.428196 0
M  V30 5331 H 496.175 2.07769 3.47296 0
M  V30 5332 H 494.745 1.18884 2.89111 0
M  V30 5333 H 493.965 3.46195 1.88528 0
M  V30 5334 H 495.253 4.22594 2.83358 0
M  V30 5335 H 494.651 2.14094 5.23622 0
M  V30 5336 H 493.208 2.81825 5.87723 0
M  V30 5337 N 496.642 -0.504142 1.49319 0
M  V30 5338 C 497.605 -1.5883 1.65244 0
M  V30 5339 C 498.605 -1.52009 0.524386 0
M  V30 5340 O 499.795 -1.55218 0.79077 0
M  V30 5341 C 496.927 -2.98481 1.64687 0
M  V30 5342 H 498.12 -1.4604 2.61939 0
M  V30 5343 H 495.673 -0.728144 1.38303 0
M  V30 5344 H 496.408 -3.16751 0.695644 0
M  V30 5345 H 496.193 -3.0484 2.46607 0
M  V30 5346 H 497.683 -3.77256 1.79075 0
M  V30 5347 N 498.12 -1.38341 -0.754957 0
M  V30 5348 C 499.348 -1.37704 -1.54419 0
M  V30 5349 C 499.763 0.0335243 -1.8877 0
M  V30 5350 O 499.12 0.999773 -1.52679 0
M  V30 5351 C 499.171 -2.23136 -2.84416 0
M  V30 5352 O 498.892 -3.58697 -2.51531 0
M  V30 5353 C 500.393 -2.30664 -3.78562 0
M  V30 5354 H 497.613 -0.471061 -0.477852 0
M  V30 5355 H 500.157 -1.81902 -0.934446 0
M  V30 5356 H 498.312 -1.82403 -3.41772 0
M  V30 5357 H 498.726 -4.03665 -3.34896 0
M  V30 5358 H 500.2 -2.9473 -4.66732 0
M  V30 5359 H 500.677 -1.3199 -4.18898 0
M  V30 5360 H 501.283 -2.71781 -3.27131 0
M  V30 5361 N 499.598 0.982988 -1.23187 0
M  V30 5362 C 500.528 2.09301 -1.03515 0
M  V30 5363 C 501.509 1.70035 0.0471136 0
M  V30 5364 O 502.694 1.93847 -0.117029 0
M  V30 5365 C 499.824 3.4167 -0.622791 0
M  V30 5366 C 498.778 3.94828 -1.65211 0
M  V30 5367 C 498.104 5.23362 -1.09527 0
M  V30 5368 C 499.404 4.2439 -3.04451 0
M  V30 5369 H 501.098 2.26016 -1.96359 0
M  V30 5370 H 498.644 1.08611 -0.945501 0
M  V30 5371 H 500.597 4.18746 -0.472233 0
M  V30 5372 H 499.321 3.24811 0.341329 0
M  V30 5373 H 497.98 3.19895 -1.79061 0
M  V30 5374 H 497.628 5.02852 -0.122211 0
M  V30 5375 H 497.328 5.59895 -1.783 0
M  V30 5376 H 498.852 6.03062 -0.956511 0
M  V30 5377 H 500.266 4.92225 -2.93917 0
M  V30 5378 H 498.663 4.72118 -3.70438 0
M  V30 5379 H 499.733 3.31765 -3.53638 0
M  V30 5380 N 501.076 1.04316 1.18135 0
M  V30 5381 C 502.026 0.606731 2.19779 0
M  V30 5382 C 503.01 -0.352144 1.56999 0
M  V30 5383 O 504.202 -0.170795 1.76174 0
M  V30 5384 C 501.331 -0.0262443 3.4329 0
M  V30 5385 C 500.417 0.955928 4.13186 0
M  V30 5386 N 500.808 2.12395 4.59045 0
M  V30 5387 C 499.106 0.782473 4.39082 0
M  V30 5388 C 499.807 2.74458 5.12882 0
M  V30 5389 N 498.783 2.02316 5.04548 0
M  V30 5390 H 502.585 1.49679 2.5293 0
M  V30 5391 H 500.099 0.912088 1.34368 0
M  V30 5392 H 502.096 -0.356617 4.15372 0
M  V30 5393 H 500.756 -0.911811 3.11635 0
M  V30 5394 H 501.767 2.50272 4.53414 0
M  V30 5395 H 498.444 -0.0527906 4.17467 0
M  V30 5396 H 499.834 3.73459 5.5855 0
M  V30 5397 N 502.554 -1.34406 0.822964 0
M  V30 5398 C 503.486 -2.28305 0.202375 0
M  V30 5399 C 504.499 -1.5103 -0.60777 0
M  V30 5400 O 505.688 -1.73057 -0.437444 0
M  V30 5401 C 502.788 -3.30836 -0.734911 0
M  V30 5402 C 501.961 -4.37388 0.0324177 0
M  V30 5403 C 501.02 -5.1968 -0.825803 0
M  V30 5404 O 500.046 -5.68556 -0.270771 0
M  V30 5405 N 501.248 -5.39393 -2.14558 0
M  V30 5406 H 504.013 -2.82201 1.00909 0
M  V30 5407 H 501.574 -1.4693 0.67993 0
M  V30 5408 H 503.566 -3.82786 -1.31365 0
M  V30 5409 H 502.136 -2.77334 -1.44238 0
M  V30 5410 H 501.356 -3.86152 0.792469 0
M  V30 5411 H 502.644 -5.05702 0.560633 0
M  V30 5412 H 502.042 -5.01357 -2.62025 0
M  V30 5413 H 500.599 -5.94461 -2.67318 0
M  V30 5414 N 504.032 -0.577932 -1.46621 0
M  V30 5415 C 504.979 0.158048 -2.30258 0
M  V30 5416 C 505.949 0.888669 -1.40328 0
M  V30 5417 O 507.134 0.880283 -1.6928 0
M  V30 5418 C 504.274 1.16884 -3.24703 0
M  V30 5419 C 503.387 0.442163 -4.29731 0
M  V30 5420 C 502.522 1.44007 -5.11308 0
M  V30 5421 C 501.561 0.69952 -6.0809 0
M  V30 5422 N 500.698 1.64525 -6.82551 0
M  V30 5423 H 505.538 -0.561242 -2.92667 0
M  V30 5424 H 503.075 -0.288591 -1.44241 0
M  V30 5425 H 505.033 1.7677 -3.779 0
M  V30 5426 H 503.663 1.85591 -2.64113 0
M  V30 5427 H 502.715 -0.271632 -3.79429 0
M  V30 5428 H 504.027 -0.136992 -4.98612 0
M  V30 5429 H 503.181 2.11186 -5.68758 0
M  V30 5430 H 501.92 2.05315 -4.42377 0
M  V30 5431 H 500.925 0.0139217 -5.49798 0
M  V30 5432 H 502.15 0.091894 -6.79038 0
M  V30 5433 H 500.096 2.24653 -6.16334 0
M  V30 5434 H 500.013 1.11878 -7.47676 0
M  V30 5435 H 501.281 2.30754 -7.44562 0
M  V30 5436 N 505.51 1.54411 -0.315457 0
M  V30 5437 C 506.787 1.92562 0.343398 0
M  V30 5438 C 507.167 1.24423 1.70535 0
M  V30 5439 O 506.515 0.385051 2.25232 0
M  V30 5440 C 506.725 3.46168 0.443687 0
M  V30 5441 C 508.073 4.18659 0.707783 0
M  V30 5442 O 509.097 3.52281 0.52693 0
M  V30 5443 O 507.956 5.36198 1.05612 0
M  V30 5444 H 505.05 0.80379 0.194552 0
M  V30 5445 H 507.596 1.65738 -0.364577 0
M  V30 5446 H 506.368 3.8792 -0.513172 0
M  V30 5447 H 505.991 3.79073 1.19956 0
M  V30 5448 N 506.988 0.0434614 1.5754 0
M  V30 5449 C 507.918 -0.931651 2.14109 0
M  V30 5450 C 508.899 -1.32971 1.06079 0
M  V30 5451 O 510.084 -1.40579 1.33982 0
M  V30 5452 C 507.214 -2.20914 2.67982 0
M  V30 5453 C 506.168 -1.95139 3.80926 0
M  V30 5454 C 505.494 -3.29276 4.21285 0
M  V30 5455 C 506.794 -1.27913 5.06395 0
M  V30 5456 H 508.488 -0.460497 2.95837 0
M  V30 5457 H 506.034 -0.220058 1.42309 0
M  V30 5458 H 507.987 -2.89522 3.06194 0
M  V30 5459 H 506.711 -2.70221 1.83434 0
M  V30 5460 H 505.37 -1.28945 3.43175 0
M  V30 5461 H 505.018 -3.76369 3.33699 0
M  V30 5462 H 504.718 -3.12831 4.97404 0
M  V30 5463 H 506.242 -3.99129 4.62091 0
M  V30 5464 H 507.656 -1.86544 5.42102 0
M  V30 5465 H 506.053 -1.2182 5.87605 0
M  V30 5466 H 507.123 -0.254066 4.84234 0
M  V30 5467 N 508.466 -1.55915 -0.229846 0
M  V30 5468 C 509.743 -1.6932 -0.979295 0
M  V30 5469 C 510.123 -0.588321 -2.02736 0
M  V30 5470 O 509.471 0.40586 -2.24867 0
M  V30 5471 C 509.681 -3.10305 -1.59724 0
M  V30 5472 C 511.029 -3.6945 -2.09264 0
M  V30 5473 O 512.053 -3.13214 -1.69633 0
M  V30 5474 O 510.912 -4.68072 -2.82082 0
M  V30 5475 H 508.006 -0.689314 -0.456919 0
M  V30 5476 H 510.552 -1.68238 -0.222283 0
M  V30 5477 H 509.324 -3.82177 -0.840039 0
M  V30 5478 H 508.947 -3.1547 -2.42001 0
M  V30 5479 N 509.944 0.496216 -1.49584 0
M  V30 5480 C 511.184 1.26015 -1.60933 0
M  V30 5481 C 511.548 1.89772 -0.291646 0
M  V30 5482 O 512.749 2.67334 -0.280357 0
M  V30 5483 C 511.02 2.29506 -2.73974 0
M  V30 5484 S 512.579 3.15175 -3.05303 0
M  V30 5485 H 509.397 0.428194 -0.567601 0
M  V30 5486 H 511.999 0.561484 -1.87263 0
M  V30 5487 H 510.703 1.81205 -3.68229 0
M  V30 5488 H 510.234 3.04036 -2.49651 0
M  V30 5489 H 512.249 4.30244 -2.47193 0
M  V30 5490 N 511.423 1.38739 0.74761 0
M  V30 5491 C 512.355 1.32341 1.87132 0
M  V30 5492 C 513.368 0.234502 1.61102 0
M  V30 5493 O 514.557 0.492516 1.71571 0
M  V30 5494 C 511.657 1.02915 3.22896 0
M  V30 5495 C 510.83 2.22834 3.76383 0
M  V30 5496 C 509.889 1.90059 4.90677 0
M  V30 5497 O 508.915 2.62615 5.04997 0
M  V30 5498 N 510.117 0.859141 5.74107 0
M  V30 5499 H 512.882 2.29175 1.93129 0
M  V30 5500 H 510.443 1.32678 0.927805 0
M  V30 5501 H 512.435 0.79031 3.96908 0
M  V30 5502 H 511.005 0.148572 3.12247 0
M  V30 5503 H 510.225 2.62747 2.93867 0
M  V30 5504 H 511.513 3.02851 4.08851 0
M  V30 5505 H 510.911 0.257564 5.65113 0
M  V30 5506 H 509.468 0.680189 6.48241 0
M  V30 5507 N 512.901 -0.976442 1.23707 0
M  V30 5508 C 513.833 -2.07212 0.979574 0
M  V30 5509 C 514.846 -1.6273 -0.0478528 0
M  V30 5510 O 516.035 -1.77506 0.18815 0
M  V30 5511 C 513.135 -3.35835 0.45479 0
M  V30 5512 C 512.308 -4.09268 1.54331 0
M  V30 5513 C 511.367 -5.16166 1.02271 0
M  V30 5514 O 510.393 -5.42827 1.71254 0
M  V30 5515 N 511.595 -5.80313 -0.147419 0
M  V30 5516 H 514.36 -2.29878 1.92292 0
M  V30 5517 H 511.921 -1.14343 1.14618 0
M  V30 5518 H 513.913 -4.04597 0.0914631 0
M  V30 5519 H 512.483 -3.10106 -0.394068 0
M  V30 5520 H 511.703 -3.34906 2.07923 0
M  V30 5521 H 512.991 -4.55095 2.27522 0
M  V30 5522 H 512.389 -5.61043 -0.724353 0
M  V30 5523 H 510.946 -6.50231 -0.451972 0
M  V30 5524 N 514.379 -1.04941 -1.1758 0
M  V30 5525 C 515.309 -0.669172 -2.23706 0
M  V30 5526 C 516.29 0.331835 -1.66832 0
M  V30 5527 O 517.475 0.209988 -1.93061 0
M  V30 5528 C 514.605 -0.0404889 -3.47276 0
M  V30 5529 C 513.559 -0.965983 -4.16957 0
M  V30 5530 C 512.885 -0.201312 -5.34321 0
M  V30 5531 C 514.185 -2.28902 -4.69469 0
M  V30 5532 H 515.879 -1.55639 -2.55767 0
M  V30 5533 H 513.425 -0.749793 -1.22939 0
M  V30 5534 H 515.378 0.237298 -4.20731 0
M  V30 5535 H 514.102 0.881658 -3.14475 0
M  V30 5536 H 512.761 -1.22829 -3.45411 0
M  V30 5537 H 512.409 0.723519 -4.97769 0
M  V30 5538 H 512.109 -0.817968 -5.81879 0
M  V30 5539 H 513.633 0.0692499 -6.10561 0
M  V30 5540 H 515.047 -2.07132 -5.34574 0
M  V30 5541 H 513.444 -2.85942 -5.27596 0
M  V30 5542 H 514.514 -2.92937 -3.86414 0
M  V30 5543 N 515.857 1.33968 -0.830081 0
M  V30 5544 C 516.789 2.28194 -0.21448 0
M  V30 5545 C 517.802 1.5135 0.599752 0
M  V30 5546 O 518.991 1.73286 0.42826 0
M  V30 5547 C 516.091 3.31221 0.717356 0
M  V30 5548 C 515.264 4.37365 -0.055613 0
M  V30 5549 C 514.323 5.2011 0.798231 0
M  V30 5550 O 513.349 5.68691 0.240616 0
M  V30 5551 N 514.551 5.40523 2.11695 0
M  V30 5552 H 517.316 2.81662 -1.02405 0
M  V30 5553 H 514.877 1.46568 -0.687713 0
M  V30 5554 H 516.869 3.83477 1.29334 0
M  V30 5555 H 515.439 2.78095 1.42765 0
M  V30 5556 H 514.659 3.85727 -0.812936 0
M  V30 5557 H 515.947 5.05397 -0.587444 0
M  V30 5558 H 515.345 5.0274 2.59363 0
M  V30 5559 H 513.902 5.95871 2.64162 0
M  V30 5560 N 517.335 0.585699 1.46312 0
M  V30 5561 C 518.56 0.0762461 2.0726 0
M  V30 5562 C 518.985 -1.22071 1.43109 0
M  V30 5563 O 518.343 -1.73804 0.515942 0
M  V30 5564 C 518.391 -0.0729404 3.60526 0
M  V30 5565 O 517.495 -1.1287 3.96654 0
M  V30 5566 H 516.836 0.0641558 0.660893 0
M  V30 5567 H 519.366 0.809492 1.87905 0
M  V30 5568 H 519.376 -0.278158 4.07051 0
M  V30 5569 H 518.051 0.874188 4.06609 0
M  V30 5570 H 516.628 -0.901703 3.61834 0
M  V30 5571 N 518.813 -1.54241 0.323641 0
M  V30 5572 C 520.229 -1.59574 -0.0290018 0
M  V30 5573 C 520.429 -1.34017 -1.50472 0
M  V30 5574 O 519.485 -1.12464 -2.26071 0
M  V30 5575 C 520.798 -2.98169 0.389295 0
M  V30 5576 C 522.346 -3.11148 0.339958 0
M  V30 5577 C 522.821 -4.5209 0.733418 0
M  V30 5578 N 524.312 -4.5808 0.686827 0
M  V30 5579 C 525.047 -5.65248 0.963464 0
M  V30 5580 N 524.543 -6.80355 1.30724 0
M  V30 5581 N 526.336 -5.55025 0.88902 0
M  V30 5582 H 518.487 -1.6911 1.28512 0
M  V30 5583 H 520.75 -0.790972 0.522558 0
M  V30 5584 H 520.456 -3.21871 1.41746 0
M  V30 5585 H 520.33 -3.76399 -0.245657 0
M  V30 5586 H 522.717 -2.87182 -0.679002 0
M  V30 5587 H 522.798 -2.35023 1.00985 0
M  V30 5588 H 522.442 -4.76788 1.75029 0
M  V30 5589 H 522.372 -5.26584 0.0412189 0
M  V30 5590 H 524.863 -3.75411 0.43298 0
M  V30 5591 H 525.176 -7.58029 1.5037 0
M  V30 5592 H 523.521 -6.81851 1.3455 0
M  V30 5593 H 526.712 -4.63977 0.619939 0
M  V30 5594 H 526.885 -6.38458 1.10797 0
M  V30 5595 N 520.291 -0.0518155 -1.57515 0
M  V30 5596 C 521.221 0.920283 -2.146 0
M  V30 5597 C 522.202 1.32406 -1.06783 0
M  V30 5598 O 523.387 1.39866 -1.34726 0
M  V30 5599 C 520.517 2.1949 -2.6915 0
M  V30 5600 C 519.471 1.93116 -3.81956 0
M  V30 5601 C 518.797 3.27037 -4.23026 0
M  V30 5602 C 520.097 1.25225 -5.07066 0
M  V30 5603 H 521.791 0.444801 -2.96077 0
M  V30 5604 H 519.337 0.212508 -1.42423 0
M  V30 5605 H 521.29 2.87894 -3.07725 0
M  V30 5606 H 520.014 2.69244 -1.84865 0
M  V30 5607 H 518.673 1.27123 -3.43854 0
M  V30 5608 H 518.321 3.74595 -3.3569 0
M  V30 5609 H 518.021 3.10189 -4.99056 0
M  V30 5610 H 519.545 3.96673 -4.64202 0
M  V30 5611 H 520.959 1.83666 -5.43083 0
M  V30 5612 H 519.356 1.18702 -5.88243 0
M  V30 5613 H 520.426 0.228382 -4.84362 0
M  V30 5614 N 521.769 1.56035 0.221574 0
M  V30 5615 C 522.994 1.83476 0.967026 0
M  V30 5616 C 523.419 0.632139 1.7716 0
M  V30 5617 O 522.777 -0.419082 1.7639 0
M  V30 5618 C 522.825 3.08907 1.86034 0
M  V30 5619 O 521.929 2.876 2.95567 0
M  V30 5620 H 521.27 0.604913 0.273817 0
M  V30 5621 H 523.8 2.03247 0.234893 0
M  V30 5622 H 523.81 3.3901 2.27016 0
M  V30 5623 H 522.485 3.96068 1.26898 0
M  V30 5624 H 521.062 2.6873 2.58532 0
M  V30 5625 N 523.247 -0.488276 1.49845 0
M  V30 5626 C 524.21 -1.57069 1.66919 0
M  V30 5627 C 525.21 -1.51445 0.540479 0
M  V30 5628 O 526.4 -1.5437 0.807188 0
M  V30 5629 C 523.532 -2.96718 1.67844 0
M  V30 5630 H 524.725 -1.43254 2.63474 0
M  V30 5631 H 522.278 -0.713435 1.39068 0
M  V30 5632 H 523.013 -3.15996 0.7292 0
M  V30 5633 H 522.798 -3.02208 2.49826 0
M  V30 5634 H 524.288 -3.75335 1.83066 0
M  V30 5635 N 524.725 -1.39134 -0.740242 0
M  V30 5636 C 525.95 -1.39518 -1.53459 0
M  V30 5637 C 526.375 0.00968883 -1.88098 0
M  V30 5638 O 525.733 0.995312 -1.51536 0
M  V30 5639 C 525.781 -2.26981 -2.802 0
M  V30 5640 O 524.885 -1.69609 -3.75908 0
M  V30 5641 H 524.226 -0.475328 -0.463637 0
M  V30 5642 H 526.756 -1.83064 -0.913717 0
M  V30 5643 H 526.766 -2.41309 -3.28989 0
M  V30 5644 H 525.441 -3.29081 -2.5432 0
M  V30 5645 H 524.018 -1.64495 -3.34658 0
M  V30 5646 N 526.204 0.969867 -1.24223 0
M  V30 5647 C 527.114 2.09806 -1.0497 0
M  V30 5648 C 528.13 1.73998 0.00886455 0
M  V30 5649 O 529.306 2.00513 -0.188848 0
M  V30 5650 C 526.371 3.40467 -0.654452 0
M  V30 5651 C 525.432 3.90236 -1.78926 0
M  V30 5652 C 524.665 5.14662 -1.41277 0
M  V30 5653 O 524.888 5.69602 -0.301632 0
M  V30 5654 O 523.822 5.58761 -2.23763 0
M  V30 5655 H 527.648 2.28942 -1.99548 0
M  V30 5656 H 525.233 1.08197 -1.03023 0
M  V30 5657 H 527.115 4.19039 -0.445452 0
M  V30 5658 H 525.79 3.22636 0.262216 0
M  V30 5659 H 524.697 3.12735 -2.05299 0
M  V30 5660 H 526.03 4.1254 -2.68462 0
M  V30 5661 N 527.682 1.05563 1.17022 0
M  V30 5662 C 528.91 0.78845 1.91288 0
M  V30 5663 C 529.325 -0.656318 1.77025 0
M  V30 5664 O 528.682 -1.44869 1.10992 0
M  V30 5665 C 528.733 1.16444 3.42232 0
M  V30 5666 O 528.454 2.5525 3.5606 0
M  V30 5667 C 529.955 0.923937 4.33565 0
M  V30 5668 H 527.175 0.286389 0.606813 0
M  V30 5669 H 529.719 1.4073 1.48375 0
M  V30 5670 H 527.874 0.590266 3.82877 0
M  V30 5671 H 528.288 2.70097 4.49609 0
M  V30 5672 H 529.762 1.23672 5.37968 0
M  V30 5673 H 530.239 -0.140688 4.38975 0
M  V30 5674 H 530.845 1.48214 3.98639 0
M  V30 5675 N 529.16 -1.33526 0.837174 0
M  V30 5676 C 530.385 -2.0258 0.444545 0
M  V30 5677 C 530.81 -1.6258 -0.946006 0
M  V30 5678 O 530.168 -0.817548 -1.6182 0
M  V30 5679 C 530.216 -3.5605 0.571006 0
M  V30 5680 O 529.32 -4.10422 -0.403431 0
M  V30 5681 H 528.661 -0.638866 0.180958 0
M  V30 5682 H 531.191 -1.70462 1.13154 0
M  V30 5683 H 531.201 -4.05488 0.452024 0
M  V30 5684 H 529.876 -3.84509 1.58512 0
M  V30 5685 H 528.453 -3.72113 -0.242147 0
M  V30 5686 N 530.638 -0.59345 -1.46 0
M  V30 5687 C 531.568 0.121192 -2.33185 0
M  V30 5688 C 532.549 0.872977 -1.4599 0
M  V30 5689 O 533.734 0.846321 -1.74789 0
M  V30 5690 C 530.864 1.12844 -3.28456 0
M  V30 5691 C 529.818 0.4908 -4.25177 0
M  V30 5692 C 529.144 1.60529 -5.10034 0
M  V30 5693 C 530.444 -0.578949 -5.19081 0
M  V30 5694 H 532.138 -0.606767 -2.93187 0
M  V30 5695 H 529.684 -0.293242 -1.40983 0
M  V30 5696 H 531.637 1.63684 -3.88311 0
M  V30 5697 H 530.361 1.88681 -2.66584 0
M  V30 5698 H 529.02 0.00339328 -3.666 0
M  V30 5699 H 528.668 2.35359 -4.44539 0
M  V30 5700 H 528.368 1.18422 -5.75543 0
M  V30 5701 H 529.892 2.11623 -5.72755 0
M  V30 5702 H 531.306 -0.155199 -5.7309 0
M  V30 5703 H 529.703 -0.920947 -5.92991 0
M  V30 5704 H 530.773 -1.46109 -4.62364 0
M  V30 5705 N 532.116 1.54067 -0.331816 0
M  V30 5706 C 533.066 2.21363 0.546101 0
M  V30 5707 C 534.05 1.19698 1.07523 0
M  V30 5708 O 535.242 1.45293 1.01088 0
M  V30 5709 C 532.371 2.98115 1.70242 0
M  V30 5710 C 531.457 4.07127 1.18779 0
M  V30 5711 N 531.848 5.04267 0.393465 0
M  V30 5712 C 530.146 4.21226 1.46576 0
M  V30 5713 C 530.847 5.81585 0.115572 0
M  V30 5714 N 529.823 5.39022 0.703987 0
M  V30 5715 H 533.625 2.93821 -0.0679751 0
M  V30 5716 H 531.139 1.61812 -0.138085 0
M  V30 5717 H 533.136 3.44818 2.34321 0
M  V30 5718 H 531.796 2.27181 2.31989 0
M  V30 5719 H 532.807 5.17888 0.0355757 0
M  V30 5720 H 529.484 3.61509 2.08848 0
M  V30 5721 H 530.874 6.6985 -0.524426 0
M  V30 5722 N 533.594 0.0601682 1.57485 0
M  V30 5723 C 535.01 -0.296422 1.56823 0
M  V30 5724 C 535.21 -1.70831 1.0686 0
M  V30 5725 O 534.266 -2.4174 0.729245 0
M  V30 5726 C 535.579 -0.116681 3.00474 0
M  V30 5727 C 537.127 -0.187103 3.1244 0
M  V30 5728 C 537.602 -0.035783 4.57986 0
M  V30 5729 N 539.093 -0.0917676 4.63109 0
M  V30 5730 C 539.828 0.00107251 5.734 0
M  V30 5731 N 539.324 0.146773 6.92645 0
M  V30 5732 N 541.117 -0.0551577 5.62073 0
M  V30 5733 H 533.268 0.983055 1.88281 0
M  V30 5734 H 535.531 0.382386 0.867459 0
M  V30 5735 H 535.237 0.85712 3.41096 0
M  V30 5736 H 535.111 -0.873929 3.66936 0
M  V30 5737 H 537.498 -1.15138 2.71712 0
M  V30 5738 H 537.579 0.601052 2.48638 0
M  V30 5739 H 537.223 0.925212 4.99402 0
M  V30 5740 H 537.153 -0.843196 5.19806 0
M  V30 5741 H 539.644 -0.203261 3.77353 0
M  V30 5742 H 539.957 0.210076 7.72514 0
M  V30 5743 H 538.302 0.181979 6.94762 0
M  V30 5744 H 541.493 -0.167605 4.678 0
M  V30 5745 H 541.666 0.020652 6.47997 0
M  V30 5746 N 535.072 -1.5615 -0.213296 0
M  V30 5747 C 536.321 -1.78743 -0.93455 0
M  V30 5748 C 536.634 -0.630199 -1.8517 0
M  V30 5749 O 537.84 -0.739966 -2.61222 0
M  V30 5750 C 536.296 -3.16571 -1.71203 0
M  V30 5751 C 535.904 -4.40043 -0.840617 0
M  V30 5752 C 537.648 -3.48485 -2.42401 0
M  V30 5753 C 535.555 -5.68895 -1.61592 0
M  V30 5754 H 534.485 -0.666426 -0.352692 0
M  V30 5755 H 537.136 -1.82532 -0.188227 0
M  V30 5756 H 535.518 -3.06981 -2.50157 0
M  V30 5757 H 536.692 -4.6071 -0.0910326 0
M  V30 5758 H 535.007 -4.15706 -0.240365 0
M  V30 5759 H 537.604 -4.41983 -3.00924 0
M  V30 5760 H 537.947 -2.71371 -3.15695 0
M  V30 5761 H 538.48 -3.59442 -1.7043 0
M  V30 5762 H 535.219 -6.48925 -0.926106 0
M  V30 5763 H 534.739 -5.52275 -2.33991 0
M  V30 5764 H 536.418 -6.09365 -2.17447 0
M  V30 5765 N 536.55 0.480323 -1.50102 0
M  V30 5766 C 537.5 1.57685 -1.6468 0
M  V30 5767 C 538.484 1.52878 -0.5017 0
M  V30 5768 O 539.676 1.60058 -0.755668 0
M  V30 5769 C 536.805 2.96185 -1.73578 0
M  V30 5770 C 535.891 3.0591 -2.93734 0
M  V30 5771 N 536.282 2.85471 -4.1754 0
M  V30 5772 C 534.58 3.37036 -2.92101 0
M  V30 5773 C 535.281 2.99921 -4.9842 0
M  V30 5774 N 534.257 3.29715 -4.32191 0
M  V30 5775 H 538.059 1.40568 -2.58104 0
M  V30 5776 H 535.573 0.686874 -1.47159 0
M  V30 5777 H 537.57 3.75015 -1.82124 0
M  V30 5778 H 536.23 3.14356 -0.813057 0
M  V30 5779 H 537.241 2.61235 -4.47188 0
M  V30 5780 H 533.918 3.61253 -2.09291 0
M  V30 5781 H 535.308 2.88436 -6.06839 0
M  V30 5782 N 538.028 1.39524 0.732853 0
M  V30 5783 C 539.274 1.37068 1.49467 0
M  V30 5784 C 539.607 -0.0327166 1.94172 0
M  V30 5785 O 538.882 -0.998071 1.66939 0
M  V30 5786 C 539.165 2.34494 2.73285 0
M  V30 5787 C 539.018 3.83784 2.34585 0
M  V30 5788 C 540.337 2.29717 3.75391 0
M  V30 5789 H 537.456 0.499206 0.542183 0
M  V30 5790 H 540.098 1.70532 0.837783 0
M  V30 5791 H 538.248 2.06087 3.29333 0
M  V30 5792 H 539.92 4.22949 1.84151 0
M  V30 5793 H 538.163 4.00455 1.66787 0
M  V30 5794 H 538.834 4.47444 3.23262 0
M  V30 5795 H 541.31 2.54839 3.28932 0
M  V30 5796 H 540.186 2.99962 4.59689 0
M  V30 5797 H 540.447 1.30291 4.22465 0
M  V30 5798 N 539.506 -0.963266 1.24736 0
M  V30 5799 C 540.416 -2.09246 1.06082 0
M  V30 5800 C 541.432 -1.74 0.000363101 0
M  V30 5801 O 542.608 -2.0041 0.199479 0
M  V30 5802 C 539.673 -3.40115 0.672498 0
M  V30 5803 C 538.734 -3.89282 1.80993 0
M  V30 5804 C 537.967 -5.13905 1.44004 0
M  V30 5805 O 538.19 -5.69434 0.331835 0
M  V30 5806 O 537.124 -5.57566 2.26723 0
M  V30 5807 H 540.95 -2.27881 2.00759 0
M  V30 5808 H 538.535 -1.07649 1.03595 0
M  V30 5809 H 540.417 -4.18797 0.467668 0
M  V30 5810 H 539.092 -3.22771 -0.245102 0
M  V30 5811 H 537.999 -3.11642 2.06955 0
M  V30 5812 H 539.332 -4.1111 2.70646 0
M  V30 5813 N 540.985 -1.06182 -1.16461 0
M  V30 5814 C 541.915 -0.692861 -2.22984 0
M  V30 5815 C 542.896 0.314122 -1.67174 0
M  V30 5816 O 544.081 0.189499 -1.93273 0
M  V30 5817 C 541.211 -0.07732 -3.47214 0
M  V30 5818 C 540.165 -1.01015 -4.15909 0
M  V30 5819 C 539.491 -0.257973 -5.34077 0
M  V30 5820 C 540.791 -2.33868 -4.67015 0
M  V30 5821 H 542.485 -1.58343 -2.54102 0
M  V30 5822 H 540.031 -0.76279 -1.22137 0
M  V30 5823 H 541.984 0.19266 -4.20959 0
M  V30 5824 H 540.708 0.848254 -3.15392 0
M  V30 5825 H 539.367 -1.26486 -3.44088 0
M  V30 5826 H 539.015 0.670684 -4.98509 0
M  V30 5827 H 538.715 -0.879638 -5.80979 0
M  V30 5828 H 540.239 0.00448788 -6.106 0
M  V30 5829 H 541.653 -2.1279 -5.32347 0
M  V30 5830 H 540.05 -2.91522 -5.24533 0
M  V30 5831 H 541.12 -2.97019 -3.83286 0
M  V30 5832 N 542.463 1.3308 -0.844243 0
M  V30 5833 C 543.688 2.02341 -0.455282 0
M  V30 5834 C 544.113 1.6308 0.93737 0
M  V30 5835 O 543.471 0.826118 1.61385 0
M  V30 5836 C 543.519 3.55743 -0.58988 0
M  V30 5837 O 542.623 4.1063 0.38166 0
M  V30 5838 H 541.964 0.637898 -0.184343 0
M  V30 5839 H 544.494 1.6986 -1.14056 0
M  V30 5840 H 544.504 4.05243 -0.473522 0
M  V30 5841 H 543.179 3.83662 -1.60549 0
M  V30 5842 H 541.756 3.72236 0.22241 0
M  V30 5843 N 543.941 0.601185 1.45683 0
M  V30 5844 C 544.851 -0.123395 2.34275 0
M  V30 5845 C 545.867 -0.86702 1.5086 0
M  V30 5846 O 547.043 -0.826049 1.8368 0
M  V30 5847 C 544.108 -1.11237 3.2837 0
M  V30 5848 C 543.169 -0.371405 4.2769 0
M  V30 5849 C 542.402 -1.31327 5.1729 0
M  V30 5850 O 542.625 -2.55078 5.10188 0
M  V30 5851 O 541.559 -0.813811 5.96373 0
M  V30 5852 H 545.385 0.604483 2.97623 0
M  V30 5853 H 542.97 0.361477 1.44961 0
M  V30 5854 H 544.852 -1.68214 3.8637 0
M  V30 5855 H 543.527 -1.82139 2.67595 0
M  V30 5856 H 542.434 0.24067 3.73325 0
M  V30 5857 H 543.767 0.296998 4.91303 0
M  V30 5858 N 545.419 -1.53889 0.339982 0
M  V30 5859 C 546.366 -2.24902 -0.518452 0
M  V30 5860 C 547.336 -1.24593 -1.09844 0
M  V30 5861 O 548.521 -1.53317 -1.13572 0
M  V30 5862 C 545.661 -3.02262 -1.66529 0
M  V30 5863 C 544.774 -4.17418 -1.11295 0
M  V30 5864 C 543.909 -4.82273 -2.2268 0
M  V30 5865 C 542.948 -5.89503 -1.6478 0
M  V30 5866 N 542.085 -6.48153 -2.69893 0
M  V30 5867 H 546.925 -2.97853 0.0936579 0
M  V30 5868 H 544.462 -1.46986 0.0579924 0
M  V30 5869 H 546.42 -3.45371 -2.3404 0
M  V30 5870 H 545.05 -2.31614 -2.24844 0
M  V30 5871 H 544.102 -3.78976 -0.328886 0
M  V30 5872 H 545.414 -4.94554 -0.649414 0
M  V30 5873 H 544.568 -5.28435 -2.98063 0
M  V30 5874 H 543.307 -4.04552 -2.72376 0
M  V30 5875 H 542.312 -5.42728 -0.879004 0
M  V30 5876 H 543.537 -6.6913 -1.1594 0
M  V30 5877 H 541.483 -5.73298 -3.1885 0
M  V30 5878 H 541.4 -7.20752 -2.28151 0
M  V30 5879 H 542.668 -6.98968 -3.45056 0
M  V30 5880 N 546.897 -0.0685191 -1.57451 0
M  V30 5881 C 548.145 0.60016 -1.92983 0
M  V30 5882 C 548.466 1.70348 -0.949028 0
M  V30 5883 O 547.736 1.959 0.00335647 0
M  V30 5884 H 546.316 0.224682 -0.712409 0
M  V30 5885 H 548.978 -0.125605 -1.94495 0
M  V30 5886 H 548.074 1.02759 -2.94698 0
M  V30 5887 N 548.375 1.56261 0.205012 0
M  V30 5888 C 549.285 1.96944 1.27476 0
M  V30 5889 C 550.301 0.875636 1.50362 0
M  V30 5890 O 551.477 1.18058 1.6317 0
M  V30 5891 C 548.542 2.29219 2.60115 0
M  V30 5892 C 547.603 3.52255 2.45387 0
M  V30 5893 C 546.836 3.8298 3.71701 0
M  V30 5894 O 547.059 3.15138 4.75441 0
M  V30 5895 O 545.993 4.76435 3.67823 0
M  V30 5896 H 549.819 2.88144 0.959527 0
M  V30 5897 H 547.404 1.43686 0.409217 0
M  V30 5898 H 549.286 2.51098 3.3842 0
M  V30 5899 H 547.961 1.4119 2.91285 0
M  V30 5900 H 546.868 3.35635 1.65227 0
M  V30 5901 H 548.201 4.40719 2.19152 0
M  V30 5902 N 549.853 -0.472356 1.50355 0
M  V30 5903 C 550.816 -1.5529 1.68576 0
M  V30 5904 C 551.816 -1.50863 0.556511 0
M  V30 5905 O 553.006 -1.53505 0.823516 0
M  V30 5906 C 550.138 -2.94921 1.70981 0
M  V30 5907 H 551.331 -1.40451 2.64978 0
M  V30 5908 H 548.884 -0.698645 1.39816 0
M  V30 5909 H 549.619 -3.15204 0.762675 0
M  V30 5910 H 549.404 -2.99541 2.53017 0
M  V30 5911 H 550.894 -3.73372 1.87037 0
M  V30 5912 N 551.331 -1.39911 -0.725443 0
M  V30 5913 C 552.559 -1.40949 -1.51463 0
M  V30 5914 C 552.974 -0.0065242 -1.88799 0
M  V30 5915 O 552.331 0.967163 -1.54765 0
M  V30 5916 C 552.382 -2.29119 -2.79619 0
M  V30 5917 O 552.103 -3.63952 -2.43866 0
M  V30 5918 C 553.604 -2.38642 -3.73584 0
M  V30 5919 H 550.824 -0.481091 -0.467752 0
M  V30 5920 H 553.368 -1.83843 -0.895651 0
M  V30 5921 H 551.523 -1.89612 -3.37826 0
M  V30 5922 H 551.937 -4.10677 -3.26258 0
M  V30 5923 H 553.411 -3.04563 -4.60375 0
M  V30 5924 H 553.888 -1.40846 -4.16004 0
M  V30 5925 H 554.494 -2.78659 -3.21293 0
M  V30 5926 N 552.809 0.956637 -1.25245 0
M  V30 5927 C 553.741 2.05628 -1.01242 0
M  V30 5928 C 554.754 1.62785 0.0219579 0
M  V30 5929 O 555.943 1.77184 -0.216365 0
M  V30 5930 C 553.043 3.35069 -0.508161 0
M  V30 5931 C 552.216 4.06761 -1.60823 0
M  V30 5932 C 551.275 5.14473 -1.1047 0
M  V30 5933 O 550.301 5.40033 -1.79868 0
M  V30 5934 N 551.503 5.80474 0.0550773 0
M  V30 5935 H 554.268 2.2679 -1.95925 0
M  V30 5936 H 551.829 1.12505 -1.16423 0
M  V30 5937 H 553.821 4.044 -0.155819 0
M  V30 5938 H 552.391 3.10694 0.344683 0
M  V30 5939 H 551.611 3.31555 -2.13224 0
M  V30 5940 H 552.899 4.51418 -2.34733 0
M  V30 5941 H 552.297 5.62125 0.635004 0
M  V30 5942 H 550.854 6.50868 0.348469 0
M  V30 5943 N 554.287 1.06798 1.15896 0
M  V30 5944 C 555.234 0.683314 2.20453 0
M  V30 5945 C 556.204 -0.32255 1.62938 0
M  V30 5946 O 557.389 -0.210276 1.89638 0
M  V30 5947 C 554.529 0.0813266 3.45004 0
M  V30 5948 C 553.642 1.13799 4.16742 0
M  V30 5949 C 552.777 0.501598 5.28826 0
M  V30 5950 C 551.816 1.54144 5.92373 0
M  V30 5951 N 550.953 0.928038 6.9594 0
M  V30 5952 H 555.793 1.57932 2.52708 0
M  V30 5953 H 553.33 0.789544 1.24115 0
M  V30 5954 H 555.288 -0.285274 4.16224 0
M  V30 5955 H 553.918 -0.77806 3.13283 0
M  V30 5956 H 552.97 1.62223 3.44075 0
M  V30 5957 H 554.282 1.92664 4.60089 0
M  V30 5958 H 553.436 0.0823162 6.06644 0
M  V30 5959 H 552.175 -0.318883 4.86656 0
M  V30 5960 H 551.18 1.97056 5.13273 0
M  V30 5961 H 552.405 2.3641 6.36621 0
M  V30 5962 H 550.351 0.12836 6.55874 0
M  V30 5963 H 550.268 1.65401 7.37685 0
M  V30 5964 H 551.536 0.534071 7.77668 0
M  V30 5965 N 555.766 -1.3263 0.851289 0
M  V30 5966 C 556.696 -2.31449 0.308771 0
M  V30 5967 C 557.677 -1.59531 -0.590255 0
M  V30 5968 O 558.862 -1.87351 -0.511205 0
M  V30 5969 C 555.992 -3.43586 -0.506548 0
M  V30 5970 C 554.946 -4.26963 0.297753 0
M  V30 5971 C 554.272 -5.30831 -0.642094 0
M  V30 5972 C 555.572 -4.99643 1.52166 0
M  V30 5973 H 557.266 -2.77074 1.13447 0
M  V30 5974 H 554.812 -1.33207 0.546971 0
M  V30 5975 H 556.765 -4.11754 -0.896474 0
M  V30 5976 H 555.489 -2.96681 -1.36558 0
M  V30 5977 H 554.148 -3.60437 0.669391 0
M  V30 5978 H 553.796 -4.8018 -1.49788 0
M  V30 5979 H 553.496 -5.87501 -0.107968 0
M  V30 5980 H 555.02 -6.01862 -1.02927 0
M  V30 5981 H 556.434 -5.6051 1.20421 0
M  V30 5982 H 554.831 -5.66022 1.99347 0
M  V30 5983 H 555.901 -4.27701 2.28474 0
M  V30 5984 N 557.244 -0.608902 -1.45362 0
M  V30 5985 C 558.191 0.109172 -2.30542 0
M  V30 5986 C 559.161 0.858704 -1.42181 0
M  V30 5987 O 560.346 0.844178 -1.71109 0
M  V30 5988 C 557.486 1.09971 -3.27109 0
M  V30 5989 C 556.599 0.350911 -4.30572 0
M  V30 5990 C 555.734 1.33129 -5.14247 0
M  V30 5991 C 554.773 0.570377 -6.09437 0
M  V30 5992 N 553.91 1.5001 -6.85887 0
M  V30 5993 H 558.75 -0.623195 -2.91411 0
M  V30 5994 H 556.287 -0.319122 -1.43597 0
M  V30 5995 H 558.245 1.68714 -3.81564 0
M  V30 5996 H 556.875 1.79947 -2.67991 0
M  V30 5997 H 555.927 -0.352054 -3.78767 0
M  V30 5998 H 557.239 -0.242725 -4.98209 0
M  V30 5999 H 556.393 1.99074 -5.73109 0
M  V30 6000 H 555.132 1.95885 -4.46632 0
M  V30 6001 H 554.137 -0.102702 -5.49704 0
M  V30 6002 H 555.362 -0.0521607 -6.7908 0
M  V30 6003 H 553.308 2.11529 -6.2096 0
M  V30 6004 H 553.225 0.959934 -7.49881 0
M  V30 6005 H 554.493 2.14909 -7.49289 0
M  V30 6006 N 558.722 1.53707 -0.348139 0
M  V30 6007 C 559.632 2.28881 0.514857 0
M  V30 6008 C 560.648 1.34168 1.10793 0
M  V30 6009 O 561.824 1.6721 1.12262 0
M  V30 6010 C 558.889 3.05042 1.64774 0
M  V30 6011 C 557.95 4.15389 1.08398 0
M  V30 6012 C 557.183 4.87909 2.16287 0
M  V30 6013 O 557.406 4.60137 3.3709 0
M  V30 6014 O 556.34 5.74254 1.80323 0
M  V30 6015 H 560.166 3.03547 -0.0963699 0
M  V30 6016 H 557.751 1.48972 -0.113043 0
M  V30 6017 H 559.633 3.52656 2.30677 0
M  V30 6018 H 558.308 2.33228 2.24469 0
M  V30 6019 H 557.215 3.72068 0.389341 0
M  V30 6020 H 558.548 4.89318 0.531829 0
M  V30 6021 N 560.2 0.0768682 1.57412 0
M  V30 6022 C 561.11 -0.903207 2.16516 0
M  V30 6023 C 562.126 -1.32341 1.12968 0
M  V30 6024 O 563.302 -1.39507 1.45258 0
M  V30 6025 C 560.367 -2.1508 2.71922 0
M  V30 6026 C 559.428 -1.78653 3.90361 0
M  V30 6027 C 558.661 -2.97465 4.43114 0
M  V30 6028 O 558.884 -4.11638 3.94854 0
M  V30 6029 O 557.818 -2.76987 5.3438 0
M  V30 6030 H 561.644 -0.430427 3.00634 0
M  V30 6031 H 559.229 -0.146485 1.4868 0
M  V30 6032 H 561.111 -2.8823 3.07411 0
M  V30 6033 H 559.786 -2.61446 1.9086 0
M  V30 6034 H 558.693 -1.0274 3.59716 0
M  V30 6035 H 560.026 -1.37066 4.7273 0
M  V30 6036 N 561.678 -1.56367 -0.196722 0
M  V30 6037 C 562.608 -1.97442 -1.24655 0
M  V30 6038 C 563.589 -0.846147 -1.47561 0
M  V30 6039 O 564.774 -1.11035 -1.59326 0
M  V30 6040 C 561.904 -2.31253 -2.59112 0
M  V30 6041 C 560.858 -3.46804 -2.50821 0
M  V30 6042 C 560.184 -3.66286 -3.89536 0
M  V30 6043 C 561.484 -4.8104 -2.03465 0
M  V30 6044 H 563.178 -2.85388 -0.905216 0
M  V30 6045 H 560.724 -1.37304 -0.434002 0
M  V30 6046 H 562.677 -2.58583 -3.32736 0
M  V30 6047 H 561.401 -1.40188 -2.94983 0
M  V30 6048 H 560.06 -3.19563 -1.79653 0
M  V30 6049 H 559.708 -2.72555 -4.22756 0
M  V30 6050 H 559.408 -4.4402 -3.84864 0
M  V30 6051 H 560.932 -3.9599 -4.64784 0
M  V30 6052 H 562.346 -5.07411 -2.66846 0
M  V30 6053 H 560.743 -5.62232 -2.09798 0
M  V30 6054 H 561.813 -4.74732 -0.98781 0
M  V30 6055 N 563.156 0.464375 -1.50603 0
M  V30 6056 C 564.381 1.24372 -1.65971 0
M  V30 6057 C 564.806 1.84901 -0.345453 0
M  V30 6058 O 564.164 1.67596 0.691457 0
M  V30 6059 C 564.212 2.32331 -2.7578 0
M  V30 6060 O 563.316 3.37146 -2.375 0
M  V30 6061 H 562.657 0.365604 -0.554283 0
M  V30 6062 H 565.187 0.55183 -1.97018 0
M  V30 6063 H 565.197 2.77539 -2.99059 0
M  V30 6064 H 563.872 1.87648 -3.71162 0
M  V30 6065 H 562.449 2.97602 -2.24694 0
M  V30 6066 N 564.634 1.40294 0.718013 0
M  V30 6067 C 565.544 1.42678 1.86226 0
M  V30 6068 C 566.56 0.319655 1.71039 0
M  V30 6069 O 567.736 0.563852 1.93346 0
M  V30 6070 C 564.801 1.2852 3.21999 0
M  V30 6071 C 563.862 2.49354 3.49458 0
M  V30 6072 C 563.095 2.35863 4.78753 0
M  V30 6073 O 563.318 1.37114 5.53675 0
M  V30 6074 O 562.252 3.25189 5.06494 0
M  V30 6075 H 566.078 2.39167 1.87171 0
M  V30 6076 H 563.663 1.2159 0.868112 0
M  V30 6077 H 565.545 1.22824 4.03103 0
M  V30 6078 H 564.22 0.351359 3.21787 0
M  V30 6079 H 563.127 2.60628 2.68373 0
M  V30 6080 H 564.46 3.41491 3.54464 0
M  V30 6081 N 566.112 -0.949982 1.2575 0
M  V30 6082 C 567.358 -1.69766 1.10938 0
M  V30 6083 C 567.691 -1.91056 -0.348028 0
M  V30 6084 O 566.966 -1.48488 -1.25625 0
M  V30 6085 C 567.249 -3.07779 1.86933 0
M  V30 6086 C 567.102 -2.9387 3.4053 0
M  V30 6087 C 568.421 -4.07749 1.65616 0
M  V30 6088 H 565.54 -0.616144 0.404396 0
M  V30 6089 H 568.182 -1.10394 1.54639 0
M  V30 6090 H 566.332 -3.58462 1.4979 0
M  V30 6091 H 568.004 -2.50476 3.87375 0
M  V30 6092 H 566.247 -2.29686 3.68004 0
M  V30 6093 H 566.918 -3.91719 3.88922 0
M  V30 6094 H 569.394 -3.65994 1.97959 0
M  V30 6095 H 568.27 -5.02348 2.21218 0
M  V30 6096 H 568.531 -4.38029 0.598595 0
M  V30 6097 N 567.59 -1.07411 -1.15328 0
M  V30 6098 C 568.5 -0.706438 -2.23711 0
M  V30 6099 C 569.516 0.282586 -1.7169 0
M  V30 6100 O 570.692 0.129066 -2.00986 0
M  V30 6101 C 567.757 -0.11048 -3.46524 0
M  V30 6102 C 566.818 -1.15282 -4.13532 0
M  V30 6103 C 566.051 -0.585205 -5.30482 0
M  V30 6104 O 566.274 0.598549 -5.67251 0
M  V30 6105 O 565.208 -1.33039 -5.87013 0
M  V30 6106 H 569.034 -1.61031 -2.57493 0
M  V30 6107 H 566.619 -0.847113 -1.23062 0
M  V30 6108 H 568.501 0.21957 -4.20828 0
M  V30 6109 H 567.176 0.766703 -3.14489 0
M  V30 6110 H 566.083 -1.53523 -3.41147 0
M  V30 6111 H 567.416 -2.00192 -4.49649 0
M  V30 6112 N 569.068 1.32177 -0.85831 0
M  V30 6113 C 570.296 2.01313 -0.477582 0
M  V30 6114 C 570.711 1.6449 0.926736 0
M  V30 6115 O 570.068 0.868096 1.60531 0
M  V30 6116 C 570.119 3.56293 -0.611337 0
M  V30 6117 O 569.84 3.91794 -1.96034 0
M  V30 6118 C 571.341 4.42702 -0.230093 0
M  V30 6119 H 568.561 0.644323 -0.187322 0
M  V30 6120 H 571.105 1.68674 -1.15626 0
M  V30 6121 H 569.26 3.87395 0.0196494 0
M  V30 6122 H 569.674 4.86513 -1.95973 0
M  V30 6123 H 571.148 5.50727 -0.374674 0
M  V30 6124 H 571.625 4.3129 0.829779 0
M  V30 6125 H 572.231 4.16997 -0.836302 0
M  V30 6126 N 570.547 0.616602 1.45037 0
M  V30 6127 C 571.494 -0.0969439 2.30596 0
M  V30 6128 C 572.464 -0.851151 1.42635 0
M  V30 6129 O 573.649 -0.835092 1.71554 0
M  V30 6130 C 570.789 -1.08234 3.27688 0
M  V30 6131 C 569.902 -0.328072 4.30752 0
M  V30 6132 C 569.037 -1.30399 5.14946 0
M  V30 6133 C 568.076 -0.538049 6.09731 0
M  V30 6134 N 567.213 -1.46371 6.86673 0
M  V30 6135 H 572.053 0.63864 2.91076 0
M  V30 6136 H 569.59 0.326733 1.43425 0
M  V30 6137 H 571.548 -1.66688 3.82454 0
M  V30 6138 H 570.178 -1.78523 2.68941 0
M  V30 6139 H 569.23 0.372136 3.78575 0
M  V30 6140 H 570.542 0.269142 4.98073 0
M  V30 6141 H 569.696 -1.96032 5.74157 0
M  V30 6142 H 568.435 -1.93514 4.47665 0
M  V30 6143 H 567.44 0.131852 5.49642 0
M  V30 6144 H 568.665 0.0881732 6.79043 0
M  V30 6145 H 566.611 -2.08233 6.22073 0
M  V30 6146 H 566.528 -0.920152 7.50379 0
M  V30 6147 H 567.796 -2.10932 7.50418 0
M  V30 6148 N 572.025 -1.5352 0.356285 0
M  V30 6149 C 573.255 -2.05236 -0.236983 0
M  V30 6150 C 573.663 -1.23016 -1.43749 0
M  V30 6151 O 573.006 -0.2615 -1.81829 0
M  V30 6152 C 573.068 -3.52549 -0.7035 0
M  V30 6153 C 572.732 -4.55425 0.379059 0
M  V30 6154 C 573.729 -5.0524 1.22592 0
M  V30 6155 C 571.414 -4.99425 0.536638 0
M  V30 6156 C 573.408 -5.97647 2.21578 0
M  V30 6157 C 571.095 -5.9164 1.52988 0
M  V30 6158 C 572.093 -6.4064 2.3679 0
M  V30 6159 O 571.781 -7.31039 3.34421 0
M  V30 6160 H 571.513 -0.674346 -0.047254 0
M  V30 6161 H 574.067 -1.98962 0.510238 0
M  V30 6162 H 572.297 -3.56331 -1.50217 0
M  V30 6163 H 573.986 -3.87171 -1.21873 0
M  V30 6164 H 574.752 -4.72002 1.11532 0
M  V30 6165 H 570.631 -4.60879 -0.105834 0
M  V30 6166 H 574.175 -6.35816 2.87025 0
M  V30 6167 H 570.072 -6.24293 1.64099 0
M  V30 6168 H 570.84 -7.49009 3.30041 0
M  V30 6169 N 573.503 -0.0852151 -1.57369 0
M  V30 6170 C 574.435 0.907099 -2.10486 0
M  V30 6171 C 575.448 1.25259 -1.03991 0
M  V30 6172 O 576.637 1.20743 -1.31467 0
M  V30 6173 C 573.737 2.21908 -2.56145 0
M  V30 6174 C 572.91 2.05042 -3.86363 0
M  V30 6175 C 571.969 3.19664 -4.17973 0
M  V30 6176 O 570.995 2.94062 -4.87356 0
M  V30 6177 N 572.197 4.45151 -3.72587 0
M  V30 6178 H 574.962 0.453505 -2.96249 0
M  V30 6179 H 572.523 0.100157 -1.6159 0
M  V30 6180 H 574.515 2.97519 -2.74343 0
M  V30 6181 H 573.085 2.58723 -1.75446 0
M  V30 6182 H 572.305 1.13819 -3.77411 0
M  V30 6183 H 573.593 1.91039 -4.71574 0
M  V30 6184 H 572.991 4.68834 -3.16561 0
M  V30 6185 H 571.548 5.17744 -3.9596 0
M  V30 6186 N 574.981 1.5647 0.188427 0
M  V30 6187 C 575.931 1.91479 1.23774 0
M  V30 6188 C 576.915 0.78119 1.40664 0
M  V30 6189 O 578.107 1.04414 1.42922 0
M  V30 6190 C 575.236 2.26354 2.58106 0
M  V30 6191 C 574.322 3.46186 2.44981 0
M  V30 6192 N 574.713 4.63911 2.01546 0
M  V30 6193 C 573.011 3.50456 2.75856 0
M  V30 6194 C 573.712 5.46064 2.00472 0
M  V30 6195 N 572.688 4.86648 2.42229 0
M  V30 6196 H 576.49 2.79994 0.893339 0
M  V30 6197 H 574.004 1.57477 0.39682 0
M  V30 6198 H 576.001 2.49622 3.33908 0
M  V30 6199 H 574.661 1.39168 2.93364 0
M  V30 6200 H 575.672 4.88451 1.7215 0
M  V30 6201 H 572.349 2.73704 3.15265 0
M  V30 6202 H 573.739 6.50368 1.68734 0
M  V30 6203 N 576.459 -0.456382 1.50847 0
M  V30 6204 C 577.389 -1.56025 1.73719 0
M  V30 6205 C 578.37 -1.5967 0.586473 0
M  V30 6206 O 579.555 -1.75702 0.827185 0
M  V30 6207 C 576.685 -2.94251 1.84483 0
M  V30 6208 C 575.639 -3.05471 2.99786 0
M  V30 6209 C 574.965 -4.45489 2.95709 0
M  V30 6210 C 576.265 -2.81318 4.40065 0
M  V30 6211 H 577.959 -1.37138 2.66146 0
M  V30 6212 H 575.505 -0.658299 1.28072 0
M  V30 6213 H 577.458 -3.71417 1.99067 0
M  V30 6214 H 576.182 -3.14328 0.886891 0
M  V30 6215 H 574.841 -2.30741 2.84876 0
M  V30 6216 H 574.489 -4.62505 1.97732 0
M  V30 6217 H 574.189 -4.53929 3.73125 0
M  V30 6218 H 575.713 -5.24655 3.12362 0
M  V30 6219 H 577.127 -3.48226 4.55425 0
M  V30 6220 H 575.524 -3.01188 5.19043 0
M  V30 6221 H 576.594 -1.7706 4.51418 0
M  V30 6222 N 577.937 -1.40673 -0.710563 0
M  V30 6223 C 578.884 -1.41336 -1.82463 0
M  V30 6224 C 579.854 -0.269648 -1.63897 0
M  V30 6225 O 581.039 -0.468463 -1.8496 0
M  V30 6226 C 578.179 -1.28665 -3.20218 0
M  V30 6227 C 577.292 -2.52784 -3.5032 0
M  V30 6228 C 576.427 -2.32517 -4.77608 0
M  V30 6229 C 575.466 -3.52187 -5.0063 0
M  V30 6230 N 574.603 -3.31084 -6.19135 0
M  V30 6231 H 579.443 -2.36558 -1.8123 0
M  V30 6232 H 576.98 -1.17483 -0.885226 0
M  V30 6233 H 578.938 -1.19324 -3.99772 0
M  V30 6234 H 577.568 -0.370602 -3.20666 0
M  V30 6235 H 576.62 -2.72634 -2.65283 0
M  V30 6236 H 577.932 -3.41845 -3.63241 0
M  V30 6237 H 577.086 -2.20558 -5.65189 0
M  V30 6238 H 575.825 -1.40889 -4.66906 0
M  V30 6239 H 574.83 -3.64617 -4.11502 0
M  V30 6240 H 576.055 -4.44749 -5.13201 0
M  V30 6241 H 574.001 -2.42143 -6.09674 0
M  V30 6242 H 573.918 -4.13713 -6.32754 0
M  V30 6243 H 575.186 -3.22868 -7.0949 0
M  V30 6244 N 579.415 0.9433 -1.26252 0
M  V30 6245 C 580.378 2.02326 -1.07689 0
M  V30 6246 C 581.378 1.60779 -0.0259174 0
M  V30 6247 O 582.568 1.72108 -0.269134 0
M  V30 6248 C 579.7 3.34886 -0.63752 0
M  V30 6249 H 580.893 2.20225 -2.0357 0
M  V30 6250 H 578.446 1.12197 -1.08819 0
M  V30 6251 H 579.181 3.22684 0.323377 0
M  V30 6252 H 578.966 3.66393 -1.39637 0
M  V30 6253 H 580.456 4.14231 -0.529418 0
M  V30 6254 N 580.893 1.08022 1.14757 0
M  V30 6255 C 581.803 0.718292 2.23333 0
M  V30 6256 C 582.819 -0.273477 1.71837 0
M  V30 6257 O 583.995 -0.118406 2.01052 0
M  V30 6258 C 581.06 0.128855 3.4646 0
M  V30 6259 C 580.121 1.17473 4.12915 0
M  V30 6260 C 579.354 0.61333 5.30164 0
M  V30 6261 O 579.577 -0.568458 5.6756 0
M  V30 6262 O 578.511 1.3615 5.86299 0
M  V30 6263 H 582.337 1.62394 2.56636 0
M  V30 6264 H 579.922 0.853628 1.22611 0
M  V30 6265 H 581.804 -0.197249 4.20938 0
M  V30 6266 H 580.479 -0.750014 3.14891 0
M  V30 6267 H 579.386 1.5533 3.40328 0
M  V30 6268 H 580.719 2.02574 4.48581 0
M  V30 6269 N 582.371 -1.3172 0.865308 0
M  V30 6270 C 583.618 -1.96876 0.473931 0
M  V30 6271 C 583.946 -1.68425 -0.972786 0
M  V30 6272 O 583.201 -0.970742 -1.69927 0
M  V30 6273 C 583.5 -3.5102 0.672283 0
M  V30 6274 C 583.166 -3.9948 2.09108 0
M  V30 6275 C 581.828 -4.12425 2.4791 0
M  V30 6276 C 584.18 -4.2503 3.0166 0
M  V30 6277 C 581.508 -4.48267 3.78515 0
M  V30 6278 C 583.86 -4.62335 4.31774 0
M  V30 6279 C 582.524 -4.73486 4.70497 0
M  V30 6280 H 581.794 -0.72042 0.173424 0
M  V30 6281 H 584.441 -1.56937 1.0974 0
M  V30 6282 H 582.746 -3.91785 -0.034356 0
M  V30 6283 H 584.443 -3.99475 0.349353 0
M  V30 6284 H 581.033 -3.89898 1.77981 0
M  V30 6285 H 585.217 -4.14529 2.7291 0
M  V30 6286 H 580.473 -4.55097 4.08285 0
M  V30 6287 H 584.647 -4.81058 5.03543 0
M  V30 6288 H 582.274 -5.01016 5.71741 0
M  V30 6289 N 583.85 -0.624285 -1.44708 0
M  V30 6290 C 584.797 0.0847135 -2.30644 0
M  V30 6291 C 585.767 0.843575 -1.43084 0
M  V30 6292 O 586.952 0.825982 -1.71995 0
M  V30 6293 C 584.091 1.06495 -3.28257 0
M  V30 6294 C 583.205 0.305224 -4.3092 0
M  V30 6295 C 582.34 1.27667 -5.1563 0
M  V30 6296 C 581.379 0.505706 -6.10007 0
M  V30 6297 N 580.516 1.42727 -6.8744 0
M  V30 6298 H 585.356 -0.654068 -2.90733 0
M  V30 6299 H 582.893 -0.334334 -1.4325 0
M  V30 6300 H 584.851 1.64658 -3.83332 0
M  V30 6301 H 583.481 1.77094 -2.69884 0
M  V30 6302 H 582.533 -0.392207 -3.78373 0
M  V30 6303 H 583.845 -0.295553 -4.97924 0
M  V30 6304 H 582.999 1.92984 -5.75189 0
M  V30 6305 H 581.738 1.91137 -4.48685 0
M  V30 6306 H 580.743 -0.160999 -5.49564 0
M  V30 6307 H 581.968 -0.124183 -6.78986 0
M  V30 6308 H 579.913 2.04931 -6.23169 0
M  V30 6309 H 579.831 0.880345 -7.50857 0
M  V30 6310 H 581.099 2.0695 -7.51526 0
M  V30 6311 N 585.328 1.53329 -0.364422 0
M  V30 6312 C 586.26 2.23286 0.517293 0
M  V30 6313 C 587.273 1.24657 1.04711 0
M  V30 6314 O 588.462 1.50887 0.95369 0
M  V30 6315 C 585.562 2.91604 1.72685 0
M  V30 6316 C 584.735 4.1673 1.32873 0
M  V30 6317 C 583.794 4.68269 2.40022 0
M  V30 6318 O 582.82 5.31976 2.02461 0
M  V30 6319 N 584.022 4.45983 3.7159 0
M  V30 6320 H 586.787 2.99588 -0.0819391 0
M  V30 6321 H 584.348 1.60787 -0.189544 0
M  V30 6322 H 586.34 3.22992 2.4384 0
M  V30 6323 H 584.91 2.18763 2.23297 0
M  V30 6324 H 584.13 3.91657 0.447069 0
M  V30 6325 H 585.418 4.98078 1.03902 0
M  V30 6326 H 584.816 3.95077 4.04883 0
M  V30 6327 H 583.373 4.81924 4.38854 0
M  V30 6328 N 586.806 0.0935595 1.57322 0
M  V30 6329 C 587.736 -0.863062 2.16964 0
M  V30 6330 C 588.717 -1.29528 1.10256 0
M  V30 6331 O 589.902 -1.36245 1.38387 0
M  V30 6332 C 587.032 -2.12276 2.74875 0
M  V30 6333 C 585.986 -1.82921 3.86942 0
M  V30 6334 C 585.312 -3.15707 4.31548 0
M  V30 6335 C 586.612 -1.11737 5.10208 0
M  V30 6336 H 588.306 -0.366145 2.97153 0
M  V30 6337 H 585.852 -0.174673 1.42937 0
M  V30 6338 H 587.805 -2.79634 3.1525 0
M  V30 6339 H 586.529 -2.64248 1.91938 0
M  V30 6340 H 585.188 -1.17961 3.47103 0
M  V30 6341 H 584.836 -3.65563 3.45504 0
M  V30 6342 H 584.536 -2.96849 5.07104 0
M  V30 6343 H 586.06 -3.84226 4.74555 0
M  V30 6344 H 587.474 -1.69203 5.47762 0
M  V30 6345 H 585.871 -1.03064 5.91183 0
M  V30 6346 H 586.941 -0.0998818 4.84797 0
M  V30 6347 N 588.284 -1.56567 -0.180126 0
M  V30 6348 C 589.216 -1.92275 -1.24751 0
M  V30 6349 C 590.229 -0.814922 -1.40936 0
M  V30 6350 O 591.418 -1.09336 -1.41095 0
M  V30 6351 C 588.518 -2.15265 -2.61752 0
M  V30 6352 C 587.691 -3.46467 -2.66981 0
M  V30 6353 C 586.75 -3.58391 -3.85283 0
M  V30 6354 O 585.776 -4.31086 -3.7169 0
M  V30 6355 N 586.978 -2.92587 -5.01371 0
M  V30 6356 H 589.743 -2.84435 -0.944302 0
M  V30 6357 H 587.304 -1.57617 -0.369952 0
M  V30 6358 H 589.296 -2.20515 -3.39345 0
M  V30 6359 H 587.866 -1.29533 -2.845 0
M  V30 6360 H 587.086 -3.52953 -1.75549 0
M  V30 6361 H 588.374 -4.32819 -2.67479 0
M  V30 6362 H 587.772 -2.3338 -5.15316 0
M  V30 6363 H 586.329 -3.03444 -5.76858 0
M  V30 6364 N 589.762 0.448376 -1.51087 0
M  V30 6365 C 590.694 1.56146 -1.67783 0
M  V30 6366 C 591.707 1.52913 -0.55871 0
M  V30 6367 O 592.896 1.57889 -0.83267 0
M  V30 6368 C 589.996 2.95057 -1.66716 0
M  V30 6369 C 589.169 3.22915 -2.95033 0
M  V30 6370 C 588.228 4.41495 -2.86302 0
M  V30 6371 O 587.254 4.40688 -3.60254 0
M  V30 6372 N 588.456 5.44443 -2.014 0
M  V30 6373 H 591.221 1.42232 -2.638 0
M  V30 6374 H 588.782 0.637153 -1.48835 0
M  V30 6375 H 590.774 3.72388 -1.58458 0
M  V30 6376 H 589.344 3.02624 -0.783403 0
M  V30 6377 H 588.564 2.33985 -3.17245 0
M  V30 6378 H 589.852 3.38349 -3.79996 0
M  V30 6379 H 589.25 5.4793 -1.40674 0
M  V30 6380 H 587.807 6.2067 -1.99029 0
M  V30 6381 N 591.24 1.41047 0.703093 0
M  V30 6382 C 592.172 1.38228 1.82827 0
M  V30 6383 C 593.185 0.285637 1.60275 0
M  V30 6384 O 594.374 0.54685 1.69917 0
M  V30 6385 C 591.474 1.13136 3.19458 0
M  V30 6386 C 590.647 2.34695 3.69103 0
M  V30 6387 C 589.706 2.05574 4.84382 0
M  V30 6388 O 588.732 2.78549 4.96386 0
M  V30 6389 N 589.934 1.04135 5.71083 0
M  V30 6390 H 592.699 2.35203 1.85741 0
M  V30 6391 H 590.26 1.35562 0.885125 0
M  V30 6392 H 592.252 0.916183 3.94193 0
M  V30 6393 H 590.822 0.247836 3.11616 0
M  V30 6394 H 590.042 2.71963 2.85359 0
M  V30 6395 H 591.33 3.15705 3.99009 0
M  V30 6396 H 590.728 0.43722 5.64008 0
M  V30 6397 H 589.285 0.886078 6.45749 0
M  V30 6398 N 592.718 -0.936591 1.26751 0
M  V30 6399 C 594.134 -1.21095 1.03963 0
M  V30 6400 C 594.334 -2.00156 -0.232372 0
M  V30 6401 O 593.39 -2.3434 -0.940274 0
M  V30 6402 C 594.703 -1.96775 2.27377 0
M  V30 6403 C 596.251 -2.09749 2.32324 0
M  V30 6404 C 596.726 -2.88832 3.55443 0
M  V30 6405 N 598.217 -2.96404 3.55948 0
M  V30 6406 C 598.952 -3.58036 4.47881 0
M  V30 6407 N 598.448 -4.21132 5.50109 0
M  V30 6408 N 600.241 -3.55353 4.35523 0
M  V30 6409 H 592.392 -0.408173 2.08441 0
M  V30 6410 H 594.655 -0.243139 0.91629 0
M  V30 6411 H 594.361 -1.46094 3.19921 0
M  V30 6412 H 594.235 -2.97424 2.31989 0
M  V30 6413 H 596.622 -2.5962 1.40291 0
M  V30 6414 H 596.703 -1.08347 2.31721 0
M  V30 6415 H 596.347 -2.39647 4.47808 0
M  V30 6416 H 596.277 -3.90499 3.53296 0
M  V30 6417 H 598.768 -2.51552 2.82011 0
M  V30 6418 H 599.081 -4.66071 6.16439 0
M  V30 6419 H 597.426 -4.19705 5.53961 0
M  V30 6420 H 600.617 -3.05256 3.54875 0
M  V30 6421 H 600.79 -4.03097 5.07363 0
M  V30 6422 N 594.196 -1.08629 -1.14182 0
M  V30 6423 C 595.106 -0.730126 -2.22949 0
M  V30 6424 C 596.122 0.26436 -1.7198 0
M  V30 6425 O 597.298 0.107742 -2.01112 0
M  V30 6426 C 594.363 -0.147227 -3.46387 0
M  V30 6427 C 593.424 -1.19662 -4.12286 0
M  V30 6428 C 592.657 -0.641437 -5.29831 0
M  V30 6429 O 592.88 0.538351 -5.67854 0
M  V30 6430 O 591.814 -1.39257 -5.85569 0
M  V30 6431 H 595.64 -1.63753 -2.55771 0
M  V30 6432 H 593.225 -0.860118 -1.22157 0
M  V30 6433 H 595.107 0.174923 -4.21037 0
M  V30 6434 H 593.782 0.733304 -3.15285 0
M  V30 6435 H 592.689 -1.57133 -3.395 0
M  V30 6436 H 594.022 -2.0495 -4.475 0
M  V30 6437 N 595.674 1.31259 -0.872281 0
M  V30 6438 C 596.584 2.32221 -0.333255 0
M  V30 6439 C 597.6 1.6481 0.558013 0
M  V30 6440 O 598.776 1.96212 0.454175 0
M  V30 6441 C 595.841 3.43708 0.454479 0
M  V30 6442 C 594.902 4.26774 -0.465024 0
M  V30 6443 C 594.135 5.32937 0.28521 0
M  V30 6444 O 594.358 5.49968 1.513 0
M  V30 6445 O 593.292 6.00834 -0.358126 0
M  V30 6446 H 597.118 2.80252 -1.17016 0
M  V30 6447 H 594.703 1.352 -0.635724 0
M  V30 6448 H 596.585 4.11656 0.900963 0
M  V30 6449 H 595.26 2.97836 1.26789 0
M  V30 6450 H 594.167 3.61571 -0.960055 0
M  V30 6451 H 595.5 4.76217 -1.2441 0
M  V30 6452 N 597.152 0.631951 1.44375 0
M  V30 6453 C 598.099 -0.0724807 2.30686 0
M  V30 6454 C 599.069 -0.835975 1.43529 0
M  V30 6455 O 600.254 -0.816849 1.7243 0
M  V30 6456 C 597.394 -1.04753 3.28817 0
M  V30 6457 C 596.507 -0.282367 4.31076 0
M  V30 6458 C 595.642 -1.2493 5.163 0
M  V30 6459 C 594.681 -0.473349 6.10267 0
M  V30 6460 N 593.818 -1.39079 6.88187 0
M  V30 6461 H 598.658 0.669477 2.90383 0
M  V30 6462 H 596.195 0.341927 1.43071 0
M  V30 6463 H 598.153 -1.62623 3.842 0
M  V30 6464 H 596.783 -1.75661 2.70819 0
M  V30 6465 H 595.835 0.412268 3.78159 0
M  V30 6466 H 597.147 0.321955 4.9776 0
M  V30 6467 H 596.301 -1.89931 5.76204 0
M  V30 6468 H 595.04 -1.88755 4.49692 0
M  V30 6469 H 594.045 0.190142 5.49471 0
M  V30 6470 H 595.27 0.16019 6.78911 0
M  V30 6471 H 593.216 -2.01623 6.24247 0
M  V30 6472 H 593.133 -0.840513 7.51313 0
M  V30 6473 H 594.401 -2.02961 7.52613 0
M  V30 6474 N 598.631 -1.53133 0.372548 0
M  V30 6475 C 599.541 -2.29671 -0.478379 0
M  V30 6476 C 600.557 -1.35913 -1.08644 0
M  V30 6477 O 601.733 -1.68975 -1.09588 0
M  V30 6478 C 598.798 -3.07625 -1.599 0
M  V30 6479 C 597.859 -4.17061 -1.01776 0
M  V30 6480 C 597.092 -4.91289 -2.08497 0
M  V30 6481 O 597.315 -4.65442 -3.29727 0
M  V30 6482 O 596.249 -5.7705 -1.71164 0
M  V30 6483 H 600.075 -3.03355 0.144649 0
M  V30 6484 H 597.66 -1.48773 0.136729 0
M  V30 6485 H 599.542 -3.56281 -2.25038 0
M  V30 6486 H 598.217 -2.3677 -2.2073 0
M  V30 6487 H 597.124 -3.72641 -0.330098 0
M  V30 6488 H 598.457 -4.90102 -0.453915 0
M  V30 6489 N 600.109 -0.101901 -1.5727 0
M  V30 6490 C 601.041 0.884723 -2.11436 0
M  V30 6491 C 602.054 1.24149 -1.05314 0
M  V30 6492 O 603.243 1.19341 -1.3274 0
M  V30 6493 C 600.343 2.19179 -2.58484 0
M  V30 6494 C 599.516 2.00933 -3.88516 0
M  V30 6495 C 598.575 3.15213 -4.2134 0
M  V30 6496 O 597.601 2.88877 -4.90448 0
M  V30 6497 N 598.803 4.41174 -3.77288 0
M  V30 6498 H 601.568 0.422058 -2.96713 0
M  V30 6499 H 599.129 0.0830128 -1.61687 0
M  V30 6500 H 601.121 2.94593 -2.77484 0
M  V30 6501 H 599.691 2.56847 -1.7818 0
M  V30 6502 H 598.911 1.09809 -3.78597 0
M  V30 6503 H 600.199 1.86026 -4.73573 0
M  V30 6504 H 599.597 4.6545 -3.21516 0
M  V30 6505 H 598.154 5.13515 -4.01429 0
M  V30 6506 N 601.587 1.56661 0.17182 0
M  V30 6507 C 602.537 1.92781 1.21736 0
M  V30 6508 C 603.521 0.796065 1.39827 0
M  V30 6509 O 604.713 1.05924 1.41806 0
M  V30 6510 C 601.842 2.29079 2.55691 0
M  V30 6511 C 600.928 3.48765 2.41296 0
M  V30 6512 N 601.319 4.66022 1.96614 0
M  V30 6513 C 599.617 3.53362 2.72124 0
M  V30 6514 C 600.318 5.48159 1.94669 0
M  V30 6515 N 599.294 4.89189 2.37054 0
M  V30 6516 H 603.096 2.80926 0.863592 0
M  V30 6517 H 600.61 1.57889 0.380096 0
M  V30 6518 H 602.607 2.5315 3.31241 0
M  V30 6519 H 601.267 1.42272 2.91871 0
M  V30 6520 H 602.278 4.9025 1.66959 0
M  V30 6521 H 598.955 2.77033 3.12345 0
M  V30 6522 H 600.345 6.52121 1.61826 0
M  V30 6523 N 603.065 -0.440357 1.51323 0
M  V30 6524 C 604.313 -1.18769 1.63518 0
M  V30 6525 C 604.634 -1.91793 0.352201 0
M  V30 6526 O 603.904 -1.85432 -0.631811 0
M  V30 6527 H 602.484 -0.441408 0.602634 0
M  V30 6528 H 605.146 -0.505162 1.8824 0
M  V30 6529 H 604.242 -1.91892 2.46138 0
M  V30 6530 N 604.543 -1.41418 -0.695603 0
M  V30 6531 C 605.473 -1.46035 -1.82197 0
M  V30 6532 C 606.454 -0.319025 -1.67082 0
M  V30 6533 O 607.639 -0.530462 -1.86815 0
M  V30 6534 C 604.769 -1.34179 -3.20333 0
M  V30 6535 C 603.723 -2.46123 -3.50154 0
M  V30 6536 C 603.049 -2.19332 -4.87645 0
M  V30 6537 C 604.349 -3.88463 -3.49133 0
M  V30 6538 H 606.043 -2.40303 -1.78591 0
M  V30 6539 H 603.589 -1.15663 -0.857797 0
M  V30 6540 H 605.542 -1.36021 -3.98844 0
M  V30 6541 H 604.266 -0.363952 -3.24566 0
M  V30 6542 H 602.925 -2.43563 -2.73994 0
M  V30 6543 H 602.573 -1.19891 -4.88503 0
M  V30 6544 H 602.273 -2.94344 -5.08562 0
M  V30 6545 H 603.797 -2.22889 -5.68465 0
M  V30 6546 H 605.211 -3.92738 -4.17648 0
M  V30 6547 H 603.608 -4.63158 -3.81582 0
M  V30 6548 H 604.678 -4.16617 -2.48109 0
M  V30 6549 N 606.021 0.929856 -1.27246 0
M  V30 6550 C 606.953 2.03434 -1.0558 0
M  V30 6551 C 607.966 1.62795 -0.0125762 0
M  V30 6552 O 609.155 1.76685 -0.2539 0
M  V30 6553 C 606.255 3.33915 -0.57912 0
M  V30 6554 C 605.428 4.03259 -1.69415 0
M  V30 6555 C 604.487 5.12014 -1.21357 0
M  V30 6556 O 603.513 5.36097 -1.91282 0
M  V30 6557 N 604.715 5.8046 -0.0680622 0
M  V30 6558 H 607.48 2.22583 -2.00691 0
M  V30 6559 H 605.041 1.1001 -1.18783 0
M  V30 6560 H 607.033 4.03978 -0.241563 0
M  V30 6561 H 605.603 3.11355 0.278703 0
M  V30 6562 H 604.823 3.26958 -2.20209 0
M  V30 6563 H 606.111 4.46337 -2.44255 0
M  V30 6564 H 605.509 5.63345 0.515626 0
M  V30 6565 H 604.066 6.51461 0.210332 0
M  V30 6566 N 607.499 1.09233 1.13605 0
M  V30 6567 C 608.429 0.751738 2.21068 0
M  V30 6568 C 609.41 -0.269688 1.67948 0
M  V30 6569 O 610.595 -0.13819 1.93708 0
M  V30 6570 C 607.725 0.16935 3.46887 0
M  V30 6571 C 606.679 1.12007 4.13084 0
M  V30 6572 C 606.005 0.399483 5.33206 0
M  V30 6573 C 607.305 2.46168 4.6065 0
M  V30 6574 H 608.999 1.65024 2.49815 0
M  V30 6575 H 606.545 0.794905 1.20072 0
M  V30 6576 H 608.498 -0.0809824 4.21322 0
M  V30 6577 H 607.222 -0.764335 3.1753 0
M  V30 6578 H 605.881 1.35564 3.40614 0
M  V30 6579 H 605.529 -0.538277 5.00112 0
M  V30 6580 H 605.229 1.03337 5.78442 0
M  V30 6581 H 606.753 0.157403 6.10397 0
M  V30 6582 H 608.167 2.26829 5.26518 0
M  V30 6583 H 606.564 3.05326 5.1662 0
M  V30 6584 H 607.634 3.07076 3.75276 0
M  V30 6585 N 608.977 -1.30795 0.87923 0
M  V30 6586 C 609.909 -2.27241 0.299025 0
M  V30 6587 C 610.922 -1.53472 -0.543166 0
M  V30 6588 O 612.111 -1.74756 -0.363651 0
M  V30 6589 C 609.211 -3.33655 -0.593931 0
M  V30 6590 C 608.384 -4.36857 0.2179 0
M  V30 6591 C 607.443 -5.22715 -0.604646 0
M  V30 6592 O 606.469 -5.69192 -0.0293838 0
M  V30 6593 N 607.671 -5.48008 -1.91488 0
M  V30 6594 H 610.436 -2.77667 1.12788 0
M  V30 6595 H 607.997 -1.43914 0.741637 0
M  V30 6596 H 609.989 -3.88013 -1.15012 0
M  V30 6597 H 608.559 -2.83202 -1.32346 0
M  V30 6598 H 607.779 -3.82444 0.955536 0
M  V30 6599 H 609.067 -5.02869 0.774614 0
M  V30 6600 H 608.465 -5.1202 -2.40525 0
M  V30 6601 H 607.022 -6.05264 -2.41864 0
M  V30 6602 N 610.455 -0.639598 -1.44038 0
M  V30 6603 C 611.68 -0.153117 -2.06834 0
M  V30 6604 C 612.105 1.16676 -1.47541 0
M  V30 6605 O 611.463 1.71769 -0.580093 0
M  V30 6606 C 611.511 -0.0609169 -3.60549 0
M  V30 6607 O 610.615 0.98071 -4.00569 0
M  V30 6608 H 609.956 -0.0886402 -0.658057 0
M  V30 6609 H 612.486 -0.878674 -1.84771 0
M  V30 6610 H 612.496 0.126892 -4.07803 0
M  V30 6611 H 611.171 -1.0245 -4.03084 0
M  V30 6612 H 609.748 0.766789 -3.64931 0
M  V30 6613 N 611.933 1.52934 -0.380664 0
M  V30 6614 C 612.843 2.29921 0.466192 0
M  V30 6615 C 613.859 1.36488 1.07922 0
M  V30 6616 O 615.035 1.69553 1.0869 0
M  V30 6617 C 612.1 3.08468 1.58266 0
M  V30 6618 C 611.161 4.17595 0.995627 0
M  V30 6619 C 610.394 4.92387 2.05889 0
M  V30 6620 O 610.617 4.67184 3.27254 0
M  V30 6621 O 609.551 5.77949 1.68102 0
M  V30 6622 H 613.377 3.03274 -0.160735 0
M  V30 6623 H 610.962 1.48698 -0.144617 0
M  V30 6624 H 612.844 3.57469 2.23145 0
M  V30 6625 H 611.519 2.37937 2.19471 0
M  V30 6626 H 610.426 3.72811 0.310332 0
M  V30 6627 H 611.759 4.90336 0.427918 0
M  V30 6628 N 613.412 0.11024 1.57214 0
M  V30 6629 C 614.661 -0.549638 1.94067 0
M  V30 6630 C 614.974 -1.68388 0.995234 0
M  V30 6631 O 616.18 -2.40593 1.25807 0
M  V30 6632 C 614.636 -1.02912 3.44873 0
M  V30 6633 C 614.244 0.0761861 4.47935 0
M  V30 6634 C 615.988 -1.66087 3.9066 0
M  V30 6635 C 613.895 -0.419502 5.8991 0
M  V30 6636 H 612.825 -0.209092 0.724428 0
M  V30 6637 H 615.476 0.188683 1.82527 0
M  V30 6638 H 613.858 -1.82159 3.51616 0
M  V30 6639 H 615.032 0.852185 4.52851 0
M  V30 6640 H 613.347 0.614052 4.11847 0
M  V30 6641 H 615.944 -2.04272 4.94143 0
M  V30 6642 H 616.287 -2.53591 3.30148 0
M  V30 6643 H 616.82 -0.933959 3.86681 0
M  V30 6644 H 613.559 0.419277 6.54158 0
M  V30 6645 H 613.079 -1.16217 5.88433 0
M  V30 6646 H 614.758 -0.883577 6.40938 0
M  V30 6647 N 614.89 -1.56749 -0.16351 0
M  V30 6648 C 615.838 -1.97939 -1.22159 0
M  V30 6649 C 616.832 -0.869288 -1.45395 0
M  V30 6650 O 618.038 -1.05443 -1.45883 0
M  V30 6651 H 614.413 -0.629869 -0.410815 0
M  V30 6652 H 616.384 -2.86115 -0.847381 0
M  V30 6653 C 615.133 -2.36206 -2.55151 0
M  V30 6654 H 614.456 -3.2117 -2.38097 0
M  V30 6655 H 615.896 -2.68863 -3.27854 0
M  V30 6656 C 614.355 -1.20841 -3.14482 0
M  V30 6657 O 614.885 -0.500258 -3.98573 0
M  V30 6658 N 613.091 -0.976943 -2.73686 0
M  V30 6659 H 612.638 -1.55457 -2.05404 0
M  V30 6660 H 612.596 -0.206912 -3.13718 0
M  V30 6661 N 616.368 0.432326 -1.51554 0
M  V30 6662 C 617.3 1.54357 -1.6943 0
M  V30 6663 C 618.313 1.52311 -0.574897 0
M  V30 6664 O 619.502 1.56997 -0.849369 0
M  V30 6665 C 616.602 2.93273 -1.69836 0
M  V30 6666 C 615.775 3.19768 -2.98442 0
M  V30 6667 C 614.834 4.38433 -2.90969 0
M  V30 6668 O 613.86 4.36842 -3.64908 0
M  V30 6669 N 615.062 5.42276 -2.07163 0
M  V30 6670 H 617.827 1.39426 -2.65293 0
M  V30 6671 H 615.388 0.621331 -1.49503 0
M  V30 6672 H 617.38 3.70687 -1.62399 0
M  V30 6673 H 615.95 3.01777 -0.815456 0
M  V30 6674 H 615.17 2.30607 -3.19709 0
M  V30 6675 H 616.458 3.343 -3.83563 0
M  V30 6676 H 615.856 5.46407 -1.46477 0
M  V30 6677 H 614.413 6.18524 -2.05601 0
M  V30 6678 N 617.846 1.41785 0.688094 0
M  V30 6679 C 618.776 1.47 1.8142 0
M  V30 6680 C 619.757 0.327881 1.6691 0
M  V30 6681 O 620.942 0.540362 1.86531 0
M  V30 6682 C 618.072 1.35876 3.19617 0
M  V30 6683 C 617.026 2.47976 3.48844 0
M  V30 6684 C 616.352 2.21915 4.86475 0
M  V30 6685 C 617.652 3.90309 3.47068 0
M  V30 6686 H 619.346 2.41247 1.77314 0
M  V30 6687 H 616.892 1.16116 0.851651 0
M  V30 6688 H 618.845 1.38134 3.98117 0
M  V30 6689 H 617.569 0.38116 3.24368 0
M  V30 6690 H 616.228 2.45013 2.72698 0
M  V30 6691 H 615.876 1.2248 4.8786 0
M  V30 6692 H 615.576 2.97037 5.06994 0
M  V30 6693 H 617.1 2.25901 5.67275 0
M  V30 6694 H 618.514 3.94947 4.1556 0
M  V30 6695 H 616.911 4.65175 3.7912 0
M  V30 6696 H 617.981 4.17927 2.45896 0
M  V30 6697 N 619.324 -0.923095 1.27737 0
M  V30 6698 C 620.274 -2.01061 1.0751 0
M  V30 6699 C 621.258 -1.609 0.00165451 0
M  V30 6700 O 622.45 -1.75618 0.220724 0
M  V30 6701 C 619.579 -3.35467 0.729162 0
M  V30 6702 C 618.665 -3.82059 1.84098 0
M  V30 6703 N 619.056 -4.01115 3.08124 0
M  V30 6704 C 617.354 -4.11135 1.7287 0
M  V30 6705 C 618.055 -4.39989 3.80506 0
M  V30 6706 N 617.031 -4.47721 3.08297 0
M  V30 6707 H 620.833 -2.13832 2.01626 0
M  V30 6708 H 618.347 -1.11027 1.18519 0
M  V30 6709 H 620.344 -4.13049 0.565355 0
M  V30 6710 H 619.004 -3.24056 -0.204334 0
M  V30 6711 H 620.015 -3.87294 3.43836 0
M  V30 6712 H 616.692 -4.08412 0.866352 0
M  V30 6713 H 618.082 -4.62773 4.87125 0
M  V30 6714 N 620.802 -1.09834 -1.13024 0
M  V30 6715 C 622.027 -0.85909 -1.88771 0
M  V30 6716 C 622.452 0.584402 -1.78791 0
M  V30 6717 O 621.81 1.41101 -1.13842 0
M  V30 6718 C 621.858 -1.30427 -3.36186 0
M  V30 6719 O 620.962 -0.465368 -4.09766 0
M  V30 6720 H 620.303 -0.310786 -0.586778 0
M  V30 6721 H 622.833 -1.46355 -1.42973 0
M  V30 6722 H 622.843 -1.2915 -3.8702 0
M  V30 6723 H 621.518 -2.3555 -3.42767 0
M  V30 6724 H 620.095 -0.542814 -3.68928 0
M  V30 6725 N 622.28 1.30327 -0.886154 0
M  V30 6726 C 623.227 2.28099 -0.352069 0
M  V30 6727 C 624.197 1.56433 0.558397 0
M  V30 6728 O 625.382 1.84492 0.486561 0
M  V30 6729 C 622.522 3.42456 0.426346 0
M  V30 6730 C 621.635 4.28938 -0.513472 0
M  V30 6731 C 620.77 5.30458 0.280657 0
M  V30 6732 C 619.809 6.0859 -0.654556 0
M  V30 6733 N 618.946 7.02022 0.104322 0
M  V30 6734 H 623.786 2.73166 -1.19097 0
M  V30 6735 H 621.323 1.34367 -0.598662 0
M  V30 6736 H 623.281 4.07518 0.893587 0
M  V30 6737 H 621.911 2.98455 1.22981 0
M  V30 6738 H 620.963 3.64173 -1.09921 0
M  V30 6739 H 622.275 4.83399 -1.2299 0
M  V30 6740 H 621.429 6.01273 0.8097 0
M  V30 6741 H 620.168 4.76693 1.03029 0
M  V30 6742 H 619.173 5.36651 -1.19522 0
M  V30 6743 H 620.398 6.64443 -1.4033 0
M  V30 6744 H 618.344 6.50645 0.836472 0
M  V30 6745 H 618.261 7.53979 -0.552453 0
M  V30 6746 H 619.529 7.77077 0.614069 0
M  V30 6747 N 623.758 0.647228 1.43697 0
M  V30 6748 C 624.688 -0.0345631 2.33474 0
M  V30 6749 C 625.669 -0.818193 1.4913 0
M  V30 6750 O 626.854 -0.780867 1.77809 0
M  V30 6751 C 623.984 -1.00576 3.32418 0
M  V30 6752 C 622.938 -0.33266 4.26705 0
M  V30 6753 C 622.264 -1.41489 5.1564 0
M  V30 6754 C 623.564 0.771204 5.16575 0
M  V30 6755 H 625.258 0.715163 2.90733 0
M  V30 6756 H 622.804 0.345364 1.39797 0
M  V30 6757 H 624.757 -1.49159 3.94119 0
M  V30 6758 H 623.481 -1.78657 2.73403 0
M  V30 6759 H 622.14 0.13267 3.6636 0
M  V30 6760 H 621.788 -2.18698 4.52968 0
M  V30 6761 H 621.488 -0.969799 5.79542 0
M  V30 6762 H 623.012 -1.9022 5.80214 0
M  V30 6763 H 624.426 0.36779 5.72119 0
M  V30 6764 H 622.823 1.1404 5.89165 0
M  V30 6765 H 623.893 1.63169 4.56622 0
M  V30 6766 N 625.236 -1.5273 0.388769 0
M  V30 6767 C 626.166 -2.29353 -0.438111 0
M  V30 6768 C 627.147 -1.32719 -1.06394 0
M  V30 6769 O 628.332 -1.61612 -1.07681 0
M  V30 6770 C 625.462 -3.09995 -1.56589 0
M  V30 6771 C 624.416 -4.14509 -1.06613 0
M  V30 6772 C 623.742 -4.83372 -2.28594 0
M  V30 6773 C 625.042 -5.22127 -0.134459 0
M  V30 6774 H 626.736 -2.98723 0.201206 0
M  V30 6775 H 624.282 -1.43665 0.0982089 0
M  V30 6776 H 626.235 -3.62357 -2.15118 0
M  V30 6777 H 624.959 -2.38357 -2.23279 0
M  V30 6778 H 623.618 -3.63128 -0.503383 0
M  V30 6779 H 623.266 -4.08283 -2.93792 0
M  V30 6780 H 622.966 -5.54012 -1.95817 0
M  V30 6781 H 624.49 -5.38538 -2.87766 0
M  V30 6782 H 625.904 -5.69851 -0.627914 0
M  V30 6783 H 624.301 -6.00011 0.103534 0
M  V30 6784 H 625.371 -4.77971 0.816798 0
M  V30 6785 N 626.714 -0.118576 -1.57153 0
M  V30 6786 C 627.624 0.845484 -2.18835 0
M  V30 6787 C 628.64 1.29299 -1.16438 0
M  V30 6788 O 629.816 1.35607 -1.48905 0
M  V30 6789 C 626.881 2.07795 -2.77529 0
M  V30 6790 C 625.942 1.6824 -3.9496 0
M  V30 6791 C 625.175 2.85612 -4.50845 0
M  V30 6792 O 625.398 4.01025 -4.05629 0
M  V30 6793 O 624.332 2.62721 -5.41536 0
M  V30 6794 H 628.158 0.350568 -3.0167 0
M  V30 6795 H 625.743 0.107013 -1.49016 0
M  V30 6796 H 627.625 2.79978 -3.14945 0
M  V30 6797 H 626.3 2.56294 -1.97725 0
M  V30 6798 H 625.207 0.931663 -3.62313 0
M  V30 6799 H 626.54 1.24484 -4.76198 0
M  V30 6800 N 628.193 1.56834 0.155195 0
M  V30 6801 C 629.421 1.87049 0.884326 0
M  V30 6802 C 629.836 0.705839 1.7511 0
M  V30 6803 O 629.193 -0.324641 1.79589 0
M  V30 6804 C 629.244 3.1644 1.74781 0
M  V30 6805 O 628.965 4.28417 0.915978 0
M  V30 6806 C 630.466 3.60113 2.58522 0
M  V30 6807 H 627.686 0.620196 0.25612 0
M  V30 6808 H 630.23 2.03946 0.150445 0
M  V30 6809 H 628.385 3.01321 2.43484 0
M  V30 6810 H 628.799 5.02353 1.50803 0
M  V30 6811 H 630.273 4.53508 3.14698 0
M  V30 6812 H 630.75 2.85005 3.34169 0
M  V30 6813 H 631.356 3.77898 1.95124 0
M  V30 6814 N 629.671 -0.424282 1.51781 0
M  V30 6815 C 630.581 -1.54087 1.76902 0
M  V30 6816 C 631.597 -1.61249 0.653826 0
M  V30 6817 O 632.773 -1.78247 0.937552 0
M  V30 6818 C 629.838 -2.8996 1.90063 0
M  V30 6819 C 628.899 -2.92809 3.13945 0
M  V30 6820 C 628.132 -4.22201 3.26469 0
M  V30 6821 O 628.355 -5.15286 2.44616 0
M  V30 6822 O 627.289 -4.31599 4.1953 0
M  V30 6823 H 631.115 -1.358 2.71647 0
M  V30 6824 H 628.7 -0.608618 1.36441 0
M  V30 6825 H 630.582 -3.70575 2.0063 0
M  V30 6826 H 629.257 -3.08347 0.985067 0
M  V30 6827 H 628.164 -2.11102 3.08847 0
M  V30 6828 H 629.497 -2.79369 4.05233 0
M  V30 6829 N 631.149 -1.42148 -0.680565 0
M  V30 6830 C 632.565 -1.24947 -0.992995 0
M  V30 6831 C 632.765 -0.149527 -2.00944 0
M  V30 6832 O 631.821 0.481145 -2.47873 0
M  V30 6833 C 633.134 -2.60426 -1.5033 0
M  V30 6834 C 634.682 -2.67733 -1.62137 0
M  V30 6835 C 635.157 -4.03564 -2.16565 0
M  V30 6836 N 636.648 -4.05488 -2.23905 0
M  V30 6837 C 637.383 -5.07401 -2.67081 0
M  V30 6838 N 636.879 -6.19698 -3.09751 0
M  V30 6839 N 638.672 -4.94758 -2.66778 0
M  V30 6840 H 630.823 -2.12399 -0.0074788 0
M  V30 6841 H 633.086 -0.94571 -0.0658529 0
M  V30 6842 H 632.792 -3.41743 -0.830947 0
M  V30 6843 H 632.666 -2.83949 -2.483 0
M  V30 6844 H 635.053 -1.86765 -2.2848 0
M  V30 6845 H 635.134 -2.48004 -0.626713 0
M  V30 6846 H 634.778 -4.84987 -1.50833 0
M  V30 6847 H 634.708 -4.20641 -3.1681 0
M  V30 6848 H 637.199 -3.24415 -1.93812 0
M  V30 6849 H 637.512 -6.93318 -3.41365 0
M  V30 6850 H 635.857 -6.23212 -3.07623 0
M  V30 6851 H 639.048 -4.06105 -2.32801 0
M  V30 6852 H 639.221 -5.74317 -3.00107 0
M  V30 6853 N 632.627 0.916307 -1.28225 0
M  V30 6854 C 633.559 2.02303 -1.07732 0
M  V30 6855 C 634.572 1.62773 -0.0298421 0
M  V30 6856 O 635.761 1.76406 -0.272626 0
M  V30 6857 C 632.861 3.33282 -0.614504 0
M  V30 6858 C 632.034 4.01439 -1.73682 0
M  V30 6859 C 631.093 5.10698 -1.26781 0
M  V30 6860 O 630.119 5.34038 -1.96958 0
M  V30 6861 N 631.321 5.80355 -0.129624 0
M  V30 6862 H 634.086 2.20442 -2.03041 0
M  V30 6863 H 631.647 1.08744 -1.19943 0
M  V30 6864 H 633.639 4.03699 -0.284397 0
M  V30 6865 H 632.209 3.11633 0.245664 0
M  V30 6866 H 631.429 3.24604 -2.23665 0
M  V30 6867 H 632.717 4.43721 -2.48976 0
M  V30 6868 H 632.115 5.6386 0.455847 0
M  V30 6869 H 630.672 6.51647 0.141224 0
M  V30 6870 N 634.105 1.10431 1.1244 0
M  V30 6871 C 635.035 0.775143 2.20258 0
M  V30 6872 C 636.016 -0.25186 1.68225 0
M  V30 6873 O 637.201 -0.117637 1.93843 0
M  V30 6874 C 634.331 0.206133 3.46688 0
M  V30 6875 C 633.285 1.16382 4.11873 0
M  V30 6876 C 632.611 0.456014 5.32752 0
M  V30 6877 C 633.911 2.5104 4.58013 0
M  V30 6878 H 635.605 1.67665 2.4805 0
M  V30 6879 H 633.151 0.807595 1.19222 0
M  V30 6880 H 635.104 -0.036291 4.21384 0
M  V30 6881 H 633.828 -0.730614 3.18323 0
M  V30 6882 H 632.487 1.39169 3.39157 0
M  V30 6883 H 632.135 -0.485203 5.00654 0
M  V30 6884 H 631.835 1.09466 5.77314 0
M  V30 6885 H 633.359 0.222135 6.10196 0
M  V30 6886 H 634.773 2.32401 5.24083 0
M  V30 6887 H 633.17 3.10789 5.13352 0
M  V30 6888 H 634.24 3.11039 3.71998 0
M  V30 6889 N 635.583 -1.29855 0.893053 0
M  V30 6890 C 636.831 -1.9544 0.514566 0
M  V30 6891 C 637.152 -1.70795 -0.940959 0
M  V30 6892 O 636.422 -1.03601 -1.66264 0
M  V30 6893 H 635.002 -0.723137 0.187302 0
M  V30 6894 H 637.664 -1.58234 1.13789 0
M  V30 6895 H 636.76 -3.04341 0.691581 0
M  V30 6896 N 637.061 -0.65484 -1.43351 0
M  V30 6897 C 637.971 0.0363603 -2.34572 0
M  V30 6898 C 638.987 0.810432 -1.53974 0
M  V30 6899 O 640.163 0.757308 -1.86619 0
M  V30 6900 C 637.228 0.989733 -3.32273 0
M  V30 6901 C 636.289 0.212414 -4.28774 0
M  V30 6902 C 635.522 1.12038 -5.21808 0
M  V30 6903 O 635.745 2.35967 -5.19303 0
M  V30 6904 O 634.679 0.59191 -5.98982 0
M  V30 6905 H 638.505 -0.714527 -2.95175 0
M  V30 6906 H 636.09 -0.415029 -1.4352 0
M  V30 6907 H 637.972 1.53759 -3.92347 0
M  V30 6908 H 636.647 1.72082 -2.74171 0
M  V30 6909 H 635.554 -0.379062 -3.72175 0
M  V30 6910 H 636.887 -0.479138 -4.89862 0
M  V30 6911 N 638.539 1.52521 -0.396863 0
M  V30 6912 C 639.502 2.2527 0.422604 0
M  V30 6913 C 640.502 1.27184 0.983913 0
M  V30 6914 O 641.692 1.51222 0.864723 0
M  V30 6915 C 638.824 3.01356 1.59365 0
M  V30 6916 H 640.017 2.99133 -0.214416 0
M  V30 6917 H 637.57 1.55587 -0.149128 0
M  V30 6918 H 638.305 2.31813 2.26789 0
M  V30 6919 H 638.09 3.73357 1.19779 0
M  V30 6920 H 639.58 3.56571 2.17363 0
M  V30 6921 N 640.017 0.126909 1.57088 0
M  V30 6922 C 640.967 -0.831678 2.1229 0
M  V30 6923 C 641.951 -1.22292 1.04564 0
M  V30 6924 O 643.143 -1.19269 1.30782 0
M  V30 6925 C 640.272 -2.07866 2.73215 0
M  V30 6926 C 639.358 -1.71143 3.88035 0
M  V30 6927 N 639.749 -1.05136 4.94753 0
M  V30 6928 C 638.047 -2.00549 3.98367 0
M  V30 6929 C 638.748 -0.877257 5.75047 0
M  V30 6930 N 637.724 -1.40477 5.25135 0
M  V30 6931 H 641.526 -0.317926 2.92175 0
M  V30 6932 H 639.04 -0.0753052 1.62225 0
M  V30 6933 H 641.037 -2.77516 3.11111 0
M  V30 6934 H 639.697 -2.59778 1.94796 0
M  V30 6935 H 640.708 -0.71442 5.12949 0
M  V30 6936 H 637.385 -2.54452 3.30999 0
M  V30 6937 H 638.775 -0.358536 6.70943 0
M  V30 6938 N 641.495 -1.56914 -0.146875 0
M  V30 6939 C 642.743 -1.82994 -0.85777 0
M  V30 6940 C 643.064 -0.707814 -1.817 0
M  V30 6941 O 642.334 0.270521 -1.94023 0
M  V30 6942 H 640.914 -0.675106 -0.319751 0
M  V30 6943 H 643.576 -1.9439 -0.140849 0
M  V30 6944 H 642.672 -2.77928 -1.41994 0
M  V30 6945 N 642.974 0.416227 -1.52004 0
M  V30 6946 C 644.39 0.754319 -1.40649 0
M  V30 6947 C 644.59 1.95059 -0.505392 0
M  V30 6948 O 643.646 2.5248 0.0315057 0
M  V30 6949 C 644.959 1.0149 -2.83055 0
M  V30 6950 C 646.507 1.11805 -2.9235 0
M  V30 6951 C 646.982 1.41144 -4.35709 0
M  V30 6952 N 648.473 1.48024 -4.38911 0
M  V30 6953 C 649.208 1.72338 -5.46889 0
M  V30 6954 N 648.704 1.94303 -6.64995 0
M  V30 6955 N 650.497 1.74294 -5.34395 0
M  V30 6956 H 642.648 -0.371324 -2.09129 0
M  V30 6957 H 644.911 -0.103811 -0.942299 0
M  V30 6958 H 644.617 0.208345 -3.51082 0
M  V30 6959 H 644.491 1.93697 -3.23668 0
M  V30 6960 H 646.878 1.91521 -2.24508 0
M  V30 6961 H 646.959 0.17451 -2.55204 0
M  V30 6962 H 646.603 0.619484 -5.04108 0
M  V30 6963 H 646.533 2.36739 -4.70385 0
M  V30 6964 H 649.024 1.32868 -3.53772 0
M  V30 6965 H 649.337 2.12286 -7.43071 0
M  V30 6966 H 647.682 1.91582 -6.68073 0
M  V30 6967 H 650.873 1.56667 -4.41104 0
M  V30 6968 H 651.046 1.92904 -6.18621 0
M  V30 6969 N 644.452 1.42507 0.673017 0
M  V30 6970 C 645.382 1.48916 1.79851 0
M  V30 6971 C 646.363 0.345566 1.66553 0
M  V30 6972 O 647.548 0.560116 1.85947 0
M  V30 6973 C 644.678 1.39258 3.18158 0
M  V30 6974 C 643.632 2.51662 3.46194 0
M  V30 6975 C 642.958 2.27062 4.84094 0
M  V30 6976 C 644.258 3.93968 3.42909 0
M  V30 6977 H 645.952 2.43114 1.74745 0
M  V30 6978 H 643.498 1.17013 0.839288 0
M  V30 6979 H 645.451 1.42349 3.96629 0
M  V30 6980 H 644.175 0.415542 3.23946 0
M  V30 6981 H 642.834 2.47891 2.70084 0
M  V30 6982 H 642.482 1.27648 4.86534 0
M  V30 6983 H 642.182 3.02398 5.03815 0
M  V30 6984 H 643.706 2.31905 5.64847 0
M  V30 6985 H 645.12 3.99332 4.11347 0
M  V30 6986 H 643.517 4.6917 3.74165 0
M  V30 6987 H 644.587 4.20512 2.41449 0
M  V30 6988 N 645.93 -0.909495 1.28709 0
M  V30 6989 C 646.877 -2.01245 1.13 0
M  V30 6990 C 647.847 -1.6608 0.0259684 0
M  V30 6991 O 649.032 -1.89835 0.191687 0
M  V30 6992 C 646.172 -3.35644 0.802315 0
M  V30 6993 C 645.285 -3.83653 1.98582 0
M  V30 6994 C 644.42 -5.06582 1.59837 0
M  V30 6995 C 643.459 -5.46934 2.74827 0
M  V30 6996 N 642.596 -6.61053 2.36546 0
M  V30 6997 H 647.436 -2.14013 2.0737 0
M  V30 6998 H 644.973 -1.0482 1.03205 0
M  V30 6999 H 646.931 -4.12963 0.593057 0
M  V30 7000 H 645.561 -3.22631 -0.104457 0
M  V30 7001 H 644.613 -3.02454 2.30708 0
M  V30 7002 H 645.925 -4.09515 2.84779 0
M  V30 7003 H 645.079 -5.91457 1.35143 0
M  V30 7004 H 643.818 -4.82537 0.707753 0
M  V30 7005 H 642.823 -4.60599 3.00215 0
M  V30 7006 H 644.048 -5.72965 3.64538 0
M  V30 7007 H 641.994 -6.3863 1.49959 0
M  V30 7008 H 641.911 -6.86662 3.16277 0
M  V30 7009 H 643.179 -7.49221 2.15146 0
M  V30 7010 N 647.408 -1.11026 -1.11852 0
M  V30 7011 C 648.318 -0.777252 -2.2135 0
M  V30 7012 C 649.334 0.227821 -1.72502 0
M  V30 7013 O 650.51 0.0650587 -2.01295 0
M  V30 7014 C 647.575 -0.220668 -3.45997 0
M  V30 7015 C 646.636 -1.2838 -4.09655 0
M  V30 7016 C 645.869 -0.753678 -5.28352 0
M  V30 7017 O 646.092 0.417779 -5.68868 0
M  V30 7018 O 645.026 -1.51647 -5.82483 0
M  V30 7019 H 648.852 -1.69141 -2.5224 0
M  V30 7020 H 646.437 -0.885836 -1.20305 0
M  V30 7021 H 648.319 0.0855756 -4.21313 0
M  V30 7022 H 646.994 0.666262 -3.16769 0
M  V30 7023 H 645.901 -1.64299 -3.3609 0
M  V30 7024 H 647.234 -2.14396 -4.43052 0
M  V30 7025 N 648.886 1.2938 -0.899927 0
M  V30 7026 C 649.818 2.26737 -0.335139 0
M  V30 7027 C 650.831 1.54316 0.518681 0
M  V30 7028 O 652.02 1.75313 0.335803 0
M  V30 7029 C 649.12 3.34558 0.540774 0
M  V30 7030 C 648.293 4.36455 -0.287372 0
M  V30 7031 C 647.352 5.2361 0.52141 0
M  V30 7032 O 646.378 5.69167 -0.0611735 0
M  V30 7033 N 647.58 5.50985 1.82745 0
M  V30 7034 H 650.345 2.75838 -1.17191 0
M  V30 7035 H 647.906 1.42716 -0.764438 0
M  V30 7036 H 649.898 3.89794 1.08825 0
M  V30 7037 H 648.468 2.85272 1.27823 0
M  V30 7038 H 647.688 3.80875 -1.01626 0
M  V30 7039 H 648.976 5.01573 -0.854518 0
M  V30 7040 H 648.374 5.15781 2.32349 0
M  V30 7041 H 646.931 6.09036 2.32204 0
M  V30 7042 N 650.364 0.662433 1.43002 0
M  V30 7043 C 651.78 0.330835 1.56133 0
M  V30 7044 C 651.98 -1.16454 1.64441 0
M  V30 7045 O 651.036 -1.94964 1.60453 0
M  V30 7046 C 652.349 1.05029 2.81761 0
M  V30 7047 C 653.897 1.03142 2.95518 0
M  V30 7048 C 654.372 1.73196 4.2399 0
M  V30 7049 N 655.863 1.70004 4.30875 0
M  V30 7050 C 656.598 2.21074 5.29069 0
M  V30 7051 N 656.094 2.80473 6.33488 0
M  V30 7052 N 657.887 2.1152 5.20784 0
M  V30 7053 H 650.038 1.63272 1.35853 0
M  V30 7054 H 652.301 0.687149 0.653092 0
M  V30 7055 H 652.007 2.10542 2.81718 0
M  V30 7056 H 651.881 0.607664 3.72273 0
M  V30 7057 H 654.268 -0.0153339 2.95096 0
M  V30 7058 H 654.349 1.51282 2.0627 0
M  V30 7059 H 653.993 2.77833 4.25172 0
M  V30 7060 H 653.923 1.22515 5.1215 0
M  V30 7061 H 656.414 1.26667 3.56039 0
M  V30 7062 H 656.727 3.17094 7.04749 0
M  V30 7063 H 655.072 2.84538 6.34085 0
M  V30 7064 H 658.263 1.64814 4.38126 0
M  V30 7065 H 658.436 2.51629 5.97149 0
M  V30 7066 N 651.842 -1.52309 0.404946 0
M  V30 7067 C 652.774 -2.24579 -0.45791 0
M  V30 7068 C 653.787 -1.2739 -1.01369 0
M  V30 7069 O 654.976 -1.53363 -0.91335 0
M  V30 7070 C 652.076 -2.9608 -1.64893 0
M  V30 7071 C 651.249 -4.20106 -1.21777 0
M  V30 7072 C 650.308 -4.74468 -2.27523 0
M  V30 7073 O 649.334 -5.37157 -1.88285 0
M  V30 7074 N 650.536 -4.55678 -3.59635 0
M  V30 7075 H 653.301 -2.99265 0.161341 0
M  V30 7076 H 650.862 -1.60228 0.232107 0
M  V30 7077 H 652.854 -3.29344 -2.35191 0
M  V30 7078 H 651.424 -2.24606 -2.17419 0
M  V30 7079 H 650.644 -3.92704 -0.343071 0
M  V30 7080 H 651.932 -5.00658 -0.906596 0
M  V30 7081 H 651.33 -4.05673 -3.94266 0
M  V30 7082 H 649.887 -4.9339 -4.25922 0
M  V30 7083 N 653.32 -0.135238 -1.57019 0
M  V30 7084 C 654.25 0.805235 -2.19176 0
M  V30 7085 C 655.231 1.2656 -1.13651 0
M  V30 7086 O 656.416 1.32528 -1.4195 0
M  V30 7087 C 653.546 2.04914 -2.80406 0
M  V30 7088 C 652.5 1.72598 -3.91655 0
M  V30 7089 C 651.826 3.04154 -4.39766 0
M  V30 7090 C 653.126 0.981709 -5.12991 0
M  V30 7091 H 654.82 0.287232 -2.98019 0
M  V30 7092 H 652.366 0.136714 -1.4335 0
M  V30 7093 H 654.319 2.71178 -3.22553 0
M  V30 7094 H 653.043 2.59067 -1.98877 0
M  V30 7095 H 651.702 1.08717 -3.50109 0
M  V30 7096 H 651.35 3.56274 -3.55075 0
M  V30 7097 H 651.05 2.83299 -5.14796 0
M  V30 7098 H 652.574 3.71509 -4.84576 0
M  V30 7099 H 653.988 1.5462 -5.52056 0
M  V30 7100 H 652.385 0.873533 -5.93708 0
M  V30 7101 H 653.455 -0.0286887 -4.84892 0
M  V30 7102 N 654.798 1.5699 0.138552 0
M  V30 7103 C 656.023 1.88344 0.86841 0
M  V30 7104 C 656.448 0.725159 1.7356 0
M  V30 7105 O 655.806 -0.324992 1.78363 0
M  V30 7106 C 655.854 3.18334 1.69398 0
M  V30 7107 O 654.958 3.02863 2.79907 0
M  V30 7108 H 654.299 0.618577 0.241367 0
M  V30 7109 H 656.829 2.04207 0.126826 0
M  V30 7110 H 656.839 3.50567 2.08726 0
M  V30 7111 H 655.514 4.02238 1.05725 0
M  V30 7112 H 654.091 2.82056 2.43924 0
M  V30 7113 N 656.276 -0.40816 1.52223 0
M  V30 7114 C 657.501 -1.18127 1.70472 0
M  V30 7115 C 657.926 -1.83491 0.41384 0
M  V30 7116 O 657.284 -1.70047 -0.628778 0
M  V30 7117 C 657.332 -2.21935 2.84213 0
M  V30 7118 O 656.436 -3.28099 2.4985 0
M  V30 7119 H 655.777 -0.344781 0.56747 0
M  V30 7120 H 658.307 -0.478328 1.9893 0
M  V30 7121 H 658.317 -2.66248 3.09153 0
M  V30 7122 H 656.992 -1.73744 3.7787 0
M  V30 7123 H 655.569 -2.89058 2.35584 0
M  V30 7124 N 657.755 -1.42862 -0.66545 0
M  V30 7125 C 658.665 -1.49491 -1.80803 0
M  V30 7126 C 659.681 -0.382914 -1.69734 0
M  V30 7127 O 660.857 -0.635223 -1.9112 0
M  V30 7128 C 657.922 -1.40383 -3.17007 0
M  V30 7129 C 656.983 -2.62152 -3.39963 0
M  V30 7130 C 656.216 -2.53469 -4.69669 0
M  V30 7131 O 656.439 -1.57568 -5.48205 0
M  V30 7132 O 655.373 -3.43763 -4.94075 0
M  V30 7133 H 659.199 -2.45949 -1.78165 0
M  V30 7134 H 656.784 -1.24728 -0.822387 0
M  V30 7135 H 658.666 -1.377 -3.98267 0
M  V30 7136 H 657.341 -0.470546 -3.20262 0
M  V30 7137 H 656.248 -2.70409 -2.58515 0
M  V30 7138 H 657.581 -3.54411 -3.41546 0
M  V30 7139 N 659.233 0.902656 -1.29189 0
M  V30 7140 C 660.18 2.00643 -1.14066 0
M  V30 7141 C 661.15 1.66064 -0.0347756 0
M  V30 7142 O 662.335 1.8973 -0.201752 0
M  V30 7143 C 659.475 3.35214 -0.820104 0
M  V30 7144 C 658.588 3.82594 -2.00614 0
M  V30 7145 C 657.723 5.05727 -1.62522 0
M  V30 7146 C 656.762 5.45469 -2.77724 0
M  V30 7147 N 655.899 6.59789 -2.40048 0
M  V30 7148 H 660.739 2.1291 -2.08502 0
M  V30 7149 H 658.276 1.04271 -1.03759 0
M  V30 7150 H 660.234 4.12643 -0.614949 0
M  V30 7151 H 658.864 3.22682 0.0873452 0
M  V30 7152 H 657.916 3.01226 -2.32308 0
M  V30 7153 H 659.228 4.07999 -2.86946 0
M  V30 7154 H 658.382 5.90732 -1.38277 0
M  V30 7155 H 657.121 4.82155 -0.733333 0
M  V30 7156 H 656.126 4.59 -3.02653 0
M  V30 7157 H 657.351 5.71024 -3.67572 0
M  V30 7158 H 655.297 6.37826 -1.53343 0
M  V30 7159 H 655.214 6.84975 -3.19914 0
M  V30 7160 H 656.482 7.4807 -2.19116 0
M  V30 7161 N 660.711 1.11618 1.11262 0
M  V30 7162 C 661.641 0.79846 2.19424 0
M  V30 7163 C 662.622 -0.234003 1.68483 0
M  V30 7164 O 663.807 -0.0970704 1.93957 0
M  V30 7165 C 660.937 0.242892 3.4645 0
M  V30 7166 C 659.891 1.20744 4.10615 0
M  V30 7167 C 659.217 0.512494 5.32238 0
M  V30 7168 C 660.517 2.55884 4.55325 0
M  V30 7169 H 662.211 1.70286 2.46258 0
M  V30 7170 H 659.757 0.820195 1.18359 0
M  V30 7171 H 661.71 0.00840447 4.21399 0
M  V30 7172 H 660.434 -0.696811 3.1908 0
M  V30 7173 H 659.093 1.42759 3.37662 0
M  V30 7174 H 658.741 -0.432075 5.01141 0
M  V30 7175 H 658.441 1.15583 5.7612 0
M  V30 7176 H 659.965 0.286842 6.09926 0
M  V30 7177 H 661.379 2.37946 5.21588 0
M  V30 7178 H 659.776 3.16216 5.10027 0
M  V30 7179 H 660.846 3.14968 3.68678 0
M  V30 7180 N 662.189 -1.289 0.906776 0
M  V30 7181 C 663.122 -2.25737 0.334362 0
M  V30 7182 C 664.1 -1.52745 -0.557474 0
M  V30 7183 O 665.284 -1.81673 -0.502697 0
M  V30 7184 C 662.411 -3.34642 -0.522716 0
M  V30 7185 C 661.457 -4.25424 0.302777 0
M  V30 7186 S 662.29 -5.07629 1.70508 0
M  V30 7187 C 663.446 -6.20031 0.855118 0
M  V30 7188 H 663.679 -2.73941 1.15514 0
M  V30 7189 H 661.212 -1.37233 0.707573 0
M  V30 7190 H 663.17 -3.97845 -1.01141 0
M  V30 7191 H 661.831 -2.85119 -1.31781 0
M  V30 7192 H 661.024 -5.02767 -0.352257 0
M  V30 7193 H 660.626 -3.66908 0.724873 0
M  V30 7194 H 662.918 -6.77451 0.0816418 0
M  V30 7195 H 663.861 -6.89767 1.60087 0
M  V30 7196 H 664.269 -5.63035 0.406375 0
M  V30 7197 N 663.667 -0.670007 -1.42649 0
M  V30 7198 C 664.944 -0.119451 -1.95235 0
M  V30 7199 C 665.324 1.36461 -1.61064 0
M  V30 7200 O 664.672 2.09843 -0.904329 0
M  V30 7201 C 664.882 -0.383498 -3.46887 0
M  V30 7202 C 666.23 -0.297431 -4.23557 0
M  V30 7203 O 667.254 -0.31698 -3.54787 0
M  V30 7204 O 666.113 -0.235507 -5.45992 0
M  V30 7205 H 663.207 -8.85474e-05 -0.827 0
M  V30 7206 H 665.753 -0.744406 -1.52501 0
M  V30 7207 H 664.525 -1.41174 -3.64946 0
M  V30 7208 H 664.148 0.273702 -3.96657 0
M  V30 7209 N 665.145 1.52092 -0.413018 0
M  V30 7210 C 666.092 2.27119 0.410558 0
M  V30 7211 C 667.062 1.29692 1.03774 0
M  V30 7212 O 668.247 1.58561 1.06128 0
M  V30 7213 C 665.387 3.09863 1.51918 0
M  V30 7214 C 664.5 4.22252 0.912528 0
M  V30 7215 C 663.635 4.92348 1.99417 0
M  V30 7216 C 662.674 5.96694 1.36466 0
M  V30 7217 N 661.811 6.60292 2.38661 0
M  V30 7218 H 666.651 2.97067 -0.235661 0
M  V30 7219 H 664.188 1.46542 -0.128055 0
M  V30 7220 H 666.146 3.56144 2.17295 0
M  V30 7221 H 664.776 2.42078 2.13537 0
M  V30 7222 H 663.828 3.80113 0.147697 0
M  V30 7223 H 665.14 4.9709 0.412717 0
M  V30 7224 H 664.294 5.42054 2.72512 0
M  V30 7225 H 663.033 4.17087 2.52764 0
M  V30 7226 H 662.038 5.46304 0.61906 0
M  V30 7227 H 663.263 6.73899 0.838827 0
M  V30 7228 H 661.209 5.87858 2.91134 0
M  V30 7229 H 661.126 7.30816 1.93503 0
M  V30 7230 H 662.394 7.14635 3.11314 0
M  V30 7231 N 666.623 0.143563 1.56945 0
M  V30 7232 C 667.533 -0.810562 2.20152 0
M  V30 7233 C 668.549 -1.27431 1.1848 0
M  V30 7234 O 669.725 -1.33221 1.51044 0
M  V30 7235 C 666.79 -2.03353 2.80799 0
M  V30 7236 C 665.851 -1.61936 3.97587 0
M  V30 7237 C 665.084 -2.78403 4.55332 0
M  V30 7238 O 665.307 -3.94521 4.11958 0
M  V30 7239 O 664.241 -2.54073 5.45647 0
M  V30 7240 H 668.067 -0.30253 3.02189 0
M  V30 7241 H 665.652 -0.0832925 1.49168 0
M  V30 7242 H 667.534 -2.74932 3.19359 0
M  V30 7243 H 666.209 -2.53116 2.01777 0
M  V30 7244 H 665.116 -0.873904 3.6375 0
M  V30 7245 H 666.449 -1.16892 4.78118 0
M  V30 7246 N 668.101 -1.57061 -0.130224 0
M  V30 7247 C 669.033 -1.96147 -1.18571 0
M  V30 7248 C 670.046 -0.859347 -1.38272 0
M  V30 7249 O 671.235 -1.13769 -1.37545 0
M  V30 7250 C 668.335 -2.23484 -2.54771 0
M  V30 7251 C 667.508 -3.54786 -2.55824 0
M  V30 7252 C 666.567 -3.70467 -3.73686 0
M  V30 7253 O 665.593 -4.42693 -3.57787 0
M  V30 7254 N 666.795 -3.08389 -4.91809 0
M  V30 7255 H 669.56 -2.87295 -0.853333 0
M  V30 7256 H 667.121 -1.58714 -0.319621 0
M  V30 7257 H 669.113 -2.312 -3.32158 0
M  V30 7258 H 667.683 -1.38518 -2.80235 0
M  V30 7259 H 666.903 -3.5836 -1.64232 0
M  V30 7260 H 668.191 -4.4111 -2.53573 0
M  V30 7261 H 667.589 -2.49656 -5.0763 0
M  V30 7262 H 666.146 -3.21642 -5.66912 0
M  V30 7263 N 669.579 0.400081 -1.52437 0
M  V30 7264 C 670.511 1.50729 -1.72666 0
M  V30 7265 C 671.524 1.51058 -0.607075 0
M  V30 7266 O 672.713 1.5516 -0.88248 0
M  V30 7267 C 669.813 2.89604 -1.76019 0
M  V30 7268 C 668.986 3.13365 -3.05157 0
M  V30 7269 C 668.045 4.32163 -3.00203 0
M  V30 7270 O 667.071 4.29004 -3.74092 0
M  V30 7271 N 668.273 5.3776 -2.18619 0
M  V30 7272 H 671.038 1.33767 -2.68191 0
M  V30 7273 H 668.599 0.58948 -1.50787 0
M  V30 7274 H 670.591 3.67159 -1.70225 0
M  V30 7275 H 669.161 2.99979 -0.879284 0
M  V30 7276 H 668.381 2.23774 -3.24529 0
M  V30 7277 H 669.669 3.26089 -3.90568 0
M  V30 7278 H 669.067 5.43177 -1.58035 0
M  V30 7279 H 667.624 6.14023 -2.18674 0
M  V30 7280 N 671.057 1.43213 0.657864 0
M  V30 7281 C 672.303 1.44798 1.41991 0
M  V30 7282 C 672.636 0.070256 1.94073 0
M  V30 7283 O 671.911 -0.908177 1.71995 0
M  V30 7284 C 672.194 2.4865 2.60471 0
M  V30 7285 C 672.047 3.95679 2.13911 0
M  V30 7286 C 673.366 2.49292 3.62686 0
M  V30 7287 H 670.485 0.527244 0.514959 0
M  V30 7288 H 673.127 1.74733 0.74621 0
M  V30 7289 H 671.277 2.23254 3.17946 0
M  V30 7290 H 672.949 4.32116 1.61472 0
M  V30 7291 H 671.192 4.08733 1.45325 0
M  V30 7292 H 671.863 4.6395 2.99089 0
M  V30 7293 H 674.339 2.71917 3.14961 0
M  V30 7294 H 673.215 3.23907 4.43143 0
M  V30 7295 H 673.476 1.52502 4.14964 0
M  V30 7296 N 672.536 -0.895792 1.29666 0
M  V30 7297 C 673.499 -1.98189 1.15124 0
M  V30 7298 C 674.499 -1.60572 0.0855717 0
M  V30 7299 O 675.689 -1.70991 0.332826 0
M  V30 7300 C 672.821 -3.32289 0.761372 0
M  V30 7301 H 674.014 -2.12518 2.11603 0
M  V30 7302 H 671.567 -1.0808 1.12908 0
M  V30 7303 H 672.302 -3.23662 -0.203393 0
M  V30 7304 H 672.087 -3.60958 1.53139 0
M  V30 7305 H 673.577 -4.1198 0.682792 0
M  V30 7306 N 674.014 -1.12206 -1.10668 0
M  V30 7307 C 675.291 -0.787382 -1.79052 0
M  V30 7308 C 675.671 0.723267 -1.98323 0
M  V30 7309 O 675.019 1.6561 -1.57434 0
M  V30 7310 C 675.229 -1.55968 -3.1221 0
M  V30 7311 C 676.577 -1.74413 -3.87125 0
M  V30 7312 O 677.601 -1.5246 -3.21923 0
M  V30 7313 O 676.46 -2.10952 -5.04144 0
M  V30 7314 H 673.554 -0.286137 -0.775922 0
M  V30 7315 H 676.1 -1.22595 -1.1734 0
M  V30 7316 H 674.872 -2.58692 -2.93588 0
M  V30 7317 H 674.495 -1.1152 -3.8164 0
M  V30 7318 N 675.492 1.28418 -0.913599 0
M  V30 7319 C 676.422 2.29713 -0.418847 0
M  V30 7320 C 677.403 1.62165 0.513469 0
M  V30 7321 O 678.588 1.89576 0.421235 0
M  V30 7322 C 675.718 3.45612 0.342042 0
M  V30 7323 C 674.672 4.25056 -0.501123 0
M  V30 7324 C 673.998 5.3329 0.388097 0
M  V30 7325 C 675.298 4.91814 -1.75831 0
M  V30 7326 H 676.992 2.71346 -1.26538 0
M  V30 7327 H 674.538 1.30446 -0.609903 0
M  V30 7328 H 676.491 4.15562 0.699 0
M  V30 7329 H 675.215 3.02858 1.22248 0
M  V30 7330 H 673.874 3.56833 -0.840598 0
M  V30 7331 H 673.522 4.8678 1.26707 0
M  V30 7332 H 673.222 5.87347 -0.172459 0
M  V30 7333 H 674.746 6.06088 0.74094 0
M  V30 7334 H 676.16 5.54126 -1.47026 0
M  V30 7335 H 674.557 5.55866 -2.26126 0
M  V30 7336 H 675.627 4.16313 -2.4862 0
M  V30 7337 N 676.97 0.677563 1.42291 0
M  V30 7338 C 677.902 -0.0380218 2.29168 0
M  V30 7339 C 678.915 -0.762714 1.43828 0
M  V30 7340 O 680.104 -0.616413 1.67519 0
M  V30 7341 C 677.204 -1.07761 3.21311 0
M  V30 7342 C 676.377 -0.42618 4.35319 0
M  V30 7343 C 675.436 -1.36592 5.08162 0
M  V30 7344 O 674.462 -0.865174 5.62586 0
M  V30 7345 N 675.664 -2.69909 5.13935 0
M  V30 7346 H 678.429 0.707766 2.91223 0
M  V30 7347 H 675.99 0.52219 1.53247 0
M  V30 7348 H 677.982 -1.70761 3.6691 0
M  V30 7349 H 676.552 -1.72511 2.60689 0
M  V30 7350 H 675.772 0.383385 3.92331 0
M  V30 7351 H 677.06 0.0275277 5.08793 0
M  V30 7352 H 676.458 -3.13129 4.71134 0
M  V30 7353 H 675.015 -3.2815 5.6317 0
M  V30 7354 N 678.448 -1.51871 0.421078 0
M  V30 7355 C 679.378 -2.30231 -0.389363 0
M  V30 7356 C 680.359 -1.34946 -1.03555 0
M  V30 7357 O 681.544 -1.63859 -1.04229 0
M  V30 7358 C 678.674 -3.13247 -1.49979 0
M  V30 7359 C 677.628 -4.16677 -0.977966 0
M  V30 7360 C 676.954 -4.88112 -2.1829 0
M  V30 7361 C 678.254 -5.22295 -0.0236775 0
M  V30 7362 H 679.948 -2.98229 0.264524 0
M  V30 7363 H 677.494 -1.43424 0.12866 0
M  V30 7364 H 679.447 -3.66838 -2.07383 0
M  V30 7365 H 678.171 -2.4304 -2.18173 0
M  V30 7366 H 676.83 -3.64114 -0.426245 0
M  V30 7367 H 676.478 -4.14423 -2.85066 0
M  V30 7368 H 676.178 -5.58041 -1.84021 0
M  V30 7369 H 677.702 -5.44521 -2.76278 0
M  V30 7370 H 679.116 -5.71055 -0.506899 0
M  V30 7371 H 677.513 -5.99656 0.230782 0
M  V30 7372 H 678.583 -4.76131 0.917999 0
M  V30 7373 N 679.926 -0.151884 -1.56866 0
M  V30 7374 C 680.873 0.785936 -2.17006 0
M  V30 7375 C 681.843 1.2407 -1.10435 0
M  V30 7376 O 683.028 1.31235 -1.38499 0
M  V30 7377 C 680.168 2.01771 -2.79969 0
M  V30 7378 C 679.281 1.6083 -4.00946 0
M  V30 7379 C 678.416 2.79224 -4.51893 0
M  V30 7380 C 677.455 2.3468 -5.65324 0
M  V30 7381 N 676.592 3.461 -6.10867 0
M  V30 7382 H 681.432 0.266286 -2.96808 0
M  V30 7383 H 678.969 0.11972 -1.46612 0
M  V30 7384 H 680.927 2.73989 -3.14621 0
M  V30 7385 H 679.557 2.51139 -2.02803 0
M  V30 7386 H 678.609 0.783592 -3.72242 0
M  V30 7387 H 679.921 1.24119 -4.83111 0
M  V30 7388 H 679.075 3.59625 -4.88625 0
M  V30 7389 H 677.814 3.19183 -3.68746 0
M  V30 7390 H 676.819 1.52721 -5.28163 0
M  V30 7391 H 678.044 1.95801 -6.5026 0
M  V30 7392 H 675.99 3.85671 -5.30654 0
M  V30 7393 H 675.907 3.1342 -6.87971 0
M  V30 7394 H 677.175 4.26844 -6.52246 0
M  V30 7395 N 681.404 1.57128 0.121893 0
M  V30 7396 C 682.334 2.03165 1.15092 0
M  V30 7397 C 683.315 0.915587 1.43356 0
M  V30 7398 O 684.5 1.1851 1.53847 0
M  V30 7399 C 681.63 2.43352 2.47784 0
M  V30 7400 C 680.584 3.58376 2.33989 0
M  V30 7401 C 679.91 3.84454 3.71617 0
M  V30 7402 C 681.21 4.90199 1.80283 0
M  V30 7403 H 682.904 2.89382 0.768023 0
M  V30 7404 H 680.45 1.39218 0.367998 0
M  V30 7405 H 682.403 2.74163 3.20019 0
M  V30 7406 H 681.127 1.54103 2.87958 0
M  V30 7407 H 679.786 3.2777 1.64202 0
M  V30 7408 H 679.434 2.92414 4.09271 0
M  V30 7409 H 679.134 4.61877 3.6324 0
M  V30 7410 H 680.658 4.17714 4.45362 0
M  V30 7411 H 682.072 5.19565 2.42333 0
M  V30 7412 H 680.469 5.71601 1.82735 0
M  V30 7413 H 681.539 4.78904 0.760184 0
M  V30 7414 N 682.882 -0.391992 1.52647 0
M  V30 7415 C 684.107 -1.16312 1.71716 0
M  V30 7416 C 684.532 -1.83042 0.433279 0
M  V30 7417 O 683.89 -1.70705 -0.610707 0
M  V30 7418 C 683.938 -2.18908 2.86551 0
M  V30 7419 O 683.042 -3.2543 2.53316 0
M  V30 7420 H 682.383 -0.338743 0.571095 0
M  V30 7421 H 684.913 -0.457202 1.99426 0
M  V30 7422 H 684.923 -2.62954 3.1196 0
M  V30 7423 H 683.598 -1.69726 3.79692 0
M  V30 7424 H 682.175 -2.86543 2.38637 0
M  V30 7425 N 684.36 -1.4356 -0.65026 0
M  V30 7426 C 685.776 -1.27025 -0.966269 0
M  V30 7427 C 685.976 -0.192117 -2.00582 0
M  V30 7428 O 685.032 0.428459 -2.48838 0
M  V30 7429 C 686.345 -2.63556 -1.44772 0
M  V30 7430 C 687.893 -2.71111 -1.56421 0
M  V30 7431 C 688.368 -4.08067 -2.07956 0
M  V30 7432 N 689.859 -4.10146 -2.15254 0
M  V30 7433 C 690.594 -5.12952 -2.56258 0
M  V30 7434 N 690.09 -6.26129 -2.96537 0
M  V30 7435 N 691.883 -5.00306 -2.56224 0
M  V30 7436 H 684.034 -2.12367 0.0375758 0
M  V30 7437 H 686.297 -0.946894 -0.0457782 0
M  V30 7438 H 686.003 -3.43429 -0.758271 0
M  V30 7439 H 685.877 -2.89152 -2.42221 0
M  V30 7440 H 688.264 -1.91569 -2.24467 0
M  V30 7441 H 688.345 -2.49277 -0.573967 0
M  V30 7442 H 687.989 -4.88077 -1.40511 0
M  V30 7443 H 687.919 -4.27266 -3.07817 0
M  V30 7444 H 690.41 -3.28453 -1.86887 0
M  V30 7445 H 690.723 -7.00403 -3.26582 0
M  V30 7446 H 689.068 -6.29597 -2.94334 0
M  V30 7447 H 692.259 -4.10952 -2.24135 0
M  V30 7448 H 692.432 -5.80553 -2.87857 0
M  V30 7449 N 685.838 0.888903 -1.30139 0
M  V30 7450 C 686.768 2.01046 -1.18755 0
M  V30 7451 C 687.749 1.69916 -0.0791438 0
M  V30 7452 O 688.934 1.92445 -0.260498 0
M  V30 7453 C 686.064 3.36109 -0.874518 0
M  V30 7454 C 685.018 3.81486 -1.94043 0
M  V30 7455 C 684.344 5.13796 -1.48047 0
M  V30 7456 C 685.644 4.00637 -3.35093 0
M  V30 7457 H 687.338 2.10828 -2.12584 0
M  V30 7458 H 684.884 1.01298 -1.02346 0
M  V30 7459 H 686.837 4.14089 -0.781548 0
M  V30 7460 H 685.561 3.26449 0.0994519 0
M  V30 7461 H 684.22 3.05731 -2.02297 0
M  V30 7462 H 683.868 5.0056 -0.494878 0
M  V30 7463 H 683.568 5.45127 -2.19341 0
M  V30 7464 H 685.092 5.94305 -1.40121 0
M  V30 7465 H 686.506 4.69067 -3.2962 0
M  V30 7466 H 684.903 4.43339 -4.04438 0
M  V30 7467 H 685.973 3.0462 -3.77273 0
M  V30 7468 N 687.317 1.12792 1.10072 0
M  V30 7469 C 688.227 0.812369 2.20086 0
M  V30 7470 C 689.243 -0.200349 1.72843 0
M  V30 7471 O 690.419 -0.0330262 2.01373 0
M  V30 7472 C 687.484 0.275685 3.45602 0
M  V30 7473 C 686.545 1.34881 4.07561 0
M  V30 7474 C 685.778 0.837639 5.27086 0
M  V30 7475 O 686.001 -0.327224 5.69461 0
M  V30 7476 O 684.935 1.60894 5.79997 0
M  V30 7477 H 688.761 1.73133 2.49517 0
M  V30 7478 H 686.346 0.904863 1.18881 0
M  V30 7479 H 688.228 -0.0185375 4.21396 0
M  V30 7480 H 686.903 -0.615783 3.17789 0
M  V30 7481 H 685.81 1.69625 3.33434 0
M  V30 7482 H 687.143 2.21418 4.39585 0
M  V30 7483 N 688.795 -1.27931 0.920396 0
M  V30 7484 C 689.705 -2.30824 0.419212 0
M  V30 7485 C 690.721 -1.66767 -0.496461 0
M  V30 7486 O 691.897 -1.97763 -0.38104 0
M  V30 7487 C 688.962 -3.45158 -0.326601 0
M  V30 7488 C 688.023 -4.24754 0.623098 0
M  V30 7489 C 687.256 -5.33629 -0.0872172 0
M  V30 7490 O 687.479 -5.55204 -1.30784 0
M  V30 7491 O 686.413 -5.99091 0.580875 0
M  V30 7492 H 690.239 -2.75716 1.27337 0
M  V30 7493 H 687.824 -1.32747 0.685465 0
M  V30 7494 H 689.706 -4.14716 -0.747559 0
M  V30 7495 H 688.381 -3.02336 -1.15648 0
M  V30 7496 H 687.288 -3.57759 1.09359 0
M  V30 7497 H 688.621 -4.71272 1.41998 0
M  V30 7498 N 690.273 -0.685099 -1.4193 0
M  V30 7499 C 691.205 0.0258679 -2.29185 0
M  V30 7500 C 692.218 0.755076 -1.44231 0
M  V30 7501 O 693.407 0.60752 -1.67844 0
M  V30 7502 C 690.507 1.06055 -3.21878 0
M  V30 7503 C 689.68 0.403088 -4.35539 0
M  V30 7504 C 688.739 1.33895 -5.0888 0
M  V30 7505 O 687.765 0.835326 -5.63037 0
M  V30 7506 N 688.967 2.6718 -5.15359 0
M  V30 7507 H 691.732 -0.723201 -2.90843 0
M  V30 7508 H 689.293 -0.53031 -1.52968 0
M  V30 7509 H 691.285 1.68813 -3.6781 0
M  V30 7510 H 689.855 1.71126 -2.616 0
M  V30 7511 H 689.075 -0.404185 -3.92122 0
M  V30 7512 H 690.363 -0.0545098 -5.08771 0
M  V30 7513 H 689.761 3.10626 -4.72788 0
M  V30 7514 H 688.318 3.25159 -5.64903 0
M  V30 7515 N 691.751 1.51645 -0.429126 0
M  V30 7516 C 692.681 2.30434 0.377148 0
M  V30 7517 C 693.662 1.35493 1.02838 0
M  V30 7518 O 694.847 1.6441 1.03359 0
M  V30 7519 C 691.977 3.14038 1.48315 0
M  V30 7520 C 690.931 4.1719 0.955855 0
M  V30 7521 C 690.257 4.89263 2.15698 0
M  V30 7522 C 691.557 5.223 -0.00402136 0
M  V30 7523 H 693.251 2.98085 -0.280336 0
M  V30 7524 H 690.797 1.43354 -0.136265 0
M  V30 7525 H 692.75 3.67933 2.05435 0
M  V30 7526 H 691.474 2.44193 2.16881 0
M  V30 7527 H 690.133 3.64335 0.406929 0
M  V30 7528 H 689.781 4.15929 2.82864 0
M  V30 7529 H 689.481 5.59009 1.81059 0
M  V30 7530 H 691.005 5.45978 2.73387 0
M  V30 7531 H 692.419 5.71315 0.476607 0
M  V30 7532 H 690.816 5.99525 -0.26258 0
M  V30 7533 H 691.886 4.75638 -0.943236 0
M  V30 7534 N 693.229 0.160201 1.56784 0
M  V30 7535 C 694.176 -0.774416 2.1742 0
M  V30 7536 C 695.146 -1.23483 1.11091 0
M  V30 7537 O 696.331 -1.30499 1.39193 0
M  V30 7538 C 693.471 -2.00283 2.81035 0
M  V30 7539 C 692.584 -1.58701 4.01793 0
M  V30 7540 C 691.719 -2.76824 4.53367 0
M  V30 7541 C 690.758 -2.31679 5.66561 0
M  V30 7542 N 689.895 -3.42856 6.12694 0
M  V30 7543 H 694.735 -0.250542 2.96945 0
M  V30 7544 H 692.272 -0.111943 1.46673 0
M  V30 7545 H 694.23 -2.72316 3.16069 0
M  V30 7546 H 692.86 -2.5006 2.04132 0
M  V30 7547 H 691.912 -0.76384 3.72652 0
M  V30 7548 H 693.224 -1.21555 4.83762 0
M  V30 7549 H 692.378 -3.57029 4.90525 0
M  V30 7550 H 691.117 -3.17223 3.70433 0
M  V30 7551 H 690.122 -1.49917 5.28966 0
M  V30 7552 H 691.347 -1.9235 6.5129 0
M  V30 7553 H 689.293 -3.82852 5.32692 0
M  V30 7554 H 689.21 -3.09767 6.89624 0
M  V30 7555 H 690.478 -4.23379 6.545 0
M  V30 7556 N 694.707 -1.5719 -0.113559 0
M  V30 7557 C 695.617 -2.04041 -1.15777 0
M  V30 7558 C 696.633 -0.961812 -1.45001 0
M  V30 7559 O 697.809 -1.2737 -1.56009 0
M  V30 7560 C 694.874 -2.43994 -2.46308 0
M  V30 7561 C 693.935 -3.65962 -2.24433 0
M  V30 7562 C 693.168 -4.04 -3.4874 0
M  V30 7563 O 693.391 -3.42321 -4.56259 0
M  V30 7564 O 692.325 -4.97069 -3.3942 0
M  V30 7565 H 696.151 -2.93248 -0.789899 0
M  V30 7566 H 693.736 -1.45828 -0.324748 0
M  V30 7567 H 695.618 -2.70401 -3.23204 0
M  V30 7568 H 694.293 -1.57932 -2.82558 0
M  V30 7569 H 693.2 -3.44697 -1.45377 0
M  V30 7570 H 694.533 -4.52746 -1.93084 0
M  V30 7571 N 696.185 0.383891 -1.52853 0
M  V30 7572 C 697.132 1.46924 -1.77995 0
M  V30 7573 C 698.102 1.53958 -0.623396 0
M  V30 7574 O 699.287 1.70134 -0.863657 0
M  V30 7575 C 696.427 2.84093 -1.95921 0
M  V30 7576 C 695.54 2.86171 -3.23621 0
M  V30 7577 C 694.675 4.14799 -3.31836 0
M  V30 7578 C 693.714 4.10948 -4.53639 0
M  V30 7579 N 692.851 5.31192 -4.59107 0
M  V30 7580 H 697.691 1.24786 -2.70615 0
M  V30 7581 H 695.228 0.605265 -1.34071 0
M  V30 7582 H 697.186 3.63755 -2.04299 0
M  V30 7583 H 695.816 3.04671 -1.06656 0
M  V30 7584 H 694.868 1.9885 -3.24288 0
M  V30 7585 H 696.18 2.79194 -4.13343 0
M  V30 7586 H 695.334 5.02867 -3.39425 0
M  V30 7587 H 694.073 4.24505 -2.40097 0
M  V30 7588 H 693.078 3.21268 -4.46169 0
M  V30 7589 H 694.303 4.0286 -5.467 0
M  V30 7590 H 692.249 5.41518 -3.70262 0
M  V30 7591 H 692.166 5.26311 -5.42708 0
M  V30 7592 H 693.434 6.21143 -4.70958 0
M  V30 7593 N 697.663 1.43903 0.642637 0
M  V30 7594 C 698.909 1.46296 1.40447 0
M  V30 7595 C 699.242 0.0908361 1.93987 0
M  V30 7596 O 698.517 -0.889884 1.72949 0
M  V30 7597 C 698.8 2.51399 2.57819 0
M  V30 7598 C 698.653 3.97926 2.09702 0
M  V30 7599 C 699.972 2.53125 3.60022 0
M  V30 7600 H 697.091 0.532676 0.509338 0
M  V30 7601 H 699.733 1.75515 0.727635 0
M  V30 7602 H 697.883 2.26614 3.1556 0
M  V30 7603 H 699.555 4.33804 1.5688 0
M  V30 7604 H 697.798 4.10252 1.40982 0
M  V30 7605 H 698.469 4.67096 2.94152 0
M  V30 7606 H 700.945 2.75242 3.12059 0
M  V30 7607 H 699.821 3.28589 4.39682 0
M  V30 7608 H 700.082 1.56895 4.13324 0
M  V30 7609 N 699.141 -0.881989 1.30609 0
M  V30 7610 C 700.369 -1.66711 1.22536 0
M  V30 7611 C 700.784 -1.87614 -0.2113 0
M  V30 7612 O 700.141 -1.42576 -1.13923 0
M  V30 7613 C 700.192 -3.04182 1.95335 0
M  V30 7614 O 699.913 -2.8422 3.33393 0
M  V30 7615 C 701.414 -3.98617 1.93956 0
M  V30 7616 H 698.634 -0.520124 0.423925 0
M  V30 7617 H 701.178 -1.10174 1.72285 0
M  V30 7618 H 699.333 -3.57442 1.49378 0
M  V30 7619 H 699.747 -3.71452 3.70302 0
M  V30 7620 H 701.221 -4.92433 2.49426 0
M  V30 7621 H 701.698 -4.29473 0.919198 0
M  V30 7622 H 702.304 -3.51292 2.39738 0
M  V30 7623 N 700.619 -1.13374 -1.09472 0
M  V30 7624 C 701.567 -0.806105 -2.18185 0
M  V30 7625 C 702.561 0.21136 -1.68076 0
M  V30 7626 O 703.767 0.0685558 -1.79869 0
M  V30 7627 H 700.142 -0.242901 -0.71169 0
M  V30 7628 H 702.113 -1.73115 -2.43051 0
M  V30 7629 C 700.862 -0.287928 -3.46506 0
M  V30 7630 H 700.185 -1.06217 -3.85432 0
M  V30 7631 H 701.625 -0.0971054 -4.23889 0
M  V30 7632 C 700.084 0.986256 -3.22141 0
M  V30 7633 O 700.614 2.06217 -3.44728 0
M  V30 7634 N 698.82 0.917153 -2.75747 0
M  V30 7635 H 698.367 0.0414609 -2.57567 0
M  V30 7636 H 698.325 1.77029 -2.59823 0
M  V30 7637 N 702.098 1.27442 -0.927168 0
M  V30 7638 C 703.323 1.99036 -0.583042 0
M  V30 7639 C 703.748 1.68711 0.83176 0
M  V30 7640 O 703.106 0.927081 1.55804 0
M  V30 7641 C 703.154 3.51271 -0.814925 0
M  V30 7642 O 702.258 4.12226 0.119742 0
M  V30 7643 H 701.599 0.624883 -0.224538 0
M  V30 7644 H 704.129 1.62263 -1.24628 0
M  V30 7645 H 704.139 4.01411 -0.730282 0
M  V30 7646 H 702.814 3.72676 -1.84623 0
M  V30 7647 H 701.391 3.72897 -0.0147688 0
M  V30 7648 N 703.576 0.692616 1.41565 0
M  V30 7649 C 704.804 0.231279 2.05603 0
M  V30 7650 C 705.219 -1.11837 1.52111 0
M  V30 7651 O 704.576 -1.6983 0.66813 0
M  V30 7652 C 704.627 0.177125 3.61066 0
M  V30 7653 O 704.348 1.47346 4.12578 0
M  V30 7654 C 705.849 -0.30556 4.42246 0
M  V30 7655 H 703.069 0.108238 0.662213 0
M  V30 7656 H 705.613 0.944369 1.81389 0
M  V30 7657 H 703.768 -0.486769 3.8433 0
M  V30 7658 H 704.182 1.35861 5.06599 0
M  V30 7659 H 705.656 -0.29233 5.51225 0
M  V30 7660 H 706.133 -1.34393 4.18133 0
M  V30 7661 H 706.739 0.327229 4.24039 0
M  V30 7662 N 705.054 -1.51416 0.437162 0
M  V30 7663 C 705.964 -2.31493 -0.380537 0
M  V30 7664 C 706.98 -1.40399 -1.02782 0
M  V30 7665 O 708.156 -1.73471 -1.02323 0
M  V30 7666 C 705.221 -3.1413 -1.46709 0
M  V30 7667 C 704.282 -4.21003 -0.839953 0
M  V30 7668 C 703.515 -4.9969 -1.87473 0
M  V30 7669 O 703.738 -4.79008 -3.09689 0
M  V30 7670 O 702.672 -5.8379 -1.46536 0
M  V30 7671 H 706.498 -3.02469 0.273183 0
M  V30 7672 H 704.083 -1.48059 0.199706 0
M  V30 7673 H 705.965 -3.65505 -2.09724 0
M  V30 7674 H 704.64 -2.45919 -2.10489 0
M  V30 7675 H 703.547 -3.73706 -0.171752 0
M  V30 7676 H 704.88 -4.91587 -0.245638 0
M  V30 7677 N 706.532 -0.168513 -1.56696 0
M  V30 7678 C 707.462 0.758563 -2.20835 0
M  V30 7679 C 708.443 1.24121 -1.1631 0
M  V30 7680 O 709.628 1.29487 -1.4473 0
M  V30 7681 C 706.758 1.9892 -2.8469 0
M  V30 7682 C 705.712 1.64252 -3.95228 0
M  V30 7683 C 705.038 2.94757 -4.46119 0
M  V30 7684 C 706.338 0.872675 -5.14958 0
M  V30 7685 H 708.032 0.223953 -2.98561 0
M  V30 7686 H 705.578 0.106277 -1.43607 0
M  V30 7687 H 707.531 2.64275 -3.28233 0
M  V30 7688 H 706.255 2.5479 -2.04327 0
M  V30 7689 H 704.914 1.01266 -3.52336 0
M  V30 7690 H 704.562 3.48662 -3.62552 0
M  V30 7691 H 704.262 2.72316 -5.2069 0
M  V30 7692 H 705.786 3.61147 -4.92347 0
M  V30 7693 H 707.2 1.42875 -5.55211 0
M  V30 7694 H 705.597 0.747402 -5.95428 0
M  V30 7695 H 706.667 -0.131535 -4.84722 0
M  V30 7696 N 708.01 1.57248 0.105221 0
M  V30 7697 C 708.942 1.98008 1.15436 0
M  V30 7698 C 709.955 0.881236 1.36887 0
M  V30 7699 O 711.144 1.15943 1.35718 0
M  V30 7700 C 708.244 2.27509 2.51183 0
M  V30 7701 C 707.417 3.58811 2.50147 0
M  V30 7702 C 706.476 3.76365 3.67745 0
M  V30 7703 O 705.502 4.48329 3.50699 0
M  V30 7704 N 706.704 3.16174 4.86841 0
M  V30 7705 H 709.469 2.88616 0.807519 0
M  V30 7706 H 707.03 1.59202 0.29433 0
M  V30 7707 H 709.022 2.36455 3.28438 0
M  V30 7708 H 707.592 1.42959 2.77995 0
M  V30 7709 H 706.812 3.60927 1.5851 0
M  V30 7710 H 708.1 4.45088 2.46524 0
M  V30 7711 H 707.498 2.57701 5.03594 0
M  V30 7712 H 706.055 3.30621 5.61723 0
M  V30 7713 N 709.488 -0.375779 1.53054 0
M  V30 7714 C 710.438 -1.45965 1.75152 0
M  V30 7715 C 711.422 -1.49059 0.605823 0
M  V30 7716 O 712.614 -1.54472 0.864133 0
M  V30 7717 C 709.743 -2.83524 1.93569 0
M  V30 7718 C 708.829 -2.84949 3.1411 0
M  V30 7719 N 709.22 -2.56029 4.36214 0
M  V30 7720 C 707.518 -3.16113 3.14625 0
M  V30 7721 C 708.219 -2.64873 5.17897 0
M  V30 7722 N 707.195 -2.99159 4.53878 0
M  V30 7723 H 710.997 -1.22454 2.67175 0
M  V30 7724 H 708.511 -0.583867 1.51541 0
M  V30 7725 H 710.508 -3.61578 2.07525 0
M  V30 7726 H 709.168 -3.08008 1.02768 0
M  V30 7727 H 710.179 -2.29808 4.64121 0
M  V30 7728 H 706.856 -3.45977 2.3368 0
M  V30 7729 H 708.246 -2.45947 6.25268 0
M  V30 7730 N 710.966 -1.44241 -0.634997 0
M  V30 7731 C 711.898 -1.46793 -1.76024 0
M  V30 7732 C 712.911 -0.361781 -1.58729 0
M  V30 7733 O 714.1 -0.627297 -1.67114 0
M  V30 7734 C 711.2 -1.28248 -3.13697 0
M  V30 7735 C 710.373 -2.52038 -3.57485 0
M  V30 7736 C 709.432 -2.2845 -4.74022 0
M  V30 7737 O 708.458 -3.01915 -4.82531 0
M  V30 7738 N 709.66 -1.31264 -5.65464 0
M  V30 7739 H 712.425 -2.43797 -1.74307 0
M  V30 7740 H 709.986 -1.39631 -0.819438 0
M  V30 7741 H 711.978 -1.10321 -3.89373 0
M  V30 7742 H 710.548 -0.39623 -3.10079 0
M  V30 7743 H 709.768 -2.85268 -2.72059 0
M  V30 7744 H 711.056 -3.34382 -3.83492 0
M  V30 7745 H 710.454 -0.705817 -5.6128 0
M  V30 7746 H 709.011 -1.19316 -6.40786 0
M  V30 7747 N 712.444 0.87505 -1.31075 0
M  V30 7748 C 713.374 1.99775 -1.20881 0
M  V30 7749 C 714.355 1.69822 -0.0971612 0
M  V30 7750 O 715.54 1.92158 -0.280895 0
M  V30 7751 C 712.67 3.35163 -0.910118 0
M  V30 7752 C 711.624 3.79406 -1.98078 0
M  V30 7753 C 710.95 5.12197 -1.53488 0
M  V30 7754 C 712.25 3.97061 -3.39323 0
M  V30 7755 H 713.944 2.08562 -2.14808 0
M  V30 7756 H 711.49 1.00207 -1.03415 0
M  V30 7757 H 713.443 4.13237 -0.825423 0
M  V30 7758 H 712.167 3.26536 0.064822 0
M  V30 7759 H 710.826 3.03568 -2.05528 0
M  V30 7760 H 710.474 5.00007 -0.547941 0
M  V30 7761 H 710.174 5.4277 -2.2511 0
M  V30 7762 H 711.698 5.92785 -1.46417 0
M  V30 7763 H 713.112 4.65545 -3.34576 0
M  V30 7764 H 711.509 4.39025 -4.09118 0
M  V30 7765 H 712.579 3.00601 -3.80483 0
M  V30 7766 N 713.922 1.13953 1.08869 0
M  V30 7767 C 715.199 0.815768 1.77777 0
M  V30 7768 C 715.579 -0.691624 1.99449 0
M  V30 7769 O 714.927 -1.63085 1.60049 0
M  V30 7770 C 715.137 1.60916 3.09689 0
M  V30 7771 C 716.485 1.80549 3.84301 0
M  V30 7772 O 717.509 1.57562 3.19457 0
M  V30 7773 O 716.368 2.18946 5.00724 0
M  V30 7774 H 713.462 0.298445 0.771271 0
M  V30 7775 H 716.008 1.24446 1.15374 0
M  V30 7776 H 714.78 2.6333 2.89435 0
M  V30 7777 H 714.403 1.17578 3.79817 0
M  V30 7778 N 715.4 -1.26948 0.933913 0
M  V30 7779 C 716.347 -2.26635 0.436484 0
M  V30 7780 C 717.317 -1.58397 -0.499953 0
M  V30 7781 O 718.502 -1.86171 -0.417753 0
M  V30 7782 C 715.642 -3.43803 -0.298951 0
M  V30 7783 C 714.755 -4.26736 0.672316 0
M  V30 7784 C 713.89 -5.31134 -0.0835872 0
M  V30 7785 C 712.929 -6.05742 0.879979 0
M  V30 7786 N 712.066 -7.01926 0.156301 0
M  V30 7787 H 716.906 -2.68558 1.29154 0
M  V30 7788 H 714.443 -1.32052 0.648118 0
M  V30 7789 H 716.401 -4.10554 -0.741723 0
M  V30 7790 H 715.031 -3.02814 -1.1182 0
M  V30 7791 H 714.083 -3.59842 1.23361 0
M  V30 7792 H 715.395 -4.78502 1.40846 0
M  V30 7793 H 714.549 -6.03863 -0.585984 0
M  V30 7794 H 713.288 -4.80188 -0.852661 0
M  V30 7795 H 712.293 -5.31846 1.39357 0
M  V30 7796 H 713.518 -6.58777 1.64894 0
M  V30 7797 H 711.464 -6.53301 -0.594413 0
M  V30 7798 H 711.381 -7.51409 0.831906 0
M  V30 7799 H 712.649 -7.78821 -0.325239 0
M  V30 7800 N 716.879 -0.700114 -1.41195 0
M  V30 7801 C 718.107 -0.242179 -2.05478 0
M  V30 7802 C 718.522 1.11029 -1.52702 0
M  V30 7803 O 717.879 1.69473 -0.677127 0
M  V30 7804 C 717.93 -0.196271 -3.60967 0
M  V30 7805 O 717.651 -1.49532 -4.11791 0
M  V30 7806 C 719.152 0.282102 -4.42401 0
M  V30 7807 H 716.372 -0.111749 -0.661629 0
M  V30 7808 H 718.916 -0.953975 -1.80885 0
M  V30 7809 H 717.071 0.46638 -3.84582 0
M  V30 7810 H 717.485 -1.38545 -5.05871 0
M  V30 7811 H 718.959 0.263093 -5.51373 0
M  V30 7812 H 719.436 1.32174 -4.1884 0
M  V30 7813 H 720.042 -0.349712 -4.2386 0
M  V30 7814 N 718.357 1.51182 -0.445186 0
M  V30 7815 C 719.304 2.27939 0.362291 0
M  V30 7816 C 720.274 1.31864 1.01 0
M  V30 7817 O 721.459 1.60776 1.02741 0
M  V30 7818 C 718.599 3.13016 1.45311 0
M  V30 7819 C 717.712 4.24093 0.822757 0
M  V30 7820 C 716.847 4.96467 1.88928 0
M  V30 7821 C 715.886 5.99454 1.23778 0
M  V30 7822 N 715.023 6.65206 2.24602 0
M  V30 7823 H 719.863 2.965 -0.29862 0
M  V30 7824 H 717.4 1.46237 -0.15911 0
M  V30 7825 H 719.358 3.60673 2.09692 0
M  V30 7826 H 717.988 2.46553 2.08354 0
M  V30 7827 H 717.04 3.80341 0.0670364 0
M  V30 7828 H 718.352 4.97853 0.307184 0
M  V30 7829 H 717.506 5.47712 2.60953 0
M  V30 7830 H 716.245 4.22355 2.4386 0
M  V30 7831 H 715.25 5.47494 0.503042 0
M  V30 7832 H 716.475 6.75527 0.695694 0
M  V30 7833 H 714.421 5.93901 2.78599 0
M  V30 7834 H 714.338 7.34756 1.77958 0
M  V30 7835 H 715.606 7.21078 2.96085 0
M  V30 7836 N 719.835 0.176821 1.56605 0
M  V30 7837 C 720.767 -0.782836 2.15417 0
M  V30 7838 C 721.78 -1.18982 1.11117 0
M  V30 7839 O 722.969 -1.12872 1.38283 0
M  V30 7840 C 720.069 -2.06596 2.68647 0
M  V30 7841 C 719.242 -1.82167 3.9766 0
M  V30 7842 C 718.301 -2.94751 4.35899 0
M  V30 7843 O 717.327 -2.65148 5.03672 0
M  V30 7844 N 718.529 -4.2267 3.97907 0
M  V30 7845 H 721.294 -0.280012 2.98389 0
M  V30 7846 H 718.855 -0.00577529 1.61899 0
M  V30 7847 H 720.847 -2.81018 2.91223 0
M  V30 7848 H 719.417 -2.48054 1.90232 0
M  V30 7849 H 718.637 -0.916208 3.83405 0
M  V30 7850 H 719.925 -1.6322 4.81909 0
M  V30 7851 H 719.323 -4.4958 3.43357 0
M  V30 7852 H 717.88 -4.93778 4.25472 0
M  V30 7853 N 721.313 -1.57302 -0.09688 0
M  V30 7854 C 722.245 -1.98618 -1.14384 0
M  V30 7855 C 723.258 -0.888483 -1.36418 0
M  V30 7856 O 724.447 -1.16661 -1.35101 0
M  V30 7857 C 721.547 -2.28838 -2.49973 0
M  V30 7858 C 720.72 -3.60132 -2.48241 0
M  V30 7859 C 719.779 -3.7831 -3.65743 0
M  V30 7860 O 718.805 -4.50183 -3.48316 0
M  V30 7861 N 720.007 -3.18752 -4.85157 0
M  V30 7862 H 722.772 -2.8904 -0.792202 0
M  V30 7863 H 720.333 -1.59356 -0.285883 0
M  V30 7864 H 722.325 -2.38193 -3.27179 0
M  V30 7865 H 720.895 -1.44431 -2.77233 0
M  V30 7866 H 720.115 -3.61763 -1.56593 0
M  V30 7867 H 721.403 -4.46389 -2.4416 0
M  V30 7868 H 720.801 -2.60368 -5.0222 0
M  V30 7869 H 719.358 -3.33595 -5.59962 0
M  V30 7870 N 722.791 0.367657 -1.53252 0
M  V30 7871 C 723.741 1.45035 -1.75923 0
M  V30 7872 C 724.725 1.48736 -0.613719 0
M  V30 7873 O 725.917 1.54012 -0.872313 0
M  V30 7874 C 723.046 2.82493 -1.9507 0
M  V30 7875 C 722.132 2.83279 -3.15617 0
M  V30 7876 N 722.523 2.53712 -4.37566 0
M  V30 7877 C 720.821 3.1444 -3.16297 0
M  V30 7878 C 721.522 2.62123 -5.19294 0
M  V30 7879 N 720.498 2.96747 -4.55458 0
M  V30 7880 H 724.3 1.21035 -2.6782 0
M  V30 7881 H 721.814 0.575822 -1.51849 0
M  V30 7882 H 723.811 3.60473 -2.0944 0
M  V30 7883 H 722.471 3.07459 -1.044 0
M  V30 7884 H 723.482 2.27344 -4.65333 0
M  V30 7885 H 720.159 3.44733 -2.35511 0
M  V30 7886 H 721.549 2.42628 -6.26563 0
M  V30 7887 N 724.269 1.44576 0.627338 0
M  V30 7888 C 725.201 1.47724 1.75243 0
M  V30 7889 C 726.214 0.370193 1.58535 0
M  V30 7890 O 727.403 0.636151 1.66779 0
M  V30 7891 C 724.503 1.2991 3.13012 0
M  V30 7892 C 723.676 2.5393 3.56143 0
M  V30 7893 C 722.735 2.30961 4.72804 0
M  V30 7894 O 721.761 3.04469 4.80923 0
M  V30 7895 N 722.963 1.34261 5.6476 0
M  V30 7896 H 725.728 2.44718 1.73012 0
M  V30 7897 H 723.289 1.40064 0.812022 0
M  V30 7898 H 725.281 1.12385 3.88782 0
M  V30 7899 H 723.851 0.412668 3.09864 0
M  V30 7900 H 723.071 2.86707 2.70542 0
M  V30 7901 H 724.359 3.36411 3.81713 0
M  V30 7902 H 723.757 0.735573 5.60897 0
M  V30 7903 H 722.314 1.22713 6.40144 0
M  V30 7904 N 725.747 -0.868086 1.31537 0
M  V30 7905 C 726.657 -2.00801 1.21311 0
M  V30 7906 C 727.673 -1.73518 0.129431 0
M  V30 7907 O 728.849 -1.98378 0.347588 0
M  V30 7908 C 725.914 -3.3419 0.922935 0
M  V30 7909 C 724.975 -3.74783 2.0937 0
M  V30 7910 C 724.208 -5.01807 1.81728 0
M  V30 7911 O 724.431 -5.65404 0.753313 0
M  V30 7912 O 723.365 -5.39213 2.67457 0
M  V30 7913 H 727.191 -2.12361 2.17109 0
M  V30 7914 H 724.776 -0.996684 1.11295 0
M  V30 7915 H 726.658 -4.14174 0.777033 0
M  V30 7916 H 725.333 -3.237 -0.00500301 0
M  V30 7917 H 724.24 -2.95432 2.29501 0
M  V30 7918 H 725.573 -3.89902 3.00396 0
M  V30 7919 N 727.225 -1.14528 -1.08264 0
M  V30 7920 C 728.157 -0.791325 -2.15106 0
M  V30 7921 C 729.17 0.192449 -1.61659 0
M  V30 7922 O 730.359 -0.0294704 -1.78476 0
M  V30 7923 C 727.459 -0.154183 -3.38549 0
M  V30 7924 C 726.632 -1.17305 -4.21377 0
M  V30 7925 C 725.691 -0.559401 -5.23218 0
M  V30 7926 O 724.717 -1.22277 -5.55911 0
M  V30 7927 N 725.919 0.663159 -5.767 0
M  V30 7928 H 728.684 -1.71076 -2.46075 0
M  V30 7929 H 726.245 -1.0399 -1.24087 0
M  V30 7930 H 728.237 0.268884 -4.03806 0
M  V30 7931 H 726.807 0.668418 -3.0537 0
M  V30 7932 H 726.027 -1.773 -3.52077 0
M  V30 7933 H 727.315 -1.86128 -4.73533 0
M  V30 7934 H 726.713 1.22066 -5.52373 0
M  V30 7935 H 725.27 1.02871 -6.43631 0
M  V30 7936 N 728.703 1.26451 -0.940633 0
M  V30 7937 C 729.635 2.25556 -0.407104 0
M  V30 7938 C 730.648 1.55888 0.469324 0
M  V30 7939 O 731.837 1.76292 0.279858 0
M  V30 7940 C 728.937 3.36109 0.434064 0
M  V30 7941 C 728.11 4.3532 -0.426082 0
M  V30 7942 C 727.169 5.25004 0.354563 0
M  V30 7943 O 726.195 5.68684 -0.242219 0
M  V30 7944 N 727.397 5.5652 1.65123 0
M  V30 7945 H 730.162 2.7197 -1.25907 0
M  V30 7946 H 727.723 1.40212 -0.809456 0
M  V30 7947 H 729.715 3.93059 0.963684 0
M  V30 7948 H 728.285 2.89194 1.18683 0
M  V30 7949 H 727.505 3.77449 -1.13692 0
M  V30 7950 H 728.793 4.986 -1.01366 0
M  V30 7951 H 728.191 5.22912 2.15822 0
M  V30 7952 H 726.748 6.16115 2.12711 0
M  V30 7953 N 730.181 0.707592 1.40822 0
M  V30 7954 C 731.144 0.0587224 2.29125 0
M  V30 7955 C 732.144 -0.695624 1.44975 0
M  V30 7956 O 733.334 -0.528718 1.65983 0
M  V30 7957 C 730.466 -0.926939 3.28056 0
M  V30 7958 H 731.659 0.836349 2.88002 0
M  V30 7959 H 729.212 0.471778 1.4901 0
M  V30 7960 H 729.947 -1.7319 2.74182 0
M  V30 7961 H 729.732 -0.389015 3.90165 0
M  V30 7962 H 731.222 -1.37837 3.94196 0
M  V30 7963 N 731.66 -1.50943 0.453197 0
M  V30 7964 C 732.59 -2.31005 -0.34044 0
M  V30 7965 C 733.571 -1.37112 -1.00669 0
M  V30 7966 O 734.756 -1.66033 -1.0073 0
M  V30 7967 C 731.886 -3.16358 -1.433 0
M  V30 7968 C 730.84 -4.18658 -0.889363 0
M  V30 7969 C 730.166 -4.92633 -2.07887 0
M  V30 7970 C 731.466 -5.22227 0.0871142 0
M  V30 7971 H 733.16 -2.97601 0.327723 0
M  V30 7972 H 730.706 -1.43119 0.159054 0
M  V30 7973 H 732.659 -3.71155 -1.99555 0
M  V30 7974 H 731.383 -2.47613 -2.12968 0
M  V30 7975 H 730.042 -3.64936 -0.348915 0
M  V30 7976 H 729.69 -4.20376 -2.76211 0
M  V30 7977 H 729.39 -5.61819 -1.72143 0
M  V30 7978 H 730.914 -5.50258 -2.64666 0
M  V30 7979 H 732.328 -5.72001 -0.385656 0
M  V30 7980 H 730.725 -5.99032 0.357926 0
M  V30 7981 H 731.795 -4.74077 1.01879 0
M  V30 7982 N 733.138 -0.185124 -1.56509 0
M  V30 7983 C 734.07 0.771401 -2.15829 0
M  V30 7984 C 735.083 1.18392 -1.11747 0
M  V30 7985 O 736.272 1.12137 -1.38879 0
M  V30 7986 C 733.372 2.05169 -2.69739 0
M  V30 7987 C 732.545 1.80056 -3.98621 0
M  V30 7988 C 731.604 2.92435 -4.37456 0
M  V30 7989 O 730.63 2.62473 -5.05071 0
M  V30 7990 N 731.832 4.20554 -4.00143 0
M  V30 7991 H 734.597 0.264184 -2.98533 0
M  V30 7992 H 732.158 -0.00281069 -1.619 0
M  V30 7993 H 734.15 2.7947 -2.92709 0
M  V30 7994 H 732.72 2.47041 -1.91545 0
M  V30 7995 H 731.94 0.895862 -3.83885 0
M  V30 7996 H 733.228 1.60662 -4.82768 0
M  V30 7997 H 732.626 4.47753 -3.45736 0
M  V30 7998 H 731.183 4.91514 -4.28085 0
M  V30 7999 N 734.616 1.57351 0.0885366 0
M  V30 8000 C 735.548 1.99221 1.13329 0
M  V30 8001 C 736.561 0.895705 1.35945 0
M  V30 8002 O 737.75 1.17376 1.34481 0
M  V30 8003 C 734.85 2.3016 2.48756 0
M  V30 8004 C 734.023 3.61444 2.46327 0
M  V30 8005 C 733.082 3.80244 3.63732 0
M  V30 8006 O 732.108 4.52024 3.45924 0
M  V30 8007 N 733.31 3.2132 4.8346 0
M  V30 8008 H 736.075 2.89456 0.776862 0
M  V30 8009 H 733.636 1.59505 0.277428 0
M  V30 8010 H 735.628 2.39925 3.25911 0
M  V30 8011 H 734.198 1.459 2.76464 0
M  V30 8012 H 733.418 3.62588 1.54673 0
M  V30 8013 H 734.706 4.47678 2.41789 0
M  V30 8014 H 734.104 2.63028 5.00832 0
M  V30 8015 H 732.661 3.3656 5.58185 0
M  V30 8016 N 736.094 -0.359525 1.53444 0
M  V30 8017 C 737.319 -1.12644 1.74144 0
M  V30 8018 C 737.744 -1.82082 0.472007 0
M  V30 8019 O 737.102 -1.71962 -0.57436 0
M  V30 8020 C 737.15 -2.12781 2.9113 0
M  V30 8021 O 736.254 -3.19984 2.60162 0
M  V30 8022 H 735.595 -0.326553 0.578152 0
M  V30 8023 H 738.125 -0.414798 2.00351 0
M  V30 8024 H 738.135 -2.56278 3.17467 0
M  V30 8025 H 736.81 -1.61634 3.83207 0
M  V30 8026 H 735.387 -2.81417 2.44661 0
M  V30 8027 N 737.572 -1.44907 -0.619662 0
M  V30 8028 C 738.8 -1.51795 -1.40591 0
M  V30 8029 C 739.215 -0.146553 -1.8823 0
M  V30 8030 O 738.572 0.849698 -1.61513 0
M  V30 8031 C 738.623 -2.49229 -2.61853 0
M  V30 8032 O 738.344 -3.81039 -2.16197 0
M  V30 8033 C 739.845 -2.65696 -3.54853 0
M  V30 8034 H 737.065 -0.514463 -0.430777 0
M  V30 8035 H 739.609 -1.8998 -0.756813 0
M  V30 8036 H 737.764 -2.14149 -3.2283 0
M  V30 8037 H 738.178 -4.33747 -2.94896 0
M  V30 8038 H 739.652 -3.37874 -4.36515 0
M  V30 8039 H 740.129 -1.71316 -4.0441 0
M  V30 8040 H 740.735 -3.01724 -2.99737 0
M  V30 8041 N 739.05 0.861098 -1.31996 0
M  V30 8042 C 740.278 1.6474 -1.25173 0
M  V30 8043 C 740.693 1.87926 0.181425 0
M  V30 8044 O 740.05 1.4437 1.1164 0
M  V30 8045 C 740.101 3.01036 -2.0015 0
M  V30 8046 O 739.822 2.7888 -3.37872 0
M  V30 8047 C 741.323 3.95481 -2.00273 0
M  V30 8048 H 738.543 0.513314 -0.432146 0
M  V30 8049 H 741.087 1.07419 -1.74016 0
M  V30 8050 H 739.242 3.55021 -1.55046 0
M  V30 8051 H 739.656 3.65514 -3.76165 0
M  V30 8052 H 741.13 4.88403 -2.57229 0
M  V30 8053 H 741.607 4.27957 -0.987407 0
M  V30 8054 H 742.213 3.47433 -2.45296 0
M  V30 8055 N 740.528 1.15101 1.07655 0
M  V30 8056 C 741.491 0.847625 2.12951 0
M  V30 8057 C 742.491 -0.151227 1.60087 0
M  V30 8058 O 743.681 0.0780399 1.74025 0
M  V30 8059 C 740.813 0.265 3.39868 0
M  V30 8060 H 742.006 1.7809 2.41296 0
M  V30 8061 H 739.559 0.958072 1.23494 0
M  V30 8062 H 740.294 -0.676625 3.17163 0
M  V30 8063 H 740.079 0.984554 3.79538 0
M  V30 8064 H 741.569 0.0702121 4.17541 0
M  V30 8065 N 742.006 -1.2595 0.947325 0
M  V30 8066 C 742.953 -2.26159 0.460497 0
M  V30 8067 C 743.923 -1.58919 -0.483125 0
M  V30 8068 O 745.108 -1.86603 -0.397983 0
M  V30 8069 C 742.248 -3.441 -0.26247 0
M  V30 8070 C 741.361 -4.25999 0.717539 0
M  V30 8071 C 740.496 -5.31193 -0.0272486 0
M  V30 8072 C 739.535 -6.04774 0.944177 0
M  V30 8073 N 738.672 -7.01721 0.230741 0
M  V30 8074 H 743.512 -2.67173 1.31995 0
M  V30 8075 H 741.049 -1.31358 0.662088 0
M  V30 8076 H 743.007 -4.11317 -0.698137 0
M  V30 8077 H 741.637 -3.03983 -1.08602 0
M  V30 8078 H 740.689 -3.58513 1.27171 0
M  V30 8079 H 742.001 -4.76981 1.45913 0
M  V30 8080 H 741.155 -6.04451 -0.521903 0
M  V30 8081 H 739.894 -4.81066 -0.801682 0
M  V30 8082 H 738.899 -5.30338 1.4499 0
M  V30 8083 H 740.124 -6.56991 1.71872 0
M  V30 8084 H 738.07 -6.53895 -0.525088 0
M  V30 8085 H 737.987 -7.50484 0.911556 0
M  V30 8086 H 739.255 -7.79122 -0.242616 0
M  V30 8087 N 743.484 -0.715051 -1.40445 0
M  V30 8088 C 744.414 -0.0768699 -2.33373 0
M  V30 8089 C 745.395 0.746109 -1.52863 0
M  V30 8090 O 746.58 0.695142 -1.81332 0
M  V30 8091 C 743.71 0.846014 -3.36838 0
M  V30 8092 C 742.664 0.128694 -4.27806 0
M  V30 8093 C 741.99 1.16726 -5.21804 0
M  V30 8094 C 743.29 -1.01679 -5.12307 0
M  V30 8095 H 744.984 -0.853061 -2.8699 0
M  V30 8096 H 742.53 -0.41167 -1.3799 0
M  V30 8097 H 744.483 1.30185 -4.00786 0
M  V30 8098 H 743.207 1.6541 -2.81615 0
M  V30 8099 H 741.866 -0.307314 -3.6531 0
M  V30 8100 H 741.514 1.96838 -4.62887 0
M  V30 8101 H 741.214 0.692188 -5.83509 0
M  V30 8102 H 742.738 1.62321 -5.88629 0
M  V30 8103 H 744.152 -0.640337 -5.69713 0
M  V30 8104 H 742.549 -1.4202 -5.83053 0
M  V30 8105 H 743.619 -1.84769 -4.48317 0
M  V30 8106 N 744.962 1.50701 -0.461195 0
M  V30 8107 C 746.378 1.59187 -0.114786 0
M  V30 8108 C 746.578 1.4702 1.37794 0
M  V30 8109 O 745.634 1.32361 2.15027 0
M  V30 8110 C 746.947 2.93453 -0.656167 0
M  V30 8111 C 748.495 3.06824 -0.618715 0
M  V30 8112 C 748.97 4.4365 -1.13747 0
M  V30 8113 N 750.461 4.50035 -1.09646 0
M  V30 8114 C 751.196 5.54278 -1.46846 0
M  V30 8115 N 750.692 6.65822 -1.91448 0
M  V30 8116 N 752.485 5.44767 -1.38512 0
M  V30 8117 H 744.636 1.56853 -1.43216 0
M  V30 8118 H 746.899 0.740712 -0.59165 0
M  V30 8119 H 746.605 3.07802 -1.7015 0
M  V30 8120 H 746.479 3.77082 -0.0942261 0
M  V30 8121 H 748.866 2.92129 0.417685 0
M  V30 8122 H 748.947 2.24976 -1.21734 0
M  V30 8123 H 748.591 4.59093 -2.17245 0
M  V30 8124 H 748.521 5.24074 -0.515153 0
M  V30 8125 H 751.012 3.69988 -0.769217 0
M  V30 8126 H 751.325 7.41413 -2.18007 0
M  V30 8127 H 749.67 6.66968 -1.95393 0
M  V30 8128 H 752.861 4.56511 -1.03516 0
M  V30 8129 H 753.034 6.25889 -1.6783 0
M  V30 8130 N 746.441 0.193421 1.56409 0
M  V30 8131 C 747.351 -0.740112 2.2262 0
M  V30 8132 C 748.367 -1.23597 1.22474 0
M  V30 8133 O 749.543 -1.28348 1.55206 0
M  V30 8134 C 746.608 -1.94317 2.87127 0
M  V30 8135 C 745.669 -1.49205 4.02538 0
M  V30 8136 C 744.902 -2.63776 4.63959 0
M  V30 8137 O 745.125 -3.81215 4.24301 0
M  V30 8138 O 744.059 -2.36585 5.53454 0
M  V30 8139 H 747.885 -0.206238 3.02999 0
M  V30 8140 H 745.47 -0.0357938 1.49357 0
M  V30 8141 H 747.352 -2.64633 3.27944 0
M  V30 8142 H 746.027 -2.46568 2.09728 0
M  V30 8143 H 744.934 -0.757738 3.66346 0
M  V30 8144 H 746.267 -1.01622 4.81595 0
M  V30 8145 N 747.919 -1.57396 -0.0801906 0
M  V30 8146 C 748.882 -2.02133 -1.0805 0
M  V30 8147 C 749.882 -0.91707 -1.32085 0
M  V30 8148 O 751.072 -1.18217 -1.27947 0
M  V30 8149 C 748.204 -2.39479 -2.42616 0
M  V30 8150 H 749.397 -2.91733 -0.6951 0
M  V30 8151 H 746.95 -1.52869 -0.325677 0
M  V30 8152 H 747.685 -1.52879 -2.86004 0
M  V30 8153 H 747.47 -3.20052 -2.26515 0
M  V30 8154 H 748.96 -2.74697 -3.14534 0
M  V30 8155 N 749.397 0.351382 -1.53633 0
M  V30 8156 C 750.329 1.45159 -1.77374 0
M  V30 8157 C 751.342 1.4905 -0.654826 0
M  V30 8158 O 752.531 1.52274 -0.931396 0
M  V30 8159 C 749.631 2.83858 -1.85143 0
M  V30 8160 C 748.804 3.03498 -3.14972 0
M  V30 8161 C 747.863 4.22393 -3.138 0
M  V30 8162 O 746.889 4.16885 -3.87551 0
M  V30 8163 N 748.091 5.30533 -2.35617 0
M  V30 8164 H 750.856 1.25167 -2.72311 0
M  V30 8165 H 748.417 0.54121 -1.52586 0
M  V30 8166 H 750.409 3.61557 -1.8182 0
M  V30 8167 H 748.979 2.9703 -0.974275 0
M  V30 8168 H 748.199 2.13336 -3.31484 0
M  V30 8169 H 749.487 3.13498 -4.00745 0
M  V30 8170 H 748.885 5.37875 -1.75235 0
M  V30 8171 H 747.442 6.06756 -2.38098 0
M  V30 8172 N 750.875 1.45233 0.611969 0
M  V30 8173 C 751.823 1.53898 1.74408 0
M  V30 8174 C 752.817 0.409254 1.64382 0
M  V30 8175 O 754.023 0.584988 1.70229 0
M  V30 8176 H 750.398 0.483303 0.576127 0
M  V30 8177 H 752.369 2.49143 1.64227 0
M  V30 8178 C 751.118 1.51865 3.12782 0
M  V30 8179 H 750.441 2.38118 3.21154 0
M  V30 8180 H 751.881 1.61986 3.91838 0
M  V30 8181 C 750.34 0.242374 3.36027 0
M  V30 8182 O 750.87 -0.679587 3.9591 0
M  V30 8183 N 749.076 0.139448 2.90265 0
M  V30 8184 H 748.623 0.890571 2.41716 0
M  V30 8185 H 748.581 -0.713686 3.06193 0
M  V30 8186 N 752.353 -0.854086 1.3245 0
M  V30 8187 C 753.63 -1.59188 1.1366 0
M  V30 8188 C 754.01 -2.08917 -0.302807 0
M  V30 8189 O 753.358 -1.8795 -1.29951 0
M  V30 8190 C 753.568 -2.73757 2.16467 0
M  V30 8191 C 754.916 -3.43323 2.49829 0
M  V30 8192 O 755.94 -2.83983 2.15017 0
M  V30 8193 O 754.799 -4.50409 3.09506 0
M  V30 8194 H 751.893 -0.701092 0.438633 0
M  V30 8195 H 754.439 -0.898165 1.43983 0
M  V30 8196 H 753.211 -2.3454 3.1322 0
M  V30 8197 H 752.834 -3.50804 1.87142 0
M  V30 8198 N 753.831 -1.1567 -1.07043 0
M  V30 8199 C 754.761 -0.879348 -2.16309 0
M  V30 8200 C 755.742 0.171311 -1.69235 0
M  V30 8201 O 756.927 0.0250175 -1.94184 0
M  V30 8202 C 754.057 -0.371307 -3.45309 0
M  V30 8203 C 753.011 -1.359 -4.05851 0
M  V30 8204 C 752.337 -0.709678 -5.29969 0
M  V30 8205 C 753.637 -2.72606 -4.45514 0
M  V30 8206 H 755.331 -1.79308 -2.39768 0
M  V30 8207 H 752.877 -0.863558 -1.15233 0
M  V30 8208 H 754.83 -0.164798 -4.21078 0
M  V30 8209 H 753.554 0.577906 -3.21446 0
M  V30 8210 H 752.213 -1.55193 -3.32131 0
M  V30 8211 H 751.861 0.245782 -5.02399 0
M  V30 8212 H 751.561 -1.36886 -5.71433 0
M  V30 8213 H 753.085 -0.513015 -6.08441 0
M  V30 8214 H 754.499 -2.57141 -5.12398 0
M  V30 8215 H 752.896 -3.34927 -4.97939 0
M  V30 8216 H 753.966 -3.28434 -3.56734 0
M  V30 8217 N 755.309 1.25446 -0.953992 0
M  V30 8218 C 756.219 2.29632 -0.480264 0
M  V30 8219 C 757.235 1.68025 0.452071 0
M  V30 8220 O 758.411 1.98703 0.328472 0
M  V30 8221 C 755.476 3.45903 0.234974 0
M  V30 8222 C 754.537 4.22953 -0.735495 0
M  V30 8223 C 753.77 5.33672 -0.0542957 0
M  V30 8224 O 753.993 5.58477 1.16018 0
M  V30 8225 O 752.927 5.9734 -0.739509 0
M  V30 8226 H 756.753 2.72242 -1.34602 0
M  V30 8227 H 754.338 1.30883 -0.720419 0
M  V30 8228 H 756.22 4.16552 0.637341 0
M  V30 8229 H 754.895 3.05296 1.07592 0
M  V30 8230 H 753.802 3.54734 -1.18806 0
M  V30 8231 H 755.135 4.67341 -1.54444 0
M  V30 8232 N 756.787 0.722489 1.40064 0
M  V30 8233 C 757.719 0.0349057 2.29173 0
M  V30 8234 C 758.732 -0.716571 1.46182 0
M  V30 8235 O 759.921 -0.562806 1.69395 0
M  V30 8236 C 757.021 -0.974839 3.24577 0
M  V30 8237 C 756.194 -0.287471 4.36454 0
M  V30 8238 C 755.253 -1.20356 5.12251 0
M  V30 8239 O 754.279 -0.685753 5.65054 0
M  V30 8240 N 755.481 -2.53422 5.22262 0
M  V30 8241 H 758.246 0.800058 2.88824 0
M  V30 8242 H 755.807 0.57068 1.51509 0
M  V30 8243 H 757.799 -1.59002 3.72157 0
M  V30 8244 H 756.369 -1.6413 2.66046 0
M  V30 8245 H 755.589 0.508008 3.90913 0
M  V30 8246 H 756.877 0.189382 5.08447 0
M  V30 8247 H 756.275 -2.97981 4.80857 0
M  V30 8248 H 754.832 -3.10067 5.73325 0
M  V30 8249 N 758.265 -1.50454 0.469181 0
M  V30 8250 C 759.511 -2.02615 -0.0865971 0
M  V30 8251 C 759.844 -1.35062 -1.39542 0
M  V30 8252 O 759.119 -0.475701 -1.88593 0
M  V30 8253 C 759.402 -3.59068 -0.272385 0
M  V30 8254 C 759.255 -4.37196 1.05733 0
M  V30 8255 C 760.574 -4.2793 -1.0278 0
M  V30 8256 H 757.693 -0.736389 -0.0299977 0
M  V30 8257 H 760.335 -1.79792 0.614399 0
M  V30 8258 H 758.485 -3.78646 -0.869471 0
M  V30 8259 H 760.157 -4.29195 1.69084 0
M  V30 8260 H 758.4 -4.01013 1.65442 0
M  V30 8261 H 759.071 -5.44924 0.880997 0
M  V30 8262 H 761.547 -4.12816 -0.521718 0
M  V30 8263 H 760.423 -5.37214 -1.12659 0
M  V30 8264 H 760.684 -3.90968 -2.0639 0
M  V30 8265 N 759.743 -0.201713 -1.56304 0
M  V30 8266 C 760.673 0.71155 -2.22394 0
M  V30 8267 C 761.654 1.21625 -1.18917 0
M  V30 8268 O 762.839 1.26388 -1.47444 0
M  V30 8269 C 759.969 1.92837 -2.88845 0
M  V30 8270 C 758.923 1.55831 -3.98623 0
M  V30 8271 C 758.249 2.85228 -4.52271 0
M  V30 8272 C 759.549 0.763249 -5.16693 0
M  V30 8273 H 761.243 0.160573 -2.98969 0
M  V30 8274 H 758.789 0.0757916 -1.438 0
M  V30 8275 H 760.742 2.57253 -3.33764 0
M  V30 8276 H 759.466 2.50398 -2.09686 0
M  V30 8277 H 758.125 0.9377 -3.54405 0
M  V30 8278 H 757.773 3.40893 -3.69866 0
M  V30 8279 H 757.473 2.6121 -5.26349 0
M  V30 8280 H 758.997 3.50622 -4.99897 0
M  V30 8281 H 760.411 1.31066 -5.58117 0
M  V30 8282 H 758.808 0.620935 -5.96879 0
M  V30 8283 H 759.878 -0.234322 -4.84334 0
M  V30 8284 N 761.222 1.57436 0.0718424 0
M  V30 8285 C 762.638 1.53792 0.426628 0
M  V30 8286 C 762.838 0.921887 1.79174 0
M  V30 8287 O 761.894 0.524374 2.46995 0
M  V30 8288 C 763.207 2.98443 0.367739 0
M  V30 8289 C 764.755 3.09778 0.447928 0
M  V30 8290 C 765.23 4.5608 0.418946 0
M  V30 8291 N 766.721 4.60716 0.479022 0
M  V30 8292 C 767.456 5.71397 0.47881 0
M  V30 8293 N 766.952 6.91443 0.433417 0
M  V30 8294 N 768.745 5.59639 0.525364 0
M  V30 8295 H 760.896 1.95848 -0.822033 0
M  V30 8296 H 763.159 0.896418 -0.308447 0
M  V30 8297 H 762.865 3.47072 -0.56865 0
M  V30 8298 H 762.739 3.58335 1.17795 0
M  V30 8299 H 765.126 2.61122 1.37474 0
M  V30 8300 H 765.207 2.52796 -0.390857 0
M  V30 8301 H 764.851 5.05393 -0.504016 0
M  V30 8302 H 764.781 5.10925 1.27526 0
M  V30 8303 H 767.272 3.74328 0.518355 0
M  V30 8304 H 767.585 7.71562 0.43718 0
M  V30 8305 H 765.93 6.93847 0.400106 0
M  V30 8306 H 769.121 4.64756 0.558519 0
M  V30 8307 H 769.294 6.45896 0.52173 0
M  V30 8308 N 762.7 -0.34323 1.53817 0
M  V30 8309 C 763.632 -1.44216 1.78141 0
M  V30 8310 C 764.645 -1.48701 0.662721 0
M  V30 8311 O 765.834 -1.51778 0.939458 0
M  V30 8312 C 762.934 -2.82872 1.86646 0
M  V30 8313 C 762.107 -3.01824 3.16577 0
M  V30 8314 C 761.166 -4.20723 3.16036 0
M  V30 8315 O 760.192 -4.14824 3.89756 0
M  V30 8316 N 761.394 -5.29276 2.38427 0
M  V30 8317 H 764.159 -1.23721 2.72971 0
M  V30 8318 H 761.72 -0.53311 1.52871 0
M  V30 8319 H 763.712 -3.60588 1.83735 0
M  V30 8320 H 762.282 -2.96509 0.990014 0
M  V30 8321 H 761.502 -2.11575 3.3261 0
M  V30 8322 H 762.79 -3.11369 4.02402 0
M  V30 8323 H 762.188 -5.36938 1.78085 0
M  V30 8324 H 760.745 -6.05484 2.41313 0
M  V30 8325 N 764.178 -1.45556 -0.604258 0
M  V30 8326 C 765.427 -1.49019 -1.35928 0
M  V30 8327 C 765.74 -0.137409 -1.95117 0
M  V30 8328 O 766.946 -0.0497032 -2.71455 0
M  V30 8329 C 765.402 -2.62477 -2.46239 0
M  V30 8330 C 765.01 -4.04082 -1.93447 0
M  V30 8331 C 766.754 -2.7519 -3.23219 0
M  V30 8332 C 764.661 -5.08917 -3.0126 0
M  V30 8333 H 763.591 -0.554518 -0.510907 0
M  V30 8334 H 766.242 -1.71705 -0.647262 0
M  V30 8335 H 764.624 -2.3308 -3.2014 0
M  V30 8336 H 765.798 -4.43173 -1.26232 0
M  V30 8337 H 764.113 -3.95849 -1.29201 0
M  V30 8338 H 766.71 -3.50683 -4.0364 0
M  V30 8339 H 767.053 -1.81941 -3.74437 0
M  V30 8340 H 767.586 -3.04129 -2.56418 0
M  V30 8341 H 764.325 -6.03886 -2.54955 0
M  V30 8342 H 763.845 -4.74393 -3.67031 0
M  V30 8343 H 765.524 -5.33814 -3.65584 0
M  V30 8344 N 765.656 0.84705 -1.32902 0
M  V30 8345 C 766.904 1.5986 -1.2365 0
M  V30 8346 C 767.225 1.93974 0.199789 0
M  V30 8347 O 766.495 1.60273 1.12648 0
M  V30 8348 H 765.075 0.592696 -0.454665 0
M  V30 8349 H 767.737 1.01278 -1.66519 0
M  V30 8350 H 766.833 2.53218 -1.82448 0
M  V30 8351 N 767.134 1.16236 1.06428 0
M  V30 8352 C 768.411 0.853294 1.76006 0
M  V30 8353 C 768.791 -0.649162 2.00871 0
M  V30 8354 O 768.139 -1.59653 1.63472 0
M  V30 8355 C 768.349 1.67448 3.06206 0
M  V30 8356 C 769.697 1.8866 3.80385 0
M  V30 8357 O 770.721 1.64303 3.16043 0
M  V30 8358 O 769.58 2.29518 4.95968 0
M  V30 8359 H 766.674 0.314737 0.764767 0
M  V30 8360 H 769.22 1.26865 1.12709 0
M  V30 8361 H 767.992 2.69411 2.83784 0
M  V30 8362 H 767.615 1.25608 3.77238 0
M  V30 8363 N 768.612 -1.24939 0.960631 0
M  V30 8364 C 769.559 -2.25658 0.484459 0
M  V30 8365 C 770.529 -1.59422 -0.466242 0
M  V30 8366 O 771.714 -1.87015 -0.378169 0
M  V30 8367 C 768.854 -3.44359 -0.225958 0
M  V30 8368 C 767.967 -4.25214 0.762682 0
M  V30 8369 C 767.102 -5.31192 0.0290931 0
M  V30 8370 C 766.141 -6.03739 1.00827 0
M  V30 8371 N 765.278 -7.01437 0.305155 0
M  V30 8372 H 770.118 -2.65758 1.34821 0
M  V30 8373 H 767.655 -1.30648 0.675983 0
M  V30 8374 H 769.613 -4.12035 -0.654472 0
M  V30 8375 H 768.243 -3.05118 -1.05371 0
M  V30 8376 H 767.295 -3.57144 1.30966 0
M  V30 8377 H 768.607 -4.75406 1.50964 0
M  V30 8378 H 767.761 -6.04971 -0.457763 0
M  V30 8379 H 766.5 -4.81889 -0.750614 0
M  V30 8380 H 765.505 -5.2877 1.50607 0
M  V30 8381 H 766.73 -6.55131 1.7883 0
M  V30 8382 H 764.676 -6.54415 -0.455704 0
M  V30 8383 H 764.593 -7.49475 0.991104 0
M  V30 8384 H 765.861 -7.79336 -0.159966 0
M  V30 8385 N 770.09 -0.729906 -1.39679 0
M  V30 8386 C 771.367 -0.202149 -1.94553 0
M  V30 8387 C 771.747 1.29507 -1.66707 0
M  V30 8388 O 771.095 2.05819 -0.992517 0
M  V30 8389 C 771.305 -0.530279 -3.44948 0
M  V30 8390 C 772.653 -0.476808 -4.21914 0
M  V30 8391 O 773.677 -0.467171 -3.53123 0
M  V30 8392 O 772.536 -0.466869 -5.44502 0
M  V30 8393 H 769.63 -0.0351644 -0.826252 0
M  V30 8394 H 772.176 -0.808417 -1.49207 0
M  V30 8395 H 770.948 -1.56526 -3.5863 0
M  V30 8396 H 770.571 0.10522 -3.97461 0
M  V30 8397 N 771.568 1.50203 -0.477153 0
M  V30 8398 C 772.5 2.26508 0.350239 0
M  V30 8399 C 773.513 1.32081 0.95176 0
M  V30 8400 O 774.702 1.57546 0.839139 0
M  V30 8401 C 771.802 3.0361 1.50579 0
M  V30 8402 C 770.975 4.25438 1.01595 0
M  V30 8403 C 770.034 4.84783 2.04626 0
M  V30 8404 O 769.06 5.45528 1.62442 0
M  V30 8405 N 770.262 4.72318 3.37485 0
M  V30 8406 H 773.027 2.98155 -0.30394 0
M  V30 8407 H 770.588 1.58938 -0.308289 0
M  V30 8408 H 772.58 3.4019 2.1921 0
M  V30 8409 H 771.15 2.34724 2.06455 0
M  V30 8410 H 770.37 3.93894 0.155316 0
M  V30 8411 H 771.658 5.04413 0.666694 0
M  V30 8412 H 771.056 4.24022 3.74462 0
M  V30 8413 H 769.613 5.13149 4.01897 0
M  V30 8414 N 773.046 0.209999 1.56195 0
M  V30 8415 C 773.993 -0.704854 2.19774 0
M  V30 8416 C 774.963 -1.19886 1.14964 0
M  V30 8417 O 776.148 -1.26005 1.43274 0
M  V30 8418 C 773.288 -1.91241 2.87265 0
M  V30 8419 C 772.401 -1.45838 4.06639 0
M  V30 8420 C 771.536 -2.6226 4.61945 0
M  V30 8421 C 770.575 -2.13537 5.73645 0
M  V30 8422 N 769.712 -3.2319 6.23292 0
M  V30 8423 H 774.552 -0.155944 2.97592 0
M  V30 8424 H 772.089 -0.0652235 1.46955 0
M  V30 8425 H 774.047 -2.62123 3.24573 0
M  V30 8426 H 772.677 -2.43439 2.11985 0
M  V30 8427 H 771.729 -0.644897 3.74894 0
M  V30 8428 H 773.041 -1.06103 4.87384 0
M  V30 8429 H 772.195 -3.41243 5.01636 0
M  V30 8430 H 770.934 -3.05278 3.80338 0
M  V30 8431 H 769.939 -1.33013 5.33468 0
M  V30 8432 H 771.164 -1.71533 6.57079 0
M  V30 8433 H 769.11 -3.65711 5.44602 0
M  V30 8434 H 769.027 -2.8767 6.99129 0
M  V30 8435 H 770.295 -4.02342 6.67639 0
M  V30 8436 N 774.524 -1.57472 -0.0634922 0
M  V30 8437 C 775.773 -1.86837 -0.759928 0
M  V30 8438 C 776.086 -0.803823 -1.7832 0
M  V30 8439 O 777.292 -0.985578 -2.52979 0
M  V30 8440 C 775.748 -3.31448 -1.4025 0
M  V30 8441 C 775.356 -4.46052 -0.417368 0
M  V30 8442 C 777.1 -3.70003 -2.08082 0
M  V30 8443 C 775.007 -5.81707 -1.06633 0
M  V30 8444 H 773.937 -0.697009 -0.287567 0
M  V30 8445 H 776.588 -1.83495 -0.0133914 0
M  V30 8446 H 774.97 -3.29427 -2.19759 0
M  V30 8447 H 776.144 -4.5948 0.348503 0
M  V30 8448 H 774.459 -4.16104 0.156955 0
M  V30 8449 H 777.056 -4.68653 -2.57426 0
M  V30 8450 H 777.399 -3.00226 -2.88393 0
M  V30 8451 H 777.932 -3.7405 -1.35394 0
M  V30 8452 H 774.671 -6.54798 -0.303374 0
M  V30 8453 H 774.191 -5.72064 -1.80286 0
M  V30 8454 H 775.87 -6.27317 -1.58376 0
M  V30 8455 N 776.003 0.335068 -1.53997 0
M  V30 8456 C 776.935 1.4327 -1.78903 0
M  V30 8457 C 777.948 1.48347 -0.670598 0
M  V30 8458 O 779.137 1.51277 -0.947494 0
M  V30 8459 C 776.237 2.81878 -1.88144 0
M  V30 8460 C 775.41 3.00141 -3.18174 0
M  V30 8461 C 774.469 4.19041 -3.18263 0
M  V30 8462 O 773.495 4.12751 -3.9195 0
M  V30 8463 N 774.697 5.28004 -2.41231 0
M  V30 8464 H 777.462 1.22272 -2.73623 0
M  V30 8465 H 775.023 0.524996 -1.53152 0
M  V30 8466 H 777.015 3.59609 -1.85644 0
M  V30 8467 H 775.585 2.9598 -1.00572 0
M  V30 8468 H 774.805 2.09808 -3.33728 0
M  V30 8469 H 776.093 3.0923 -4.04047 0
M  V30 8470 H 775.491 5.35986 -1.8093 0
M  V30 8471 H 774.048 6.04196 -2.44521 0
M  V30 8472 N 777.481 1.45874 0.596531 0
M  V30 8473 C 778.429 1.55739 1.72766 0
M  V30 8474 C 779.423 0.426666 1.63939 0
M  V30 8475 O 780.629 0.60301 1.69599 0
M  V30 8476 H 777.004 0.489386 0.570968 0
M  V30 8477 H 778.975 2.50871 1.61575 0
M  V30 8478 C 777.724 1.55174 3.11153 0
M  V30 8479 H 777.047 2.41511 3.1861 0
M  V30 8480 H 778.487 1.66133 3.90097 0
M  V30 8481 C 776.946 0.278001 3.35751 0
M  V30 8482 O 777.476 -0.637557 3.96608 0
M  V30 8483 N 775.682 0.170227 2.90101 0
M  V30 8484 H 775.229 0.916159 2.40758 0
M  V30 8485 H 775.187 -0.68117 3.06932 0
M  V30 8486 N 778.959 -0.83999 1.33349 0
M  V30 8487 C 779.889 -1.965 1.26135 0
M  V30 8488 C 780.87 -1.69505 0.142152 0
M  V30 8489 O 782.055 -1.91346 0.331743 0
M  V30 8490 C 779.185 -3.32632 0.99866 0
M  V30 8491 C 778.139 -3.74021 2.08068 0
M  V30 8492 C 777.465 -5.07947 1.67014 0
M  V30 8493 C 778.765 -3.87925 3.49731 0
M  V30 8494 H 780.459 -2.02793 2.20262 0
M  V30 8495 H 778.005 -0.974297 1.06035 0
M  V30 8496 H 779.958 -4.10903 0.934696 0
M  V30 8497 H 778.682 -3.26593 0.0217759 0
M  V30 8498 H 777.341 -2.98012 2.13505 0
M  V30 8499 H 776.989 -4.98378 0.680316 0
M  V30 8500 H 776.689 -5.36611 2.39422 0
M  V30 8501 H 778.213 -5.88695 1.62082 0
M  V30 8502 H 779.627 -4.5651 3.46802 0
M  V30 8503 H 778.024 -4.28023 4.20614 0
M  V30 8504 H 779.094 -2.90407 3.88319 0
M  V30 8505 N 780.437 -1.16799 -1.0581 0
M  V30 8506 C 781.347 -0.893492 -2.16919 0
M  V30 8507 C 782.363 0.136061 -1.73467 0
M  V30 8508 O 783.539 -0.0417348 -2.01357 0
M  V30 8509 C 780.604 -0.403763 -3.44341 0
M  V30 8510 C 779.665 -1.49914 -4.02274 0
M  V30 8511 C 778.898 -1.03269 -5.23614 0
M  V30 8512 O 779.121 0.115647 -5.70283 0
M  V30 8513 O 778.055 -1.8231 -5.73626 0
M  V30 8514 H 781.881 -1.82274 -2.42919 0
M  V30 8515 H 779.466 -0.948361 -1.1544 0
M  V30 8516 H 781.348 -0.137874 -4.21174 0
M  V30 8517 H 780.023 0.497413 -3.19855 0
M  V30 8518 H 778.93 -1.81883 -3.26909 0
M  V30 8519 H 780.263 -2.3758 -4.31064 0
M  V30 8520 N 781.915 1.24427 -0.967243 0
M  V30 8521 C 782.878 2.23637 -0.501927 0
M  V30 8522 C 783.878 1.55712 0.401283 0
M  V30 8523 O 785.068 1.73085 0.196808 0
M  V30 8524 C 782.2 3.39804 0.273176 0
M  V30 8525 H 783.393 2.66317 -1.37897 0
M  V30 8526 H 780.946 1.37033 -0.751783 0
M  V30 8527 H 781.681 3.02562 1.16733 0
M  V30 8528 H 781.466 3.90303 -0.37498 0
M  V30 8529 H 782.956 4.13443 0.587776 0
M  V30 8530 N 783.393 0.737304 1.3929 0
M  V30 8531 C 784.323 0.113988 2.33222 0
M  V30 8532 C 785.304 -0.721695 1.54031 0
M  V30 8533 O 786.489 -0.666206 1.82415 0
M  V30 8534 C 783.619 -0.792319 3.38141 0
M  V30 8535 C 782.573 -0.0606178 4.27957 0
M  V30 8536 C 781.899 -1.08409 5.23595 0
M  V30 8537 C 783.199 1.09817 5.10625 0
M  V30 8538 H 784.893 0.898611 2.85596 0
M  V30 8539 H 782.439 0.433571 1.37318 0
M  V30 8540 H 784.392 -1.23793 4.02807 0
M  V30 8541 H 783.116 -1.60908 2.84211 0
M  V30 8542 H 781.775 0.365393 3.64775 0
M  V30 8543 H 781.423 -1.89449 4.6596 0
M  V30 8544 H 781.123 -0.599269 5.84536 0
M  V30 8545 H 782.647 -1.52936 5.91137 0
M  V30 8546 H 784.061 0.730892 5.68622 0
M  V30 8547 H 782.458 1.51278 5.80719 0
M  V30 8548 H 783.528 1.91878 4.45321 0
M  V30 8549 N 784.871 -1.49948 0.485112 0
M  V30 8550 C 785.801 -2.31675 -0.291364 0
M  V30 8551 C 786.782 -1.39216 -0.977383 0
M  V30 8552 O 787.967 -1.68133 -0.971855 0
M  V30 8553 C 785.097 -3.19326 -1.36558 0
M  V30 8554 C 784.051 -4.2045 -0.800359 0
M  V30 8555 C 783.377 -4.96931 -1.97391 0
M  V30 8556 C 784.677 -5.21925 0.197867 0
M  V30 8557 H 786.371 -2.96839 0.390775 0
M  V30 8558 H 783.917 -1.42749 0.189375 0
M  V30 8559 H 785.87 -3.75304 -1.91638 0
M  V30 8560 H 784.594 -2.52074 -2.07668 0
M  V30 8561 H 783.253 -3.65594 -0.271428 0
M  V30 8562 H 782.901 -4.26141 -2.67232 0
M  V30 8563 H 782.601 -5.65344 -1.60187 0
M  V30 8564 H 784.125 -5.55749 -2.52935 0
M  V30 8565 H 785.539 -5.72691 -0.264239 0
M  V30 8566 H 783.936 -5.98138 0.484908 0
M  V30 8567 H 785.006 -4.71809 1.11912 0
M  V30 8568 N 786.349 -0.21828 -1.56081 0
M  V30 8569 C 787.281 0.725447 -2.17416 0
M  V30 8570 C 788.294 1.15995 -1.14233 0
M  V30 8571 O 789.483 1.09166 -1.41227 0
M  V30 8572 C 786.583 1.99401 -2.7403 0
M  V30 8573 C 785.756 1.7156 -4.02351 0
M  V30 8574 C 784.815 2.8309 -4.43561 0
M  V30 8575 O 783.841 2.51701 -5.10525 0
M  V30 8576 N 785.043 4.11972 -4.08973 0
M  V30 8577 H 787.808 0.200801 -2.99027 0
M  V30 8578 H 785.369 -0.0371514 -1.61857 0
M  V30 8579 H 787.361 2.73198 -2.98571 0
M  V30 8580 H 785.931 2.42923 -1.96742 0
M  V30 8581 H 785.151 0.814233 -3.85699 0
M  V30 8582 H 786.439 1.50385 -4.86068 0
M  V30 8583 H 785.837 4.40319 -3.55156 0
M  V30 8584 H 784.394 4.82323 -4.38415 0
M  V30 8585 N 787.827 1.57504 0.0551401 0
M  V30 8586 C 788.774 2.04825 1.06373 0
M  V30 8587 C 789.744 0.932108 1.37481 0
M  V30 8588 O 790.929 1.20093 1.48265 0
M  V30 8589 C 788.069 2.51091 2.36743 0
M  V30 8590 C 787.182 3.76392 2.12021 0
M  V30 8591 C 786.317 4.11373 3.36074 0
M  V30 8592 C 785.356 5.29666 3.0679 0
M  V30 8593 N 784.493 5.60205 4.2322 0
M  V30 8594 H 789.333 2.90753 0.653216 0
M  V30 8595 H 786.87 1.43776 0.310951 0
M  V30 8596 H 788.828 2.75973 3.12881 0
M  V30 8597 H 787.458 1.68118 2.75565 0
M  V30 8598 H 786.51 3.58751 1.26498 0
M  V30 8599 H 787.822 4.62662 1.86401 0
M  V30 8600 H 786.976 4.37245 4.20597 0
M  V30 8601 H 785.715 3.23704 3.64784 0
M  V30 8602 H 784.72 5.03574 2.20664 0
M  V30 8603 H 785.945 6.18968 2.79385 0
M  V30 8604 H 783.891 4.75495 4.5193 0
M  V30 8605 H 783.808 6.40928 4.00933 0
M  V30 8606 H 785.076 5.90637 5.08692 0
M  V30 8607 N 789.305 -0.326896 1.54172 0
M  V30 8608 C 790.53 -1.08924 1.76494 0
M  V30 8609 C 790.955 -1.81039 0.510523 0
M  V30 8610 O 790.313 -1.73141 -0.537756 0
M  V30 8611 C 790.361 -2.06558 2.95578 0
M  V30 8612 O 789.465 -3.14394 2.6689 0
M  V30 8613 H 788.806 -0.314216 0.584948 0
M  V30 8614 H 791.336 -0.372207 2.01186 0
M  V30 8615 H 791.346 -2.49487 3.22832 0
M  V30 8616 H 790.021 -1.53469 3.86549 0
M  V30 8617 H 788.598 -2.76164 2.50576 0
M  V30 8618 N 790.784 -1.46188 -0.588786 0
M  V30 8619 C 791.731 -1.56292 -1.69828 0
M  V30 8620 C 792.701 -0.407581 -1.61022 0
M  V30 8621 O 793.886 -0.623532 -1.80324 0
M  V30 8622 C 791.026 -1.55341 -3.08161 0
M  V30 8623 C 790.139 -2.81564 -3.27636 0
M  V30 8624 C 789.274 -2.72158 -4.56183 0
M  V30 8625 C 788.313 -3.93348 -4.68981 0
M  V30 8626 N 787.45 -3.82365 -5.88848 0
M  V30 8627 H 792.29 -2.51066 -1.6053 0
M  V30 8628 H 789.827 -1.24562 -0.782474 0
M  V30 8629 H 791.785 -1.52776 -3.88221 0
M  V30 8630 H 790.415 -0.641034 -3.16371 0
M  V30 8631 H 789.467 -2.94136 -2.41223 0
M  V30 8632 H 790.779 -3.714 -3.32962 0
M  V30 8633 H 789.933 -2.67665 -5.44464 0
M  V30 8634 H 788.672 -1.79953 -4.53286 0
M  V30 8635 H 787.677 -3.98181 -3.7912 0
M  V30 8636 H 788.902 -4.86643 -4.73662 0
M  V30 8637 H 786.848 -2.92942 -5.86959 0
M  V30 8638 H 786.765 -4.65851 -5.95415 0
M  V30 8639 H 788.033 -3.81836 -6.79575 0
M  V30 8640 N 792.262 0.832906 -1.33792 0
M  V30 8641 C 793.172 1.97514 -1.26592 0
M  V30 8642 C 794.188 1.73114 -0.175391 0
M  V30 8643 O 795.364 1.97387 -0.400062 0
M  V30 8644 C 792.429 3.31625 -1.01121 0
M  V30 8645 C 791.49 3.69101 -2.19233 0
M  V30 8646 C 790.723 4.96813 -1.94968 0
M  V30 8647 O 790.946 5.63208 -0.902955 0
M  V30 8648 O 789.88 5.31932 -2.8166 0
M  V30 8649 H 793.706 2.0653 -2.22664 0
M  V30 8650 H 791.291 0.966826 -1.13898 0
M  V30 8651 H 793.173 4.11968 -0.886571 0
M  V30 8652 H 791.848 3.23599 -0.080822 0
M  V30 8653 H 790.755 2.89243 -2.37253 0
M  V30 8654 H 792.088 3.818 -3.10628 0
M  V30 8655 N 793.74 1.17359 1.05189 0
M  V30 8656 C 794.688 0.886527 2.15043 0
M  V30 8657 C 795.682 -0.148834 1.68745 0
M  V30 8658 O 796.888 -0.00175123 1.8 0
M  V30 8659 H 793.263 0.269147 0.702185 0
M  V30 8660 H 795.234 1.82016 2.36459 0
M  V30 8661 C 793.983 0.416333 3.45198 0
M  V30 8662 H 793.306 1.20449 3.81225 0
M  V30 8663 H 794.746 0.254362 4.23236 0
M  V30 8664 C 793.205 -0.866016 3.25579 0
M  V30 8665 O 793.735 -1.9328 3.52144 0
M  V30 8666 N 791.941 -0.814179 2.78961 0
M  V30 8667 H 791.488 0.0541618 2.57543 0
M  V30 8668 H 791.446 -1.67264 2.66214 0
M  V30 8669 N 795.218 -1.23913 0.973828 0
M  V30 8670 C 796.467 -1.91455 0.63464 0
M  V30 8671 C 796.78 -1.76893 -0.834759 0
M  V30 8672 O 797.986 -2.3918 -1.28473 0
M  V30 8673 C 796.442 -3.43172 1.08447 0
M  V30 8674 C 796.05 -3.66409 2.57776 0
M  V30 8675 C 797.794 -4.1653 0.818721 0
M  V30 8676 C 795.701 -5.11728 2.9646 0
M  V30 8677 H 794.631 -0.716881 0.233661 0
M  V30 8678 H 797.282 -1.40457 1.18085 0
M  V30 8679 H 795.664 -3.93242 0.466524 0
M  V30 8680 H 796.838 -3.26913 3.24753 0
M  V30 8681 H 795.153 -3.06349 2.82027 0
M  V30 8682 H 797.75 -5.23603 1.08367 0
M  V30 8683 H 798.093 -4.15578 -0.245128 0
M  V30 8684 H 798.626 -3.72428 1.39793 0
M  V30 8685 H 795.365 -5.17806 4.01941 0
M  V30 8686 H 794.885 -5.52199 2.34172 0
M  V30 8687 H 796.564 -5.80009 2.86703 0
M  V30 8688 N 796.696 -0.74468 -1.38897 0
M  V30 8689 C 797.921 -0.306119 -2.05128 0
M  V30 8690 C 798.346 1.0541 -1.55789 0
M  V30 8691 O 797.704 1.66993 -0.705909 0
M  V30 8692 C 797.752 -0.328195 -3.59103 0
M  V30 8693 O 796.856 0.680876 -4.06741 0
M  V30 8694 H 796.197 -0.137209 -0.649669 0
M  V30 8695 H 798.727 -1.01331 -1.77745 0
M  V30 8696 H 798.737 -0.175956 -4.0762 0
M  V30 8697 H 797.412 -1.32067 -3.94374 0
M  V30 8698 H 795.989 0.49398 -3.69614 0
M  V30 8699 N 798.174 1.49689 -0.493057 0
M  V30 8700 C 799.104 2.31826 0.279073 0
M  V30 8701 C 800.085 1.39733 0.969987 0
M  V30 8702 O 801.27 1.68646 0.962925 0
M  V30 8703 C 798.4 3.20046 1.34862 0
M  V30 8704 C 797.354 4.20869 0.77805 0
M  V30 8705 C 796.68 4.97971 1.94753 0
M  V30 8706 C 797.98 5.21813 -0.225543 0
M  V30 8707 H 799.674 2.96627 -0.406512 0
M  V30 8708 H 797.22 1.42647 -0.196943 0
M  V30 8709 H 799.173 3.76315 1.89645 0
M  V30 8710 H 797.897 2.53172 2.06328 0
M  V30 8711 H 796.556 3.65733 0.252036 0
M  V30 8712 H 796.204 4.27552 2.64969 0
M  V30 8713 H 795.904 5.66186 1.57187 0
M  V30 8714 H 797.428 5.57082 2.49984 0
M  V30 8715 H 798.842 5.72823 0.233864 0
M  V30 8716 H 797.239 5.97872 -0.516622 0
M  V30 8717 H 798.309 4.71209 -1.14412 0
M  V30 8718 N 799.652 0.226554 1.55963 0
M  V30 8719 C 800.582 -0.676079 2.23498 0
M  V30 8720 C 801.563 -1.19718 1.20837 0
M  V30 8721 O 802.748 -1.24027 1.49436 0
M  V30 8722 C 799.878 -1.88217 2.91876 0
M  V30 8723 C 798.832 -1.4947 4.01052 0
M  V30 8724 C 798.158 -2.77997 4.56751 0
M  V30 8725 C 799.458 -0.680951 5.17842 0
M  V30 8726 H 801.152 -0.112989 2.99187 0
M  V30 8727 H 798.698 -0.0529046 1.43903 0
M  V30 8728 H 800.651 -2.51911 3.37815 0
M  V30 8729 H 799.375 -2.47031 2.13643 0
M  V30 8730 H 798.034 -0.881199 3.55852 0
M  V30 8731 H 797.682 -3.34966 3.75243 0
M  V30 8732 H 797.382 -2.52803 5.30438 0
M  V30 8733 H 798.906 -3.42625 5.05411 0
M  V30 8734 H 800.32 -1.22171 5.60131 0
M  V30 8735 H 798.717 -0.525898 5.97791 0
M  V30 8736 H 799.787 0.311346 4.83899 0
M  V30 8737 N 801.13 -1.57531 -0.0467866 0
M  V30 8738 C 802.04 -2.08768 -1.07018 0
M  V30 8739 C 803.056 -1.02245 -1.40791 0
M  V30 8740 O 804.232 -1.33873 -1.50466 0
M  V30 8741 C 801.297 -2.54221 -2.35738 0
M  V30 8742 C 800.358 -3.75152 -2.08709 0
M  V30 8743 C 799.591 -4.18428 -3.31291 0
M  V30 8744 O 799.814 -3.61365 -4.4133 0
M  V30 8745 O 798.748 -5.11018 -3.18032 0
M  V30 8746 H 802.574 -2.96334 -0.664812 0
M  V30 8747 H 800.159 -1.47074 -0.262605 0
M  V30 8748 H 802.041 -2.83866 -3.11445 0
M  V30 8749 H 800.716 -1.69774 -2.75605 0
M  V30 8750 H 799.623 -3.50553 -1.30627 0
M  V30 8751 H 800.956 -4.60528 -1.73708 0
M  V30 8752 N 802.608 0.318715 -1.54344 0
M  V30 8753 C 803.555 1.39242 -1.84066 0
M  V30 8754 C 804.525 1.51175 -0.688134 0
M  V30 8755 O 805.71 1.66318 -0.935039 0
M  V30 8756 C 802.85 2.75528 -2.07794 0
M  V30 8757 C 801.963 2.72187 -3.35467 0
M  V30 8758 C 801.098 4.00352 -3.4913 0
M  V30 8759 C 800.137 3.91338 -4.7066 0
M  V30 8760 N 799.274 5.11242 -4.81224 0
M  V30 8761 H 804.114 1.13196 -2.75664 0
M  V30 8762 H 801.651 0.547857 -1.36517 0
M  V30 8763 H 803.609 3.54763 -2.19543 0
M  V30 8764 H 802.239 2.99873 -1.19482 0
M  V30 8765 H 801.291 1.84917 -3.3243 0
M  V30 8766 H 802.603 2.61411 -4.24812 0
M  V30 8767 H 801.757 4.88019 -3.60448 0
M  V30 8768 H 800.496 4.1394 -2.57886 0
M  V30 8769 H 799.501 3.02055 -4.59394 0
M  V30 8770 H 800.726 3.7931 -5.63294 0
M  V30 8771 H 798.672 5.25327 -3.92897 0
M  V30 8772 H 798.589 5.0282 -5.64543 0
M  V30 8773 H 799.857 6.0061 -4.96879 0
M  V30 8774 N 804.086 1.46499 0.581025 0
M  V30 8775 C 804.996 1.59778 1.71779 0
M  V30 8776 C 806.012 0.481223 1.67213 0
M  V30 8777 O 807.188 0.74557 1.87091 0
M  V30 8778 C 804.253 1.58626 3.08283 0
M  V30 8779 C 803.314 2.81527 3.241 0
M  V30 8780 C 802.547 2.80421 4.54092 0
M  V30 8781 O 802.77 1.89262 5.38085 0
M  V30 8782 O 801.704 3.71984 4.73193 0
M  V30 8783 H 805.53 2.55918 1.63523 0
M  V30 8784 H 803.115 1.29311 0.748267 0
M  V30 8785 H 804.997 1.60686 3.89561 0
M  V30 8786 H 803.672 0.656467 3.16973 0
M  V30 8787 H 802.579 2.85021 2.42309 0
M  V30 8788 H 803.912 3.73721 3.20302 0
M  V30 8789 N 805.565 -0.825799 1.34232 0
M  V30 8790 C 806.981 -1.11848 1.13851 0
M  V30 8791 C 807.181 -2.01405 -0.0619031 0
M  V30 8792 O 806.237 -2.41465 -0.738287 0
M  V30 8793 C 807.55 -1.76797 2.43235 0
M  V30 8794 C 809.098 -1.89304 2.49265 0
M  V30 8795 C 809.573 -2.57669 3.78643 0
M  V30 8796 N 811.064 -2.65171 3.79788 0
M  V30 8797 C 811.799 -3.1879 4.76614 0
M  V30 8798 N 811.295 -3.72995 5.83821 0
M  V30 8799 N 813.088 -3.17164 4.64073 0
M  V30 8800 H 805.239 -0.230049 2.11151 0
M  V30 8801 H 807.502 -0.164609 0.9336 0
M  V30 8802 H 807.208 -1.18455 3.31152 0
M  V30 8803 H 807.082 -2.76693 2.56361 0
M  V30 8804 H 809.469 -2.46796 1.6179 0
M  V30 8805 H 809.55 -0.883191 2.4007 0
M  V30 8806 H 809.194 -2.00833 4.66507 0
M  V30 8807 H 809.124 -3.59152 3.8512 0
M  V30 8808 H 811.615 -2.26746 3.02315 0
M  V30 8809 H 811.928 -4.12151 6.53721 0
M  V30 8810 H 810.273 -3.71246 5.87538 0
M  V30 8811 H 813.464 -2.74082 3.79469 0
M  V30 8812 H 813.637 -3.58647 5.397 0
M  V30 8813 N 807.043 -1.17915 -1.04565 0
M  V30 8814 C 807.953 -0.916449 -2.15959 0
M  V30 8815 C 808.969 0.117655 -1.73602 0
M  V30 8816 O 810.145 -0.063089 -2.01301 0
M  V30 8817 C 807.21 -0.440262 -3.43893 0
M  V30 8818 C 806.271 -1.54172 -4.00661 0
M  V30 8819 C 805.504 -1.08816 -5.22489 0
M  V30 8820 O 805.727 0.0551547 -5.70373 0
M  V30 8821 O 804.661 -1.88383 -5.7166 0
M  V30 8822 H 808.487 -1.8484 -2.40972 0
M  V30 8823 H 806.072 -0.960552 -1.14428 0
M  V30 8824 H 807.954 -0.182537 -4.21004 0
M  V30 8825 H 806.629 0.46346 -3.20365 0
M  V30 8826 H 805.536 -1.85341 -3.24961 0
M  V30 8827 H 806.869 -2.42139 -4.2852 0
M  V30 8828 N 808.521 1.23394 -0.980386 0
M  V30 8829 C 809.798 1.87242 -0.565667 0
M  V30 8830 C 810.178 1.88151 0.957197 0
M  V30 8831 O 809.526 1.36309 1.8339 0
M  V30 8832 C 809.736 3.28743 -1.17172 0
M  V30 8833 C 811.084 4.05335 -1.26446 0
M  V30 8834 O 812.108 3.37962 -1.12517 0
M  V30 8835 O 810.967 5.25908 -1.48604 0
M  V30 8836 H 808.061 0.80477 -0.190459 0
M  V30 8837 H 810.607 1.3127 -1.07547 0
M  V30 8838 H 809.379 3.22647 -2.21392 0
M  V30 8839 H 809.002 3.92305 -0.646739 0
M  V30 8840 N 809.999 0.752036 1.385 0
M  V30 8841 C 810.929 0.138718 2.33088 0
M  V30 8842 C 811.91 -0.705318 1.54788 0
M  V30 8843 O 813.095 -0.646821 1.83112 0
M  V30 8844 C 810.225 -0.75641 3.38963 0
M  V30 8845 C 809.179 -0.0152239 4.27997 0
M  V30 8846 C 808.505 -1.0285 5.24715 0
M  V30 8847 C 809.805 1.15226 5.09431 0
M  V30 8848 H 811.499 0.928852 2.84627 0
M  V30 8849 H 809.045 0.448111 1.3685 0
M  V30 8850 H 810.998 -1.19513 4.04097 0
M  V30 8851 H 809.722 -1.57885 2.85902 0
M  V30 8852 H 808.381 0.404061 3.64366 0
M  V30 8853 H 808.029 -1.84496 4.67943 0
M  V30 8854 H 807.729 -0.537238 5.85139 0
M  V30 8855 H 809.253 -1.46657 5.92726 0
M  V30 8856 H 810.667 0.791161 5.67815 0
M  V30 8857 H 809.064 1.57428 5.79082 0
M  V30 8858 H 810.134 1.9659 4.43261 0
M  V30 8859 N 811.477 -1.49425 0.500989 0
M  V30 8860 C 812.707 -2.06561 -0.0402858 0
M  V30 8861 C 813.115 -1.36157 -1.31369 0
M  V30 8862 O 812.458 -0.433618 -1.78509 0
M  V30 8863 C 812.52 -3.5765 -0.364269 0
M  V30 8864 C 812.184 -4.49739 0.811417 0
M  V30 8865 C 813.181 -4.91255 1.7019 0
M  V30 8866 C 810.866 -4.92036 1.01022 0
M  V30 8867 C 812.86 -5.73806 2.77534 0
M  V30 8868 C 810.547 -5.74364 2.08683 0
M  V30 8869 C 811.545 -6.15154 2.96774 0
M  V30 8870 O 811.233 -6.95836 4.02577 0
M  V30 8871 H 810.965 -0.67578 0.0172357 0
M  V30 8872 H 813.519 -1.93193 0.697553 0
M  V30 8873 H 811.749 -3.69026 -1.1557 0
M  V30 8874 H 813.438 -3.97025 -0.844156 0
M  V30 8875 H 814.204 -4.59222 1.56013 0
M  V30 8876 H 810.083 -4.59789 0.333929 0
M  V30 8877 H 813.627 -6.05564 3.4632 0
M  V30 8878 H 809.524 -6.0581 2.22855 0
M  V30 8879 H 810.292 -7.14142 3.9993 0
M  V30 8880 N 812.955 -0.234822 -1.55841 0
M  V30 8881 C 813.918 0.656378 -2.196 0
M  V30 8882 C 814.918 1.11179 -1.16171 0
M  V30 8883 O 816.108 1.01845 -1.41326 0
M  V30 8884 C 813.24 1.90072 -2.82993 0
M  V30 8885 H 814.433 0.100281 -2.99732 0
M  V30 8886 H 811.986 0.0147613 -1.56293 0
M  V30 8887 H 812.721 2.49836 -2.06767 0
M  V30 8888 H 812.506 1.5825 -3.58747 0
M  V30 8889 H 813.996 2.53538 -3.31826 0
M  V30 8890 N 814.433 1.57553 0.0384317 0
M  V30 8891 C 815.38 2.05942 1.04194 0
M  V30 8892 C 816.35 0.946637 1.36484 0
M  V30 8893 O 817.535 1.21658 1.46983 0
M  V30 8894 C 814.675 2.53588 2.34066 0
M  V30 8895 C 813.788 3.7862 2.08017 0
M  V30 8896 C 812.923 4.14915 3.31692 0
M  V30 8897 C 811.962 5.32891 3.01155 0
M  V30 8898 N 811.099 5.64662 4.17254 0
M  V30 8899 H 815.939 2.91429 0.622341 0
M  V30 8900 H 813.476 1.44098 0.295684 0
M  V30 8901 H 815.434 2.79276 3.09937 0
M  V30 8902 H 814.064 1.71031 2.73767 0
M  V30 8903 H 813.116 3.60073 1.22686 0
M  V30 8904 H 814.428 4.64613 1.81484 0
M  V30 8905 H 813.582 4.41681 4.15936 0
M  V30 8906 H 812.321 3.27555 3.6133 0
M  V30 8907 H 811.326 5.05887 2.15311 0
M  V30 8908 H 812.551 6.21896 2.72804 0
M  V30 8909 H 810.497 4.80261 4.46861 0
M  V30 8910 H 810.414 6.45145 3.94112 0
M  V30 8911 H 811.682 5.96 5.02399 0
M  V30 8912 N 815.911 -0.310526 1.54511 0
M  V30 8913 C 817.16 -1.0445 1.72549 0
M  V30 8914 C 817.473 -1.88748 0.513172 0
M  V30 8915 O 818.679 -2.65338 0.575165 0
M  V30 8916 C 817.135 -1.90665 3.05246 0
M  V30 8917 C 816.743 -1.11415 4.33925 0
M  V30 8918 C 818.487 -2.63719 3.32645 0
M  V30 8919 C 816.394 -1.96852 5.57677 0
M  V30 8920 H 815.324 -0.393676 0.643067 0
M  V30 8921 H 817.975 -0.302003 1.80998 0
M  V30 8922 H 816.357 -2.68864 2.90737 0
M  V30 8923 H 817.531 -0.378956 4.59239 0
M  V30 8924 H 815.846 -0.499853 4.13389 0
M  V30 8925 H 818.443 -3.27974 4.223 0
M  V30 8926 H 818.786 -3.32047 2.51098 0
M  V30 8927 H 819.319 -1.92574 3.48081 0
M  V30 8928 H 816.058 -1.33009 6.41864 0
M  V30 8929 H 815.578 -2.68069 5.36562 0
M  V30 8930 H 817.257 -2.55127 5.94575 0
M  V30 8931 N 817.389 -1.46805 -0.573248 0
M  V30 8932 C 818.321 -1.54127 -1.6964 0
M  V30 8933 C 819.334 -0.428778 -1.57052 0
M  V30 8934 O 820.523 -0.697612 -1.64303 0
M  V30 8935 C 817.623 -1.41438 -3.07975 0
M  V30 8936 C 816.796 -2.66974 -3.46474 0
M  V30 8937 C 815.855 -2.48349 -4.63906 0
M  V30 8938 O 814.881 -3.22109 -4.69292 0
M  V30 8939 N 816.083 -1.55129 -5.59388 0
M  V30 8940 H 818.848 -2.50971 -1.6381 0
M  V30 8941 H 816.409 -1.42981 -0.759479 0
M  V30 8942 H 818.401 -1.26737 -3.84343 0
M  V30 8943 H 816.971 -0.527388 -3.08119 0
M  V30 8944 H 816.191 -2.9655 -2.59715 0
M  V30 8945 H 817.479 -3.50347 -3.68964 0
M  V30 8946 H 816.877 -0.94324 -5.57781 0
M  V30 8947 H 815.434 -1.46387 -6.35149 0
M  V30 8948 N 818.867 0.818669 -1.34668 0
M  V30 8949 C 819.83 1.9114 -1.26483 0
M  V30 8950 C 820.83 1.598 -0.179044 0
M  V30 8951 O 822.02 1.6876 -0.431952 0
M  V30 8952 C 819.152 3.27285 -0.95381 0
M  V30 8953 H 820.345 1.9982 -2.23634 0
M  V30 8954 H 817.898 1.01314 -1.19018 0
M  V30 8955 H 818.633 3.24297 0.0143428 0
M  V30 8956 H 818.418 3.51416 -1.73924 0
M  V30 8957 H 819.908 4.07299 -0.921827 0
M  V30 8958 N 820.346 1.18468 1.03938 0
M  V30 8959 C 821.594 0.978895 1.76811 0
M  V30 8960 C 821.915 -0.49257 1.88676 0
M  V30 8961 O 821.185 -1.3572 1.41269 0
M  V30 8962 H 819.765 0.359201 0.654968 0
M  V30 8963 H 822.427 1.49173 1.25433 0
M  V30 8964 H 821.523 1.418 2.78027 0
M  V30 8965 N 821.824 -1.22873 0.986916 0
M  V30 8966 C 822.734 -2.28277 0.540978 0
M  V30 8967 C 823.75 -1.69164 -0.407363 0
M  V30 8968 O 824.926 -1.99504 -0.275674 0
M  V30 8969 C 821.991 -3.46404 -0.143181 0
M  V30 8970 C 821.052 -4.20854 0.847375 0
M  V30 8971 C 820.285 -5.33341 0.19577 0
M  V30 8972 O 820.508 -5.61356 -1.0117 0
M  V30 8973 O 819.442 -5.95169 0.897623 0
M  V30 8974 H 823.268 -2.68578 1.41773 0
M  V30 8975 H 820.853 -1.28927 0.754867 0
M  V30 8976 H 822.735 -4.18096 -0.526676 0
M  V30 8977 H 821.41 -3.08041 -0.994593 0
M  V30 8978 H 820.317 -3.51459 1.28169 0
M  V30 8979 H 821.65 -4.63082 1.6678 0
M  V30 8980 N 823.302 -0.75937 -1.38099 0
M  V30 8981 C 824.55 -0.317485 -1.99591 0
M  V30 8982 C 824.871 1.10628 -1.60581 0
M  V30 8983 O 824.141 1.7575 -0.865378 0
M  V30 8984 H 822.721 -0.114397 -0.738189 0
M  V30 8985 H 825.383 -0.974749 -1.68774 0
M  V30 8986 H 824.479 -0.385227 -3.09713 0
M  V30 8987 N 824.78 1.49157 -0.508906 0
M  V30 8988 C 825.69 2.33045 0.269656 0
M  V30 8989 C 826.706 1.45143 0.959662 0
M  V30 8990 O 827.882 1.78155 0.939295 0
M  V30 8991 C 824.947 3.20772 1.31554 0
M  V30 8992 C 824.008 4.24531 0.638131 0
M  V30 8993 C 823.241 5.08065 1.63418 0
M  V30 8994 O 823.464 4.93238 2.86483 0
M  V30 8995 O 822.398 5.90117 1.18516 0
M  V30 8996 H 826.224 3.00821 -0.417183 0
M  V30 8997 H 823.809 1.46938 -0.270119 0
M  V30 8998 H 825.691 3.75095 1.92047 0
M  V30 8999 H 824.366 2.55681 1.98516 0
M  V30 9000 H 823.273 3.74099 -0.00674357 0
M  V30 9001 H 824.606 4.92199 0.0108155 0
M  V30 9002 N 826.258 0.243083 1.55714 0
M  V30 9003 C 827.486 -0.386971 2.03249 0
M  V30 9004 C 827.901 -1.51812 1.12243 0
M  V30 9005 O 827.258 -1.81992 0.136119 0
M  V30 9006 C 827.309 -0.898361 3.5016 0
M  V30 9007 O 827.03 0.187708 4.37698 0
M  V30 9008 C 828.531 -1.59949 4.13438 0
M  V30 9009 H 825.751 -0.0923981 0.664608 0
M  V30 9010 H 828.295 0.365832 2.01201 0
M  V30 9011 H 826.45 -1.60136 3.52754 0
M  V30 9012 H 826.864 -0.200001 5.24119 0
M  V30 9013 H 828.338 -1.90907 5.17937 0
M  V30 9014 H 828.815 -2.52014 3.59702 0
M  V30 9015 H 829.421 -0.941163 4.14756 0
M  V30 9016 N 827.736 -1.57571 -0.0300757 0
M  V30 9017 C 828.699 -2.05468 -1.01565 0
M  V30 9018 C 829.699 -0.958628 -1.29101 0
M  V30 9019 O 830.889 -1.22228 -1.24121 0
M  V30 9020 C 828.021 -2.47077 -2.34874 0
M  V30 9021 H 829.214 -2.93797 -0.601936 0
M  V30 9022 H 826.767 -1.53828 -0.276878 0
M  V30 9023 H 827.502 -1.61901 -2.80996 0
M  V30 9024 H 827.287 -3.27097 -2.16218 0
M  V30 9025 H 828.777 -2.84564 -3.05635 0
M  V30 9026 N 829.214 0.302327 -1.54673 0
M  V30 9027 C 830.46 1.03924 -1.74149 0
M  V30 9028 C 830.793 1.86968 -0.525041 0
M  V30 9029 O 830.068 1.88538 0.477868 0
M  V30 9030 C 830.351 1.94633 -3.02969 0
M  V30 9031 C 830.204 1.14778 -4.34909 0
M  V30 9032 C 831.523 2.93826 -3.27649 0
M  V30 9033 H 828.642 0.376405 -0.633631 0
M  V30 9034 H 831.284 0.314007 -1.87387 0
M  V30 9035 H 829.434 2.56471 -2.91813 0
M  V30 9036 H 831.106 0.552363 -4.57981 0
M  V30 9037 H 829.349 0.450462 -4.31455 0
M  V30 9038 H 830.02 1.81495 -5.21309 0
M  V30 9039 H 832.496 2.42117 -3.38406 0
M  V30 9040 H 831.372 3.54462 -4.19104 0
M  V30 9041 H 831.633 3.67416 -2.45882 0
M  V30 9042 N 830.692 1.47107 0.565454 0
M  V30 9043 C 831.622 1.61846 1.68309 0
M  V30 9044 C 832.603 0.468159 1.63531 0
M  V30 9045 O 833.788 0.696504 1.8128 0
M  V30 9046 C 830.918 1.62474 3.06952 0
M  V30 9047 C 829.872 2.76649 3.26572 0
M  V30 9048 C 829.198 2.62345 4.65917 0
M  V30 9049 C 830.498 4.18319 3.12741 0
M  V30 9050 H 832.192 2.55407 1.5623 0
M  V30 9051 H 829.738 1.22916 0.750179 0
M  V30 9052 H 831.691 1.71378 3.84977 0
M  V30 9053 H 830.415 0.654692 3.19971 0
M  V30 9054 H 829.074 2.67242 2.50952 0
M  V30 9055 H 828.722 1.63386 4.75725 0
M  V30 9056 H 828.422 3.38936 4.79996 0
M  V30 9057 H 829.946 2.73165 5.46089 0
M  V30 9058 H 831.36 4.28745 3.80593 0
M  V30 9059 H 829.757 4.95632 3.38333 0
M  V30 9060 H 830.827 4.37263 2.09592 0
M  V30 9061 N 832.17 -0.811516 1.35101 0
M  V30 9062 C 833.118 -1.94449 1.27642 0
M  V30 9063 C 834.112 -1.68522 0.172287 0
M  V30 9064 O 835.318 -1.76799 0.337967 0
M  V30 9065 H 831.693 -0.638776 0.396824 0
M  V30 9066 H 833.664 -1.97861 2.23369 0
M  V30 9067 C 832.413 -3.31139 1.06029 0
M  V30 9068 H 831.736 -3.51644 1.90227 0
M  V30 9069 H 833.176 -4.10831 1.0485 0
M  V30 9070 C 831.635 -3.36072 -0.236039 0
M  V30 9071 O 832.165 -3.82292 -1.23353 0
M  V30 9072 N 830.371 -2.89314 -0.273107 0
M  V30 9073 H 829.918 -2.51893 0.539211 0
M  V30 9074 H 829.876 -2.92996 -1.1402 0
M  V30 9075 N 833.648 -1.19017 -1.03309 0
M  V30 9076 C 834.58 -0.881847 -2.11556 0
M  V30 9077 C 835.593 0.123711 -1.62329 0
M  V30 9078 O 836.782 -0.105141 -1.7819 0
M  V30 9079 C 833.882 -0.297634 -3.37591 0
M  V30 9080 C 833.055 -1.35072 -4.16022 0
M  V30 9081 C 832.114 -0.780812 -5.20375 0
M  V30 9082 O 831.14 -1.45745 -5.50224 0
M  V30 9083 N 832.342 0.417964 -5.78993 0
M  V30 9084 H 835.107 -1.81359 -2.38598 0
M  V30 9085 H 832.668 -1.0916 -1.19565 0
M  V30 9086 H 834.66 0.097374 -4.04583 0
M  V30 9087 H 833.23 0.538299 -3.0793 0
M  V30 9088 H 832.45 -1.92074 -3.4424 0
M  V30 9089 H 833.738 -2.06044 -4.65213 0
M  V30 9090 H 833.136 0.985281 -5.57054 0
M  V30 9091 H 831.693 0.754802 -6.47415 0
M  V30 9092 N 835.127 1.22348 -0.993418 0
M  V30 9093 C 836.057 2.26584 -0.564088 0
M  V30 9094 C 837.038 1.65102 0.409298 0
M  V30 9095 O 838.223 1.91872 0.299819 0
M  V30 9096 C 835.353 3.47087 0.121554 0
M  V30 9097 C 834.307 4.21009 -0.770429 0
M  V30 9098 C 833.633 5.34678 0.0481586 0
M  V30 9099 C 834.933 4.79636 -2.06752 0
M  V30 9100 H 836.627 2.62749 -1.43538 0
M  V30 9101 H 834.173 1.26303 -0.691628 0
M  V30 9102 H 836.126 4.19166 0.433303 0
M  V30 9103 H 834.85 3.1002 1.0274 0
M  V30 9104 H 833.509 3.50764 -1.06583 0
M  V30 9105 H 833.157 4.93852 0.954933 0
M  V30 9106 H 832.857 5.85061 -0.545641 0
M  V30 9107 H 834.381 6.09573 0.353991 0
M  V30 9108 H 835.795 5.43654 -1.81969 0
M  V30 9109 H 834.192 5.4036 -2.61019 0
M  V30 9110 H 835.262 3.99659 -2.74592 0
M  V30 9111 N 836.605 0.766683 1.37694 0
M  V30 9112 C 837.537 0.107798 2.28946 0
M  V30 9113 C 838.55 -0.669701 1.48387 0
M  V30 9114 O 839.739 -0.508629 1.711 0
M  V30 9115 C 836.839 -0.871084 3.27514 0
M  V30 9116 C 836.012 -0.148471 4.37148 0
M  V30 9117 C 835.071 -1.03998 5.1582 0
M  V30 9118 O 834.097 -0.505639 5.6695 0
M  V30 9119 N 835.299 -2.36679 5.3006 0
M  V30 9120 H 838.064 0.89154 2.86132 0
M  V30 9121 H 835.625 0.618593 1.49616 0
M  V30 9122 H 837.617 -1.47081 3.77027 0
M  V30 9123 H 836.187 -1.55582 2.71133 0
M  V30 9124 H 835.407 0.632117 3.89099 0
M  V30 9125 H 836.695 0.351045 5.07588 0
M  V30 9126 H 836.093 -2.82532 4.90094 0
M  V30 9127 H 834.65 -2.9167 5.82899 0
M  V30 9128 N 838.083 -1.48885 0.516809 0
M  V30 9129 C 838.993 -2.33185 -0.257293 0
M  V30 9130 C 840.009 -1.4565 -0.951952 0
M  V30 9131 O 841.185 -1.78651 -0.929834 0
M  V30 9132 C 838.25 -3.21465 -1.29851 0
M  V30 9133 C 837.311 -4.24863 -0.615608 0
M  V30 9134 C 836.544 -5.08925 -1.60722 0
M  V30 9135 O 836.767 -4.9475 -2.83863 0
M  V30 9136 O 835.701 -5.90737 -1.15384 0
M  V30 9137 H 839.527 -3.00596 0.433131 0
M  V30 9138 H 837.112 -1.46792 0.277908 0
M  V30 9139 H 838.994 -3.76108 -1.90055 0
M  V30 9140 H 837.669 -2.5673 -1.97158 0
M  V30 9141 H 836.576 -3.74091 0.0265829 0
M  V30 9142 H 837.909 -4.92198 0.0152871 0
M  V30 9143 N 839.561 -0.251338 -1.55583 0
M  V30 9144 C 840.508 0.646337 -2.21565 0
M  V30 9145 C 841.478 1.16796 -1.18102 0
M  V30 9146 O 842.663 1.22162 -1.46564 0
M  V30 9147 C 839.803 1.83557 -2.92234 0
M  V30 9148 C 838.916 1.35006 -4.10363 0
M  V30 9149 C 838.051 2.4992 -4.68736 0
M  V30 9150 C 837.09 1.98253 -5.79105 0
M  V30 9151 N 836.227 3.06551 -6.31642 0
M  V30 9152 H 841.067 0.0769881 -2.97901 0
M  V30 9153 H 838.604 0.026238 -1.47077 0
M  V30 9154 H 840.562 2.53425 -3.31408 0
M  V30 9155 H 839.192 2.37733 -2.18364 0
M  V30 9156 H 838.244 0.545274 -3.76472 0
M  V30 9157 H 839.556 0.931435 -4.90026 0
M  V30 9158 H 838.71 3.27823 -5.10507 0
M  V30 9159 H 837.449 2.95086 -3.88298 0
M  V30 9160 H 836.454 1.18822 -5.36807 0
M  V30 9161 H 837.679 1.54051 -6.61396 0
M  V30 9162 H 835.625 3.51143 -5.54107 0
M  V30 9163 H 835.542 2.69033 -7.06511 0
M  V30 9164 H 836.81 3.84499 -6.78071 0
M  V30 9165 N 841.039 1.57585 0.0217189 0
M  V30 9166 C 841.987 2.08134 1.03842 0
M  V30 9167 C 842.981 0.996662 1.36978 0
M  V30 9168 O 844.187 1.18149 1.35797 0
M  V30 9169 H 840.562 0.664298 0.352438 0
M  V30 9170 H 842.533 2.92583 0.58634 0
M  V30 9171 C 841.282 2.58218 2.32849 0
M  V30 9172 H 840.605 3.41302 2.08214 0
M  V30 9173 H 842.045 2.97289 3.02316 0
M  V30 9174 C 840.504 1.48664 3.02325 0
M  V30 9175 O 841.034 0.857075 3.9245 0
M  V30 9176 N 839.24 1.21938 2.63779 0
M  V30 9177 H 838.787 1.73319 1.90574 0
M  V30 9178 H 838.745 0.488523 3.10581 0
M  V30 9179 N 842.517 -0.29412 1.54831 0
M  V30 9180 C 843.467 -1.36476 1.82643 0
M  V30 9181 C 844.451 -1.45638 0.683984 0
M  V30 9182 O 845.643 -1.49675 0.944801 0
M  V30 9183 C 842.772 -2.72865 2.08326 0
M  V30 9184 C 841.858 -2.67898 3.28773 0
M  V30 9185 N 842.249 -2.32547 4.49172 0
M  V30 9186 C 840.547 -2.98991 3.30939 0
M  V30 9187 C 841.248 -2.37048 5.31209 0
M  V30 9188 N 840.224 -2.74679 4.69097 0
M  V30 9189 H 844.026 -1.08119 2.7329 0
M  V30 9190 H 841.54 -0.502718 1.54423 0
M  V30 9191 H 843.537 -3.5007 2.264 0
M  V30 9192 H 842.197 -3.02127 1.1895 0
M  V30 9193 H 843.208 -2.04883 4.7565 0
M  V30 9194 H 839.885 -3.33104 2.51691 0
M  V30 9195 H 841.275 -2.12457 6.37426 0
M  V30 9196 N 843.995 -1.47404 -0.557645 0
M  V30 9197 C 845.223 -1.57622 -1.34026 0
M  V30 9198 C 845.638 -0.226256 -1.87439 0
M  V30 9199 O 844.995 0.78043 -1.64971 0
M  V30 9200 C 845.046 -2.60111 -2.51047 0
M  V30 9201 O 844.767 -3.89866 -1.99841 0
M  V30 9202 C 846.268 -2.80508 -3.43264 0
M  V30 9203 H 843.488 -0.532271 -0.40857 0
M  V30 9204 H 846.032 -1.93019 -0.675555 0
M  V30 9205 H 844.187 -2.27648 -3.13457 0
M  V30 9206 H 844.601 -4.45864 -2.76234 0
M  V30 9207 H 846.075 -3.56084 -4.21792 0
M  V30 9208 H 846.552 -1.88314 -3.9678 0
M  V30 9209 H 847.158 -3.14166 -2.86671 0
M  V30 9210 N 845.473 0.80434 -1.35529 0
M  V30 9211 C 846.403 1.93086 -1.31301 0
M  V30 9212 C 847.384 1.69068 -0.187044 0
M  V30 9213 O 848.569 1.90399 -0.382359 0
M  V30 9214 C 845.699 3.29867 -1.0865 0
M  V30 9215 C 844.653 3.68373 -2.17911 0
M  V30 9216 C 843.979 5.0334 -1.80423 0
M  V30 9217 C 845.279 3.78516 -3.59893 0
M  V30 9218 H 846.973 1.96882 -2.25561 0
M  V30 9219 H 844.519 0.945841 -1.08581 0
M  V30 9220 H 846.472 4.08281 -1.04331 0
M  V30 9221 H 845.196 3.2642 -0.108359 0
M  V30 9222 H 843.855 2.92247 -2.21331 0
M  V30 9223 H 843.503 4.96399 -0.812213 0
M  V30 9224 H 843.203 5.30074 -2.53565 0
M  V30 9225 H 844.727 5.84191 -1.77633 0
M  V30 9226 H 846.141 4.47155 -3.58783 0
M  V30 9227 H 844.538 4.16721 -4.31814 0
M  V30 9228 H 845.608 2.8001 -3.95882 0
M  V30 9229 N 846.951 1.19563 1.02676 0
M  V30 9230 C 847.883 0.893054 2.11086 0
M  V30 9231 C 848.896 -0.115101 1.62393 0
M  V30 9232 O 850.085 0.11459 1.78132 0
M  V30 9233 C 847.185 0.315533 3.37428 0
M  V30 9234 C 846.358 1.37276 4.153 0
M  V30 9235 C 845.417 0.808398 5.19953 0
M  V30 9236 O 844.443 1.48661 5.49444 0
M  V30 9237 N 845.645 -0.387253 5.79207 0
M  V30 9238 H 848.41 1.82622 2.37633 0
M  V30 9239 H 845.971 1.09792 1.18984 0
M  V30 9240 H 847.963 -0.0759166 4.04629 0
M  V30 9241 H 846.533 -0.521961 3.08211 0
M  V30 9242 H 845.753 1.93897 3.43217 0
M  V30 9243 H 847.041 2.08509 4.64114 0
M  V30 9244 H 846.439 -0.955725 5.57568 0
M  V30 9245 H 844.996 -0.720457 6.47806 0
M  V30 9246 N 848.429 -1.21819 0.999893 0
M  V30 9247 C 849.339 -2.27691 0.565159 0
M  V30 9248 C 850.355 -1.69587 -0.389398 0
M  V30 9249 O 851.531 -1.99786 -0.254499 0
M  V30 9250 C 848.596 -3.46537 -0.106432 0
M  V30 9251 C 847.657 -4.19932 0.891964 0
M  V30 9252 C 846.89 -5.33103 0.252327 0
M  V30 9253 O 847.113 -5.62398 -0.952103 0
M  V30 9254 O 846.047 -5.94184 0.960698 0
M  V30 9255 H 849.873 -2.67059 1.44613 0
M  V30 9256 H 847.458 -1.28119 0.768499 0
M  V30 9257 H 849.34 -4.18631 -0.482301 0
M  V30 9258 H 848.015 -3.09079 -0.961865 0
M  V30 9259 H 846.922 -3.5008 1.3189 0
M  V30 9260 H 848.255 -4.61287 1.71682 0
M  V30 9261 N 849.908 -0.773975 -1.37286 0
M  V30 9262 C 850.84 -0.119938 -2.28886 0
M  V30 9263 C 851.853 0.661822 -1.48741 0
M  V30 9264 O 853.042 0.499548 -1.71367 0
M  V30 9265 C 850.142 0.853703 -3.27971 0
M  V30 9266 C 849.315 0.125286 -4.37221 0
M  V30 9267 C 848.374 1.01261 -5.16365 0
M  V30 9268 O 847.4 0.475565 -5.6721 0
M  V30 9269 N 848.602 2.33864 -5.31308 0
M  V30 9270 H 851.367 -0.906702 -2.85655 0
M  V30 9271 H 848.928 -0.626519 -1.49286 0
M  V30 9272 H 850.92 1.4508 -3.77801 0
M  V30 9273 H 849.49 1.54142 -2.71954 0
M  V30 9274 H 848.71 -0.652742 -3.88758 0
M  V30 9275 H 849.998 -0.377959 -5.07394 0
M  V30 9276 H 849.396 2.79929 -4.91585 0
M  V30 9277 H 847.953 2.88575 -5.84438 0
M  V30 9278 N 851.386 1.48609 -0.524698 0
M  V30 9279 C 852.632 2.02797 0.0113382 0
M  V30 9280 C 852.965 1.40147 1.34433 0
M  V30 9281 O 852.24 0.545368 1.86698 0
M  V30 9282 C 852.523 3.59832 0.138931 0
M  V30 9283 C 852.376 4.32971 -1.21886 0
M  V30 9284 C 853.695 4.3145 0.868265 0
M  V30 9285 H 850.814 0.736995 0.00264645 0
M  V30 9286 H 853.456 1.77388 -0.680704 0
M  V30 9287 H 851.606 3.81612 0.72834 0
M  V30 9288 H 853.278 4.22624 -1.84897 0
M  V30 9289 H 851.521 3.94597 -1.80211 0
M  V30 9290 H 852.192 5.41279 -1.08263 0
M  V30 9291 H 854.668 4.14468 0.368145 0
M  V30 9292 H 853.544 5.41025 0.926428 0
M  V30 9293 H 853.805 3.98358 1.91737 0
M  V30 9294 N 852.864 0.259585 1.55447 0
M  V30 9295 C 854.092 -0.365392 2.03648 0
M  V30 9296 C 854.507 -1.50613 1.13847 0
M  V30 9297 O 853.864 -1.81837 0.155414 0
M  V30 9298 C 853.915 -0.861172 3.51093 0
M  V30 9299 O 853.636 0.234121 4.37474 0
M  V30 9300 C 855.137 -1.55555 4.15111 0
M  V30 9301 H 852.357 -0.0853439 0.66555 0
M  V30 9302 H 854.901 0.387151 2.00802 0
M  V30 9303 H 853.056 -1.56385 3.54433 0
M  V30 9304 H 853.47 -0.1444 5.24301 0
M  V30 9305 H 854.944 -1.85403 5.19932 0
M  V30 9306 H 855.421 -2.48185 3.62355 0
M  V30 9307 H 856.027 -0.89712 4.15731 0
M  V30 9308 N 854.342 -1.57594 -0.0133615 0
M  V30 9309 C 855.274 -2.04402 -1.03695 0
M  V30 9310 C 856.287 -0.959546 -1.31516 0
M  V30 9311 O 857.476 -1.23659 -1.28727 0
M  V30 9312 C 854.576 -2.41766 -2.37491 0
M  V30 9313 C 853.749 -3.72785 -2.28802 0
M  V30 9314 C 852.808 -3.97165 -3.45176 0
M  V30 9315 O 851.834 -4.68013 -3.23963 0
M  V30 9316 N 853.036 -3.44021 -4.67579 0
M  V30 9317 H 855.801 -2.92833 -0.637874 0
M  V30 9318 H 853.362 -1.60647 -0.20101 0
M  V30 9319 H 855.354 -2.55201 -3.14093 0
M  V30 9320 H 853.924 -1.58924 -2.69188 0
M  V30 9321 H 853.144 -3.69555 -1.37197 0
M  V30 9322 H 854.432 -4.58704 -2.20154 0
M  V30 9323 H 853.83 -2.86623 -4.87713 0
M  V30 9324 H 852.387 -3.62808 -5.41492 0
M  V30 9325 N 855.82 0.285905 -1.54985 0
M  V30 9326 C 856.75 1.35752 -1.89983 0
M  V30 9327 C 857.731 1.52163 -0.760295 0
M  V30 9328 O 858.916 1.65421 -1.01733 0
M  V30 9329 C 856.046 2.71925 -2.16042 0
M  V30 9330 C 855 2.70261 -3.31878 0
M  V30 9331 C 854.326 4.09864 -3.43388 0
M  V30 9332 C 855.626 2.30667 -4.68604 0
M  V30 9333 H 857.32 1.06709 -2.79738 0
M  V30 9334 H 854.866 0.511884 -1.34595 0
M  V30 9335 H 856.819 3.46992 -2.39113 0
M  V30 9336 H 855.543 3.02523 -1.23074 0
M  V30 9337 H 854.202 1.97651 -3.08755 0
M  V30 9338 H 853.85 4.37664 -2.47909 0
M  V30 9339 H 853.55 4.09648 -4.21262 0
M  V30 9340 H 855.074 4.86689 -3.68736 0
M  V30 9341 H 856.488 2.95453 -4.91305 0
M  V30 9342 H 854.885 2.41637 -5.49301 0
M  V30 9343 H 855.955 1.25793 -4.68299 0
M  V30 9344 N 857.298 1.47698 0.54982 0
M  V30 9345 C 858.526 1.5833 1.33188 0
M  V30 9346 C 858.941 0.236193 1.87317 0
M  V30 9347 O 858.298 -0.77167 1.65383 0
M  V30 9348 C 858.349 2.61438 2.49664 0
M  V30 9349 O 858.07 3.9092 1.97771 0
M  V30 9350 C 859.571 2.82324 3.41772 0
M  V30 9351 H 856.791 0.53443 0.405741 0
M  V30 9352 H 859.335 1.93375 0.665309 0
M  V30 9353 H 857.49 2.29307 3.12245 0
M  V30 9354 H 857.904 4.47323 2.73866 0
M  V30 9355 H 859.378 3.58316 4.19897 0
M  V30 9356 H 859.855 1.90416 3.95776 0
M  V30 9357 H 860.461 3.15682 2.85 0
M  V30 9358 N 858.776 -0.797141 1.35954 0
M  V30 9359 C 859.686 -1.94088 1.31784 0
M  V30 9360 C 860.702 -1.72588 0.221227 0
M  V30 9361 O 861.878 -1.96256 0.452255 0
M  V30 9362 C 858.943 -3.28828 1.09878 0
M  V30 9363 C 858.004 -3.63158 2.28942 0
M  V30 9364 C 857.237 -4.91469 2.08072 0
M  V30 9365 O 857.46 -5.60616 1.05196 0
M  V30 9366 O 856.394 -5.24277 2.95664 0
M  V30 9367 H 860.22 -2.00554 2.28061 0
M  V30 9368 H 857.805 -0.936288 1.16422 0
M  V30 9369 H 859.687 -4.09473 0.995485 0
M  V30 9370 H 858.362 -3.23271 0.16659 0
M  V30 9371 H 857.269 -2.82851 2.44839 0
M  V30 9372 H 858.602 -3.7343 3.20641 0
M  V30 9373 N 860.254 -1.20106 -1.0204 0
M  V30 9374 C 861.201 -0.946468 -2.10501 0
M  V30 9375 C 862.171 0.121902 -1.65652 0
M  V30 9376 O 863.356 -0.0220244 -1.90787 0
M  V30 9377 C 860.496 -0.500499 -3.41451 0
M  V30 9378 C 859.609 -1.63659 -3.998 0
M  V30 9379 C 858.744 -1.14131 -5.18794 0
M  V30 9380 C 857.783 -2.25074 -5.69217 0
M  V30 9381 N 856.92 -1.76791 -6.79477 0
M  V30 9382 H 861.76 -1.87506 -2.31615 0
M  V30 9383 H 859.297 -0.934693 -1.13587 0
M  V30 9384 H 861.255 -0.223276 -4.16602 0
M  V30 9385 H 859.885 0.391099 -3.20422 0
M  V30 9386 H 858.937 -2.02882 -3.21781 0
M  V30 9387 H 860.249 -2.47213 -4.33229 0
M  V30 9388 H 859.403 -0.819826 -6.01135 0
M  V30 9389 H 858.142 -0.275615 -4.86921 0
M  V30 9390 H 857.147 -2.58043 -4.85483 0
M  V30 9391 H 858.372 -3.12114 -6.03127 0
M  V30 9392 H 856.318 -0.925428 -6.4944 0
M  V30 9393 H 856.235 -2.53928 -7.12079 0
M  V30 9394 H 857.503 -1.47631 -7.65392 0
M  V30 9395 N 861.732 1.21287 -1.00634 0
M  V30 9396 C 862.662 2.25973 -0.588089 0
M  V30 9397 C 863.643 1.65527 0.391764 0
M  V30 9398 O 864.828 1.92179 0.279452 0
M  V30 9399 C 861.958 3.47197 0.0847336 0
M  V30 9400 C 860.912 4.20168 -0.815039 0
M  V30 9401 C 860.238 5.34699 -0.00855393 0
M  V30 9402 C 861.538 4.77416 -2.11828 0
M  V30 9403 H 863.232 2.61212 -1.46317 0
M  V30 9404 H 860.778 1.25563 -0.704985 0
M  V30 9405 H 862.731 4.19602 0.388821 0
M  V30 9406 H 861.455 3.11092 0.994456 0
M  V30 9407 H 860.114 3.49614 -1.10297 0
M  V30 9408 H 859.762 4.94837 0.902499 0
M  V30 9409 H 859.462 5.84449 -0.607664 0
M  V30 9410 H 860.986 6.09914 0.289317 0
M  V30 9411 H 862.4 5.41694 -1.87725 0
M  V30 9412 H 860.797 5.37561 -2.66736 0
M  V30 9413 H 861.867 3.96724 -2.78816 0
M  V30 9414 N 863.21 0.781244 1.36873 0
M  V30 9415 C 864.157 0.172146 2.30157 0
M  V30 9416 C 865.127 -0.679328 1.51573 0
M  V30 9417 O 866.312 -0.629713 1.80109 0
M  V30 9418 C 863.452 -0.693534 3.38059 0
M  V30 9419 C 862.565 0.175586 4.31643 0
M  V30 9420 C 861.7 -0.695695 5.26625 0
M  V30 9421 C 860.739 0.17538 6.11849 0
M  V30 9422 N 859.876 -0.654416 6.99043 0
M  V30 9423 H 864.716 0.973133 2.81663 0
M  V30 9424 H 862.253 0.491469 1.38647 0
M  V30 9425 H 864.211 -1.21035 3.99257 0
M  V30 9426 H 862.841 -1.46003 2.87894 0
M  V30 9427 H 861.893 0.810295 3.7167 0
M  V30 9428 H 863.205 0.847107 4.91554 0
M  V30 9429 H 862.359 -1.27863 5.93073 0
M  V30 9430 H 861.098 -1.40087 4.67148 0
M  V30 9431 H 860.103 0.77078 5.4437 0
M  V30 9432 H 861.328 0.87803 6.734 0
M  V30 9433 H 859.274 -1.34403 6.42084 0
M  V30 9434 H 859.191 -0.0403998 7.55989 0
M  V30 9435 H 860.459 -1.22144 7.69871 0
M  V30 9436 N 864.689 -1.48329 0.532571 0
M  V30 9437 C 865.637 -2.31336 -0.242133 0
M  V30 9438 C 866.631 -1.41391 -0.933006 0
M  V30 9439 O 867.837 -1.58284 -0.857096 0
M  V30 9440 H 864.212 -0.745724 -0.0969536 0
M  V30 9441 H 866.183 -2.94555 0.477504 0
M  V30 9442 C 864.932 -3.23501 -1.27446 0
M  V30 9443 H 864.255 -3.92659 -0.752261 0
M  V30 9444 H 865.695 -3.84461 -1.78789 0
M  V30 9445 C 864.154 -2.45288 -2.30944 0
M  V30 9446 O 864.684 -2.17955 -3.37429 0
M  V30 9447 N 862.89 -2.06737 -2.04226 0
M  V30 9448 H 862.437 -2.29166 -1.17647 0
M  V30 9449 H 862.395 -1.54719 -2.73696 0
M  V30 9450 N 866.167 -0.267825 -1.55308 0
M  V30 9451 C 867.099 0.65591 -2.19614 0
M  V30 9452 C 868.112 1.12302 -1.17865 0
M  V30 9453 O 869.301 1.04618 -1.44628 0
M  V30 9454 C 866.401 1.90582 -2.80235 0
M  V30 9455 C 865.574 1.58673 -4.07605 0
M  V30 9456 C 864.633 2.68836 -4.52343 0
M  V30 9457 O 863.659 2.35331 -5.18274 0
M  V30 9458 N 864.861 3.98752 -4.21873 0
M  V30 9459 H 867.626 0.105566 -2.99514 0
M  V30 9460 H 865.187 -0.0886263 -1.61657 0
M  V30 9461 H 867.179 2.63561 -3.07112 0
M  V30 9462 H 865.749 2.3654 -2.04371 0
M  V30 9463 H 864.969 0.691113 -3.88094 0
M  V30 9464 H 866.257 1.34845 -4.90606 0
M  V30 9465 H 865.655 4.28797 -3.68985 0
M  V30 9466 H 864.212 4.68131 -4.53537 0
M  V30 9467 N 867.645 1.57599 0.00500368 0
M  V30 9468 C 868.87 1.95026 0.705663 0
M  V30 9469 C 869.295 0.869643 1.6679 0
M  V30 9470 O 868.653 -0.172659 1.80476 0
M  V30 9471 C 868.701 3.31545 1.4181 0
M  V30 9472 O 867.805 3.25495 2.53232 0
M  V30 9473 H 867.146 0.636808 0.188074 0
M  V30 9474 H 869.676 2.04547 -0.046696 0
M  V30 9475 H 869.686 3.66996 1.78265 0
M  V30 9476 H 868.361 4.09751 0.712543 0
M  V30 9477 H 866.938 3.01714 2.19142 0
M  V30 9478 N 869.123 -0.277682 1.55134 0
M  V30 9479 C 870.033 -1.36524 1.90783 0
M  V30 9480 C 871.049 -1.54283 0.804542 0
M  V30 9481 O 872.225 -1.68499 1.10318 0
M  V30 9482 C 869.29 -2.70524 2.16835 0
M  V30 9483 C 868.351 -2.61552 3.40424 0
M  V30 9484 C 867.584 -3.89162 3.65224 0
M  V30 9485 O 867.807 -4.89624 2.92616 0
M  V30 9486 O 866.741 -3.89647 4.58758 0
M  V30 9487 H 870.567 -1.0929 2.83354 0
M  V30 9488 H 868.152 -0.475799 1.41621 0
M  V30 9489 H 870.034 -3.49765 2.35038 0
M  V30 9490 H 868.709 -2.97555 1.27448 0
M  V30 9491 H 867.616 -1.80704 3.27562 0
M  V30 9492 H 868.949 -2.39472 4.30016 0
M  V30 9493 N 870.601 -1.47988 -0.541979 0
M  V30 9494 C 871.826 -1.59286 -1.32826 0
M  V30 9495 C 872.251 -0.24894 -1.86445 0
M  V30 9496 O 871.609 0.777581 -1.63778 0
M  V30 9497 C 871.657 -2.6334 -2.46343 0
M  V30 9498 O 870.761 -2.19667 -3.49028 0
M  V30 9499 H 870.102 -0.534543 -0.393903 0
M  V30 9500 H 872.632 -1.93885 -0.653427 0
M  V30 9501 H 872.642 -2.84238 -2.92699 0
M  V30 9502 H 871.317 -3.60913 -2.06675 0
M  V30 9503 H 869.894 -2.08932 -3.08872 0
M  V30 9504 N 872.079 0.78992 -1.36375 0
M  V30 9505 C 873.029 1.89227 -1.27189 0
M  V30 9506 C 874.013 1.60067 -0.163498 0
M  V30 9507 O 875.205 1.72507 -0.396262 0
M  V30 9508 C 872.334 3.26431 -1.06292 0
M  V30 9509 C 871.42 3.61602 -2.21596 0
M  V30 9510 N 871.811 3.68086 -3.4691 0
M  V30 9511 C 870.109 3.9166 -2.1335 0
M  V30 9512 C 870.81 3.99481 -4.22835 0
M  V30 9513 N 869.786 4.14438 -3.5177 0
M  V30 9514 H 873.588 1.92465 -2.22113 0
M  V30 9515 H 871.102 0.985414 -1.29087 0
M  V30 9516 H 873.099 4.05267 -0.97798 0
M  V30 9517 H 871.759 3.24468 -0.122676 0
M  V30 9518 H 872.77 3.50743 -3.81051 0
M  V30 9519 H 869.447 3.97626 -1.27279 0
M  V30 9520 H 870.837 4.11425 -5.31205 0
M  V30 9521 N 873.557 1.20646 1.01402 0
M  V30 9522 C 874.504 0.957618 2.09996 0
M  V30 9523 C 875.474 -0.113115 1.65714 0
M  V30 9524 O 876.659 0.032142 1.90773 0
M  V30 9525 C 873.799 0.5186 3.41181 0
M  V30 9526 C 872.912 1.65777 3.98926 0
M  V30 9527 C 872.047 1.16881 5.18182 0
M  V30 9528 C 871.086 2.2809 5.68015 0
M  V30 9529 N 870.223 1.80392 6.7853 0
M  V30 9530 H 875.063 1.88732 2.30617 0
M  V30 9531 H 872.6 0.940703 1.13089 0
M  V30 9532 H 874.558 0.245367 4.16478 0
M  V30 9533 H 873.188 -0.3741 3.20625 0
M  V30 9534 H 872.24 2.04586 3.207 0
M  V30 9535 H 873.552 2.49507 4.31912 0
M  V30 9536 H 872.706 0.851694 6.00692 0
M  V30 9537 H 871.445 0.301434 4.86768 0
M  V30 9538 H 870.45 2.60614 4.84108 0
M  V30 9539 H 871.675 3.15308 6.01463 0
M  V30 9540 H 869.621 0.959856 6.4894 0
M  V30 9541 H 869.538 2.57701 7.10722 0
M  V30 9542 H 870.806 1.51688 7.64598 0
M  V30 9543 N 875.035 -1.20752 1.01276 0
M  V30 9544 C 875.967 -2.22798 0.537917 0
M  V30 9545 C 876.98 -1.5836 -0.377638 0
M  V30 9546 O 878.169 -1.77624 -0.176599 0
M  V30 9547 C 875.269 -3.38068 -0.237364 0
M  V30 9548 C 874.442 -4.32095 0.679161 0
M  V30 9549 C 873.501 -5.26178 -0.0478676 0
M  V30 9550 O 872.527 -5.66305 0.573366 0
M  V30 9551 N 873.729 -5.65201 -1.32396 0
M  V30 9552 H 876.494 -2.64166 1.4155 0
M  V30 9553 H 874.055 -1.35254 0.889826 0
M  V30 9554 H 876.047 -3.98009 -0.73288 0
M  V30 9555 H 874.617 -2.95622 -1.0162 0
M  V30 9556 H 873.837 -3.70179 1.35505 0
M  V30 9557 H 875.125 -4.91842 1.30263 0
M  V30 9558 H 874.523 -5.34606 -1.84968 0
M  V30 9559 H 873.08 -6.27468 -1.76428 0
M  V30 9560 N 876.513 -0.788492 -1.36457 0
M  V30 9561 C 877.476 -0.192209 -2.28393 0
M  V30 9562 C 878.476 0.609916 -1.48784 0
M  V30 9563 O 879.666 0.431046 -1.68783 0
M  V30 9564 C 876.798 0.734096 -3.32902 0
M  V30 9565 H 877.991 -1.00284 -2.82636 0
M  V30 9566 H 875.544 -0.557852 -1.46006 0
M  V30 9567 H 876.279 1.5691 -2.83813 0
M  V30 9568 H 876.064 0.160875 -3.9177 0
M  V30 9569 H 877.554 1.1462 -4.01562 0
M  V30 9570 N 877.991 1.48044 -0.54043 0
M  V30 9571 C 878.923 2.2779 0.253854 0
M  V30 9572 C 879.936 1.35999 0.894883 0
M  V30 9573 O 881.125 1.60963 0.771563 0
M  V30 9574 C 878.225 3.09724 1.37566 0
M  V30 9575 C 877.398 4.29364 0.83459 0
M  V30 9576 C 876.457 4.93026 1.83881 0
M  V30 9577 O 875.483 5.51927 1.39159 0
M  V30 9578 N 876.685 4.86207 3.17149 0
M  V30 9579 H 879.45 2.96597 -0.430125 0
M  V30 9580 H 877.011 1.57487 -0.375423 0
M  V30 9581 H 879.003 3.49181 2.04584 0
M  V30 9582 H 877.573 2.43269 1.96314 0
M  V30 9583 H 876.793 3.94198 -0.0118878 0
M  V30 9584 H 878.081 5.06787 0.452155 0
M  V30 9585 H 877.479 4.39523 3.56141 0
M  V30 9586 H 876.036 5.29733 3.79771 0
M  V30 9587 N 879.47 0.276058 1.55163 0
M  V30 9588 C 880.38 -0.621066 2.2623 0
M  V30 9589 C 881.396 -1.16931 1.28853 0
M  V30 9590 O 882.572 -1.1994 1.61791 0
M  V30 9591 C 879.637 -1.78824 2.97023 0
M  V30 9592 C 878.698 -1.27657 4.09881 0
M  V30 9593 C 877.931 -2.38812 4.77289 0
M  V30 9594 O 878.154 -3.58188 4.43912 0
M  V30 9595 O 877.088 -2.06915 5.65217 0
M  V30 9596 H 880.914 -0.0453346 3.03666 0
M  V30 9597 H 878.499 0.0434275 1.49337 0
M  V30 9598 H 880.381 -2.46877 3.41511 0
M  V30 9599 H 879.056 -2.35104 2.22503 0
M  V30 9600 H 877.963 -0.56248 3.69847 0
M  V30 9601 H 879.296 -0.759509 4.86305 0
M  V30 9602 N 880.948 -1.576 0.00335426 0
M  V30 9603 C 881.896 -2.09759 -1.00517 0
M  V30 9604 C 882.89 -1.01833 -1.35375 0
M  V30 9605 O 884.096 -1.20294 -1.339 0
M  V30 9606 H 880.471 -0.669821 -0.341825 0
M  V30 9607 H 882.442 -2.93478 -0.539718 0
M  V30 9608 C 881.191 -2.6189 -2.28711 0
M  V30 9609 H 880.514 -3.44571 -2.02758 0
M  V30 9610 H 881.954 -3.02061 -2.97548 0
M  V30 9611 C 880.413 -1.53455 -2.99922 0
M  V30 9612 O 880.943 -0.919402 -3.91037 0
M  V30 9613 N 879.149 -1.2612 -2.61806 0
M  V30 9614 H 878.696 -1.76329 -1.87792 0
M  V30 9615 H 878.654 -0.537872 -3.09765 0
M  V30 9616 N 882.426 0.269451 -1.5528 0
M  V30 9617 C 883.356 1.33729 -1.91413 0
M  V30 9618 C 884.337 1.51348 -0.776391 0
M  V30 9619 O 885.522 1.64332 -1.03482 0
M  V30 9620 C 882.652 2.69618 -2.18914 0
M  V30 9621 C 881.606 2.66725 -3.34726 0
M  V30 9622 C 880.932 4.06199 -3.47716 0
M  V30 9623 C 882.232 2.25684 -4.71025 0
M  V30 9624 H 883.926 1.03736 -2.80854 0
M  V30 9625 H 881.472 0.497579 -1.3513 0
M  V30 9626 H 883.425 3.44436 -2.42779 0
M  V30 9627 H 882.149 3.01201 -1.26275 0
M  V30 9628 H 880.808 1.94365 -3.10834 0
M  V30 9629 H 880.456 4.3501 -2.52537 0
M  V30 9630 H 880.156 4.05157 -4.25583 0
M  V30 9631 H 881.68 4.8275 -3.73877 0
M  V30 9632 H 883.094 2.90225 -4.94411 0
M  V30 9633 H 881.491 2.35797 -5.51833 0
M  V30 9634 H 882.561 1.20819 -4.69607 0
M  V30 9635 N 883.904 1.48273 0.534124 0
M  V30 9636 C 884.854 1.58889 1.63519 0
M  V30 9637 C 885.838 0.44626 1.54588 0
M  V30 9638 O 887.03 0.697474 1.62679 0
M  V30 9639 C 884.159 1.62787 3.0225 0
M  V30 9640 C 883.245 2.82515 3.16301 0
M  V30 9641 N 883.636 4.06977 3.00338 0
M  V30 9642 C 881.934 2.7976 3.47347 0
M  V30 9643 C 882.635 4.87283 3.17694 0
M  V30 9644 N 881.611 4.20024 3.45081 0
M  V30 9645 H 885.413 2.52869 1.49781 0
M  V30 9646 H 882.927 1.44587 0.739479 0
M  V30 9647 H 884.924 1.68486 3.81337 0
M  V30 9648 H 883.584 0.699201 3.17082 0
M  V30 9649 H 884.595 4.37479 2.77186 0
M  V30 9650 H 881.272 1.96132 3.68563 0
M  V30 9651 H 882.662 5.96047 3.10126 0
M  V30 9652 N 885.382 -0.782676 1.36792 0
M  V30 9653 C 886.659 -1.52939 1.21939 0
M  V30 9654 C 887.039 -2.10228 -0.191639 0
M  V30 9655 O 886.387 -1.94574 -1.19805 0
M  V30 9656 C 886.597 -2.61898 2.30674 0
M  V30 9657 C 887.945 -3.29598 2.67676 0
M  V30 9658 O 888.969 -2.72186 2.29768 0
M  V30 9659 O 887.828 -4.3337 3.32946 0
M  V30 9660 H 884.922 -0.676856 0.47518 0
M  V30 9661 H 887.468 -0.82058 1.48542 0
M  V30 9662 H 886.24 -2.17607 3.25212 0
M  V30 9663 H 885.863 -3.40391 2.05475 0
M  V30 9664 N 886.86 -1.21182 -1.00761 0
M  V30 9665 C 887.792 -0.926523 -2.09638 0
M  V30 9666 C 888.805 0.0892511 -1.62555 0
M  V30 9667 O 889.994 -0.142915 -1.77927 0
M  V30 9668 C 887.094 -0.369175 -3.36883 0
M  V30 9669 C 886.267 -1.43866 -4.13063 0
M  V30 9670 C 885.326 -0.891015 -5.18601 0
M  V30 9671 O 884.352 -1.57384 -5.47009 0
M  V30 9672 N 885.554 0.295057 -5.7975 0
M  V30 9673 H 888.319 -1.8638 -2.34697 0
M  V30 9674 H 885.88 -1.11671 -1.17223 0
M  V30 9675 H 887.872 0.011534 -4.04698 0
M  V30 9676 H 886.442 0.472861 -3.09003 0
M  V30 9677 H 885.662 -1.99332 -3.40089 0
M  V30 9678 H 886.95 -2.15866 -4.60738 0
M  V30 9679 H 886.348 0.8669 -5.59018 0
M  V30 9680 H 884.905 0.617306 -6.4887 0
M  V30 9681 N 888.338 1.20213 -1.01915 0
M  V30 9682 C 889.584 1.89928 -0.711007 0
M  V30 9683 C 889.917 1.7881 0.75767 0
M  V30 9684 O 889.192 1.17399 1.55073 0
M  V30 9685 C 889.475 3.41225 -1.15053 0
M  V30 9686 C 889.328 3.61264 -2.67971 0
M  V30 9687 C 890.647 4.34108 -0.72377 0
M  V30 9688 H 887.766 0.689702 -0.259768 0
M  V30 9689 H 890.408 1.41557 -1.26734 0
M  V30 9690 H 888.558 3.82552 -0.677199 0
M  V30 9691 H 890.23 3.29173 -3.23176 0
M  V30 9692 H 888.473 3.04647 -3.08824 0
M  V30 9693 H 889.144 4.67331 -2.93779 0
M  V30 9694 H 891.62 4.00442 -1.13073 0
M  V30 9695 H 890.496 5.38581 -1.05931 0
M  V30 9696 H 890.757 4.40512 0.374424 0
M  V30 9697 N 889.816 0.795718 1.36037 0
M  V30 9698 C 890.748 0.156336 2.28666 0
M  V30 9699 C 891.761 -0.638075 1.49775 0
M  V30 9700 O 892.95 -0.472222 1.7214 0
M  V30 9701 C 890.05 -0.801417 3.29288 0
M  V30 9702 C 889.223 -0.0557118 4.37365 0
M  V30 9703 C 888.282 -0.930338 5.1791 0
M  V30 9704 O 887.308 -0.385266 5.67895 0
M  V30 9705 N 888.51 -2.25382 5.34961 0
M  V30 9706 H 891.275 0.952033 2.84177 0
M  V30 9707 H 888.836 0.650189 1.48271 0
M  V30 9708 H 890.828 -1.39051 3.80062 0
M  V30 9709 H 889.398 -1.49796 2.74372 0
M  V30 9710 H 888.618 0.714508 3.87671 0
M  V30 9711 H 889.906 0.458633 5.06729 0
M  V30 9712 H 889.304 -2.72073 4.95977 0
M  V30 9713 H 887.861 -2.79241 5.88955 0
M  V30 9714 N 891.294 -1.47756 0.548274 0
M  V30 9715 C 892.204 -2.33678 -0.207773 0
M  V30 9716 C 893.22 -1.47636 -0.920843 0
M  V30 9717 O 894.396 -1.80583 -0.89173 0
M  V30 9718 C 891.461 -3.24147 -1.23003 0
M  V30 9719 C 890.522 -4.26073 -0.52535 0
M  V30 9720 C 889.755 -5.12219 -1.4989 0
M  V30 9721 O 889.978 -5.0066 -2.73305 0
M  V30 9722 O 888.912 -5.93051 -1.02828 0
M  V30 9723 H 892.738 -2.99609 0.496794 0
M  V30 9724 H 890.323 -1.4617 0.308982 0
M  V30 9725 H 892.205 -3.80055 -1.82034 0
M  V30 9726 H 890.88 -2.60855 -1.91668 0
M  V30 9727 H 889.787 -3.7395 0.105927 0
M  V30 9728 H 891.12 -4.92054 0.119686 0
M  V30 9729 N 892.772 -0.284283 -1.55015 0
M  V30 9730 C 893.704 0.63258 -2.20298 0
M  V30 9731 C 894.717 1.11045 -1.1905 0
M  V30 9732 O 895.906 1.03078 -1.4573 0
M  V30 9733 C 893.006 1.87599 -2.82241 0
M  V30 9734 C 892.179 1.5434 -4.09265 0
M  V30 9735 C 891.238 2.64023 -4.55169 0
M  V30 9736 O 890.264 2.29821 -5.20741 0
M  V30 9737 N 891.466 3.94255 -4.26079 0
M  V30 9738 H 894.231 0.0737928 -2.99609 0
M  V30 9739 H 891.792 -0.105767 -1.61554 0
M  V30 9740 H 893.784 2.60289 -3.0989 0
M  V30 9741 H 892.354 2.3436 -2.06868 0
M  V30 9742 H 891.574 0.649912 -3.88806 0
M  V30 9743 H 892.862 1.29634 -4.92009 0
M  V30 9744 H 892.26 4.24859 -3.73512 0
M  V30 9745 H 890.817 4.63295 -4.58477 0
M  V30 9746 N 894.251 1.57596 -0.0117121 0
M  V30 9747 C 895.198 2.09153 0.975897 0
M  V30 9748 C 896.168 0.989579 1.33404 0
M  V30 9749 O 897.353 1.26273 1.43038 0
M  V30 9750 C 894.493 2.60906 2.2588 0
M  V30 9751 C 893.606 3.85046 1.95866 0
M  V30 9752 C 892.741 4.25257 3.18323 0
M  V30 9753 C 891.78 5.42202 2.84049 0
M  V30 9754 N 890.917 5.77651 3.99079 0
M  V30 9755 H 895.757 2.93261 0.52931 0
M  V30 9756 H 893.294 1.44965 0.249691 0
M  V30 9757 H 895.252 2.88995 3.00895 0
M  V30 9758 H 893.882 1.79654 2.68187 0
M  V30 9759 H 892.934 3.63794 1.11168 0
M  V30 9760 H 894.246 4.70151 1.66611 0
M  V30 9761 H 893.4 4.5469 4.01674 0
M  V30 9762 H 892.139 3.38884 3.50726 0
M  V30 9763 H 891.144 5.1248 1.99107 0
M  V30 9764 H 892.369 6.3026 2.52881 0
M  V30 9765 H 890.315 4.94235 4.31356 0
M  V30 9766 H 890.232 6.57356 3.73388 0
M  V30 9767 H 891.5 6.11681 4.83183 0
M  V30 9768 N 895.729 -0.261212 1.5542 0
M  V30 9769 C 896.692 -1.30645 1.8832 0
M  V30 9770 C 897.692 -1.41782 0.758588 0
M  V30 9771 O 898.882 -1.40729 1.02669 0
M  V30 9772 C 896.014 -2.6862 2.09895 0
M  V30 9773 H 897.207 -1.02698 2.81768 0
M  V30 9774 H 894.76 -0.499838 1.48092 0
M  V30 9775 H 895.495 -3.0173 1.18868 0
M  V30 9776 H 895.28 -2.61921 2.91787 0
M  V30 9777 H 896.77 -3.44121 2.36581 0
M  V30 9778 N 897.207 -1.48554 -0.526253 0
M  V30 9779 C 898.157 -1.59753 -1.62674 0
M  V30 9780 C 899.141 -0.454452 -1.54349 0
M  V30 9781 O 900.333 -0.706091 -1.62306 0
M  V30 9782 C 897.462 -1.64388 -3.01383 0
M  V30 9783 C 896.548 -2.84188 -3.14798 0
M  V30 9784 N 896.939 -4.08564 -2.98176 0
M  V30 9785 C 895.237 -2.81599 -3.45859 0
M  V30 9786 C 895.938 -4.88961 -3.15106 0
M  V30 9787 N 894.914 -4.21848 -3.42849 0
M  V30 9788 H 898.716 -2.5366 -1.48438 0
M  V30 9789 H 896.23 -1.44977 -0.731801 0
M  V30 9790 H 898.227 -1.70505 -3.80439 0
M  V30 9791 H 896.887 -0.716006 -3.16707 0
M  V30 9792 H 897.898 -4.38943 -2.74862 0
M  V30 9793 H 894.575 -1.98083 -3.67518 0
M  V30 9794 H 895.965 -5.97683 -3.0696 0
M  V30 9795 N 898.685 0.775411 -1.37205 0
M  V30 9796 C 899.615 1.90258 -1.35367 0
M  V30 9797 C 900.596 1.68634 -0.222864 0
M  V30 9798 O 901.781 1.89545 -0.422659 0
M  V30 9799 C 898.911 3.27488 -1.15623 0
M  V30 9800 C 897.865 3.63668 -2.25676 0
M  V30 9801 C 897.191 4.994 -1.91059 0
M  V30 9802 C 898.491 3.70797 -3.67841 0
M  V30 9803 H 900.185 1.92053 -2.29687 0
M  V30 9804 H 897.731 0.922597 -1.10563 0
M  V30 9805 H 899.684 4.05976 -1.12968 0
M  V30 9806 H 898.408 3.26117 -0.177573 0
M  V30 9807 H 897.067 2.87486 -2.2748 0
M  V30 9808 H 896.715 4.94565 -0.917324 0
M  V30 9809 H 896.415 5.24576 -2.64751 0
M  V30 9810 H 897.939 5.80291 -1.89985 0
M  V30 9811 H 899.353 4.39444 -3.68187 0
M  V30 9812 H 897.75 4.07468 -4.40556 0
M  V30 9813 H 898.82 2.71549 -4.01732 0
M  V30 9814 N 900.163 1.21714 1.00117 0
M  V30 9815 C 901.579 0.97532 1.26332 0
M  V30 9816 C 901.779 -0.336029 1.98678 0
M  V30 9817 O 900.835 -1.06073 2.29139 0
M  V30 9818 C 902.148 2.16848 2.0832 0
M  V30 9819 C 903.696 2.21115 2.21533 0
M  V30 9820 C 904.171 3.3996 3.06906 0
M  V30 9821 N 905.662 3.40071 3.14494 0
M  V30 9822 C 906.397 4.28678 3.80818 0
M  V30 9823 N 905.893 5.2749 4.49139 0
M  V30 9824 N 907.686 4.16476 3.77497 0
M  V30 9825 H 899.837 2.06039 0.515897 0
M  V30 9826 H 902.1 0.902423 0.290408 0
M  V30 9827 H 901.806 3.119 1.62515 0
M  V30 9828 H 901.68 2.16226 3.09073 0
M  V30 9829 H 904.067 1.26616 2.66557 0
M  V30 9830 H 904.148 2.2578 1.20238 0
M  V30 9831 H 903.792 4.34755 2.62585 0
M  V30 9832 H 903.722 3.32534 4.08324 0
M  V30 9833 H 906.213 2.68563 2.65861 0
M  V30 9834 H 906.526 5.91397 4.97463 0
M  V30 9835 H 904.871 5.31412 4.47914 0
M  V30 9836 H 908.062 3.38539 3.23278 0
M  V30 9837 H 908.235 4.85739 4.28908 0
M  V30 9838 N 901.641 -1.19671 1.02551 0
M  V30 9839 C 902.604 -2.20987 0.608055 0
M  V30 9840 C 903.604 -1.5745 -0.326534 0
M  V30 9841 O 904.794 -1.73827 -0.114003 0
M  V30 9842 C 901.926 -3.4072 -0.11074 0
M  V30 9843 H 903.119 -2.59434 1.50446 0
M  V30 9844 H 900.672 -1.3329 0.816307 0
M  V30 9845 H 901.407 -3.07787 -1.02165 0
M  V30 9846 H 901.192 -3.88069 0.560772 0
M  V30 9847 H 902.682 -4.15776 -0.389848 0
M  V30 9848 N 903.119 -0.802921 -1.35613 0
M  V30 9849 C 904.082 -0.216422 -2.28176 0
M  V30 9850 C 905.082 0.594101 -1.49422 0
M  V30 9851 O 906.272 0.41312 -1.6923 0
M  V30 9852 C 903.404 0.698746 -3.33662 0
M  V30 9853 H 904.597 -1.03276 -2.81557 0
M  V30 9854 H 902.15 -0.573307 -1.45406 0
M  V30 9855 H 902.885 1.53891 -2.85461 0
M  V30 9856 H 902.67 0.119314 -3.91918 0
M  V30 9857 H 904.16 1.10354 -4.02755 0
M  V30 9858 N 904.597 1.47463 -0.556102 0
M  V30 9859 C 905.529 2.28046 0.22968 0
M  V30 9860 C 906.542 1.3694 0.880409 0
M  V30 9861 O 907.731 1.61773 0.754447 0
M  V30 9862 C 904.831 3.11165 1.34273 0
M  V30 9863 C 904.004 4.30225 0.789004 0
M  V30 9864 C 903.063 4.94948 1.78641 0
M  V30 9865 O 902.089 5.53372 1.33297 0
M  V30 9866 N 903.291 4.89543 3.11974 0
M  V30 9867 H 906.056 2.96125 -0.461558 0
M  V30 9868 H 903.617 1.5708 -0.392105 0
M  V30 9869 H 905.609 3.51331 2.00869 0
M  V30 9870 H 904.179 2.45337 1.93722 0
M  V30 9871 H 903.399 3.94163 -0.0536971 0
M  V30 9872 H 904.687 5.07238 0.398378 0
M  V30 9873 H 904.085 4.43275 3.51459 0
M  V30 9874 H 902.642 5.33732 3.74131 0
M  V30 9875 N 906.075 0.2925 1.54862 0
M  V30 9876 C 907.352 -0.371946 1.92031 0
M  V30 9877 C 907.732 -1.72363 1.21878 0
M  V30 9878 O 907.08 -2.25779 0.351573 0
M  V30 9879 C 907.29 -0.495027 3.45471 0
M  V30 9880 C 908.638 -0.769855 4.17562 0
M  V30 9881 O 909.662 -0.579168 3.5146 0
M  V30 9882 O 908.521 -1.13561 5.34571 0
M  V30 9883 H 905.615 -0.206463 0.800813 0
M  V30 9884 H 908.161 0.339933 1.6626 0
M  V30 9885 H 906.933 0.455528 3.88639 0
M  V30 9886 H 906.556 -1.2557 3.7725 0
M  V30 9887 N 907.553 -1.57587 0.0200696 0
M  V30 9888 C 908.969 -1.56018 -0.336237 0
M  V30 9889 C 909.169 -1.02478 -1.73495 0
M  V30 9890 O 908.225 -0.667487 -2.43518 0
M  V30 9891 C 909.538 -3.00079 -0.193112 0
M  V30 9892 C 911.086 -3.11863 -0.266557 0
M  V30 9893 C 911.561 -4.57747 -0.152326 0
M  V30 9894 N 913.052 -4.62726 -0.209596 0
M  V30 9895 C 913.787 -5.73217 -0.144855 0
M  V30 9896 N 913.283 -6.92794 -0.0295487 0
M  V30 9897 N 915.076 -5.61751 -0.198184 0
M  V30 9898 H 907.227 -1.90722 0.93482 0
M  V30 9899 H 909.49 -0.876909 0.360186 0
M  V30 9900 H 909.196 -3.43167 0.770036 0
M  V30 9901 H 909.07 -3.64593 -0.967029 0
M  V30 9902 H 911.457 -2.68693 -1.22016 0
M  V30 9903 H 911.538 -2.50087 0.53758 0
M  V30 9904 H 911.182 -5.01595 0.797817 0
M  V30 9905 H 911.112 -5.17491 -0.97521 0
M  V30 9906 H 913.603 -3.76713 -0.299229 0
M  V30 9907 H 913.916 -7.72799 0.0134071 0
M  V30 9908 H 912.261 -6.95 0.00510737 0
M  V30 9909 H 915.452 -4.67222 -0.286603 0
M  V30 9910 H 915.625 -6.47839 -0.144266 0
M  V30 9911 N 909.032 0.252966 -1.55557 0
M  V30 9912 C 910.278 0.983306 -1.77367 0
M  V30 9913 C 910.611 1.85203 -0.584258 0
M  V30 9914 O 909.886 1.89963 0.417644 0
M  V30 9915 C 910.169 1.84896 -3.09007 0
M  V30 9916 C 910.022 1.00883 -4.38341 0
M  V30 9917 C 911.341 2.83254 -3.36831 0
M  V30 9918 H 908.46 0.356056 -0.645286 0
M  V30 9919 H 911.102 0.254232 -1.88291 0
M  V30 9920 H 909.252 2.47058 -2.99825 0
M  V30 9921 H 910.924 0.40638 -4.59507 0
M  V30 9922 H 909.167 0.31297 -4.3267 0
M  V30 9923 H 909.838 1.64818 -5.2682 0
M  V30 9924 H 912.314 2.31228 -3.45937 0
M  V30 9925 H 911.19 3.40949 -4.30169 0
M  V30 9926 H 911.451 3.59407 -2.57447 0
M  V30 9927 N 910.51 1.48831 0.518367 0
M  V30 9928 C 911.44 1.67119 1.63075 0
M  V30 9929 C 912.421 0.519948 1.61958 0
M  V30 9930 O 913.606 0.753824 1.78972 0
M  V30 9931 C 910.736 1.72158 3.01627 0
M  V30 9932 C 909.69 2.86898 3.17606 0
M  V30 9933 C 909.016 2.77035 4.57335 0
M  V30 9934 C 910.316 4.28057 2.99274 0
M  V30 9935 H 912.01 2.60248 1.48025 0
M  V30 9936 H 909.556 1.2524 0.710694 0
M  V30 9937 H 911.509 1.83539 3.7933 0
M  V30 9938 H 910.233 0.756157 3.17726 0
M  V30 9939 H 908.892 2.75091 2.42323 0
M  V30 9940 H 908.54 1.78438 4.70286 0
M  V30 9941 H 908.24 3.54036 4.6897 0
M  V30 9942 H 909.764 2.904 5.37122 0
M  V30 9943 H 911.178 4.40636 3.6676 0
M  V30 9944 H 909.575 5.06145 3.22393 0
M  V30 9945 H 910.645 4.4371 1.95574 0
M  V30 9946 N 911.988 -0.768124 1.37614 0
M  V30 9947 C 913.213 -1.56239 1.36397 0
M  V30 9948 C 913.638 -1.8804 -0.0475839 0
M  V30 9949 O 912.996 -1.495 -1.02564 0
M  V30 9950 C 913.044 -2.84716 2.21289 0
M  V30 9951 O 912.148 -3.79249 1.62001 0
M  V30 9952 H 911.489 -0.473119 0.465891 0
M  V30 9953 H 914.019 -0.950415 1.81186 0
M  V30 9954 H 914.029 -3.33784 2.34632 0
M  V30 9955 H 912.704 -2.60899 3.2389 0
M  V30 9956 H 911.281 -3.37904 1.57719 0
M  V30 9957 N 913.466 -1.22244 -0.994698 0
M  V30 9958 C 914.396 -1.01513 -2.10279 0
M  V30 9959 C 915.377 0.0633365 -1.69982 0
M  V30 9960 O 916.562 -0.0985268 -1.9395 0
M  V30 9961 C 913.692 -0.59016 -3.42249 0
M  V30 9962 C 912.646 -1.61436 -3.96387 0
M  V30 9963 C 911.972 -1.04528 -5.24383 0
M  V30 9964 C 913.272 -3.00388 -4.27276 0
M  V30 9965 H 914.966 -1.94194 -2.2788 0
M  V30 9966 H 912.512 -0.935094 -1.09508 0
M  V30 9967 H 914.465 -0.432254 -4.19177 0
M  V30 9968 H 913.189 0.372308 -3.24471 0
M  V30 9969 H 911.848 -1.76001 -3.21589 0
M  V30 9970 H 911.496 -0.0742225 -5.02945 0
M  V30 9971 H 911.196 -1.72949 -5.61571 0
M  V30 9972 H 912.72 -0.898922 -6.03947 0
M  V30 9973 H 914.134 -2.89207 -4.95007 0
M  V30 9974 H 912.531 -3.65916 -4.75631 0
M  V30 9975 H 913.601 -3.50456 -3.35125 0
M  V30 9976 N 914.944 1.19125 -1.03184 0
M  V30 9977 C 915.854 2.26112 -0.625329 0
M  V30 9978 C 916.87 1.7056 0.344298 0
M  V30 9979 O 918.046 2.0039 0.20144 0
M  V30 9980 C 915.111 3.46697 0.0145169 0
M  V30 9981 C 914.172 4.17419 -1.00299 0
M  V30 9982 C 913.405 5.32247 -0.393581 0
M  V30 9983 O 913.628 5.64724 0.802659 0
M  V30 9984 O 912.562 5.91428 -1.1179 0
M  V30 9985 H 916.388 2.63131 -1.51643 0
M  V30 9986 H 913.973 1.26036 -0.802197 0
M  V30 9987 H 915.855 4.19762 0.371139 0
M  V30 9988 H 914.53 3.11521 0.879581 0
M  V30 9989 H 913.437 3.4646 -1.41125 0
M  V30 9990 H 914.77 4.56573 -1.83852 0
M  V30 9991 N 916.422 0.810101 1.35185 0
M  V30 9992 C 917.65 0.404696 2.02903 0
M  V30 9993 C 918.065 -0.985434 1.61042 0
M  V30 9994 O 917.422 -1.63557 0.809658 0
M  V30 9995 C 917.473 0.482493 3.58266 0
M  V30 9996 O 917.194 1.81782 3.98606 0
M  V30 9997 C 918.695 0.070345 4.43244 0
M  V30 9998 H 915.915 0.163972 0.650657 0
M  V30 9999 H 918.459 1.0947 1.72733 0
M  V30 10000 H 916.614 -0.159296 3.87072 0
M  V30 10001 H 917.028 1.78306 4.93262 0
M  V30 10002 H 918.502 0.175888 5.5172 0
M  V30 10003 H 918.979 -0.984724 4.28018 0
M  V30 10004 H 919.585 0.685427 4.1974 0
M  V30 10005 N 917.9 -1.47166 0.563914 0
M  V30 10006 C 919.125 -2.0735 0.0454698 0
M  V30 10007 C 919.55 -1.41281 -1.24182 0
M  V30 10008 O 918.908 -0.490084 -1.7455 0
M  V30 10009 C 918.956 -3.60378 -0.126453 0
M  V30 10010 O 918.06 -3.94934 -1.18746 0
M  V30 10011 H 917.401 -0.661773 0.0543377 0
M  V30 10012 H 919.931 -1.89086 0.781508 0
M  V30 10013 H 919.941 -4.06593 -0.338554 0
M  V30 10014 H 918.616 -4.07862 0.81373 0
M  V30 10015 H 917.193 -3.60455 -0.955318 0
M  V30 10016 N 919.378 -0.300708 -1.54705 0
M  V30 10017 C 920.624 0.309111 -2.0043 0
M  V30 10018 C 920.957 1.53562 -1.1888 0
M  V30 10019 O 920.232 1.92683 -0.265205 0
M  V30 10020 C 920.515 0.665995 -3.53888 0
M  V30 10021 C 920.368 -0.56963 -4.46178 0
M  V30 10022 C 921.687 1.49262 -4.14016 0
M  V30 10023 H 918.806 0.110878 -0.728612 0
M  V30 10024 H 921.448 -0.412748 -1.85463 0
M  V30 10025 H 919.598 1.281 -3.66773 0
M  V30 10026 H 921.27 -1.20811 -4.45199 0
M  V30 10027 H 919.513 -1.20292 -4.16788 0
M  V30 10028 H 920.184 -0.275785 -5.51311 0
M  V30 10029 H 922.66 0.972979 -4.04564 0
M  V30 10030 H 921.536 1.71111 -5.21548 0
M  V30 10031 H 921.797 2.48174 -3.65872 0
M  V30 10032 N 920.856 1.57574 -0.0284266 0
M  V30 10033 C 921.804 2.11332 0.971675 0
M  V30 10034 C 922.798 1.03974 1.33738 0
M  V30 10035 O 924.004 1.22409 1.31969 0
M  V30 10036 H 920.379 0.675174 0.331125 0
M  V30 10037 H 922.35 2.943 0.49296 0
M  V30 10038 C 921.099 2.65496 2.24516 0
M  V30 10039 H 920.422 3.47753 1.9725 0
M  V30 10040 H 921.862 3.06757 2.92705 0
M  V30 10041 C 920.321 1.58207 2.97443 0
M  V30 10042 O 920.851 0.981496 3.89525 0
M  V30 10043 N 919.057 1.30269 2.59766 0
M  V30 10044 H 918.604 1.79294 1.84963 0
M  V30 10045 H 918.562 0.587085 3.0887 0
M  V30 10046 N 922.334 -0.244713 1.55689 0
M  V30 10047 C 923.244 -1.32447 1.93636 0
M  V30 10048 C 924.26 -1.52541 0.837086 0
M  V30 10049 O 925.436 -1.66121 1.13867 0
M  V30 10050 C 922.501 -2.65864 2.22525 0
M  V30 10051 C 921.562 -2.54273 3.45896 0
M  V30 10052 C 920.795 -3.81327 3.73397 0
M  V30 10053 O 921.018 -4.83307 3.02936 0
M  V30 10054 O 919.952 -3.79829 4.66919 0
M  V30 10055 H 923.778 -1.03255 2.85608 0
M  V30 10056 H 921.363 -0.445652 1.42598 0
M  V30 10057 H 923.245 -3.447 2.42404 0
M  V30 10058 H 921.92 -2.94784 1.33731 0
M  V30 10059 H 920.827 -1.73715 3.31321 0
M  V30 10060 H 922.16 -2.30297 4.34999 0
M  V30 10061 N 923.813 -1.49104 -0.510467 0
M  V30 10062 C 924.743 -1.67981 -1.62187 0
M  V30 10063 C 925.724 -0.528529 -1.6168 0
M  V30 10064 O 926.909 -0.763305 -1.7857 0
M  V30 10065 C 924.039 -1.73755 -3.0071 0
M  V30 10066 C 922.993 -2.88579 -3.1608 0
M  V30 10067 C 922.319 -2.79457 -4.5586 0
M  V30 10068 C 923.619 -4.29638 -2.97 0
M  V30 10069 H 925.313 -2.61029 -1.46643 0
M  V30 10070 H 922.859 -1.25615 -0.704042 0
M  V30 10071 H 924.812 -1.85548 -3.78352 0
M  V30 10072 H 923.536 -0.772996 -3.17321 0
M  V30 10073 H 922.195 -2.76372 -2.40861 0
M  V30 10074 H 921.843 -1.80929 -4.69333 0
M  V30 10075 H 921.543 -3.56518 -4.67086 0
M  V30 10076 H 923.067 -2.93245 -5.35574 0
M  V30 10077 H 924.481 -4.42575 -3.64418 0
M  V30 10078 H 922.878 -5.07847 -3.19704 0
M  V30 10079 H 923.948 -4.44741 -1.93219 0
M  V30 10080 N 925.291 0.760815 -1.38019 0
M  V30 10081 C 926.239 1.89578 -1.34771 0
M  V30 10082 C 927.233 1.67766 -0.234714 0
M  V30 10083 O 928.439 1.75423 -0.403352 0
M  V30 10084 H 924.814 0.623608 -0.420258 0
M  V30 10085 H 926.785 1.89434 -2.30558 0
M  V30 10086 C 925.534 3.26976 -1.18246 0
M  V30 10087 H 924.857 3.44342 -2.03147 0
M  V30 10088 H 926.297 4.06657 -1.20026 0
M  V30 10089 C 924.756 3.36717 0.111145 0
M  V30 10090 O 925.286 3.86607 1.09079 0
M  V30 10091 N 923.492 2.90128 0.165542 0
M  V30 10092 H 923.039 2.49719 -0.632328 0
M  V30 10093 H 922.997 2.97026 1.03067 0
M  V30 10094 N 926.769 1.22769 0.988202 0
M  V30 10095 C 927.994 1.08239 1.76915 0
M  V30 10096 C 928.419 -0.362519 1.84574 0
M  V30 10097 O 927.777 -1.26202 1.30165 0
M  V30 10098 C 927.825 1.70363 3.17819 0
M  V30 10099 O 926.929 0.960484 4.01059 0
M  V30 10100 H 926.27 0.379872 0.544604 0
M  V30 10101 H 928.8 1.62663 1.24104 0
M  V30 10102 H 928.81 1.7528 3.6843 0
M  V30 10103 H 927.485 2.75505 3.1156 0
M  V30 10104 H 926.062 0.987667 3.59582 0
M  V30 10105 N 928.247 -1.18576 1.03814 0
M  V30 10106 C 929.179 -2.21607 0.585055 0
M  V30 10107 C 930.192 -1.59125 -0.343963 0
M  V30 10108 O 931.381 -1.77959 -0.138882 0
M  V30 10109 C 928.481 -3.38495 -0.165602 0
M  V30 10110 C 927.654 -4.30557 0.770662 0
M  V30 10111 C 926.713 -5.26161 0.0637534 0
M  V30 10112 O 925.739 -5.64961 0.693359 0
M  V30 10113 N 926.941 -5.67882 -1.20377 0
M  V30 10114 H 929.706 -2.61104 1.47121 0
M  V30 10115 H 927.267 -1.33336 0.918316 0
M  V30 10116 H 929.259 -3.99474 -0.648292 0
M  V30 10117 H 927.829 -2.97711 -0.953268 0
M  V30 10118 H 927.049 -3.67221 1.43326 0
M  V30 10119 H 928.337 -4.88969 1.40667 0
M  V30 10120 H 927.735 -5.38409 -1.73586 0
M  V30 10121 H 926.292 -6.31069 -1.63079 0
M  V30 10122 N 929.725 -0.817259 -1.34754 0
M  V30 10123 C 930.655 -0.249769 -2.3216 0
M  V30 10124 C 931.636 0.630663 -1.57977 0
M  V30 10125 O 932.821 0.558719 -1.85989 0
M  V30 10126 C 929.951 0.593825 -3.42186 0
M  V30 10127 C 928.905 -0.188997 -4.27583 0
M  V30 10128 C 928.231 0.776979 -5.29025 0
M  V30 10129 C 929.531 -1.39401 -5.03354 0
M  V30 10130 H 931.225 -1.06359 -2.79872 0
M  V30 10131 H 928.771 -0.512894 -1.34556 0
M  V30 10132 H 930.724 1.00097 -4.09339 0
M  V30 10133 H 929.448 1.44064 -2.93109 0
M  V30 10134 H 928.107 -0.577445 -3.62024 0
M  V30 10135 H 927.755 1.61959 -4.76212 0
M  V30 10136 H 927.455 0.257448 -5.87036 0
M  V30 10137 H 928.979 1.18211 -5.99048 0
M  V30 10138 H 930.393 -1.06117 -5.63393 0
M  V30 10139 H 928.79 -1.84878 -5.70912 0
M  V30 10140 H 929.86 -2.17515 -4.33377 0
M  V30 10141 N 931.203 1.46865 -0.571711 0
M  V30 10142 C 932.151 2.31897 0.180714 0
M  V30 10143 C 933.145 1.43815 0.895191 0
M  V30 10144 O 934.351 1.60501 0.814828 0
M  V30 10145 H 930.726 0.748032 0.077148 0
M  V30 10146 H 932.697 2.93185 -0.555432 0
M  V30 10147 C 931.446 3.26766 1.18824 0
M  V30 10148 H 930.769 3.94515 0.64789 0
M  V30 10149 H 932.209 3.89067 1.68532 0
M  V30 10150 C 930.668 2.51325 2.2436 0
M  V30 10151 O 931.198 2.26825 3.31532 0
M  V30 10152 N 929.404 2.12079 1.98673 0
M  V30 10153 H 928.951 2.32204 1.1153 0
M  V30 10154 H 928.909 1.61921 2.69498 0
M  V30 10155 N 932.681 0.308908 1.54543 0
M  V30 10156 C 933.591 -0.572939 2.27496 0
M  V30 10157 C 934.607 -1.14171 1.31305 0
M  V30 10158 O 935.783 -1.16481 1.64299 0
M  V30 10159 C 932.848 -1.72483 3.0075 0
M  V30 10160 C 931.909 -1.18934 4.12496 0
M  V30 10161 C 931.142 -2.28634 4.82247 0
M  V30 10162 O 931.365 -3.48691 4.5141 0
M  V30 10163 O 930.299 -1.94879 5.69478 0
M  V30 10164 H 934.125 0.0190877 3.03694 0
M  V30 10165 H 931.71 0.0750943 1.49211 0
M  V30 10166 H 933.592 -2.39578 3.46671 0
M  V30 10167 H 932.267 -2.30332 2.2744 0
M  V30 10168 H 931.174 -0.483904 3.70957 0
M  V30 10169 H 932.507 -0.656185 4.87806 0
M  V30 10170 N 934.159 -1.57557 0.0367827 0
M  V30 10171 C 935.384 -1.96828 -0.653707 0
M  V30 10172 C 935.809 -0.913559 -1.64425 0
M  V30 10173 O 935.167 0.124749 -1.8087 0
M  V30 10174 C 935.215 -3.35189 -1.32969 0
M  V30 10175 O 934.319 -3.32095 -2.44513 0
M  V30 10176 H 933.66 -0.64157 -0.171124 0
M  V30 10177 H 936.19 -2.04351 0.100912 0
M  V30 10178 H 936.2 -3.71593 -1.68472 0
M  V30 10179 H 934.875 -4.11496 -0.603654 0
M  V30 10180 H 933.452 -3.07418 -2.11065 0
M  V30 10181 N 935.637 0.236453 -1.55816 0
M  V30 10182 C 936.584 1.29289 -1.91188 0
M  V30 10183 C 937.554 1.47315 -0.767301 0
M  V30 10184 O 938.739 1.61128 -1.02189 0
M  V30 10185 C 935.879 2.64126 -2.22107 0
M  V30 10186 C 934.992 2.54022 -3.49423 0
M  V30 10187 C 934.127 3.81282 -3.69861 0
M  V30 10188 C 933.166 3.65839 -4.90743 0
M  V30 10189 N 932.303 4.85014 -5.07647 0
M  V30 10190 H 937.143 0.98424 -2.81277 0
M  V30 10191 H 934.68 0.474722 -1.39229 0
M  V30 10192 H 936.638 3.42626 -2.3804 0
M  V30 10193 H 935.268 2.93118 -1.35209 0
M  V30 10194 H 934.32 1.67036 -3.41765 0
M  V30 10195 H 935.632 2.38525 -4.38072 0
M  V30 10196 H 934.786 4.68226 -3.8581 0
M  V30 10197 H 933.525 3.99688 -2.79465 0
M  V30 10198 H 932.53 2.77279 -4.74759 0
M  V30 10199 H 933.755 3.48918 -5.82609 0
M  V30 10200 H 931.701 5.03762 -4.20191 0
M  V30 10201 H 931.618 4.72188 -5.90402 0
M  V30 10202 H 932.886 5.73427 -5.28017 0
M  V30 10203 N 937.115 1.49373 0.502552 0
M  V30 10204 C 938.025 1.68659 1.63068 0
M  V30 10205 C 939.041 0.569182 1.64427 0
M  V30 10206 O 940.217 0.843695 1.82876 0
M  V30 10207 C 937.282 1.74745 2.99441 0
M  V30 10208 C 936.343 2.98311 3.08721 0
M  V30 10209 C 935.576 3.04097 4.38589 0
M  V30 10210 O 935.799 2.17519 5.27297 0
M  V30 10211 O 934.733 3.96544 4.52809 0
M  V30 10212 H 938.559 2.64226 1.49727 0
M  V30 10213 H 936.144 1.33096 0.67867 0
M  V30 10214 H 938.026 1.8111 3.80496 0
M  V30 10215 H 936.701 0.823565 3.13048 0
M  V30 10216 H 935.608 2.97465 2.2686 0
M  V30 10217 H 936.941 3.90174 3.00041 0
M  V30 10218 N 938.594 -0.753485 1.38421 0
M  V30 10219 C 939.541 -1.86723 1.35659 0
M  V30 10220 C 940.511 -1.64648 0.219121 0
M  V30 10221 O 941.696 -1.86313 0.411366 0
M  V30 10222 C 938.836 -3.24023 1.18758 0
M  V30 10223 C 937.949 -3.57928 2.41892 0
M  V30 10224 C 937.084 -4.84532 2.17721 0
M  V30 10225 C 936.123 -5.11224 3.36626 0
M  V30 10226 N 935.26 -6.29023 3.11889 0
M  V30 10227 H 940.1 -1.88419 2.30873 0
M  V30 10228 H 937.637 -0.920934 1.14705 0
M  V30 10229 H 939.595 -4.03252 1.06974 0
M  V30 10230 H 938.225 -3.21654 0.27182 0
M  V30 10231 H 937.277 -2.73541 2.64347 0
M  V30 10232 H 938.589 -3.73581 3.30513 0
M  V30 10233 H 937.743 -5.71704 2.03074 0
M  V30 10234 H 936.482 -4.71018 1.26465 0
M  V30 10235 H 935.487 -4.2252 3.51791 0
M  V30 10236 H 936.712 -5.26635 4.28757 0
M  V30 10237 H 934.658 -6.16832 2.2328 0
M  V30 10238 H 934.575 -6.45177 3.9406 0
M  V30 10239 H 935.843 -7.19083 3.00898 0
M  V30 10240 N 940.072 -1.23292 -0.981677 0
M  V30 10241 C 941.318 -1.06582 -1.72535 0
M  V30 10242 C 941.651 0.396538 -1.90108 0
M  V30 10243 O 940.926 1.29363 -1.45243 0
M  V30 10244 C 941.209 -1.7904 -3.12437 0
M  V30 10245 C 941.062 -3.32941 -3.02441 0
M  V30 10246 C 942.381 -1.55185 -4.11832 0
M  V30 10247 H 939.5 -0.388585 -0.626236 0
M  V30 10248 H 942.142 -1.51779 -1.14293 0
M  V30 10249 H 940.292 -1.40619 -3.62158 0
M  V30 10250 H 941.964 -3.80875 -2.60254 0
M  V30 10251 H 940.207 -3.62039 -2.38977 0
M  V30 10252 H 940.878 -3.78827 -4.0149 0
M  V30 10253 H 943.354 -1.88581 -3.70913 0
M  V30 10254 H 942.23 -2.08362 -5.07815 0
M  V30 10255 H 942.491 -0.486925 -4.3941 0
M  V30 10256 N 941.55 1.18024 -1.04442 0
M  V30 10257 C 942.775 1.92573 -0.770097 0
M  V30 10258 C 943.2 1.75871 0.667169 0
M  V30 10259 O 942.558 1.07136 1.46258 0
M  V30 10260 C 942.606 3.41904 -1.14602 0
M  V30 10261 O 941.71 4.11491 -0.273712 0
M  V30 10262 H 941.051 0.600636 -0.283076 0
M  V30 10263 H 943.581 1.49645 -1.39526 0
M  V30 10264 H 943.591 3.92623 -1.10956 0
M  V30 10265 H 942.266 3.53382 -2.19304 0
M  V30 10266 H 940.843 3.71059 -0.370124 0
M  V30 10267 N 943.028 0.824394 1.34319 0
M  V30 10268 C 943.96 0.204805 2.28283 0
M  V30 10269 C 944.973 -0.606162 1.51094 0
M  V30 10270 O 946.162 -0.435602 1.73103 0
M  V30 10271 C 943.262 -0.73139 3.30914 0
M  V30 10272 C 942.435 0.0370723 4.37384 0
M  V30 10273 C 941.494 -0.820272 5.19767 0
M  V30 10274 O 940.52 -0.264721 5.68584 0
M  V30 10275 N 941.722 -2.13984 5.39621 0
M  V30 10276 H 944.487 1.0121 2.82093 0
M  V30 10277 H 942.048 0.681494 1.46858 0
M  V30 10278 H 944.04 -1.30958 3.82926 0
M  V30 10279 H 942.61 -1.43943 2.77487 0
M  V30 10280 H 941.83 0.796578 3.86068 0
M  V30 10281 H 943.118 0.566014 5.05642 0
M  V30 10282 H 942.516 -2.61492 5.01636 0
M  V30 10283 H 941.073 -2.66685 5.94746 0
M  V30 10284 N 944.506 -1.46559 0.579492 0
M  V30 10285 C 945.436 -2.33059 -0.143437 0
M  V30 10286 C 946.417 -1.4515 -0.886868 0
M  V30 10287 O 947.602 -1.73973 -0.862961 0
M  V30 10288 C 944.732 -3.27364 -1.15973 0
M  V30 10289 C 943.686 -4.24689 -0.531348 0
M  V30 10290 C 943.012 -5.08479 -1.65388 0
M  V30 10291 C 944.312 -5.1961 0.529391 0
M  V30 10292 H 946.006 -2.93753 0.578762 0
M  V30 10293 H 943.552 -1.41256 0.279775 0
M  V30 10294 H 945.505 -3.86732 -1.67382 0
M  V30 10295 H 944.229 -2.64771 -1.91217 0
M  V30 10296 H 942.888 -3.6658 -0.0383749 0
M  V30 10297 H 942.536 -4.42273 -2.3959 0
M  V30 10298 H 942.236 -5.74387 -1.23909 0
M  V30 10299 H 943.76 -5.70709 -2.17079 0
M  V30 10300 H 945.174 -5.73212 0.100506 0
M  V30 10301 H 943.571 -5.93843 0.86432 0
M  V30 10302 H 944.641 -4.63737 1.4169 0
M  V30 10303 N 945.984 -0.3171 -1.54377 0
M  V30 10304 C 947.261 0.341348 -1.92598 0
M  V30 10305 C 947.641 1.70402 -1.24605 0
M  V30 10306 O 946.989 2.25191 -0.387448 0
M  V30 10307 C 947.199 0.440003 -3.46215 0
M  V30 10308 C 948.547 0.703327 -4.18734 0
M  V30 10309 O 949.571 0.523181 -3.52337 0
M  V30 10310 O 948.43 1.05042 -5.3631 0
M  V30 10311 H 945.524 0.193696 -0.803997 0
M  V30 10312 H 948.07 -0.366341 -1.65699 0
M  V30 10313 H 946.842 -0.517299 -3.87866 0
M  V30 10314 H 946.465 1.19553 -3.792 0
M  V30 10315 N 947.462 1.57535 -0.0451378 0
M  V30 10316 C 948.711 1.91628 0.629415 0
M  V30 10317 C 949.024 0.924754 1.72359 0
M  V30 10318 O 950.23 1.15751 2.45589 0
M  V30 10319 C 948.686 3.40322 1.17084 0
M  V30 10320 C 948.294 4.47867 0.109101 0
M  V30 10321 C 950.038 3.83458 1.82099 0
M  V30 10322 C 947.945 5.87671 0.663072 0
M  V30 10323 H 946.875 0.715163 0.238868 0
M  V30 10324 H 949.526 1.83151 -0.113046 0
M  V30 10325 H 947.908 3.43783 1.96543 0
M  V30 10326 H 949.082 4.55988 -0.664201 0
M  V30 10327 H 947.397 4.14034 -0.443227 0
M  V30 10328 H 949.994 4.85273 2.2453 0
M  V30 10329 H 950.337 3.19379 2.67026 0
M  V30 10330 H 950.87 3.82488 1.09305 0
M  V30 10331 H 947.609 6.55332 -0.148423 0
M  V30 10332 H 947.129 5.83124 1.4045 0
M  V30 10333 H 948.808 6.36737 1.14785 0
M  V30 10334 N 948.94 -0.228186 1.55939 0
M  V30 10335 C 949.872 -1.30605 1.88348 0
M  V30 10336 C 950.885 -1.43375 0.771198 0
M  V30 10337 O 952.074 -1.44391 1.04945 0
M  V30 10338 C 949.174 -2.68248 2.07115 0
M  V30 10339 C 948.347 -2.77509 3.38094 0
M  V30 10340 C 947.406 -3.96121 3.46373 0
M  V30 10341 O 946.432 -3.8477 4.19453 0
M  V30 10342 N 947.634 -5.10132 2.77031 0
M  V30 10343 H 950.399 -1.03132 2.81396 0
M  V30 10344 H 947.96 -0.418245 1.56404 0
M  V30 10345 H 949.952 -3.45966 2.09976 0
M  V30 10346 H 948.522 -2.88348 1.20723 0
M  V30 10347 H 947.742 -1.8632 3.47388 0
M  V30 10348 H 949.03 -2.80662 4.2439 0
M  V30 10349 H 948.428 -5.22249 2.17424 0
M  V30 10350 H 946.985 -5.85916 2.85561 0
M  V30 10351 N 950.418 -1.49637 -0.494624 0
M  V30 10352 C 951.667 -1.58691 -1.24499 0
M  V30 10353 C 951.98 -0.281763 -1.9356 0
M  V30 10354 O 953.186 -0.250925 -2.70338 0
M  V30 10355 C 951.642 -2.8002 -2.26091 0
M  V30 10356 C 951.25 -4.17318 -1.6294 0
M  V30 10357 C 952.994 -2.98407 -3.01916 0
M  V30 10358 C 950.901 -5.29862 -2.62679 0
M  V30 10359 H 949.831 -0.590888 -0.468367 0
M  V30 10360 H 952.482 -1.76034 -0.518112 0
M  V30 10361 H 950.864 -2.56185 -3.01969 0
M  V30 10362 H 952.038 -4.51315 -0.930108 0
M  V30 10363 H 950.353 -4.04342 -0.994819 0
M  V30 10364 H 952.95 -3.79658 -3.76516 0
M  V30 10365 H 953.293 -2.09214 -3.5991 0
M  V30 10366 H 953.826 -3.22312 -2.33152 0
M  V30 10367 H 950.565 -6.21134 -2.09458 0
M  V30 10368 H 950.085 -5.00311 -3.3083 0
M  V30 10369 H 951.764 -5.59461 -3.2498 0
M  V30 10370 N 951.896 0.746133 -1.38819 0
M  V30 10371 C 952.843 1.86001 -1.36647 0
M  V30 10372 C 953.813 1.6453 -0.227849 0
M  V30 10373 O 954.998 1.86092 -0.421241 0
M  V30 10374 C 952.138 3.23388 -1.20474 0
M  V30 10375 C 951.251 3.5664 -2.43786 0
M  V30 10376 C 950.386 4.8337 -2.20287 0
M  V30 10377 C 949.425 5.09431 -3.39332 0
M  V30 10378 N 948.562 6.2736 -3.1522 0
M  V30 10379 H 953.402 1.87192 -2.31869 0
M  V30 10380 H 950.939 0.914838 -1.15192 0
M  V30 10381 H 952.897 4.02679 -1.09112 0
M  V30 10382 H 951.527 3.21505 -0.288874 0
M  V30 10383 H 950.579 2.72135 -2.65794 0
M  V30 10384 H 951.891 3.71823 -3.3249 0
M  V30 10385 H 951.045 5.70619 -2.06103 0
M  V30 10386 H 949.784 4.70341 -1.28961 0
M  V30 10387 H 948.789 4.20648 -3.54027 0
M  V30 10388 H 950.014 5.24354 -4.31544 0
M  V30 10389 H 947.96 6.15639 -2.26549 0
M  V30 10390 H 947.877 6.43078 -3.97476 0
M  V30 10391 H 949.145 7.17477 -3.04707 0
M  V30 10392 N 953.375 1.23811 0.975125 0
M  V30 10393 C 954.338 1.02505 2.05001 0
M  V30 10394 C 955.338 -0.0150084 1.60793 0
M  V30 10395 O 956.528 0.225246 1.72738 0
M  V30 10396 C 953.66 0.552087 3.364 0
M  V30 10397 H 954.853 1.979 2.25335 0
M  V30 10398 H 952.406 1.05929 1.1493 0
M  V30 10399 H 953.141 -0.405394 3.21756 0
M  V30 10400 H 952.926 1.30267 3.69828 0
M  V30 10401 H 954.416 0.423828 4.15444 0
M  V30 10402 N 954.853 -1.17469 1.05066 0
M  V30 10403 C 955.8 -2.21443 0.650512 0
M  V30 10404 C 956.77 -1.62441 -0.346702 0
M  V30 10405 O 957.955 -1.89305 -0.238404 0
M  V30 10406 C 955.095 -3.45087 0.0301014 0
M  V30 10407 C 954.208 -4.18385 1.07599 0
M  V30 10408 C 953.343 -5.29513 0.423038 0
M  V30 10409 C 952.382 -5.94596 1.45333 0
M  V30 10410 N 951.519 -6.97241 0.824623 0
M  V30 10411 H 956.359 -2.55025 1.54163 0
M  V30 10412 H 953.896 -1.25274 0.771032 0
M  V30 10413 H 955.854 -4.15754 -0.347032 0
M  V30 10414 H 954.484 -3.12093 -0.824481 0
M  V30 10415 H 953.536 -3.46446 1.57097 0
M  V30 10416 H 954.848 -4.62899 1.85813 0
M  V30 10417 H 954.002 -6.067 -0.00774975 0
M  V30 10418 H 952.741 -4.86129 -0.391092 0
M  V30 10419 H 951.746 -5.16142 1.89415 0
M  V30 10420 H 952.971 -6.40061 2.26934 0
M  V30 10421 H 950.917 -6.55993 0.0309804 0
M  V30 10422 H 950.834 -7.40059 1.54432 0
M  V30 10423 H 952.102 -7.78375 0.418567 0
M  V30 10424 N 956.331 -0.831506 -1.3388 0
M  V30 10425 C 957.559 -0.436925 -2.02234 0
M  V30 10426 C 957.974 0.959689 -1.6259 0
M  V30 10427 O 957.331 1.62248 -0.835576 0
M  V30 10428 C 957.382 -0.539429 -3.57453 0
M  V30 10429 O 957.103 -1.88101 -3.95664 0
M  V30 10430 C 958.604 -0.140852 -4.43076 0
M  V30 10431 H 955.824 -0.174302 -0.647966 0
M  V30 10432 H 958.368 -1.12204 -1.70969 0
M  V30 10433 H 956.523 0.0976959 -3.87277 0
M  V30 10434 H 956.937 -1.86131 -4.90363 0
M  V30 10435 H 958.411 -0.26364 -5.5137 0
M  V30 10436 H 958.888 0.916505 -4.29531 0
M  V30 10437 H 959.494 -0.752117 -4.18597 0
M  V30 10438 N 957.809 1.4625 -0.587256 0
M  V30 10439 C 958.719 2.34147 0.145744 0
M  V30 10440 C 959.735 1.50026 0.881376 0
M  V30 10441 O 960.911 1.82884 0.843539 0
M  V30 10442 C 957.976 3.27294 1.14366 0
M  V30 10443 C 957.037 4.27317 0.412199 0
M  V30 10444 C 956.27 5.16013 1.36257 0
M  V30 10445 O 956.493 5.0773 2.59934 0
M  V30 10446 O 955.427 5.95569 0.870681 0
M  V30 10447 H 959.253 2.98187 -0.576055 0
M  V30 10448 H 956.838 1.45299 -0.347628 0
M  V30 10449 H 958.72 3.84747 1.71894 0
M  V30 10450 H 957.395 2.65845 1.84684 0
M  V30 10451 H 956.302 3.73538 -0.205036 0
M  V30 10452 H 957.635 4.91564 -0.250104 0
M  V30 10453 N 959.287 0.325282 1.54207 0
M  V30 10454 C 960.217 -0.532574 2.27345 0
M  V30 10455 C 961.198 -1.11791 1.28206 0
M  V30 10456 O 962.383 -1.14272 1.57021 0
M  V30 10457 C 959.513 -1.69274 3.03255 0
M  V30 10458 C 958.467 -1.23662 4.09746 0
M  V30 10459 C 957.793 -2.48386 4.73506 0
M  V30 10460 C 959.093 -0.350244 5.21124 0
M  V30 10461 H 960.787 0.0775108 2.993 0
M  V30 10462 H 958.333 0.0387193 1.43948 0
M  V30 10463 H 960.286 -2.29917 3.53152 0
M  V30 10464 H 959.01 -2.32944 2.28921 0
M  V30 10465 H 957.669 -0.653106 3.60735 0
M  V30 10466 H 957.317 -3.10424 3.95786 0
M  V30 10467 H 957.017 -2.18558 5.45441 0
M  V30 10468 H 958.541 -3.09789 5.26178 0
M  V30 10469 H 959.955 -0.863011 5.66767 0
M  V30 10470 H 958.352 -0.14466 5.99926 0
M  V30 10471 H 959.422 0.618457 4.8094 0
M  V30 10472 N 960.765 -1.57509 0.0534917 0
M  V30 10473 C 961.695 -2.14698 -0.917999 0
M  V30 10474 C 962.676 -1.06924 -1.32292 0
M  V30 10475 O 963.861 -1.34875 -1.39723 0
M  V30 10476 C 960.991 -2.69383 -2.19203 0
M  V30 10477 C 959.945 -3.82161 -1.9271 0
M  V30 10478 C 959.271 -4.23373 -3.26587 0
M  V30 10479 C 960.571 -5.07199 -1.24686 0
M  V30 10480 H 962.265 -2.96125 -0.44165 0
M  V30 10481 H 959.811 -1.42446 -0.210993 0
M  V30 10482 H 961.764 -3.08031 -2.87567 0
M  V30 10483 H 960.488 -1.85151 -2.69048 0
M  V30 10484 H 959.147 -3.43989 -1.26757 0
M  V30 10485 H 958.795 -3.36089 -3.74237 0
M  V30 10486 H 958.495 -4.99385 -3.09658 0
M  V30 10487 H 960.019 -4.64623 -3.96178 0
M  V30 10488 H 961.433 -5.43279 -1.83088 0
M  V30 10489 H 959.83 -5.88369 -1.18076 0
M  V30 10490 H 960.9 -4.84386 -0.223227 0
M  V30 10491 N 962.243 0.219913 -1.56058 0
M  V30 10492 C 963.173 1.27572 -1.9557 0
M  V30 10493 C 964.154 1.48801 -0.824148 0
M  V30 10494 O 965.339 1.60957 -1.08658 0
M  V30 10495 C 962.469 2.62517 -2.27381 0
M  V30 10496 C 961.423 2.55941 -3.43042 0
M  V30 10497 C 960.749 3.94931 -3.60463 0
M  V30 10498 C 962.049 2.10584 -4.77966 0
M  V30 10499 H 963.743 0.947482 -2.84013 0
M  V30 10500 H 961.289 0.454337 -1.36645 0
M  V30 10501 H 963.242 3.36538 -2.53615 0
M  V30 10502 H 961.966 2.97031 -1.35794 0
M  V30 10503 H 960.625 1.84377 -3.1686 0
M  V30 10504 H 960.273 4.26756 -2.66249 0
M  V30 10505 H 959.973 3.91413 -4.38258 0
M  V30 10506 H 961.497 4.70611 -3.89046 0
M  V30 10507 H 962.911 2.74349 -5.03394 0
M  V30 10508 H 961.308 2.18122 -5.59055 0
M  V30 10509 H 962.378 1.05818 -4.73213 0
M  V30 10510 N 963.721 1.49897 0.486681 0
M  V30 10511 C 964.946 1.64106 1.26823 0
M  V30 10512 C 965.371 0.317967 1.85393 0
M  V30 10513 O 964.729 -0.71626 1.66551 0
M  V30 10514 C 964.777 2.72301 2.36399 0
M  V30 10515 O 963.881 2.32469 3.40634 0
M  V30 10516 H 963.222 0.548794 0.373793 0
M  V30 10517 H 965.752 1.96177 0.581017 0
M  V30 10518 H 965.762 2.94906 2.81948 0
M  V30 10519 H 964.437 3.68335 1.93137 0
M  V30 10520 H 963.014 2.20251 3.00905 0
M  V30 10521 N 965.199 -0.738761 1.39212 0
M  V30 10522 C 966.162 -1.83441 1.37412 0
M  V30 10523 C 967.162 -1.58484 0.271908 0
M  V30 10524 O 968.352 -1.65954 0.529609 0
M  V30 10525 C 965.484 -3.21167 1.143 0
M  V30 10526 H 966.677 -1.86441 2.34904 0
M  V30 10527 H 964.23 -0.942023 1.24722 0
M  V30 10528 H 964.965 -3.23829 0.174756 0
M  V30 10529 H 964.75 -3.40678 1.94116 0
M  V30 10530 H 966.24 -4.01231 1.15773 0
M  V30 10531 N 966.677 -1.24326 -0.968545 0
M  V30 10532 C 967.587 -1.05194 -2.09694 0
M  V30 10533 C 968.603 0.00701291 -1.73999 0
M  V30 10534 O 969.779 -0.190981 -2.00492 0
M  V30 10535 C 966.844 -0.658075 -3.40397 0
M  V30 10536 C 965.905 -1.79341 -3.90045 0
M  V30 10537 C 965.138 -1.41824 -5.14511 0
M  V30 10538 O 965.361 -0.307693 -5.69569 0
M  V30 10539 O 964.295 -2.24358 -5.58522 0
M  V30 10540 H 968.121 -1.99791 -2.2873 0
M  V30 10541 H 965.706 -1.03138 -1.08088 0
M  V30 10542 H 967.588 -0.449911 -4.18991 0
M  V30 10543 H 966.263 0.258782 -3.22664 0
M  V30 10544 H 965.17 -2.05632 -3.12516 0
M  V30 10545 H 966.503 -2.68901 -4.12254 0
M  V30 10546 N 968.156 1.1691 -1.05688 0
M  V30 10547 C 969.119 2.19297 -0.666433 0
M  V30 10548 C 970.119 1.5826 0.284674 0
M  V30 10549 O 971.309 1.74068 0.0678757 0
M  V30 10550 C 968.441 3.40894 0.0203656 0
M  V30 10551 H 969.634 2.55354 -1.57272 0
M  V30 10552 H 967.187 1.31078 -0.851359 0
M  V30 10553 H 967.922 3.10388 0.939686 0
M  V30 10554 H 967.707 3.86446 -0.663464 0
M  V30 10555 H 969.197 4.16664 0.279475 0
M  V30 10556 N 969.634 0.838594 1.33437 0
M  V30 10557 C 970.597 0.276843 2.27522 0
M  V30 10558 C 971.597 -0.554275 1.50945 0
M  V30 10559 O 972.787 -0.368107 1.70266 0
M  V30 10560 C 969.919 -0.610036 3.35397 0
M  V30 10561 H 971.112 1.10705 2.78719 0
M  V30 10562 H 968.665 0.611657 1.43835 0
M  V30 10563 H 969.4 -1.46269 2.89441 0
M  V30 10564 H 969.185 -0.0153615 3.92097 0
M  V30 10565 H 970.675 -0.996368 4.05539 0
M  V30 10566 N 971.112 -1.45937 0.595003 0
M  V30 10567 C 972.059 -2.30427 -0.131165 0
M  V30 10568 C 973.029 -1.41355 -0.872232 0
M  V30 10569 O 974.214 -1.70296 -0.860467 0
M  V30 10570 C 971.354 -3.26045 -1.13087 0
M  V30 10571 C 970.467 -4.30218 -0.391982 0
M  V30 10572 C 969.602 -5.12953 -1.3803 0
M  V30 10573 C 968.641 -6.08865 -0.628505 0
M  V30 10574 N 967.778 -6.84425 -1.56548 0
M  V30 10575 H 972.618 -2.91992 0.595359 0
M  V30 10576 H 970.155 -1.43895 0.305405 0
M  V30 10577 H 972.113 -3.79937 -1.72348 0
M  V30 10578 H 970.743 -2.66261 -1.82496 0
M  V30 10579 H 969.795 -3.79086 0.315895 0
M  V30 10580 H 971.107 -4.98418 0.195173 0
M  V30 10581 H 970.261 -5.71184 -2.04534 0
M  V30 10582 H 969 -4.44743 -2.00138 0
M  V30 10583 H 968.005 -5.49777 0.0502431 0
M  V30 10584 H 969.23 -6.79099 -0.012641 0
M  V30 10585 H 967.176 -6.18913 -2.17444 0
M  V30 10586 H 967.093 -7.48931 -1.03145 0
M  V30 10587 H 968.361 -7.47204 -2.22049 0
M  V30 10588 N 972.59 -0.333456 -1.54032 0
M  V30 10589 C 973.818 0.267813 -2.05159 0
M  V30 10590 C 974.233 1.4501 -1.20903 0
M  V30 10591 O 973.59 1.80888 -0.241994 0
M  V30 10592 C 973.641 0.69268 -3.54802 0
M  V30 10593 O 973.362 -0.442579 -4.35859 0
M  V30 10594 C 974.863 1.35572 -4.2206 0
M  V30 10595 H 972.083 0.0534924 -0.668864 0
M  V30 10596 H 974.627 -0.482515 -1.98726 0
M  V30 10597 H 972.782 1.39297 -3.6149 0
M  V30 10598 H 973.196 -0.105915 -5.24393 0
M  V30 10599 H 974.67 1.60385 -5.28186 0
M  V30 10600 H 975.147 2.30614 -3.73783 0
M  V30 10601 H 975.753 0.697748 -4.19537 0
M  V30 10602 N 974.068 1.57479 -0.061844 0
M  V30 10603 C 975.031 2.1104 0.894127 0
M  V30 10604 C 976.031 1.03227 1.23292 0
M  V30 10605 O 977.221 1.29256 1.16784 0
M  V30 10606 C 974.353 2.6035 2.20069 0
M  V30 10607 H 975.546 2.96807 0.429619 0
M  V30 10608 H 973.099 1.55181 0.18672 0
M  V30 10609 H 973.834 1.78008 2.71079 0
M  V30 10610 H 973.619 3.39146 1.9678 0
M  V30 10611 H 975.109 3.019 2.88525 0
M  V30 10612 N 975.546 -0.211634 1.56173 0
M  V30 10613 C 976.478 -1.286 1.89723 0
M  V30 10614 C 977.491 -1.42549 0.786361 0
M  V30 10615 O 978.68 -1.4327 1.06471 0
M  V30 10616 C 975.78 -2.66036 2.09948 0
M  V30 10617 C 974.953 -2.73908 3.41018 0
M  V30 10618 C 974.012 -3.92425 3.50555 0
M  V30 10619 O 973.038 -3.803 4.2351 0
M  V30 10620 N 974.24 -5.07165 2.82426 0
M  V30 10621 H 977.005 -1.00142 2.82474 0
M  V30 10622 H 974.566 -0.401633 1.56839 0
M  V30 10623 H 976.558 -3.43719 2.13634 0
M  V30 10624 H 975.128 -2.87052 1.23774 0
M  V30 10625 H 974.348 -1.82625 3.49345 0
M  V30 10626 H 975.636 -2.76145 4.27342 0
M  V30 10627 H 975.034 -5.19913 2.2295 0
M  V30 10628 H 973.591 -5.82855 2.9176 0
M  V30 10629 N 977.024 -1.50153 -0.478725 0
M  V30 10630 C 978.44 -1.3741 -0.811833 0
M  V30 10631 C 978.64 -0.424303 -1.96982 0
M  V30 10632 O 977.696 0.13588 -2.52134 0
M  V30 10633 C 979.009 -2.78616 -1.13108 0
M  V30 10634 C 980.557 -2.87477 -1.23798 0
M  V30 10635 C 981.032 -4.295 -1.5904 0
M  V30 10636 N 982.523 -4.32415 -1.66047 0
M  V30 10637 C 983.258 -5.39295 -1.94805 0
M  V30 10638 N 982.754 -6.56392 -2.21635 0
M  V30 10639 N 984.547 -5.26731 -1.96243 0
M  V30 10640 H 976.698 -2.10486 0.284531 0
M  V30 10641 H 978.961 -0.945786 0.0647585 0
M  V30 10642 H 978.667 -3.49921 -0.35334 0
M  V30 10643 H 978.541 -3.15382 -2.06915 0
M  V30 10644 H 980.928 -2.16396 -2.00641 0
M  V30 10645 H 981.009 -2.54264 -0.279888 0
M  V30 10646 H 980.653 -5.01115 -0.827404 0
M  V30 10647 H 980.583 -4.60194 -2.55987 0
M  V30 10648 H 983.074 -3.47975 -1.47383 0
M  V30 10649 H 983.387 -7.33658 -2.4283 0
M  V30 10650 H 981.732 -6.59579 -2.19043 0
M  V30 10651 H 984.923 -4.34249 -1.74773 0
M  V30 10652 H 985.096 -6.10115 -2.1832 0
M  V30 10653 N 978.502 0.731368 -1.39602 0
M  V30 10654 C 979.465 1.8271 -1.38383 0
M  V30 10655 C 980.465 1.58338 -0.280309 0
M  V30 10656 O 981.655 1.65671 -0.538402 0
M  V30 10657 C 978.787 3.20556 -1.16002 0
M  V30 10658 H 979.98 1.85193 -2.35889 0
M  V30 10659 H 977.533 0.935396 -1.2522 0
M  V30 10660 H 978.268 3.23732 -0.191927 0
M  V30 10661 H 978.053 3.39643 -1.9592 0
M  V30 10662 H 979.543 4.00612 -1.17899 0
M  V30 10663 N 979.98 1.24838 0.961938 0
M  V30 10664 C 981.257 0.99939 1.68141 0
M  V30 10665 C 981.637 -0.476588 2.0565 0
M  V30 10666 O 980.985 -1.45224 1.76415 0
M  V30 10667 C 981.195 1.92797 2.90913 0
M  V30 10668 C 982.543 2.20219 3.63027 0
M  V30 10669 O 983.567 1.90496 3.00981 0
M  V30 10670 O 982.426 2.70725 4.74731 0
M  V30 10671 H 979.52 0.37842 0.735342 0
M  V30 10672 H 982.066 1.35961 1.01551 0
M  V30 10673 H 980.838 2.92492 2.59931 0
M  V30 10674 H 980.461 1.57127 3.65235 0
M  V30 10675 N 981.458 -1.16348 1.06306 0
M  V30 10676 C 982.388 -2.2291 0.695234 0
M  V30 10677 C 983.369 -1.67208 -0.312343 0
M  V30 10678 O 984.554 -1.93293 -0.187442 0
M  V30 10679 C 981.684 -3.47205 0.0810149 0
M  V30 10680 C 980.638 -4.15801 1.01458 0
M  V30 10681 C 979.964 -5.3405 0.263656 0
M  V30 10682 C 981.264 -4.66766 2.34365 0
M  V30 10683 H 982.958 -2.53934 1.58613 0
M  V30 10684 H 980.504 -1.22056 0.76409 0
M  V30 10685 H 982.457 -4.2098 -0.18818 0
M  V30 10686 H 981.181 -3.15482 -0.844897 0
M  V30 10687 H 979.84 -3.43954 1.26852 0
M  V30 10688 H 979.488 -4.9858 -0.665378 0
M  V30 10689 H 979.188 -5.80885 0.88582 0
M  V30 10690 H 980.712 -6.106 0.00200994 0
M  V30 10691 H 982.126 -5.3212 2.13356 0
M  V30 10692 H 980.523 -5.24223 2.9208 0
M  V30 10693 H 981.593 -3.82969 2.97426 0
M  V30 10694 N 982.937 -0.845659 -1.3299 0
M  V30 10695 C 983.869 -0.241097 -2.27928 0
M  V30 10696 C 984.882 0.582048 -1.5204 0
M  V30 10697 O 986.071 0.408008 -1.73774 0
M  V30 10698 C 983.171 0.678652 -3.32035 0
M  V30 10699 C 982.344 -0.106652 -4.3727 0
M  V30 10700 C 981.403 0.737478 -5.21006 0
M  V30 10701 O 980.429 0.174231 -5.68933 0
M  V30 10702 N 981.631 2.05372 -5.42957 0
M  V30 10703 H 984.396 -1.05685 -2.80448 0
M  V30 10704 H 981.957 -0.704771 -1.45755 0
M  V30 10705 H 983.949 1.24849 -3.84961 0
M  V30 10706 H 982.519 1.3951 -2.79742 0
M  V30 10707 H 981.739 -0.857897 -3.84752 0
M  V30 10708 H 983.027 -0.646386 -5.04677 0
M  V30 10709 H 982.425 2.53478 -5.05733 0
M  V30 10710 H 980.982 2.5719 -5.98913 0
M  V30 10711 N 984.415 1.45619 -0.602734 0
M  V30 10712 C 985.363 2.32228 0.131484 0
M  V30 10713 C 986.357 1.45681 0.864484 0
M  V30 10714 O 987.563 1.62193 0.7806 0
M  V30 10715 H 983.938 0.7495 0.0612638 0
M  V30 10716 H 985.909 2.91941 -0.617496 0
M  V30 10717 C 984.658 3.29213 1.11866 0
M  V30 10718 H 983.981 3.95801 0.564061 0
M  V30 10719 H 985.421 3.92554 1.60242 0
M  V30 10720 C 983.88 2.56028 2.18978 0
M  V30 10721 O 984.41 2.33806 3.26646 0
M  V30 10722 N 982.616 2.16245 1.94129 0
M  V30 10723 H 982.163 2.34518 1.06579 0
M  V30 10724 H 982.121 1.67601 2.66003 0
M  V30 10725 N 985.893 0.34162 1.53853 0
M  V30 10726 C 986.843 -0.531995 2.21707 0
M  V30 10727 C 987.827 -1.06759 1.2038 0
M  V30 10728 O 989.019 -1.00161 1.45934 0
M  V30 10729 C 986.148 -1.6834 2.99193 0
M  V30 10730 C 985.234 -1.16184 4.07875 0
M  V30 10731 N 985.625 -0.361348 5.04508 0
M  V30 10732 C 983.923 -1.43891 4.22151 0
M  V30 10733 C 984.624 -0.0785378 5.81647 0
M  V30 10734 N 983.6 -0.669651 5.3946 0
M  V30 10735 H 987.402 0.0866825 2.93772 0
M  V30 10736 H 984.916 0.148386 1.61721 0
M  V30 10737 H 986.913 -2.32121 3.46303 0
M  V30 10738 H 985.573 -2.30538 2.28653 0
M  V30 10739 H 986.584 -0.00259906 5.179 0
M  V30 10740 H 983.261 -2.06542 3.62832 0
M  V30 10741 H 984.651 0.567068 6.69503 0
M  V30 10742 N 987.371 -1.57444 0.0701946 0
M  V30 10743 C 988.301 -2.15659 -0.895176 0
M  V30 10744 C 989.282 -1.08321 -1.31151 0
M  V30 10745 O 990.467 -1.36349 -1.38284 0
M  V30 10746 C 987.597 -2.71693 -2.16334 0
M  V30 10747 C 986.551 -3.84183 -1.88645 0
M  V30 10748 C 985.877 -4.26814 -3.22078 0
M  V30 10749 C 987.177 -5.08493 -1.19299 0
M  V30 10750 H 988.871 -2.96576 -0.410217 0
M  V30 10751 H 986.417 -1.42662 -0.195872 0
M  V30 10752 H 988.37 -3.11064 -2.84284 0
M  V30 10753 H 987.094 -1.87994 -2.67069 0
M  V30 10754 H 985.753 -3.45314 -1.23101 0
M  V30 10755 H 985.401 -3.40039 -3.70651 0
M  V30 10756 H 985.101 -5.02642 -3.04344 0
M  V30 10757 H 986.625 -4.68799 -3.91228 0
M  V30 10758 H 988.039 -5.4519 -1.77316 0
M  V30 10759 H 986.436 -5.89588 -1.11828 0
M  V30 10760 H 987.506 -4.84595 -0.171839 0
M  V30 10761 N 988.849 0.203349 -1.56283 0
M  V30 10762 C 990.126 0.950415 -1.70958 0
M  V30 10763 C 990.506 2.01708 -0.622647 0
M  V30 10764 O 989.854 2.25523 0.367635 0
M  V30 10765 C 990.064 1.54434 -3.12971 0
M  V30 10766 C 991.412 2.02964 -3.72949 0
M  V30 10767 O 992.436 1.64293 -3.16048 0
M  V30 10768 O 991.295 2.74097 -4.72793 0
M  V30 10769 H 988.389 0.445154 -0.69697 0
M  V30 10770 H 990.935 0.193695 -1.68591 0
M  V30 10771 H 989.707 0.77505 -3.83547 0
M  V30 10772 H 989.33 2.36611 -3.19532 0
M  V30 10773 N 990.327 1.50405 0.470755 0
M  V30 10774 C 991.555 1.65168 1.24608 0
M  V30 10775 C 991.97 0.335153 1.85801 0
M  V30 10776 O 991.327 -0.682919 1.69241 0
M  V30 10777 C 991.378 2.74305 2.35455 0
M  V30 10778 O 991.099 4.00854 1.76771 0
M  V30 10779 C 992.6 3.00044 3.26326 0
M  V30 10780 H 989.82 0.555186 0.376842 0
M  V30 10781 H 992.364 1.9663 0.56187 0
M  V30 10782 H 990.519 2.45536 2.99651 0
M  V30 10783 H 990.933 4.61211 2.49769 0
M  V30 10784 H 992.407 3.8007 4.00313 0
M  V30 10785 H 992.884 2.11128 3.85126 0
M  V30 10786 H 993.49 3.30345 2.67866 0
M  V30 10787 N 991.805 -0.723954 1.39988 0
M  V30 10788 C 992.768 -1.81973 1.3935 0
M  V30 10789 C 993.768 -1.58187 0.288702 0
M  V30 10790 O 994.958 -1.65383 0.547181 0
M  V30 10791 C 992.09 -3.19937 1.177 0
M  V30 10792 H 993.283 -1.83939 2.36868 0
M  V30 10793 H 990.836 -0.928742 1.25714 0
M  V30 10794 H 991.571 -3.23625 0.209093 0
M  V30 10795 H 991.356 -3.386 1.97719 0
M  V30 10796 H 992.846 -3.99981 1.20022 0
M  V30 10797 N 993.283 -1.25346 -0.955304 0
M  V30 10798 C 994.215 -1.0146 -2.0552 0
M  V30 10799 C 995.228 0.0202256 -1.62787 0
M  V30 10800 O 996.417 -0.218251 -1.77161 0
M  V30 10801 C 993.517 -0.511727 -3.35014 0
M  V30 10802 C 992.69 -1.61256 -4.0659 0
M  V30 10803 C 991.749 -1.11017 -5.14356 0
M  V30 10804 O 990.775 -1.80443 -5.39842 0
M  V30 10805 N 991.977 0.0489001 -5.80479 0
M  V30 10806 H 994.742 -1.96166 -2.26581 0
M  V30 10807 H 992.303 -1.16543 -1.12381 0
M  V30 10808 H 994.295 -0.160123 -4.04383 0
M  V30 10809 H 992.865 0.341377 -3.1073 0
M  V30 10810 H 992.085 -2.13577 -3.31328 0
M  V30 10811 H 993.373 -2.35213 -4.51168 0
M  V30 10812 H 992.771 0.629021 -5.62192 0
M  V30 10813 H 991.328 0.341542 -6.50905 0
M  V30 10814 N 994.761 1.15782 -1.06922 0
M  V30 10815 C 995.709 2.22441 -0.679893 0
M  V30 10816 C 996.703 1.66591 0.307221 0
M  V30 10817 O 997.909 1.79182 0.171402 0
M  V30 10818 H 994.284 0.724427 -0.201765 0
M  V30 10819 H 996.255 2.52562 -1.58918 0
M  V30 10820 C 995.004 3.47586 -0.0891142 0
M  V30 10821 H 994.327 3.9088 -0.839805 0
M  V30 10822 H 995.767 4.2375 0.14569 0
M  V30 10823 C 994.226 3.15967 1.16903 0
M  V30 10824 O 994.756 3.32359 2.25611 0
M  V30 10825 N 992.962 2.70046 1.07349 0
M  V30 10826 H 992.509 2.56907 0.188825 0
M  V30 10827 H 992.467 2.49264 1.91611 0
M  V30 10828 N 996.239 0.8527 1.3254 0
M  V30 10829 C 997.202 0.300959 2.27215 0
M  V30 10830 C 998.202 -0.538235 1.51525 0
M  V30 10831 O 999.392 -0.350027 1.70647 0
M  V30 10832 C 996.524 -0.574428 3.36025 0
M  V30 10833 H 997.717 1.13655 2.77529 0
M  V30 10834 H 995.27 0.626878 1.43178 0
M  V30 10835 H 996.005 -1.43191 2.90976 0
M  V30 10836 H 995.79 0.0262265 3.92091 0
M  V30 10837 H 997.28 -0.9533 4.06573 0
M  V30 10838 N 997.718 -1.45297 0.610449 0
M  V30 10839 C 998.648 -2.33311 -0.0939698 0
M  V30 10840 C 999.629 -1.46999 -0.85588 0
M  V30 10841 O 1000.81 -1.75764 -0.825865 0
M  V30 10842 C 997.944 -3.29751 -1.09003 0
M  V30 10843 C 996.898 -4.2572 -0.441146 0
M  V30 10844 C 996.224 -5.11873 -1.54566 0
M  V30 10845 C 997.524 -5.1837 0.639489 0
M  V30 10846 H 999.218 -2.92459 0.640941 0
M  V30 10847 H 996.764 -1.40631 0.309675 0
M  V30 10848 H 998.717 -3.90195 -1.59141 0
M  V30 10849 H 997.441 -2.68768 -1.85557 0
M  V30 10850 H 996.1 -3.66579 0.0393908 0
M  V30 10851 H 995.748 -4.47256 -2.30155 0
M  V30 10852 H 995.448 -5.76886 -1.11698 0
M  V30 10853 H 996.972 -5.75185 -2.04925 0
M  V30 10854 H 998.386 -5.7287 0.22207 0
M  V30 10855 H 996.783 -5.91876 0.990089 0
M  V30 10856 H 997.853 -4.60627 1.51495 0
M  V30 10857 N 999.196 -0.349774 -1.5367 0
M  V30 10858 C 1000.13 0.538575 -2.22782 0
M  V30 10859 C 1001.14 1.05896 -1.23652 0
M  V30 10860 O 1002.33 0.968045 -1.4997 0
M  V30 10861 C 999.43 1.7546 -2.89943 0
M  V30 10862 C 998.603 1.36843 -4.15443 0
M  V30 10863 C 997.662 2.4448 -4.65957 0
M  V30 10864 O 996.688 2.07528 -5.3002 0
M  V30 10865 N 997.89 3.75829 -4.42417 0
M  V30 10866 H 1000.65 -0.053348 -2.99653 0
M  V30 10867 H 998.216 -0.174193 -1.6096 0
M  V30 10868 H 1000.21 2.46911 -3.20651 0
M  V30 10869 H 998.778 2.25375 -2.16622 0
M  V30 10870 H 997.998 0.484421 -3.91212 0
M  V30 10871 H 999.286 1.0865 -4.97064 0
M  V30 10872 H 998.684 4.08635 -3.91196 0
M  V30 10873 H 997.241 4.43432 -4.77714 0
M  V30 10874 N 1000.67 1.57404 -0.0785433 0
M  V30 10875 C 1001.95 1.85163 0.630389 0
M  V30 10876 C 1002.33 0.972295 1.87376 0
M  V30 10877 O 1001.68 0.0403375 2.28464 0
M  V30 10878 C 1001.89 3.35491 0.961604 0
M  V30 10879 C 1003.24 4.0316 1.33219 0
M  V30 10880 O 1004.26 3.40276 1.05313 0
M  V30 10881 O 1003.12 5.14086 1.85412 0
M  V30 10882 H 1000.21 0.765169 0.31376 0
M  V30 10883 H 1002.76 1.69343 -0.109986 0
M  V30 10884 H 1001.53 3.91221 0.0788113 0
M  V30 10885 H 1001.15 3.56598 1.75852 0
M  V30 10886 N 1002.15 -0.195058 1.56388 0
M  V30 10887 C 1003.1 -1.24175 1.94549 0
M  V30 10888 C 1004.07 -1.45229 0.806089 0
M  V30 10889 O 1005.25 -1.58362 1.06425 0
M  V30 10890 C 1002.39 -2.58145 2.29031 0
M  V30 10891 C 1001.51 -2.44669 3.56035 0
M  V30 10892 C 1000.64 -3.71342 3.7984 0
M  V30 10893 C 999.681 -3.52699 5.0027 0
M  V30 10894 N 998.818 -4.71385 5.20328 0
M  V30 10895 H 1003.66 -0.909319 2.83788 0
M  V30 10896 H 1001.19 -0.437641 1.40439 0
M  V30 10897 H 1003.15 -3.36195 2.4704 0
M  V30 10898 H 1001.78 -2.8943 1.42933 0
M  V30 10899 H 1000.83 -1.57916 3.46073 0
M  V30 10900 H 1002.15 -2.26827 4.44242 0
M  V30 10901 H 1001.3 -4.57832 3.98088 0
M  V30 10902 H 1000.04 -3.92138 2.89964 0
M  V30 10903 H 999.045 -2.64594 4.81944 0
M  V30 10904 H 1000.27 -3.33349 5.91655 0
M  V30 10905 H 998.216 -4.92444 4.33399 0
M  V30 10906 H 998.133 -4.56368 6.02714 0
M  V30 10907 H 999.401 -5.59226 5.43035 0
M  V30 10908 N 1003.63 -1.50653 -0.462772 0
M  V30 10909 C 1004.56 -1.66286 -1.5774 0
M  V30 10910 C 1005.57 -0.544094 -1.53439 0
M  V30 10911 O 1006.76 -0.817566 -1.58676 0
M  V30 10912 C 1003.86 -1.63893 -2.96635 0
M  V30 10913 C 1003.04 -2.91939 -3.25716 0
M  V30 10914 C 1002.1 -2.82076 -4.44206 0
M  V30 10915 O 1001.12 -3.56032 -4.44106 0
M  V30 10916 N 1002.32 -1.96196 -5.4634 0
M  V30 10917 H 1005.09 -2.6243 -1.44742 0
M  V30 10918 H 1002.65 -1.48221 -0.651326 0
M  V30 10919 H 1004.64 -1.54897 -3.73884 0
M  V30 10920 H 1003.21 -0.75449 -3.03358 0
M  V30 10921 H 1002.43 -3.14998 -2.37002 0
M  V30 10922 H 1003.72 -3.7675 -3.4196 0
M  V30 10923 H 1003.12 -1.35439 -5.49247 0
M  V30 10924 H 1001.67 -1.93097 -6.2254 0
M  V30 10925 N 1005.11 0.71652 -1.4037 0
M  V30 10926 C 1006.04 1.84138 -1.36477 0
M  V30 10927 C 1007.05 1.6054 -0.27033 0
M  V30 10928 O 1008.24 1.70431 -0.530612 0
M  V30 10929 C 1005.34 3.20523 -1.10082 0
M  V30 10930 C 1004.52 3.71326 -2.31162 0
M  V30 10931 C 1003.57 4.86322 -2.00942 0
M  V30 10932 O 1002.6 4.99022 -2.73799 0
M  V30 10933 N 1003.8 5.72051 -0.986812 0
M  V30 10934 H 1006.57 1.87977 -2.3342 0
M  V30 10935 H 1004.13 0.89802 -1.34712 0
M  V30 10936 H 1006.12 3.95049 -0.878526 0
M  V30 10937 H 1004.69 3.11838 -0.21809 0
M  V30 10938 H 1003.91 2.87941 -2.69227 0
M  V30 10939 H 1005.2 4.02003 -3.11883 0
M  V30 10940 H 1004.6 5.64399 -0.383381 0
M  V30 10941 H 1003.15 6.46565 -0.824419 0
M  V30 10942 N 1006.59 1.25851 0.948643 0
M  V30 10943 C 1007.5 1.08516 2.07994 0
M  V30 10944 C 1008.51 0.0206696 1.73988 0
M  V30 10945 O 1009.69 0.222854 2.00163 0
M  V30 10946 C 1006.75 0.712145 3.39307 0
M  V30 10947 C 1005.81 1.85523 3.87143 0
M  V30 10948 C 1005.05 1.49992 5.1219 0
M  V30 10949 O 1005.27 0.398268 5.69008 0
M  V30 10950 O 1004.2 2.33215 5.54882 0
M  V30 10951 H 1008.03 2.03405 2.25522 0
M  V30 10952 H 1005.62 1.04844 1.06433 0
M  V30 10953 H 1007.5 0.516512 4.18223 0
M  V30 10954 H 1006.17 -0.207416 3.23035 0
M  V30 10955 H 1005.08 2.10578 3.09205 0
M  V30 10956 H 1006.41 2.75425 4.07924 0
M  V30 10957 N 1008.06 -1.15214 1.07534 0
M  V30 10958 C 1008.99 -2.2216 0.718837 0
M  V30 10959 C 1009.98 -1.6753 -0.29459 0
M  V30 10960 O 1011.16 -1.93481 -0.166931 0
M  V30 10961 C 1008.29 -3.471 0.117836 0
M  V30 10962 C 1007.24 -4.14701 1.05862 0
M  V30 10963 C 1006.57 -5.3374 0.320284 0
M  V30 10964 C 1007.87 -4.64254 2.39302 0
M  V30 10965 H 1009.56 -2.52237 1.61297 0
M  V30 10966 H 1007.11 -1.21239 0.776992 0
M  V30 10967 H 1009.06 -4.21156 -0.143519 0
M  V30 10968 H 1007.79 -3.16361 -0.811389 0
M  V30 10969 H 1006.45 -3.42589 1.30493 0
M  V30 10970 H 1006.09 -4.99257 -0.61246 0
M  V30 10971 H 1005.79 -5.79912 0.947381 0
M  V30 10972 H 1007.32 -6.10563 0.0667721 0
M  V30 10973 H 1008.73 -5.29827 2.18988 0
M  V30 10974 H 1007.13 -5.21095 2.97623 0
M  V30 10975 H 1008.2 -3.79793 3.01472 0
M  V30 10976 N 1009.54 -0.859717 -1.32086 0
M  V30 10977 C 1010.49 -0.296897 -2.30697 0
M  V30 10978 C 1011.48 0.582473 -1.59071 0
M  V30 10979 O 1012.69 0.469713 -1.73763 0
M  V30 10980 H 1009.07 -0.0773132 -0.748015 0
M  V30 10981 H 1011.04 -1.14273 -2.75652 0
M  V30 10982 C 1009.79 0.495546 -3.44151 0
M  V30 10983 H 1009.11 -0.171829 -3.99431 0
M  V30 10984 H 1010.55 0.854854 -4.15293 0
M  V30 10985 C 1009.01 1.68278 -2.91863 0
M  V30 10986 O 1009.54 2.78194 -2.89777 0
M  V30 10987 N 1007.74 1.51151 -2.48197 0
M  V30 10988 H 1007.29 0.617345 -2.50093 0
M  V30 10989 H 1007.25 2.3073 -2.13567 0
M  V30 10990 N 1011.02 1.44971 -0.618145 0
M  V30 10991 C 1011.97 2.30606 0.09449 0
M  V30 10992 C 1012.94 1.42725 0.849633 0
M  V30 10993 O 1014.12 1.71643 0.833266 0
M  V30 10994 C 1011.26 3.27803 1.07886 0
M  V30 10995 C 1010.38 4.30787 0.323488 0
M  V30 10996 C 1009.51 5.15085 1.29851 0
M  V30 10997 C 1008.55 6.09788 0.531561 0
M  V30 10998 N 1007.69 6.86829 1.4564 0
M  V30 10999 H 1012.53 2.91008 -0.641738 0
M  V30 11000 H 1010.06 1.43391 -0.328259 0
M  V30 11001 H 1012.02 3.82631 1.66281 0
M  V30 11002 H 1010.65 2.69131 1.78237 0
M  V30 11003 H 1009.7 3.78536 -0.376164 0
M  V30 11004 H 1011.02 4.98044 -0.274443 0
M  V30 11005 H 1010.17 5.74365 1.95421 0
M  V30 11006 H 1008.91 4.4787 1.93037 0
M  V30 11007 H 1007.91 5.49628 -0.137702 0
M  V30 11008 H 1009.14 6.79033 -0.0953993 0
M  V30 11009 H 1007.08 6.22295 2.07571 0
M  V30 11010 H 1007 7.50477 0.912167 0
M  V30 11011 H 1008.27 7.50642 2.10134 0
M  V30 11012 N 1012.5 0.357919 1.53482 0
M  V30 11013 C 1013.75 -0.235241 2.00324 0
M  V30 11014 C 1014.06 -1.50494 1.24944 0
M  V30 11015 O 1015.27 -2.17623 1.62335 0
M  V30 11016 C 1013.72 -0.469748 3.56821 0
M  V30 11017 C 1013.33 0.784877 4.41071 0
M  V30 11018 C 1015.07 -1.02098 4.12039 0
M  V30 11019 C 1012.98 0.520377 5.89106 0
M  V30 11020 H 1011.91 -0.0916816 0.748405 0
M  V30 11021 H 1014.56 0.475474 1.77233 0
M  V30 11022 H 1012.94 -1.24153 3.76035 0
M  V30 11023 H 1014.12 1.55886 4.33631 0
M  V30 11024 H 1012.43 1.25878 3.96918 0
M  V30 11025 H 1015.03 -1.23406 5.20264 0
M  V30 11026 H 1015.37 -1.98084 3.66154 0
M  V30 11027 H 1015.91 -0.309554 3.96594 0
M  V30 11028 H 1012.65 1.45035 6.39254 0
M  V30 11029 H 1012.17 -0.215254 5.99414 0
M  V30 11030 H 1013.84 0.143006 6.46842 0
M  V30 11031 N 1013.98 -1.5736 0.0868897 0
M  V30 11032 C 1015.2 -1.98388 -0.587349 0
M  V30 11033 C 1015.62 -0.965757 -1.6223 0
M  V30 11034 O 1014.98 0.0456981 -1.82443 0
M  V30 11035 C 1015.03 -3.39479 -1.24242 0
M  V30 11036 O 1014.75 -4.37393 -0.248878 0
M  V30 11037 C 1016.25 -3.95465 -2.00305 0
M  V30 11038 H 1013.47 -0.652111 -0.15809 0
M  V30 11039 H 1016.01 -2.03843 0.163754 0
M  V30 11040 H 1014.17 -3.35063 -1.94451 0
M  V30 11041 H 1014.58 -5.19525 -0.720678 0
M  V30 11042 H 1016.06 -4.96363 -2.41511 0
M  V30 11043 H 1016.53 -3.32832 -2.86565 0
M  V30 11044 H 1017.14 -4.03328 -1.34931 0
M  V30 11045 N 1015.45 0.186762 -1.56489 0
M  V30 11046 C 1016.68 0.921832 -1.85229 0
M  V30 11047 C 1017.1 1.76496 -0.670416 0
M  V30 11048 O 1016.45 1.78899 0.360758 0
M  V30 11049 C 1016.51 1.81121 -3.12854 0
M  V30 11050 O 1016.23 1.00211 -4.26485 0
M  V30 11051 C 1017.73 2.65725 -3.54831 0
M  V30 11052 H 1014.95 0.268563 -0.61491 0
M  V30 11053 H 1017.49 0.191505 -2.03601 0
M  V30 11054 H 1015.65 2.49506 -2.96354 0
M  V30 11055 H 1016.06 1.60893 -4.99213 0
M  V30 11056 H 1017.53 3.23771 -4.47075 0
M  V30 11057 H 1018.01 3.39843 -2.78215 0
M  V30 11058 H 1018.62 2.02698 -3.7389 0
M  V30 11059 N 1016.93 1.50896 0.454776 0
M  V30 11060 C 1017.86 1.6712 1.56855 0
M  V30 11061 C 1018.88 0.552223 1.53148 0
M  V30 11062 O 1020.07 0.825969 1.5824 0
M  V30 11063 C 1017.17 1.65464 2.95762 0
M  V30 11064 C 1016.34 2.93662 3.24163 0
M  V30 11065 C 1015.4 2.84428 4.42704 0
M  V30 11066 O 1014.42 3.58382 4.42211 0
M  V30 11067 N 1015.63 1.9909 5.45292 0
M  V30 11068 H 1018.39 2.63194 1.43349 0
M  V30 11069 H 1015.95 1.48564 0.643457 0
M  V30 11070 H 1017.94 1.56878 3.73057 0
M  V30 11071 H 1016.51 0.770568 3.02954 0
M  V30 11072 H 1015.73 3.16251 2.35328 0
M  V30 11073 H 1017.02 3.78558 3.39957 0
M  V30 11074 H 1016.42 1.3835 5.48521 0
M  V30 11075 H 1014.98 1.96396 6.21508 0
M  V30 11076 N 1018.41 -0.709066 1.40748 0
M  V30 11077 C 1019.34 -1.83583 1.4429 0
M  V30 11078 C 1020.32 -1.67378 0.303067 0
M  V30 11079 O 1021.51 -1.87312 0.512612 0
M  V30 11080 C 1018.64 -3.21599 1.31116 0
M  V30 11081 C 1017.59 -3.52486 2.4277 0
M  V30 11082 C 1016.92 -4.89716 2.14668 0
M  V30 11083 C 1018.22 -3.52824 3.85113 0
M  V30 11084 H 1019.91 -1.80876 2.38588 0
M  V30 11085 H 1017.46 -0.868795 1.14839 0
M  V30 11086 H 1019.41 -4.00123 1.32209 0
M  V30 11087 H 1018.13 -3.24898 0.332965 0
M  V30 11088 H 1016.79 -2.76305 2.40937 0
M  V30 11089 H 1016.44 -4.89625 1.15224 0
M  V30 11090 H 1016.14 -5.11347 2.89478 0
M  V30 11091 H 1017.66 -5.70566 2.17455 0
M  V30 11092 H 1019.08 -4.21377 3.88734 0
M  V30 11093 H 1017.48 -3.85984 4.59496 0
M  V30 11094 H 1018.55 -2.52073 4.14231 0
M  V30 11095 N 1019.89 -1.26353 -0.941956 0
M  V30 11096 C 1021.17 -1.02601 -1.6653 0
M  V30 11097 C 1021.55 0.44381 -2.06382 0
M  V30 11098 O 1020.89 1.42399 -1.78703 0
M  V30 11099 C 1021.1 -1.97401 -2.87809 0
M  V30 11100 C 1022.45 -2.25967 -3.59478 0
M  V30 11101 O 1023.48 -1.95261 -2.97912 0
M  V30 11102 O 1022.34 -2.78244 -4.70364 0
M  V30 11103 H 1019.43 -0.39007 -0.729228 0
M  V30 11104 H 1021.98 -1.37559 -0.993754 0
M  V30 11105 H 1020.75 -2.9659 -2.55245 0
M  V30 11106 H 1020.37 -1.62918 -3.62689 0
M  V30 11107 N 1021.37 1.14642 -1.08144 0
M  V30 11108 C 1022.3 2.19283 -0.6669 0
M  V30 11109 C 1023.31 1.60292 0.284668 0
M  V30 11110 O 1024.5 1.78352 0.0727383 0
M  V30 11111 C 1021.6 3.38877 0.0398572 0
M  V30 11112 C 1020.77 4.274 -0.929929 0
M  V30 11113 C 1019.83 5.25562 -0.258991 0
M  V30 11114 O 1018.86 5.61999 -0.902563 0
M  V30 11115 N 1020.06 5.71958 0.992177 0
M  V30 11116 H 1022.83 2.55464 -1.5671 0
M  V30 11117 H 1020.39 1.29836 -0.96717 0
M  V30 11118 H 1022.38 4.01605 0.499583 0
M  V30 11119 H 1020.95 3.01043 0.842118 0
M  V30 11120 H 1020.17 3.61649 -1.56857 0
M  V30 11121 H 1021.46 4.83411 -1.58717 0
M  V30 11122 H 1020.86 5.44481 1.53484 0
M  V30 11123 H 1019.41 6.36687 1.39544 0
M  V30 11124 N 1022.85 0.866709 1.31628 0
M  V30 11125 C 1024.09 0.476731 1.97117 0
M  V30 11126 C 1024.42 -0.967813 1.68366 0
M  V30 11127 O 1023.7 -1.68101 0.978377 0
M  V30 11128 C 1023.98 0.730561 3.52611 0
M  V30 11129 C 1023.84 2.2244 3.90948 0
M  V30 11130 C 1025.15 0.19488 4.39668 0
M  V30 11131 H 1022.27 0.174682 0.715999 0
M  V30 11132 H 1024.92 1.08735 1.5581 0
M  V30 11133 H 1023.07 0.210834 3.87927 0
M  V30 11134 H 1024.74 2.81113 3.6575 0
M  V30 11135 H 1022.98 2.69824 3.39673 0
M  V30 11136 H 1023.65 2.35266 4.99353 0
M  V30 11137 H 1026.13 0.639478 4.11157 0
M  V30 11138 H 1025 0.401958 5.47426 0
M  V30 11139 H 1025.26 -0.90302 4.32779 0
M  V30 11140 N 1024.32 -1.44642 0.625825 0
M  V30 11141 C 1025.55 -2.06458 0.135116 0
M  V30 11142 C 1025.97 -1.46729 -1.18811 0
M  V30 11143 O 1025.32 -0.58818 -1.72762 0
M  V30 11144 C 1025.37 -3.61499 0.00850114 0
M  V30 11145 O 1025.1 -4.19002 1.2794 0
M  V30 11146 C 1026.6 -4.40339 -0.511527 0
M  V30 11147 H 1023.82 -0.666541 0.0772294 0
M  V30 11148 H 1026.36 -1.85597 0.858726 0
M  V30 11149 H 1024.52 -3.81641 -0.665522 0
M  V30 11150 H 1024.93 -5.12385 1.12081 0
M  V30 11151 H 1026.4 -5.49262 -0.549149 0
M  V30 11152 H 1026.88 -4.11409 -1.53752 0
M  V30 11153 H 1027.49 -4.25104 0.129066 0
M  V30 11154 N 1025.8 -0.366053 -1.5329 0
M  V30 11155 C 1026.76 0.467904 -2.24373 0
M  V30 11156 C 1027.76 1.00934 -1.25176 0
M  V30 11157 O 1028.95 0.895015 -1.49449 0
M  V30 11158 C 1026.09 1.65405 -2.98084 0
M  V30 11159 H 1027.28 -0.154105 -2.99504 0
M  V30 11160 H 1024.83 -0.117751 -1.55856 0
M  V30 11161 H 1025.57 2.31413 -2.27197 0
M  V30 11162 H 1025.35 1.27277 -3.70868 0
M  V30 11163 H 1026.84 2.24503 -3.52119 0
M  V30 11164 N 1027.28 1.57312 -0.0952337 0
M  V30 11165 C 1028.23 2.14032 0.863657 0
M  V30 11166 C 1029.2 1.0589 1.27971 0
M  V30 11167 O 1030.38 1.33678 1.36143 0
M  V30 11168 C 1027.52 2.72513 2.11733 0
M  V30 11169 C 1026.63 3.94887 1.7518 0
M  V30 11170 C 1025.77 4.41533 2.95334 0
M  V30 11171 C 1024.81 5.56496 2.54908 0
M  V30 11172 N 1023.95 5.97993 3.67897 0
M  V30 11173 H 1028.79 2.95655 0.373115 0
M  V30 11174 H 1026.32 1.46085 0.172497 0
M  V30 11175 H 1028.28 3.04539 2.85153 0
M  V30 11176 H 1026.91 1.93618 2.58287 0
M  V30 11177 H 1025.96 3.69175 0.917279 0
M  V30 11178 H 1027.27 4.78322 1.41455 0
M  V30 11179 H 1026.43 4.75343 3.77007 0
M  V30 11180 H 1025.17 3.56999 3.3227 0
M  V30 11181 H 1024.17 5.22314 1.71662 0
M  V30 11182 H 1025.4 6.42779 2.19117 0
M  V30 11183 H 1023.34 5.16405 4.04551 0
M  V30 11184 H 1023.26 6.76225 3.38018 0
M  V30 11185 H 1024.53 6.36434 4.5008 0
M  V30 11186 N 1028.76 -0.17846 1.56586 0
M  V30 11187 C 1029.69 -1.22342 1.98884 0
M  V30 11188 C 1030.67 -1.46564 0.86331 0
M  V30 11189 O 1031.85 -1.58019 1.12887 0
M  V30 11190 C 1028.98 -2.56396 2.34261 0
M  V30 11191 C 1027.94 -2.46756 3.49708 0
M  V30 11192 C 1027.26 -3.85235 3.70807 0
M  V30 11193 C 1028.56 -1.97838 4.83381 0
M  V30 11194 H 1030.26 -0.871848 2.86425 0
M  V30 11195 H 1027.8 -0.417948 1.37801 0
M  V30 11196 H 1029.76 -3.29695 2.62448 0
M  V30 11197 H 1028.48 -2.93327 1.43621 0
M  V30 11198 H 1027.14 -1.75912 3.21637 0
M  V30 11199 H 1026.79 -4.19547 2.7747 0
M  V30 11200 H 1026.49 -3.79655 4.48481 0
M  V30 11201 H 1028.01 -4.60131 4.01387 0
M  V30 11202 H 1029.43 -2.60906 5.10491 0
M  V30 11203 H 1027.82 -2.03223 5.64642 0
M  V30 11204 H 1028.89 -0.932339 4.75852 0
M  V30 11205 N 1030.24 -1.51135 -0.446768 0
M  V30 11206 C 1031.17 -1.67949 -1.55967 0
M  V30 11207 C 1032.18 -0.560337 -1.52853 0
M  V30 11208 O 1033.37 -0.83435 -1.578 0
M  V30 11209 C 1030.47 -1.6703 -2.9488 0
M  V30 11210 C 1029.64 -2.95377 -3.22601 0
M  V30 11211 C 1028.7 -2.86772 -4.4119 0
M  V30 11212 O 1027.73 -3.60722 -4.40304 0
M  V30 11213 N 1028.93 -2.01979 -5.44228 0
M  V30 11214 H 1031.69 -2.63951 -1.41951 0
M  V30 11215 H 1029.26 -1.48903 -0.635569 0
M  V30 11216 H 1031.25 -1.58854 -3.7222 0
M  V30 11217 H 1029.82 -0.786623 -3.02541 0
M  V30 11218 H 1029.04 -3.17494 -2.33647 0
M  V30 11219 H 1030.33 -3.80356 -3.37945 0
M  V30 11220 H 1029.72 -1.41257 -5.4778 0
M  V30 11221 H 1028.28 -1.99689 -6.20457 0
M  V30 11222 N 1031.71 0.701592 -1.41122 0
M  V30 11223 C 1032.99 1.45569 -1.30648 0
M  V30 11224 C 1033.37 2.10988 0.068744 0
M  V30 11225 O 1032.72 2.01228 1.08257 0
M  V30 11226 C 1032.93 2.48003 -2.45551 0
M  V30 11227 C 1034.28 3.13431 -2.86437 0
M  V30 11228 O 1035.3 2.58327 -2.45247 0
M  V30 11229 O 1034.16 4.13221 -3.57646 0
M  V30 11230 H 1031.25 0.648 -0.513834 0
M  V30 11231 H 1033.8 0.73258 -1.53073 0
M  V30 11232 H 1032.57 1.98276 -3.37346 0
M  V30 11233 H 1032.19 3.27832 -2.24971 0
M  V30 11234 N 1033.19 1.2685 0.935242 0
M  V30 11235 C 1034.14 1.08923 2.03481 0
M  V30 11236 C 1035.11 -0.00749786 1.66098 0
M  V30 11237 O 1036.29 0.153401 1.90182 0
M  V30 11238 C 1033.43 0.734529 3.37192 0
M  V30 11239 C 1032.55 1.90812 3.87576 0
M  V30 11240 C 1031.68 1.49599 5.097 0
M  V30 11241 C 1030.72 2.63752 5.5236 0
M  V30 11242 N 1029.86 2.23179 6.65684 0
M  V30 11243 H 1034.7 2.03016 2.18148 0
M  V30 11244 H 1032.23 1.01072 1.06878 0
M  V30 11245 H 1034.19 0.509734 4.14074 0
M  V30 11246 H 1032.82 -0.169438 3.22355 0
M  V30 11247 H 1031.87 2.24567 3.0704 0
M  V30 11248 H 1033.19 2.7647 4.1517 0
M  V30 11249 H 1032.34 1.23199 5.9406 0
M  V30 11250 H 1031.08 0.61039 4.83865 0
M  V30 11251 H 1030.08 2.90874 4.66554 0
M  V30 11252 H 1031.31 3.5292 5.80193 0
M  V30 11253 H 1029.26 1.37061 6.41522 0
M  V30 11254 H 1029.17 3.02379 6.92895 0
M  V30 11255 H 1030.44 2.00007 7.53404 0
M  V30 11256 N 1034.67 -1.14067 1.0875 0
M  V30 11257 C 1035.6 -2.18926 0.67852 0
M  V30 11258 C 1036.62 -1.60441 -0.276163 0
M  V30 11259 O 1037.8 -1.78388 -0.0632788 0
M  V30 11260 C 1034.9 -3.38893 -0.0218852 0
M  V30 11261 C 1034.08 -4.26901 0.952582 0
M  V30 11262 C 1033.14 -5.25418 0.286859 0
M  V30 11263 O 1032.16 -5.61512 0.932354 0
M  V30 11264 N 1033.36 -5.72476 -0.961831 0
M  V30 11265 H 1036.13 -2.54629 1.58063 0
M  V30 11266 H 1033.69 -1.29321 0.974042 0
M  V30 11267 H 1035.68 -4.01864 -0.478278 0
M  V30 11268 H 1034.25 -3.01486 -0.826141 0
M  V30 11269 H 1033.47 -3.60812 1.58772 0
M  V30 11270 H 1034.76 -4.82563 1.61279 0
M  V30 11271 H 1034.16 -5.45287 -1.50594 0
M  V30 11272 H 1032.72 -6.37418 -1.36166 0
M  V30 11273 N 1036.15 -0.873678 -1.31166 0
M  V30 11274 C 1037.06 -0.335726 -2.32185 0
M  V30 11275 C 1038.07 0.556259 -1.64869 0
M  V30 11276 O 1039.25 0.452087 -1.9626 0
M  V30 11277 C 1036.32 0.450822 -3.43756 0
M  V30 11278 C 1035.38 -0.469565 -4.26724 0
M  V30 11279 C 1034.61 0.279538 -5.32967 0
M  V30 11280 O 1034.83 1.50715 -5.50128 0
M  V30 11281 O 1033.77 -0.36452 -6.00795 0
M  V30 11282 H 1037.59 -1.17314 -2.80127 0
M  V30 11283 H 1035.18 -0.637163 -1.35132 0
M  V30 11284 H 1037.06 0.896582 -4.11752 0
M  V30 11285 H 1035.73 1.26472 -2.9797 0
M  V30 11286 H 1034.64 -0.963902 -3.61469 0
M  V30 11287 H 1035.97 -1.24916 -4.76085 0
M  V30 11288 N 1037.63 1.44308 -0.633487 0
M  V30 11289 C 1038.58 2.27814 0.0919619 0
M  V30 11290 C 1039.56 1.38798 0.813882 0
M  V30 11291 O 1040.75 1.62587 0.699601 0
M  V30 11292 C 1037.88 3.26158 1.07125 0
M  V30 11293 C 1036.97 4.22663 0.348831 0
M  V30 11294 N 1037.36 5.01938 -0.623854 0
M  V30 11295 C 1035.66 4.42041 0.592958 0
M  V30 11296 C 1036.36 5.72129 -1.05088 0
M  V30 11297 N 1035.33 5.42205 -0.389183 0
M  V30 11298 H 1039.14 2.86515 -0.654721 0
M  V30 11299 H 1036.65 1.55773 -0.459178 0
M  V30 11300 H 1038.65 3.84742 1.60559 0
M  V30 11301 H 1037.31 2.69019 1.81821 0
M  V30 11302 H 1038.32 5.08119 -1.00176 0
M  V30 11303 H 1034.99 3.95997 1.32261 0
M  V30 11304 H 1036.38 6.45797 -1.85461 0
M  V30 11305 N 1039.1 0.374177 1.53094 0
M  V30 11306 C 1040.34 -0.21278 2.03289 0
M  V30 11307 C 1040.71 -1.45291 1.25517 0
M  V30 11308 O 1041.91 -2.11605 1.65761 0
M  V30 11309 C 1040.18 -0.48913 3.54037 0
M  V30 11310 S 1041.74 -1.04853 4.26088 0
M  V30 11311 H 1038.56 -0.0612752 0.708355 0
M  V30 11312 H 1041.16 0.519031 1.88484 0
M  V30 11313 H 1039.86 0.420786 4.08237 0
M  V30 11314 H 1039.39 -1.24978 3.7302 0
M  V30 11315 H 1041.41 -2.33213 4.3798 0
M  V30 11316 N 1040.58 -1.57259 0.103575 0
M  V30 11317 C 1041.81 -1.99424 -0.569638 0
M  V30 11318 C 1042.23 -0.982475 -1.60403 0
M  V30 11319 O 1041.59 0.0479231 -1.81237 0
M  V30 11320 C 1041.64 -3.40527 -1.18633 0
M  V30 11321 O 1040.74 -3.42167 -2.30208 0
M  V30 11322 H 1040.08 -0.648251 -0.143759 0
M  V30 11323 H 1042.61 -2.03739 0.187493 0
M  V30 11324 H 1042.62 -3.78404 -1.5256 0
M  V30 11325 H 1041.3 -4.13686 -0.428582 0
M  V30 11326 H 1039.88 -3.16093 -1.97837 0
M  V30 11327 N 1042.06 0.170153 -1.56679 0
M  V30 11328 C 1042.99 1.23525 -1.93066 0
M  V30 11329 C 1044.01 1.40414 -0.823879 0
M  V30 11330 O 1045.19 1.40396 -1.10232 0
M  V30 11331 C 1042.29 2.60376 -2.16928 0
M  V30 11332 C 1041.47 2.6477 -3.4816 0
M  V30 11333 C 1040.53 3.82993 -3.60837 0
M  V30 11334 O 1039.55 3.68937 -4.33444 0
M  V30 11335 N 1040.75 4.99498 -2.95773 0
M  V30 11336 H 1043.52 0.926172 -2.8503 0
M  V30 11337 H 1041.08 0.359909 -1.57849 0
M  V30 11338 H 1043.07 3.37934 -2.22672 0
M  V30 11339 H 1041.64 2.83669 -1.31342 0
M  V30 11340 H 1040.86 1.73298 -3.54064 0
M  V30 11341 H 1042.15 2.64717 -4.34514 0
M  V30 11342 H 1041.55 5.13819 -2.36657 0
M  V30 11343 H 1040.11 5.74914 -3.07111 0
M  V30 11344 N 1043.54 1.5137 0.438746 0
M  V30 11345 C 1044.47 1.75528 1.53987 0
M  V30 11346 C 1045.45 0.605067 1.58975 0
M  V30 11347 O 1046.63 0.847634 1.74725 0
M  V30 11348 C 1043.76 1.87904 2.92078 0
M  V30 11349 C 1042.72 3.0333 3.01951 0
M  V30 11350 C 1042.04 3.00888 4.42007 0
M  V30 11351 C 1043.34 4.43319 2.76163 0
M  V30 11352 H 1045.04 2.67728 1.34022 0
M  V30 11353 H 1042.58 1.28831 0.643308 0
M  V30 11354 H 1044.54 2.03388 3.69068 0
M  V30 11355 H 1043.26 0.923514 3.13271 0
M  V30 11356 H 1041.92 2.87549 2.274 0
M  V30 11357 H 1041.57 2.03116 4.60166 0
M  V30 11358 H 1041.27 3.78397 4.49544 0
M  V30 11359 H 1042.79 3.18464 5.20973 0
M  V30 11360 H 1044.21 4.59458 3.42887 0
M  V30 11361 H 1042.6 5.22523 2.9511 0
M  V30 11362 H 1043.67 4.53453 1.71779 0
M  V30 11363 N 1045.02 -0.694098 1.41492 0
M  V30 11364 C 1045.93 -1.83778 1.45818 0
M  V30 11365 C 1046.94 -1.70471 0.348639 0
M  V30 11366 O 1048.12 -1.92361 0.596588 0
M  V30 11367 C 1045.18 -3.19771 1.33967 0
M  V30 11368 C 1044.24 -3.45175 2.5525 0
M  V30 11369 C 1043.48 -4.74681 2.43955 0
M  V30 11370 O 1043.7 -5.51268 1.46491 0
M  V30 11371 O 1042.63 -5.00901 3.33739 0
M  V30 11372 H 1046.46 -1.83084 2.42309 0
M  V30 11373 H 1044.05 -0.847349 1.23046 0
M  V30 11374 H 1045.93 -4.00961 1.29648 0
M  V30 11375 H 1044.6 -3.21145 0.405926 0
M  V30 11376 H 1043.51 -2.6391 2.65146 0
M  V30 11377 H 1044.84 -3.48617 3.47458 0
M  V30 11378 N 1046.49 -1.27344 -0.928501 0
M  V30 11379 C 1047.72 -1.16557 -1.7155 0
M  V30 11380 C 1048.14 0.274044 -1.86093 0
M  V30 11381 O 1047.5 1.19847 -1.36038 0
M  V30 11382 C 1047.55 -1.85332 -3.09329 0
M  V30 11383 O 1046.65 -1.15074 -3.9602 0
M  V30 11384 H 1046 -0.405423 -0.525859 0
M  V30 11385 H 1048.53 -1.68399 -1.16202 0
M  V30 11386 H 1048.54 -1.92659 -3.59648 0
M  V30 11387 H 1047.21 -2.90056 -2.98061 0
M  V30 11388 H 1045.79 -1.1581 -3.54461 0
M  V30 11389 N 1047.97 1.13488 -1.09353 0
M  V30 11390 C 1048.92 2.16933 -0.701709 0
M  V30 11391 C 1049.91 1.58382 0.283553 0
M  V30 11392 O 1051.1 1.7675 0.0940391 0
M  V30 11393 C 1048.23 3.43079 -0.123031 0
M  V30 11394 C 1047.31 4.08639 -1.13466 0
M  V30 11395 N 1047.7 4.49377 -2.32152 0
M  V30 11396 C 1046 4.35265 -0.972632 0
M  V30 11397 C 1046.7 5.00464 -2.96497 0
M  V30 11398 N 1045.68 4.95275 -2.24061 0
M  V30 11399 H 1049.48 2.46183 -1.60534 0
M  V30 11400 H 1047 1.30275 -0.969644 0
M  V30 11401 H 1048.99 4.1653 0.17569 0
M  V30 11402 H 1047.65 3.15304 0.775461 0
M  V30 11403 H 1048.66 4.42105 -2.69748 0
M  V30 11404 H 1045.34 4.17301 -0.12876 0
M  V30 11405 H 1046.73 5.41785 -3.9739 0
M  V30 11406 N 1049.45 0.880621 1.30701 0
M  V30 11407 C 1050.38 0.360251 2.30704 0
M  V30 11408 C 1051.36 -0.554572 1.60806 0
M  V30 11409 O 1052.55 -0.469345 1.88443 0
M  V30 11410 C 1049.68 -0.429888 3.44629 0
M  V30 11411 C 1048.63 0.392786 4.26194 0
M  V30 11412 C 1047.96 -0.52369 5.32129 0
M  V30 11413 C 1049.26 1.63258 4.96129 0
M  V30 11414 H 1050.95 1.19591 2.74478 0
M  V30 11415 H 1048.5 0.576508 1.31956 0
M  V30 11416 H 1050.45 -0.804532 4.13649 0
M  V30 11417 H 1049.17 -1.29916 2.99649 0
M  V30 11418 H 1047.83 0.749514 3.58856 0
M  V30 11419 H 1047.48 -1.39054 4.83397 0
M  V30 11420 H 1047.18 0.0229272 5.87596 0
M  V30 11421 H 1048.71 -0.894946 6.04006 0
M  V30 11422 H 1050.12 1.32877 5.57689 0
M  V30 11423 H 1048.52 2.11906 5.61441 0
M  V30 11424 H 1049.59 2.37944 4.22505 0
M  V30 11425 N 1050.93 -1.4397 0.641131 0
M  V30 11426 C 1051.88 -2.30728 -0.0577905 0
M  V30 11427 C 1052.85 -1.44059 -0.826819 0
M  V30 11428 O 1054.03 -1.72947 -0.805853 0
M  V30 11429 C 1051.17 -3.29478 -1.02657 0
M  V30 11430 C 1050.28 -4.31247 -0.254913 0
M  V30 11431 C 1049.42 -5.17085 -1.2164 0
M  V30 11432 C 1048.46 -6.10556 -0.434481 0
M  V30 11433 N 1047.6 -6.89059 -1.34694 0
M  V30 11434 H 1052.44 -2.8995 0.687953 0
M  V30 11435 H 1049.97 -1.4285 0.351029 0
M  V30 11436 H 1051.93 -3.85228 -1.60173 0
M  V30 11437 H 1050.56 -2.71932 -1.73933 0
M  V30 11438 H 1049.61 -3.77889 0.436338 0
M  V30 11439 H 1050.92 -4.97545 0.353642 0
M  V30 11440 H 1050.08 -5.77402 -1.86258 0
M  V30 11441 H 1048.82 -4.50885 -1.85888 0
M  V30 11442 H 1047.82 -5.49339 0.225125 0
M  V30 11443 H 1049.05 -6.78795 0.203415 0
M  V30 11444 H 1046.99 -6.25518 -1.97644 0
M  V30 11445 H 1046.91 -7.51833 -0.792657 0
M  V30 11446 H 1048.18 -7.5389 -1.98165 0
M  V30 11447 N 1052.41 -0.382291 -1.52893 0
M  V30 11448 C 1053.32 0.463745 -2.29971 0
M  V30 11449 C 1054.33 1.07777 -1.36602 0
M  V30 11450 O 1055.51 1.0851 -1.69669 0
M  V30 11451 C 1052.57 1.57938 -3.08637 0
M  V30 11452 C 1051.64 0.991182 -4.17701 0
M  V30 11453 C 1050.87 2.05365 -4.92606 0
M  V30 11454 O 1051.09 3.26757 -4.67532 0
M  V30 11455 O 1050.03 1.67487 -5.78128 0
M  V30 11456 H 1053.85 -0.163962 -3.03257 0
M  V30 11457 H 1051.44 -0.146199 -1.48683 0
M  V30 11458 H 1053.32 2.22765 -3.57706 0
M  V30 11459 H 1051.99 2.19218 -2.3817 0
M  V30 11460 H 1050.9 0.306364 -3.72843 0
M  V30 11461 H 1052.23 0.422699 -4.90382 0
M  V30 11462 N 1053.89 1.57202 -0.111913 0
M  V30 11463 C 1055.12 1.99008 0.554907 0
M  V30 11464 C 1055.52 0.990323 1.61212 0
M  V30 11465 O 1054.87 -0.0259612 1.83682 0
M  V30 11466 C 1054.93 3.37218 1.24598 0
M  V30 11467 C 1054.59 4.55752 0.337549 0
M  V30 11468 C 1055.59 5.18192 -0.421026 0
M  V30 11469 C 1053.27 5.01674 0.25069 0
M  V30 11470 C 1055.27 6.24938 -1.25426 0
M  V30 11471 C 1052.96 6.08282 -0.586186 0
M  V30 11472 C 1053.95 6.6978 -1.3373 0
M  V30 11473 O 1053.64 7.7433 -2.16029 0
M  V30 11474 H 1053.37 0.658669 0.152091 0
M  V30 11475 H 1055.93 2.04492 -0.192937 0
M  V30 11476 H 1054.16 3.28467 2.04074 0
M  V30 11477 H 1055.85 3.63359 1.809 0
M  V30 11478 H 1056.61 4.83634 -0.363752 0
M  V30 11479 H 1052.49 4.53558 0.825005 0
M  V30 11480 H 1056.04 6.72869 -1.84102 0
M  V30 11481 H 1051.93 6.42271 -0.64488 0
M  V30 11482 H 1052.7 7.91395 -2.08894 0
M  V30 11483 N 1055.36 -0.161842 1.56767 0
M  V30 11484 C 1056.31 -1.2002 1.97139 0
M  V30 11485 C 1057.28 -1.43486 0.836713 0
M  V30 11486 O 1058.47 -1.56069 1.0976 0
M  V30 11487 C 1055.61 -2.53228 2.34456 0
M  V30 11488 C 1054.72 -2.37062 3.61145 0
M  V30 11489 C 1053.85 -3.63202 3.87631 0
M  V30 11490 C 1052.89 -3.42008 5.07638 0
M  V30 11491 N 1052.03 -4.60242 5.30209 0
M  V30 11492 H 1056.87 -0.848918 2.85653 0
M  V30 11493 H 1054.41 -0.407753 1.41336 0
M  V30 11494 H 1056.36 -3.30879 2.54116 0
M  V30 11495 H 1054.99 -2.86333 1.4904 0
M  V30 11496 H 1054.05 -1.50539 3.49345 0
M  V30 11497 H 1055.36 -2.17353 4.48953 0
M  V30 11498 H 1054.51 -4.49285 4.0771 0
M  V30 11499 H 1053.25 -3.85899 2.98216 0
M  V30 11500 H 1052.26 -2.54312 4.87448 0
M  V30 11501 H 1053.48 -3.20724 5.98593 0
M  V30 11502 H 1051.43 -4.8314 4.43747 0
M  V30 11503 H 1051.34 -4.43481 6.12259 0
M  V30 11504 H 1052.61 -5.47581 5.54775 0
M  V30 11505 N 1056.84 -1.516 -0.430713 0
M  V30 11506 C 1057.75 -1.76247 -1.54836 0
M  V30 11507 C 1058.77 -0.646985 -1.61524 0
M  V30 11508 O 1059.94 -0.929987 -1.78643 0
M  V30 11509 C 1057.01 -1.88833 -2.90763 0
M  V30 11510 C 1056.07 -3.12701 -2.94137 0
M  V30 11511 C 1055.3 -3.24676 -4.23581 0
M  V30 11512 O 1055.53 -2.42429 -5.16318 0
M  V30 11513 O 1054.46 -4.17697 -4.33374 0
M  V30 11514 H 1058.29 -2.71069 -1.3695 0
M  V30 11515 H 1055.87 -1.36182 -0.614396 0
M  V30 11516 H 1057.75 -1.99057 -3.71422 0
M  V30 11517 H 1056.43 -0.971987 -3.08762 0
M  V30 11518 H 1055.33 -3.0795 -2.1241 0
M  V30 11519 H 1056.67 -4.04045 -2.81084 0
M  V30 11520 N 1058.32 0.686584 -1.41858 0
M  V30 11521 C 1059.27 1.80038 -1.44413 0
M  V30 11522 C 1060.24 1.63415 -0.297427 0
M  V30 11523 O 1061.42 1.84138 -0.499789 0
M  V30 11524 C 1058.56 3.17988 -1.34082 0
M  V30 11525 C 1057.67 3.45979 -2.58693 0
M  V30 11526 C 1056.81 4.73592 -2.4059 0
M  V30 11527 C 1055.85 4.94581 -3.60633 0
M  V30 11528 N 1054.99 6.13426 -3.41545 0
M  V30 11529 H 1059.83 1.77189 -2.396 0
M  V30 11530 H 1057.36 0.865158 -1.18968 0
M  V30 11531 H 1059.32 3.97689 -1.26092 0
M  V30 11532 H 1057.95 3.1999 -0.424975 0
M  V30 11533 H 1057 2.60617 -2.77097 0
M  V30 11534 H 1058.31 3.57386 -3.47961 0
M  V30 11535 H 1057.47 5.61364 -2.30119 0
M  V30 11536 H 1056.21 4.64448 -1.48794 0
M  V30 11537 H 1055.21 4.05254 -3.71549 0
M  V30 11538 H 1056.44 5.05578 -4.53395 0
M  V30 11539 H 1054.38 6.05477 -2.52456 0
M  V30 11540 H 1054.3 6.25641 -4.24393 0
M  V30 11541 H 1055.57 7.03908 -3.34864 0
M  V30 11542 N 1059.8 1.27835 0.921735 0
M  V30 11543 C 1061.03 1.17182 1.70153 0
M  V30 11544 C 1061.44 -0.273207 1.87217 0
M  V30 11545 O 1060.78 -1.19729 1.39322 0
M  V30 11546 C 1060.84 1.78969 3.11786 0
M  V30 11547 C 1060.5 3.28179 3.18037 0
M  V30 11548 C 1061.5 4.24729 2.99835 0
M  V30 11549 C 1059.19 3.68995 3.40805 0
M  V30 11550 C 1061.18 5.60071 3.04301 0
M  V30 11551 C 1058.87 5.04465 3.44904 0
M  V30 11552 C 1059.87 5.99813 3.2667 0
M  V30 11553 O 1059.55 7.32813 3.30515 0
M  V30 11554 H 1059.29 0.408079 0.538932 0
M  V30 11555 H 1061.84 1.69326 1.16266 0
M  V30 11556 H 1060.07 1.2131 3.6718 0
M  V30 11557 H 1061.76 1.62946 3.71757 0
M  V30 11558 H 1062.52 3.94533 2.8208 0
M  V30 11559 H 1058.4 2.9525 3.54045 0
M  V30 11560 H 1061.95 6.34471 2.89987 0
M  V30 11561 H 1057.84 5.34315 3.62185 0
M  V30 11562 H 1058.61 7.41338 3.4693 0
M  V30 11563 N 1061.28 -1.12907 1.09954 0
M  V30 11564 C 1062.21 -2.20585 0.765799 0
M  V30 11565 C 1063.19 -1.68117 -0.258989 0
M  V30 11566 O 1064.37 -1.93792 -0.125853 0
M  V30 11567 C 1061.5 -3.46772 0.191435 0
M  V30 11568 C 1060.46 -4.12363 1.14635 0
M  V30 11569 C 1059.78 -5.3294 0.433426 0
M  V30 11570 C 1061.08 -4.59073 2.49096 0
M  V30 11571 H 1062.78 -2.48759 1.66612 0
M  V30 11572 H 1060.32 -1.19563 0.802534 0
M  V30 11573 H 1062.27 -4.21365 -0.0541535 0
M  V30 11574 H 1061 -3.18011 -0.744101 0
M  V30 11575 H 1059.66 -3.39744 1.37731 0
M  V30 11576 H 1059.31 -5.00444 -0.506422 0
M  V30 11577 H 1059.01 -5.77772 1.07018 0
M  V30 11578 H 1060.53 -6.10284 0.196267 0
M  V30 11579 H 1061.94 -5.25063 2.30177 0
M  V30 11580 H 1060.34 -5.14665 3.0861 0
M  V30 11581 H 1061.41 -3.73313 3.0946 0
M  V30 11582 N 1062.75 -0.88754 -1.30232 0
M  V30 11583 C 1063.98 -0.521562 -2.00735 0
M  V30 11584 C 1064.4 0.883247 -1.66073 0
M  V30 11585 O 1063.76 1.58581 -0.878731 0
M  V30 11586 C 1063.81 -0.706521 -3.53611 0
M  V30 11587 O 1062.91 0.246447 -4.11663 0
M  V30 11588 H 1062.25 -0.205216 -0.631492 0
M  V30 11589 H 1064.78 -1.19579 -1.66018 0
M  V30 11590 H 1064.79 -0.606501 -4.03467 0
M  V30 11591 H 1063.47 -1.73076 -3.78177 0
M  V30 11592 H 1062.05 0.0999062 -3.72766 0
M  V30 11593 N 1064.23 1.43628 -0.648757 0
M  V30 11594 C 1065.16 2.33478 0.0320785 0
M  V30 11595 C 1066.14 1.49217 0.816605 0
M  V30 11596 O 1067.33 1.77892 0.778974 0
M  V30 11597 C 1064.46 3.32525 1.00222 0
M  V30 11598 C 1063.41 4.2674 0.328119 0
M  V30 11599 C 1062.74 5.15791 1.4094 0
M  V30 11600 C 1064.04 5.16493 -0.776701 0
M  V30 11601 H 1065.73 2.90657 -0.718257 0
M  V30 11602 H 1063.28 1.3976 -0.346852 0
M  V30 11603 H 1065.23 3.94277 1.4874 0
M  V30 11604 H 1063.96 2.73593 1.78366 0
M  V30 11605 H 1062.61 3.66346 -0.136569 0
M  V30 11606 H 1062.26 4.53201 2.18216 0
M  V30 11607 H 1061.96 5.79645 0.963631 0
M  V30 11608 H 1063.49 5.80416 1.89603 0
M  V30 11609 H 1064.9 5.7208 -0.373878 0
M  V30 11610 H 1063.3 5.89043 -1.14667 0
M  V30 11611 H 1064.37 4.56448 -1.63654 0
M  V30 11612 N 1065.71 0.390394 1.52688 0
M  V30 11613 C 1066.62 -0.451543 2.30213 0
M  V30 11614 C 1067.64 -1.07051 1.37172 0
M  V30 11615 O 1068.81 -1.07609 1.70242 0
M  V30 11616 C 1065.88 -1.56299 3.0947 0
M  V30 11617 C 1064.94 -0.969017 4.18221 0
M  V30 11618 C 1064.17 -2.0275 4.93688 0
M  V30 11619 O 1064.39 -3.24273 4.69258 0
M  V30 11620 O 1063.33 -1.64418 5.79008 0
M  V30 11621 H 1067.15 0.180042 3.03166 0
M  V30 11622 H 1064.74 0.154082 1.48603 0
M  V30 11623 H 1066.62 -2.20864 3.58883 0
M  V30 11624 H 1065.3 -2.17952 2.3933 0
M  V30 11625 H 1064.2 -0.286587 3.73001 0
M  V30 11626 H 1065.54 -0.396687 4.90599 0
M  V30 11627 N 1067.19 -1.57141 0.120249 0
M  V30 11628 C 1068.12 -2.12454 -0.859987 0
M  V30 11629 C 1069.13 -1.06755 -1.22911 0
M  V30 11630 O 1070.32 -1.34124 -1.17784 0
M  V30 11631 C 1067.42 -2.61024 -2.16147 0
M  V30 11632 C 1066.6 -3.90835 -1.96385 0
M  V30 11633 C 1065.65 -4.2499 -3.10274 0
M  V30 11634 O 1064.68 -4.93786 -2.83133 0
M  V30 11635 N 1065.88 -3.82411 -4.36741 0
M  V30 11636 H 1068.65 -2.97186 -0.387402 0
M  V30 11637 H 1066.21 -1.61773 -0.0641376 0
M  V30 11638 H 1068.2 -2.80903 -2.91334 0
M  V30 11639 H 1066.77 -1.81166 -2.5475 0
M  V30 11640 H 1065.99 -3.79853 -1.05383 0
M  V30 11641 H 1067.28 -4.75712 -1.80487 0
M  V30 11642 H 1066.68 -3.26926 -4.61666 0
M  V30 11643 H 1065.23 -4.07395 -5.08795 0
M  V30 11644 N 1068.67 0.153526 -1.5685 0
M  V30 11645 C 1069.61 1.18973 -1.97773 0
M  V30 11646 C 1070.58 1.43041 -0.844311 0
M  V30 11647 O 1071.77 1.55484 -1.10586 0
M  V30 11648 C 1068.91 2.51981 -2.35795 0
M  V30 11649 C 1068.02 2.35143 -3.62397 0
M  V30 11650 C 1067.16 3.61141 -3.89552 0
M  V30 11651 C 1066.2 3.39311 -5.09445 0
M  V30 11652 N 1065.33 4.57423 -5.32643 0
M  V30 11653 H 1070.17 0.833758 -2.86099 0
M  V30 11654 H 1067.71 0.400252 -1.4155 0
M  V30 11655 H 1069.67 3.29527 -2.55867 0
M  V30 11656 H 1068.3 2.85539 -1.50557 0
M  V30 11657 H 1067.35 1.48684 -3.50139 0
M  V30 11658 H 1068.66 2.14969 -4.501 0
M  V30 11659 H 1067.82 4.47117 -4.10087 0
M  V30 11660 H 1066.55 3.84312 -3.00259 0
M  V30 11661 H 1065.56 2.51723 -4.8879 0
M  V30 11662 H 1066.78 3.17545 -6.00285 0
M  V30 11663 H 1064.73 4.8078 -4.46303 0
M  V30 11664 H 1064.65 4.40228 -6.14602 0
M  V30 11665 H 1065.92 5.44632 -5.57671 0
M  V30 11666 N 1070.14 1.51827 0.422667 0
M  V30 11667 C 1071.37 1.69049 1.1929 0
M  V30 11668 C 1071.79 0.394095 1.84641 0
M  V30 11669 O 1071.14 -0.628731 1.71328 0
M  V30 11670 C 1071.2 2.81657 2.26609 0
M  V30 11671 O 1070.92 4.06275 1.63929 0
M  V30 11672 C 1072.42 3.10274 3.16615 0
M  V30 11673 H 1069.64 0.566894 0.358988 0
M  V30 11674 H 1072.18 1.98318 0.499029 0
M  V30 11675 H 1070.34 2.54945 2.91688 0
M  V30 11676 H 1070.75 4.68924 2.3497 0
M  V30 11677 H 1072.22 3.92613 3.88019 0
M  V30 11678 H 1072.7 2.23273 3.78214 0
M  V30 11679 H 1073.31 3.387 2.57221 0
M  V30 11680 N 1071.62 -0.679052 1.4222 0
M  V30 11681 C 1072.53 -1.82221 1.47759 0
M  V30 11682 C 1073.55 -1.70092 0.3667 0
M  V30 11683 O 1074.72 -1.91718 0.616957 0
M  V30 11684 C 1071.79 -3.18332 1.37351 0
M  V30 11685 C 1070.85 -3.42449 2.58896 0
M  V30 11686 C 1070.08 -4.72067 2.48976 0
M  V30 11687 O 1070.31 -5.49683 1.5233 0
M  V30 11688 O 1069.24 -4.97333 3.39033 0
M  V30 11689 H 1073.07 -1.80504 2.44238 0
M  V30 11690 H 1070.65 -0.834251 1.23938 0
M  V30 11691 H 1072.53 -3.99563 1.33893 0
M  V30 11692 H 1071.21 -3.20696 0.439965 0
M  V30 11693 H 1070.12 -2.61083 2.6793 0
M  V30 11694 H 1071.45 -3.44912 3.51136 0
M  V30 11695 N 1073.1 -1.28322 -0.914942 0
M  V30 11696 C 1074.01 -1.13993 -2.05043 0
M  V30 11697 C 1075.03 -0.0667921 -1.73872 0
M  V30 11698 O 1076.2 -0.275845 -1.99502 0
M  V30 11699 C 1073.27 -0.801856 -3.373 0
M  V30 11700 C 1072.33 -1.95723 -3.82088 0
M  V30 11701 C 1071.56 -1.63519 -5.08033 0
M  V30 11702 O 1071.78 -0.54899 -5.67752 0
M  V30 11703 O 1070.72 -2.47844 -5.48504 0
M  V30 11704 H 1074.54 -2.09313 -2.2005 0
M  V30 11705 H 1072.13 -1.0763 -1.03616 0
M  V30 11706 H 1074.01 -0.627214 -4.16706 0
M  V30 11707 H 1072.69 0.121696 -3.23471 0
M  V30 11708 H 1071.59 -2.18702 -3.03514 0
M  V30 11709 H 1072.93 -2.86144 -4.00478 0
M  V30 11710 N 1074.58 1.12322 -1.10551 0
M  V30 11711 C 1075.51 2.20176 -0.777486 0
M  V30 11712 C 1076.49 1.68252 0.250069 0
M  V30 11713 O 1077.67 1.93856 0.115574 0
M  V30 11714 C 1074.8 3.46666 -0.209822 0
M  V30 11715 C 1073.76 4.11749 -1.1682 0
M  V30 11716 C 1073.08 5.32703 -0.461684 0
M  V30 11717 C 1074.38 4.57746 -2.51527 0
M  V30 11718 H 1076.08 2.47872 -1.67928 0
M  V30 11719 H 1073.62 1.19136 -0.808863 0
M  V30 11720 H 1075.58 4.21388 0.0318068 0
M  V30 11721 H 1074.3 3.18401 0.727226 0
M  V30 11722 H 1072.96 3.39009 -1.3953 0
M  V30 11723 H 1072.61 5.00706 0.479875 0
M  V30 11724 H 1072.31 5.77197 -1.1008 0
M  V30 11725 H 1073.83 6.10172 -0.228629 0
M  V30 11726 H 1075.25 5.23835 -2.32958 0
M  V30 11727 H 1073.64 5.13021 -3.11335 0
M  V30 11728 H 1074.71 3.71667 -3.11435 0
M  V30 11729 N 1076.06 0.894434 1.2976 0
M  V30 11730 C 1076.97 0.372622 2.31622 0
M  V30 11731 C 1077.98 -0.52996 1.65733 0
M  V30 11732 O 1079.16 -0.420807 1.96955 0
M  V30 11733 C 1076.22 -0.396076 3.4443 0
M  V30 11734 C 1075.28 0.537394 4.25923 0
M  V30 11735 C 1074.52 -0.194713 5.33345 0
M  V30 11736 O 1074.74 -1.41943 5.52457 0
M  V30 11737 O 1073.67 0.460055 6.00139 0
M  V30 11738 H 1077.5 1.21756 2.78225 0
M  V30 11739 H 1075.09 0.65858 1.34101 0
M  V30 11740 H 1076.97 -0.830962 4.13126 0
M  V30 11741 H 1075.64 -1.21716 2.99945 0
M  V30 11742 H 1074.55 1.02129 3.5989 0
M  V30 11743 H 1075.88 1.32475 4.74037 0
M  V30 11744 N 1077.53 -1.43282 0.656365 0
M  V30 11745 C 1078.78 -2.01378 0.170702 0
M  V30 11746 C 1079.1 -1.52063 -1.22073 0
M  V30 11747 O 1078.37 -0.73456 -1.81607 0
M  V30 11748 H 1076.95 -0.744577 0.0601168 0
M  V30 11749 H 1079.62 -1.75449 0.848739 0
M  V30 11750 H 1078.71 -3.11701 0.157745 0
M  V30 11751 N 1079.01 -0.398486 -1.52479 0
M  V30 11752 C 1079.95 0.467426 -2.24383 0
M  V30 11753 C 1080.96 1.01908 -1.26959 0
M  V30 11754 O 1082.15 0.919843 -1.52974 0
M  V30 11755 C 1079.25 1.66146 -2.95379 0
M  V30 11756 C 1078.42 1.23557 -4.19586 0
M  V30 11757 C 1077.48 2.29532 -4.73499 0
M  V30 11758 O 1076.51 1.90561 -5.36354 0
M  V30 11759 N 1077.71 3.61564 -4.5415 0
M  V30 11760 H 1080.47 -0.148653 -2.99331 0
M  V30 11761 H 1078.03 -0.225313 -1.60325 0
M  V30 11762 H 1080.03 2.36585 -3.28344 0
M  V30 11763 H 1078.6 2.18369 -2.23682 0
M  V30 11764 H 1077.82 0.359715 -3.92555 0
M  V30 11765 H 1079.1 0.927812 -5.00269 0
M  V30 11766 H 1078.5 3.95983 -4.03998 0
M  V30 11767 H 1077.06 4.2801 -4.9158 0
M  V30 11768 N 1080.49 1.57075 -0.12858 0
M  V30 11769 C 1081.74 1.94695 0.526952 0
M  V30 11770 C 1082.05 1.01482 1.67215 0
M  V30 11771 O 1083.26 1.28606 2.39108 0
M  V30 11772 C 1081.72 3.4605 0.988801 0
M  V30 11773 C 1081.32 4.47816 -0.128457 0
M  V30 11774 C 1083.07 3.92572 1.61517 0
M  V30 11775 C 1080.97 5.9036 0.350628 0
M  V30 11776 H 1079.9 0.726819 0.200623 0
M  V30 11777 H 1082.56 1.82295 -0.209972 0
M  V30 11778 H 1080.94 3.53718 1.78043 0
M  V30 11779 H 1082.11 4.51826 -0.904976 0
M  V30 11780 H 1080.43 4.11103 -0.662075 0
M  V30 11781 H 1083.02 4.96493 1.98491 0
M  V30 11782 H 1083.37 3.33085 2.49721 0
M  V30 11783 H 1083.9 3.87744 0.888768 0
M  V30 11784 H 1080.64 6.53624 -0.495592 0
M  V30 11785 H 1080.16 5.89749 1.09342 0
M  V30 11786 H 1081.84 6.41926 0.808717 0
M  V30 11787 N 1081.97 -0.145205 1.5693 0
M  V30 11788 C 1082.92 -1.17923 1.98401 0
M  V30 11789 C 1083.89 -1.42591 0.851885 0
M  V30 11790 O 1085.07 -1.54896 1.11409 0
M  V30 11791 C 1082.21 -2.50727 2.37128 0
M  V30 11792 C 1081.32 -2.33218 3.63639 0
M  V30 11793 C 1080.46 -3.5907 3.91462 0
M  V30 11794 C 1079.5 -3.36605 5.11237 0
M  V30 11795 N 1078.64 -4.54592 5.35061 0
M  V30 11796 H 1083.48 -0.818573 2.86537 0
M  V30 11797 H 1081.01 -0.392739 1.4176 0
M  V30 11798 H 1082.97 -3.28165 2.57611 0
M  V30 11799 H 1081.6 -2.84736 1.52069 0
M  V30 11800 H 1080.65 -1.46826 3.50922 0
M  V30 11801 H 1081.96 -2.12579 4.51234 0
M  V30 11802 H 1081.12 -4.44936 4.12453 0
M  V30 11803 H 1079.86 -3.82715 3.02293 0
M  V30 11804 H 1078.86 -2.49127 4.90118 0
M  V30 11805 H 1080.09 -3.14357 6.01961 0
M  V30 11806 H 1078.03 -4.78406 4.48847 0
M  V30 11807 H 1077.95 -4.36962 6.16928 0
M  V30 11808 H 1079.22 -5.41666 5.60551 0
M  V30 11809 N 1083.45 -1.52049 -0.414609 0
M  V30 11810 C 1084.39 -1.74998 -1.5048 0
M  V30 11811 C 1085.36 -0.592251 -1.55182 0
M  V30 11812 O 1086.55 -0.829203 -1.7184 0
M  V30 11813 C 1083.69 -1.90157 -2.87983 0
M  V30 11814 C 1082.8 -3.17789 -2.92633 0
M  V30 11815 C 1081.94 -3.23411 -4.21401 0
M  V30 11816 C 1080.98 -4.45267 -4.20004 0
M  V30 11817 N 1080.11 -4.48312 -5.40334 0
M  V30 11818 H 1084.95 -2.68046 -1.30212 0
M  V30 11819 H 1082.49 -1.32824 -0.632154 0
M  V30 11820 H 1084.45 -1.96929 -3.67797 0
M  V30 11821 H 1083.08 -1.00496 -3.06758 0
M  V30 11822 H 1082.13 -3.20216 -2.05343 0
M  V30 11823 H 1083.44 -4.07634 -2.87465 0
M  V30 11824 H 1082.6 -3.29224 -5.09604 0
M  V30 11825 H 1081.34 -2.31495 -4.29257 0
M  V30 11826 H 1080.34 -4.39606 -3.30192 0
M  V30 11827 H 1081.57 -5.38472 -4.13793 0
M  V30 11828 H 1079.51 -3.59277 -5.48868 0
M  V30 11829 H 1079.43 -5.31994 -5.37139 0
M  V30 11830 H 1080.7 -4.58347 -6.30506 0
M  V30 11831 N 1084.93 0.6715 -1.42579 0
M  V30 11832 C 1085.86 1.79693 -1.49107 0
M  V30 11833 C 1086.84 1.66516 -0.347338 0
M  V30 11834 O 1088.02 1.85887 -0.562094 0
M  V30 11835 C 1085.15 3.1801 -1.39596 0
M  V30 11836 C 1084.11 3.45926 -2.5203 0
M  V30 11837 C 1083.43 4.83852 -2.27577 0
M  V30 11838 C 1084.73 3.4249 -3.94333 0
M  V30 11839 H 1086.43 1.74486 -2.433 0
M  V30 11840 H 1083.97 0.838042 -1.17102 0
M  V30 11841 H 1085.92 3.96478 -1.42771 0
M  V30 11842 H 1084.65 3.23901 -0.418989 0
M  V30 11843 H 1083.31 2.6982 -2.48178 0
M  V30 11844 H 1082.96 4.86398 -1.28165 0
M  V30 11845 H 1082.66 5.03493 -3.02934 0
M  V30 11846 H 1084.18 5.646 -2.32506 0
M  V30 11847 H 1085.59 4.10922 -3.9977 0
M  V30 11848 H 1083.99 3.73666 -4.69568 0
M  V30 11849 H 1085.06 2.41002 -4.20768 0
M  V30 11850 N 1086.4 1.28806 0.908124 0
M  V30 11851 C 1087.31 1.15079 2.04436 0
M  V30 11852 C 1088.33 0.076012 1.73834 0
M  V30 11853 O 1089.51 0.286421 1.99353 0
M  V30 11854 C 1086.57 0.819733 3.3687 0
M  V30 11855 C 1085.63 1.97746 3.81045 0
M  V30 11856 C 1084.86 1.66211 5.07158 0
M  V30 11857 O 1085.09 0.579092 5.67453 0
M  V30 11858 O 1084.02 2.5075 5.47182 0
M  V30 11859 H 1087.85 2.10477 2.18937 0
M  V30 11860 H 1085.43 1.08177 1.03044 0
M  V30 11861 H 1087.31 0.649304 4.16368 0
M  V30 11862 H 1085.99 -0.10454 3.23531 0
M  V30 11863 H 1084.9 2.20308 3.02349 0
M  V30 11864 H 1086.23 2.88264 3.98955 0
M  V30 11865 N 1087.88 -1.11734 1.11145 0
M  V30 11866 C 1088.84 -2.15868 0.770303 0
M  V30 11867 C 1089.84 -1.59438 -0.208842 0
M  V30 11868 O 1091.03 -1.74193 0.0152516 0
M  V30 11869 C 1088.17 -3.40603 0.142303 0
M  V30 11870 H 1089.36 -2.4756 1.69276 0
M  V30 11871 H 1086.91 -1.26867 0.912929 0
M  V30 11872 H 1087.65 -3.14517 -0.790526 0
M  V30 11873 H 1087.43 -3.8284 0.847087 0
M  V30 11874 H 1088.92 -4.17523 -0.0803608 0
M  V30 11875 N 1089.36 -0.901303 -1.29284 0
M  V30 11876 C 1090.64 -0.44747 -1.90413 0
M  V30 11877 C 1091.02 1.07298 -1.81797 0
M  V30 11878 O 1090.36 1.91555 -1.24574 0
M  V30 11879 C 1090.57 -0.963849 -3.35427 0
M  V30 11880 C 1091.92 -1.00851 -4.12449 0
M  V30 11881 O 1092.95 -0.91163 -3.44337 0
M  V30 11882 O 1091.81 -1.15426 -5.34171 0
M  V30 11883 H 1088.9 -0.13976 -0.815105 0
M  V30 11884 H 1091.45 -0.991274 -1.37738 0
M  V30 11885 H 1090.22 -2.00782 -3.3586 0
M  V30 11886 H 1089.84 -0.400149 -3.95581 0
M  V30 11887 N 1090.84 1.42931 -0.663954 0
M  V30 11888 C 1092.06 2.06544 -0.188201 0
M  V30 11889 C 1092.49 1.495 1.14155 0
M  V30 11890 O 1091.85 0.609164 1.7076 0
M  V30 11891 C 1091.89 3.60393 -0.122105 0
M  V30 11892 O 1091 4.02176 0.91258 0
M  V30 11893 H 1090.34 0.656458 -0.0997967 0
M  V30 11894 H 1092.87 1.83253 -0.909909 0
M  V30 11895 H 1092.88 4.07959 0.0576568 0
M  V30 11896 H 1091.55 4.01287 -1.09276 0
M  V30 11897 H 1090.13 3.6618 0.704738 0
M  V30 11898 N 1092.32 0.406567 1.52266 0
M  V30 11899 C 1093.25 -0.411314 2.29849 0
M  V30 11900 C 1094.23 -1.04838 1.33952 0
M  V30 11901 O 1095.41 -1.05788 1.62857 0
M  V30 11902 C 1092.54 -1.52961 3.11802 0
M  V30 11903 C 1091.5 -1.01768 4.15725 0
M  V30 11904 C 1090.82 -2.22938 4.86007 0
M  V30 11905 C 1092.12 -0.073515 5.22248 0
M  V30 11906 H 1093.82 0.236054 2.98468 0
M  V30 11907 H 1091.36 0.114968 1.4354 0
M  V30 11908 H 1093.31 -2.10874 3.64843 0
M  V30 11909 H 1092.04 -2.20482 2.40947 0
M  V30 11910 H 1090.7 -0.46097 3.6369 0
M  V30 11911 H 1090.35 -2.89007 4.11684 0
M  V30 11912 H 1090.05 -1.89338 5.5626 0
M  V30 11913 H 1091.57 -2.81462 5.41859 0
M  V30 11914 H 1092.98 -0.561367 5.70545 0
M  V30 11915 H 1091.38 0.173551 5.99849 0
M  V30 11916 H 1092.45 0.872524 4.76985 0
M  V30 11917 N 1093.79 -1.57004 0.136909 0
M  V30 11918 C 1094.7 -2.19807 -0.819887 0
M  V30 11919 C 1095.72 -1.17939 -1.27932 0
M  V30 11920 O 1096.9 -1.50478 -1.3386 0
M  V30 11921 C 1093.96 -2.79935 -2.04542 0
M  V30 11922 C 1093.02 -3.96897 -1.6362 0
M  V30 11923 C 1092.26 -4.54148 -2.80331 0
M  V30 11924 O 1092.48 -4.10282 -3.96264 0
M  V30 11925 O 1091.41 -5.44565 -2.56384 0
M  V30 11926 H 1095.24 -3.02058 -0.315337 0
M  V30 11927 H 1092.82 -1.49131 -0.0896151 0
M  V30 11928 H 1094.71 -3.18191 -2.76283 0
M  V30 11929 H 1093.38 -2.00703 -2.53969 0
M  V30 11930 H 1092.29 -3.63376 -0.889316 0
M  V30 11931 H 1093.62 -4.77618 -1.18918 0
M  V30 11932 N 1095.27 0.136881 -1.57004 0
M  V30 11933 C 1096.52 0.849031 -1.84172 0
M  V30 11934 C 1096.85 1.80359 -0.720027 0
M  V30 11935 O 1096.13 1.92538 0.275584 0
M  V30 11936 C 1096.41 1.61465 -3.21871 0
M  V30 11937 C 1096.26 0.680902 -4.44616 0
M  V30 11938 C 1097.58 2.57488 -3.56914 0
M  V30 11939 H 1094.7 0.307209 -0.669919 0
M  V30 11940 H 1097.34 0.113862 -1.89659 0
M  V30 11941 H 1095.49 2.24137 -3.17325 0
M  V30 11942 H 1097.16 0.0644094 -4.61255 0
M  V30 11943 H 1095.41 -0.00883629 -4.33799 0
M  V30 11944 H 1096.08 1.25286 -5.37594 0
M  V30 11945 H 1098.55 2.0493 -3.62136 0
M  V30 11946 H 1097.43 3.08101 -4.54274 0
M  V30 11947 H 1097.69 3.39321 -2.83397 0
M  V30 11948 N 1096.75 1.52266 0.40654 0
M  V30 11949 C 1097.7 1.75794 1.4955 0
M  V30 11950 C 1098.67 0.600472 1.54866 0
M  V30 11951 O 1099.85 0.838305 1.71397 0
M  V30 11952 C 1096.99 1.91682 2.86971 0
M  V30 11953 C 1096.11 3.19337 2.90943 0
M  V30 11954 C 1095.24 3.25641 4.1968 0
M  V30 11955 C 1094.28 4.47488 4.17637 0
M  V30 11956 N 1093.42 4.51171 5.37949 0
M  V30 11957 H 1098.26 2.68733 1.28789 0
M  V30 11958 H 1095.79 1.33157 0.625102 0
M  V30 11959 H 1097.75 1.98877 3.66748 0
M  V30 11960 H 1096.38 1.02121 3.06221 0
M  V30 11961 H 1095.43 3.21301 2.03642 0
M  V30 11962 H 1096.75 4.09153 2.85299 0
M  V30 11963 H 1095.9 3.31922 5.07851 0
M  V30 11964 H 1094.64 2.33769 4.28023 0
M  V30 11965 H 1093.64 4.41351 3.27856 0
M  V30 11966 H 1094.87 5.40659 4.10932 0
M  V30 11967 H 1092.81 3.62182 5.46955 0
M  V30 11968 H 1092.73 5.34835 5.3431 0
M  V30 11969 H 1094 4.61685 6.28066 0
M  V30 11970 N 1098.23 -0.663929 1.42933 0
M  V30 11971 C 1099.19 -1.75899 1.46943 0
M  V30 11972 C 1100.19 -1.5682 0.355535 0
M  V30 11973 O 1101.38 -1.62914 0.616833 0
M  V30 11974 C 1098.51 -3.14657 1.31164 0
M  V30 11975 H 1099.71 -1.73727 2.44456 0
M  V30 11976 H 1097.26 -0.874587 1.2954 0
M  V30 11977 H 1097.99 -3.22447 0.346165 0
M  V30 11978 H 1097.78 -3.29909 2.11902 0
M  V30 11979 H 1099.27 -3.9453 1.36878 0
M  V30 11980 N 1099.71 -1.29285 -0.901281 0
M  V30 11981 C 1100.93 -1.20169 -1.69039 0
M  V30 11982 C 1101.36 0.234509 -1.86632 0
M  V30 11983 O 1100.71 1.16935 -1.38549 0
M  V30 11984 C 1100.76 -1.91852 -3.05328 0
M  V30 11985 O 1099.87 -1.23448 -3.9349 0
M  V30 11986 H 1099.21 -0.416486 -0.517141 0
M  V30 11987 H 1101.74 -1.70826 -1.12603 0
M  V30 11988 H 1101.75 -2.00244 -3.5548 0
M  V30 11989 H 1100.42 -2.96313 -2.91841 0
M  V30 11990 H 1099 -1.23303 -3.51924 0
M  V30 11991 N 1101.18 1.11143 -1.11736 0
M  V30 11992 C 1102.13 2.17274 -0.778513 0
M  V30 11993 C 1103.1 1.64186 0.251405 0
M  V30 11994 O 1104.29 1.90373 0.127629 0
M  V30 11995 C 1101.43 3.44324 -0.231246 0
M  V30 11996 C 1100.54 4.114 -1.31809 0
M  V30 11997 C 1099.67 5.26146 -0.73104 0
M  V30 11998 C 1098.71 5.85112 -1.79752 0
M  V30 11999 N 1097.85 6.91247 -1.22973 0
M  V30 12000 H 1102.69 2.45603 -1.68769 0
M  V30 12001 H 1100.23 1.20565 -0.842759 0
M  V30 12002 H 1102.19 4.1707 0.104045 0
M  V30 12003 H 1100.82 3.16369 0.641119 0
M  V30 12004 H 1099.87 3.36697 -1.77029 0
M  V30 12005 H 1101.18 4.51278 -2.12485 0
M  V30 12006 H 1100.33 6.05713 -0.345987 0
M  V30 12007 H 1099.07 4.87583 0.107 0
M  V30 12008 H 1098.08 5.0422 -2.19185 0
M  V30 12009 H 1099.3 6.25741 -2.63865 0
M  V30 12010 H 1097.25 6.54696 -0.41339 0
M  V30 12011 H 1097.17 7.29796 -1.97316 0
M  V30 12012 H 1098.43 7.74611 -0.87167 0
M  V30 12013 N 1102.66 0.908147 1.28804 0
M  V30 12014 C 1103.57 0.397167 2.31214 0
M  V30 12015 C 1104.59 -0.512352 1.66286 0
M  V30 12016 O 1105.76 -0.399893 1.9739 0
M  V30 12017 C 1102.83 -0.359522 3.44831 0
M  V30 12018 C 1101.89 0.582539 4.25329 0
M  V30 12019 C 1101.12 -0.138133 5.33521 0
M  V30 12020 O 1101.35 -1.36076 5.53931 0
M  V30 12021 O 1100.28 0.523682 5.99618 0
M  V30 12022 H 1104.11 1.247 2.76918 0
M  V30 12023 H 1101.69 0.672766 1.33395 0
M  V30 12024 H 1103.57 -0.787098 4.13984 0
M  V30 12025 H 1102.25 -1.18528 3.01219 0
M  V30 12026 H 1101.16 1.0594 3.58786 0
M  V30 12027 H 1102.49 1.37495 4.72605 0
M  V30 12028 N 1104.14 -1.42577 0.671525 0
M  V30 12029 C 1105.07 -2.2915 -0.0477361 0
M  V30 12030 C 1106.09 -1.43503 -0.768805 0
M  V30 12031 O 1107.27 -1.67256 -0.623509 0
M  V30 12032 C 1104.37 -3.20851 -1.09122 0
M  V30 12033 C 1103.55 -4.35134 -0.44463 0
M  V30 12034 C 1102.61 -5.07579 -1.38745 0
M  V30 12035 O 1101.63 -5.62215 -0.889015 0
M  V30 12036 N 1102.83 -5.12786 -2.72086 0
M  V30 12037 H 1105.6 -2.9152 0.695415 0
M  V30 12038 H 1103.16 -1.53467 0.515689 0
M  V30 12039 H 1105.15 -3.66183 -1.72315 0
M  V30 12040 H 1103.72 -2.59956 -1.73614 0
M  V30 12041 H 1102.94 -3.9249 0.36675 0
M  V30 12042 H 1104.23 -5.088 0.00595927 0
M  V30 12043 H 1103.63 -4.69802 -3.15123 0
M  V30 12044 H 1102.19 -5.61774 -3.30535 0
M  V30 12045 N 1105.62 -0.414636 -1.52048 0
M  V30 12046 C 1106.58 0.396285 -2.25748 0
M  V30 12047 C 1107.58 0.969003 -1.28324 0
M  V30 12048 O 1108.77 0.847016 -1.52221 0
M  V30 12049 C 1105.9 1.55838 -3.03195 0
M  V30 12050 H 1107.1 -0.249311 -2.98862 0
M  V30 12051 H 1104.65 -0.167276 -1.55402 0
M  V30 12052 H 1105.38 2.24068 -2.34444 0
M  V30 12053 H 1105.17 1.15414 -3.74729 0
M  V30 12054 H 1106.66 2.13187 -3.59084 0
M  V30 12055 N 1107.1 1.56929 -0.145233 0
M  V30 12056 C 1108.03 2.19685 0.791263 0
M  V30 12057 C 1109.01 1.14455 1.25833 0
M  V30 12058 O 1110.19 1.42791 1.31622 0
M  V30 12059 C 1107.32 2.81705 2.03124 0
M  V30 12060 C 1106.28 3.92746 1.70101 0
M  V30 12061 C 1105.6 4.41694 3.01347 0
M  V30 12062 C 1106.9 5.13606 0.949025 0
M  V30 12063 H 1108.6 2.98196 0.26825 0
M  V30 12064 H 1106.14 1.43434 0.127584 0
M  V30 12065 H 1108.1 3.24273 2.69119 0
M  V30 12066 H 1106.82 2.00523 2.57795 0
M  V30 12067 H 1105.48 3.50794 1.06486 0
M  V30 12068 H 1105.13 3.57336 3.54006 0
M  V30 12069 H 1104.83 5.1659 2.80016 0
M  V30 12070 H 1106.35 4.86931 3.68416 0
M  V30 12071 H 1107.76 5.53029 1.51102 0
M  V30 12072 H 1106.16 5.94252 0.835711 0
M  V30 12073 H 1107.23 4.84863 -0.0595631 0
M  V30 12074 N 1108.58 -0.128553 1.57075 0
M  V30 12075 C 1109.51 -1.18362 1.96273 0
M  V30 12076 C 1110.52 -1.3818 0.860818 0
M  V30 12077 O 1111.71 -1.37424 1.13916 0
M  V30 12078 C 1108.81 -2.54533 2.23755 0
M  V30 12079 C 1107.98 -2.55446 3.55058 0
M  V30 12080 C 1107.04 -3.73291 3.70864 0
M  V30 12081 O 1106.07 -3.57315 4.43074 0
M  V30 12082 N 1107.27 -4.91481 3.08912 0
M  V30 12083 H 1110.03 -0.850276 2.87385 0
M  V30 12084 H 1107.6 -0.317931 1.58748 0
M  V30 12085 H 1109.59 -3.31912 2.31553 0
M  V30 12086 H 1108.16 -2.80087 1.38816 0
M  V30 12087 H 1107.38 -1.6385 3.58534 0
M  V30 12088 H 1108.67 -2.53104 4.4138 0
M  V30 12089 H 1108.06 -5.07364 2.50196 0
M  V30 12090 H 1106.62 -5.6657 3.22245 0
M  V30 12091 N 1110.05 -1.5248 -0.398459 0
M  V30 12092 C 1111.33 -1.57634 -1.15805 0
M  V30 12093 C 1111.71 -0.363785 -2.07942 0
M  V30 12094 O 1111.06 0.648598 -2.19101 0
M  V30 12095 C 1111.27 -2.91042 -1.92602 0
M  V30 12096 C 1112.62 -3.44433 -2.48296 0
M  V30 12097 O 1113.64 -2.92853 -2.0277 0
M  V30 12098 O 1112.5 -4.34529 -3.31432 0
M  V30 12099 H 1109.59 -0.63539 -0.529347 0
M  V30 12100 H 1112.14 -1.64812 -0.404376 0
M  V30 12101 H 1110.91 -3.7074 -1.25169 0
M  V30 12102 H 1110.53 -2.87206 -2.74952 0
M  V30 12103 N 1111.53 0.65634 -1.43283 0
M  V30 12104 C 1112.46 1.78101 -1.51004 0
M  V30 12105 C 1113.44 1.66138 -0.36498 0
M  V30 12106 O 1114.63 1.85281 -0.581778 0
M  V30 12107 C 1111.76 3.16511 -1.42961 0
M  V30 12108 C 1110.71 3.43233 -2.55685 0
M  V30 12109 C 1110.04 4.81411 -2.32696 0
M  V30 12110 C 1111.34 3.38288 -3.97943 0
M  V30 12111 H 1113.03 1.71896 -2.45137 0
M  V30 12112 H 1110.58 0.825575 -1.17984 0
M  V30 12113 H 1112.53 3.94941 -1.46968 0
M  V30 12114 H 1111.25 3.23439 -0.45332 0
M  V30 12115 H 1109.91 2.67173 -2.51026 0
M  V30 12116 H 1109.56 4.85011 -1.33317 0
M  V30 12117 H 1109.26 5.00251 -3.08257 0
M  V30 12118 H 1110.79 5.62102 -2.38481 0
M  V30 12119 H 1112.2 4.06659 -4.04106 0
M  V30 12120 H 1110.6 3.68664 -4.73505 0
M  V30 12121 H 1111.67 2.36525 -4.23301 0
M  V30 12122 N 1113.01 1.29761 0.894412 0
M  V30 12123 C 1113.94 1.1115 2.00445 0
M  V30 12124 C 1114.95 0.0574655 1.62699 0
M  V30 12125 O 1116.14 0.302528 1.75918 0
M  V30 12126 C 1113.24 0.670984 3.32191 0
M  V30 12127 C 1112.42 1.80471 3.98433 0
M  V30 12128 C 1111.48 1.35431 5.08473 0
M  V30 12129 O 1110.5 2.05994 5.30618 0
M  V30 12130 N 1111.7 0.22811 5.80052 0
M  V30 12131 H 1114.47 2.06753 2.16964 0
M  V30 12132 H 1112.03 1.21772 1.06692 0
M  V30 12133 H 1114.02 0.352877 4.03159 0
M  V30 12134 H 1112.59 -0.192735 3.12005 0
M  V30 12135 H 1111.81 2.29142 3.20761 0
M  V30 12136 H 1113.1 2.56471 4.39431 0
M  V30 12137 H 1112.5 -0.360076 5.64553 0
M  V30 12138 H 1111.05 -0.0305985 6.51793 0
M  V30 12139 N 1114.49 -1.10549 1.12324 0
M  V30 12140 C 1115.42 -2.16657 0.747826 0
M  V30 12141 C 1116.43 -1.61238 -0.224981 0
M  V30 12142 O 1117.62 -1.78499 -0.00649408 0
M  V30 12143 C 1114.72 -3.38791 0.0859421 0
M  V30 12144 C 1113.89 -4.23655 1.08792 0
M  V30 12145 C 1112.95 -5.24239 0.453871 0
M  V30 12146 O 1111.98 -5.58262 1.11052 0
M  V30 12147 N 1113.18 -5.75246 -0.779215 0
M  V30 12148 H 1115.95 -2.49472 1.66084 0
M  V30 12149 H 1113.51 -1.26157 1.01469 0
M  V30 12150 H 1115.5 -4.03182 -0.350186 0
M  V30 12151 H 1114.07 -3.03961 -0.729807 0
M  V30 12152 H 1113.29 -3.55578 1.70171 0
M  V30 12153 H 1114.58 -4.77187 1.76549 0
M  V30 12154 H 1113.98 -5.49802 -1.3317 0
M  V30 12155 H 1112.53 -6.41428 -1.15818 0
M  V30 12156 N 1115.97 -0.914965 -1.28321 0
M  V30 12157 C 1116.9 -0.361578 -2.2633 0
M  V30 12158 C 1117.91 0.500637 -1.54911 0
M  V30 12159 O 1119.1 0.31532 -1.75693 0
M  V30 12160 C 1116.2 0.501693 -3.35166 0
M  V30 12161 C 1115.37 -0.338289 -4.3609 0
M  V30 12162 C 1114.43 0.460267 -5.24183 0
M  V30 12163 O 1113.46 -0.127594 -5.69057 0
M  V30 12164 N 1114.66 1.76302 -5.5308 0
M  V30 12165 H 1117.42 -1.20402 -2.74451 0
M  V30 12166 H 1114.99 -0.781042 -1.41814 0
M  V30 12167 H 1116.98 1.04268 -3.91037 0
M  V30 12168 H 1115.55 1.24485 -2.86744 0
M  V30 12169 H 1114.77 -1.06064 -3.79663 0
M  V30 12170 H 1116.06 -0.912996 -5.00542 0
M  V30 12171 H 1115.45 2.26314 -5.18458 0
M  V30 12172 H 1114.01 2.25081 -6.11704 0
M  V30 12173 N 1117.44 1.42219 -0.679077 0
M  V30 12174 C 1118.86 1.55737 -0.349034 0
M  V30 12175 C 1119.06 1.65789 1.14527 0
M  V30 12176 O 1118.12 1.62717 1.93079 0
M  V30 12177 C 1119.43 2.80516 -1.0831 0
M  V30 12178 C 1120.98 2.94294 -1.06584 0
M  V30 12179 C 1121.45 4.2194 -1.78132 0
M  V30 12180 N 1122.94 4.28861 -1.75021 0
M  V30 12181 C 1123.68 5.26453 -2.27234 0
M  V30 12182 N 1123.17 6.30171 -2.87847 0
M  V30 12183 N 1124.97 5.1828 -2.17584 0
M  V30 12184 H 1117.12 1.33939 -1.64846 0
M  V30 12185 H 1119.38 0.645029 -0.694725 0
M  V30 12186 H 1119.09 2.79241 -2.13816 0
M  V30 12187 H 1118.96 3.71539 -0.651069 0
M  V30 12188 H 1121.35 2.95094 -0.0191061 0
M  V30 12189 H 1121.43 2.04491 -1.53679 0
M  V30 12190 H 1121.07 4.21901 -2.82776 0
M  V30 12191 H 1121 5.10685 -1.28483 0
M  V30 12192 H 1123.49 3.54537 -1.30814 0
M  V30 12193 H 1123.81 7.01 -3.25298 0
M  V30 12194 H 1122.15 6.30721 -2.91918 0
M  V30 12195 H 1125.34 4.36172 -1.69916 0
M  V30 12196 H 1125.52 5.94172 -2.58581 0
M  V30 12197 N 1118.92 0.422693 1.51826 0
M  V30 12198 C 1119.85 -0.43167 2.25098 0
M  V30 12199 C 1120.87 -0.998758 1.28564 0
M  V30 12200 O 1122.06 -0.89539 1.54418 0
M  V30 12201 C 1119.16 -1.61426 2.97985 0
M  V30 12202 C 1118.33 -1.16866 4.21499 0
M  V30 12203 C 1117.39 -2.2197 4.77091 0
M  V30 12204 O 1116.41 -1.82004 5.39317 0
M  V30 12205 N 1117.62 -3.54293 4.59844 0
M  V30 12206 H 1120.38 0.196255 2.99057 0
M  V30 12207 H 1117.94 0.25079 1.59946 0
M  V30 12208 H 1119.93 -2.31331 3.32066 0
M  V30 12209 H 1118.5 -2.14783 2.27128 0
M  V30 12210 H 1117.72 -0.297217 3.93078 0
M  V30 12211 H 1119.01 -0.848106 5.01682 0
M  V30 12212 H 1118.41 -3.89505 4.10247 0
M  V30 12213 H 1116.97 -4.20135 4.98327 0
M  V30 12214 N 1120.4 -1.5685 0.153553 0
M  V30 12215 C 1121.33 -2.20101 -0.779601 0
M  V30 12216 C 1122.31 -1.15121 -1.25225 0
M  V30 12217 O 1123.5 -1.43487 -1.30862 0
M  V30 12218 C 1120.63 -2.82778 -2.01628 0
M  V30 12219 C 1119.58 -3.93643 -1.68015 0
M  V30 12220 C 1118.91 -4.43286 -2.99001 0
M  V30 12221 C 1120.21 -5.14102 -0.921774 0
M  V30 12222 H 1121.9 -2.98334 -0.252432 0
M  V30 12223 H 1119.45 -1.43499 -0.119975 0
M  V30 12224 H 1121.4 -3.25696 -2.67395 0
M  V30 12225 H 1120.12 -2.01887 -2.56728 0
M  V30 12226 H 1118.78 -3.51354 -1.04624 0
M  V30 12227 H 1118.43 -3.59208 -3.52106 0
M  V30 12228 H 1118.13 -5.18068 -2.77272 0
M  V30 12229 H 1119.65 -4.88878 -3.65828 0
M  V30 12230 H 1121.07 -5.53823 -1.48167 0
M  V30 12231 H 1119.46 -5.94687 -0.804185 0
M  V30 12232 H 1120.53 -4.84825 0.0852757 0
M  V30 12233 N 1121.88 0.120221 -1.57141 0
M  V30 12234 C 1122.83 1.16654 -2.01233 0
M  V30 12235 C 1123.82 1.42943 -0.909053 0
M  V30 12236 O 1125.03 1.4292 -1.09426 0
M  V30 12237 H 1121.4 0.393289 -0.640958 0
M  V30 12238 H 1123.37 0.768156 -2.88343 0
M  V30 12239 C 1122.12 2.4854 -2.43152 0
M  V30 12240 H 1121.44 2.29149 -3.27614 0
M  V30 12241 H 1122.88 3.20315 -2.77802 0
M  V30 12242 C 1121.34 3.1103 -1.29468 0
M  V30 12243 O 1121.87 3.97042 -0.609982 0
M  V30 12244 N 1120.08 2.70888 -1.05205 0
M  V30 12245 H 1119.63 2.01039 -1.61062 0
M  V30 12246 H 1119.58 3.13028 -0.293347 0
M  V30 12247 N 1123.36 1.52689 0.390367 0
M  V30 12248 C 1124.58 1.71541 1.15678 0
M  V30 12249 C 1125 0.433171 1.83764 0
M  V30 12250 O 1124.36 -0.592248 1.72623 0
M  V30 12251 C 1124.41 2.864 2.20584 0
M  V30 12252 O 1124.13 4.0966 1.55274 0
M  V30 12253 C 1125.63 3.1692 3.09962 0
M  V30 12254 H 1122.85 0.574381 0.346883 0
M  V30 12255 H 1125.39 1.99332 0.456851 0
M  V30 12256 H 1123.55 2.61075 2.86214 0
M  V30 12257 H 1123.96 4.73802 2.2497 0
M  V30 12258 H 1125.44 4.00755 3.79604 0
M  V30 12259 H 1125.91 2.31245 3.73393 0
M  V30 12260 H 1126.52 3.4408 2.49979 0
M  V30 12261 N 1124.83 -0.648732 1.43629 0
M  V30 12262 C 1126.11 -1.4062 1.35961 0
M  V30 12263 C 1126.49 -2.11098 0.00961023 0
M  V30 12264 O 1125.84 -2.05107 -1.00714 0
M  V30 12265 C 1126.05 -2.38719 2.54586 0
M  V30 12266 C 1127.4 -3.02584 2.97873 0
M  V30 12267 O 1128.42 -2.49046 2.54665 0
M  V30 12268 O 1127.28 -3.99662 3.72736 0
M  V30 12269 H 1124.37 -0.628483 0.53753 0
M  V30 12270 H 1126.92 -0.675263 1.55687 0
M  V30 12271 H 1125.69 -1.85619 3.44472 0
M  V30 12272 H 1125.32 -3.19257 2.36983 0
M  V30 12273 N 1126.31 -1.30234 -0.887518 0
M  V30 12274 C 1127.24 -1.18969 -2.00919 0
M  V30 12275 C 1128.22 -0.080952 -1.69907 0
M  V30 12276 O 1129.41 -0.262546 -1.92417 0
M  V30 12277 C 1126.54 -0.878094 -3.36016 0
M  V30 12278 C 1125.49 -1.94449 -3.81279 0
M  V30 12279 C 1124.82 -1.48594 -5.13638 0
M  V30 12280 C 1126.12 -3.35519 -4.00281 0
M  V30 12281 H 1127.81 -2.12808 -2.10602 0
M  V30 12282 H 1125.36 -1.02454 -1.01189 0
M  V30 12283 H 1127.31 -0.785954 -4.14006 0
M  V30 12284 H 1126.04 0.0959779 -3.26459 0
M  V30 12285 H 1124.69 -2.02622 -3.05516 0
M  V30 12286 H 1124.34 -0.500204 -5.00507 0
M  V30 12287 H 1124.04 -2.19921 -5.44893 0
M  V30 12288 H 1125.57 -1.40754 -5.94156 0
M  V30 12289 H 1126.98 -3.30119 -4.68716 0
M  V30 12290 H 1125.38 -4.0491 -4.42909 0
M  V30 12291 H 1126.45 -3.77597 -3.04218 0
M  V30 12292 N 1127.79 1.09952 -1.12909 0
M  V30 12293 C 1128.7 2.19999 -0.81471 0
M  V30 12294 C 1129.72 1.72864 0.19851 0
M  V30 12295 O 1130.89 2.01376 0.0308832 0
M  V30 12296 C 1127.96 3.45573 -0.279363 0
M  V30 12297 C 1127.02 4.07417 -1.35314 0
M  V30 12298 C 1126.25 5.26996 -0.843247 0
M  V30 12299 O 1126.47 5.69495 0.321164 0
M  V30 12300 O 1125.41 5.79826 -1.61511 0
M  V30 12301 H 1129.23 2.49333 -1.73398 0
M  V30 12302 H 1126.82 1.18784 -0.906128 0
M  V30 12303 H 1128.7 4.21398 0.0140531 0
M  V30 12304 H 1127.38 3.17854 0.612401 0
M  V30 12305 H 1126.28 3.33253 -1.6998 0
M  V30 12306 H 1127.62 4.39349 -2.21885 0
M  V30 12307 N 1129.27 0.921757 1.27833 0
M  V30 12308 C 1130.2 0.433466 2.29441 0
M  V30 12309 C 1131.18 -0.503133 1.62489 0
M  V30 12310 O 1132.36 -0.409156 1.89841 0
M  V30 12311 C 1129.49 -0.320029 3.45822 0
M  V30 12312 C 1128.45 0.528178 4.24728 0
M  V30 12313 C 1127.77 -0.354132 5.33526 0
M  V30 12314 C 1129.07 1.78959 4.90684 0
M  V30 12315 H 1130.77 1.28263 2.70535 0
M  V30 12316 H 1128.31 0.618197 1.30055 0
M  V30 12317 H 1130.27 -0.672526 4.15999 0
M  V30 12318 H 1128.99 -1.20317 3.0363 0
M  V30 12319 H 1127.65 0.863302 3.5629 0
M  V30 12320 H 1127.3 -1.23605 4.87576 0
M  V30 12321 H 1127 0.209855 5.87225 0
M  V30 12322 H 1128.52 -0.702333 6.06547 0
M  V30 12323 H 1129.94 1.50552 5.53179 0
M  V30 12324 H 1128.33 2.29661 5.54415 0
M  V30 12325 H 1129.4 2.51265 4.14721 0
M  V30 12326 N 1130.75 -1.41857 0.686609 0
M  V30 12327 C 1132.16 -1.55549 0.357288 0
M  V30 12328 C 1132.36 -1.66394 -1.13646 0
M  V30 12329 O 1131.42 -1.63739 -1.92213 0
M  V30 12330 C 1132.73 -2.79938 1.09796 0
M  V30 12331 C 1134.28 -2.93724 1.08143 0
M  V30 12332 C 1134.75 -4.20989 1.80367 0
M  V30 12333 N 1136.25 -4.27927 1.77293 0
M  V30 12334 C 1136.98 -5.2524 2.30022 0
M  V30 12335 N 1136.48 -6.28636 2.91185 0
M  V30 12336 N 1138.27 -5.17118 2.20329 0
M  V30 12337 H 1130.42 -1.33063 1.65554 0
M  V30 12338 H 1132.68 -0.641335 0.698135 0
M  V30 12339 H 1132.39 -2.78104 2.15293 0
M  V30 12340 H 1132.26 -3.71188 0.670763 0
M  V30 12341 H 1134.65 -2.9508 0.0347554 0
M  V30 12342 H 1134.73 -2.03673 1.54761 0
M  V30 12343 H 1134.38 -4.20395 2.85009 0
M  V30 12344 H 1134.31 -5.09997 1.3119 0
M  V30 12345 H 1136.8 -3.53838 1.32692 0
M  V30 12346 H 1137.11 -6.99265 3.29011 0
M  V30 12347 H 1135.45 -6.29164 2.95259 0
M  V30 12348 H 1138.65 -4.35265 1.72226 0
M  V30 12349 H 1138.82 -5.92792 2.61728 0
M  V30 12350 N 1132.22 -0.430739 -1.51599 0
M  V30 12351 C 1133.19 0.372319 -2.26156 0
M  V30 12352 C 1134.19 0.955338 -1.29344 0
M  V30 12353 O 1135.38 0.830823 -1.53111 0
M  V30 12354 C 1132.51 1.52613 -3.04831 0
M  V30 12355 H 1133.7 -0.280996 -2.98581 0
M  V30 12356 H 1131.26 -0.183749 -1.55216 0
M  V30 12357 H 1131.99 2.21569 -2.36807 0
M  V30 12358 H 1131.78 1.11433 -3.75932 0
M  V30 12359 H 1133.27 2.09366 -3.61325 0
M  V30 12360 N 1133.7 1.56767 -0.161869 0
M  V30 12361 C 1134.93 2.00964 0.492027 0
M  V30 12362 C 1135.35 1.04206 1.57437 0
M  V30 12363 O 1134.7 0.0413998 1.82453 0
M  V30 12364 C 1134.75 3.4502 1.07904 0
M  V30 12365 O 1134.47 4.38082 0.0399085 0
M  V30 12366 C 1135.98 4.04572 1.81209 0
M  V30 12367 H 1133.2 0.658911 0.126797 0
M  V30 12368 H 1135.74 2.0283 -0.260824 0
M  V30 12369 H 1133.89 3.43959 1.78243 0
M  V30 12370 H 1134.31 5.22372 0.471985 0
M  V30 12371 H 1135.78 5.07321 2.17554 0
M  V30 12372 H 1136.26 3.46126 2.70359 0
M  V30 12373 H 1136.87 4.09307 1.15534 0
M  V30 12374 N 1135.18 -0.111886 1.57202 0
M  V30 12375 C 1136.09 -1.1556 2.04165 0
M  V30 12376 C 1137.11 -1.44898 0.963354 0
M  V30 12377 O 1138.28 -1.55873 1.27536 0
M  V30 12378 C 1135.35 -2.46048 2.44256 0
M  V30 12379 C 1134.41 -2.24043 3.66201 0
M  V30 12380 C 1133.64 -3.4831 4.04371 0
M  V30 12381 O 1133.86 -4.55895 3.42806 0
M  V30 12382 O 1132.8 -3.38891 4.9743 0
M  V30 12383 H 1136.62 -0.786778 2.93332 0
M  V30 12384 H 1134.21 -0.323196 1.45862 0
M  V30 12385 H 1136.09 -3.22916 2.70745 0
M  V30 12386 H 1134.77 -2.8239 1.58233 0
M  V30 12387 H 1133.67 -1.4501 3.44852 0
M  V30 12388 H 1135.01 -1.92602 4.52952 0
M  V30 12389 N 1136.66 -1.52894 -0.382264 0
M  V30 12390 C 1137.59 -1.81122 -1.47367 0
M  V30 12391 C 1138.57 -0.663653 -1.56619 0
M  V30 12392 O 1139.75 -0.911898 -1.71459 0
M  V30 12393 C 1136.88 -1.98615 -2.84902 0
M  V30 12394 C 1135.84 -3.14328 -2.90485 0
M  V30 12395 C 1135.16 -3.17086 -4.30535 0
M  V30 12396 C 1136.46 -4.53263 -2.59519 0
M  V30 12397 H 1138.16 -2.72518 -1.23993 0
M  V30 12398 H 1135.7 -1.3113 -0.595049 0
M  V30 12399 H 1137.66 -2.16946 -3.61265 0
M  V30 12400 H 1136.38 -1.03915 -3.09628 0
M  V30 12401 H 1135.04 -2.95791 -2.16572 0
M  V30 12402 H 1134.69 -2.20055 -4.52311 0
M  V30 12403 H 1134.39 -3.94821 -4.3519 0
M  V30 12404 H 1135.91 -3.3758 -5.08795 0
M  V30 12405 H 1137.33 -4.71867 -3.25598 0
M  V30 12406 H 1135.72 -5.33115 -2.75514 0
M  V30 12407 H 1136.79 -4.59516 -1.54831 0
M  V30 12408 N 1138.14 0.641106 -1.43971 0
M  V30 12409 C 1139.36 1.43324 -1.4991 0
M  V30 12410 C 1139.79 1.87705 -0.121908 0
M  V30 12411 O 1139.15 1.58127 0.886875 0
M  V30 12412 C 1139.19 2.63637 -2.46025 0
M  V30 12413 O 1138.3 3.63123 -1.95488 0
M  V30 12414 H 1137.64 0.429252 -0.506595 0
M  V30 12415 H 1140.17 0.783427 -1.89007 0
M  V30 12416 H 1140.18 3.11304 -2.63731 0
M  V30 12417 H 1138.85 2.30678 -3.46064 0
M  V30 12418 H 1137.43 3.22332 -1.87501 0
M  V30 12419 N 1139.62 1.30703 0.880598 0
M  V30 12420 C 1140.56 1.17455 1.98678 0
M  V30 12421 C 1141.53 0.0629569 1.65981 0
M  V30 12422 O 1142.72 0.233926 1.89361 0
M  V30 12423 C 1139.86 0.876882 3.33774 0
M  V30 12424 C 1138.97 2.07078 3.79134 0
M  V30 12425 C 1138.11 1.71082 5.02896 0
M  V30 12426 C 1137.14 2.86942 5.40676 0
M  V30 12427 N 1136.28 2.51212 6.55619 0
M  V30 12428 H 1141.12 2.12086 2.09341 0
M  V30 12429 H 1138.66 1.05514 1.02495 0
M  V30 12430 H 1140.62 0.684899 4.1154 0
M  V30 12431 H 1139.25 -0.0325633 3.22784 0
M  V30 12432 H 1138.3 2.37388 2.97239 0
M  V30 12433 H 1139.61 2.9383 4.0307 0
M  V30 12434 H 1138.76 1.48284 5.883 0
M  V30 12435 H 1137.5 0.815064 4.80841 0
M  V30 12436 H 1136.51 3.10401 4.53797 0
M  V30 12437 H 1137.73 3.77211 5.64703 0
M  V30 12438 H 1135.68 1.64147 6.35131 0
M  V30 12439 H 1135.6 3.31495 6.79446 0
M  V30 12440 H 1136.86 2.31781 7.44243 0
M  V30 12441 N 1141.09 -1.09351 1.1349 0
M  V30 12442 C 1142.03 -2.15852 0.770763 0
M  V30 12443 C 1143.04 -1.61468 -0.207866 0
M  V30 12444 O 1144.23 -1.78496 0.0124385 0
M  V30 12445 C 1141.33 -3.38681 0.121871 0
M  V30 12446 C 1140.5 -4.22477 1.13279 0
M  V30 12447 C 1139.56 -5.23728 0.509448 0
M  V30 12448 O 1138.59 -5.57052 1.16967 0
M  V30 12449 N 1139.79 -5.76041 -0.718159 0
M  V30 12450 H 1142.55 -2.47696 1.6872 0
M  V30 12451 H 1140.11 -1.25074 1.02801 0
M  V30 12452 H 1142.11 -4.03531 -0.307404 0
M  V30 12453 H 1140.68 -3.04718 -0.697527 0
M  V30 12454 H 1139.9 -3.53753 1.73933 0
M  V30 12455 H 1141.18 -4.75288 1.81601 0
M  V30 12456 H 1140.58 -5.51183 -1.27331 0
M  V30 12457 H 1139.14 -6.4262 -1.09008 0
M  V30 12458 N 1142.57 -0.928524 -1.27343 0
M  V30 12459 C 1143.5 -0.445627 -2.29208 0
M  V30 12460 C 1144.48 0.494508 -1.62753 0
M  V30 12461 O 1145.67 0.399082 -1.90055 0
M  V30 12462 C 1142.8 0.301684 -3.45987 0
M  V30 12463 C 1141.75 -0.550695 -4.24442 0
M  V30 12464 C 1141.08 0.325833 -5.33706 0
M  V30 12465 C 1142.38 -1.81559 -4.89728 0
M  V30 12466 H 1144.07 -1.29696 -2.69851 0
M  V30 12467 H 1141.62 -0.625085 -1.29725 0
M  V30 12468 H 1143.57 0.650455 -4.1635 0
M  V30 12469 H 1142.29 1.18705 -3.04264 0
M  V30 12470 H 1140.95 -0.882185 -3.55827 0
M  V30 12471 H 1140.6 1.21018 -4.88225 0
M  V30 12472 H 1140.3 -0.240994 -5.87106 0
M  V30 12473 H 1141.83 0.670156 -6.06911 0
M  V30 12474 H 1143.24 -1.53483 -5.52373 0
M  V30 12475 H 1141.64 -2.32598 -5.53189 0
M  V30 12476 H 1142.71 -2.53461 -4.13383 0
M  V30 12477 N 1144.05 1.41491 -0.694123 0
M  V30 12478 C 1144.96 2.34583 -0.0283414 0
M  V30 12479 C 1145.98 1.5615 0.767662 0
M  V30 12480 O 1147.15 1.88637 0.705556 0
M  V30 12481 C 1144.22 3.34876 0.897726 0
M  V30 12482 C 1143.28 4.29197 0.0940905 0
M  V30 12483 C 1142.51 5.24699 0.976051 0
M  V30 12484 O 1142.73 5.25613 2.21556 0
M  V30 12485 O 1141.67 6.00387 0.426503 0
M  V30 12486 H 1145.49 2.93092 -0.795656 0
M  V30 12487 H 1143.08 1.4232 -0.45445 0
M  V30 12488 H 1144.96 3.96438 1.4288 0
M  V30 12489 H 1143.64 2.78812 1.64456 0
M  V30 12490 H 1142.54 3.70988 -0.481552 0
M  V30 12491 H 1143.88 4.88355 -0.614045 0
M  V30 12492 N 1145.53 0.438773 1.51369 0
M  V30 12493 C 1146.46 -0.417215 2.24354 0
M  V30 12494 C 1147.44 -1.02351 1.26345 0
M  V30 12495 O 1148.62 -1.06569 1.55484 0
M  V30 12496 C 1145.75 -1.58163 2.99503 0
M  V30 12497 C 1144.8 -1.09588 4.1218 0
M  V30 12498 S 1145.63 -0.0367491 5.35487 0
M  V30 12499 C 1146.78 -1.2058 6.14175 0
M  V30 12500 H 1147.02 0.202416 2.9661 0
M  V30 12501 H 1144.55 0.223306 1.52777 0
M  V30 12502 H 1146.51 -2.24917 3.43399 0
M  V30 12503 H 1145.17 -2.17268 2.26833 0
M  V30 12504 H 1144.36 -1.96667 4.64045 0
M  V30 12505 H 1143.96 -0.506564 3.70554 0
M  V30 12506 H 1146.26 -2.12387 6.43349 0
M  V30 12507 H 1147.2 -0.727087 7.04357 0
M  V30 12508 H 1147.61 -1.44501 5.45692 0
M  V30 12509 N 1147.01 -1.56678 0.170181 0
M  V30 12510 C 1147.92 -2.21496 -0.773079 0
M  V30 12511 C 1148.93 -1.20626 -1.25401 0
M  V30 12512 O 1150.11 -1.53283 -1.30638 0
M  V30 12513 C 1147.17 -2.8421 -1.98558 0
M  V30 12514 C 1146.23 -4.00278 -1.55164 0
M  V30 12515 C 1145.47 -4.59992 -2.70634 0
M  V30 12516 O 1145.69 -4.18595 -3.87472 0
M  V30 12517 O 1144.62 -5.49881 -2.44775 0
M  V30 12518 H 1148.45 -3.02659 -0.251195 0
M  V30 12519 H 1146.03 -1.49288 -0.0579621 0
M  V30 12520 H 1147.92 -3.2398 -2.69472 0
M  V30 12521 H 1146.59 -2.06045 -2.49654 0
M  V30 12522 H 1145.5 -3.6518 -0.812038 0
M  V30 12523 H 1146.83 -4.80033 -1.0876 0
M  V30 12524 N 1148.48 0.103547 -1.57259 0
M  V30 12525 C 1149.43 1.12621 -2.01458 0
M  V30 12526 C 1150.4 1.40282 -0.889391 0
M  V30 12527 O 1151.59 1.51887 -1.15477 0
M  V30 12528 C 1148.73 2.44352 -2.43692 0
M  V30 12529 C 1147.84 2.23495 -3.69695 0
M  V30 12530 C 1146.97 3.48565 -4.00844 0
M  V30 12531 C 1146.01 3.22932 -5.19982 0
M  V30 12532 N 1145.15 4.40246 -5.46926 0
M  V30 12533 H 1149.99 0.742315 -2.88606 0
M  V30 12534 H 1147.53 0.355016 -1.42752 0
M  V30 12535 H 1149.48 3.2122 -2.66221 0
M  V30 12536 H 1148.11 2.80605 -1.59565 0
M  V30 12537 H 1147.17 1.3747 -3.54692 0
M  V30 12538 H 1148.48 2.0054 -4.56711 0
M  V30 12539 H 1147.63 4.33844 -4.24104 0
M  V30 12540 H 1146.37 3.74565 -3.12333 0
M  V30 12541 H 1145.38 2.36045 -4.96551 0
M  V30 12542 H 1146.6 2.98286 -6.10084 0
M  V30 12543 H 1144.55 4.66338 -4.61373 0
M  V30 12544 H 1144.46 4.20452 -6.28296 0
M  V30 12545 H 1145.73 5.26614 -5.74716 0
M  V30 12546 N 1149.96 1.53094 0.37415 0
M  V30 12547 C 1150.87 1.81872 1.48188 0
M  V30 12548 C 1151.89 0.706487 1.59012 0
M  V30 12549 O 1153.06 0.995648 1.75068 0
M  V30 12550 C 1150.13 1.99494 2.83554 0
M  V30 12551 C 1149.19 3.23402 2.82329 0
M  V30 12552 C 1148.42 3.40174 4.11239 0
M  V30 12553 O 1148.65 2.61425 5.06965 0
M  V30 12554 O 1147.58 4.33493 4.17573 0
M  V30 12555 H 1151.41 2.75965 1.26795 0
M  V30 12556 H 1148.99 1.38368 0.56343 0
M  V30 12557 H 1150.87 2.12705 3.63778 0
M  V30 12558 H 1149.55 1.08591 3.04942 0
M  V30 12559 H 1148.45 3.15621 2.00834 0
M  V30 12560 H 1149.79 4.14199 2.65894 0
M  V30 12561 N 1151.44 -0.633461 1.44309 0
M  V30 12562 C 1152.69 -1.38902 1.4625 0
M  V30 12563 C 1153 -1.95354 0.0980699 0
M  V30 12564 O 1154.21 -2.715 -0.0049983 0
M  V30 12565 C 1152.66 -2.51477 2.57463 0
M  V30 12566 C 1152.27 -2.01549 4.00103 0
M  V30 12567 C 1154.02 -3.28698 2.68622 0
M  V30 12568 C 1151.92 -3.11452 5.02744 0
M  V30 12569 H 1150.85 -0.521976 0.544112 0
M  V30 12570 H 1153.5 -0.681725 1.70367 0
M  V30 12571 H 1151.89 -3.24771 2.26582 0
M  V30 12572 H 1153.06 -1.35135 4.4054 0
M  V30 12573 H 1151.37 -1.3715 3.93165 0
M  V30 12574 H 1153.97 -4.10624 3.42479 0
M  V30 12575 H 1154.31 -3.78027 1.7436 0
M  V30 12576 H 1154.85 -2.62494 2.98901 0
M  V30 12577 H 1151.59 -2.6707 5.98627 0
M  V30 12578 H 1151.11 -3.76514 4.66902 0
M  V30 12579 H 1152.79 -3.76265 5.2634 0
M  V30 12580 N 1152.92 -1.31168 -0.873655 0
M  V30 12581 C 1154.16 -1.20821 -1.62881 0
M  V30 12582 C 1154.5 0.233994 -1.92785 0
M  V30 12583 O 1153.77 1.16588 -1.55684 0
M  V30 12584 C 1154.06 -2.04875 -2.96139 0
M  V30 12585 C 1153.91 -3.57375 -2.73136 0
M  V30 12586 C 1155.23 -1.8953 -3.97198 0
M  V30 12587 H 1152.35 -0.44026 -0.59105 0
M  V30 12588 H 1154.99 -1.6092 -1.01019 0
M  V30 12589 H 1153.14 -1.70806 -3.48938 0
M  V30 12590 H 1154.81 -4.01561 -2.27038 0
M  V30 12591 H 1153.05 -3.8099 -2.07434 0
M  V30 12592 H 1153.72 -4.1149 -3.6794 0
M  V30 12593 H 1156.2 -2.19337 -3.53596 0
M  V30 12594 H 1155.08 -2.5065 -4.8833 0
M  V30 12595 H 1155.34 -0.857576 -4.33703 0
M  V30 12596 N 1154.4 1.08748 -1.14068 0
M  V30 12597 C 1155.62 1.85353 -0.930532 0
M  V30 12598 C 1156.05 1.80892 0.515717 0
M  V30 12599 O 1155.4 1.19146 1.36652 0
M  V30 12600 C 1155.45 3.30962 -1.43167 0
M  V30 12601 O 1154.56 4.0769 -0.621468 0
M  V30 12602 H 1153.9 0.574485 -0.332962 0
M  V30 12603 H 1156.43 1.37282 -1.51707 0
M  V30 12604 H 1156.44 3.81807 -1.43832 0
M  V30 12605 H 1155.11 3.33524 -2.48464 0
M  V30 12606 H 1153.69 3.66587 -0.683267 0
M  V30 12607 N 1155.87 0.935264 1.26849 0
M  V30 12608 C 1157.1 0.595704 1.98661 0
M  V30 12609 C 1157.52 -0.821001 1.69237 0
M  V30 12610 O 1156.88 -1.55211 0.936982 0
M  V30 12611 C 1156.93 0.837275 3.50745 0
M  V30 12612 O 1156.03 -0.0934914 4.12294 0
M  V30 12613 H 1155.38 0.228512 0.623441 0
M  V30 12614 H 1157.91 1.25658 1.61466 0
M  V30 12615 H 1157.92 0.755827 4.00938 0
M  V30 12616 H 1156.59 1.86993 3.71492 0
M  V30 12617 H 1155.17 0.0385124 3.7288 0
M  V30 12618 N 1157.35 -1.41121 0.701616 0
M  V30 12619 C 1158.58 -2.05452 0.244365 0
M  V30 12620 C 1159 -1.5282 -1.10866 0
M  V30 12621 O 1158.35 -0.67893 -1.69401 0
M  V30 12622 C 1158.4 -3.60946 0.200112 0
M  V30 12623 O 1158.12 -4.11632 1.4997 0
M  V30 12624 C 1159.63 -4.42431 -0.277394 0
M  V30 12625 H 1156.85 -0.66151 0.112453 0
M  V30 12626 H 1159.39 -1.80784 0.9559 0
M  V30 12627 H 1157.54 -3.84632 -0.462287 0
M  V30 12628 H 1157.96 -5.05723 1.39084 0
M  V30 12629 H 1159.43 -5.514 -0.257225 0
M  V30 12630 H 1159.91 -4.1898 -1.31728 0
M  V30 12631 H 1160.52 -4.23822 0.354223 0
M  V30 12632 N 1158.83 -0.446794 -1.51134 0
M  V30 12633 C 1160.25 -0.0995905 -1.59289 0
M  V30 12634 C 1160.45 1.39191 -1.45699 0
M  V30 12635 O 1159.5 2.1628 -1.30303 0
M  V30 12636 C 1160.82 -0.628135 -2.94066 0
M  V30 12637 C 1162.36 -0.589409 -3.074 0
M  V30 12638 C 1162.84 -1.09509 -4.44715 0
M  V30 12639 N 1164.33 -1.05347 -4.51061 0
M  V30 12640 C 1165.06 -1.41551 -5.55654 0
M  V30 12641 N 1164.56 -1.85086 -6.67619 0
M  V30 12642 N 1166.35 -1.33307 -5.46064 0
M  V30 12643 H 1158.5 -1.41713 -1.58213 0
M  V30 12644 H 1160.77 -0.584555 -0.746324 0
M  V30 12645 H 1160.47 -1.67205 -3.09411 0
M  V30 12646 H 1160.35 -0.0582398 -3.77155 0
M  V30 12647 H 1162.73 0.445541 -2.91717 0
M  V30 12648 H 1162.82 -1.19582 -2.26128 0
M  V30 12649 H 1162.46 -2.12855 -4.61146 0
M  V30 12650 H 1162.39 -0.465122 -5.24542 0
M  V30 12651 H 1164.88 -0.733877 -3.70706 0
M  V30 12652 H 1165.19 -2.10923 -7.43459 0
M  V30 12653 H 1163.54 -1.8902 -6.68802 0
M  V30 12654 H 1166.73 -0.991547 -4.57478 0
M  V30 12655 H 1166.9 -1.6185 -6.27462 0
M  V30 12656 N 1160.31 1.56586 -0.178487 0
M  V30 12657 C 1161.24 2.21313 0.744486 0
M  V30 12658 C 1162.22 1.17098 1.23377 0
M  V30 12659 O 1163.4 1.45551 1.28563 0
M  V30 12660 C 1160.53 2.8595 1.97103 0
M  V30 12661 C 1159.49 3.96266 1.61732 0
M  V30 12662 C 1158.81 4.47987 2.91911 0
M  V30 12663 C 1160.11 5.15503 0.839868 0
M  V30 12664 H 1161.81 2.98698 0.204938 0
M  V30 12665 H 1159.35 1.43672 0.0971306 0
M  V30 12666 H 1161.31 3.29909 2.6218 0
M  V30 12667 H 1160.03 2.05946 2.53484 0
M  V30 12668 H 1158.69 3.52974 0.990208 0
M  V30 12669 H 1158.34 3.64765 3.46346 0
M  V30 12670 H 1158.04 5.22413 2.68995 0
M  V30 12671 H 1159.56 4.94637 3.58004 0
M  V30 12672 H 1160.98 5.5611 1.39337 0
M  V30 12673 H 1159.37 5.95891 0.709473 0
M  V30 12674 H 1160.44 4.84628 -0.162396 0
M  V30 12675 N 1161.79 -0.095206 1.57312 0
M  V30 12676 C 1163.06 -0.830388 1.77099 0
M  V30 12677 C 1163.44 -1.9694 0.760121 0
M  V30 12678 O 1162.79 -2.2752 -0.211403 0
M  V30 12679 C 1163 -1.32507 3.22867 0
M  V30 12680 C 1164.35 -1.7679 3.86045 0
M  V30 12681 O 1165.37 -1.42131 3.26615 0
M  V30 12682 O 1164.23 -2.40876 4.90552 0
M  V30 12683 H 1161.33 -0.396083 0.72598 0
M  V30 12684 H 1163.87 -0.0770965 1.69525 0
M  V30 12685 H 1162.64 -0.508992 3.87975 0
M  V30 12686 H 1162.27 -2.14037 3.35073 0
M  V30 12687 N 1163.26 -1.53291 -0.366026 0
M  V30 12688 C 1164.19 -1.82675 -1.45437 0
M  V30 12689 C 1165.18 -0.680227 -1.55907 0
M  V30 12690 O 1166.36 -0.930032 -1.70482 0
M  V30 12691 C 1163.49 -2.01626 -2.8278 0
M  V30 12692 C 1162.44 -3.17391 -2.87135 0
M  V30 12693 C 1161.77 -3.21634 -4.27148 0
M  V30 12694 C 1163.07 -4.5599 -2.54697 0
M  V30 12695 H 1164.76 -2.73818 -1.21096 0
M  V30 12696 H 1162.31 -1.31754 -0.581108 0
M  V30 12697 H 1164.26 -2.20765 -3.58944 0
M  V30 12698 H 1162.99 -1.07193 -3.08508 0
M  V30 12699 H 1161.65 -2.98071 -2.13422 0
M  V30 12700 H 1161.29 -2.2484 -4.49951 0
M  V30 12701 H 1160.99 -3.99414 -4.30978 0
M  V30 12702 H 1162.52 -3.42957 -5.05186 0
M  V30 12703 H 1163.93 -4.75294 -3.20575 0
M  V30 12704 H 1162.33 -5.36008 -2.69844 0
M  V30 12705 H 1163.4 -4.61133 -1.49949 0
M  V30 12706 N 1164.74 0.6258 -1.44643 0
M  V30 12707 C 1165.67 1.75086 -1.47911 0
M  V30 12708 C 1166.69 1.58496 -0.37188 0
M  V30 12709 O 1167.88 1.66712 -0.637925 0
M  V30 12710 C 1164.98 3.12874 -1.30243 0
M  V30 12711 C 1164.15 3.55873 -2.54309 0
M  V30 12712 C 1163.21 4.72558 -2.31464 0
M  V30 12713 O 1162.23 4.80599 -3.04981 0
M  V30 12714 N 1163.44 5.64617 -1.34862 0
M  V30 12715 H 1166.2 1.72751 -2.44902 0
M  V30 12716 H 1163.76 0.810531 -1.4015 0
M  V30 12717 H 1165.75 3.88663 -1.12798 0
M  V30 12718 H 1164.32 3.0982 -0.415966 0
M  V30 12719 H 1163.54 2.70237 -2.86994 0
M  V30 12720 H 1164.83 3.81355 -3.36817 0
M  V30 12721 H 1164.23 5.60819 -0.741542 0
M  V30 12722 H 1162.79 6.40013 -1.23394 0
M  V30 12723 N 1166.22 1.31629 0.866686 0
M  V30 12724 C 1167.17 1.19556 1.97421 0
M  V30 12725 C 1168.14 0.0805578 1.65905 0
M  V30 12726 O 1169.32 0.253997 1.89102 0
M  V30 12727 C 1166.46 0.912234 3.32825 0
M  V30 12728 C 1165.58 2.11088 3.76916 0
M  V30 12729 C 1164.71 1.76406 5.01053 0
M  V30 12730 C 1163.75 2.9266 5.37602 0
M  V30 12731 N 1162.89 2.58152 6.52918 0
M  V30 12732 H 1167.73 2.14294 2.0708 0
M  V30 12733 H 1165.26 1.06595 1.0137 0
M  V30 12734 H 1167.22 0.72851 4.1079 0
M  V30 12735 H 1165.85 0.00167404 3.228 0
M  V30 12736 H 1164.9 2.40527 2.94705 0
M  V30 12737 H 1166.22 2.98089 3.99931 0
M  V30 12738 H 1165.37 1.54515 5.86694 0
M  V30 12739 H 1164.11 0.866018 4.79949 0
M  V30 12740 H 1163.11 3.15196 4.50479 0
M  V30 12741 H 1164.34 3.83179 5.6067 0
M  V30 12742 H 1162.28 1.70874 6.33355 0
M  V30 12743 H 1162.2 3.38682 6.75892 0
M  V30 12744 H 1163.47 2.39662 7.41743 0
M  V30 12745 N 1167.7 -1.08142 1.14644 0
M  V30 12746 C 1168.65 -2.15133 0.835845 0
M  V30 12747 C 1169.62 -1.64795 -0.207785 0
M  V30 12748 O 1170.8 -1.90644 -0.07711 0
M  V30 12749 C 1167.94 -3.4359 0.322456 0
M  V30 12750 C 1167.05 -4.07761 1.42671 0
M  V30 12751 C 1166.19 -5.24022 0.870281 0
M  V30 12752 C 1165.23 -5.8014 1.95202 0
M  V30 12753 N 1164.37 -6.87743 1.41257 0
M  V30 12754 H 1169.21 -2.41042 1.75222 0
M  V30 12755 H 1166.74 -1.18288 0.874428 0
M  V30 12756 H 1168.7 -4.17199 0.00657059 0
M  V30 12757 H 1167.33 -3.17958 -0.557014 0
M  V30 12758 H 1166.38 -3.31885 1.85893 0
M  V30 12759 H 1167.69 -4.45485 2.24375 0
M  V30 12760 H 1166.85 -6.04582 0.506459 0
M  V30 12761 H 1165.59 -4.87695 0.0223118 0
M  V30 12762 H 1164.59 -4.98232 2.32476 0
M  V30 12763 H 1165.82 -6.18525 2.80363 0
M  V30 12764 H 1163.76 -6.5337 0.586826 0
M  V30 12765 H 1163.68 -7.24308 2.16596 0
M  V30 12766 H 1164.95 -7.72028 1.07674 0
M  V30 12767 N 1169.18 -0.941978 -1.26351 0
M  V30 12768 C 1170.4 -0.606231 -1.98342 0
M  V30 12769 C 1170.83 0.812014 -1.6967 0
M  V30 12770 O 1170.19 1.54712 -0.9452 0
M  V30 12771 C 1170.23 -0.855864 -3.50296 0
M  V30 12772 O 1169.34 0.0716251 -4.12338 0
M  V30 12773 H 1168.68 -0.231815 -0.62222 0
M  V30 12774 H 1171.21 -1.26513 -1.60797 0
M  V30 12775 H 1171.22 -0.777079 -4.00531 0
M  V30 12776 H 1169.89 -1.8896 -3.70496 0
M  V30 12777 H 1168.47 -0.0582866 -3.72854 0
M  V30 12778 N 1170.66 1.40747 -0.709091 0
M  V30 12779 C 1171.57 2.3454 -0.0532205 0
M  V30 12780 C 1172.58 1.56956 0.751057 0
M  V30 12781 O 1173.76 1.89375 0.685509 0
M  V30 12782 C 1170.82 3.35809 0.862157 0
M  V30 12783 C 1169.88 4.29273 0.0485632 0
M  V30 12784 C 1169.12 5.25705 0.920345 0
M  V30 12785 O 1169.34 5.27933 2.15969 0
M  V30 12786 O 1168.27 6.00806 0.3628 0
M  V30 12787 H 1172.1 2.92232 -0.826698 0
M  V30 12788 H 1169.68 1.4183 -0.469519 0
M  V30 12789 H 1171.57 3.97931 1.38668 0
M  V30 12790 H 1170.24 2.8054 1.61489 0
M  V30 12791 H 1169.15 3.70456 -0.520873 0
M  V30 12792 H 1170.48 4.87676 -0.665807 0
M  V30 12793 N 1172.13 0.454803 1.50895 0
M  V30 12794 C 1173.1 -0.336293 2.26719 0
M  V30 12795 C 1174.1 -0.93464 1.30848 0
M  V30 12796 O 1175.29 -0.80636 1.54413 0
M  V30 12797 C 1172.42 -1.47744 3.07221 0
M  V30 12798 H 1173.61 0.328462 2.98096 0
M  V30 12799 H 1171.16 0.208419 1.54904 0
M  V30 12800 H 1171.9 -2.17773 2.40302 0
M  V30 12801 H 1171.68 -1.05438 3.77658 0
M  V30 12802 H 1173.17 -2.03592 3.6461 0
M  V30 12803 N 1173.61 -1.56489 0.186789 0
M  V30 12804 C 1174.54 -2.21705 -0.732739 0
M  V30 12805 C 1175.52 -1.17751 -1.22755 0
M  V30 12806 O 1176.71 -1.46231 -1.27789 0
M  V30 12807 C 1173.84 -2.86992 -1.95584 0
M  V30 12808 C 1172.79 -3.97118 -1.59628 0
M  V30 12809 C 1172.12 -4.49529 -2.89531 0
M  V30 12810 C 1173.42 -5.15941 -0.812518 0
M  V30 12811 H 1175.11 -2.98802 -0.189094 0
M  V30 12812 H 1172.66 -1.43722 -0.0895099 0
M  V30 12813 H 1174.61 -3.31295 -2.60426 0
M  V30 12814 H 1173.33 -2.07287 -2.52388 0
M  V30 12815 H 1171.99 -3.53494 -0.971475 0
M  V30 12816 H 1171.64 -3.66596 -3.44407 0
M  V30 12817 H 1171.34 -5.23832 -2.66221 0
M  V30 12818 H 1172.87 -4.96528 -3.55376 0
M  V30 12819 H 1174.28 -5.56841 -1.36386 0
M  V30 12820 H 1172.68 -5.96259 -0.677862 0
M  V30 12821 H 1173.75 -4.84535 0.188095 0
M  V30 12822 N 1175.09 0.086862 -1.5736 0
M  V30 12823 C 1176 1.12297 -2.05977 0
M  V30 12824 C 1177.02 1.43347 -0.986284 0
M  V30 12825 O 1178.19 1.53825 -1.3 0
M  V30 12826 C 1175.26 2.42131 -2.4814 0
M  V30 12827 C 1174.32 2.18189 -3.69719 0
M  V30 12828 C 1173.55 3.41833 -4.09861 0
M  V30 12829 O 1173.77 4.50383 -3.50016 0
M  V30 12830 O 1172.71 3.30934 -5.02759 0
M  V30 12831 H 1176.53 0.740012 -2.94546 0
M  V30 12832 H 1174.12 0.29995 -1.46358 0
M  V30 12833 H 1176 3.18568 -2.75848 0
M  V30 12834 H 1174.68 2.79837 -1.62705 0
M  V30 12835 H 1173.58 1.39506 -3.47115 0
M  V30 12836 H 1174.92 1.85372 -4.55959 0
M  V30 12837 N 1176.57 1.53483 0.357892 0
M  V30 12838 C 1177.79 1.74264 1.12458 0
M  V30 12839 C 1178.22 0.473944 1.82031 0
M  V30 12840 O 1177.58 -0.57253 1.72023 0
M  V30 12841 C 1177.62 2.91356 2.12471 0
M  V30 12842 O 1176.73 2.60502 3.19707 0
M  V30 12843 H 1176.07 0.578499 0.325937 0
M  V30 12844 H 1178.6 2.00395 0.412666 0
M  V30 12845 H 1178.61 3.1774 2.5594 0
M  V30 12846 H 1177.28 3.83378 1.61226 0
M  V30 12847 H 1175.86 2.44961 2.81156 0
M  V30 12848 N 1178.05 -0.61812 1.44973 0
M  V30 12849 C 1179.29 -1.37343 1.47715 0
M  V30 12850 C 1179.61 -1.95239 0.118784 0
M  V30 12851 O 1180.81 -2.7149 0.0237981 0
M  V30 12852 C 1179.27 -2.48732 2.60116 0
M  V30 12853 C 1178.88 -1.97294 4.02218 0
M  V30 12854 C 1180.62 -3.25831 2.72093 0
M  V30 12855 C 1178.53 -3.06102 5.06019 0
M  V30 12856 H 1177.46 -0.516175 0.549617 0
M  V30 12857 H 1180.11 -0.663617 1.7108 0
M  V30 12858 H 1178.49 -3.2235 2.30014 0
M  V30 12859 H 1179.67 -1.30455 4.41948 0
M  V30 12860 H 1177.98 -1.32972 3.94598 0
M  V30 12861 H 1180.58 -4.06968 3.46815 0
M  V30 12862 H 1180.92 -3.76156 1.7836 0
M  V30 12863 H 1181.45 -2.59309 3.01668 0
M  V30 12864 H 1178.19 -2.60706 6.01426 0
M  V30 12865 H 1177.71 -3.71541 4.70869 0
M  V30 12866 H 1179.39 -3.70662 5.30301 0
M  V30 12867 N 1179.52 -1.32087 -0.859693 0
M  V30 12868 C 1180.47 -1.20601 -1.96784 0
M  V30 12869 C 1181.44 -0.089355 -1.65859 0
M  V30 12870 O 1182.63 -0.264022 -1.88964 0
M  V30 12871 C 1179.77 -0.929872 -3.32336 0
M  V30 12872 C 1178.88 -2.13084 -3.75791 0
M  V30 12873 C 1178.01 -1.79061 -5.00111 0
M  V30 12874 C 1177.05 -2.95507 -5.36043 0
M  V30 12875 N 1176.19 -2.61611 -6.5154 0
M  V30 12876 H 1181.03 -2.1539 -2.0594 0
M  V30 12877 H 1178.57 -1.07131 -1.00803 0
M  V30 12878 H 1180.52 -0.750285 -4.10398 0
M  V30 12879 H 1179.15 -0.0187929 -3.22795 0
M  V30 12880 H 1178.21 -2.42086 -2.93425 0
M  V30 12881 H 1179.52 -3.00205 -3.98344 0
M  V30 12882 H 1178.67 -1.57625 -5.85866 0
M  V30 12883 H 1177.41 -0.891459 -4.79483 0
M  V30 12884 H 1176.42 -3.17581 -4.48801 0
M  V30 12885 H 1177.64 -3.86147 -5.5863 0
M  V30 12886 H 1175.59 -1.74231 -6.32439 0
M  V30 12887 H 1175.5 -3.42262 -6.74087 0
M  V30 12888 H 1176.77 -2.43592 -7.40461 0
M  V30 12889 N 1181 1.07532 -1.15215 0
M  V30 12890 C 1181.93 2.14598 -0.805006 0
M  V30 12891 C 1182.95 1.61778 0.182152 0
M  V30 12892 O 1184.14 1.78453 -0.040834 0
M  V30 12893 C 1181.24 3.38444 -0.175736 0
M  V30 12894 C 1180.41 4.20621 -1.19986 0
M  V30 12895 C 1179.47 5.22851 -0.592705 0
M  V30 12896 O 1178.49 5.55121 -1.25815 0
M  V30 12897 N 1179.7 5.7711 0.626425 0
M  V30 12898 H 1182.46 2.44981 -1.7264 0
M  V30 12899 H 1180.02 1.23423 -1.04778 0
M  V30 12900 H 1182.01 4.03969 0.243166 0
M  V30 12901 H 1180.58 3.0579 0.64896 0
M  V30 12902 H 1179.8 3.50941 -1.79539 0
M  V30 12903 H 1181.09 4.72339 -1.89139 0
M  V30 12904 H 1180.49 5.53139 1.18546 0
M  V30 12905 H 1179.05 6.44273 0.98771 0
M  V30 12906 N 1182.48 0.948665 1.2585 0
M  V30 12907 C 1183.43 0.462904 2.2611 0
M  V30 12908 C 1184.4 -0.481433 1.5897 0
M  V30 12909 O 1185.58 -0.395997 1.86645 0
M  V30 12910 C 1182.72 -0.258808 3.44128 0
M  V30 12911 C 1181.84 0.722072 4.25923 0
M  V30 12912 C 1180.97 -0.0215958 5.31196 0
M  V30 12913 C 1180.01 0.950612 6.04673 0
M  V30 12914 N 1179.15 0.238209 7.01696 0
M  V30 12915 H 1183.99 1.32279 2.67032 0
M  V30 12916 H 1181.52 0.663485 1.31287 0
M  V30 12917 H 1183.48 -0.693759 4.11391 0
M  V30 12918 H 1182.11 -1.08278 3.04098 0
M  V30 12919 H 1181.16 1.27552 3.58378 0
M  V30 12920 H 1182.48 1.46421 4.76825 0
M  V30 12921 H 1181.63 -0.51547 6.04506 0
M  V30 12922 H 1180.37 -0.796563 4.81151 0
M  V30 12923 H 1179.37 1.45554 5.30183 0
M  V30 12924 H 1180.6 1.72571 6.56808 0
M  V30 12925 H 1178.54 -0.518129 6.53951 0
M  V30 12926 H 1178.46 0.919542 7.50387 0
M  V30 12927 H 1179.73 -0.234325 7.79148 0
M  V30 12928 N 1183.96 -1.40369 0.716545 0
M  V30 12929 C 1184.89 -2.33365 0.0793533 0
M  V30 12930 C 1185.87 -1.52943 -0.744482 0
M  V30 12931 O 1187.05 -1.81406 -0.693212 0
M  V30 12932 C 1184.18 -3.36928 -0.842429 0
M  V30 12933 C 1183.14 -4.2782 -0.124142 0
M  V30 12934 C 1182.46 -5.21928 -1.1617 0
M  V30 12935 C 1183.76 -5.12199 1.02224 0
M  V30 12936 H 1185.46 -2.86899 0.856115 0
M  V30 12937 H 1183 -1.37946 0.413138 0
M  V30 12938 H 1184.96 -4.00925 -1.29759 0
M  V30 12939 H 1183.68 -2.81791 -1.6511 0
M  V30 12940 H 1182.34 -3.65277 0.311201 0
M  V30 12941 H 1181.99 -4.63096 -1.96345 0
M  V30 12942 H 1181.69 -5.83582 -0.685978 0
M  V30 12943 H 1183.21 -5.88802 -1.61694 0
M  V30 12944 H 1184.63 -5.69644 0.646399 0
M  V30 12945 H 1183.02 -5.82901 1.4264 0
M  V30 12946 H 1184.09 -4.4812 1.85246 0
M  V30 12947 N 1185.44 -0.462799 -1.50652 0
M  V30 12948 C 1186.66 0.0929761 -2.06691 0
M  V30 12949 C 1187.08 1.34241 -1.32758 0
M  V30 12950 O 1186.44 1.78187 -0.394427 0
M  V30 12951 C 1186.49 0.389492 -3.59396 0
M  V30 12952 O 1186.21 -0.810379 -4.3054 0
M  V30 12953 C 1187.71 0.993147 -4.32032 0
M  V30 12954 H 1184.93 -0.00338664 -0.670991 0
M  V30 12955 H 1187.47 -0.649201 -1.93922 0
M  V30 12956 H 1185.63 1.08159 -3.71995 0
M  V30 12957 H 1186.04 -0.54996 -5.21609 0
M  V30 12958 H 1187.52 1.15044 -5.39878 0
M  V30 12959 H 1187.99 1.98106 -3.91983 0
M  V30 12960 H 1188.6 0.339677 -4.23941 0
M  V30 12961 N 1186.91 1.56388 -0.195085 0
M  V30 12962 C 1187.86 2.19091 0.725793 0
M  V30 12963 C 1188.83 1.13814 1.20977 0
M  V30 12964 O 1190.02 1.42065 1.27366 0
M  V30 12965 C 1187.16 2.85427 1.93973 0
M  V30 12966 C 1186.27 4.05229 1.49712 0
M  V30 12967 C 1185.4 4.59421 2.66656 0
M  V30 12968 C 1184.44 5.71581 2.19001 0
M  V30 12969 N 1183.58 6.2018 3.29123 0
M  V30 12970 H 1188.42 2.97429 0.184334 0
M  V30 12971 H 1185.96 1.46886 0.0792434 0
M  V30 12972 H 1187.92 3.22057 2.65208 0
M  V30 12973 H 1186.55 2.09652 2.4545 0
M  V30 12974 H 1185.6 3.74261 0.680641 0
M  V30 12975 H 1186.91 4.8635 1.10749 0
M  V30 12976 H 1186.06 4.98357 3.46014 0
M  V30 12977 H 1184.8 3.77407 3.08893 0
M  V30 12978 H 1183.81 5.32174 1.38097 0
M  V30 12979 H 1185.03 6.55413 1.77795 0
M  V30 12980 H 1182.98 5.41088 3.70891 0
M  V30 12981 H 1182.9 6.96353 2.94328 0
M  V30 12982 H 1184.16 6.63769 4.08694 0
M  V30 12983 N 1188.39 -0.0785156 1.57404 0
M  V30 12984 C 1189.32 -1.12058 1.99939 0
M  V30 12985 C 1190.34 -1.35372 0.904343 0
M  V30 12986 O 1191.53 -1.33731 1.1823 0
M  V30 12987 C 1188.63 -2.47285 2.31739 0
M  V30 12988 C 1187.8 -2.44021 3.63005 0
M  V30 12989 C 1186.86 -3.61303 3.82552 0
M  V30 12990 O 1185.88 -3.43039 4.54217 0
M  V30 12991 N 1187.09 -4.81404 3.24392 0
M  V30 12992 H 1189.85 -0.758416 2.89945 0
M  V30 12993 H 1187.41 -0.267266 1.59679 0
M  V30 12994 H 1189.4 -3.24377 2.41995 0
M  V30 12995 H 1187.97 -2.75529 1.47657 0
M  V30 12996 H 1187.19 -1.52361 3.63565 0
M  V30 12997 H 1188.48 -2.38934 4.49208 0
M  V30 12998 H 1187.88 -4.99147 2.66211 0
M  V30 12999 H 1186.44 -5.56031 3.40107 0
M  V30 13000 N 1189.87 -1.5367 -0.349747 0
M  V30 13001 C 1190.78 -1.84207 -1.45275 0
M  V30 13002 C 1191.8 -0.731695 -1.57868 0
M  V30 13003 O 1192.97 -1.02337 -1.73462 0
M  V30 13004 C 1190.04 -2.0398 -2.80345 0
M  V30 13005 C 1189.1 -3.27853 -2.77148 0
M  V30 13006 C 1188.33 -3.46673 -4.05775 0
M  V30 13007 O 1188.55 -2.69457 -5.02741 0
M  V30 13008 O 1187.49 -4.40082 -4.10623 0
M  V30 13009 H 1191.31 -2.77947 -1.22389 0
M  V30 13010 H 1188.9 -1.39247 -0.541345 0
M  V30 13011 H 1190.78 -2.18466 -3.60348 0
M  V30 13012 H 1189.46 -1.13429 -3.03176 0
M  V30 13013 H 1188.36 -3.18776 -1.95787 0
M  V30 13014 H 1189.7 -4.18377 -2.59271 0
M  V30 13015 N 1191.35 0.610423 -1.45298 0
M  V30 13016 C 1192.26 1.74964 -1.56285 0
M  V30 13017 C 1193.27 1.68149 -0.447436 0
M  V30 13018 O 1194.45 1.88556 -0.707725 0
M  V30 13019 C 1191.52 3.11417 -1.52383 0
M  V30 13020 C 1190.58 3.29707 -2.7494 0
M  V30 13021 C 1189.81 4.5965 -2.71215 0
M  V30 13022 O 1190.03 5.41789 -1.78383 0
M  V30 13023 O 1188.97 4.80591 -3.62375 0
M  V30 13024 H 1192.79 1.68646 -2.52571 0
M  V30 13025 H 1190.38 0.774168 -1.27777 0
M  V30 13026 H 1192.26 3.9272 -1.52805 0
M  V30 13027 H 1190.93 3.18232 -0.592472 0
M  V30 13028 H 1189.84 2.48003 -2.80081 0
M  V30 13029 H 1191.17 3.27766 -3.67192 0
M  V30 13030 N 1192.83 1.32541 0.852676 0
M  V30 13031 C 1193.74 1.23646 1.99371 0
M  V30 13032 C 1194.75 0.149673 1.73355 0
M  V30 13033 O 1195.93 0.370716 1.97959 0
M  V30 13034 C 1192.99 0.961873 3.3309 0
M  V30 13035 C 1192.05 2.1373 3.72315 0
M  V30 13036 C 1191.29 1.87572 4.99652 0
M  V30 13037 O 1191.51 0.819247 5.64486 0
M  V30 13038 O 1190.44 2.73732 5.36054 0
M  V30 13039 H 1194.27 2.19573 2.09813 0
M  V30 13040 H 1191.86 1.12451 0.983627 0
M  V30 13041 H 1193.74 0.825316 4.13239 0
M  V30 13042 H 1192.41 0.0327745 3.23683 0
M  V30 13043 H 1191.32 2.32933 2.92733 0
M  V30 13044 H 1192.65 3.04925 3.86369 0
M  V30 13045 N 1194.3 -1.0692 1.15784 0
M  V30 13046 C 1195.25 -2.14235 0.858616 0
M  V30 13047 C 1196.22 -1.65006 -0.190295 0
M  V30 13048 O 1197.41 -1.90715 -0.0568853 0
M  V30 13049 C 1194.55 -3.43229 0.35888 0
M  V30 13050 C 1193.66 -4.06225 1.46987 0
M  V30 13051 C 1192.79 -5.2307 0.925812 0
M  V30 13052 C 1191.83 -5.78037 2.01345 0
M  V30 13053 N 1190.97 -6.86206 1.48544 0
M  V30 13054 H 1195.81 -2.3917 1.77769 0
M  V30 13055 H 1193.35 -1.17354 0.886925 0
M  V30 13056 H 1195.31 -4.17169 0.0508198 0
M  V30 13057 H 1193.94 -3.18531 -0.523259 0
M  V30 13058 H 1192.99 -3.29895 1.89403 0
M  V30 13059 H 1194.3 -4.43081 2.29088 0
M  V30 13060 H 1193.45 -6.04011 0.570555 0
M  V30 13061 H 1192.19 -4.87644 0.0740371 0
M  V30 13062 H 1191.2 -4.95738 2.37748 0
M  V30 13063 H 1192.42 -6.15517 2.86907 0
M  V30 13064 H 1190.37 -6.52711 0.656092 0
M  V30 13065 H 1190.29 -7.2197 2.24266 0
M  V30 13066 H 1191.55 -7.70842 1.15856 0
M  V30 13067 N 1195.78 -0.955326 -1.25345 0
M  V30 13068 C 1196.73 -0.474888 -2.25862 0
M  V30 13069 C 1197.7 0.472996 -1.59223 0
M  V30 13070 O 1198.88 0.386094 -1.86853 0
M  V30 13071 C 1196.02 0.240554 -3.44261 0
M  V30 13072 C 1195.14 -0.74465 -4.25534 0
M  V30 13073 C 1194.27 -0.00657513 -5.312 0
M  V30 13074 C 1193.31 -0.982666 -6.04161 0
M  V30 13075 N 1192.45 -0.275418 -7.0156 0
M  V30 13076 H 1197.29 -1.33693 -2.66327 0
M  V30 13077 H 1194.83 -0.670439 -1.30933 0
M  V30 13078 H 1196.78 0.671933 -4.11753 0
M  V30 13079 H 1195.41 1.06664 -3.04668 0
M  V30 13080 H 1194.47 -1.29451 -3.57696 0
M  V30 13081 H 1195.78 -1.48948 -4.76042 0
M  V30 13082 H 1194.93 0.483404 -6.04771 0
M  V30 13083 H 1193.67 0.771035 -4.81567 0
M  V30 13084 H 1192.68 -1.48364 -5.29404 0
M  V30 13085 H 1193.9 -1.76052 -6.55883 0
M  V30 13086 H 1191.85 0.483441 -6.54216 0
M  V30 13087 H 1191.76 -0.959324 -7.49889 0
M  V30 13088 H 1193.03 0.193002 -7.79261 0
M  V30 13089 N 1197.26 1.39987 -0.723979 0
M  V30 13090 C 1198.51 1.99964 -0.26406 0
M  V30 13091 C 1198.82 1.58084 1.1519 0
M  V30 13092 O 1200.03 2.10819 1.71077 0
M  V30 13093 C 1198.49 3.57427 -0.421174 0
M  V30 13094 C 1198.09 4.08276 -1.84432 0
M  V30 13095 C 1199.84 4.24494 -0.0224734 0
M  V30 13096 C 1197.74 5.58272 -1.95157 0
M  V30 13097 H 1196.67 0.747995 -0.0949728 0
M  V30 13098 H 1199.33 1.60122 -0.896276 0
M  V30 13099 H 1197.71 3.95011 0.279762 0
M  V30 13100 H 1198.88 3.82051 -2.57631 0
M  V30 13101 H 1197.2 3.53834 -2.19523 0
M  V30 13102 H 1199.79 5.34637 -0.0817744 0
M  V30 13103 H 1200.14 4.03593 1.02069 0
M  V30 13104 H 1200.67 3.92046 -0.67416 0
M  V30 13105 H 1197.41 5.84038 -2.97623 0
M  V30 13106 H 1196.93 5.86335 -1.2638 0
M  V30 13107 H 1198.61 6.23509 -1.72759 0
M  V30 13108 N 1198.74 0.470782 1.50404 0
M  V30 13109 C 1199.67 -0.313458 2.31386 0
M  V30 13110 C 1200.65 -0.990623 1.38278 0
M  V30 13111 O 1201.84 -0.987854 1.67198 0
M  V30 13112 C 1198.97 -1.39599 3.18009 0
M  V30 13113 C 1197.92 -0.840443 4.19667 0
M  V30 13114 C 1197.25 -2.02124 4.95025 0
M  V30 13115 C 1198.55 0.148055 5.2209 0
M  V30 13116 H 1200.24 0.362432 2.97198 0
M  V30 13117 H 1197.79 0.175745 1.42924 0
M  V30 13118 H 1199.74 -1.9521 3.73458 0
M  V30 13119 H 1198.46 -2.10064 2.50081 0
M  V30 13120 H 1197.12 -0.306302 3.65318 0
M  V30 13121 H 1196.77 -2.71286 4.23571 0
M  V30 13122 H 1196.47 -1.65574 5.6379 0
M  V30 13123 H 1197.99 -2.58226 5.5331 0
M  V30 13124 H 1199.41 -0.318874 5.72413 0
M  V30 13125 H 1197.8 0.427811 5.98573 0
M  V30 13126 H 1198.87 1.07404 4.72855 0
M  V30 13127 N 1200.22 -1.56282 0.203376 0
M  V30 13128 C 1201.16 -2.19473 -0.714164 0
M  V30 13129 C 1202.13 -1.14454 -1.20372 0
M  V30 13130 O 1203.32 -1.42739 -1.26611 0
M  V30 13131 C 1200.46 -2.86451 -1.92457 0
M  V30 13132 C 1199.57 -4.06017 -1.47561 0
M  V30 13133 C 1198.71 -4.60829 -2.64216 0
M  V30 13134 C 1197.75 -5.72734 -2.15967 0
M  V30 13135 N 1196.88 -6.21916 -3.25829 0
M  V30 13136 H 1201.72 -2.97523 -0.168558 0
M  V30 13137 H 1199.26 -1.46926 -0.0714525 0
M  V30 13138 H 1201.22 -3.23459 -2.63496 0
M  V30 13139 H 1199.85 -2.10951 -2.44335 0
M  V30 13140 H 1198.9 -3.74617 -0.660784 0
M  V30 13141 H 1200.21 -4.8693 -1.08168 0
M  V30 13142 H 1199.37 -5.00185 -3.43366 0
M  V30 13143 H 1198.11 -3.7904 -3.06887 0
M  V30 13144 H 1197.11 -5.32899 -1.35273 0
M  V30 13145 H 1198.34 -6.56346 -1.74316 0
M  V30 13146 H 1196.28 -5.43047 -3.68016 0
M  V30 13147 H 1196.2 -6.97904 -2.90631 0
M  V30 13148 H 1197.47 -6.65927 -4.05168 0
M  V30 13149 N 1201.7 0.070167 -1.57444 0
M  V30 13150 C 1202.63 1.10996 -2.0053 0
M  V30 13151 C 1203.64 1.3489 -0.91151 0
M  V30 13152 O 1204.83 1.33102 -1.18938 0
M  V30 13153 C 1201.93 2.46053 -2.33048 0
M  V30 13154 C 1201.1 2.42092 -3.64294 0
M  V30 13155 C 1200.16 3.5927 -3.84463 0
M  V30 13156 O 1199.19 3.40625 -4.5603 0
M  V30 13157 N 1200.39 4.79677 -3.26941 0
M  V30 13158 H 1203.15 0.743029 -2.90343 0
M  V30 13159 H 1200.72 0.258794 -1.59818 0
M  V30 13160 H 1202.71 3.23089 -2.43712 0
M  V30 13161 H 1201.28 2.74742 -1.49116 0
M  V30 13162 H 1200.5 1.5043 -3.64368 0
M  V30 13163 H 1201.79 2.36548 -4.50469 0
M  V30 13164 H 1201.18 4.97729 -2.68855 0
M  V30 13165 H 1199.74 5.54219 -3.43051 0
M  V30 13166 N 1203.17 1.53854 0.341593 0
M  V30 13167 C 1204.45 1.61823 1.09875 0
M  V30 13168 C 1204.83 0.440711 2.06448 0
M  V30 13169 O 1204.18 -0.566833 2.21358 0
M  V30 13170 C 1204.39 2.9799 1.81668 0
M  V30 13171 C 1205.74 3.53411 2.35341 0
M  V30 13172 O 1206.76 3.00177 1.91761 0
M  V30 13173 O 1205.62 4.4653 3.15076 0
M  V30 13174 H 1202.71 0.654599 0.5054 0
M  V30 13175 H 1205.26 1.66199 0.342929 0
M  V30 13176 H 1204.03 3.7513 1.11323 0
M  V30 13177 H 1203.65 2.97213 2.64103 0
M  V30 13178 N 1204.65 -0.602709 1.4562 0
M  V30 13179 C 1205.9 -1.36158 1.49891 0
M  V30 13180 C 1206.23 -1.93977 0.142581 0
M  V30 13181 O 1205.48 -1.75822 -0.859374 0
M  V30 13182 C 1205.78 -2.52474 2.52966 0
M  V30 13183 C 1205.45 -2.12772 3.97541 0
M  V30 13184 C 1204.11 -2.01658 4.36907 0
M  V30 13185 C 1206.46 -1.8186 4.88443 0
M  V30 13186 C 1203.79 -1.57862 5.65063 0
M  V30 13187 C 1206.14 -1.39548 6.17016 0
M  V30 13188 C 1204.8 -1.26997 6.55308 0
M  V30 13189 H 1204.07 -0.498236 0.54849 0
M  V30 13190 H 1206.72 -0.680738 1.78992 0
M  V30 13191 H 1205.03 -3.25917 2.17452 0
M  V30 13192 H 1206.72 -3.10701 2.53507 0
M  V30 13193 H 1203.31 -2.22349 3.66413 0
M  V30 13194 H 1207.5 -1.89341 4.58763 0
M  V30 13195 H 1202.75 -1.46771 5.93522 0
M  V30 13196 H 1206.93 -1.14677 6.86893 0
M  V30 13197 H 1204.55 -0.928346 7.5451 0
M  V30 13198 N 1206.13 -1.32992 -0.845635 0
M  V30 13199 C 1207.04 -1.24701 -1.98713 0
M  V30 13200 C 1208.06 -0.158864 -1.73273 0
M  V30 13201 O 1209.23 -0.381209 -1.97759 0
M  V30 13202 C 1206.3 -0.979524 -3.32575 0
M  V30 13203 C 1205.36 -2.15701 -3.71176 0
M  V30 13204 C 1204.59 -1.90219 -4.98651 0
M  V30 13205 O 1204.81 -0.849171 -5.64044 0
M  V30 13206 O 1203.75 -2.76571 -5.34595 0
M  V30 13207 H 1207.57 -2.20683 -2.08645 0
M  V30 13208 H 1205.16 -1.12971 -0.97765 0
M  V30 13209 H 1207.04 -0.847219 -4.12796 0
M  V30 13210 H 1205.72 -0.0499398 -3.23661 0
M  V30 13211 H 1204.62 -2.34483 -2.91494 0
M  V30 13212 H 1205.96 -3.0697 -3.84747 0
M  V30 13213 N 1207.61 1.06304 -1.1635 0
M  V30 13214 C 1208.84 1.82799 -0.96913 0
M  V30 13215 C 1209.25 1.82526 0.482659 0
M  V30 13216 O 1208.61 1.24437 1.33498 0
M  V30 13217 C 1208.66 3.29417 -1.48884 0
M  V30 13218 O 1208.38 3.29803 -2.88377 0
M  V30 13219 C 1209.88 4.22642 -1.33748 0
M  V30 13220 H 1207.1 0.576388 -0.343537 0
M  V30 13221 H 1209.64 1.34122 -1.54375 0
M  V30 13222 H 1207.8 3.75406 -0.956509 0
M  V30 13223 H 1208.21 4.21486 -3.1217 0
M  V30 13224 H 1209.69 5.23545 -1.74942 0
M  V30 13225 H 1210.16 4.38287 -0.283021 0
M  V30 13226 H 1210.77 3.82499 -1.85942 0
M  V30 13227 N 1209.09 0.96196 1.24836 0
M  V30 13228 C 1210.02 0.506241 2.27946 0
M  V30 13229 C 1211 -0.451183 1.64007 0
M  V30 13230 O 1212.18 -0.348552 1.91046 0
M  V30 13231 C 1209.31 -0.209846 3.46665 0
M  V30 13232 C 1208.27 0.663035 4.22833 0
M  V30 13233 C 1207.59 -0.184216 5.34383 0
M  V30 13234 C 1208.89 1.94479 4.84742 0
M  V30 13235 H 1210.59 1.36805 2.66317 0
M  V30 13236 H 1208.13 0.65926 1.28023 0
M  V30 13237 H 1210.08 -0.539838 4.17928 0
M  V30 13238 H 1208.81 -1.10596 3.07305 0
M  V30 13239 H 1207.47 0.976216 3.53363 0
M  V30 13240 H 1207.12 -1.08031 4.91262 0
M  V30 13241 H 1206.82 0.39657 5.8626 0
M  V30 13242 H 1208.34 -0.509009 6.08475 0
M  V30 13243 H 1209.75 1.68074 5.48109 0
M  V30 13244 H 1208.15 2.47183 5.46828 0
M  V30 13245 H 1209.22 2.64332 4.06517 0
M  V30 13246 N 1210.56 -1.39601 0.731392 0
M  V30 13247 C 1211.79 -2.05411 0.286532 0
M  V30 13248 C 1212.21 -1.54777 -1.06892 0
M  V30 13249 O 1211.57 -0.689942 -1.67659 0
M  V30 13250 C 1211.62 -3.594 0.293914 0
M  V30 13251 O 1210.72 -4.06072 -0.719657 0
M  V30 13252 H 1210.06 -0.650949 0.131004 0
M  V30 13253 H 1212.59 -1.78703 0.996305 0
M  V30 13254 H 1212.6 -4.0777 0.137052 0
M  V30 13255 H 1211.28 -3.95617 1.28298 0
M  V30 13256 H 1209.86 -3.69125 -0.529226 0
M  V30 13257 N 1212.04 -0.478751 -1.50152 0
M  V30 13258 C 1212.97 0.347829 -2.26545 0
M  V30 13259 C 1213.99 0.950354 -1.32182 0
M  V30 13260 O 1215.18 0.837462 -1.57635 0
M  V30 13261 C 1212.28 1.50255 -3.0377 0
M  V30 13262 C 1211.45 1.01142 -4.25546 0
M  V30 13263 C 1210.51 2.0411 -4.85 0
M  V30 13264 O 1209.53 1.61862 -5.45701 0
M  V30 13265 N 1210.74 3.36982 -4.72677 0
M  V30 13266 H 1213.5 -0.307113 -2.98122 0
M  V30 13267 H 1211.06 -0.309981 -1.58905 0
M  V30 13268 H 1213.05 2.18848 -3.40423 0
M  V30 13269 H 1211.62 2.06205 -2.34943 0
M  V30 13270 H 1210.84 0.151124 -3.9391 0
M  V30 13271 H 1212.13 0.661326 -5.04484 0
M  V30 13272 H 1211.53 3.74011 -4.2442 0
M  V30 13273 H 1210.09 4.0135 -5.13577 0
M  V30 13274 N 1213.52 1.56172 -0.211661 0
M  V30 13275 C 1214.43 2.23468 0.714081 0
M  V30 13276 C 1215.45 1.23908 1.22159 0
M  V30 13277 O 1216.62 1.56693 1.26528 0
M  V30 13278 C 1213.69 2.89375 1.90953 0
M  V30 13279 C 1212.75 4.04251 1.44497 0
M  V30 13280 C 1211.98 4.67006 2.58343 0
M  V30 13281 O 1212.2 4.28721 3.76237 0
M  V30 13282 O 1211.14 5.56177 2.3011 0
M  V30 13283 H 1214.96 3.03219 0.170862 0
M  V30 13284 H 1212.55 1.49389 0.0183607 0
M  V30 13285 H 1214.43 3.3101 2.60787 0
M  V30 13286 H 1213.11 2.12591 2.44104 0
M  V30 13287 H 1212.01 3.67205 0.714932 0
M  V30 13288 H 1213.35 4.82748 0.959947 0
M  V30 13289 N 1215 -0.0618163 1.57479 0
M  V30 13290 C 1216.23 -0.771724 1.91969 0
M  V30 13291 C 1216.64 -1.7061 0.808549 0
M  V30 13292 O 1216 -1.812 -0.217455 0
M  V30 13293 C 1216.05 -1.55687 3.26257 0
M  V30 13294 O 1215.77 -0.660032 4.331 0
M  V30 13295 C 1217.27 -2.36688 3.74825 0
M  V30 13296 H 1214.49 -0.21885 0.634307 0
M  V30 13297 H 1217.04 -0.0291068 2.04479 0
M  V30 13298 H 1215.19 -2.25167 3.15244 0
M  V30 13299 H 1215.6 -1.20715 5.1042 0
M  V30 13300 H 1217.08 -2.8722 4.7139 0
M  V30 13301 H 1217.56 -3.1666 3.0434 0
M  V30 13302 H 1218.16 -1.72346 3.88815 0
M  V30 13303 N 1216.48 -1.54033 -0.333429 0
M  V30 13304 C 1217.42 -1.82729 -1.40992 0
M  V30 13305 C 1218.39 -0.673677 -1.51825 0
M  V30 13306 O 1219.58 -0.919126 -1.67203 0
M  V30 13307 C 1216.72 -2.05155 -2.77498 0
M  V30 13308 C 1215.83 -3.32854 -2.75376 0
M  V30 13309 C 1214.97 -3.45294 -4.03665 0
M  V30 13310 C 1214.01 -4.66905 -3.95811 0
M  V30 13311 N 1213.14 -4.76323 -5.1581 0
M  V30 13312 H 1217.98 -2.74572 -1.15821 0
M  V30 13313 H 1215.52 -1.35988 -0.560859 0
M  V30 13314 H 1217.48 -2.16148 -3.56841 0
M  V30 13315 H 1216.11 -1.16615 -3.01 0
M  V30 13316 H 1215.16 -3.30651 -1.88081 0
M  V30 13317 H 1216.47 -4.22299 -2.65453 0
M  V30 13318 H 1215.63 -3.55775 -4.91436 0
M  V30 13319 H 1214.36 -2.53924 -4.16382 0
M  V30 13320 H 1213.37 -4.56491 -3.06425 0
M  V30 13321 H 1214.59 -5.59649 -3.84668 0
M  V30 13322 H 1212.54 -3.87866 -5.29052 0
M  V30 13323 H 1212.46 -5.59719 -5.08184 0
M  V30 13324 H 1213.73 -4.91125 -6.05324 0
M  V30 13325 N 1217.95 0.594978 -1.45938 0
M  V30 13326 C 1219.2 1.34976 -1.49881 0
M  V30 13327 C 1219.52 1.95025 -0.14983 0
M  V30 13328 O 1220.72 2.71417 -0.0669868 0
M  V30 13329 C 1219.18 2.44563 -2.6404 0
M  V30 13330 C 1218.79 1.9087 -4.05306 0
M  V30 13331 C 1220.53 3.21461 -2.77242 0
M  V30 13332 C 1218.44 2.98013 -5.10825 0
M  V30 13333 H 1217.37 0.507366 -0.55776 0
M  V30 13334 H 1220.02 0.636316 -1.72114 0
M  V30 13335 H 1218.4 3.1865 -2.35114 0
M  V30 13336 H 1219.57 1.23408 -4.43968 0
M  V30 13337 H 1217.89 1.26678 -3.96663 0
M  V30 13338 H 1220.49 4.01399 -3.53246 0
M  V30 13339 H 1220.83 3.73271 -1.84321 0
M  V30 13340 H 1221.36 2.54477 -3.05756 0
M  V30 13341 H 1218.1 2.51104 -6.05497 0
M  V30 13342 H 1217.62 3.64003 -4.7672 0
M  V30 13343 H 1219.3 3.62178 -5.36131 0
M  V30 13344 N 1219.43 1.33438 0.838571 0
M  V30 13345 C 1220.36 1.19552 1.9555 0
M  V30 13346 C 1221.38 0.12642 1.62308 0
M  V30 13347 O 1222.57 0.376868 1.74476 0
M  V30 13348 C 1219.67 0.811273 3.29046 0
M  V30 13349 C 1218.84 1.97207 3.9042 0
M  V30 13350 C 1217.9 1.56875 5.02271 0
M  V30 13351 O 1216.92 2.28314 5.21403 0
M  V30 13352 N 1218.13 0.473924 5.78562 0
M  V30 13353 H 1220.89 2.15769 2.07999 0
M  V30 13354 H 1218.45 1.26187 1.01432 0
M  V30 13355 H 1220.44 0.523553 4.01299 0
M  V30 13356 H 1219.01 -0.0602291 3.12542 0
M  V30 13357 H 1218.23 2.4254 3.10754 0
M  V30 13358 H 1219.52 2.74878 4.28158 0
M  V30 13359 H 1218.92 -0.120306 5.65572 0
M  V30 13360 H 1217.48 0.245877 6.51336 0
M  V30 13361 N 1220.91 -1.05686 1.16912 0
M  V30 13362 C 1221.86 -2.11584 0.849483 0
M  V30 13363 C 1222.84 -1.59959 -0.173774 0
M  V30 13364 O 1224.04 -1.76978 0.0279436 0
M  V30 13365 C 1221.17 -3.41417 0.359079 0
M  V30 13366 C 1220.25 -3.99852 1.41347 0
M  V30 13367 N 1220.64 -4.32317 2.62557 0
M  V30 13368 C 1218.94 -4.27531 1.27017 0
M  V30 13369 C 1219.64 -4.7885 3.30269 0
M  V30 13370 N 1218.62 -4.78664 2.57647 0
M  V30 13371 H 1222.42 -2.34539 1.77112 0
M  V30 13372 H 1219.93 -1.23286 1.05708 0
M  V30 13373 H 1221.93 -4.1675 0.111666 0
M  V30 13374 H 1220.59 -3.19897 -0.556413 0
M  V30 13375 H 1221.6 -4.22472 2.99563 0
M  V30 13376 H 1218.28 -4.15423 0.415924 0
M  V30 13377 H 1219.67 -5.13123 4.33768 0
M  V30 13378 N 1222.39 -0.968567 -1.24324 0
M  V30 13379 C 1223.3 -0.50703 -2.29055 0
M  V30 13380 C 1224.31 0.432431 -1.68541 0
M  V30 13381 O 1225.49 0.30526 -1.99073 0
M  V30 13382 C 1222.56 0.194589 -3.46153 0
M  V30 13383 C 1221.62 -0.784805 -4.22066 0
M  V30 13384 C 1220.85 -0.116574 -5.33573 0
M  V30 13385 O 1221.07 1.09492 -5.59792 0
M  V30 13386 O 1220.01 -0.809171 -5.96436 0
M  V30 13387 H 1223.83 -1.3777 -2.70653 0
M  V30 13388 H 1221.42 -0.735645 -1.30033 0
M  V30 13389 H 1223.3 0.588684 -4.17268 0
M  V30 13390 H 1221.97 1.04021 -3.06531 0
M  V30 13391 H 1220.88 -1.22938 -3.53323 0
M  V30 13392 H 1222.21 -1.59887 -4.65507 0
M  V30 13393 N 1223.87 1.39211 -0.738786 0
M  V30 13394 C 1224.78 2.34374 -0.102958 0
M  V30 13395 C 1225.79 1.58514 0.717596 0
M  V30 13396 O 1226.97 1.90786 0.645186 0
M  V30 13397 C 1224.03 3.37562 0.790733 0
M  V30 13398 C 1223.09 4.29279 -0.0425028 0
M  V30 13399 C 1222.33 5.27539 0.808628 0
M  V30 13400 O 1222.55 5.32396 2.04722 0
M  V30 13401 O 1221.48 6.0144 0.235279 0
M  V30 13402 H 1225.31 2.90412 -0.888498 0
M  V30 13403 H 1222.9 1.40803 -0.499498 0
M  V30 13404 H 1224.78 4.00783 1.30196 0
M  V30 13405 H 1223.45 2.83903 1.55502 0
M  V30 13406 H 1222.36 3.69268 -0.599335 0
M  V30 13407 H 1223.69 4.86154 -0.7691 0
M  V30 13408 N 1225.34 0.486708 1.49896 0
M  V30 13409 C 1226.27 -0.288898 2.31706 0
M  V30 13410 C 1227.26 -0.975901 1.3932 0
M  V30 13411 O 1228.44 -0.970065 1.68236 0
M  V30 13412 C 1225.57 -1.36218 3.19471 0
M  V30 13413 C 1224.52 -0.795884 4.20535 0
M  V30 13414 C 1223.85 -1.96862 4.97141 0
M  V30 13415 C 1225.15 0.203421 5.21904 0
M  V30 13416 H 1226.84 0.393934 2.96797 0
M  V30 13417 H 1224.39 0.190894 1.42729 0
M  V30 13418 H 1226.34 -1.91238 3.75508 0
M  V30 13419 H 1225.07 -2.074 2.52295 0
M  V30 13420 H 1223.73 -0.267538 3.65622 0
M  V30 13421 H 1223.37 -2.66779 4.26425 0
M  V30 13422 H 1223.07 -1.59585 5.65514 0
M  V30 13423 H 1224.6 -2.52343 5.56017 0
M  V30 13424 H 1226.01 -0.258144 5.72719 0
M  V30 13425 H 1224.41 0.491273 5.98086 0
M  V30 13426 H 1225.48 1.12414 4.7169 0
M  V30 13427 N 1226.82 -1.56058 0.219941 0
M  V30 13428 C 1227.77 -2.21585 -0.707321 0
M  V30 13429 C 1228.77 -1.19473 -1.20094 0
M  V30 13430 O 1229.97 -1.37557 -1.16095 0
M  V30 13431 H 1226.35 -0.710447 -0.246515 0
M  V30 13432 H 1228.32 -2.98111 -0.131214 0
M  V30 13433 C 1227.07 -2.90841 -1.90544 0
M  V30 13434 H 1226.39 -3.6917 -1.53472 0
M  V30 13435 H 1227.83 -3.40092 -2.53206 0
M  V30 13436 C 1226.29 -1.93223 -2.75983 0
M  V30 13437 O 1226.82 -1.44815 -3.74689 0
M  V30 13438 N 1225.02 -1.60907 -2.41986 0
M  V30 13439 H 1224.57 -2.00467 -1.61774 0
M  V30 13440 H 1224.53 -0.958534 -2.99432 0
M  V30 13441 N 1228.3 0.053464 -1.57509 0
M  V30 13442 C 1229.25 1.08014 -2.05999 0
M  V30 13443 C 1230.24 1.38958 -0.968862 0
M  V30 13444 O 1231.45 1.3815 -1.15389 0
M  V30 13445 H 1227.82 0.36575 -0.657062 0
M  V30 13446 H 1229.8 0.645169 -2.91342 0
M  V30 13447 C 1228.54 2.38004 -2.53475 0
M  V30 13448 H 1227.87 2.15048 -3.37038 0
M  V30 13449 H 1229.31 3.08244 -2.91138 0
M  V30 13450 C 1227.77 3.05259 -1.42543 0
M  V30 13451 O 1228.3 3.94097 -0.777832 0
M  V30 13452 N 1226.5 2.66182 -1.16599 0
M  V30 13453 H 1226.05 1.94027 -1.69444 0
M  V30 13454 H 1226.01 3.11503 -0.42585 0
M  V30 13455 N 1229.78 1.54207 0.325255 0
M  V30 13456 C 1231.2 1.44879 0.669492 0
M  V30 13457 C 1231.4 0.620298 1.91715 0
M  V30 13458 O 1230.45 0.118435 2.52222 0
M  V30 13459 C 1231.76 2.88581 0.845077 0
M  V30 13460 C 1233.31 2.98472 0.942527 0
M  V30 13461 C 1233.79 4.4332 1.15029 0
M  V30 13462 N 1235.28 4.46925 1.21707 0
M  V30 13463 C 1236.01 5.56155 1.39568 0
M  V30 13464 N 1235.51 6.75357 1.54483 0
M  V30 13465 N 1237.3 5.43799 1.42263 0
M  V30 13466 H 1229.45 2.06556 -0.494819 0
M  V30 13467 H 1231.72 0.934474 -0.159568 0
M  V30 13468 H 1231.42 3.517 -0.000442996 0
M  V30 13469 H 1231.3 3.34596 1.74141 0
M  V30 13470 H 1233.68 2.35481 1.77855 0
M  V30 13471 H 1233.76 2.5579 0.0226995 0
M  V30 13472 H 1233.41 5.06896 0.319127 0
M  V30 13473 H 1233.34 4.8361 2.08397 0
M  V30 13474 H 1235.83 3.61036 1.11632 0
M  V30 13475 H 1236.14 7.54363 1.67799 0
M  V30 13476 H 1234.49 6.78268 1.51584 0
M  V30 13477 H 1237.68 4.49627 1.30205 0
M  V30 13478 H 1237.85 6.28982 1.5584 0
M  V30 13479 N 1231.26 -0.58723 1.46251 0
M  V30 13480 C 1232.51 -1.34179 1.50595 0
M  V30 13481 C 1232.82 -1.94943 0.160171 0
M  V30 13482 O 1234.03 -2.71378 0.0813797 0
M  V30 13483 C 1232.48 -2.43159 2.65333 0
M  V30 13484 C 1232.09 -1.88718 4.06312 0
M  V30 13485 C 1233.83 -3.19986 2.78943 0
M  V30 13486 C 1231.74 -2.953 5.12398 0
M  V30 13487 H 1230.67 -0.504401 0.560442 0
M  V30 13488 H 1233.32 -0.627179 1.72449 0
M  V30 13489 H 1231.7 -3.17398 2.368 0
M  V30 13490 H 1232.88 -1.21051 4.44616 0
M  V30 13491 H 1231.19 -1.24572 3.97329 0
M  V30 13492 H 1233.79 -3.9952 3.5537 0
M  V30 13493 H 1234.13 -3.72288 1.86298 0
M  V30 13494 H 1234.67 -2.52852 3.07101 0
M  V30 13495 H 1231.4 -2.4789 6.0682 0
M  V30 13496 H 1230.92 -3.61469 4.78644 0
M  V30 13497 H 1232.6 -3.5933 5.38044 0
M  V30 13498 N 1232.74 -1.33881 -0.831482 0
M  V30 13499 C 1233.67 -1.20587 -1.94914 0
M  V30 13500 C 1234.68 -0.135026 -1.62239 0
M  V30 13501 O 1235.87 -0.386116 -1.74274 0
M  V30 13502 C 1232.97 -0.828712 -3.28612 0
M  V30 13503 C 1232.14 -1.99275 -3.89369 0
M  V30 13504 C 1231.2 -1.59537 -5.01432 0
M  V30 13505 O 1230.23 -2.31076 -5.20185 0
M  V30 13506 N 1231.43 -0.5046 -5.78303 0
M  V30 13507 H 1234.19 -2.16869 -2.06852 0
M  V30 13508 H 1231.76 -1.26723 -1.00761 0
M  V30 13509 H 1233.75 -0.544827 -4.01016 0
M  V30 13510 H 1232.32 0.0436534 -3.1257 0
M  V30 13511 H 1231.54 -2.44185 -3.09463 0
M  V30 13512 H 1232.83 -2.77145 -4.26694 0
M  V30 13513 H 1232.22 0.0903105 -5.65628 0
M  V30 13514 H 1230.78 -0.280415 -6.51197 0
M  V30 13515 N 1234.21 1.05064 -1.1747 0
M  V30 13516 C 1235.44 1.81761 -0.988464 0
M  V30 13517 C 1235.86 1.83028 0.463272 0
M  V30 13518 O 1235.21 1.25846 1.32171 0
M  V30 13519 C 1235.26 3.2782 -1.5237 0
M  V30 13520 O 1234.99 3.26726 -2.91859 0
M  V30 13521 C 1236.49 4.212 -1.38223 0
M  V30 13522 H 1233.71 0.572712 -0.349631 0
M  V30 13523 H 1236.25 1.32477 -1.55789 0
M  V30 13524 H 1234.41 3.7437 -0.996272 0
M  V30 13525 H 1234.82 4.18151 -3.16623 0
M  V30 13526 H 1236.29 5.2166 -1.80485 0
M  V30 13527 H 1236.77 4.37962 -0.329491 0
M  V30 13528 H 1237.38 3.80506 -1.89988 0
M  V30 13529 N 1235.69 0.975146 1.23809 0
M  V30 13530 C 1236.92 0.658978 1.96125 0
M  V30 13531 C 1237.33 -0.773044 1.72248 0
M  V30 13532 O 1236.69 -1.51956 1.01072 0
M  V30 13533 C 1236.74 0.933355 3.49243 0
M  V30 13534 O 1236.46 2.30909 3.72307 0
M  V30 13535 C 1237.96 0.632408 4.38766 0
M  V30 13536 H 1235.18 0.245237 0.62458 0
M  V30 13537 H 1237.73 1.3051 1.5744 0
M  V30 13538 H 1235.88 0.333323 3.85963 0
M  V30 13539 H 1236.3 2.39476 4.66638 0
M  V30 13540 H 1237.77 0.874791 5.45024 0
M  V30 13541 H 1238.25 -0.433453 4.37056 0
M  V30 13542 H 1238.85 1.21268 4.07645 0
M  V30 13543 N 1237.17 -1.38817 0.746158 0
M  V30 13544 C 1238.42 -2.00577 0.299458 0
M  V30 13545 C 1238.75 -1.59087 -1.11378 0
M  V30 13546 O 1238.02 -0.824932 -1.7614 0
M  V30 13547 C 1238.31 -3.57713 0.413932 0
M  V30 13548 C 1238.16 -4.09189 1.86774 0
M  V30 13549 C 1239.48 -4.39659 -0.197082 0
M  V30 13550 H 1236.6 -0.728702 0.110285 0
M  V30 13551 H 1239.24 -1.64866 0.944408 0
M  V30 13552 H 1237.39 -3.88265 -0.135155 0
M  V30 13553 H 1239.06 -3.89311 2.47456 0
M  V30 13554 H 1237.3 -3.62333 2.38532 0
M  V30 13555 H 1237.98 -5.18305 1.89904 0
M  V30 13556 H 1240.45 -4.15216 0.271121 0
M  V30 13557 H 1239.33 -5.48832 -0.0867011 0
M  V30 13558 H 1239.59 -4.23028 -1.2845 0
M  V30 13559 N 1238.65 -0.49465 -1.49636 0
M  V30 13560 C 1239.88 0.0491129 -2.06842 0
M  V30 13561 C 1240.29 1.31395 -1.35576 0
M  V30 13562 O 1239.65 1.7731 -0.432135 0
M  V30 13563 C 1239.7 0.313171 -3.60141 0
M  V30 13564 O 1239.42 -0.90152 -4.28724 0
M  V30 13565 C 1240.92 0.901284 -4.34041 0
M  V30 13566 H 1238.14 -0.0176186 -0.670769 0
M  V30 13567 H 1240.68 -0.690188 -1.92501 0
M  V30 13568 H 1238.84 1.00244 -3.74206 0
M  V30 13569 H 1239.25 -0.660477 -5.20325 0
M  V30 13570 H 1240.73 1.03567 -5.42197 0
M  V30 13571 H 1241.2 1.89746 -3.96097 0
M  V30 13572 H 1241.81 0.249677 -4.24566 0
M  V30 13573 N 1240.13 1.55939 -0.228214 0
M  V30 13574 C 1241.04 2.24213 0.690339 0
M  V30 13575 C 1242.05 1.25197 1.20838 0
M  V30 13576 O 1243.23 1.58026 1.24859 0
M  V30 13577 C 1240.29 2.91384 1.87873 0
M  V30 13578 C 1239.35 4.05761 1.40201 0
M  V30 13579 C 1238.59 4.6972 2.53376 0
M  V30 13580 O 1238.81 4.32687 3.71669 0
M  V30 13581 O 1237.74 5.58587 2.24198 0
M  V30 13582 H 1241.57 3.03383 0.138692 0
M  V30 13583 H 1239.15 1.494 0.00251504 0
M  V30 13584 H 1241.04 3.33758 2.57262 0
M  V30 13585 H 1239.71 2.15168 2.41835 0
M  V30 13586 H 1238.62 3.67943 0.675945 0
M  V30 13587 H 1239.95 4.83739 0.908691 0
M  V30 13588 N 1241.6 -0.0451101 1.57535 0
M  V30 13589 C 1242.53 -1.05046 2.08537 0
M  V30 13590 C 1243.52 -1.3872 0.984418 0
M  V30 13591 O 1244.7 -1.47884 1.25873 0
M  V30 13592 C 1241.83 -2.3562 2.55148 0
M  V30 13593 C 1240.78 -2.16231 3.69362 0
M  V30 13594 C 1240.11 -3.52423 4.02122 0
M  V30 13595 C 1241.41 -1.56159 4.98409 0
M  V30 13596 H 1243.1 -0.625965 2.92783 0
M  V30 13597 H 1240.65 -0.299657 1.40848 0
M  V30 13598 H 1242.6 -3.06266 2.89446 0
M  V30 13599 H 1241.33 -2.80099 1.67964 0
M  V30 13600 H 1239.99 -1.4802 3.35389 0
M  V30 13601 H 1239.63 -3.94522 3.12028 0
M  V30 13602 H 1239.33 -3.4028 4.79044 0
M  V30 13603 H 1240.86 -4.24458 4.38939 0
M  V30 13604 H 1242.27 -2.16703 5.30766 0
M  V30 13605 H 1240.67 -1.54638 5.79834 0
M  V30 13606 H 1241.74 -0.525698 4.82042 0
M  V30 13607 N 1243.08 -1.54377 -0.317073 0
M  V30 13608 C 1244.01 -1.80563 -1.41172 0
M  V30 13609 C 1245.03 -0.687865 -1.47554 0
M  V30 13610 O 1246.22 -0.965084 -1.50161 0
M  V30 13611 C 1243.32 -1.9142 -2.79663 0
M  V30 13612 C 1242.49 -3.21655 -2.96407 0
M  V30 13613 C 1241.55 -3.23131 -4.15298 0
M  V30 13614 O 1240.57 -3.96741 -4.08149 0
M  V30 13615 N 1241.78 -2.47376 -5.25153 0
M  V30 13616 H 1244.54 -2.75032 -1.1907 0
M  V30 13617 H 1242.1 -1.53754 -0.507086 0
M  V30 13618 H 1244.09 -1.89828 -3.57418 0
M  V30 13619 H 1242.66 -1.0402 -2.94786 0
M  V30 13620 H 1241.88 -3.36154 -2.05899 0
M  V30 13621 H 1243.17 -4.07629 -3.04494 0
M  V30 13622 H 1242.57 -1.87173 -5.33838 0
M  V30 13623 H 1241.13 -2.51555 -6.01301 0
M  V30 13624 N 1244.56 0.579466 -1.4656 0
M  V30 13625 C 1245.51 1.68829 -1.5737 0
M  V30 13626 C 1246.48 1.60759 -0.417825 0
M  V30 13627 O 1247.66 1.79923 -0.635001 0
M  V30 13628 C 1244.8 3.07166 -1.573 0
M  V30 13629 C 1243.92 3.25837 -2.83645 0
M  V30 13630 C 1243.05 4.54441 -2.75057 0
M  V30 13631 C 1242.09 4.66467 -3.96327 0
M  V30 13632 N 1241.23 5.86401 -3.86107 0
M  V30 13633 H 1246.07 1.58928 -2.52083 0
M  V30 13634 H 1243.6 0.774526 -1.25058 0
M  V30 13635 H 1245.56 3.8724 -1.55245 0
M  V30 13636 H 1244.19 3.15956 -0.661166 0
M  V30 13637 H 1243.24 2.39345 -2.95666 0
M  V30 13638 H 1244.56 3.30591 -3.73512 0
M  V30 13639 H 1243.71 5.42748 -2.71126 0
M  V30 13640 H 1242.45 4.52131 -1.82836 0
M  V30 13641 H 1241.45 3.76577 -4.00587 0
M  V30 13642 H 1242.68 4.70554 -4.89649 0
M  V30 13643 H 1240.62 5.85082 -2.96673 0
M  V30 13644 H 1240.54 5.92437 -4.69632 0
M  V30 13645 H 1241.81 6.7713 -3.86155 0
M  V30 13646 N 1246.04 1.3432 0.824371 0
M  V30 13647 C 1247.28 1.26783 1.58284 0
M  V30 13648 C 1247.62 -0.162282 1.93521 0
M  V30 13649 O 1246.89 -1.1073 1.59903 0
M  V30 13650 C 1247.18 2.15725 2.88331 0
M  V30 13651 C 1247.03 3.67266 2.59684 0
M  V30 13652 C 1248.35 2.04141 3.8989 0
M  V30 13653 H 1245.47 0.461893 0.574303 0
M  V30 13654 H 1248.11 1.64558 0.949769 0
M  V30 13655 H 1246.26 1.83639 3.42358 0
M  V30 13656 H 1247.93 4.09711 2.11978 0
M  V30 13657 H 1246.17 3.88426 1.93151 0
M  V30 13658 H 1246.84 4.24863 3.52414 0
M  V30 13659 H 1249.32 2.3231 3.45212 0
M  V30 13660 H 1248.2 2.68601 4.7869 0
M  V30 13661 H 1248.46 1.01795 4.30221 0
M  V30 13662 N 1247.52 -1.0444 1.18026 0
M  V30 13663 C 1248.46 -2.12365 0.903865 0
M  V30 13664 C 1249.43 -1.65373 -0.155252 0
M  V30 13665 O 1250.62 -1.90793 -0.016419 0
M  V30 13666 C 1247.76 -3.4239 0.431603 0
M  V30 13667 C 1246.87 -4.03016 1.55571 0
M  V30 13668 C 1246.01 -5.20988 1.03655 0
M  V30 13669 C 1245.05 -5.73636 2.1356 0
M  V30 13670 N 1244.18 -6.82901 1.63066 0
M  V30 13671 H 1249.02 -2.35346 1.82802 0
M  V30 13672 H 1246.56 -1.15447 0.911618 0
M  V30 13673 H 1248.52 -4.16967 0.139296 0
M  V30 13674 H 1247.15 -3.19569 -0.455576 0
M  V30 13675 H 1246.2 -3.25803 1.96358 0
M  V30 13676 H 1247.51 -4.38122 2.38434 0
M  V30 13677 H 1246.67 -6.02665 0.698546 0
M  V30 13678 H 1245.4 -4.87377 0.177457 0
M  V30 13679 H 1244.41 -4.90583 2.4821 0
M  V30 13680 H 1245.63 -6.09293 2.99899 0
M  V30 13681 H 1243.58 -6.51172 0.794394 0
M  V30 13682 H 1243.5 -7.1705 2.3953 0
M  V30 13683 H 1244.77 -7.68211 1.32181 0
M  V30 13684 N 1248.99 -0.981699 -1.2329 0
M  V30 13685 C 1249.93 -0.467781 -2.23354 0
M  V30 13686 C 1250.91 0.465814 -1.55785 0
M  V30 13687 O 1252.09 0.393959 -1.84337 0
M  V30 13688 C 1249.22 0.323133 -3.37155 0
M  V30 13689 C 1248.26 -0.554796 -4.22876 0
M  V30 13690 S 1249.1 -2.00343 -4.96612 0
M  V30 13691 C 1250.25 -1.22169 -6.13861 0
M  V30 13692 H 1250.48 -1.31573 -2.66601 0
M  V30 13693 H 1248.02 -0.787793 -1.3279 0
M  V30 13694 H 1249.98 0.773448 -4.03148 0
M  V30 13695 H 1248.64 1.14622 -2.92439 0
M  V30 13696 H 1247.83 0.0531667 -5.03972 0
M  V30 13697 H 1247.43 -0.94141 -3.61958 0
M  V30 13698 H 1249.72 -0.483668 -6.75771 0
M  V30 13699 H 1250.67 -2.00752 -6.79046 0
M  V30 13700 H 1251.07 -0.739905 -5.5963 0
M  V30 13701 N 1250.47 1.3842 -0.753509 0
M  V30 13702 C 1251.38 2.34252 -0.127811 0
M  V30 13703 C 1252.4 1.59266 0.700743 0
M  V30 13704 O 1253.57 1.9146 0.624914 0
M  V30 13705 C 1250.64 3.38382 0.754886 0
M  V30 13706 C 1249.7 4.2921 -0.0880312 0
M  V30 13707 C 1248.93 5.28367 0.75263 0
M  V30 13708 O 1249.16 5.34537 1.99064 0
M  V30 13709 O 1248.09 6.01656 0.171475 0
M  V30 13710 H 1251.92 2.89454 -0.91925 0
M  V30 13711 H 1249.5 1.40265 -0.514404 0
M  V30 13712 H 1251.38 4.02141 1.25938 0
M  V30 13713 H 1250.06 2.85536 1.52482 0
M  V30 13714 H 1248.97 3.68611 -0.638468 0
M  V30 13715 H 1250.3 4.85311 -0.82062 0
M  V30 13716 N 1251.95 0.502579 1.49372 0
M  V30 13717 C 1252.9 -0.275004 2.29156 0
M  V30 13718 C 1253.87 -0.95892 1.35624 0
M  V30 13719 O 1255.05 -0.965276 1.64581 0
M  V30 13720 C 1252.19 -1.33255 3.18335 0
M  V30 13721 C 1251.31 -0.660248 4.26925 0
M  V30 13722 C 1250.44 -1.69837 5.03318 0
M  V30 13723 C 1249.48 -1.00802 6.03743 0
M  V30 13724 N 1248.62 -1.99042 6.73295 0
M  V30 13725 H 1253.46 0.411599 2.95144 0
M  V30 13726 H 1250.99 0.214824 1.45523 0
M  V30 13727 H 1252.95 -1.95769 3.68416 0
M  V30 13728 H 1251.58 -1.98789 2.54328 0
M  V30 13729 H 1250.63 0.0782181 3.8032 0
M  V30 13730 H 1251.95 -0.11689 4.98663 0
M  V30 13731 H 1251.1 -2.39852 5.57275 0
M  V30 13732 H 1249.84 -2.27558 4.31357 0
M  V30 13733 H 1248.84 -0.293654 5.49015 0
M  V30 13734 H 1250.07 -0.437285 6.77691 0
M  V30 13735 H 1248.01 -2.55722 6.04104 0
M  V30 13736 H 1247.93 -1.49776 7.41015 0
M  V30 13737 H 1249.2 -2.6834 7.31856 0
M  V30 13738 N 1253.43 -1.55816 0.23648 0
M  V30 13739 C 1254.34 -2.24576 -0.678439 0
M  V30 13740 C 1255.35 -1.25836 -1.20172 0
M  V30 13741 O 1256.53 -1.58686 -1.24019 0
M  V30 13742 C 1253.6 -2.92376 -1.86325 0
M  V30 13743 C 1252.66 -4.06499 -1.38047 0
M  V30 13744 C 1251.89 -4.71057 -2.50881 0
M  V30 13745 O 1252.11 -4.34652 -3.69369 0
M  V30 13746 O 1251.05 -5.59768 -2.21232 0
M  V30 13747 H 1254.87 -3.03452 -0.122601 0
M  V30 13748 H 1252.46 -1.49399 0.00540803 0
M  V30 13749 H 1254.34 -3.35117 -2.55488 0
M  V30 13750 H 1253.01 -2.16448 -2.40691 0
M  V30 13751 H 1251.92 -3.68296 -0.656422 0
M  V30 13752 H 1253.25 -4.84214 -0.883024 0
M  V30 13753 N 1254.91 0.036755 -1.57557 0
M  V30 13754 C 1255.87 1.02435 -2.05036 0
M  V30 13755 C 1256.87 1.29506 -0.953146 0
M  V30 13756 O 1258.06 1.24638 -1.217 0
M  V30 13757 C 1255.19 2.3592 -2.46079 0
M  V30 13758 H 1256.38 0.614384 -2.93539 0
M  V30 13759 H 1253.94 0.283396 -1.53709 0
M  V30 13760 H 1254.67 2.8168 -1.60708 0
M  V30 13761 H 1254.46 2.17603 -3.26177 0
M  V30 13762 H 1255.95 3.06839 -2.83266 0
M  V30 13763 N 1256.39 1.54543 0.308881 0
M  V30 13764 C 1257.32 1.87947 1.38557 0
M  V30 13765 C 1258.3 0.737622 1.53275 0
M  V30 13766 O 1259.48 0.992664 1.66913 0
M  V30 13767 C 1256.61 2.11982 2.75102 0
M  V30 13768 C 1255.57 3.2783 2.75158 0
M  V30 13769 C 1254.89 3.37266 4.14917 0
M  V30 13770 C 1256.19 4.65129 2.37598 0
M  V30 13771 H 1257.89 2.78123 1.1085 0
M  V30 13772 H 1255.43 1.3382 0.531808 0
M  V30 13773 H 1257.38 2.33935 3.50503 0
M  V30 13774 H 1256.11 1.18569 3.04317 0
M  V30 13775 H 1254.77 3.05787 2.02212 0
M  V30 13776 H 1254.42 2.41384 4.41296 0
M  V30 13777 H 1254.12 4.15135 4.15857 0
M  V30 13778 H 1255.64 3.61471 4.92109 0
M  V30 13779 H 1257.05 4.86865 3.02714 0
M  V30 13780 H 1255.45 5.45653 2.49765 0
M  V30 13781 H 1256.52 4.6638 1.32731 0
M  V30 13782 N 1257.86 -0.571685 1.46866 0
M  V30 13783 C 1258.8 -1.69502 1.52788 0
M  V30 13784 C 1259.77 -1.58071 0.381109 0
M  V30 13785 O 1260.96 -1.79132 0.586844 0
M  V30 13786 C 1258.09 -3.07642 1.41682 0
M  V30 13787 C 1257.13 -3.37562 2.6068 0
M  V30 13788 S 1257.96 -3.28413 4.22971 0
M  V30 13789 C 1259.12 -4.69073 4.14393 0
M  V30 13790 H 1259.35 -1.64221 2.47828 0
M  V30 13791 H 1256.89 -0.751334 1.34886 0
M  V30 13792 H 1258.84 -3.8733 1.35962 0
M  V30 13793 H 1257.51 -3.10403 0.480517 0
M  V30 13794 H 1256.7 -4.38233 2.48933 0
M  V30 13795 H 1256.3 -2.65464 2.63448 0
M  V30 13796 H 1258.59 -5.59706 3.81754 0
M  V30 13797 H 1259.54 -4.85877 5.15101 0
M  V30 13798 H 1259.94 -4.4644 3.45473 0
M  V30 13799 N 1259.34 -1.34755 -0.817236 0
M  V30 13800 C 1260.57 -1.30522 -1.60536 0
M  V30 13801 C 1260.98 0.119541 -1.88421 0
M  V30 13802 O 1260.34 1.06833 -1.47962 0
M  V30 13803 C 1260.39 -2.09939 -2.94292 0
M  V30 13804 O 1260.11 -3.46858 -2.67621 0
M  V30 13805 C 1261.61 -2.13168 -3.88683 0
M  V30 13806 H 1258.83 -0.448789 -0.498828 0
M  V30 13807 H 1261.38 -1.77453 -1.01639 0
M  V30 13808 H 1259.53 -1.66634 -3.49731 0
M  V30 13809 H 1259.95 -3.87979 -3.52949 0
M  V30 13810 H 1261.42 -2.73147 -4.79682 0
M  V30 13811 H 1261.9 -1.12758 -4.24479 0
M  V30 13812 H 1262.5 -2.56587 -3.39181 0
M  V30 13813 N 1260.82 1.03812 -1.18578 0
M  V30 13814 C 1261.73 2.15371 -0.930182 0
M  V30 13815 C 1262.75 1.73673 0.106599 0
M  V30 13816 O 1263.92 2.01257 -0.0759054 0
M  V30 13817 C 1260.99 3.43606 -0.462151 0
M  V30 13818 C 1260.05 3.99671 -1.5672 0
M  V30 13819 C 1259.28 5.21785 -1.12141 0
M  V30 13820 O 1259.5 5.70397 0.0188357 0
M  V30 13821 O 1258.44 5.70449 -1.9202 0
M  V30 13822 H 1262.26 2.39791 -1.86371 0
M  V30 13823 H 1259.85 1.13814 -0.967819 0
M  V30 13824 H 1261.73 4.2088 -0.20934 0
M  V30 13825 H 1260.41 3.20654 0.443052 0
M  V30 13826 H 1259.31 3.23774 -1.87406 0
M  V30 13827 H 1260.65 4.2697 -2.44862 0
M  V30 13828 N 1262.3 0.988223 1.22768 0
M  V30 13829 C 1263.23 0.554478 2.26821 0
M  V30 13830 C 1264.21 -0.416293 1.64927 0
M  V30 13831 O 1265.39 -0.30795 1.91743 0
M  V30 13832 C 1262.52 -0.136266 3.47033 0
M  V30 13833 C 1261.48 0.752575 4.21332 0
M  V30 13834 C 1260.8 -0.0708236 5.34653 0
M  V30 13835 C 1262.1 2.04717 4.80508 0
M  V30 13836 H 1263.8 1.42423 2.63355 0
M  V30 13837 H 1261.34 0.686267 1.26595 0
M  V30 13838 H 1263.3 -0.451068 4.18979 0
M  V30 13839 H 1262.02 -1.04053 3.09581 0
M  V30 13840 H 1260.68 1.05095 3.51213 0
M  V30 13841 H 1260.33 -0.975859 4.93443 0
M  V30 13842 H 1260.03 0.520835 5.85287 0
M  V30 13843 H 1261.55 -0.379828 6.09417 0
M  V30 13844 H 1262.97 1.79663 5.44421 0
M  V30 13845 H 1261.36 2.58726 5.41462 0
M  V30 13846 H 1262.43 2.72896 4.00819 0
M  V30 13847 N 1263.78 -1.38018 0.760839 0
M  V30 13848 C 1265 -2.04757 0.330038 0
M  V30 13849 C 1265.43 -1.57009 -1.03585 0
M  V30 13850 O 1264.78 -0.725349 -1.66158 0
M  V30 13851 C 1264.83 -3.58696 0.370082 0
M  V30 13852 O 1263.94 -4.07507 -0.633361 0
M  V30 13853 H 1263.28 -0.648023 0.144782 0
M  V30 13854 H 1265.81 -1.7655 1.03399 0
M  V30 13855 H 1265.82 -4.07387 0.223515 0
M  V30 13856 H 1264.49 -3.92806 1.36661 0
M  V30 13857 H 1263.07 -3.70165 -0.45081 0
M  V30 13858 N 1265.25 -0.510493 -1.49103 0
M  V30 13859 C 1266.48 0.0271718 -2.06882 0
M  V30 13860 C 1266.9 1.2995 -1.36962 0
M  V30 13861 O 1266.25 1.76842 -0.450916 0
M  V30 13862 C 1266.3 0.274956 -3.60453 0
M  V30 13863 O 1266.03 -0.946941 -4.27744 0
M  V30 13864 C 1267.53 0.855197 -4.34973 0
M  V30 13865 H 1264.75 -0.024732 -0.670544 0
M  V30 13866 H 1267.29 -0.710567 -1.91758 0
M  V30 13867 H 1265.45 0.962696 -3.75248 0
M  V30 13868 H 1265.86 -0.715627 -5.19595 0
M  V30 13869 H 1267.33 0.978103 -5.43265 0
M  V30 13870 H 1267.81 1.85535 -3.98087 0
M  V30 13871 H 1268.42 0.204632 -4.24807 0
M  V30 13872 N 1266.73 1.55688 -0.24474 0
M  V30 13873 C 1267.98 1.99186 0.381167 0
M  V30 13874 C 1268.31 1.13266 1.57748 0
M  V30 13875 O 1267.59 0.195568 1.93514 0
M  V30 13876 C 1267.87 3.51257 0.793142 0
M  V30 13877 C 1267.72 4.47942 -0.408409 0
M  V30 13878 C 1269.04 4.08365 1.64091 0
M  V30 13879 H 1266.16 0.724141 0.137073 0
M  V30 13880 H 1268.8 1.8683 -0.345619 0
M  V30 13881 H 1266.95 3.61917 1.4124 0
M  V30 13882 H 1268.62 4.49265 -1.04682 0
M  V30 13883 H 1266.87 4.20854 -1.05189 0
M  V30 13884 H 1267.54 5.51946 -0.0768531 0
M  V30 13885 H 1270.01 4.00794 1.1182 0
M  V30 13886 H 1268.89 5.1504 1.89802 0
M  V30 13887 H 1269.15 3.56687 2.61202 0
M  V30 13888 N 1268.21 -0.0283989 1.57574 0
M  V30 13889 C 1269.16 -1.02881 2.06601 0
M  V30 13890 C 1270.13 -1.35879 0.955308 0
M  V30 13891 O 1271.31 -1.46205 1.22592 0
M  V30 13892 C 1268.45 -2.32447 2.55073 0
M  V30 13893 C 1267.56 -2.05602 3.79937 0
M  V30 13894 C 1266.7 -3.29043 4.17018 0
M  V30 13895 C 1265.74 -2.97755 5.34797 0
M  V30 13896 N 1264.88 -4.1365 5.67308 0
M  V30 13897 H 1269.72 -0.603772 2.91819 0
M  V30 13898 H 1267.25 -0.286503 1.44283 0
M  V30 13899 H 1269.21 -3.08152 2.81244 0
M  V30 13900 H 1267.84 -2.72672 1.72771 0
M  V30 13901 H 1266.89 -1.2039 3.60847 0
M  V30 13902 H 1268.2 -1.78522 4.65759 0
M  V30 13903 H 1267.36 -4.13115 4.4432 0
M  V30 13904 H 1266.1 -3.59237 3.29849 0
M  V30 13905 H 1265.1 -2.12085 5.07247 0
M  V30 13906 H 1266.33 -2.68839 6.23621 0
M  V30 13907 H 1264.27 -4.43794 4.83097 0
M  V30 13908 H 1264.19 -3.89996 6.47641 0
M  V30 13909 H 1265.46 -4.98594 5.99186 0
M  V30 13910 N 1269.69 -1.54705 -0.300681 0
M  V30 13911 C 1270.96 -1.6468 -1.05546 0
M  V30 13912 C 1271.34 -0.495292 -2.05207 0
M  V30 13913 O 1270.69 0.507944 -2.22783 0
M  V30 13914 C 1270.9 -3.02702 -1.73703 0
M  V30 13915 C 1272.25 -3.59527 -2.25888 0
M  V30 13916 O 1273.27 -3.05156 -1.83735 0
M  V30 13917 O 1272.13 -4.54727 -3.03126 0
M  V30 13918 H 1269.23 -0.667769 -0.487867 0
M  V30 13919 H 1271.77 -1.6705 -0.298743 0
M  V30 13920 H 1270.55 -3.7795 -1.01338 0
M  V30 13921 H 1270.17 -3.0411 -2.5613 0
M  V30 13922 N 1271.17 0.563888 -1.47167 0
M  V30 13923 C 1272.11 1.67151 -1.59152 0
M  V30 13924 C 1273.08 1.60307 -0.434852 0
M  V30 13925 O 1274.27 1.7924 -0.654049 0
M  V30 13926 C 1271.41 3.0548 -1.60549 0
M  V30 13927 C 1270.52 3.2281 -2.87085 0
M  V30 13928 C 1269.66 4.51498 -2.79862 0
M  V30 13929 C 1268.7 4.62237 -4.01252 0
M  V30 13930 N 1267.83 5.82273 -3.92305 0
M  V30 13931 H 1272.67 1.56245 -2.53755 0
M  V30 13932 H 1270.21 0.761219 -1.25872 0
M  V30 13933 H 1272.17 3.85572 -1.59343 0
M  V30 13934 H 1270.8 3.15237 -0.69464 0
M  V30 13935 H 1269.85 2.36196 -2.98188 0
M  V30 13936 H 1271.16 3.2661 -3.76997 0
M  V30 13937 H 1270.32 5.39842 -2.76867 0
M  V30 13938 H 1269.05 4.50166 -1.87621 0
M  V30 13939 H 1268.06 3.72307 -4.04558 0
M  V30 13940 H 1269.28 4.65334 -4.94612 0
M  V30 13941 H 1267.23 5.81902 -3.02862 0
M  V30 13942 H 1267.15 5.87422 -4.7589 0
M  V30 13943 H 1268.42 6.72996 -3.93315 0
M  V30 13944 N 1272.64 1.35187 0.810078 0
M  V30 13945 C 1273.57 1.30481 1.93641 0
M  V30 13946 C 1274.56 0.179875 1.69146 0
M  V30 13947 O 1275.74 0.374284 1.90559 0
M  V30 13948 C 1272.87 1.07251 3.30325 0
M  V30 13949 C 1271.82 2.16348 3.69293 0
M  V30 13950 C 1271.15 1.78288 5.04101 0
M  V30 13951 C 1272.45 3.58285 3.80038 0
M  V30 13952 H 1274.14 2.24725 1.97836 0
M  V30 13953 H 1271.69 1.08179 0.950436 0
M  V30 13954 H 1273.64 1.02599 4.08719 0
M  V30 13955 H 1272.37 0.0945203 3.26463 0
M  V30 13956 H 1271.03 2.2009 2.93182 0
M  V30 13957 H 1270.67 0.791163 4.96739 0
M  V30 13958 H 1270.37 2.51315 5.31144 0
M  V30 13959 H 1271.9 1.75155 5.84938 0
M  V30 13960 H 1273.31 3.56884 4.48672 0
M  V30 13961 H 1271.71 4.30044 4.18548 0
M  V30 13962 H 1272.78 3.94691 2.81685 0
M  V30 13963 N 1274.12 -1.03182 1.19127 0
M  V30 13964 C 1275.35 -1.80703 1.01791 0
M  V30 13965 C 1275.77 -1.83147 -0.428824 0
M  V30 13966 O 1275.13 -1.2553 -1.30812 0
M  V30 13967 C 1275.18 -3.23754 1.58794 0
M  V30 13968 O 1274.28 -4.04261 0.815274 0
M  V30 13969 H 1273.62 -0.557944 0.359992 0
M  V30 13970 H 1276.15 -1.29887 1.58084 0
M  V30 13971 H 1276.16 -3.7451 1.61884 0
M  V30 13972 H 1274.84 -3.2129 2.64094 0
M  V30 13973 H 1273.42 -3.62909 0.857392 0
M  V30 13974 N 1275.6 -0.99472 -1.22242 0
M  V30 13975 C 1276.55 -0.546504 -2.24236 0
M  V30 13976 C 1277.52 0.422101 -1.60647 0
M  V30 13977 O 1278.7 0.326452 -1.87987 0
M  V30 13978 C 1275.84 0.130909 -3.44852 0
M  V30 13979 C 1274.96 -0.879653 -4.22949 0
M  V30 13980 C 1274.09 -0.175569 -5.3091 0
M  V30 13981 C 1273.13 -1.17438 -6.00729 0
M  V30 13982 N 1272.27 -0.498474 -7.00328 0
M  V30 13983 H 1277.11 -1.42099 -2.61939 0
M  V30 13984 H 1274.64 -0.711755 -1.28734 0
M  V30 13985 H 1276.6 0.540596 -4.13683 0
M  V30 13986 H 1275.23 0.96917 -3.07907 0
M  V30 13987 H 1274.28 -1.40765 -3.53397 0
M  V30 13988 H 1275.6 -1.64017 -4.71062 0
M  V30 13989 H 1274.75 0.290756 -6.06003 0
M  V30 13990 H 1273.49 0.617438 -4.83776 0
M  V30 13991 H 1272.49 -1.65131 -5.24416 0
M  V30 13992 H 1273.72 -1.96829 -6.4995 0
M  V30 13993 H 1271.66 0.275063 -6.55423 0
M  V30 13994 H 1271.58 -1.19741 -7.46457 0
M  V30 13995 H 1272.85 -0.0550119 -7.79481 0
M  V30 13996 N 1277.08 1.37613 -0.768148 0
M  V30 13997 C 1278.32 2.00075 -0.331331 0
M  V30 13998 C 1278.66 1.60839 1.08833 0
M  V30 13999 O 1277.93 0.852849 1.74805 0
M  V30 14000 C 1278.22 3.57009 -0.470789 0
M  V30 14001 C 1278.07 4.06166 -1.9326 0
M  V30 14002 C 1279.39 4.39916 0.127111 0
M  V30 14003 H 1276.51 0.726855 -0.121864 0
M  V30 14004 H 1279.15 1.63343 -0.970518 0
M  V30 14005 H 1277.3 3.88431 0.0733688 0
M  V30 14006 H 1278.97 3.85325 -2.53618 0
M  V30 14007 H 1277.21 3.58492 -2.44266 0
M  V30 14008 H 1277.88 5.15219 -1.98125 0
M  V30 14009 H 1280.36 4.14732 -0.337144 0
M  V30 14010 H 1279.24 5.489 -0.000624226 0
M  V30 14011 H 1279.5 4.25018 1.21704 0
M  V30 14012 N 1278.56 0.518393 1.4883 0
M  V30 14013 C 1279.78 -0.0183131 2.07392 0
M  V30 14014 C 1280.21 -1.28468 1.37396 0
M  V30 14015 O 1279.56 -1.75975 0.436177 0
M  V30 14016 C 1279.61 -0.237211 3.59819 0
M  V30 14017 O 1278.72 -1.30835 3.91096 0
M  V30 14018 H 1278.06 0.0339621 0.663131 0
M  V30 14019 H 1280.59 0.722993 1.914 0
M  V30 14020 H 1280.6 -0.463424 4.0536 0
M  V30 14021 H 1279.27 0.687925 4.10171 0
M  V30 14022 H 1277.85 -1.06571 3.57347 0
M  V30 14023 N 1280.03 -1.55556 0.252993 0
M  V30 14024 C 1281.31 -1.91022 -0.420696 0
M  V30 14025 C 1281.69 -1.17452 -1.75409 0
M  V30 14026 O 1281.04 -0.294 -2.26601 0
M  V30 14027 C 1281.25 -3.441 -0.582787 0
M  V30 14028 C 1282.6 -4.15468 -0.875873 0
M  V30 14029 O 1283.62 -3.49872 -0.668425 0
M  V30 14030 O 1282.48 -5.31508 -1.27128 0
M  V30 14031 H 1279.57 -0.7953 -0.226776 0
M  V30 14032 H 1282.12 -1.67072 0.297511 0
M  V30 14033 H 1280.89 -3.89673 0.356474 0
M  V30 14034 H 1280.52 -3.73933 -1.3513 0
M  V30 14035 N 1281.51 0.0200419 -1.57587 0
M  V30 14036 C 1282.74 0.724241 -1.94344 0
M  V30 14037 C 1283.16 1.67612 -0.853688 0
M  V30 14038 O 1282.52 1.80303 0.189873 0
M  V30 14039 C 1282.57 1.44967 -3.30177 0
M  V30 14040 O 1281.67 2.56326 -3.23064 0
M  V30 14041 H 1281.01 0.194142 -0.634984 0
M  V30 14042 H 1283.54 -0.0271756 -2.04582 0
M  V30 14043 H 1283.55 1.81758 -3.65278 0
M  V30 14044 H 1282.23 0.75161 -4.09052 0
M  V30 14045 H 1280.81 2.22011 -2.99609 0
M  V30 14046 N 1282.99 1.54862 0.292472 0
M  V30 14047 C 1283.92 1.89406 1.36556 0
M  V30 14048 C 1284.9 0.753838 1.52484 0
M  V30 14049 O 1286.09 1.01031 1.6585 0
M  V30 14050 C 1283.22 2.14888 2.72838 0
M  V30 14051 C 1282.17 3.3073 2.71665 0
M  V30 14052 C 1281.5 3.41648 4.11316 0
M  V30 14053 C 1282.8 4.67622 2.32651 0
M  V30 14054 H 1284.49 2.79284 1.07894 0
M  V30 14055 H 1282.04 1.34377 0.517585 0
M  V30 14056 H 1283.99 2.3764 3.48002 0
M  V30 14057 H 1282.71 1.2179 3.03042 0
M  V30 14058 H 1281.37 3.07915 1.98958 0
M  V30 14059 H 1281.02 2.46051 4.38711 0
M  V30 14060 H 1280.72 4.19522 4.11431 0
M  V30 14061 H 1282.24 3.6667 4.88248 0
M  V30 14062 H 1283.66 4.90048 2.97533 0
M  V30 14063 H 1282.06 5.48272 2.43963 0
M  V30 14064 H 1283.13 4.67762 1.27777 0
M  V30 14065 N 1284.47 -0.556076 1.47464 0
M  V30 14066 C 1285.42 -1.66304 1.60036 0
M  V30 14067 C 1286.39 -1.60074 0.443348 0
M  V30 14068 O 1287.57 -1.7889 0.663545 0
M  V30 14069 C 1284.71 -3.04624 1.62167 0
M  V30 14070 C 1283.82 -3.21283 2.88793 0
M  V30 14071 C 1282.96 -4.50008 2.82252 0
M  V30 14072 C 1282 -4.60103 4.03698 0
M  V30 14073 N 1281.13 -5.80184 3.95387 0
M  V30 14074 H 1285.97 -1.54897 2.5458 0
M  V30 14075 H 1283.51 -0.754533 1.26274 0
M  V30 14076 H 1285.47 -3.84721 1.61386 0
M  V30 14077 H 1284.1 -3.14865 0.711348 0
M  V30 14078 H 1283.15 -2.34611 2.99436 0
M  V30 14079 H 1284.46 -3.24607 3.78724 0
M  V30 14080 H 1283.62 -5.38366 2.79726 0
M  V30 14081 H 1282.36 -4.49165 1.90005 0
M  V30 14082 H 1281.36 -3.70157 4.06527 0
M  V30 14083 H 1282.59 -4.62704 4.97073 0
M  V30 14084 H 1280.53 -5.80288 3.05944 0
M  V30 14085 H 1280.45 -5.8489 4.78998 0
M  V30 14086 H 1281.72 -6.709 3.96879 0
M  V30 14087 N 1285.95 -1.35615 -0.802897 0
M  V30 14088 C 1286.9 -1.28877 -1.93632 0
M  V30 14089 C 1287.89 -0.183014 -1.68408 0
M  V30 14090 O 1289.1 -0.349218 -1.7658 0
M  V30 14091 H 1285.47 -0.400883 -0.636236 0
M  V30 14092 H 1287.44 -2.24624 -1.96435 0
M  V30 14093 C 1286.19 -1.08136 -3.30457 0
M  V30 14094 H 1285.51 -1.92463 -3.50426 0
M  V30 14095 H 1286.95 -1.07464 -4.10155 0
M  V30 14096 C 1285.41 0.214635 -3.36216 0
M  V30 14097 O 1285.94 1.20916 -3.8307 0
M  V30 14098 N 1284.15 0.25468 -2.89482 0
M  V30 14099 H 1283.7 -0.555239 -2.51545 0
M  V30 14100 H 1283.65 1.12152 -2.93716 0
M  V30 14101 N 1287.43 1.02549 -1.19673 0
M  V30 14102 C 1288.65 1.8016 -1.02748 0
M  V30 14103 C 1289.08 1.83372 0.419105 0
M  V30 14104 O 1288.43 1.26222 1.30144 0
M  V30 14105 C 1288.48 3.22907 -1.60509 0
M  V30 14106 O 1287.59 4.03823 -0.836702 0
M  V30 14107 H 1286.93 0.556027 -0.362946 0
M  V30 14108 H 1289.46 1.29047 -1.5877 0
M  V30 14109 H 1289.47 3.73646 -1.63868 0
M  V30 14110 H 1288.14 3.19885 -2.65794 0
M  V30 14111 H 1286.72 3.6245 -0.876626 0
M  V30 14112 N 1288.9 1.00119 1.21713 0
M  V30 14113 C 1289.85 0.558388 2.23943 0
M  V30 14114 C 1290.82 -0.413576 1.60869 0
M  V30 14115 O 1292.01 -0.316478 1.88157 0
M  V30 14116 C 1289.15 -0.112618 3.44916 0
M  V30 14117 C 1288.26 0.902071 4.22477 0
M  V30 14118 C 1287.39 0.203722 5.30809 0
M  V30 14119 C 1286.43 1.20622 6.00097 0
M  V30 14120 N 1285.57 0.535607 7.00054 0
M  V30 14121 H 1290.41 1.43486 2.61182 0
M  V30 14122 H 1287.95 0.718572 1.28355 0
M  V30 14123 H 1289.9 -0.51865 4.13964 0
M  V30 14124 H 1288.53 -0.952827 3.08417 0
M  V30 14125 H 1287.59 1.42637 3.52645 0
M  V30 14126 H 1288.9 1.66513 4.70186 0
M  V30 14127 H 1288.05 -0.258614 6.06149 0
M  V30 14128 H 1286.79 -0.591773 4.84096 0
M  V30 14129 H 1285.8 1.6791 5.23532 0
M  V30 14130 H 1287.02 2.00273 6.48897 0
M  V30 14131 H 1284.97 -0.2403 6.5556 0
M  V30 14132 H 1284.88 1.23698 7.45812 0
M  V30 14133 H 1286.15 0.0963489 7.7944 0
M  V30 14134 N 1290.38 -1.37203 0.775435 0
M  V30 14135 C 1291.61 -2.04396 0.351737 0
M  V30 14136 C 1292.03 -1.58099 -1.01913 0
M  V30 14137 O 1291.39 -0.742932 -1.65379 0
M  V30 14138 C 1291.44 -3.58283 0.408105 0
M  V30 14139 O 1290.54 -4.08156 -0.590104 0
M  V30 14140 H 1289.88 -0.646451 0.151647 0
M  V30 14141 H 1292.41 -1.75443 1.05265 0
M  V30 14142 H 1292.42 -4.07127 0.266711 0
M  V30 14143 H 1291.1 -3.91335 1.40819 0
M  V30 14144 H 1289.67 -3.70622 -0.411524 0
M  V30 14145 N 1291.86 -0.526279 -1.48553 0
M  V30 14146 C 1292.77 0.24244 -2.33344 0
M  V30 14147 C 1293.79 0.942658 -1.46253 0
M  V30 14148 O 1294.96 0.91844 -1.79239 0
M  V30 14149 C 1292.03 1.27801 -3.22285 0
M  V30 14150 C 1291.09 0.588543 -4.25247 0
M  V30 14151 C 1290.32 1.57478 -5.09938 0
M  V30 14152 O 1290.54 2.80707 -4.96548 0
M  V30 14153 O 1289.48 1.11621 -5.9146 0
M  V30 14154 H 1293.3 -0.452262 -3.00314 0
M  V30 14155 H 1290.89 -0.287249 -1.46613 0
M  V30 14156 H 1292.77 1.87656 -3.7731 0
M  V30 14157 H 1291.45 1.95519 -2.57981 0
M  V30 14158 H 1290.35 -0.0504022 -3.74066 0
M  V30 14159 H 1291.69 -0.046627 -4.92178 0
M  V30 14160 N 1293.34 1.5542 -0.261239 0
M  V30 14161 C 1294.58 1.99284 0.359487 0
M  V30 14162 C 1294.91 1.14954 1.56894 0
M  V30 14163 O 1294.17 0.203796 1.94636 0
M  V30 14164 C 1294.47 3.48354 0.799021 0
M  V30 14165 C 1294.13 4.49872 -0.30426 0
M  V30 14166 C 1292.79 4.77353 -0.607237 0
M  V30 14167 C 1295.15 5.10547 -1.04838 0
M  V30 14168 C 1292.47 5.62781 -1.65816 0
M  V30 14169 C 1294.83 5.97115 -2.08893 0
M  V30 14170 C 1293.49 6.22923 -2.3984 0
M  V30 14171 H 1292.76 0.72923 0.131546 0
M  V30 14172 H 1295.41 1.87851 -0.372058 0
M  V30 14173 H 1293.71 3.57192 1.61001 0
M  V30 14174 H 1295.41 3.7969 1.28981 0
M  V30 14175 H 1292 4.28561 -0.0579863 0
M  V30 14176 H 1296.18 4.89352 -0.827566 0
M  V30 14177 H 1291.44 5.81026 -1.90311 0
M  V30 14178 H 1295.61 6.43168 -2.67035 0
M  V30 14179 H 1293.24 6.88912 -3.2141 0
M  V30 14180 N 1294.82 -0.0116844 1.57596 0
M  V30 14181 C 1295.73 -1.02342 2.111 0
M  V30 14182 C 1296.74 -1.38478 1.05355 0
M  V30 14183 O 1297.92 -1.47447 1.37191 0
M  V30 14184 C 1294.98 -2.30016 2.5941 0
M  V30 14185 C 1294.04 -2.003 3.79708 0
M  V30 14186 C 1293.28 -3.21888 4.25704 0
M  V30 14187 O 1293.5 -4.33171 3.71106 0
M  V30 14188 O 1292.43 -3.0657 5.17975 0
M  V30 14189 H 1296.26 -0.598637 2.97742 0
M  V30 14190 H 1293.84 -0.229779 1.47622 0
M  V30 14191 H 1295.73 -3.05044 2.90733 0
M  V30 14192 H 1294.4 -2.71755 1.75871 0
M  V30 14193 H 1293.31 -1.22785 3.53376 0
M  V30 14194 H 1294.64 -1.63406 4.64284 0
M  V30 14195 N 1296.29 -1.55015 -0.284256 0
M  V30 14196 C 1297.24 -1.87122 -1.35107 0
M  V30 14197 C 1298.21 -0.721638 -1.49605 0
M  V30 14198 O 1299.4 -0.971855 -1.64194 0
M  V30 14199 C 1296.54 -2.1388 -2.70831 0
M  V30 14200 C 1295.65 -3.41447 -2.64647 0
M  V30 14201 C 1294.78 -3.57961 -3.92476 0
M  V30 14202 C 1293.82 -4.79261 -3.80757 0
M  V30 14203 N 1292.96 -4.92492 -5.00395 0
M  V30 14204 H 1297.8 -2.78117 -1.07027 0
M  V30 14205 H 1295.34 -1.37704 -0.517311 0
M  V30 14206 H 1297.29 -2.27391 -3.49784 0
M  V30 14207 H 1295.92 -1.26132 -2.97137 0
M  V30 14208 H 1294.98 -3.36467 -1.77466 0
M  V30 14209 H 1296.29 -4.3053 -2.51884 0
M  V30 14210 H 1295.44 -3.71229 -4.79868 0
M  V30 14211 H 1294.18 -2.67042 -4.08093 0
M  V30 14212 H 1293.19 -4.66008 -2.91747 0
M  V30 14213 H 1294.41 -5.71604 -3.66669 0
M  V30 14214 H 1292.36 -4.04501 -5.16445 0
M  V30 14215 H 1292.27 -5.75603 -4.9012 0
M  V30 14216 H 1293.54 -5.10134 -5.89392 0
M  V30 14217 N 1297.77 0.548248 -1.47757 0
M  V30 14218 C 1298.68 1.68178 -1.63565 0
M  V30 14219 C 1299.7 1.661 -0.518351 0
M  V30 14220 O 1300.87 1.85384 -0.787061 0
M  V30 14221 C 1297.94 3.04673 -1.65454 0
M  V30 14222 C 1297 3.17749 -2.88677 0
M  V30 14223 C 1296.23 4.47733 -2.90466 0
M  V30 14224 O 1296.46 5.33736 -2.01201 0
M  V30 14225 O 1295.39 4.64789 -3.82433 0
M  V30 14226 H 1299.22 1.57781 -2.59497 0
M  V30 14227 H 1296.8 0.719277 -1.30946 0
M  V30 14228 H 1298.68 3.85885 -1.69324 0
M  V30 14229 H 1297.36 3.15433 -0.726912 0
M  V30 14230 H 1296.26 2.359 -2.90348 0
M  V30 14231 H 1297.6 3.11897 -3.80763 0
M  V30 14232 N 1299.25 1.36039 0.795694 0
M  V30 14233 C 1300.2 1.29902 1.92946 0
M  V30 14234 C 1301.19 0.191943 1.68309 0
M  V30 14235 O 1302.4 0.358577 1.76392 0
M  V30 14236 H 1298.77 0.404252 0.634101 0
M  V30 14237 H 1300.74 2.25663 1.95241 0
M  V30 14238 C 1299.49 1.09887 3.29879 0
M  V30 14239 H 1298.82 1.94318 3.494 0
M  V30 14240 H 1300.26 1.09638 4.0958 0
M  V30 14241 C 1298.71 -0.196802 3.36325 0
M  V30 14242 O 1299.24 -1.18883 3.83705 0
M  V30 14243 N 1297.45 -0.239325 2.89613 0
M  V30 14244 H 1297 0.568571 2.51247 0
M  V30 14245 H 1296.96 -1.10593 2.94307 0
M  V30 14246 N 1300.73 -1.01913 1.20215 0
M  V30 14247 C 1301.66 -2.10513 0.906476 0
M  V30 14248 C 1302.67 -1.62463 -0.104758 0
M  V30 14249 O 1303.86 -1.78055 0.12593 0
M  V30 14250 C 1300.96 -3.3722 0.337012 0
M  V30 14251 C 1300.14 -4.14417 1.39917 0
M  V30 14252 C 1299.19 -5.19428 0.841489 0
M  V30 14253 O 1298.22 -5.48486 1.52157 0
M  V30 14254 N 1299.42 -5.79442 -0.350365 0
M  V30 14255 H 1302.19 -2.36465 1.84132 0
M  V30 14256 H 1299.75 -1.18283 1.10548 0
M  V30 14257 H 1301.74 -4.04669 -0.0501507 0
M  V30 14258 H 1300.31 -3.08538 -0.502325 0
M  V30 14259 H 1299.53 -3.41975 1.96078 0
M  V30 14260 H 1300.82 -4.62777 2.1146 0
M  V30 14261 H 1300.22 -5.58166 -0.920204 0
M  V30 14262 H 1298.77 -6.48252 -0.679194 0
M  V30 14263 N 1302.21 -1.00763 -1.2118 0
M  V30 14264 C 1303.15 -0.570257 -2.23644 0
M  V30 14265 C 1304.12 0.405039 -1.61086 0
M  V30 14266 O 1305.31 0.306496 -1.88322 0
M  V30 14267 C 1302.45 0.094325 -3.44971 0
M  V30 14268 C 1301.56 -0.924463 -4.21993 0
M  V30 14269 C 1300.7 -0.231869 -5.30694 0
M  V30 14270 C 1299.74 -1.23803 -5.99449 0
M  V30 14271 N 1298.87 -0.572725 -6.9976 0
M  V30 14272 H 1303.71 -1.44869 -2.60417 0
M  V30 14273 H 1301.25 -0.725369 -1.27972 0
M  V30 14274 H 1303.21 0.496689 -4.14233 0
M  V30 14275 H 1301.84 0.936457 -3.08918 0
M  V30 14276 H 1300.89 -1.44505 -3.51884 0
M  V30 14277 H 1302.2 -1.69004 -4.69296 0
M  V30 14278 H 1301.36 0.226465 -6.06277 0
M  V30 14279 H 1300.09 0.566092 -4.84403 0
M  V30 14280 H 1299.1 -1.70684 -5.22635 0
M  V30 14281 H 1300.32 -2.03711 -6.47826 0
M  V30 14282 H 1298.27 0.205531 -6.55678 0
M  V30 14283 H 1298.19 -1.27651 -7.45145 0
M  V30 14284 H 1299.46 -0.137683 -7.79378 0
M  V30 14285 N 1303.68 1.3679 -0.7827 0
M  V30 14286 C 1304.93 1.99023 -0.351316 0
M  V30 14287 C 1305.25 1.62436 1.07887 0
M  V30 14288 O 1304.52 0.895084 1.74256 0
M  V30 14289 H 1303.1 0.736141 -0.126909 0
M  V30 14290 H 1305.77 1.67095 -1.00325 0
M  V30 14291 H 1304.86 3.09015 -0.43774 0
M  V30 14292 N 1305.16 0.53415 1.48272 0
M  V30 14293 C 1306.11 -0.226335 2.29688 0
M  V30 14294 C 1307.08 -0.929937 1.37628 0
M  V30 14295 O 1308.26 -0.930149 1.66592 0
M  V30 14296 C 1305.4 -1.26472 3.2109 0
M  V30 14297 C 1304.52 -0.569542 4.28229 0
M  V30 14298 C 1303.65 -1.59122 5.06807 0
M  V30 14299 C 1302.69 -0.879734 6.05745 0
M  V30 14300 N 1301.83 -1.84715 6.77366 0
M  V30 14301 H 1306.67 0.474111 2.94204 0
M  V30 14302 H 1304.21 0.245643 1.45034 0
M  V30 14303 H 1306.16 -1.87911 3.72485 0
M  V30 14304 H 1304.79 -1.9335 2.58487 0
M  V30 14305 H 1303.85 0.158872 3.80068 0
M  V30 14306 H 1305.16 -0.0110904 4.98799 0
M  V30 14307 H 1304.31 -2.27977 5.62238 0
M  V30 14308 H 1303.05 -2.18357 4.36086 0
M  V30 14309 H 1302.06 -0.177134 5.49515 0
M  V30 14310 H 1303.28 -0.293439 6.78466 0
M  V30 14311 H 1301.23 -2.42851 6.09393 0
M  V30 14312 H 1301.14 -1.34025 7.44025 0
M  V30 14313 H 1302.41 -2.52756 7.37384 0
M  V30 14314 N 1306.64 -1.55279 0.269478 0
M  V30 14315 C 1307.6 -2.21008 -0.607299 0
M  V30 14316 C 1308.6 -1.18619 -1.08564 0
M  V30 14317 O 1309.79 -1.4356 -0.986721 0
M  V30 14318 C 1306.93 -2.87157 -1.83721 0
M  V30 14319 H 1308.12 -2.99881 -0.0334894 0
M  V30 14320 H 1305.67 -1.56287 0.0200573 0
M  V30 14321 H 1306.41 -2.12281 -2.45168 0
M  V30 14322 H 1306.19 -3.62183 -1.5022 0
M  V30 14323 H 1307.68 -3.37391 -2.46083 0
M  V30 14324 N 1308.12 0.00332656 -1.576 0
M  V30 14325 C 1309.08 0.980628 -2.07163 0
M  V30 14326 C 1310.08 1.27455 -0.980402 0
M  V30 14327 O 1311.27 1.22029 -1.24317 0
M  V30 14328 C 1308.4 2.30647 -2.51028 0
M  V30 14329 H 1309.6 0.551982 -2.94776 0
M  V30 14330 H 1307.15 0.250728 -1.54276 0
M  V30 14331 H 1307.88 2.78207 -1.66647 0
M  V30 14332 H 1307.67 2.10635 -3.30719 0
M  V30 14333 H 1309.16 3.00761 -2.89711 0
M  V30 14334 N 1309.6 1.55164 0.276031 0
M  V30 14335 C 1310.85 1.74833 1.0058 0
M  V30 14336 C 1311.16 0.555089 1.87558 0
M  V30 14337 O 1312.36 0.634127 2.63991 0
M  V30 14338 C 1310.82 3.09417 1.83818 0
M  V30 14339 C 1310.43 4.36299 1.01721 0
M  V30 14340 C 1312.17 3.38437 2.56244 0
M  V30 14341 C 1310.08 5.61923 1.8438 0
M  V30 14342 H 1309.01 0.651676 0.379254 0
M  V30 14343 H 1311.66 1.81626 0.26161 0
M  V30 14344 H 1310.04 2.96654 2.62321 0
M  V30 14345 H 1311.22 4.59969 0.276565 0
M  V30 14346 H 1309.53 4.144 0.407645 0
M  V30 14347 H 1312.13 4.29501 3.18485 0
M  V30 14348 H 1312.47 2.58432 3.26372 0
M  V30 14349 H 1313 3.52284 1.84773 0
M  V30 14350 H 1309.74 6.44667 1.18679 0
M  V30 14351 H 1309.26 5.424 2.56051 0
M  V30 14352 H 1310.94 6.0011 2.4182 0
M  V30 14353 N 1311.07 -0.540404 1.48045 0
M  V30 14354 C 1312 -1.65538 1.6468 0
M  V30 14355 C 1312.99 -1.62713 0.495847 0
M  V30 14356 O 1314.17 -1.80072 0.727172 0
M  V30 14357 C 1311.3 -3.0415 1.67661 0
M  V30 14358 C 1310.25 -3.2183 2.82152 0
M  V30 14359 C 1309.58 -4.61397 2.70216 0
M  V30 14360 C 1310.88 -3.05596 4.23567 0
M  V30 14361 H 1312.57 -1.51873 2.58021 0
M  V30 14362 H 1310.12 -0.729208 1.24171 0
M  V30 14363 H 1312.07 -3.82013 1.77887 0
M  V30 14364 H 1310.8 -3.18814 0.708907 0
M  V30 14365 H 1309.46 -2.4638 2.71463 0
M  V30 14366 H 1309.1 -4.72883 1.71437 0
M  V30 14367 H 1308.8 -4.74174 3.47035 0
M  V30 14368 H 1310.33 -5.41374 2.82395 0
M  V30 14369 H 1311.74 -3.73261 4.35143 0
M  V30 14370 H 1310.14 -3.29871 5.01303 0
M  V30 14371 H 1311.21 -2.0214 4.40758 0
M  V30 14372 N 1312.55 -1.36459 -0.788468 0
M  V30 14373 C 1313.83 -1.21289 -1.53455 0
M  V30 14374 C 1314.21 0.200549 -2.10145 0
M  V30 14375 O 1313.56 1.20629 -1.94064 0
M  V30 14376 C 1313.77 -2.29562 -2.62873 0
M  V30 14377 C 1315.12 -2.66277 -3.30729 0
M  V30 14378 O 1316.14 -2.28612 -2.73157 0
M  V30 14379 O 1315 -3.31106 -4.34777 0
M  V30 14380 H 1312.09 -0.472306 -0.678864 0
M  V30 14381 H 1314.64 -1.48192 -0.826869 0
M  V30 14382 H 1313.41 -3.24286 -2.18984 0
M  V30 14383 H 1313.03 -2.0403 -3.41259 0
M  V30 14384 N 1314.03 1.01274 -1.20754 0
M  V30 14385 C 1314.96 2.11763 -0.983805 0
M  V30 14386 C 1315.94 1.69869 0.0885635 0
M  V30 14387 O 1317.13 1.94075 -0.0697239 0
M  V30 14388 C 1314.26 3.43087 -0.539287 0
M  V30 14389 C 1313.21 3.9874 -1.55534 0
M  V30 14390 C 1312.54 5.25877 -0.967322 0
M  V30 14391 C 1313.84 4.31688 -2.94012 0
M  V30 14392 H 1315.53 2.30737 -1.90789 0
M  V30 14393 H 1313.08 1.10884 -0.918734 0
M  V30 14394 H 1315.03 4.19773 -0.369979 0
M  V30 14395 H 1313.75 3.23883 0.420435 0
M  V30 14396 H 1312.41 3.24166 -1.71207 0
M  V30 14397 H 1312.06 5.03 0.000448307 0
M  V30 14398 H 1311.76 5.64077 -1.64594 0
M  V30 14399 H 1313.28 6.05215 -0.809167 0
M  V30 14400 H 1314.7 4.99246 -2.81827 0
M  V30 14401 H 1313.1 4.81011 -3.58815 0
M  V30 14402 H 1314.17 3.4029 -3.45442 0
M  V30 14403 N 1315.51 1.01404 1.20644 0
M  V30 14404 C 1316.42 0.591693 2.27016 0
M  V30 14405 C 1317.44 -0.36958 1.7003 0
M  V30 14406 O 1318.61 -0.231165 2.00069 0
M  V30 14407 C 1315.68 -0.0659827 3.46637 0
M  V30 14408 C 1314.74 0.940911 4.18862 0
M  V30 14409 C 1313.97 0.314526 5.32772 0
M  V30 14410 O 1314.19 -0.886404 5.63471 0
M  V30 14411 O 1313.13 1.02998 5.93022 0
M  V30 14412 H 1316.95 1.4772 2.65353 0
M  V30 14413 H 1314.54 0.783399 1.27213 0
M  V30 14414 H 1316.42 -0.433412 4.19165 0
M  V30 14415 H 1315.1 -0.925729 3.10181 0
M  V30 14416 H 1314 1.35966 3.48517 0
M  V30 14417 H 1315.34 1.77054 4.59252 0
M  V30 14418 N 1316.99 -1.36373 0.789944 0
M  V30 14419 C 1317.93 -2.30043 0.186798 0
M  V30 14420 C 1318.9 -1.52002 -0.669663 0
M  V30 14421 O 1320.09 -1.80506 -0.618232 0
M  V30 14422 C 1317.23 -3.38494 -0.671994 0
M  V30 14423 C 1316.34 -4.31522 0.203067 0
M  V30 14424 C 1315.48 -5.27057 -0.662148 0
M  V30 14425 C 1314.52 -6.11725 0.214335 0
M  V30 14426 N 1313.65 -6.99446 -0.609892 0
M  V30 14427 H 1318.49 -2.81038 0.991048 0
M  V30 14428 H 1316.03 -1.38331 0.500288 0
M  V30 14429 H 1317.99 -4.0002 -1.1849 0
M  V30 14430 H 1316.62 -2.88818 -1.44167 0
M  V30 14431 H 1315.67 -3.71146 0.833945 0
M  V30 14432 H 1316.98 -4.91005 0.878389 0
M  V30 14433 H 1316.14 -5.93875 -1.24084 0
M  V30 14434 H 1314.88 -4.6803 -1.37109 0
M  V30 14435 H 1313.88 -5.43868 0.805426 0
M  V30 14436 H 1315.11 -6.72827 0.92089 0
M  V30 14437 H 1313.05 -6.42927 -1.30312 0
M  V30 14438 H 1312.97 -7.56 0.00773786 0
M  V30 14439 H 1314.24 -7.70633 -1.1724 0
M  V30 14440 N 1318.47 -0.542005 -1.47987 0
M  V30 14441 C 1319.69 -0.016717 -2.06893 0
M  V30 14442 C 1320.11 1.27015 -1.39687 0
M  V30 14443 O 1319.47 1.75845 -0.488326 0
M  V30 14444 C 1319.52 0.198437 -3.60955 0
M  V30 14445 O 1319.24 -1.03746 -4.25639 0
M  V30 14446 C 1320.74 0.762741 -4.36689 0
M  V30 14447 H 1317.96 -0.0389497 -0.669869 0
M  V30 14448 H 1320.5 -0.751082 -1.90208 0
M  V30 14449 H 1318.66 0.882884 -3.77205 0
M  V30 14450 H 1319.07 -0.82568 -5.1796 0
M  V30 14451 H 1320.55 0.862649 -5.45218 0
M  V30 14452 H 1321.02 1.77049 -4.01933 0
M  V30 14453 H 1321.63 0.114478 -4.25146 0
M  V30 14454 N 1319.94 1.55134 -0.277709 0
M  V30 14455 C 1321.18 2.01561 0.339489 0
M  V30 14456 C 1321.55 1.16185 1.52856 0
M  V30 14457 O 1322.75 1.52204 2.21556 0
M  V30 14458 C 1321.02 3.50285 0.709567 0
M  V30 14459 S 1322.58 4.18697 1.31293 0
M  V30 14460 H 1319.4 0.703137 0.105452 0
M  V30 14461 H 1322 1.91361 -0.400148 0
M  V30 14462 H 1320.7 4.10069 -0.164675 0
M  V30 14463 H 1320.23 3.64475 1.4806 0
M  V30 14464 H 1322.25 4.22539 2.60145 0
M  V30 14465 N 1321.42 0.00503138 1.57599 0
M  V30 14466 C 1322.37 -0.984754 2.08737 0
M  V30 14467 C 1323.34 -1.33822 0.983915 0
M  V30 14468 O 1324.52 -1.43572 1.25665 0
M  V30 14469 C 1321.66 -2.26984 2.59946 0
M  V30 14470 C 1320.78 -1.97496 3.84212 0
M  V30 14471 C 1319.91 -3.20123 4.23904 0
M  V30 14472 C 1318.95 -2.86344 5.40993 0
M  V30 14473 N 1318.09 -4.01524 5.75954 0
M  V30 14474 H 1322.93 -0.541737 2.93034 0
M  V30 14475 H 1320.46 -0.255834 1.44858 0
M  V30 14476 H 1322.42 -3.02117 2.87717 0
M  V30 14477 H 1321.05 -2.68946 1.78516 0
M  V30 14478 H 1320.1 -1.12709 3.63319 0
M  V30 14479 H 1321.42 -1.68602 4.69441 0
M  V30 14480 H 1320.57 -4.03598 4.52983 0
M  V30 14481 H 1319.31 -3.5216 3.37394 0
M  V30 14482 H 1318.31 -2.01278 5.11632 0
M  V30 14483 H 1319.54 -2.5555 6.29183 0
M  V30 14484 H 1317.49 -4.33447 4.92402 0
M  V30 14485 H 1317.4 -3.76171 6.55768 0
M  V30 14486 H 1318.67 -4.85772 6.09628 0
M  V30 14487 N 1322.9 -1.55308 -0.267798 0
M  V30 14488 C 1323.81 -1.91649 -1.35307 0
M  V30 14489 C 1324.83 -0.814349 -1.53767 0
M  V30 14490 O 1326 -1.11388 -1.67793 0
M  V30 14491 C 1323.07 -2.18553 -2.69138 0
M  V30 14492 C 1322.13 -3.42083 -2.5938 0
M  V30 14493 C 1321.36 -3.67695 -3.86828 0
M  V30 14494 O 1321.58 -2.95728 -4.87751 0
M  V30 14495 O 1320.52 -4.61229 -3.86718 0
M  V30 14496 H 1324.34 -2.84044 -1.07483 0
M  V30 14497 H 1321.93 -1.41921 -0.466772 0
M  V30 14498 H 1323.81 -2.3726 -3.48261 0
M  V30 14499 H 1322.49 -1.2934 -2.96737 0
M  V30 14500 H 1321.39 -3.28706 -1.78614 0
M  V30 14501 H 1322.73 -4.31532 -2.36729 0
M  V30 14502 N 1324.38 0.532545 -1.4833 0
M  V30 14503 C 1325.31 1.64662 -1.65555 0
M  V30 14504 C 1326.29 1.62447 -0.50447 0
M  V30 14505 O 1327.47 1.79684 -0.736712 0
M  V30 14506 C 1324.6 3.03256 -1.69272 0
M  V30 14507 C 1323.56 3.20329 -2.83854 0
M  V30 14508 C 1322.88 4.59958 -2.72659 0
M  V30 14509 C 1324.18 3.03345 -4.25181 0
M  V30 14510 H 1325.88 1.50502 -2.58823 0
M  V30 14511 H 1323.42 0.722612 -1.24556 0
M  V30 14512 H 1325.38 3.81064 -1.79911 0
M  V30 14513 H 1324.1 3.18433 -0.725805 0
M  V30 14514 H 1322.76 2.44937 -2.72766 0
M  V30 14515 H 1322.41 4.71967 -1.73942 0
M  V30 14516 H 1322.11 4.72327 -3.49544 0
M  V30 14517 H 1323.63 5.39869 -2.85262 0
M  V30 14518 H 1325.05 3.70948 -4.37116 0
M  V30 14519 H 1323.44 3.27208 -5.03045 0
M  V30 14520 H 1324.51 1.998 -4.41824 0
M  V30 14521 N 1325.86 1.36875 0.78122 0
M  V30 14522 C 1326.8 1.31869 1.89418 0
M  V30 14523 C 1327.77 0.185904 1.65056 0
M  V30 14524 O 1328.96 0.373745 1.87104 0
M  V30 14525 C 1326.1 1.12205 3.2635 0
M  V30 14526 C 1325.21 2.34631 3.62729 0
M  V30 14527 C 1324.35 2.07914 4.8882 0
M  V30 14528 C 1323.38 3.26257 5.17902 0
M  V30 14529 N 1322.52 2.99152 6.35179 0
M  V30 14530 H 1327.36 2.2703 1.93032 0
M  V30 14531 H 1324.9 1.12826 0.943857 0
M  V30 14532 H 1326.86 0.988282 4.05326 0
M  V30 14533 H 1325.49 0.206959 3.22136 0
M  V30 14534 H 1324.54 2.58782 2.78812 0
M  V30 14535 H 1325.85 3.22919 3.80164 0
M  V30 14536 H 1325 1.91514 5.7568 0
M  V30 14537 H 1323.74 1.1695 4.7347 0
M  V30 14538 H 1322.75 3.43207 4.29522 0
M  V30 14539 H 1323.97 4.1806 5.35166 0
M  V30 14540 H 1321.92 2.10807 6.21205 0
M  V30 14541 H 1321.84 3.80981 6.52985 0
M  V30 14542 H 1323.1 2.86349 7.25 0
M  V30 14543 N 1327.33 -1.00632 1.21289 0
M  V30 14544 C 1328.28 -2.07791 0.938459 0
M  V30 14545 C 1329.27 -1.60552 -0.105773 0
M  V30 14546 O 1330.46 -1.767 0.102981 0
M  V30 14547 C 1327.59 -3.39587 0.503563 0
M  V30 14548 C 1326.67 -3.93497 1.58179 0
M  V30 14549 N 1327.07 -4.20792 2.80656 0
M  V30 14550 C 1325.36 -4.21759 1.45035 0
M  V30 14551 C 1326.06 -4.64411 3.50281 0
M  V30 14552 N 1325.04 -4.67305 2.77717 0
M  V30 14553 H 1328.84 -2.26816 1.869 0
M  V30 14554 H 1326.36 -1.18692 1.10842 0
M  V30 14555 H 1328.35 -4.15902 0.288323 0
M  V30 14556 H 1327.01 -3.21969 -0.420233 0
M  V30 14557 H 1328.02 -4.09386 3.17212 0
M  V30 14558 H 1324.7 -4.13285 0.591745 0
M  V30 14559 H 1326.09 -4.94263 4.55141 0
M  V30 14560 N 1328.81 -1.02043 -1.20104 0
M  V30 14561 C 1329.74 -0.552093 -2.22451 0
M  V30 14562 C 1330.76 0.367547 -1.58597 0
M  V30 14563 O 1331.95 0.165285 -1.77733 0
M  V30 14564 C 1329.05 0.215833 -3.38212 0
M  V30 14565 C 1328.22 -0.70666 -4.31654 0
M  V30 14566 C 1327.28 0.0143628 -5.26198 0
M  V30 14567 O 1326.3 -0.609413 -5.65928 0
M  V30 14568 N 1327.51 1.28794 -5.66032 0
M  V30 14569 H 1330.27 -1.43229 -2.6326 0
M  V30 14570 H 1327.83 -0.89842 -1.34685 0
M  V30 14571 H 1329.82 0.707523 -3.98467 0
M  V30 14572 H 1328.39 0.997358 -2.96263 0
M  V30 14573 H 1327.61 -1.37859 -3.69308 0
M  V30 14574 H 1328.9 -1.33392 -4.91003 0
M  V30 14575 H 1328.3 1.8156 -5.35773 0
M  V30 14576 H 1326.86 1.72429 -6.28579 0
M  V30 14577 N 1330.29 1.35952 -0.797165 0
M  V30 14578 C 1331.22 2.32506 -0.215277 0
M  V30 14579 C 1332.2 1.57023 0.654046 0
M  V30 14580 O 1333.39 1.85139 0.586268 0
M  V30 14581 C 1330.52 3.41266 0.644557 0
M  V30 14582 C 1329.47 4.27816 -0.125501 0
M  V30 14583 C 1328.8 5.27813 0.855428 0
M  V30 14584 C 1330.1 5.05367 -1.31913 0
M  V30 14585 H 1331.79 2.8142 -1.02193 0
M  V30 14586 H 1329.34 1.35303 -0.492862 0
M  V30 14587 H 1331.29 4.07808 1.06163 0
M  V30 14588 H 1330.01 2.90938 1.484 0
M  V30 14589 H 1328.67 3.62841 -0.523639 0
M  V30 14590 H 1328.32 4.73755 1.69011 0
M  V30 14591 H 1328.02 5.86589 0.344566 0
M  V30 14592 H 1329.54 5.97227 1.2709 0
M  V30 14593 H 1330.96 5.64907 -0.977418 0
M  V30 14594 H 1329.36 5.73593 -1.76382 0
M  V30 14595 H 1330.43 4.36558 -2.11057 0
M  V30 14596 N 1331.77 0.549846 1.47697 0
M  V30 14597 C 1332.7 -0.239345 2.27947 0
M  V30 14598 C 1333.71 -0.886206 1.36566 0
M  V30 14599 O 1334.9 -0.761298 1.61451 0
M  V30 14600 C 1332 -1.35591 3.10593 0
M  V30 14601 C 1331.18 -0.807234 4.29887 0
M  V30 14602 C 1330.23 -1.80738 4.94187 0
M  V30 14603 O 1329.26 -1.35641 5.52802 0
M  V30 14604 N 1330.46 -3.14046 4.88216 0
M  V30 14605 H 1333.23 0.449001 2.96318 0
M  V30 14606 H 1330.79 0.385443 1.57245 0
M  V30 14607 H 1332.78 -2.02356 3.50477 0
M  V30 14608 H 1331.35 -1.94761 2.44514 0
M  V30 14609 H 1330.57 0.0369877 3.94183 0
M  V30 14610 H 1331.86 -0.419877 5.07065 0
M  V30 14611 H 1331.26 -3.53335 4.41781 0
M  V30 14612 H 1329.81 -3.7639 5.32141 0
M  V30 14613 N 1333.25 -1.54984 0.285932 0
M  V30 14614 C 1334.49 -2.00126 -0.328223 0
M  V30 14615 C 1334.83 -1.17409 -1.54689 0
M  V30 14616 O 1334.1 -0.246806 -1.92928 0
M  V30 14617 C 1334.38 -3.53236 -0.699733 0
M  V30 14618 C 1334.24 -4.46702 0.527029 0
M  V30 14619 C 1335.56 -4.12572 -1.53206 0
M  V30 14620 H 1332.67 -0.727521 -0.117825 0
M  V30 14621 H 1335.32 -1.85848 0.395032 0
M  V30 14622 H 1333.47 -3.65534 -1.31594 0
M  V30 14623 H 1335.14 -4.46332 1.16557 0
M  V30 14624 H 1333.38 -4.17917 1.1631 0
M  V30 14625 H 1334.05 -5.51549 0.223165 0
M  V30 14626 H 1336.53 -4.03618 -1.01154 0
M  V30 14627 H 1335.4 -5.19891 -1.7608 0
M  V30 14628 H 1335.67 -3.63487 -2.51654 0
M  V30 14629 N 1334.72 -0.0133892 -1.57594 0
M  V30 14630 C 1335.66 1.00211 -2.06132 0
M  V30 14631 C 1336.67 1.29869 -0.98173 0
M  V30 14632 O 1337.86 1.2661 -1.25826 0
M  V30 14633 C 1334.96 2.33354 -2.45763 0
M  V30 14634 C 1334.13 2.22441 -3.76615 0
M  V30 14635 C 1333.19 3.38385 -4.02967 0
M  V30 14636 O 1332.22 3.15973 -4.73445 0
M  V30 14637 N 1333.42 4.61672 -3.51908 0
M  V30 14638 H 1336.18 0.588079 -2.93874 0
M  V30 14639 H 1333.74 0.173714 -1.60965 0
M  V30 14640 H 1335.74 3.09716 -2.60496 0
M  V30 14641 H 1334.31 2.66451 -1.6347 0
M  V30 14642 H 1333.53 1.30905 -3.7183 0
M  V30 14643 H 1334.81 2.12337 -4.62375 0
M  V30 14644 H 1334.21 4.82777 -2.9486 0
M  V30 14645 H 1332.77 5.35256 -3.71947 0
M  V30 14646 N 1336.2 1.55448 0.259558 0
M  V30 14647 C 1337.14 1.84197 1.3471 0
M  V30 14648 C 1338.11 0.69603 1.4695 0
M  V30 14649 O 1339.3 0.940458 1.63364 0
M  V30 14650 C 1336.42 2.01549 2.72205 0
M  V30 14651 C 1335.47 3.2415 2.77181 0
M  V30 14652 S 1336.3 4.81149 2.35066 0
M  V30 14653 C 1337.46 5.0149 3.74511 0
M  V30 14654 H 1337.69 2.76153 1.10122 0
M  V30 14655 H 1335.23 1.47392 0.459893 0
M  V30 14656 H 1337.18 2.12231 3.51381 0
M  V30 14657 H 1335.84 1.10458 2.94037 0
M  V30 14658 H 1335.04 3.33219 3.78129 0
M  V30 14659 H 1334.64 3.12128 2.06038 0
M  V30 14660 H 1336.93 4.88057 4.69901 0
M  V30 14661 H 1337.87 6.03507 3.70385 0
M  V30 14662 H 1338.28 4.294 3.66437 0
M  V30 14663 N 1337.68 -0.524672 1.4861 0
M  V30 14664 C 1338.59 -1.65554 1.6622 0
M  V30 14665 C 1339.61 -1.65254 0.54471 0
M  V30 14666 O 1340.78 -1.84109 0.816454 0
M  V30 14667 C 1337.85 -3.02003 1.7028 0
M  V30 14668 C 1336.91 -3.13116 2.93695 0
M  V30 14669 C 1336.14 -4.43055 2.97553 0
M  V30 14670 O 1336.36 -5.30468 2.09667 0
M  V30 14671 O 1335.3 -4.58646 3.89779 0
M  V30 14672 H 1339.12 -1.53633 2.61974 0
M  V30 14673 H 1336.71 -0.698354 1.32073 0
M  V30 14674 H 1338.59 -3.83143 1.75441 0
M  V30 14675 H 1337.27 -3.14236 0.777002 0
M  V30 14676 H 1336.17 -2.31251 2.94064 0
M  V30 14677 H 1337.51 -3.058 3.85677 0
M  V30 14678 N 1339.16 -1.37287 -0.77395 0
M  V30 14679 C 1340.11 -1.32955 -1.90855 0
M  V30 14680 C 1341.1 -0.218695 -1.67982 0
M  V30 14681 O 1342.31 -0.386594 -1.75799 0
M  V30 14682 H 1338.68 -0.414289 -0.62759 0
M  V30 14683 H 1340.65 -2.2874 -1.91626 0
M  V30 14684 C 1339.4 -1.15121 -3.28089 0
M  V30 14685 H 1338.72 -1.99852 -3.46264 0
M  V30 14686 H 1340.16 -1.1614 -4.07784 0
M  V30 14687 C 1338.62 0.14327 -3.36595 0
M  V30 14688 O 1339.15 1.12763 -3.85548 0
M  V30 14689 N 1337.36 0.193219 -2.89957 0
M  V30 14690 H 1336.91 -0.608471 -2.50311 0
M  V30 14691 H 1336.86 1.05897 -2.96029 0
M  V30 14692 N 1340.64 0.999871 -1.21821 0
M  V30 14693 C 1341.86 1.77405 -1.06467 0
M  V30 14694 C 1342.28 1.84828 0.385227 0
M  V30 14695 O 1341.64 1.31338 1.26714 0
M  V30 14696 C 1341.69 3.21062 -1.66137 0
M  V30 14697 O 1341.41 3.14054 -3.05454 0
M  V30 14698 C 1342.91 4.14958 -1.55963 0
M  V30 14699 H 1340.13 0.557368 -0.373607 0
M  V30 14700 H 1342.67 1.2575 -1.61267 0
M  V30 14701 H 1340.83 3.69808 -1.15416 0
M  V30 14702 H 1341.24 4.04346 -3.34073 0
M  V30 14703 H 1342.72 5.13536 -2.02448 0
M  V30 14704 H 1343.19 4.36171 -0.514949 0
M  V30 14705 H 1343.8 3.72105 -2.05956 0
M  V30 14706 N 1342.11 1.02678 1.19562 0
M  V30 14707 C 1343.04 0.626359 2.24942 0
M  V30 14708 C 1344.03 -0.363612 1.66168 0
M  V30 14709 O 1345.21 -0.246793 1.92625 0
M  V30 14710 C 1342.34 -0.0257912 3.4729 0
M  V30 14711 C 1341.29 0.886237 4.18724 0
M  V30 14712 C 1340.62 0.0993081 5.34608 0
M  V30 14713 C 1341.92 2.19901 4.73752 0
M  V30 14714 H 1343.61 1.50729 2.58691 0
M  V30 14715 H 1341.16 0.726195 1.24348 0
M  V30 14716 H 1343.11 -0.317545 4.20202 0
M  V30 14717 H 1341.84 -0.941511 3.12735 0
M  V30 14718 H 1340.5 1.16215 3.47692 0
M  V30 14719 H 1340.14 -0.81838 4.96298 0
M  V30 14720 H 1339.84 0.706776 5.83334 0
M  V30 14721 H 1341.37 -0.185754 6.10317 0
M  V30 14722 H 1342.78 1.96892 5.3843 0
M  V30 14723 H 1341.18 2.75821 5.32956 0
M  V30 14724 H 1342.25 2.85509 3.91934 0
M  V30 14725 N 1343.59 -1.35528 0.804364 0
M  V30 14726 C 1344.54 -2.29832 0.211186 0
M  V30 14727 C 1345.51 -1.52704 -0.653503 0
M  V30 14728 O 1346.69 -1.81152 -0.599052 0
M  V30 14729 C 1343.83 -3.39188 -0.636054 0
M  V30 14730 C 1342.95 -4.31283 0.248824 0
M  V30 14731 C 1342.08 -5.2773 -0.60621 0
M  V30 14732 C 1341.12 -6.11463 0.279205 0
M  V30 14733 N 1340.26 -7.00054 -0.535672 0
M  V30 14734 H 1345.1 -2.79971 1.0208 0
M  V30 14735 H 1342.64 -1.37793 0.514931 0
M  V30 14736 H 1344.59 -4.01254 -1.14241 0
M  V30 14737 H 1343.22 -2.90331 -1.41095 0
M  V30 14738 H 1342.28 -3.70241 0.873263 0
M  V30 14739 H 1343.59 -4.90046 0.930417 0
M  V30 14740 H 1342.74 -5.95158 -1.17778 0
M  V30 14741 H 1341.48 -4.69458 -1.32138 0
M  V30 14742 H 1340.49 -5.42984 0.863066 0
M  V30 14743 H 1341.71 -6.71813 0.9922 0
M  V30 14744 H 1339.66 -6.44273 -1.23486 0
M  V30 14745 H 1339.57 -7.55949 0.0879213 0
M  V30 14746 H 1340.84 -7.71833 -1.09059 0
M  V30 14747 N 1345.07 -0.557671 -1.47404 0
M  V30 14748 C 1345.98 0.19289 -2.33806 0
M  V30 14749 C 1347 0.911424 -1.4822 0
M  V30 14750 O 1348.17 0.880214 -1.81147 0
M  V30 14751 C 1345.24 1.20937 -3.24923 0
M  V30 14752 C 1344.3 0.498209 -4.26399 0
M  V30 14753 C 1343.53 1.46626 -5.13163 0
M  V30 14754 O 1343.76 2.70111 -5.0239 0
M  V30 14755 O 1342.69 0.990497 -5.93694 0
M  V30 14756 H 1346.52 -0.515861 -2.99287 0
M  V30 14757 H 1344.1 -0.318283 -1.4597 0
M  V30 14758 H 1345.98 1.7961 -3.81206 0
M  V30 14759 H 1344.66 1.90003 -2.6207 0
M  V30 14760 H 1343.56 -0.129736 -3.73875 0
M  V30 14761 H 1344.9 -0.151015 -4.91968 0
M  V30 14762 N 1346.55 1.54831 -0.294147 0
M  V30 14763 C 1347.48 2.20696 0.61854 0
M  V30 14764 C 1348.49 1.19754 1.10285 0
M  V30 14765 O 1349.68 1.46383 1.02148 0
M  V30 14766 C 1346.78 2.83429 1.85798 0
M  V30 14767 C 1345.96 4.10239 1.51731 0
M  V30 14768 C 1345.02 4.56841 2.61119 0
M  V30 14769 O 1344.04 5.22194 2.26501 0
M  V30 14770 N 1345.24 4.2858 3.91534 0
M  V30 14771 H 1348.01 2.9965 0.054714 0
M  V30 14772 H 1345.57 1.61484 -0.116052 0
M  V30 14773 H 1347.56 3.11541 2.5831 0
M  V30 14774 H 1346.13 2.08356 2.33038 0
M  V30 14775 H 1345.35 3.89212 0.625142 0
M  V30 14776 H 1346.64 4.92824 1.26499 0
M  V30 14777 H 1346.04 3.7621 4.22472 0
M  V30 14778 H 1344.59 4.61418 4.60366 0
M  V30 14779 N 1348.03 0.0217466 1.57585 0
M  V30 14780 C 1348.97 -0.962559 2.0977 0
M  V30 14781 C 1349.94 -1.32771 0.998053 0
M  V30 14782 O 1351.13 -1.42231 1.27181 0
M  V30 14783 C 1348.27 -2.24214 2.62339 0
M  V30 14784 C 1347.38 -1.9341 3.86286 0
M  V30 14785 C 1346.52 -3.15609 4.27275 0
M  V30 14786 C 1345.56 -2.8059 5.43999 0
M  V30 14787 N 1344.69 -3.95392 5.8018 0
M  V30 14788 H 1349.53 -0.510626 2.93593 0
M  V30 14789 H 1347.07 -0.240456 1.45121 0
M  V30 14790 H 1349.03 -2.99049 2.90905 0
M  V30 14791 H 1347.66 -2.67037 1.81358 0
M  V30 14792 H 1346.71 -1.08849 3.64494 0
M  V30 14793 H 1348.02 -1.63614 4.71203 0
M  V30 14794 H 1347.18 -3.9877 4.57239 0
M  V30 14795 H 1345.92 -3.48561 3.41111 0
M  V30 14796 H 1344.92 -1.9584 5.13738 0
M  V30 14797 H 1346.15 -2.48863 6.31858 0
M  V30 14798 H 1344.09 -4.282 4.96971 0
M  V30 14799 H 1344.01 -3.69195 6.59721 0
M  V30 14800 H 1345.28 -4.79279 6.14746 0
M  V30 14801 N 1349.51 -1.55583 -0.251311 0
M  V30 14802 C 1350.42 -1.93073 -1.33266 0
M  V30 14803 C 1351.43 -0.830612 -1.52895 0
M  V30 14804 O 1352.61 -1.13162 -1.66602 0
M  V30 14805 C 1349.67 -2.21396 -2.66805 0
M  V30 14806 C 1348.73 -3.44815 -2.55737 0
M  V30 14807 C 1347.97 -3.71777 -3.82907 0
M  V30 14808 O 1348.19 -3.00884 -4.84587 0
M  V30 14809 O 1347.12 -4.65305 -3.81805 0
M  V30 14810 H 1350.95 -2.85168 -1.04465 0
M  V30 14811 H 1348.53 -1.42408 -0.451693 0
M  V30 14812 H 1350.42 -2.4094 -3.45725 0
M  V30 14813 H 1349.09 -1.3248 -2.95348 0
M  V30 14814 H 1348 -3.30582 -1.75118 0
M  V30 14815 H 1349.33 -4.34019 -2.32139 0
M  V30 14816 N 1350.98 0.516783 -1.48886 0
M  V30 14817 C 1351.91 1.62897 -1.67292 0
M  V30 14818 C 1352.89 1.61903 -0.521671 0
M  V30 14819 O 1354.08 1.78892 -0.755728 0
M  V30 14820 C 1351.21 3.01444 -1.72478 0
M  V30 14821 C 1350.16 3.173 -2.87236 0
M  V30 14822 C 1349.49 4.5704 -2.77522 0
M  V30 14823 C 1350.79 2.98818 -4.28375 0
M  V30 14824 H 1352.48 1.47748 -2.60405 0
M  V30 14825 H 1350.03 0.709361 -1.25316 0
M  V30 14826 H 1351.98 3.79135 -1.83942 0
M  V30 14827 H 1350.71 3.17645 -0.759538 0
M  V30 14828 H 1349.37 2.4203 -2.75349 0
M  V30 14829 H 1349.01 4.70096 -1.78938 0
M  V30 14830 H 1348.71 4.68593 -3.54534 0
M  V30 14831 H 1350.24 5.36813 -2.90972 0
M  V30 14832 H 1351.65 3.66291 -4.41026 0
M  V30 14833 H 1350.05 3.21854 -5.06488 0
M  V30 14834 H 1351.12 1.95102 -4.43918 0
M  V30 14835 N 1352.46 1.37696 0.766659 0
M  V30 14836 C 1353.41 1.33871 1.88009 0
M  V30 14837 C 1354.38 0.2034 1.6485 0
M  V30 14838 O 1355.56 0.393569 1.86697 0
M  V30 14839 C 1352.7 1.1566 3.25141 0
M  V30 14840 C 1351.82 2.38465 3.6022 0
M  V30 14841 C 1350.95 2.13087 4.86587 0
M  V30 14842 C 1349.99 3.31732 5.14413 0
M  V30 14843 N 1349.13 3.05872 6.3197 0
M  V30 14844 H 1353.97 2.29065 1.90613 0
M  V30 14845 H 1351.5 1.13821 0.931837 0
M  V30 14846 H 1353.46 1.03122 4.04255 0
M  V30 14847 H 1352.09 0.241115 3.21898 0
M  V30 14848 H 1351.14 2.61725 2.76051 0
M  V30 14849 H 1352.46 3.26933 3.76718 0
M  V30 14850 H 1351.61 1.97609 5.73616 0
M  V30 14851 H 1350.35 1.21965 4.72203 0
M  V30 14852 H 1349.35 3.47743 4.25858 0
M  V30 14853 H 1350.58 4.23712 5.30702 0
M  V30 14854 H 1348.53 2.17384 6.18935 0
M  V30 14855 H 1348.44 3.87885 6.48908 0
M  V30 14856 H 1349.71 2.94023 7.21922 0
M  V30 14857 N 1353.94 -0.993397 1.22349 0
M  V30 14858 C 1354.89 -2.0834 0.993123 0
M  V30 14859 C 1355.86 -1.65883 -0.0849717 0
M  V30 14860 O 1357.04 -1.90691 0.0645176 0
M  V30 14861 C 1354.18 -3.40252 0.576434 0
M  V30 14862 C 1353.29 -3.96055 1.72524 0
M  V30 14863 C 1352.43 -5.16123 1.25659 0
M  V30 14864 C 1351.47 -5.64062 2.37698 0
M  V30 14865 N 1350.61 -6.7537 1.91883 0
M  V30 14866 H 1355.45 -2.27381 1.92619 0
M  V30 14867 H 1352.98 -1.11476 0.959763 0
M  V30 14868 H 1354.94 -4.16001 0.316021 0
M  V30 14869 H 1353.57 -3.21214 -0.319626 0
M  V30 14870 H 1352.62 -3.17182 2.1 0
M  V30 14871 H 1353.93 -4.27614 2.56802 0
M  V30 14872 H 1353.09 -5.9916 0.953528 0
M  V30 14873 H 1351.83 -4.86186 0.384011 0
M  V30 14874 H 1350.83 -4.79614 2.68794 0
M  V30 14875 H 1352.06 -5.96025 3.25471 0
M  V30 14876 H 1350 -6.47217 1.06986 0
M  V30 14877 H 1349.92 -7.06246 2.69727 0
M  V30 14878 H 1351.19 -7.61914 1.64644 0
M  V30 14879 N 1355.42 -1.03311 -1.19015 0
M  V30 14880 C 1356.64 -0.751686 -1.93299 0
M  V30 14881 C 1357.07 0.68392 -1.75226 0
M  V30 14882 O 1356.43 1.47274 -1.05736 0
M  V30 14883 C 1356.47 -1.11335 -3.42982 0
M  V30 14884 O 1355.58 -0.234434 -4.11733 0
M  V30 14885 H 1354.92 -0.277331 -0.60331 0
M  V30 14886 H 1357.45 -1.38092 -1.5097 0
M  V30 14887 H 1357.46 -1.07204 -3.93664 0
M  V30 14888 H 1356.13 -2.15922 -3.55458 0
M  V30 14889 H 1354.71 -0.3347 -3.71395 0
M  V30 14890 N 1356.9 1.35099 -0.81154 0
M  V30 14891 C 1357.83 2.32264 -0.239925 0
M  V30 14892 C 1358.81 1.57708 0.637354 0
M  V30 14893 O 1359.99 1.85751 0.566598 0
M  V30 14894 C 1357.12 3.41931 0.608325 0
M  V30 14895 C 1356.08 4.27659 -0.170869 0
M  V30 14896 C 1355.4 5.28691 0.799398 0
M  V30 14897 C 1356.7 5.0394 -1.37266 0
M  V30 14898 H 1358.4 2.8032 -1.05172 0
M  V30 14899 H 1355.94 1.34773 -0.507185 0
M  V30 14900 H 1357.89 4.08911 1.01832 0
M  V30 14901 H 1356.62 2.92496 1.45306 0
M  V30 14902 H 1355.28 3.62265 -0.562094 0
M  V30 14903 H 1354.93 4.75521 1.63977 0
M  V30 14904 H 1354.63 5.86921 0.282331 0
M  V30 14905 H 1356.15 5.98542 1.20749 0
M  V30 14906 H 1357.56 5.63838 -1.03728 0
M  V30 14907 H 1355.96 5.7169 -1.82456 0
M  V30 14908 H 1357.03 4.34295 -2.15676 0
M  V30 14909 N 1358.37 0.56548 1.47106 0
M  V30 14910 C 1359.28 -0.180488 2.33905 0
M  V30 14911 C 1360.3 -0.90355 1.48701 0
M  V30 14912 O 1361.48 -0.870595 1.81611 0
M  V30 14913 C 1358.54 -1.19212 3.2556 0
M  V30 14914 C 1357.6 -0.475589 4.26658 0
M  V30 14915 C 1356.83 -1.43902 5.13934 0
M  V30 14916 O 1357.06 -2.67443 5.03816 0
M  V30 14917 O 1355.99 -0.958998 5.94211 0
M  V30 14918 H 1359.82 0.531726 2.99009 0
M  V30 14919 H 1357.4 0.32602 1.45799 0
M  V30 14920 H 1359.28 -1.77586 3.82153 0
M  V30 14921 H 1357.96 -1.8861 2.63074 0
M  V30 14922 H 1356.87 0.149561 3.73801 0
M  V30 14923 H 1358.2 0.177103 4.91881 0
M  V30 14924 N 1359.85 -1.54672 0.302354 0
M  V30 14925 C 1360.8 -2.2357 -0.573141 0
M  V30 14926 C 1361.77 -1.21878 -1.12849 0
M  V30 14927 O 1362.95 -1.50502 -1.17277 0
M  V30 14928 C 1360.09 -2.98111 -1.7385 0
M  V30 14929 C 1359.21 -4.14579 -1.21441 0
M  V30 14930 C 1358.34 -4.76699 -2.34374 0
M  V30 14931 C 1357.38 -5.8531 -1.79106 0
M  V30 14932 N 1356.52 -6.41379 -2.85618 0
M  V30 14933 H 1361.36 -2.97993 0.0209969 0
M  V30 14934 H 1358.9 -1.47083 0.0221318 0
M  V30 14935 H 1360.85 -3.39561 -2.42392 0
M  V30 14936 H 1359.48 -2.26063 -2.30425 0
M  V30 14937 H 1358.54 -3.78061 -0.421204 0
M  V30 14938 H 1359.85 -4.92824 -0.769821 0
M  V30 14939 H 1359 -5.21009 -3.10861 0
M  V30 14940 H 1357.74 -3.9779 -2.8216 0
M  V30 14941 H 1356.75 -5.40423 -1.01109 0
M  V30 14942 H 1357.97 -6.66104 -1.32222 0
M  V30 14943 H 1355.92 -5.65352 -3.32735 0
M  V30 14944 H 1355.83 -7.14974 -2.45659 0
M  V30 14945 H 1357.1 -6.90346 -3.61998 0
M  V30 14946 N 1361.33 -0.0301034 -1.57571 0
M  V30 14947 C 1362.24 0.967086 -2.1374 0
M  V30 14948 C 1363.26 1.35636 -1.0899 0
M  V30 14949 O 1364.43 1.43758 -1.41052 0
M  V30 14950 C 1361.5 2.23058 -2.65417 0
M  V30 14951 C 1360.56 1.90163 -3.84885 0
M  V30 14952 C 1359.79 3.10488 -4.34088 0
M  V30 14953 O 1360.01 4.23179 -3.8246 0
M  V30 14954 O 1358.95 2.92729 -5.25921 0
M  V30 14955 H 1362.77 0.519486 -2.99224 0
M  V30 14956 H 1360.36 0.190559 -1.4818 0
M  V30 14957 H 1362.24 2.97229 -2.98719 0
M  V30 14958 H 1360.92 2.66997 -1.83015 0
M  V30 14959 H 1359.82 1.13373 -3.56507 0
M  V30 14960 H 1361.16 1.51039 -4.68453 0
M  V30 14961 N 1362.81 1.55714 0.243056 0
M  V30 14962 C 1363.76 1.90638 1.30099 0
M  V30 14963 C 1364.73 0.761049 1.47639 0
M  V30 14964 O 1365.91 1.01505 1.61559 0
M  V30 14965 C 1363.05 2.20985 2.65065 0
M  V30 14966 C 1362.16 3.48343 2.55501 0
M  V30 14967 C 1361.3 3.68241 3.82847 0
M  V30 14968 C 1360.34 4.89187 3.67916 0
M  V30 14969 N 1359.47 5.05586 4.87162 0
M  V30 14970 H 1364.31 2.80857 0.996155 0
M  V30 14971 H 1361.85 1.39027 0.480619 0
M  V30 14972 H 1363.81 2.36585 3.43632 0
M  V30 14973 H 1362.44 1.33966 2.93689 0
M  V30 14974 H 1361.49 3.41054 1.68483 0
M  V30 14975 H 1362.8 4.37057 2.4038 0
M  V30 14976 H 1361.96 3.83822 4.69857 0
M  V30 14977 H 1360.7 2.77768 4.00869 0
M  V30 14978 H 1359.7 4.7358 2.79289 0
M  V30 14979 H 1360.93 5.81124 3.51385 0
M  V30 14980 H 1358.87 4.18051 5.05538 0
M  V30 14981 H 1358.79 5.88395 4.74686 0
M  V30 14982 H 1360.06 5.25582 5.7566 0
M  V30 14983 N 1364.29 -0.50888 1.49158 0
M  V30 14984 C 1365.2 -1.63782 1.67966 0
M  V30 14985 C 1366.21 -1.64667 0.562207 0
M  V30 14986 O 1367.39 -1.83232 0.835935 0
M  V30 14987 C 1364.45 -3.00179 1.73474 0
M  V30 14988 C 1363.51 -3.09983 2.97 0
M  V30 14989 C 1362.75 -4.39875 3.02235 0
M  V30 14990 O 1362.97 -5.28214 2.15282 0
M  V30 14991 O 1361.9 -4.54486 3.94621 0
M  V30 14992 H 1365.73 -1.50846 2.63589 0
M  V30 14993 H 1363.32 -0.684306 1.32807 0
M  V30 14994 H 1365.2 -3.8126 1.79495 0
M  V30 14995 H 1363.87 -3.13394 0.810287 0
M  V30 14996 H 1362.78 -2.28119 2.965 0
M  V30 14997 H 1364.11 -3.01693 3.88899 0
M  V30 14998 N 1365.76 -1.381 -0.759346 0
M  V30 14999 C 1366.73 -1.34674 -1.8546 0
M  V30 15000 C 1367.73 -0.248351 -1.58871 0
M  V30 15001 O 1368.92 -0.504915 -1.66722 0
M  V30 15002 C 1366.05 -1.0952 -3.22828 0
M  V30 15003 H 1367.24 -2.3211 -1.89908 0
M  V30 15004 H 1364.8 -1.2331 -0.960435 0
M  V30 15005 H 1365.53 -0.126664 -3.24053 0
M  V30 15006 H 1365.32 -1.89037 -3.43522 0
M  V30 15007 H 1366.81 -1.09804 -4.02906 0
M  V30 15008 N 1367.24 0.986894 -1.22875 0
M  V30 15009 C 1368.47 1.768 -1.08427 0
M  V30 15010 C 1368.89 1.84612 0.360555 0
M  V30 15011 O 1368.25 1.30299 1.26063 0
M  V30 15012 C 1368.3 3.17638 -1.70701 0
M  V30 15013 O 1367.4 4.00957 -0.964752 0
M  V30 15014 H 1366.74 0.544199 -0.380451 0
M  V30 15015 H 1369.27 1.23931 -1.62795 0
M  V30 15016 H 1369.28 3.68243 -1.75672 0
M  V30 15017 H 1367.96 3.11267 -2.75837 0
M  V30 15018 H 1366.54 3.59477 -0.991493 0
M  V30 15019 N 1368.72 1.0394 1.18466 0
M  V30 15020 C 1369.67 0.59975 2.1997 0
M  V30 15021 C 1370.65 -0.357127 1.56887 0
M  V30 15022 O 1371.85 -0.176388 1.76119 0
M  V30 15023 C 1368.98 -0.0371434 3.4328 0
M  V30 15024 C 1368.06 0.942805 4.13488 0
M  V30 15025 N 1368.45 2.10936 4.59717 0
M  V30 15026 C 1366.75 0.768529 4.39329 0
M  V30 15027 C 1367.45 2.72829 5.1375 0
M  V30 15028 N 1366.43 2.00713 5.05188 0
M  V30 15029 H 1370.23 1.48875 2.53403 0
M  V30 15030 H 1367.74 0.907817 1.34657 0
M  V30 15031 H 1369.74 -0.369803 4.15257 0
M  V30 15032 H 1368.4 -0.921701 3.11343 0
M  V30 15033 H 1369.41 2.48831 4.54207 0
M  V30 15034 H 1366.09 -0.0660446 4.17448 0
M  V30 15035 H 1367.48 3.71684 5.59733 0
M  V30 15036 N 1370.2 -1.34667 0.818693 0
M  V30 15037 C 1371.13 -2.28368 0.195126 0
M  V30 15038 C 1372.14 -1.50836 -0.612562 0
M  V30 15039 O 1373.33 -1.72917 -0.442936 0
M  V30 15040 C 1370.43 -3.30601 -0.745411 0
M  V30 15041 C 1369.61 -4.37396 0.0185308 0
M  V30 15042 C 1368.66 -5.19415 -0.842298 0
M  V30 15043 O 1367.69 -5.68467 -0.288821 0
M  V30 15044 N 1368.89 -5.38709 -2.1627 0
M  V30 15045 H 1371.66 -2.8252 1.00013 0
M  V30 15046 H 1369.22 -1.47146 0.675262 0
M  V30 15047 H 1371.21 -3.82367 -1.3258 0
M  V30 15048 H 1369.78 -2.76875 -1.45118 0
M  V30 15049 H 1369 -3.86402 0.780205 0
M  V30 15050 H 1370.29 -5.05877 0.544575 0
M  V30 15051 H 1369.69 -5.00523 -2.63616 0
M  V30 15052 H 1368.24 -5.9361 -2.69204 0
M  V30 15053 N 1371.68 -0.573274 -1.46804 0
M  V30 15054 C 1372.61 0.153316 -2.32996 0
M  V30 15055 C 1373.59 0.893013 -1.44773 0
M  V30 15056 O 1374.77 0.870329 -1.73606 0
M  V30 15057 C 1371.9 1.1736 -3.2687 0
M  V30 15058 C 1370.86 0.549347 -4.2446 0
M  V30 15059 C 1370.18 1.67542 -5.07773 0
M  V30 15060 C 1371.48 -0.50736 -5.1983 0
M  V30 15061 H 1373.18 -0.566305 -2.93995 0
M  V30 15062 H 1370.72 -0.273785 -1.41373 0
M  V30 15063 H 1372.68 1.6902 -3.86019 0
M  V30 15064 H 1371.4 1.92337 -2.63958 0
M  V30 15065 H 1370.06 0.0539142 -3.6656 0
M  V30 15066 H 1369.71 2.41463 -4.41253 0
M  V30 15067 H 1369.41 1.26343 -5.73856 0
M  V30 15068 H 1370.93 2.19496 -5.69784 0
M  V30 15069 H 1372.34 -0.0762061 -5.73249 0
M  V30 15070 H 1370.74 -0.839139 -5.94204 0
M  V30 15071 H 1371.81 -1.39723 -4.64333 0
M  V30 15072 N 1373.15 1.5451 -0.310553 0
M  V30 15073 C 1374.1 2.23871 0.561277 0
M  V30 15074 C 1375.07 1.22475 1.12202 0
M  V30 15075 O 1376.26 1.51121 1.16477 0
M  V30 15076 C 1373.4 2.99029 1.72267 0
M  V30 15077 C 1372.51 4.15218 1.19241 0
M  V30 15078 C 1371.64 4.77935 2.31843 0
M  V30 15079 C 1370.68 5.86251 1.75999 0
M  V30 15080 N 1369.82 6.42885 2.82212 0
M  V30 15081 H 1374.66 2.97977 -0.0367998 0
M  V30 15082 H 1372.2 1.4707 -0.0299317 0
M  V30 15083 H 1374.16 3.40842 2.40588 0
M  V30 15084 H 1372.79 2.27281 2.29223 0
M  V30 15085 H 1371.84 3.78279 0.401148 0
M  V30 15086 H 1373.15 4.93225 0.743675 0
M  V30 15087 H 1372.3 5.2265 3.08094 0
M  V30 15088 H 1371.04 3.99281 2.80047 0
M  V30 15089 H 1370.05 5.40952 0.982415 0
M  V30 15090 H 1371.27 6.66795 1.28688 0
M  V30 15091 H 1369.22 5.67109 3.29732 0
M  V30 15092 H 1369.14 7.16267 2.41864 0
M  V30 15093 H 1370.4 6.92256 3.58332 0
M  V30 15094 N 1374.63 0.0384594 1.57553 0
M  V30 15095 C 1375.56 -0.938444 2.13812 0
M  V30 15096 C 1376.54 -1.33307 1.05657 0
M  V30 15097 O 1377.73 -1.41003 1.33535 0
M  V30 15098 C 1374.86 -2.21764 2.67279 0
M  V30 15099 C 1373.81 -1.96347 3.80305 0
M  V30 15100 C 1373.14 -3.30612 4.20238 0
M  V30 15101 C 1374.44 -1.2952 5.05986 0
M  V30 15102 H 1376.13 -0.469887 2.9569 0
M  V30 15103 H 1373.68 -0.224576 1.42238 0
M  V30 15104 H 1375.63 -2.90493 3.05273 0
M  V30 15105 H 1374.36 -2.70802 1.82576 0
M  V30 15106 H 1373.02 -1.30033 3.42764 0
M  V30 15107 H 1372.66 -3.77427 3.32502 0
M  V30 15108 H 1372.36 -3.14409 4.96408 0
M  V30 15109 H 1373.89 -4.00594 4.60822 0
M  V30 15110 H 1375.3 -1.88264 5.41507 0
M  V30 15111 H 1373.7 -1.23685 5.87216 0
M  V30 15112 H 1374.77 -0.269439 4.84151 0
M  V30 15113 N 1376.11 -1.55841 -0.234795 0
M  V30 15114 C 1377.02 -1.94476 -1.31211 0
M  V30 15115 C 1378.04 -0.846782 -1.52005 0
M  V30 15116 O 1379.21 -1.14922 -1.65393 0
M  V30 15117 C 1376.28 -2.24213 -2.64442 0
M  V30 15118 C 1375.34 -3.47508 -2.52065 0
M  V30 15119 C 1374.57 -3.75817 -3.78942 0
M  V30 15120 O 1374.8 -3.06007 -4.81369 0
M  V30 15121 O 1373.73 -4.69328 -3.76848 0
M  V30 15122 H 1377.56 -2.8626 -1.01434 0
M  V30 15123 H 1375.14 -1.42879 -0.436563 0
M  V30 15124 H 1377.02 -2.44594 -3.4315 0
M  V30 15125 H 1375.7 -1.35605 -2.93927 0
M  V30 15126 H 1374.6 -3.32421 -1.71602 0
M  V30 15127 H 1375.94 -4.36457 -2.27523 0
M  V30 15128 N 1377.59 0.500963 -1.49426 0
M  V30 15129 C 1378.52 1.61114 -1.69011 0
M  V30 15130 C 1379.5 1.61341 -0.538813 0
M  V30 15131 O 1380.69 1.78081 -0.77466 0
M  V30 15132 C 1377.82 2.99598 -1.75666 0
M  V30 15133 C 1376.77 3.14236 -2.90585 0
M  V30 15134 C 1376.1 4.54071 -2.82354 0
M  V30 15135 C 1377.4 2.94258 -4.3152 0
M  V30 15136 H 1379.09 1.44978 -2.61957 0
M  V30 15137 H 1376.64 0.69603 -1.26061 0
M  V30 15138 H 1378.59 3.77163 -1.87953 0
M  V30 15139 H 1377.31 3.16822 -0.793186 0
M  V30 15140 H 1375.97 2.39096 -2.779 0
M  V30 15141 H 1375.62 4.68172 -1.83914 0
M  V30 15142 H 1375.32 4.64806 -3.59485 0
M  V30 15143 H 1376.84 5.33696 -2.96649 0
M  V30 15144 H 1378.26 3.61592 -4.44886 0
M  V30 15145 H 1376.65 3.16464 -5.09873 0
M  V30 15146 H 1377.72 1.90383 -4.45962 0
M  V30 15147 N 1379.07 1.38501 0.752011 0
M  V30 15148 C 1380.02 1.35975 1.88716 0
M  V30 15149 C 1381.01 0.245392 1.67613 0
M  V30 15150 O 1382.22 0.414514 1.75162 0
M  V30 15151 H 1378.59 0.424221 0.620919 0
M  V30 15152 H 1380.56 2.3176 1.87962 0
M  V30 15153 C 1379.31 1.20326 3.26216 0
M  V30 15154 H 1378.63 2.05336 3.43041 0
M  V30 15155 H 1380.07 1.22613 4.05884 0
M  V30 15156 C 1378.53 -0.0897029 3.36781 0
M  V30 15157 O 1379.06 -1.06615 3.87293 0
M  V30 15158 N 1377.27 -0.147065 2.90228 0
M  V30 15159 H 1376.82 0.648216 2.49311 0
M  V30 15160 H 1376.77 -1.01174 2.97676 0
M  V30 15161 N 1380.55 -0.980364 1.23396 0
M  V30 15162 C 1381.77 -1.76223 1.09363 0
M  V30 15163 C 1382.2 -1.84801 -0.350759 0
M  V30 15164 O 1381.55 -1.30966 -1.2537 0
M  V30 15165 C 1381.6 -3.16728 1.72383 0
M  V30 15166 O 1380.71 -4.00439 0.986002 0
M  V30 15167 H 1380.05 -0.542174 0.383332 0
M  V30 15168 H 1382.58 -1.23066 1.6345 0
M  V30 15169 H 1382.59 -3.67307 1.77623 0
M  V30 15170 H 1381.26 -3.098 2.77483 0
M  V30 15171 H 1379.84 -3.58946 1.01054 0
M  V30 15172 N 1382.02 -1.04567 -1.17913 0
M  V30 15173 C 1382.96 -0.585519 -2.2056 0
M  V30 15174 C 1383.93 0.382581 -1.58035 0
M  V30 15175 O 1385.12 0.295692 -1.86166 0
M  V30 15176 C 1382.25 0.14396 -3.38394 0
M  V30 15177 C 1381.29 -0.778174 -4.19341 0
M  V30 15178 S 1382.12 -2.26385 -4.85294 0
M  V30 15179 C 1383.28 -1.54537 -6.06522 0
M  V30 15180 H 1383.51 -1.4552 -2.59251 0
M  V30 15181 H 1381.05 -0.857075 -1.28427 0
M  V30 15182 H 1383 0.558661 -4.06681 0
M  V30 15183 H 1381.67 0.989593 -2.98104 0
M  V30 15184 H 1380.86 -0.214053 -5.03545 0
M  V30 15185 H 1380.46 -1.13195 -3.56459 0
M  V30 15186 H 1382.75 -0.841199 -6.72257 0
M  V30 15187 H 1383.7 -2.36465 -6.6745 0
M  V30 15188 H 1384.1 -1.03551 -5.54921 0
M  V30 15189 N 1383.5 1.34231 -0.825823 0
M  V30 15190 C 1384.43 2.28261 -0.207234 0
M  V30 15191 C 1385.45 1.51159 0.604554 0
M  V30 15192 O 1386.64 1.7315 0.43376 0
M  V30 15193 C 1383.74 3.30991 0.727868 0
M  V30 15194 C 1382.91 4.3738 -0.0417267 0
M  V30 15195 C 1381.97 5.19854 0.81474 0
M  V30 15196 O 1380.99 5.68612 0.25867 0
M  V30 15197 N 1382.2 5.39849 2.1341 0
M  V30 15198 H 1384.96 2.81986 -1.0151 0
M  V30 15199 H 1382.52 1.46785 -0.683056 0
M  V30 15200 H 1384.51 3.83065 1.3055 0
M  V30 15201 H 1383.08 2.7764 1.43647 0
M  V30 15202 H 1382.3 3.85983 -0.800686 0
M  V30 15203 H 1383.59 5.05581 -0.571395 0
M  V30 15204 H 1382.99 5.01914 2.60958 0
M  V30 15205 H 1381.55 5.95029 2.66052 0
M  V30 15206 N 1384.98 0.581051 1.46498 0
M  V30 15207 C 1385.89 -0.155669 2.34083 0
M  V30 15208 C 1386.91 -0.887728 1.49651 0
M  V30 15209 O 1388.08 -0.851284 1.82524 0
M  V30 15210 C 1385.15 -1.15752 3.26806 0
M  V30 15211 C 1384.21 -0.43031 4.27138 0
M  V30 15212 C 1383.44 -1.38443 5.15431 0
M  V30 15213 O 1383.66 -2.62084 5.06624 0
M  V30 15214 O 1382.6 -0.89592 5.95195 0
M  V30 15215 H 1386.42 0.56341 2.98428 0
M  V30 15216 H 1384.01 0.341466 1.45445 0
M  V30 15217 H 1385.89 -1.73523 3.84015 0
M  V30 15218 H 1384.57 -1.85809 2.65059 0
M  V30 15219 H 1383.47 0.1892 3.73621 0
M  V30 15220 H 1384.81 0.229263 4.91666 0
M  V30 15221 N 1386.46 -1.54343 0.318742 0
M  V30 15222 C 1387.39 -2.21652 -0.583351 0
M  V30 15223 C 1388.4 -1.21494 -1.08366 0
M  V30 15224 O 1389.59 -1.4799 -0.998064 0
M  V30 15225 C 1386.69 -2.86349 -1.81266 0
M  V30 15226 C 1385.86 -4.12601 -1.45186 0
M  V30 15227 C 1384.92 -4.60937 -2.53818 0
M  V30 15228 O 1383.95 -5.25731 -2.18164 0
M  V30 15229 N 1385.15 -4.34755 -3.84667 0
M  V30 15230 H 1387.92 -2.99699 -0.00703539 0
M  V30 15231 H 1385.48 -1.61278 0.141728 0
M  V30 15232 H 1387.47 -3.15611 -2.53321 0
M  V30 15233 H 1386.04 -2.12037 -2.29693 0
M  V30 15234 H 1385.26 -3.90157 -0.563143 0
M  V30 15235 H 1386.55 -4.94774 -1.18642 0
M  V30 15236 H 1385.95 -3.82883 -4.16434 0
M  V30 15237 H 1384.5 -4.68683 -4.52967 0
M  V30 15238 N 1387.94 -0.0468143 -1.5753 0
M  V30 15239 C 1388.87 0.927092 -2.14306 0
M  V30 15240 C 1389.85 1.32745 -1.06362 0
M  V30 15241 O 1391.03 1.40293 -1.34281 0
M  V30 15242 C 1388.16 2.20343 -2.68452 0
M  V30 15243 C 1387.12 1.94328 -3.81341 0
M  V30 15244 C 1386.44 3.28379 -4.21985 0
M  V30 15245 C 1387.74 1.26835 -5.06666 0
M  V30 15246 H 1389.44 0.454199 -2.95935 0
M  V30 15247 H 1386.98 0.217029 -1.42355 0
M  V30 15248 H 1388.93 2.8887 -3.0681 0
M  V30 15249 H 1387.66 2.6983 -1.84009 0
M  V30 15250 H 1386.32 1.28214 -3.43448 0
M  V30 15251 H 1385.97 3.75658 -3.34499 0
M  V30 15252 H 1385.67 3.11772 -4.98068 0
M  V30 15253 H 1387.19 3.98145 -4.6294 0
M  V30 15254 H 1388.6 1.85389 -5.42498 0
M  V30 15255 H 1387 1.20569 -5.87863 0
M  V30 15256 H 1388.07 0.243759 -4.84287 0
M  V30 15257 N 1389.41 1.55964 0.226527 0
M  V30 15258 C 1390.66 1.77944 0.94967 0
M  V30 15259 C 1390.98 0.614478 1.85697 0
M  V30 15260 O 1392.18 0.717793 2.6184 0
M  V30 15261 C 1390.64 3.15108 1.73881 0
M  V30 15262 C 1390.25 4.39314 0.877894 0
M  V30 15263 C 1391.99 3.46418 2.45347 0
M  V30 15264 C 1389.9 5.67505 1.6641 0
M  V30 15265 H 1388.83 0.663412 0.35833 0
M  V30 15266 H 1391.48 1.82366 0.203695 0
M  V30 15267 H 1389.86 3.04849 2.52751 0
M  V30 15268 H 1391.03 4.60616 0.130089 0
M  V30 15269 H 1389.35 4.15487 0.2756 0
M  V30 15270 H 1391.95 4.39416 3.0466 0
M  V30 15271 H 1392.29 2.68685 3.17985 0
M  V30 15272 H 1392.82 3.57984 1.73471 0
M  V30 15273 H 1389.56 6.48116 0.981089 0
M  V30 15274 H 1389.08 5.50272 2.38665 0
M  V30 15275 H 1390.76 6.075 2.22605 0
M  V30 15276 N 1390.89 -0.493031 1.4969 0
M  V30 15277 C 1391.82 -1.61058 1.63074 0
M  V30 15278 C 1392.84 -1.54504 0.513069 0
M  V30 15279 O 1394.03 -1.60291 0.785431 0
M  V30 15280 C 1391.13 -2.99877 1.57883 0
M  V30 15281 C 1390.3 -3.31531 2.85317 0
M  V30 15282 C 1389.36 -4.49799 2.7307 0
M  V30 15283 O 1388.38 -4.51189 3.47012 0
M  V30 15284 N 1389.59 -5.50182 1.85148 0
M  V30 15285 H 1392.35 -1.5 2.59461 0
M  V30 15286 H 1389.91 -0.681057 1.46878 0
M  V30 15287 H 1391.9 -3.76928 1.47333 0
M  V30 15288 H 1390.47 -3.04817 0.693218 0
M  V30 15289 H 1389.69 -2.433 3.10159 0
M  V30 15290 H 1390.98 -3.49481 3.69784 0
M  V30 15291 H 1390.38 -5.51865 1.24345 0
M  V30 15292 H 1388.94 -6.26305 1.80516 0
M  V30 15293 N 1392.37 -1.38898 -0.744656 0
M  V30 15294 C 1393.33 -1.36633 -1.84022 0
M  V30 15295 C 1394.33 -0.265187 -1.58598 0
M  V30 15296 O 1395.52 -0.522569 -1.66177 0
M  V30 15297 C 1392.66 -1.12938 -3.21649 0
M  V30 15298 H 1393.85 -2.34111 -1.87435 0
M  V30 15299 H 1391.4 -1.24322 -0.947302 0
M  V30 15300 H 1392.14 -0.161027 -3.239 0
M  V30 15301 H 1391.92 -1.9267 -3.41498 0
M  V30 15302 H 1393.41 -1.14071 -4.01718 0
M  V30 15303 N 1393.85 0.973806 -1.23914 0
M  V30 15304 C 1394.78 2.07003 -0.983982 0
M  V30 15305 C 1395.79 1.62739 0.0443893 0
M  V30 15306 O 1396.98 1.77465 -0.191927 0
M  V30 15307 C 1394.08 3.35737 -0.461937 0
M  V30 15308 C 1393.26 4.08939 -1.55202 0
M  V30 15309 C 1392.31 5.15947 -1.03369 0
M  V30 15310 O 1391.34 5.42461 -1.72409 0
M  V30 15311 N 1392.54 5.80343 0.135067 0
M  V30 15312 H 1395.31 2.29468 -1.92781 0
M  V30 15313 H 1392.87 1.14098 -1.14861 0
M  V30 15314 H 1394.86 4.04576 -0.100074 0
M  V30 15315 H 1393.43 3.10189 0.387467 0
M  V30 15316 H 1392.65 3.34462 -2.08635 0
M  V30 15317 H 1393.94 4.5461 -2.2849 0
M  V30 15318 H 1393.34 5.61196 0.71241 0
M  V30 15319 H 1391.89 6.50326 0.438132 0
M  V30 15320 N 1395.33 1.05191 1.17357 0
M  V30 15321 C 1396.27 0.646796 2.23426 0
M  V30 15322 C 1397.27 -0.331918 1.66116 0
M  V30 15323 O 1398.47 -0.197982 1.78908 0
M  V30 15324 H 1394.85 0.190988 0.727343 0
M  V30 15325 H 1396.82 1.55152 2.54893 0
M  V30 15326 C 1395.57 0.037505 3.4768 0
M  V30 15327 H 1394.89 0.781686 3.92084 0
M  V30 15328 H 1396.33 -0.20858 4.23487 0
M  V30 15329 C 1394.79 -1.21581 3.14197 0
M  V30 15330 O 1395.32 -2.3052 3.28973 0
M  V30 15331 N 1393.53 -1.11346 2.68422 0
M  V30 15332 H 1393.07 -0.226943 2.56598 0
M  V30 15333 H 1393.03 -1.95291 2.46392 0
M  V30 15334 N 1396.8 -1.33791 0.83293 0
M  V30 15335 C 1398.03 -2.02187 0.439077 0
M  V30 15336 C 1398.45 -1.62692 -0.957958 0
M  V30 15337 O 1397.8 -0.837302 -1.62159 0
M  V30 15338 C 1397.86 -3.57395 0.543232 0
M  V30 15339 O 1397.58 -3.95463 1.88522 0
M  V30 15340 C 1399.08 -4.43061 0.145567 0
M  V30 15341 H 1396.3 -0.64778 0.174992 0
M  V30 15342 H 1398.84 -1.7085 1.12386 0
M  V30 15343 H 1397 -3.87287 -0.0935746 0
M  V30 15344 H 1397.41 -4.90164 1.86653 0
M  V30 15345 H 1398.88 -5.51342 0.269507 0
M  V30 15346 H 1399.36 -4.29628 -0.911934 0
M  V30 15347 H 1399.97 -4.18517 0.756572 0
M  V30 15348 N 1398.28 -0.588812 -1.46187 0
M  V30 15349 C 1399.21 0.128595 -2.33146 0
M  V30 15350 C 1400.19 0.877608 -1.45712 0
M  V30 15351 O 1401.38 0.851866 -1.74519 0
M  V30 15352 C 1398.51 1.13886 -3.28096 0
M  V30 15353 C 1397.46 0.504296 -4.25019 0
M  V30 15354 C 1396.79 1.62147 -5.09522 0
M  V30 15355 C 1398.09 -0.562466 -5.19263 0
M  V30 15356 H 1399.78 -0.597455 -2.93378 0
M  V30 15357 H 1397.33 -0.288764 -1.41075 0
M  V30 15358 H 1399.28 1.64916 -3.8779 0
M  V30 15359 H 1398.01 1.89527 -2.65983 0
M  V30 15360 H 1396.66 0.0150325 -3.66597 0
M  V30 15361 H 1396.31 2.36769 -4.4379 0
M  V30 15362 H 1396.01 1.20249 -5.75164 0
M  V30 15363 H 1397.54 2.13441 -5.7208 0
M  V30 15364 H 1398.95 -0.137003 -5.73136 0
M  V30 15365 H 1397.35 -0.902115 -5.93281 0
M  V30 15366 H 1398.42 -1.4464 -4.62825 0
M  V30 15367 N 1399.76 1.54172 -0.326923 0
M  V30 15368 C 1400.71 2.24454 0.537501 0
M  V30 15369 C 1401.68 1.23658 1.10896 0
M  V30 15370 O 1402.86 1.52348 1.14868 0
M  V30 15371 C 1400 3.00839 1.69085 0
M  V30 15372 C 1399.12 4.16459 1.1483 0
M  V30 15373 C 1398.25 4.80368 2.26761 0
M  V30 15374 C 1397.29 5.88085 1.69771 0
M  V30 15375 N 1396.43 6.45842 2.75378 0
M  V30 15376 H 1401.27 2.97921 -0.0684022 0
M  V30 15377 H 1398.8 1.4703 -0.0455287 0
M  V30 15378 H 1400.76 3.43375 2.36959 0
M  V30 15379 H 1399.39 2.297 2.26799 0
M  V30 15380 H 1398.44 3.78683 0.361004 0
M  V30 15381 H 1399.76 4.93986 0.69132 0
M  V30 15382 H 1398.91 5.25889 3.02533 0
M  V30 15383 H 1397.65 4.02228 2.75796 0
M  V30 15384 H 1396.65 5.41963 0.924985 0
M  V30 15385 H 1397.88 6.68123 1.21609 0
M  V30 15386 H 1395.82 5.70574 3.23699 0
M  V30 15387 H 1395.74 7.18792 2.34253 0
M  V30 15388 H 1397.01 6.96018 3.50969 0
M  V30 15389 N 1401.24 0.0551678 1.57503 0
M  V30 15390 C 1402.17 -0.947102 2.08717 0
M  V30 15391 C 1403.18 -1.2722 1.01582 0
M  V30 15392 O 1404.37 -1.23229 1.29139 0
M  V30 15393 C 1401.47 -2.26756 2.51863 0
M  V30 15394 C 1400.65 -2.12378 3.8238 0
M  V30 15395 C 1399.7 -3.27582 4.11797 0
M  V30 15396 O 1398.73 -3.03309 4.81656 0
M  V30 15397 N 1399.93 -4.5218 3.64024 0
M  V30 15398 H 1402.7 -0.509957 2.9533 0
M  V30 15399 H 1400.26 -0.130976 1.61369 0
M  V30 15400 H 1402.25 -3.02701 2.68616 0
M  V30 15401 H 1400.82 -2.62024 1.70477 0
M  V30 15402 H 1400.04 -1.21 3.7517 0
M  V30 15403 H 1401.33 -2.00003 4.67842 0
M  V30 15404 H 1400.73 -4.7479 3.07556 0
M  V30 15405 H 1399.28 -5.25206 3.86008 0
M  V30 15406 N 1402.72 -1.56081 -0.218252 0
M  V30 15407 C 1403.66 -1.93544 -1.2901 0
M  V30 15408 C 1404.66 -0.817886 -1.48348 0
M  V30 15409 O 1405.86 -1.00274 -1.49483 0
M  V30 15410 H 1402.24 -0.61511 -0.432601 0
M  V30 15411 H 1404.21 -2.82975 -0.946966 0
M  V30 15412 C 1402.96 -2.27134 -2.63259 0
M  V30 15413 H 1402.28 -3.12643 -2.49188 0
M  V30 15414 H 1403.72 -2.57228 -3.3706 0
M  V30 15415 C 1402.18 -1.09764 -3.18518 0
M  V30 15416 O 1402.71 -0.360501 -4.00079 0
M  V30 15417 N 1400.92 -0.880589 -2.76937 0
M  V30 15418 H 1400.46 -1.48175 -2.10718 0
M  V30 15419 H 1400.42 -0.0970234 -3.1425 0
M  V30 15420 N 1404.2 0.485086 -1.49949 0
M  V30 15421 C 1405.11 1.61089 -1.70551 0
M  V30 15422 C 1406.12 1.63752 -0.588333 0
M  V30 15423 O 1407.3 1.81879 -0.86498 0
M  V30 15424 C 1404.36 2.97382 -1.78227 0
M  V30 15425 C 1403.42 3.05219 -3.01894 0
M  V30 15426 C 1402.66 4.35011 -3.09195 0
M  V30 15427 O 1402.88 5.24722 -2.23658 0
M  V30 15428 O 1401.81 4.48151 -4.01802 0
M  V30 15429 H 1405.64 1.46633 -2.65956 0
M  V30 15430 H 1403.22 0.663091 -1.33879 0
M  V30 15431 H 1405.11 3.78356 -1.85538 0
M  V30 15432 H 1403.78 3.12066 -0.860043 0
M  V30 15433 H 1402.69 2.23373 -3.00092 0
M  V30 15434 H 1404.02 2.95467 -3.93649 0
M  V30 15435 N 1405.67 1.39291 0.737279 0
M  V30 15436 C 1406.62 1.37829 1.85127 0
M  V30 15437 C 1407.59 0.238321 1.64381 0
M  V30 15438 O 1408.78 0.433081 1.8582 0
M  V30 15439 C 1405.92 1.22531 3.22615 0
M  V30 15440 C 1405.03 2.46052 3.55081 0
M  V30 15441 C 1404.16 2.2336 4.81958 0
M  V30 15442 C 1403.2 3.42569 5.0726 0
M  V30 15443 N 1402.34 3.19209 6.2534 0
M  V30 15444 H 1407.18 2.33056 1.85712 0
M  V30 15445 H 1404.72 1.15772 0.907484 0
M  V30 15446 H 1406.67 1.11673 4.01976 0
M  V30 15447 H 1405.3 0.30934 3.21314 0
M  V30 15448 H 1404.36 2.67521 2.70438 0
M  V30 15449 H 1405.67 3.3485 3.69698 0
M  V30 15450 H 1404.82 2.09732 5.69295 0
M  V30 15451 H 1403.56 1.31953 4.6951 0
M  V30 15452 H 1402.57 3.56698 4.18386 0
M  V30 15453 H 1403.79 4.34874 5.21595 0
M  V30 15454 H 1401.74 2.30464 6.14184 0
M  V30 15455 H 1401.65 4.01562 6.40534 0
M  V30 15456 H 1402.92 3.09269 7.15523 0
M  V30 15457 N 1407.15 -0.967221 1.24429 0
M  V30 15458 C 1408.06 -2.09582 1.05417 0
M  V30 15459 C 1409.08 -1.73999 -0.00516127 0
M  V30 15460 O 1410.25 -2.00472 0.193115 0
M  V30 15461 C 1407.32 -3.40327 0.661697 0
M  V30 15462 C 1406.38 -3.89854 1.79756 0
M  V30 15463 C 1405.61 -5.1436 1.42372 0
M  V30 15464 O 1405.84 -5.69536 0.313754 0
M  V30 15465 O 1404.77 -5.58283 2.24952 0
M  V30 15466 H 1408.6 -2.28517 2.00034 0
M  V30 15467 H 1406.18 -1.07978 1.03253 0
M  V30 15468 H 1408.06 -4.18943 0.454369 0
M  V30 15469 H 1406.74 -3.22691 -0.255348 0
M  V30 15470 H 1405.64 -3.12297 2.05964 0
M  V30 15471 H 1406.98 -4.11967 2.69339 0
M  V30 15472 N 1408.63 -1.05812 -1.16797 0
M  V30 15473 C 1409.54 -0.675541 -2.24663 0
M  V30 15474 C 1410.56 0.30622 -1.71284 0
M  V30 15475 O 1411.73 0.156752 -2.00789 0
M  V30 15476 C 1408.8 -0.0627149 -3.46643 0
M  V30 15477 C 1407.86 -1.09572 -4.15081 0
M  V30 15478 C 1407.09 -0.512044 -5.31238 0
M  V30 15479 O 1407.31 0.676665 -5.66372 0
M  V30 15480 O 1406.25 -1.24936 -5.88791 0
M  V30 15481 H 1410.07 -1.57467 -2.59688 0
M  V30 15482 H 1407.66 -0.830073 -1.24218 0
M  V30 15483 H 1409.54 0.277543 -4.20485 0
M  V30 15484 H 1408.22 0.80997 -3.13403 0
M  V30 15485 H 1407.12 -1.48807 -3.4323 0
M  V30 15486 H 1408.46 -1.93977 -4.52365 0
M  V30 15487 N 1410.11 1.33347 -0.840014 0
M  V30 15488 C 1411.04 2.28029 -0.231432 0
M  V30 15489 C 1412.05 1.51792 0.588488 0
M  V30 15490 O 1413.24 1.736 0.415371 0
M  V30 15491 C 1410.34 3.31745 0.692721 0
M  V30 15492 C 1409.51 4.37311 -0.0881144 0
M  V30 15493 C 1408.57 5.20689 0.759557 0
M  V30 15494 O 1407.6 5.68854 0.198347 0
M  V30 15495 N 1408.8 5.42082 2.07672 0
M  V30 15496 H 1411.57 2.80893 -1.04495 0
M  V30 15497 H 1409.13 1.46053 -0.698586 0
M  V30 15498 H 1411.12 3.84428 1.2648 0
M  V30 15499 H 1409.69 2.79148 1.40695 0
M  V30 15500 H 1408.91 3.85112 -0.841579 0
M  V30 15501 H 1410.2 5.04947 -0.624986 0
M  V30 15502 H 1409.6 5.04654 2.55619 0
M  V30 15503 H 1408.15 5.97817 2.59726 0
M  V30 15504 N 1411.59 0.596556 1.45873 0
M  V30 15505 C 1412.52 -0.166704 2.28593 0
M  V30 15506 C 1413.53 -0.84231 1.39316 0
M  V30 15507 O 1414.72 -0.709548 1.63792 0
M  V30 15508 C 1411.82 -1.25641 3.1475 0
M  V30 15509 C 1410.99 -0.67006 4.32237 0
M  V30 15510 C 1410.05 -1.64924 4.99686 0
M  V30 15511 O 1409.08 -1.17986 5.56838 0
M  V30 15512 N 1410.28 -2.98355 4.9796 0
M  V30 15513 H 1413.04 0.543045 2.94739 0
M  V30 15514 H 1410.61 0.435274 1.55939 0
M  V30 15515 H 1412.6 -1.91104 3.56737 0
M  V30 15516 H 1411.17 -1.86883 2.50586 0
M  V30 15517 H 1410.39 0.162375 3.93865 0
M  V30 15518 H 1411.68 -0.258345 5.08144 0
M  V30 15519 H 1411.07 -3.39101 4.52799 0
M  V30 15520 H 1409.63 -3.5927 5.43846 0
M  V30 15521 N 1413.06 -1.53996 0.335095 0
M  V30 15522 C 1413.99 -2.2768 -0.518087 0
M  V30 15523 C 1414.97 -1.28915 -1.10972 0
M  V30 15524 O 1416.16 -1.57745 -1.1327 0
M  V30 15525 C 1413.29 -3.04327 -1.67339 0
M  V30 15526 C 1412.24 -4.10525 -1.2105 0
M  V30 15527 C 1411.57 -4.75078 -2.45366 0
M  V30 15528 C 1412.87 -5.21337 -0.317055 0
M  V30 15529 H 1414.56 -2.99244 0.0965669 0
M  V30 15530 H 1412.11 -1.4392 0.0478842 0
M  V30 15531 H 1414.06 -3.54608 -2.27664 0
M  V30 15532 H 1412.79 -2.30399 -2.31481 0
M  V30 15533 H 1411.45 -3.61144 -0.630124 0
M  V30 15534 H 1411.09 -3.97754 -3.07897 0
M  V30 15535 H 1410.79 -5.46822 -2.1508 0
M  V30 15536 H 1412.32 -5.2814 -3.06432 0
M  V30 15537 H 1413.73 -5.67305 -0.826905 0
M  V30 15538 H 1412.13 -6.00006 -0.106458 0
M  V30 15539 H 1413.2 -4.80536 0.649068 0
M  V30 15540 N 1414.54 -0.0635198 -1.57472 0
M  V30 15541 C 1415.47 0.93602 -2.09216 0
M  V30 15542 C 1416.49 1.2668 -1.02255 0
M  V30 15543 O 1417.68 1.22543 -1.2979 0
M  V30 15544 C 1414.78 2.25417 -2.53062 0
M  V30 15545 C 1413.95 2.10347 -3.83501 0
M  V30 15546 C 1413.01 3.25394 -4.13528 0
M  V30 15547 O 1412.03 3.00751 -4.83257 0
M  V30 15548 N 1413.24 4.50243 -3.66417 0
M  V30 15549 H 1416 0.494288 -2.95596 0
M  V30 15550 H 1413.56 0.122416 -1.61437 0
M  V30 15551 H 1415.55 3.01272 -2.70217 0
M  V30 15552 H 1414.12 2.61116 -1.71864 0
M  V30 15553 H 1413.34 1.19009 -3.75807 0
M  V30 15554 H 1414.63 1.97519 -4.68896 0
M  V30 15555 H 1414.03 4.73152 -3.1007 0
M  V30 15556 H 1412.59 5.23152 -3.88787 0
M  V30 15557 N 1416.02 1.56195 0.209972 0
M  V30 15558 C 1417.27 1.7939 0.930796 0
M  V30 15559 C 1417.59 0.634038 1.84404 0
M  V30 15560 O 1416.86 -0.348467 1.92776 0
M  V30 15561 H 1415.44 0.661676 0.346689 0
M  V30 15562 H 1418.1 1.93665 0.219049 0
M  V30 15563 H 1417.2 2.71982 1.53075 0
M  V30 15564 N 1417.5 -0.477127 1.50204 0
M  V30 15565 C 1418.45 -1.59664 1.69145 0
M  V30 15566 C 1419.44 -1.59971 0.557294 0
M  V30 15567 O 1420.65 -1.64192 0.737623 0
M  V30 15568 H 1417.02 -0.529706 0.533775 0
M  V30 15569 H 1418.99 -1.40848 2.63067 0
M  V30 15570 C 1417.74 -2.97647 1.79726 0
M  V30 15571 H 1417.06 -2.98127 2.66383 0
M  V30 15572 H 1418.5 -3.75453 1.97006 0
M  V30 15573 C 1416.96 -3.32422 0.547464 0
M  V30 15574 O 1417.49 -4.00454 -0.316115 0
M  V30 15575 N 1415.7 -2.87788 0.40328 0
M  V30 15576 H 1415.25 -2.32598 1.10706 0
M  V30 15577 H 1415.2 -3.11421 -0.431797 0
M  V30 15578 N 1418.98 -1.3968 -0.729882 0
M  V30 15579 C 1420.23 -1.36492 -1.48502 0
M  V30 15580 C 1420.54 0.0346572 -1.95569 0
M  V30 15581 O 1421.74 0.189135 -2.7084 0
M  V30 15582 C 1420.2 -2.39813 -2.68361 0
M  V30 15583 C 1419.81 -3.85511 -2.28222 0
M  V30 15584 C 1421.55 -2.45709 -3.46161 0
M  V30 15585 C 1419.46 -4.80462 -3.44834 0
M  V30 15586 H 1418.39 -0.507455 -0.557679 0
M  V30 15587 H 1421.04 -1.6535 -0.795708 0
M  V30 15588 H 1419.42 -2.04033 -3.39392 0
M  V30 15589 H 1420.6 -4.30359 -1.64704 0
M  V30 15590 H 1418.91 -3.82957 -1.63501 0
M  V30 15591 H 1421.51 -3.1384 -4.32907 0
M  V30 15592 H 1421.85 -1.48318 -3.88983 0
M  V30 15593 H 1422.38 -2.80409 -2.82163 0
M  V30 15594 H 1419.12 -5.79134 -3.07057 0
M  V30 15595 H 1418.64 -4.40289 -4.07315 0
M  V30 15596 H 1420.32 -4.99607 -4.11098 0
M  V30 15597 N 1420.45 0.960609 -1.2494 0
M  V30 15598 C 1421.4 2.07763 -1.04581 0
M  V30 15599 C 1422.4 1.69386 0.0214505 0
M  V30 15600 O 1423.6 1.79503 -0.133683 0
M  V30 15601 H 1419.98 0.679944 -0.321216 0
M  V30 15602 H 1421.95 2.22094 -1.99291 0
M  V30 15603 C 1420.7 3.41088 -0.674876 0
M  V30 15604 H 1420.02 3.71082 -1.4879 0
M  V30 15605 H 1421.46 4.20123 -0.572079 0
M  V30 15606 C 1419.92 3.31172 0.6186 0
M  V30 15607 O 1420.45 3.65688 1.66238 0
M  V30 15608 N 1418.66 2.84297 0.601984 0
M  V30 15609 H 1418.2 2.56406 -0.24778 0
M  V30 15610 H 1418.16 2.78045 1.4676 0
M  V30 15611 N 1421.93 1.0643 1.16234 0
M  V30 15612 C 1422.84 0.687446 2.24302 0
M  V30 15613 C 1423.86 -0.297132 1.71444 0
M  V30 15614 O 1425.03 -0.146101 2.00869 0
M  V30 15615 C 1422.1 0.0810973 3.46605 0
M  V30 15616 C 1421.16 1.11772 4.14494 0
M  V30 15617 C 1420.39 0.54021 5.30959 0
M  V30 15618 O 1420.62 -0.646619 5.66723 0
M  V30 15619 O 1419.55 1.28057 5.8812 0
M  V30 15620 H 1423.38 1.58842 2.58849 0
M  V30 15621 H 1420.96 0.836649 1.23776 0
M  V30 15622 H 1422.84 -0.25524 4.20626 0
M  V30 15623 H 1421.52 -0.793338 3.13828 0
M  V30 15624 H 1420.43 1.50626 3.42436 0
M  V30 15625 H 1421.76 1.96373 4.5133 0
M  V30 15626 N 1423.41 -1.329 0.847073 0
M  V30 15627 C 1424.34 -2.31546 0.301422 0
M  V30 15628 C 1425.32 -1.59342 -0.595317 0
M  V30 15629 O 1426.51 -1.87188 -0.517151 0
M  V30 15630 C 1423.64 -3.43423 -0.517454 0
M  V30 15631 C 1422.59 -4.27055 0.284195 0
M  V30 15632 C 1421.92 -5.30624 -0.658944 0
M  V30 15633 C 1423.22 -5.00123 1.50578 0
M  V30 15634 H 1424.91 -2.77433 1.12567 0
M  V30 15635 H 1422.46 -1.3338 0.542739 0
M  V30 15636 H 1424.41 -4.11467 -0.909543 0
M  V30 15637 H 1423.13 -2.96246 -1.37499 0
M  V30 15638 H 1421.79 -3.60648 0.657944 0
M  V30 15639 H 1421.44 -4.79702 -1.51311 0
M  V30 15640 H 1421.14 -5.87464 -0.12662 0
M  V30 15641 H 1422.66 -6.01533 -1.04837 0
M  V30 15642 H 1424.08 -5.6089 1.18641 0
M  V30 15643 H 1422.48 -5.66652 1.97549 0
M  V30 15644 H 1423.55 -4.28424 2.27115 0
M  V30 15645 N 1424.89 -0.604284 -1.45555 0
M  V30 15646 C 1425.84 0.116491 -2.30506 0
M  V30 15647 C 1426.81 0.863214 -1.41908 0
M  V30 15648 O 1427.99 0.849606 -1.7084 0
M  V30 15649 C 1425.13 1.11009 -3.26758 0
M  V30 15650 C 1424.24 0.36458 -4.30459 0
M  V30 15651 C 1423.38 1.34761 -5.13822 0
M  V30 15652 C 1422.42 0.589724 -6.09253 0
M  V30 15653 N 1421.55 1.52187 -6.85408 0
M  V30 15654 H 1426.39 -0.61394 -2.91607 0
M  V30 15655 H 1423.93 -0.314561 -1.43697 0
M  V30 15656 H 1425.89 1.69925 -3.81027 0
M  V30 15657 H 1424.52 1.80797 -2.67418 0
M  V30 15658 H 1423.57 -0.340026 -3.78877 0
M  V30 15659 H 1424.88 -0.226906 -4.98284 0
M  V30 15660 H 1424.04 2.00893 -5.72474 0
M  V30 15661 H 1422.78 1.97302 -4.46008 0
M  V30 15662 H 1421.78 -0.0852486 -5.49734 0
M  V30 15663 H 1423.01 -0.0306001 -6.79093 0
M  V30 15664 H 1420.95 2.13499 -6.20286 0
M  V30 15665 H 1420.87 0.983737 -7.49572 0
M  V30 15666 H 1422.14 2.17287 -7.48603 0
M  V30 15667 N 1426.37 1.53816 -0.343257 0
M  V30 15668 C 1427.3 2.22552 0.548015 0
M  V30 15669 C 1428.31 1.23202 1.06419 0
M  V30 15670 O 1429.5 1.49559 0.974394 0
M  V30 15671 C 1426.6 2.89197 1.76687 0
M  V30 15672 C 1425.77 4.14859 1.38603 0
M  V30 15673 C 1424.83 4.64917 2.46453 0
M  V30 15674 O 1423.86 5.29135 2.09773 0
M  V30 15675 N 1425.06 4.4082 3.77701 0
M  V30 15676 H 1427.83 2.99672 -0.040645 0
M  V30 15677 H 1425.39 1.61033 -0.167368 0
M  V30 15678 H 1427.38 3.19601 2.48268 0
M  V30 15679 H 1425.95 2.15664 2.26291 0
M  V30 15680 H 1425.17 3.91003 0.501001 0
M  V30 15681 H 1426.46 4.96599 1.10756 0
M  V30 15682 H 1425.85 3.8946 4.1029 0
M  V30 15683 H 1424.41 4.7583 4.45453 0
M  V30 15684 N 1427.84 0.0718701 1.57436 0
M  V30 15685 C 1429.07 -0.609701 1.98236 0
M  V30 15686 C 1429.49 -1.6235 0.949959 0
M  V30 15687 O 1428.85 -1.81103 -0.0844281 0
M  V30 15688 C 1428.9 -1.2547 3.38068 0
M  V30 15689 O 1428 -2.37055 3.37459 0
M  V30 15690 H 1427.35 -0.15679 0.645223 0
M  V30 15691 H 1429.88 0.146407 2.04076 0
M  V30 15692 H 1429.89 -1.60152 3.75254 0
M  V30 15693 H 1428.56 -0.511842 4.12738 0
M  V30 15694 H 1427.14 -2.04165 3.12043 0
M  V30 15695 N 1429.32 -1.56304 -0.201686 0
M  V30 15696 C 1430.55 -1.84692 -0.943583 0
M  V30 15697 C 1430.97 -0.654649 -1.7634 0
M  V30 15698 O 1430.33 0.396586 -1.76909 0
M  V30 15699 C 1430.38 -3.11251 -1.82085 0
M  V30 15700 O 1429.48 -2.9134 -2.91881 0
M  V30 15701 H 1428.82 -0.608351 -0.266092 0
M  V30 15702 H 1431.35 -2.0353 -0.208992 0
M  V30 15703 H 1431.36 -3.41874 -2.2268 0
M  V30 15704 H 1430.04 -3.97652 -1.21844 0
M  V30 15705 H 1428.62 -2.72 -2.55089 0
M  V30 15706 N 1430.8 0.469154 -1.50455 0
M  V30 15707 C 1431.71 1.59271 -1.7225 0
M  V30 15708 C 1432.73 1.63119 -0.605668 0
M  V30 15709 O 1433.9 1.80952 -0.884222 0
M  V30 15710 C 1430.97 2.95475 -1.81372 0
M  V30 15711 C 1430.03 3.02 -3.05114 0
M  V30 15712 C 1429.26 4.31707 -3.13791 0
M  V30 15713 O 1429.48 5.2232 -2.29211 0
M  V30 15714 O 1428.42 4.43864 -4.06532 0
M  V30 15715 H 1432.24 1.43804 -2.67496 0
M  V30 15716 H 1429.83 0.648855 -1.34574 0
M  V30 15717 H 1431.71 3.76367 -1.89541 0
M  V30 15718 H 1430.39 3.11136 -0.893094 0
M  V30 15719 H 1429.29 2.20178 -3.02444 0
M  V30 15720 H 1430.63 2.91275 -3.96761 0
M  V30 15721 N 1432.28 1.40065 0.722464 0
M  V30 15722 C 1433.21 1.35695 1.84715 0
M  V30 15723 C 1434.22 0.263522 1.60653 0
M  V30 15724 O 1435.41 0.523382 1.70655 0
M  V30 15725 C 1432.51 1.08722 3.20987 0
M  V30 15726 C 1431.69 2.29586 3.72302 0
M  V30 15727 C 1430.74 1.98879 4.87169 0
M  V30 15728 O 1429.77 2.71681 5.00178 0
M  V30 15729 N 1430.97 0.962554 5.72464 0
M  V30 15730 H 1433.74 2.32621 1.88964 0
M  V30 15731 H 1431.3 1.3433 0.903723 0
M  V30 15732 H 1433.29 0.861772 3.95418 0
M  V30 15733 H 1431.86 0.204869 3.11928 0
M  V30 15734 H 1431.08 2.68004 2.8908 0
M  V30 15735 H 1432.37 3.10176 4.03322 0
M  V30 15736 H 1431.77 0.359452 5.64557 0
M  V30 15737 H 1430.32 0.797003 6.46909 0
M  V30 15738 N 1433.76 -0.95397 1.25448 0
M  V30 15739 C 1434.7 -2.05075 1.0589 0
M  V30 15740 C 1435.67 -1.66069 -0.0321545 0
M  V30 15741 O 1436.86 -1.90389 0.125152 0
M  V30 15742 C 1434 -3.38246 0.684391 0
M  V30 15743 C 1433.11 -3.90366 1.85037 0
M  V30 15744 C 1432.25 -5.11864 1.42016 0
M  V30 15745 C 1431.29 -5.56214 2.55523 0
M  V30 15746 N 1430.42 -6.68924 2.13272 0
M  V30 15747 H 1435.26 -2.21137 1.99755 0
M  V30 15748 H 1432.8 -1.08366 0.994742 0
M  V30 15749 H 1434.76 -4.14785 0.448209 0
M  V30 15750 H 1433.39 -3.22068 -0.217273 0
M  V30 15751 H 1432.44 -3.1034 2.19984 0
M  V30 15752 H 1433.75 -4.19228 2.70276 0
M  V30 15753 H 1432.91 -5.95823 1.14366 0
M  V30 15754 H 1431.65 -4.84718 0.538492 0
M  V30 15755 H 1430.65 -4.7082 2.83916 0
M  V30 15756 H 1431.88 -5.85368 3.44268 0
M  V30 15757 H 1429.82 -6.43486 1.27523 0
M  V30 15758 H 1429.74 -6.97307 2.92059 0
M  V30 15759 H 1431.01 -7.5629 1.88801 0
M  V30 15760 N 1435.24 -1.07045 -1.15668 0
M  V30 15761 C 1436.18 -0.688004 -2.20307 0
M  V30 15762 C 1437.15 0.319081 -1.63006 0
M  V30 15763 O 1438.34 0.206239 -1.89682 0
M  V30 15764 C 1435.48 -0.0886692 -3.44986 0
M  V30 15765 C 1434.59 -1.14685 -4.16499 0
M  V30 15766 C 1433.73 -0.512852 -5.28719 0
M  V30 15767 C 1432.76 -1.55404 -5.92044 0
M  V30 15768 N 1431.9 -0.942848 -6.9574 0
M  V30 15769 H 1436.74 -1.58469 -2.52372 0
M  V30 15770 H 1434.28 -0.792184 -1.23947 0
M  V30 15771 H 1436.24 0.276415 -4.16283 0
M  V30 15772 H 1434.87 0.77139 -3.13448 0
M  V30 15773 H 1433.92 -1.62955 -3.43729 0
M  V30 15774 H 1435.23 -1.93643 -4.59678 0
M  V30 15775 H 1434.38 -0.0952274 -6.06625 0
M  V30 15776 H 1433.12 0.308524 -4.86723 0
M  V30 15777 H 1432.13 -1.98148 -5.12852 0
M  V30 15778 H 1433.35 -2.37765 -6.36117 0
M  V30 15779 H 1431.3 -0.142319 -6.55846 0
M  V30 15780 H 1431.22 -1.6697 -7.37331 0
M  V30 15781 H 1432.48 -0.550621 -7.77553 0
M  V30 15782 N 1436.71 1.32449 -0.85411 0
M  V30 15783 C 1437.66 2.2889 -0.296341 0
M  V30 15784 C 1438.63 1.55024 0.596378 0
M  V30 15785 O 1439.82 1.8325 0.531406 0
M  V30 15786 C 1436.96 3.41315 0.509729 0
M  V30 15787 C 1436.07 4.30062 -0.40872 0
M  V30 15788 C 1435.2 5.29616 0.409928 0
M  V30 15789 C 1434.24 6.10005 -0.505953 0
M  V30 15790 N 1433.38 7.01559 0.275483 0
M  V30 15791 H 1438.22 2.75989 -1.12401 0
M  V30 15792 H 1435.76 1.35787 -0.565717 0
M  V30 15793 H 1437.71 4.05218 0.992697 0
M  V30 15794 H 1436.34 2.95367 1.30223 0
M  V30 15795 H 1435.4 3.66745 -1.01007 0
M  V30 15796 H 1436.71 4.86255 -1.11165 0
M  V30 15797 H 1435.86 5.99119 0.956083 0
M  V30 15798 H 1434.6 4.74039 1.14623 0
M  V30 15799 H 1433.61 5.39406 -1.064 0
M  V30 15800 H 1434.83 6.67667 -1.24086 0
M  V30 15801 H 1432.78 6.48412 0.994887 0
M  V30 15802 H 1432.69 7.55102 -0.368426 0
M  V30 15803 H 1433.96 7.75349 0.803382 0
M  V30 15804 N 1438.19 0.611994 1.45232 0
M  V30 15805 C 1439.12 -0.142449 2.28757 0
M  V30 15806 C 1440.14 -0.827486 1.40202 0
M  V30 15807 O 1441.33 -0.692136 1.64535 0
M  V30 15808 C 1438.43 -1.22296 3.16065 0
M  V30 15809 C 1437.6 -0.624178 4.32924 0
M  V30 15810 C 1436.66 -1.59615 5.01408 0
M  V30 15811 O 1435.68 -1.12073 5.58058 0
M  V30 15812 N 1436.89 -2.93057 5.01097 0
M  V30 15813 H 1439.65 0.574276 2.94147 0
M  V30 15814 H 1437.21 0.451789 1.55469 0
M  V30 15815 H 1439.2 -1.87309 3.58744 0
M  V30 15816 H 1437.77 -1.84215 2.52554 0
M  V30 15817 H 1436.99 0.204141 3.93671 0
M  V30 15818 H 1438.28 -0.204435 5.08389 0
M  V30 15819 H 1437.68 -3.3428 4.5637 0
M  V30 15820 H 1436.24 -3.53481 5.47626 0
M  V30 15821 N 1439.67 -1.53632 0.351409 0
M  V30 15822 C 1440.92 -2.00222 -0.243731 0
M  V30 15823 C 1441.23 -1.24305 -1.51022 0
M  V30 15824 O 1442.44 -1.61411 -2.18309 0
M  V30 15825 C 1440.89 -3.56619 -0.48487 0
M  V30 15826 C 1440.5 -4.414 0.766173 0
M  V30 15827 C 1442.25 -4.11603 -1.03844 0
M  V30 15828 C 1440.15 -5.89321 0.4954 0
M  V30 15829 H 1439.08 -0.74801 -0.0948534 0
M  V30 15830 H 1441.73 -1.77433 0.467957 0
M  V30 15831 H 1440.12 -3.75505 -1.25746 0
M  V30 15832 H 1441.29 -4.34288 1.54047 0
M  V30 15833 H 1439.6 -3.97448 1.24194 0
M  V30 15834 H 1442.2 -5.19736 -1.25611 0
M  V30 15835 H 1442.54 -3.65311 -1.99634 0
M  V30 15836 H 1443.08 -3.96459 -0.326363 0
M  V30 15837 H 1439.82 -6.39863 1.42324 0
M  V30 15838 H 1439.34 -5.99317 -0.240662 0
M  V30 15839 H 1441.02 -6.46897 0.115584 0
M  V30 15840 N 1441.15 -0.0802183 -1.57396 0
M  V30 15841 C 1442.06 0.898597 -2.16708 0
M  V30 15842 C 1443.07 1.321 -1.1325 0
M  V30 15843 O 1444.25 1.39197 -1.45554 0
M  V30 15844 C 1441.31 2.14501 -2.72379 0
M  V30 15845 C 1440.38 1.77822 -3.9074 0
M  V30 15846 C 1439.61 2.96521 -4.43747 0
M  V30 15847 O 1439.83 4.10797 -3.9573 0
M  V30 15848 O 1438.77 2.75849 -5.34968 0
M  V30 15849 H 1442.59 0.424027 -3.00725 0
M  V30 15850 H 1440.18 0.14332 -1.48711 0
M  V30 15851 H 1442.06 2.87575 -3.08024 0
M  V30 15852 H 1440.73 2.61039 -1.91416 0
M  V30 15853 H 1439.64 1.01974 -3.59934 0
M  V30 15854 H 1440.97 1.36059 -4.73021 0
M  V30 15855 N 1442.63 1.56409 0.193394 0
M  V30 15856 C 1443.59 1.93822 1.22334 0
M  V30 15857 C 1444.59 0.819513 1.3835 0
M  V30 15858 O 1445.78 1.0869 1.36132 0
M  V30 15859 C 1442.91 2.21375 2.59241 0
M  V30 15860 H 1444.1 2.85967 0.903502 0
M  V30 15861 H 1441.66 1.50125 0.43498 0
M  V30 15862 H 1442.39 1.31874 2.96277 0
M  V30 15863 H 1442.18 3.02899 2.48988 0
M  V30 15864 H 1443.67 2.51319 3.33509 0
M  V30 15865 N 1444.1 -0.461169 1.50702 0
M  V30 15866 C 1445.03 -1.56576 1.73223 0
M  V30 15867 C 1446.01 -1.59855 0.581401 0
M  V30 15868 O 1447.2 -1.75964 0.821602 0
M  V30 15869 C 1444.33 -2.94835 1.83548 0
M  V30 15870 C 1443.28 -3.06421 2.98815 0
M  V30 15871 C 1442.61 -4.46425 2.94293 0
M  V30 15872 C 1443.91 -2.82714 4.3917 0
M  V30 15873 H 1445.6 -1.37982 2.65709 0
M  V30 15874 H 1443.15 -0.662362 1.27862 0
M  V30 15875 H 1445.1 -3.72047 1.97887 0
M  V30 15876 H 1443.83 -3.14608 0.876906 0
M  V30 15877 H 1442.49 -2.31644 2.84142 0
M  V30 15878 H 1442.13 -4.63131 1.96262 0
M  V30 15879 H 1441.83 -4.55111 3.71682 0
M  V30 15880 H 1443.36 -5.25644 3.10695 0
M  V30 15881 H 1444.77 -3.4967 4.54317 0
M  V30 15882 H 1443.17 -3.02835 5.18084 0
M  V30 15883 H 1444.24 -1.78492 4.50853 0
M  V30 15884 N 1445.58 -1.40446 -0.715026 0
M  V30 15885 C 1446.51 -1.36673 -1.83993 0
M  V30 15886 C 1447.53 -0.272038 -1.60511 0
M  V30 15887 O 1448.72 -0.532425 -1.70375 0
M  V30 15888 C 1445.82 -1.10423 -3.20406 0
M  V30 15889 C 1444.99 -2.31557 -3.71079 0
M  V30 15890 C 1444.05 -2.01459 -4.86108 0
M  V30 15891 O 1443.07 -2.7433 -4.9873 0
M  V30 15892 N 1444.28 -0.992899 -5.71946 0
M  V30 15893 H 1447.04 -2.3362 -1.87728 0
M  V30 15894 H 1444.6 -1.34807 -0.896586 0
M  V30 15895 H 1446.59 -0.88273 -3.94956 0
M  V30 15896 H 1445.16 -0.221408 -3.11815 0
M  V30 15897 H 1444.38 -2.69534 -2.87655 0
M  V30 15898 H 1445.67 -3.1231 -4.01671 0
M  V30 15899 H 1445.07 -0.389387 -5.64358 0
M  V30 15900 H 1443.63 -0.831299 -6.46477 0
M  V30 15901 N 1447.06 0.947303 -1.25952 0
M  V30 15902 C 1448.31 1.68945 -1.10915 0
M  V30 15903 C 1448.63 1.91848 0.349216 0
M  V30 15904 O 1447.9 1.5108 1.24706 0
M  V30 15905 H 1446.48 0.626086 -0.407462 0
M  V30 15906 H 1449.14 1.13854 -1.58187 0
M  V30 15907 H 1448.24 2.6657 -1.62317 0
M  V30 15908 N 1448.54 1.07657 1.15099 0
M  V30 15909 C 1449.45 0.711198 2.2356 0
M  V30 15910 C 1450.46 -0.278932 1.7175 0
M  V30 15911 O 1451.64 -0.124788 2.01013 0
M  V30 15912 C 1448.71 0.117855 3.465 0
M  V30 15913 C 1447.77 1.16162 4.13286 0
M  V30 15914 C 1447 0.596494 5.30356 0
M  V30 15915 O 1447.22 -0.586474 5.67377 0
M  V30 15916 O 1446.16 1.34288 5.86729 0
M  V30 15917 H 1449.98 1.61578 2.5715 0
M  V30 15918 H 1447.57 0.84973 1.22882 0
M  V30 15919 H 1449.45 -0.210613 4.20873 0
M  V30 15920 H 1448.12 -0.760008 3.14652 0
M  V30 15921 H 1447.03 1.54249 3.4082 0
M  V30 15922 H 1448.36 2.01149 4.49221 0
M  V30 15923 N 1450.02 -1.31994 0.861122 0
M  V30 15924 C 1450.95 -2.31214 0.325963 0
M  V30 15925 C 1451.93 -1.59965 -0.578383 0
M  V30 15926 O 1453.11 -1.87726 -0.497268 0
M  V30 15927 C 1450.24 -3.43953 -0.481001 0
M  V30 15928 C 1449.2 -4.2673 0.329474 0
M  V30 15929 C 1448.52 -5.31293 -0.602627 0
M  V30 15930 C 1449.82 -4.98498 1.55874 0
M  V30 15931 H 1451.52 -2.76223 1.15503 0
M  V30 15932 H 1449.06 -1.32797 0.556856 0
M  V30 15933 H 1451.02 -4.12409 -0.86585 0
M  V30 15934 H 1449.74 -2.97687 -1.3435 0
M  V30 15935 H 1448.4 -3.59929 0.696159 0
M  V30 15936 H 1448.05 -4.8128 -1.46215 0
M  V30 15937 H 1447.75 -5.87565 -0.0643044 0
M  V30 15938 H 1449.27 -6.02611 -0.984512 0
M  V30 15939 H 1450.68 -5.596 1.24583 0
M  V30 15940 H 1449.08 -5.64525 2.03548 0
M  V30 15941 H 1450.15 -4.25991 2.31646 0
M  V30 15942 N 1451.49 -0.619688 -1.44906 0
M  V30 15943 C 1452.44 0.0920359 -2.30616 0
M  V30 15944 C 1453.41 0.848114 -1.42815 0
M  V30 15945 O 1454.6 0.831439 -1.71732 0
M  V30 15946 C 1451.74 1.07537 -3.27917 0
M  V30 15947 C 1450.85 0.318904 -4.30821 0
M  V30 15948 C 1449.98 1.29303 -5.15222 0
M  V30 15949 C 1449.02 0.525071 -6.09844 0
M  V30 15950 N 1448.16 1.44909 -6.86983 0
M  V30 15951 H 1453 -0.644834 -2.9094 0
M  V30 15952 H 1450.54 -0.329785 -1.43356 0
M  V30 15953 H 1452.5 1.65874 -3.82808 0
M  V30 15954 H 1451.13 1.7795 -2.6932 0
M  V30 15955 H 1450.18 -0.380192 -3.78495 0
M  V30 15956 H 1451.49 -0.279742 -4.98015 0
M  V30 15957 H 1450.64 1.94809 -5.74573 0
M  V30 15958 H 1449.38 1.92561 -4.48076 0
M  V30 15959 H 1448.39 -0.14355 -5.49613 0
M  V30 15960 H 1449.61 -0.102625 -6.79022 0
M  V30 15961 H 1447.56 2.06908 -6.22515 0
M  V30 15962 H 1447.48 0.90418 -7.50574 0
M  V30 15963 H 1448.74 2.09335 -7.50866 0
M  V30 15964 N 1452.97 1.53444 -0.359552 0
M  V30 15965 C 1454.22 2.00348 0.233109 0
M  V30 15966 C 1454.53 1.25104 1.50361 0
M  V30 15967 O 1455.74 1.62566 2.1745 0
M  V30 15968 C 1454.2 3.56871 0.465951 0
M  V30 15969 C 1453.8 4.40987 -0.789571 0
M  V30 15970 C 1455.55 4.12148 1.0166 0
M  V30 15971 C 1453.46 5.8905 -0.526646 0
M  V30 15972 H 1452.39 0.748502 0.0908851 0
M  V30 15973 H 1455.04 1.77182 -0.47736 0
M  V30 15974 H 1453.42 3.76167 1.23753 0
M  V30 15975 H 1454.59 4.33465 -1.56348 0
M  V30 15976 H 1452.91 3.96784 -1.263 0
M  V30 15977 H 1455.5 5.20395 1.22853 0
M  V30 15978 H 1455.85 3.66364 1.97694 0
M  V30 15979 H 1456.38 3.96626 0.305334 0
M  V30 15980 H 1453.12 6.39099 -1.45715 0
M  V30 15981 H 1452.64 5.99436 0.208875 0
M  V30 15982 H 1454.32 6.46826 -0.149889 0
M  V30 15983 N 1454.45 0.0885642 1.57351 0
M  V30 15984 C 1455.41 -0.858178 2.12528 0
M  V30 15985 C 1456.41 -1.21522 1.05304 0
M  V30 15986 O 1457.6 -1.14573 1.3122 0
M  V30 15987 C 1454.74 -2.15619 2.64048 0
M  V30 15988 H 1455.93 -0.37918 2.97493 0
M  V30 15989 H 1453.48 -0.160354 1.55475 0
M  V30 15990 H 1454.22 -2.68018 1.82584 0
M  V30 15991 H 1454 -1.90995 3.42437 0
M  V30 15992 H 1455.49 -2.83359 3.06753 0
M  V30 15993 N 1455.93 -1.56509 -0.185096 0
M  V30 15994 C 1457.17 -1.81474 -0.905263 0
M  V30 15995 C 1457.51 -0.664225 -1.82488 0
M  V30 15996 O 1456.78 0.33466 -1.91599 0
M  V30 15997 C 1457.07 -3.16754 -1.71287 0
M  V30 15998 C 1456.92 -4.42312 -0.817302 0
M  V30 15999 C 1458.24 -3.48828 -2.68342 0
M  V30 16000 H 1455.36 -0.660155 -0.327664 0
M  V30 16001 H 1458 -1.89219 -0.172129 0
M  V30 16002 H 1456.15 -3.10282 -2.33789 0
M  V30 16003 H 1457.82 -4.60839 -0.206218 0
M  V30 16004 H 1456.06 -4.33621 -0.124564 0
M  V30 16005 H 1456.73 -5.33487 -1.41758 0
M  V30 16006 H 1459.21 -3.55663 -2.15969 0
M  V30 16007 H 1458.09 -4.44585 -3.21924 0
M  V30 16008 H 1458.35 -2.72829 -3.47875 0
M  V30 16009 N 1457.41 0.45317 -1.50944 0
M  V30 16010 C 1458.34 1.55655 -1.74051 0
M  V30 16011 C 1459.32 1.59545 -0.58987 0
M  V30 16012 O 1460.5 1.75526 -0.830922 0
M  V30 16013 C 1457.63 2.93857 -1.85109 0
M  V30 16014 C 1456.59 3.04832 -3.00435 0
M  V30 16015 C 1455.91 4.44858 -2.96657 0
M  V30 16016 C 1457.21 2.80381 -4.40663 0
M  V30 16017 H 1458.91 1.36571 -2.66437 0
M  V30 16018 H 1456.45 0.655572 -1.28212 0
M  V30 16019 H 1458.41 3.70992 -1.99857 0
M  V30 16020 H 1457.13 3.14138 -0.893579 0
M  V30 16021 H 1455.79 2.30134 -2.85366 0
M  V30 16022 H 1455.44 4.62083 -1.98716 0
M  V30 16023 H 1455.14 4.53134 -3.7409 0
M  V30 16024 H 1456.66 5.23989 -3.13478 0
M  V30 16025 H 1458.07 3.47255 -4.56165 0
M  V30 16026 H 1456.47 3.00083 -5.19683 0
M  V30 16027 H 1457.54 1.76099 -4.51793 0
M  V30 16028 N 1458.88 1.40823 0.707568 0
M  V30 16029 C 1459.82 1.37646 1.83265 0
M  V30 16030 C 1460.83 0.280547 1.60365 0
M  V30 16031 O 1462.02 0.541453 1.7009 0
M  V30 16032 C 1459.12 1.12121 3.19816 0
M  V30 16033 C 1458.29 2.33522 3.69846 0
M  V30 16034 C 1457.35 2.04035 4.85032 0
M  V30 16035 O 1456.38 2.76971 4.97268 0
M  V30 16036 N 1457.58 1.02322 5.71411 0
M  V30 16037 H 1460.34 2.34612 1.86486 0
M  V30 16038 H 1457.9 1.35281 0.889424 0
M  V30 16039 H 1459.9 0.903663 3.94482 0
M  V30 16040 H 1458.47 0.237941 3.11693 0
M  V30 16041 H 1457.69 2.71055 2.86221 0
M  V30 16042 H 1458.97 3.14436 4.00009 0
M  V30 16043 H 1458.37 0.419311 5.64144 0
M  V30 16044 H 1456.93 0.865571 6.46027 0
M  V30 16045 N 1460.36 -0.94061 1.26453 0
M  V30 16046 C 1461.31 -2.03941 1.08059 0
M  V30 16047 C 1462.28 -1.66094 -0.0145388 0
M  V30 16048 O 1463.46 -1.90246 0.145338 0
M  V30 16049 C 1460.6 -3.37501 0.720228 0
M  V30 16050 C 1459.72 -3.88381 1.89167 0
M  V30 16051 C 1458.85 -5.10329 1.47437 0
M  V30 16052 C 1457.89 -5.53473 2.61408 0
M  V30 16053 N 1457.03 -6.66624 2.20355 0
M  V30 16054 H 1461.87 -2.19006 2.0209 0
M  V30 16055 H 1459.41 -1.07305 1.00618 0
M  V30 16056 H 1461.36 -4.14287 0.492177 0
M  V30 16057 H 1459.99 -3.2228 -0.183101 0
M  V30 16058 H 1459.05 -3.0799 2.23264 0
M  V30 16059 H 1460.36 -4.16338 2.74708 0
M  V30 16060 H 1459.51 -5.94577 1.20679 0
M  V30 16061 H 1458.25 -4.8412 0.589873 0
M  V30 16062 H 1457.26 -4.67782 2.88894 0
M  V30 16063 H 1458.48 -5.81684 3.50458 0
M  V30 16064 H 1456.43 -6.42097 1.34341 0
M  V30 16065 H 1456.34 -6.9417 2.99439 0
M  V30 16066 H 1457.61 -7.54245 1.96811 0
M  V30 16067 N 1461.84 -1.08266 -1.14527 0
M  V30 16068 C 1463.07 -0.83288 -1.89396 0
M  V30 16069 C 1463.48 0.614823 -1.78509 0
M  V30 16070 O 1462.84 1.42239 -1.14343 0
M  V30 16071 C 1462.89 -1.244 -3.39421 0
M  V30 16072 O 1462.61 -2.63491 -3.50006 0
M  V30 16073 C 1464.11 -1.02488 -4.3129 0
M  V30 16074 H 1461.33 -0.300474 -0.599964 0
M  V30 16075 H 1463.88 -1.44155 -1.4505 0
M  V30 16076 H 1462.03 -0.679466 -3.81395 0
M  V30 16077 H 1462.45 -2.80517 -4.43182 0
M  V30 16078 H 1463.92 -1.36194 -5.34935 0
M  V30 16079 H 1464.4 0.0381961 -4.39183 0
M  V30 16080 H 1465 -1.57477 -3.95071 0
M  V30 16081 N 1463.32 1.31536 -0.86811 0
M  V30 16082 C 1464.23 2.32326 -0.32588 0
M  V30 16083 C 1465.25 1.64632 0.563243 0
M  V30 16084 O 1466.42 1.96067 0.460403 0
M  V30 16085 C 1463.49 3.43562 0.46539 0
M  V30 16086 C 1462.55 4.26919 -0.451472 0
M  V30 16087 C 1461.78 5.32844 0.302129 0
M  V30 16088 O 1462 5.49485 1.53045 0
M  V30 16089 O 1460.94 6.00944 -0.339048 0
M  V30 16090 H 1464.76 2.80622 -1.16126 0
M  V30 16091 H 1462.35 1.35401 -0.631428 0
M  V30 16092 H 1464.23 4.11368 0.914028 0
M  V30 16093 H 1462.91 2.97432 1.27734 0
M  V30 16094 H 1461.81 3.61874 -0.948571 0
M  V30 16095 H 1463.15 4.7661 -1.22897 0
M  V30 16096 N 1464.8 0.627364 1.44575 0
M  V30 16097 C 1465.73 -0.066735 2.33405 0
M  V30 16098 C 1466.71 -0.838666 1.47988 0
M  V30 16099 O 1467.89 -0.805296 1.76716 0
M  V30 16100 C 1465.02 -1.05148 3.31 0
M  V30 16101 C 1463.98 -0.391433 4.26206 0
M  V30 16102 C 1463.3 -1.48581 5.13642 0
M  V30 16103 C 1464.6 0.699942 5.17589 0
M  V30 16104 H 1466.3 0.675029 2.91691 0
M  V30 16105 H 1463.84 0.326066 1.4026 0
M  V30 16106 H 1465.8 -1.54576 3.92026 0
M  V30 16107 H 1464.52 -1.82408 2.70915 0
M  V30 16108 H 1463.18 0.0821694 3.66508 0
M  V30 16109 H 1462.83 -2.2492 4.49911 0
M  V30 16110 H 1462.53 -1.04957 5.7815 0
M  V30 16111 H 1464.05 -1.98198 5.77538 0
M  V30 16112 H 1465.47 0.288911 5.72572 0
M  V30 16113 H 1463.86 1.0591 5.9068 0
M  V30 16114 H 1464.93 1.5686 4.58828 0
M  V30 16115 N 1466.28 -1.53251 0.367684 0
M  V30 16116 C 1467.19 -2.29518 -0.485669 0
M  V30 16117 C 1468.2 -1.35568 -1.09075 0
M  V30 16118 O 1469.38 -1.68626 -1.10124 0
M  V30 16119 C 1466.44 -3.07115 -1.60876 0
M  V30 16120 C 1465.5 -4.16736 -1.031 0
M  V30 16121 C 1464.74 -4.90624 -2.10056 0
M  V30 16122 O 1464.96 -4.64393 -3.31203 0
M  V30 16123 O 1463.89 -5.76503 -1.72996 0
M  V30 16124 H 1467.72 -3.034 0.135017 0
M  V30 16125 H 1465.3 -1.48816 0.132005 0
M  V30 16126 H 1467.19 -3.55564 -2.26168 0
M  V30 16127 H 1465.86 -2.36068 -2.21481 0
M  V30 16128 H 1464.77 -3.72534 -0.341928 0
M  V30 16129 H 1466.1 -4.89956 -0.469473 0
M  V30 16130 N 1467.75 -0.0969077 -1.57302 0
M  V30 16131 C 1468.7 0.878876 -2.15357 0
M  V30 16132 C 1469.7 1.29091 -1.0969 0
M  V30 16133 O 1470.9 1.26523 -1.28031 0
M  V30 16134 H 1467.28 0.301458 -0.688932 0
M  V30 16135 H 1469.25 0.364542 -2.96165 0
M  V30 16136 C 1468 2.12761 -2.75006 0
M  V30 16137 H 1467.32 1.81944 -3.56 0
M  V30 16138 H 1468.76 2.79092 -3.19193 0
M  V30 16139 C 1467.22 2.90283 -1.70989 0
M  V30 16140 O 1467.75 3.84889 -1.14992 0
M  V30 16141 N 1465.95 2.53857 -1.41439 0
M  V30 16142 H 1465.5 1.76993 -1.87166 0
M  V30 16143 H 1465.46 3.06025 -0.720816 0
M  V30 16144 N 1469.23 1.56605 0.176793 0
M  V30 16145 C 1470.18 1.95985 1.21896 0
M  V30 16146 C 1471.15 0.822983 1.44278 0
M  V30 16147 O 1472.33 1.08266 1.57109 0
M  V30 16148 C 1469.47 2.32029 2.55454 0
M  V30 16149 C 1468.59 3.58867 2.40497 0
M  V30 16150 C 1467.72 3.84148 3.66884 0
M  V30 16151 C 1466.76 5.04352 3.46837 0
M  V30 16152 N 1465.9 5.25794 4.6528 0
M  V30 16153 H 1470.74 2.84829 0.876137 0
M  V30 16154 H 1468.27 1.4094 0.421221 0
M  V30 16155 H 1470.23 2.50947 3.33289 0
M  V30 16156 H 1468.86 1.46301 2.87743 0
M  V30 16157 H 1467.91 3.47893 1.53866 0
M  V30 16158 H 1469.23 4.46859 2.21627 0
M  V30 16159 H 1468.38 4.03404 4.53155 0
M  V30 16160 H 1467.12 2.9452 3.88727 0
M  V30 16161 H 1466.12 4.84999 2.58952 0
M  V30 16162 H 1467.35 5.95505 3.26421 0
M  V30 16163 H 1465.3 4.39117 4.87352 0
M  V30 16164 H 1465.21 6.07999 4.49303 0
M  V30 16165 H 1466.48 5.49524 5.5285 0
M  V30 16166 N 1470.71 -0.445159 1.51182 0
M  V30 16167 C 1471.64 -1.5473 1.74874 0
M  V30 16168 C 1472.62 -1.5923 0.598323 0
M  V30 16169 O 1473.81 -1.75083 0.840219 0
M  V30 16170 C 1470.94 -2.92872 1.86664 0
M  V30 16171 C 1469.89 -3.03235 3.02048 0
M  V30 16172 C 1469.22 -4.43279 2.99012 0
M  V30 16173 C 1470.52 -2.7804 4.42144 0
M  V30 16174 H 1472.21 -1.35156 2.67158 0
M  V30 16175 H 1469.76 -0.648763 1.28558 0
M  V30 16176 H 1471.71 -3.69927 2.01822 0
M  V30 16177 H 1470.43 -3.1366 0.910225 0
M  V30 16178 H 1469.09 -2.28617 2.86583 0
M  V30 16179 H 1468.74 -4.61023 2.01163 0
M  V30 16180 H 1468.44 -4.51144 3.76488 0
M  V30 16181 H 1469.96 -5.22319 3.16252 0
M  V30 16182 H 1471.38 -3.44831 4.58 0
M  V30 16183 H 1469.77 -2.97323 5.21267 0
M  V30 16184 H 1470.84 -1.737 4.52721 0
M  V30 16185 N 1472.19 -1.41197 -0.700089 0
M  V30 16186 C 1473.12 -1.38616 -1.82533 0
M  V30 16187 C 1474.13 -0.289047 -1.60213 0
M  V30 16188 O 1475.32 -0.550465 -1.698 0
M  V30 16189 C 1472.42 -1.13815 -3.19217 0
M  V30 16190 C 1471.59 -2.3548 -3.68603 0
M  V30 16191 C 1470.65 -2.06604 -4.83943 0
M  V30 16192 O 1469.68 -2.79604 -4.95792 0
M  V30 16193 N 1470.88 -1.05351 -5.7086 0
M  V30 16194 H 1473.65 -2.35598 -1.8524 0
M  V30 16195 H 1471.21 -1.3575 -0.882238 0
M  V30 16196 H 1473.2 -0.924571 -3.93997 0
M  V30 16197 H 1471.77 -0.254468 -3.11563 0
M  V30 16198 H 1470.99 -2.72569 -2.8478 0
M  V30 16199 H 1472.28 -3.16553 -3.98336 0
M  V30 16200 H 1471.68 -0.449223 -5.63914 0
M  V30 16201 H 1470.23 -0.899819 -6.45559 0
M  V30 16202 N 1473.67 0.933891 -1.2695 0
M  V30 16203 C 1474.6 2.03768 -1.04934 0
M  V30 16204 C 1475.61 1.62798 -0.00740752 0
M  V30 16205 O 1476.8 1.76765 -0.248289 0
M  V30 16206 C 1473.9 3.34097 -0.568515 0
M  V30 16207 C 1473.07 4.03794 -1.68133 0
M  V30 16208 C 1472.13 5.12397 -1.19731 0
M  V30 16209 O 1471.16 5.36701 -1.89579 0
M  V30 16210 N 1472.36 5.80479 -0.0496327 0
M  V30 16211 H 1475.12 2.23219 -1.99984 0
M  V30 16212 H 1472.69 1.10386 -1.18433 0
M  V30 16213 H 1474.68 4.04053 -0.228736 0
M  V30 16214 H 1473.25 3.11265 0.288587 0
M  V30 16215 H 1472.47 3.27655 -2.1917 0
M  V30 16216 H 1473.76 4.4711 -2.42837 0
M  V30 16217 H 1473.15 5.63179 0.533509 0
M  V30 16218 H 1471.71 6.5139 0.231014 0
M  V30 16219 N 1475.14 1.08871 1.13951 0
M  V30 16220 C 1476.08 0.680849 2.18854 0
M  V30 16221 C 1477.09 -0.274456 1.6047 0
M  V30 16222 O 1478.28 -0.0613804 1.78394 0
M  V30 16223 C 1475.38 -0.0182788 3.38895 0
M  V30 16224 C 1474.55 0.957125 4.268 0
M  V30 16225 C 1473.61 0.29245 5.25387 0
M  V30 16226 O 1472.64 0.938329 5.61413 0
M  V30 16227 N 1473.84 -0.955738 5.72578 0
M  V30 16228 H 1476.6 1.58334 2.54461 0
M  V30 16229 H 1474.16 0.975417 1.29218 0
M  V30 16230 H 1476.16 -0.474001 4.01915 0
M  V30 16231 H 1474.73 -0.822932 3.01574 0
M  V30 16232 H 1473.95 1.59156 3.60642 0
M  V30 16233 H 1475.23 1.61792 4.82391 0
M  V30 16234 H 1474.63 -1.50014 5.45447 0
M  V30 16235 H 1473.19 -1.35488 6.37563 0
M  V30 16236 N 1476.62 -1.31073 0.875073 0
M  V30 16237 C 1477.55 -2.30855 0.350468 0
M  V30 16238 C 1478.53 -1.60569 -0.561384 0
M  V30 16239 O 1479.72 -1.88242 -0.477329 0
M  V30 16240 C 1476.85 -3.44444 -0.444493 0
M  V30 16241 C 1475.8 -4.26357 0.374716 0
M  V30 16242 C 1475.13 -5.31903 -0.546243 0
M  V30 16243 C 1476.43 -4.96817 1.61153 0
M  V30 16244 H 1478.12 -2.74983 1.18427 0
M  V30 16245 H 1475.67 -1.32199 0.570909 0
M  V30 16246 H 1477.62 -4.13304 -0.82206 0
M  V30 16247 H 1476.34 -2.99096 -1.31185 0
M  V30 16248 H 1475 -3.59171 0.734295 0
M  V30 16249 H 1474.65 -4.82803 -1.41102 0
M  V30 16250 H 1474.35 -5.876 -0.00198173 0
M  V30 16251 H 1475.88 -6.03621 -0.920542 0
M  V30 16252 H 1477.29 -5.58247 1.30511 0
M  V30 16253 H 1475.69 -5.62334 2.09524 0
M  V30 16254 H 1476.76 -4.2351 2.36151 0
M  V30 16255 N 1478.1 -0.635022 -1.4424 0
M  V30 16256 C 1479.33 -0.14826 -2.06368 0
M  V30 16257 C 1479.74 1.17875 -1.47482 0
M  V30 16258 O 1479.1 1.72384 -0.599168 0
M  V30 16259 C 1479.15 -0.031519 -3.61486 0
M  V30 16260 O 1478.87 -1.30605 -4.18179 0
M  V30 16261 C 1480.37 0.483479 -4.40656 0
M  V30 16262 H 1477.59 -0.081472 -0.666036 0
M  V30 16263 H 1480.14 -0.870526 -1.85046 0
M  V30 16264 H 1478.29 0.641208 -3.82057 0
M  V30 16265 H 1478.71 -1.15341 -5.11661 0
M  V30 16266 H 1480.18 0.514164 -5.496 0
M  V30 16267 H 1480.66 1.51129 -4.12379 0
M  V30 16268 H 1481.26 -0.156131 -4.25013 0
M  V30 16269 N 1479.58 1.53054 -0.375806 0
M  V30 16270 C 1480.51 2.23664 0.500685 0
M  V30 16271 C 1481.52 1.25432 1.03782 0
M  V30 16272 O 1482.71 1.51592 0.942451 0
M  V30 16273 C 1479.81 2.9288 1.70513 0
M  V30 16274 C 1478.99 4.17706 1.29772 0
M  V30 16275 C 1478.04 4.7004 2.36536 0
M  V30 16276 O 1477.07 5.33466 1.98502 0
M  V30 16277 N 1478.27 4.48732 3.68266 0
M  V30 16278 H 1481.04 2.99519 -0.104201 0
M  V30 16279 H 1478.6 1.60641 -0.201488 0
M  V30 16280 H 1480.59 3.24795 2.41433 0
M  V30 16281 H 1479.16 2.20416 2.21665 0
M  V30 16282 H 1478.38 3.91978 0.41795 0
M  V30 16283 H 1479.67 4.98837 1.00197 0
M  V30 16284 H 1479.07 3.98075 4.01936 0
M  V30 16285 H 1477.62 4.85172 4.3526 0
M  V30 16286 N 1481.06 0.105248 1.57248 0
M  V30 16287 C 1482.02 -0.835589 2.13426 0
M  V30 16288 C 1483.02 -1.20398 1.06587 0
M  V30 16289 O 1484.21 -1.13175 1.32428 0
M  V30 16290 C 1481.34 -2.12806 2.6632 0
M  V30 16291 H 1482.53 -0.347606 2.97879 0
M  V30 16292 H 1480.09 -0.143855 1.55637 0
M  V30 16293 H 1480.82 -2.66066 1.85416 0
M  V30 16294 H 1480.61 -1.87352 3.44444 0
M  V30 16295 H 1482.1 -2.80089 3.09741 0
M  V30 16296 N 1482.53 -1.56697 -0.168486 0
M  V30 16297 C 1483.5 -1.95744 -1.19235 0
M  V30 16298 C 1484.5 -0.841419 -1.37028 0
M  V30 16299 O 1485.69 -1.10842 -1.34386 0
M  V30 16300 C 1482.82 -2.25471 -2.55686 0
M  V30 16301 H 1484.01 -2.87368 -0.857892 0
M  V30 16302 H 1481.57 -1.50798 -0.411041 0
M  V30 16303 H 1482.3 -1.36571 -2.94141 0
M  V30 16304 H 1482.09 -3.06822 -2.44137 0
M  V30 16305 H 1483.58 -2.56593 -3.29469 0
M  V30 16306 N 1484.01 0.437135 -1.51416 0
M  V30 16307 C 1484.94 1.54894 -1.68939 0
M  V30 16308 C 1485.96 1.52493 -0.570059 0
M  V30 16309 O 1487.15 1.57266 -0.844381 0
M  V30 16310 C 1484.25 2.9381 -1.68904 0
M  V30 16311 C 1483.42 3.20714 -2.97425 0
M  V30 16312 C 1482.48 4.39355 -2.89575 0
M  V30 16313 O 1481.5 4.37999 -3.63519 0
M  V30 16314 N 1482.71 5.42931 -2.05441 0
M  V30 16315 H 1485.47 1.40267 -2.64849 0
M  V30 16316 H 1483.03 0.626075 -1.49305 0
M  V30 16317 H 1485.02 3.71201 -1.61221 0
M  V30 16318 H 1483.59 3.02034 -0.805871 0
M  V30 16319 H 1482.81 2.31621 -3.18975 0
M  V30 16320 H 1484.1 3.35516 -3.825 0
M  V30 16321 H 1483.5 5.4687 -1.44742 0
M  V30 16322 H 1482.06 6.19173 -2.03636 0
M  V30 16323 N 1485.49 1.41566 0.692592 0
M  V30 16324 C 1486.4 1.46014 1.83622 0
M  V30 16325 C 1487.42 0.350453 1.70434 0
M  V30 16326 O 1488.59 0.598634 1.92298 0
M  V30 16327 C 1485.66 1.34308 3.19628 0
M  V30 16328 C 1484.72 2.55617 3.44904 0
M  V30 16329 C 1483.95 2.4446 4.74421 0
M  V30 16330 O 1484.17 1.47078 5.51112 0
M  V30 16331 O 1483.11 3.34272 5.00546 0
M  V30 16332 H 1486.93 2.42504 1.82826 0
M  V30 16333 H 1484.52 1.23136 0.846039 0
M  V30 16334 H 1486.4 1.30075 4.00822 0
M  V30 16335 H 1485.08 0.409343 3.21101 0
M  V30 16336 H 1483.98 2.65426 2.63628 0
M  V30 16337 H 1485.32 3.47829 3.48247 0
M  V30 16338 N 1486.97 -0.927146 1.27443 0
M  V30 16339 C 1487.9 -2.04483 1.12735 0
M  V30 16340 C 1488.88 -1.70076 0.0286662 0
M  V30 16341 O 1490.06 -1.93133 0.203252 0
M  V30 16342 C 1487.19 -3.38557 0.774352 0
M  V30 16343 C 1486.15 -3.87078 1.82632 0
M  V30 16344 C 1485.47 -5.17964 1.32729 0
M  V30 16345 C 1486.77 -4.10409 3.23051 0
M  V30 16346 H 1488.47 -2.17046 2.06231 0
M  V30 16347 H 1486.01 -1.04292 0.992937 0
M  V30 16348 H 1487.97 -4.16227 0.658273 0
M  V30 16349 H 1486.69 -3.26009 -0.196321 0
M  V30 16350 H 1485.35 -3.11602 1.93132 0
M  V30 16351 H 1485 -5.01808 0.346059 0
M  V30 16352 H 1484.7 -5.51398 2.03061 0
M  V30 16353 H 1486.22 -5.98203 1.22416 0
M  V30 16354 H 1487.64 -4.78646 3.15549 0
M  V30 16355 H 1486.03 -4.5515 3.91099 0
M  V30 16356 H 1487.1 -3.15685 3.68064 0
M  V30 16357 N 1488.45 -1.09474 -1.13372 0
M  V30 16358 C 1489.41 -0.738173 -2.16988 0
M  V30 16359 C 1490.41 0.232488 -1.5911 0
M  V30 16360 O 1491.6 0.0106093 -1.74197 0
M  V30 16361 C 1488.73 -0.091724 -3.40777 0
M  V30 16362 H 1489.92 -1.65582 -2.50045 0
M  V30 16363 H 1487.48 -0.893994 -1.28209 0
M  V30 16364 H 1488.21 0.837129 -3.13309 0
M  V30 16365 H 1488 -0.790161 -3.84056 0
M  V30 16366 H 1489.49 0.142334 -4.17357 0
M  V30 16367 N 1489.92 1.30607 -0.882012 0
M  V30 16368 C 1490.89 2.26489 -0.351498 0
M  V30 16369 C 1491.89 1.52686 0.504348 0
M  V30 16370 O 1493.08 1.71385 0.311928 0
M  V30 16371 C 1490.21 3.37222 0.499435 0
M  V30 16372 H 1491.4 2.74929 -1.19809 0
M  V30 16373 H 1488.96 1.41746 -0.658616 0
M  V30 16374 H 1489.69 2.94093 1.36673 0
M  V30 16375 H 1489.48 3.91936 -0.11356 0
M  V30 16376 H 1490.97 4.08596 0.862497 0
M  V30 16377 N 1491.4 0.642663 1.43901 0
M  V30 16378 C 1492.31 -0.0562462 2.34533 0
M  V30 16379 C 1493.33 -0.823457 1.53281 0
M  V30 16380 O 1494.5 -0.773103 1.85971 0
M  V30 16381 C 1491.57 -1.01787 3.31422 0
M  V30 16382 C 1490.63 -0.248759 4.28579 0
M  V30 16383 C 1489.86 -1.16458 5.20839 0
M  V30 16384 O 1490.09 -2.40361 5.17284 0
M  V30 16385 O 1489.02 -0.642671 5.98459 0
M  V30 16386 H 1492.85 0.689476 2.9577 0
M  V30 16387 H 1490.43 0.402847 1.43866 0
M  V30 16388 H 1492.31 -1.5708 3.91029 0
M  V30 16389 H 1490.99 -1.744 2.72702 0
M  V30 16390 H 1489.9 0.347495 3.72483 0
M  V30 16391 H 1491.23 0.437589 4.90251 0
M  V30 16392 N 1492.88 -1.52852 0.383918 0
M  V30 16393 C 1493.83 -2.26294 -0.453826 0
M  V30 16394 C 1494.8 -1.27688 -1.0623 0
M  V30 16395 O 1495.98 -1.56507 -1.09134 0
M  V30 16396 C 1493.12 -3.06907 -1.57803 0
M  V30 16397 C 1492.24 -4.20434 -0.992943 0
M  V30 16398 C 1491.37 -4.88453 -2.08776 0
M  V30 16399 C 1490.41 -5.93981 -1.47828 0
M  V30 16400 N 1489.55 -6.55617 -2.51218 0
M  V30 16401 H 1494.39 -2.97462 0.178927 0
M  V30 16402 H 1491.92 -1.46759 0.100066 0
M  V30 16403 H 1493.88 -3.51933 -2.24052 0
M  V30 16404 H 1492.51 -2.37959 -2.18118 0
M  V30 16405 H 1491.56 -3.79762 -0.22021 0
M  V30 16406 H 1492.88 -4.96211 -0.507504 0
M  V30 16407 H 1492.03 -5.36755 -2.82806 0
M  V30 16408 H 1490.77 -4.12187 -2.60678 0
M  V30 16409 H 1489.77 -5.45023 -0.723202 0
M  V30 16410 H 1491 -6.72176 -0.967278 0
M  V30 16411 H 1488.95 -5.82195 -3.02299 0
M  V30 16412 H 1488.86 -7.26991 -2.07414 0
M  V30 16413 H 1490.13 -7.08564 -3.24895 0
M  V30 16414 N 1494.36 -0.113586 -1.5719 0
M  V30 16415 C 1495.27 0.852428 -2.18565 0
M  V30 16416 C 1496.29 1.29668 -1.16026 0
M  V30 16417 O 1497.46 1.36079 -1.48474 0
M  V30 16418 C 1494.53 2.08675 -2.76867 0
M  V30 16419 C 1493.59 1.69493 -3.94424 0
M  V30 16420 C 1492.82 2.87042 -4.49936 0
M  V30 16421 O 1493.04 4.02311 -4.04354 0
M  V30 16422 O 1491.98 2.64439 -5.40699 0
M  V30 16423 H 1495.8 0.360144 -3.01557 0
M  V30 16424 H 1493.39 0.111744 -1.48982 0
M  V30 16425 H 1495.27 2.80976 -3.14054 0
M  V30 16426 H 1493.95 2.5692 -1.9691 0
M  V30 16427 H 1492.85 0.943161 -3.62016 0
M  V30 16428 H 1494.19 1.25995 -4.758 0
M  V30 16429 N 1495.84 1.56784 0.160173 0
M  V30 16430 C 1496.78 1.97267 1.1981 0
M  V30 16431 C 1497.75 0.83824 1.43397 0
M  V30 16432 O 1498.94 1.09926 1.55952 0
M  V30 16433 C 1496.08 2.34725 2.52979 0
M  V30 16434 C 1495.19 3.61397 2.36677 0
M  V30 16435 C 1494.33 3.88018 3.62789 0
M  V30 16436 C 1493.37 5.08002 3.41468 0
M  V30 16437 N 1492.5 5.30699 4.59677 0
M  V30 16438 H 1497.34 2.85743 0.845878 0
M  V30 16439 H 1494.88 1.41379 0.406249 0
M  V30 16440 H 1496.84 2.54468 3.30608 0
M  V30 16441 H 1495.47 1.49345 2.86175 0
M  V30 16442 H 1494.52 3.49505 1.50167 0
M  V30 16443 H 1495.83 4.49185 2.16875 0
M  V30 16444 H 1494.99 4.08188 4.48851 0
M  V30 16445 H 1493.73 2.98627 3.85582 0
M  V30 16446 H 1492.73 4.87718 2.53793 0
M  V30 16447 H 1493.96 5.98934 3.20086 0
M  V30 16448 H 1491.9 4.44261 4.82668 0
M  V30 16449 H 1491.82 6.1273 4.42829 0
M  V30 16450 H 1493.09 5.55357 5.46991 0
M  V30 16451 N 1497.32 -0.429099 1.51646 0
M  V30 16452 C 1498.56 -1.17482 1.63954 0
M  V30 16453 C 1498.88 -1.92152 0.36565 0
M  V30 16454 O 1500.08 -2.68991 0.368221 0
M  V30 16455 C 1498.54 -2.13703 2.89585 0
M  V30 16456 C 1498.15 -1.44642 4.24008 0
M  V30 16457 C 1499.89 -2.88657 3.11252 0
M  V30 16458 C 1497.8 -2.39395 5.40781 0
M  V30 16459 H 1496.73 -0.442234 0.610692 0
M  V30 16460 H 1499.38 -0.441088 1.7812 0
M  V30 16461 H 1497.76 -2.90545 2.69071 0
M  V30 16462 H 1498.94 -0.733012 4.54932 0
M  V30 16463 H 1497.25 -0.818084 4.08285 0
M  V30 16464 H 1499.85 -3.59653 3.95669 0
M  V30 16465 H 1500.19 -3.50473 2.24664 0
M  V30 16466 H 1500.72 -2.18919 3.32144 0
M  V30 16467 H 1497.46 -1.82255 6.29653 0
M  V30 16468 H 1496.98 -3.08766 5.14222 0
M  V30 16469 H 1498.66 -3.0035 5.73061 0
M  V30 16470 N 1498.79 -1.41931 -0.685074 0
M  V30 16471 C 1500.02 -1.45432 -1.47866 0
M  V30 16472 C 1500.44 -0.0641302 -1.87991 0
M  V30 16473 O 1499.8 0.935081 -1.55325 0
M  V30 16474 C 1499.85 -2.37801 -2.71077 0
M  V30 16475 O 1498.95 -1.84229 -3.68963 0
M  V30 16476 H 1498.29 -0.493156 -0.444627 0
M  V30 16477 H 1500.82 -1.86508 -0.841177 0
M  V30 16478 H 1500.83 -2.54033 -3.19266 0
M  V30 16479 H 1499.51 -3.38807 -2.41211 0
M  V30 16480 H 1498.09 -1.775 -3.27945 0
M  V30 16481 N 1500.27 0.920374 -1.27933 0
M  V30 16482 C 1501.52 1.67131 -1.1487 0
M  V30 16483 C 1501.85 1.91816 0.303343 0
M  V30 16484 O 1501.13 1.51379 1.22125 0
M  V30 16485 C 1501.41 3.03332 -1.94066 0
M  V30 16486 C 1501.26 2.85842 -3.47296 0
M  V30 16487 C 1502.58 4.03773 -1.75087 0
M  V30 16488 H 1499.7 0.606537 -0.418666 0
M  V30 16489 H 1502.34 1.06755 -1.57173 0
M  V30 16490 H 1500.49 3.54869 -1.58116 0
M  V30 16491 H 1502.16 2.41367 -3.93115 0
M  V30 16492 H 1500.41 2.21035 -3.73264 0
M  V30 16493 H 1501.08 3.82535 -3.97958 0
M  V30 16494 H 1503.55 3.61274 -2.06447 0
M  V30 16495 H 1502.43 4.97048 -2.32882 0
M  V30 16496 H 1502.69 4.36512 -0.700665 0
M  V30 16497 N 1501.75 1.10074 1.1279 0
M  V30 16498 C 1502.68 0.768146 2.20503 0
M  V30 16499 C 1503.66 -0.257199 1.68144 0
M  V30 16500 O 1504.85 -0.12379 1.93805 0
M  V30 16501 C 1501.98 0.195125 3.46751 0
M  V30 16502 C 1500.93 1.15074 4.1224 0
M  V30 16503 C 1500.26 0.439098 5.32894 0
M  V30 16504 C 1501.56 2.49584 4.58808 0
M  V30 16505 H 1503.25 1.66876 2.48581 0
M  V30 16506 H 1500.8 0.803806 1.19478 0
M  V30 16507 H 1502.75 -0.0496695 4.21371 0
M  V30 16508 H 1501.47 -0.740717 3.1809 0
M  V30 16509 H 1500.13 1.38092 3.39597 0
M  V30 16510 H 1499.78 -0.501096 5.00498 0
M  V30 16511 H 1499.48 1.07632 5.77658 0
M  V30 16512 H 1501 0.202761 6.10263 0
M  V30 16513 H 1502.42 2.30736 5.24818 0
M  V30 16514 H 1500.81 3.09157 5.14336 0
M  V30 16515 H 1501.88 3.09857 3.72984 0
M  V30 16516 N 1503.23 -1.30138 0.888926 0
M  V30 16517 C 1504.16 -2.27013 0.315904 0
M  V30 16518 C 1505.17 -1.53871 -0.531746 0
M  V30 16519 O 1506.36 -1.75022 -0.350654 0
M  V30 16520 C 1503.46 -3.34087 -0.569119 0
M  V30 16521 C 1502.63 -4.36683 0.250359 0
M  V30 16522 C 1501.69 -5.23149 -0.565783 0
M  V30 16523 O 1500.72 -5.69199 0.0129167 0
M  V30 16524 N 1501.92 -5.49416 -1.8741 0
M  V30 16525 H 1504.69 -2.76821 1.14848 0
M  V30 16526 H 1502.25 -1.43359 0.752311 0
M  V30 16527 H 1504.24 -3.88857 -1.12125 0
M  V30 16528 H 1502.81 -2.84178 -1.30237 0
M  V30 16529 H 1502.03 -3.81723 0.983931 0
M  V30 16530 H 1503.32 -5.02279 0.811964 0
M  V30 16531 H 1502.72 -5.13793 -2.36713 0
M  V30 16532 H 1501.27 -6.07045 -2.37359 0
M  V30 16533 N 1504.71 -0.650285 -1.43559 0
M  V30 16534 C 1505.65 0.0550615 -2.32535 0
M  V30 16535 C 1506.65 0.81612 -1.48445 0
M  V30 16536 O 1507.85 0.726853 -1.64672 0
M  V30 16537 H 1504.23 0.0365887 -0.751109 0
M  V30 16538 H 1506.2 -0.713146 -2.89753 0
M  V30 16539 C 1504.95 1.00982 -3.32713 0
M  V30 16540 H 1504.27 0.433626 -3.97441 0
M  V30 16541 H 1505.71 1.47249 -3.9761 0
M  V30 16542 C 1504.17 2.10442 -2.63089 0
M  V30 16543 O 1504.7 3.18782 -2.44419 0
M  V30 16544 N 1502.91 1.86915 -2.22511 0
M  V30 16545 H 1502.45 0.988113 -2.37895 0
M  V30 16546 H 1502.41 2.60348 -1.76256 0
M  V30 16547 N 1506.18 1.52647 -0.392018 0
M  V30 16548 C 1507.13 2.28073 0.456674 0
M  V30 16549 C 1508.13 1.3208 1.06071 0
M  V30 16550 O 1509.33 1.49608 1.00088 0
M  V30 16551 H 1505.71 0.733443 0.166029 0
M  V30 16552 H 1507.68 2.97723 -0.200916 0
M  V30 16553 C 1506.43 3.10216 1.5704 0
M  V30 16554 H 1505.75 3.83939 1.11493 0
M  V30 16555 H 1507.19 3.66126 2.1384 0
M  V30 16556 C 1505.65 2.22698 2.52799 0
M  V30 16557 O 1506.18 1.8556 3.56273 0
M  V30 16558 N 1504.38 1.86804 2.22604 0
M  V30 16559 H 1503.93 2.17204 1.38492 0
M  V30 16560 H 1503.89 1.28538 2.86924 0
M  V30 16561 N 1507.66 0.121921 1.57128 0
M  V30 16562 C 1508.89 -0.542225 1.99358 0
M  V30 16563 C 1509.3 -1.60578 1.00057 0
M  V30 16564 O 1508.64 -1.83694 -0.0142649 0
M  V30 16565 C 1508.71 -1.22448 3.38004 0
M  V30 16566 C 1508.37 -0.308522 4.55957 0
M  V30 16567 C 1509.37 0.454012 5.17914 0
M  V30 16568 C 1507.05 -0.218741 5.01823 0
M  V30 16569 C 1509.05 1.29403 6.24126 0
M  V30 16570 C 1506.73 0.624906 6.07896 0
M  V30 16571 C 1507.73 1.37992 6.68915 0
M  V30 16572 O 1507.42 2.20955 7.72938 0
M  V30 16573 H 1507.15 -0.147894 0.659624 0
M  V30 16574 H 1509.7 0.205954 2.04365 0
M  V30 16575 H 1507.93 -2.01979 3.2976 0
M  V30 16576 H 1509.62 -1.78583 3.64504 0
M  V30 16577 H 1510.39 0.394539 4.83393 0
M  V30 16578 H 1506.27 -0.796109 4.54074 0
M  V30 16579 H 1509.81 1.88382 6.71683 0
M  V30 16580 H 1505.71 0.685762 6.41847 0
M  V30 16581 H 1506.48 2.13929 7.90049 0
M  V30 16582 N 1509.14 -1.56867 -0.151857 0
M  V30 16583 C 1510.05 -2.01157 -1.20718 0
M  V30 16584 C 1511.07 -0.926166 -1.47303 0
M  V30 16585 O 1512.24 -1.23528 -1.59069 0
M  V30 16586 C 1509.31 -2.37915 -2.52185 0
M  V30 16587 C 1508.37 -3.60381 -2.3329 0
M  V30 16588 C 1507.6 -3.95376 -3.58488 0
M  V30 16589 O 1507.82 -3.31093 -4.64471 0
M  V30 16590 O 1506.76 -4.88645 -3.5144 0
M  V30 16591 H 1510.58 -2.91234 -0.861175 0
M  V30 16592 H 1508.17 -1.44993 -0.360213 0
M  V30 16593 H 1510.05 -2.6244 -3.29702 0
M  V30 16594 H 1508.73 -1.50995 -2.86325 0
M  V30 16595 H 1507.63 -3.4105 -1.5374 0
M  V30 16596 H 1508.97 -4.47903 -2.04067 0
M  V30 16597 N 1510.62 0.421051 -1.51871 0
M  V30 16598 C 1511.57 1.5122 -1.74359 0
M  V30 16599 C 1512.54 1.55432 -0.585667 0
M  V30 16600 O 1513.72 1.7219 -0.821912 0
M  V30 16601 C 1510.86 2.88787 -1.88935 0
M  V30 16602 C 1509.97 2.93977 -3.16546 0
M  V30 16603 C 1509.11 4.22768 -3.21622 0
M  V30 16604 C 1508.15 4.21888 -4.43483 0
M  V30 16605 N 1507.28 5.4223 -4.46017 0
M  V30 16606 H 1512.12 1.31348 -2.67492 0
M  V30 16607 H 1509.66 0.637779 -1.32555 0
M  V30 16608 H 1511.62 3.68629 -1.95368 0
M  V30 16609 H 1510.25 3.07181 -0.991942 0
M  V30 16610 H 1509.3 2.06699 -3.19343 0
M  V30 16611 H 1510.61 2.8919 -4.06412 0
M  V30 16612 H 1509.77 5.10995 -3.27061 0
M  V30 16613 H 1508.51 4.30234 -2.29674 0
M  V30 16614 H 1507.51 3.32052 -4.38202 0
M  V30 16615 H 1508.74 4.16072 -5.36713 0
M  V30 16616 H 1506.68 5.50386 -3.56947 0
M  V30 16617 H 1506.6 5.39389 -5.29713 0
M  V30 16618 H 1507.87 6.32443 -4.55671 0
M  V30 16619 N 1512.1 1.42293 0.677538 0
M  V30 16620 C 1513.32 1.46214 1.47092 0
M  V30 16621 C 1513.75 0.0740989 1.87954 0
M  V30 16622 O 1513.1 -0.926831 1.55819 0
M  V30 16623 C 1513.15 2.39236 2.69812 0
M  V30 16624 O 1512.26 1.86183 3.6798 0
M  V30 16625 H 1511.6 0.495507 0.442006 0
M  V30 16626 H 1514.13 1.86952 0.831274 0
M  V30 16627 H 1514.14 2.55723 3.17915 0
M  V30 16628 H 1512.81 3.40081 2.39411 0
M  V30 16629 H 1511.39 1.79237 3.26999 0
M  V30 16630 N 1513.57 -0.913576 1.28419 0
M  V30 16631 C 1514.51 -2.02073 1.08163 0
M  V30 16632 C 1515.52 -1.62766 0.0333064 0
M  V30 16633 O 1516.71 -1.76347 0.27638 0
M  V30 16634 C 1513.81 -3.33151 0.621596 0
M  V30 16635 C 1512.98 -4.01068 1.74536 0
M  V30 16636 C 1512.04 -5.10428 1.27868 0
M  V30 16637 O 1511.07 -5.33617 1.98094 0
M  V30 16638 N 1512.27 -5.80326 0.141976 0
M  V30 16639 H 1515.03 -2.20009 2.0351 0
M  V30 16640 H 1512.59 -1.08488 1.20174 0
M  V30 16641 H 1514.59 -4.03638 0.292989 0
M  V30 16642 H 1513.16 -3.11685 -0.239031 0
M  V30 16643 H 1512.38 -3.24127 2.24355 0
M  V30 16644 H 1513.66 -4.4319 2.49919 0
M  V30 16645 H 1513.06 -5.63956 -0.443845 0
M  V30 16646 H 1511.62 -6.51676 -0.127354 0
M  V30 16647 N 1515.05 -1.1067 -1.12204 0
M  V30 16648 C 1515.96 -0.770221 -2.21596 0
M  V30 16649 C 1516.98 0.233297 -1.72429 0
M  V30 16650 O 1518.15 0.0714493 -2.01273 0
M  V30 16651 C 1515.22 -0.209682 -3.46065 0
M  V30 16652 C 1514.28 -1.27079 -4.1006 0
M  V30 16653 C 1513.51 -0.736899 -5.28588 0
M  V30 16654 O 1513.74 0.435838 -5.68732 0
M  V30 16655 O 1512.67 -1.49797 -5.82962 0
M  V30 16656 H 1516.5 -1.6834 -2.52776 0
M  V30 16657 H 1514.08 -0.882012 -1.20586 0
M  V30 16658 H 1515.96 0.0989516 -4.21284 0
M  V30 16659 H 1514.64 0.676316 -3.16556 0
M  V30 16660 H 1513.55 -1.63231 -3.3661 0
M  V30 16661 H 1514.88 -2.12989 -4.4373 0
M  V30 16662 N 1516.53 1.29665 -0.895815 0
M  V30 16663 C 1517.76 1.99862 -0.535043 0
M  V30 16664 C 1518.17 1.67077 0.879245 0
M  V30 16665 O 1517.53 0.913717 1.57979 0
M  V30 16666 C 1517.58 3.54396 -0.713132 0
M  V30 16667 O 1517.3 3.86018 -2.07175 0
M  V30 16668 C 1518.8 4.41862 -0.356792 0
M  V30 16669 H 1516.02 0.638693 -0.205699 0
M  V30 16670 H 1518.57 1.65293 -1.20409 0
M  V30 16671 H 1516.72 3.87292 -0.0913116 0
M  V30 16672 H 1517.14 4.80701 -2.09827 0
M  V30 16673 H 1518.61 5.49428 -0.532252 0
M  V30 16674 H 1519.09 4.3349 0.705914 0
M  V30 16675 H 1519.69 4.1443 -0.95539 0
M  V30 16676 N 1518.01 0.657889 1.43212 0
M  V30 16677 C 1519.26 0.173187 2.01758 0
M  V30 16678 C 1519.58 -1.21447 1.51924 0
M  V30 16679 O 1518.84 -1.82568 0.704807 0
M  V30 16680 C 1519.14 0.138025 3.57133 0
M  V30 16681 C 1518.8 1.46806 4.26332 0
M  V30 16682 C 1517.47 1.83227 4.44951 0
M  V30 16683 C 1519.82 2.34476 4.65478 0
M  V30 16684 C 1517.15 3.06975 4.99983 0
M  V30 16685 C 1519.5 3.57521 5.21883 0
M  V30 16686 C 1518.16 3.94132 5.38717 0
M  V30 16687 H 1517.43 0.0633735 0.738285 0
M  V30 16688 H 1520.08 0.849524 1.71626 0
M  V30 16689 H 1518.38 -0.621776 3.86835 0
M  V30 16690 H 1520.08 -0.253948 4.00195 0
M  V30 16691 H 1516.67 1.17469 4.12188 0
M  V30 16692 H 1520.85 2.07628 4.50782 0
M  V30 16693 H 1516.11 3.35383 5.11202 0
M  V30 16694 H 1520.28 4.25669 5.51161 0
M  V30 16695 H 1517.91 4.901 5.81125 0
M  V30 16696 N 1519.49 -1.52437 0.400108 0
M  V30 16697 C 1520.43 -2.26763 -0.429799 0
M  V30 16698 C 1521.4 -1.28808 -1.0487 0
M  V30 16699 O 1522.59 -1.57655 -1.07468 0
M  V30 16700 C 1519.73 -3.08564 -1.54539 0
M  V30 16701 C 1518.84 -4.21463 -0.948294 0
M  V30 16702 C 1517.98 -4.9064 -2.03584 0
M  V30 16703 C 1517.02 -5.95515 -1.4152 0
M  V30 16704 N 1516.15 -6.58245 -2.4425 0
M  V30 16705 H 1520.99 -2.97256 0.210467 0
M  V30 16706 H 1518.53 -1.46645 0.115627 0
M  V30 16707 H 1520.49 -3.54289 -2.20307 0
M  V30 16708 H 1519.12 -2.40259 -2.15582 0
M  V30 16709 H 1518.17 -3.79974 -0.179918 0
M  V30 16710 H 1519.48 -4.96722 -0.454845 0
M  V30 16711 H 1518.64 -5.39724 -2.77097 0
M  V30 16712 H 1517.37 -4.14929 -2.56291 0
M  V30 16713 H 1516.38 -5.45759 -0.665354 0
M  V30 16714 H 1517.6 -6.73164 -0.89593 0
M  V30 16715 H 1515.55 -5.85369 -2.96107 0
M  V30 16716 H 1515.47 -7.2915 -1.99692 0
M  V30 16717 H 1516.74 -7.1197 -3.17362 0
M  V30 16718 N 1520.96 -0.130252 -1.57061 0
M  V30 16719 C 1521.9 0.846442 -2.12998 0
M  V30 16720 C 1522.91 1.22229 -1.07536 0
M  V30 16721 O 1524.1 1.16928 -1.34871 0
M  V30 16722 C 1521.2 2.14481 -2.62395 0
M  V30 16723 C 1520.37 1.93892 -3.92077 0
M  V30 16724 C 1519.43 3.07562 -4.26957 0
M  V30 16725 O 1518.46 2.79983 -4.95578 0
M  V30 16726 N 1519.66 4.34297 -3.85184 0
M  V30 16727 H 1522.42 0.368471 -2.97426 0
M  V30 16728 H 1519.98 0.0538355 -1.6181 0
M  V30 16729 H 1521.98 2.8954 -2.82752 0
M  V30 16730 H 1520.55 2.53592 -1.82784 0
M  V30 16731 H 1519.77 1.02962 -3.80516 0
M  V30 16732 H 1521.05 1.77454 -4.76852 0
M  V30 16733 H 1520.45 4.59575 -3.29859 0
M  V30 16734 H 1519.01 5.06191 -4.10626 0
M  V30 16735 N 1522.44 1.56945 0.143535 0
M  V30 16736 C 1523.37 2.0156 1.17881 0
M  V30 16737 C 1524.35 0.895744 1.44604 0
M  V30 16738 O 1525.54 1.16379 1.55466 0
M  V30 16739 C 1522.67 2.39915 2.51114 0
M  V30 16740 C 1521.62 3.55117 2.38905 0
M  V30 16741 C 1520.95 3.79296 3.7688 0
M  V30 16742 C 1522.25 4.87668 1.87021 0
M  V30 16743 H 1523.94 2.88296 0.80783 0
M  V30 16744 H 1521.49 1.38698 0.387149 0
M  V30 16745 H 1523.44 2.69727 3.23767 0
M  V30 16746 H 1522.17 1.5012 2.90055 0
M  V30 16747 H 1520.83 3.25476 1.68703 0
M  V30 16748 H 1520.47 2.86747 4.13262 0
M  V30 16749 H 1520.17 4.56827 3.69571 0
M  V30 16750 H 1521.7 4.11537 4.51076 0
M  V30 16751 H 1523.11 5.16176 2.4947 0
M  V30 16752 H 1521.51 5.69029 1.90594 0
M  V30 16753 H 1522.58 4.77811 0.82611 0
M  V30 16754 N 1523.92 -0.412991 1.52093 0
M  V30 16755 C 1524.85 -1.52187 1.71382 0
M  V30 16756 C 1525.87 -1.51567 0.594247 0
M  V30 16757 O 1527.06 -1.55902 0.869293 0
M  V30 16758 C 1524.16 -2.91086 1.73557 0
M  V30 16759 C 1523.33 -3.15941 3.0249 0
M  V30 16760 C 1522.39 -4.34692 2.96529 0
M  V30 16761 O 1521.41 -4.3216 3.70441 0
M  V30 16762 N 1522.62 -5.39594 2.14052 0
M  V30 16763 H 1525.38 -1.36036 2.67047 0
M  V30 16764 H 1522.94 -0.602243 1.50282 0
M  V30 16765 H 1524.93 -3.68589 1.67106 0
M  V30 16766 H 1523.5 -3.00714 0.85382 0
M  V30 16767 H 1522.72 -2.26517 3.2262 0
M  V30 16768 H 1524.01 -3.29388 3.87789 0
M  V30 16769 H 1523.41 -5.44498 1.53424 0
M  V30 16770 H 1521.97 -6.15855 2.13461 0
M  V30 16771 N 1525.4 -1.4265 -0.669982 0
M  V30 16772 C 1526.62 -1.46992 -1.46315 0
M  V30 16773 C 1527.05 -0.0840655 -1.87912 0
M  V30 16774 O 1526.41 0.918554 -1.56308 0
M  V30 16775 C 1526.46 -2.40663 -2.6854 0
M  V30 16776 O 1525.56 -1.88132 -3.66988 0
M  V30 16777 H 1524.9 -0.497844 -0.439372 0
M  V30 16778 H 1527.43 -1.8739 -0.821348 0
M  V30 16779 H 1527.44 -2.57405 -3.16554 0
M  V30 16780 H 1526.12 -3.41346 -2.37604 0
M  V30 16781 H 1524.69 -1.80969 -3.26044 0
M  V30 16782 N 1526.88 0.906753 -1.28902 0
M  V30 16783 C 1528.15 1.63637 -1.07155 0
M  V30 16784 C 1528.53 2.07527 0.386727 0
M  V30 16785 O 1527.88 1.82562 1.37417 0
M  V30 16786 C 1528.09 2.82256 -2.05263 0
M  V30 16787 C 1529.44 3.53109 -2.35794 0
M  V30 16788 O 1530.46 2.92414 -2.03402 0
M  V30 16789 O 1529.32 4.62512 -2.91109 0
M  V30 16790 H 1526.42 0.718194 -0.410032 0
M  V30 16791 H 1528.96 0.955442 -1.40248 0
M  V30 16792 H 1527.74 2.46968 -3.03517 0
M  V30 16793 H 1527.36 3.58059 -1.72857 0
M  V30 16794 N 1528.36 1.11264 1.11616 0
M  V30 16795 C 1529.6 0.860364 1.83314 0
M  V30 16796 C 1529.93 -0.614011 1.84554 0
M  V30 16797 O 1529.19 -1.4692 1.29279 0
M  V30 16798 C 1529.48 1.36481 3.30315 0
M  V30 16799 C 1529.15 2.85209 3.49237 0
M  V30 16800 C 1527.81 3.25822 3.54109 0
M  V30 16801 C 1530.16 3.81009 3.55642 0
M  V30 16802 C 1527.49 4.60968 3.62941 0
M  V30 16803 C 1529.84 5.15968 3.66005 0
M  V30 16804 C 1528.51 5.56142 3.69137 0
M  V30 16805 H 1527.78 0.314829 0.670793 0
M  V30 16806 H 1530.43 1.39073 1.31647 0
M  V30 16807 H 1528.73 0.754639 3.84464 0
M  V30 16808 H 1530.43 1.14597 3.84276 0
M  V30 16809 H 1527.02 2.52791 3.46114 0
M  V30 16810 H 1531.2 3.50734 3.5114 0
M  V30 16811 H 1526.46 4.91503 3.63641 0
M  V30 16812 H 1530.63 5.90037 3.69904 0
M  V30 16813 H 1528.26 6.60855 3.75732 0
M  V30 16814 N 1529.83 -1.29188 0.902679 0
M  V30 16815 C 1531.06 -1.99286 0.544844 0
M  V30 16816 C 1531.47 -1.67721 -0.875572 0
M  V30 16817 O 1530.81 -0.920207 -1.5899 0
M  V30 16818 C 1530.88 -3.53374 0.660849 0
M  V30 16819 C 1530.54 -4.08502 2.04878 0
M  V30 16820 C 1531.54 -4.23173 3.02028 0
M  V30 16821 C 1529.22 -4.43461 2.35897 0
M  V30 16822 C 1531.22 -4.7204 4.28318 0
M  V30 16823 C 1528.9 -4.92024 3.6243 0
M  V30 16824 C 1529.9 -5.06269 4.58455 0
M  V30 16825 O 1529.59 -5.53778 5.8274 0
M  V30 16826 H 1529.32 -0.64339 0.207427 0
M  V30 16827 H 1531.88 -1.6562 1.21487 0
M  V30 16828 H 1530.11 -3.86643 -0.066216 0
M  V30 16829 H 1531.79 -4.04701 0.311732 0
M  V30 16830 H 1532.56 -3.96449 2.79379 0
M  V30 16831 H 1528.44 -4.31631 1.61913 0
M  V30 16832 H 1531.98 -4.83074 5.03275 0
M  V30 16833 H 1527.88 -5.18186 3.84907 0
M  V30 16834 H 1528.65 -5.72086 5.85372 0
M  V30 16835 N 1531.31 -0.665475 -1.42861 0
M  V30 16836 C 1532.56 -0.183521 -2.01265 0
M  V30 16837 C 1532.88 1.21103 -1.52837 0
M  V30 16838 O 1532.15 1.81135 -0.746109 0
M  V30 16839 H 1530.73 -0.0648565 -0.744179 0
M  V30 16840 H 1533.39 -0.859893 -1.74905 0
M  V30 16841 H 1532.49 -0.177589 -3.11594 0
M  V30 16842 N 1532.79 1.52222 -0.408187 0
M  V30 16843 C 1534.21 1.59491 -0.0590201 0
M  V30 16844 C 1534.41 1.42109 1.42854 0
M  V30 16845 O 1533.46 1.24757 2.19527 0
M  V30 16846 C 1534.77 2.9557 -0.553093 0
M  V30 16847 C 1536.32 3.08801 -0.510986 0
M  V30 16848 C 1536.8 4.47358 -0.981554 0
M  V30 16849 N 1538.29 4.53596 -0.938335 0
M  V30 16850 C 1539.02 5.59076 -1.27364 0
M  V30 16851 N 1538.52 6.72113 -1.68035 0
M  V30 16852 N 1540.31 5.49279 -1.19367 0
M  V30 16853 H 1532.46 1.61768 -1.37641 0
M  V30 16854 H 1534.73 0.760959 -0.565372 0
M  V30 16855 H 1534.43 3.13566 -1.59276 0
M  V30 16856 H 1534.31 3.77181 0.0377629 0
M  V30 16857 H 1536.69 2.90489 0.519637 0
M  V30 16858 H 1536.77 2.29098 -1.13788 0
M  V30 16859 H 1536.42 4.66413 -2.0105 0
M  V30 16860 H 1536.35 5.25556 -0.331478 0
M  V30 16861 H 1538.84 3.72453 -0.639297 0
M  V30 16862 H 1539.15 7.48586 -1.91934 0
M  V30 16863 H 1537.5 6.73396 -1.71938 0
M  V30 16864 H 1540.69 4.59853 -0.8748 0
M  V30 16865 H 1540.86 6.31378 -1.45829 0
M  V30 16866 N 1534.27 0.138579 1.5699 0
M  V30 16867 C 1535.18 -0.817548 2.19894 0
M  V30 16868 C 1536.19 -1.27806 1.18075 0
M  V30 16869 O 1537.37 -1.33699 1.5062 0
M  V30 16870 C 1534.43 -2.04244 2.80152 0
M  V30 16871 C 1533.5 -1.63197 3.97071 0
M  V30 16872 C 1532.73 -2.79847 4.54446 0
M  V30 16873 O 1532.95 -3.95827 4.10703 0
M  V30 16874 O 1531.89 -2.55804 5.44838 0
M  V30 16875 H 1535.71 -0.312123 3.02092 0
M  V30 16876 H 1533.3 -0.0880281 1.4914 0
M  V30 16877 H 1535.18 -2.75945 3.18485 0
M  V30 16878 H 1533.85 -2.53755 2.00973 0
M  V30 16879 H 1532.76 -0.885448 3.6347 0
M  V30 16880 H 1534.09 -1.1841 4.77745 0
M  V30 16881 N 1535.75 -1.57019 -0.13521 0
M  V30 16882 C 1536.97 -1.88528 -0.864399 0
M  V30 16883 C 1537.4 -0.728852 -1.73405 0
M  V30 16884 O 1536.75 0.321196 -1.78432 0
M  V30 16885 C 1536.8 -3.18694 -1.6872 0
M  V30 16886 O 1535.91 -3.03458 -2.79262 0
M  V30 16887 H 1535.25 -0.61909 -0.24005 0
M  V30 16888 H 1537.78 -2.04233 -0.12248 0
M  V30 16889 H 1537.79 -3.51011 -2.0798 0
M  V30 16890 H 1536.46 -4.02462 -1.04868 0
M  V30 16891 H 1535.04 -2.82575 -2.43323 0
M  V30 16892 N 1537.22 0.404919 -1.52309 0
M  V30 16893 C 1538.13 1.51822 -1.7885 0
M  V30 16894 C 1539.15 1.60403 -0.674307 0
M  V30 16895 O 1540.33 1.77038 -0.960175 0
M  V30 16896 C 1537.39 2.87516 -1.9374 0
M  V30 16897 C 1536.45 2.88787 -3.17648 0
M  V30 16898 C 1535.69 4.18009 -3.31819 0
M  V30 16899 O 1535.91 5.12129 -2.51158 0
M  V30 16900 O 1534.84 4.26222 -4.24992 0
M  V30 16901 H 1538.67 1.32329 -2.73354 0
M  V30 16902 H 1536.25 0.591193 -1.37205 0
M  V30 16903 H 1538.14 3.6799 -2.05333 0
M  V30 16904 H 1536.81 3.07068 -1.02425 0
M  V30 16905 H 1535.72 2.07152 -3.11511 0
M  V30 16906 H 1537.05 2.74185 -4.08758 0
M  V30 16907 N 1538.7 1.43003 0.662408 0
M  V30 16908 C 1539.63 1.50248 1.78739 0
M  V30 16909 C 1540.61 0.357934 1.66291 0
M  V30 16910 O 1541.8 0.573919 1.85526 0
M  V30 16911 C 1538.93 1.41618 3.17114 0
M  V30 16912 C 1537.88 2.54228 3.44314 0
M  V30 16913 C 1537.21 2.30653 4.82393 0
M  V30 16914 C 1538.51 3.96505 3.39972 0
M  V30 16915 H 1540.2 2.44406 1.72934 0
M  V30 16916 H 1537.75 1.17633 0.830569 0
M  V30 16917 H 1539.7 1.45293 3.9556 0
M  V30 16918 H 1538.43 0.439605 3.23628 0
M  V30 16919 H 1537.08 2.49891 2.68235 0
M  V30 16920 H 1536.73 1.3126 4.85572 0
M  V30 16921 H 1536.43 3.06134 5.01554 0
M  V30 16922 H 1537.96 2.36096 5.63108 0
M  V30 16923 H 1539.37 4.02378 4.08368 0
M  V30 16924 H 1537.77 4.71937 3.70668 0
M  V30 16925 H 1538.84 4.22295 2.38318 0
M  V30 16926 N 1540.18 -0.899904 1.29381 0
M  V30 16927 C 1541.11 -2.02045 1.17047 0
M  V30 16928 C 1542.09 -1.69977 0.0647354 0
M  V30 16929 O 1543.28 -1.92659 0.244173 0
M  V30 16930 C 1540.41 -3.36839 0.845991 0
M  V30 16931 C 1539.36 -3.83117 1.90802 0
M  V30 16932 C 1538.69 -5.15032 1.43686 0
M  V30 16933 C 1539.99 -4.03464 3.31684 0
M  V30 16934 H 1541.68 -2.12623 2.10789 0
M  V30 16935 H 1539.23 -1.02162 1.01484 0
M  V30 16936 H 1541.18 -4.14737 0.746413 0
M  V30 16937 H 1539.9 -3.26352 -0.127125 0
M  V30 16938 H 1538.56 -3.07435 1.99698 0
M  V30 16939 H 1538.21 -5.00961 0.452422 0
M  V30 16940 H 1537.91 -5.46967 2.14711 0
M  V30 16941 H 1539.43 -5.95472 1.35078 0
M  V30 16942 H 1540.85 -4.71845 3.25631 0
M  V30 16943 H 1539.25 -4.46752 4.00665 0
M  V30 16944 H 1540.32 -3.07807 3.74677 0
M  V30 16945 N 1541.66 -1.11854 -1.11024 0
M  V30 16946 C 1542.62 -0.784033 -2.15373 0
M  V30 16947 C 1543.62 0.198686 -1.59568 0
M  V30 16948 O 1544.81 -0.0263428 -1.7418 0
M  V30 16949 C 1541.94 -0.163987 -3.40505 0
M  V30 16950 H 1543.14 -1.70849 -2.46477 0
M  V30 16951 H 1540.69 -0.920988 -1.26283 0
M  V30 16952 H 1541.42 0.770483 -3.15014 0
M  V30 16953 H 1541.21 -0.871447 -3.82293 0
M  V30 16954 H 1542.7 0.0537739 -4.17565 0
M  V30 16955 N 1543.14 1.28707 -0.909517 0
M  V30 16956 C 1544.36 1.99283 -0.556211 0
M  V30 16957 C 1544.78 1.68 0.861475 0
M  V30 16958 O 1544.14 0.930421 1.57001 0
M  V30 16959 C 1544.19 3.5362 -0.75068 0
M  V30 16960 O 1543.91 3.83799 -2.11258 0
M  V30 16961 C 1545.41 4.41459 -0.403637 0
M  V30 16962 H 1542.63 0.636476 -0.212462 0
M  V30 16963 H 1545.17 1.64007 -1.22156 0
M  V30 16964 H 1543.33 3.87174 -0.132384 0
M  V30 16965 H 1543.74 4.78448 -2.14913 0
M  V30 16966 H 1545.22 5.48833 -0.590496 0
M  V30 16967 H 1545.69 4.34214 0.659897 0
M  V30 16968 H 1546.3 4.13394 -0.999292 0
M  V30 16969 N 1544.61 0.673042 1.42506 0
M  V30 16970 C 1546.03 0.342429 1.55883 0
M  V30 16971 C 1546.23 -1.15229 1.65302 0
M  V30 16972 O 1545.29 -1.93767 1.61897 0
M  V30 16973 C 1546.6 1.0712 2.80973 0
M  V30 16974 C 1548.15 1.05336 2.94743 0
M  V30 16975 C 1548.62 1.76342 4.22691 0
M  V30 16976 N 1550.11 1.73201 4.29599 0
M  V30 16977 C 1550.85 2.25 5.27411 0
M  V30 16978 N 1550.34 2.85173 6.31386 0
M  V30 16979 N 1552.14 2.15385 5.19197 0
M  V30 16980 H 1544.29 1.64277 1.34636 0
M  V30 16981 H 1546.55 0.691984 0.647968 0
M  V30 16982 H 1546.26 2.1263 2.80145 0
M  V30 16983 H 1546.13 0.635313 3.71811 0
M  V30 16984 H 1548.52 0.00659669 2.95099 0
M  V30 16985 H 1548.6 1.52811 2.0514 0
M  V30 16986 H 1548.24 2.80985 4.23096 0
M  V30 16987 H 1548.17 1.26317 5.11225 0
M  V30 16988 H 1550.66 1.2931 3.55088 0
M  V30 16989 H 1550.98 3.22323 7.02373 0
M  V30 16990 H 1549.32 2.89242 6.31953 0
M  V30 16991 H 1552.51 1.68065 4.36889 0
M  V30 16992 H 1552.69 2.5606 5.95262 0
M  V30 16993 N 1546.09 -1.52004 0.416254 0
M  V30 16994 C 1547.02 -2.24913 -0.441208 0
M  V30 16995 C 1548.04 -1.28139 -1.0042 0
M  V30 16996 O 1549.23 -1.54037 -0.901928 0
M  V30 16997 C 1546.33 -2.97298 -1.62688 0
M  V30 16998 C 1545.5 -4.20999 -1.18652 0
M  V30 16999 C 1544.56 -4.76146 -2.2399 0
M  V30 17000 O 1543.58 -5.38541 -1.84288 0
M  V30 17001 N 1544.79 -4.58338 -3.56239 0
M  V30 17002 H 1547.55 -2.99137 0.183576 0
M  V30 17003 H 1545.11 -1.60051 0.244008 0
M  V30 17004 H 1547.1 -3.31082 -2.32737 0
M  V30 17005 H 1545.67 -2.26216 -2.15744 0
M  V30 17006 H 1544.89 -3.92948 -0.313877 0
M  V30 17007 H 1546.18 -5.01318 -0.869365 0
M  V30 17008 H 1545.58 -4.08592 -3.91241 0
M  V30 17009 H 1544.14 -4.96542 -4.22244 0
M  V30 17010 N 1547.57 -0.146903 -1.56914 0
M  V30 17011 C 1548.85 0.549291 -1.87729 0
M  V30 17012 C 1549.23 1.82971 -1.05284 0
M  V30 17013 O 1548.58 2.28073 -0.139628 0
M  V30 17014 C 1548.79 0.814835 -3.39354 0
M  V30 17015 C 1550.13 1.15565 -4.0857 0
M  V30 17016 O 1551.16 0.904191 -3.44533 0
M  V30 17017 O 1550.02 1.62886 -5.21661 0
M  V30 17018 H 1547.11 0.280196 -0.778087 0
M  V30 17019 H 1549.66 -0.183507 -1.68705 0
M  V30 17020 H 1548.43 -0.0913527 -3.91193 0
M  V30 17021 H 1548.05 1.60182 -3.63906 0
M  V30 17022 N 1549.05 1.57088 0.126881 0
M  V30 17023 C 1549.98 2.02799 1.15737 0
M  V30 17024 C 1550.96 0.911031 1.43646 0
M  V30 17025 O 1552.14 1.18021 1.54223 0
M  V30 17026 C 1549.27 2.42565 2.48555 0
M  V30 17027 C 1548.23 3.57631 2.35125 0
M  V30 17028 C 1547.55 3.83272 3.72836 0
M  V30 17029 C 1548.85 4.89625 1.81838 0
M  V30 17030 H 1550.55 2.89136 0.777207 0
M  V30 17031 H 1548.09 1.39101 0.372416 0
M  V30 17032 H 1550.05 2.73146 3.20888 0
M  V30 17033 H 1548.77 1.53188 2.88446 0
M  V30 17034 H 1547.43 3.27247 1.65242 0
M  V30 17035 H 1547.08 2.91114 4.10197 0
M  V30 17036 H 1546.78 4.60721 3.64705 0
M  V30 17037 H 1548.3 4.16298 4.46686 0
M  V30 17038 H 1549.72 5.18793 2.43981 0
M  V30 17039 H 1548.11 5.71018 1.84548 0
M  V30 17040 H 1549.18 4.7866 0.775385 0
M  V30 17041 N 1550.53 -0.396836 1.52522 0
M  V30 17042 C 1551.47 -1.48427 1.76743 0
M  V30 17043 C 1552.44 -1.54481 0.610321 0
M  V30 17044 O 1553.63 -1.7086 0.849201 0
M  V30 17045 C 1550.77 -2.85744 1.93505 0
M  V30 17046 C 1549.88 -2.88904 3.21183 0
M  V30 17047 C 1549.02 -4.17598 3.28307 0
M  V30 17048 C 1548.06 -4.14779 4.50138 0
M  V30 17049 N 1547.19 -5.35065 4.54587 0
M  V30 17050 H 1552.03 -1.27075 2.69548 0
M  V30 17051 H 1549.57 -0.61661 1.33553 0
M  V30 17052 H 1551.53 -3.65474 2.01208 0
M  V30 17053 H 1550.16 -3.05564 1.04069 0
M  V30 17054 H 1549.21 -2.01592 3.22591 0
M  V30 17055 H 1550.52 -2.82688 4.10961 0
M  V30 17056 H 1549.68 -5.05727 3.35149 0
M  V30 17057 H 1548.41 -4.26526 2.36489 0
M  V30 17058 H 1547.42 -3.25039 4.4343 0
M  V30 17059 H 1548.64 -4.07481 5.43264 0
M  V30 17060 H 1546.59 -5.44638 3.65658 0
M  V30 17061 H 1546.51 -5.30894 5.38227 0
M  V30 17062 H 1547.78 -6.25114 4.65675 0
M  V30 17063 N 1552.01 -1.43353 -0.654814 0
M  V30 17064 C 1553.23 -1.48536 -1.44748 0
M  V30 17065 C 1553.66 -0.103991 -1.87812 0
M  V30 17066 O 1553.01 0.901924 -1.57274 0
M  V30 17067 C 1553.06 -2.43498 -2.65972 0
M  V30 17068 O 1552.17 -1.92014 -3.64972 0
M  V30 17069 H 1551.51 -0.502476 -0.434067 0
M  V30 17070 H 1554.04 -1.88251 -0.801427 0
M  V30 17071 H 1554.05 -2.60748 -3.13806 0
M  V30 17072 H 1552.72 -3.43847 -2.3397 0
M  V30 17073 H 1551.3 -1.84417 -3.24106 0
M  V30 17074 N 1553.48 0.89303 -1.29857 0
M  V30 17075 C 1554.73 1.64657 -1.18389 0
M  V30 17076 C 1555.06 1.92417 0.262587 0
M  V30 17077 O 1554.34 1.53936 1.18887 0
M  V30 17078 C 1554.62 2.99148 -2.00456 0
M  V30 17079 C 1554.47 2.78411 -3.53281 0
M  V30 17080 C 1555.79 3.99968 -1.83613 0
M  V30 17081 H 1552.91 0.59752 -0.431438 0
M  V30 17082 H 1555.55 1.03397 -1.59402 0
M  V30 17083 H 1553.7 3.51435 -1.65607 0
M  V30 17084 H 1555.38 2.32974 -3.98147 0
M  V30 17085 H 1553.62 2.13067 -3.77869 0
M  V30 17086 H 1554.29 3.74008 -4.05983 0
M  V30 17087 H 1556.77 3.56813 -2.14064 0
M  V30 17088 H 1555.64 4.91997 -2.43373 0
M  V30 17089 H 1555.9 4.34928 -0.793098 0
M  V30 17090 N 1554.96 1.12442 1.10429 0
M  V30 17091 C 1555.87 0.805377 2.20343 0
M  V30 17092 C 1556.89 -0.205836 1.72778 0
M  V30 17093 O 1558.06 -0.0394195 2.01361 0
M  V30 17094 C 1555.13 0.264711 3.45688 0
M  V30 17095 C 1554.19 1.33586 4.07987 0
M  V30 17096 C 1553.42 0.8209 5.27349 0
M  V30 17097 O 1553.65 -0.345303 5.69354 0
M  V30 17098 O 1552.58 1.59052 5.80505 0
M  V30 17099 H 1556.41 1.7234 2.50065 0
M  V30 17100 H 1553.99 0.901084 1.19167 0
M  V30 17101 H 1555.87 -0.0319164 4.21388 0
M  V30 17102 H 1554.55 -0.625869 3.17592 0
M  V30 17103 H 1553.45 1.68566 3.33971 0
M  V30 17104 H 1554.79 2.20021 4.40286 0
M  V30 17105 N 1556.44 -1.28223 0.91633 0
M  V30 17106 C 1557.35 -2.30956 0.411882 0
M  V30 17107 C 1558.37 -1.66609 -0.501753 0
M  V30 17108 O 1559.54 -1.97641 -0.387317 0
M  V30 17109 C 1556.61 -3.45053 -0.337558 0
M  V30 17110 C 1555.67 -4.2495 0.609609 0
M  V30 17111 C 1554.9 -5.33598 -0.104159 0
M  V30 17112 O 1555.12 -5.54786 -1.32546 0
M  V30 17113 O 1554.06 -5.99272 0.561851 0
M  V30 17114 H 1557.88 -2.76118 1.26461 0
M  V30 17115 H 1555.47 -1.32964 0.681246 0
M  V30 17116 H 1557.35 -4.14477 -0.760722 0
M  V30 17117 H 1556.03 -3.01968 -1.16607 0
M  V30 17118 H 1554.93 -3.58104 1.08222 0
M  V30 17119 H 1556.27 -4.7172 1.40502 0
M  V30 17120 N 1557.92 -0.68059 -1.42147 0
M  V30 17121 C 1558.86 -0.00585926 -2.30799 0
M  V30 17122 C 1559.83 0.786778 -1.46284 0
M  V30 17123 O 1561.02 0.757853 -1.75103 0
M  V30 17124 C 1558.16 0.935319 -3.32183 0
M  V30 17125 C 1557.27 0.13589 -4.31786 0
M  V30 17126 C 1556.41 1.07335 -5.20243 0
M  V30 17127 C 1555.45 0.265943 -6.11522 0
M  V30 17128 N 1554.58 1.15641 -6.92511 0
M  V30 17129 H 1559.42 -0.767651 -2.87943 0
M  V30 17130 H 1556.96 -0.39029 -1.41828 0
M  V30 17131 H 1558.92 1.49489 -3.89498 0
M  V30 17132 H 1557.55 1.66368 -2.76626 0
M  V30 17133 H 1556.6 -0.540383 -3.76542 0
M  V30 17134 H 1557.91 -0.490716 -4.9638 0
M  V30 17135 H 1557.07 1.70265 -5.82319 0
M  V30 17136 H 1555.81 1.73383 -4.55839 0
M  V30 17137 H 1554.81 -0.376531 -5.48509 0
M  V30 17138 H 1556.04 -0.39053 -6.77976 0
M  V30 17139 H 1553.98 1.80319 -6.30731 0
M  V30 17140 H 1553.9 0.585022 -7.53733 0
M  V30 17141 H 1555.17 1.773 -7.59069 0
M  V30 17142 N 1559.4 1.51781 -0.424309 0
M  V30 17143 C 1560.33 2.30313 0.384462 0
M  V30 17144 C 1561.31 1.35166 1.03268 0
M  V30 17145 O 1562.49 1.64081 1.0388 0
M  V30 17146 C 1559.62 3.13566 1.49311 0
M  V30 17147 C 1558.58 4.16884 0.969096 0
M  V30 17148 C 1557.9 4.88576 2.17251 0
M  V30 17149 C 1559.2 5.22298 0.0125613 0
M  V30 17150 H 1560.9 2.98172 -0.270871 0
M  V30 17151 H 1558.44 1.43396 -0.131712 0
M  V30 17152 H 1560.39 3.67279 2.06602 0
M  V30 17153 H 1559.12 2.43504 2.17655 0
M  V30 17154 H 1557.78 3.64203 0.418494 0
M  V30 17155 H 1557.43 4.15029 2.84183 0
M  V30 17156 H 1557.13 5.58432 1.82833 0
M  V30 17157 H 1558.65 5.45107 2.75119 0
M  V30 17158 H 1560.06 5.71161 0.494744 0
M  V30 17159 H 1558.46 5.99606 -0.243544 0
M  V30 17160 H 1559.53 4.75935 -0.92813 0
M  V30 17161 N 1560.87 0.155222 1.56834 0
M  V30 17162 C 1562.1 -0.503763 2.01189 0
M  V30 17163 C 1562.52 -1.57086 1.03468 0
M  V30 17164 O 1561.88 -1.81296 0.0116895 0
M  V30 17165 C 1561.93 -1.07373 3.44243 0
M  V30 17166 O 1561.03 -2.18834 3.49551 0
M  V30 17167 H 1560.37 -0.122368 0.652627 0
M  V30 17168 H 1562.9 0.254377 2.03013 0
M  V30 17169 H 1562.91 -1.40036 3.83215 0
M  V30 17170 H 1561.59 -0.292339 4.14871 0
M  V30 17171 H 1560.17 -1.87337 3.22427 0
M  V30 17172 N 1562.35 -1.57153 -0.118549 0
M  V30 17173 C 1563.28 -2.03409 -1.1466 0
M  V30 17174 C 1564.26 -0.918636 -1.43161 0
M  V30 17175 O 1565.45 -1.18838 -1.53594 0
M  V30 17176 C 1562.58 -2.43879 -2.47265 0
M  V30 17177 C 1561.53 -3.58873 -2.33225 0
M  V30 17178 C 1560.86 -3.85244 -3.70798 0
M  V30 17179 C 1562.16 -4.90582 -1.79239 0
M  V30 17180 H 1563.85 -2.89545 -0.761862 0
M  V30 17181 H 1561.4 -1.39296 -0.365034 0
M  V30 17182 H 1563.35 -2.74844 -3.19435 0
M  V30 17183 H 1562.07 -1.54715 -2.8763 0
M  V30 17184 H 1560.73 -3.28119 -1.63504 0
M  V30 17185 H 1560.38 -2.93285 -4.08648 0
M  V30 17186 H 1560.08 -4.62649 -3.62257 0
M  V30 17187 H 1561.61 -4.18661 -4.44472 0
M  V30 17188 H 1563.02 -5.20079 -2.41227 0
M  V30 17189 H 1561.42 -5.71989 -1.81518 0
M  V30 17190 H 1562.49 -4.79065 -0.74999 0
M  V30 17191 N 1563.83 0.388742 -1.5273 0
M  V30 17192 C 1564.79 1.45759 -1.76881 0
M  V30 17193 C 1565.79 1.47565 -0.63884 0
M  V30 17194 O 1566.98 1.48731 -0.906895 0
M  V30 17195 C 1564.11 2.85045 -1.86981 0
M  V30 17196 H 1565.31 1.25629 -2.72319 0
M  V30 17197 H 1562.86 0.620497 -1.43456 0
M  V30 17198 H 1563.6 3.1052 -0.935296 0
M  V30 17199 H 1563.38 2.85136 -2.69147 0
M  V30 17200 H 1564.87 3.62492 -2.07338 0
M  V30 17201 N 1565.31 1.43698 0.647203 0
M  V30 17202 C 1566.24 1.45295 1.77262 0
M  V30 17203 C 1567.25 0.34831 1.5903 0
M  V30 17204 O 1568.44 0.613106 1.6764 0
M  V30 17205 C 1565.54 1.25584 3.14773 0
M  V30 17206 C 1564.71 2.48998 3.59609 0
M  V30 17207 C 1563.77 2.24423 4.75942 0
M  V30 17208 O 1562.8 2.97813 4.85073 0
M  V30 17209 N 1564 1.26465 5.66557 0
M  V30 17210 H 1566.77 2.42311 1.76368 0
M  V30 17211 H 1564.33 1.38931 0.831247 0
M  V30 17212 H 1566.32 1.07016 3.90294 0
M  V30 17213 H 1564.89 0.369927 3.10403 0
M  V30 17214 H 1564.11 2.82951 2.74467 0
M  V30 17215 H 1565.4 3.31119 3.86313 0
M  V30 17216 H 1564.8 0.658206 5.61858 0
M  V30 17217 H 1563.35 1.13879 6.41775 0
M  V30 17218 N 1566.79 -0.886131 1.30328 0
M  V30 17219 C 1567.7 -2.02453 1.18532 0
M  V30 17220 C 1568.71 -1.7368 0.105506 0
M  V30 17221 O 1569.89 -1.98838 0.320217 0
M  V30 17222 C 1566.95 -3.3543 0.876792 0
M  V30 17223 C 1566.01 -3.77633 2.04185 0
M  V30 17224 C 1565.25 -5.04264 1.74795 0
M  V30 17225 O 1565.47 -5.66388 0.675323 0
M  V30 17226 O 1564.4 -5.42847 2.60001 0
M  V30 17227 H 1568.23 -2.15333 2.14162 0
M  V30 17228 H 1565.82 -1.01193 1.09911 0
M  V30 17229 H 1567.7 -4.15206 0.719882 0
M  V30 17230 H 1566.37 -3.23662 -0.0496117 0
M  V30 17231 H 1565.28 -2.98567 2.25408 0
M  V30 17232 H 1566.61 -3.94004 2.94994 0
M  V30 17233 N 1568.26 -1.13026 -1.09832 0
M  V30 17234 C 1569.54 -0.800667 -1.78462 0
M  V30 17235 C 1569.92 0.708508 -1.98855 0
M  V30 17236 O 1569.27 1.64436 -1.58661 0
M  V30 17237 C 1569.48 -1.58284 -3.11042 0
M  V30 17238 C 1570.83 -1.77285 -3.85818 0
M  V30 17239 O 1571.85 -1.54848 -3.20781 0
M  V30 17240 O 1570.71 -2.14693 -5.02563 0
M  V30 17241 H 1567.8 -0.291895 -0.773774 0
M  V30 17242 H 1570.35 -1.23464 -1.16425 0
M  V30 17243 H 1569.12 -2.60867 -2.91657 0
M  V30 17244 H 1568.75 -1.14353 -3.80801 0
M  V30 17245 N 1569.74 1.27735 -0.923117 0
M  V30 17246 C 1570.67 2.29395 -0.435907 0
M  V30 17247 C 1571.65 1.62542 0.501403 0
M  V30 17248 O 1572.84 1.89884 0.407135 0
M  V30 17249 C 1569.97 3.45856 0.316348 0
M  V30 17250 C 1568.92 4.24672 -0.532697 0
M  V30 17251 C 1568.25 5.33563 0.348454 0
M  V30 17252 C 1569.55 4.90494 -1.79481 0
M  V30 17253 H 1571.24 2.70398 -1.28551 0
M  V30 17254 H 1568.79 1.29989 -0.619581 0
M  V30 17255 H 1570.74 4.1607 0.668098 0
M  V30 17256 H 1569.47 3.03758 1.19994 0
M  V30 17257 H 1568.12 3.56198 -0.867093 0
M  V30 17258 H 1567.77 4.87708 1.23086 0
M  V30 17259 H 1567.47 5.87202 -0.216104 0
M  V30 17260 H 1569 6.06622 0.695878 0
M  V30 17261 H 1570.41 5.53019 -1.5114 0
M  V30 17262 H 1568.81 5.5417 -2.30251 0
M  V30 17263 H 1569.88 4.14454 -2.51707 0
M  V30 17264 N 1571.22 0.688118 1.41784 0
M  V30 17265 C 1572.47 0.213085 2.00571 0
M  V30 17266 C 1572.78 -1.19176 1.55101 0
M  V30 17267 O 1573.99 -1.76387 2.06397 0
M  V30 17268 C 1572.44 0.330075 3.58383 0
M  V30 17269 C 1572.05 1.73981 4.12837 0
M  V30 17270 C 1573.8 -0.0855651 4.24414 0
M  V30 17271 C 1571.7 1.80886 5.63058 0
M  V30 17272 H 1570.63 0.075906 0.750169 0
M  V30 17273 H 1573.28 0.855236 1.62351 0
M  V30 17274 H 1571.67 -0.380199 3.94171 0
M  V30 17275 H 1572.84 2.47825 3.88484 0
M  V30 17276 H 1571.16 2.10447 3.59306 0
M  V30 17277 H 1573.75 -0.0543142 5.34672 0
M  V30 17278 H 1574.1 -1.12307 4.00865 0
M  V30 17279 H 1574.63 0.574169 3.93635 0
M  V30 17280 H 1571.37 2.82663 5.91424 0
M  V30 17281 H 1570.89 1.11417 5.89361 0
M  V30 17282 H 1572.57 1.56835 6.27704 0
M  V30 17283 N 1572.7 -1.51554 0.432352 0
M  V30 17284 C 1573.92 -2.06947 -0.136995 0
M  V30 17285 C 1574.35 -1.29817 -1.36122 0
M  V30 17286 O 1573.71 -0.334733 -1.78183 0
M  V30 17287 C 1573.75 -3.57871 -0.442785 0
M  V30 17288 O 1572.86 -3.82966 -1.53007 0
M  V30 17289 H 1572.2 -0.663988 -0.00405152 0
M  V30 17290 H 1574.73 -1.95225 0.612249 0
M  V30 17291 H 1574.74 -4.02042 -0.694694 0
M  V30 17292 H 1573.41 -4.13436 0.452013 0
M  V30 17293 H 1571.99 -3.50661 -1.26851 0
M  V30 17294 N 1574.18 -0.163538 -1.56749 0
M  V30 17295 C 1575.12 0.786745 -2.18891 0
M  V30 17296 C 1576.12 1.24323 -1.15066 0
M  V30 17297 O 1577.32 1.20979 -1.33282 0
M  V30 17298 H 1573.7 0.271967 -0.701098 0
M  V30 17299 H 1575.67 0.2386 -2.97445 0
M  V30 17300 C 1574.42 2.00905 -2.83782 0
M  V30 17301 H 1573.74 1.66681 -3.63397 0
M  V30 17302 H 1575.18 2.65302 -3.30743 0
M  V30 17303 C 1573.64 2.8277 -1.83148 0
M  V30 17304 O 1574.17 3.79666 -1.31213 0
M  V30 17305 N 1572.38 2.47629 -1.52079 0
M  V30 17306 H 1571.92 1.68896 -1.94504 0
M  V30 17307 H 1571.88 3.02693 -0.849963 0
M  V30 17308 N 1575.65 1.57214 0.110213 0
M  V30 17309 C 1577.07 1.52706 0.464004 0
M  V30 17310 C 1577.27 0.87792 1.81369 0
M  V30 17311 O 1576.33 0.463987 2.482 0
M  V30 17312 C 1577.64 2.97457 0.440406 0
M  V30 17313 C 1579.19 3.08594 0.523336 0
M  V30 17314 C 1579.66 4.54923 0.53004 0
M  V30 17315 N 1581.15 4.59411 0.591228 0
M  V30 17316 C 1581.89 5.7006 0.618007 0
M  V30 17317 N 1581.38 6.9018 0.601901 0
M  V30 17318 N 1583.18 5.58192 0.661679 0
M  V30 17319 H 1575.33 1.97794 -0.77403 0
M  V30 17320 H 1577.59 0.903673 -0.286496 0
M  V30 17321 H 1577.3 3.48356 -0.483845 0
M  V30 17322 H 1577.17 3.55356 1.26498 0
M  V30 17323 H 1579.56 2.57692 1.43801 0
M  V30 17324 H 1579.64 2.53674 -0.329095 0
M  V30 17325 H 1579.28 5.06472 -0.380623 0
M  V30 17326 H 1579.21 5.07663 1.39948 0
M  V30 17327 H 1581.7 3.72953 0.609483 0
M  V30 17328 H 1582.02 7.70267 0.6252 0
M  V30 17329 H 1580.36 6.92665 0.569186 0
M  V30 17330 H 1583.55 4.63256 0.671686 0
M  V30 17331 H 1583.73 6.44432 0.67908 0
M  V30 17332 N 1577.13 -0.380637 1.52934 0
M  V30 17333 C 1578.08 -1.48584 1.78957 0
M  V30 17334 C 1579.07 -1.56103 0.657901 0
M  V30 17335 O 1580.28 -1.59169 0.84055 0
M  V30 17336 H 1576.66 -0.494687 0.566382 0
M  V30 17337 H 1578.63 -1.23833 2.71492 0
M  V30 17338 C 1577.38 -2.85615 1.98291 0
M  V30 17339 H 1576.7 -2.80583 2.84804 0
M  V30 17340 H 1578.14 -3.62164 2.20485 0
M  V30 17341 C 1576.6 -3.28267 0.757764 0
M  V30 17342 O 1577.13 -4.01654 -0.0608007 0
M  V30 17343 N 1575.33 -2.84641 0.585486 0
M  V30 17344 H 1574.88 -2.25087 1.25274 0
M  V30 17345 H 1574.84 -3.13536 -0.232871 0
M  V30 17346 N 1578.61 -1.44039 -0.639573 0
M  V30 17347 C 1579.54 -1.46233 -1.76489 0
M  V30 17348 C 1580.56 -0.356739 -1.58843 0
M  V30 17349 O 1581.74 -0.621988 -1.67313 0
M  V30 17350 C 1578.84 -1.27252 -3.14102 0
M  V30 17351 C 1578.02 -2.50902 -3.58283 0
M  V30 17352 C 1577.08 -2.26944 -4.74745 0
M  V30 17353 O 1576.1 -3.00381 -4.83487 0
M  V30 17354 N 1577.3 -1.29468 -5.65878 0
M  V30 17355 H 1580.07 -2.43243 -1.7508 0
M  V30 17356 H 1577.63 -1.3937 -0.823867 0
M  V30 17357 H 1579.62 -1.09085 -3.89721 0
M  V30 17358 H 1578.19 -0.386383 -3.10203 0
M  V30 17359 H 1577.41 -2.84403 -2.72963 0
M  V30 17360 H 1578.7 -3.33163 -3.84552 0
M  V30 17361 H 1578.1 -0.687994 -5.61501 0
M  V30 17362 H 1576.66 -1.17281 -6.41162 0
M  V30 17363 N 1580.09 0.879207 -1.30796 0
M  V30 17364 C 1581.34 1.62625 -1.19315 0
M  V30 17365 C 1581.65 1.93999 0.249731 0
M  V30 17366 O 1582.86 2.67112 0.486129 0
M  V30 17367 C 1581.31 2.93129 -2.08815 0
M  V30 17368 C 1580.92 2.69272 -3.58045 0
M  V30 17369 C 1582.66 3.71105 -2.0611 0
M  V30 17370 C 1580.57 3.95628 -4.39582 0
M  V30 17371 H 1579.5 0.61015 -0.442981 0
M  V30 17372 H 1582.15 0.972892 -1.55586 0
M  V30 17373 H 1580.53 3.59789 -1.65432 0
M  V30 17374 H 1581.71 2.11078 -4.09613 0
M  V30 17375 H 1580.02 2.04664 -3.62632 0
M  V30 17376 H 1582.62 4.64824 -2.64277 0
M  V30 17377 H 1582.96 4.02946 -1.04597 0
M  V30 17378 H 1583.5 3.11315 -2.47644 0
M  V30 17379 H 1580.24 3.68943 -5.41813 0
M  V30 17380 H 1579.76 4.53307 -3.92775 0
M  V30 17381 H 1581.43 4.63597 -4.51317 0
M  V30 17382 N 1581.57 1.13606 1.09231 0
M  V30 17383 C 1582.82 0.897278 1.81089 0
M  V30 17384 C 1583.14 -0.578066 1.86235 0
M  V30 17385 O 1582.41 -1.42018 1.34935 0
M  V30 17386 H 1580.99 0.328971 0.670662 0
M  V30 17387 H 1583.65 1.433 1.32103 0
M  V30 17388 H 1582.74 1.28979 2.84202 0
M  V30 17389 N 1583.05 -1.27244 0.929878 0
M  V30 17390 C 1583.99 -2.28755 0.421202 0
M  V30 17391 C 1584.99 -1.61988 -0.49561 0
M  V30 17392 O 1586.19 -1.76049 -0.375071 0
M  V30 17393 H 1582.57 -0.742741 0.117646 0
M  V30 17394 H 1584.54 -2.6907 1.29011 0
M  V30 17395 C 1583.29 -3.46327 -0.308737 0
M  V30 17396 H 1582.61 -3.97917 0.387552 0
M  V30 17397 H 1584.05 -4.19308 -0.629052 0
M  V30 17398 C 1582.51 -3.00535 -1.5225 0
M  V30 17399 O 1583.04 -3.04395 -2.62119 0
M  V30 17400 N 1581.25 -2.56007 -1.3751 0
M  V30 17401 H 1580.79 -2.53065 -0.481215 0
M  V30 17402 H 1580.75 -2.25731 -2.18845 0
M  V30 17403 N 1584.52 -0.695628 -1.41417 0
M  V30 17404 C 1585.46 0.00883515 -2.29198 0
M  V30 17405 C 1586.47 0.744337 -1.44788 0
M  V30 17406 O 1587.66 0.59503 -1.6829 0
M  V30 17407 C 1584.76 1.0366 -3.22657 0
M  V30 17408 C 1583.93 0.37071 -4.35826 0
M  V30 17409 C 1582.99 1.3011 -5.09861 0
M  V30 17410 O 1582.02 0.793461 -5.63642 0
M  V30 17411 N 1583.22 2.63343 -5.1733 0
M  V30 17412 H 1585.98 -0.744795 -2.90298 0
M  V30 17413 H 1583.54 -0.541663 -1.5257 0
M  V30 17414 H 1585.54 1.66075 -3.69054 0
M  V30 17415 H 1584.11 1.69177 -2.62865 0
M  V30 17416 H 1583.33 -0.433315 -3.91811 0
M  V30 17417 H 1584.61 -0.0923178 -5.08716 0
M  V30 17418 H 1584.01 3.07103 -4.75083 0
M  V30 17419 H 1582.57 3.20952 -5.67303 0
M  V30 17420 N 1586 1.51322 -0.440383 0
M  V30 17421 C 1586.95 2.2941 0.383883 0
M  V30 17422 C 1587.94 1.35388 1.01816 0
M  V30 17423 O 1589.15 1.52716 0.952775 0
M  V30 17424 H 1585.52 0.738354 0.142611 0
M  V30 17425 H 1587.5 2.96933 -0.295532 0
M  V30 17426 C 1586.24 3.15055 1.47091 0
M  V30 17427 H 1585.57 3.87292 0.992214 0
M  V30 17428 H 1587.01 3.72744 2.02084 0
M  V30 17429 C 1585.47 2.30628 2.45586 0
M  V30 17430 O 1586 1.96801 3.50189 0
M  V30 17431 N 1584.2 1.93792 2.16548 0
M  V30 17432 H 1583.75 2.215 1.31512 0
M  V30 17433 H 1583.71 1.37601 2.82689 0
M  V30 17434 N 1587.48 0.171848 1.5666 0
M  V30 17435 C 1588.43 -0.758237 2.17989 0
M  V30 17436 C 1589.4 -1.22654 1.12006 0
M  V30 17437 O 1590.58 -1.29461 1.40159 0
M  V30 17438 C 1587.72 -1.98189 2.82516 0
M  V30 17439 C 1586.83 -1.55711 4.02962 0
M  V30 17440 C 1585.97 -2.73447 4.55412 0
M  V30 17441 C 1585.01 -2.27462 5.68267 0
M  V30 17442 N 1584.15 -3.38293 6.15225 0
M  V30 17443 H 1588.99 -0.228467 2.97123 0
M  V30 17444 H 1586.52 -0.10104 1.46753 0
M  V30 17445 H 1588.48 -2.6996 3.18084 0
M  V30 17446 H 1587.11 -2.48536 2.05985 0
M  V30 17447 H 1586.16 -0.736126 3.7321 0
M  V30 17448 H 1587.47 -1.17957 4.84652 0
M  V30 17449 H 1586.63 -3.53374 4.93165 0
M  V30 17450 H 1585.37 -3.14462 3.7278 0
M  V30 17451 H 1584.37 -1.45982 5.30065 0
M  V30 17452 H 1585.6 -1.87505 6.52701 0
M  V30 17453 H 1583.54 -3.78882 5.35522 0
M  V30 17454 H 1583.46 -3.04633 6.91907 0
M  V30 17455 H 1584.73 -4.18503 6.57629 0
M  V30 17456 N 1588.96 -1.5727 -0.101874 0
M  V30 17457 C 1589.89 -2.04614 -1.12496 0
M  V30 17458 C 1590.87 -0.933768 -1.42179 0
M  V30 17459 O 1592.05 -1.2046 -1.52325 0
M  V30 17460 C 1589.18 -2.46488 -2.44665 0
M  V30 17461 C 1588.14 -3.61327 -2.29406 0
M  V30 17462 C 1587.46 -3.89155 -3.66691 0
M  V30 17463 C 1588.76 -4.92455 -1.74026 0
M  V30 17464 H 1590.46 -2.90336 -0.731109 0
M  V30 17465 H 1588 -1.39676 -0.350239 0
M  V30 17466 H 1589.96 -2.78216 -3.16502 0
M  V30 17467 H 1588.68 -1.57757 -2.85972 0
M  V30 17468 H 1587.34 -3.29835 -1.60015 0
M  V30 17469 H 1586.99 -2.97603 -4.05514 0
M  V30 17470 H 1586.69 -4.66465 -3.57329 0
M  V30 17471 H 1588.21 -4.23352 -4.40006 0
M  V30 17472 H 1589.63 -5.22609 -2.35697 0
M  V30 17473 H 1588.02 -5.73882 -1.75441 0
M  V30 17474 H 1589.09 -4.79833 -0.699136 0
M  V30 17475 N 1590.44 0.372521 -1.53134 0
M  V30 17476 C 1591.68 1.11316 -1.68201 0
M  V30 17477 C 1592 1.90662 -0.436714 0
M  V30 17478 O 1593.2 2.67439 -0.467802 0
M  V30 17479 C 1591.66 2.02808 -2.97317 0
M  V30 17480 C 1591.27 1.28806 -4.29084 0
M  V30 17481 C 1593.01 2.76906 -3.2175 0
M  V30 17482 C 1590.92 2.19159 -5.49294 0
M  V30 17483 H 1589.85 0.419264 -0.626685 0
M  V30 17484 H 1592.5 0.374677 -1.79634 0
M  V30 17485 H 1590.88 2.80359 -2.79669 0
M  V30 17486 H 1592.06 0.563661 -4.5734 0
M  V30 17487 H 1590.37 0.665989 -4.1104 0
M  V30 17488 H 1592.97 3.44721 -4.08744 0
M  V30 17489 H 1593.31 3.41894 -2.37517 0
M  V30 17490 H 1593.84 2.06441 -3.4004 0
M  V30 17491 H 1590.58 1.5876 -6.35984 0
M  V30 17492 H 1590.1 2.89468 -5.25327 0
M  V30 17493 H 1591.78 2.78874 -5.83814 0
M  V30 17494 N 1591.91 1.44376 0.631925 0
M  V30 17495 C 1592.85 1.47167 1.75711 0
M  V30 17496 C 1593.86 0.365158 1.58652 0
M  V30 17497 O 1595.05 0.630852 1.66981 0
M  V30 17498 C 1592.15 1.28916 3.13423 0
M  V30 17499 C 1591.32 2.52798 3.56948 0
M  V30 17500 C 1590.38 2.29458 4.73535 0
M  V30 17501 O 1589.41 3.02941 4.81887 0
M  V30 17502 N 1590.61 1.32467 5.65184 0
M  V30 17503 H 1593.37 2.44168 1.73788 0
M  V30 17504 H 1590.93 1.39805 0.816465 0
M  V30 17505 H 1592.93 1.1115 3.89137 0
M  V30 17506 H 1591.5 0.402828 3.09994 0
M  V30 17507 H 1590.72 2.85846 2.71451 0
M  V30 17508 H 1592 3.35198 3.82779 0
M  V30 17509 H 1591.4 0.717762 5.61128 0
M  V30 17510 H 1589.96 1.2068 6.40531 0
M  V30 17511 N 1593.39 -0.872258 1.31261 0
M  V30 17512 C 1594.3 -2.01185 1.20673 0
M  V30 17513 C 1595.32 -1.73558 0.123921 0
M  V30 17514 O 1596.49 -1.98487 0.341288 0
M  V30 17515 C 1593.56 -3.34481 0.91232 0
M  V30 17516 C 1592.62 -3.75446 2.08179 0
M  V30 17517 C 1591.85 -5.02382 1.80134 0
M  V30 17518 O 1592.08 -5.6564 0.735358 0
M  V30 17519 O 1591.01 -5.40059 2.65744 0
M  V30 17520 H 1594.84 -2.13049 2.16434 0
M  V30 17521 H 1592.42 -1.00021 1.10978 0
M  V30 17522 H 1594.3 -4.14419 0.763879 0
M  V30 17523 H 1592.98 -3.23696 -0.0152802 0
M  V30 17524 H 1591.88 -2.96159 2.28562 0
M  V30 17525 H 1593.22 -3.90853 2.99156 0
M  V30 17526 N 1594.87 -1.14184 -1.08627 0
M  V30 17527 C 1595.8 -0.849455 -2.17501 0
M  V30 17528 C 1596.78 0.194617 -1.68983 0
M  V30 17529 O 1597.97 0.0517757 -1.94131 0
M  V30 17530 C 1595.1 -0.323685 -3.45788 0
M  V30 17531 C 1594.05 -1.30294 -4.07685 0
M  V30 17532 C 1593.38 -0.636575 -5.30897 0
M  V30 17533 C 1594.68 -2.66441 -4.49229 0
M  V30 17534 H 1596.37 -1.75987 -2.42217 0
M  V30 17535 H 1593.92 -0.847595 -1.16412 0
M  V30 17536 H 1595.87 -0.106754 -4.21265 0
M  V30 17537 H 1594.59 0.62215 -3.20619 0
M  V30 17538 H 1593.25 -1.50601 -3.34238 0
M  V30 17539 H 1592.9 0.314995 -5.02013 0
M  V30 17540 H 1592.6 -1.28998 -5.73266 0
M  V30 17541 H 1594.12 -0.429117 -6.0909 0
M  V30 17542 H 1595.54 -2.50055 -5.15893 0
M  V30 17543 H 1593.93 -3.28033 -5.02508 0
M  V30 17544 H 1595 -3.23486 -3.61226 0
M  V30 17545 N 1596.35 1.26749 -0.936613 0
M  V30 17546 C 1597.3 2.26542 -0.441307 0
M  V30 17547 C 1598.27 1.58503 0.496581 0
M  V30 17548 O 1599.45 1.86259 0.41379 0
M  V30 17549 C 1596.59 3.43866 0.291633 0
M  V30 17550 C 1595.7 4.26592 -0.681397 0
M  V30 17551 C 1594.84 5.31151 0.0722826 0
M  V30 17552 C 1593.88 6.05553 -0.892869 0
M  V30 17553 N 1593.01 7.01891 -0.17124 0
M  V30 17554 H 1597.85 2.68282 -1.29725 0
M  V30 17555 H 1595.39 1.31914 -0.650928 0
M  V30 17556 H 1597.35 4.10711 0.732984 0
M  V30 17557 H 1595.98 3.03051 1.11175 0
M  V30 17558 H 1595.03 3.59579 -1.24126 0
M  V30 17559 H 1596.34 4.78201 -1.41864 0
M  V30 17560 H 1595.5 6.03987 0.57313 0
M  V30 17561 H 1594.24 4.80369 0.842439 0
M  V30 17562 H 1593.24 5.31548 -1.40488 0
M  V30 17563 H 1594.47 6.58424 -1.66296 0
M  V30 17564 H 1592.41 6.53426 0.580507 0
M  V30 17565 H 1592.33 7.5123 -0.847897 0
M  V30 17566 H 1593.6 7.78889 0.308662 0
M  V30 17567 N 1597.83 0.703118 1.41046 0
M  V30 17568 C 1599.05 0.246552 2.05426 0
M  V30 17569 C 1599.47 -1.10704 1.52938 0
M  V30 17570 O 1598.83 -1.69329 0.680733 0
M  V30 17571 C 1598.88 0.203953 3.60924 0
M  V30 17572 O 1598.6 1.50408 4.11472 0
M  V30 17573 C 1600.1 -0.272686 4.42461 0
M  V30 17574 H 1597.32 0.113157 0.66139 0
M  V30 17575 H 1599.86 0.957823 1.80682 0
M  V30 17576 H 1598.02 -0.458194 3.84681 0
M  V30 17577 H 1598.43 1.39622 5.05575 0
M  V30 17578 H 1599.91 -0.251357 5.51427 0
M  V30 17579 H 1600.38 -1.31282 4.1912 0
M  V30 17580 H 1600.99 0.358733 4.23784 0
M  V30 17581 N 1599.3 -1.51086 0.448402 0
M  V30 17582 C 1600.27 -2.26575 -0.3459 0
M  V30 17583 C 1601.27 -1.3045 -0.940178 0
M  V30 17584 O 1602.46 -1.5407 -0.812898 0
M  V30 17585 C 1599.59 -3.06591 -1.49045 0
M  V30 17586 H 1600.78 -2.98232 0.315822 0
M  V30 17587 H 1598.34 -1.54991 0.201851 0
M  V30 17588 H 1599.07 -2.39377 -2.1879 0
M  V30 17589 H 1598.86 -3.77207 -1.07038 0
M  V30 17590 H 1600.35 -3.63743 -2.05135 0
M  V30 17591 N 1600.78 -0.180154 -1.56567 0
M  V30 17592 C 1601.73 0.746666 -2.18389 0
M  V30 17593 C 1602.7 1.22058 -1.12655 0
M  V30 17594 O 1603.88 1.28716 -1.40843 0
M  V30 17595 C 1601.02 1.96688 -2.83563 0
M  V30 17596 C 1600.14 1.53572 -4.03782 0
M  V30 17597 C 1599.27 2.71028 -4.56856 0
M  V30 17598 C 1598.31 2.24445 -5.69465 0
M  V30 17599 N 1597.45 3.35026 -6.17011 0
M  V30 17600 H 1602.29 0.212707 -2.9724 0
M  V30 17601 H 1599.83 0.093256 -1.46804 0
M  V30 17602 H 1601.78 2.68269 -3.19511 0
M  V30 17603 H 1600.41 2.4744 -2.073 0
M  V30 17604 H 1599.47 0.716323 -3.73595 0
M  V30 17605 H 1600.78 1.15385 -4.85271 0
M  V30 17606 H 1599.93 3.50753 -4.95032 0
M  V30 17607 H 1598.67 3.1248 -3.74443 0
M  V30 17608 H 1597.68 1.43169 -5.30832 0
M  V30 17609 H 1598.9 1.84041 -6.53686 0
M  V30 17610 H 1596.85 3.76037 -5.37524 0
M  V30 17611 H 1596.76 3.0096 -6.93512 0
M  V30 17612 H 1598.03 4.15009 -6.59839 0
M  V30 17613 N 1602.26 1.57322 0.0935319 0
M  V30 17614 C 1603.22 2.0121 1.0976 0
M  V30 17615 C 1604.22 0.905839 1.32858 0
M  V30 17616 O 1605.41 1.17128 1.28945 0
M  V30 17617 C 1602.55 2.37414 2.44638 0
M  V30 17618 H 1603.74 2.91134 0.719809 0
M  V30 17619 H 1601.29 1.52588 0.338625 0
M  V30 17620 H 1602.03 1.50449 2.8729 0
M  V30 17621 H 1601.81 3.1812 2.2922 0
M  V30 17622 H 1603.3 2.7202 3.16851 0
M  V30 17623 N 1603.74 -0.364395 1.53329 0
M  V30 17624 C 1604.97 -1.1275 1.7348 0
M  V30 17625 C 1605.38 -1.83002 0.4643 0
M  V30 17626 O 1604.74 -1.73603 -0.562864 0
M  V30 17627 C 1604.79 -2.15691 2.90103 0
M  V30 17628 O 1604.51 -1.48298 4.12237 0
M  V30 17629 C 1606.01 -3.04539 3.22135 0
M  V30 17630 H 1603.23 -0.337084 0.580186 0
M  V30 17631 H 1605.78 -0.422952 2.00078 0
M  V30 17632 H 1603.93 -2.81742 2.65895 0
M  V30 17633 H 1604.34 -2.16896 4.77553 0
M  V30 17634 H 1605.82 -3.72747 4.07141 0
M  V30 17635 H 1606.3 -3.69414 2.3755 0
M  V30 17636 H 1606.9 -2.44103 3.48273 0
M  V30 17637 N 1605.22 -1.44709 -0.62426 0
M  V30 17638 C 1606.15 -1.54934 -1.74693 0
M  V30 17639 C 1607.13 -0.401897 -1.65284 0
M  V30 17640 O 1608.31 -0.622906 -1.83939 0
M  V30 17641 C 1605.44 -1.49976 -3.13248 0
M  V30 17642 C 1604.4 -2.63267 -3.37453 0
M  V30 17643 C 1603.72 -2.43362 -4.76108 0
M  V30 17644 C 1605.02 -4.0538 -3.2934 0
M  V30 17645 H 1606.72 -2.48905 -1.66393 0
M  V30 17646 H 1604.26 -1.19794 -0.799088 0
M  V30 17647 H 1606.22 -1.55729 -3.91569 0
M  V30 17648 H 1604.94 -0.525254 -3.22349 0
M  V30 17649 H 1603.6 -2.56915 -2.61515 0
M  V30 17650 H 1603.25 -1.44088 -4.81921 0
M  V30 17651 H 1602.95 -3.19324 -4.93261 0
M  V30 17652 H 1604.47 -2.50943 -5.56651 0
M  V30 17653 H 1605.88 -4.13064 -3.97556 0
M  V30 17654 H 1604.28 -4.81599 -3.58025 0
M  V30 17655 H 1605.35 -4.28465 -2.27038 0
M  V30 17656 N 1606.69 0.865285 -1.31722 0
M  V30 17657 C 1607.6 2.00542 -1.21738 0
M  V30 17658 C 1608.62 1.7349 -0.133124 0
M  V30 17659 O 1609.8 1.98303 -0.351809 0
M  V30 17660 C 1606.86 3.33993 -0.930045 0
M  V30 17661 C 1605.92 3.74337 -2.10167 0
M  V30 17662 C 1605.16 5.0142 -1.82795 0
M  V30 17663 O 1605.38 5.65242 -0.765345 0
M  V30 17664 O 1604.31 5.38642 -2.68604 0
M  V30 17665 H 1608.14 2.11898 -2.17561 0
M  V30 17666 H 1605.72 0.994313 -1.11507 0
M  V30 17667 H 1607.61 4.14008 -0.785846 0
M  V30 17668 H 1606.28 3.237 -0.00188642 0
M  V30 17669 H 1605.19 2.94943 -2.3013 0
M  V30 17670 H 1606.52 3.89261 -3.01225 0
M  V30 17671 N 1608.17 1.14759 1.0802 0
M  V30 17672 C 1609.1 0.795901 2.14937 0
M  V30 17673 C 1610.12 -0.189008 1.61699 0
M  V30 17674 O 1611.31 0.0332689 1.78469 0
M  V30 17675 C 1608.41 0.161388 3.38516 0
M  V30 17676 C 1607.58 1.18202 4.21126 0
M  V30 17677 C 1606.64 0.570535 5.23098 0
M  V30 17678 O 1605.66 1.2346 5.55649 0
M  V30 17679 N 1606.87 -0.650883 5.76839 0
M  V30 17680 H 1609.63 1.716 2.4571 0
M  V30 17681 H 1607.19 1.04254 1.23866 0
M  V30 17682 H 1609.18 -0.260289 4.03862 0
M  V30 17683 H 1607.75 -0.661917 3.05512 0
M  V30 17684 H 1606.97 1.78049 3.51699 0
M  V30 17685 H 1608.26 1.87135 4.73136 0
M  V30 17686 H 1607.66 -1.2089 5.52632 0
M  V30 17687 H 1606.22 -1.01501 6.43848 0
M  V30 17688 N 1609.65 -1.26251 0.943322 0
M  V30 17689 C 1610.93 -1.88839 0.509831 0
M  V30 17690 C 1611.31 -1.85227 -1.01263 0
M  V30 17691 O 1610.66 -1.30805 -1.87356 0
M  V30 17692 C 1610.87 -3.32076 1.07361 0
M  V30 17693 C 1612.21 -4.0891 1.14357 0
M  V30 17694 O 1613.24 -3.41153 1.02435 0
M  V30 17695 O 1612.1 -5.30088 1.32926 0
M  V30 17696 H 1609.19 -0.810069 0.166484 0
M  V30 17697 H 1611.74 -1.34405 1.03602 0
M  V30 17698 H 1610.51 -3.29077 2.11716 0
M  V30 17699 H 1610.13 -3.94052 0.529991 0
M  V30 17700 N 1611.13 -0.710588 -1.40671 0
M  V30 17701 C 1612.35 -0.256007 -2.05814 0
M  V30 17702 C 1612.78 1.09178 -1.53173 0
M  V30 17703 O 1612.14 1.68665 -0.664977 0
M  V30 17704 C 1612.19 -0.240528 -3.59797 0
M  V30 17705 O 1611.29 0.779859 -4.04959 0
M  V30 17706 H 1610.63 -0.121326 -0.652822 0
M  V30 17707 H 1613.16 -0.969667 -1.80163 0
M  V30 17708 H 1613.17 -0.0765027 -4.07928 0
M  V30 17709 H 1611.85 -1.22411 -3.97478 0
M  V30 17710 H 1610.42 0.583965 -3.68299 0
M  V30 17711 N 1612.61 1.50847 -0.456408 0
M  V30 17712 C 1613.57 2.26755 0.33388 0
M  V30 17713 C 1614.57 1.30947 0.933247 0
M  V30 17714 O 1615.76 1.54499 0.804716 0
M  V30 17715 C 1612.89 3.07378 1.47417 0
M  V30 17716 H 1614.09 2.98061 -0.331634 0
M  V30 17717 H 1611.64 1.54882 -0.210067 0
M  V30 17718 H 1612.37 2.40534 2.17518 0
M  V30 17719 H 1612.16 3.7777 1.05036 0
M  V30 17720 H 1613.65 3.64826 2.03204 0
M  V30 17721 N 1614.09 0.188454 1.56469 0
M  V30 17722 C 1615.03 -0.735074 2.18781 0
M  V30 17723 C 1616 -1.21459 1.133 0
M  V30 17724 O 1617.19 -1.27967 1.41524 0
M  V30 17725 C 1614.33 -1.95181 2.84602 0
M  V30 17726 C 1613.44 -1.51428 4.0459 0
M  V30 17727 C 1612.58 -2.68601 4.58287 0
M  V30 17728 C 1611.61 -2.21422 5.70648 0
M  V30 17729 N 1610.75 -3.31749 6.18779 0
M  V30 17730 H 1615.59 -0.19694 2.97349 0
M  V30 17731 H 1613.13 -0.0854693 1.46851 0
M  V30 17732 H 1615.09 -2.66571 3.2093 0
M  V30 17733 H 1613.72 -2.46337 2.0861 0
M  V30 17734 H 1612.77 -0.6965 3.73969 0
M  V30 17735 H 1614.08 -1.1281 4.85876 0
M  V30 17736 H 1613.23 -3.48123 4.96885 0
M  V30 17737 H 1611.97 -3.1049 3.76095 0
M  V30 17738 H 1610.98 -1.40352 5.31584 0
M  V30 17739 H 1612.2 -1.80572 6.54653 0
M  V30 17740 H 1610.15 -3.73181 5.39511 0
M  V30 17741 H 1610.07 -2.97277 6.95099 0
M  V30 17742 H 1611.33 -4.11504 6.62031 0
M  V30 17743 N 1615.56 -1.5737 -0.0851874 0
M  V30 17744 C 1616.51 -2.02758 -1.10262 0
M  V30 17745 C 1617.48 -0.905702 -1.39235 0
M  V30 17746 O 1618.67 -1.17241 -1.50529 0
M  V30 17747 C 1615.81 -2.46528 -2.41492 0
M  V30 17748 C 1614.92 -3.72278 -2.19165 0
M  V30 17749 C 1614.05 -4.04885 -3.43863 0
M  V30 17750 C 1613.09 -5.23715 -3.16842 0
M  V30 17751 N 1612.23 -5.52026 -4.33833 0
M  V30 17752 H 1617.07 -2.89453 -0.708583 0
M  V30 17753 H 1614.61 -1.43156 -0.338332 0
M  V30 17754 H 1616.56 -2.69952 -3.18091 0
M  V30 17755 H 1615.19 -1.62829 -2.78723 0
M  V30 17756 H 1614.25 -3.56272 -1.33321 0
M  V30 17757 H 1615.56 -4.5902 -1.95197 0
M  V30 17758 H 1614.71 -4.29138 -4.28865 0
M  V30 17759 H 1613.45 -3.16683 -3.70895 0
M  V30 17760 H 1612.46 -4.99272 -2.30234 0
M  V30 17761 H 1613.68 -6.13523 -2.91146 0
M  V30 17762 H 1611.63 -4.66784 -4.60922 0
M  V30 17763 H 1611.54 -6.3316 -4.13091 0
M  V30 17764 H 1612.81 -5.80822 -5.19871 0
M  V30 17765 N 1617.04 0.356258 -1.53521 0
M  V30 17766 C 1617.95 1.46055 -1.83589 0
M  V30 17767 C 1618.97 1.58176 -0.724997 0
M  V30 17768 O 1620.14 1.73894 -1.01601 0
M  V30 17769 C 1617.21 2.81207 -2.0279 0
M  V30 17770 C 1616.27 2.78535 -3.26675 0
M  V30 17771 C 1615.5 4.07241 -3.4495 0
M  V30 17772 O 1615.73 5.03879 -2.67324 0
M  V30 17773 O 1614.66 4.12485 -4.38337 0
M  V30 17774 H 1618.49 1.23566 -2.77426 0
M  V30 17775 H 1616.07 0.547243 -1.39017 0
M  V30 17776 H 1617.95 3.61271 -2.16936 0
M  V30 17777 H 1616.63 3.03654 -1.12143 0
M  V30 17778 H 1615.53 1.97137 -3.17943 0
M  V30 17779 H 1616.87 2.61042 -4.17274 0
M  V30 17780 N 1618.52 1.45038 0.616577 0
M  V30 17781 C 1619.45 1.49023 1.7414 0
M  V30 17782 C 1620.46 0.381965 1.58256 0
M  V30 17783 O 1621.65 0.648527 1.66302 0
M  V30 17784 C 1618.75 1.32233 3.12038 0
M  V30 17785 C 1617.93 2.5657 3.54246 0
M  V30 17786 C 1616.99 2.34468 4.71075 0
M  V30 17787 O 1616.01 3.08035 4.78647 0
M  V30 17788 N 1617.21 1.38454 5.63747 0
M  V30 17789 H 1619.98 2.45997 1.71189 0
M  V30 17790 H 1617.54 1.40663 0.80159 0
M  V30 17791 H 1619.53 1.15271 3.87936 0
M  V30 17792 H 1618.1 0.435685 3.09549 0
M  V30 17793 H 1617.32 2.88709 2.68404 0
M  V30 17794 H 1618.61 3.39239 3.79203 0
M  V30 17795 H 1618.01 0.777236 5.60335 0
M  V30 17796 H 1616.56 1.27467 6.39215 0
M  V30 17797 N 1620 -0.858287 1.32179 0
M  V30 17798 C 1620.93 -1.97304 1.16636 0
M  V30 17799 C 1621.94 -1.62478 0.102311 0
M  V30 17800 O 1623.13 -1.75016 0.350926 0
M  V30 17801 C 1620.23 -3.30215 0.762337 0
M  V30 17802 C 1619.4 -3.93305 1.9139 0
M  V30 17803 C 1618.46 -5.04545 1.49402 0
M  V30 17804 O 1617.49 -5.24735 2.20548 0
M  V30 17805 N 1618.69 -5.79202 0.387984 0
M  V30 17806 H 1621.46 -2.11179 2.12658 0
M  V30 17807 H 1619.02 -1.03294 1.24668 0
M  V30 17808 H 1621.01 -4.02032 0.463922 0
M  V30 17809 H 1619.58 -3.12418 -0.10662 0
M  V30 17810 H 1618.8 -3.1432 2.37901 0
M  V30 17811 H 1620.09 -4.32192 2.68492 0
M  V30 17812 H 1619.49 -5.65331 -0.204252 0
M  V30 17813 H 1618.04 -6.51629 0.149158 0
M  V30 17814 N 1621.48 -1.1533 -1.07409 0
M  V30 17815 C 1622.41 -0.872476 -2.16587 0
M  V30 17816 C 1623.39 0.176683 -1.6918 0
M  V30 17817 O 1624.57 0.0311826 -1.94175 0
M  V30 17818 C 1621.7 -0.360342 -3.45426 0
M  V30 17819 C 1620.66 -1.34611 -4.06281 0
M  V30 17820 C 1619.98 -0.692848 -5.30192 0
M  V30 17821 C 1621.28 -2.71191 -4.46378 0
M  V30 17822 H 1622.98 -1.78546 -2.40336 0
M  V30 17823 H 1620.52 -0.859895 -1.15507 0
M  V30 17824 H 1622.47 -0.151429 -4.21128 0
M  V30 17825 H 1621.2 0.588109 -3.21261 0
M  V30 17826 H 1619.86 -1.54137 -3.32622 0
M  V30 17827 H 1619.51 0.261732 -5.02319 0
M  V30 17828 H 1619.21 -1.35071 -5.71865 0
M  V30 17829 H 1620.73 -0.493695 -6.08601 0
M  V30 17830 H 1622.14 -2.55513 -5.13212 0
M  V30 17831 H 1620.54 -3.33345 -4.99 0
M  V30 17832 H 1621.61 -3.273 -3.57775 0
M  V30 17833 N 1622.95 1.25748 -0.950004 0
M  V30 17834 C 1623.89 2.25247 -0.423855 0
M  V30 17835 C 1624.9 1.56233 0.457726 0
M  V30 17836 O 1626.09 1.76496 0.266749 0
M  V30 17837 C 1623.19 3.36422 0.409074 0
M  V30 17838 C 1622.36 4.34991 -0.458421 0
M  V30 17839 C 1621.42 5.25253 0.315537 0
M  V30 17840 O 1620.45 5.68489 -0.284474 0
M  V30 17841 N 1621.65 5.57732 1.60983 0
M  V30 17842 H 1624.41 2.71026 -1.27925 0
M  V30 17843 H 1621.97 1.39607 -0.819853 0
M  V30 17844 H 1623.97 3.93764 0.934447 0
M  V30 17845 H 1622.54 2.90068 1.1653 0
M  V30 17846 H 1621.76 3.76594 -1.16494 0
M  V30 17847 H 1623.04 4.97833 -1.05068 0
M  V30 17848 H 1622.44 5.24502 2.1193 0
M  V30 17849 H 1621 6.17678 2.08126 0
M  V30 17850 N 1624.43 0.718038 1.40292 0
M  V30 17851 C 1625.34 0.0681535 2.34501 0
M  V30 17852 C 1626.36 -0.741048 1.57431 0
M  V30 17853 O 1627.53 -0.673437 1.89807 0
M  V30 17854 C 1624.6 -0.840758 3.36351 0
M  V30 17855 C 1623.66 -0.0212287 4.29295 0
M  V30 17856 C 1622.89 -0.886852 5.2628 0
M  V30 17857 O 1623.12 -2.12603 5.29298 0
M  V30 17858 O 1622.05 -0.324537 6.01024 0
M  V30 17859 H 1625.88 0.845288 2.91699 0
M  V30 17860 H 1623.46 0.478541 1.41529 0
M  V30 17861 H 1625.34 -1.36131 3.98806 0
M  V30 17862 H 1624.02 -1.597 2.81563 0
M  V30 17863 H 1622.92 0.544451 3.70117 0
M  V30 17864 H 1624.26 0.696846 4.87242 0
M  V30 17865 N 1625.91 -1.50602 0.464402 0
M  V30 17866 C 1627.33 -1.59162 0.118173 0
M  V30 17867 C 1627.53 -1.47313 -1.37481 0
M  V30 17868 O 1626.58 -1.32819 -2.14745 0
M  V30 17869 C 1627.9 -2.93313 0.662411 0
M  V30 17870 C 1629.44 -3.06692 0.625244 0
M  V30 17871 C 1629.92 -4.43407 1.14691 0
M  V30 17872 N 1631.41 -4.49801 1.10604 0
M  V30 17873 C 1632.14 -5.53964 1.48026 0
M  V30 17874 N 1631.64 -6.65413 1.92865 0
M  V30 17875 N 1633.43 -5.44471 1.39671 0
M  V30 17876 H 1625.58 -1.56548 1.4355 0
M  V30 17877 H 1627.85 -0.739451 0.593225 0
M  V30 17878 H 1627.55 -3.07439 1.70805 0
M  V30 17879 H 1627.43 -3.77061 0.102251 0
M  V30 17880 H 1629.81 -2.92217 -0.411466 0
M  V30 17881 H 1629.9 -2.24717 1.22213 0
M  V30 17882 H 1629.54 -4.5863 2.18222 0
M  V30 17883 H 1629.47 -5.23963 0.526306 0
M  V30 17884 H 1631.96 -3.69824 0.77709 0
M  V30 17885 H 1632.27 -7.40947 2.19585 0
M  V30 17886 H 1630.62 -6.66551 1.96812 0
M  V30 17887 H 1633.81 -4.56289 1.04487 0
M  V30 17888 H 1633.98 -6.25531 1.69161 0
M  V30 17889 N 1627.39 -0.19675 -1.56367 0
M  V30 17890 C 1628.63 0.443732 -1.99525 0
M  V30 17891 C 1628.99 1.58685 -1.08088 0
M  V30 17892 O 1630.19 2.29164 -1.4049 0
M  V30 17893 C 1628.46 0.890565 -3.46127 0
M  V30 17894 S 1630.02 1.52865 -4.11312 0
M  V30 17895 H 1626.84 0.141834 -0.69671 0
M  V30 17896 H 1629.44 -0.300205 -1.93181 0
M  V30 17897 H 1628.15 0.0485587 -4.10371 0
M  V30 17898 H 1627.68 1.66793 -3.56292 0
M  V30 17899 H 1629.69 2.81743 -4.08455 0
M  V30 17900 N 1628.87 1.57413 0.0768405 0
M  V30 17901 C 1629.81 2.0334 1.09185 0
M  V30 17902 C 1630.78 0.913073 1.38752 0
M  V30 17903 O 1631.97 1.18038 1.49906 0
M  V30 17904 C 1629.11 2.47805 2.40181 0
M  V30 17905 C 1628.22 3.73435 2.17188 0
M  V30 17906 C 1627.36 4.06703 3.41711 0
M  V30 17907 C 1626.4 5.25388 3.1406 0
M  V30 17908 N 1625.53 5.54319 4.309 0
M  V30 17909 H 1630.37 2.89825 0.693223 0
M  V30 17910 H 1627.91 1.43334 0.330736 0
M  V30 17911 H 1629.87 2.71635 3.16655 0
M  V30 17912 H 1628.5 1.64305 2.77856 0
M  V30 17913 H 1627.55 3.56974 1.3143 0
M  V30 17914 H 1628.86 4.60049 1.9276 0
M  V30 17915 H 1628.02 4.31407 4.26583 0
M  V30 17916 H 1626.75 3.18646 3.6921 0
M  V30 17917 H 1625.76 5.00486 2.27583 0
M  V30 17918 H 1626.98 6.15059 2.87888 0
M  V30 17919 H 1624.93 4.69222 4.5844 0
M  V30 17920 H 1624.85 6.35342 4.09727 0
M  V30 17921 H 1626.12 5.83571 5.16783 0
M  V30 17922 N 1630.34 -0.348112 1.53707 0
M  V30 17923 C 1631.31 -1.41018 1.80683 0
M  V30 17924 C 1632.31 -1.4582 0.67774 0
M  V30 17925 O 1633.5 -1.46275 0.94601 0
M  V30 17926 C 1630.63 -2.79988 1.94473 0
M  V30 17927 H 1631.82 -1.18365 2.75554 0
M  V30 17928 H 1629.38 -0.582244 1.4505 0
M  V30 17929 H 1630.11 -3.07931 1.0173 0
M  V30 17930 H 1629.9 -2.77899 2.76612 0
M  V30 17931 H 1631.39 -3.56868 2.16876 0
M  V30 17932 N 1631.82 -1.45363 -0.608876 0
M  V30 17933 C 1632.75 -1.56778 -1.7304 0
M  V30 17934 C 1633.73 -0.419405 -1.64848 0
M  V30 17935 O 1634.92 -0.64238 -1.83268 0
M  V30 17936 C 1632.05 -1.5329 -3.1164 0
M  V30 17937 C 1631 -2.66832 -3.34641 0
M  V30 17938 C 1630.33 -2.48398 -4.735 0
M  V30 17939 C 1631.63 -4.0885 -3.25021 0
M  V30 17940 H 1633.32 -2.50656 -1.63743 0
M  V30 17941 H 1630.87 -1.20635 -0.786338 0
M  V30 17942 H 1632.82 -1.59873 -3.89895 0
M  V30 17943 H 1631.55 -0.559414 -3.21773 0
M  V30 17944 H 1630.2 -2.59675 -2.58775 0
M  V30 17945 H 1629.85 -1.49191 -4.80366 0
M  V30 17946 H 1629.55 -3.24537 -4.89846 0
M  V30 17947 H 1631.08 -2.56833 -5.53958 0
M  V30 17948 H 1632.49 -4.17257 -3.93153 0
M  V30 17949 H 1630.89 -4.85369 -3.52897 0
M  V30 17950 H 1631.96 -4.30849 -2.2248 0
M  V30 17951 N 1633.3 0.851265 -1.32632 0
M  V30 17952 C 1634.23 1.96682 -1.17681 0
M  V30 17953 C 1635.25 1.62422 -0.110926 0
M  V30 17954 O 1636.43 1.74828 -0.360202 0
M  V30 17955 C 1633.53 3.29806 -0.779838 0
M  V30 17956 C 1632.71 3.92284 -1.93473 0
M  V30 17957 C 1631.77 5.03745 -1.52075 0
M  V30 17958 O 1630.79 5.23558 -2.23328 0
M  V30 17959 N 1631.99 5.78988 -0.418695 0
M  V30 17960 H 1634.76 2.10049 -2.13775 0
M  V30 17961 H 1632.32 1.02631 -1.25214 0
M  V30 17962 H 1634.31 4.0178 -0.485236 0
M  V30 17963 H 1632.88 3.1247 0.0900498 0
M  V30 17964 H 1632.1 3.13054 -2.39564 0
M  V30 17965 H 1633.39 4.30762 -2.7078 0
M  V30 17966 H 1632.79 5.65432 0.174269 0
M  V30 17967 H 1631.35 6.51541 -0.183714 0
M  V30 17968 N 1634.78 1.15898 1.06796 0
M  V30 17969 C 1636.06 0.847701 1.76276 0
M  V30 17970 C 1636.44 -0.655537 2.00664 0
M  V30 17971 O 1635.78 -1.60171 1.62964 0
M  V30 17972 C 1635.99 1.66475 3.06736 0
M  V30 17973 C 1637.34 1.87452 3.80982 0
M  V30 17974 O 1638.37 1.63298 3.16563 0
M  V30 17975 O 1637.22 2.27942 4.96694 0
M  V30 17976 H 1634.32 0.312308 0.765763 0
M  V30 17977 H 1636.86 1.26507 1.13111 0
M  V30 17978 H 1635.64 2.68508 2.84638 0
M  V30 17979 H 1635.26 1.24409 3.77635 0
M  V30 17980 N 1636.26 -1.25243 0.956659 0
M  V30 17981 C 1637.51 -1.92312 0.608196 0
M  V30 17982 C 1637.82 -1.75726 -0.859058 0
M  V30 17983 O 1639.02 -2.37386 -1.31757 0
M  V30 17984 C 1637.48 -3.44634 1.03708 0
M  V30 17985 C 1637.09 -3.69927 2.52702 0
M  V30 17986 C 1638.83 -4.17619 0.761242 0
M  V30 17987 C 1636.74 -5.15765 2.8938 0
M  V30 17988 H 1635.67 -0.720033 0.22376 0
M  V30 17989 H 1638.32 -1.42071 1.16138 0
M  V30 17990 H 1636.7 -3.93848 0.412287 0
M  V30 17991 H 1637.88 -3.31357 3.20217 0
M  V30 17992 H 1636.19 -3.10207 2.77778 0
M  V30 17993 H 1638.79 -5.25047 1.01141 0
M  V30 17994 H 1639.13 -4.152 -0.302375 0
M  V30 17995 H 1639.66 -3.74319 1.34648 0
M  V30 17996 H 1636.4 -5.23296 3.94767 0
M  V30 17997 H 1635.92 -5.55374 2.26539 0
M  V30 17998 H 1637.6 -5.83905 2.78683 0
M  V30 17999 N 1637.73 -0.725468 -1.3991 0
M  V30 18000 C 1638.67 -0.0397832 -2.29165 0
M  V30 18001 C 1639.68 0.713458 -1.46334 0
M  V30 18002 O 1640.87 0.559199 -1.69515 0
M  V30 18003 C 1637.97 0.967929 -3.24784 0
M  V30 18004 C 1637.14 0.278181 -4.36515 0
M  V30 18005 C 1636.2 1.19266 -5.12506 0
M  V30 18006 O 1635.23 0.673726 -5.65199 0
M  V30 18007 N 1636.43 2.5231 -5.228 0
M  V30 18008 H 1639.19 -0.806204 -2.88653 0
M  V30 18009 H 1636.75 -0.573904 -1.51387 0
M  V30 18010 H 1638.75 1.58209 -3.72494 0
M  V30 18011 H 1637.32 1.63563 -2.66394 0
M  V30 18012 H 1636.54 -0.516326 -3.90804 0
M  V30 18013 H 1637.82 -0.200203 -5.08406 0
M  V30 18014 H 1637.22 2.96957 -4.8149 0
M  V30 18015 H 1635.78 3.08846 -5.73984 0
M  V30 18016 N 1639.21 1.50354 -0.472382 0
M  V30 18017 C 1640.16 2.28555 0.321118 0
M  V30 18018 C 1641.13 1.33665 0.98605 0
M  V30 18019 O 1642.31 1.62603 0.998239 0
M  V30 18020 C 1639.45 3.15586 1.39641 0
M  V30 18021 C 1638.57 4.25508 0.746129 0
M  V30 18022 C 1637.7 4.99794 1.79943 0
M  V30 18023 C 1636.74 6.01589 1.12946 0
M  V30 18024 N 1635.88 6.69149 2.12567 0
M  V30 18025 H 1640.72 2.95913 -0.352051 0
M  V30 18026 H 1638.26 1.45926 -0.185461 0
M  V30 18027 H 1640.21 3.64397 2.03152 0
M  V30 18028 H 1638.84 2.50271 2.03873 0
M  V30 18029 H 1637.9 3.804 -0.00157718 0
M  V30 18030 H 1639.21 4.98326 0.217335 0
M  V30 18031 H 1638.36 5.5233 2.51031 0
M  V30 18032 H 1637.1 4.26684 2.36203 0
M  V30 18033 H 1636.11 5.48312 0.404207 0
M  V30 18034 H 1637.33 6.76672 0.573735 0
M  V30 18035 H 1635.28 5.9883 2.67841 0
M  V30 18036 H 1635.19 7.37847 1.64676 0
M  V30 18037 H 1636.46 7.26301 2.83031 0
M  V30 18038 N 1640.69 0.205039 1.56261 0
M  V30 18039 C 1641.6 -0.723548 2.23164 0
M  V30 18040 C 1642.62 -1.22683 1.23389 0
M  V30 18041 O 1643.79 -1.27191 1.56155 0
M  V30 18042 C 1640.86 -1.92178 2.88563 0
M  V30 18043 C 1639.92 -1.46209 4.03635 0
M  V30 18044 C 1639.15 -2.60321 4.65906 0
M  V30 18045 O 1639.38 -3.78051 4.27122 0
M  V30 18046 O 1638.31 -2.32465 5.55197 0
M  V30 18047 H 1642.14 -0.183715 3.03144 0
M  V30 18048 H 1639.72 -0.0246933 1.4938 0
M  V30 18049 H 1641.6 -2.62188 3.29902 0
M  V30 18050 H 1640.28 -2.45003 2.11555 0
M  V30 18051 H 1639.18 -0.730492 3.66899 0
M  V30 18052 H 1640.52 -0.980402 4.82337 0
M  V30 18053 N 1642.17 -1.57451 -0.0684915 0
M  V30 18054 C 1643.12 -2.03916 -1.08105 0
M  V30 18055 C 1644.09 -0.920418 -1.38266 0
M  V30 18056 O 1645.27 -1.18831 -1.49277 0
M  V30 18057 C 1642.41 -2.49075 -2.38863 0
M  V30 18058 C 1641.52 -3.74581 -2.15204 0
M  V30 18059 C 1640.66 -4.08509 -3.39549 0
M  V30 18060 C 1639.7 -5.27046 -3.11269 0
M  V30 18061 N 1638.84 -5.56597 -4.27954 0
M  V30 18062 H 1643.68 -2.90188 -0.677843 0
M  V30 18063 H 1641.21 -1.43507 -0.32313 0
M  V30 18064 H 1643.17 -2.7331 -3.1521 0
M  V30 18065 H 1641.8 -1.65776 -2.76981 0
M  V30 18066 H 1640.85 -3.57666 -1.29535 0
M  V30 18067 H 1642.16 -4.61065 -1.90317 0
M  V30 18068 H 1641.32 -4.33663 -4.24289 0
M  V30 18069 H 1640.06 -3.20599 -3.67515 0
M  V30 18070 H 1639.06 -5.01686 -2.24926 0
M  V30 18071 H 1640.29 -6.16577 -2.84622 0
M  V30 18072 H 1638.23 -4.71646 -4.55945 0
M  V30 18073 H 1638.15 -6.37506 -4.06352 0
M  V30 18074 H 1639.42 -5.86303 -5.13681 0
M  V30 18075 N 1643.65 0.339955 -1.5389 0
M  V30 18076 C 1644.87 1.10417 -1.75564 0
M  V30 18077 C 1645.3 1.81466 -0.495156 0
M  V30 18078 O 1644.66 1.72679 0.552415 0
M  V30 18079 C 1644.7 2.09056 -2.93816 0
M  V30 18080 O 1643.81 3.16645 -2.64215 0
M  V30 18081 H 1643.15 0.319164 -0.582263 0
M  V30 18082 H 1645.68 0.389251 -2.00863 0
M  V30 18083 H 1645.69 2.52215 -3.20705 0
M  V30 18084 H 1644.36 1.56741 -3.85234 0
M  V30 18085 H 1642.94 2.78278 -2.48225 0
M  V30 18086 N 1645.13 1.45684 0.601159 0
M  V30 18087 C 1646.06 1.57694 1.72206 0
M  V30 18088 C 1647.04 0.428141 1.64624 0
M  V30 18089 O 1648.22 0.65209 1.82925 0
M  V30 18090 C 1645.35 1.54941 3.10822 0
M  V30 18091 C 1644.31 2.68603 3.33222 0
M  V30 18092 C 1643.63 2.50906 4.72176 0
M  V30 18093 C 1644.93 4.10568 3.22849 0
M  V30 18094 H 1646.63 2.51521 1.62412 0
M  V30 18095 H 1644.17 1.2105 0.779929 0
M  V30 18096 H 1646.12 1.61939 3.89042 0
M  V30 18097 H 1644.85 0.576471 3.21472 0
M  V30 18098 H 1643.51 2.61043 2.57394 0
M  V30 18099 H 1643.16 1.51736 4.79568 0
M  V30 18100 H 1642.86 3.27131 4.88118 0
M  V30 18101 H 1644.38 2.59767 5.52588 0
M  V30 18102 H 1645.79 4.19336 3.90935 0
M  V30 18103 H 1644.19 4.87234 3.50318 0
M  V30 18104 H 1645.26 4.32022 2.20192 0
M  V30 18105 N 1646.6 -0.84422 1.33082 0
M  V30 18106 C 1647.55 -1.95363 1.2289 0
M  V30 18107 C 1648.52 -1.65744 0.108705 0
M  V30 18108 O 1649.71 -1.88643 0.286057 0
M  V30 18109 C 1646.85 -3.31228 0.968594 0
M  V30 18110 C 1645.96 -3.73279 2.17455 0
M  V30 18111 C 1645.09 -4.97987 1.84885 0
M  V30 18112 C 1644.13 -5.32558 3.01743 0
M  V30 18113 N 1643.27 -6.48442 2.69197 0
M  V30 18114 H 1648.11 -2.03412 2.17778 0
M  V30 18115 H 1645.65 -0.995461 1.083 0
M  V30 18116 H 1647.6 -4.09494 0.798129 0
M  V30 18117 H 1646.23 -3.22751 0.0564631 0
M  V30 18118 H 1645.29 -2.9058 2.45494 0
M  V30 18119 H 1646.6 -3.94814 3.04834 0
M  V30 18120 H 1645.75 -5.83987 1.64451 0
M  V30 18121 H 1644.49 -4.7841 0.947356 0
M  V30 18122 H 1643.5 -4.45064 3.22797 0
M  V30 18123 H 1644.72 -5.54085 3.9264 0
M  V30 18124 H 1642.67 -6.30363 1.816 0
M  V30 18125 H 1642.58 -6.70046 3.50106 0
M  V30 18126 H 1643.85 -7.37568 2.52217 0
M  V30 18127 N 1648.08 -1.16463 -1.0618 0
M  V30 18128 C 1648.99 -0.886601 -2.17202 0
M  V30 18129 C 1650.01 0.141568 -1.73423 0
M  V30 18130 O 1651.18 -0.0353417 -2.01369 0
M  V30 18131 C 1648.25 -0.392829 -3.44467 0
M  V30 18132 C 1647.31 -1.48636 -4.02748 0
M  V30 18133 C 1646.54 -1.01606 -5.23939 0
M  V30 18134 O 1646.77 0.133753 -5.70243 0
M  V30 18135 O 1645.7 -1.80487 -5.74202 0
M  V30 18136 H 1649.53 -1.81502 -2.43497 0
M  V30 18137 H 1647.11 -0.944691 -1.15741 0
M  V30 18138 H 1648.99 -0.124501 -4.21216 0
M  V30 18139 H 1647.67 0.507566 -3.19696 0
M  V30 18140 H 1646.57 -1.80845 -3.27484 0
M  V30 18141 H 1647.91 -2.3621 -4.31817 0
M  V30 18142 N 1649.56 1.24734 -0.963288 0
M  V30 18143 C 1650.51 2.25555 -0.48926 0
M  V30 18144 C 1651.48 1.59521 0.462848 0
M  V30 18145 O 1652.66 1.87095 0.374188 0
M  V30 18146 C 1649.8 3.44407 0.218629 0
M  V30 18147 C 1648.91 4.25051 -0.77173 0
M  V30 18148 C 1648.05 5.31185 -0.0403986 0
M  V30 18149 C 1647.09 6.03523 -1.02112 0
M  V30 18150 N 1646.23 7.0137 -0.320083 0
M  V30 18151 H 1651.07 2.6547 -1.35386 0
M  V30 18152 H 1648.6 1.30504 -0.678762 0
M  V30 18153 H 1650.56 4.12173 0.645701 0
M  V30 18154 H 1649.19 3.05341 1.04722 0
M  V30 18155 H 1648.24 3.56865 -1.31726 0
M  V30 18156 H 1649.55 4.75084 -1.51976 0
M  V30 18157 H 1648.71 6.05067 0.444886 0
M  V30 18158 H 1647.45 4.82048 0.740356 0
M  V30 18159 H 1646.45 5.28448 -1.51732 0
M  V30 18160 H 1647.68 6.54749 -1.80224 0
M  V30 18161 H 1645.62 6.54511 0.441775 0
M  V30 18162 H 1645.54 7.49263 -1.00705 0
M  V30 18163 H 1646.81 7.79368 0.143379 0
M  V30 18164 N 1651.04 0.732878 1.39523 0
M  V30 18165 C 1651.95 0.0930216 2.34416 0
M  V30 18166 C 1652.96 -0.724309 1.58208 0
M  V30 18167 O 1654.14 -0.653267 1.90511 0
M  V30 18168 C 1651.2 -0.805036 3.37224 0
M  V30 18169 C 1650.27 0.0243049 4.29293 0
M  V30 18170 C 1649.5 -0.830984 5.27191 0
M  V30 18171 O 1649.72 -2.06977 5.31523 0
M  V30 18172 O 1648.66 -0.260772 6.01335 0
M  V30 18173 H 1652.48 0.876179 2.90786 0
M  V30 18174 H 1650.07 0.493525 1.41013 0
M  V30 18175 H 1651.95 -1.31894 4.00228 0
M  V30 18176 H 1650.62 -1.56704 2.83241 0
M  V30 18177 H 1649.53 0.583677 3.69519 0
M  V30 18178 H 1650.86 0.748485 4.86476 0
M  V30 18179 N 1652.52 -1.50101 0.480349 0
M  V30 18180 C 1653.45 -2.31581 -0.298718 0
M  V30 18181 C 1654.43 -1.38905 -0.981798 0
M  V30 18182 O 1655.61 -1.67823 -0.977188 0
M  V30 18183 C 1652.74 -3.18891 -1.37571 0
M  V30 18184 C 1651.7 -4.20194 -0.813704 0
M  V30 18185 C 1651.02 -4.96302 -1.98968 0
M  V30 18186 C 1652.32 -5.21985 0.181295 0
M  V30 18187 H 1654.02 -2.96961 0.381349 0
M  V30 18188 H 1651.56 -1.42809 0.184842 0
M  V30 18189 H 1653.51 -3.74694 -1.92828 0
M  V30 18190 H 1652.24 -2.51414 -2.08467 0
M  V30 18191 H 1650.9 -3.65506 -0.283034 0
M  V30 18192 H 1650.55 -4.2529 -2.68584 0
M  V30 18193 H 1650.25 -5.64833 -1.61981 0
M  V30 18194 H 1651.77 -5.54943 -2.54698 0
M  V30 18195 H 1653.18 -5.72604 -0.28242 0
M  V30 18196 H 1651.58 -5.98289 0.465916 0
M  V30 18197 H 1652.65 -4.72162 1.10413 0
M  V30 18198 N 1653.99 -0.213323 -1.5615 0
M  V30 18199 C 1655.24 0.421221 -1.98377 0
M  V30 18200 C 1655.57 1.59998 -1.10065 0
M  V30 18201 O 1654.85 1.93869 -0.15654 0
M  V30 18202 C 1655.13 0.86375 -3.49587 0
M  V30 18203 C 1654.98 -0.318077 -4.48674 0
M  V30 18204 C 1656.3 1.72285 -4.04976 0
M  V30 18205 H 1653.42 0.151635 -0.721232 0
M  V30 18206 H 1656.06 -0.307907 -1.87488 0
M  V30 18207 H 1654.21 1.48503 -3.58998 0
M  V30 18208 H 1655.89 -0.956094 -4.51283 0
M  V30 18209 H 1654.13 -0.966881 -4.22888 0
M  V30 18210 H 1654.8 0.0343662 -5.51989 0
M  V30 18211 H 1657.28 1.19872 -3.98459 0
M  V30 18212 H 1656.15 2.0014 -5.11112 0
M  V30 18213 H 1656.41 2.68336 -3.51352 0
M  V30 18214 N 1655.47 1.57485 0.0601405 0
M  V30 18215 C 1656.42 2.0554 1.08886 0
M  V30 18216 C 1657.41 0.962963 1.39368 0
M  V30 18217 O 1658.62 1.14802 1.38638 0
M  V30 18218 H 1655 0.655506 0.368532 0
M  V30 18219 H 1656.97 2.91066 0.657513 0
M  V30 18220 C 1655.72 2.52464 2.39076 0
M  V30 18221 H 1655.04 3.36123 2.16475 0
M  V30 18222 H 1656.48 2.89829 3.09476 0
M  V30 18223 C 1654.94 1.41248 3.05861 0
M  V30 18224 O 1655.47 0.761119 3.94423 0
M  V30 18225 N 1653.67 1.1547 2.66674 0
M  V30 18226 H 1653.22 1.6862 1.94744 0
M  V30 18227 H 1653.18 0.412641 3.1168 0
M  V30 18228 N 1656.95 -0.331789 1.54068 0
M  V30 18229 C 1657.86 -1.43116 1.8589 0
M  V30 18230 C 1658.88 -1.57003 0.75007 0
M  V30 18231 O 1660.05 -1.72256 1.04355 0
M  V30 18232 C 1657.12 -2.77945 2.07238 0
M  V30 18233 C 1656.18 -2.73303 3.31065 0
M  V30 18234 C 1655.41 -4.01702 3.51385 0
M  V30 18235 O 1655.63 -4.99562 2.75306 0
M  V30 18236 O 1654.57 -4.0546 4.44844 0
M  V30 18237 H 1658.39 -1.19137 2.79357 0
M  V30 18238 H 1655.98 -0.525057 1.3987 0
M  V30 18239 H 1657.86 -3.57774 2.22656 0
M  V30 18240 H 1656.54 -3.01831 1.16959 0
M  V30 18241 H 1655.44 -1.92054 3.21039 0
M  V30 18242 H 1656.78 -2.54371 4.21374 0
M  V30 18243 N 1658.43 -1.46001 -0.593424 0
M  V30 18244 C 1659.38 -1.55752 -1.70323 0
M  V30 18245 C 1660.35 -0.402466 -1.6115 0
M  V30 18246 O 1661.53 -0.617804 -1.80521 0
M  V30 18247 C 1658.67 -1.54362 -3.08653 0
M  V30 18248 C 1657.78 -2.80523 -3.28529 0
M  V30 18249 C 1656.92 -2.70709 -4.57045 0
M  V30 18250 C 1655.96 -3.91857 -4.70228 0
M  V30 18251 N 1655.09 -3.80494 -5.90059 0
M  V30 18252 H 1659.93 -2.50555 -1.61326 0
M  V30 18253 H 1657.47 -1.24313 -0.786425 0
M  V30 18254 H 1659.43 -1.51542 -3.88704 0
M  V30 18255 H 1658.06 -0.630986 -3.16573 0
M  V30 18256 H 1657.11 -2.93368 -2.42155 0
M  V30 18257 H 1658.42 -3.70341 -3.3414 0
M  V30 18258 H 1657.58 -2.65935 -5.45311 0
M  V30 18259 H 1656.32 -1.78513 -4.53855 0
M  V30 18260 H 1655.32 -3.96975 -3.80383 0
M  V30 18261 H 1656.55 -4.85136 -4.75205 0
M  V30 18262 H 1654.49 -2.91077 -5.87886 0
M  V30 18263 H 1654.41 -4.63958 -5.96891 0
M  V30 18264 H 1655.68 -3.79676 -6.80783 0
M  V30 18265 N 1659.91 0.83715 -1.33527 0
M  V30 18266 C 1661.13 1.62976 -1.28271 0
M  V30 18267 C 1661.56 1.87554 0.143201 0
M  V30 18268 O 1660.91 1.44088 1.10038 0
M  V30 18269 C 1660.96 2.95607 -2.06516 0
M  V30 18270 O 1660.07 3.87 -1.42494 0
M  V30 18271 H 1659.41 0.496212 -0.441214 0
M  V30 18272 H 1661.94 1.04137 -1.76115 0
M  V30 18273 H 1661.95 3.4529 -2.17344 0
M  V30 18274 H 1660.62 2.77041 -3.10195 0
M  V30 18275 H 1659.2 3.45492 -1.40321 0
M  V30 18276 N 1661.38 1.17024 1.05561 0
M  V30 18277 C 1662.33 0.88356 2.13218 0
M  V30 18278 C 1663.3 -0.171025 1.65217 0
M  V30 18279 O 1664.49 -0.0346242 1.90769 0
M  V30 18280 C 1661.63 0.398912 3.42787 0
M  V30 18281 C 1660.74 1.51718 4.04482 0
M  V30 18282 C 1659.87 0.986793 5.21954 0
M  V30 18283 C 1658.91 2.08077 5.75648 0
M  V30 18284 N 1658.05 1.56542 6.84426 0
M  V30 18285 H 1662.89 1.80548 2.37079 0
M  V30 18286 H 1660.43 0.90056 1.16311 0
M  V30 18287 H 1662.39 0.0995018 4.17081 0
M  V30 18288 H 1661.02 -0.48605 3.1912 0
M  V30 18289 H 1660.07 1.9324 3.27662 0
M  V30 18290 H 1661.38 2.34243 4.40377 0
M  V30 18291 H 1660.53 0.641006 6.03304 0
M  V30 18292 H 1659.27 0.130942 4.87524 0
M  V30 18293 H 1658.28 2.43517 4.9293 0
M  V30 18294 H 1659.5 2.94071 6.12127 0
M  V30 18295 H 1657.45 0.732221 6.51901 0
M  V30 18296 H 1657.37 2.32677 7.19303 0
M  V30 18297 H 1658.63 1.24844 7.69438 0
M  V30 18298 N 1662.86 -1.24221 0.969889 0
M  V30 18299 C 1663.79 -2.27619 0.520745 0
M  V30 18300 C 1664.77 -1.64291 -0.440731 0
M  V30 18301 O 1665.96 -1.91265 -0.336381 0
M  V30 18302 C 1663.09 -3.46792 -0.187768 0
M  V30 18303 C 1662.04 -4.22402 0.689945 0
M  V30 18304 C 1661.37 -5.34489 -0.150186 0
M  V30 18305 C 1662.67 -4.83494 1.97562 0
M  V30 18306 H 1664.36 -2.65441 1.38498 0
M  V30 18307 H 1661.91 -1.276 0.667398 0
M  V30 18308 H 1663.86 -4.18263 -0.513216 0
M  V30 18309 H 1662.59 -3.08002 -1.08637 0
M  V30 18310 H 1661.24 -3.52734 0.998696 0
M  V30 18311 H 1660.89 -4.9194 -1.049 0
M  V30 18312 H 1660.59 -5.85996 0.433891 0
M  V30 18313 H 1662.12 -6.08786 -0.470255 0
M  V30 18314 H 1663.53 -5.47028 1.71561 0
M  V30 18315 H 1661.93 -5.45243 2.5066 0
M  V30 18316 H 1663 -4.04826 2.66915 0
M  V30 18317 N 1664.34 -0.740267 -1.39132 0
M  V30 18318 C 1665.3 -0.112183 -2.28925 0
M  V30 18319 C 1666.3 0.661598 -1.46559 0
M  V30 18320 O 1667.49 0.489835 -1.67171 0
M  V30 18321 C 1664.63 0.850121 -3.3013 0
M  V30 18322 H 1665.82 -0.903339 -2.85972 0
M  V30 18323 H 1663.37 -0.506427 -1.47868 0
M  V30 18324 H 1664.11 1.66744 -2.78149 0
M  V30 18325 H 1663.89 0.297847 -3.90967 0
M  V30 18326 H 1665.38 1.28599 -3.97306 0
M  V30 18327 N 1665.82 1.49844 -0.488302 0
M  V30 18328 C 1666.73 2.32651 0.301746 0
M  V30 18329 C 1667.74 1.43807 0.979573 0
M  V30 18330 O 1668.92 1.76844 0.963758 0
M  V30 18331 C 1665.99 3.18928 1.35962 0
M  V30 18332 C 1665.05 4.23611 0.696575 0
M  V30 18333 C 1664.28 5.05765 1.70404 0
M  V30 18334 O 1664.5 4.89243 2.93253 0
M  V30 18335 O 1663.44 5.88427 1.26637 0
M  V30 18336 H 1667.26 3.01367 -0.375687 0
M  V30 18337 H 1664.85 1.47296 -0.249844 0
M  V30 18338 H 1666.73 3.72413 1.97198 0
M  V30 18339 H 1665.4 2.52921 2.02021 0
M  V30 18340 H 1664.31 3.74073 0.0448118 0
M  V30 18341 H 1665.64 4.92137 0.0786446 0
M  V30 18342 N 1667.3 0.221601 1.56034 0
M  V30 18343 C 1668.55 -0.410442 1.9748 0
M  V30 18344 C 1668.86 -1.60895 1.1123 0
M  V30 18345 O 1670.06 -2.31052 1.42574 0
M  V30 18346 C 1668.52 -0.781624 3.5131 0
M  V30 18347 C 1668.13 0.394077 4.46263 0
M  V30 18348 C 1669.87 -1.37927 4.01468 0
M  V30 18349 C 1667.78 0.000458181 5.914 0
M  V30 18350 H 1666.71 -0.157122 0.737447 0
M  V30 18351 H 1669.36 0.317821 1.80727 0
M  V30 18352 H 1667.74 -1.56731 3.63664 0
M  V30 18353 H 1668.92 1.17161 4.45657 0
M  V30 18354 H 1667.23 0.904959 4.06447 0
M  V30 18355 H 1669.83 -1.68667 5.07401 0
M  V30 18356 H 1670.17 -2.29507 3.47322 0
M  V30 18357 H 1670.7 -0.657015 3.92337 0
M  V30 18358 H 1667.44 0.882743 6.49529 0
M  V30 18359 H 1666.96 -0.741386 5.952 0
M  V30 18360 H 1668.64 -0.42621 6.45595 0
M  V30 18361 N 1668.77 -1.57515 -0.0517878 0
M  V30 18362 C 1669.68 -2.08427 -1.07681 0
M  V30 18363 C 1670.7 -1.01797 -1.41115 0
M  V30 18364 O 1671.88 -1.33394 -1.50891 0
M  V30 18365 C 1668.94 -2.53472 -2.36544 0
M  V30 18366 C 1668 -3.74488 -2.09899 0
M  V30 18367 C 1667.24 -4.17374 -3.32618 0
M  V30 18368 O 1667.46 -3.59962 -4.42475 0
M  V30 18369 O 1666.39 -5.10006 -3.19653 0
M  V30 18370 H 1670.22 -2.96122 -0.674217 0
M  V30 18371 H 1667.8 -1.4699 -0.267274 0
M  V30 18372 H 1669.69 -2.82876 -3.12345 0
M  V30 18373 H 1668.36 -1.68899 -2.76143 0
M  V30 18374 H 1667.27 -3.50137 -1.31739 0
M  V30 18375 H 1668.6 -4.59975 -1.75169 0
M  V30 18376 N 1670.25 0.323614 -1.54242 0
M  V30 18377 C 1671.16 1.42128 -1.86646 0
M  V30 18378 C 1672.18 1.56603 -0.758385 0
M  V30 18379 O 1673.36 1.717 -1.05267 0
M  V30 18380 C 1670.42 2.76842 -2.08709 0
M  V30 18381 C 1669.48 2.71543 -3.3251 0
M  V30 18382 C 1668.71 3.99833 -3.5351 0
M  V30 18383 O 1668.94 4.98095 -2.77952 0
M  V30 18384 O 1667.87 4.03095 -4.46988 0
M  V30 18385 H 1671.7 1.17653 -2.79985 0
M  V30 18386 H 1669.28 0.517632 -1.40146 0
M  V30 18387 H 1671.16 3.56588 -2.24551 0
M  V30 18388 H 1669.84 3.01207 -1.18558 0
M  V30 18389 H 1668.75 1.90348 -3.22053 0
M  V30 18390 H 1670.08 2.52133 -4.22717 0
M  V30 18391 N 1671.73 1.46313 0.585673 0
M  V30 18392 C 1672.98 1.50738 1.34019 0
M  V30 18393 C 1673.29 0.162245 1.94926 0
M  V30 18394 O 1674.5 0.0842676 2.71369 0
M  V30 18395 C 1672.96 2.65592 2.42876 0
M  V30 18396 C 1672.56 4.06513 1.88285 0
M  V30 18397 C 1674.31 2.79284 3.19689 0
M  V30 18398 C 1672.21 5.12712 2.94754 0
M  V30 18399 H 1671.14 0.560979 0.503804 0
M  V30 18400 H 1673.8 1.72516 0.625344 0
M  V30 18401 H 1672.18 2.37138 3.17146 0
M  V30 18402 H 1673.35 4.44744 1.20578 0
M  V30 18403 H 1671.67 3.97462 1.2415 0
M  V30 18404 H 1674.26 3.55795 3.99142 0
M  V30 18405 H 1674.61 1.86694 3.7209 0
M  V30 18406 H 1675.14 3.0737 2.52525 0
M  V30 18407 H 1671.88 6.07084 2.47244 0
M  V30 18408 H 1671.4 4.79028 3.6096 0
M  V30 18409 H 1673.08 5.38426 3.58757 0
M  V30 18410 N 1673.21 -0.830057 1.33969 0
M  V30 18411 C 1674.16 -1.94049 1.24955 0
M  V30 18412 C 1675.13 -1.65619 0.126279 0
M  V30 18413 O 1676.31 -1.88329 0.306049 0
M  V30 18414 C 1673.45 -3.30182 1.00367 0
M  V30 18415 C 1672.56 -3.70952 2.21402 0
M  V30 18416 C 1671.7 -4.95998 1.90157 0
M  V30 18417 C 1670.74 -5.29327 3.07374 0
M  V30 18418 N 1669.88 -6.45551 2.76059 0
M  V30 18419 H 1674.72 -2.01091 2.19923 0
M  V30 18420 H 1672.25 -0.983918 1.0935 0
M  V30 18421 H 1674.21 -4.08625 0.841516 0
M  V30 18422 H 1672.84 -3.22673 0.090692 0
M  V30 18423 H 1671.89 -2.8796 2.48563 0
M  V30 18424 H 1673.2 -3.91558 3.09004 0
M  V30 18425 H 1672.36 -5.8221 1.70636 0
M  V30 18426 H 1671.1 -4.77379 0.998045 0
M  V30 18427 H 1670.1 -4.41616 3.27499 0
M  V30 18428 H 1671.33 -5.4989 3.98495 0
M  V30 18429 H 1669.27 -6.28401 1.88275 0
M  V30 18430 H 1669.19 -6.66295 3.57193 0
M  V30 18431 H 1670.46 -7.34851 2.60026 0
M  V30 18432 N 1674.69 -1.17582 -1.04939 0
M  V30 18433 C 1675.93 -0.976635 -1.79558 0
M  V30 18434 C 1676.29 0.48588 -1.8575 0
M  V30 18435 O 1677.49 0.804225 -2.56487 0
M  V30 18436 C 1675.76 -1.60316 -3.19427 0
M  V30 18437 S 1677.32 -1.55052 -4.10493 0
M  V30 18438 H 1674.14 -0.350907 -0.618373 0
M  V30 18439 H 1676.74 -1.49572 -1.25891 0
M  V30 18440 H 1675.45 -2.66002 -3.12524 0
M  V30 18441 H 1674.98 -1.08399 -3.78171 0
M  V30 18442 H 1676.99 -0.56028 -4.93027 0
M  V30 18443 N 1676.17 1.23705 -0.976463 0
M  V30 18444 C 1677.58 1.44179 -0.684434 0
M  V30 18445 C 1677.78 1.86992 0.75075 0
M  V30 18446 O 1676.84 2.01349 1.52365 0
M  V30 18447 C 1678.15 2.49661 -1.676 0
M  V30 18448 C 1679.7 2.63479 -1.68961 0
M  V30 18449 C 1680.17 3.72167 -2.66938 0
M  V30 18450 N 1681.66 3.79605 -2.65433 0
M  V30 18451 C 1682.4 4.63251 -3.37914 0
M  V30 18452 N 1681.9 5.51018 -4.19941 0
M  V30 18453 N 1683.69 4.57412 -3.26697 0
M  V30 18454 H 1675.84 0.942155 -1.90361 0
M  V30 18455 H 1678.1 0.475629 -0.820049 0
M  V30 18456 H 1677.81 2.25111 -2.70218 0
M  V30 18457 H 1677.68 3.47978 -1.45571 0
M  V30 18458 H 1680.07 2.87382 -0.670497 0
M  V30 18459 H 1680.15 1.65491 -1.95055 0
M  V30 18460 H 1679.79 3.49013 -3.68988 0
M  V30 18461 H 1679.72 4.69688 -2.3812 0
M  V30 18462 H 1682.22 3.16882 -2.05899 0
M  V30 18463 H 1682.53 6.11825 -4.72113 0
M  V30 18464 H 1680.87 5.50655 -4.24033 0
M  V30 18465 H 1684.06 3.87863 -2.62069 0
M  V30 18466 H 1684.24 5.22373 -3.83446 0
M  V30 18467 N 1677.64 0.747635 1.38738 0
M  V30 18468 C 1678.58 0.0762364 2.29073 0
M  V30 18469 C 1679.59 -0.690087 1.4745 0
M  V30 18470 O 1680.78 -0.53216 1.70383 0
M  V30 18471 C 1677.88 -0.916136 3.26282 0
M  V30 18472 C 1677.05 -0.2087 4.36902 0
M  V30 18473 C 1676.11 -1.11097 5.14338 0
M  V30 18474 O 1675.14 -0.583722 5.66199 0
M  V30 18475 N 1676.34 -2.43961 5.26748 0
M  V30 18476 H 1679.1 0.852024 2.87334 0
M  V30 18477 H 1676.66 0.597915 1.50455 0
M  V30 18478 H 1678.66 -1.52263 3.74964 0
M  V30 18479 H 1677.23 -1.59304 2.68963 0
M  V30 18480 H 1676.45 0.578435 3.89933 0
M  V30 18481 H 1677.73 0.281061 5.08023 0
M  V30 18482 H 1677.13 -2.89259 4.86154 0
M  V30 18483 H 1675.69 -2.99676 5.78824 0
M  V30 18484 N 1679.12 -1.49583 0.496242 0
M  V30 18485 C 1680.03 -2.32808 -0.289404 0
M  V30 18486 C 1681.05 -1.44324 -0.971933 0
M  V30 18487 O 1682.22 -1.77352 -0.954366 0
M  V30 18488 C 1679.29 -3.19645 -1.34269 0
M  V30 18489 C 1678.35 -4.23975 -0.6741 0
M  V30 18490 C 1677.58 -5.06661 -1.6772 0
M  V30 18491 O 1677.81 -4.90792 -2.90654 0
M  V30 18492 O 1676.74 -5.89091 -1.23514 0
M  V30 18493 H 1680.57 -3.01164 0.391664 0
M  V30 18494 H 1678.15 -1.47162 0.257652 0
M  V30 18495 H 1680.03 -3.73453 -1.9522 0
M  V30 18496 H 1678.71 -2.53989 -2.00677 0
M  V30 18497 H 1677.61 -3.74092 -0.0249732 0
M  V30 18498 H 1678.95 -4.92172 -0.0525442 0
M  V30 18499 N 1680.6 -0.229873 -1.55915 0
M  V30 18500 C 1681.55 0.676809 -2.20653 0
M  V30 18501 C 1682.52 1.18412 -1.16481 0
M  V30 18502 O 1683.7 1.2417 -1.44867 0
M  V30 18503 C 1680.84 1.87567 -2.89677 0
M  V30 18504 C 1679.95 1.40648 -4.08463 0
M  V30 18505 C 1679.09 2.56356 -4.65247 0
M  V30 18506 C 1678.13 2.06215 -5.76318 0
M  V30 18507 N 1677.27 3.15226 -6.27357 0
M  V30 18508 H 1682.11 0.118035 -2.97766 0
M  V30 18509 H 1679.64 0.0465042 -1.47026 0
M  V30 18510 H 1681.6 2.57968 -3.27884 0
M  V30 18511 H 1680.23 2.40719 -2.15067 0
M  V30 18512 H 1679.28 0.597104 -3.75684 0
M  V30 18513 H 1680.59 0.998877 -4.88696 0
M  V30 18514 H 1679.75 3.34827 -5.05941 0
M  V30 18515 H 1678.49 3.0041 -3.84194 0
M  V30 18516 H 1677.49 1.26209 -5.35118 0
M  V30 18517 H 1678.72 1.63151 -6.59211 0
M  V30 18518 H 1676.66 3.58746 -5.49215 0
M  V30 18519 H 1676.58 2.78744 -7.02736 0
M  V30 18520 H 1677.85 3.93807 -6.72708 0
M  V30 18521 N 1682.08 1.5754 0.0434337 0
M  V30 18522 C 1682.99 2.08996 1.06574 0
M  V30 18523 C 1684 1.02544 1.40573 0
M  V30 18524 O 1685.18 1.34192 1.50181 0
M  V30 18525 C 1682.24 2.54723 2.35196 0
M  V30 18526 C 1681.31 3.75595 2.0791 0
M  V30 18527 C 1680.54 4.19132 3.304 0
M  V30 18528 O 1680.76 3.62303 4.40559 0
M  V30 18529 O 1679.7 5.11694 3.16944 0
M  V30 18530 H 1683.52 2.96475 0.658503 0
M  V30 18531 H 1681.11 1.47129 0.259475 0
M  V30 18532 H 1682.99 2.84529 3.1084 0
M  V30 18533 H 1681.66 1.70361 2.75243 0
M  V30 18534 H 1680.57 3.5083 1.2988 0
M  V30 18535 H 1681.9 4.60897 1.72727 0
M  V30 18536 N 1683.56 -0.31543 1.54411 0
M  V30 18537 C 1684.8 -1.04997 1.72217 0
M  V30 18538 C 1685.12 -1.8891 0.507176 0
M  V30 18539 O 1686.32 -2.65519 0.566738 0
M  V30 18540 C 1684.78 -1.91633 3.04639 0
M  V30 18541 C 1684.39 -1.12792 4.33569 0
M  V30 18542 C 1686.13 -2.64774 3.31806 0
M  V30 18543 C 1684.04 -1.98621 5.57049 0
M  V30 18544 H 1682.97 -0.395716 0.641814 0
M  V30 18545 H 1685.62 -0.307748 1.80901 0
M  V30 18546 H 1684 -2.69786 2.89882 0
M  V30 18547 H 1685.18 -0.393534 4.59116 0
M  V30 18548 H 1683.49 -0.512975 4.13228 0
M  V30 18549 H 1686.09 -3.29313 4.21257 0
M  V30 18550 H 1686.43 -3.32843 2.50043 0
M  V30 18551 H 1686.96 -1.93678 3.47467 0
M  V30 18552 H 1683.7 -1.35047 6.41438 0
M  V30 18553 H 1683.22 -2.69771 5.35708 0
M  V30 18554 H 1684.9 -2.57014 5.93762 0
M  V30 18555 N 1685.03 -1.46622 -0.577906 0
M  V30 18556 C 1686.26 -1.5576 -1.36185 0
M  V30 18557 C 1686.68 -0.200403 -1.87733 0
M  V30 18558 O 1686.03 0.803091 -1.6388 0
M  V30 18559 C 1686.09 -2.56626 -2.54608 0
M  V30 18560 O 1685.81 -3.87074 -2.05195 0
M  V30 18561 C 1687.31 -2.75751 -3.47097 0
M  V30 18562 H 1684.53 -0.526589 -0.415866 0
M  V30 18563 H 1687.07 -1.9207 -0.702091 0
M  V30 18564 H 1685.23 -2.23307 -3.16564 0
M  V30 18565 H 1685.64 -4.42015 -2.82352 0
M  V30 18566 H 1687.11 -3.50237 -4.26659 0
M  V30 18567 H 1687.59 -1.82829 -3.99337 0
M  V30 18568 H 1688.2 -3.10185 -2.90973 0
M  V30 18569 N 1686.51 0.822941 -1.34408 0
M  V30 18570 C 1687.46 1.93383 -1.25982 0
M  V30 18571 C 1688.43 1.6555 -0.13506 0
M  V30 18572 O 1689.61 1.88164 -0.316033 0
M  V30 18573 C 1686.75 3.29646 -1.02117 0
M  V30 18574 C 1685.87 3.69772 -2.23366 0
M  V30 18575 C 1685 4.94982 -1.92784 0
M  V30 18576 C 1684.04 5.2769 -3.10177 0
M  V30 18577 N 1683.18 6.44078 -2.79479 0
M  V30 18578 H 1688.02 1.99922 -2.20987 0
M  V30 18579 H 1685.56 0.978105 -1.0987 0
M  V30 18580 H 1687.51 4.08173 -0.863175 0
M  V30 18581 H 1686.14 3.2262 -0.107803 0
M  V30 18582 H 1685.2 2.86637 -2.50086 0
M  V30 18583 H 1686.51 3.89914 -3.11076 0
M  V30 18584 H 1685.66 5.81297 -1.73721 0
M  V30 18585 H 1684.4 4.76843 -1.02335 0
M  V30 18586 H 1683.41 4.39873 -3.29837 0
M  V30 18587 H 1684.63 5.47769 -4.01405 0
M  V30 18588 H 1682.58 6.27394 -1.91605 0
M  V30 18589 H 1682.49 6.64392 -3.60721 0
M  V30 18590 H 1683.76 7.33462 -2.63919 0
M  V30 18591 N 1687.99 1.18137 1.04314 0
M  V30 18592 C 1688.92 0.929593 2.14198 0
M  V30 18593 C 1689.9 -0.131766 1.69589 0
M  V30 18594 O 1691.09 0.0203104 1.94189 0
M  V30 18595 C 1688.22 0.451799 3.44349 0
M  V30 18596 C 1687.17 1.45336 4.02569 0
M  V30 18597 C 1686.5 0.833176 5.28169 0
M  V30 18598 C 1687.8 2.8293 4.39031 0
M  V30 18599 H 1689.49 1.84856 2.35518 0
M  V30 18600 H 1687.04 0.890217 1.13186 0
M  V30 18601 H 1688.99 0.26303 4.20578 0
M  V30 18602 H 1687.71 -0.502725 3.22708 0
M  V30 18603 H 1686.37 1.62902 3.28418 0
M  V30 18604 H 1686.02 -0.128459 5.02836 0
M  V30 18605 H 1685.72 1.50185 5.68083 0
M  V30 18606 H 1687.24 0.654881 6.07078 0
M  V30 18607 H 1688.66 2.6903 5.06257 0
M  V30 18608 H 1687.06 3.46458 4.89987 0
M  V30 18609 H 1688.13 3.3667 3.48972 0
M  V30 18610 N 1689.47 -1.23186 0.98301 0
M  V30 18611 C 1690.42 -2.26762 0.517846 0
M  V30 18612 C 1691.41 -1.63944 -0.426459 0
M  V30 18613 O 1692.62 -1.77481 -0.300065 0
M  V30 18614 H 1688.99 -0.737082 0.149042 0
M  V30 18615 H 1690.96 -2.63356 1.40307 0
M  V30 18616 C 1689.71 -3.47324 -0.16157 0
M  V30 18617 H 1689.03 -3.95915 0.555973 0
M  V30 18618 H 1690.47 -4.21598 -0.450644 0
M  V30 18619 C 1688.93 -3.06722 -1.39366 0
M  V30 18620 O 1689.46 -3.15239 -2.48973 0
M  V30 18621 N 1687.67 -2.61609 -1.26528 0
M  V30 18622 H 1687.22 -2.54879 -0.373449 0
M  V30 18623 H 1687.17 -2.34809 -2.09074 0
M  V30 18624 N 1690.95 -0.754982 -1.38339 0
M  V30 18625 C 1691.86 -0.130303 -2.34238 0
M  V30 18626 C 1692.87 0.699048 -1.5934 0
M  V30 18627 O 1694.05 0.622876 -1.91526 0
M  V30 18628 C 1691.11 0.751285 -3.38462 0
M  V30 18629 C 1690.17 -0.0925987 -4.292 0
M  V30 18630 C 1689.41 0.747007 -5.28446 0
M  V30 18631 O 1689.63 1.98495 -5.34749 0
M  V30 18632 O 1688.56 0.165072 -6.01674 0
M  V30 18633 H 1692.39 -0.92233 -2.89356 0
M  V30 18634 H 1689.98 -0.515896 -1.4021 0
M  V30 18635 H 1691.86 1.2551 -4.02275 0
M  V30 18636 H 1690.53 1.52178 -2.85698 0
M  V30 18637 H 1689.44 -0.64239 -3.68543 0
M  V30 18638 H 1690.77 -0.825784 -4.85223 0
M  V30 18639 N 1692.42 1.49318 -0.504168 0
M  V30 18640 C 1693.33 2.32958 0.277053 0
M  V30 18641 C 1694.35 1.44838 0.964266 0
M  V30 18642 O 1695.53 1.77856 0.944947 0
M  V30 18643 C 1692.59 3.20352 1.32572 0
M  V30 18644 C 1691.65 4.24326 0.651606 0
M  V30 18645 C 1690.89 5.07544 1.65031 0
M  V30 18646 O 1691.11 4.92326 2.88047 0
M  V30 18647 O 1690.04 5.89737 1.20388 0
M  V30 18648 H 1693.87 3.00952 -0.40763 0
M  V30 18649 H 1691.45 1.47023 -0.265453 0
M  V30 18650 H 1693.34 3.74483 1.93237 0
M  V30 18651 H 1692.01 2.5505 1.99327 0
M  V30 18652 H 1690.92 3.741 0.00513384 0
M  V30 18653 H 1692.25 4.92193 0.0264424 0
M  V30 18654 N 1693.9 0.238138 1.5579 0
M  V30 18655 C 1694.83 -0.659451 2.23994 0
M  V30 18656 C 1695.81 -1.18817 1.21723 0
M  V30 18657 O 1697 -1.22913 1.50353 0
M  V30 18658 C 1694.13 -1.86043 2.93267 0
M  V30 18659 C 1693.08 -1.46485 4.02152 0
M  V30 18660 C 1692.41 -2.74595 4.58805 0
M  V30 18661 C 1693.71 -0.642448 5.18334 0
M  V30 18662 H 1695.4 -0.0907522 2.99262 0
M  V30 18663 H 1692.95 -0.042209 1.43938 0
M  V30 18664 H 1694.9 -2.49393 3.39678 0
M  V30 18665 H 1693.63 -2.45436 2.15473 0
M  V30 18666 H 1692.28 -0.854729 3.56497 0
M  V30 18667 H 1691.93 -3.32168 3.77721 0
M  V30 18668 H 1691.63 -2.48854 5.32302 0
M  V30 18669 H 1693.16 -3.38859 5.07944 0
M  V30 18670 H 1694.57 -1.18005 5.61024 0
M  V30 18671 H 1692.97 -0.481458 5.98166 0
M  V30 18672 H 1694.04 0.347298 4.83655 0
M  V30 18673 N 1695.38 -1.57561 -0.0350783 0
M  V30 18674 C 1696.33 -2.06163 -1.03756 0
M  V30 18675 C 1697.3 -0.94954 -1.36283 0
M  V30 18676 O 1698.48 -1.21971 -1.46723 0
M  V30 18677 C 1695.62 -2.54086 -2.33526 0
M  V30 18678 C 1694.74 -3.79062 -2.0721 0
M  V30 18679 C 1693.87 -4.1562 -3.30808 0
M  V30 18680 C 1692.91 -5.3353 -3.0002 0
M  V30 18681 N 1692.05 -5.65549 -4.16051 0
M  V30 18682 H 1696.89 -2.91561 -0.616137 0
M  V30 18683 H 1694.42 -1.4416 -0.292617 0
M  V30 18684 H 1696.38 -2.79935 -3.09342 0
M  V30 18685 H 1695.01 -1.71614 -2.73402 0
M  V30 18686 H 1694.06 -3.60333 -1.21919 0
M  V30 18687 H 1695.38 -4.64998 -1.80495 0
M  V30 18688 H 1694.53 -4.42565 -4.14995 0
M  V30 18689 H 1693.27 -3.28323 -3.60632 0
M  V30 18690 H 1692.27 -5.06344 -2.14234 0
M  V30 18691 H 1693.5 -6.22475 -2.7148 0
M  V30 18692 H 1691.44 -4.81211 -4.45838 0
M  V30 18693 H 1691.36 -6.45982 -3.92738 0
M  V30 18694 H 1692.63 -5.97068 -5.01129 0
M  V30 18695 N 1696.86 0.307236 -1.54576 0
M  V30 18696 C 1698.08 1.06668 -1.77867 0
M  V30 18697 C 1698.51 1.80375 -0.533536 0
M  V30 18698 O 1697.87 1.73812 0.515663 0
M  V30 18699 C 1697.91 2.02777 -2.98184 0
M  V30 18700 O 1697.02 3.10969 -2.70872 0
M  V30 18701 H 1696.36 0.306741 -0.588902 0
M  V30 18702 H 1698.89 0.346557 -2.01644 0
M  V30 18703 H 1698.9 2.45355 -3.25983 0
M  V30 18704 H 1697.57 1.48534 -3.88472 0
M  V30 18705 H 1696.15 2.7295 -2.54072 0
M  V30 18706 N 1698.34 1.46926 0.570122 0
M  V30 18707 C 1699.29 1.54854 1.67345 0
M  V30 18708 C 1700.27 0.40843 1.5563 0
M  V30 18709 O 1701.46 0.657596 1.64331 0
M  V30 18710 C 1698.59 1.55369 3.0613 0
M  V30 18711 C 1697.68 2.74718 3.23096 0
M  V30 18712 N 1698.07 3.99532 3.10173 0
M  V30 18713 C 1696.37 2.71207 3.54066 0
M  V30 18714 C 1697.07 4.79391 3.29483 0
M  V30 18715 N 1696.04 4.11484 3.55221 0
M  V30 18716 H 1699.85 2.49141 1.55903 0
M  V30 18717 H 1697.36 1.42741 0.774518 0
M  V30 18718 H 1699.36 1.59136 3.85333 0
M  V30 18719 H 1698.02 0.62167 3.18693 0
M  V30 18720 H 1699.03 4.3059 2.87772 0
M  V30 18721 H 1695.7 1.87086 3.73236 0
M  V30 18722 H 1697.09 5.88307 3.24569 0
M  V30 18723 N 1699.82 -0.815801 1.34842 0
M  V30 18724 C 1700.76 -1.92713 1.27006 0
M  V30 18725 C 1701.73 -1.65476 0.143838 0
M  V30 18726 O 1702.92 -1.87994 0.326007 0
M  V30 18727 C 1700.06 -3.29099 1.03863 0
M  V30 18728 C 1699.17 -3.68583 2.25324 0
M  V30 18729 C 1698.31 -4.93953 1.95407 0
M  V30 18730 C 1697.34 -5.26037 3.12971 0
M  V30 18731 N 1696.48 -6.42586 2.82891 0
M  V30 18732 H 1701.32 -1.98747 2.22044 0
M  V30 18733 H 1698.86 -0.972265 1.10388 0
M  V30 18734 H 1700.82 -4.07709 0.884809 0
M  V30 18735 H 1699.45 -3.22558 0.124911 0
M  V30 18736 H 1698.5 -2.85307 2.51603 0
M  V30 18737 H 1699.81 -3.88259 3.1314 0
M  V30 18738 H 1698.96 -5.80367 1.76801 0
M  V30 18739 H 1697.7 -4.76293 1.04862 0
M  V30 18740 H 1696.71 -4.38117 3.32165 0
M  V30 18741 H 1697.93 -5.45632 4.04305 0
M  V30 18742 H 1695.88 -6.26369 1.9493 0
M  V30 18743 H 1695.8 -6.62469 3.64239 0
M  V30 18744 H 1697.06 -7.32052 2.67805 0
M  V30 18745 N 1701.29 -1.18689 -1.03686 0
M  V30 18746 C 1702.22 -0.94094 -2.13702 0
M  V30 18747 C 1703.2 0.12277 -1.69656 0
M  V30 18748 O 1704.39 -0.0306085 -1.94176 0
M  V30 18749 C 1701.52 -0.470054 -3.44104 0
M  V30 18750 C 1700.47 -1.47468 -4.01792 0
M  V30 18751 C 1699.8 -0.861174 -5.2772 0
M  V30 18752 C 1701.1 -2.85254 -4.37524 0
M  V30 18753 H 1702.79 -1.86102 -2.34534 0
M  V30 18754 H 1700.34 -0.896207 -1.12713 0
M  V30 18755 H 1702.29 -0.28533 -4.20433 0
M  V30 18756 H 1701.02 0.485604 -3.2297 0
M  V30 18757 H 1699.68 -1.64641 -3.2755 0
M  V30 18758 H 1699.32 0.10179 -5.02897 0
M  V30 18759 H 1699.02 -1.53196 -5.67278 0
M  V30 18760 H 1700.55 -0.687066 -6.06722 0
M  V30 18761 H 1701.96 -2.71711 -5.04823 0
M  V30 18762 H 1700.36 -3.49051 -4.88143 0
M  V30 18763 H 1701.43 -3.38516 -3.47181 0
M  V30 18764 N 1702.77 1.22662 -0.989529 0
M  V30 18765 C 1703.68 2.28162 -0.545835 0
M  V30 18766 C 1704.7 1.69251 0.403762 0
M  V30 18767 O 1705.87 1.99563 0.271428 0
M  V30 18768 C 1702.94 3.46434 0.135808 0
M  V30 18769 C 1702 4.20673 -0.85633 0
M  V30 18770 C 1701.23 5.33298 -0.207121 0
M  V30 18771 O 1701.46 5.6157 0.99975 0
M  V30 18772 O 1700.39 5.94977 -0.910288 0
M  V30 18773 H 1704.22 2.68276 -1.42344 0
M  V30 18774 H 1701.8 1.28766 -0.757609 0
M  V30 18775 H 1703.68 4.18207 0.517776 0
M  V30 18776 H 1702.36 3.08252 0.988035 0
M  V30 18777 H 1701.26 3.51186 -1.28917 0
M  V30 18778 H 1702.6 4.62726 -1.67765 0
M  V30 18779 N 1704.25 0.762308 1.37937 0
M  V30 18780 C 1705.47 0.332217 2.04722 0
M  V30 18781 C 1705.9 -1.03417 1.57119 0
M  V30 18782 O 1705.26 -1.6608 0.727117 0
M  V30 18783 C 1705.31 0.373899 3.58656 0
M  V30 18784 O 1704.41 -0.629024 4.07575 0
M  V30 18785 H 1703.75 0.145471 0.647869 0
M  V30 18786 H 1706.28 1.03586 1.7644 0
M  V30 18787 H 1706.29 0.22785 4.07363 0
M  V30 18788 H 1704.97 1.37079 3.92661 0
M  V30 18789 H 1703.54 -0.446871 3.70213 0
M  V30 18790 N 1705.73 -1.49049 0.51208 0
M  V30 18791 C 1706.98 -2.01677 -0.0303931 0
M  V30 18792 C 1707.29 -1.39594 -1.37014 0
M  V30 18793 O 1708.5 -1.83615 -1.99994 0
M  V30 18794 C 1706.95 -3.59748 -0.104605 0
M  V30 18795 C 1706.56 -4.30808 1.22916 0
M  V30 18796 C 1708.3 -4.20283 -0.596854 0
M  V30 18797 C 1706.21 -5.80765 1.11651 0
M  V30 18798 H 1705.14 -0.753848 -0.015131 0
M  V30 18799 H 1707.79 -1.71482 0.653169 0
M  V30 18800 H 1706.17 -3.86707 -0.852859 0
M  V30 18801 H 1707.35 -4.15539 1.99158 0
M  V30 18802 H 1705.66 -3.82066 1.65573 0
M  V30 18803 H 1708.26 -5.30114 -0.698821 0
M  V30 18804 H 1708.6 -3.84392 -1.59838 0
M  V30 18805 H 1709.14 -3.97686 0.0951882 0
M  V30 18806 H 1705.87 -6.212 2.09264 0
M  V30 18807 H 1705.39 -5.98497 0.395167 0
M  V30 18808 H 1707.07 -6.42038 0.799782 0
M  V30 18809 N 1707.21 -0.246397 -1.55662 0
M  V30 18810 C 1708.15 0.653368 -2.21359 0
M  V30 18811 C 1709.12 1.1717 -1.1773 0
M  V30 18812 O 1710.31 1.22626 -1.46176 0
M  V30 18813 C 1707.45 1.84484 -2.9165 0
M  V30 18814 C 1706.56 1.36308 -4.09932 0
M  V30 18815 C 1705.7 2.51407 -4.6794 0
M  V30 18816 C 1704.73 2.0009 -5.78472 0
M  V30 18817 N 1703.87 3.08555 -6.30665 0
M  V30 18818 H 1708.71 0.0864458 -2.97875 0
M  V30 18819 H 1706.25 0.0309074 -1.47068 0
M  V30 18820 H 1708.21 2.54476 -3.30602 0
M  V30 18821 H 1706.84 2.38425 -2.17609 0
M  V30 18822 H 1705.89 0.557224 -3.76297 0
M  V30 18823 H 1707.2 0.946988 -4.89728 0
M  V30 18824 H 1706.35 3.29442 -5.09463 0
M  V30 18825 H 1705.09 2.96318 -3.87359 0
M  V30 18826 H 1704.1 1.20526 -5.36427 0
M  V30 18827 H 1705.32 1.5615 -6.60904 0
M  V30 18828 H 1703.27 3.529 -5.52989 0
M  V30 18829 H 1703.19 2.71274 -7.05653 0
M  V30 18830 H 1704.45 3.8665 -6.76847 0
M  V30 18831 N 1708.68 1.57577 0.026722 0
M  V30 18832 C 1709.59 2.10114 1.04351 0
M  V30 18833 C 1710.61 1.04029 1.39477 0
M  V30 18834 O 1711.79 1.35778 1.48749 0
M  V30 18835 C 1708.85 2.57203 2.32481 0
M  V30 18836 C 1707.91 3.77779 2.03915 0
M  V30 18837 C 1707.14 4.22613 3.25936 0
M  V30 18838 O 1707.37 3.66955 4.36692 0
M  V30 18839 O 1706.3 5.15026 3.11499 0
M  V30 18840 H 1710.13 2.97157 0.627021 0
M  V30 18841 H 1707.71 1.47396 0.243855 0
M  V30 18842 H 1709.59 2.87809 3.07805 0
M  V30 18843 H 1708.27 1.7327 2.73421 0
M  V30 18844 H 1707.18 3.52188 1.26152 0
M  V30 18845 H 1708.51 4.62703 1.67829 0
M  V30 18846 N 1710.16 -0.299034 1.54737 0
M  V30 18847 C 1711.41 -1.03164 1.7332 0
M  V30 18848 C 1711.72 -1.88362 0.527184 0
M  V30 18849 O 1712.93 -2.64903 0.594868 0
M  V30 18850 C 1711.39 -1.88391 3.06654 0
M  V30 18851 C 1710.99 -1.08187 4.34741 0
M  V30 18852 C 1712.74 -2.6124 3.34595 0
M  V30 18853 C 1710.64 -1.92702 5.59124 0
M  V30 18854 H 1709.57 -0.388887 0.645975 0
M  V30 18855 H 1712.23 -0.288544 1.81217 0
M  V30 18856 H 1710.61 -2.66696 2.92727 0
M  V30 18857 H 1711.78 -0.344817 4.59508 0
M  V30 18858 H 1710.1 -0.469118 4.13749 0
M  V30 18859 H 1712.69 -3.24826 4.24726 0
M  V30 18860 H 1713.04 -3.30172 2.53559 0
M  V30 18861 H 1713.57 -1.89982 3.49502 0
M  V30 18862 H 1710.31 -1.28236 6.42834 0
M  V30 18863 H 1709.83 -2.64074 5.38539 0
M  V30 18864 H 1711.51 -2.50702 5.96454 0
M  V30 18865 N 1711.64 -1.47227 -0.562322 0
M  V30 18866 C 1712.87 -1.57196 -1.34526 0
M  V30 18867 C 1713.28 -0.220303 -1.8751 0
M  V30 18868 O 1712.64 0.785664 -1.64723 0
M  V30 18869 C 1712.69 -2.59312 -2.51872 0
M  V30 18870 O 1712.41 -3.89229 -2.01078 0
M  V30 18871 C 1713.91 -2.79416 -3.44153 0
M  V30 18872 H 1711.13 -0.530971 -0.410257 0
M  V30 18873 H 1713.68 -1.92804 -0.68168 0
M  V30 18874 H 1711.83 -2.26652 -3.14178 0
M  V30 18875 H 1712.25 -4.44985 -2.77648 0
M  V30 18876 H 1713.72 -3.54743 -4.2292 0
M  V30 18877 H 1714.2 -1.87054 -3.97376 0
M  V30 18878 H 1714.8 -3.13254 -2.87667 0
M  V30 18879 N 1713.12 0.808639 -1.35273 0
M  V30 18880 C 1714.07 1.94177 -1.28055 0
M  V30 18881 C 1715.06 1.68485 -0.175874 0
M  V30 18882 O 1716.27 1.76726 -0.341729 0
M  V30 18883 H 1712.64 0.63793 -0.398183 0
M  V30 18884 H 1714.61 1.97385 -2.2379 0
M  V30 18885 C 1713.36 3.30913 -1.06734 0
M  V30 18886 H 1712.68 3.51238 -1.90975 0
M  V30 18887 H 1714.12 4.10607 -1.05724 0
M  V30 18888 C 1712.58 3.36122 0.228886 0
M  V30 18889 O 1713.11 3.82553 1.22539 0
M  V30 18890 N 1711.32 2.89371 0.266949 0
M  V30 18891 H 1710.87 2.51778 -0.544571 0
M  V30 18892 H 1710.82 2.93238 1.13396 0
M  V30 18893 N 1714.6 1.19237 1.03055 0
M  V30 18894 C 1715.53 0.95226 2.132 0
M  V30 18895 C 1716.51 -0.113771 1.69719 0
M  V30 18896 O 1717.69 0.0409057 1.94157 0
M  V30 18897 C 1714.82 0.488296 3.4385 0
M  V30 18898 C 1713.78 1.49597 4.01005 0
M  V30 18899 C 1713.1 0.889148 5.27255 0
M  V30 18900 C 1714.4 2.87571 4.36005 0
M  V30 18901 H 1716.1 1.87343 2.33544 0
M  V30 18902 H 1713.64 0.902172 1.12236 0
M  V30 18903 H 1715.6 0.307623 4.20276 0
M  V30 18904 H 1714.32 -0.468469 3.23223 0
M  V30 18905 H 1712.98 1.66376 3.26672 0
M  V30 18906 H 1712.63 -0.0751191 5.02944 0
M  V30 18907 H 1712.33 1.56202 5.66458 0
M  V30 18908 H 1713.85 0.719233 6.06349 0
M  V30 18909 H 1715.26 2.74384 5.03375 0
M  V30 18910 H 1713.66 3.51635 4.86285 0
M  V30 18911 H 1714.73 3.40353 3.45381 0
M  V30 18912 N 1716.07 -1.22136 0.99602 0
M  V30 18913 C 1717.02 -2.24178 0.54889 0
M  V30 18914 C 1717.99 -1.60692 -0.420391 0
M  V30 18915 O 1719.18 -1.88021 -0.324452 0
M  V30 18916 C 1716.32 -3.44865 -0.127239 0
M  V30 18917 C 1715.43 -4.22855 0.884153 0
M  V30 18918 C 1714.56 -5.30891 0.181219 0
M  V30 18919 C 1713.6 -6.00603 1.18077 0
M  V30 18920 N 1712.74 -7.00275 0.505927 0
M  V30 18921 H 1717.58 -2.61788 1.42377 0
M  V30 18922 H 1715.12 -1.28658 0.713124 0
M  V30 18923 H 1717.08 -4.1374 -0.536194 0
M  V30 18924 H 1715.71 -3.0801 -0.965892 0
M  V30 18925 H 1714.76 -3.53247 1.41141 0
M  V30 18926 H 1716.07 -4.70888 1.64518 0
M  V30 18927 H 1715.22 -6.06033 -0.284307 0
M  V30 18928 H 1713.96 -4.83841 -0.612289 0
M  V30 18929 H 1712.97 -5.2424 1.65689 0
M  V30 18930 H 1714.19 -6.4974 1.9752 0
M  V30 18931 H 1712.14 -6.55452 -0.268088 0
M  V30 18932 H 1712.06 -7.46329 1.20535 0
M  V30 18933 H 1713.32 -7.79474 0.0633069 0
M  V30 18934 N 1717.55 -0.769612 -1.37531 0
M  V30 18935 C 1718.83 -0.257788 -1.93894 0
M  V30 18936 C 1719.21 1.24679 -1.70348 0
M  V30 18937 O 1718.56 2.02892 -1.05106 0
M  V30 18938 C 1718.77 -0.628857 -3.43288 0
M  V30 18939 C 1720.12 -0.597452 -4.20376 0
M  V30 18940 O 1721.14 -0.568117 -3.5164 0
M  V30 18941 O 1720 -0.622627 -5.42942 0
M  V30 18942 H 1717.09 -0.0588144 -0.824906 0
M  V30 18943 H 1719.64 -0.85082 -1.4683 0
M  V30 18944 H 1718.41 -1.66733 -3.54 0
M  V30 18945 H 1718.03 -0.00865929 -3.97599 0
M  V30 18946 N 1719.03 1.48775 -0.519977 0
M  V30 18947 C 1719.99 2.27967 0.237405 0
M  V30 18948 C 1720.99 1.34787 0.876868 0
M  V30 18949 O 1722.18 1.57773 0.738463 0
M  V30 18950 C 1719.32 3.13353 1.34248 0
M  V30 18951 H 1720.51 2.96386 -0.457753 0
M  V30 18952 H 1718.06 1.53852 -0.275569 0
M  V30 18953 H 1718.8 2.49543 2.0712 0
M  V30 18954 H 1718.58 3.81885 0.889187 0
M  V30 18955 H 1720.07 3.73116 1.87547 0
M  V30 18956 N 1720.51 0.254649 1.55529 0
M  V30 18957 C 1721.46 -0.64162 2.21702 0
M  V30 18958 C 1722.43 -1.16544 1.1835 0
M  V30 18959 O 1723.61 -1.2185 1.46824 0
M  V30 18960 C 1720.75 -1.82935 2.92624 0
M  V30 18961 C 1719.86 -1.34132 4.10649 0
M  V30 18962 C 1719 -2.48922 4.69267 0
M  V30 18963 C 1718.04 -1.9702 5.79525 0
M  V30 18964 N 1717.17 -3.05206 6.32293 0
M  V30 18965 H 1722.01 -0.0706476 2.97916 0
M  V30 18966 H 1719.55 -0.0231077 1.47082 0
M  V30 18967 H 1721.51 -2.52719 3.31947 0
M  V30 18968 H 1720.14 -2.37267 2.1887 0
M  V30 18969 H 1719.19 -0.53726 3.76587 0
M  V30 18970 H 1720.5 -0.921003 4.90223 0
M  V30 18971 H 1719.66 -3.26735 5.11203 0
M  V30 18972 H 1718.4 -2.94259 3.88925 0
M  V30 18973 H 1717.4 -1.17679 5.37058 0
M  V30 18974 H 1718.63 -1.52643 6.61723 0
M  V30 18975 H 1716.57 -3.49963 5.54853 0
M  V30 18976 H 1716.49 -2.67528 7.07082 0
M  V30 18977 H 1717.76 -3.83055 6.78888 0
M  V30 18978 N 1721.99 -1.57589 -0.0183649 0
M  V30 18979 C 1722.92 -2.04071 -1.04343 0
M  V30 18980 C 1723.93 -0.955366 -1.3182 0
M  V30 18981 O 1725.12 -1.23249 -1.29119 0
M  V30 18982 C 1722.22 -2.41011 -2.38258 0
M  V30 18983 C 1721.39 -3.72057 -2.29984 0
M  V30 18984 C 1720.45 -3.96067 -3.46435 0
M  V30 18985 O 1719.48 -4.66982 -3.25447 0
M  V30 18986 N 1720.68 -3.42535 -4.68669 0
M  V30 18987 H 1723.45 -2.92629 -0.647168 0
M  V30 18988 H 1721.01 -1.60583 -0.20611 0
M  V30 18989 H 1723 -2.54203 -3.14902 0
M  V30 18990 H 1721.57 -1.58068 -2.69691 0
M  V30 18991 H 1720.79 -3.69117 -1.38369 0
M  V30 18992 H 1722.08 -4.58003 -2.2161 0
M  V30 18993 H 1721.47 -2.85073 -4.8862 0
M  V30 18994 H 1720.03 -3.61087 -5.42641 0
M  V30 18995 N 1723.46 0.290824 -1.54893 0
M  V30 18996 C 1724.39 1.36354 -1.89551 0
M  V30 18997 C 1725.38 1.52403 -0.75546 0
M  V30 18998 O 1726.56 1.65743 -1.01208 0
M  V30 18999 C 1723.69 2.72609 -2.15178 0
M  V30 19000 C 1722.64 2.71313 -3.31019 0
M  V30 19001 C 1721.97 4.10952 -3.42085 0
M  V30 19002 C 1723.27 2.32153 -4.6787 0
M  V30 19003 H 1724.96 1.07597 -2.79398 0
M  V30 19004 H 1722.51 0.516154 -1.34432 0
M  V30 19005 H 1724.46 3.47749 -2.3801 0
M  V30 19006 H 1723.19 3.02913 -1.22112 0
M  V30 19007 H 1721.85 1.9863 -3.08126 0
M  V30 19008 H 1721.49 4.38449 -2.46518 0
M  V30 19009 H 1721.19 4.10984 -4.1996 0
M  V30 19010 H 1722.72 4.87857 -3.67189 0
M  V30 19011 H 1724.13 2.97011 -4.90364 0
M  V30 19012 H 1722.53 2.4338 -5.48531 0
M  V30 19013 H 1723.6 1.27279 -4.67897 0
M  V30 19014 N 1724.94 1.47523 0.554506 0
M  V30 19015 C 1725.87 1.63093 1.67102 0
M  V30 19016 C 1726.85 0.480298 1.63178 0
M  V30 19017 O 1728.04 0.709956 1.80757 0
M  V30 19018 C 1725.17 1.64751 3.05736 0
M  V30 19019 C 1724.12 2.79068 3.24507 0
M  V30 19020 C 1723.45 2.65801 4.63955 0
M  V30 19021 C 1724.75 4.20631 3.09623 0
M  V30 19022 H 1726.44 2.56561 1.54328 0
M  V30 19023 H 1723.99 1.2347 0.741023 0
M  V30 19024 H 1725.94 1.74234 3.83693 0
M  V30 19025 H 1724.67 0.678453 3.19475 0
M  V30 19026 H 1723.32 2.691 2.48959 0
M  V30 19027 H 1722.97 1.66917 4.74497 0
M  V30 19028 H 1722.67 3.42494 4.77464 0
M  V30 19029 H 1724.2 2.77216 5.44044 0
M  V30 19030 H 1725.61 4.31562 3.77396 0
M  V30 19031 H 1724.01 4.98133 3.3464 0
M  V30 19032 H 1725.08 4.38809 2.06336 0
M  V30 19033 N 1726.42 -0.801453 1.357 0
M  V30 19034 C 1727.67 -1.55392 1.28594 0
M  V30 19035 C 1727.98 -1.95125 -0.136199 0
M  V30 19036 O 1729.19 -2.69492 -0.329568 0
M  V30 19037 C 1727.64 -2.80456 2.2555 0
M  V30 19038 C 1727.25 -2.47939 3.73135 0
M  V30 19039 C 1729 -3.58457 2.27396 0
M  V30 19040 C 1726.9 -3.69326 4.61901 0
M  V30 19041 H 1725.83 -0.583286 0.477801 0
M  V30 19042 H 1728.48 -0.880525 1.60994 0
M  V30 19043 H 1726.87 -3.49532 1.86127 0
M  V30 19044 H 1728.04 -1.86837 4.21223 0
M  V30 19045 H 1726.36 -1.83173 3.73947 0
M  V30 19046 H 1728.95 -4.48625 2.90929 0
M  V30 19047 H 1729.3 -3.96162 1.27912 0
M  V30 19048 H 1729.83 -2.96348 2.65373 0
M  V30 19049 H 1726.57 -3.36726 5.62402 0
M  V30 19050 H 1726.09 -4.29636 4.18536 0
M  V30 19051 H 1727.77 -4.36496 4.77578 0
M  V30 19052 N 1727.9 -1.19782 -1.02421 0
M  V30 19053 C 1728.83 -0.897544 -2.10895 0
M  V30 19054 C 1729.84 0.111644 -1.62417 0
M  V30 19055 O 1731.03 -0.118381 -1.78107 0
M  V30 19056 C 1728.13 -0.322714 -3.3736 0
M  V30 19057 C 1727.31 -1.38159 -4.15007 0
M  V30 19058 C 1726.36 -0.819462 -5.1978 0
M  V30 19059 O 1725.39 -1.4983 -5.49126 0
M  V30 19060 N 1726.59 0.374925 -5.79288 0
M  V30 19061 H 1729.36 -1.83127 -2.37243 0
M  V30 19062 H 1726.92 -1.10045 -1.1875 0
M  V30 19063 H 1728.91 0.0673046 -4.04644 0
M  V30 19064 H 1727.48 0.5154 -3.08322 0
M  V30 19065 H 1726.7 -1.94627 -3.42803 0
M  V30 19066 H 1727.99 -2.09496 -4.63669 0
M  V30 19067 H 1727.39 0.943856 -5.5777 0
M  V30 19068 H 1725.94 0.706668 -6.47958 0
M  V30 19069 N 1729.38 1.21606 -1.00248 0
M  V30 19070 C 1730.31 2.23246 -0.519009 0
M  V30 19071 C 1731.32 1.58034 0.391051 0
M  V30 19072 O 1732.51 1.77468 0.191652 0
M  V30 19073 C 1729.61 3.37854 0.266017 0
M  V30 19074 C 1728.78 4.32655 -0.642503 0
M  V30 19075 C 1727.84 5.26119 0.0924758 0
M  V30 19076 O 1726.87 5.66771 -0.525333 0
M  V30 19077 N 1728.07 5.64058 1.37183 0
M  V30 19078 H 1730.84 2.65357 -1.39305 0
M  V30 19079 H 1728.4 1.36004 -0.878327 0
M  V30 19080 H 1730.39 3.97373 0.766598 0
M  V30 19081 H 1728.96 2.94749 1.04123 0
M  V30 19082 H 1728.18 3.71314 -1.32361 0
M  V30 19083 H 1729.47 4.92929 -1.26089 0
M  V30 19084 H 1728.87 5.33018 1.89493 0
M  V30 19085 H 1727.42 6.2595 1.81741 0
M  V30 19086 N 1730.86 0.776895 1.37121 0
M  V30 19087 C 1731.8 0.164838 2.30211 0
M  V30 19088 C 1732.77 -0.684137 1.51356 0
M  V30 19089 O 1733.96 -0.635428 1.79908 0
M  V30 19090 C 1731.1 -0.704263 3.37837 0
M  V30 19091 C 1730.21 0.161881 4.31697 0
M  V30 19092 C 1729.35 -0.712411 5.26401 0
M  V30 19093 C 1728.38 0.155953 6.11901 0
M  V30 19094 N 1727.52 -0.676607 6.98832 0
M  V30 19095 H 1732.36 0.964185 2.81971 0
M  V30 19096 H 1729.9 0.487065 1.38802 0
M  V30 19097 H 1731.86 -1.22302 3.98871 0
M  V30 19098 H 1730.49 -1.46916 2.87429 0
M  V30 19099 H 1729.54 0.798491 3.71925 0
M  V30 19100 H 1730.85 0.831496 4.91821 0
M  V30 19101 H 1730 -1.29745 5.92664 0
M  V30 19102 H 1728.74 -1.41569 4.66701 0
M  V30 19103 H 1727.75 0.753493 5.44612 0
M  V30 19104 H 1728.97 0.856645 6.73675 0
M  V30 19105 H 1726.92 -1.36441 6.41654 0
M  V30 19106 H 1726.84 -0.0644017 7.55973 0
M  V30 19107 H 1728.1 -1.24588 7.69479 0
M  V30 19108 N 1732.33 -1.48497 0.527859 0
M  V30 19109 C 1733.26 -2.32414 -0.224891 0
M  V30 19110 C 1734.24 -1.41959 -0.93711 0
M  V30 19111 O 1735.43 -1.70847 -0.923302 0
M  V30 19112 C 1732.56 -3.23106 -1.27356 0
M  V30 19113 C 1731.51 -4.2257 -0.679611 0
M  V30 19114 C 1730.84 -5.02381 -1.83077 0
M  V30 19115 C 1732.14 -5.21144 0.347269 0
M  V30 19116 H 1733.83 -2.95598 0.475632 0
M  V30 19117 H 1731.38 -1.42148 0.230182 0
M  V30 19118 H 1733.33 -3.80639 -1.8081 0
M  V30 19119 H 1732.06 -2.57919 -2.00363 0
M  V30 19120 H 1730.72 -3.66221 -0.166608 0
M  V30 19121 H 1730.36 -4.3362 -2.54918 0
M  V30 19122 H 1730.06 -5.697 -1.43929 0
M  V30 19123 H 1731.59 -5.62765 -2.36914 0
M  V30 19124 H 1733 -5.73213 -0.100107 0
M  V30 19125 H 1731.4 -5.96503 0.656021 0
M  V30 19126 H 1732.47 -4.6841 1.25379 0
M  V30 19127 N 1733.81 -0.262893 -1.55392 0
M  V30 19128 C 1734.72 0.640223 -2.25695 0
M  V30 19129 C 1735.74 1.18019 -1.27857 0
M  V30 19130 O 1736.91 1.21308 -1.60768 0
M  V30 19131 C 1733.98 1.81336 -2.95497 0
M  V30 19132 C 1733.04 1.31128 -4.08784 0
M  V30 19133 C 1732.27 2.4285 -4.75247 0
M  V30 19134 O 1732.5 3.61939 -4.40859 0
M  V30 19135 O 1731.43 2.11699 -5.63442 0
M  V30 19136 H 1735.26 0.0710781 -3.03617 0
M  V30 19137 H 1732.84 -0.030765 -1.49368 0
M  V30 19138 H 1734.72 2.49764 -3.39406 0
M  V30 19139 H 1733.4 2.36982 -2.20502 0
M  V30 19140 H 1732.3 0.593816 -3.69357 0
M  V30 19141 H 1733.64 0.800711 -4.85643 0
M  V30 19142 N 1735.29 1.57597 0.0100073 0
M  V30 19143 C 1736.22 2.10825 1.00375 0
M  V30 19144 C 1737.2 1.01507 1.36493 0
M  V30 19145 O 1738.39 1.29136 1.45043 0
M  V30 19146 C 1735.52 2.60334 2.29878 0
M  V30 19147 C 1734.47 3.74087 2.07949 0
M  V30 19148 C 1733.8 4.09873 3.43378 0
M  V30 19149 C 1735.1 5.01764 1.45018 0
M  V30 19150 H 1736.79 2.94105 0.560591 0
M  V30 19151 H 1734.34 1.4148 0.268208 0
M  V30 19152 H 1736.29 2.96196 2.99743 0
M  V30 19153 H 1735.01 1.74162 2.76288 0
M  V30 19154 H 1733.67 3.38603 1.40512 0
M  V30 19155 H 1733.32 3.20739 3.87473 0
M  V30 19156 H 1733.02 4.86505 3.29525 0
M  V30 19157 H 1734.54 4.48285 4.14575 0
M  V30 19158 H 1735.96 5.35462 2.04826 0
M  V30 19159 H 1734.35 5.83135 1.41683 0
M  V30 19160 H 1735.42 4.83093 0.41819 0
M  V30 19161 N 1736.77 -0.282606 1.55045 0
M  V30 19162 C 1737.7 -1.37115 1.83663 0
M  V30 19163 C 1738.71 -1.45985 0.720563 0
M  V30 19164 O 1739.9 -1.47974 0.998294 0
M  V30 19165 C 1737 -2.7533 1.97603 0
M  V30 19166 C 1736.17 -2.89168 3.28177 0
M  V30 19167 C 1735.23 -4.07997 3.32302 0
M  V30 19168 O 1734.26 -3.9921 4.05734 0
M  V30 19169 N 1735.46 -5.19512 2.59013 0
M  V30 19170 H 1738.23 -1.12914 2.77616 0
M  V30 19171 H 1735.79 -0.472711 1.54845 0
M  V30 19172 H 1737.78 -3.531 1.97743 0
M  V30 19173 H 1736.35 -2.92396 1.1056 0
M  V30 19174 H 1735.57 -1.9836 3.40657 0
M  V30 19175 H 1736.86 -2.95338 4.1431 0
M  V30 19176 H 1736.26 -5.29536 1.99018 0
M  V30 19177 H 1734.81 -5.95549 2.64887 0
M  V30 19178 N 1738.25 -1.47815 -0.546675 0
M  V30 19179 C 1739.49 -1.54674 -1.30078 0
M  V30 19180 C 1739.81 -0.215151 -1.93809 0
M  V30 19181 O 1739.08 0.761862 -1.80478 0
M  V30 19182 H 1737.66 -0.569776 -0.483078 0
M  V30 19183 H 1740.33 -1.84178 -0.637525 0
M  V30 19184 H 1739.42 -2.31894 -2.08882 0
M  V30 19185 N 1739.72 0.794246 -1.36123 0
M  V30 19186 C 1740.67 1.90668 -1.30056 0
M  V30 19187 C 1741.64 1.65226 -0.170145 0
M  V30 19188 O 1742.83 1.87452 -0.355874 0
M  V30 19189 C 1739.97 3.27405 -1.09086 0
M  V30 19190 C 1739.08 3.64951 -2.31159 0
M  V30 19191 C 1738.21 4.90782 -2.0324 0
M  V30 19192 C 1737.25 5.20992 -3.21301 0
M  V30 19193 N 1736.39 6.38005 -2.93078 0
M  V30 19194 H 1741.23 1.9519 -2.25178 0
M  V30 19195 H 1738.77 0.95458 -1.1192 0
M  V30 19196 H 1740.72 4.0625 -0.94956 0
M  V30 19197 H 1739.35 3.22319 -0.176211 0
M  V30 19198 H 1738.41 2.81268 -2.5611 0
M  V30 19199 H 1739.72 3.83228 -3.19277 0
M  V30 19200 H 1738.87 5.77481 -1.86012 0
M  V30 19201 H 1737.61 4.74565 -1.12426 0
M  V30 19202 H 1736.62 4.32777 -3.39093 0
M  V30 19203 H 1737.84 5.39131 -4.12934 0
M  V30 19204 H 1735.79 6.23189 -2.0487 0
M  V30 19205 H 1735.7 6.56591 -3.74733 0
M  V30 19206 H 1736.97 7.27699 -2.79418 0
M  V30 19207 N 1741.2 1.20323 1.01785 0
M  V30 19208 C 1742.16 0.9527 2.08462 0
M  V30 19209 C 1743.16 -0.0712564 1.60642 0
M  V30 19210 O 1744.35 0.164672 1.7342 0
M  V30 19211 C 1741.49 0.434052 3.38125 0
M  V30 19212 H 1742.68 1.89895 2.32121 0
M  V30 19213 H 1740.23 1.01843 1.18565 0
M  V30 19214 H 1740.97 -0.51772 3.20141 0
M  V30 19215 H 1740.75 1.17248 3.74159 0
M  V30 19216 H 1742.24 0.278215 4.16672 0
M  V30 19217 N 1742.68 -1.21073 1.00892 0
M  V30 19218 C 1743.96 -1.85871 0.609214 0
M  V30 19219 C 1744.34 -1.90334 -0.913023 0
M  V30 19220 O 1743.68 -1.40552 -1.80159 0
M  V30 19221 C 1743.89 -3.25918 1.24813 0
M  V30 19222 C 1745.24 -4.02274 1.35871 0
M  V30 19223 O 1746.27 -3.35244 1.20375 0
M  V30 19224 O 1745.13 -5.22296 1.60838 0
M  V30 19225 H 1742.22 -0.800105 0.20919 0
M  V30 19226 H 1744.77 -1.28724 1.10581 0
M  V30 19227 H 1743.54 -3.17392 2.28862 0
M  V30 19228 H 1743.16 -3.90688 0.738124 0
M  V30 19229 N 1744.16 -0.784156 -1.36707 0
M  V30 19230 C 1745.38 -0.364744 -2.04168 0
M  V30 19231 C 1745.81 1.00905 -1.58745 0
M  V30 19232 O 1745.17 1.64903 -0.753447 0
M  V30 19233 C 1745.21 -0.43091 -3.58016 0
M  V30 19234 O 1744.32 0.564103 -4.08524 0
M  V30 19235 H 1743.66 -0.15576 -0.645473 0
M  V30 19236 H 1746.19 -1.0638 -1.74769 0
M  V30 19237 H 1746.2 -0.292629 -4.06949 0
M  V30 19238 H 1744.87 -1.43308 -3.9043 0
M  V30 19239 H 1743.45 0.387917 -3.70877 0
M  V30 19240 N 1745.64 1.48215 -0.535727 0
M  V30 19241 C 1746.57 2.3253 0.212562 0
M  V30 19242 C 1747.55 1.42454 0.929568 0
M  V30 19243 O 1748.73 1.71334 0.914228 0
M  V30 19244 C 1745.86 3.23777 1.25641 0
M  V30 19245 C 1744.82 4.22924 0.657191 0
M  V30 19246 C 1744.14 5.03345 1.80411 0
M  V30 19247 C 1745.44 5.20953 -0.374902 0
M  V30 19248 H 1747.14 2.95341 -0.491301 0
M  V30 19249 H 1744.68 1.42024 -0.237718 0
M  V30 19250 H 1746.64 3.81592 1.78789 0
M  V30 19251 H 1745.36 2.58978 1.98993 0
M  V30 19252 H 1744.02 3.66304 0.147184 0
M  V30 19253 H 1743.67 4.34965 2.52615 0
M  V30 19254 H 1743.37 5.70455 1.40906 0
M  V30 19255 H 1744.89 5.64013 2.33926 0
M  V30 19256 H 1746.3 5.73258 0.0697072 0
M  V30 19257 H 1744.7 5.96147 -0.687646 0
M  V30 19258 H 1745.77 4.67739 -1.27861 0
M  V30 19259 N 1747.11 0.27113 1.5525 0
M  V30 19260 C 1748.06 -0.618069 2.2237 0
M  V30 19261 C 1749.03 -1.15282 1.19579 0
M  V30 19262 O 1750.22 -1.20285 1.48108 0
M  V30 19263 C 1747.36 -1.79821 2.94548 0
M  V30 19264 C 1746.47 -1.29769 4.12049 0
M  V30 19265 C 1745.6 -2.43931 4.7188 0
M  V30 19266 C 1744.64 -1.90862 5.81582 0
M  V30 19267 N 1743.78 -2.98482 6.35494 0
M  V30 19268 H 1748.62 -0.0390456 2.97974 0
M  V30 19269 H 1746.16 -0.00750636 1.47098 0
M  V30 19270 H 1748.12 -2.49184 3.34609 0
M  V30 19271 H 1746.75 -2.34933 2.21374 0
M  V30 19272 H 1745.8 -0.497288 3.77136 0
M  V30 19273 H 1747.11 -0.868957 4.91173 0
M  V30 19274 H 1746.26 -3.21295 5.1464 0
M  V30 19275 H 1745 -2.90118 3.92024 0
M  V30 19276 H 1744.01 -1.11977 5.38276 0
M  V30 19277 H 1745.23 -1.45616 6.63304 0
M  V30 19278 H 1743.18 -3.44058 5.58534 0
M  V30 19279 H 1743.1 -2.60014 7.09879 0
M  V30 19280 H 1744.36 -3.75833 6.82913 0
M  V30 19281 N 1748.59 -1.576 -0.00164943 0
M  V30 19282 C 1749.56 -2.07267 -0.978423 0
M  V30 19283 C 1750.56 -0.981758 -1.27351 0
M  V30 19284 O 1751.75 -1.24446 -1.21896 0
M  V30 19285 C 1748.88 -2.51273 -2.30379 0
M  V30 19286 H 1750.07 -2.94835 -0.548845 0
M  V30 19287 H 1747.62 -1.54302 -0.249086 0
M  V30 19288 H 1748.36 -1.66943 -2.7803 0
M  V30 19289 H 1748.14 -3.30943 -2.10283 0
M  V30 19290 H 1749.63 -2.90031 -3.00453 0
M  V30 19291 N 1750.07 0.274379 -1.55193 0
M  V30 19292 C 1751.03 1.32237 -1.87206 0
M  V30 19293 C 1752.03 1.4242 -0.74654 0
M  V30 19294 O 1753.22 1.41595 -1.01472 0
M  V30 19295 C 1750.36 2.7039 -2.0761 0
M  V30 19296 H 1751.55 1.05083 -2.80887 0
M  V30 19297 H 1749.1 0.512375 -1.47663 0
M  V30 19298 H 1749.84 3.02727 -1.16306 0
M  V30 19299 H 1749.62 2.64385 -2.89556 0
M  V30 19300 H 1751.11 3.46114 -2.33655 0
M  V30 19301 N 1751.55 1.48103 0.538828 0
M  V30 19302 C 1752.79 1.559 1.29704 0
M  V30 19303 C 1753.13 0.228359 1.92853 0
M  V30 19304 O 1752.4 -0.764825 1.78831 0
M  V30 19305 C 1752.69 2.69072 2.39316 0
M  V30 19306 C 1752.54 4.11812 1.80916 0
M  V30 19307 C 1753.86 2.78051 3.41138 0
M  V30 19308 H 1750.98 0.5675 0.470226 0
M  V30 19309 H 1753.62 1.80239 0.601163 0
M  V30 19310 H 1751.77 2.4845 2.98672 0
M  V30 19311 H 1753.44 4.4385 1.25679 0
M  V30 19312 H 1751.68 4.19227 1.11494 0
M  V30 19313 H 1752.35 4.86805 2.6024 0
M  V30 19314 H 1754.83 2.96707 2.91726 0
M  V30 19315 H 1753.71 3.58982 4.15239 0
M  V30 19316 H 1753.97 1.85849 4.01139 0
M  V30 19317 N 1753.03 -0.787016 1.36542 0
M  V30 19318 C 1753.94 -1.93103 1.33223 0
M  V30 19319 C 1754.95 -1.72419 0.234047 0
M  V30 19320 O 1756.13 -1.95915 0.466828 0
M  V30 19321 C 1753.19 -3.28002 1.12319 0
M  V30 19322 C 1752.25 -3.61447 2.31635 0
M  V30 19323 C 1751.49 -4.89909 2.11719 0
M  V30 19324 O 1751.71 -5.59818 1.0936 0
M  V30 19325 O 1750.64 -5.22065 2.99552 0
M  V30 19326 H 1754.47 -1.98853 2.29545 0
M  V30 19327 H 1752.06 -0.92761 1.17114 0
M  V30 19328 H 1753.94 -4.08722 1.02589 0
M  V30 19329 H 1752.61 -3.23138 0.19061 0
M  V30 19330 H 1751.52 -2.81024 2.46934 0
M  V30 19331 H 1752.85 -3.71037 3.23407 0
M  V30 19332 N 1754.5 -1.20861 -1.01145 0
M  V30 19333 C 1755.44 -0.919862 -2.09931 0
M  V30 19334 C 1756.45 0.0944116 -1.62526 0
M  V30 19335 O 1757.64 -0.137265 -1.77971 0
M  V30 19336 C 1754.74 -0.358478 -3.36999 0
M  V30 19337 C 1753.91 -1.42553 -4.13518 0
M  V30 19338 C 1752.97 -0.874546 -5.18882 0
M  V30 19339 O 1752 -1.55646 -5.47506 0
M  V30 19340 N 1753.2 0.313462 -5.79653 0
M  V30 19341 H 1755.96 -1.85633 -2.35288 0
M  V30 19342 H 1753.52 -1.11299 -1.17577 0
M  V30 19343 H 1755.52 0.0243829 -4.04693 0
M  V30 19344 H 1754.09 0.482669 -3.08851 0
M  V30 19345 H 1753.31 -1.98251 -3.4072 0
M  V30 19346 H 1754.59 -2.14402 -4.61421 0
M  V30 19347 H 1753.99 0.884644 -5.5874 0
M  V30 19348 H 1752.55 0.637904 -6.48671 0
M  V30 19349 N 1755.98 1.20536 -1.01532 0
M  V30 19350 C 1756.89 2.26953 -0.594109 0
M  V30 19351 C 1757.91 1.70069 0.367771 0
M  V30 19352 O 1759.08 2.00093 0.229036 0
M  V30 19353 C 1756.15 3.46644 0.0622939 0
M  V30 19354 C 1755.21 4.18762 -0.945368 0
M  V30 19355 C 1754.44 5.32739 -0.320195 0
M  V30 19356 O 1754.67 5.63565 0.880407 0
M  V30 19357 O 1753.6 5.92912 -1.03629 0
M  V30 19358 H 1757.43 2.65196 -1.48003 0
M  V30 19359 H 1755.01 1.2713 -0.784752 0
M  V30 19360 H 1756.89 4.19211 0.428952 0
M  V30 19361 H 1755.57 3.10279 0.922428 0
M  V30 19362 H 1754.48 3.48372 -1.36337 0
M  V30 19363 H 1755.81 4.59064 -1.77543 0
M  V30 19364 N 1757.46 0.791395 1.36289 0
M  V30 19365 C 1758.41 0.189246 2.30023 0
M  V30 19366 C 1759.38 -0.668045 1.52074 0
M  V30 19367 O 1760.56 -0.61631 1.80572 0
M  V30 19368 C 1757.7 -0.668391 3.38565 0
M  V30 19369 C 1756.82 0.207659 4.31501 0
M  V30 19370 C 1755.95 -0.656539 5.27127 0
M  V30 19371 C 1754.99 0.220845 6.11701 0
M  V30 19372 N 1754.13 -0.602449 6.99511 0
M  V30 19373 H 1758.97 0.994038 2.80932 0
M  V30 19374 H 1756.5 0.501759 1.38278 0
M  V30 19375 H 1758.46 -1.18064 4.00146 0
M  V30 19376 H 1757.09 -1.43859 2.88971 0
M  V30 19377 H 1756.14 0.837894 3.71057 0
M  V30 19378 H 1757.46 0.883613 4.90911 0
M  V30 19379 H 1756.61 -1.23452 5.94007 0
M  V30 19380 H 1755.35 -1.36611 4.68176 0
M  V30 19381 H 1754.35 0.811214 5.43782 0
M  V30 19382 H 1755.58 0.928049 6.72729 0
M  V30 19383 H 1753.52 -1.29628 6.43065 0
M  V30 19384 H 1753.44 0.015783 7.55998 0
M  V30 19385 H 1754.71 -1.16419 7.70757 0
M  V30 19386 N 1758.94 -1.47929 0.54358 0
M  V30 19387 C 1760.36 -1.58312 0.202376 0
M  V30 19388 C 1760.56 -1.54394 -1.29479 0
M  V30 19389 O 1759.61 -1.44015 -2.07403 0
M  V30 19390 C 1760.92 -2.89389 0.816958 0
M  V30 19391 C 1762.47 -3.02946 0.786935 0
M  V30 19392 C 1762.95 -4.36704 1.38034 0
M  V30 19393 N 1764.44 -4.43306 1.34291 0
M  V30 19394 C 1765.17 -5.45339 1.77182 0
M  V30 19395 N 1764.67 -6.54255 2.27866 0
M  V30 19396 N 1766.46 -5.36302 1.68336 0
M  V30 19397 H 1758.61 -1.48719 1.51646 0
M  V30 19398 H 1760.88 -0.706966 0.631587 0
M  V30 19399 H 1760.58 -2.97953 1.86861 0
M  V30 19400 H 1760.46 -3.75989 0.30198 0
M  V30 19401 H 1762.84 -2.93988 -0.25599 0
M  V30 19402 H 1762.92 -2.17923 1.33953 0
M  V30 19403 H 1762.57 -4.46418 2.42226 0
M  V30 19404 H 1762.5 -5.20437 0.803308 0
M  V30 19405 H 1764.99 -3.65185 0.972033 0
M  V30 19406 H 1765.3 -7.28265 2.58552 0
M  V30 19407 H 1763.65 -6.55181 2.31868 0
M  V30 19408 H 1766.84 -4.50109 1.28527 0
M  V30 19409 H 1767.01 -6.15684 2.02082 0
M  V30 19410 N 1760.42 -0.27936 -1.55104 0
M  V30 19411 C 1761.37 0.62221 -2.24123 0
M  V30 19412 C 1762.36 1.15445 -1.23971 0
M  V30 19413 O 1763.57 1.10759 -1.41889 0
M  V30 19414 H 1759.94 0.219212 -0.71934 0
M  V30 19415 H 1761.91 0.0173061 -2.98395 0
M  V30 19416 C 1760.66 1.79301 -2.97903 0
M  V30 19417 H 1759.98 1.39266 -3.7476 0
M  V30 19418 H 1761.42 2.40038 -3.49511 0
M  V30 19419 C 1759.88 2.68405 -2.03618 0
M  V30 19420 O 1760.41 3.68887 -1.59014 0
M  V30 19421 N 1758.62 2.35666 -1.70028 0
M  V30 19422 H 1758.17 1.54003 -2.06497 0
M  V30 19423 H 1758.12 2.95554 -1.07215 0
M  V30 19424 N 1761.9 1.57599 -0.0067085 0
M  V30 19425 C 1762.83 2.05706 1.01084 0
M  V30 19426 C 1763.84 0.976216 1.30284 0
M  V30 19427 O 1765.03 1.25288 1.27142 0
M  V30 19428 C 1762.13 2.44771 2.34393 0
M  V30 19429 C 1761.3 3.75668 2.24036 0
M  V30 19430 C 1760.36 4.01528 3.4009 0
M  V30 19431 O 1759.39 4.72101 3.17977 0
M  V30 19432 N 1760.59 3.49947 4.6316 0
M  V30 19433 H 1763.35 2.93622 0.600532 0
M  V30 19434 H 1760.92 1.6089 0.180536 0
M  V30 19435 H 1762.91 2.5918 3.10818 0
M  V30 19436 H 1761.48 1.62339 2.67142 0
M  V30 19437 H 1760.7 3.71272 1.3248 0
M  V30 19438 H 1761.99 4.6147 2.14295 0
M  V30 19439 H 1761.38 2.92811 4.84023 0
M  V30 19440 H 1759.94 3.69675 5.36828 0
M  V30 19441 N 1763.37 -0.266145 1.55336 0
M  V30 19442 C 1764.31 -1.35159 1.85107 0
M  V30 19443 C 1765.32 -1.45213 0.736006 0
M  V30 19444 O 1766.51 -1.46907 1.01393 0
M  V30 19445 C 1763.61 -2.73218 2.00512 0
M  V30 19446 C 1762.78 -2.85671 3.31226 0
M  V30 19447 C 1761.84 -4.0445 3.36611 0
M  V30 19448 O 1760.87 -3.94884 4.09945 0
M  V30 19449 N 1762.07 -5.16735 2.64508 0
M  V30 19450 H 1764.83 -1.09963 2.78798 0
M  V30 19451 H 1762.39 -0.456261 1.55338 0
M  V30 19452 H 1764.39 -3.50983 2.01477 0
M  V30 19453 H 1762.96 -2.91206 1.13655 0
M  V30 19454 H 1762.18 -1.94736 3.42741 0
M  V30 19455 H 1763.46 -2.90927 4.17419 0
M  V30 19456 H 1762.86 -5.27395 2.04624 0
M  V30 19457 H 1761.42 -5.92706 2.71189 0
M  V30 19458 N 1764.85 -1.48386 -0.530967 0
M  V30 19459 C 1766.1 -1.55608 -1.28332 0
M  V30 19460 C 1766.41 -0.234479 -1.94189 0
M  V30 19461 O 1767.62 -0.184926 -2.70869 0
M  V30 19462 C 1766.08 -2.74423 -2.32852 0
M  V30 19463 C 1765.68 -4.13221 -1.73068 0
M  V30 19464 C 1767.43 -2.90956 -3.09103 0
M  V30 19465 C 1765.33 -5.23299 -2.75522 0
M  V30 19466 H 1764.26 -0.579291 -0.482637 0
M  V30 19467 H 1766.92 -1.74718 -0.560885 0
M  V30 19468 H 1765.3 -2.48745 -3.08126 0
M  V30 19469 H 1766.47 -4.48913 -1.03989 0
M  V30 19470 H 1764.79 -4.01796 -1.09312 0
M  V30 19471 H 1767.38 -3.70363 -3.85662 0
M  V30 19472 H 1767.73 -2.00376 -3.64905 0
M  V30 19473 H 1768.26 -3.1653 -2.40943 0
M  V30 19474 H 1765 -6.15842 -2.24542 0
M  V30 19475 H 1764.52 -4.92095 -3.42932 0
M  V30 19476 H 1766.2 -5.5137 -3.38526 0
M  V30 19477 N 1766.33 0.779763 -1.36958 0
M  V30 19478 C 1767.26 1.90687 -1.34762 0
M  V30 19479 C 1768.24 1.68704 -0.217508 0
M  V30 19480 O 1769.43 1.89678 -0.416639 0
M  V30 19481 C 1766.56 3.27854 -1.14582 0
M  V30 19482 C 1765.51 3.64383 -2.2452 0
M  V30 19483 C 1764.84 5.00004 -1.89473 0
M  V30 19484 C 1766.14 3.71963 -3.66662 0
M  V30 19485 H 1767.83 1.92781 -2.29076 0
M  V30 19486 H 1765.38 0.926102 -1.10269 0
M  V30 19487 H 1767.33 4.06332 -1.11678 0
M  V30 19488 H 1766.05 3.26172 -0.167218 0
M  V30 19489 H 1764.71 2.88207 -2.26566 0
M  V30 19490 H 1764.36 4.94853 -0.901617 0
M  V30 19491 H 1764.06 5.25414 -2.63085 0
M  V30 19492 H 1765.58 5.80892 -1.88141 0
M  V30 19493 H 1767 4.40611 -3.6679 0
M  V30 19494 H 1765.39 4.08864 -4.39261 0
M  V30 19495 H 1766.46 2.72824 -4.00868 0
M  V30 19496 N 1767.81 1.21396 1.00503 0
M  V30 19497 C 1768.75 0.973198 2.09279 0
M  V30 19498 C 1769.72 -0.100797 1.65794 0
M  V30 19499 O 1770.91 0.0463185 1.90744 0
M  V30 19500 C 1768.05 0.543941 3.40786 0
M  V30 19501 C 1767.16 1.68737 3.97683 0
M  V30 19502 C 1766.3 1.20728 5.17299 0
M  V30 19503 C 1765.34 2.32305 5.66305 0
M  V30 19504 N 1764.47 1.8543 6.77171 0
M  V30 19505 H 1769.31 1.90441 2.29208 0
M  V30 19506 H 1766.85 0.949082 1.12387 0
M  V30 19507 H 1768.81 0.276311 4.16284 0
M  V30 19508 H 1767.44 -0.350263 3.20894 0
M  V30 19509 H 1766.49 2.06964 3.19171 0
M  V30 19510 H 1767.8 2.5271 4.30045 0
M  V30 19511 H 1766.96 0.896312 6.00043 0
M  V30 19512 H 1765.7 0.3376 4.8653 0
M  V30 19513 H 1764.7 2.64205 4.82158 0
M  V30 19514 H 1765.93 3.19769 5.99103 0
M  V30 19515 H 1763.87 1.00806 6.48208 0
M  V30 19516 H 1763.79 2.62976 7.08788 0
M  V30 19517 H 1765.06 1.57366 7.6345 0
M  V30 19518 N 1769.29 -1.19996 1.0217 0
M  V30 19519 C 1770.56 -1.85214 0.628894 0
M  V30 19520 C 1770.94 -1.91292 -0.892784 0
M  V30 19521 O 1770.29 -1.42455 -1.78658 0
M  V30 19522 C 1770.5 -3.24576 1.28262 0
M  V30 19523 C 1771.85 -4.0081 1.4013 0
M  V30 19524 O 1772.87 -3.33948 1.23923 0
M  V30 19525 O 1771.73 -5.20561 1.66368 0
M  V30 19526 H 1768.83 -0.797842 0.217664 0
M  V30 19527 H 1771.37 -1.27544 1.1194 0
M  V30 19528 H 1770.14 -3.14947 2.32216 0
M  V30 19529 H 1769.77 -3.89884 0.77952 0
M  V30 19530 N 1770.76 -0.798611 -1.35867 0
M  V30 19531 C 1771.7 -0.161203 -2.28632 0
M  V30 19532 C 1772.71 0.634886 -1.4991 0
M  V30 19533 O 1773.9 0.468557 -1.72241 0
M  V30 19534 C 1771 0.794407 -3.29458 0
M  V30 19535 C 1770.17 0.0464031 -4.37375 0
M  V30 19536 C 1769.23 0.919313 -5.18107 0
M  V30 19537 O 1768.26 0.373179 -5.67975 0
M  V30 19538 N 1769.46 2.24243 -5.35439 0
M  V30 19539 H 1772.22 -0.958079 -2.83973 0
M  V30 19540 H 1769.78 -0.653344 -1.48132 0
M  V30 19541 H 1771.78 1.38242 -3.80357 0
M  V30 19542 H 1770.35 1.49212 -2.7469 0
M  V30 19543 H 1769.57 -0.722757 -3.87518 0
M  V30 19544 H 1770.85 -0.469417 -5.0663 0
M  V30 19545 H 1770.25 2.71017 -4.96554 0
M  V30 19546 H 1768.81 2.77986 -5.89548 0
M  V30 19547 N 1772.24 1.47639 -0.551417 0
M  V30 19548 C 1773.49 2.02784 -0.0252425 0
M  V30 19549 C 1773.82 1.42549 1.31884 0
M  V30 19550 O 1773.1 0.578954 1.85684 0
M  V30 19551 C 1773.38 3.60024 0.0740051 0
M  V30 19552 C 1773.23 4.30702 -1.29676 0
M  V30 19553 C 1774.55 4.32946 0.790302 0
M  V30 19554 H 1771.67 0.736923 -0.0106473 0
M  V30 19555 H 1774.31 1.76131 -0.712589 0
M  V30 19556 H 1772.46 3.82863 0.65939 0
M  V30 19557 H 1774.13 4.1922 -1.9249 0
M  V30 19558 H 1772.38 3.91282 -1.87299 0
M  V30 19559 H 1773.05 5.39238 -1.18009 0
M  V30 19560 H 1775.52 4.15065 0.293326 0
M  V30 19561 H 1774.4 5.42608 0.828692 0
M  V30 19562 H 1774.66 4.01752 1.84521 0
M  V30 19563 N 1773.72 0.287581 1.54954 0
M  V30 19564 C 1774.67 -0.594449 2.23013 0
M  V30 19565 C 1775.64 -1.14007 1.20795 0
M  V30 19566 O 1776.82 -1.18708 1.49376 0
M  V30 19567 C 1773.96 -1.76687 2.96439 0
M  V30 19568 C 1773.08 -1.25391 4.13402 0
M  V30 19569 C 1772.21 -2.38912 4.74441 0
M  V30 19570 C 1771.25 -1.84683 5.83574 0
M  V30 19571 N 1770.39 -2.91725 6.38624 0
M  V30 19572 H 1775.23 -0.00743921 2.97999 0
M  V30 19573 H 1772.76 0.00809578 1.47098 0
M  V30 19574 H 1774.72 -2.45621 3.37233 0
M  V30 19575 H 1773.35 -2.32571 2.23853 0
M  V30 19576 H 1772.4 -0.45726 3.77642 0
M  V30 19577 H 1773.72 -0.816813 4.92067 0
M  V30 19578 H 1772.87 -3.15818 5.18019 0
M  V30 19579 H 1771.61 -2.85943 3.95079 0
M  V30 19580 H 1770.61 -1.06261 5.39434 0
M  V30 19581 H 1771.84 -1.38572 6.64812 0
M  V30 19582 H 1769.78 -3.38115 5.62152 0
M  V30 19583 H 1769.7 -2.5247 7.12597 0
M  V30 19584 H 1770.97 -3.68569 6.86861 0
M  V30 19585 N 1775.2 -1.57593 0.0150662 0
M  V30 19586 C 1776.15 -2.0936 -0.971443 0
M  V30 19587 C 1777.12 -0.992416 -1.33193 0
M  V30 19588 O 1778.3 -1.26577 -1.42769 0
M  V30 19589 C 1775.44 -2.61386 -2.25324 0
M  V30 19590 C 1774.55 -3.85462 -1.95046 0
M  V30 19591 C 1773.69 -4.25934 -3.17418 0
M  V30 19592 C 1772.73 -5.42805 -2.82894 0
M  V30 19593 N 1771.86 -5.78499 -3.97848 0
M  V30 19594 H 1776.7 -2.93373 -0.523068 0
M  V30 19595 H 1774.24 -1.45018 -0.246605 0
M  V30 19596 H 1776.2 -2.89635 -3.00279 0
M  V30 19597 H 1774.83 -1.80225 -2.67804 0
M  V30 19598 H 1773.88 -3.64029 -1.10394 0
M  V30 19599 H 1775.19 -4.70505 -1.6561 0
M  V30 19600 H 1774.35 -4.55544 -4.00705 0
M  V30 19601 H 1773.09 -3.3963 -3.50004 0
M  V30 19602 H 1772.09 -5.12903 -1.98016 0
M  V30 19603 H 1773.32 -6.30797 -2.51539 0
M  V30 19604 H 1771.26 -4.95152 -4.30303 0
M  V30 19605 H 1771.18 -6.5815 -3.71988 0
M  V30 19606 H 1772.45 -6.12708 -4.8188 0
M  V30 19607 N 1776.68 0.257904 -1.55475 0
M  V30 19608 C 1777.59 1.34084 -1.92506 0
M  V30 19609 C 1778.6 1.53246 -0.824123 0
M  V30 19610 O 1779.78 1.67081 -1.12455 0
M  V30 19611 C 1776.84 2.67741 -2.20263 0
M  V30 19612 C 1775.9 2.57196 -3.43728 0
M  V30 19613 C 1775.14 3.84479 -3.7015 0
M  V30 19614 O 1775.36 4.85858 -2.98827 0
M  V30 19615 O 1774.29 3.83774 -4.63682 0
M  V30 19616 H 1778.12 1.05672 -2.84723 0
M  V30 19617 H 1775.71 0.457726 -1.42215 0
M  V30 19618 H 1777.59 3.46743 -2.39473 0
M  V30 19619 H 1776.26 2.95907 -1.31227 0
M  V30 19620 H 1775.17 1.76518 -3.29837 0
M  V30 19621 H 1776.5 2.33977 -4.33031 0
M  V30 19622 N 1778.15 1.48666 0.52309 0
M  V30 19623 C 1779.06 1.66396 1.65377 0
M  V30 19624 C 1780.08 0.546469 1.65196 0
M  V30 19625 O 1781.26 0.818413 1.84022 0
M  V30 19626 C 1778.32 1.70602 3.01821 0
M  V30 19627 C 1777.38 2.94028 3.12803 0
M  V30 19628 C 1776.62 2.98024 4.42739 0
M  V30 19629 O 1776.84 2.10232 5.30244 0
M  V30 19630 O 1775.77 3.90266 4.58231 0
M  V30 19631 H 1779.6 2.62138 1.53354 0
M  V30 19632 H 1777.18 1.32148 0.696948 0
M  V30 19633 H 1779.07 1.75849 3.82956 0
M  V30 19634 H 1777.74 0.780346 3.14153 0
M  V30 19635 H 1776.65 2.9431 2.30938 0
M  V30 19636 H 1777.98 3.86003 3.0539 0
M  V30 19637 N 1779.63 -0.772489 1.37369 0
M  V30 19638 C 1780.54 -1.91679 1.35263 0
M  V30 19639 C 1781.56 -1.72161 0.252321 0
M  V30 19640 O 1782.73 -1.95409 0.487581 0
M  V30 19641 C 1779.8 -3.26792 1.15792 0
M  V30 19642 C 1778.86 -3.5897 2.35455 0
M  V30 19643 C 1778.09 -4.87636 2.16903 0
M  V30 19644 O 1778.32 -5.58627 1.15291 0
M  V30 19645 O 1777.25 -5.18859 3.05072 0
M  V30 19646 H 1781.08 -1.96408 2.31641 0
M  V30 19647 H 1778.66 -0.915136 1.18092 0
M  V30 19648 H 1780.54 -4.07611 1.06918 0
M  V30 19649 H 1779.22 -3.22918 0.224872 0
M  V30 19650 H 1778.13 -2.78389 2.49901 0
M  V30 19651 H 1779.46 -3.67586 3.27325 0
M  V30 19652 N 1781.11 -1.21927 -0.998575 0
M  V30 19653 C 1782.02 -1.00049 -2.12197 0
M  V30 19654 C 1783.04 0.0494414 -1.7393 0
M  V30 19655 O 1784.21 -0.142033 -2.00899 0
M  V30 19656 C 1781.28 -0.574871 -3.41901 0
M  V30 19657 C 1780.34 -1.69776 -3.94303 0
M  V30 19658 C 1779.57 -1.29236 -5.17816 0
M  V30 19659 O 1779.79 -0.168709 -5.7015 0
M  V30 19660 O 1778.73 -2.10671 -5.63827 0
M  V30 19661 H 1782.55 -1.94154 -2.33534 0
M  V30 19662 H 1780.14 -1.00472 -1.10571 0
M  V30 19663 H 1782.02 -0.347603 -4.19964 0
M  V30 19664 H 1780.7 0.337389 -3.21937 0
M  V30 19665 H 1779.6 -1.9795 -3.17438 0
M  V30 19666 H 1780.94 -2.58768 -4.18688 0
M  V30 19667 N 1782.59 1.19452 -1.02805 0
M  V30 19668 C 1783.52 2.24875 -0.628752 0
M  V30 19669 C 1784.5 1.66207 0.361844 0
M  V30 19670 O 1785.68 1.92652 0.244743 0
M  V30 19671 C 1782.81 3.47293 0.0220954 0
M  V30 19672 C 1781.77 4.1863 -0.890693 0
M  V30 19673 C 1781.09 5.34597 -0.104997 0
M  V30 19674 C 1782.39 4.73518 -2.20405 0
M  V30 19675 H 1784.09 2.5853 -1.51005 0
M  V30 19676 H 1781.63 1.24271 -0.727518 0
M  V30 19677 H 1783.59 4.20235 0.313073 0
M  V30 19678 H 1782.31 3.12835 0.938182 0
M  V30 19679 H 1780.97 3.47568 -1.16585 0
M  V30 19680 H 1780.62 4.96385 0.813098 0
M  V30 19681 H 1780.32 5.83258 -0.712983 0
M  V30 19682 H 1781.84 6.10337 0.179259 0
M  V30 19683 H 1783.26 5.3822 -1.97465 0
M  V30 19684 H 1781.65 5.32663 -2.76388 0
M  V30 19685 H 1782.72 3.9163 -2.85926 0
M  V30 19686 N 1784.07 0.805805 1.35442 0
M  V30 19687 C 1785.01 0.213632 2.29809 0
M  V30 19688 C 1785.98 -0.651878 1.52774 0
M  V30 19689 O 1787.17 -0.597124 1.81216 0
M  V30 19690 C 1784.31 -0.632444 3.39255 0
M  V30 19691 C 1783.42 0.253414 4.31256 0
M  V30 19692 C 1782.56 -0.600593 5.27794 0
M  V30 19693 C 1781.6 0.285712 6.11433 0
M  V30 19694 N 1780.73 -0.528222 7.0011 0
M  V30 19695 H 1785.57 1.02378 2.79862 0
M  V30 19696 H 1783.11 0.516397 1.37738 0
M  V30 19697 H 1785.07 -1.13814 4.01376 0
M  V30 19698 H 1783.7 -1.40786 2.90481 0
M  V30 19699 H 1782.75 0.877202 3.70148 0
M  V30 19700 H 1784.06 0.935631 4.89946 0
M  V30 19701 H 1783.22 -1.17145 5.95283 0
M  V30 19702 H 1781.95 -1.31638 4.69598 0
M  V30 19703 H 1780.96 0.868843 5.42891 0
M  V30 19704 H 1782.18 0.999349 6.71707 0
M  V30 19705 H 1780.13 -1.228 6.44404 0
M  V30 19706 H 1780.05 0.0959658 7.55939 0
M  V30 19707 H 1781.32 -1.08238 7.71949 0
M  V30 19708 N 1785.54 -1.47344 0.559239 0
M  V30 19709 C 1786.49 -2.30039 -0.187317 0
M  V30 19710 C 1787.46 -1.39186 -0.906443 0
M  V30 19711 O 1788.65 -1.68147 -0.901739 0
M  V30 19712 C 1785.79 -3.2319 -1.21004 0
M  V30 19713 C 1784.9 -4.29134 -0.496776 0
M  V30 19714 C 1784.03 -5.09435 -1.50497 0
M  V30 19715 C 1783.07 -6.07151 -0.776794 0
M  V30 19716 N 1782.21 -6.80404 -1.73192 0
M  V30 19717 H 1787.05 -2.93357 0.523978 0
M  V30 19718 H 1784.59 -1.44597 0.270225 0
M  V30 19719 H 1786.55 -3.75621 -1.81561 0
M  V30 19720 H 1785.18 -2.61732 -1.88935 0
M  V30 19721 H 1784.23 -3.79744 0.223359 0
M  V30 19722 H 1785.54 -4.98746 0.0735731 0
M  V30 19723 H 1784.69 -5.66026 -2.18402 0
M  V30 19724 H 1783.43 -4.3973 -2.10924 0
M  V30 19725 H 1782.44 -5.49736 -0.0838382 0
M  V30 19726 H 1783.66 -6.78866 -0.178239 0
M  V30 19727 H 1781.61 -6.13427 -2.32472 0
M  V30 19728 H 1781.53 -7.46193 -1.21377 0
M  V30 19729 H 1782.79 -7.41567 -2.40204 0
M  V30 19730 N 1787.02 -0.295795 -1.54799 0
M  V30 19731 C 1787.93 0.592206 -2.27002 0
M  V30 19732 C 1788.95 1.1528 -1.30332 0
M  V30 19733 O 1790.12 1.1787 -1.63305 0
M  V30 19734 C 1787.19 1.75027 -2.99277 0
M  V30 19735 C 1786.25 1.22427 -4.11473 0
M  V30 19736 C 1785.48 2.32714 -4.80291 0
M  V30 19737 O 1785.71 3.52506 -4.48437 0
M  V30 19738 O 1784.64 1.997 -5.67806 0
M  V30 19739 H 1788.47 0.00666048 -3.03699 0
M  V30 19740 H 1786.05 -0.0624413 -1.49269 0
M  V30 19741 H 1787.93 2.42508 -3.44627 0
M  V30 19742 H 1786.61 2.32252 -2.25479 0
M  V30 19743 H 1785.52 0.515337 -3.70534 0
M  V30 19744 H 1786.85 0.697518 -4.87233 0
M  V30 19745 N 1788.5 1.57583 -0.0234236 0
M  V30 19746 C 1789.75 1.91565 0.656449 0
M  V30 19747 C 1790.08 0.899298 1.72461 0
M  V30 19748 O 1789.33 -0.0926107 1.95481 0
M  V30 19749 C 1789.63 3.32283 1.31616 0
M  V30 19750 C 1789.3 4.49305 0.378925 0
M  V30 19751 C 1787.96 4.81048 0.120945 0
M  V30 19752 C 1790.31 5.20526 -0.264985 0
M  V30 19753 C 1787.64 5.81373 -0.788846 0
M  V30 19754 C 1789.99 6.21821 -1.1628 0
M  V30 19755 C 1788.65 6.52009 -1.42972 0
M  V30 19756 H 1787.92 0.700985 0.240212 0
M  V30 19757 H 1790.57 1.91316 -0.0839711 0
M  V30 19758 H 1788.88 3.28766 2.13119 0
M  V30 19759 H 1790.57 3.55845 1.84866 0
M  V30 19760 H 1787.16 4.24517 0.590173 0
M  V30 19761 H 1791.35 4.96238 -0.0787258 0
M  V30 19762 H 1786.6 6.0311 -1.00341 0
M  V30 19763 H 1790.78 6.7613 -1.66796 0
M  V30 19764 H 1788.4 7.29564 -2.13636 0
M  V30 19765 N 1789.98 -0.249655 1.5561 0
M  V30 19766 C 1791.23 -0.975982 1.76515 0
M  V30 19767 C 1791.54 -1.86589 0.586843 0
M  V30 19768 O 1792.75 -2.62876 0.678844 0
M  V30 19769 C 1791.2 -1.7854 3.12492 0
M  V30 19770 C 1790.81 -0.943014 4.37963 0
M  V30 19771 C 1792.56 -2.50462 3.42737 0
M  V30 19772 C 1790.46 -1.74816 5.64972 0
M  V30 19773 H 1789.39 -0.368139 0.65802 0
M  V30 19774 H 1792.04 -0.230745 1.82043 0
M  V30 19775 H 1790.43 -2.57248 3.01064 0
M  V30 19776 H 1791.6 -0.198453 4.60372 0
M  V30 19777 H 1789.91 -0.337249 4.15032 0
M  V30 19778 H 1792.51 -3.1115 4.34845 0
M  V30 19779 H 1792.85 -3.21938 2.63935 0
M  V30 19780 H 1793.39 -1.78767 3.55369 0
M  V30 19781 H 1790.13 -1.07719 6.46589 0
M  V30 19782 H 1789.65 -2.46807 5.46668 0
M  V30 19783 H 1791.33 -2.31599 6.04128 0
M  V30 19784 N 1791.46 -1.48941 -0.515198 0
M  V30 19785 C 1792.37 -1.67271 -1.64492 0
M  V30 19786 C 1793.38 -0.555222 -1.64904 0
M  V30 19787 O 1794.56 -0.828161 -1.83585 0
M  V30 19788 C 1791.62 -1.722 -3.00912 0
M  V30 19789 C 1790.69 -2.95683 -3.11239 0
M  V30 19790 C 1789.92 -3.00368 -4.41152 0
M  V30 19791 O 1790.14 -2.13041 -5.29122 0
M  V30 19792 O 1789.08 -3.92691 -4.56155 0
M  V30 19793 H 1792.9 -2.62947 -1.51962 0
M  V30 19794 H 1790.49 -1.32515 -0.68993 0
M  V30 19795 H 1792.37 -1.77877 -3.82018 0
M  V30 19796 H 1791.04 -0.796995 -3.13735 0
M  V30 19797 H 1789.95 -2.95531 -2.29374 0
M  V30 19798 H 1791.28 -3.87617 -3.03338 0
M  V30 19799 N 1792.94 0.765193 -1.37777 0
M  V30 19800 C 1793.88 1.87866 -1.34071 0
M  V30 19801 C 1794.85 1.64828 -0.205154 0
M  V30 19802 O 1796.04 1.86655 -0.395555 0
M  V30 19803 C 1793.18 3.25018 -1.16006 0
M  V30 19804 C 1792.29 3.59966 -2.38848 0
M  V30 19805 C 1791.43 4.8636 -2.13605 0
M  V30 19806 C 1790.46 5.14059 -3.32279 0
M  V30 19807 N 1789.6 6.31644 -3.06545 0
M  V30 19808 H 1794.44 1.90369 -2.29267 0
M  V30 19809 H 1791.98 0.930625 -1.1392 0
M  V30 19810 H 1793.94 4.04145 -1.03552 0
M  V30 19811 H 1792.57 3.21872 -0.24454 0
M  V30 19812 H 1791.62 2.75773 -2.62018 0
M  V30 19813 H 1792.93 3.76369 -3.27334 0
M  V30 19814 H 1792.08 5.73406 -1.9822 0
M  V30 19815 H 1790.82 4.72073 -1.22467 0
M  V30 19816 H 1789.83 4.25487 -3.48196 0
M  V30 19817 H 1791.05 5.30251 -4.24277 0
M  V30 19818 H 1789 6.18703 -2.18043 0
M  V30 19819 H 1788.92 6.48494 -3.88576 0
M  V30 19820 H 1790.18 7.21608 -2.94791 0
M  V30 19821 N 1794.41 1.22455 0.992094 0
M  V30 19822 C 1795.32 1.01173 2.11663 0
M  V30 19823 C 1796.34 -0.0402168 1.73954 0
M  V30 19824 O 1797.52 0.152685 2.0082 0
M  V30 19825 C 1794.58 0.592995 3.41591 0
M  V30 19826 C 1793.64 1.71865 3.93397 0
M  V30 19827 C 1792.87 1.3198 5.17124 0
M  V30 19828 O 1793.1 0.198943 5.70053 0
M  V30 19829 O 1792.03 2.13658 5.62702 0
M  V30 19830 H 1795.86 1.9539 2.32501 0
M  V30 19831 H 1793.44 1.01056 1.10036 0
M  V30 19832 H 1795.32 0.36987 4.19774 0
M  V30 19833 H 1794 -0.320311 3.22111 0
M  V30 19834 H 1792.91 1.9963 3.16384 0
M  V30 19835 H 1794.24 2.60985 4.1731 0
M  V30 19836 N 1795.89 -1.18905 1.03437 0
M  V30 19837 C 1796.85 -2.20529 0.624461 0
M  V30 19838 C 1797.85 -1.57688 -0.314824 0
M  V30 19839 O 1799.04 -1.73906 -0.101082 0
M  V30 19840 C 1796.18 -3.40793 -0.0854166 0
M  V30 19841 H 1797.37 -2.58309 1.5237 0
M  V30 19842 H 1794.92 -1.32679 0.826189 0
M  V30 19843 H 1795.66 -3.08538 -0.998747 0
M  V30 19844 H 1795.44 -3.87642 0.589596 0
M  V30 19845 H 1796.93 -4.16055 -0.358938 0
M  V30 19846 N 1797.37 -0.812977 -1.35013 0
M  V30 19847 C 1798.32 -0.225816 -2.29693 0
M  V30 19848 C 1799.29 0.643767 -1.53117 0
M  V30 19849 O 1800.47 0.587505 -1.8153 0
M  V30 19850 C 1797.61 0.614444 -3.39586 0
M  V30 19851 C 1796.72 -0.276281 -4.31116 0
M  V30 19852 C 1795.86 0.572595 -5.28105 0
M  V30 19853 C 1794.9 -0.318133 -6.11273 0
M  V30 19854 N 1794.04 0.491086 -7.0038 0
M  V30 19855 H 1798.88 -1.03861 -2.79315 0
M  V30 19856 H 1796.41 -0.523695 -1.37462 0
M  V30 19857 H 1798.37 1.11683 -4.01973 0
M  V30 19858 H 1797 1.39244 -2.91223 0
M  V30 19859 H 1796.05 -0.89682 -3.69677 0
M  V30 19860 H 1797.36 -0.961601 -4.89443 0
M  V30 19861 H 1796.52 1.13986 -5.95896 0
M  V30 19862 H 1795.26 1.29146 -4.7029 0
M  V30 19863 H 1794.26 -0.897622 -5.42423 0
M  V30 19864 H 1795.49 -1.03496 -6.71167 0
M  V30 19865 H 1793.43 1.19381 -6.45046 0
M  V30 19866 H 1793.35 -0.136054 -7.55878 0
M  V30 19867 H 1794.62 1.04143 -7.72512 0
M  V30 19868 N 1798.85 1.47045 -0.567045 0
M  V30 19869 C 1799.78 2.32929 0.163191 0
M  V30 19870 C 1800.76 1.44393 0.899142 0
M  V30 19871 O 1801.94 1.73235 0.87768 0
M  V30 19872 C 1799.07 3.26369 1.18745 0
M  V30 19873 C 1798.03 4.24223 0.567335 0
M  V30 19874 C 1797.35 5.07058 1.69693 0
M  V30 19875 C 1798.65 5.2004 -0.485319 0
M  V30 19876 H 1800.35 2.94233 -0.553837 0
M  V30 19877 H 1797.89 1.41488 -0.267789 0
M  V30 19878 H 1799.85 3.85299 1.70654 0
M  V30 19879 H 1798.57 2.6314 1.93455 0
M  V30 19880 H 1797.23 3.66534 0.0694525 0
M  V30 19881 H 1796.88 4.40226 2.43331 0
M  V30 19882 H 1796.58 5.73316 1.28774 0
M  V30 19883 H 1798.1 5.68848 2.2191 0
M  V30 19884 H 1799.52 5.73277 -0.0519049 0
M  V30 19885 H 1797.91 5.94554 -0.813942 0
M  V30 19886 H 1798.98 4.64921 -1.37754 0
M  V30 19887 N 1800.33 0.304 1.5464 0
M  V30 19888 C 1801.28 -0.585901 2.20343 0
M  V30 19889 C 1802.26 -1.09663 1.17741 0
M  V30 19890 O 1803.45 -1.0369 1.43448 0
M  V30 19891 C 1800.58 -1.75586 2.94999 0
M  V30 19892 C 1799.67 -1.26096 4.04921 0
M  V30 19893 N 1800.06 -0.484268 5.03476 0
M  V30 19894 C 1798.36 -1.54143 4.18517 0
M  V30 19895 C 1799.06 -0.220353 5.81282 0
M  V30 19896 N 1798.03 -0.801002 5.37666 0
M  V30 19897 H 1801.83 0.0150187 2.93896 0
M  V30 19898 H 1799.35 0.108905 1.62034 0
M  V30 19899 H 1801.35 -2.40496 3.40539 0
M  V30 19900 H 1800.01 -2.36045 2.22964 0
M  V30 19901 H 1801.02 -0.128891 5.1774 0
M  V30 19902 H 1797.69 -2.15328 3.57687 0
M  V30 19903 H 1799.08 0.403637 6.70687 0
M  V30 19904 N 1801.8 -1.57568 0.0317802 0
M  V30 19905 C 1803.03 -1.9662 -0.659953 0
M  V30 19906 C 1803.45 -0.908334 -1.64715 0
M  V30 19907 O 1802.81 0.130491 -1.8083 0
M  V30 19908 C 1802.86 -3.34765 -1.34033 0
M  V30 19909 O 1801.96 -3.31317 -2.45566 0
M  V30 19910 H 1801.3 -0.641024 -0.17316 0
M  V30 19911 H 1803.83 -2.04382 0.0944231 0
M  V30 19912 H 1803.84 -3.71056 -1.69651 0
M  V30 19913 H 1802.52 -4.11302 -0.616716 0
M  V30 19914 H 1801.1 -3.06746 -2.1204 0
M  V30 19915 N 1803.28 0.241399 -1.5574 0
M  V30 19916 C 1804.19 1.32034 -1.93918 0
M  V30 19917 C 1805.21 1.52363 -0.840331 0
M  V30 19918 O 1806.38 1.65879 -1.1422 0
M  V30 19919 C 1803.45 2.6539 -2.2309 0
M  V30 19920 C 1802.51 2.53536 -3.46436 0
M  V30 19921 C 1801.74 3.80532 -3.74208 0
M  V30 19922 O 1801.97 4.82662 -3.03964 0
M  V30 19923 O 1800.9 3.78834 -4.67727 0
M  V30 19924 H 1804.73 1.02647 -2.85827 0
M  V30 19925 H 1802.31 0.442616 -1.42693 0
M  V30 19926 H 1804.19 3.44184 -2.43137 0
M  V30 19927 H 1802.87 2.94499 -1.34358 0
M  V30 19928 H 1801.78 1.73009 -3.3169 0
M  V30 19929 H 1803.11 2.29371 -4.35488 0
M  V30 19930 N 1804.76 1.49212 0.507292 0
M  V30 19931 C 1806.01 1.5763 1.2584 0
M  V30 19932 C 1806.32 0.265343 1.93792 0
M  V30 19933 O 1807.53 0.227996 2.70541 0
M  V30 19934 C 1805.98 2.78093 2.28457 0
M  V30 19935 C 1805.59 4.15922 1.66472 0
M  V30 19936 C 1807.34 2.95837 3.04435 0
M  V30 19937 C 1805.24 5.27616 2.67162 0
M  V30 19938 H 1804.17 0.586896 0.47336 0
M  V30 19939 H 1806.82 1.75588 0.533018 0
M  V30 19940 H 1805.21 2.53616 3.0413 0
M  V30 19941 H 1806.38 4.50511 0.968337 0
M  V30 19942 H 1804.7 4.03484 1.02906 0
M  V30 19943 H 1807.29 3.76452 3.79721 0
M  V30 19944 H 1807.64 2.06156 3.61671 0
M  V30 19945 H 1808.17 3.20323 2.35877 0
M  V30 19946 H 1804.91 6.19336 2.14716 0
M  V30 19947 H 1804.43 4.97488 3.3506 0
M  V30 19948 H 1806.11 5.56686 3.29712 0
M  V30 19949 N 1806.24 -0.757876 1.38181 0
M  V30 19950 C 1807.19 -1.87152 1.35065 0
M  V30 19951 C 1808.16 -1.64717 0.213892 0
M  V30 19952 O 1809.34 -1.86442 0.405448 0
M  V30 19953 C 1806.48 -3.24398 1.17728 0
M  V30 19954 C 1805.59 -3.58694 2.40754 0
M  V30 19955 C 1804.73 -4.85221 2.16181 0
M  V30 19956 C 1803.77 -5.1229 3.35001 0
M  V30 19957 N 1802.9 -6.3001 3.0989 0
M  V30 19958 H 1807.74 -1.89151 2.30274 0
M  V30 19959 H 1805.28 -0.924571 1.14412 0
M  V30 19960 H 1807.24 -4.0359 1.05694 0
M  V30 19961 H 1805.87 -3.21738 0.261606 0
M  V30 19962 H 1804.92 -2.74379 2.63477 0
M  V30 19963 H 1806.23 -3.74628 3.29325 0
M  V30 19964 H 1805.39 -5.72346 2.01258 0
M  V30 19965 H 1804.13 -4.71417 1.24969 0
M  V30 19966 H 1803.13 -4.23635 3.50448 0
M  V30 19967 H 1804.36 -5.27993 4.27083 0
M  V30 19968 H 1802.3 -6.17538 2.21321 0
M  V30 19969 H 1802.22 -6.46425 3.92009 0
M  V30 19970 H 1803.49 -7.20035 2.98613 0
M  V30 19971 N 1807.72 -1.22979 -0.985586 0
M  V30 19972 C 1808.63 -1.02294 -2.11124 0
M  V30 19973 C 1809.64 0.030991 -1.73972 0
M  V30 19974 O 1810.82 -0.163333 -2.00737 0
M  V30 19975 C 1807.88 -0.611102 -3.41272 0
M  V30 19976 C 1806.94 -1.73949 -3.9248 0
M  V30 19977 C 1806.18 -1.34721 -5.16417 0
M  V30 19978 O 1806.4 -0.229171 -5.69939 0
M  V30 19979 O 1805.33 -2.16639 -5.61561 0
M  V30 19980 H 1809.16 -1.9662 -2.31461 0
M  V30 19981 H 1806.75 -1.01639 -1.09499 0
M  V30 19982 H 1808.63 -0.392127 -4.19572 0
M  V30 19983 H 1807.3 0.303224 -3.22277 0
M  V30 19984 H 1806.21 -2.01305 -3.1532 0
M  V30 19985 H 1807.54 -2.63194 -4.1592 0
M  V30 19986 N 1809.19 1.18355 -1.04066 0
M  V30 19987 C 1810.14 2.21987 -0.631714 0
M  V30 19988 C 1811.11 1.62142 0.360462 0
M  V30 19989 O 1812.3 1.89096 0.254445 0
M  V30 19990 C 1809.44 3.451 -0.000843566 0
M  V30 19991 C 1808.55 4.19283 -1.04048 0
M  V30 19992 C 1807.68 5.29852 -0.37813 0
M  V30 19993 C 1806.72 5.95807 -1.40287 0
M  V30 19994 N 1805.86 6.97915 -0.765481 0
M  V30 19995 H 1810.7 2.56323 -1.51995 0
M  V30 19996 H 1808.24 1.25923 -0.760384 0
M  V30 19997 H 1810.2 4.15445 0.382267 0
M  V30 19998 H 1808.83 3.11383 0.850911 0
M  V30 19999 H 1807.88 3.47765 -1.54154 0
M  V30 20000 H 1809.19 4.64457 -1.81882 0
M  V30 20001 H 1808.34 6.06671 0.059186 0
M  V30 20002 H 1807.08 4.8578 0.432293 0
M  V30 20003 H 1806.09 5.17729 -1.85032 0
M  V30 20004 H 1807.31 6.41962 -2.21499 0
M  V30 20005 H 1805.26 6.55995 0.0246364 0
M  V30 20006 H 1805.18 7.41341 -1.48152 0
M  V30 20007 H 1806.44 7.78702 -0.35256 0
M  V30 20008 N 1810.67 0.820125 1.3458 0
M  V30 20009 C 1811.58 0.241913 2.33349 0
M  V30 20010 C 1812.6 -0.622228 1.62494 0
M  V30 20011 O 1813.77 -0.530787 1.9428 0
M  V30 20012 C 1810.84 -0.588944 3.41661 0
M  V30 20013 C 1809.9 0.29727 4.2827 0
M  V30 20014 C 1809.13 -0.494028 5.31409 0
M  V30 20015 O 1809.36 -1.72755 5.4361 0
M  V30 20016 O 1808.29 0.122182 6.01776 0
M  V30 20017 H 1812.12 1.05934 2.84626 0
M  V30 20018 H 1809.7 0.582205 1.37589 0
M  V30 20019 H 1811.58 -1.06174 4.07805 0
M  V30 20020 H 1810.26 -1.38374 2.92633 0
M  V30 20021 H 1809.17 0.817495 3.65059 0
M  V30 20022 H 1810.5 1.05635 4.80731 0
M  V30 20023 N 1812.15 -1.46743 0.574835 0
M  V30 20024 C 1813.4 -2.02718 0.0575005 0
M  V30 20025 C 1813.73 -1.4463 -1.29599 0
M  V30 20026 O 1813 -0.608422 -1.84739 0
M  V30 20027 C 1813.29 -3.60096 -0.016719 0
M  V30 20028 C 1813.14 -4.28584 1.36511 0
M  V30 20029 C 1814.46 -4.34149 -0.721324 0
M  V30 20030 H 1811.58 -0.73666 0.0223697 0
M  V30 20031 H 1814.22 -1.74975 0.74052 0
M  V30 20032 H 1812.37 -3.83864 -0.598396 0
M  V30 20033 H 1814.04 -4.16104 1.99135 0
M  V30 20034 H 1812.29 -3.88253 1.935 0
M  V30 20035 H 1812.96 -5.37293 1.26573 0
M  V30 20036 H 1815.43 -4.15479 -0.227256 0
M  V30 20037 H 1814.31 -5.43858 -0.742263 0
M  V30 20038 H 1814.57 -4.04637 -1.78106 0
M  V30 20039 N 1813.63 -0.312197 -1.54477 0
M  V30 20040 C 1814.88 0.293192 -1.99962 0
M  V30 20041 C 1815.2 1.53544 -1.20205 0
M  V30 20042 O 1814.47 1.93575 -0.300901 0
M  V30 20043 H 1813.05 0.111325 -0.738658 0
M  V30 20044 H 1815.71 -0.426116 -1.90185 0
M  V30 20045 H 1814.81 0.557482 -3.07081 0
M  V30 20046 N 1815.11 1.57549 -0.040136 0
M  V30 20047 C 1816.04 2.06413 0.973089 0
M  V30 20048 C 1817.02 0.962235 1.31072 0
M  V30 20049 O 1818.2 1.23337 1.42549 0
M  V30 20050 C 1815.33 2.49541 2.29013 0
M  V30 20051 C 1814.37 3.70858 2.10634 0
M  V30 20052 S 1815.21 5.17013 1.39493 0
M  V30 20053 C 1816.36 5.63445 2.72544 0
M  V30 20054 H 1816.6 2.92032 0.557186 0
M  V30 20055 H 1814.13 1.53441 0.171846 0
M  V30 20056 H 1816.09 2.75052 3.04723 0
M  V30 20057 H 1814.75 1.64247 2.67734 0
M  V30 20058 H 1813.94 3.98918 3.08027 0
M  V30 20059 H 1813.54 3.45555 1.43065 0
M  V30 20060 H 1815.84 5.68357 3.68749 0
M  V30 20061 H 1816.78 6.62826 2.49134 0
M  V30 20062 H 1817.19 4.91133 2.78296 0
M  V30 20063 N 1816.58 -0.233136 1.55866 0
M  V30 20064 C 1817.53 -1.28882 1.91463 0
M  V30 20065 C 1818.5 -1.47151 0.770435 0
M  V30 20066 O 1819.69 -1.6091 1.02531 0
M  V30 20067 C 1816.83 -2.63653 2.22668 0
M  V30 20068 C 1815.94 -2.53278 3.49963 0
M  V30 20069 C 1815.07 -3.80494 3.70672 0
M  V30 20070 C 1814.11 -3.64794 4.9152 0
M  V30 20071 N 1813.25 -4.83933 5.08678 0
M  V30 20072 H 1818.09 -0.978251 2.81486 0
M  V30 20073 H 1815.63 -0.471757 1.3933 0
M  V30 20074 H 1817.59 -3.42119 2.38769 0
M  V30 20075 H 1816.22 -2.9283 1.35833 0
M  V30 20076 H 1815.27 -1.66308 3.4212 0
M  V30 20077 H 1816.58 -2.37592 4.38579 0
M  V30 20078 H 1815.73 -4.67404 3.86806 0
M  V30 20079 H 1814.47 -3.99092 2.80315 0
M  V30 20080 H 1813.48 -2.76268 4.75348 0
M  V30 20081 H 1814.7 -3.47677 5.8335 0
M  V30 20082 H 1812.65 -5.02866 4.21262 0
M  V30 20083 H 1812.57 -4.7093 5.91406 0
M  V30 20084 H 1813.83 -5.72302 5.29236 0
M  V30 20085 N 1818.06 -1.49479 -0.499372 0
M  V30 20086 C 1819.01 -1.66268 -1.60073 0
M  V30 20087 C 1819.98 -0.504137 -1.58265 0
M  V30 20088 O 1821.17 -0.731358 -1.76227 0
M  V30 20089 C 1818.31 -1.73678 -2.98211 0
M  V30 20090 C 1817.42 -3.00848 -3.10023 0
M  V30 20091 C 1816.55 -2.99227 -4.38904 0
M  V30 20092 C 1815.59 -4.20969 -4.44355 0
M  V30 20093 N 1814.73 -4.17249 -5.64666 0
M  V30 20094 H 1819.57 -2.60308 -1.45065 0
M  V30 20095 H 1817.11 -1.29063 -0.705774 0
M  V30 20096 H 1819.06 -1.75956 -3.7828 0
M  V30 20097 H 1817.69 -0.831037 -3.11919 0
M  V30 20098 H 1816.75 -3.08175 -2.23008 0
M  V30 20099 H 1818.06 -3.90841 -3.09911 0
M  V30 20100 H 1817.21 -3.00076 -5.27294 0
M  V30 20101 H 1815.95 -2.07015 -4.41584 0
M  V30 20102 H 1814.96 -4.20362 -3.54366 0
M  V30 20103 H 1816.18 -5.14376 -4.4339 0
M  V30 20104 H 1814.13 -3.27875 -5.68185 0
M  V30 20105 H 1814.04 -5.00979 -5.66177 0
M  V30 20106 H 1815.31 -4.22203 -6.55259 0
M  V30 20107 N 1819.54 0.750537 -1.38581 0
M  V30 20108 C 1820.49 1.85507 -1.32557 0
M  V30 20109 C 1821.48 1.59533 -0.209275 0
M  V30 20110 O 1822.67 1.71302 -0.445507 0
M  V30 20111 C 1819.8 3.23253 -1.15597 0
M  V30 20112 C 1818.88 3.55107 -2.31862 0
M  V30 20113 N 1819.27 3.57999 -3.5731 0
M  V30 20114 C 1817.57 3.85389 -2.2448 0
M  V30 20115 C 1818.27 3.87207 -4.34103 0
M  V30 20116 N 1817.25 4.04193 -3.63496 0
M  V30 20117 H 1821.05 1.86025 -2.27535 0
M  V30 20118 H 1818.56 0.948038 -1.31856 0
M  V30 20119 H 1820.56 4.023 -1.09365 0
M  V30 20120 H 1819.22 3.23984 -0.215556 0
M  V30 20121 H 1820.23 3.39686 -3.9094 0
M  V30 20122 H 1816.91 3.93817 -1.38615 0
M  V30 20123 H 1818.3 3.96042 -5.42771 0
M  V30 20124 N 1821.02 1.235 0.979051 0
M  V30 20125 C 1821.93 1.03412 2.10578 0
M  V30 20126 C 1822.95 -0.0217644 1.73986 0
M  V30 20127 O 1824.12 0.173977 2.00647 0
M  V30 20128 C 1821.19 0.629192 3.40943 0
M  V30 20129 C 1820.25 1.76028 3.91552 0
M  V30 20130 C 1819.48 1.37457 5.15695 0
M  V30 20131 O 1819.7 0.259393 5.6981 0
M  V30 20132 O 1818.64 2.19614 5.60404 0
M  V30 20133 H 1822.46 1.97845 2.30415 0
M  V30 20134 H 1820.05 1.02218 1.08958 0
M  V30 20135 H 1821.93 0.414372 4.19358 0
M  V30 20136 H 1820.61 -0.286128 3.22433 0
M  V30 20137 H 1819.51 2.02975 3.14248 0
M  V30 20138 H 1820.85 2.65396 4.14519 0
M  V30 20139 N 1822.5 -1.17802 1.04693 0
M  V30 20140 C 1823.41 -2.25298 0.654072 0
M  V30 20141 C 1824.42 -1.70984 -0.32255 0
M  V30 20142 O 1825.6 -2.0063 -0.175904 0
M  V30 20143 C 1822.66 -3.46687 0.0296345 0
M  V30 20144 C 1821.73 -4.16108 1.05606 0
M  V30 20145 C 1820.96 -5.31702 0.461329 0
M  V30 20146 O 1821.18 -5.65701 -0.730679 0
M  V30 20147 O 1820.12 -5.89956 1.19312 0
M  V30 20148 H 1823.94 -2.61179 1.54982 0
M  V30 20149 H 1821.53 -1.25005 0.818182 0
M  V30 20150 H 1823.41 -4.20201 -0.317654 0
M  V30 20151 H 1822.08 -3.12615 -0.839839 0
M  V30 20152 H 1820.99 -3.44635 1.45526 0
M  V30 20153 H 1822.32 -4.54195 1.89651 0
M  V30 20154 N 1823.98 -0.827251 -1.34143 0
M  V30 20155 C 1824.92 -0.240552 -2.31353 0
M  V30 20156 C 1825.92 0.62109 -1.57603 0
M  V30 20157 O 1827.12 0.511947 -1.72566 0
M  V30 20158 H 1823.5 -0.0590494 -0.749678 0
M  V30 20159 H 1825.47 -1.07518 -2.78357 0
M  V30 20160 C 1824.22 0.579321 -3.4284 0
M  V30 20161 H 1823.54 -0.0743746 -3.99731 0
M  V30 20162 H 1824.98 0.955871 -4.13085 0
M  V30 20163 C 1823.44 1.75345 -2.87673 0
M  V30 20164 O 1823.97 2.85178 -2.82907 0
M  V30 20165 N 1822.18 1.57158 -2.44437 0
M  V30 20166 H 1821.72 0.678148 -2.48513 0
M  V30 20167 H 1821.68 2.35869 -2.07877 0
M  V30 20168 N 1825.45 1.46436 -0.582609 0
M  V30 20169 C 1826.36 2.34099 0.153178 0
M  V30 20170 C 1827.38 1.49745 0.886135 0
M  V30 20171 O 1828.56 1.82615 0.849341 0
M  V30 20172 C 1825.62 3.26929 1.15404 0
M  V30 20173 C 1824.68 4.27183 0.425764 0
M  V30 20174 C 1823.91 5.15578 1.37895 0
M  V30 20175 O 1824.14 5.06903 2.61545 0
M  V30 20176 O 1823.07 5.9529 0.889585 0
M  V30 20177 H 1826.9 2.98368 -0.566585 0
M  V30 20178 H 1824.48 1.45409 -0.343013 0
M  V30 20179 H 1826.36 3.842 1.73114 0
M  V30 20180 H 1825.04 2.65257 1.85527 0
M  V30 20181 H 1823.95 3.73601 -0.193175 0
M  V30 20182 H 1825.28 4.91641 -0.234496 0
M  V30 20183 N 1826.93 0.320385 1.54309 0
M  V30 20184 C 1827.89 -0.534308 2.22885 0
M  V30 20185 C 1828.89 -1.04605 1.22124 0
M  V30 20186 O 1830.08 -0.938988 1.46726 0
M  V30 20187 C 1827.22 -1.74181 2.93042 0
M  V30 20188 H 1828.41 0.0651232 2.99829 0
M  V30 20189 H 1825.96 0.0714303 1.56137 0
M  V30 20190 H 1826.7 -2.38056 2.20227 0
M  V30 20191 H 1826.48 -1.38231 3.66926 0
M  V30 20192 H 1827.97 -2.34857 3.45299 0
M  V30 20193 N 1828.41 -1.57525 0.0484906 0
M  V30 20194 C 1829.36 -2.11374 -0.926816 0
M  V30 20195 C 1830.33 -1.02045 -1.31058 0
M  V30 20196 O 1831.51 -1.29577 -1.40052 0
M  V30 20197 C 1828.65 -2.66107 -2.19729 0
M  V30 20198 C 1827.76 -3.89513 -1.86826 0
M  V30 20199 C 1826.9 -4.32571 -3.08312 0
M  V30 20200 C 1825.94 -5.48684 -2.71317 0
M  V30 20201 N 1825.08 -5.86808 -3.85488 0
M  V30 20202 H 1829.92 -2.94417 -0.460721 0
M  V30 20203 H 1827.45 -1.45509 -0.215789 0
M  V30 20204 H 1829.41 -2.95939 -2.94068 0
M  V30 20205 H 1828.04 -1.85865 -2.63921 0
M  V30 20206 H 1827.09 -3.66289 -1.02647 0
M  V30 20207 H 1828.4 -4.73912 -1.55592 0
M  V30 20208 H 1827.56 -4.63941 -3.90952 0
M  V30 20209 H 1826.3 -3.46978 -3.42721 0
M  V30 20210 H 1825.3 -5.16988 -1.87092 0
M  V30 20211 H 1826.53 -6.35991 -2.38102 0
M  V30 20212 H 1824.47 -5.04168 -4.19703 0
M  V30 20213 H 1824.39 -6.65892 -3.57944 0
M  V30 20214 H 1825.66 -6.22792 -4.68776 0
M  V30 20215 N 1829.89 0.224867 -1.55988 0
M  V30 20216 C 1830.82 1.28192 -1.95164 0
M  V30 20217 C 1831.8 1.49062 -0.81942 0
M  V30 20218 O 1832.98 1.61301 -1.08146 0
M  V30 20219 C 1830.11 2.63237 -2.26547 0
M  V30 20220 C 1829.07 2.57029 -3.42228 0
M  V30 20221 C 1828.39 3.96073 -3.59207 0
M  V30 20222 C 1829.69 2.12101 -4.77295 0
M  V30 20223 H 1831.39 0.956495 -2.8371 0
M  V30 20224 H 1828.93 0.458673 -1.365 0
M  V30 20225 H 1830.89 3.37341 -2.52545 0
M  V30 20226 H 1829.61 2.97461 -1.3485 0
M  V30 20227 H 1828.27 1.85382 -3.16273 0
M  V30 20228 H 1827.92 4.27599 -2.64892 0
M  V30 20229 H 1827.62 3.92802 -4.37013 0
M  V30 20230 H 1829.14 4.71844 -3.8755 0
M  V30 20231 H 1830.56 2.75946 -5.0252 0
M  V30 20232 H 1828.95 2.19895 -5.5836 0
M  V30 20233 H 1830.02 1.07319 -4.72875 0
M  V30 20234 N 1831.37 1.49742 0.491438 0
M  V30 20235 C 1832.59 1.63435 1.26873 0
M  V30 20236 C 1833.01 0.309516 1.86246 0
M  V30 20237 O 1832.37 -0.706178 1.68284 0
M  V30 20238 C 1832.42 2.71034 2.39213 0
M  V30 20239 O 1832.14 3.98379 1.82278 0
M  V30 20240 C 1833.64 2.95518 3.3043 0
M  V30 20241 H 1830.86 0.54994 0.384457 0
M  V30 20242 H 1833.4 1.95837 0.588914 0
M  V30 20243 H 1831.56 2.41384 3.03006 0
M  V30 20244 H 1831.97 4.57725 2.56101 0
M  V30 20245 H 1833.45 3.74517 4.05513 0
M  V30 20246 H 1833.92 2.058 3.87999 0
M  V30 20247 H 1834.53 3.26622 2.72393 0
M  V30 20248 N 1832.84 -0.743177 1.38977 0
M  V30 20249 C 1833.78 -1.86554 1.31427 0
M  V30 20250 C 1834.76 -1.61493 0.189386 0
M  V30 20251 O 1835.94 -1.84864 0.368464 0
M  V30 20252 C 1833.07 -3.22375 1.03884 0
M  V30 20253 C 1832.11 -3.66308 2.18451 0
M  V30 20254 S 1832.95 -3.76628 3.80672 0
M  V30 20255 C 1834.1 -5.15253 3.55338 0
M  V30 20256 H 1834.33 -1.92674 2.26416 0
M  V30 20257 H 1831.87 -0.907215 1.24936 0
M  V30 20258 H 1833.83 -4.00807 0.88677 0
M  V30 20259 H 1832.49 -3.13921 0.105952 0
M  V30 20260 H 1831.68 -4.64852 1.94752 0
M  V30 20261 H 1831.28 -2.95058 2.29819 0
M  V30 20262 H 1833.57 -6.01333 3.12097 0
M  V30 20263 H 1834.52 -5.43977 4.53315 0
M  V30 20264 H 1834.92 -4.84542 2.89619 0
M  V30 20265 N 1834.32 -1.24018 -0.972487 0
M  V30 20266 C 1835.25 -0.986185 -2.06899 0
M  V30 20267 C 1836.27 0.0426574 -1.62744 0
M  V30 20268 O 1837.46 -0.193816 -1.77445 0
M  V30 20269 C 1834.56 -0.46551 -3.35688 0
M  V30 20270 C 1833.73 -1.55637 -4.08774 0
M  V30 20271 C 1832.79 -1.03918 -5.15837 0
M  V30 20272 O 1831.81 -1.72986 -5.42277 0
M  V30 20273 N 1833.02 0.128891 -5.80357 0
M  V30 20274 H 1835.78 -1.93025 -2.29263 0
M  V30 20275 H 1833.34 -1.14983 -1.13976 0
M  V30 20276 H 1835.33 -0.104379 -4.04565 0
M  V30 20277 H 1833.9 0.384166 -3.1023 0
M  V30 20278 H 1833.12 -2.08991 -3.3424 0
M  V30 20279 H 1834.41 -2.28973 -4.54366 0
M  V30 20280 H 1833.81 0.706438 -5.61272 0
M  V30 20281 H 1832.37 0.431211 -6.50372 0
M  V30 20282 N 1835.8 1.17245 -1.05316 0
M  V30 20283 C 1837.05 1.86871 -0.759093 0
M  V30 20284 C 1837.36 1.81997 0.7167 0
M  V30 20285 O 1838.57 2.47106 1.12476 0
M  V30 20286 C 1837.02 3.35303 -1.30766 0
M  V30 20287 C 1836.63 3.48676 -2.81299 0
M  V30 20288 C 1838.38 4.10249 -1.0907 0
M  V30 20289 C 1836.28 4.91138 -3.2945 0
M  V30 20290 H 1835.21 0.699975 -0.28027 0
M  V30 20291 H 1837.86 1.32393 -1.27061 0
M  V30 20292 H 1836.25 3.89326 -0.723955 0
M  V30 20293 H 1837.42 3.04864 -3.45536 0
M  V30 20294 H 1835.74 2.87152 -3.0155 0
M  V30 20295 H 1838.33 5.1535 -1.42545 0
M  V30 20296 H 1838.68 4.1629 -0.0285204 0
M  V30 20297 H 1839.21 3.62436 -1.63967 0
M  V30 20298 H 1835.95 4.90271 -4.35103 0
M  V30 20299 H 1835.47 5.35615 -2.69956 0
M  V30 20300 H 1837.15 5.59913 -3.24201 0
M  V30 20301 N 1837.28 0.834353 1.33702 0
M  V30 20302 C 1838.51 0.441228 2.02141 0
M  V30 20303 C 1838.92 -0.956226 1.62794 0
M  V30 20304 O 1838.28 -1.6207 0.839027 0
M  V30 20305 C 1838.33 0.547035 3.57337 0
M  V30 20306 O 1838.05 1.88942 3.95262 0
M  V30 20307 C 1839.55 0.150282 4.43045 0
M  V30 20308 H 1836.77 0.175681 0.647593 0
M  V30 20309 H 1839.32 1.12568 1.7073 0
M  V30 20310 H 1837.47 -0.0894532 3.87297 0
M  V30 20311 H 1837.88 1.87174 4.89965 0
M  V30 20312 H 1839.36 0.275374 5.51313 0
M  V30 20313 H 1839.84 -0.907361 4.29725 0
M  V30 20314 H 1840.44 0.761025 4.18436 0
M  V30 20315 N 1838.76 -1.46125 0.590367 0
M  V30 20316 C 1839.72 -2.2884 -0.128368 0
M  V30 20317 C 1840.72 -1.38818 -0.81156 0
M  V30 20318 O 1841.91 -1.61117 -0.662347 0
M  V30 20319 C 1839.04 -3.19402 -1.19144 0
M  V30 20320 H 1840.23 -2.93864 0.598641 0
M  V30 20321 H 1837.79 -1.52362 0.34866 0
M  V30 20322 H 1838.52 -2.59141 -1.94978 0
M  V30 20323 H 1838.31 -3.85692 -0.705973 0
M  V30 20324 H 1839.8 -3.8164 -1.69532 0
M  V30 20325 N 1840.23 -0.328564 -1.54137 0
M  V30 20326 C 1841.16 0.527734 -2.27458 0
M  V30 20327 C 1842.15 1.11518 -1.28444 0
M  V30 20328 O 1843.33 1.13938 -1.57264 0
M  V30 20329 C 1840.46 1.68628 -3.03615 0
M  V30 20330 C 1839.41 1.22789 -4.10008 0
M  V30 20331 C 1838.74 2.47378 -4.74034 0
M  V30 20332 C 1840.04 0.339152 -5.21198 0
M  V30 20333 H 1841.73 -0.0838808 -2.99282 0
M  V30 20334 H 1839.28 -0.0417829 -1.43939 0
M  V30 20335 H 1841.23 2.29165 -3.5364 0
M  V30 20336 H 1839.96 2.32456 -2.29416 0
M  V30 20337 H 1838.62 0.645427 -3.60874 0
M  V30 20338 H 1838.26 3.09581 -3.96445 0
M  V30 20339 H 1837.96 2.17396 -5.45905 0
M  V30 20340 H 1839.49 3.08668 -5.26836 0
M  V30 20341 H 1840.9 0.850947 -5.6695 0
M  V30 20342 H 1839.3 0.131892 -5.99955 0
M  V30 20343 H 1840.37 -0.628692 -4.80807 0
M  V30 20344 N 1841.71 1.57497 -0.0568439 0
M  V30 20345 C 1842.66 2.1305 0.933398 0
M  V30 20346 C 1843.65 1.06369 1.31841 0
M  V30 20347 O 1844.86 1.2477 1.2974 0
M  V30 20348 H 1841.24 0.681037 0.318893 0
M  V30 20349 H 1843.21 2.95141 0.439796 0
M  V30 20350 C 1841.96 2.69502 2.1969 0
M  V30 20351 H 1841.28 3.51255 1.90945 0
M  V30 20352 H 1842.72 3.11986 2.87124 0
M  V30 20353 C 1841.18 1.63547 2.94541 0
M  V30 20354 O 1841.71 1.0516 3.87691 0
M  V30 20355 N 1839.91 1.34933 2.57374 0
M  V30 20356 H 1839.46 1.82601 1.81699 0
M  V30 20357 H 1839.42 0.642701 3.07761 0
M  V30 20358 N 1843.19 -0.216591 1.56105 0
M  V30 20359 C 1844.1 -1.28933 1.95994 0
M  V30 20360 C 1845.12 -1.51007 0.864464 0
M  V30 20361 O 1846.29 -1.6404 1.16845 0
M  V30 20362 C 1843.36 -2.61807 2.27284 0
M  V30 20363 C 1842.42 -2.47992 3.50426 0
M  V30 20364 C 1841.65 -3.7453 3.80214 0
M  V30 20365 O 1841.87 -4.77765 3.11604 0
M  V30 20366 O 1840.81 -3.71345 4.73694 0
M  V30 20367 H 1844.63 -0.980864 2.87424 0
M  V30 20368 H 1842.22 -0.419859 1.43379 0
M  V30 20369 H 1844.1 -3.40272 2.48582 0
M  V30 20370 H 1842.78 -2.92324 1.39026 0
M  V30 20371 H 1841.68 -1.67711 3.34401 0
M  V30 20372 H 1843.02 -2.22413 4.39082 0
M  V30 20373 N 1844.67 -1.5 -0.48349 0
M  V30 20374 C 1845.62 -1.68467 -1.6038 0
M  V30 20375 C 1846.61 -0.550508 -1.60205 0
M  V30 20376 O 1847.82 -0.730656 -1.64504 0
M  V30 20377 H 1844.19 -0.531525 -0.531964 0
M  V30 20378 H 1846.16 -2.62468 -1.41962 0
M  V30 20379 C 1844.91 -1.78462 -2.98407 0
M  V30 20380 H 1844.23 -2.65117 -2.99254 0
M  V30 20381 H 1845.67 -1.95413 -3.76284 0
M  V30 20382 C 1844.13 -0.533368 -3.32651 0
M  V30 20383 O 1844.66 0.333087 -4.00317 0
M  V30 20384 N 1842.87 -0.391077 -2.87957 0
M  V30 20385 H 1842.42 -1.09719 -2.33066 0
M  V30 20386 H 1842.37 0.444995 -3.11235 0
M  V30 20387 N 1846.15 0.735796 -1.39369 0
M  V30 20388 C 1847.08 1.86303 -1.4076 0
M  V30 20389 C 1848.06 1.67926 -0.27107 0
M  V30 20390 O 1849.24 1.88257 -0.476773 0
M  V30 20391 C 1846.37 3.24043 -1.24955 0
M  V30 20392 C 1845.33 3.57055 -2.35999 0
M  V30 20393 C 1844.65 4.93723 -2.05284 0
M  V30 20394 C 1845.95 3.60109 -3.7831 0
M  V30 20395 H 1847.65 1.85396 -2.35093 0
M  V30 20396 H 1845.19 0.890552 -1.1316 0
M  V30 20397 H 1847.15 4.02574 -1.24549 0
M  V30 20398 H 1845.87 3.25475 -0.270902 0
M  V30 20399 H 1844.53 2.80853 -2.35621 0
M  V30 20400 H 1844.18 4.91734 -1.05859 0
M  V30 20401 H 1843.88 5.16779 -2.79667 0
M  V30 20402 H 1845.4 5.74612 -2.06527 0
M  V30 20403 H 1846.81 4.28718 -3.80622 0
M  V30 20404 H 1845.21 3.94683 -4.52046 0
M  V30 20405 H 1846.28 2.59932 -4.09345 0
M  V30 20406 N 1847.63 1.24532 0.965897 0
M  V30 20407 C 1848.87 1.08395 1.70572 0
M  V30 20408 C 1849.19 -0.377657 1.91308 0
M  V30 20409 O 1848.46 -1.26935 1.49212 0
M  V30 20410 H 1847.04 0.398123 0.632066 0
M  V30 20411 H 1849.71 1.5648 1.1619 0
M  V30 20412 H 1848.8 1.58342 2.6895 0
M  V30 20413 N 1849.1 -1.16685 1.05936 0
M  V30 20414 C 1850.33 -1.91035 0.794553 0
M  V30 20415 C 1850.75 -1.77234 -0.650663 0
M  V30 20416 O 1850.1 -1.11454 -1.44514 0
M  V30 20417 C 1850.15 -3.41859 1.17536 0
M  V30 20418 O 1849.88 -3.55243 2.56386 0
M  V30 20419 C 1851.38 -4.33267 0.937774 0
M  V30 20420 H 1848.6 -0.605896 0.288325 0
M  V30 20421 H 1851.14 -1.47925 1.41203 0
M  V30 20422 H 1849.3 -3.82686 0.602486 0
M  V30 20423 H 1849.71 -4.48744 2.71531 0
M  V30 20424 H 1851.18 -5.3757 1.25389 0
M  V30 20425 H 1851.66 -4.39017 -0.126673 0
M  V30 20426 H 1852.27 -3.98163 1.49486 0
M  V30 20427 N 1850.58 -0.841432 -1.33258 0
M  V30 20428 C 1851.83 -0.439027 -1.97991 0
M  V30 20429 C 1852.16 0.999767 -1.66488 0
M  V30 20430 O 1851.44 1.69938 -0.94612 0
M  V30 20431 C 1851.72 -0.663137 -3.53941 0
M  V30 20432 C 1851.57 -2.14939 -3.95122 0
M  V30 20433 C 1852.89 -0.11094 -4.3996 0
M  V30 20434 H 1850.01 -0.160987 -0.719203 0
M  V30 20435 H 1852.65 -1.05742 -1.57856 0
M  V30 20436 H 1850.8 -0.136765 -3.88259 0
M  V30 20437 H 1852.47 -2.74082 -3.71048 0
M  V30 20438 H 1850.72 -2.63293 -3.4476 0
M  V30 20439 H 1851.39 -2.25694 -5.03752 0
M  V30 20440 H 1853.86 -0.560898 -4.12302 0
M  V30 20441 H 1852.74 -0.297416 -5.48094 0
M  V30 20442 H 1853 0.985446 -4.30977 0
M  V30 20443 N 1852.06 1.4581 -0.598108 0
M  V30 20444 C 1853.01 2.30454 0.126261 0
M  V30 20445 C 1853.98 1.41541 0.869221 0
M  V30 20446 O 1855.16 1.70478 0.856841 0
M  V30 20447 C 1852.3 3.26285 1.12393 0
M  V30 20448 C 1851.41 4.303 0.382824 0
M  V30 20449 C 1850.55 5.13246 1.36937 0
M  V30 20450 C 1849.59 6.08997 0.615545 0
M  V30 20451 N 1848.73 6.84756 1.55091 0
M  V30 20452 H 1853.57 2.91865 -0.601573 0
M  V30 20453 H 1851.1 1.43829 -0.308467 0
M  V30 20454 H 1853.06 3.80303 1.71539 0
M  V30 20455 H 1851.69 2.66649 1.81929 0
M  V30 20456 H 1850.74 3.79018 -0.323962 0
M  V30 20457 H 1852.05 4.98375 -0.205781 0
M  V30 20458 H 1851.21 5.71618 2.03318 0
M  V30 20459 H 1849.95 4.45168 1.99191 0
M  V30 20460 H 1848.95 5.49765 -0.0619441 0
M  V30 20461 H 1850.18 6.791 -0.00181251 0
M  V30 20462 H 1848.12 6.19375 2.16127 0
M  V30 20463 H 1848.04 7.49149 1.0155 0
M  V30 20464 H 1849.31 7.47675 2.20458 0
M  V30 20465 N 1853.54 0.336733 1.53961 0
M  V30 20466 C 1854.48 -0.523198 2.24792 0
M  V30 20467 C 1855.45 -1.10107 1.24361 0
M  V30 20468 O 1856.64 -1.13895 1.53077 0
M  V30 20469 C 1853.78 -1.67166 3.0191 0
M  V30 20470 C 1852.89 -1.12176 4.17182 0
M  V30 20471 C 1852.03 -2.23697 4.81802 0
M  V30 20472 C 1851.07 -1.66023 5.89154 0
M  V30 20473 N 1850.2 -2.7126 6.47582 0
M  V30 20474 H 1855.04 0.0873707 2.97872 0
M  V30 20475 H 1852.58 0.0548897 1.46998 0
M  V30 20476 H 1854.54 -2.34768 3.44876 0
M  V30 20477 H 1853.17 -2.25332 2.31139 0
M  V30 20478 H 1852.22 -0.336885 3.78905 0
M  V30 20479 H 1853.53 -0.659852 4.94416 0
M  V30 20480 H 1852.69 -2.99178 5.27804 0
M  V30 20481 H 1851.43 -2.7323 4.03976 0
M  V30 20482 H 1850.43 -0.890457 5.42541 0
M  V30 20483 H 1851.66 -1.17352 6.68884 0
M  V30 20484 H 1849.6 -3.20059 5.72624 0
M  V30 20485 H 1849.52 -2.29671 7.20269 0
M  V30 20486 H 1850.79 -3.4653 6.98239 0
M  V30 20487 N 1855.02 -1.57465 0.0651956 0
M  V30 20488 C 1855.93 -2.15841 -0.919235 0
M  V30 20489 C 1856.94 -1.11984 -1.33175 0
M  V30 20490 O 1858.12 -1.44219 -1.4058 0
M  V30 20491 C 1855.18 -2.7032 -2.1709 0
M  V30 20492 C 1854.24 -3.89026 -1.81542 0
M  V30 20493 C 1853.48 -4.40897 -3.00742 0
M  V30 20494 O 1853.7 -3.91792 -4.14555 0
M  V30 20495 O 1852.63 -5.32312 -2.80941 0
M  V30 20496 H 1856.46 -3.00307 -0.452704 0
M  V30 20497 H 1854.04 -1.48567 -0.157504 0
M  V30 20498 H 1855.93 -3.05266 -2.90501 0
M  V30 20499 H 1854.6 -1.88917 -2.62854 0
M  V30 20500 H 1853.51 -3.58944 -1.05404 0
M  V30 20501 H 1854.84 -4.71701 -1.40567 0
M  V30 20502 N 1856.49 0.20831 -1.56217 0
M  V30 20503 C 1857.74 0.927628 -1.81016 0
M  V30 20504 C 1858.09 1.81435 -0.640236 0
M  V30 20505 O 1857.39 1.88088 0.365179 0
M  V30 20506 C 1857.58 1.78999 -3.09345 0
M  V30 20507 C 1857.41 0.988242 -4.38707 0
M  V30 20508 C 1856.18 0.677902 -5.00732 0
M  V30 20509 C 1858.38 0.347218 -5.13127 0
M  V30 20510 N 1856.36 -0.14386 -6.13731 0
M  V30 20511 C 1857.73 -0.337336 -6.19082 0
M  V30 20512 C 1859.79 0.261596 -4.97212 0
M  V30 20513 C 1858.49 -1.09934 -7.1085 0
M  V30 20514 C 1860.52 -0.486974 -5.89392 0
M  V30 20515 C 1859.88 -1.16002 -6.94783 0
M  V30 20516 H 1855.98 0.319271 -0.713856 0
M  V30 20517 H 1858.56 0.197406 -1.93697 0
M  V30 20518 H 1856.73 2.49192 -2.97923 0
M  V30 20519 H 1858.46 2.44778 -3.22282 0
M  V30 20520 H 1855.22 0.99914 -4.62941 0
M  V30 20521 H 1855.64 -0.543964 -6.74811 0
M  V30 20522 H 1860.28 0.7676 -4.15774 0
M  V30 20523 H 1858 -1.61682 -7.9176 0
M  V30 20524 H 1861.59 -0.554403 -5.79152 0
M  V30 20525 H 1860.47 -1.72999 -7.6488 0
M  V30 20526 N 1857.97 1.50255 0.475528 0
M  V30 20527 C 1858.9 1.64942 1.59144 0
M  V30 20528 C 1859.92 0.531065 1.53895 0
M  V30 20529 O 1861.11 0.804084 1.59364 0
M  V30 20530 C 1858.21 1.61372 2.98014 0
M  V30 20531 C 1857.38 2.89167 3.28179 0
M  V30 20532 C 1856.44 2.783 4.46582 0
M  V30 20533 O 1855.46 3.52254 4.47108 0
M  V30 20534 N 1856.67 1.91557 5.47984 0
M  V30 20535 H 1859.43 2.61194 1.46962 0
M  V30 20536 H 1856.99 1.47663 0.663869 0
M  V30 20537 H 1858.98 1.51722 3.75183 0
M  V30 20538 H 1857.55 0.728744 3.03987 0
M  V30 20539 H 1856.77 3.12977 2.39664 0
M  V30 20540 H 1858.06 3.73838 3.45142 0
M  V30 20541 H 1857.46 1.30778 5.50376 0
M  V30 20542 H 1856.02 1.87813 6.24155 0
M  V30 20543 N 1859.45 -0.728395 1.39758 0
M  V30 20544 C 1860.67 -1.52268 1.40816 0
M  V30 20545 C 1861.1 -1.88099 0.00629167 0
M  V30 20546 O 1860.46 -1.52376 -0.982402 0
M  V30 20547 C 1860.51 -2.78262 2.29353 0
M  V30 20548 O 1859.61 -3.74453 1.72796 0
M  V30 20549 H 1858.95 -0.459582 0.47925 0
M  V30 20550 H 1861.48 -0.898132 1.83833 0
M  V30 20551 H 1861.49 -3.26927 2.44096 0
M  V30 20552 H 1860.17 -2.51515 3.31229 0
M  V30 20553 H 1858.74 -3.33248 1.67332 0
M  V30 20554 N 1860.93 -1.25042 -0.959279 0
M  V30 20555 C 1862.15 -1.12339 -1.74341 0
M  V30 20556 C 1862.58 0.319342 -1.85369 0
M  V30 20557 O 1861.94 1.23129 -1.33075 0
M  V30 20558 C 1861.98 -1.77734 -3.13756 0
M  V30 20559 O 1861.09 -1.05383 -3.98708 0
M  V30 20560 H 1860.43 -0.392479 -0.535589 0
M  V30 20561 H 1862.96 -1.65516 -1.20274 0
M  V30 20562 H 1862.97 -1.83832 -3.64239 0
M  V30 20563 H 1861.64 -2.82702 -3.05045 0
M  V30 20564 H 1860.22 -1.07132 -3.57179 0
M  V30 20565 N 1862.41 1.16121 -1.06553 0
M  V30 20566 C 1863.34 2.20181 -0.636617 0
M  V30 20567 C 1864.35 1.59884 0.306731 0
M  V30 20568 O 1865.54 1.78235 0.0973101 0
M  V30 20569 C 1862.64 3.38789 0.0865541 0
M  V30 20570 C 1861.81 4.28641 -0.870941 0
M  V30 20571 C 1860.87 5.25869 -0.186538 0
M  V30 20572 O 1859.9 5.63189 -0.825028 0
M  V30 20573 N 1861.1 5.70536 1.0709 0
M  V30 20574 H 1863.87 2.576 -1.53175 0
M  V30 20575 H 1861.43 1.31157 -0.949185 0
M  V30 20576 H 1863.42 4.00878 0.554881 0
M  V30 20577 H 1861.99 2.99854 0.883524 0
M  V30 20578 H 1861.21 3.63776 -1.51858 0
M  V30 20579 H 1862.5 4.85552 -1.5204 0
M  V30 20580 H 1861.89 5.42314 1.60973 0
M  V30 20581 H 1860.45 6.34704 1.48305 0
M  V30 20582 N 1863.88 0.848487 1.3281 0
M  V30 20583 C 1865.3 0.537529 1.50276 0
M  V30 20584 C 1865.5 -0.93314 1.78591 0
M  V30 20585 O 1864.56 -1.71649 1.85184 0
M  V30 20586 C 1865.87 1.41919 2.65103 0
M  V30 20587 C 1867.42 1.41897 2.78988 0
M  V30 20588 C 1867.89 2.2857 3.96888 0
M  V30 20589 N 1869.38 2.26331 4.04139 0
M  V30 20590 C 1870.12 2.90127 4.94585 0
M  V30 20591 N 1869.61 3.63011 5.9008 0
M  V30 20592 N 1871.41 2.79547 4.87658 0
M  V30 20593 H 1863.56 1.80038 1.12695 0
M  V30 20594 H 1865.82 0.768636 0.554889 0
M  V30 20595 H 1865.53 2.4647 2.50889 0
M  V30 20596 H 1865.4 1.10213 3.60739 0
M  V30 20597 H 1867.79 0.381128 2.92628 0
M  V30 20598 H 1867.87 1.77614 1.84084 0
M  V30 20599 H 1867.51 3.32418 3.84006 0
M  V30 20600 H 1867.44 1.90188 4.91056 0
M  V30 20601 H 1869.93 1.73337 3.35802 0
M  V30 20602 H 1870.25 4.08872 6.55777 0
M  V30 20603 H 1868.59 3.67119 5.90126 0
M  V30 20604 H 1871.78 2.22162 4.12021 0
M  V30 20605 H 1871.96 3.29548 5.57944 0
M  V30 20606 N 1865.36 -1.4549 0.605832 0
M  V30 20607 C 1866.78 -1.57311 0.269339 0
M  V30 20608 C 1866.98 -1.59746 -1.22814 0
M  V30 20609 O 1866.03 -1.52682 -2.01108 0
M  V30 20610 C 1867.35 -2.85664 0.938963 0
M  V30 20611 C 1868.9 -2.99336 0.914717 0
M  V30 20612 C 1869.37 -4.30457 1.56432 0
M  V30 20613 N 1870.86 -4.37211 1.52973 0
M  V30 20614 C 1871.6 -5.37333 2.00152 0
M  V30 20615 N 1871.09 -6.44001 2.5541 0
M  V30 20616 N 1872.89 -5.28679 1.90931 0
M  V30 20617 H 1865.04 -1.42153 1.57817 0
M  V30 20618 H 1867.3 -0.679542 0.661004 0
M  V30 20619 H 1867.01 -2.89759 1.9933 0
M  V30 20620 H 1866.88 -3.7437 0.461178 0
M  V30 20621 H 1869.27 -2.94809 -0.131069 0
M  V30 20622 H 1869.35 -2.12045 1.43075 0
M  V30 20623 H 1868.99 -4.35742 2.60942 0
M  V30 20624 H 1868.92 -5.16561 1.02332 0
M  V30 20625 H 1871.41 -3.60733 1.12605 0
M  V30 20626 H 1871.73 -7.16644 2.89208 0
M  V30 20627 H 1870.07 -6.44757 2.59448 0
M  V30 20628 H 1873.26 -4.44253 1.47502 0
M  V30 20629 H 1873.43 -6.06559 2.28013 0
M  V30 20630 N 1866.84 -0.344893 -1.5378 0
M  V30 20631 C 1868.09 0.25158 -2.01233 0
M  V30 20632 C 1868.42 1.50094 -1.23229 0
M  V30 20633 O 1867.69 1.91845 -0.320282 0
M  V30 20634 C 1867.98 0.564366 -3.5565 0
M  V30 20635 C 1867.83 -0.697186 -4.44364 0
M  V30 20636 C 1869.15 1.37343 -4.18121 0
M  V30 20637 H 1866.27 0.0899643 -0.731488 0
M  V30 20638 H 1868.91 -0.465697 -1.84204 0
M  V30 20639 H 1867.06 1.17543 -3.70292 0
M  V30 20640 H 1868.73 -1.33512 -4.41557 0
M  V30 20641 H 1866.98 -1.3218 -4.13172 0
M  V30 20642 H 1867.65 -0.433571 -5.50295 0
M  V30 20643 H 1870.12 0.85671 -4.07185 0
M  V30 20644 H 1869 1.56103 -5.26235 0
M  V30 20645 H 1869.26 2.37593 -3.7283 0
M  V30 20646 N 1868.32 1.57428 -0.0735454 0
M  V30 20647 C 1869.54 1.98301 0.607591 0
M  V30 20648 C 1869.97 0.951686 1.62248 0
M  V30 20649 O 1869.33 -0.0825008 1.81112 0
M  V30 20650 C 1869.37 3.38201 1.2511 0
M  V30 20651 O 1868.48 3.37711 2.36696 0
M  V30 20652 H 1867.82 0.64539 0.156104 0
M  V30 20653 H 1870.35 2.0406 -0.148578 0
M  V30 20654 H 1870.36 3.75424 1.59753 0
M  V30 20655 H 1869.03 4.12793 0.50745 0
M  V30 20656 H 1867.61 3.1226 2.03833 0
M  V30 20657 N 1869.8 -0.200022 1.56326 0
M  V30 20658 C 1870.71 -1.26847 1.9735 0
M  V30 20659 C 1871.72 -1.50081 0.880432 0
M  V30 20660 O 1872.9 -1.62792 1.18578 0
M  V30 20661 C 1869.96 -2.59382 2.30048 0
M  V30 20662 C 1869.02 -2.44262 3.53036 0
M  V30 20663 C 1868.26 -3.70476 3.84165 0
M  V30 20664 O 1868.48 -4.74433 3.16654 0
M  V30 20665 O 1867.41 -3.663 4.77606 0
M  V30 20666 H 1871.24 -0.950324 2.88449 0
M  V30 20667 H 1868.83 -0.404628 1.43816 0
M  V30 20668 H 1870.71 -3.37616 2.52177 0
M  V30 20669 H 1869.38 -2.90833 1.42119 0
M  V30 20670 H 1868.29 -1.64154 3.36161 0
M  V30 20671 H 1869.62 -2.17744 4.41416 0
M  V30 20672 N 1871.27 -1.50505 -0.467553 0
M  V30 20673 C 1872.2 -1.72558 -1.57309 0
M  V30 20674 C 1873.19 -0.574619 -1.601 0
M  V30 20675 O 1874.37 -0.814135 -1.76311 0
M  V30 20676 C 1871.5 -1.82296 -2.9561 0
M  V30 20677 C 1870.45 -2.97513 -3.07685 0
M  V30 20678 C 1869.78 -2.92398 -4.47669 0
M  V30 20679 C 1871.08 -4.37968 -2.84573 0
M  V30 20680 H 1872.77 -2.65122 -1.39107 0
M  V30 20681 H 1870.32 -1.2758 -0.667776 0
M  V30 20682 H 1872.27 -1.96308 -3.72882 0
M  V30 20683 H 1871 -0.863562 -3.14976 0
M  V30 20684 H 1869.66 -2.83157 -2.32847 0
M  V30 20685 H 1869.3 -1.94297 -4.63959 0
M  V30 20686 H 1869 -3.69749 -4.56683 0
M  V30 20687 H 1870.53 -3.08464 -5.26956 0
M  V30 20688 H 1871.94 -4.52831 -3.51593 0
M  V30 20689 H 1870.34 -5.16796 -3.05028 0
M  V30 20690 H 1871.41 -4.50093 -1.80402 0
M  V30 20691 N 1872.75 0.720973 -1.40142 0
M  V30 20692 C 1873.66 1.86527 -1.42284 0
M  V30 20693 C 1874.68 1.71106 -0.316044 0
M  V30 20694 O 1875.85 1.93465 -0.55977 0
M  V30 20695 C 1872.92 3.2227 -1.27841 0
M  V30 20696 C 1871.98 3.49984 -2.48616 0
M  V30 20697 C 1871.21 4.7925 -2.34852 0
M  V30 20698 O 1871.44 5.53963 -1.35945 0
M  V30 20699 O 1870.37 5.07179 -3.24119 0
M  V30 20700 H 1874.2 1.87675 -2.38771 0
M  V30 20701 H 1871.78 0.870677 -1.21407 0
M  V30 20702 H 1873.66 4.03362 -1.21973 0
M  V30 20703 H 1872.34 3.21861 -0.344566 0
M  V30 20704 H 1871.25 2.68922 -2.60061 0
M  V30 20705 H 1872.58 3.55184 -3.40742 0
M  V30 20706 N 1874.23 1.25549 0.952634 0
M  V30 20707 C 1875.18 1.06108 2.04963 0
M  V30 20708 C 1876.15 -0.0303872 1.66072 0
M  V30 20709 O 1877.33 0.127178 1.90376 0
M  V30 20710 C 1874.47 0.68799 3.38173 0
M  V30 20711 C 1873.59 1.85452 3.90168 0
M  V30 20712 C 1872.72 1.4256 5.11713 0
M  V30 20713 C 1871.76 2.56115 5.55942 0
M  V30 20714 N 1870.9 2.13984 6.68697 0
M  V30 20715 H 1875.74 1.99991 2.20925 0
M  V30 20716 H 1873.27 0.995895 1.08261 0
M  V30 20717 H 1875.23 0.452622 4.14737 0
M  V30 20718 H 1873.86 -0.213845 3.22091 0
M  V30 20719 H 1872.91 2.20314 3.10106 0
M  V30 20720 H 1874.23 2.70722 4.1894 0
M  V30 20721 H 1873.38 1.15 5.95701 0
M  V30 20722 H 1872.12 0.54365 4.8466 0
M  V30 20723 H 1871.12 2.84417 4.70518 0
M  V30 20724 H 1872.35 3.44891 5.85002 0
M  V30 20725 H 1870.29 1.28208 6.4335 0
M  V30 20726 H 1870.21 2.92801 6.96996 0
M  V30 20727 H 1871.48 1.89605 7.56089 0
M  V30 20728 N 1875.71 -1.15554 1.07168 0
M  V30 20729 C 1876.64 -2.19841 0.648285 0
M  V30 20730 C 1877.65 -1.60045 -0.298247 0
M  V30 20731 O 1878.84 -1.78284 -0.0878565 0
M  V30 20732 C 1875.94 -3.38831 -0.068586 0
M  V30 20733 C 1875.12 -4.28173 0.89366 0
M  V30 20734 C 1874.17 -5.25763 0.214424 0
M  V30 20735 O 1873.2 -5.62744 0.854883 0
M  V30 20736 N 1874.4 -5.71096 -1.04063 0
M  V30 20737 H 1877.17 -2.56784 1.54539 0
M  V30 20738 H 1874.73 -1.30652 0.956127 0
M  V30 20739 H 1876.72 -4.01167 -0.533614 0
M  V30 20740 H 1875.29 -3.00319 -0.86761 0
M  V30 20741 H 1874.51 -3.62965 1.53785 0
M  V30 20742 H 1875.8 -4.84739 1.54613 0
M  V30 20743 H 1875.2 -5.4316 -1.58095 0
M  V30 20744 H 1873.75 -6.35481 -1.44937 0
M  V30 20745 N 1877.19 -0.855519 -1.32358 0
M  V30 20746 C 1878.42 -0.473331 -2.01413 0
M  V30 20747 C 1878.83 0.930206 -1.64294 0
M  V30 20748 O 1878.19 1.60714 -0.864705 0
M  V30 20749 C 1878.24 -0.603815 -3.56422 0
M  V30 20750 O 1877.96 -1.95207 -3.92207 0
M  V30 20751 C 1879.46 -0.220748 -4.4275 0
M  V30 20752 H 1876.68 -0.185962 -0.644716 0
M  V30 20753 H 1879.22 -1.1527 -1.68918 0
M  V30 20754 H 1877.38 0.0278263 -3.8739 0
M  V30 20755 H 1877.79 -1.94946 -4.86925 0
M  V30 20756 H 1879.27 -0.363048 -5.50805 0
M  V30 20757 H 1879.74 0.838881 -4.31114 0
M  V30 20758 H 1880.35 -0.827498 -4.17172 0
M  V30 20759 N 1878.67 1.45167 -0.61354 0
M  V30 20760 C 1879.94 1.95553 -0.042781 0
M  V30 20761 C 1880.32 1.55588 1.42673 0
M  V30 20762 O 1879.67 0.821325 2.13229 0
M  V30 20763 C 1879.88 3.48124 -0.247141 0
M  V30 20764 C 1881.23 4.24398 -0.131068 0
M  V30 20765 O 1882.25 3.55757 -0.177576 0
M  V30 20766 O 1881.11 5.46496 -0.0211683 0
M  V30 20767 H 1878.21 0.826367 0.0323494 0
M  V30 20768 H 1880.75 1.55304 -0.684017 0
M  V30 20769 H 1879.52 3.70202 -1.26751 0
M  V30 20770 H 1879.15 3.95278 0.429074 0
M  V30 20771 N 1880.14 0.353044 1.53595 0
M  V30 20772 C 1881.42 -0.296304 1.93343 0
M  V30 20773 C 1881.8 -1.67448 1.28548 0
M  V30 20774 O 1881.15 -2.24226 0.4399 0
M  V30 20775 C 1881.36 -0.359079 3.47148 0
M  V30 20776 C 1882.71 -0.605406 4.20262 0
M  V30 20777 O 1883.73 -0.440805 3.53462 0
M  V30 20778 O 1882.59 -0.92496 5.38616 0
M  V30 20779 H 1879.68 -0.174879 0.808298 0
M  V30 20780 H 1882.23 0.404914 1.64798 0
M  V30 20781 H 1881 0.607684 3.86553 0
M  V30 20782 H 1880.62 -1.1067 3.81887 0
M  V30 20783 N 1881.62 -1.57387 0.0818932 0
M  V30 20784 C 1882.55 -2.16318 -0.879124 0
M  V30 20785 C 1883.53 -1.09293 -1.30342 0
M  V30 20786 O 1884.72 -1.37373 -1.37267 0
M  V30 20787 C 1881.85 -2.73293 -2.14308 0
M  V30 20788 C 1880.8 -3.85575 -1.85785 0
M  V30 20789 C 1880.13 -4.29195 -3.18897 0
M  V30 20790 C 1881.43 -5.09365 -1.15517 0
M  V30 20791 H 1883.12 -2.96873 -0.388166 0
M  V30 20792 H 1880.67 -1.42803 -0.185265 0
M  V30 20793 H 1882.62 -3.13168 -2.81964 0
M  V30 20794 H 1881.34 -1.89974 -2.65664 0
M  V30 20795 H 1880 -3.46219 -1.20532 0
M  V30 20796 H 1879.65 -3.42784 -3.68114 0
M  V30 20797 H 1879.35 -5.04889 -3.006 0
M  V30 20798 H 1880.88 -4.71694 -3.87734 0
M  V30 20799 H 1882.29 -5.46493 -1.73259 0
M  V30 20800 H 1880.69 -5.90403 -1.07444 0
M  V30 20801 H 1881.76 -4.8471 -0.135822 0
M  V30 20802 N 1883.1 0.191729 -1.56429 0
M  V30 20803 C 1884.52 0.542701 -1.5009 0
M  V30 20804 C 1884.72 1.85685 -0.782522 0
M  V30 20805 O 1883.77 2.50275 -0.334432 0
M  V30 20806 C 1885.08 0.594326 -2.94768 0
M  V30 20807 C 1886.63 0.682929 -3.05459 0
M  V30 20808 C 1887.11 0.765634 -4.51555 0
M  V30 20809 N 1888.6 0.829072 -4.5572 0
M  V30 20810 C 1889.33 0.91329 -5.6608 0
M  V30 20811 N 1888.83 0.959603 -6.86122 0
M  V30 20812 N 1890.62 0.950739 -5.54001 0
M  V30 20813 H 1882.77 -0.670241 -2.01548 0
M  V30 20814 H 1885.04 -0.239168 -0.917335 0
M  V30 20815 H 1884.74 -0.302238 -3.50399 0
M  V30 20816 H 1884.62 1.44787 -3.48305 0
M  V30 20817 H 1887 1.56992 -2.49875 0
M  V30 20818 H 1887.08 -0.19688 -2.55041 0
M  V30 20819 H 1886.73 -0.117022 -5.07765 0
M  V30 20820 H 1886.66 1.66129 -4.99709 0
M  V30 20821 H 1889.15 0.802391 -3.69283 0
M  V30 20822 H 1889.46 1.02447 -7.65979 0
M  V30 20823 H 1887.81 0.928223 -6.88774 0
M  V30 20824 H 1891 0.911418 -4.59141 0
M  V30 20825 H 1891.17 1.01291 -6.40034 0
M  V30 20826 N 1884.58 1.50751 0.459565 0
M  V30 20827 C 1885.83 1.61995 1.20839 0
M  V30 20828 C 1886.15 0.327782 1.92225 0
M  V30 20829 O 1885.42 -0.655341 1.84613 0
M  V30 20830 H 1884 0.596972 0.449036 0
M  V30 20831 H 1886.66 1.87582 0.52906 0
M  V30 20832 H 1885.75 2.43678 1.95006 0
M  V30 20833 N 1886.06 -0.713531 1.40522 0
M  V30 20834 C 1886.97 -1.8577 1.43272 0
M  V30 20835 C 1887.98 -1.70936 0.325113 0
M  V30 20836 O 1889.16 -1.93165 0.570022 0
M  V30 20837 C 1886.22 -3.21587 1.29548 0
M  V30 20838 C 1885.28 -3.4866 2.50469 0
M  V30 20839 C 1884.52 -4.77998 2.3739 0
M  V30 20840 O 1884.74 -5.53234 1.38881 0
M  V30 20841 O 1883.67 -5.05453 3.26804 0
M  V30 20842 H 1887.5 -1.86406 2.39763 0
M  V30 20843 H 1885.08 -0.864226 1.21867 0
M  V30 20844 H 1886.97 -4.02709 1.2411 0
M  V30 20845 H 1885.64 -3.21674 0.36163 0
M  V30 20846 H 1884.55 -2.67539 2.61483 0
M  V30 20847 H 1885.88 -3.53372 3.42621 0
M  V30 20848 N 1887.53 -1.26053 -0.945962 0
M  V30 20849 C 1888.78 -1.10706 -1.68603 0
M  V30 20850 C 1889.1 0.350167 -1.9244 0
M  V30 20851 O 1890.3 0.624224 -2.64227 0
M  V30 20852 C 1888.76 -1.93306 -3.0358 0
M  V30 20853 C 1888.37 -3.43574 -2.87508 0
M  V30 20854 C 1890.11 -1.86555 -3.8131 0
M  V30 20855 C 1888.02 -4.18438 -4.17928 0
M  V30 20856 H 1886.95 -0.410689 -0.632337 0
M  V30 20857 H 1889.6 -1.50322 -1.0524 0
M  V30 20858 H 1887.98 -1.4652 -3.67897 0
M  V30 20859 H 1889.15 -3.98096 -2.3207 0
M  V30 20860 H 1887.47 -3.51511 -2.23224 0
M  V30 20861 H 1890.07 -2.39775 -4.77925 0
M  V30 20862 H 1890.41 -0.83525 -4.07835 0
M  V30 20863 H 1890.94 -2.31138 -3.23759 0
M  V30 20864 H 1887.68 -5.21917 -3.96589 0
M  V30 20865 H 1887.2 -3.68698 -4.73098 0
M  V30 20866 H 1888.88 -4.26626 -4.86415 0
M  V30 20867 N 1889.01 1.14984 -1.07779 0
M  V30 20868 C 1889.97 2.1806 -0.705879 0
M  V30 20869 C 1890.97 1.58748 0.256082 0
M  V30 20870 O 1892.16 1.74162 0.0364678 0
M  V30 20871 C 1889.3 3.40875 -0.0411253 0
M  V30 20872 H 1890.49 2.52476 -1.61852 0
M  V30 20873 H 1888.04 1.29522 -0.874863 0
M  V30 20874 H 1888.78 3.12032 0.883548 0
M  V30 20875 H 1888.56 3.85186 -0.73306 0
M  V30 20876 H 1890.05 4.171 0.204275 0
M  V30 20877 N 1890.49 0.862526 1.31902 0
M  V30 20878 C 1891.74 0.470471 1.97267 0
M  V30 20879 C 1892.07 -0.973153 1.68058 0
M  V30 20880 O 1891.34 -1.68411 0.973035 0
M  V30 20881 C 1891.63 0.719362 3.52842 0
M  V30 20882 C 1891.48 2.21198 3.91652 0
M  V30 20883 C 1892.8 0.18092 4.39728 0
M  V30 20884 H 1889.92 0.172408 0.71655 0
M  V30 20885 H 1892.56 1.0824 1.56154 0
M  V30 20886 H 1890.71 0.198516 3.87992 0
M  V30 20887 H 1892.38 2.79951 3.66641 0
M  V30 20888 H 1890.62 2.68744 3.40528 0
M  V30 20889 H 1891.3 2.33679 5.00098 0
M  V30 20890 H 1893.77 0.626421 4.11358 0
M  V30 20891 H 1892.65 0.384575 5.47551 0
M  V30 20892 H 1892.91 -0.916756 4.3249 0
M  V30 20893 N 1891.97 -1.4484 0.62123 0
M  V30 20894 C 1892.9 -2.33374 -0.0766286 0
M  V30 20895 C 1893.88 -1.47631 -0.844932 0
M  V30 20896 O 1895.06 -1.76373 -0.81278 0
M  V30 20897 C 1892.19 -3.30552 -1.0655 0
M  V30 20898 C 1891.15 -4.26037 -0.409496 0
M  V30 20899 C 1890.47 -5.13007 -1.50757 0
M  V30 20900 C 1891.77 -5.17881 0.677994 0
M  V30 20901 H 1893.47 -2.91975 0.662658 0
M  V30 20902 H 1891.01 -1.40397 0.320117 0
M  V30 20903 H 1892.97 -3.91367 -1.56237 0
M  V30 20904 H 1891.69 -2.70139 -1.83555 0
M  V30 20905 H 1890.35 -3.66539 0.0666321 0
M  V30 20906 H 1890 -4.48954 -2.26825 0
M  V30 20907 H 1889.7 -5.777 -1.07407 0
M  V30 20908 H 1891.22 -5.76692 -2.00645 0
M  V30 20909 H 1892.64 -5.72689 0.264637 0
M  V30 20910 H 1891.03 -5.91124 1.03405 0
M  V30 20911 H 1892.1 -4.59488 1.54914 0
M  V30 20912 N 1893.45 -0.361184 -1.53405 0
M  V30 20913 C 1894.36 0.495394 -2.2931 0
M  V30 20914 C 1895.37 1.09649 -1.35104 0
M  V30 20915 O 1896.55 1.10838 -1.68158 0
M  V30 20916 C 1893.61 1.62176 -3.06431 0
M  V30 20917 C 1892.67 1.04865 -4.16295 0
M  V30 20918 C 1891.91 2.12134 -4.89729 0
M  V30 20919 O 1892.13 3.33169 -4.62985 0
M  V30 20920 O 1891.06 1.75438 -5.75765 0
M  V30 20921 H 1894.89 -0.122155 -3.03454 0
M  V30 20922 H 1892.48 -0.125695 -1.4887 0
M  V30 20923 H 1894.36 2.27673 -3.54603 0
M  V30 20924 H 1893.03 2.22479 -2.35127 0
M  V30 20925 H 1891.94 0.357717 -3.72386 0
M  V30 20926 H 1893.27 0.490239 -4.89752 0
M  V30 20927 N 1894.92 1.57341 -0.0902386 0
M  V30 20928 C 1895.89 2.12619 0.855916 0
M  V30 20929 C 1896.89 1.05434 1.2141 0
M  V30 20930 O 1898.08 1.31342 1.14433 0
M  V30 20931 C 1895.21 2.64277 2.15338 0
M  V30 20932 H 1896.4 2.97533 0.376014 0
M  V30 20933 H 1893.96 1.55492 0.1587 0
M  V30 20934 H 1894.69 1.82869 2.67824 0
M  V30 20935 H 1894.48 3.4264 1.9063 0
M  V30 20936 H 1895.97 3.07055 2.83032 0
M  V30 20937 N 1896.4 -0.183431 1.56529 0
M  V30 20938 C 1897.63 -0.917888 1.85425 0
M  V30 20939 C 1898.05 -1.76353 0.674171 0
M  V30 20940 O 1897.4 -1.78975 -0.35695 0
M  V30 20941 C 1897.45 -1.80454 3.13239 0
M  V30 20942 O 1897.17 -0.993028 4.26697 0
M  V30 20943 C 1898.68 -2.64969 3.55396 0
M  V30 20944 H 1895.9 -0.267254 0.61548 0
M  V30 20945 H 1898.44 -0.187171 2.03642 0
M  V30 20946 H 1896.59 -2.48874 2.96884 0
M  V30 20947 H 1897.01 -1.59831 4.99554 0
M  V30 20948 H 1898.48 -3.22819 4.47763 0
M  V30 20949 H 1898.96 -3.3925 2.78937 0
M  V30 20950 H 1899.57 -2.01902 3.74321 0
M  V30 20951 N 1897.88 -1.50992 -0.451564 0
M  V30 20952 C 1899.13 -1.63197 -1.20394 0
M  V30 20953 C 1899.46 -0.340409 -1.91193 0
M  V30 20954 O 1898.73 0.65926 -1.82986 0
M  V30 20955 C 1899.02 -2.82567 -2.23221 0
M  V30 20956 C 1898.87 -4.2166 -1.56598 0
M  V30 20957 C 1900.19 -2.97468 -3.24347 0
M  V30 20958 H 1897.31 -0.59395 -0.43634 0
M  V30 20959 H 1899.95 -1.83437 -0.495056 0
M  V30 20960 H 1898.1 -2.65441 -2.83678 0
M  V30 20961 H 1899.77 -4.50422 -0.995877 0
M  V30 20962 H 1898.02 -4.25015 -0.86862 0
M  V30 20963 H 1898.69 -5.0115 -2.31415 0
M  V30 20964 H 1901.16 -3.13211 -2.73931 0
M  V30 20965 H 1900.04 -3.82581 -3.93603 0
M  V30 20966 H 1900.3 -2.08921 -3.89621 0
M  V30 20967 N 1899.36 0.706069 -1.40899 0
M  V30 20968 C 1900.29 1.83119 -1.37841 0
M  V30 20969 C 1901.3 1.60335 -0.282253 0
M  V30 20970 O 1902.49 1.70032 -0.543263 0
M  V30 20971 C 1899.59 3.19696 -1.12461 0
M  V30 20972 C 1898.77 3.69598 -2.33915 0
M  V30 20973 C 1897.82 4.84815 -2.04551 0
M  V30 20974 O 1896.85 4.96973 -2.775 0
M  V30 20975 N 1898.05 5.71302 -1.0293 0
M  V30 20976 H 1900.82 1.86237 -2.34811 0
M  V30 20977 H 1898.38 0.887984 -1.35375 0
M  V30 20978 H 1900.37 3.94386 -0.90786 0
M  V30 20979 H 1898.94 3.11668 -0.241258 0
M  V30 20980 H 1898.16 2.85933 -2.7136 0
M  V30 20981 H 1899.45 3.99674 -3.14862 0
M  V30 20982 H 1898.85 5.64099 -0.425314 0
M  V30 20983 H 1897.4 6.45935 -0.872446 0
M  V30 20984 N 1900.84 1.26553 0.939264 0
M  V30 20985 C 1901.78 1.08092 2.05958 0
M  V30 20986 C 1902.78 0.00730279 1.69398 0
M  V30 20987 O 1903.98 0.164131 1.7925 0
M  V30 20988 H 1900.36 0.33271 0.674394 0
M  V30 20989 H 1902.33 2.03032 2.18679 0
M  V30 20990 C 1901.08 0.732672 3.39893 0
M  V30 20991 H 1900.4 1.55067 3.68503 0
M  V30 20992 H 1901.84 0.643305 4.19091 0
M  V30 20993 C 1900.3 -0.5623 3.32174 0
M  V30 20994 O 1900.83 -1.60007 3.68457 0
M  V30 20995 N 1899.04 -0.553643 2.85277 0
M  V30 20996 H 1898.58 0.291265 2.55948 0
M  V30 20997 H 1898.54 -1.4202 2.80495 0
M  V30 20998 N 1902.31 -1.14411 1.08387 0
M  V30 20999 C 1903.26 -2.21558 0.708165 0
M  V30 21000 C 1904.26 -1.66969 -0.285982 0
M  V30 21001 O 1905.46 -1.79386 -0.14857 0
M  V30 21002 H 1901.84 -0.721799 0.210974 0
M  V30 21003 H 1903.81 -2.50518 1.62122 0
M  V30 21004 C 1902.56 -3.47444 0.13337 0
M  V30 21005 H 1901.88 -3.89779 0.889513 0
M  V30 21006 H 1903.32 -4.23901 -0.0917154 0
M  V30 21007 C 1901.78 -3.1743 -1.1287 0
M  V30 21008 O 1902.31 -3.35205 -2.2136 0
M  V30 21009 N 1900.52 -2.71391 -1.03901 0
M  V30 21010 H 1900.06 -2.57127 -0.156094 0
M  V30 21011 H 1900.02 -2.51684 -1.88422 0
M  V30 21012 N 1903.79 -0.869509 -1.31443 0
M  V30 21013 C 1904.72 -0.282169 -2.27456 0
M  V30 21014 C 1905.74 0.55453 -1.53065 0
M  V30 21015 O 1906.93 0.376597 -1.74482 0
M  V30 21016 C 1904.03 0.618652 -3.33206 0
M  V30 21017 C 1903.2 -0.185505 -4.37006 0
M  V30 21018 C 1902.26 0.643383 -5.22252 0
M  V30 21019 O 1901.28 0.0715827 -5.69155 0
M  V30 21020 N 1902.49 1.95545 -5.46573 0
M  V30 21021 H 1905.25 -1.10726 -2.78496 0
M  V30 21022 H 1902.81 -0.730947 -1.4446 0
M  V30 21023 H 1904.8 1.17886 -3.8715 0
M  V30 21024 H 1903.37 1.34442 -2.82213 0
M  V30 21025 H 1902.59 -0.927156 -3.83142 0
M  V30 21026 H 1903.88 -0.73731 -5.03429 0
M  V30 21027 H 1903.28 2.44315 -5.10222 0
M  V30 21028 H 1901.84 2.46345 -6.03455 0
M  V30 21029 N 1905.27 1.44508 -0.628902 0
M  V30 21030 C 1906.55 1.95497 -0.0635197 0
M  V30 21031 C 1906.93 1.57092 1.41015 0
M  V30 21032 O 1906.28 0.843894 2.12346 0
M  V30 21033 C 1906.49 3.47842 -0.284051 0
M  V30 21034 C 1907.83 4.24235 -0.176073 0
M  V30 21035 O 1908.86 3.55549 -0.215298 0
M  V30 21036 O 1907.72 5.46443 -0.0791303 0
M  V30 21037 H 1904.81 0.826664 0.0235829 0
M  V30 21038 H 1907.36 1.5457 -0.70045 0
M  V30 21039 H 1906.13 3.68837 -1.30671 0
M  V30 21040 H 1905.75 3.95711 0.387125 0
M  V30 21041 N 1906.75 0.369315 1.53212 0
M  V30 21042 C 1907.66 -0.483226 2.29569 0
M  V30 21043 C 1908.68 -1.08931 1.35684 0
M  V30 21044 O 1909.85 -1.09944 1.68743 0
M  V30 21045 C 1906.92 -1.60549 3.07286 0
M  V30 21046 C 1905.98 -1.02656 4.16846 0
M  V30 21047 C 1905.21 -2.09534 4.90847 0
M  V30 21048 O 1905.43 -3.30709 4.64745 0
M  V30 21049 O 1904.37 -1.72382 5.76687 0
M  V30 21050 H 1908.19 0.138246 3.03385 0
M  V30 21051 H 1905.78 0.133589 1.48802 0
M  V30 21052 H 1907.66 -2.25789 3.55805 0
M  V30 21053 H 1906.34 -2.21229 2.36303 0
M  V30 21054 H 1905.24 -0.337963 3.7257 0
M  V30 21055 H 1906.58 -0.464259 4.90006 0
M  V30 21056 N 1908.23 -1.57291 0.0985816 0
M  V30 21057 C 1909.64 -1.575 -0.258064 0
M  V30 21058 C 1909.84 -1.10997 -1.68172 0
M  V30 21059 O 1908.9 -0.78802 -2.39889 0
M  V30 21060 C 1910.21 -3.00669 -0.0433215 0
M  V30 21061 C 1911.76 -3.12804 -0.110802 0
M  V30 21062 C 1912.24 -4.57937 0.0759907 0
M  V30 21063 N 1913.73 -4.63195 0.021273 0
M  V30 21064 C 1914.46 -5.73227 0.141 0
M  V30 21065 N 1913.96 -6.9208 0.315756 0
M  V30 21066 N 1915.75 -5.6204 0.0820222 0
M  V30 21067 H 1907.9 -1.85826 1.02871 0
M  V30 21068 H 1910.16 -0.857869 0.403441 0
M  V30 21069 H 1909.87 -3.38903 0.940103 0
M  V30 21070 H 1909.74 -3.6896 -0.784124 0
M  V30 21071 H 1912.13 -2.7444 -1.08473 0
M  V30 21072 H 1912.21 -2.47098 0.661548 0
M  V30 21073 H 1911.86 -4.96995 1.04681 0
M  V30 21074 H 1911.79 -5.21708 -0.716096 0
M  V30 21075 H 1914.28 -3.77737 -0.111114 0
M  V30 21076 H 1914.59 -7.71772 0.398531 0
M  V30 21077 H 1912.94 -6.94111 0.351469 0
M  V30 21078 H 1916.13 -4.6807 -0.0533968 0
M  V30 21079 H 1916.3 -6.47753 0.178778 0
M  V30 21080 N 1909.71 0.175127 -1.56624 0
M  V30 21081 C 1911.12 0.526752 -1.50657 0
M  V30 21082 C 1911.32 1.84844 -0.802173 0
M  V30 21083 O 1910.38 2.49907 -0.360958 0
M  V30 21084 C 1911.69 0.563029 -2.95382 0
M  V30 21085 C 1913.24 0.650493 -3.06166 0
M  V30 21086 C 1913.71 0.717698 -4.52342 0
M  V30 21087 N 1915.2 0.78069 -4.56574 0
M  V30 21088 C 1915.94 0.853199 -5.67017 0
M  V30 21089 N 1915.44 0.886777 -6.87101 0
M  V30 21090 N 1917.23 0.891926 -5.54978 0
M  V30 21091 H 1909.38 -0.69158 -2.00826 0
M  V30 21092 H 1911.64 -0.248884 -0.914746 0
M  V30 21093 H 1911.35 -0.339385 -3.50059 0
M  V30 21094 H 1911.22 1.41084 -3.49821 0
M  V30 21095 H 1913.61 1.54333 -2.51526 0
M  V30 21096 H 1913.69 -0.223919 -2.54818 0
M  V30 21097 H 1913.33 -0.170871 -5.07612 0
M  V30 21098 H 1913.26 1.6082 -5.01442 0
M  V30 21099 H 1915.76 0.763178 -3.70113 0
M  V30 21100 H 1916.07 0.943172 -7.67023 0
M  V30 21101 H 1914.41 0.855117 -6.89719 0
M  V30 21102 H 1917.6 0.862669 -4.60082 0
M  V30 21103 H 1917.78 0.944973 -6.41073 0
M  V30 21104 N 1911.18 1.5123 0.44355 0
M  V30 21105 C 1912.15 1.71511 1.52041 0
M  V30 21106 C 1913.15 0.585226 1.49772 0
M  V30 21107 O 1914.34 0.852687 1.51904 0
M  V30 21108 C 1911.47 1.76583 2.91601 0
M  V30 21109 H 1912.66 2.67613 1.35364 0
M  V30 21110 H 1910.21 1.41125 0.671811 0
M  V30 21111 H 1910.95 0.822743 3.1369 0
M  V30 21112 H 1910.73 2.58693 2.94653 0
M  V30 21113 H 1912.22 1.94135 3.69732 0
M  V30 21114 N 1912.66 -0.698586 1.41271 0
M  V30 21115 C 1913.59 -1.82505 1.4565 0
M  V30 21116 C 1914.57 -1.67149 0.315497 0
M  V30 21117 O 1915.76 -1.86926 0.526518 0
M  V30 21118 C 1912.89 -3.20616 1.33502 0
M  V30 21119 C 1911.84 -3.50672 2.45383 0
M  V30 21120 C 1911.17 -4.88107 2.18302 0
M  V30 21121 C 1912.47 -3.49952 3.87725 0
M  V30 21122 H 1914.16 -1.79098 2.39926 0
M  V30 21123 H 1911.71 -0.860237 1.15481 0
M  V30 21124 H 1913.66 -3.9913 1.35179 0
M  V30 21125 H 1912.38 -3.24642 0.357101 0
M  V30 21126 H 1911.04 -2.74507 2.42984 0
M  V30 21127 H 1910.69 -4.88755 1.1886 0
M  V30 21128 H 1910.39 -5.09182 2.9327 0
M  V30 21129 H 1911.92 -5.68934 2.21689 0
M  V30 21130 H 1913.33 -4.18476 3.91855 0
M  V30 21131 H 1911.73 -3.82559 4.62351 0
M  V30 21132 H 1912.8 -2.48988 4.16093 0
M  V30 21133 N 1914.14 -1.27049 -0.93254 0
M  V30 21134 C 1915.07 -1.11867 -2.04959 0
M  V30 21135 C 1916.05 -0.0214563 -1.70086 0
M  V30 21136 O 1917.24 -0.195063 -1.93218 0
M  V30 21137 C 1914.37 -0.759993 -3.38883 0
M  V30 21138 C 1913.32 -1.8099 -3.87849 0
M  V30 21139 C 1912.65 -1.30532 -5.18522 0
M  V30 21140 C 1913.95 -3.21309 -4.11774 0
M  V30 21141 H 1915.64 -2.05309 -2.17918 0
M  V30 21142 H 1913.19 -0.988507 -1.04712 0
M  V30 21143 H 1915.14 -0.640623 -4.16502 0
M  V30 21144 H 1913.86 0.210139 -3.25923 0
M  V30 21145 H 1912.52 -1.91809 -3.12418 0
M  V30 21146 H 1912.17 -0.324784 -5.0195 0
M  V30 21147 H 1911.87 -2.00722 -5.52254 0
M  V30 21148 H 1913.39 -1.19879 -5.98716 0
M  V30 21149 H 1914.81 -3.13517 -4.79979 0
M  V30 21150 H 1913.2 -3.89166 -4.56804 0
M  V30 21151 H 1914.27 -3.66722 -3.17243 0
M  V30 21152 N 1915.62 1.13835 -1.08993 0
M  V30 21153 C 1916.53 2.22715 -0.73724 0
M  V30 21154 C 1917.54 1.72064 0.258869 0
M  V30 21155 O 1918.72 2.01145 0.101321 0
M  V30 21156 C 1915.78 3.46338 -0.158285 0
M  V30 21157 C 1914.85 4.11902 -1.20977 0
M  V30 21158 C 1914.08 5.29624 -0.658349 0
M  V30 21159 O 1914.3 5.68023 0.520219 0
M  V30 21160 O 1913.24 5.85121 -1.41126 0
M  V30 21161 H 1917.06 2.55247 -1.64568 0
M  V30 21162 H 1914.65 1.21882 -0.864013 0
M  V30 21163 H 1916.53 4.2109 0.161481 0
M  V30 21164 H 1915.2 3.15517 0.723235 0
M  V30 21165 H 1914.11 3.38996 -1.58216 0
M  V30 21166 H 1915.44 4.46843 -2.06378 0
M  V30 21167 N 1917.1 0.876467 1.3098 0
M  V30 21168 C 1918.51 0.569284 1.49102 0
M  V30 21169 C 1918.71 -0.895048 1.8053 0
M  V30 21170 O 1917.77 -1.67682 1.88783 0
M  V30 21171 C 1919.08 1.4751 2.62033 0
M  V30 21172 C 1920.63 1.47783 2.75915 0
M  V30 21173 C 1921.1 2.36937 3.9195 0
M  V30 21174 N 1922.59 2.34853 3.99247 0
M  V30 21175 C 1923.33 3.00553 4.88319 0
M  V30 21176 N 1922.83 3.75446 5.82247 0
M  V30 21177 N 1924.62 2.89828 4.81618 0
M  V30 21178 H 1916.77 1.82388 1.08851 0
M  V30 21179 H 1919.03 0.780233 0.538461 0
M  V30 21180 H 1918.74 2.51737 2.45605 0
M  V30 21181 H 1918.61 1.1784 3.5832 0
M  V30 21182 H 1921 0.443113 2.91754 0
M  V30 21183 H 1921.08 1.81479 1.80275 0
M  V30 21184 H 1920.72 3.40488 3.76869 0
M  V30 21185 H 1920.65 2.00561 4.86911 0
M  V30 21186 H 1923.15 1.80421 3.32049 0
M  V30 21187 H 1923.46 4.2269 6.46957 0
M  V30 21188 H 1921.8 3.79554 5.82206 0
M  V30 21189 H 1924.99 2.30852 4.07216 0
M  V30 21190 H 1925.17 3.41309 5.50829 0
M  V30 21191 N 1918.57 -1.44173 0.636557 0
M  V30 21192 C 1919.81 -2.03874 0.146599 0
M  V30 21193 C 1920.18 -1.49026 -1.21059 0
M  V30 21194 O 1921.38 -2.00264 -1.79298 0
M  V30 21195 C 1919.65 -3.57131 0.138577 0
M  V30 21196 S 1921.21 -4.37867 -0.285968 0
M  V30 21197 H 1918.03 -0.708136 0.0637502 0
M  V30 21198 H 1920.63 -1.76479 0.841163 0
M  V30 21199 H 1919.33 -3.94555 1.12936 0
M  V30 21200 H 1918.86 -3.89145 -0.577061 0
M  V30 21201 H 1920.88 -4.72059 -1.52889 0
M  V30 21202 N 1920.05 -0.377435 -1.53014 0
M  V30 21203 C 1920.98 0.455103 -2.29022 0
M  V30 21204 C 1921.96 1.07375 -1.31926 0
M  V30 21205 O 1923.15 1.08877 -1.60809 0
M  V30 21206 C 1920.28 1.58883 -3.08826 0
M  V30 21207 C 1919.23 1.09683 -4.13707 0
M  V30 21208 C 1918.56 2.32172 -4.81664 0
M  V30 21209 C 1919.86 0.173165 -5.22013 0
M  V30 21210 H 1921.55 -0.179053 -2.98864 0
M  V30 21211 H 1919.1 -0.0875549 -1.43734 0
M  V30 21212 H 1921.05 2.17798 -3.60752 0
M  V30 21213 H 1919.77 2.2504 -2.36695 0
M  V30 21214 H 1918.43 0.530291 -3.62744 0
M  V30 21215 H 1918.08 2.96811 -4.06094 0
M  V30 21216 H 1917.78 1.99919 -5.52545 0
M  V30 21217 H 1919.31 2.91751 -5.3639 0
M  V30 21218 H 1920.72 0.670145 -5.6937 0
M  V30 21219 H 1919.12 -0.0590463 -6.00071 0
M  V30 21220 H 1920.19 -0.781339 -4.78564 0
M  V30 21221 N 1921.53 1.57237 -0.106922 0
M  V30 21222 C 1922.48 2.14668 0.847728 0
M  V30 21223 C 1923.45 1.06838 1.2718 0
M  V30 21224 O 1924.63 1.34686 1.35146 0
M  V30 21225 C 1921.77 2.74079 2.09702 0
M  V30 21226 C 1920.89 3.96178 1.7224 0
M  V30 21227 C 1920.02 4.43715 2.92045 0
M  V30 21228 C 1919.06 5.58375 2.50766 0
M  V30 21229 N 1918.2 6.00711 3.63443 0
M  V30 21230 H 1923.04 2.95924 0.351133 0
M  V30 21231 H 1920.57 1.46209 0.161636 0
M  V30 21232 H 1922.53 3.06649 2.82882 0
M  V30 21233 H 1921.16 1.95532 2.56841 0
M  V30 21234 H 1920.21 3.69846 0.889819 0
M  V30 21235 H 1921.53 4.7936 1.37896 0
M  V30 21236 H 1920.68 4.78131 3.73464 0
M  V30 21237 H 1919.42 3.59458 3.29607 0
M  V30 21238 H 1918.42 5.23576 1.67776 0
M  V30 21239 H 1919.65 6.4439 2.14334 0
M  V30 21240 H 1917.59 5.19397 4.00702 0
M  V30 21241 H 1917.51 6.78718 3.32983 0
M  V30 21242 H 1918.78 6.39761 4.45338 0
M  V30 21243 N 1923.01 -0.166818 1.56715 0
M  V30 21244 C 1924.26 -0.880972 1.81888 0
M  V30 21245 C 1924.58 -1.82586 0.68465 0
M  V30 21246 O 1923.85 -1.93663 -0.295173 0
M  V30 21247 H 1922.43 -0.32831 0.670985 0
M  V30 21248 H 1925.09 -0.165558 1.94196 0
M  V30 21249 H 1924.19 -1.45517 2.761 0
M  V30 21250 N 1924.49 -1.51463 -0.435524 0
M  V30 21251 C 1925.4 -1.75755 -1.55394 0
M  V30 21252 C 1926.41 -0.641853 -1.61729 0
M  V30 21253 O 1927.59 -0.924311 -1.78937 0
M  V30 21254 C 1924.65 -1.87908 -2.91361 0
M  V30 21255 C 1923.71 -3.11766 -2.95128 0
M  V30 21256 C 1922.95 -3.2333 -4.2461 0
M  V30 21257 O 1923.17 -2.40789 -5.17085 0
M  V30 21258 O 1922.1 -4.16319 -4.34698 0
M  V30 21259 H 1925.93 -2.70633 -1.3781 0
M  V30 21260 H 1923.52 -1.35986 -0.618717 0
M  V30 21261 H 1925.4 -1.97877 -3.72052 0
M  V30 21262 H 1924.07 -0.962179 -3.09069 0
M  V30 21263 H 1922.98 -3.07274 -2.13386 0
M  V30 21264 H 1924.31 -4.03151 -2.82365 0
M  V30 21265 N 1925.96 0.691085 -1.4164 0
M  V30 21266 C 1927.21 1.44828 -1.40959 0
M  V30 21267 C 1927.53 1.94988 -0.0211789 0
M  V30 21268 O 1926.8 1.71999 0.937714 0
M  V30 21269 H 1925.38 0.53739 -0.518865 0
M  V30 21270 H 1928.05 0.817677 -1.76918 0
M  V30 21271 H 1927.14 2.30926 -2.09952 0
M  V30 21272 N 1927.44 1.27542 0.925789 0
M  V30 21273 C 1928.35 1.1225 2.06002 0
M  V30 21274 C 1929.37 0.0520487 1.73922 0
M  V30 21275 O 1930.54 0.258921 1.99729 0
M  V30 21276 C 1927.61 0.773231 3.37967 0
M  V30 21277 C 1926.67 1.92476 3.83733 0
M  V30 21278 C 1925.9 1.59206 5.09401 0
M  V30 21279 O 1926.13 0.500836 5.68197 0
M  V30 21280 O 1925.06 2.43185 5.50586 0
M  V30 21281 H 1928.89 2.07439 2.21817 0
M  V30 21282 H 1926.47 1.06747 1.04525 0
M  V30 21283 H 1928.35 0.591863 4.17223 0
M  V30 21284 H 1927.03 -0.149116 3.23356 0
M  V30 21285 H 1925.94 2.1612 3.05357 0
M  V30 21286 H 1927.27 2.82738 4.02889 0
M  V30 21287 N 1928.92 -1.13255 1.09595 0
M  V30 21288 C 1930.17 -1.83925 0.827926 0
M  V30 21289 C 1930.48 -1.84531 -0.64866 0
M  V30 21290 O 1931.69 -2.5111 -1.03228 0
M  V30 21291 C 1930.14 -3.30219 1.43121 0
M  V30 21292 C 1929.75 -3.37996 2.94046 0
M  V30 21293 C 1931.5 -4.05918 1.24221 0
M  V30 21294 C 1929.4 -4.78572 3.47451 0
M  V30 21295 H 1928.33 -0.689091 0.306056 0
M  V30 21296 H 1930.98 -1.27586 1.31887 0
M  V30 21297 H 1929.37 -3.86371 0.867952 0
M  V30 21298 H 1930.54 -2.91829 3.56612 0
M  V30 21299 H 1928.86 -2.75762 3.12 0
M  V30 21300 H 1931.45 -5.09704 1.61573 0
M  V30 21301 H 1931.8 -4.15898 0.183004 0
M  V30 21302 H 1932.33 -3.561 1.77306 0
M  V30 21303 H 1929.07 -4.73785 4.52999 0
M  V30 21304 H 1928.59 -5.25227 2.89649 0
M  V30 21305 H 1930.27 -5.47495 3.44759 0
M  V30 21306 N 1930.4 -0.883401 -1.30514 0
M  V30 21307 C 1931.31 -0.352971 -2.31929 0
M  V30 21308 C 1932.32 0.543992 -1.65278 0
M  V30 21309 O 1933.5 0.437489 -1.96591 0
M  V30 21310 C 1930.57 0.425263 -3.44082 0
M  V30 21311 C 1929.63 -0.501265 -4.26363 0
M  V30 21312 C 1928.86 0.239923 -5.3316 0
M  V30 21313 O 1929.08 1.46622 -5.51233 0
M  V30 21314 O 1928.02 -0.409158 -6.00508 0
M  V30 21315 H 1931.84 -1.19393 -2.79247 0
M  V30 21316 H 1929.43 -0.647187 -1.34655 0
M  V30 21317 H 1931.31 0.865957 -4.12407 0
M  V30 21318 H 1929.98 1.24255 -2.98902 0
M  V30 21319 H 1928.89 -0.990738 -3.60743 0
M  V30 21320 H 1930.22 -1.28451 -4.75143 0
M  V30 21321 N 1931.88 1.43833 -0.644194 0
M  V30 21322 C 1932.82 2.30739 0.0528797 0
M  V30 21323 C 1933.79 1.44234 0.823751 0
M  V30 21324 O 1934.98 1.73118 0.802171 0
M  V30 21325 C 1932.12 3.29695 1.01956 0
M  V30 21326 C 1931.23 4.31301 0.245734 0
M  V30 21327 C 1930.37 5.17343 1.2054 0
M  V30 21328 C 1929.41 6.10647 0.421486 0
M  V30 21329 N 1928.54 6.89344 1.33228 0
M  V30 21330 H 1933.38 2.89803 -0.694123 0
M  V30 21331 H 1930.92 1.42775 -0.354069 0
M  V30 21332 H 1932.88 3.85568 1.59353 0
M  V30 21333 H 1931.51 2.72302 1.73354 0
M  V30 21334 H 1930.56 3.77795 -0.44438 0
M  V30 21335 H 1931.87 4.97468 -0.364231 0
M  V30 21336 H 1931.03 5.77797 1.85029 0
M  V30 21337 H 1929.76 4.51279 1.84928 0
M  V30 21338 H 1928.77 5.4929 -0.236816 0
M  V30 21339 H 1929.99 6.7875 -0.217862 0
M  V30 21340 H 1927.94 6.25937 1.96312 0
M  V30 21341 H 1927.86 7.52 0.776653 0
M  V30 21342 H 1929.13 7.54311 1.9656 0
M  V30 21343 N 1933.35 0.385544 1.52811 0
M  V30 21344 C 1934.28 -0.442951 2.2926 0
M  V30 21345 C 1935.27 -1.06674 1.32494 0
M  V30 21346 O 1936.45 -1.08022 1.61384 0
M  V30 21347 C 1933.58 -1.57243 3.09664 0
M  V30 21348 C 1932.53 -1.07488 4.14283 0
M  V30 21349 C 1931.86 -2.29614 4.82889 0
M  V30 21350 C 1933.16 -0.145479 5.22097 0
M  V30 21351 H 1934.85 0.1949 2.98765 0
M  V30 21352 H 1932.4 0.0951762 1.43685 0
M  V30 21353 H 1934.35 -2.15882 3.61902 0
M  V30 21354 H 1933.08 -2.23781 2.37885 0
M  V30 21355 H 1931.74 -0.511047 3.6302 0
M  V30 21356 H 1931.38 -2.94653 4.07662 0
M  V30 21357 H 1931.08 -1.96985 5.53598 0
M  V30 21358 H 1932.61 -2.88902 5.37929 0
M  V30 21359 H 1934.02 -0.639941 5.69717 0
M  V30 21360 H 1932.42 0.0908687 6.00031 0
M  V30 21361 H 1933.49 0.806707 4.78142 0
M  V30 21362 N 1934.83 -1.57178 0.115259 0
M  V30 21363 C 1935.76 -2.1218 -0.866728 0
M  V30 21364 C 1936.78 -1.06365 -1.23249 0
M  V30 21365 O 1937.97 -1.33749 -1.18209 0
M  V30 21366 C 1935.07 -2.60337 -2.16975 0
M  V30 21367 C 1934.24 -3.90209 -1.97625 0
M  V30 21368 C 1933.3 -4.24003 -3.11622 0
M  V30 21369 O 1932.32 -4.92884 -2.847 0
M  V30 21370 N 1933.53 -3.81022 -4.37953 0
M  V30 21371 H 1936.29 -2.97061 -0.396835 0
M  V30 21372 H 1933.85 -1.61752 -0.0692734 0
M  V30 21373 H 1935.84 -2.79976 -2.92225 0
M  V30 21374 H 1934.41 -1.80356 -2.55324 0
M  V30 21375 H 1933.63 -3.79516 -1.06589 0
M  V30 21376 H 1934.92 -4.75137 -1.81996 0
M  V30 21377 H 1934.32 -3.25459 -4.62702 0
M  V30 21378 H 1932.88 -4.05777 -5.10086 0
M  V30 21379 N 1936.31 0.158505 -1.56801 0
M  V30 21380 C 1937.54 0.888272 -1.86862 0
M  V30 21381 C 1937.95 1.75258 -0.702142 0
M  V30 21382 O 1937.31 1.7952 0.328431 0
M  V30 21383 C 1937.36 1.75448 -3.1607 0
M  V30 21384 O 1937.08 0.925019 -4.28223 0
M  V30 21385 C 1938.58 2.59282 -3.59566 0
M  V30 21386 H 1935.8 0.257429 -0.619654 0
M  V30 21387 H 1938.35 0.154749 -2.03914 0
M  V30 21388 H 1936.5 2.4412 -3.00806 0
M  V30 21389 H 1936.92 1.51863 -5.02034 0
M  V30 21390 H 1938.39 3.15655 -4.52842 0
M  V30 21391 H 1938.87 3.3477 -2.84299 0
M  V30 21392 H 1939.47 1.95921 -3.77485 0
M  V30 21393 N 1937.79 1.51692 0.427485 0
M  V30 21394 C 1938.74 1.73716 1.51958 0
M  V30 21395 C 1939.71 0.579073 1.55679 0
M  V30 21396 O 1940.89 0.814605 1.72536 0
M  V30 21397 C 1938.03 1.87709 2.89585 0
M  V30 21398 C 1937.14 3.15297 2.95317 0
M  V30 21399 C 1936.28 3.19827 4.24128 0
M  V30 21400 C 1935.32 4.4169 4.23764 0
M  V30 21401 N 1934.46 4.43715 5.44116 0
M  V30 21402 H 1939.3 2.66933 1.3248 0
M  V30 21403 H 1936.83 1.32283 0.643393 0
M  V30 21404 H 1938.79 1.93804 3.69454 0
M  V30 21405 H 1937.42 0.978912 3.07599 0
M  V30 21406 H 1936.47 3.18464 2.08051 0
M  V30 21407 H 1937.78 4.05182 2.90911 0
M  V30 21408 H 1936.94 3.24892 5.12377 0
M  V30 21409 H 1935.68 2.27848 4.31204 0
M  V30 21410 H 1934.68 4.36791 3.33907 0
M  V30 21411 H 1935.91 5.34944 4.18343 0
M  V30 21412 H 1933.85 3.5461 5.51894 0
M  V30 21413 H 1933.77 5.27421 5.4163 0
M  V30 21414 H 1935.04 4.52986 6.34369 0
M  V30 21415 N 1939.27 -0.683564 1.42004 0
M  V30 21416 C 1940.51 -1.44577 1.42216 0
M  V30 21417 C 1940.85 -1.94168 0.0352735 0
M  V30 21418 O 1940.12 -1.70331 -0.939023 0
M  V30 21419 C 1940.4 -2.64909 2.43916 0
M  V30 21420 C 1940.26 -2.21006 3.9176 0
M  V30 21421 C 1941.58 -3.6712 2.42716 0
M  V30 21422 H 1938.7 -0.524376 0.517879 0
M  V30 21423 H 1941.34 -0.777575 1.7336 0
M  V30 21424 H 1939.49 -3.21918 2.17489 0
M  V30 21425 H 1941.16 -1.69233 4.29136 0
M  V30 21426 H 1939.4 -1.52667 4.06048 0
M  V30 21427 H 1940.07 -3.07401 4.58485 0
M  V30 21428 H 1942.55 -3.1981 2.66197 0
M  V30 21429 H 1941.43 -4.48907 3.15869 0
M  V30 21430 H 1941.69 -4.17645 1.45 0
M  V30 21431 N 1940.75 -1.28031 -0.919012 0
M  V30 21432 C 1941.68 -1.14034 -2.03761 0
M  V30 21433 C 1942.66 -0.039495 -1.70054 0
M  V30 21434 O 1943.84 -0.215546 -1.93 0
M  V30 21435 C 1940.97 -0.795894 -3.38057 0
M  V30 21436 C 1939.93 -1.85093 -3.85907 0
M  V30 21437 C 1939.25 -1.36024 -5.17109 0
M  V30 21438 C 1940.55 -3.25658 -4.08343 0
M  V30 21439 H 1942.25 -2.07609 -2.15729 0
M  V30 21440 H 1939.79 -0.999558 -1.03657 0
M  V30 21441 H 1941.74 -0.684762 -4.15799 0
M  V30 21442 H 1940.47 0.175558 -3.26128 0
M  V30 21443 H 1939.13 -1.95112 -3.10366 0
M  V30 21444 H 1938.78 -0.378004 -5.01578 0
M  V30 21445 H 1938.48 -2.06568 -5.50094 0
M  V30 21446 H 1940 -1.26223 -5.97411 0
M  V30 21447 H 1941.41 -3.1859 -4.76627 0
M  V30 21448 H 1939.81 -3.93989 -4.52651 0
M  V30 21449 H 1940.88 -3.70066 -3.13335 0
M  V30 21450 N 1942.22 1.12672 -1.10194 0
M  V30 21451 C 1943.13 2.2192 -0.76082 0
M  V30 21452 C 1944.15 1.72328 0.240604 0
M  V30 21453 O 1945.33 2.01241 0.0799808 0
M  V30 21454 C 1942.39 3.46151 -0.19501 0
M  V30 21455 C 1941.45 4.10595 -1.25339 0
M  V30 21456 C 1940.68 5.28896 -0.714485 0
M  V30 21457 O 1940.91 5.68543 0.459943 0
M  V30 21458 O 1939.84 5.83592 -1.47324 0
M  V30 21459 H 1943.67 2.53487 -1.67266 0
M  V30 21460 H 1941.25 1.20959 -0.876892 0
M  V30 21461 H 1943.13 4.21238 0.116809 0
M  V30 21462 H 1941.81 3.16266 0.689729 0
M  V30 21463 H 1940.72 3.37299 -1.61803 0
M  V30 21464 H 1942.05 4.44629 -2.11106 0
M  V30 21465 N 1943.7 0.89031 1.30043 0
M  V30 21466 C 1944.63 0.377386 2.3043 0
M  V30 21467 C 1945.61 -0.542607 1.61213 0
M  V30 21468 O 1946.8 -0.455328 1.88787 0
M  V30 21469 C 1943.93 -0.404264 3.44939 0
M  V30 21470 C 1942.88 0.424448 4.2589 0
M  V30 21471 C 1942.21 -0.48413 5.32504 0
M  V30 21472 C 1943.51 1.6694 4.94902 0
M  V30 21473 H 1945.2 1.21628 2.73582 0
M  V30 21474 H 1942.75 0.586299 1.31524 0
M  V30 21475 H 1944.7 -0.773769 4.14235 0
M  V30 21476 H 1943.42 -1.27685 3.00606 0
M  V30 21477 H 1942.08 0.776162 3.58289 0
M  V30 21478 H 1941.73 -1.35458 4.84417 0
M  V30 21479 H 1941.43 0.0665939 5.87562 0
M  V30 21480 H 1942.96 -0.850034 6.04654 0
M  V30 21481 H 1944.37 1.37017 5.56686 0
M  V30 21482 H 1942.77 2.16073 5.59851 0
M  V30 21483 H 1943.84 2.41077 4.20725 0
M  V30 21484 N 1945.18 -1.43489 0.651812 0
M  V30 21485 C 1946.11 -2.29063 -0.0793108 0
M  V30 21486 C 1947.12 -1.4243 -0.788508 0
M  V30 21487 O 1948.31 -1.66381 -0.646499 0
M  V30 21488 C 1945.41 -3.19317 -1.13533 0
M  V30 21489 C 1944.59 -4.3448 -0.504553 0
M  V30 21490 C 1943.65 -5.05619 -1.45727 0
M  V30 21491 O 1942.67 -5.60936 -0.966409 0
M  V30 21492 N 1943.87 -5.08988 -2.79126 0
M  V30 21493 H 1946.64 -2.92451 0.655174 0
M  V30 21494 H 1944.2 -1.54164 0.494491 0
M  V30 21495 H 1946.19 -3.63773 -1.77345 0
M  V30 21496 H 1944.76 -2.57538 -1.7718 0
M  V30 21497 H 1943.98 -3.92958 0.312626 0
M  V30 21498 H 1945.27 -5.0876 -0.0641591 0
M  V30 21499 H 1944.67 -4.65415 -3.21567 0
M  V30 21500 H 1943.22 -5.57166 -3.38245 0
M  V30 21501 N 1946.66 -0.393643 -1.52605 0
M  V30 21502 C 1948.07 -0.0437985 -1.5954 0
M  V30 21503 C 1948.27 1.44203 -1.4074 0
M  V30 21504 O 1947.33 2.20707 -1.22657 0
M  V30 21505 C 1948.64 -0.524864 -2.96084 0
M  V30 21506 C 1950.19 -0.481497 -3.09274 0
M  V30 21507 C 1950.67 -0.938821 -4.48275 0
M  V30 21508 N 1952.16 -0.895009 -4.54471 0
M  V30 21509 C 1952.89 -1.22023 -5.60266 0
M  V30 21510 N 1952.39 -1.61614 -6.73686 0
M  V30 21511 N 1954.18 -1.1412 -5.50393 0
M  V30 21512 H 1946.33 -1.36091 -1.63074 0
M  V30 21513 H 1948.59 -0.558085 -0.766319 0
M  V30 21514 H 1948.3 -1.56277 -3.15072 0
M  V30 21515 H 1948.17 0.0737526 -3.77128 0
M  V30 21516 H 1950.56 0.547333 -2.8998 0
M  V30 21517 H 1950.64 -1.11597 -2.30173 0
M  V30 21518 H 1950.29 -1.9659 -4.6831 0
M  V30 21519 H 1950.22 -0.281313 -5.25848 0
M  V30 21520 H 1952.71 -0.603728 -3.73046 0
M  V30 21521 H 1953.02 -1.84782 -7.50384 0
M  V30 21522 H 1951.37 -1.65504 -6.75006 0
M  V30 21523 H 1954.56 -0.83088 -4.60667 0
M  V30 21524 H 1954.73 -1.39797 -6.32741 0
M  V30 21525 N 1948.14 1.57115 -0.123593 0
M  V30 21526 C 1949.08 2.15555 0.824912 0
M  V30 21527 C 1950.05 1.08181 1.2604 0
M  V30 21528 O 1951.24 1.36111 1.3371 0
M  V30 21529 C 1948.38 2.76288 2.06783 0
M  V30 21530 C 1947.49 3.97983 1.68029 0
M  V30 21531 C 1946.63 4.46788 2.87322 0
M  V30 21532 C 1945.66 5.61004 2.44829 0
M  V30 21533 N 1944.8 6.04532 3.57052 0
M  V30 21534 H 1949.64 2.9628 0.319726 0
M  V30 21535 H 1947.18 1.46372 0.14612 0
M  V30 21536 H 1949.14 3.09632 2.79613 0
M  V30 21537 H 1947.77 1.98245 2.54752 0
M  V30 21538 H 1946.82 3.70769 0.850542 0
M  V30 21539 H 1948.13 4.80796 1.32804 0
M  V30 21540 H 1947.28 4.82066 3.68372 0
M  V30 21541 H 1946.02 3.62934 3.25776 0
M  V30 21542 H 1945.03 5.25326 1.62213 0
M  V30 21543 H 1946.25 6.46627 2.07487 0
M  V30 21544 H 1944.2 5.23618 3.95171 0
M  V30 21545 H 1944.12 6.82212 3.25766 0
M  V30 21546 H 1945.38 6.44449 4.38527 0
M  V30 21547 N 1949.61 -0.150187 1.56883 0
M  V30 21548 C 1950.54 -1.18735 2.01058 0
M  V30 21549 C 1951.52 -1.44983 0.889606 0
M  V30 21550 O 1952.71 -1.55958 1.15719 0
M  V30 21551 C 1949.84 -2.52129 2.38848 0
M  V30 21552 C 1948.79 -2.40408 3.54101 0
M  V30 21553 C 1948.12 -3.78484 3.77695 0
M  V30 21554 C 1949.42 -1.89087 4.86871 0
M  V30 21555 H 1951.11 -0.820044 2.87951 0
M  V30 21556 H 1948.66 -0.393025 1.38533 0
M  V30 21557 H 1950.61 -3.24908 2.68352 0
M  V30 21558 H 1949.34 -2.90688 1.48889 0
M  V30 21559 H 1948 -1.70082 3.24758 0
M  V30 21560 H 1947.64 -4.14474 2.84992 0
M  V30 21561 H 1947.34 -3.71504 4.55256 0
M  V30 21562 H 1948.87 -4.52816 4.09621 0
M  V30 21563 H 1950.28 -2.51656 5.15114 0
M  V30 21564 H 1948.68 -1.93005 5.68216 0
M  V30 21565 H 1949.75 -0.846357 4.77457 0
M  V30 21566 N 1951.09 -1.51916 -0.419434 0
M  V30 21567 C 1952.37 -1.56023 -1.17967 0
M  V30 21568 C 1952.75 -0.335094 -2.08423 0
M  V30 21569 O 1952.1 0.678731 -2.18187 0
M  V30 21570 C 1952.31 -2.8836 -1.96595 0
M  V30 21571 C 1953.66 -3.40979 -2.53019 0
M  V30 21572 O 1954.68 -2.90031 -2.06786 0
M  V30 21573 O 1953.54 -4.2992 -3.37388 0
M  V30 21574 H 1950.63 -0.628035 -0.538053 0
M  V30 21575 H 1953.18 -1.64239 -0.42705 0
M  V30 21576 H 1951.95 -3.6898 -1.30267 0
M  V30 21577 H 1951.57 -2.83389 -2.78884 0
M  V30 21578 N 1952.57 0.676023 -1.42365 0
M  V30 21579 C 1953.52 1.81087 -1.4598 0
M  V30 21580 C 1954.51 1.66041 -0.335662 0
M  V30 21581 O 1955.72 1.72665 -0.508618 0
M  V30 21582 H 1952.09 0.597073 -0.457173 0
M  V30 21583 H 1954.06 1.75156 -2.41584 0
M  V30 21584 C 1952.81 3.19233 -1.37789 0
M  V30 21585 H 1952.14 3.31437 -2.23584 0
M  V30 21586 H 1953.58 3.98661 -1.4438 0
M  V30 21587 C 1952.04 3.36773 -0.0925272 0
M  V30 21588 O 1952.57 3.92491 0.855181 0
M  V30 21589 N 1950.77 2.90598 -0.0100772 0
M  V30 21590 H 1950.32 2.45441 -0.782071 0
M  V30 21591 H 1950.28 3.02711 0.849301 0
M  V30 21592 N 1954.05 1.28517 0.912209 0
M  V30 21593 C 1955.28 1.18615 1.69523 0
M  V30 21594 C 1955.69 -0.254997 1.8707 0
M  V30 21595 O 1955.05 -1.17217 1.3988 0
M  V30 21596 C 1955.1 1.88188 3.08655 0
M  V30 21597 O 1954.82 3.26673 2.91918 0
M  V30 21598 C 1956.32 1.84607 4.03032 0
M  V30 21599 H 1953.54 0.411679 0.529869 0
M  V30 21600 H 1956.09 1.69668 1.14162 0
M  V30 21601 H 1954.24 1.41001 3.60829 0
M  V30 21602 H 1954.65 3.61538 3.79987 0
M  V30 21603 H 1956.13 2.37874 4.98116 0
M  V30 21604 H 1956.61 0.818787 4.315 0
M  V30 21605 H 1957.21 2.3148 3.56787 0
M  V30 21606 N 1955.53 -1.12086 1.1079 0
M  V30 21607 C 1956.75 -1.87493 0.874862 0
M  V30 21608 C 1957.17 -1.79834 -0.574907 0
M  V30 21609 O 1956.53 -1.17483 -1.39657 0
M  V30 21610 C 1956.58 -3.36566 1.3193 0
M  V30 21611 O 1956.3 -3.4405 2.71222 0
M  V30 21612 C 1957.8 -4.289 1.12069 0
M  V30 21613 H 1955.02 -0.593122 0.313764 0
M  V30 21614 H 1957.56 -1.41803 1.4735 0
M  V30 21615 H 1955.72 -3.79787 0.764254 0
M  V30 21616 H 1956.13 -4.36824 2.90319 0
M  V30 21617 H 1957.61 -5.31768 1.48076 0
M  V30 21618 H 1958.08 -4.3916 0.0596432 0
M  V30 21619 H 1958.69 -3.91465 1.66238 0
M  V30 21620 N 1957 -0.897194 -1.29569 0
M  V30 21621 C 1957.97 -0.377906 -2.26063 0
M  V30 21622 C 1958.97 0.486495 -1.53264 0
M  V30 21623 O 1960.16 0.291905 -1.71737 0
M  V30 21624 C 1957.29 0.460046 -3.37782 0
M  V30 21625 H 1958.48 -1.23009 -2.73512 0
M  V30 21626 H 1956.04 -0.675114 -1.40968 0
M  V30 21627 H 1956.77 1.33232 -2.95668 0
M  V30 21628 H 1956.56 -0.159293 -3.91776 0
M  V30 21629 H 1958.05 0.814753 -4.09575 0
M  V30 21630 N 1958.48 1.43142 -0.659413 0
M  V30 21631 C 1959.45 2.29192 0.0190393 0
M  V30 21632 C 1960.45 1.42532 0.744404 0
M  V30 21633 O 1961.64 1.64093 0.584722 0
M  V30 21634 C 1958.77 3.24723 1.03769 0
M  V30 21635 H 1959.96 2.90674 -0.738166 0
M  V30 21636 H 1957.51 1.50525 -0.420956 0
M  V30 21637 H 1958.25 2.68149 1.82392 0
M  V30 21638 H 1958.03 3.88621 0.52115 0
M  V30 21639 H 1959.52 3.89294 1.5113 0
M  V30 21640 N 1959.96 0.40173 1.52394 0
M  V30 21641 C 1961.21 -0.17672 2.02029 0
M  V30 21642 C 1961.54 -1.45417 1.28715 0
M  V30 21643 O 1960.81 -1.90524 0.391263 0
M  V30 21644 C 1961.1 -0.43198 3.575 0
M  V30 21645 C 1960.95 0.861628 4.4147 0
M  V30 21646 C 1962.27 -1.2173 4.2293 0
M  V30 21647 H 1959.39 -0.0627536 0.734323 0
M  V30 21648 H 1962.03 0.533742 1.82349 0
M  V30 21649 H 1960.18 -1.03719 3.74399 0
M  V30 21650 H 1961.85 1.49808 4.36297 0
M  V30 21651 H 1960.1 1.47424 4.07981 0
M  V30 21652 H 1960.77 0.637511 5.48306 0
M  V30 21653 H 1963.24 -0.704996 4.10084 0
M  V30 21654 H 1962.12 -1.36465 5.31666 0
M  V30 21655 H 1962.38 -2.23592 3.81391 0
M  V30 21656 N 1961.44 -1.57047 0.131923 0
M  V30 21657 C 1962.37 -2.13088 -0.844174 0
M  V30 21658 C 1963.38 -1.07666 -1.22114 0
M  V30 21659 O 1964.57 -1.34995 -1.16784 0
M  V30 21660 C 1961.67 -2.62623 -2.14201 0
M  V30 21661 C 1960.85 -3.92283 -1.93475 0
M  V30 21662 C 1959.9 -4.27284 -3.07107 0
M  V30 21663 O 1958.93 -4.95876 -2.79456 0
M  V30 21664 N 1960.13 -3.85646 -4.33887 0
M  V30 21665 H 1962.9 -2.97465 -0.365306 0
M  V30 21666 H 1960.46 -1.61816 -0.0521136 0
M  V30 21667 H 1962.45 -2.8306 -2.89239 0
M  V30 21668 H 1961.02 -1.83054 -2.53397 0
M  V30 21669 H 1960.24 -3.80625 -1.02558 0
M  V30 21670 H 1961.53 -4.7704 -1.76947 0
M  V30 21671 H 1960.93 -3.30348 -4.59224 0
M  V30 21672 H 1959.48 -4.11165 -5.05754 0
M  V30 21673 N 1962.92 0.141865 -1.5696 0
M  V30 21674 C 1963.83 1.19435 -2.01922 0
M  V30 21675 C 1964.84 1.4671 -0.935527 0
M  V30 21676 O 1966.02 1.58279 -1.24538 0
M  V30 21677 C 1963.08 2.50665 -2.39516 0
M  V30 21678 C 1962.14 2.30991 -3.61859 0
M  V30 21679 C 1961.38 3.55963 -3.9765 0
M  V30 21680 O 1961.6 4.62354 -3.34044 0
M  V30 21681 O 1960.53 3.48322 -4.90872 0
M  V30 21682 H 1964.36 0.842613 -2.91777 0
M  V30 21683 H 1961.95 0.350973 -1.45219 0
M  V30 21684 H 1963.83 3.28024 -2.64534 0
M  V30 21685 H 1962.5 2.85358 -1.52815 0
M  V30 21686 H 1961.41 1.51565 -3.42022 0
M  V30 21687 H 1962.74 2.01211 -4.49194 0
M  V30 21688 N 1964.39 1.52136 0.411372 0
M  V30 21689 C 1965.32 1.78277 1.50796 0
M  V30 21690 C 1966.31 0.633643 1.57857 0
M  V30 21691 O 1967.49 0.879011 1.73168 0
M  V30 21692 C 1964.62 1.93142 2.88641 0
M  V30 21693 C 1963.57 3.08727 2.96431 0
M  V30 21694 C 1962.9 3.08812 4.36508 0
M  V30 21695 C 1964.2 4.48228 2.68122 0
M  V30 21696 H 1965.89 2.70102 1.29171 0
M  V30 21697 H 1963.44 1.29971 0.619965 0
M  V30 21698 H 1965.39 2.10012 3.65339 0
M  V30 21699 H 1964.12 0.979869 3.11554 0
M  V30 21700 H 1962.78 2.91604 2.22177 0
M  V30 21701 H 1962.42 2.11383 4.56428 0
M  V30 21702 H 1962.12 3.86444 4.42645 0
M  V30 21703 H 1963.65 3.27809 5.15144 0
M  V30 21704 H 1965.06 4.65568 3.34544 0
M  V30 21705 H 1963.46 5.27761 2.85638 0
M  V30 21706 H 1964.53 4.56478 1.63572 0
M  V30 21707 N 1965.87 -0.668464 1.42721 0
M  V30 21708 C 1967.12 -1.42567 1.43245 0
M  V30 21709 C 1967.44 -1.9493 0.0521972 0
M  V30 21710 O 1966.71 -1.73469 -0.910231 0
M  V30 21711 H 1965.29 -0.529068 0.527349 0
M  V30 21712 H 1967.95 -0.789428 1.78197 0
M  V30 21713 H 1967.05 -2.27556 2.13599 0
M  V30 21714 N 1967.35 -1.28999 -0.905381 0
M  V30 21715 C 1968.77 -1.06887 -1.18522 0
M  V30 21716 C 1968.97 0.183459 -2.00663 0
M  V30 21717 O 1968.02 0.882808 -2.36564 0
M  V30 21718 C 1969.34 -2.32111 -1.91168 0
M  V30 21719 C 1970.88 -2.37374 -2.04017 0
M  V30 21720 C 1971.36 -3.62386 -2.80072 0
M  V30 21721 N 1972.85 -3.63075 -2.87629 0
M  V30 21722 C 1973.59 -4.56485 -3.47 0
M  V30 21723 N 1973.08 -5.60222 -4.07582 0
M  V30 21724 N 1974.87 -4.44065 -3.44619 0
M  V30 21725 H 1967.03 -2.09375 -0.357185 0
M  V30 21726 H 1969.29 -0.92195 -0.220707 0
M  V30 21727 H 1968.99 -3.23391 -1.38243 0
M  V30 21728 H 1968.87 -2.39178 -2.91674 0
M  V30 21729 H 1971.26 -1.46585 -2.56119 0
M  V30 21730 H 1971.34 -2.34296 -1.0266 0
M  V30 21731 H 1970.98 -4.53523 -2.28647 0
M  V30 21732 H 1970.91 -3.6272 -3.81761 0
M  V30 21733 H 1973.4 -2.88065 -2.44595 0
M  V30 21734 H 1973.71 -6.27629 -4.50889 0
M  V30 21735 H 1972.06 -5.64038 -4.06061 0
M  V30 21736 H 1975.25 -3.62218 -2.96505 0
M  V30 21737 H 1975.42 -5.17049 -3.90595 0
M  V30 21738 N 1968.83 1.11497 -1.11383 0
M  V30 21739 C 1969.74 2.21101 -0.784315 0
M  V30 21740 C 1970.76 1.72574 0.222313 0
M  V30 21741 O 1971.93 2.01315 0.058632 0
M  V30 21742 C 1969 3.45925 -0.231713 0
M  V30 21743 C 1968.06 4.09243 -1.29687 0
M  V30 21744 C 1967.29 5.28108 -0.770542 0
M  V30 21745 O 1967.51 5.68998 0.399616 0
M  V30 21746 O 1966.45 5.81996 -1.53505 0
M  V30 21747 H 1970.27 2.51699 -1.69946 0
M  V30 21748 H 1967.86 1.20022 -0.889672 0
M  V30 21749 H 1969.74 4.21338 0.0721248 0
M  V30 21750 H 1968.42 3.1698 0.656146 0
M  V30 21751 H 1967.32 3.35564 -1.65371 0
M  V30 21752 H 1968.66 4.42365 -2.1581 0
M  V30 21753 N 1970.31 0.904053 1.29092 0
M  V30 21754 C 1971.26 0.375028 2.29557 0
M  V30 21755 C 1972.25 -0.528146 1.60956 0
M  V30 21756 O 1973.46 -0.410465 1.75257 0
M  V30 21757 H 1969.83 0.102657 0.74496 0
M  V30 21758 H 1971.8 1.23564 2.71615 0
M  V30 21759 C 1970.55 -0.37845 3.45634 0
M  V30 21760 H 1969.87 0.307303 3.98617 0
M  V30 21761 H 1971.31 -0.713405 4.17955 0
M  V30 21762 C 1969.77 -1.58274 2.97407 0
M  V30 21763 O 1970.3 -2.68199 2.99052 0
M  V30 21764 N 1968.51 -1.4264 2.53184 0
M  V30 21765 H 1968.06 -0.532104 2.52044 0
M  V30 21766 H 1968.01 -2.23348 2.21276 0
M  V30 21767 N 1971.79 -1.4279 0.666995 0
M  V30 21768 C 1972.72 -2.29134 -0.0550112 0
M  V30 21769 C 1973.73 -1.43259 -0.773357 0
M  V30 21770 O 1974.92 -1.67057 -0.628816 0
M  V30 21771 C 1972.02 -3.20503 -1.1014 0
M  V30 21772 C 1971.19 -4.34991 -0.458443 0
M  V30 21773 C 1970.25 -5.07136 -1.40356 0
M  V30 21774 O 1969.28 -5.61929 -0.90686 0
M  V30 21775 N 1970.48 -5.1192 -2.73712 0
M  V30 21776 H 1973.24 -2.9174 0.686156 0
M  V30 21777 H 1970.81 -1.5363 0.510814 0
M  V30 21778 H 1972.8 -3.65634 -1.73477 0
M  V30 21779 H 1971.37 -2.59403 -1.74439 0
M  V30 21780 H 1970.59 -3.92605 0.354287 0
M  V30 21781 H 1971.88 -5.08799 -0.0101948 0
M  V30 21782 H 1971.27 -4.68799 -3.16613 0
M  V30 21783 H 1969.83 -5.60722 -3.32316 0
M  V30 21784 N 1973.26 -0.409806 -1.52179 0
M  V30 21785 C 1974.49 0.167702 -2.06721 0
M  V30 21786 C 1974.91 1.38034 -1.27782 0
M  V30 21787 O 1974.27 1.7866 -0.308244 0
M  V30 21788 C 1974.32 0.495862 -3.57174 0
M  V30 21789 O 1973.42 1.58675 -3.80652 0
M  V30 21790 H 1972.76 0.013908 -0.663854 0
M  V30 21791 H 1975.29 -0.583201 -1.96112 0
M  V30 21792 H 1975.3 0.754301 -4.00967 0
M  V30 21793 H 1973.98 -0.390588 -4.14062 0
M  V30 21794 H 1972.56 1.32042 -3.48739 0
M  V30 21795 N 1974.74 1.56975 -0.14025 0
M  V30 21796 C 1975.67 2.19432 0.798233 0
M  V30 21797 C 1976.65 1.14055 1.26196 0
M  V30 21798 O 1977.84 1.42373 1.32074 0
M  V30 21799 C 1974.97 2.81059 2.04018 0
M  V30 21800 C 1973.92 3.92204 1.71347 0
M  V30 21801 C 1973.25 4.40735 3.02748 0
M  V30 21802 C 1974.55 5.13302 0.965327 0
M  V30 21803 H 1976.24 2.98109 0.277716 0
M  V30 21804 H 1973.79 1.43392 0.132137 0
M  V30 21805 H 1975.74 3.23417 2.70147 0
M  V30 21806 H 1974.46 1.99703 2.5843 0
M  V30 21807 H 1973.12 3.50454 1.07599 0
M  V30 21808 H 1972.77 3.5621 3.55138 0
M  V30 21809 H 1972.47 5.15698 2.81654 0
M  V30 21810 H 1974 4.85759 3.6996 0
M  V30 21811 H 1975.41 5.52547 1.52857 0
M  V30 21812 H 1973.81 5.93984 0.854574 0
M  V30 21813 H 1974.88 4.8488 -0.0441688 0
M  V30 21814 N 1976.22 -0.133539 1.57033 0
M  V30 21815 C 1977.15 -1.18985 1.95896 0
M  V30 21816 C 1978.16 -1.38453 0.856426 0
M  V30 21817 O 1979.35 -1.37785 1.13479 0
M  V30 21818 C 1976.45 -2.55242 2.22946 0
M  V30 21819 C 1975.63 -2.56572 3.54245 0
M  V30 21820 C 1974.69 -3.74467 3.69677 0
M  V30 21821 O 1973.71 -3.5872 4.41937 0
M  V30 21822 N 1974.91 -4.92459 3.0735 0
M  V30 21823 H 1977.68 -0.859396 2.87114 0
M  V30 21824 H 1975.24 -0.32297 1.58646 0
M  V30 21825 H 1977.23 -3.32645 2.30498 0
M  V30 21826 H 1975.8 -2.80526 1.37926 0
M  V30 21827 H 1975.02 -1.64988 3.58012 0
M  V30 21828 H 1976.31 -2.54504 4.40574 0
M  V30 21829 H 1975.71 -5.08156 2.48584 0
M  V30 21830 H 1974.26 -5.6759 3.20445 0
M  V30 21831 N 1977.7 -1.52352 -0.403298 0
M  V30 21832 C 1978.95 -1.65924 -1.14683 0
M  V30 21833 C 1979.26 -0.398212 -1.91504 0
M  V30 21834 O 1980.47 -0.413824 -2.68328 0
M  V30 21835 C 1978.92 -2.9317 -2.08757 0
M  V30 21836 C 1978.53 -4.26402 -1.37425 0
M  V30 21837 C 1980.27 -3.16106 -2.83332 0
M  V30 21838 C 1978.18 -5.44766 -2.30181 0
M  V30 21839 H 1977.11 -0.61811 -0.431805 0
M  V30 21840 H 1979.76 -1.78843 -0.410792 0
M  V30 21841 H 1978.14 -2.73964 -2.85937 0
M  V30 21842 H 1979.32 -4.56111 -0.65569 0
M  V30 21843 H 1977.63 -4.09614 -0.748668 0
M  V30 21844 H 1980.23 -4.01716 -3.52886 0
M  V30 21845 H 1980.57 -2.30581 -3.4661 0
M  V30 21846 H 1981.11 -3.35811 -2.1325 0
M  V30 21847 H 1977.84 -6.32656 -1.71541 0
M  V30 21848 H 1977.36 -5.19388 -2.99993 0
M  V30 21849 H 1979.04 -5.78077 -2.9058 0
M  V30 21850 N 1979.18 0.660885 -1.43074 0
M  V30 21851 C 1980.12 1.77404 -1.47637 0
M  V30 21852 C 1981.09 1.62852 -0.326854 0
M  V30 21853 O 1982.28 1.83206 -0.532921 0
M  V30 21854 C 1979.42 3.15517 -1.39796 0
M  V30 21855 C 1978.53 3.41257 -2.64892 0
M  V30 21856 C 1977.67 4.69176 -2.49093 0
M  V30 21857 C 1976.7 4.87995 -3.69496 0
M  V30 21858 N 1975.84 6.07166 -3.52554 0
M  V30 21859 H 1980.68 1.72838 -2.42757 0
M  V30 21860 H 1978.22 0.843558 -1.20509 0
M  V30 21861 H 1980.18 3.9535 -1.33245 0
M  V30 21862 H 1978.81 3.19172 -0.482623 0
M  V30 21863 H 1977.86 2.55577 -2.81753 0
M  V30 21864 H 1979.17 3.51052 -3.5435 0
M  V30 21865 H 1978.32 5.57122 -2.40207 0
M  V30 21866 H 1977.06 4.61688 -1.57147 0
M  V30 21867 H 1976.07 3.98487 -3.78799 0
M  V30 21868 H 1977.29 4.97318 -4.62441 0
M  V30 21869 H 1975.24 6.00825 -2.63336 0
M  V30 21870 H 1975.16 6.17884 -4.35609 0
M  V30 21871 H 1976.42 6.97754 -3.47506 0
M  V30 21872 N 1980.65 1.29477 0.898527 0
M  V30 21873 C 1981.6 1.1133 1.98971 0
M  V30 21874 C 1982.59 0.0323879 1.60867 0
M  V30 21875 O 1983.78 0.254229 1.75165 0
M  V30 21876 C 1980.91 0.793107 3.34013 0
M  V30 21877 C 1980 1.91362 3.78473 0
M  V30 21878 N 1980.39 3.1573 3.95156 0
M  V30 21879 C 1978.68 1.80692 4.07758 0
M  V30 21880 C 1979.39 3.88841 4.3264 0
M  V30 21881 N 1978.36 3.16793 4.4175 0
M  V30 21882 H 1982.16 2.05674 2.09941 0
M  V30 21883 H 1979.68 1.20619 1.08743 0
M  V30 21884 H 1981.67 0.644149 4.11894 0
M  V30 21885 H 1980.33 -0.142398 3.24388 0
M  V30 21886 H 1981.35 3.51171 3.80656 0
M  V30 21887 H 1978.02 0.944205 4.06683 0
M  V30 21888 H 1979.41 4.95875 4.53384 0
M  V30 21889 N 1982.13 -1.10905 1.11972 0
M  V30 21890 C 1983.36 -1.86555 0.894699 0
M  V30 21891 C 1983.78 -1.80434 -0.555801 0
M  V30 21892 O 1983.13 -1.18957 -1.38403 0
M  V30 21893 C 1983.18 -3.35148 1.35492 0
M  V30 21894 O 1982.9 -3.41154 2.74856 0
M  V30 21895 C 1984.41 -4.27687 1.16612 0
M  V30 21896 H 1981.63 -0.589761 0.320037 0
M  V30 21897 H 1984.17 -1.40232 1.48846 0
M  V30 21898 H 1982.32 -3.78955 0.804493 0
M  V30 21899 H 1982.74 -4.3372 2.94936 0
M  V30 21900 H 1984.21 -5.30168 1.53708 0
M  V30 21901 H 1984.69 -4.39072 0.106219 0
M  V30 21902 H 1985.3 -3.8968 1.70381 0
M  V30 21903 N 1983.61 -0.910886 -1.2861 0
M  V30 21904 C 1984.54 -0.35439 -2.26444 0
M  V30 21905 C 1985.56 0.505552 -1.54751 0
M  V30 21906 O 1986.74 0.320897 -1.75592 0
M  V30 21907 C 1983.84 0.512332 -3.35005 0
M  V30 21908 C 1983.02 -0.324442 -4.36195 0
M  V30 21909 C 1982.08 0.476907 -5.24034 0
M  V30 21910 O 1981.1 -0.109526 -5.69095 0
M  V30 21911 N 1982.3 1.78057 -5.52518 0
M  V30 21912 H 1985.07 -1.1953 -2.74832 0
M  V30 21913 H 1982.63 -0.776536 -1.42062 0
M  V30 21914 H 1984.62 1.05509 -3.90704 0
M  V30 21915 H 1983.19 1.25395 -2.86347 0
M  V30 21916 H 1982.41 -1.04858 -3.79998 0
M  V30 21917 H 1983.7 -0.897099 -5.00829 0
M  V30 21918 H 1983.1 2.27959 -5.17737 0
M  V30 21919 H 1981.66 2.27022 -6.10986 0
M  V30 21920 N 1985.09 1.42434 -0.674558 0
M  V30 21921 C 1986.05 2.29199 -0.00527063 0
M  V30 21922 C 1987.05 1.43313 0.729245 0
M  V30 21923 O 1988.24 1.64704 0.567284 0
M  V30 21924 C 1985.37 3.25805 1.0032 0
M  V30 21925 H 1986.57 2.89874 -0.768954 0
M  V30 21926 H 1984.12 1.5007 -0.436898 0
M  V30 21927 H 1984.85 2.70068 1.79538 0
M  V30 21928 H 1984.64 3.89152 0.479902 0
M  V30 21929 H 1986.13 3.90875 1.46993 0
M  V30 21930 N 1986.57 0.417871 1.51959 0
M  V30 21931 C 1987.5 -0.394222 2.30148 0
M  V30 21932 C 1988.48 -1.0384 1.34727 0
M  V30 21933 O 1989.66 -1.04575 1.63639 0
M  V30 21934 C 1986.79 -1.50639 3.1293 0
M  V30 21935 C 1985.75 -0.986759 4.1647 0
M  V30 21936 C 1985.07 -2.1932 4.8765 0
M  V30 21937 C 1986.37 -0.0347019 5.22288 0
M  V30 21938 H 1988.07 0.258228 2.98284 0
M  V30 21939 H 1985.61 0.125633 1.43451 0
M  V30 21940 H 1987.57 -2.08157 3.664 0
M  V30 21941 H 1986.29 -2.18685 2.42579 0
M  V30 21942 H 1984.95 -0.43393 3.64023 0
M  V30 21943 H 1984.6 -2.8594 4.1382 0
M  V30 21944 H 1984.3 -1.85199 5.57652 0
M  V30 21945 H 1985.82 -2.77427 5.43936 0
M  V30 21946 H 1987.23 -0.518951 5.70946 0
M  V30 21947 H 1985.63 0.218124 5.99703 0
M  V30 21948 H 1986.7 0.907947 4.76324 0
M  V30 21949 N 1988.04 -1.56898 0.148573 0
M  V30 21950 C 1988.99 -2.1813 -0.807596 0
M  V30 21951 C 1989.99 -1.13875 -1.25415 0
M  V30 21952 O 1991.19 -1.32122 -1.22245 0
M  V30 21953 H 1987.57 -0.698471 -0.278644 0
M  V30 21954 H 1989.54 -2.97203 -0.266972 0
M  V30 21955 C 1988.29 -2.81852 -2.03604 0
M  V30 21956 H 1987.61 -3.6179 -1.70141 0
M  V30 21957 H 1989.05 -3.28196 -2.68446 0
M  V30 21958 C 1987.51 -1.80441 -2.84504 0
M  V30 21959 O 1988.04 -1.27584 -3.809 0
M  V30 21960 N 1986.25 -1.49709 -2.49069 0
M  V30 21961 H 1985.79 -1.92884 -1.70744 0
M  V30 21962 H 1985.75 -0.821041 -3.0349 0
M  V30 21963 N 1989.52 0.125209 -1.57102 0
M  V30 21964 C 1990.94 0.478555 -1.52256 0
M  V30 21965 C 1991.14 1.82199 -0.860573 0
M  V30 21966 O 1990.19 2.48632 -0.440282 0
M  V30 21967 C 1991.51 0.46877 -2.97024 0
M  V30 21968 C 1993.06 0.552759 -3.0808 0
M  V30 21969 C 1993.53 0.573425 -4.54396 0
M  V30 21970 N 1995.02 0.635039 -4.58826 0
M  V30 21971 C 1995.76 0.672375 -5.69444 0
M  V30 21972 N 1995.25 0.667732 -6.89575 0
M  V30 21973 N 1997.05 0.714913 -5.57535 0
M  V30 21974 H 1989.2 -0.755121 -1.98524 0
M  V30 21975 H 1991.46 -0.27786 -0.906365 0
M  V30 21976 H 1991.17 -0.450582 -3.48802 0
M  V30 21977 H 1991.04 1.29884 -3.54133 0
M  V30 21978 H 1993.43 1.46253 -2.56308 0
M  V30 21979 H 1993.51 -0.304874 -2.53977 0
M  V30 21980 H 1993.15 -0.332277 -5.06812 0
M  V30 21981 H 1993.08 1.44786 -5.06305 0
M  V30 21982 H 1995.57 0.645043 -3.72354 0
M  V30 21983 H 1995.89 0.698672 -7.69635 0
M  V30 21984 H 1994.23 0.635256 -6.92091 0
M  V30 21985 H 1997.42 0.715861 -4.62594 0
M  V30 21986 H 1997.59 0.740542 -6.43755 0
M  V30 21987 N 1991 1.52564 0.395213 0
M  V30 21988 C 1991.95 1.769 1.48239 0
M  V30 21989 C 1992.92 0.611965 1.54416 0
M  V30 21990 O 1994.1 0.851019 1.7077 0
M  V30 21991 C 1991.24 1.93809 2.85538 0
M  V30 21992 C 1990.36 3.2149 2.88562 0
M  V30 21993 C 1989.49 3.28751 4.17248 0
M  V30 21994 C 1988.53 4.5058 4.143 0
M  V30 21995 N 1987.67 4.55156 5.34581 0
M  V30 21996 H 1992.51 2.69683 1.26788 0
M  V30 21997 H 1990.04 1.33618 0.615189 0
M  V30 21998 H 1992 2.01597 3.6526 0
M  V30 21999 H 1990.63 1.04394 3.05453 0
M  V30 22000 H 1989.68 3.22805 2.01249 0
M  V30 22001 H 1991 4.11262 2.82251 0
M  V30 22002 H 1990.15 3.35687 5.0537 0
M  V30 22003 H 1988.89 2.36943 4.26274 0
M  V30 22004 H 1987.89 4.43775 3.24567 0
M  V30 22005 H 1989.12 5.43698 4.06902 0
M  V30 22006 H 1987.06 3.66237 5.44248 0
M  V30 22007 H 1986.98 5.38791 5.30321 0
M  V30 22008 H 1988.25 4.6634 6.24618 0
M  V30 22009 N 1992.48 -0.653289 1.43422 0
M  V30 22010 C 1993.72 -1.41363 1.46247 0
M  V30 22011 C 1994.08 -1.92211 0.0853544 0
M  V30 22012 O 1993.37 -1.69359 -0.896004 0
M  V30 22013 C 1993.57 -2.6117 2.43978 0
M  V30 22014 C 1993.4 -2.22048 3.91056 0
M  V30 22015 C 1992.17 -2.10378 4.59423 0
M  V30 22016 C 1994.36 -1.82338 4.80892 0
M  V30 22017 N 1992.35 -1.64586 5.91426 0
M  V30 22018 C 1993.72 -1.47628 6.02168 0
M  V30 22019 C 1995.77 -1.69521 4.68153 0
M  V30 22020 C 1994.47 -1.01384 7.12119 0
M  V30 22021 C 1996.5 -1.24682 5.78108 0
M  V30 22022 C 1995.86 -0.909083 6.98509 0
M  V30 22023 H 1991.96 -0.51294 0.590268 0
M  V30 22024 H 1994.55 -0.75177 1.79601 0
M  V30 22025 H 1992.72 -3.25015 2.1265 0
M  V30 22026 H 1994.45 -3.2787 2.37241 0
M  V30 22027 H 1991.2 -2.30133 4.13927 0
M  V30 22028 H 1991.63 -1.44052 6.61497 0
M  V30 22029 H 1996.27 -1.94272 3.75524 0
M  V30 22030 H 1993.99 -0.75382 8.04576 0
M  V30 22031 H 1997.57 -1.15254 5.7027 0
M  V30 22032 H 1996.45 -0.567412 7.82145 0
M  V30 22033 N 1993.96 -1.29952 -0.891648 0
M  V30 22034 C 1994.92 -1.15756 -1.97821 0
M  V30 22035 C 1995.92 -0.0906975 -1.60544 0
M  V30 22036 O 1997.11 -0.338283 -1.70884 0
M  V30 22037 C 1994.24 -0.771976 -3.32044 0
M  V30 22038 H 1995.43 -2.12281 -2.11842 0
M  V30 22039 H 1992.99 -1.13253 -1.07719 0
M  V30 22040 H 1993.72 0.193059 -3.23725 0
M  V30 22041 H 1993.51 -1.54291 -3.60467 0
M  V30 22042 H 1995 -0.695941 -4.1176 0
M  V30 22043 N 1995.44 1.1031 -1.12559 0
M  V30 22044 C 1996.35 2.20257 -0.807721 0
M  V30 22045 C 1997.36 1.728 0.203997 0
M  V30 22046 O 1998.54 2.01365 0.0372766 0
M  V30 22047 C 1995.6 3.4566 -0.26839 0
M  V30 22048 C 1994.66 4.07844 -1.3402 0
M  V30 22049 C 1993.9 5.27261 -0.826511 0
M  V30 22050 O 1994.12 5.6939 0.339244 0
M  V30 22051 O 1993.05 5.80335 -1.5967 0
M  V30 22052 H 1996.88 2.49882 -1.72606 0
M  V30 22053 H 1994.46 1.19071 -0.902352 0
M  V30 22054 H 1996.35 4.21391 0.0274321 0
M  V30 22055 H 1995.02 3.17658 0.622489 0
M  V30 22056 H 1993.93 3.33791 -1.68921 0
M  V30 22057 H 1995.26 4.40051 -2.20489 0
M  V30 22058 N 1996.91 0.917694 1.28125 0
M  V30 22059 C 1998.19 0.471682 1.89828 0
M  V30 22060 C 1998.57 -1.04974 1.83149 0
M  V30 22061 O 1997.92 -1.89953 1.27004 0
M  V30 22062 C 1998.13 1.00649 3.34172 0
M  V30 22063 C 1999.48 1.06095 4.11131 0
M  V30 22064 O 2000.5 0.955405 3.43148 0
M  V30 22065 O 1999.36 1.22219 5.32658 0
M  V30 22066 H 1996.45 0.150129 0.813259 0
M  V30 22067 H 1999 1.00873 1.36465 0
M  V30 22068 H 1997.77 2.05043 3.33276 0
M  V30 22069 H 1997.39 0.450491 3.9504 0
M  V30 22070 N 1998.39 -1.42074 0.682102 0
M  V30 22071 C 1999.34 -2.326 -0.00324978 0
M  V30 22072 C 2000.33 -1.50226 -0.782851 0
M  V30 22073 O 2001.54 -1.6625 -0.689991 0
M  V30 22074 H 1997.91 -0.751738 -0.0198484 0
M  V30 22075 H 1999.89 -2.88093 0.777513 0
M  V30 22076 C 1998.63 -3.3488 -0.935455 0
M  V30 22077 H 1997.96 -3.98309 -0.344986 0
M  V30 22078 H 1999.4 -4.00791 -1.38355 0
M  V30 22079 C 1997.86 -2.67711 -2.0453 0
M  V30 22080 O 1998.39 -2.5146 -3.13258 0
M  V30 22081 N 1996.59 -2.2662 -1.81912 0
M  V30 22082 H 1996.14 -2.40037 -0.934876 0
M  V30 22083 H 1996.1 -1.82011 -2.56358 0
M  V30 22084 N 1999.87 -0.425924 -1.51735 0
M  V30 22085 C 2000.78 0.39769 -2.31205 0
M  V30 22086 C 2001.8 1.0382 -1.39633 0
M  V30 22087 O 2002.97 1.03606 -1.72707 0
M  V30 22088 C 2000.04 1.49033 -3.13033 0
M  V30 22089 C 1999.1 0.871143 -4.20368 0
M  V30 22090 C 1998.33 1.91172 -4.98286 0
M  V30 22091 O 1998.55 3.13232 -4.76699 0
M  V30 22092 O 1997.49 1.5086 -5.82688 0
M  V30 22093 H 2001.31 -0.25075 -3.02663 0
M  V30 22094 H 1998.9 -0.188723 -1.48203 0
M  V30 22095 H 2000.78 2.12428 -3.6394 0
M  V30 22096 H 1999.46 2.12307 -2.44351 0
M  V30 22097 H 1998.36 0.199453 -3.73568 0
M  V30 22098 H 1999.7 0.282077 -4.91391 0
M  V30 22099 N 2001.35 1.56817 -0.156891 0
M  V30 22100 C 2002.59 1.9673 0.492464 0
M  V30 22101 C 2002.93 1.04226 1.63862 0
M  V30 22102 O 2002.2 0.0865469 1.94307 0
M  V30 22103 C 2002.48 3.46246 0.989218 0
M  V30 22104 C 2002.34 4.49529 -0.156119 0
M  V30 22105 C 2003.66 3.98502 1.86773 0
M  V30 22106 H 2000.78 0.715297 0.177537 0
M  V30 22107 H 2003.42 1.88477 -0.240116 0
M  V30 22108 H 2001.57 3.53411 1.61348 0
M  V30 22109 H 2003.24 4.54437 -0.792781 0
M  V30 22110 H 2001.48 4.26098 -0.813797 0
M  V30 22111 H 2002.15 5.51507 0.233341 0
M  V30 22112 H 2004.63 3.93879 1.34159 0
M  V30 22113 H 2003.51 5.03564 2.18436 0
M  V30 22114 H 2003.77 3.4145 2.80828 0
M  V30 22115 N 2002.83 -0.116876 1.57166 0
M  V30 22116 C 2003.76 -1.16901 1.97147 0
M  V30 22117 C 2004.77 -1.37537 0.871063 0
M  V30 22118 O 2005.96 -1.36574 1.14934 0
M  V30 22119 C 2003.06 -2.52863 2.2564 0
M  V30 22120 C 2002.23 -2.528 3.56946 0
M  V30 22121 C 2001.29 -3.70525 3.73628 0
M  V30 22122 O 2000.32 -3.54013 4.45717 0
M  V30 22123 N 2001.52 -4.89172 3.12556 0
M  V30 22124 H 2004.28 -0.828895 2.88009 0
M  V30 22125 H 2001.85 -0.306125 1.5898 0
M  V30 22126 H 2003.84 -3.30182 2.34013 0
M  V30 22127 H 2002.41 -2.79048 1.40894 0
M  V30 22128 H 2001.63 -1.61181 3.59742 0
M  V30 22129 H 2002.92 -2.49817 4.43248 0
M  V30 22130 H 2002.31 -5.05491 2.5396 0
M  V30 22131 H 2000.87 -5.64159 3.26447 0
M  V30 22132 N 2004.3 -1.52772 -0.387116 0
M  V30 22133 C 2005.25 -1.78325 -1.49341 0
M  V30 22134 C 2006.25 -0.651278 -1.5638 0
M  V30 22135 O 2007.45 -0.833795 -1.59524 0
M  V30 22136 H 2003.83 -0.56428 -0.497084 0
M  V30 22137 H 2005.8 -2.70965 -1.24983 0
M  V30 22138 C 2004.55 -1.97079 -2.86453 0
M  V30 22139 H 2003.87 -2.83612 -2.81788 0
M  V30 22140 H 2005.31 -2.18947 -3.63095 0
M  V30 22141 C 2003.77 -0.743842 -3.28586 0
M  V30 22142 O 2004.3 0.0778266 -4.01625 0
M  V30 22143 N 2002.5 -0.573415 -2.84886 0
M  V30 22144 H 2002.05 -1.24319 -2.25616 0
M  V30 22145 H 2002.01 0.24616 -3.13435 0
M  V30 22146 N 2005.78 0.645673 -1.43767 0
M  V30 22147 C 2007.02 1.41719 -1.47293 0
M  V30 22148 C 2007.39 1.91753 -0.0972655 0
M  V30 22149 O 2008.59 2.68799 -0.007206 0
M  V30 22150 C 2006.86 2.56163 -2.4923 0
M  V30 22151 S 2008.42 3.44572 -2.7169 0
M  V30 22152 H 2005.23 0.483664 -0.521143 0
M  V30 22153 H 2007.84 0.748898 -1.80587 0
M  V30 22154 H 2006.54 2.17691 -3.47906 0
M  V30 22155 H 2006.07 3.27834 -2.17458 0
M  V30 22156 H 2008.09 4.53139 -2.02186 0
M  V30 22157 N 2007.26 1.30423 0.884744 0
M  V30 22158 C 2008.19 1.1115 1.99301 0
M  V30 22159 C 2009.17 0.0190841 1.62589 0
M  V30 22160 O 2010.35 0.172682 1.87707 0
M  V30 22161 C 2007.48 0.695241 3.31488 0
M  V30 22162 C 2006.53 1.78856 3.87186 0
M  V30 22163 S 2007.36 3.39102 4.14452 0
M  V30 22164 C 2008.52 2.99379 5.49657 0
M  V30 22165 H 2008.75 2.04975 2.15343 0
M  V30 22166 H 2006.28 1.14739 1.03316 0
M  V30 22167 H 2008.24 0.461806 4.07894 0
M  V30 22168 H 2006.9 -0.223647 3.13303 0
M  V30 22169 H 2006.09 1.44959 4.82704 0
M  V30 22170 H 2005.7 1.97629 3.1752 0
M  V30 22171 H 2007.99 2.47353 6.30732 0
M  V30 22172 H 2008.93 3.93805 5.88493 0
M  V30 22173 H 2009.34 2.37239 5.12228 0
M  V30 22174 N 2008.74 -1.09711 1.13142 0
M  V30 22175 C 2009.7 -2.14443 0.809114 0
M  V30 22176 C 2010.7 -1.59789 -0.18005 0
M  V30 22177 O 2011.89 -1.74137 0.0466686 0
M  V30 22178 C 2009.02 -3.40291 0.203714 0
M  V30 22179 H 2010.22 -2.44466 1.73713 0
M  V30 22180 H 2007.77 -1.252 0.935663 0
M  V30 22181 H 2008.5 -3.15892 -0.733667 0
M  V30 22182 H 2008.29 -3.8125 0.916003 0
M  V30 22183 H 2009.78 -4.176 -0.00503851 0
M  V30 22184 N 2010.22 -0.924476 -1.27637 0
M  V30 22185 C 2011.46 -0.570467 -1.96278 0
M  V30 22186 C 2011.82 0.87151 -1.71081 0
M  V30 22187 O 2013.02 1.33363 -2.33383 0
M  V30 22188 C 2011.29 -0.883702 -3.46303 0
M  V30 22189 S 2012.85 -0.637722 -4.34141 0
M  V30 22190 H 2009.67 -0.210692 -0.679065 0
M  V30 22191 H 2012.27 -1.19222 -1.5494 0
M  V30 22192 H 2010.98 -1.9309 -3.62138 0
M  V30 22193 H 2010.51 -0.251014 -3.92598 0
M  V30 22194 H 2012.52 0.505988 -4.93613 0
M  V30 22195 N 2011.69 1.41711 -0.689627 0
M  V30 22196 C 2012.94 2.00925 -0.217655 0
M  V30 22197 C 2013.26 1.5487 1.18491 0
M  V30 22198 O 2012.53 0.776746 1.79843 0
M  V30 22199 H 2011.11 0.742971 -0.0774783 0
M  V30 22200 H 2013.78 1.73421 -0.889456 0
M  V30 22201 H 2012.87 3.11248 -0.230451 0
M  V30 22202 N 2013.17 0.433965 1.51507 0
M  V30 22203 C 2014.12 -0.37918 2.27664 0
M  V30 22204 C 2015.09 -1.01975 1.31112 0
M  V30 22205 O 2016.27 -1.0393 1.6001 0
M  V30 22206 C 2013.41 -1.47628 3.1193 0
M  V30 22207 C 2012.53 -0.854176 4.23471 0
M  V30 22208 C 2011.66 -1.92604 4.95053 0
M  V30 22209 C 2010.7 -1.28219 5.9852 0
M  V30 22210 N 2009.84 -2.29527 6.63522 0
M  V30 22211 H 2014.68 0.276629 2.96713 0
M  V30 22212 H 2012.22 0.148264 1.46351 0
M  V30 22213 H 2014.17 -2.1236 3.59109 0
M  V30 22214 H 2012.8 -2.10176 2.45002 0
M  V30 22215 H 2011.86 -0.0952329 3.80281 0
M  V30 22216 H 2013.17 -0.344086 4.97612 0
M  V30 22217 H 2012.32 -2.65006 5.45762 0
M  V30 22218 H 2011.06 -2.46985 4.20535 0
M  V30 22219 H 2010.07 -0.543619 5.47106 0
M  V30 22220 H 2011.29 -0.745758 6.74993 0
M  V30 22221 H 2009.24 -2.82995 5.91819 0
M  V30 22222 H 2009.15 -1.834 7.33417 0
M  V30 22223 H 2010.42 -3.01423 7.18863 0
M  V30 22224 N 2014.65 -1.56732 0.165206 0
M  V30 22225 C 2015.9 -1.96308 -0.48036 0
M  V30 22226 C 2016.22 -1.05198 -1.6419 0
M  V30 22227 O 2015.49 -0.117108 -1.9555 0
M  V30 22228 H 2014.07 -0.724877 -0.180451 0
M  V30 22229 H 2016.73 -1.93354 0.244961 0
M  V30 22230 H 2015.83 -3.00459 -0.844437 0
M  V30 22231 N 2016.13 0.10854 -1.57226 0
M  V30 22232 C 2017.38 0.814467 -1.85399 0
M  V30 22233 C 2017.7 1.79382 -0.75181 0
M  V30 22234 O 2016.96 1.9402 0.255884 0
M  V30 22235 C 2017.26 1.58963 -3.20102 0
M  V30 22236 C 2016.92 0.75362 -4.44558 0
M  V30 22237 C 2015.59 0.523111 -4.78348 0
M  V30 22238 C 2017.94 0.171574 -5.20918 0
M  V30 22239 C 2015.27 -0.299527 -5.85935 0
M  V30 22240 C 2017.62 -0.638313 -6.29371 0
M  V30 22241 C 2016.28 -0.87904 -6.61687 0
M  V30 22242 H 2015.55 0.298035 -0.678422 0
M  V30 22243 H 2018.2 0.0764359 -1.91347 0
M  V30 22244 H 2016.5 2.39886 -3.09777 0
M  V30 22245 H 2018.2 2.13998 -3.39125 0
M  V30 22246 H 2014.79 0.943382 -4.18089 0
M  V30 22247 H 2018.97 0.336852 -4.95156 0
M  V30 22248 H 2014.23 -0.49515 -6.09392 0
M  V30 22249 H 2018.4 -1.09626 -6.87717 0
M  V30 22250 H 2016.03 -1.51829 -7.44884 0
M  V30 22251 N 2017.61 1.52975 0.379009 0
M  V30 22252 C 2018.83 1.72698 1.14849 0
M  V30 22253 C 2019.26 0.448814 1.82667 0
M  V30 22254 O 2018.61 -0.596182 1.71217 0
M  V30 22255 C 2018.66 2.884 2.16466 0
M  V30 22256 O 2017.77 2.56071 3.23267 0
M  V30 22257 H 2017.11 0.573952 0.333878 0
M  V30 22258 H 2019.64 1.99807 0.440243 0
M  V30 22259 H 2019.65 3.14183 2.60295 0
M  V30 22260 H 2018.32 3.8112 1.66494 0
M  V30 22261 H 2016.9 2.41063 2.84505 0
M  V30 22262 N 2019.08 -0.63804 1.44107 0
M  V30 22263 C 2020.33 -1.39979 1.46743 0
M  V30 22264 C 2020.66 -1.93957 0.0970287 0
M  V30 22265 O 2019.94 -1.73232 -0.884358 0
M  V30 22266 C 2020.22 -2.57015 2.52221 0
M  V30 22267 C 2020.07 -2.08431 3.98593 0
M  V30 22268 C 2021.39 -3.59212 2.54273 0
M  V30 22269 H 2018.51 -0.507635 0.534299 0
M  V30 22270 H 2021.15 -0.722028 1.75746 0
M  V30 22271 H 2019.3 -3.14835 2.2762 0
M  V30 22272 H 2020.98 -1.55494 4.34303 0
M  V30 22273 H 2019.22 -1.39672 4.107 0
M  V30 22274 H 2019.89 -2.92659 4.68033 0
M  V30 22275 H 2022.37 -3.11179 2.76237 0
M  V30 22276 H 2021.24 -4.38631 3.29991 0
M  V30 22277 H 2021.5 -4.12821 1.58214 0
M  V30 22278 N 2020.56 -1.3089 -0.877815 0
M  V30 22279 C 2021.79 -1.23068 -1.66319 0
M  V30 22280 C 2022.21 0.205309 -1.8768 0
M  V30 22281 O 2021.56 1.13467 -1.42939 0
M  V30 22282 C 2021.61 -1.96305 -3.03557 0
M  V30 22283 O 2021.33 -3.34298 -2.83154 0
M  V30 22284 C 2022.84 -1.95228 -3.97996 0
M  V30 22285 H 2020.06 -0.425583 -0.518768 0
M  V30 22286 H 2022.6 -1.72636 -1.09623 0
M  V30 22287 H 2020.75 -1.50518 -3.56964 0
M  V30 22288 H 2021.17 -3.71486 -3.70268 0
M  V30 22289 H 2022.64 -2.50997 -4.91635 0
M  V30 22290 H 2023.12 -0.932904 -4.29178 0
M  V30 22291 H 2023.73 -2.40858 -3.50525 0
M  V30 22292 N 2022.04 1.0911 -1.13723 0
M  V30 22293 C 2023.29 1.81621 -0.902319 0
M  V30 22294 C 2023.62 1.85646 0.570009 0
M  V30 22295 O 2022.89 1.32706 1.42195 0
M  V30 22296 C 2023.18 3.27604 -1.49492 0
M  V30 22297 C 2023.03 3.3183 -3.03659 0
M  V30 22298 C 2024.35 4.24378 -1.16581 0
M  V30 22299 H 2021.47 0.659374 -0.329233 0
M  V30 22300 H 2024.11 1.27792 -1.40603 0
M  V30 22301 H 2022.26 3.73574 -1.06653 0
M  V30 22302 H 2023.93 2.94239 -3.55276 0
M  V30 22303 H 2022.18 2.71317 -3.38481 0
M  V30 22304 H 2022.85 4.34686 -3.40224 0
M  V30 22305 H 2025.32 3.8671 -1.53604 0
M  V30 22306 H 2024.2 5.24853 -1.60688 0
M  V30 22307 H 2024.46 4.42028 -0.0800013 0
M  V30 22308 N 2023.52 0.931232 1.27145 0
M  V30 22309 C 2024.93 0.632011 1.46553 0
M  V30 22310 C 2025.13 -0.817674 1.84164 0
M  V30 22311 O 2024.19 -1.59524 1.95725 0
M  V30 22312 C 2025.5 1.58491 2.55541 0
M  V30 22313 C 2027.05 1.59352 2.69399 0
M  V30 22314 C 2027.53 2.53347 3.81548 0
M  V30 22315 N 2029.02 2.51575 3.88927 0
M  V30 22316 C 2029.75 3.20993 4.75132 0
M  V30 22317 N 2029.25 3.99803 5.65799 0
M  V30 22318 N 2031.04 3.09994 4.68892 0
M  V30 22319 H 2023.19 1.8684 1.01017 0
M  V30 22320 H 2025.46 0.802369 0.504884 0
M  V30 22321 H 2025.16 2.61927 2.34707 0
M  V30 22322 H 2025.04 1.32932 3.53 0
M  V30 22323 H 2027.42 0.566457 2.89612 0
M  V30 22324 H 2027.5 1.88962 1.72415 0
M  V30 22325 H 2027.15 3.56166 3.62088 0
M  V30 22326 H 2027.08 2.21032 4.77967 0
M  V30 22327 H 2029.57 1.94342 3.24098 0
M  V30 22328 H 2029.88 4.49749 6.28447 0
M  V30 22329 H 2028.23 4.03906 5.65584 0
M  V30 22330 H 2031.42 2.47915 3.97059 0
M  V30 22331 H 2031.59 3.64364 5.35857 0
M  V30 22332 N 2025 -1.41343 0.697132 0
M  V30 22333 C 2026.41 -1.5528 0.368838 0
M  V30 22334 C 2026.61 -1.67234 -1.12406 0
M  V30 22335 O 2025.67 -1.65163 -1.90991 0
M  V30 22336 C 2026.98 -2.79114 1.11873 0
M  V30 22337 C 2028.53 -2.92913 1.10323 0
M  V30 22338 C 2029.01 -4.19637 1.83491 0
M  V30 22339 N 2030.5 -4.26598 1.80468 0
M  V30 22340 C 2031.23 -5.23516 2.33919 0
M  V30 22341 N 2030.73 -6.26455 2.95849 0
M  V30 22342 N 2032.52 -5.15467 2.24166 0
M  V30 22343 H 2024.67 -1.31829 1.66538 0
M  V30 22344 H 2026.93 -0.636129 0.702882 0
M  V30 22345 H 2026.64 -2.76496 2.17354 0
M  V30 22346 H 2026.51 -3.70679 0.69833 0
M  V30 22347 H 2028.9 -2.95046 0.0566834 0
M  V30 22348 H 2028.98 -2.02517 1.56271 0
M  V30 22349 H 2028.63 -4.18265 2.88126 0
M  V30 22350 H 2028.56 -5.09008 1.34976 0
M  V30 22351 H 2031.05 -3.52842 1.35318 0
M  V30 22352 H 2031.36 -6.96801 3.34198 0
M  V30 22353 H 2029.71 -6.26952 2.99927 0
M  V30 22354 H 2032.9 -4.33973 1.75456 0
M  V30 22355 H 2033.07 -5.90831 2.66126 0
M  V30 22356 N 2026.48 -0.441993 -1.51275 0
M  V30 22357 C 2027.43 0.385139 -2.24724 0
M  V30 22358 C 2028.41 0.986167 -1.27136 0
M  V30 22359 O 2029.6 0.903536 -1.52201 0
M  V30 22360 C 2026.73 1.48313 -3.09609 0
M  V30 22361 C 2025.82 0.891271 -4.14629 0
M  V30 22362 N 2026.21 0.0290039 -5.05792 0
M  V30 22363 C 2024.51 1.15836 -4.30695 0
M  V30 22364 C 2025.21 -0.303891 -5.80906 0
M  V30 22365 N 2024.18 0.313669 -5.42694 0
M  V30 22366 H 2027.98 -0.279563 -2.92567 0
M  V30 22367 H 2025.5 -0.254348 -1.60396 0
M  V30 22368 H 2027.5 2.0886 -3.60809 0
M  V30 22369 H 2026.16 2.15012 -2.4331 0
M  V30 22370 H 2027.17 -0.337771 -5.16797 0
M  V30 22371 H 2023.84 1.8225 -3.75621 0
M  V30 22372 H 2025.23 -1.00584 -6.64329 0
M  V30 22373 N 2027.95 1.56642 -0.173515 0
M  V30 22374 C 2028.9 2.14667 0.768251 0
M  V30 22375 C 2029.89 1.0815 1.19132 0
M  V30 22376 O 2031.08 1.34267 1.15331 0
M  V30 22377 C 2028.21 2.79269 1.99659 0
M  V30 22378 C 2027.29 3.92947 1.59541 0
M  V30 22379 N 2027.69 4.97657 0.903929 0
M  V30 22380 C 2025.98 4.04148 1.88627 0
M  V30 22381 C 2026.68 5.77399 0.706055 0
M  V30 22382 N 2025.66 5.29076 1.24817 0
M  V30 22383 H 2029.46 2.92991 0.230996 0
M  V30 22384 H 2026.98 1.62377 0.0270838 0
M  V30 22385 H 2028.97 3.19217 2.68153 0
M  V30 22386 H 2027.63 2.02427 2.53877 0
M  V30 22387 H 2028.64 5.14845 0.561736 0
M  V30 22388 H 2025.32 3.38411 2.44508 0
M  V30 22389 H 2026.71 6.71712 0.159077 0
M  V30 22390 N 2029.43 -0.1002 1.57281 0
M  V30 22391 C 2030.67 -0.810297 1.87653 0
M  V30 22392 C 2031.04 -1.7615 0.763876 0
M  V30 22393 O 2032.24 -2.51458 0.949868 0
M  V30 22394 C 2030.51 -1.52432 3.23264 0
M  V30 22395 S 2032.07 -2.2734 3.75316 0
M  V30 22396 H 2028.88 -0.270065 0.657713 0
M  V30 22397 H 2031.49 -0.0676718 1.95383 0
M  V30 22398 H 2030.19 -0.817839 4.02169 0
M  V30 22399 H 2029.72 -2.30694 3.18659 0
M  V30 22400 H 2031.74 -3.53392 3.48323 0
M  V30 22401 N 2030.91 -1.53174 -0.370891 0
M  V30 22402 C 2032.33 -1.42828 -0.712207 0
M  V30 22403 C 2032.53 -0.563111 -1.93472 0
M  V30 22404 O 2031.58 -0.0435062 -2.52463 0
M  V30 22405 C 2032.89 -2.85945 -0.930375 0
M  V30 22406 C 2034.44 -2.95542 -1.03072 0
M  V30 22407 C 2034.92 -4.39709 -1.28139 0
M  V30 22408 N 2036.41 -4.43115 -1.34921 0
M  V30 22409 C 2037.14 -5.51766 -1.56017 0
M  V30 22410 N 2036.64 -6.70473 -1.74464 0
M  V30 22411 N 2038.43 -5.39336 -1.58344 0
M  V30 22412 H 2030.58 -2.07934 0.433281 0
M  V30 22413 H 2032.85 -0.938799 0.131756 0
M  V30 22414 H 2032.55 -3.51546 -0.103966 0
M  V30 22415 H 2032.43 -3.29279 -1.83997 0
M  V30 22416 H 2034.81 -2.30098 -1.84768 0
M  V30 22417 H 2034.89 -2.5561 -0.0986256 0
M  V30 22418 H 2034.54 -5.05726 -0.469468 0
M  V30 22419 H 2034.47 -4.7721 -2.22662 0
M  V30 22420 H 2036.96 -3.57563 -1.223 0
M  V30 22421 H 2037.27 -7.49049 -1.90119 0
M  V30 22422 H 2035.62 -6.73469 -1.71653 0
M  V30 22423 H 2038.81 -4.45563 -1.43496 0
M  V30 22424 H 2038.98 -6.24078 -1.74443 0
M  V30 22425 N 2032.39 0.630389 -1.44443 0
M  V30 22426 C 2033.32 1.75554 -1.47354 0
M  V30 22427 C 2034.33 1.58613 -0.366846 0
M  V30 22428 O 2035.52 1.66913 -0.632629 0
M  V30 22429 C 2032.62 3.13286 -1.29249 0
M  V30 22430 C 2031.79 3.56679 -2.53178 0
M  V30 22431 C 2030.85 4.73291 -2.29962 0
M  V30 22432 O 2029.88 4.81565 -3.03453 0
M  V30 22433 N 2031.08 5.65043 -1.33068 0
M  V30 22434 H 2033.85 1.73528 -2.44352 0
M  V30 22435 H 2031.41 0.814976 -1.39892 0
M  V30 22436 H 2033.4 3.89019 -1.11564 0
M  V30 22437 H 2031.97 3.09951 -0.406127 0
M  V30 22438 H 2031.19 2.71147 -2.86135 0
M  V30 22439 H 2032.48 3.82422 -3.35605 0
M  V30 22440 H 2031.88 5.61051 -0.723733 0
M  V30 22441 H 2030.43 6.40402 -1.21361 0
M  V30 22442 N 2033.87 1.31354 0.870861 0
M  V30 22443 C 2035.11 1.22287 1.63784 0
M  V30 22444 C 2035.47 -0.215843 1.90783 0
M  V30 22445 O 2036.67 -0.429989 2.65339 0
M  V30 22446 C 2034.94 2.04257 2.93281 0
M  V30 22447 S 2036.5 2.12043 3.84166 0
M  V30 22448 H 2033.32 0.435557 0.56197 0
M  V30 22449 H 2035.92 1.66006 1.03259 0
M  V30 22450 H 2034.62 3.07876 2.71367 0
M  V30 22451 H 2034.16 1.61254 3.58832 0
M  V30 22452 H 2036.17 1.25809 4.79986 0
M  V30 22453 N 2035.34 -1.08505 1.143 0
M  V30 22454 C 2036.59 -1.80514 0.908791 0
M  V30 22455 C 2036.91 -1.86599 -0.566196 0
M  V30 22456 O 2036.18 -1.35837 -1.41156 0
M  V30 22457 H 2034.76 -0.668553 0.333235 0
M  V30 22458 H 2037.42 -1.31188 1.44138 0
M  V30 22459 H 2036.52 -2.83375 1.30786 0
M  V30 22460 N 2036.82 -0.937962 -1.26649 0
M  V30 22461 C 2037.77 -0.435759 -2.28482 0
M  V30 22462 C 2038.76 0.485286 -1.623 0
M  V30 22463 O 2039.97 0.363854 -1.76284 0
M  V30 22464 H 2036.34 -0.122373 -0.741976 0
M  V30 22465 H 2038.32 -1.30722 -2.68243 0
M  V30 22466 C 2037.06 0.286679 -3.46516 0
M  V30 22467 H 2036.39 -0.412881 -3.97662 0
M  V30 22468 H 2037.83 0.602341 -4.197 0
M  V30 22469 C 2036.29 1.50334 -3.01499 0
M  V30 22470 O 2036.82 2.60176 -3.06058 0
M  V30 22471 N 2035.02 1.35877 -2.56877 0
M  V30 22472 H 2034.57 0.465092 -2.53367 0
M  V30 22473 H 2034.53 2.17403 -2.27119 0
M  V30 22474 N 2038.3 1.40971 -0.704618 0
M  V30 22475 C 2039.55 2.00309 -0.236478 0
M  V30 22476 C 2039.86 1.56482 1.17358 0
M  V30 22477 O 2041.07 2.08442 1.73966 0
M  V30 22478 C 2039.52 3.57974 -0.371877 0
M  V30 22479 C 2039.13 4.10779 -1.78788 0
M  V30 22480 C 2040.88 4.24485 0.0360284 0
M  V30 22481 C 2038.78 5.60909 -1.87445 0
M  V30 22482 H 2037.71 0.749233 -0.0846557 0
M  V30 22483 H 2040.36 1.61342 -0.874125 0
M  V30 22484 H 2038.75 3.94587 0.334172 0
M  V30 22485 H 2039.92 3.85565 -2.52342 0
M  V30 22486 H 2038.23 3.56826 -2.14626 0
M  V30 22487 H 2040.83 5.34699 -0.00808813 0
M  V30 22488 H 2041.17 4.02149 1.07621 0
M  V30 22489 H 2041.71 3.92938 -0.620069 0
M  V30 22490 H 2038.45 5.88084 -2.89546 0
M  V30 22491 H 2037.97 5.88021 -1.18287 0
M  V30 22492 H 2039.65 6.25831 -1.6415 0
M  V30 22493 N 2039.78 0.45001 1.51039 0
M  V30 22494 C 2041.03 -0.11219 2.02189 0
M  V30 22495 C 2041.35 -1.416 1.3334 0
M  V30 22496 O 2040.61 -1.90663 0.44113 0
M  V30 22497 C 2040.91 -0.365449 3.55527 0
M  V30 22498 C 2040.57 0.854084 4.42737 0
M  V30 22499 C 2039.24 1.1885 4.66292 0
M  V30 22500 C 2041.59 1.66705 4.93821 0
M  V30 22501 C 2038.92 2.33632 5.38176 0
M  V30 22502 C 2041.27 2.80597 5.66964 0
M  V30 22503 C 2039.93 3.14478 5.88778 0
M  V30 22504 H 2039.2 -0.0410534 0.739862 0
M  V30 22505 H 2041.85 0.599793 1.81865 0
M  V30 22506 H 2040.15 -1.15946 3.74251 0
M  V30 22507 H 2041.85 -0.81407 3.9265 0
M  V30 22508 H 2038.44 0.583517 4.24609 0
M  V30 22509 H 2042.62 1.42189 4.75496 0
M  V30 22510 H 2037.88 2.60181 5.53277 0
M  V30 22511 H 2042.05 3.43952 6.05533 0
M  V30 22512 H 2039.68 4.0353 6.44257 0
M  V30 22513 N 2041.26 -1.56548 0.18182 0
M  V30 22514 C 2042.5 -1.99093 -0.462751 0
M  V30 22515 C 2042.86 -1.06569 -1.59709 0
M  V30 22516 O 2044.06 -1.38297 -2.30494 0
M  V30 22517 C 2042.33 -3.45261 -0.923553 0
M  V30 22518 S 2043.89 -4.09835 -1.56783 0
M  V30 22519 H 2040.71 -0.695324 -0.148476 0
M  V30 22520 H 2043.31 -1.93459 0.281758 0
M  V30 22521 H 2042.02 -4.10306 -0.0877151 0
M  V30 22522 H 2041.55 -3.54684 -1.70185 0
M  V30 22523 H 2043.56 -4.05748 -2.85628 0
M  V30 22524 N 2042.73 0.0918577 -1.57332 0
M  V30 22525 C 2043.7 1.09546 -2.01326 0
M  V30 22526 C 2044.7 1.32761 -0.907252 0
M  V30 22527 O 2045.89 1.2882 -1.17265 0
M  V30 22528 C 2043.02 2.44385 -2.37674 0
M  V30 22529 H 2044.21 0.71671 -2.9121 0
M  V30 22530 H 2041.77 0.337001 -1.52624 0
M  V30 22531 H 2042.5 2.8713 -1.50755 0
M  V30 22532 H 2042.29 2.28882 -3.18364 0
M  V30 22533 H 2043.78 3.16562 -2.72357 0
M  V30 22534 N 2044.21 1.53368 0.362763 0
M  V30 22535 C 2045.12 1.82969 1.46832 0
M  V30 22536 C 2046.14 0.718285 1.58482 0
M  V30 22537 O 2047.31 1.00863 1.74323 0
M  V30 22538 C 2044.38 2.01596 2.82064 0
M  V30 22539 C 2043.44 3.25491 2.79918 0
M  V30 22540 C 2042.67 3.4322 4.087 0
M  V30 22541 O 2042.9 2.65185 5.05008 0
M  V30 22542 O 2041.83 4.36585 4.1434 0
M  V30 22543 H 2045.66 2.769 1.24741 0
M  V30 22544 H 2043.24 1.38783 0.553131 0
M  V30 22545 H 2045.12 2.15403 3.62187 0
M  V30 22546 H 2043.8 1.10854 3.04127 0
M  V30 22547 H 2042.71 3.17105 1.98483 0
M  V30 22548 H 2044.04 4.16164 2.62809 0
M  V30 22549 N 2045.69 -0.62272 1.44776 0
M  V30 22550 C 2046.93 -1.39358 1.49529 0
M  V30 22551 C 2047.29 -1.91574 0.12776 0
M  V30 22552 O 2048.5 -2.68754 0.0499687 0
M  V30 22553 C 2046.77 -2.52165 2.53273 0
M  V30 22554 S 2048.33 -3.40206 2.77138 0
M  V30 22555 H 2045.14 -0.475312 0.528772 0
M  V30 22556 H 2047.75 -0.720074 1.81756 0
M  V30 22557 H 2046.45 -2.12129 3.51325 0
M  V30 22558 H 2045.98 -3.24333 2.22647 0
M  V30 22559 H 2048 -4.49865 2.0937 0
M  V30 22560 N 2047.17 -1.31814 -0.863883 0
M  V30 22561 C 2048.39 -1.24961 -1.65528 0
M  V30 22562 C 2048.82 0.18096 -1.87228 0
M  V30 22563 O 2048.18 1.12919 -1.41842 0
M  V30 22564 C 2048.22 -2.00518 -2.99708 0
M  V30 22565 O 2047.33 -1.34668 -3.89793 0
M  V30 22566 H 2046.67 -0.431127 -0.505001 0
M  V30 22567 H 2049.2 -1.73981 -1.07665 0
M  V30 22568 H 2049.21 -2.10344 -3.49599 0
M  V30 22569 H 2047.88 -3.0455 -2.83235 0
M  V30 22570 H 2046.46 -1.33332 -3.48249 0
M  V30 22571 N 2048.65 1.07897 -1.14873 0
M  V30 22572 C 2049.61 2.13129 -0.843128 0
M  V30 22573 C 2050.61 1.60055 0.154606 0
M  V30 22574 O 2051.8 1.74041 -0.0743665 0
M  V30 22575 C 2048.93 3.39924 -0.257826 0
M  V30 22576 H 2050.12 2.41671 -1.77581 0
M  V30 22577 H 2047.68 1.23696 -0.955463 0
M  V30 22578 H 2048.41 3.17019 0.683318 0
M  V30 22579 H 2048.2 3.79745 -0.97654 0
M  V30 22580 H 2049.69 4.17555 -0.0613986 0
M  V30 22581 N 2050.12 0.944665 1.2615 0
M  V30 22582 C 2051.07 0.455723 2.26256 0
M  V30 22583 C 2052.04 -0.486478 1.58816 0
M  V30 22584 O 2053.23 -0.401921 1.86519 0
M  V30 22585 C 2050.37 -0.269732 3.44044 0
M  V30 22586 C 2049.48 0.708546 4.2615 0
M  V30 22587 C 2048.61 -0.0384607 5.31186 0
M  V30 22588 C 2047.65 0.931409 6.04972 0
M  V30 22589 N 2046.79 0.215929 7.01768 0
M  V30 22590 H 2051.63 1.31431 2.67451 0
M  V30 22591 H 2049.17 0.659314 1.31497 0
M  V30 22592 H 2051.13 -0.706817 4.11169 0
M  V30 22593 H 2049.76 -1.09243 3.03753 0
M  V30 22594 H 2048.81 1.26414 3.58781 0
M  V30 22595 H 2050.12 1.44906 4.77288 0
M  V30 22596 H 2049.27 -0.53466 6.0434 0
M  V30 22597 H 2048.01 -0.811835 4.80896 0
M  V30 22598 H 2047.02 1.4387 5.30642 0
M  V30 22599 H 2048.24 1.70485 6.57352 0
M  V30 22600 H 2046.19 -0.538889 6.53783 0
M  V30 22601 H 2046.11 0.895714 7.50675 0
M  V30 22602 H 2047.37 -0.259061 7.79069 0
M  V30 22603 N 2051.6 -1.40596 0.712085 0
M  V30 22604 C 2052.55 -2.32554 0.0460888 0
M  V30 22605 C 2053.54 -1.51853 -0.750809 0
M  V30 22606 O 2054.75 -1.67676 -0.654572 0
M  V30 22607 H 2051.13 -0.75199 -0.00389841 0
M  V30 22608 H 2053.1 -2.86378 0.838447 0
M  V30 22609 C 2051.85 -3.36789 -0.864212 0
M  V30 22610 H 2051.17 -3.98951 -0.260421 0
M  V30 22611 H 2052.61 -4.03636 -1.29823 0
M  V30 22612 C 2051.07 -2.71989 -1.98805 0
M  V30 22613 O 2051.6 -2.58048 -3.07854 0
M  V30 22614 N 2049.8 -2.30427 -1.77064 0
M  V30 22615 H 2049.35 -2.41966 -0.88375 0
M  V30 22616 H 2049.31 -1.87408 -2.52439 0
M  V30 22617 N 2053.08 -0.458013 -1.50798 0
M  V30 22618 C 2054.04 0.331466 -2.26791 0
M  V30 22619 C 2055.04 0.931853 -1.31046 0
M  V30 22620 O 2056.23 0.803071 -1.54585 0
M  V30 22621 C 2053.37 1.4709 -3.07534 0
M  V30 22622 H 2054.56 -0.334805 -2.98025 0
M  V30 22623 H 2052.11 -0.211715 -1.54859 0
M  V30 22624 H 2052.85 2.17261 -2.40765 0
M  V30 22625 H 2052.63 1.04634 -3.77881 0
M  V30 22626 H 2054.12 2.02815 -3.65042 0
M  V30 22627 N 2054.56 1.56449 -0.190119 0
M  V30 22628 C 2055.49 2.21861 0.728019 0
M  V30 22629 C 2056.47 1.18012 1.22504 0
M  V30 22630 O 2057.66 1.46503 1.27478 0
M  V30 22631 C 2054.79 2.87407 1.94973 0
M  V30 22632 C 2053.74 3.97457 1.58782 0
M  V30 22633 C 2053.07 4.50144 2.88573 0
M  V30 22634 C 2054.37 5.16113 0.801535 0
M  V30 22635 H 2056.06 2.98842 0.182734 0
M  V30 22636 H 2053.61 1.4374 0.0864508 0
M  V30 22637 H 2055.56 3.31848 2.59721 0
M  V30 22638 H 2054.28 2.07824 2.51946 0
M  V30 22639 H 2052.94 3.537 0.96395 0
M  V30 22640 H 2052.59 3.67328 3.43626 0
M  V30 22641 H 2052.29 5.24398 2.65105 0
M  V30 22642 H 2053.81 4.97283 3.54318 0
M  V30 22643 H 2055.23 5.5713 1.35201 0
M  V30 22644 H 2053.62 5.96402 0.66517 0
M  V30 22645 H 2054.69 4.84494 -0.198407 0
M  V30 22646 N 2056.04 -0.0835127 1.57379 0
M  V30 22647 C 2057.27 -0.798106 1.90887 0
M  V30 22648 C 2057.68 -1.71709 0.78496 0
M  V30 22649 O 2057.04 -1.80883 -0.242406 0
M  V30 22650 C 2057.09 -1.60168 3.24081 0
M  V30 22651 O 2056.81 -0.719655 4.32149 0
M  V30 22652 C 2058.31 -2.41831 3.71527 0
M  V30 22653 H 2055.53 -0.227571 0.631231 0
M  V30 22654 H 2058.07 -0.0572834 2.0442 0
M  V30 22655 H 2056.23 -2.2949 3.12111 0
M  V30 22656 H 2056.64 -1.27737 5.08708 0
M  V30 22657 H 2058.12 -2.93689 4.67387 0
M  V30 22658 H 2058.59 -3.20824 2.99948 0
M  V30 22659 H 2059.2 -1.77687 3.86403 0
M  V30 22660 N 2057.52 -1.53558 -0.354624 0
M  V30 22661 C 2058.93 -1.6184 -0.930847 0
M  V30 22662 C 2059.28 -0.492698 -1.89913 0
M  V30 22663 O 2058.4 0.379247 -2.13051 0
M  V30 22664 C 2059 -2.93348 -1.69506 0
M  V30 22665 C 2057.56 -3.03929 -2.22046 0
M  V30 22666 C 2056.7 -2.57213 -1.03618 0
M  V30 22667 H 2059.65 -1.58141 -0.133086 0
M  V30 22668 H 2059.68 -2.81766 -2.55711 0
M  V30 22669 H 2059.19 -3.75259 -0.990072 0
M  V30 22670 H 2057.29 -2.26629 -2.95753 0
M  V30 22671 H 2057.4 -4.09204 -2.49176 0
M  V30 22672 H 2055.77 -2.12352 -1.40636 0
M  V30 22673 H 2056.55 -3.41552 -0.346003 0
M  V30 22674 N 2058.99 0.615033 -1.45104 0
M  V30 22675 C 2060.22 1.40596 -1.52471 0
M  V30 22676 C 2060.64 1.87454 -0.155745 0
M  V30 22677 O 2060 1.59701 0.858209 0
M  V30 22678 C 2060.05 2.59156 -2.5074 0
M  V30 22679 O 2059.15 3.59538 -2.02006 0
M  V30 22680 H 2058.49 0.420045 -0.514255 0
M  V30 22681 H 2061.02 0.749208 -1.90389 0
M  V30 22682 H 2061.03 3.06496 -2.69303 0
M  V30 22683 H 2059.71 2.24399 -3.50169 0
M  V30 22684 H 2058.29 3.18897 -1.93284 0
M  V30 22685 N 2060.47 1.3227 0.85688 0
M  V30 22686 C 2061.7 1.25837 1.64863 0
M  V30 22687 C 2062.12 -0.171028 1.87321 0
M  V30 22688 O 2061.48 -1.12165 1.42438 0
M  V30 22689 C 2061.53 2.02105 2.9864 0
M  V30 22690 O 2060.63 1.36733 3.89073 0
M  V30 22691 H 2059.97 0.433799 0.502707 0
M  V30 22692 H 2062.5 1.7455 1.0674 0
M  V30 22693 H 2062.51 2.12195 3.48479 0
M  V30 22694 H 2061.19 3.06048 2.81616 0
M  V30 22695 H 2059.76 1.35177 3.47537 0
M  V30 22696 N 2061.95 -1.07287 1.15444 0
M  V30 22697 C 2062.9 -2.14506 0.85181 0
M  V30 22698 C 2063.87 -1.64945 -0.195533 0
M  V30 22699 O 2065.05 -1.90696 -0.0629401 0
M  V30 22700 C 2062.19 -3.43341 0.347981 0
M  V30 22701 C 2061.3 -4.0669 1.45697 0
M  V30 22702 C 2060.44 -5.23361 0.9092 0
M  V30 22703 C 2059.48 -5.78673 1.99508 0
M  V30 22704 N 2058.62 -6.86675 1.46364 0
M  V30 22705 H 2063.46 -2.39733 1.77008 0
M  V30 22706 H 2060.99 -1.17635 0.883195 0
M  V30 22707 H 2062.95 -4.17183 0.0375747 0
M  V30 22708 H 2061.58 -3.18363 -0.53337 0
M  V30 22709 H 2060.63 -3.30495 1.88355 0
M  V30 22710 H 2061.94 -4.43806 2.2768 0
M  V30 22711 H 2061.1 -6.04189 0.551375 0
M  V30 22712 H 2059.84 -4.87665 0.0585544 0
M  V30 22713 H 2058.84 -4.9649 2.36173 0
M  V30 22714 H 2060.07 -6.16425 2.84952 0
M  V30 22715 H 2058.01 -6.52916 0.635365 0
M  V30 22716 H 2057.93 -7.22678 2.21973 0
M  V30 22717 H 2059.2 -7.71206 1.13408 0
M  V30 22718 N 2063.43 -0.951342 -1.25647 0
M  V30 22719 C 2064.37 -0.467715 -2.26011 0
M  V30 22720 C 2065.34 0.478049 -1.59072 0
M  V30 22721 O 2066.53 0.392024 -1.86729 0
M  V30 22722 C 2063.67 0.251483 -3.44182 0
M  V30 22723 C 2062.78 -0.731135 -4.25768 0
M  V30 22724 C 2061.92 0.0102901 -5.31199 0
M  V30 22725 C 2060.96 -0.963479 -6.0447 0
M  V30 22726 N 2060.09 -0.253142 -7.01643 0
M  V30 22727 H 2064.93 -1.32847 -2.6675 0
M  V30 22728 H 2062.47 -0.666278 -1.31146 0
M  V30 22729 H 2064.43 0.685002 -4.11538 0
M  V30 22730 H 2063.06 1.07631 -3.04328 0
M  V30 22731 H 2062.11 -1.28314 -3.58106 0
M  V30 22732 H 2063.42 -1.47435 -4.76513 0
M  V30 22733 H 2062.58 0.502603 -6.04615 0
M  V30 22734 H 2061.32 0.78632 -4.81319 0
M  V30 22735 H 2060.32 -1.46682 -5.29872 0
M  V30 22736 H 2061.55 -1.73968 -6.56439 0
M  V30 22737 H 2059.49 0.50421 -6.54059 0
M  V30 22738 H 2059.41 -0.935511 -7.50189 0
M  V30 22739 H 2060.68 0.217742 -7.79196 0
M  V30 22740 N 2064.91 1.40216 -0.719531 0
M  V30 22741 C 2066.32 1.83713 -0.33263 0
M  V30 22742 C 2066.67 1.60151 1.1334 0
M  V30 22743 O 2065.79 1.08447 1.87265 0
M  V30 22744 C 2066.39 3.335 -0.596947 0
M  V30 22745 C 2064.95 3.75475 -0.263712 0
M  V30 22746 C 2064.09 2.63387 -0.867341 0
M  V30 22747 H 2067.04 1.29428 -0.918378 0
M  V30 22748 H 2067.07 3.80255 0.136497 0
M  V30 22749 H 2066.58 3.50617 -1.66402 0
M  V30 22750 H 2064.68 3.63951 0.798139 0
M  V30 22751 H 2064.79 4.73421 -0.735465 0
M  V30 22752 H 2063.16 2.52985 -0.295091 0
M  V30 22753 H 2063.94 2.83315 -1.93876 0
M  V30 22754 N 2066.38 0.466004 1.50553 0
M  V30 22755 C 2067.63 -0.0908736 2.02596 0
M  V30 22756 C 2067.96 -1.39827 1.34767 0
M  V30 22757 O 2067.24 -1.88693 0.471719 0
M  V30 22758 C 2067.52 -0.279963 3.5901 0
M  V30 22759 C 2067.37 1.0481 4.37419 0
M  V30 22760 C 2068.69 -1.03683 4.27712 0
M  V30 22761 H 2065.81 -0.031552 0.736324 0
M  V30 22762 H 2068.45 0.610602 1.79921 0
M  V30 22763 H 2066.6 -0.877461 3.78461 0
M  V30 22764 H 2068.28 1.68178 4.29551 0
M  V30 22765 H 2066.52 1.64595 4.01361 0
M  V30 22766 H 2067.19 0.869493 5.45109 0
M  V30 22767 H 2069.67 -0.53043 4.12705 0
M  V30 22768 H 2068.54 -1.13792 5.36975 0
M  V30 22769 H 2068.8 -2.07215 3.90531 0
M  V30 22770 N 2067.86 -1.56346 0.198413 0
M  V30 22771 C 2069.28 -1.58822 -0.157378 0
M  V30 22772 C 2069.48 -1.21468 -1.60773 0
M  V30 22773 O 2068.53 -0.938985 -2.34391 0
M  V30 22774 C 2069.85 -3.00336 0.14798 0
M  V30 22775 C 2071.39 -3.12875 0.0883539 0
M  V30 22776 C 2071.87 -4.56527 0.367068 0
M  V30 22777 N 2073.36 -4.62122 0.315805 0
M  V30 22778 C 2074.1 -5.7117 0.505265 0
M  V30 22779 N 2073.59 -6.88671 0.755254 0
M  V30 22780 N 2075.38 -5.60381 0.439293 0
M  V30 22781 H 2067.54 -1.78908 1.1448 0
M  V30 22782 H 2069.8 -0.830475 0.457182 0
M  V30 22783 H 2069.5 -3.32238 1.15373 0
M  V30 22784 H 2069.38 -3.732 -0.547892 0
M  V30 22785 H 2071.77 -2.80783 -0.908004 0
M  V30 22786 H 2071.85 -2.4239 0.817354 0
M  V30 22787 H 2071.49 -4.89332 1.36076 0
M  V30 22788 H 2071.42 -5.25206 -0.382859 0
M  V30 22789 H 2073.91 -3.77679 0.129337 0
M  V30 22790 H 2074.22 -7.67675 0.888542 0
M  V30 22791 H 2072.57 -6.9047 0.792186 0
M  V30 22792 H 2075.76 -4.67462 0.244386 0
M  V30 22793 H 2075.93 -6.45305 0.590363 0
M  V30 22794 N 2069.34 0.0751653 -1.57421 0
M  V30 22795 C 2070.59 0.776106 -1.87362 0
M  V30 22796 C 2070.92 1.77394 -0.790247 0
M  V30 22797 O 2070.19 1.93471 0.199817 0
M  V30 22798 C 2070.48 1.4871 -3.27959 0
M  V30 22799 C 2070.33 0.505905 -4.46946 0
M  V30 22800 C 2071.65 2.43284 -3.66744 0
M  V30 22801 H 2068.77 0.280684 -0.681458 0
M  V30 22802 H 2071.41 0.0393497 -1.89959 0
M  V30 22803 H 2069.56 2.11512 -3.25876 0
M  V30 22804 H 2071.23 -0.116642 -4.61153 0
M  V30 22805 H 2069.48 -0.179057 -4.3343 0
M  V30 22806 H 2070.15 1.04094 -5.42096 0
M  V30 22807 H 2072.62 1.90562 -3.69899 0
M  V30 22808 H 2071.5 2.90037 -4.66015 0
M  V30 22809 H 2071.76 3.27938 -2.96494 0
M  V30 22810 N 2070.82 1.53744 0.346476 0
M  V30 22811 C 2072.06 1.72562 1.09552 0
M  V30 22812 C 2072.42 0.477138 1.85977 0
M  V30 22813 O 2073.62 0.542295 2.63273 0
M  V30 22814 C 2071.89 2.95246 2.01406 0
M  V30 22815 S 2073.45 3.34861 2.83573 0
M  V30 22816 H 2070.27 0.607015 0.370208 0
M  V30 22817 H 2072.87 1.91883 0.374316 0
M  V30 22818 H 2071.58 3.84286 1.44057 0
M  V30 22819 H 2071.11 2.78382 2.77969 0
M  V30 22820 H 2073.12 2.88367 4.03806 0
M  V30 22821 N 2072.3 -0.607329 1.45428 0
M  V30 22822 C 2073.57 -1.36669 1.39932 0
M  V30 22823 C 2073.95 -2.10984 0.0700663 0
M  V30 22824 O 2073.3 -2.07907 -0.947984 0
M  V30 22825 C 2073.51 -2.3133 2.61319 0
M  V30 22826 C 2074.86 -2.93928 3.06417 0
M  V30 22827 O 2075.88 -2.4165 2.61694 0
M  V30 22828 O 2074.74 -3.88823 3.8403 0
M  V30 22829 H 2071.84 -0.61283 0.55531 0
M  V30 22830 H 2074.38 -0.630396 1.57557 0
M  V30 22831 H 2073.15 -1.75677 3.49647 0
M  V30 22832 H 2072.78 -3.12338 2.4603 0
M  V30 22833 N 2073.77 -1.32722 -0.849853 0
M  V30 22834 C 2074.74 -1.21991 -1.94038 0
M  V30 22835 C 2075.74 -0.141727 -1.60174 0
M  V30 22836 O 2076.93 -0.392477 -1.69721 0
M  V30 22837 C 2074.06 -0.877223 -3.2942 0
M  V30 22838 H 2075.25 -2.18913 -2.04981 0
M  V30 22839 H 2072.81 -1.16623 -1.04062 0
M  V30 22840 H 2073.54 0.0899704 -3.24175 0
M  V30 22841 H 2073.33 -1.65681 -3.55376 0
M  V30 22842 H 2074.82 -0.826588 -4.09338 0
M  V30 22843 N 2075.25 1.06673 -1.16011 0
M  V30 22844 C 2076.49 1.80988 -0.949872 0
M  V30 22845 C 2076.86 1.85009 0.513401 0
M  V30 22846 O 2078.06 2.55265 0.842212 0
M  V30 22847 C 2076.33 3.21772 -1.55556 0
M  V30 22848 S 2077.89 4.12749 -1.48941 0
M  V30 22849 H 2074.71 0.623514 -0.341689 0
M  V30 22850 H 2077.31 1.28097 -1.47687 0
M  V30 22851 H 2076.01 3.16438 -2.61333 0
M  V30 22852 H 2075.54 3.79738 -1.02773 0
M  V30 22853 H 2077.56 4.93804 -0.487028 0
M  V30 22854 N 2076.73 0.957992 1.25141 0
M  V30 22855 C 2077.98 0.614592 1.92948 0
M  V30 22856 C 2078.31 -0.848868 1.74999 0
M  V30 22857 O 2077.56 -1.62488 1.09069 0
M  V30 22858 C 2077.86 0.923523 3.45262 0
M  V30 22859 C 2077.53 2.37356 3.83371 0
M  V30 22860 C 2076.19 2.7699 3.93484 0
M  V30 22861 C 2078.54 3.31508 4.02184 0
M  V30 22862 C 2075.87 4.09838 4.19821 0
M  V30 22863 C 2078.22 4.63973 4.30014 0
M  V30 22864 C 2076.88 5.03398 4.38345 0
M  V30 22865 H 2076.15 0.224895 0.706048 0
M  V30 22866 H 2078.8 1.20766 1.4862 0
M  V30 22867 H 2077.11 0.248102 3.91014 0
M  V30 22868 H 2078.8 0.636357 3.95919 0
M  V30 22869 H 2075.39 2.05619 3.76057 0
M  V30 22870 H 2079.58 3.02076 3.93781 0
M  V30 22871 H 2074.83 4.40023 4.24488 0
M  V30 22872 H 2079.01 5.36905 4.43516 0
M  V30 22873 H 2076.63 6.06363 4.58506 0
M  V30 22874 N 2078.21 -1.39832 0.726957 0
M  V30 22875 C 2079.16 -2.32492 0.0707517 0
M  V30 22876 C 2080.15 -1.5264 -0.734661 0
M  V30 22877 O 2081.36 -1.68361 -0.63675 0
M  V30 22878 H 2077.73 -0.751989 0.00407767 0
M  V30 22879 H 2079.7 -2.85473 0.868774 0
M  V30 22880 C 2078.45 -3.37686 -0.828442 0
M  V30 22881 H 2077.77 -3.99205 -0.218093 0
M  V30 22882 H 2079.21 -4.0499 -1.25534 0
M  V30 22883 C 2077.67 -2.74083 -1.95909 0
M  V30 22884 O 2078.2 -2.61299 -3.051 0
M  V30 22885 N 2076.41 -2.32292 -1.7461 0
M  V30 22886 H 2075.96 -2.4289 -0.858037 0
M  V30 22887 H 2075.91 -1.90075 -2.50437 0
M  V30 22888 N 2079.69 -0.473982 -1.50304 0
M  V30 22889 C 2080.96 0.141727 -1.95086 0
M  V30 22890 C 2081.34 1.56703 -1.41447 0
M  V30 22891 O 2080.69 2.20021 -0.616691 0
M  V30 22892 C 2080.9 0.0820815 -3.48903 0
M  V30 22893 C 2082.25 0.26953 -4.23744 0
M  V30 22894 O 2083.27 0.158532 -3.55847 0
M  V30 22895 O 2082.13 0.494023 -5.44262 0
M  V30 22896 H 2079.23 0.110094 -0.819639 0
M  V30 22897 H 2081.77 -0.534591 -1.6106 0
M  V30 22898 H 2080.54 -0.912936 -3.80501 0
M  V30 22899 H 2080.17 0.799731 -3.89474 0
M  V30 22900 N 2081.16 1.56239 -0.206702 0
M  V30 22901 C 2082.09 2.2262 0.704446 0
M  V30 22902 C 2083.08 1.19305 1.21245 0
M  V30 22903 O 2084.26 1.47846 1.25917 0
M  V30 22904 C 2081.39 2.89459 1.91913 0
M  V30 22905 C 2080.34 3.99119 1.54558 0
M  V30 22906 C 2079.67 4.53179 2.83783 0
M  V30 22907 C 2080.97 5.16934 0.746749 0
M  V30 22908 H 2082.66 2.99019 0.151028 0
M  V30 22909 H 2080.21 1.43824 0.0712004 0
M  V30 22910 H 2082.16 3.34584 2.56186 0
M  V30 22911 H 2080.89 2.10484 2.49728 0
M  V30 22912 H 2079.55 3.54702 0.926381 0
M  V30 22913 H 2079.19 3.70952 3.39711 0
M  V30 22914 H 2078.89 5.2718 2.59528 0
M  V30 22915 H 2080.42 5.01013 3.49024 0
M  V30 22916 H 2081.83 5.58532 1.29284 0
M  V30 22917 H 2080.23 5.97074 0.601876 0
M  V30 22918 H 2081.3 4.84256 -0.249783 0
M  V30 22919 N 2082.64 -0.0668159 1.57458 0
M  V30 22920 C 2083.57 -1.10569 2.00766 0
M  V30 22921 C 2084.59 -1.34696 0.914378 0
M  V30 22922 O 2085.78 -1.32848 1.19221 0
M  V30 22923 C 2082.88 -2.45556 2.33571 0
M  V30 22924 C 2082.05 -2.41316 3.64808 0
M  V30 22925 C 2081.11 -3.58451 3.85227 0
M  V30 22926 O 2080.13 -3.39654 4.56754 0
M  V30 22927 N 2081.34 -4.7898 3.27961 0
M  V30 22928 H 2084.1 -0.736847 2.90501 0
M  V30 22929 H 2081.66 -0.255392 1.59873 0
M  V30 22930 H 2083.65 -3.2257 2.44399 0
M  V30 22931 H 2082.22 -2.74424 1.497 0
M  V30 22932 H 2081.44 -1.49655 3.64688 0
M  V30 22933 H 2082.73 -2.35589 4.50972 0
M  V30 22934 H 2082.13 -4.97155 2.69913 0
M  V30 22935 H 2080.69 -5.53488 3.4423 0
M  V30 22936 N 2084.12 -1.53926 -0.338317 0
M  V30 22937 C 2085.37 -1.71085 -1.07584 0
M  V30 22938 C 2085.69 -0.479497 -1.89013 0
M  V30 22939 O 2084.96 0.506566 -1.89237 0
M  V30 22940 H 2083.54 -0.630767 -0.400178 0
M  V30 22941 H 2086.2 -1.91193 -0.378324 0
M  V30 22942 H 2085.3 -2.58404 -1.75026 0
M  V30 22943 O 2085.64 0.484289 -1.54068 0
M  V30 22944 H 2086.33 1.13891 -1.5668 0
M  V30 END ATOM
M  V30 BEGIN BOND
M  V30 END BOND
M  V30 END CTAB
M  END
$$$$
