drugbank_target|Q15080 Neutrophil cytosol factor 4 (DB00514)
 OpenBabel12092121003D

  0  0  0     0  0            999 V3000
M  V30 BEGIN CTAB
M  V30 COUNTS 5521 5579 0 0 0
M  V30 BEGIN ATOM
M  V30 1 H -0.908 1.98254 -0.117106 0
M  V30 2 N 0 1.576 0 0
M  V30 3 C 0.933 2.03868 1.02534 0
M  V30 4 C 1.911 0.928543 1.3348 0
M  V30 5 O 3.095 1.19667 1.45644 0
M  V30 6 C 0.222 2.43627 2.35294 0
M  V30 7 C -0.732 3.65373 2.2001 0
M  V30 8 S 0.101 5.13292 1.52614 0
M  V30 9 C 1.257 5.56322 2.86805 0
M  V30 10 H 1.49 2.90518 0.631377 0
M  V30 11 H -0.977 1.52953 0.210867 0
M  V30 12 H 0.981 2.67203 3.11629 0
M  V30 13 H -0.358 1.57376 2.7183 0
M  V30 14 H -1.165 3.90944 3.18086 0
M  V30 15 H -1.563 3.418 1.51819 0
M  V30 16 H 0.729 5.58782 3.83104 0
M  V30 17 H 1.672 6.56266 2.65933 0
M  V30 18 H 2.08 4.83886 2.90714 0
M  V30 19 N 1.4781 -0.272755 1.55222 0
M  V30 20 C 2.4411 -1.32041 1.87344 0
M  V30 21 C 3.4411 -1.42342 0.74803 0
M  V30 22 O 4.6311 -1.41488 1.0162 0
M  V30 23 C 1.7631 -2.70173 2.07893 0
M  V30 24 H 2.9561 -1.04789 2.80997 0
M  V30 25 H 0.5091 -0.51083 1.47717 0
M  V30 26 H 1.2441 -3.02605 1.16622 0
M  V30 27 H 1.0291 -2.64082 2.89833 0
M  V30 28 H 2.5191 -3.45869 2.34017 0
M  V30 29 N 2.9562 -1.48159 -0.537278 0
M  V30 30 C 4.2022 -1.56035 -1.29541 0
M  V30 31 C 4.5352 -0.230377 -1.92829 0
M  V30 32 O 3.8102 0.762952 -1.78911 0
M  V30 33 C 4.0932 -2.69323 -2.39034 0
M  V30 34 C 3.9462 -4.12002 -1.80485 0
M  V30 35 C 5.2652 -2.78408 -3.40847 0
M  V30 36 H 2.3842 -0.567992 -0.469632 0
M  V30 37 H 5.0262 -1.80302 -0.599277 0
M  V30 38 H 3.1762 -2.48763 -2.98412 0
M  V30 39 H 4.8482 -4.43981 -1.25215 0
M  V30 40 H 3.0912 -4.19344 -1.11055 0
M  V30 41 H 3.7622 -4.87077 -2.59731 0
M  V30 42 H 6.2382 -2.97012 -2.91416 0
M  V30 43 H 5.1142 -3.59416 -4.14863 0
M  V30 44 H 5.3752 -1.86269 -4.00944 0
M  V30 45 N 4.4343 0.785586 -1.36625 0
M  V30 46 C 5.3973 1.87999 -1.31107 0
M  V30 47 C 6.3973 1.59316 -0.217959 0
M  V30 48 O 7.5873 1.67656 -0.472977 0
M  V30 49 C 4.7193 3.24861 -1.03334 0
M  V30 50 H 5.9123 1.94307 -2.2844 0
M  V30 51 H 3.4653 0.983813 -1.21453 0
M  V30 52 H 4.2003 3.24235 -0.0647432 0
M  V30 53 H 3.9853 3.4707 -1.82441 0
M  V30 54 H 5.4753 4.04929 -1.02088 0
M  V30 55 N 5.9124 1.20967 1.01018 0
M  V30 56 C 6.8444 0.922059 2.09835 0
M  V30 57 C 7.8574 -0.0927106 1.62536 0
M  V30 58 O 9.0464 0.139127 1.77957 0
M  V30 59 C 6.1464 0.362004 3.36961 0
M  V30 60 C 5.3194 1.42986 4.13369 0
M  V30 61 C 4.3784 0.879976 5.1879 0
M  V30 62 O 3.4044 1.56219 5.47343 0
M  V30 63 N 4.6064 -0.307396 5.79686 0
M  V30 64 H 7.3714 1.8588 2.35093 0
M  V30 65 H 4.9324 1.11422 1.1746 0
M  V30 66 H 6.9244 -0.0201474 4.04695 0
M  V30 67 H 5.4944 -0.479437 3.08902 0
M  V30 68 H 4.7144 1.98608 3.40512 0
M  V30 69 H 6.0024 2.14885 4.61196 0
M  V30 70 H 5.4004 -0.878796 5.58832 0
M  V30 71 H 3.9574 -0.631115 6.48737 0
M  V30 72 N 7.3905 -1.2043 1.01659 0
M  V30 73 C 8.3225 -2.22626 0.544988 0
M  V30 74 C 9.3355 -1.58479 -0.372609 0
M  V30 75 O 10.5245 -1.77679 -0.170958 0
M  V30 76 C 7.6245 -3.38141 -0.22663 0
M  V30 77 C 6.7975 -4.31877 0.692876 0
M  V30 78 C 5.8565 -5.26191 -0.0311616 0
M  V30 79 O 4.8825 -5.6612 0.591343 0
M  V30 80 N 6.0845 -5.65618 -1.30601 0
M  V30 81 H 8.8495 -2.63716 1.42388 0
M  V30 82 H 6.4105 -1.34971 0.894116 0
M  V30 83 H 8.4025 -3.98239 -0.72024 0
M  V30 84 H 6.9725 -2.95943 -1.00681 0
M  V30 85 H 6.1925 -3.69746 1.36679 0
M  V30 86 H 7.4805 -4.91426 1.31824 0
M  V30 87 H 6.8785 -5.3519 -1.83269 0
M  V30 88 H 5.4355 -6.28025 -1.74435 0
M  V30 89 N 8.8686 -0.792821 -1.36206 0
M  V30 90 C 9.7986 -0.207853 -2.32573 0
M  V30 91 C 10.7796 0.659055 -1.56813 0
M  V30 92 O 11.9646 0.592176 -1.84951 0
M  V30 93 C 9.0946 0.655449 -3.41059 0
M  V30 94 C 8.0486 -0.111842 -4.27854 0
M  V30 95 C 7.3746 0.872274 -5.27537 0
M  V30 96 C 8.6746 -1.30299 -5.05786 0
M  V30 97 H 10.3686 -1.01294 -2.81744 0
M  V30 98 H 7.9146 -0.48854 -1.3546 0
M  V30 99 H 9.8676 1.07464 -4.07467 0
M  V30 100 H 8.5916 1.49328 -2.90463 0
M  V30 101 H 7.2506 -0.512053 -3.63006 0
M  V30 102 H 6.8986 1.70523 -4.73214 0
M  V30 103 H 6.5986 0.363291 -5.86476 0
M  V30 104 H 8.1226 1.28996 -5.96818 0
M  V30 105 H 9.5366 -0.959379 -5.65216 0
M  V30 106 H 7.9336 -1.7455 -5.74154 0
M  V30 107 H 9.0036 -2.09663 -4.37229 0
M  V30 108 N 10.3467 1.47872 -0.545128 0
M  V30 109 C 11.7627 1.5829 -0.204032 0
M  V30 110 C 11.9627 1.54529 1.29317 0
M  V30 111 O 11.0187 1.44232 2.07252 0
M  V30 112 C 12.3317 2.89304 -0.819987 0
M  V30 113 C 13.8797 3.02864 -0.790105 0
M  V30 114 C 14.3547 4.3656 -1.38491 0
M  V30 115 N 15.8457 4.43165 -1.34755 0
M  V30 116 C 16.5807 5.45153 -1.77753 0
M  V30 117 N 16.0767 6.54016 -2.2855 0
M  V30 118 N 17.8697 5.36125 -1.68897 0
M  V30 119 H 10.0207 1.4856 -1.51802 0
M  V30 120 H 12.2837 0.706305 -0.632327 0
M  V30 121 H 11.9897 2.97757 -1.87173 0
M  V30 122 H 11.8637 3.75957 -0.305915 0
M  V30 123 H 14.2507 2.94014 0.252913 0
M  V30 124 H 14.3317 2.17782 -1.34181 0
M  V30 125 H 13.9757 4.46164 -2.42693 0
M  V30 126 H 13.9057 5.20353 -0.808754 0
M  V30 127 H 16.3967 3.65083 -0.975855 0
M  V30 128 H 16.7097 7.27994 -2.59314 0
M  V30 129 H 15.0547 6.54938 -2.32553 0
M  V30 130 H 18.2457 4.49975 -1.28998 0
M  V30 131 H 18.4187 6.15472 -2.02726 0
M  V30 132 N 11.8248 0.280983 1.55075 0
M  V30 133 C 12.7878 -0.590896 2.21452 0
M  V30 134 C 13.7878 -1.07682 1.19421 0
M  V30 135 O 14.9778 -0.97605 1.44288 0
M  V30 136 C 12.1098 -1.81587 2.88511 0
M  V30 137 H 13.3028 -0.0112554 2.99898 0
M  V30 138 H 10.8558 0.0316438 1.56268 0
M  V30 139 H 11.5908 -2.43587 2.14093 0
M  V30 140 H 11.3758 -1.4753 3.63287 0
M  V30 141 H 12.8658 -2.43575 3.39206 0
M  V30 142 N 13.3029 -1.57598 0.00835791 0
M  V30 143 C 14.2129 -2.12385 -0.996487 0
M  V30 144 C 15.2289 -1.07108 -1.37127 0
M  V30 145 O 16.4049 -1.39055 -1.4569 0
M  V30 146 C 13.4699 -2.62314 -2.26699 0
M  V30 147 C 12.5309 -3.82225 -1.95456 0
M  V30 148 C 11.7639 -4.29763 -3.16449 0
M  V30 149 O 11.9869 -3.76584 -4.28416 0
M  V30 150 O 10.9209 -5.21832 -2.99958 0
M  V30 151 H 14.7469 -2.98479 -0.560725 0
M  V30 152 H 12.3319 -1.47903 -0.210987 0
M  V30 153 H 14.2139 -2.94589 -3.01322 0
M  V30 154 H 12.8889 -1.79313 -2.69497 0
M  V30 155 H 11.7959 -3.54909 -1.18282 0
M  V30 156 H 13.1289 -4.66324 -1.57489 0
M  V30 157 N 14.781 0.264519 -1.55364 0
M  V30 158 C 16.006 1.01726 -1.80739 0
M  V30 159 C 16.431 1.78836 -0.583044 0
M  V30 160 O 15.789 1.75167 0.467566 0
M  V30 161 C 15.837 1.94482 -3.03659 0
M  V30 162 O 14.941 3.03386 -2.7934 0
M  V30 163 H 14.282 0.290395 -0.597132 0
M  V30 164 H 16.812 0.290854 -2.02522 0
M  V30 165 H 16.822 2.36278 -3.32621 0
M  V30 166 H 15.497 1.37772 -3.92418 0
M  V30 167 H 14.074 2.65844 -2.61498 0
M  V30 168 N 16.2591 1.48442 0.529413 0
M  V30 169 C 17.5361 1.46978 1.29062 0
M  V30 170 C 17.9161 0.181769 2.10316 0
M  V30 171 O 17.2641 -0.836481 2.12639 0
M  V30 172 C 17.4741 2.7321 2.17157 0
M  V30 173 C 18.8221 3.21562 2.77278 0
M  V30 174 O 19.8461 2.74131 2.27444 0
M  V30 175 O 18.7051 4.04094 3.67927 0
M  V30 176 H 15.7991 0.587003 0.582543 0
M  V30 177 H 18.3451 1.60676 0.546021 0
M  V30 178 H 17.1171 3.58465 1.56903 0
M  V30 179 H 16.7401 2.62235 2.98862 0
M  V30 180 N 17.7372 -0.778329 1.37039 0
M  V30 181 C 18.9842 -1.53665 1.31884 0
M  V30 182 C 19.3122 -1.9425 -0.0986303 0
M  V30 183 O 18.5672 -1.63832 -1.07041 0
M  V30 184 C 18.8662 -2.81845 2.19768 0
M  V30 185 C 18.5322 -2.60345 3.68146 0
M  V30 186 C 17.1942 -2.5419 4.08584 0
M  V30 187 C 19.5462 -2.40923 4.62175 0
M  V30 188 C 16.8742 -2.26594 5.41177 0
M  V30 189 C 19.2262 -2.14852 5.94997 0
M  V30 190 C 17.8902 -2.07137 6.34547 0
M  V30 191 H 17.1602 -0.562299 0.482598 0
M  V30 192 H 19.8072 -0.897069 1.69189 0
M  V30 193 H 18.1122 -3.50328 1.75436 0
M  V30 194 H 19.8092 -3.39692 2.13097 0
M  V30 195 H 16.3992 -2.65996 3.36072 0
M  V30 196 H 20.5832 -2.44673 4.31797 0
M  V30 197 H 15.8392 -2.19111 5.70789 0
M  V30 198 H 20.0132 -1.98822 6.67415 0
M  V30 199 H 17.6402 -1.85518 7.37216 0
M  V30 200 N 19.2153 -1.21501 -1.00376 0
M  V30 201 C 20.1253 -0.991447 -2.12621 0
M  V30 202 C 21.1413 0.0568446 -1.73907 0
M  V30 203 O 22.3173 -0.13348 -2.00957 0
M  V30 204 C 19.3823 -0.560312 -3.42142 0
M  V30 205 C 18.4433 -1.68096 -3.95022 0
M  V30 206 C 17.6763 -1.2703 -5.18362 0
M  V30 207 O 17.8993 -0.144438 -5.70217 0
M  V30 208 O 16.8333 -2.08269 -5.64719 0
M  V30 209 H 20.6593 -1.93158 -2.34358 0
M  V30 210 H 18.2443 -0.999999 -1.10997 0
M  V30 211 H 20.1263 -0.329724 -4.20108 0
M  V30 212 H 18.8013 0.351089 -3.2179 0
M  V30 213 H 17.7083 -1.96597 -3.18278 0
M  V30 214 H 19.0413 -2.56983 -4.19786 0
M  V30 215 N 20.6934 1.19889 -1.02296 0
M  V30 216 C 21.6254 2.22334 -0.556787 0
M  V30 217 C 22.6384 1.58674 0.364199 0
M  V30 218 O 23.8274 1.77768 0.161533 0
M  V30 219 C 20.9274 3.38257 0.208694 0
M  V30 220 C 20.1004 4.31504 -0.71577 0
M  V30 221 C 19.1594 5.262 0.00325597 0
M  V30 222 O 18.1854 5.65798 -0.621357 0
M  V30 223 N 19.3874 5.66303 1.27599 0
M  V30 224 H 22.1524 2.62957 -1.43784 0
M  V30 225 H 19.7134 1.34495 -0.901261 0
M  V30 226 H 21.7054 3.98616 0.699111 0
M  V30 227 H 20.2754 2.96472 0.991102 0
M  V30 228 H 19.4954 3.69016 -1.38638 0
M  V30 229 H 20.7834 4.9072 -1.34428 0
M  V30 230 H 20.1814 5.36155 1.80429 0
M  V30 231 H 18.7384 6.28942 1.71102 0
M  V30 232 N 22.1715 0.800033 1.35784 0
M  V30 233 C 23.1015 0.220184 2.3246 0
M  V30 234 C 24.0825 -0.65073 1.57161 0
M  V30 235 O 25.2675 -0.582359 1.85263 0
M  V30 236 C 22.3975 -0.637353 3.41402 0
M  V30 237 C 21.3515 0.134531 4.27789 0
M  V30 238 C 20.6775 -0.844285 5.27992 0
M  V30 239 C 21.9775 1.32979 5.05088 0
M  V30 240 H 23.6715 1.02787 2.81203 0
M  V30 241 H 21.2175 0.495717 1.35199 0
M  V30 242 H 23.1705 -1.05302 4.08031 0
M  V30 243 H 21.8945 -1.47785 2.91251 0
M  V30 244 H 20.5535 0.531296 3.6273 0
M  V30 245 H 20.2015 -1.68011 4.74111 0
M  V30 246 H 19.9015 -0.332184 5.8666 0
M  V30 247 H 21.4255 -1.2583 5.97494 0
M  V30 248 H 22.8395 0.98934 5.64699 0
M  V30 249 H 21.2365 1.77593 5.7322 0
M  V30 250 H 22.3065 2.11978 4.36111 0
M  V30 251 N 23.6496 -1.47581 0.552962 0
M  V30 252 C 25.0606 -1.86324 0.118463 0
M  V30 253 C 25.4116 -1.46006 -1.3106 0
M  V30 254 O 24.5366 -0.861182 -1.98526 0
M  V30 255 C 25.1316 -3.3816 0.20821 0
M  V30 256 C 23.6906 -3.7601 -0.171226 0
M  V30 257 C 22.8376 -2.71634 0.557686 0
M  V30 258 H 25.7886 -1.39159 0.762928 0
M  V30 259 H 25.8096 -3.76141 -0.574278 0
M  V30 260 H 25.3216 -3.67473 1.24841 0
M  V30 261 H 23.4226 -3.52313 -1.21269 0
M  V30 262 H 23.5356 -4.78745 0.184379 0
M  V30 263 H 21.8996 -2.547 0.00125792 0
M  V30 264 H 22.6826 -3.0379 1.59896 0
M  V30 265 N 25.1277 -0.289203 -1.54924 0
M  V30 266 C 26.4047 0.376032 -1.91951 0
M  V30 267 C 26.7847 1.72622 -1.21511 0
M  V30 268 O 26.1327 2.25853 -0.346767 0
M  V30 269 C 26.3427 0.502378 -3.45365 0
M  V30 270 C 27.6907 0.778741 -4.17398 0
M  V30 271 O 28.7147 0.586647 -3.51336 0
M  V30 272 O 27.5737 1.14698 -5.34328 0
M  V30 273 H 24.6677 0.208167 -0.800372 0
M  V30 274 H 27.2137 -0.336394 -1.66332 0
M  V30 275 H 25.9857 -0.447255 -3.88736 0
M  V30 276 H 25.6087 1.26373 -3.76982 0
M  V30 277 N 26.6058 1.57591 -0.0167156 0
M  V30 278 C 27.8828 1.82547 0.702564 0
M  V30 279 C 28.2628 0.898018 1.91047 0
M  V30 280 O 27.6108 -0.0493456 2.28447 0
M  V30 281 C 27.8208 3.31459 1.09251 0
M  V30 282 C 29.1688 3.97622 1.48937 0
M  V30 283 O 30.1928 3.35881 1.18584 0
M  V30 284 O 29.0518 5.06415 2.05442 0
M  V30 285 H 26.1458 0.752268 0.343544 0
M  V30 286 H 28.6918 1.69644 -0.0434495 0
M  V30 287 H 27.4638 3.9061 0.23227 0
M  V30 288 H 27.0868 3.49422 1.89709 0
M  V30 289 N 28.0839 -0.256276 1.55502 0
M  V30 290 C 29.3299 -0.987079 1.77157 0
M  V30 291 C 29.6629 -1.85327 0.580315 0
M  V30 292 O 28.9379 -1.89874 -0.421686 0
M  V30 293 C 29.2209 -1.85553 3.08613 0
M  V30 294 C 29.0739 -1.01816 4.38125 0
M  V30 295 C 30.3929 -2.8397 3.36228 0
M  V30 296 H 27.5119 -0.357428 0.644526 0
M  V30 297 H 30.1539 -0.258239 1.88237 0
M  V30 298 H 28.3039 -2.47695 2.99298 0
M  V30 299 H 29.9759 -0.416159 4.59419 0
M  V30 300 H 28.2189 -0.322178 4.32602 0
M  V30 301 H 28.8899 -1.65939 5.26468 0
M  V30 302 H 31.3659 -2.31964 3.45445 0
M  V30 303 H 30.2419 -3.41864 4.29442 0
M  V30 304 H 30.5029 -3.59955 2.56681 0
M  V30 305 N 29.562 -1.4872 -0.521534 0
M  V30 306 C 30.525 -1.63379 -1.60748 0
M  V30 307 C 31.525 -0.50661 -1.52611 0
M  V30 308 O 32.715 -0.772601 -1.5613 0
M  V30 309 C 29.847 -1.61192 -3.00383 0
M  V30 310 H 31.04 -2.60217 -1.49087 0
M  V30 311 H 28.593 -1.37444 -0.744235 0
M  V30 312 H 29.328 -0.65863 -3.17541 0
M  V30 313 H 29.113 -2.43032 -3.07698 0
M  V30 314 H 30.603 -1.7466 -3.7932 0
M  V30 315 N 31.0401 0.771051 -1.3745 0
M  V30 316 C 32.2891 1.52491 -1.3202 0
M  V30 317 C 32.6021 1.9538 0.0927347 0
M  V30 318 O 33.8081 2.70159 0.269503 0
M  V30 319 C 32.2641 2.75366 -2.31736 0
M  V30 320 C 31.8721 2.39573 -3.78562 0
M  V30 321 C 33.6161 3.53307 -2.35318 0
M  V30 322 C 31.5231 3.58954 -4.70007 0
M  V30 323 H 30.4531 0.572506 -0.490666 0
M  V30 324 H 33.1041 0.844474 -1.62914 0
M  V30 325 H 31.4861 3.45303 -1.93861 0
M  V30 326 H 32.6601 1.77415 -4.25277 0
M  V30 327 H 30.9751 1.74805 -3.77932 0
M  V30 328 H 33.5721 4.42039 -3.00842 0
M  V30 329 H 33.9151 3.93217 -1.36698 0
M  V30 330 H 34.4481 2.90367 -2.71904 0
M  V30 331 H 31.1871 3.24125 -5.69757 0
M  V30 332 H 30.7071 4.20214 -4.27996 0
M  V30 333 H 32.3861 4.25758 -4.87175 0
M  V30 334 N 32.5182 1.22032 0.997298 0
M  V30 335 C 33.7432 1.06921 1.77715 0
M  V30 336 C 34.1682 -0.376226 1.84299 0
M  V30 337 O 33.5262 -1.27165 1.29223 0
M  V30 338 C 33.5742 1.67996 3.19076 0
M  V30 339 O 32.6782 0.930653 4.01762 0
M  V30 340 H 32.0192 0.375814 0.547412 0
M  V30 341 H 34.5492 1.61737 1.25309 0
M  V30 342 H 34.5592 1.72538 3.69723 0
M  V30 343 H 33.2342 2.73182 3.13599 0
M  V30 344 H 31.8112 0.960917 3.60307 0
M  V30 345 N 33.9963 -1.19345 1.0293 0
M  V30 346 C 34.9593 -2.20793 0.615069 0
M  V30 347 C 35.9593 -1.57553 -0.321533 0
M  V30 348 O 37.1493 -1.73862 -0.108483 0
M  V30 349 C 34.2813 -3.40754 -0.0999222 0
M  V30 350 H 35.4743 -2.58955 1.51269 0
M  V30 351 H 33.0273 -1.3303 0.820534 0
M  V30 352 H 33.7623 -3.0811 -1.01187 0
M  V30 353 H 33.5473 -3.87889 0.57309 0
M  V30 354 H 35.0373 -4.15898 -0.376645 0
M  V30 355 N 35.4744 -0.807222 -1.35358 0
M  V30 356 C 36.4224 -0.20614 -2.31685 0
M  V30 357 C 37.4164 0.644445 -1.56663 0
M  V30 358 O 38.6224 0.537538 -1.71786 0
M  V30 359 H 34.9974 -0.0479006 -0.750473 0
M  V30 360 H 36.9684 -1.03369 -2.79924 0
M  V30 361 C 35.7174 0.630212 -3.41941 0
M  V30 362 H 35.0404 -0.0149558 -3.99797 0
M  V30 363 H 36.4804 1.01716 -4.11619 0
M  V30 364 C 34.9394 1.79601 -2.85035 0
M  V30 365 O 35.4694 2.89351 -2.78637 0
M  V30 366 N 33.6754 1.60774 -2.42074 0
M  V30 367 H 33.2224 0.715009 -2.47478 0
M  V30 368 H 33.1804 2.38933 -2.04349 0
M  V30 369 N 36.9525 1.47285 -0.560781 0
M  V30 370 C 38.2015 2.01668 -0.035895 0
M  V30 371 C 38.5145 1.44021 1.32353 0
M  V30 372 O 39.7205 1.90088 1.93853 0
M  V30 373 C 38.1765 3.59897 -0.0136659 0
M  V30 374 C 37.7845 4.26536 -1.37006 0
M  V30 375 C 39.5285 4.22017 0.458425 0
M  V30 376 C 37.4355 5.76782 -1.30675 0
M  V30 377 H 36.3655 0.753938 -0.00964879 0
M  V30 378 H 39.0165 1.69243 -0.709166 0
M  V30 379 H 37.3985 3.89301 0.725325 0
M  V30 380 H 38.5725 4.0877 -2.12705 0
M  V30 381 H 36.8875 3.76419 -1.78038 0
M  V30 382 H 39.4845 5.32124 0.524247 0
M  V30 383 H 39.8275 3.89437 1.4712 0
M  V30 384 H 40.3605 3.97159 -0.225818 0
M  V30 385 H 37.0995 6.13988 -2.29564 0
M  V30 386 H 36.6195 5.96875 -0.591622 0
M  V30 387 H 38.2985 6.39063 -1.01033 0
M  V30 388 N 38.4306 0.297415 1.54768 0
M  V30 389 C 39.3936 -0.567375 2.22066 0
M  V30 390 C 40.3936 -1.06409 1.20556 0
M  V30 391 O 41.5836 -0.960691 1.45315 0
M  V30 392 C 38.7156 -1.78517 2.90421 0
M  V30 393 H 39.9086 0.0205534 2.99893 0
M  V30 394 H 37.4616 0.0482163 1.56226 0
M  V30 395 H 38.1966 -2.41303 2.16664 0
M  V30 396 H 37.9816 -1.43669 3.64831 0
M  V30 397 H 39.4716 -2.39964 3.41771 0
M  V30 398 N 39.9087 -1.5758 0.0250728 0
M  V30 399 C 41.1857 -1.82917 -0.692873 0
M  V30 400 C 41.5657 -0.908137 -1.90568 0
M  V30 401 O 40.9137 0.0372298 -2.2847 0
M  V30 402 C 41.1237 -3.32034 -1.07492 0
M  V30 403 C 42.4717 -3.98406 -1.46826 0
M  V30 404 O 43.4957 -3.36505 -1.16801 0
M  V30 405 O 42.3547 -5.07497 -2.02754 0
M  V30 406 H 39.4487 -0.754079 -0.33955 0
M  V30 407 H 41.9947 -1.69619 0.0524456 0
M  V30 408 H 40.7667 -3.90728 -0.211552 0
M  V30 409 H 40.3897 -3.50424 -1.87854 0
M  V30 410 N 41.3868 0.248026 -1.55636 0
M  V30 411 C 42.6358 0.974134 -1.76617 0
M  V30 412 C 42.9488 1.86528 -0.588796 0
M  V30 413 O 44.1548 2.62805 -0.681594 0
M  V30 414 C 42.6108 1.78213 -3.12679 0
M  V30 415 C 42.2188 0.93843 -4.38061 0
M  V30 416 C 43.9628 2.50104 -3.42999 0
M  V30 417 C 41.8698 1.74225 -5.65155 0
M  V30 418 H 40.7998 0.36745 -0.658405 0
M  V30 419 H 43.4508 0.22884 -1.82067 0
M  V30 420 H 41.8328 2.56933 -3.01333 0
M  V30 421 H 43.0068 0.193635 -4.60393 0
M  V30 422 H 41.3218 0.332905 -4.15067 0
M  V30 423 H 43.9188 3.10694 -4.3517 0
M  V30 424 H 44.2618 3.21662 -2.64271 0
M  V30 425 H 44.7948 1.78395 -3.55556 0
M  V30 426 H 41.5338 1.07043 -6.46701 0
M  V30 427 H 41.0538 2.46235 -5.46926 0
M  V30 428 H 42.7328 2.30967 -6.0437 0
M  V30 429 N 42.8649 1.48995 0.513639 0
M  V30 430 C 43.7749 1.67443 1.64317 0
M  V30 431 C 44.7909 0.556947 1.64846 0
M  V30 432 O 45.9669 0.830082 1.83498 0
M  V30 433 C 43.0319 1.72515 3.00732 0
M  V30 434 C 42.0929 2.96009 3.1093 0
M  V30 435 C 41.3259 3.00829 4.40837 0
M  V30 436 O 41.5489 2.13594 5.28898 0
M  V30 437 O 40.4829 3.93168 4.55744 0
M  V30 438 H 44.3089 2.63106 1.51687 0
M  V30 439 H 41.8939 1.32588 0.688543 0
M  V30 440 H 43.7759 1.78277 3.81831 0
M  V30 441 H 42.4509 0.800278 3.13651 0
M  V30 442 H 41.3579 2.9577 2.29065 0
M  V30 443 H 42.6909 3.87934 3.02933 0
M  V30 444 N 44.343 -0.763751 1.37857 0
M  V30 445 C 45.253 -1.90817 1.36478 0
M  V30 446 C 46.269 -1.71997 0.263248 0
M  V30 447 O 47.445 -1.95095 0.499979 0
M  V30 448 C 44.51 -3.2605 1.17864 0
M  V30 449 C 43.571 -3.57467 2.3773 0
M  V30 450 C 42.804 -4.86249 2.19995 0
M  V30 451 O 43.027 -5.57884 1.18836 0
M  V30 452 O 41.961 -5.16911 3.08361 0
M  V30 453 H 45.787 -1.94933 2.32884 0
M  V30 454 H 43.372 -0.907619 1.1867 0
M  V30 455 H 45.254 -4.06924 1.09504 0
M  V30 456 H 43.929 -3.22769 0.245372 0
M  V30 457 H 42.836 -2.76796 2.51664 0
M  V30 458 H 44.169 -3.655 3.29652 0
M  V30 459 N 45.8211 -1.22559 -0.990812 0
M  V30 460 C 46.7681 -0.997519 -2.0813 0
M  V30 461 C 47.7381 0.0814702 -1.659 0
M  V30 462 O 48.9231 -0.0685424 -1.90677 0
M  V30 463 C 46.0631 -0.583615 -3.40129 0
M  V30 464 C 45.1761 -1.7336 -3.9569 0
M  V30 465 C 44.3111 -1.26748 -5.15857 0
M  V30 466 C 43.3501 -2.38888 -5.63559 0
M  V30 467 N 42.4871 -1.93308 -6.74964 0
M  V30 468 H 47.3271 -1.93099 -2.26973 0
M  V30 469 H 44.8641 -0.962114 -1.11273 0
M  V30 470 H 46.8221 -0.324801 -4.15934 0
M  V30 471 H 45.4521 0.312845 -3.2128 0
M  V30 472 H 44.5041 -2.10669 -3.16738 0
M  V30 473 H 45.8161 -2.57704 -4.27071 0
M  V30 474 H 44.9701 -0.966173 -5.98957 0
M  V30 475 H 43.7091 -0.394272 -4.86104 0
M  V30 476 H 42.7141 -2.69805 -4.79046 0
M  V30 477 H 43.9391 -3.26728 -5.95336 0
M  V30 478 H 41.8851 -1.08352 -6.4699 0
M  V30 479 H 41.8021 -2.71217 -7.05675 0
M  V30 480 H 43.0701 -1.66252 -7.61564 0
M  V30 481 N 47.2992 1.18797 -1.03562 0
M  V30 482 C 48.7152 1.40671 -0.753917 0
M  V30 483 C 48.9152 1.9043 0.658686 0
M  V30 484 O 47.9712 2.08538 1.42366 0
M  V30 485 C 49.2842 2.41192 -1.79574 0
M  V30 486 C 50.8322 2.54928 -1.81606 0
M  V30 487 C 51.3072 3.58709 -2.84766 0
M  V30 488 N 52.7982 3.66212 -2.83625 0
M  V30 489 C 53.5332 4.46225 -3.60098 0
M  V30 490 N 53.0292 5.29888 -4.46308 0
M  V30 491 N 54.8222 4.40939 -3.4861 0
M  V30 492 H 46.9732 0.848221 -1.94728 0
M  V30 493 H 49.2362 0.435081 -0.842264 0
M  V30 494 H 48.9422 2.11669 -2.80872 0
M  V30 495 H 48.8162 3.40467 -1.62365 0
M  V30 496 H 51.2032 2.83771 -0.809817 0
M  V30 497 H 51.2842 1.55784 -2.02891 0
M  V30 498 H 50.9282 3.30607 -3.85566 0
M  V30 499 H 50.8582 4.57519 -2.60737 0
M  V30 500 H 53.3492 3.06466 -2.21105 0
M  V30 501 H 53.6622 5.88078 -5.01382 0
M  V30 502 H 52.0072 5.29326 -4.50377 0
M  V30 503 H 55.1982 3.74624 -2.80668 0
M  V30 504 H 55.3712 5.03056 -4.08459 0
M  V30 505 N 48.7773 0.814389 1.34928 0
M  V30 506 C 50.0253 0.397636 1.9815 0
M  V30 507 C 50.3463 -1.04069 1.64908 0
M  V30 508 O 49.6163 -1.72121 0.93548 0
M  V30 509 H 48.1963 0.144043 0.732981 0
M  V30 510 H 50.8583 1.04195 1.6471 0
M  V30 511 H 49.9543 0.509688 3.0791 0
M  V30 512 N 50.2554 -1.46986 0.568584 0
M  V30 513 C 51.5024 -2.02441 0.0487986 0
M  V30 514 C 51.8304 -1.44169 -1.30559 0
M  V30 515 O 51.0854 -0.591213 -1.86556 0
M  V30 516 C 51.3844 -3.57306 -0.081836 0
M  V30 517 C 51.0504 -4.34552 1.20313 0
M  V30 518 C 49.7124 -4.55376 1.5552 0
M  V30 519 C 52.0644 -4.79016 2.05411 0
M  V30 520 C 49.3924 -5.17913 2.7565 0
M  V30 521 C 51.7444 -5.42879 3.24754 0
M  V30 522 C 50.4084 -5.61933 3.60261 0
M  V30 523 H 49.6784 -0.740785 0.0178567 0
M  V30 524 H 52.3254 -1.76525 0.742384 0
M  V30 525 H 50.6304 -3.8228 -0.858463 0
M  V30 526 H 52.3274 -3.97876 -0.499546 0
M  V30 527 H 48.9174 -4.18631 0.919014 0
M  V30 528 H 53.1014 -4.62696 1.79516 0
M  V30 529 H 48.3574 -5.30858 3.03315 0
M  V30 530 H 52.5314 -5.76293 3.90973 0
M  V30 531 H 50.1584 -6.10161 4.53439 0
M  V30 532 N 51.7335 -0.305618 -1.54608 0
M  V30 533 C 52.9615 0.304775 -2.04643 0
M  V30 534 C 53.3765 1.47167 -1.18268 0
M  V30 535 O 52.7335 1.81296 -0.209328 0
M  V30 536 C 52.7845 0.756564 -3.53495 0
M  V30 537 O 52.5055 -0.36389 -4.36586 0
M  V30 538 C 54.0065 1.43163 -4.19546 0
M  V30 539 H 51.2265 0.0655481 -0.667791 0
M  V30 540 H 53.7705 -0.446592 -1.99564 0
M  V30 541 H 51.9255 1.45794 -3.58919 0
M  V30 542 H 52.3395 -0.0113121 -5.24499 0
M  V30 543 H 53.8135 1.69886 -5.25207 0
M  V30 544 H 54.2905 2.37318 -3.69563 0
M  V30 545 H 54.8965 0.773307 -4.18211 0
M  V30 546 N 53.2116 1.57565 -0.0334293 0
M  V30 547 C 54.4366 1.96689 0.657895 0
M  V30 548 C 54.8616 0.910057 1.64619 0
M  V30 549 O 54.2196 -0.128598 1.80843 0
M  V30 550 C 54.2676 3.34905 1.33683 0
M  V30 551 O 53.3716 3.31574 2.45219 0
M  V30 552 H 52.7126 0.641205 0.172489 0
M  V30 553 H 55.2426 2.04372 -0.0965621 0
M  V30 554 H 55.2526 3.71234 1.69262 0
M  V30 555 H 53.9276 4.11366 0.612411 0
M  V30 556 H 52.5046 3.06968 2.11719 0
M  V30 557 N 54.6897 -0.239769 1.55765 0
M  V30 558 C 55.6397 -1.30002 1.87306 0
M  V30 559 C 56.6237 -1.43156 0.73452 0
M  V30 560 O 57.8157 -1.46277 0.99659 0
M  V30 561 C 54.9447 -2.65409 2.17745 0
M  V30 562 C 54.0307 -2.56231 3.37945 0
M  V30 563 N 54.4217 -2.16689 4.57033 0
M  V30 564 C 52.7197 -2.87229 3.41197 0
M  V30 565 C 53.4207 -2.18318 5.39177 0
M  V30 566 N 52.3967 -2.58098 4.78421 0
M  V30 567 H 56.1987 -0.984912 2.76906 0
M  V30 568 H 53.7127 -0.448381 1.56087 0
M  V30 569 H 55.7097 -3.41934 2.38509 0
M  V30 570 H 54.3697 -2.97781 1.29448 0
M  V30 571 H 55.3807 -1.88116 4.82528 0
M  V30 572 H 52.0577 -3.24094 2.63191 0
M  V30 573 H 53.4477 -1.90025 6.44469 0
M  V30 574 N 56.1678 -1.49265 -0.50573 0
M  V30 575 C 57.4148 -1.58513 -1.26015 0
M  V30 576 C 57.7428 -0.26972 -1.92621 0
M  V30 577 O 56.9978 0.741997 -1.81088 0
M  V30 578 C 57.2968 -2.69008 -2.35308 0
M  V30 579 C 56.9628 -4.10662 -1.86192 0
M  V30 580 C 55.6248 -4.49212 -1.72516 0
M  V30 581 C 57.9768 -4.99336 -1.49375 0
M  V30 582 C 55.3048 -5.74214 -1.20394 0
M  V30 583 C 57.6568 -6.24852 -0.987072 0
M  V30 584 C 56.3208 -6.62236 -0.836669 0
M  V30 585 H 55.5908 -0.580041 -0.461122 0
M  V30 586 H 58.2378 -1.83078 -0.561665 0
M  V30 587 H 56.5428 -2.38396 -3.10926 0
M  V30 588 H 58.2398 -2.73373 -2.93374 0
M  V30 589 H 54.8298 -3.8023 -1.97795 0
M  V30 590 H 59.0138 -4.70212 -1.5879 0
M  V30 591 H 54.2698 -6.01883 -1.07458 0
M  V30 592 H 58.4438 -6.92944 -0.692983 0
M  V30 593 H 56.0708 -7.58979 -0.430607 0
M  V30 594 N 57.6459 0.756429 -1.3826 0
M  V30 595 C 58.8919 1.51772 -1.34511 0
M  V30 596 C 59.2249 1.94089 0.0656691 0
M  V30 597 O 58.4999 1.65221 1.02626 0
M  V30 598 C 58.7829 2.77226 -2.29821 0
M  V30 599 C 58.6359 2.41065 -3.79747 0
M  V30 600 C 59.9549 3.79236 -2.23312 0
M  V30 601 H 57.0739 0.550578 -0.489931 0
M  V30 602 H 59.7159 0.866607 -1.69086 0
M  V30 603 H 57.8659 3.32784 -2.00467 0
M  V30 604 H 59.5379 1.91303 -4.19763 0
M  V30 605 H 57.7809 1.7356 -3.97567 0
M  V30 606 H 58.4519 3.3081 -4.41892 0
M  V30 607 H 60.9279 3.3321 -2.49219 0
M  V30 608 H 59.8039 4.64714 -2.92116 0
M  V30 609 H 60.0649 4.24615 -1.23102 0
M  V30 610 N 59.124 1.23083 0.984299 0
M  V30 611 C 60.371 1.06057 1.72505 0
M  V30 612 C 60.699 -0.403105 1.90277 0
M  V30 613 O 59.954 -1.3149 1.44944 0
M  V30 614 C 60.253 1.72673 3.1292 0
M  V30 615 C 59.919 3.22586 3.15038 0
M  V30 616 C 58.581 3.63489 3.15324 0
M  V30 617 C 60.933 4.185 3.10657 0
M  V30 618 C 58.261 4.98772 3.08939 0
M  V30 619 C 60.613 5.53769 3.05814 0
M  V30 620 C 59.277 5.94041 3.04419 0
M  V30 621 H 58.547 0.388091 0.631242 0
M  V30 622 H 61.194 1.52963 1.15215 0
M  V30 623 H 59.499 1.18116 3.73572 0
M  V30 624 H 61.196 1.56982 3.68996 0
M  V30 625 H 57.786 2.90022 3.15571 0
M  V30 626 H 61.97 3.87911 3.09579 0
M  V30 627 H 57.226 5.29193 3.0621 0
M  V30 628 H 61.4 6.27808 3.0138 0
M  V30 629 H 59.027 6.98833 2.99227 0
M  V30 630 N 60.6021 -1.18246 1.0419 0
M  V30 631 C 61.8481 -1.88536 0.747122 0
M  V30 632 C 62.1811 -1.80223 -0.723409 0
M  V30 633 O 61.4561 -1.20337 -1.52804 0
M  V30 634 C 61.7391 -3.38968 1.21544 0
M  V30 635 C 61.5921 -3.56084 2.74816 0
M  V30 636 C 62.9111 -4.32648 0.806482 0
M  V30 637 H 60.0301 -0.684619 0.272883 0
M  V30 638 H 62.6721 -1.39113 1.29413 0
M  V30 639 H 60.8221 -3.8119 0.750081 0
M  V30 640 H 62.4941 -3.22946 3.29399 0
M  V30 641 H 60.7371 -2.98699 3.14582 0
M  V30 642 H 61.4081 -4.61639 3.02644 0
M  V30 643 H 63.8841 -3.98211 1.20695 0
M  V30 644 H 62.7601 -5.36462 1.1619 0
M  V30 645 H 63.0211 -4.41146 -0.29029 0
M  V30 646 N 62.0802 -0.821533 -1.34494 0
M  V30 647 C 63.3292 -0.405355 -1.97585 0
M  V30 648 C 63.6422 1.03677 -1.65863 0
M  V30 649 O 64.8482 1.55679 -2.22433 0
M  V30 650 C 63.3042 -0.673861 -3.53535 0
M  V30 651 C 62.9122 -2.12951 -3.94152 0
M  V30 652 C 64.6562 -0.32378 -4.23263 0
M  V30 653 C 62.5632 -2.34298 -5.43009 0
M  V30 654 H 61.4932 -0.147836 -0.739365 0
M  V30 655 H 64.1442 -1.00769 -1.53355 0
M  V30 656 H 62.5262 -0.00137554 -3.96 0
M  V30 657 H 63.7002 -2.84104 -3.62797 0
M  V30 658 H 62.0152 -2.44089 -3.37356 0
M  V30 659 H 64.6122 -0.461126 -5.32708 0
M  V30 660 H 64.9552 0.731586 -4.09821 0
M  V30 661 H 65.4882 -0.950786 -3.8627 0
M  V30 662 H 62.2272 -3.38335 -5.61435 0
M  V30 663 H 61.7472 -1.67687 -5.75883 0
M  V30 664 H 63.4262 -2.16588 -6.09671 0
M  V30 665 N 63.5583 1.46682 -0.576371 0
M  V30 666 C 64.4683 2.34032 0.163141 0
M  V30 667 C 65.4843 1.49367 0.892501 0
M  V30 668 O 66.6603 1.82252 0.857106 0
M  V30 669 C 63.7253 3.26435 1.16795 0
M  V30 670 C 62.7863 4.26998 0.443944 0
M  V30 671 C 62.0193 5.14986 1.40088 0
M  V30 672 O 62.2423 5.05785 2.637 0
M  V30 673 O 61.1763 5.94906 0.914917 0
M  V30 674 H 65.0023 2.98607 -0.55388 0
M  V30 675 H 62.5873 1.45554 -0.336821 0
M  V30 676 H 64.4693 3.83459 1.74748 0
M  V30 677 H 63.1443 2.64465 1.86655 0
M  V30 678 H 62.0513 3.7368 -0.177271 0
M  V30 679 H 63.3843 4.91736 -0.213566 0
M  V30 680 N 65.0364 0.313813 1.54444 0
M  V30 681 C 66.2824 -0.292108 2.00685 0
M  V30 682 C 66.6154 -1.52548 1.20177 0
M  V30 683 O 65.8904 -1.92452 0.281531 0
M  V30 684 C 66.1734 -0.635968 3.5444 0
M  V30 685 C 66.0264 0.607437 4.4568 0
M  V30 686 C 67.3454 -1.45747 4.15266 0
M  V30 687 H 64.4644 -0.104697 0.729526 0
M  V30 688 H 67.1064 0.428457 1.85106 0
M  V30 689 H 65.2564 -1.24986 3.67846 0
M  V30 690 H 66.9284 1.24581 4.44159 0
M  V30 691 H 65.1714 1.23822 4.15753 0
M  V30 692 H 65.8424 0.322515 5.51057 0
M  V30 693 H 68.3184 -0.938645 4.05375 0
M  V30 694 H 67.1944 -1.66683 5.2298 0
M  V30 695 H 67.4554 -2.45063 3.67963 0
M  V30 696 N 66.5145 -1.57545 0.0417849 0
M  V30 697 C 67.4615 -2.10977 -0.935805 0
M  V30 698 C 68.4315 -1.01486 -1.31491 0
M  V30 699 O 69.6165 -1.2898 -1.40602 0
M  V30 700 C 66.7565 -2.65169 -2.2086 0
M  V30 701 C 65.8695 -3.88714 -1.88482 0
M  V30 702 C 65.0045 -4.31254 -3.1015 0
M  V30 703 C 64.0435 -5.47524 -2.7365 0
M  V30 704 N 63.1805 -5.85162 -3.87982 0
M  V30 705 H 68.0205 -2.94218 -0.473249 0
M  V30 706 H 65.5575 -1.45415 -0.221981 0
M  V30 707 H 67.5155 -2.94685 -2.95325 0
M  V30 708 H 66.1455 -1.8474 -2.64709 0
M  V30 709 H 65.1975 -3.65849 -1.04205 0
M  V30 710 H 66.5095 -4.73245 -1.57608 0
M  V30 711 H 65.6635 -4.62273 -3.92923 0
M  V30 712 H 64.4025 -3.45516 -3.44195 0
M  V30 713 H 63.4075 -5.16187 -1.89291 0
M  V30 714 H 64.6325 -6.34971 -2.40807 0
M  V30 715 H 62.5785 -5.02377 -4.21846 0
M  V30 716 H 62.4955 -6.64362 -3.60775 0
M  V30 717 H 63.7635 -6.20791 -4.71422 0
M  V30 718 N 67.9926 0.231505 -1.5589 0
M  V30 719 C 69.2206 0.974505 -1.82513 0
M  V30 720 C 69.6356 1.78344 -0.619591 0
M  V30 721 O 68.9926 1.77792 0.411848 0
M  V30 722 C 69.0436 1.90007 -3.07538 0
M  V30 723 O 68.7646 1.12385 -4.2344 0
M  V30 724 C 70.2656 2.75779 -3.47075 0
M  V30 725 H 67.4856 0.286065 -0.606966 0
M  V30 726 H 70.0296 0.249739 -2.02969 0
M  V30 727 H 68.1846 2.57891 -2.89086 0
M  V30 728 H 68.5986 1.75125 -4.944 0
M  V30 729 H 70.0726 3.36443 -4.37619 0
M  V30 730 H 70.5496 3.47672 -2.68367 0
M  V30 731 H 71.1556 2.13323 -3.67931 0
M  V30 732 N 69.4707 1.49531 0.497807 0
M  V30 733 C 70.4177 1.66436 1.59899 0
M  V30 734 C 71.3877 0.505793 1.58212 0
M  V30 735 O 72.5727 0.733202 1.7615 0
M  V30 736 C 69.7127 1.7399 2.98029 0
M  V30 737 C 68.8257 3.01172 3.09708 0
M  V30 738 C 67.9607 2.99686 4.38591 0
M  V30 739 C 66.9997 4.21434 4.43914 0
M  V30 740 N 66.1367 4.1784 5.64229 0
M  V30 741 H 70.9767 2.60459 1.44793 0
M  V30 742 H 68.5137 1.29137 0.704423 0
M  V30 743 H 70.4717 1.76352 3.78095 0
M  V30 744 H 69.1017 0.834301 3.11832 0
M  V30 745 H 68.1537 3.08408 2.22685 0
M  V30 746 H 69.4657 3.91165 3.09502 0
M  V30 747 H 68.6197 3.00628 5.2698 0
M  V30 748 H 67.3587 2.07477 4.41367 0
M  V30 749 H 66.3637 4.20733 3.53926 0
M  V30 750 H 67.5887 5.14839 4.42851 0
M  V30 751 H 65.5347 3.28469 5.67841 0
M  V30 752 H 65.4517 5.01571 5.65652 0
M  V30 753 H 66.7197 4.22889 6.54817 0
M  V30 754 N 70.9488 -0.749086 1.3866 0
M  V30 755 C 72.1968 -1.50535 1.34847 0
M  V30 756 C 72.5178 -1.94909 -0.0595016 0
M  V30 757 O 71.7878 -1.67973 -1.00806 0
M  V30 758 H 70.3678 -0.558395 0.49619 0
M  V30 759 H 73.0298 -0.890165 1.73384 0
M  V30 760 H 72.1258 -2.39413 2.00219 0
M  V30 761 N 72.4269 -1.23603 -0.977757 0
M  V30 762 C 73.6749 -1.06759 -1.71601 0
M  V30 763 C 73.9959 0.395929 -1.90938 0
M  V30 764 O 73.2659 1.28356 -1.47992 0
M  V30 765 H 71.8459 -0.392062 -0.635843 0
M  V30 766 H 74.5079 -1.55362 -1.1768 0
M  V30 767 H 73.6039 -1.55763 -2.70452 0
M  V30 768 N 73.905 1.17692 -1.04816 0
M  V30 769 C 75.13 1.92327 -0.776207 0
M  V30 770 C 75.555 1.76082 0.661581 0
M  V30 771 O 74.913 1.076 1.45917 0
M  V30 772 C 74.961 3.41539 -1.15687 0
M  V30 773 O 74.065 4.11402 -0.286775 0
M  V30 774 H 73.406 0.599735 -0.284981 0
M  V30 775 H 75.936 1.49201 -1.4 0
M  V30 776 H 75.946 3.92269 -1.12202 0
M  V30 777 H 74.621 3.52684 -2.20425 0
M  V30 778 H 73.198 3.70939 -0.381903 0
M  V30 779 N 75.3831 0.828654 1.34056 0
M  V30 780 C 76.3301 0.252567 2.29414 0
M  V30 781 C 77.3001 -0.62588 1.53857 0
M  V30 782 O 78.4851 -0.566312 1.82202 0
M  V30 783 C 75.6251 -0.574831 3.40279 0
M  V30 784 C 74.7381 0.326499 4.30764 0
M  V30 785 C 73.8731 -0.511016 5.28736 0
M  V30 786 C 72.9121 0.389342 6.1086 0
M  V30 787 N 72.0491 -0.409439 7.00905 0
M  V30 788 H 76.8891 1.07108 2.78086 0
M  V30 789 H 74.4261 0.539677 1.36843 0
M  V30 790 H 76.3841 -1.06992 4.03248 0
M  V30 791 H 75.0141 -1.35841 2.92826 0
M  V30 792 H 74.0661 0.939837 3.68607 0
M  V30 793 H 75.3781 1.01857 4.88289 0
M  V30 794 H 74.5321 -1.07035 5.97184 0
M  V30 795 H 73.2711 -1.23657 4.71763 0
M  V30 796 H 72.2761 0.960769 5.4134 0
M  V30 797 H 73.5011 1.1131 6.69916 0
M  V30 798 H 71.4471 -1.11856 6.46393 0
M  V30 799 H 71.3641 0.224126 7.55668 0
M  V30 800 H 72.6321 -0.951336 7.73673 0
M  V30 801 N 76.8612 -1.46375 0.584142 0
M  V30 802 C 78.0912 -2.06461 0.0758195 0
M  V30 803 C 78.4992 -1.43322 -1.23512 0
M  V30 804 O 77.8422 -0.533216 -1.75791 0
M  V30 805 C 77.9042 -3.59131 -0.162773 0
M  V30 806 C 77.5682 -4.4447 1.06279 0
M  V30 807 C 78.5652 -4.80918 1.97519 0
M  V30 808 C 76.2502 -4.85584 1.28504 0
M  V30 809 C 78.2442 -5.57309 3.09331 0
M  V30 810 C 75.9312 -5.61734 2.4062 0
M  V30 811 C 76.9292 -5.9751 3.30863 0
M  V30 812 O 76.6172 -6.72121 4.41032 0
M  V30 813 H 76.3492 -0.673745 0.0551725 0
M  V30 814 H 78.9032 -1.88969 0.804984 0
M  V30 815 H 77.1332 -3.74936 -0.946565 0
M  V30 816 H 78.8222 -4.0114 -0.619782 0
M  V30 817 H 79.5882 -4.49732 1.81565 0
M  V30 818 H 75.4672 -4.57187 0.591702 0
M  V30 819 H 79.0112 -5.85152 3.79793 0
M  V30 820 H 74.9082 -5.92334 2.56537 0
M  V30 821 H 75.6762 -6.90547 4.39417 0
M  V30 822 N 78.3393 -0.321999 -1.54275 0
M  V30 823 C 79.2693 0.537411 -2.27231 0
M  V30 824 C 80.2503 1.12064 -1.27968 0
M  V30 825 O 81.4353 1.14606 -1.56777 0
M  V30 826 C 78.5653 1.69919 -3.02894 0
M  V30 827 C 77.5193 1.24534 -4.09482 0
M  V30 828 C 76.8453 2.49394 -4.72977 0
M  V30 829 C 78.1453 0.361335 -5.21049 0
M  V30 830 H 79.8393 -0.0711406 -2.99315 0
M  V30 831 H 77.3853 -0.0356555 -1.43956 0
M  V30 832 H 79.3383 2.30668 -3.52662 0
M  V30 833 H 78.0623 2.33431 -2.28424 0
M  V30 834 H 76.7213 0.660782 -3.60596 0
M  V30 835 H 76.3693 3.11265 -3.95124 0
M  V30 836 H 76.0693 2.19718 -5.44975 0
M  V30 837 H 77.5933 3.10908 -5.25517 0
M  V30 838 H 79.0073 0.875072 -5.66582 0
M  V30 839 H 77.4043 0.157428 -5.99893 0
M  V30 840 H 78.4743 -0.60822 -4.8107 0
M  V30 841 N 79.8174 1.5752 -0.0501392 0
M  V30 842 C 81.0664 1.91827 0.623328 0
M  V30 843 C 81.3794 0.930222 1.72065 0
M  V30 844 O 82.5854 1.1653 2.4522 0
M  V30 845 C 81.0414 3.40692 1.16003 0
M  V30 846 C 80.6494 4.479 0.0948811 0
M  V30 847 C 82.3934 3.84034 1.80881 0
M  V30 848 C 80.3004 5.87879 0.644411 0
M  V30 849 H 79.2304 0.715918 0.236596 0
M  V30 850 H 81.8814 1.83115 -0.118861 0
M  V30 851 H 80.2634 3.44405 1.9545 0
M  V30 852 H 81.4374 4.55775 -0.678675 0
M  V30 853 H 79.7524 4.13892 -0.45637 0
M  V30 854 H 82.3494 4.85984 2.22988 0
M  V30 855 H 82.6924 3.20225 2.6601 0
M  V30 856 H 83.2254 3.82833 1.0809 0
M  V30 857 H 79.9644 6.55282 -0.169229 0
M  V30 858 H 79.4844 5.83567 1.38598 0
M  V30 859 H 81.1634 6.37098 1.12763 0
M  V30 860 N 81.2955 -0.223234 1.56011 0
M  V30 861 C 82.5255 -0.963413 1.82762 0
M  V30 862 C 82.9335 -1.78516 0.626804 0
M  V30 863 O 82.2765 -1.78974 -0.414014 0
M  V30 864 C 82.3385 -1.93126 3.0322 0
M  V30 865 C 82.0025 -1.2942 4.38291 0
M  V30 866 C 82.9995 -0.684916 5.15369 0
M  V30 867 C 80.6845 -1.30647 4.85012 0
M  V30 868 C 82.6785 -0.0963971 6.37327 0
M  V30 869 C 80.3655 -0.71411 6.06913 0
M  V30 870 C 81.3635 -0.110123 6.82911 0
M  V30 871 O 81.0515 0.47303 8.02507 0
M  V30 872 H 80.7835 -0.288011 0.611576 0
M  V30 873 H 83.3375 -0.244103 2.03944 0
M  V30 874 H 81.5675 -2.68952 2.77852 0
M  V30 875 H 83.2565 -2.53685 3.16857 0
M  V30 876 H 84.0225 -0.667774 4.80381 0
M  V30 877 H 79.9015 -1.76598 4.25833 0
M  V30 878 H 83.4455 0.375657 6.96588 0
M  V30 879 H 79.3425 -0.728659 6.41374 0
M  V30 880 H 80.1105 0.367186 8.17676 0
M  V30 881 N 82.7736 -1.49793 -0.48987 0
M  V30 882 C 84.1896 -1.36803 -0.822022 0
M  V30 883 C 84.3896 -0.409652 -1.97292 0
M  V30 884 O 83.4456 0.154614 -2.52026 0
M  V30 885 C 84.7586 -2.77768 -1.15175 0
M  V30 886 C 86.3066 -2.86549 -1.25931 0
M  V30 887 C 86.7816 -4.28306 -1.62228 0
M  V30 888 N 88.2726 -4.31169 -1.69256 0
M  V30 889 C 89.0076 -5.37832 -1.98807 0
M  V30 890 N 88.5036 -6.54726 -2.26507 0
M  V30 891 N 90.2966 -5.25258 -2.00152 0
M  V30 892 H 82.4476 -2.10691 0.268881 0
M  V30 893 H 84.7106 -0.946241 0.057728 0
M  V30 894 H 84.4166 -3.49648 -0.379335 0
M  V30 895 H 84.2906 -3.13836 -2.09253 0
M  V30 896 H 86.6776 -2.14899 -2.02243 0
M  V30 897 H 86.7586 -2.54049 -0.298776 0
M  V30 898 H 86.4026 -5.00486 -0.864622 0
M  V30 899 H 86.3326 -4.58279 -2.594 0
M  V30 900 H 88.8236 -3.4687 -1.49965 0
M  V30 901 H 89.1366 -7.31833 -2.48276 0
M  V30 902 H 87.4816 -6.57933 -2.23939 0
M  V30 903 H 90.6726 -4.32938 -1.77996 0
M  V30 904 H 90.8456 -6.08476 -2.22848 0
M  V30 905 N 84.2517 0.741722 -1.39055 0
M  V30 906 C 85.6677 1.04638 -1.20512 0
M  V30 907 C 85.8677 2.01405 -0.0620218 0
M  V30 908 O 84.9237 2.45547 0.588457 0
M  V30 909 C 86.2367 1.6151 -2.53643 0
M  V30 910 C 87.7847 1.73623 -2.6043 0
M  V30 911 C 88.2597 2.33906 -3.93767 0
M  V30 912 N 89.7507 2.41323 -3.9537 0
M  V30 913 C 90.4857 2.88888 -4.95309 0
M  V30 914 N 89.9817 3.36401 -6.05645 0
M  V30 915 N 91.7747 2.88037 -4.82692 0
M  V30 916 H 83.9257 0.0998155 -2.12165 0
M  V30 917 H 86.1887 0.106907 -0.941953 0
M  V30 918 H 85.8947 0.978739 -3.37807 0
M  V30 919 H 85.7687 2.60411 -2.72885 0
M  V30 920 H 88.1557 2.36384 -1.76655 0
M  V30 921 H 88.2367 0.733945 -2.45045 0
M  V30 922 H 87.8807 1.71776 -4.7797 0
M  V30 923 H 87.8107 3.34799 -4.06469 0
M  V30 924 H 90.3017 2.07734 -3.15682 0
M  V30 925 H 90.6147 3.71186 -6.77821 0
M  V30 926 H 88.9597 3.34427 -6.09248 0
M  V30 927 H 92.1507 2.50237 -3.95599 0
M  V30 928 H 92.3237 3.24792 -5.60726 0
M  V30 929 N 85.7298 1.2412 0.971189 0
M  V30 930 C 86.9598 1.10415 1.7462 0
M  V30 931 C 87.3678 -0.346462 1.86001 0
M  V30 932 O 86.7108 -1.25104 1.34517 0
M  V30 933 C 86.7728 1.66596 3.18568 0
M  V30 934 C 86.4368 3.15446 3.3067 0
M  V30 935 C 87.4338 4.12636 3.16271 0
M  V30 936 C 85.1188 3.55337 3.55022 0
M  V30 937 C 87.1128 5.47699 3.26044 0
M  V30 938 C 84.7998 4.90542 3.64434 0
M  V30 939 C 85.7978 5.86532 3.49956 0
M  V30 940 O 85.4858 7.19279 3.59017 0
M  V30 941 H 85.2178 0.386616 0.55453 0
M  V30 942 H 87.7718 1.64633 1.22821 0
M  V30 943 H 86.0018 1.06808 3.71657 0
M  V30 944 H 87.6908 1.48232 3.77865 0
M  V30 945 H 88.4568 3.8316 2.97344 0
M  V30 946 H 84.3358 2.8113 3.65359 0
M  V30 947 H 87.8798 6.22603 3.14661 0
M  V30 948 H 83.7768 5.19691 3.82873 0
M  V30 949 H 84.5448 7.27153 3.75754 0
M  V30 950 N 87.2079 -1.17134 1.05439 0
M  V30 951 C 88.6239 -1.39454 0.776201 0
M  V30 952 C 88.8239 -1.91454 -0.628307 0
M  V30 953 O 87.8799 -2.10777 -1.39031 0
M  V30 954 C 89.1929 -2.38305 1.83388 0
M  V30 955 C 90.7409 -2.52006 1.85639 0
M  V30 956 C 91.2159 -3.54133 2.90437 0
M  V30 957 N 92.7069 -3.61653 2.89415 0
M  V30 958 C 93.4419 -4.4044 3.67152 0
M  V30 959 N 92.9379 -5.22721 4.54681 0
M  V30 960 N 94.7309 -4.35337 3.55581 0
M  V30 961 H 86.8819 -0.817134 1.96053 0
M  V30 962 H 89.1449 -0.421626 0.849079 0
M  V30 963 H 88.8509 -2.07173 2.84204 0
M  V30 964 H 88.7249 -3.37841 1.67761 0
M  V30 965 H 91.1119 -2.82447 0.85486 0
M  V30 966 H 91.1929 -1.52537 2.05344 0
M  V30 967 H 90.8369 -3.24431 3.90777 0
M  V30 968 H 90.7669 -4.53313 2.67983 0
M  V30 969 H 93.2579 -3.02909 2.25952 0
M  V30 970 H 93.5709 -5.80027 5.10674 0
M  V30 971 H 91.9159 -5.22093 4.58741 0
M  V30 972 H 95.1069 -3.70112 2.86592 0
M  V30 973 H 95.2799 -4.96494 4.1641 0
M  V30 974 N 88.686 -0.835752 -1.33615 0
M  V30 975 C 89.618 -0.224151 -2.28101 0
M  V30 976 C 90.631 0.593331 -1.51603 0
M  V30 977 O 91.82 0.420911 -1.73466 0
M  V30 978 C 88.92 0.703309 -3.31522 0
M  V30 979 C 88.093 -0.0741528 -4.37337 0
M  V30 980 C 87.152 0.776176 -5.20444 0
M  V30 981 O 86.178 0.216506 -5.68788 0
M  V30 982 N 87.38 2.09401 -5.41416 0
M  V30 983 H 90.145 -1.03598 -2.81225 0
M  V30 984 H 87.706 -0.69392 -1.46275 0
M  V30 985 H 89.698 1.27707 -3.84022 0
M  V30 986 H 88.268 1.41585 -2.78698 0
M  V30 987 H 87.488 -0.82928 -3.85378 0
M  V30 988 H 88.776 -0.608863 -5.05144 0
M  V30 989 H 88.174 2.57229 -5.03835 0
M  V30 990 H 86.731 2.61633 -5.96985 0
M  V30 991 N 90.1641 1.46063 -0.591896 0
M  V30 992 C 91.4111 2.02338 -0.0809991 0
M  V30 993 C 91.7391 1.46228 1.28249 0
M  V30 994 O 90.9941 0.620818 1.85592 0
M  V30 995 C 91.2931 3.57391 0.0249813 0
M  V30 996 C 90.9591 4.32583 -1.27211 0
M  V30 997 C 89.6211 4.52844 -1.62745 0
M  V30 998 C 91.9731 4.75687 -2.13005 0
M  V30 999 C 89.3011 5.13462 -2.83855 0
M  V30 1000 C 91.6531 5.37644 -3.3335 0
M  V30 1001 C 90.3171 5.5613 -3.69155 0
M  V30 1002 H 89.5871 0.740407 -0.0296397 0
M  V30 1003 H 92.2341 1.75321 -0.770374 0
M  V30 1004 H 90.5391 3.83597 0.797537 0
M  V30 1005 H 92.2361 3.98621 0.436184 0
M  V30 1006 H 88.8261 4.17116 -0.985499 0
M  V30 1007 H 93.0101 4.59782 -1.86855 0
M  V30 1008 H 88.2661 5.25965 -3.11722 0
M  V30 1009 H 92.4401 5.7 -4.00092 0
M  V30 1010 H 90.0671 6.0287 -4.63089 0
M  V30 1011 N 91.6422 0.330177 1.54103 0
M  V30 1012 C 92.5922 -0.548456 2.21305 0
M  V30 1013 C 93.5762 -1.07651 1.19583 0
M  V30 1014 O 94.7682 -1.01243 1.45186 0
M  V30 1015 C 91.8972 -1.70559 2.97934 0
M  V30 1016 C 90.9832 -1.19212 4.07 0
M  V30 1017 N 91.3742 -0.398831 5.04225 0
M  V30 1018 C 89.6722 -1.47024 4.2107 0
M  V30 1019 C 90.3732 -0.121761 5.81573 0
M  V30 1020 N 89.3492 -0.709722 5.38947 0
M  V30 1021 H 93.1512 0.0648483 2.93828 0
M  V30 1022 H 90.6652 0.136363 1.61826 0
M  V30 1023 H 92.6622 -2.34688 3.44568 0
M  V30 1024 H 91.3222 -2.32231 2.26934 0
M  V30 1025 H 92.3332 -0.0410869 5.17884 0
M  V30 1026 H 89.0102 -2.09232 3.61287 0
M  V30 1027 H 90.4002 0.517298 6.69906 0
M  V30 1028 N 93.1203 -1.57491 0.0584922 0
M  V30 1029 C 94.0833 -2.1085 -0.898617 0
M  V30 1030 C 95.0833 -1.02964 -1.23511 0
M  V30 1031 O 96.2733 -1.29007 -1.17059 0
M  V30 1032 C 93.4053 -2.59881 -2.20623 0
M  V30 1033 H 94.5983 -2.96715 -0.435936 0
M  V30 1034 H 92.1513 -1.55141 -0.190023 0
M  V30 1035 H 92.8863 -1.77431 -2.71457 0
M  V30 1036 H 92.6713 -3.38727 -1.97501 0
M  V30 1037 H 94.1613 -3.01285 -2.89166 0
M  V30 1038 N 94.5984 0.214957 -1.56127 0
M  V30 1039 C 95.5284 1.2695 -1.95974 0
M  V30 1040 C 96.5094 1.48539 -0.828868 0
M  V30 1041 O 97.6944 1.60611 -1.09168 0
M  V30 1042 C 94.8244 2.61794 -2.28214 0
M  V30 1043 C 93.7784 2.54851 -3.43853 0
M  V30 1044 C 93.1044 3.93785 -3.61715 0
M  V30 1045 C 94.4044 2.09065 -4.78632 0
M  V30 1046 H 96.0984 0.93846 -2.84312 0
M  V30 1047 H 93.6444 0.449996 -1.36788 0
M  V30 1048 H 95.5974 3.35731 -2.54682 0
M  V30 1049 H 94.3214 2.96599 -1.36736 0
M  V30 1050 H 92.9804 1.8337 -3.17444 0
M  V30 1051 H 92.6284 4.25908 -2.67602 0
M  V30 1052 H 92.3284 3.90019 -4.39498 0
M  V30 1053 H 93.8524 4.69374 -3.90539 0
M  V30 1054 H 95.2664 2.7275 -5.04262 0
M  V30 1055 H 93.6634 2.16346 -5.59745 0
M  V30 1056 H 94.7334 1.04315 -4.73547 0
M  V30 1057 N 96.0765 1.50051 0.48192 0
M  V30 1058 C 97.0085 1.64263 1.59844 0
M  V30 1059 C 98.0215 0.52451 1.54119 0
M  V30 1060 O 99.2105 0.797293 1.59704 0
M  V30 1061 C 96.3105 1.60102 2.98698 0
M  V30 1062 C 95.4835 2.87767 3.29407 0
M  V30 1063 C 94.5425 2.76397 4.47762 0
M  V30 1064 O 93.5685 3.50348 4.48603 0
M  V30 1065 N 94.7705 1.89222 5.48794 0
M  V30 1066 H 97.5355 2.60566 1.48073 0
M  V30 1067 H 95.0965 1.47379 0.670149 0
M  V30 1068 H 97.0885 1.50123 3.75826 0
M  V30 1069 H 95.6585 0.715798 3.04294 0
M  V30 1070 H 94.8785 3.11954 2.40994 0
M  V30 1071 H 96.1665 3.72365 3.4673 0
M  V30 1072 H 95.5645 1.28434 5.50928 0
M  V30 1073 H 94.1215 1.85154 6.24949 0
M  V30 1074 N 97.5546 -0.734337 1.39446 0
M  V30 1075 C 98.7796 -1.52866 1.40167 0
M  V30 1076 C 99.2046 -1.881 -0.00171513 0
M  V30 1077 O 98.5626 -1.51957 -0.988879 0
M  V30 1078 C 98.6106 -2.79235 2.28167 0
M  V30 1079 O 97.7146 -3.75185 1.71201 0
M  V30 1080 H 97.0556 -0.461618 0.477289 0
M  V30 1081 H 99.5856 -0.905949 1.8345 0
M  V30 1082 H 99.5956 -3.27963 2.42702 0
M  V30 1083 H 98.2706 -2.52923 3.30156 0
M  V30 1084 H 96.8476 -3.33958 1.65912 0
M  V30 1085 N 99.0327 -1.24633 -0.964593 0
M  V30 1086 C 99.9797 -1.04144 -2.05968 0
M  V30 1087 C 100.95 0.046262 -1.66036 0
M  V30 1088 O 102.135 -0.108972 -1.90489 0
M  V30 1089 C 99.2747 -0.65563 -3.38815 0
M  V30 1090 C 98.3877 -1.81714 -3.91923 0
M  V30 1091 C 97.5227 -1.37662 -5.13052 0
M  V30 1092 C 96.5617 -2.50788 -5.58365 0
M  V30 1093 N 95.6987 -2.07582 -6.70712 0
M  V30 1094 H 100.539 -1.9787 -2.22827 0
M  V30 1095 H 98.0757 -0.9855 -1.09208 0
M  V30 1096 H 100.034 -0.412954 -4.15151 0
M  V30 1097 H 98.6637 0.244627 -3.21872 0
M  V30 1098 H 97.7157 -2.1734 -3.12198 0
M  V30 1099 H 99.0277 -2.66705 -4.21509 0
M  V30 1100 H 98.1817 -1.093 -5.96773 0
M  V30 1101 H 96.9207 -0.497293 -4.85158 0
M  V30 1102 H 95.9257 -2.79906 -4.73215 0
M  V30 1103 H 97.1507 -3.39283 -5.88272 0
M  V30 1104 H 95.0967 -1.22051 -6.44546 0
M  V30 1105 H 95.0137 -2.86125 -6.99763 0
M  V30 1106 H 96.2817 -1.82369 -7.57867 0
M  V30 1107 N 100.511 1.16574 -1.06058 0
M  V30 1108 C 101.441 2.23057 -0.690488 0
M  V30 1109 C 102.422 1.67141 0.315901 0
M  V30 1110 O 103.607 1.93253 0.191556 0
M  V30 1111 C 100.737 3.47222 -0.073625 0
M  V30 1112 C 99.6908 4.16016 -1.00573 0
M  V30 1113 C 99.0168 5.34104 -0.252289 0
M  V30 1114 C 100.317 4.67264 -2.33371 0
M  V30 1115 H 102.011 2.54271 -1.58072 0
M  V30 1116 H 99.5568 1.22218 -0.76149 0
M  V30 1117 H 101.51 4.20939 0.19714 0
M  V30 1118 H 100.234 3.15302 0.85161 0
M  V30 1119 H 98.8928 3.44223 -1.2612 0
M  V30 1120 H 98.5408 4.98437 0.675988 0
M  V30 1121 H 98.2408 5.81072 -0.873455 0
M  V30 1122 H 99.7648 6.10599 0.0109857 0
M  V30 1123 H 101.179 5.32573 -2.12223 0
M  V30 1124 H 99.5758 5.24843 -2.90963 0
M  V30 1125 H 100.646 3.83602 -2.96611 0
M  V30 1126 N 101.989 0.842826 1.3317 0
M  V30 1127 C 102.899 0.281444 2.32906 0
M  V30 1128 C 103.915 -0.594587 1.63526 0
M  V30 1129 O 105.091 -0.49777 1.95152 0
M  V30 1130 C 102.156 -0.530929 3.42611 0
M  V30 1131 C 101.217 0.369843 4.27704 0
M  V30 1132 C 100.45 -0.403853 5.3217 0
M  V30 1133 O 100.673 -1.63513 5.46461 0
M  V30 1134 O 99.6069 0.224199 6.01482 0
M  V30 1135 H 103.433 1.10744 2.82789 0
M  V30 1136 H 101.018 0.60545 1.36582 0
M  V30 1137 H 102.9 -0.992437 4.09547 0
M  V30 1138 H 101.575 -1.33392 2.94938 0
M  V30 1139 H 100.482 0.879275 3.6362 0
M  V30 1140 H 101.815 1.13771 4.78871 0
M  V30 1141 N 103.467 -1.45747 0.599634 0
M  V30 1142 C 104.377 -2.34262 -0.125888 0
M  V30 1143 C 105.393 -1.50768 -0.868625 0
M  V30 1144 O 106.569 -1.83592 -0.828003 0
M  V30 1145 C 103.634 -3.28252 -1.11587 0
M  V30 1146 C 102.695 -4.27651 -0.375956 0
M  V30 1147 C 101.928 -5.1715 -1.31877 0
M  V30 1148 O 102.151 -5.09916 -2.55621 0
M  V30 1149 O 101.085 -5.96286 -0.820157 0
M  V30 1150 H 104.911 -2.97688 0.601315 0
M  V30 1151 H 102.496 -1.44999 0.359934 0
M  V30 1152 H 104.378 -3.86191 -1.68626 0
M  V30 1153 H 103.053 -2.67401 -1.82424 0
M  V30 1154 H 101.96 -3.7335 0.236698 0
M  V30 1155 H 103.293 -4.91334 0.29177 0
M  V30 1156 N 104.945 -0.338344 -1.53925 0
M  V30 1157 C 106.361 0.0137736 -1.59594 0
M  V30 1158 C 106.561 1.49186 -1.35447 0
M  V30 1159 O 105.617 2.24987 -1.14616 0
M  V30 1160 C 106.93 -0.41773 -2.97784 0
M  V30 1161 C 108.478 -0.369633 -3.1081 0
M  V30 1162 C 108.953 -0.776524 -4.51369 0
M  V30 1163 N 110.444 -0.730506 -4.57403 0
M  V30 1164 C 111.179 -1.01736 -5.64303 0
M  V30 1165 N 110.675 -1.3721 -6.79077 0
M  V30 1166 N 112.468 -0.941942 -5.54151 0
M  V30 1167 H 104.619 -1.3012 -1.67876 0
M  V30 1168 H 106.882 -0.530082 -0.78595 0
M  V30 1169 H 106.588 -1.44811 -3.20504 0
M  V30 1170 H 106.462 0.209729 -3.76616 0
M  V30 1171 H 108.849 0.651568 -2.87817 0
M  V30 1172 H 108.93 -1.03223 -2.34049 0
M  V30 1173 H 108.574 -1.79571 -4.75096 0
M  V30 1174 H 108.504 -0.0914649 -5.26521 0
M  V30 1175 H 110.995 -0.468783 -3.74981 0
M  V30 1176 H 111.308 -1.57597 -7.5656 0
M  V30 1177 H 109.653 -1.4105 -6.80536 0
M  V30 1178 H 112.844 -0.664184 -4.63364 0
M  V30 1179 H 113.017 -1.16884 -6.37371 0
M  V30 1180 N 106.423 1.57458 -0.0668435 0
M  V30 1181 C 107.67 1.93301 0.603406 0
M  V30 1182 C 107.998 0.946486 1.69917 0
M  V30 1183 O 107.253 -0.0387021 1.95662 0
M  V30 1184 C 107.552 3.35784 1.22409 0
M  V30 1185 C 107.218 4.50179 0.254955 0
M  V30 1186 C 105.88 4.81199 -0.0116746 0
M  V30 1187 C 108.232 5.19598 -0.408338 0
M  V30 1188 C 105.56 5.78978 -0.94877 0
M  V30 1189 C 107.912 6.18381 -1.33372 0
M  V30 1190 C 106.576 6.47821 -1.60887 0
M  V30 1191 H 105.846 0.707338 0.220802 0
M  V30 1192 H 108.493 1.91012 -0.136665 0
M  V30 1193 H 106.798 3.34515 2.03978 0
M  V30 1194 H 108.495 3.60804 1.74989 0
M  V30 1195 H 105.085 4.25983 0.472954 0
M  V30 1196 H 109.269 4.95832 -0.215456 0
M  V30 1197 H 104.525 6.00115 -1.16925 0
M  V30 1198 H 108.699 6.71277 -1.85367 0
M  V30 1199 H 106.326 7.23399 -2.33661 0
M  V30 1200 N 107.901 -0.206675 1.56239 0
M  V30 1201 C 109.149 -0.927007 1.79586 0
M  V30 1202 C 109.47 -1.8427 0.637929 0
M  V30 1203 O 108.74 -1.92849 -0.344398 0
M  V30 1204 H 107.32 -0.345292 0.662407 0
M  V30 1205 H 109.982 -0.21496 1.93711 0
M  V30 1206 H 109.078 -1.52501 2.72305 0
M  V30 1207 N 109.379 -1.50304 -0.473955 0
M  V30 1208 C 110.79 -1.54042 -1.0549 0
M  V30 1209 C 111.141 -0.342248 -1.93192 0
M  V30 1210 O 110.266 0.545157 -2.09421 0
M  V30 1211 C 110.861 -2.79152 -1.91989 0
M  V30 1212 C 109.42 -2.8558 -2.45196 0
M  V30 1213 C 108.567 -2.48295 -1.2347 0
M  V30 1214 H 111.518 -1.5661 -0.256693 0
M  V30 1215 H 111.539 -2.60845 -2.7702 0
M  V30 1216 H 111.051 -3.66339 -1.28131 0
M  V30 1217 H 109.152 -2.02738 -3.12615 0
M  V30 1218 H 109.265 -3.88403 -2.80499 0
M  V30 1219 H 107.629 -2.00669 -1.56856 0
M  V30 1220 H 108.412 -3.37787 -0.612789 0
M  V30 1221 N 110.857 0.726932 -1.39834 0
M  V30 1222 C 112.134 1.47902 -1.28001 0
M  V30 1223 C 112.514 2.1083 0.106789 0
M  V30 1224 O 111.862 1.99242 1.11869 0
M  V30 1225 C 112.072 2.52392 -2.41038 0
M  V30 1226 C 113.42 3.18546 -2.80737 0
M  V30 1227 O 114.444 2.62708 -2.40547 0
M  V30 1228 O 113.303 4.19604 -3.50135 0
M  V30 1229 H 110.397 0.657163 -0.502062 0
M  V30 1230 H 112.943 0.760071 -1.51727 0
M  V30 1231 H 111.715 2.04329 -3.33715 0
M  V30 1232 H 111.338 3.31837 -2.19021 0
M  V30 1233 N 112.336 1.25143 0.95797 0
M  V30 1234 C 113.561 1.12521 1.74223 0
M  V30 1235 C 113.986 -0.317402 1.85403 0
M  V30 1236 O 113.344 -1.2299 1.33204 0
M  V30 1237 C 113.392 1.78062 3.1357 0
M  V30 1238 O 112.496 1.058 3.98598 0
M  V30 1239 H 111.837 0.39304 0.535178 0
M  V30 1240 H 114.367 1.65641 1.201 0
M  V30 1241 H 114.377 1.84213 3.64046 0
M  V30 1242 H 113.052 2.83021 3.04749 0
M  V30 1243 H 111.629 1.07506 3.57067 0
M  V30 1244 N 113.814 -1.1601 1.06675 0
M  V30 1245 C 114.761 -2.20525 0.680967 0
M  V30 1246 C 115.731 -1.62904 -0.324283 0
M  V30 1247 O 116.916 -1.89615 -0.212294 0
M  V30 1248 C 114.056 -3.45013 0.0776551 0
M  V30 1249 C 113.169 -4.16863 1.13355 0
M  V30 1250 C 112.304 -5.2888 0.49597 0
M  V30 1251 C 111.343 -5.92537 1.53513 0
M  V30 1252 N 110.48 -6.96038 0.920631 0
M  V30 1253 H 115.32 -2.52876 1.57663 0
M  V30 1254 H 112.857 -1.24199 0.788223 0
M  V30 1255 H 114.815 -4.16193 -0.289704 0
M  V30 1256 H 113.445 -3.132 -0.781393 0
M  V30 1257 H 112.497 -3.44248 1.61857 0
M  V30 1258 H 113.809 -4.60294 1.92174 0
M  V30 1259 H 112.963 -6.06653 0.0758604 0
M  V30 1260 H 111.702 -4.86622 -0.324062 0
M  V30 1261 H 110.707 -5.13482 1.9651 0
M  V30 1262 H 111.932 -6.36873 2.35733 0
M  V30 1263 H 109.878 -6.55888 0.12138 0
M  V30 1264 H 109.795 -7.3786 1.64616 0
M  V30 1265 H 111.063 -7.77725 0.525795 0
M  V30 1266 N 115.292 -0.849877 -1.32721 0
M  V30 1267 C 116.517 -0.463856 -2.02146 0
M  V30 1268 C 116.942 0.930449 -1.63476 0
M  V30 1269 O 116.3 1.61033 -0.832952 0
M  V30 1270 C 116.348 -0.604955 -3.55489 0
M  V30 1271 O 115.452 0.36425 -4.10788 0
M  V30 1272 H 114.793 -0.187046 -0.637111 0
M  V30 1273 H 117.323 -1.14775 -1.69375 0
M  V30 1274 H 117.333 -0.490696 -4.05038 0
M  V30 1275 H 116.008 -1.62174 -3.82978 0
M  V30 1276 H 114.585 0.206628 -3.72327 0
M  V30 1277 N 116.77 1.45427 -0.607355 0
M  V30 1278 C 117.995 2.07124 -0.107006 0
M  V30 1279 C 118.42 1.44906 1.19933 0
M  V30 1280 O 117.778 0.541687 1.73019 0
M  V30 1281 C 117.826 3.60595 0.0194119 0
M  V30 1282 O 116.93 3.98285 1.0697 0
M  V30 1283 H 116.271 0.659868 -0.0739597 0
M  V30 1284 H 118.801 1.86683 -0.837297 0
M  V30 1285 H 118.811 4.07419 0.2177 0
M  V30 1286 H 117.486 4.05266 -0.934453 0
M  V30 1287 H 116.063 3.63133 0.847889 0
M  V30 1288 N 118.248 0.346503 1.53744 0
M  V30 1289 C 119.211 -0.496439 2.23759 0
M  V30 1290 C 120.211 -1.0252 1.2388 0
M  V30 1291 O 121.401 -0.913974 1.48297 0
M  V30 1292 C 118.533 -1.69187 2.95954 0
M  V30 1293 H 119.726 0.115952 2.99676 0
M  V30 1294 H 117.279 0.0978939 1.55993 0
M  V30 1295 H 118.014 -2.34288 2.24231 0
M  V30 1296 H 117.799 -1.31989 3.69217 0
M  V30 1297 H 119.289 -2.28969 3.49232 0
M  V30 1298 N 119.726 -1.57421 0.075193 0
M  V30 1299 C 120.656 -2.15942 -0.888324 0
M  V30 1300 C 121.637 -1.08737 -1.30806 0
M  V30 1301 O 122.822 -1.36787 -1.37851 0
M  V30 1302 C 119.952 -2.72379 -2.1547 0
M  V30 1303 C 118.906 -3.8478 -1.87425 0
M  V30 1304 C 118.232 -4.27834 -3.20721 0
M  V30 1305 C 119.532 -5.08869 -1.17684 0
M  V30 1306 H 121.226 -2.96705 -0.400799 0
M  V30 1307 H 118.772 -1.42723 -0.191342 0
M  V30 1308 H 120.725 -3.11965 -2.83295 0
M  V30 1309 H 119.449 -1.88841 -2.6647 0
M  V30 1310 H 118.108 -3.45703 -1.22004 0
M  V30 1311 H 117.756 -3.41214 -3.6957 0
M  V30 1312 H 117.456 -5.03605 -3.02746 0
M  V30 1313 H 118.98 -4.70039 -3.89738 0
M  V30 1314 H 120.394 -5.4575 -1.75584 0
M  V30 1315 H 118.791 -5.8994 -1.09956 0
M  V30 1316 H 119.861 -4.84648 -0.156453 0
M  V30 1317 N 121.204 0.198386 -1.56346 0
M  V30 1318 C 122.167 1.22952 -1.93431 0
M  V30 1319 C 123.167 1.38611 -0.815092 0
M  V30 1320 O 124.357 1.36479 -1.08255 0
M  V30 1321 C 121.489 2.59946 -2.20546 0
M  V30 1322 H 122.682 0.912626 -2.85677 0
M  V30 1323 H 120.235 0.43977 -1.49986 0
M  V30 1324 H 120.97 2.96696 -1.30927 0
M  V30 1325 H 120.755 2.49953 -3.02102 0
M  V30 1326 H 122.245 3.3431 -2.50253 0
M  V30 1327 N 122.682 1.50554 0.465978 0
M  V30 1328 C 123.922 1.63439 1.22747 0
M  V30 1329 C 124.286 0.329822 1.89146 0
M  V30 1330 O 125.487 0.334161 2.66715 0
M  V30 1331 C 123.758 2.78542 2.2394 0
M  V30 1332 S 125.317 3.11591 3.0896 0
M  V30 1333 H 122.135 0.576113 0.416672 0
M  V30 1334 H 124.737 1.88357 0.523641 0
M  V30 1335 H 123.441 3.71805 1.7375 0
M  V30 1336 H 122.972 2.55726 2.98944 0
M  V30 1337 H 124.987 2.55811 4.25176 0
M  V30 1338 N 124.16 -0.719506 1.40217 0
M  V30 1339 C 125.388 -1.50864 1.41589 0
M  V30 1340 C 125.803 -1.88794 0.0145275 0
M  V30 1341 O 125.16 -1.55174 -0.960594 0
M  V30 1342 C 125.211 -2.78646 2.30302 0
M  V30 1343 O 124.932 -2.42321 3.64983 0
M  V30 1344 C 126.433 -3.72569 2.40224 0
M  V30 1345 H 123.653 -0.465709 0.48307 0
M  V30 1346 H 126.197 -0.88785 1.84221 0
M  V30 1347 H 124.352 -3.37019 1.91042 0
M  V30 1348 H 124.766 -3.24514 4.12057 0
M  V30 1349 H 126.24 -4.5908 3.06512 0
M  V30 1350 H 126.717 -4.15403 1.42608 0
M  V30 1351 H 127.323 -3.20109 2.80019 0
M  V30 1352 N 125.638 -1.25649 -0.95132 0
M  V30 1353 C 126.568 -1.08808 -2.06599 0
M  V30 1354 C 127.549 0.00382547 -1.701 0
M  V30 1355 O 128.734 -0.166325 -1.93486 0
M  V30 1356 C 125.864 -0.709542 -3.39975 0
M  V30 1357 C 124.818 -1.75206 -3.90496 0
M  V30 1358 C 124.144 -1.22811 -5.20405 0
M  V30 1359 C 125.444 -3.15153 -4.16504 0
M  V30 1360 H 127.138 -2.02048 -2.20946 0
M  V30 1361 H 124.684 -0.972835 -1.06169 0
M  V30 1362 H 126.637 -0.578649 -4.17408 0
M  V30 1363 H 125.361 0.258556 -3.25575 0
M  V30 1364 H 124.02 -1.87145 -3.15234 0
M  V30 1365 H 123.668 -0.250145 -5.02378 0
M  V30 1366 H 123.368 -1.92492 -5.55176 0
M  V30 1367 H 124.892 -1.10968 -6.00432 0
M  V30 1368 H 126.306 -3.06349 -4.84586 0
M  V30 1369 H 124.703 -3.82333 -4.62538 0
M  V30 1370 H 125.773 -3.61966 -3.22658 0
M  V30 1371 N 127.117 1.15442 -1.07289 0
M  V30 1372 C 128.528 1.67803 -0.818475 0
M  V30 1373 C 128.879 1.8489 0.656507 0
M  V30 1374 O 128.004 1.55176 1.50829 0
M  V30 1375 C 128.599 3.04805 -1.47917 0
M  V30 1376 C 127.158 3.54245 -1.27229 0
M  V30 1377 C 126.305 2.29986 -1.54925 0
M  V30 1378 H 129.256 0.996646 -1.23502 0
M  V30 1379 H 129.277 3.69702 -0.90005 0
M  V30 1380 H 128.789 2.92336 -2.55267 0
M  V30 1381 H 126.89 3.71956 -0.21899 0
M  V30 1382 H 127.003 4.35723 -1.99203 0
M  V30 1383 H 125.367 2.35496 -0.970242 0
M  V30 1384 H 126.15 2.20105 -2.63455 0
M  V30 1385 N 128.595 0.856903 1.32268 0
M  V30 1386 C 129.823 0.475439 2.01363 0
M  V30 1387 C 130.238 -0.928486 1.64392 0
M  V30 1388 O 129.595 -1.60624 0.866387 0
M  V30 1389 C 129.646 0.607545 3.56358 0
M  V30 1390 O 129.367 1.95617 3.92002 0
M  V30 1391 C 130.868 0.225382 4.42727 0
M  V30 1392 H 128.088 0.186636 0.644521 0
M  V30 1393 H 130.632 1.15446 1.68797 0
M  V30 1394 H 128.787 -0.0237719 3.87393 0
M  V30 1395 H 129.201 1.95455 4.86721 0
M  V30 1396 H 130.675 0.368813 5.50767 0
M  V30 1397 H 131.152 -0.834369 4.31202 0
M  V30 1398 H 131.758 0.831864 4.17085 0
M  V30 1399 N 130.073 -1.45103 0.615059 0
M  V30 1400 C 131.003 -2.33339 -0.0865619 0
M  V30 1401 C 131.984 -1.4727 -0.851209 0
M  V30 1402 O 133.169 -1.76026 -0.820281 0
M  V30 1403 C 130.299 -3.30095 -1.07956 0
M  V30 1404 C 129.253 -4.25858 -0.427628 0
M  V30 1405 C 128.579 -5.12361 -1.5294 0
M  V30 1406 C 129.879 -5.18165 0.655944 0
M  V30 1407 H 131.573 -2.92254 0.650224 0
M  V30 1408 H 129.119 -1.40532 0.314138 0
M  V30 1409 H 131.072 -3.90698 -1.57901 0
M  V30 1410 H 129.796 -2.69355 -1.84703 0
M  V30 1411 H 128.455 -3.66564 0.0510292 0
M  V30 1412 H 128.103 -4.47984 -2.28734 0
M  V30 1413 H 127.803 -5.77238 -1.09865 0
M  V30 1414 H 129.327 -5.75833 -2.03098 0
M  V30 1415 H 130.741 -5.72796 0.240257 0
M  V30 1416 H 129.138 -5.91559 1.00888 0
M  V30 1417 H 130.208 -4.60144 1.52957 0
M  V30 1418 N 131.551 -0.354651 -1.53558 0
M  V30 1419 C 132.962 0.126902 -1.86268 0
M  V30 1420 C 133.313 1.49075 -1.27558 0
M  V30 1421 O 132.438 2.08105 -0.5934 0
M  V30 1422 C 133.033 0.237046 -3.3797 0
M  V30 1423 C 131.592 0.662842 -3.70518 0
M  V30 1424 C 130.739 -0.196652 -2.76602 0
M  V30 1425 H 133.69 -0.573849 -1.47962 0
M  V30 1426 H 133.711 1.06259 -3.65362 0
M  V30 1427 H 133.223 -0.755725 -3.80671 0
M  V30 1428 H 131.324 1.66424 -3.33367 0
M  V30 1429 H 131.437 0.445034 -4.77029 0
M  V30 1430 H 129.801 0.332763 -2.52517 0
M  V30 1431 H 130.584 -1.18676 -3.22135 0
M  V30 1432 N 133.029 1.57378 -0.0835403 0
M  V30 1433 C 133.992 2.12252 0.864959 0
M  V30 1434 C 134.992 1.04916 1.21858 0
M  V30 1435 O 136.182 1.30853 1.14991 0
M  V30 1436 C 133.314 2.63358 2.16461 0
M  V30 1437 H 134.507 2.97371 0.388676 0
M  V30 1438 H 132.06 1.55423 0.165317 0
M  V30 1439 H 132.795 1.81727 2.686 0
M  V30 1440 H 132.58 3.41826 1.92087 0
M  V30 1441 H 134.07 3.05847 2.84337 0
M  V30 1442 N 134.507 -0.190092 1.56449 0
M  V30 1443 C 135.454 -1.23557 1.94942 0
M  V30 1444 C 136.424 -1.44972 0.810696 0
M  V30 1445 O 137.609 -1.58023 1.06927 0
M  V30 1446 C 134.749 -2.57416 2.2985 0
M  V30 1447 C 133.862 -2.43537 3.5681 0
M  V30 1448 C 132.997 -3.70134 3.81017 0
M  V30 1449 C 132.036 -3.51109 5.01387 0
M  V30 1450 N 131.173 -4.6973 5.21822 0
M  V30 1451 H 136.013 -0.900304 2.84075 0
M  V30 1452 H 133.55 -0.43318 1.40577 0
M  V30 1453 H 135.508 -3.35409 2.48106 0
M  V30 1454 H 134.138 -2.88975 1.43852 0
M  V30 1455 H 133.19 -1.56816 3.46573 0
M  V30 1456 H 134.502 -2.25415 4.4496 0
M  V30 1457 H 133.656 -4.56566 3.9954 0
M  V30 1458 H 132.395 -3.91215 2.91207 0
M  V30 1459 H 131.4 -2.63063 4.82782 0
M  V30 1460 H 132.625 -3.31468 5.9271 0
M  V30 1461 H 130.571 -4.91065 4.34961 0
M  V30 1462 H 130.488 -4.54452 6.0416 0
M  V30 1463 H 131.756 -5.57499 5.44808 0
M  V30 1464 N 135.985 -1.50799 -0.457987 0
M  V30 1465 C 137.231 -1.62683 -1.21088 0
M  V30 1466 C 137.564 -0.332268 -1.91336 0
M  V30 1467 O 136.839 0.667043 -1.82704 0
M  V30 1468 C 137.122 -2.81615 -2.24422 0
M  V30 1469 C 136.975 -4.20989 -1.58392 0
M  V30 1470 C 138.294 -2.96085 -3.2561 0
M  V30 1471 H 135.413 -0.592087 -0.438864 0
M  V30 1472 H 138.055 -1.83225 -0.50286 0
M  V30 1473 H 136.205 -2.64231 -2.84806 0
M  V30 1474 H 137.877 -4.49994 -1.01504 0
M  V30 1475 H 136.12 -4.24641 -0.886704 0
M  V30 1476 H 136.791 -5.0016 -2.33547 0
M  V30 1477 H 139.267 -3.12042 -2.75262 0
M  V30 1478 H 138.143 -3.80902 -3.95228 0
M  V30 1479 H 138.404 -2.0726 -3.90507 0
M  V30 1480 N 137.463 0.71206 -1.40597 0
M  V30 1481 C 138.693 1.49894 -1.42181 0
M  V30 1482 C 139.101 1.89189 -0.0208078 0
M  V30 1483 O 138.444 1.56223 0.966436 0
M  V30 1484 C 138.506 2.80215 -2.25211 0
M  V30 1485 C 138.17 2.63221 -3.73582 0
M  V30 1486 C 139.167 2.30249 -4.66135 0
M  V30 1487 C 136.852 2.79376 -4.17438 0
M  V30 1488 C 138.846 2.13645 -6.00529 0
M  V30 1489 C 136.533 2.6239 -5.51901 0
M  V30 1490 C 137.531 2.29573 -6.43262 0
M  V30 1491 O 137.219 2.12719 -7.75246 0
M  V30 1492 H 136.951 0.469031 -0.486812 0
M  V30 1493 H 139.505 0.88564 -1.85326 0
M  V30 1494 H 137.735 3.4389 -1.76852 0
M  V30 1495 H 139.424 3.41947 -2.18694 0
M  V30 1496 H 140.19 2.17398 -4.33547 0
M  V30 1497 H 136.069 3.03906 -3.46644 0
M  V30 1498 H 139.613 1.87953 -6.71803 0
M  V30 1499 H 135.51 2.74826 -5.84073 0
M  V30 1500 H 136.278 2.27611 -7.86216 0
M  V30 1501 N 138.941 1.26152 0.944643 0
M  V30 1502 C 140.187 1.11657 1.69294 0
M  V30 1503 C 140.52 -0.339926 1.91202 0
M  V30 1504 O 139.795 -1.24994 1.49019 0
M  V30 1505 C 140.078 1.88236 3.06984 0
M  V30 1506 C 139.931 3.41772 2.92424 0
M  V30 1507 C 141.25 1.67343 4.07043 0
M  V30 1508 H 138.369 0.407004 0.614424 0
M  V30 1509 H 141.011 1.55106 1.09737 0
M  V30 1510 H 139.161 1.51308 3.57824 0
M  V30 1511 H 140.833 3.88433 2.48832 0
M  V30 1512 H 139.076 3.68974 2.28124 0
M  V30 1513 H 139.747 3.90579 3.90067 0
M  V30 1514 H 142.223 1.99509 3.65151 0
M  V30 1515 H 141.099 2.23346 5.01406 0
M  V30 1516 H 141.36 0.617158 4.37771 0
M  V30 1517 N 140.419 -1.14872 1.07899 0
M  V30 1518 C 141.667 -1.85422 0.803941 0
M  V30 1519 C 141.988 -1.83051 -0.67211 0
M  V30 1520 O 141.258 -1.27532 -1.48703 0
M  V30 1521 H 139.838 -0.686537 0.294408 0
M  V30 1522 H 142.5 -1.39226 1.3639 0
M  V30 1523 H 141.596 -2.90399 1.14346 0
M  V30 1524 N 141.898 -0.863906 -1.31812 0
M  V30 1525 C 143.144 -0.472535 -1.97218 0
M  V30 1526 C 143.477 0.971394 -1.68159 0
M  V30 1527 O 142.752 1.68309 -0.974798 0
M  V30 1528 C 143.035 -0.723054 -3.52766 0
M  V30 1529 C 142.888 -2.21608 -3.91421 0
M  V30 1530 C 144.207 -0.185522 -4.39709 0
M  V30 1531 H 141.326 -0.173158 -0.71637 0
M  V30 1532 H 143.968 -1.08403 -1.56041 0
M  V30 1533 H 142.118 -0.202577 -3.87971 0
M  V30 1534 H 143.79 -2.80334 -3.66347 0
M  V30 1535 H 142.033 -2.691 -3.40246 0
M  V30 1536 H 142.704 -2.34203 -4.99853 0
M  V30 1537 H 145.18 -0.630726 -4.11292 0
M  V30 1538 H 144.056 -0.390306 -5.47511 0
M  V30 1539 H 144.317 0.912229 -4.32586 0
M  V30 1540 N 143.376 1.44774 -0.622745 0
M  V30 1541 C 144.323 2.30635 0.0871679 0
M  V30 1542 C 145.293 1.42994 0.845097 0
M  V30 1543 O 146.478 1.71907 0.827812 0
M  V30 1544 C 143.618 3.28144 1.06844 0
M  V30 1545 C 142.731 4.30888 0.309809 0
M  V30 1546 C 141.866 5.15494 1.28215 0
M  V30 1547 C 140.905 6.09953 0.512198 0
M  V30 1548 N 140.042 6.87287 1.43458 0
M  V30 1549 H 144.882 2.90803 -0.650974 0
M  V30 1550 H 142.419 1.43286 -0.33281 0
M  V30 1551 H 144.377 3.83157 1.65066 0
M  V30 1552 H 143.007 2.69695 1.77382 0
M  V30 1553 H 142.059 3.78414 -0.388181 0
M  V30 1554 H 143.371 4.97955 -0.290254 0
M  V30 1555 H 142.525 5.74983 1.93596 0
M  V30 1556 H 141.264 4.48481 1.91614 0
M  V30 1557 H 140.269 5.49581 -0.155151 0
M  V30 1558 H 141.494 6.78999 -0.116958 0
M  V30 1559 H 139.44 6.2295 2.05594 0
M  V30 1560 H 139.357 7.50763 0.888335 0
M  V30 1561 H 140.625 7.51306 2.07749 0
M  V30 1562 N 144.854 0.36279 1.53368 0
M  V30 1563 C 145.786 -0.519668 2.23231 0
M  V30 1564 C 146.799 -1.04844 1.24546 0
M  V30 1565 O 147.988 -0.955296 1.50786 0
M  V30 1566 C 145.088 -1.72995 2.9142 0
M  V30 1567 C 144.261 -1.33316 4.16588 0
M  V30 1568 C 143.32 -2.40521 4.68013 0
M  V30 1569 O 142.346 -2.03027 5.3176 0
M  V30 1570 N 143.548 -3.72065 4.45587 0
M  V30 1571 H 146.313 0.078751 2.99597 0
M  V30 1572 H 143.874 0.187833 1.60807 0
M  V30 1573 H 145.866 -2.44184 3.22733 0
M  V30 1574 H 144.436 -2.2353 2.18525 0
M  V30 1575 H 143.656 -0.451236 3.91609 0
M  V30 1576 H 144.944 -1.04432 4.97967 0
M  V30 1577 H 144.342 -4.05304 3.94646 0
M  V30 1578 H 142.899 -4.39366 4.81457 0
M  V30 1579 N 146.332 -1.57332 0.0918853 0
M  V30 1580 C 147.242 -2.17368 -0.882505 0
M  V30 1581 C 148.258 -1.14226 -1.31257 0
M  V30 1582 O 149.434 -1.46582 -1.38115 0
M  V30 1583 C 146.499 -2.73962 -2.12476 0
M  V30 1584 C 145.56 -3.92048 -1.7492 0
M  V30 1585 C 144.793 -4.45933 -2.93223 0
M  V30 1586 O 145.016 -3.98764 -4.07852 0
M  V30 1587 O 143.95 -5.36999 -2.71875 0
M  V30 1588 H 147.776 -3.01031 -0.40172 0
M  V30 1589 H 145.361 -1.48813 -0.132291 0
M  V30 1590 H 147.243 -3.10147 -2.85283 0
M  V30 1591 H 145.918 -1.93347 -2.59613 0
M  V30 1592 H 144.825 -3.6068 -0.993025 0
M  V30 1593 H 146.158 -4.74017 -1.32548 0
M  V30 1594 N 147.81 0.181792 -1.56548 0
M  V30 1595 C 149.059 0.898348 -1.8059 0
M  V30 1596 C 149.372 1.83862 -0.667379 0
M  V30 1597 O 150.578 2.59678 -0.792446 0
M  V30 1598 C 149.034 1.64791 -3.19956 0
M  V30 1599 C 148.642 0.751789 -4.41647 0
M  V30 1600 C 150.386 2.35331 -3.53298 0
M  V30 1601 C 148.293 1.50098 -5.72035 0
M  V30 1602 H 147.223 0.339194 -0.673397 0
M  V30 1603 H 149.874 0.151413 -1.82874 0
M  V30 1604 H 148.256 2.43921 -3.11959 0
M  V30 1605 H 149.43 -0.0018076 -4.608 0
M  V30 1606 H 147.745 0.156562 -4.16106 0
M  V30 1607 H 150.342 2.91958 -4.47956 0
M  V30 1608 H 150.685 3.10164 -2.77676 0
M  V30 1609 H 151.218 1.63154 -3.62803 0
M  V30 1610 H 147.957 0.795175 -6.50659 0
M  V30 1611 H 147.477 2.22817 -5.56878 0
M  V30 1612 H 149.156 2.05125 -6.13622 0
M  V30 1613 N 149.288 1.51039 0.449983 0
M  V30 1614 C 150.251 1.70863 1.5277 0
M  V30 1615 C 151.251 0.578846 1.5002 0
M  V30 1616 O 152.441 0.846213 1.52266 0
M  V30 1617 C 149.573 1.75341 2.9235 0
M  V30 1618 H 150.766 2.67034 1.36502 0
M  V30 1619 H 148.319 1.40838 0.677812 0
M  V30 1620 H 149.054 0.809383 3.14037 0
M  V30 1621 H 148.839 2.57436 2.95752 0
M  V30 1622 H 150.329 1.92559 3.70555 0
M  V30 1623 N 150.766 -0.704594 1.40972 0
M  V30 1624 C 151.676 -1.84856 1.44448 0
M  V30 1625 C 152.692 -1.70726 0.335961 0
M  V30 1626 O 153.868 -1.92799 0.582276 0
M  V30 1627 C 150.933 -3.20758 1.31587 0
M  V30 1628 C 149.994 -3.47063 2.52677 0
M  V30 1629 C 149.227 -4.76481 2.4042 0
M  V30 1630 O 149.45 -5.52341 1.42391 0
M  V30 1631 O 148.384 -5.03367 3.30007 0
M  V30 1632 H 152.21 -1.8488 2.40942 0
M  V30 1633 H 149.795 -0.85647 1.22413 0
M  V30 1634 H 151.677 -4.01913 1.26665 0
M  V30 1635 H 150.352 -3.21438 0.382049 0
M  V30 1636 H 149.259 -2.65873 2.63177 0
M  V30 1637 H 150.592 -3.5119 3.44858 0
M  V30 1638 N 152.244 -1.26651 -0.937939 0
M  V30 1639 C 153.177 -1.02811 -2.03728 0
M  V30 1640 C 154.155 0.0481915 -1.62529 0
M  V30 1641 O 155.339 -0.0948839 -1.88261 0
M  V30 1642 C 152.466 -0.557517 -3.3408 0
M  V30 1643 C 151.512 -1.62686 -3.94253 0
M  V30 1644 S 152.345 -3.21667 -4.28125 0
M  V30 1645 C 153.501 -2.76384 -5.61572 0
M  V30 1646 H 153.734 -1.95891 -2.23638 0
M  V30 1647 H 151.267 -1.10367 -1.07974 0
M  V30 1648 H 153.225 -0.292674 -4.09455 0
M  V30 1649 H 151.886 0.353062 -3.12109 0
M  V30 1650 H 151.079 -1.24866 -4.88287 0
M  V30 1651 H 150.681 -1.84324 -3.25424 0
M  V30 1652 H 152.973 -2.2105 -6.40424 0
M  V30 1653 H 153.916 -3.69123 -6.0428 0
M  V30 1654 H 154.324 -2.15847 -5.21604 0
M  V30 1655 N 153.722 1.14298 -1.08507 0
M  V30 1656 C 155.138 1.37347 -0.812901 0
M  V30 1657 C 155.338 1.93052 0.577325 0
M  V30 1658 O 154.394 2.14389 1.33393 0
M  V30 1659 C 155.707 2.33359 -1.89642 0
M  V30 1660 C 157.255 2.46996 -1.92255 0
M  V30 1661 C 157.73 3.46309 -2.99724 0
M  V30 1662 N 159.221 3.53853 -2.98902 0
M  V30 1663 C 159.956 4.3055 -3.787 0
M  V30 1664 N 159.452 5.10482 -4.6838 0
M  V30 1665 N 161.245 4.25757 -3.66998 0
M  V30 1666 H 153.396 0.764867 -1.9815 0
M  V30 1667 H 155.659 0.398966 -0.859959 0
M  V30 1668 H 155.365 1.99565 -2.89597 0
M  V30 1669 H 155.239 3.33274 -1.76659 0
M  V30 1670 H 157.626 2.80081 -0.929445 0
M  V30 1671 H 157.707 1.47039 -2.09316 0
M  V30 1672 H 157.351 3.13957 -3.99241 0
M  V30 1673 H 157.281 4.46049 -2.79907 0
M  V30 1674 H 159.772 2.96812 -2.33904 0
M  V30 1675 H 160.085 5.66284 -5.25873 0
M  V30 1676 H 158.43 5.09747 -4.72422 0
M  V30 1677 H 161.621 3.62383 -2.96304 0
M  V30 1678 H 161.794 4.85279 -4.29427 0
M  V30 1679 N 155.201 0.870884 1.31352 0
M  V30 1680 C 156.45 0.478408 1.95944 0
M  V30 1681 C 156.763 -0.974493 1.69597 0
M  V30 1682 O 157.969 -1.47316 2.28058 0
M  V30 1683 C 156.425 0.804609 3.50791 0
M  V30 1684 C 156.033 2.27433 3.85977 0
M  V30 1685 C 157.777 0.480648 4.2177 0
M  V30 1686 C 155.684 2.5429 5.33939 0
M  V30 1687 H 154.614 0.175175 0.733369 0
M  V30 1688 H 157.265 1.06391 1.4951 0
M  V30 1689 H 155.647 0.148347 3.95722 0
M  V30 1690 H 156.821 2.97373 3.52002 0
M  V30 1691 H 155.136 2.56442 3.28065 0
M  V30 1692 H 157.733 0.658519 5.30629 0
M  V30 1693 H 158.076 -0.578979 4.12254 0
M  V30 1694 H 158.609 1.09349 3.82476 0
M  V30 1695 H 155.348 3.58939 5.48491 0
M  V30 1696 H 154.868 1.88945 5.69263 0
M  V30 1697 H 156.547 2.39066 6.01212 0
M  V30 1698 N 156.679 -1.44442 0.630414 0
M  V30 1699 C 158.09 -1.85434 0.217063 0
M  V30 1700 C 158.441 -1.52748 -1.23136 0
M  V30 1701 O 157.566 -0.965205 -1.93682 0
M  V30 1702 C 158.161 -3.36581 0.387168 0
M  V30 1703 C 156.72 -3.76389 0.0283297 0
M  V30 1704 C 155.867 -2.68296 0.700889 0
M  V30 1705 H 158.818 -1.34919 0.83562 0
M  V30 1706 H 158.839 -3.78657 -0.374086 0
M  V30 1707 H 158.351 -3.60339 1.44144 0
M  V30 1708 H 156.452 -3.58246 -1.02423 0
M  V30 1709 H 156.565 -4.77095 0.437892 0
M  V30 1710 H 154.929 -2.54335 0.136267 0
M  V30 1711 H 155.712 -2.94887 1.75774 0
M  V30 1712 N 158.157 -0.370918 -1.53173 0
M  V30 1713 C 159.12 0.460778 -2.24521 0
M  V30 1714 C 160.12 1.00536 -1.25496 0
M  V30 1715 O 161.31 0.890266 -1.49733 0
M  V30 1716 C 158.442 1.64457 -2.98608 0
M  V30 1717 H 159.635 -0.163613 -2.99453 0
M  V30 1718 H 157.188 -0.122699 -1.55818 0
M  V30 1719 H 157.923 2.30691 -2.2793 0
M  V30 1720 H 157.708 1.26099 -3.7127 0
M  V30 1721 H 159.198 2.23384 -3.5283 0
M  V30 1722 N 159.635 1.57281 -0.100228 0
M  V30 1723 C 160.565 2.17328 0.853857 0
M  V30 1724 C 161.546 1.10804 1.2906 0
M  V30 1725 O 162.731 1.38963 1.35657 0
M  V30 1726 C 159.861 2.75772 2.11109 0
M  V30 1727 C 158.815 3.87713 1.81279 0
M  V30 1728 C 158.141 4.32882 3.13874 0
M  V30 1729 C 159.441 5.10677 1.09574 0
M  V30 1730 H 161.135 2.97305 0.353545 0
M  V30 1731 H 158.681 1.43009 0.168612 0
M  V30 1732 H 160.634 3.16433 2.78296 0
M  V30 1733 H 159.358 1.93057 2.63432 0
M  V30 1734 H 158.017 3.476 1.16489 0
M  V30 1735 H 157.665 3.47051 3.64095 0
M  V30 1736 H 157.365 5.08358 2.94696 0
M  V30 1737 H 158.889 4.7618 3.82211 0
M  V30 1738 H 160.303 5.48474 1.66879 0
M  V30 1739 H 158.7 5.91615 1.00557 0
M  V30 1740 H 159.77 4.84835 0.0793299 0
M  V30 1741 N 161.113 -0.173488 1.56642 0
M  V30 1742 C 162.061 -1.23417 1.97157 0
M  V30 1743 C 163.055 -1.45946 0.860013 0
M  V30 1744 O 164.261 -1.46551 1.04512 0
M  V30 1745 H 160.636 -0.414818 0.62724 0
M  V30 1746 H 162.607 -0.865582 2.8557 0
M  V30 1747 C 161.356 -2.5665 2.34576 0
M  V30 1748 H 160.679 -2.40137 3.19647 0
M  V30 1749 H 162.119 -3.2956 2.6677 0
M  V30 1750 C 160.578 -3.15245 1.18836 0
M  V30 1751 O 161.108 -3.98883 0.474869 0
M  V30 1752 N 159.314 -2.74303 0.959497 0
M  V30 1753 H 158.861 -2.0639 1.54146 0
M  V30 1754 H 158.819 -3.13844 0.186932 0
M  V30 1755 N 162.591 -1.51276 -0.441967 0
M  V30 1756 C 163.554 -1.7167 -1.51862 0
M  V30 1757 C 164.554 -0.586793 -1.49711 0
M  V30 1758 O 165.744 -0.854276 -1.51815 0
M  V30 1759 C 162.876 -1.76889 -2.91416 0
M  V30 1760 H 164.069 -2.67754 -1.35084 0
M  V30 1761 H 161.622 -1.41196 -0.670333 0
M  V30 1762 H 162.357 -0.826026 -3.13604 0
M  V30 1763 H 162.142 -2.59001 -2.94382 0
M  V30 1764 H 163.632 -1.94522 -3.69528 0
M  V30 1765 N 164.069 0.697108 -1.41344 0
M  V30 1766 C 165.299 1.48377 -1.43763 0
M  V30 1767 C 165.707 1.89156 -0.0408726 0
M  V30 1768 O 165.05 1.57239 0.949812 0
M  V30 1769 C 165.112 2.7781 -2.2817 0
M  V30 1770 C 164.776 2.59244 -3.76353 0
M  V30 1771 C 165.773 2.25292 -4.68551 0
M  V30 1772 C 163.458 2.74933 -4.20378 0
M  V30 1773 C 165.452 2.07264 -6.02761 0
M  V30 1774 C 163.139 2.56521 -5.54653 0
M  V30 1775 C 164.137 2.22737 -6.4566 0
M  V30 1776 O 163.825 2.04485 -7.77458 0
M  V30 1777 H 163.557 0.463842 -0.491759 0
M  V30 1778 H 166.111 0.865934 -1.86255 0
M  V30 1779 H 164.341 3.41995 -1.8049 0
M  V30 1780 H 166.03 3.39608 -2.22309 0
M  V30 1781 H 166.796 2.12787 -4.35829 0
M  V30 1782 H 162.675 3.00213 -3.49848 0
M  V30 1783 H 166.219 1.80817 -6.73759 0
M  V30 1784 H 162.116 2.68616 -5.86955 0
M  V30 1785 H 162.884 2.1926 -7.88586 0
M  V30 1786 N 165.547 1.27147 0.931209 0
M  V30 1787 C 166.48 1.0389 2.0318 0
M  V30 1788 C 167.458 -0.0395716 1.62552 0
M  V30 1789 O 168.642 0.104867 1.88208 0
M  V30 1790 C 165.769 0.575227 3.3378 0
M  V30 1791 C 164.815 1.64774 3.93385 0
M  V30 1792 S 165.648 3.23933 4.26413 0
M  V30 1793 C 166.804 2.79358 5.60098 0
M  V30 1794 H 167.037 1.97075 2.22596 0
M  V30 1795 H 164.57 1.10938 1.07387 0
M  V30 1796 H 166.528 0.314385 4.09294 0
M  V30 1797 H 165.189 -0.336505 3.12292 0
M  V30 1798 H 164.382 1.27454 4.87618 0
M  V30 1799 H 163.984 1.86048 3.24441 0
M  V30 1800 H 166.276 2.24443 6.39243 0
M  V30 1801 H 167.219 3.72322 6.02314 0
M  V30 1802 H 167.627 2.1861 5.20452 0
M  V30 1803 N 167.025 -1.13721 1.09112 0
M  V30 1804 C 167.972 -2.19031 0.727591 0
M  V30 1805 C 168.942 -1.63555 -0.289656 0
M  V30 1806 O 170.127 -1.90023 -0.172026 0
M  V30 1807 C 167.267 -3.4477 0.15082 0
M  V30 1808 C 166.38 -4.14365 1.22172 0
M  V30 1809 C 165.515 -5.27709 0.608042 0
M  V30 1810 C 164.554 -5.89147 1.66047 0
M  V30 1811 N 163.691 -6.93929 1.06806 0
M  V30 1812 H 168.531 -2.49475 1.62991 0
M  V30 1813 H 166.068 -1.22499 0.81439 0
M  V30 1814 H 168.026 -4.16714 -0.201358 0
M  V30 1815 H 166.656 -3.14787 -0.714783 0
M  V30 1816 H 165.708 -3.40737 1.69122 0
M  V30 1817 H 167.02 -4.56114 2.01895 0
M  V30 1818 H 166.174 -6.06355 0.204523 0
M  V30 1819 H 164.913 -4.872 -0.220769 0
M  V30 1820 H 163.918 -5.09198 2.07357 0
M  V30 1821 H 165.143 -6.31729 2.49189 0
M  V30 1822 H 163.089 -6.55483 0.260476 0
M  V30 1823 H 163.006 -7.34202 1.8023 0
M  V30 1824 H 164.274 -7.76434 0.690644 0
M  V30 1825 N 168.503 -0.877838 -1.30888 0
M  V30 1826 C 169.728 -0.506629 -2.01117 0
M  V30 1827 C 170.153 0.895564 -1.65412 0
M  V30 1828 O 169.511 1.5923 -0.866922 0
M  V30 1829 C 169.559 -0.680223 -3.54126 0
M  V30 1830 O 168.663 0.277033 -4.11468 0
M  V30 1831 H 168.004 -0.200518 -0.633 0
M  V30 1832 H 170.534 -1.18342 -1.66902 0
M  V30 1833 H 170.544 -0.5765 -4.03907 0
M  V30 1834 H 169.219 -1.70261 -3.79452 0
M  V30 1835 H 167.796 0.127606 -3.72682 0
M  V30 1836 N 169.982 1.44106 -0.638065 0
M  V30 1837 C 170.912 2.33448 0.0494287 0
M  V30 1838 C 171.893 1.48606 0.827672 0
M  V30 1839 O 173.078 1.77308 0.792173 0
M  V30 1840 C 170.208 3.31771 1.02691 0
M  V30 1841 C 169.162 4.26485 0.359823 0
M  V30 1842 C 168.488 5.14729 1.44769 0
M  V30 1843 C 169.788 5.17056 -0.738296 0
M  V30 1844 H 171.482 2.91183 -0.696636 0
M  V30 1845 H 169.028 1.40014 -0.336456 0
M  V30 1846 H 170.981 3.93161 1.51666 0
M  V30 1847 H 169.705 2.7226 1.80395 0
M  V30 1848 H 168.364 3.66437 -0.10934 0
M  V30 1849 H 168.012 4.51566 2.21578 0
M  V30 1850 H 167.712 5.78913 1.00668 0
M  V30 1851 H 169.236 5.78991 1.93911 0
M  V30 1852 H 170.65 5.72342 -0.331354 0
M  V30 1853 H 169.047 5.89879 -1.10286 0
M  V30 1854 H 170.117 4.57652 -1.60258 0
M  V30 1855 N 171.46 0.379036 1.52974 0
M  V30 1856 C 172.39 -0.452706 2.29069 0
M  V30 1857 C 173.371 -1.07237 1.32039 0
M  V30 1858 O 174.556 -1.08708 1.60923 0
M  V30 1859 C 171.686 -1.5856 3.08992 0
M  V30 1860 C 170.64 -1.0925 4.13822 0
M  V30 1861 C 169.966 -2.31668 4.81907 0
M  V30 1862 C 171.266 -0.167702 5.22031 0
M  V30 1863 H 172.96 0.182181 2.98845 0
M  V30 1864 H 170.506 0.0890592 1.43724 0
M  V30 1865 H 172.459 -2.1742 3.6098 0
M  V30 1866 H 171.183 -2.24792 2.36931 0
M  V30 1867 H 169.842 -0.526494 3.628 0
M  V30 1868 H 169.49 -2.96386 4.06404 0
M  V30 1869 H 169.19 -1.9934 5.52754 0
M  V30 1870 H 170.714 -2.91189 5.36695 0
M  V30 1871 H 172.128 -0.664186 5.6944 0
M  V30 1872 H 170.525 0.0653265 6.00064 0
M  V30 1873 H 171.595 0.786347 4.78482 0
M  V30 1874 N 172.938 -1.57226 0.108567 0
M  V30 1875 C 174.163 -1.99604 -0.563303 0
M  V30 1876 C 174.588 -0.987563 -1.6009 0
M  V30 1877 O 173.946 0.0421687 -1.81251 0
M  V30 1878 C 173.994 -3.40902 -1.17552 0
M  V30 1879 O 173.098 -3.42896 -2.2912 0
M  V30 1880 H 172.439 -0.648704 -0.1417 0
M  V30 1881 H 174.969 -2.03679 0.193961 0
M  V30 1882 H 174.979 -3.78886 -1.51357 0
M  V30 1883 H 173.654 -4.1382 -0.415445 0
M  V30 1884 H 172.231 -3.1672 -1.96832 0
M  V30 1885 N 174.416 0.165178 -1.56732 0
M  V30 1886 C 175.346 1.20651 -1.99914 0
M  V30 1887 C 176.327 1.45827 -0.875705 0
M  V30 1888 O 177.512 1.57057 -1.14223 0
M  V30 1889 C 174.642 2.54401 -2.36427 0
M  V30 1890 C 173.596 2.43782 -3.51787 0
M  V30 1891 C 172.922 3.82078 -3.7406 0
M  V30 1892 C 174.222 1.93732 -4.85041 0
M  V30 1893 H 175.916 0.847534 -2.87154 0
M  V30 1894 H 173.462 0.40625 -1.38151 0
M  V30 1895 H 175.415 3.27458 -2.65234 0
M  V30 1896 H 174.139 2.92098 -1.46103 0
M  V30 1897 H 172.798 1.73178 -3.23117 0
M  V30 1898 H 172.446 4.17179 -2.81017 0
M  V30 1899 H 172.146 3.7584 -4.51684 0
M  V30 1900 H 173.67 4.56712 -4.05274 0
M  V30 1901 H 175.084 2.56569 -5.12684 0
M  V30 1902 H 173.481 1.98428 -5.66345 0
M  V30 1903 H 174.551 0.891962 -4.76626 0
M  V30 1904 N 175.894 1.51508 0.433938 0
M  V30 1905 C 177.305 1.56784 1.01369 0
M  V30 1906 C 177.656 0.393349 1.92217 0
M  V30 1907 O 176.781 -0.489441 2.10792 0
M  V30 1908 C 177.376 2.84144 1.8452 0
M  V30 1909 C 175.935 2.9198 2.37539 0
M  V30 1910 C 175.082 2.51482 1.16843 0
M  V30 1911 H 178.033 1.57236 0.215081 0
M  V30 1912 H 178.054 2.68098 2.70007 0
M  V30 1913 H 177.566 3.69607 1.18373 0
M  V30 1914 H 175.667 2.10955 3.0713 0
M  V30 1915 H 175.78 3.95704 2.70103 0
M  V30 1916 H 174.144 2.04758 1.51481 0
M  V30 1917 H 174.927 3.39293 0.523015 0
M  V30 1918 N 177.372 -0.689602 1.41712 0
M  V30 1919 C 178.618 -1.45181 1.41599 0
M  V30 1920 C 178.951 -1.94181 0.0270081 0
M  V30 1921 O 178.226 -1.6993 -0.946265 0
M  V30 1922 C 178.509 -2.65945 2.42787 0
M  V30 1923 C 178.362 -2.22672 3.90816 0
M  V30 1924 C 179.681 -3.68149 2.41151 0
M  V30 1925 H 176.8 -0.526576 0.515642 0
M  V30 1926 H 179.442 -0.784947 1.73028 0
M  V30 1927 H 177.592 -3.2284 2.16116 0
M  V30 1928 H 179.264 -1.71058 4.28412 0
M  V30 1929 H 177.507 -1.54394 4.05395 0
M  V30 1930 H 178.178 -3.0935 4.57172 0
M  V30 1931 H 180.654 -3.2094 2.64834 0
M  V30 1932 H 179.53 -4.50248 3.13955 0
M  V30 1933 H 179.791 -4.18259 1.43221 0
M  V30 1934 N 178.85 -1.27639 -0.924453 0
M  V30 1935 C 180.096 -1.15345 -1.67532 0
M  V30 1936 C 180.451 0.297096 -1.90092 0
M  V30 1937 O 179.744 1.21374 -1.48253 0
M  V30 1938 C 179.938 -1.87407 -3.04325 0
M  V30 1939 C 179.767 -3.3932 -2.95114 0
M  V30 1940 C 178.537 -4.08644 -2.97218 0
M  V30 1941 C 180.735 -4.35242 -2.73987 0
M  V30 1942 N 178.717 -5.47102 -2.78482 0
M  V30 1943 C 180.088 -5.6099 -2.63988 0
M  V30 1944 C 182.143 -4.25294 -2.589 0
M  V30 1945 C 180.846 -6.77924 -2.40442 0
M  V30 1946 C 182.872 -5.41952 -2.36731 0
M  V30 1947 C 182.234 -6.66658 -2.27478 0
M  V30 1948 H 178.333 -0.47696 -0.619704 0
M  V30 1949 H 180.917 -1.6115 -1.09265 0
M  V30 1950 H 179.088 -1.44053 -3.60699 0
M  V30 1951 H 180.82 -1.6759 -3.68369 0
M  V30 1952 H 177.575 -3.60136 -3.07569 0
M  V30 1953 H 177.999 -6.19852 -2.72236 0
M  V30 1954 H 182.641 -3.29598 -2.64811 0
M  V30 1955 H 180.359 -7.73699 -2.3327 0
M  V30 1956 H 183.945 -5.36137 -2.25938 0
M  V30 1957 H 182.825 -7.55405 -2.10555 0
M  V30 1958 N 180.328 1.1314 -1.09713 0
M  V30 1959 C 181.574 1.84757 -0.836224 0
M  V30 1960 C 181.907 1.8347 0.636598 0
M  V30 1961 O 181.182 1.27491 1.46889 0
M  V30 1962 C 181.465 3.32782 -1.37578 0
M  V30 1963 C 181.318 3.42567 -2.91493 0
M  V30 1964 C 182.637 4.28307 -1.01198 0
M  V30 1965 H 179.756 0.67082 -0.305236 0
M  V30 1966 H 182.398 1.3278 -1.35903 0
M  V30 1967 H 180.548 3.77177 -0.931097 0
M  V30 1968 H 182.22 3.06862 -3.44432 0
M  V30 1969 H 180.463 2.83349 -3.28475 0
M  V30 1970 H 181.134 4.46674 -3.24324 0
M  V30 1971 H 183.61 3.91999 -1.39556 0
M  V30 1972 H 182.486 5.30307 -1.41653 0
M  V30 1973 H 182.747 4.42029 0.0794833 0
M  V30 1974 N 181.806 0.884767 1.30421 0
M  V30 1975 C 182.736 0.367574 2.30589 0
M  V30 1976 C 183.717 -0.549464 1.60981 0
M  V30 1977 O 184.902 -0.46336 1.88591 0
M  V30 1978 C 182.032 -0.418944 3.44764 0
M  V30 1979 C 180.986 0.406316 4.26067 0
M  V30 1980 C 180.312 -0.506793 5.32293 0
M  V30 1981 C 181.612 1.64832 4.95608 0
M  V30 1982 H 183.306 1.20462 2.74097 0
M  V30 1983 H 180.852 0.580695 1.31772 0
M  V30 1984 H 182.805 -0.791395 4.13902 0
M  V30 1985 H 181.529 -1.28964 3.0006 0
M  V30 1986 H 180.188 0.760903 3.58617 0
M  V30 1987 H 179.836 -1.37519 4.83836 0
M  V30 1988 H 179.536 0.0415828 5.87585 0
M  V30 1989 H 181.06 -0.875764 6.04287 0
M  V30 1990 H 182.474 1.34646 5.57264 0
M  V30 1991 H 180.871 2.13688 5.60765 0
M  V30 1992 H 181.941 2.39284 4.21748 0
M  V30 1993 N 183.284 -1.43765 0.645699 0
M  V30 1994 C 184.217 -2.2798 -0.100072 0
M  V30 1995 C 185.195 -1.39391 -0.837194 0
M  V30 1996 O 186.379 -1.68833 -0.838306 0
M  V30 1997 C 183.506 -3.18643 -1.14823 0
M  V30 1998 C 182.552 -4.2344 -0.510009 0
M  V30 1999 S 183.385 -5.30761 0.710824 0
M  V30 2000 C 184.541 -6.24992 -0.33699 0
M  V30 2001 H 184.774 -2.90884 0.614322 0
M  V30 2002 H 182.307 -1.48166 0.434304 0
M  V30 2003 H 184.265 -3.71424 -1.74799 0
M  V30 2004 H 182.926 -2.54932 -1.8349 0
M  V30 2005 H 182.119 -4.86948 -1.29991 0
M  V30 2006 H 181.721 -3.73997 0.0154577 0
M  V30 2007 H 184.013 -6.66691 -1.20537 0
M  V30 2008 H 184.956 -7.07612 0.262879 0
M  V30 2009 H 185.364 -5.60517 -0.669425 0
M  V30 2010 N 184.763 -0.387143 -1.52771 0
M  V30 2011 C 186.04 0.253197 -1.93954 0
M  V30 2012 C 186.42 1.64545 -1.32243 0
M  V30 2013 O 185.768 2.23191 -0.489699 0
M  V30 2014 C 185.978 0.281722 -3.47861 0
M  V30 2015 C 187.326 0.511715 -4.21505 0
M  V30 2016 O 188.35 0.362023 -3.54356 0
M  V30 2017 O 187.209 0.804847 -5.40541 0
M  V30 2018 H 184.303 0.156845 -0.811991 0
M  V30 2019 H 186.849 -0.441494 -1.63856 0
M  V30 2020 H 185.621 -0.693571 -3.85104 0
M  V30 2021 H 185.244 1.02142 -3.84256 0
M  V30 2022 N 186.241 1.57166 -0.116904 0
M  V30 2023 C 187.151 2.18745 0.847812 0
M  V30 2024 C 188.167 1.163 1.29423 0
M  V30 2025 O 189.343 1.48761 1.35765 0
M  V30 2026 C 186.408 2.77307 2.0809 0
M  V30 2027 C 185.469 3.94781 1.68661 0
M  V30 2028 C 184.702 4.50541 2.86091 0
M  V30 2029 O 184.925 4.05202 4.01456 0
M  V30 2030 O 183.859 5.41256 2.63298 0
M  V30 2031 H 187.685 3.01632 0.353778 0
M  V30 2032 H 185.27 1.49005 0.108599 0
M  V30 2033 H 187.152 3.14647 2.80313 0
M  V30 2034 H 185.827 1.97452 2.56504 0
M  V30 2035 H 184.734 3.62214 0.935518 0
M  V30 2036 H 186.067 4.76065 1.24991 0
M  V30 2037 N 187.719 -0.156864 1.56817 0
M  V30 2038 C 188.996 -0.899244 1.73704 0
M  V30 2039 C 189.376 -1.99771 0.682254 0
M  V30 2040 O 188.724 -2.26515 -0.300522 0
M  V30 2041 C 188.934 -1.45075 3.17418 0
M  V30 2042 C 190.282 -1.91802 3.7881 0
M  V30 2043 O 191.306 -1.54838 3.20786 0
M  V30 2044 O 190.165 -2.5994 4.80722 0
M  V30 2045 H 187.259 -0.424267 0.709878 0
M  V30 2046 H 189.805 -0.143561 1.69092 0
M  V30 2047 H 188.577 -0.660846 3.85679 0
M  V30 2048 H 188.2 -2.27021 3.26416 0
M  V30 2049 N 189.197 -1.51736 -0.425897 0
M  V30 2050 C 190.443 -1.65214 -1.1761 0
M  V30 2051 C 190.776 -0.372778 -1.90589 0
M  V30 2052 O 190.051 0.628139 -1.84078 0
M  V30 2053 C 190.334 -2.86312 -2.18398 0
M  V30 2054 C 190.187 -4.24254 -1.49426 0
M  V30 2055 C 191.506 -3.02925 -3.19256 0
M  V30 2056 H 188.625 -0.601263 -0.426206 0
M  V30 2057 H 191.267 -1.8425 -0.463882 0
M  V30 2058 H 189.417 -2.70213 -2.79137 0
M  V30 2059 H 191.089 -4.52046 -0.919362 0
M  V30 2060 H 189.332 -4.26426 -0.796432 0
M  V30 2061 H 190.003 -5.05001 -2.22885 0
M  V30 2062 H 192.479 -3.1781 -2.68581 0
M  V30 2063 H 191.355 -3.89199 -3.8706 0
M  V30 2064 H 191.616 -2.15497 -3.86023 0
M  V30 2065 N 190.675 0.682077 -1.42076 0
M  V30 2066 C 192.091 0.994324 -1.24841 0
M  V30 2067 C 192.291 2.0096 -0.147389 0
M  V30 2068 O 191.347 2.47822 0.483782 0
M  V30 2069 C 192.66 1.50607 -2.60265 0
M  V30 2070 C 194.208 1.62421 -2.6756 0
M  V30 2071 C 194.683 2.16994 -4.03333 0
M  V30 2072 N 196.174 2.24337 -4.0525 0
M  V30 2073 C 196.909 2.67621 -5.07116 0
M  V30 2074 N 196.405 3.1041 -6.19368 0
M  V30 2075 N 198.198 2.67305 -4.94474 0
M  V30 2076 H 190.349 0.00973908 -2.12398 0
M  V30 2077 H 192.612 0.0668593 -0.945639 0
M  V30 2078 H 192.318 0.834583 -3.41654 0
M  V30 2079 H 192.192 2.48602 -2.83684 0
M  V30 2080 H 194.579 2.28678 -1.86521 0
M  V30 2081 H 194.66 0.629352 -2.47937 0
M  V30 2082 H 194.304 1.51349 -4.84826 0
M  V30 2083 H 194.234 3.17258 -4.20304 0
M  V30 2084 H 196.725 1.94158 -3.24209 0
M  V30 2085 H 197.038 3.42103 -6.92954 0
M  V30 2086 H 195.383 3.08286 -6.22884 0
M  V30 2087 H 198.574 2.33233 -4.05857 0
M  V30 2088 H 198.747 3.00718 -5.73997 0
M  V30 2089 N 192.153 1.28127 0.917671 0
M  V30 2090 C 193.402 1.14432 1.66097 0
M  V30 2091 C 193.715 -0.307247 1.93172 0
M  V30 2092 O 194.921 -0.565259 2.65551 0
M  V30 2093 C 193.377 2.00015 2.99202 0
M  V30 2094 C 192.985 3.49889 2.79789 0
M  V30 2095 C 194.729 1.94996 3.77064 0
M  V30 2096 C 192.636 4.27636 4.08511 0
M  V30 2097 H 191.566 0.424662 0.62304 0
M  V30 2098 H 194.217 1.52628 1.01868 0
M  V30 2099 H 192.599 1.54672 3.64544 0
M  V30 2100 H 193.773 4.03162 2.23152 0
M  V30 2101 H 192.088 3.56392 2.15345 0
M  V30 2102 H 194.685 2.50354 4.72469 0
M  V30 2103 H 195.028 0.925819 4.05875 0
M  V30 2104 H 195.561 2.38287 3.18534 0
M  V30 2105 H 192.3 5.30615 3.84874 0
M  V30 2106 H 191.82 3.79137 4.64774 0
M  V30 2107 H 193.499 4.37346 4.76799 0
M  V30 2108 N 193.631 -1.12557 1.10312 0
M  V30 2109 C 194.878 -1.84038 0.844759 0
M  V30 2110 C 195.206 -1.84026 -0.629668 0
M  V30 2111 O 194.461 -1.28026 -1.48013 0
M  V30 2112 C 194.76 -3.31462 1.33669 0
M  V30 2113 C 194.426 -3.51647 2.82232 0
M  V30 2114 C 193.088 -3.56864 3.22802 0
M  V30 2115 C 195.44 -3.58867 3.77974 0
M  V30 2116 C 192.768 -3.66844 4.57867 0
M  V30 2117 C 195.12 -3.70375 5.1284 0
M  V30 2118 C 193.784 -3.73848 5.52986 0
M  V30 2119 H 193.054 -0.673444 0.309119 0
M  V30 2120 H 195.701 -1.32824 1.37949 0
M  V30 2121 H 194.006 -3.85091 0.721949 0
M  V30 2122 H 195.703 -3.85236 1.11329 0
M  V30 2123 H 192.293 -3.48249 2.49842 0
M  V30 2124 H 196.477 -3.54107 3.47738 0
M  V30 2125 H 191.733 -3.67804 4.88396 0
M  V30 2126 H 195.907 -3.74904 5.86873 0
M  V30 2127 H 193.534 -3.81333 6.57639 0
M  V30 2128 N 195.109 -0.891671 -1.2995 0
M  V30 2129 C 196.356 -0.513501 -1.95881 0
M  V30 2130 C 196.684 0.938655 -1.70351 0
M  V30 2131 O 195.939 1.67936 -1.00478 0
M  V30 2132 C 196.238 -0.742868 -3.49594 0
M  V30 2133 C 195.904 -2.17114 -3.95186 0
M  V30 2134 C 194.566 -2.56169 -4.07346 0
M  V30 2135 C 196.918 -3.10162 -4.18866 0
M  V30 2136 C 194.246 -3.87469 -4.4055 0
M  V30 2137 C 196.598 -4.41001 -4.53542 0
M  V30 2138 C 195.262 -4.79941 -4.63911 0
M  V30 2139 H 194.532 -0.187903 -0.71678 0
M  V30 2140 H 197.179 -1.1288 -1.54694 0
M  V30 2141 H 195.484 -0.044586 -3.91775 0
M  V30 2142 H 197.181 -0.429767 -3.9869 0
M  V30 2143 H 193.771 -1.85801 -3.86233 0
M  V30 2144 H 197.955 -2.81206 -4.08946 0
M  V30 2145 H 193.211 -4.17371 -4.46779 0
M  V30 2146 H 197.385 -5.13133 -4.70815 0
M  V30 2147 H 195.012 -5.81719 -4.89395 0
M  V30 2148 N 196.587 1.43421 -0.653314 0
M  V30 2149 C 197.817 2.05864 -0.174238 0
M  V30 2150 C 198.225 1.49052 1.16534 0
M  V30 2151 O 197.568 0.616481 1.73047 0
M  V30 2152 C 197.63 3.59499 -0.00875873 0
M  V30 2153 C 197.294 4.38893 -1.27364 0
M  V30 2154 C 198.291 4.70947 -2.20239 0
M  V30 2155 C 195.976 4.789 -1.51525 0
M  V30 2156 C 197.97 5.41916 -3.35568 0
M  V30 2157 C 195.657 5.49614 -2.67147 0
M  V30 2158 C 196.655 5.81044 -3.58994 0
M  V30 2159 O 196.343 6.50313 -4.72597 0
M  V30 2160 H 196.075 0.670345 -0.0872549 0
M  V30 2161 H 198.629 1.84913 -0.894226 0
M  V30 2162 H 196.859 3.79025 0.7666 0
M  V30 2163 H 198.548 4.0364 0.427687 0
M  V30 2164 H 199.314 4.40558 -2.02815 0
M  V30 2165 H 195.193 4.53843 -0.809158 0
M  V30 2166 H 198.737 5.66365 -4.07279 0
M  V30 2167 H 194.634 5.79419 -2.84505 0
M  V30 2168 H 195.402 6.68795 -4.71864 0
M  V30 2169 N 198.065 0.39524 1.52563 0
M  V30 2170 C 198.997 -0.472201 2.24283 0
M  V30 2171 C 200.01 -1.02178 1.26742 0
M  V30 2172 O 201.199 -0.923097 1.52778 0
M  V30 2173 C 198.299 -1.66775 2.95024 0
M  V30 2174 C 197.472 -1.2445 4.19322 0
M  V30 2175 C 196.531 -2.30539 4.7301 0
M  V30 2176 O 195.557 -1.91702 5.35947 0
M  V30 2177 N 196.759 -3.6253 4.53379 0
M  V30 2178 H 199.524 0.142282 2.99362 0
M  V30 2179 H 197.085 0.2219 1.60372 0
M  V30 2180 H 199.077 -2.37283 3.27839 0
M  V30 2181 H 197.647 -2.18845 2.23217 0
M  V30 2182 H 196.867 -0.368069 3.92478 0
M  V30 2183 H 198.155 -0.938457 5.0007 0
M  V30 2184 H 197.553 -3.96841 4.03154 0
M  V30 2185 H 196.11 -4.29055 4.90668 0
M  V30 2186 N 199.544 -1.57102 0.125237 0
M  V30 2187 C 200.769 -2.0019 -0.542101 0
M  V30 2188 C 201.194 -1.00449 -1.59034 0
M  V30 2189 O 200.552 0.0229423 -1.81285 0
M  V30 2190 C 200.6 -3.42129 -1.13929 0
M  V30 2191 O 199.704 -3.45307 -2.2547 0
M  V30 2192 H 199.045 -0.650171 -0.134812 0
M  V30 2193 H 201.575 -2.03461 0.215553 0
M  V30 2194 H 201.585 -3.80471 -1.4733 0
M  V30 2195 H 200.26 -4.14237 -0.371531 0
M  V30 2196 H 198.837 -3.1879 -1.93462 0
M  V30 2197 N 201.022 0.148545 -1.56898 0
M  V30 2198 C 202.433 0.708766 -1.72723 0
M  V30 2199 C 202.784 1.81734 -0.739395 0
M  V30 2200 O 201.909 2.16194 0.0943169 0
M  V30 2201 C 202.504 1.29245 -3.13179 0
M  V30 2202 C 201.063 1.79925 -3.30611 0
M  V30 2203 C 200.21 0.687111 -2.68652 0
M  V30 2204 H 203.161 -0.0771063 -1.58513 0
M  V30 2205 H 203.182 2.16224 -3.13093 0
M  V30 2206 H 202.694 0.485382 -3.85053 0
M  V30 2207 H 200.795 2.63203 -2.63732 0
M  V30 2208 H 200.908 1.92903 -4.38549 0
M  V30 2209 H 199.272 1.11335 -2.29078 0
M  V30 2210 H 200.055 -0.108483 -3.43129 0
M  V30 2211 N 202.5 1.5196 0.417844 0
M  V30 2212 C 203.73 1.69181 1.18581 0
M  V30 2213 C 204.138 0.397104 1.84986 0
M  V30 2214 O 203.481 -0.636011 1.72339 0
M  V30 2215 C 203.543 2.76497 2.29759 0
M  V30 2216 C 203.207 4.18514 1.83563 0
M  V30 2217 C 204.204 5.02648 1.32821 0
M  V30 2218 C 201.889 4.64708 1.90661 0
M  V30 2219 C 203.883 6.31044 0.897894 0
M  V30 2220 C 201.57 5.93096 1.47241 0
M  V30 2221 C 202.568 6.76093 0.968891 0
M  V30 2222 O 202.256 8.02078 0.540924 0
M  V30 2223 H 201.988 0.570457 0.362705 0
M  V30 2224 H 204.542 1.99249 0.498885 0
M  V30 2225 H 202.772 2.41786 3.01789 0
M  V30 2226 H 204.461 2.82403 2.91553 0
M  V30 2227 H 205.227 4.68154 1.26716 0
M  V30 2228 H 201.106 4.00216 2.28797 0
M  V30 2229 H 204.65 6.95776 0.504192 0
M  V30 2230 H 200.547 6.271 1.53022 0
M  V30 2231 H 201.315 8.15794 0.66502 0
M  V30 2232 N 203.978 -0.674533 1.42435 0
M  V30 2233 C 205.255 -1.4305 1.33402 0
M  V30 2234 C 205.635 -2.11081 -0.0284674 0
M  V30 2235 O 204.983 -2.03257 -1.04397 0
M  V30 2236 C 205.193 -2.43272 2.50239 0
M  V30 2237 C 206.541 -3.07907 2.92367 0
M  V30 2238 O 207.565 -2.53599 2.50132 0
M  V30 2239 O 206.424 -4.0632 3.65467 0
M  V30 2240 H 203.518 -0.638076 0.526106 0
M  V30 2241 H 206.064 -0.703235 1.54443 0
M  V30 2242 H 204.836 -1.91803 3.41068 0
M  V30 2243 H 204.459 -3.23479 2.31186 0
M  V30 2244 N 205.456 -1.28612 -0.910864 0
M  V30 2245 C 206.681 -1.1891 -1.69927 0
M  V30 2246 C 207.106 0.248372 -1.86453 0
M  V30 2247 O 206.464 1.17961 -1.37676 0
M  V30 2248 C 206.512 -1.89578 -3.06745 0
M  V30 2249 O 205.616 -1.20521 -3.94396 0
M  V30 2250 H 204.957 -0.412632 -0.520222 0
M  V30 2251 H 207.487 -1.69985 -1.1387 0
M  V30 2252 H 207.497 -1.97597 -3.56958 0
M  V30 2253 H 206.172 -2.94136 -2.94035 0
M  V30 2254 H 204.749 -1.20684 -3.52831 0
M  V30 2255 N 206.934 1.1197 -1.10907 0
M  V30 2256 C 207.844 2.21433 -0.774896 0
M  V30 2257 C 208.86 1.72478 0.229657 0
M  V30 2258 O 210.036 2.01288 0.0672008 0
M  V30 2259 C 207.101 3.4602 -0.216986 0
M  V30 2260 C 206.162 4.09791 -1.27944 0
M  V30 2261 C 205.395 5.28431 -0.748055 0
M  V30 2262 O 205.618 5.68823 0.423833 0
M  V30 2263 O 204.552 5.82644 -1.51027 0
M  V30 2264 H 208.378 2.5242 -1.68873 0
M  V30 2265 H 205.963 1.20399 -0.884555 0
M  V30 2266 H 207.845 4.21304 0.090059 0
M  V30 2267 H 206.52 3.16698 0.669633 0
M  V30 2268 H 205.427 3.36265 -1.63941 0
M  V30 2269 H 206.76 4.4328 -2.13925 0
M  V30 2270 N 208.412 0.89855 1.29475 0
M  V30 2271 C 209.344 0.332726 2.26772 0
M  V30 2272 C 210.357 -0.520323 1.54261 0
M  V30 2273 O 211.546 -0.337668 1.75277 0
M  V30 2274 C 208.646 -0.544334 3.345 0
M  V30 2275 C 207.819 0.282728 4.36485 0
M  V30 2276 C 206.878 -0.526982 5.23555 0
M  V30 2277 O 205.904 0.0551165 5.69173 0
M  V30 2278 N 207.106 -1.83331 5.5079 0
M  V30 2279 H 209.871 1.16897 2.75962 0
M  V30 2280 H 207.432 0.762919 1.42798 0
M  V30 2281 H 209.424 -1.09239 3.89678 0
M  V30 2282 H 207.994 -1.28127 2.85136 0
M  V30 2283 H 207.214 1.01221 3.80983 0
M  V30 2284 H 208.502 0.84918 5.01664 0
M  V30 2285 H 207.9 -2.32898 5.15534 0
M  V30 2286 H 206.457 -2.32852 6.08788 0
M  V30 2287 N 209.89 -1.43072 0.660911 0
M  V30 2288 C 211.136 -2.0202 0.177708 0
M  V30 2289 C 211.469 -1.52066 -1.20787 0
M  V30 2290 O 210.744 -0.716987 -1.80802 0
M  V30 2291 C 211.027 -3.59561 0.197019 0
M  V30 2292 C 210.88 -4.19727 1.61706 0
M  V30 2293 C 212.199 -4.37664 -0.462396 0
M  V30 2294 H 209.318 -0.734034 0.0660494 0
M  V30 2295 H 211.96 -1.70272 0.843058 0
M  V30 2296 H 210.11 -3.86739 -0.369527 0
M  V30 2297 H 211.782 -4.03553 2.23479 0
M  V30 2298 H 210.025 -3.76084 2.16201 0
M  V30 2299 H 210.696 -5.28834 1.58237 0
M  V30 2300 H 213.172 -4.16095 0.0197215 0
M  V30 2301 H 212.048 -5.47305 -0.418188 0
M  V30 2302 H 212.309 -4.14493 -1.53778 0
M  V30 2303 N 211.368 -0.403325 -1.52352 0
M  V30 2304 C 212.779 0.0675782 -1.86578 0
M  V30 2305 C 213.13 1.44941 -1.32236 0
M  V30 2306 O 212.255 2.06112 -0.659307 0
M  V30 2307 C 212.85 0.129404 -3.38553 0
M  V30 2308 C 211.409 0.544629 -3.72439 0
M  V30 2309 C 210.556 -0.284551 -2.75836 0
M  V30 2310 H 213.507 -0.620631 -1.46061 0
M  V30 2311 H 213.528 0.94581 -3.68558 0
M  V30 2312 H 213.04 -0.87645 -3.78074 0
M  V30 2313 H 211.141 1.55734 -3.38493 0
M  V30 2314 H 211.254 0.293046 -4.78203 0
M  V30 2315 H 209.618 0.252258 -2.53448 0
M  V30 2316 H 210.401 -1.28865 -3.18196 0
M  V30 2317 N 212.846 1.57033 -0.133567 0
M  V30 2318 C 213.778 2.13176 0.841944 0
M  V30 2319 C 214.791 1.07794 1.22001 0
M  V30 2320 O 215.98 1.35117 1.16643 0
M  V30 2321 C 213.08 2.62847 2.13926 0
M  V30 2322 C 212.253 3.92486 1.93064 0
M  V30 2323 C 211.312 4.27605 3.0666 0
M  V30 2324 O 210.338 4.96168 2.78937 0
M  V30 2325 N 211.54 3.861 4.33483 0
M  V30 2326 H 214.305 2.97503 0.362192 0
M  V30 2327 H 211.866 1.61821 0.05042 0
M  V30 2328 H 213.858 2.83363 2.88942 0
M  V30 2329 H 212.428 1.83319 2.53205 0
M  V30 2330 H 211.648 3.80732 1.02159 0
M  V30 2331 H 212.936 4.77225 1.76447 0
M  V30 2332 H 212.334 3.30828 4.58878 0
M  V30 2333 H 210.891 4.11694 5.05323 0
M  V30 2334 N 214.325 -0.140222 1.56975 0
M  V30 2335 C 215.288 -1.15689 1.97861 0
M  V30 2336 C 216.288 -1.3549 0.865974 0
M  V30 2337 O 217.478 -1.32367 1.13246 0
M  V30 2338 C 214.61 -2.51582 2.30042 0
M  V30 2339 H 215.803 -0.805971 2.88867 0
M  V30 2340 H 213.356 -0.383801 1.51515 0
M  V30 2341 H 214.091 -2.91632 1.41849 0
M  V30 2342 H 213.876 -2.38569 3.11171 0
M  V30 2343 H 215.366 -3.24792 2.62488 0
M  V30 2344 N 215.803 -1.52179 -0.40978 0
M  V30 2345 C 216.733 -1.78435 -1.5061 0
M  V30 2346 C 217.714 -0.635295 -1.57791 0
M  V30 2347 O 218.899 -0.880823 -1.73076 0
M  V30 2348 C 216.029 -1.93444 -2.88439 0
M  V30 2349 C 214.983 -3.09038 -2.96108 0
M  V30 2350 C 214.309 -3.09268 -4.36185 0
M  V30 2351 C 215.609 -4.48508 -2.67652 0
M  V30 2352 H 217.303 -2.70237 -1.28889 0
M  V30 2353 H 214.849 -1.30036 -0.618605 0
M  V30 2354 H 216.802 -2.10394 -3.65119 0
M  V30 2355 H 215.526 -0.983129 -3.11452 0
M  V30 2356 H 214.185 -2.91837 -2.21872 0
M  V30 2357 H 213.833 -2.11861 -4.56206 0
M  V30 2358 H 213.533 -3.86907 -4.42241 0
M  V30 2359 H 215.057 -3.28348 -5.14801 0
M  V30 2360 H 216.471 -4.65918 -3.34056 0
M  V30 2361 H 214.868 -5.28059 -2.85085 0
M  V30 2362 H 215.938 -4.56649 -1.63095 0
M  V30 2363 N 217.281 0.66697 -1.42791 0
M  V30 2364 C 218.697 0.981027 -1.25889 0
M  V30 2365 C 218.897 2.00793 -0.168695 0
M  V30 2366 O 217.953 2.48321 0.45747 0
M  V30 2367 C 219.266 1.47838 -2.61848 0
M  V30 2368 C 220.814 1.59575 -2.69267 0
M  V30 2369 C 221.289 2.12704 -4.05612 0
M  V30 2370 N 222.78 2.20026 -4.07606 0
M  V30 2371 C 223.515 2.62227 -5.09926 0
M  V30 2372 N 223.011 3.03824 -6.22626 0
M  V30 2373 N 224.804 2.62045 -4.97281 0
M  V30 2374 H 216.955 -0.0127891 -2.12396 0
M  V30 2375 H 219.218 0.0568258 -0.946295 0
M  V30 2376 H 218.924 0.798299 -3.4252 0
M  V30 2377 H 218.798 2.45579 -2.86305 0
M  V30 2378 H 221.185 2.26687 -1.88936 0
M  V30 2379 H 221.266 0.60302 -2.48591 0
M  V30 2380 H 220.91 1.46198 -4.86404 0
M  V30 2381 H 220.84 3.12782 -4.23645 0
M  V30 2382 H 223.331 1.90708 -3.2625 0
M  V30 2383 H 223.644 3.34734 -6.96544 0
M  V30 2384 H 221.989 3.01662 -6.26119 0
M  V30 2385 H 225.18 2.28916 -4.08308 0
M  V30 2386 H 225.353 2.94613 -5.77154 0
M  V30 2387 N 218.759 1.29093 0.90403 0
M  V30 2388 C 220.175 1.07011 1.1841 0
M  V30 2389 C 220.375 -0.181358 2.00682 0
M  V30 2390 O 219.431 -0.880331 2.36657 0
M  V30 2391 C 220.744 2.32311 1.90924 0
M  V30 2392 C 222.292 2.37587 2.03768 0
M  V30 2393 C 222.767 3.62679 2.79693 0
M  V30 2394 N 224.258 3.63376 2.87249 0
M  V30 2395 C 224.993 4.56848 3.46522 0
M  V30 2396 N 224.489 5.60648 4.06996 0
M  V30 2397 N 226.282 4.44426 3.44154 0
M  V30 2398 H 218.433 2.09412 0.354993 0
M  V30 2399 H 220.696 0.922181 0.219742 0
M  V30 2400 H 220.402 3.23536 1.37905 0
M  V30 2401 H 220.276 2.39483 2.91424 0
M  V30 2402 H 222.663 1.46853 2.55965 0
M  V30 2403 H 222.744 2.34403 1.02415 0
M  V30 2404 H 222.388 4.53762 2.28173 0
M  V30 2405 H 222.318 3.63119 3.81381 0
M  V30 2406 H 224.809 2.88321 2.44293 0
M  V30 2407 H 225.122 6.28101 4.50232 0
M  V30 2408 H 223.467 5.64463 4.05471 0
M  V30 2409 H 226.658 3.62529 2.96126 0
M  V30 2410 H 226.831 5.17457 3.90054 0
M  V30 2411 N 220.237 -1.11381 1.11499 0
M  V30 2412 C 221.167 -2.19509 0.796125 0
M  V30 2413 C 222.148 -1.68458 -0.235796 0
M  V30 2414 O 223.333 -1.93947 -0.0991344 0
M  V30 2415 C 220.463 -3.46475 0.239205 0
M  V30 2416 C 219.417 -4.10744 1.20307 0
M  V30 2417 C 218.743 -5.32293 0.50683 0
M  V30 2418 C 220.043 -4.55597 2.55399 0
M  V30 2419 H 221.737 -2.46439 1.70024 0
M  V30 2420 H 219.283 -1.18446 0.818935 0
M  V30 2421 H 221.236 -4.214 0.00392006 0
M  V30 2422 H 219.96 -3.19006 -0.700206 0
M  V30 2423 H 218.619 -3.37813 1.42399 0
M  V30 2424 H 218.267 -5.01095 -0.437408 0
M  V30 2425 H 217.967 -5.76243 1.1497 0
M  V30 2426 H 219.491 -6.09956 0.280351 0
M  V30 2427 H 220.905 -5.21841 2.37391 0
M  V30 2428 H 219.302 -5.10363 3.15673 0
M  V30 2429 H 220.372 -3.69013 3.14575 0
M  V30 2430 N 221.715 -0.905404 -1.28997 0
M  V30 2431 C 223.131 -0.60233 -1.47798 0
M  V30 2432 C 223.331 0.854645 -1.82478 0
M  V30 2433 O 222.387 1.63439 -1.92468 0
M  V30 2434 C 223.7 -1.53306 -2.58685 0
M  V30 2435 C 225.248 -1.53887 -2.72558 0
M  V30 2436 C 225.723 -2.45602 -3.86579 0
M  V30 2437 N 227.214 -2.43681 -3.93921 0
M  V30 2438 C 227.949 -3.11347 -4.81509 0
M  V30 2439 N 227.445 -3.88313 -5.73746 0
M  V30 2440 N 229.238 -3.00476 -4.75048 0
M  V30 2441 H 221.389 -1.84765 -1.04764 0
M  V30 2442 H 223.652 -0.792025 -0.520961 0
M  V30 2443 H 223.358 -2.57141 -2.39941 0
M  V30 2444 H 223.232 -1.25787 -3.55609 0
M  V30 2445 H 225.619 -0.507941 -2.90696 0
M  V30 2446 H 225.7 -1.85447 -1.76191 0
M  V30 2447 H 225.344 -3.48792 -3.69197 0
M  V30 2448 H 225.274 -2.11349 -4.82327 0
M  V30 2449 H 227.765 -1.87767 -3.27951 0
M  V30 2450 H 228.078 -4.36985 -6.37389 0
M  V30 2451 H 226.423 -3.92419 -5.73614 0
M  V30 2452 H 229.614 -2.39858 -4.01977 0
M  V30 2453 H 229.787 -3.53485 -5.43095 0
M  V30 2454 N 223.193 1.4272 -0.668489 0
M  V30 2455 C 224.604 1.84793 -0.266151 0
M  V30 2456 C 224.955 1.55959 1.19043 0
M  V30 2457 O 224.08 1.01622 1.91055 0
M  V30 2458 C 224.675 3.35436 -0.476271 0
M  V30 2459 C 223.234 3.76182 -0.128113 0
M  V30 2460 C 222.381 2.66344 -0.771777 0
M  V30 2461 H 225.332 1.32656 -0.871098 0
M  V30 2462 H 225.353 3.79515 0.273561 0
M  V30 2463 H 224.865 3.5639 -1.53647 0
M  V30 2464 H 222.966 3.60836 0.928891 0
M  V30 2465 H 223.079 4.75766 -0.564231 0
M  V30 2466 H 221.443 2.53885 -0.203652 0
M  V30 2467 H 222.226 2.90123 -1.83531 0
M  V30 2468 N 224.671 0.411399 1.52136 0
M  V30 2469 C 226.087 0.0623865 1.59478 0
M  V30 2470 C 226.287 -1.42554 1.4241 0
M  V30 2471 O 225.343 -2.19263 1.2522 0
M  V30 2472 C 226.656 0.559331 2.95452 0
M  V30 2473 C 228.204 0.517503 3.08692 0
M  V30 2474 C 228.679 0.990994 4.4715 0
M  V30 2475 N 230.17 0.947908 4.53397 0
M  V30 2476 C 230.905 1.28544 5.58806 0
M  V30 2477 N 230.401 1.69454 6.71757 0
M  V30 2478 N 232.194 1.20526 5.49026 0
M  V30 2479 H 224.345 1.37982 1.61477 0
M  V30 2480 H 226.608 0.566977 0.759764 0
M  V30 2481 H 226.314 1.59938 3.1323 0
M  V30 2482 H 226.188 -0.0298014 3.77188 0
M  V30 2483 H 228.575 -0.513505 2.90598 0
M  V30 2484 H 228.656 1.14272 2.28857 0
M  V30 2485 H 228.3 2.02034 4.65988 0
M  V30 2486 H 228.23 0.34257 5.25485 0
M  V30 2487 H 230.721 0.647157 3.72317 0
M  V30 2488 H 231.034 1.93513 7.48179 0
M  V30 2489 H 229.379 1.73359 6.73032 0
M  V30 2490 H 232.57 0.884505 4.59667 0
M  V30 2491 H 232.743 1.47161 6.31069 0
M  V30 2492 N 226.149 -1.5696 0.141893 0
M  V30 2493 C 227.377 -2.00322 -0.517579 0
M  V30 2494 C 227.792 -1.02193 -1.58752 0
M  V30 2495 O 227.149 -0.0181619 -1.82491 0
M  V30 2496 C 227.2 -3.43618 -1.12289 0
M  V30 2497 O 226.921 -4.37995 -0.0956929 0
M  V30 2498 C 228.422 -4.02231 -1.86347 0
M  V30 2499 H 225.642 -0.657243 -0.135177 0
M  V30 2500 H 228.186 -2.03146 0.234973 0
M  V30 2501 H 226.341 -3.41662 -1.82609 0
M  V30 2502 H 226.755 -5.21729 -0.538469 0
M  V30 2503 H 228.229 -5.04509 -2.23997 0
M  V30 2504 H 228.706 -3.42655 -2.74744 0
M  V30 2505 H 229.312 -4.07802 -1.20737 0
M  V30 2506 N 227.627 0.131896 -1.57047 0
M  V30 2507 C 229.043 0.485031 -1.52051 0
M  V30 2508 C 229.243 1.82563 -0.85281 0
M  V30 2509 O 228.299 2.48817 -0.429694 0
M  V30 2510 C 229.612 0.481409 -2.96821 0
M  V30 2511 C 231.16 0.565868 -3.07842 0
M  V30 2512 C 231.635 0.592762 -4.54148 0
M  V30 2513 N 233.126 0.654564 -4.58552 0
M  V30 2514 C 233.861 0.696608 -5.69153 0
M  V30 2515 N 233.357 0.697078 -6.89284 0
M  V30 2516 N 235.15 0.738639 -5.57226 0
M  V30 2517 H 227.301 -0.746664 -1.98843 0
M  V30 2518 H 229.564 -0.273999 -0.90754 0
M  V30 2519 H 229.27 -0.435731 -3.4899 0
M  V30 2520 H 229.144 1.3139 -3.53577 0
M  V30 2521 H 231.531 1.47343 -2.55684 0
M  V30 2522 H 231.612 -0.29406 -2.54104 0
M  V30 2523 H 231.256 -0.310701 -5.06949 0
M  V30 2524 H 231.186 1.46939 -5.05684 0
M  V30 2525 H 233.677 0.660887 -3.72076 0
M  V30 2526 H 233.99 0.731426 -7.69331 0
M  V30 2527 H 232.335 0.66471 -6.91814 0
M  V30 2528 H 235.526 0.735545 -4.62285 0
M  V30 2529 H 235.699 0.767938 -6.43434 0
M  V30 2530 N 229.106 1.52395 0.401703 0
M  V30 2531 C 230.053 1.76268 1.48991 0
M  V30 2532 C 231.023 0.605386 1.54675 0
M  V30 2533 O 232.208 0.843742 1.7113 0
M  V30 2534 C 229.348 1.92592 2.86361 0
M  V30 2535 C 228.461 3.20259 2.89928 0
M  V30 2536 C 227.596 3.26972 4.18644 0
M  V30 2537 C 226.635 4.48812 4.16214 0
M  V30 2538 N 225.772 4.52877 5.36514 0
M  V30 2539 H 230.612 2.6914 1.27935 0
M  V30 2540 H 228.149 1.33355 0.620871 0
M  V30 2541 H 230.107 2.0004 3.66115 0
M  V30 2542 H 228.737 1.03093 3.05895 0
M  V30 2543 H 227.789 3.21945 2.02621 0
M  V30 2544 H 229.101 4.10056 2.83999 0
M  V30 2545 H 228.255 3.33533 5.06794 0
M  V30 2546 H 226.994 2.35126 4.27278 0
M  V30 2547 H 225.999 4.4239 3.26453 0
M  V30 2548 H 227.224 5.41961 4.09213 0
M  V30 2549 H 225.17 3.63917 5.45802 0
M  V30 2550 H 225.087 5.36529 5.32609 0
M  V30 2551 H 226.355 4.63676 6.26597 0
M  V30 2552 N 230.584 -0.659388 1.43143 0
M  V30 2553 C 231.83 -1.42145 1.44647 0
M  V30 2554 C 232.163 -1.9408 0.0681907 0
M  V30 2555 O 231.438 -1.71899 -0.910007 0
M  V30 2556 C 231.721 -2.60735 2.48373 0
M  V30 2557 C 231.574 -2.14332 3.95451 0
M  V30 2558 C 232.893 -3.62951 2.48906 0
M  V30 2559 H 230.012 -0.51552 0.526696 0
M  V30 2560 H 232.654 -0.748069 1.74654 0
M  V30 2561 H 230.804 -3.18184 2.22916 0
M  V30 2562 H 232.476 -1.61932 4.31944 0
M  V30 2563 H 230.719 -1.4576 4.08578 0
M  V30 2564 H 231.39 -2.99583 4.63631 0
M  V30 2565 H 233.866 -3.1525 2.71582 0
M  V30 2566 H 232.742 -4.43487 3.23435 0
M  V30 2567 H 233.003 -4.15126 1.52061 0
M  V30 2568 N 232.062 -1.29571 -0.897171 0
M  V30 2569 C 233.009 -1.14916 -2.00158 0
M  V30 2570 C 233.979 -0.0418149 -1.66047 0
M  V30 2571 O 235.164 -0.209793 -1.89643 0
M  V30 2572 C 232.304 -0.834307 -3.34863 0
M  V30 2573 C 231.417 -2.02234 -3.8174 0
M  V30 2574 C 230.552 -1.64664 -5.05034 0
M  V30 2575 C 229.591 -2.80033 -5.44286 0
M  V30 2576 N 228.728 -2.42843 -6.58765 0
M  V30 2577 H 233.568 -2.09403 -2.12025 0
M  V30 2578 H 231.105 -1.042 -1.0383 0
M  V30 2579 H 233.063 -0.632436 -4.12379 0
M  V30 2580 H 231.693 0.0736656 -3.22716 0
M  V30 2581 H 230.745 -2.33583 -3.00238 0
M  V30 2582 H 232.057 -2.88673 -4.06779 0
M  V30 2583 H 231.211 -1.4078 -5.9014 0
M  V30 2584 H 229.95 -0.753766 -4.8184 0
M  V30 2585 H 228.955 -3.04596 -4.57713 0
M  V30 2586 H 230.18 -3.69989 -5.6946 0
M  V30 2587 H 228.126 -1.56046 -6.3717 0
M  V30 2588 H 228.043 -3.22815 -6.83613 0
M  V30 2589 H 229.311 -2.22285 -7.47134 0
M  V30 2590 N 233.54 1.10788 -1.12088 0
M  V30 2591 C 234.765 1.87002 -0.896949 0
M  V30 2592 C 235.19 1.79933 0.548261 0
M  V30 2593 O 234.548 1.16662 1.38779 0
M  V30 2594 C 234.596 3.3349 -1.37174 0
M  V30 2595 O 233.7 4.08745 -0.547831 0
M  V30 2596 H 233.041 0.580397 -0.322545 0
M  V30 2597 H 235.571 1.39996 -1.49206 0
M  V30 2598 H 235.581 3.84339 -1.36922 0
M  V30 2599 H 234.256 3.37951 -2.42408 0
M  V30 2600 H 232.833 3.6776 -0.617034 0
M  V30 2601 N 235.018 0.912232 1.28515 0
M  V30 2602 C 236.264 0.545405 1.95328 0
M  V30 2603 C 236.597 -0.908313 1.71649 0
M  V30 2604 O 235.872 -1.64575 1.03659 0
M  V30 2605 C 236.155 0.853483 3.4984 0
M  V30 2606 C 236.008 2.35982 3.82926 0
M  V30 2607 C 237.327 0.348589 4.38717 0
M  V30 2608 H 234.446 0.199626 0.709449 0
M  V30 2609 H 237.088 1.1412 1.5191 0
M  V30 2610 H 235.238 0.34643 3.86952 0
M  V30 2611 H 236.91 2.93738 3.55691 0
M  V30 2612 H 235.153 2.81543 3.30024 0
M  V30 2613 H 235.824 2.52593 4.90816 0
M  V30 2614 H 238.3 0.78294 4.08668 0
M  V30 2615 H 237.176 0.593242 5.45685 0
M  V30 2616 H 237.437 -0.751049 4.35674 0
M  V30 2617 N 236.496 -1.42363 0.676048 0
M  V30 2618 C 237.721 -2.06377 0.205705 0
M  V30 2619 C 238.146 -1.50463 -1.12883 0
M  V30 2620 O 237.504 -0.623619 -1.70237 0
M  V30 2621 C 237.552 -3.60277 0.152655 0
M  V30 2622 O 236.656 -4.02935 -0.87845 0
M  V30 2623 H 235.997 -0.655588 0.105359 0
M  V30 2624 H 238.527 -1.82475 0.925412 0
M  V30 2625 H 238.537 -4.07993 -0.0230675 0
M  V30 2626 H 237.212 -4.00346 1.12675 0
M  V30 2627 H 235.789 -3.66764 -0.673668 0
M  V30 2628 N 237.974 -0.419461 -1.51915 0
M  V30 2629 C 239.385 0.0477853 -1.86639 0
M  V30 2630 C 239.736 1.43531 -1.33766 0
M  V30 2631 O 238.861 2.05401 -0.68113 0
M  V30 2632 C 239.456 0.0934885 -3.38671 0
M  V30 2633 C 238.015 0.505097 -3.72996 0
M  V30 2634 C 237.162 -0.313792 -2.75519 0
M  V30 2635 H 240.113 -0.636088 -1.45395 0
M  V30 2636 H 240.134 0.906667 -3.6954 0
M  V30 2637 H 239.646 -0.916501 -3.77123 0
M  V30 2638 H 237.747 1.52135 -3.40126 0
M  V30 2639 H 237.86 0.242309 -4.78487 0
M  V30 2640 H 236.224 0.225363 -2.53701 0
M  V30 2641 H 237.007 -1.32232 -3.16812 0
M  V30 2642 N 239.452 1.56882 -0.150215 0
M  V30 2643 C 240.384 2.14057 0.819286 0
M  V30 2644 C 241.397 1.09082 1.20851 0
M  V30 2645 O 242.586 1.36347 1.15203 0
M  V30 2646 C 239.686 2.65102 2.11127 0
M  V30 2647 C 238.859 3.94511 1.88891 0
M  V30 2648 C 237.918 4.30834 3.02107 0
M  V30 2649 O 236.944 4.99099 2.73659 0
M  V30 2650 N 238.146 3.90676 4.29363 0
M  V30 2651 H 240.911 2.97871 0.330618 0
M  V30 2652 H 238.472 1.61866 0.0332538 0
M  V30 2653 H 240.464 2.86411 2.85921 0
M  V30 2654 H 239.034 1.85994 2.51247 0
M  V30 2655 H 238.254 3.81795 0.981152 0
M  V30 2656 H 239.542 4.7907 1.71376 0
M  V30 2657 H 238.94 3.35677 4.55343 0
M  V30 2658 H 237.497 4.1703 5.00928 0
M  V30 2659 N 240.93 -0.123565 1.57115 0
M  V30 2660 C 242.178 -0.83051 1.84247 0
M  V30 2661 C 242.499 -1.80629 0.73471 0
M  V30 2662 O 241.769 -1.94403 -0.241688 0
M  V30 2663 H 240.349 -0.309694 0.679778 0
M  V30 2664 H 243.011 -0.111976 1.94578 0
M  V30 2665 H 242.107 -1.37852 2.80006 0
M  V30 2666 N 242.408 -1.52605 -0.393616 0
M  V30 2667 C 243.356 -1.77688 -1.50099 0
M  V30 2668 C 244.35 -0.644615 -1.56656 0
M  V30 2669 O 245.556 -0.826997 -1.59877 0
M  V30 2670 H 241.931 -0.562159 -0.499481 0
M  V30 2671 H 243.902 -2.7043 -1.26135 0
M  V30 2672 C 242.651 -1.95858 -2.87289 0
M  V30 2673 H 241.974 -2.8241 -2.82992 0
M  V30 2674 H 243.414 -2.174 -3.64024 0
M  V30 2675 C 241.873 -0.729848 -3.28899 0
M  V30 2676 O 242.403 0.0949217 -4.01588 0
M  V30 2677 N 240.609 -0.561283 -2.85128 0
M  V30 2678 H 240.156 -1.23357 -2.26143 0
M  V30 2679 H 240.114 0.2595 -3.13327 0
M  V30 2680 N 243.887 0.651787 -1.4349 0
M  V30 2681 C 245.112 1.44434 -1.48841 0
M  V30 2682 C 245.537 1.8779 -0.107955 0
M  V30 2683 O 244.895 1.57464 0.898602 0
M  V30 2684 C 244.943 2.65458 -2.44059 0
M  V30 2685 O 244.047 3.64566 -1.92784 0
M  V30 2686 H 243.388 0.433005 -0.503391 0
M  V30 2687 H 245.918 0.797451 -1.88419 0
M  V30 2688 H 245.928 3.13255 -2.6141 0
M  V30 2689 H 244.603 2.33244 -3.4434 0
M  V30 2690 H 243.18 3.23716 -1.851 0
M  V30 2691 N 245.365 1.30045 0.890287 0
M  V30 2692 C 246.611 1.18737 1.64406 0
M  V30 2693 C 246.944 -0.258525 1.92472 0
M  V30 2694 O 246.219 -1.18562 1.54186 0
M  V30 2695 C 246.502 2.01087 2.98724 0
M  V30 2696 C 246.355 3.53867 2.77665 0
M  V30 2697 C 247.674 1.84457 3.9958 0
M  V30 2698 H 244.793 0.432698 0.596608 0
M  V30 2699 H 247.435 1.5962 1.0306 0
M  V30 2700 H 245.585 1.66349 3.51084 0
M  V30 2701 H 247.257 3.98637 2.32133 0
M  V30 2702 H 245.5 3.78318 2.12269 0
M  V30 2703 H 246.171 4.06772 3.7315 0
M  V30 2704 H 248.647 2.14817 3.56361 0
M  V30 2705 H 247.523 2.44411 4.91482 0
M  V30 2706 H 247.784 0.802276 4.3476 0
M  V30 2707 N 246.843 -1.10192 1.12674 0
M  V30 2708 C 248.12 -1.78717 0.794965 0
M  V30 2709 C 248.5 -1.98628 -0.714853 0
M  V30 2710 O 247.848 -1.58135 -1.64941 0
M  V30 2711 C 248.058 -3.11546 1.5729 0
M  V30 2712 C 249.406 -3.86382 1.76052 0
M  V30 2713 O 250.43 -3.21274 1.53823 0
M  V30 2714 O 249.289 -5.03246 2.13087 0
M  V30 2715 H 246.383 -0.774702 0.289423 0
M  V30 2716 H 248.929 -1.16819 1.23091 0
M  V30 2717 H 247.701 -2.92489 2.59935 0
M  V30 2718 H 247.324 -3.81164 1.13137 0
M  V30 2719 N 248.321 -0.919034 -1.28029 0
M  V30 2720 C 249.737 -0.617972 -1.4715 0
M  V30 2721 C 249.937 0.835242 -1.83374 0
M  V30 2722 O 248.993 1.61388 -1.94191 0
M  V30 2723 C 250.306 -1.56041 -2.57044 0
M  V30 2724 C 251.854 -1.56769 -2.7091 0
M  V30 2725 C 252.329 -2.49688 -3.83953 0
M  V30 2726 N 253.82 -2.47845 -3.91314 0
M  V30 2727 C 254.555 -3.16437 -4.78179 0
M  V30 2728 N 254.051 -3.94376 -5.69596 0
M  V30 2729 N 255.844 -3.05498 -4.71834 0
M  V30 2730 H 247.995 -1.85866 -1.02798 0
M  V30 2731 H 250.258 -0.797506 -0.512531 0
M  V30 2732 H 249.964 -2.59671 -2.372 0
M  V30 2733 H 249.838 -1.29551 -3.54255 0
M  V30 2734 H 252.225 -0.538745 -2.90141 0
M  V30 2735 H 252.306 -1.87305 -1.74214 0
M  V30 2736 H 251.95 -3.52688 -3.65477 0
M  V30 2737 H 251.88 -2.16453 -4.80058 0
M  V30 2738 H 254.371 -1.91234 -3.25941 0
M  V30 2739 H 254.684 -4.43721 -6.32718 0
M  V30 2740 H 253.029 -3.98481 -5.69419 0
M  V30 2741 H 256.22 -2.44108 -3.99411 0
M  V30 2742 H 256.393 -3.59225 -5.39316 0
M  V30 2743 N 249.799 1.42003 -0.683588 0
M  V30 2744 C 250.732 2.28166 0.039592 0
M  V30 2745 C 251.71 1.41562 0.799942 0
M  V30 2746 O 252.894 1.70997 0.793248 0
M  V30 2747 C 250.021 3.21575 1.06335 0
M  V30 2748 C 249.067 4.24643 0.397562 0
M  V30 2749 S 249.9 5.2869 -0.851296 0
M  V30 2750 C 251.056 6.25666 0.171166 0
M  V30 2751 H 251.289 2.89153 -0.691229 0
M  V30 2752 H 248.822 1.46962 -0.473435 0
M  V30 2753 H 250.78 3.75928 1.6489 0
M  V30 2754 H 249.441 2.59707 1.76667 0
M  V30 2755 H 248.634 4.90223 1.17035 0
M  V30 2756 H 248.236 3.73824 -0.114611 0
M  V30 2757 H 250.528 6.69653 1.02819 0
M  V30 2758 H 251.471 7.06666 -0.450397 0
M  V30 2759 H 251.879 5.62095 0.520578 0
M  V30 2760 N 251.277 0.427512 1.51691 0
M  V30 2761 C 252.24 -0.377132 2.26076 0
M  V30 2762 C 253.24 -0.958089 1.29141 0
M  V30 2763 O 254.43 -0.83408 1.52934 0
M  V30 2764 C 251.562 -1.53262 3.04506 0
M  V30 2765 H 252.755 0.27464 2.9864 0
M  V30 2766 H 250.308 0.180445 1.55255 0
M  V30 2767 H 251.043 -2.22072 2.36335 0
M  V30 2768 H 250.828 -1.12232 3.75694 0
M  V30 2769 H 252.318 -2.10135 3.60878 0
M  V30 2770 N 252.755 -1.56801 0.158532 0
M  V30 2771 C 253.718 -2.16138 -0.762705 0
M  V30 2772 C 254.718 -1.1061 -1.16713 0
M  V30 2773 O 255.908 -1.36191 -1.08617 0
M  V30 2774 C 253.04 -2.73386 -2.03649 0
M  V30 2775 H 254.233 -2.98886 -0.246354 0
M  V30 2776 H 251.786 -1.56035 -0.0909744 0
M  V30 2777 H 252.521 -1.94335 -2.59623 0
M  V30 2778 H 252.306 -3.50601 -1.75559 0
M  V30 2779 H 253.796 -3.19065 -2.6942 0
M  V30 2780 N 254.233 0.115231 -1.57178 0
M  V30 2781 C 255.644 0.67197 -1.74188 0
M  V30 2782 C 255.995 1.80125 -0.777777 0
M  V30 2783 O 255.12 2.16346 0.0484376 0
M  V30 2784 C 255.715 1.22573 -3.1585 0
M  V30 2785 C 254.274 1.72872 -3.34353 0
M  V30 2786 C 253.421 0.629972 -2.70049 0
M  V30 2787 H 256.372 -0.110712 -1.58313 0
M  V30 2788 H 256.393 2.09535 -3.17609 0
M  V30 2789 H 255.905 0.403598 -3.85996 0
M  V30 2790 H 254.006 2.5755 -2.69256 0
M  V30 2791 H 254.119 1.83557 -4.42542 0
M  V30 2792 H 252.483 1.0645 -2.31388 0
M  V30 2793 H 253.266 -0.181241 -3.42821 0
M  V30 2794 N 255.711 1.52812 0.385517 0
M  V30 2795 C 257.127 1.4214 0.725829 0
M  V30 2796 C 257.327 0.544589 1.94001 0
M  V30 2797 O 256.383 0.0193693 2.52493 0
M  V30 2798 C 257.696 2.85042 0.957668 0
M  V30 2799 C 259.244 2.94543 1.05892 0
M  V30 2800 C 259.719 4.38464 1.32337 0
M  V30 2801 N 261.21 4.41804 1.39151 0
M  V30 2802 C 261.945 5.5025 1.61285 0
M  V30 2803 N 261.441 6.68775 1.80866 0
M  V30 2804 N 263.234 5.37798 1.63492 0
M  V30 2805 H 255.385 2.08338 -0.413383 0
M  V30 2806 H 257.648 0.940016 -0.122775 0
M  V30 2807 H 257.354 3.51431 0.137568 0
M  V30 2808 H 257.228 3.27505 1.87137 0
M  V30 2809 H 259.615 2.28321 1.86959 0
M  V30 2810 H 259.696 2.55504 0.123057 0
M  V30 2811 H 259.34 5.05254 0.517793 0
M  V30 2812 H 259.27 4.75059 2.27214 0
M  V30 2813 H 261.761 3.56377 1.25713 0
M  V30 2814 H 262.074 7.47197 1.97271 0
M  V30 2815 H 260.419 6.71797 1.78083 0
M  V30 2816 H 263.61 4.44171 1.47749 0
M  V30 2817 H 263.783 6.22382 1.80402 0
M  V30 2818 N 257.189 -0.644168 1.43834 0
M  V30 2819 C 258.152 -1.73857 1.49353 0
M  V30 2820 C 259.152 -1.56315 0.377112 0
M  V30 2821 O 260.342 -1.62048 0.639226 0
M  V30 2822 C 257.474 -3.12819 1.35488 0
M  V30 2823 H 258.667 -1.70342 2.46827 0
M  V30 2824 H 256.22 -0.856652 1.30733 0
M  V30 2825 H 256.955 -3.2194 0.390569 0
M  V30 2826 H 256.74 -3.26958 2.16428 0
M  V30 2827 H 258.23 -3.92606 1.42302 0
M  V30 2828 N 258.668 -1.30515 -0.883378 0
M  V30 2829 C 259.578 -1.18959 -2.02203 0
M  V30 2830 C 260.594 -0.109172 -1.73657 0
M  V30 2831 O 261.77 -0.324413 -1.9877 0
M  V30 2832 C 258.835 -0.883871 -3.35244 0
M  V30 2833 C 257.896 -2.04982 -3.77201 0
M  V30 2834 C 257.129 -1.75859 -5.03894 0
M  V30 2835 O 257.352 -0.687276 -5.66244 0
M  V30 2836 O 256.286 -2.61146 -5.42297 0
M  V30 2837 H 260.112 -2.14616 -2.1488 0
M  V30 2838 H 257.697 -1.10124 -1.0096 0
M  V30 2839 H 259.579 -0.728644 -4.15053 0
M  V30 2840 H 258.254 0.0427798 -3.23672 0
M  V30 2841 H 257.161 -2.26038 -2.9809 0
M  V30 2842 H 258.494 -2.95825 -3.93381 0
M  V30 2843 N 260.146 1.09593 -1.13257 0
M  V30 2844 C 261.109 2.14359 -0.811358 0
M  V30 2845 C 262.109 1.59808 0.178377 0
M  V30 2846 O 263.299 1.74132 -0.0484911 0
M  V30 2847 C 260.431 3.40269 -0.207276 0
M  V30 2848 H 261.624 2.44284 -1.73969 0
M  V30 2849 H 259.177 1.25102 -0.936973 0
M  V30 2850 H 259.912 3.15969 0.73036 0
M  V30 2851 H 259.697 3.81154 -0.919992 0
M  V30 2852 H 261.187 4.176 0.000667944 0
M  V30 2853 N 261.624 0.925811 1.2754 0
M  V30 2854 C 262.554 0.440748 2.29303 0
M  V30 2855 C 263.535 -0.497971 1.62648 0
M  V30 2856 O 264.72 -0.403126 1.8997 0
M  V30 2857 C 261.85 -0.309048 3.45922 0
M  V30 2858 C 260.804 0.54166 4.24559 0
M  V30 2859 C 260.13 -0.337191 5.33636 0
M  V30 2860 C 261.43 1.80516 4.90114 0
M  V30 2861 H 263.124 1.29121 2.70126 0
M  V30 2862 H 260.67 0.622323 1.29858 0
M  V30 2863 H 262.623 -0.659315 4.1621 0
M  V30 2864 H 261.347 -1.19352 3.04011 0
M  V30 2865 H 260.006 0.874609 3.56014 0
M  V30 2866 H 259.654 -1.22056 4.87966 0
M  V30 2867 H 259.354 0.228497 5.87156 0
M  V30 2868 H 260.878 -0.683072 6.06767 0
M  V30 2869 H 262.292 1.52307 5.52698 0
M  V30 2870 H 260.689 2.3142 5.53683 0
M  V30 2871 H 261.759 2.52581 4.13921 0
M  V30 2872 N 263.102 -1.41638 0.69111 0
M  V30 2873 C 264.349 -2.01299 0.220193 0
M  V30 2874 C 264.677 -1.54715 -1.17871 0
M  V30 2875 O 263.932 -0.747193 -1.80874 0
M  V30 2876 C 264.231 -3.56714 0.221277 0
M  V30 2877 C 263.897 -4.22792 1.56709 0
M  V30 2878 C 262.559 -4.40557 1.93554 0
M  V30 2879 C 264.911 -4.59883 2.45268 0
M  V30 2880 C 262.239 -4.92688 3.18552 0
M  V30 2881 C 264.591 -5.13403 3.69595 0
M  V30 2882 C 263.255 -5.29379 4.06589 0
M  V30 2883 H 262.525 -0.736606 0.0805743 0
M  V30 2884 H 265.172 -1.69598 0.889319 0
M  V30 2885 H 263.477 -3.8818 -0.531391 0
M  V30 2886 H 265.174 -4.00678 -0.160547 0
M  V30 2887 H 261.764 -4.09336 1.2705 0
M  V30 2888 H 265.948 -4.45817 2.18084 0
M  V30 2889 H 261.204 -5.03242 3.47214 0
M  V30 2890 H 265.378 -5.41084 4.38407 0
M  V30 2891 H 263.005 -5.69537 5.03519 0
M  V30 2892 N 264.58 -0.43555 -1.51462 0
M  V30 2893 C 265.857 0.191364 -1.94662 0
M  V30 2894 C 266.237 1.60254 -1.37411 0
M  V30 2895 O 265.585 2.2152 -0.560458 0
M  V30 2896 C 265.795 0.17091 -3.48581 0
M  V30 2897 C 267.143 0.377357 -4.2292 0
M  V30 2898 O 268.167 0.249104 -3.55328 0
M  V30 2899 O 267.026 0.63247 -5.42828 0
M  V30 2900 H 264.12 0.130932 -0.816569 0
M  V30 2901 H 266.666 -0.4934 -1.62369 0
M  V30 2902 H 265.438 -0.815738 -3.82703 0
M  V30 2903 H 265.061 0.898659 -3.87311 0
M  V30 2904 N 266.058 1.56714 -0.166846 0
M  V30 2905 C 267.305 1.96747 0.479252 0
M  V30 2906 C 267.633 1.05263 1.63554 0
M  V30 2907 O 266.888 0.0858098 1.95512 0
M  V30 2908 C 267.187 3.42889 1.00806 0
M  V30 2909 C 266.853 4.50889 -0.0318574 0
M  V30 2910 C 265.515 4.8015 -0.317675 0
M  V30 2911 C 267.867 5.15949 -0.737956 0
M  V30 2912 C 265.195 5.71772 -1.31506 0
M  V30 2913 C 267.547 6.08647 -1.72429 0
M  V30 2914 C 266.211 6.36277 -2.0176 0
M  V30 2915 H 265.481 0.719949 0.175371 0
M  V30 2916 H 268.128 1.89756 -0.257864 0
M  V30 2917 H 266.433 3.4681 1.82291 0
M  V30 2918 H 268.13 3.71203 1.51689 0
M  V30 2919 H 264.72 4.28128 0.201088 0
M  V30 2920 H 268.904 4.93458 -0.530351 0
M  V30 2921 H 264.16 5.91465 -1.54853 0
M  V30 2922 H 268.334 6.58129 -2.27682 0
M  V30 2923 H 265.961 7.07075 -2.79194 0
M  V30 2924 N 267.536 -0.106894 1.57237 0
M  V30 2925 C 268.764 -0.826389 1.8968 0
M  V30 2926 C 269.179 -1.72856 0.759353 0
M  V30 2927 O 268.536 -1.80503 -0.269263 0
M  V30 2928 C 268.587 -1.64967 3.21665 0
M  V30 2929 O 268.308 -0.783804 4.31031 0
M  V30 2930 C 269.809 -2.47326 3.67892 0
M  V30 2931 H 267.029 -0.236927 0.627779 0
M  V30 2932 H 269.573 -0.0876593 2.04312 0
M  V30 2933 H 267.728 -2.34103 3.08666 0
M  V30 2934 H 268.142 -1.35284 5.06753 0
M  V30 2935 H 269.616 -3.00604 4.6297 0
M  V30 2936 H 270.093 -3.25247 2.95146 0
M  V30 2937 H 270.699 -1.83411 3.83719 0
M  V30 2938 N 269.014 -1.53014 -0.377408 0
M  V30 2939 C 270.262 -1.6829 -1.11906 0
M  V30 2940 C 270.583 -0.431206 -1.90173 0
M  V30 2941 O 269.853 0.554595 -1.87886 0
M  V30 2942 H 268.433 -0.620371 -0.416112 0
M  V30 2943 H 271.095 -1.90167 -0.426893 0
M  V30 2944 H 270.191 -2.53862 -1.8155 0
M  V30 2945 N 270.492 0.636531 -1.44174 0
M  V30 2946 C 271.44 1.76995 -1.50915 0
M  V30 2947 C 272.434 1.65053 -0.381295 0
M  V30 2948 O 273.64 1.71197 -0.55601 0
M  V30 2949 H 270.015 0.584247 -0.473455 0
M  V30 2950 H 271.986 1.68432 -2.4632 0
M  V30 2951 C 270.735 3.15314 -1.46534 0
M  V30 2952 H 270.058 3.25149 -2.32633 0
M  V30 2953 H 271.498 3.9453 -1.55312 0
M  V30 2954 C 269.957 3.3639 -0.185305 0
M  V30 2955 O 270.487 3.94699 0.746688 0
M  V30 2956 N 268.693 2.9046 -0.0901606 0
M  V30 2957 H 268.24 2.43193 -0.849416 0
M  V30 2958 H 268.198 3.04937 0.765553 0
M  V30 2959 N 271.97 1.30982 0.876444 0
M  V30 2960 C 273.195 1.23373 1.66715 0
M  V30 2961 C 273.62 -0.19885 1.87046 0
M  V30 2962 O 272.978 -1.1427 1.40756 0
M  V30 2963 C 273.026 1.97644 3.01611 0
M  V30 2964 O 272.13 1.30935 3.91062 0
M  V30 2965 H 271.471 0.426279 0.509099 0
M  V30 2966 H 274.001 1.72944 1.09323 0
M  V30 2967 H 274.011 2.06992 3.51594 0
M  V30 2968 H 272.686 3.01829 2.86133 0
M  V30 2969 H 271.263 1.29996 3.49507 0
M  V30 2970 N 273.449 -1.08991 1.13837 0
M  V30 2971 C 274.396 -2.15748 0.819835 0
M  V30 2972 C 275.366 -1.64636 -0.220026 0
M  V30 2973 O 276.551 -1.90582 -0.0912757 0
M  V30 2974 C 273.691 -3.4382 0.296913 0
M  V30 2975 C 272.804 -4.0881 1.39636 0
M  V30 2976 C 271.939 -5.24655 0.831314 0
M  V30 2977 C 270.978 -5.81575 1.90886 0
M  V30 2978 N 270.115 -6.88774 1.36142 0
M  V30 2979 H 274.955 -2.42338 1.73426 0
M  V30 2980 H 272.492 -1.18935 0.865613 0
M  V30 2981 H 274.45 -4.17193 -0.0244339 0
M  V30 2982 H 273.08 -3.17535 -0.580628 0
M  V30 2983 H 272.132 -3.33258 1.83422 0
M  V30 2984 H 273.444 -4.47141 2.21058 0
M  V30 2985 H 272.598 -6.04942 0.461515 0
M  V30 2986 H 271.337 -4.87698 -0.013932 0
M  V30 2987 H 270.342 -4.99946 2.28767 0
M  V30 2988 H 271.567 -6.20592 2.75758 0
M  V30 2989 H 269.513 -6.53788 0.538254 0
M  V30 2990 H 269.43 -7.25898 2.11208 0
M  V30 2991 H 270.698 -7.72806 1.01933 0
M  V30 2992 N 274.927 -0.932562 -1.27047 0
M  V30 2993 C 275.857 -0.452902 -2.29066 0
M  V30 2994 C 276.838 0.489338 -1.62909 0
M  V30 2995 O 278.023 0.393046 -1.90181 0
M  V30 2996 C 275.153 0.290698 -3.46081 0
M  V30 2997 C 274.107 -0.564168 -4.24265 0
M  V30 2998 C 273.433 0.308886 -5.33807 0
M  V30 2999 C 274.733 -1.83112 -4.89149 0
M  V30 3000 H 276.427 -1.30552 -2.69437 0
M  V30 3001 H 273.973 -0.629201 -1.29526 0
M  V30 3002 H 275.926 0.637233 -4.16554 0
M  V30 3003 H 274.65 1.17738 -3.0464 0
M  V30 3004 H 273.309 -0.893477 -3.55545 0
M  V30 3005 H 272.957 1.19467 -4.88607 0
M  V30 3006 H 272.657 -0.259633 -5.87026 0
M  V30 3007 H 274.181 0.650884 -6.07121 0
M  V30 3008 H 275.595 -1.55236 -5.51883 0
M  V30 3009 H 273.992 -2.34353 -5.52448 0
M  V30 3010 H 275.062 -2.54772 -4.12576 0
M  V30 3011 N 276.405 1.4127 -0.698611 0
M  V30 3012 C 277.315 2.34573 -0.0357891 0
M  V30 3013 C 278.331 1.56393 0.762701 0
M  V30 3014 O 279.507 1.8886 0.699564 0
M  V30 3015 C 276.572 3.35159 0.887089 0
M  V30 3016 C 275.633 4.29225 0.0804634 0
M  V30 3017 C 274.866 5.25006 0.959387 0
M  V30 3018 O 275.089 5.26314 2.19886 0
M  V30 3019 O 274.023 6.00519 0.407439 0
M  V30 3020 H 277.849 2.92838 -0.804957 0
M  V30 3021 H 275.434 1.42175 -0.458966 0
M  V30 3022 H 277.316 3.9689 1.41621 0
M  V30 3023 H 275.991 2.79333 1.6357 0
M  V30 3024 H 274.898 3.70833 -0.493328 0
M  V30 3025 H 276.231 4.88157 -0.629547 0
M  V30 3026 N 277.883 0.443576 1.51229 0
M  V30 3027 C 278.813 -0.355142 2.30783 0
M  V30 3028 C 279.794 -1.0154 1.36468 0
M  V30 3029 O 280.979 -1.01785 1.65389 0
M  V30 3030 C 278.109 -1.45312 3.15439 0
M  V30 3031 C 277.063 -0.916002 4.18083 0
M  V30 3032 C 276.389 -2.1102 4.91299 0
M  V30 3033 C 277.689 0.0538602 5.22272 0
M  V30 3034 H 279.383 0.308767 2.97804 0
M  V30 3035 H 276.929 0.149937 1.43217 0
M  V30 3036 H 278.882 -2.01914 3.69876 0
M  V30 3037 H 277.606 -2.14541 2.46252 0
M  V30 3038 H 276.265 -0.372145 3.64706 0
M  V30 3039 H 275.913 -2.78882 4.18609 0
M  V30 3040 H 275.613 -1.75717 5.60712 0
M  V30 3041 H 277.137 -2.68164 5.48562 0
M  V30 3042 H 278.551 -0.422069 5.71744 0
M  V30 3043 H 276.948 0.319776 5.99247 0
M  V30 3044 H 278.018 0.98858 4.74716 0
M  V30 3045 N 279.361 -1.56624 0.175154 0
M  V30 3046 C 280.309 -2.19468 -0.770495 0
M  V30 3047 C 281.303 -1.15985 -1.23466 0
M  V30 3048 O 282.509 -1.34176 -1.19987 0
M  V30 3049 H 278.884 -0.703095 -0.266761 0
M  V30 3050 H 280.855 -2.97613 -0.216542 0
M  V30 3051 C 279.604 -2.85264 -1.98796 0
M  V30 3052 H 278.927 -3.64623 -1.63983 0
M  V30 3053 H 280.367 -3.327 -2.62843 0
M  V30 3054 C 278.826 -1.85239 -2.81404 0
M  V30 3055 O 279.356 -1.34024 -3.78682 0
M  V30 3056 N 277.562 -1.53911 -2.46495 0
M  V30 3057 H 277.109 -1.95751 -1.67449 0
M  V30 3058 H 277.067 -0.872382 -3.02054 0
M  V30 3059 N 280.839 0.0985539 -1.57292 0
M  V30 3060 C 282.086 0.802678 -1.85912 0
M  V30 3061 C 282.414 1.78901 -0.763186 0
M  V30 3062 O 281.669 1.94178 0.243559 0
M  V30 3063 C 281.968 1.56927 -3.21105 0
M  V30 3064 C 281.634 0.725376 -4.45027 0
M  V30 3065 C 280.296 0.492726 -4.78671 0
M  V30 3066 C 282.648 0.138493 -5.21016 0
M  V30 3067 C 279.976 -0.336727 -5.85733 0
M  V30 3068 C 282.328 -0.678264 -6.28953 0
M  V30 3069 C 280.992 -0.921039 -6.61115 0
M  V30 3070 H 280.262 0.293721 -0.680301 0
M  V30 3071 H 282.909 0.0642841 -1.91392 0
M  V30 3072 H 281.214 2.37914 -3.11294 0
M  V30 3073 H 282.911 2.11841 -3.40477 0
M  V30 3074 H 279.501 0.916815 -4.18679 0
M  V30 3075 H 283.685 0.305404 -4.95359 0
M  V30 3076 H 278.941 -0.533836 -6.09065 0
M  V30 3077 H 283.115 -1.1399 -6.87007 0
M  V30 3078 H 280.742 -1.56556 -7.43905 0
M  V30 3079 N 282.317 1.53212 0.369288 0
M  V30 3080 C 283.264 1.79388 1.45219 0
M  V30 3081 C 284.234 0.638059 1.53356 0
M  V30 3082 O 285.419 0.879852 1.69302 0
M  V30 3083 C 282.559 1.98623 2.82211 0
M  V30 3084 C 281.672 3.26337 2.8307 0
M  V30 3085 C 280.807 3.35779 4.11614 0
M  V30 3086 C 279.846 4.5754 4.06601 0
M  V30 3087 N 278.983 4.64155 5.26787 0
M  V30 3088 H 283.823 2.71794 1.22198 0
M  V30 3089 H 281.36 1.34642 0.592444 0
M  V30 3090 H 283.318 2.07761 3.61789 0
M  V30 3091 H 281.948 1.09558 3.03639 0
M  V30 3092 H 281 3.26171 1.95747 0
M  V30 3093 H 282.312 4.15988 2.75237 0
M  V30 3094 H 281.466 3.44208 4.99606 0
M  V30 3095 H 280.205 2.44137 4.22195 0
M  V30 3096 H 279.21 4.49215 3.16996 0
M  V30 3097 H 280.435 5.50519 3.97625 0
M  V30 3098 H 278.381 3.75413 5.3796 0
M  V30 3099 H 278.298 5.47706 5.21109 0
M  V30 3100 H 279.566 4.76863 6.16621 0
M  V30 3101 N 283.795 -0.628877 1.44509 0
M  V30 3102 C 284.758 -1.72263 1.51188 0
M  V30 3103 C 285.758 -1.55907 0.39367 0
M  V30 3104 O 286.948 -1.61361 0.656377 0
M  V30 3105 C 284.08 -3.11365 1.38798 0
M  V30 3106 H 285.273 -1.67714 2.4862 0
M  V30 3107 H 282.826 -0.842737 1.31634 0
M  V30 3108 H 283.561 -3.21507 0.424693 0
M  V30 3109 H 283.346 -3.24644 2.19884 0
M  V30 3110 H 284.836 -3.91075 1.46458 0
M  V30 3111 N 285.273 -1.31445 -0.869486 0
M  V30 3112 C 286.521 -1.20918 -1.61936 0
M  V30 3113 C 286.842 0.232683 -1.93607 0
M  V30 3114 O 286.112 1.15352 -1.58338 0
M  V30 3115 H 284.692 -0.44454 -0.600328 0
M  V30 3116 H 287.354 -1.64776 -1.0409 0
M  V30 3117 H 286.45 -1.78124 -2.56278 0
M  V30 3118 N 286.751 1.08385 -1.14413 0
M  V30 3119 C 288.028 1.77429 -0.823297 0
M  V30 3120 C 288.408 1.9974 0.683163 0
M  V30 3121 O 287.756 1.60739 1.62405 0
M  V30 3122 C 287.966 3.09004 -1.62227 0
M  V30 3123 C 289.314 3.83532 -1.82177 0
M  V30 3124 O 290.338 3.18786 -1.58915 0
M  V30 3125 O 289.197 4.99792 -2.21067 0
M  V30 3126 H 286.291 0.769999 -0.301712 0
M  V30 3127 H 288.837 1.14846 -1.24934 0
M  V30 3128 H 287.609 2.88316 -2.64555 0
M  V30 3129 H 287.232 3.79316 -1.19187 0
M  V30 3130 N 288.23 0.939286 1.26551 0
M  V30 3131 C 289.476 0.586715 1.94128 0
M  V30 3132 C 289.809 -0.8717 1.73537 0
M  V30 3133 O 289.084 -1.62339 1.07127 0
M  V30 3134 C 289.367 0.927497 3.4795 0
M  V30 3135 C 289.22 2.44052 3.77834 0
M  V30 3136 C 290.539 0.441569 4.37879 0
M  V30 3137 H 287.658 0.21463 0.705055 0
M  V30 3138 H 290.3 1.17316 1.49455 0
M  V30 3139 H 288.45 0.428431 3.8613 0
M  V30 3140 H 290.122 3.01216 3.4938 0
M  V30 3141 H 288.365 2.8848 3.23978 0
M  V30 3142 H 289.036 2.62947 4.85348 0
M  V30 3143 H 291.512 0.869448 4.06915 0
M  V30 3144 H 290.388 0.708856 5.44304 0
M  V30 3145 H 290.649 -0.658467 4.37169 0
M  V30 3146 N 289.708 -1.40897 0.706093 0
M  V30 3147 C 290.957 -2.00284 0.238574 0
M  V30 3148 C 291.27 -1.56604 -1.17194 0
M  V30 3149 O 292.476 -2.08624 -1.73748 0
M  V30 3150 C 290.932 -3.57934 0.375623 0
M  V30 3151 C 290.54 -4.10591 1.79217 0
M  V30 3152 C 292.284 -4.24488 -0.0315857 0
M  V30 3153 C 290.191 -5.60712 1.88032 0
M  V30 3154 H 289.121 -0.749144 0.0854398 0
M  V30 3155 H 291.772 -1.61251 0.875813 0
M  V30 3156 H 290.154 -3.94622 -0.330042 0
M  V30 3157 H 291.328 -3.85301 2.52745 0
M  V30 3158 H 289.643 -3.56601 2.15 0
M  V30 3159 H 292.24 -5.34698 0.0136842 0
M  V30 3160 H 292.583 -4.02261 -1.072 0
M  V30 3161 H 293.116 -3.92873 0.624181 0
M  V30 3162 H 289.855 -5.87781 2.90161 0
M  V30 3163 H 289.375 -5.87896 1.18903 0
M  V30 3164 H 291.054 -6.25658 1.64805 0
M  V30 3165 N 291.186 -0.45159 -1.50991 0
M  V30 3166 C 292.433 0.110074 -2.02201 0
M  V30 3167 C 292.761 1.4146 -1.33489 0
M  V30 3168 O 292.016 1.90617 -0.443125 0
M  V30 3169 C 292.315 0.361728 -3.55565 0
M  V30 3170 C 291.981 -0.858717 -4.42648 0
M  V30 3171 C 290.643 -1.19338 -4.66167 0
M  V30 3172 C 292.995 -1.67221 -4.93646 0
M  V30 3173 C 290.323 -2.34195 -5.37931 0
M  V30 3174 C 292.675 -2.8119 -5.6667 0
M  V30 3175 C 291.339 -3.15094 -5.88449 0
M  V30 3176 H 290.609 0.040279 -0.739904 0
M  V30 3177 H 293.256 -0.601696 -1.81802 0
M  V30 3178 H 291.561 1.15554 -3.74372 0
M  V30 3179 H 293.258 0.80996 -3.92735 0
M  V30 3180 H 289.848 -0.58796 -4.24548 0
M  V30 3181 H 294.032 -1.42686 -4.75347 0
M  V30 3182 H 289.288 -2.6076 -5.53005 0
M  V30 3183 H 293.462 -3.44585 -6.05173 0
M  V30 3184 H 291.089 -4.04204 -6.43835 0
M  V30 3185 N 292.664 1.56529 -0.183458 0
M  V30 3186 C 293.594 2.21549 0.737456 0
M  V30 3187 C 294.575 1.17489 1.23005 0
M  V30 3188 O 295.76 1.45959 1.281 0
M  V30 3189 C 292.89 2.86575 1.96194 0
M  V30 3190 C 291.844 3.96778 1.60473 0
M  V30 3191 C 291.17 4.48911 2.90487 0
M  V30 3192 C 292.47 5.15767 0.823497 0
M  V30 3193 H 294.164 2.98761 0.195453 0
M  V30 3194 H 291.71 1.43702 0.0925686 0
M  V30 3195 H 293.663 3.30739 2.61131 0
M  V30 3196 H 292.387 2.06749 2.52828 0
M  V30 3197 H 291.046 3.53286 0.978997 0
M  V30 3198 H 290.694 3.65862 3.45186 0
M  V30 3199 H 290.394 5.23265 2.67335 0
M  V30 3200 H 291.918 4.95771 3.56432 0
M  V30 3201 H 293.332 5.56549 1.37571 0
M  V30 3202 H 291.729 5.96114 0.690551 0
M  V30 3203 H 292.799 4.84574 -0.177782 0
M  V30 3204 N 294.142 -0.090211 1.57342 0
M  V30 3205 C 295.072 -1.10976 2.05443 0
M  V30 3206 C 296.053 -1.41482 0.944284 0
M  V30 3207 O 297.238 -1.51428 1.21586 0
M  V30 3208 C 294.368 -2.42831 2.48295 0
M  V30 3209 C 293.322 -2.26721 3.63018 0
M  V30 3210 C 292.648 -3.63796 3.91863 0
M  V30 3211 C 293.948 -1.7037 4.93732 0
M  V30 3212 H 295.642 -0.709564 2.9087 0
M  V30 3213 H 293.188 -0.339874 1.39932 0
M  V30 3214 H 295.141 -3.14431 2.80555 0
M  V30 3215 H 293.865 -2.84795 1.59873 0
M  V30 3216 H 292.524 -1.57565 3.31012 0
M  V30 3217 H 292.172 -4.03297 3.00601 0
M  V30 3218 H 291.872 -3.53861 4.69101 0
M  V30 3219 H 293.396 -4.36855 4.26603 0
M  V30 3220 H 294.81 -2.31816 5.24342 0
M  V30 3221 H 293.207 -1.71181 5.75167 0
M  V30 3222 H 294.277 -0.663542 4.80339 0
M  V30 3223 N 295.62 -1.53406 -0.361157 0
M  V30 3224 C 296.845 -1.74024 -1.12829 0
M  V30 3225 C 297.27 -0.470069 -1.82132 0
M  V30 3226 O 296.628 0.57619 -1.719 0
M  V30 3227 C 296.676 -2.90903 -2.13091 0
M  V30 3228 O 295.78 -2.59821 -3.20261 0
M  V30 3229 H 295.121 -0.577804 -0.327168 0
M  V30 3230 H 297.651 -2.00307 -0.41693 0
M  V30 3231 H 297.661 -3.17194 -2.56616 0
M  V30 3232 H 296.336 -3.83034 -1.62042 0
M  V30 3233 H 294.913 -2.44362 -2.81677 0
M  V30 3234 N 297.098 0.621204 -1.44841 0
M  V30 3235 C 298.514 0.94048 -1.28946 0
M  V30 3236 C 298.714 2.00154 -0.23249 0
M  V30 3237 O 297.77 2.49651 0.378237 0
M  V30 3238 C 299.083 1.39433 -2.66419 0
M  V30 3239 C 300.631 1.50927 -2.74208 0
M  V30 3240 C 301.106 1.99692 -4.12174 0
M  V30 3241 N 302.597 2.06947 -4.144 0
M  V30 3242 C 303.332 2.45871 -5.1801 0
M  V30 3243 N 302.828 2.83862 -6.31977 0
M  V30 3244 N 304.621 2.46092 -5.05366 0
M  V30 3245 H 296.772 -0.0803548 -2.12248 0
M  V30 3246 H 299.035 0.0266913 -0.947624 0
M  V30 3247 H 298.741 0.688925 -3.44887 0
M  V30 3248 H 298.615 2.36347 -2.93973 0
M  V30 3249 H 301.002 2.20561 -1.96053 0
M  V30 3250 H 301.083 0.523627 -2.50383 0
M  V30 3251 H 300.727 1.30649 -4.90809 0
M  V30 3252 H 300.657 2.99146 -4.33381 0
M  V30 3253 H 303.148 1.80232 -3.32152 0
M  V30 3254 H 303.461 3.12405 -7.0684 0
M  V30 3255 H 301.806 2.8159 -6.35399 0
M  V30 3256 H 304.997 2.1581 -4.15384 0
M  V30 3257 H 305.17 2.76102 -5.86235 0
M  V30 3258 N 298.576 1.31904 0.862503 0
M  V30 3259 C 299.825 1.21373 1.61094 0
M  V30 3260 C 300.138 -0.22504 1.94301 0
M  V30 3261 O 301.344 -0.452121 2.67709 0
M  V30 3262 C 299.8 2.12525 2.9045 0
M  V30 3263 C 299.408 3.61441 2.64697 0
M  V30 3264 C 301.152 2.10813 3.68454 0
M  V30 3265 C 299.059 4.44578 3.90006 0
M  V30 3266 H 297.989 0.450705 0.604468 0
M  V30 3267 H 300.64 1.56811 0.953027 0
M  V30 3268 H 299.022 1.69994 3.57656 0
M  V30 3269 H 300.196 4.12264 2.05851 0
M  V30 3270 H 298.511 3.65205 2.00036 0
M  V30 3271 H 301.108 2.70167 4.61426 0
M  V30 3272 H 301.451 1.09713 4.01583 0
M  V30 3273 H 301.984 2.51583 3.08141 0
M  V30 3274 H 298.723 5.46461 3.62023 0
M  V30 3275 H 298.243 3.98508 4.48276 0
M  V30 3276 H 299.922 4.57176 4.5782 0
M  V30 3277 N 300.054 -1.07777 1.14986 0
M  V30 3278 C 301.002 -2.16964 0.838406 0
M  V30 3279 C 301.996 -1.68372 -0.186386 0
M  V30 3280 O 303.202 -1.79951 -0.0418465 0
M  V30 3281 H 299.577 -0.708006 0.253439 0
M  V30 3282 H 301.548 -2.40454 1.76704 0
M  V30 3283 C 300.297 -3.4604 0.339335 0
M  V30 3284 H 299.62 -3.83813 1.11927 0
M  V30 3285 H 301.06 -4.23698 0.160021 0
M  V30 3286 C 299.519 -3.23569 -0.938325 0
M  V30 3287 O 300.049 -3.47752 -2.01077 0
M  V30 3288 N 298.255 -2.77079 -0.876117 0
M  V30 3289 H 297.802 -2.576 -0.00322037 0
M  V30 3290 H 297.76 -2.62422 -1.73153 0
M  V30 3291 N 301.532 -0.945985 -1.26051 0
M  V30 3292 C 302.479 -0.45809 -2.26208 0
M  V30 3293 C 303.449 0.484816 -1.58867 0
M  V30 3294 O 304.634 0.399969 -1.86561 0
M  V30 3295 C 301.774 0.266131 -3.44072 0
M  V30 3296 C 300.887 -0.713005 -4.26075 0
M  V30 3297 C 300.022 0.0329013 -5.3119 0
M  V30 3298 C 299.061 -0.93774 -6.04874 0
M  V30 3299 N 298.198 -0.223274 -7.01745 0
M  V30 3300 H 303.038 -1.3171 -2.67313 0
M  V30 3301 H 300.575 -0.66069 -1.31428 0
M  V30 3302 H 302.533 0.702514 -4.11243 0
M  V30 3303 H 301.163 1.08925 -3.03867 0
M  V30 3304 H 300.215 -1.26789 -3.58648 0
M  V30 3305 H 301.527 -1.45406 -4.77136 0
M  V30 3306 H 300.681 0.528335 -6.04395 0
M  V30 3307 H 299.42 0.806801 -4.8098 0
M  V30 3308 H 298.425 -1.44425 -5.30492 0
M  V30 3309 H 299.65 -1.71172 -6.57173 0
M  V30 3310 H 297.596 0.532046 -6.53839 0
M  V30 3311 H 297.513 -0.90357 -7.50581 0
M  V30 3312 H 298.781 0.250907 -7.79096 0
M  V30 3313 N 303.011 1.40521 -0.713556 0
M  V30 3314 C 304.288 1.94775 -0.17943 0
M  V30 3315 C 304.668 1.65184 1.31444 0
M  V30 3316 O 304.016 0.968429 2.06963 0
M  V30 3317 C 304.226 3.45543 -0.489986 0
M  V30 3318 C 305.574 4.22442 -0.427536 0
M  V30 3319 O 306.598 3.53644 -0.425929 0
M  V30 3320 O 305.457 5.4501 -0.403292 0
M  V30 3321 H 302.551 0.826606 -0.0255192 0
M  V30 3322 H 305.097 1.5014 -0.790949 0
M  V30 3323 H 303.869 3.60432 -1.5233 0
M  V30 3324 H 303.492 3.97311 0.151598 0
M  V30 3325 N 304.489 0.459591 1.5075 0
M  V30 3326 C 305.735 -0.091664 2.03193 0
M  V30 3327 C 306.09 -1.38432 1.3362 0
M  V30 3328 O 305.383 -1.86257 0.449322 0
M  V30 3329 C 305.577 -0.342866 3.55752 0
M  V30 3330 C 305.406 0.923888 4.40107 0
M  V30 3331 C 304.176 1.46388 4.83631 0
M  V30 3332 C 306.374 1.81617 4.81165 0
M  V30 3333 N 304.356 2.68086 5.52271 0
M  V30 3334 C 305.727 2.87907 5.49099 0
M  V30 3335 C 307.782 1.82793 4.63132 0
M  V30 3336 C 306.485 3.95347 6.0091 0
M  V30 3337 C 308.511 2.89182 5.15876 0
M  V30 3338 C 307.873 3.94191 5.83774 0
M  V30 3339 H 303.972 0.00619247 0.781975 0
M  V30 3340 H 306.556 0.625233 1.84388 0
M  V30 3341 H 304.727 -1.0288 3.74527 0
M  V30 3342 H 306.459 -0.887445 3.9485 0
M  V30 3343 H 303.214 1.01466 4.62603 0
M  V30 3344 H 303.638 3.29857 5.91205 0
M  V30 3345 H 308.28 1.0293 4.1008 0
M  V30 3346 H 305.998 4.76035 6.53006 0
M  V30 3347 H 309.584 2.91061 5.0376 0
M  V30 3348 H 308.464 4.75161 6.23853 0
M  V30 3349 N 305.967 -1.56429 0.191757 0
M  V30 3350 C 306.897 -2.21937 -0.725696 0
M  V30 3351 C 307.878 -1.1814 -1.2238 0
M  V30 3352 O 309.063 -1.46636 -1.27325 0
M  V30 3353 C 306.193 -2.87611 -1.94672 0
M  V30 3354 C 305.147 -3.97623 -1.58366 0
M  V30 3355 C 304.473 -4.50446 -2.88102 0
M  V30 3356 C 305.773 -5.16197 -0.796133 0
M  V30 3357 H 307.467 -2.98861 -0.179606 0
M  V30 3358 H 305.013 -1.43749 -0.0849464 0
M  V30 3359 H 306.966 -3.3212 -2.59373 0
M  V30 3360 H 305.69 -2.08087 -2.51728 0
M  V30 3361 H 304.349 -3.53801 -0.960247 0
M  V30 3362 H 303.997 -3.67688 -3.43241 0
M  V30 3363 H 303.697 -5.24675 -2.64556 0
M  V30 3364 H 305.221 -4.97654 -3.53798 0
M  V30 3365 H 306.635 -5.57271 -1.34618 0
M  V30 3366 H 305.032 -5.96471 -0.658928 0
M  V30 3367 H 306.102 -4.84473 0.203478 0
M  V30 3368 N 307.445 0.0818655 -1.57387 0
M  V30 3369 C 308.355 1.11642 -2.06333 0
M  V30 3370 C 309.371 1.43033 -0.99083 0
M  V30 3371 O 310.547 1.53411 -1.30488 0
M  V30 3372 C 307.612 2.41342 -2.48907 0
M  V30 3373 C 306.673 2.17014 -3.7041 0
M  V30 3374 C 305.906 3.4053 -4.10944 0
M  V30 3375 O 306.129 4.4927 -3.51444 0
M  V30 3376 O 305.063 3.29336 -5.03807 0
M  V30 3377 H 308.889 0.730657 -2.9478 0
M  V30 3378 H 306.474 0.295301 -1.46452 0
M  V30 3379 H 308.356 3.17691 -2.76858 0
M  V30 3380 H 307.031 2.79319 -1.63593 0
M  V30 3381 H 305.938 1.38403 -3.47556 0
M  V30 3382 H 307.271 1.83923 -4.56545 0
M  V30 3383 N 308.923 1.53595 0.353017 0
M  V30 3384 C 310.171 1.70049 1.09215 0
M  V30 3385 C 310.492 0.461406 1.89463 0
M  V30 3386 O 309.762 -0.524633 1.88744 0
M  V30 3387 H 308.342 0.626912 0.40619 0
M  V30 3388 H 311.004 1.90822 0.396585 0
M  V30 3389 H 310.1 2.56718 1.77488 0
M  V30 3390 N 310.401 -0.613514 1.45168 0
M  V30 3391 C 311.629 -1.39946 1.5239 0
M  V30 3392 C 312.044 -1.88167 0.154531 0
M  V30 3393 O 311.401 -1.61872 -0.842843 0
M  V30 3394 C 311.452 -2.60795 2.50337 0
M  V30 3395 O 311.173 -2.1458 3.81952 0
M  V30 3396 C 312.674 -3.53723 2.67198 0
M  V30 3397 H 309.894 -0.428593 0.516284 0
M  V30 3398 H 312.438 -0.748753 1.903 0
M  V30 3399 H 310.593 -3.21919 2.15515 0
M  V30 3400 H 311.007 -2.93055 4.34993 0
M  V30 3401 H 312.481 -4.35079 3.39721 0
M  V30 3402 H 312.958 -4.0368 1.73029 0
M  V30 3403 H 313.564 -2.98456 3.02992 0
M  V30 3404 N 311.879 -1.3236 -0.855495 0
M  V30 3405 C 313.125 -1.23054 -1.612 0
M  V30 3406 C 313.458 0.207404 -1.93089 0
M  V30 3407 O 312.733 1.14432 -1.57275 0
M  V30 3408 C 313.016 -2.08937 -2.93287 0
M  V30 3409 C 312.869 -3.61105 -2.68185 0
M  V30 3410 C 314.188 -1.94986 -3.94549 0
M  V30 3411 H 311.307 -0.448364 -0.584926 0
M  V30 3412 H 313.949 -1.62297 -0.987917 0
M  V30 3413 H 312.099 -1.75599 -3.46551 0
M  V30 3414 H 313.771 -4.04652 -2.21483 0
M  V30 3415 H 312.014 -3.83813 -2.02164 0
M  V30 3416 H 312.685 -4.16522 -3.62234 0
M  V30 3417 H 315.161 -2.24189 -3.5054 0
M  V30 3418 H 314.037 -2.57356 -4.84829 0
M  V30 3419 H 314.298 -0.917263 -4.3248 0
M  V30 3420 N 313.357 1.07166 -1.15556 0
M  V30 3421 C 314.773 1.31899 -0.898603 0
M  V30 3422 C 314.973 1.96333 0.453383 0
M  V30 3423 O 314.029 2.22438 1.19489 0
M  V30 3424 C 315.342 2.20826 -2.04099 0
M  V30 3425 C 316.89 2.34269 -2.07574 0
M  V30 3426 C 317.365 3.26546 -3.21141 0
M  V30 3427 N 318.856 3.34127 -3.20801 0
M  V30 3428 C 319.591 4.05595 -4.05315 0
M  V30 3429 N 319.087 4.79661 -4.99897 0
M  V30 3430 N 320.88 4.01555 -3.93332 0
M  V30 3431 H 313.031 0.637302 -2.02613 0
M  V30 3432 H 315.294 0.343468 -0.883591 0
M  V30 3433 H 315 1.80744 -3.01703 0
M  V30 3434 H 314.874 3.21364 -1.97496 0
M  V30 3435 H 317.261 2.73603 -1.10568 0
M  V30 3436 H 317.342 1.33429 -2.18244 0
M  V30 3437 H 316.986 2.87931 -4.184 0
M  V30 3438 H 316.916 4.27345 -3.07708 0
M  V30 3439 H 319.407 2.81336 -2.52306 0
M  V30 3440 H 319.72 5.31694 -5.60822 0
M  V30 3441 H 318.065 4.78671 -5.03884 0
M  V30 3442 H 321.256 3.42806 -3.18751 0
M  V30 3443 H 321.429 4.56987 -4.5942 0
M  V30 3444 N 314.835 0.952656 1.25548 0
M  V30 3445 C 316.083 0.605176 1.92826 0
M  V30 3446 C 316.404 -0.860261 1.74999 0
M  V30 3447 O 315.674 -1.6125 1.11244 0
M  V30 3448 H 314.254 0.220832 0.713612 0
M  V30 3449 H 316.916 1.21047 1.52754 0
M  V30 3450 H 316.012 0.832798 3.00784 0
M  V30 3451 N 316.313 -1.40141 0.720998 0
M  V30 3452 C 317.276 -2.29058 0.0805834 0
M  V30 3453 C 318.276 -1.45632 -0.681758 0
M  V30 3454 O 319.466 -1.6648 -0.512856 0
M  V30 3455 C 316.598 -3.28925 -0.895593 0
M  V30 3456 H 317.791 -2.87191 0.863793 0
M  V30 3457 H 315.344 -1.48553 0.485975 0
M  V30 3458 H 316.079 -2.75822 -1.70566 0
M  V30 3459 H 315.864 -3.90519 -0.351766 0
M  V30 3460 H 317.354 -3.95494 -1.34069 0
M  V30 3461 N 317.792 -0.46758 -1.50504 0
M  V30 3462 C 319.02 0.0864133 -2.06719 0
M  V30 3463 C 319.435 1.33819 -1.33184 0
M  V30 3464 O 318.792 1.78061 -0.400083 0
M  V30 3465 C 318.843 0.378079 -3.59517 0
M  V30 3466 O 318.564 -0.824044 -4.3028 0
M  V30 3467 C 320.065 0.979426 -4.32345 0
M  V30 3468 H 317.285 -0.00551697 -0.670977 0
M  V30 3469 H 319.829 -0.655354 -1.93715 0
M  V30 3470 H 317.984 1.06977 -3.72337 0
M  V30 3471 H 318.398 -0.566518 -5.21432 0
M  V30 3472 H 319.872 1.1333 -5.40241 0
M  V30 3473 H 320.349 1.9686 -3.9261 0
M  V30 3474 H 320.955 0.326216 -4.24047 0
M  V30 3475 N 319.27 1.56325 -0.20005 0
M  V30 3476 C 320.518 1.97329 0.436547 0
M  V30 3477 C 320.839 1.08826 1.61808 0
M  V30 3478 O 320.109 0.160604 1.95241 0
M  V30 3479 H 318.689 0.728714 0.164272 0
M  V30 3480 H 321.351 1.92761 -0.287937 0
M  V30 3481 H 320.447 3.02264 0.777353 0
M  V30 3482 N 320.748 -0.0735177 1.57428 0
M  V30 3483 C 321.997 -0.771809 1.86349 0
M  V30 3484 C 322.31 -1.78828 0.792452 0
M  V30 3485 O 323.516 -2.53602 0.96945 0
M  V30 3486 C 321.972 -1.42358 3.30548 0
M  V30 3487 C 321.58 -0.445761 4.45777 0
M  V30 3488 C 323.324 -2.10434 3.6867 0
M  V30 3489 C 321.231 -1.10335 5.81016 0
M  V30 3490 H 320.161 -0.291999 0.695164 0
M  V30 3491 H 322.812 -0.0250749 1.83483 0
M  V30 3492 H 321.194 -2.21852 3.28021 0
M  V30 3493 H 322.368 0.319239 4.59693 0
M  V30 3494 H 320.683 0.130457 4.16196 0
M  V30 3495 H 323.28 -2.60405 4.67004 0
M  V30 3496 H 323.623 -2.90298 2.98383 0
M  V30 3497 H 324.156 -1.37773 3.7318 0
M  V30 3498 H 320.895 -0.345061 6.54591 0
M  V30 3499 H 320.415 -1.83925 5.70904 0
M  V30 3500 H 322.094 -1.62367 6.26295 0
M  V30 3501 N 322.226 -1.5378 -0.344866 0
M  V30 3502 C 323.473 -1.70963 -1.08526 0
M  V30 3503 C 323.801 -0.472126 -1.88683 0
M  V30 3504 O 323.056 0.546116 -1.87926 0
M  V30 3505 C 323.355 -2.92407 -2.05506 0
M  V30 3506 C 323.021 -4.28066 -1.41671 0
M  V30 3507 C 321.683 -4.64951 -1.2399 0
M  V30 3508 C 324.035 -5.12344 -0.956726 0
M  V30 3509 C 321.363 -5.83733 -0.589277 0
M  V30 3510 C 323.715 -6.3179 -0.320015 0
M  V30 3511 C 322.379 -6.67372 -0.130881 0
M  V30 3512 H 321.649 -0.625598 -0.397124 0
M  V30 3513 H 324.296 -1.87995 -0.36469 0
M  V30 3514 H 322.601 -2.69973 -2.8394 0
M  V30 3515 H 324.298 -3.02895 -2.62784 0
M  V30 3516 H 320.888 -3.99034 -1.56429 0
M  V30 3517 H 325.072 -4.8438 -1.08118 0
M  V30 3518 H 320.328 -6.09877 -0.431344 0
M  V30 3519 H 324.502 -6.96386 0.0445072 0
M  V30 3520 H 322.129 -7.59273 0.375318 0
M  V30 3521 N 323.704 0.605807 -1.45491 0
M  V30 3522 C 325.115 1.18777 -1.44045 0
M  V30 3523 C 325.466 1.95471 -0.169001 0
M  V30 3524 O 324.591 2.0374 0.729324 0
M  V30 3525 C 325.186 2.16064 -2.60963 0
M  V30 3526 C 323.745 2.69633 -2.62631 0
M  V30 3527 C 322.892 1.45072 -2.36325 0
M  V30 3528 H 325.843 0.395017 -1.53705 0
M  V30 3529 H 325.864 2.9913 -2.35163 0
M  V30 3530 H 325.376 1.60217 -3.53486 0
M  V30 3531 H 323.477 3.29414 -1.74119 0
M  V30 3532 H 323.59 3.13944 -3.61906 0
M  V30 3533 H 321.954 1.74089 -1.85917 0
M  V30 3534 H 322.737 0.910899 -3.30995 0
M  V30 3535 N 325.182 1.32811 0.848464 0
M  V30 3536 C 326.112 1.24882 1.97299 0
M  V30 3537 C 327.093 0.131357 1.69592 0
M  V30 3538 O 328.278 0.319553 1.91553 0
M  V30 3539 C 325.408 0.97746 3.33261 0
M  V30 3540 C 324.362 2.05682 3.75338 0
M  V30 3541 C 323.688 1.63777 5.09 0
M  V30 3542 C 324.988 3.47254 3.90144 0
M  V30 3543 H 326.682 2.18966 2.04191 0
M  V30 3544 H 324.228 1.05413 0.981029 0
M  V30 3545 H 326.181 0.908513 4.1149 0
M  V30 3546 H 324.905 0.000980011 3.266 0
M  V30 3547 H 323.564 2.11603 2.99366 0
M  V30 3548 H 323.212 0.648569 4.98801 0
M  V30 3549 H 322.912 2.36 5.38124 0
M  V30 3550 H 324.436 1.5833 5.89715 0
M  V30 3551 H 325.85 3.43888 4.58709 0
M  V30 3552 H 324.247 4.1788 4.30693 0
M  V30 3553 H 325.317 3.86462 2.92874 0
M  V30 3554 N 326.66 -1.06551 1.16123 0
M  V30 3555 C 327.885 -1.83544 0.965735 0
M  V30 3556 C 328.31 -1.81843 -0.481102 0
M  V30 3557 O 327.668 -1.21732 -1.34354 0
M  V30 3558 C 327.716 -3.28169 1.49457 0
M  V30 3559 O 326.82 -4.0643 0.699157 0
M  V30 3560 H 326.161 -0.568026 0.343864 0
M  V30 3561 H 328.691 -1.34362 1.54299 0
M  V30 3562 H 328.701 -3.78992 1.51092 0
M  V30 3563 H 327.376 -3.28722 2.54784 0
M  V30 3564 H 325.953 -3.65216 0.7531 0
M  V30 3565 N 328.138 -0.959301 -1.25041 0
M  V30 3566 C 329.385 -0.616611 -1.92884 0
M  V30 3567 C 329.713 0.847036 -1.75087 0
M  V30 3568 O 328.968 1.62374 -1.09239 0
M  V30 3569 C 329.267 -0.927136 -3.45165 0
M  V30 3570 C 328.933 -2.37757 -3.83122 0
M  V30 3571 C 327.595 -2.77402 -3.93194 0
M  V30 3572 C 329.947 -3.31929 -4.01836 0
M  V30 3573 C 327.275 -4.10277 -4.19392 0
M  V30 3574 C 329.627 -4.64423 -4.29528 0
M  V30 3575 C 328.291 -5.03857 -4.37818 0
M  V30 3576 H 327.561 -0.225634 -0.705812 0
M  V30 3577 H 330.208 -1.20921 -1.48493 0
M  V30 3578 H 328.513 -0.252195 -3.90987 0
M  V30 3579 H 330.21 -0.6405 -3.95852 0
M  V30 3580 H 326.8 -2.06013 -3.75841 0
M  V30 3581 H 330.984 -3.02488 -3.93465 0
M  V30 3582 H 326.24 -4.40467 -4.24027 0
M  V30 3583 H 330.414 -5.37369 -4.42953 0
M  V30 3584 H 328.041 -6.06843 -4.57871 0
M  V30 3585 N 329.616 1.39756 -0.72842 0
M  V30 3586 C 330.862 2.00942 -0.273892 0
M  V30 3587 C 331.195 1.57656 1.13394 0
M  V30 3588 O 330.47 0.802434 1.77176 0
M  V30 3589 C 330.753 3.58211 -0.368346 0
M  V30 3590 C 330.606 4.11534 -1.81548 0
M  V30 3591 C 331.925 4.39372 0.253054 0
M  V30 3592 H 329.044 0.730047 -0.100996 0
M  V30 3593 H 331.686 1.66056 -0.923337 0
M  V30 3594 H 329.836 3.88061 0.184588 0
M  V30 3595 H 331.508 3.92431 -2.42478 0
M  V30 3596 H 329.751 3.65341 -2.33898 0
M  V30 3597 H 330.422 5.20682 -1.83288 0
M  V30 3598 H 332.898 4.15527 -0.218224 0
M  V30 3599 H 331.774 5.48677 0.156585 0
M  V30 3600 H 332.035 4.21358 1.33826 0
M  V30 3601 N 331.094 0.475555 1.50254 0
M  V30 3602 C 332.041 -0.316293 2.28622 0
M  V30 3603 C 333.011 -0.983227 1.33873 0
M  V30 3604 O 334.196 -0.994805 1.62814 0
M  V30 3605 C 331.336 -1.38975 3.1588 0
M  V30 3606 C 330.449 -0.737146 4.25664 0
M  V30 3607 C 329.584 -1.78887 5.00173 0
M  V30 3608 C 328.623 -1.11676 6.01826 0
M  V30 3609 N 327.76 -2.11154 6.69596 0
M  V30 3610 H 332.6 0.358297 2.95838 0
M  V30 3611 H 330.137 0.188541 1.45887 0
M  V30 3612 H 332.095 -2.02383 3.64825 0
M  V30 3613 H 330.725 -2.03344 2.50701 0
M  V30 3614 H 329.777 0.0096065 3.80399 0
M  V30 3615 H 331.089 -0.206816 4.98371 0
M  V30 3616 H 330.243 -2.49865 5.52859 0
M  V30 3617 H 328.982 -2.35302 4.27182 0
M  V30 3618 H 327.987 -0.392633 5.48396 0
M  V30 3619 H 329.212 -0.55945 6.76792 0
M  V30 3620 H 327.158 -2.66577 5.99394 0
M  V30 3621 H 327.075 -1.63118 7.38193 0
M  V30 3622 H 328.343 -2.81497 7.26897 0
M  V30 3623 N 332.573 -1.56217 0.208337 0
M  V30 3624 C 333.822 -1.97124 -0.427204 0
M  V30 3625 C 334.135 -1.09859 -1.61835 0
M  V30 3626 O 335.341 -1.40606 -2.32255 0
M  V30 3627 C 333.797 -3.50633 -0.811442 0
M  V30 3628 C 333.405 -4.46582 0.35615 0
M  V30 3629 C 335.149 -4.00282 -1.41332 0
M  V30 3630 C 333.056 -5.91379 -0.0497852 0
M  V30 3631 H 331.986 -0.736086 -0.163381 0
M  V30 3632 H 334.637 -1.8099 0.302456 0
M  V30 3633 H 333.019 -3.62319 -1.59815 0
M  V30 3634 H 334.193 -4.46636 1.1337 0
M  V30 3635 H 332.508 -4.07202 0.870396 0
M  V30 3636 H 335.105 -5.0595 -1.72972 0
M  V30 3637 H 335.448 -3.45359 -2.32449 0
M  V30 3638 H 335.981 -3.91764 -0.690323 0
M  V30 3639 H 332.72 -6.50255 0.827529 0
M  V30 3640 H 332.24 -5.94549 -0.791926 0
M  V30 3641 H 333.919 -6.45209 -0.481042 0
M  V30 3642 N 334.051 0.0651679 -1.57465 0
M  V30 3643 C 334.981 1.07693 -2.07182 0
M  V30 3644 C 335.962 1.39962 -0.966673 0
M  V30 3645 O 337.147 1.49475 -1.2398 0
M  V30 3646 C 334.277 2.3885 -2.52127 0
M  V30 3647 C 333.231 2.20917 -3.66579 0
M  V30 3648 C 332.557 3.57515 -3.97601 0
M  V30 3649 C 333.857 1.62493 -4.9638 0
M  V30 3650 H 335.551 0.663199 -2.91962 0
M  V30 3651 H 333.097 0.317569 -1.40455 0
M  V30 3652 H 335.05 3.09928 -2.85522 0
M  V30 3653 H 333.774 2.82215 -1.64384 0
M  V30 3654 H 332.433 1.52279 -3.33477 0
M  V30 3655 H 332.081 3.98463 -3.06979 0
M  V30 3656 H 331.781 3.46353 -4.74672 0
M  V30 3657 H 333.305 4.30013 -4.33499 0
M  V30 3658 H 334.719 2.23445 -5.27963 0
M  V30 3659 H 333.116 1.62009 -5.77818 0
M  V30 3660 H 334.186 0.587041 -4.81333 0
M  V30 3661 N 335.529 1.53961 0.336706 0
M  V30 3662 C 336.476 1.82428 1.41381 0
M  V30 3663 C 337.446 0.670444 1.51968 0
M  V30 3664 O 338.631 0.915565 1.67398 0
M  V30 3665 C 335.771 2.04564 2.77934 0
M  V30 3666 C 334.884 3.32267 2.76084 0
M  V30 3667 C 334.019 3.44434 4.04399 0
M  V30 3668 C 333.058 4.66061 3.96804 0
M  V30 3669 N 332.195 4.75224 5.16823 0
M  V30 3670 H 337.035 2.74324 1.16405 0
M  V30 3671 H 334.572 1.35869 0.563752 0
M  V30 3672 H 336.53 2.15388 3.57301 0
M  V30 3673 H 335.16 1.15974 3.01247 0
M  V30 3674 H 334.212 3.3025 1.88784 0
M  V30 3675 H 335.524 4.21733 2.66351 0
M  V30 3676 H 334.678 3.54728 4.92192 0
M  V30 3677 H 333.417 2.53037 4.16921 0
M  V30 3678 H 332.422 4.55838 3.07396 0
M  V30 3679 H 333.647 5.58829 3.85858 0
M  V30 3680 H 331.593 3.86739 5.29876 0
M  V30 3681 H 331.51 5.58636 5.09374 0
M  V30 3682 H 332.778 4.89835 6.06367 0
M  V30 3683 N 337.007 -0.598083 1.45811 0
M  V30 3684 C 338.284 -1.35777 1.40797 0
M  V30 3685 C 338.664 -2.10935 0.083462 0
M  V30 3686 O 338.012 -2.08505 -0.934763 0
M  V30 3687 C 338.222 -2.29666 2.62783 0
M  V30 3688 C 339.57 -2.91977 3.08277 0
M  V30 3689 O 340.594 -2.39984 2.63223 0
M  V30 3690 O 339.453 -3.86376 3.86491 0
M  V30 3691 H 336.547 -0.609291 0.55919 0
M  V30 3692 H 339.093 -0.620379 1.57954 0
M  V30 3693 H 337.865 -1.73454 3.50756 0
M  V30 3694 H 337.488 -3.1077 2.48008 0
M  V30 3695 N 338.485 -1.33259 -0.841409 0
M  V30 3696 C 339.732 -1.24572 -1.5965 0
M  V30 3697 C 340.06 0.189137 -1.93578 0
M  V30 3698 O 339.315 1.14566 -1.5866 0
M  V30 3699 C 339.614 -2.06381 -2.9179 0
M  V30 3700 C 339.28 -3.556 -2.77235 0
M  V30 3701 C 337.942 -3.96282 -2.72973 0
M  V30 3702 C 340.294 -4.50433 -2.62221 0
M  V30 3703 C 337.622 -5.30017 -2.51592 0
M  V30 3704 C 339.974 -5.84327 -2.42374 0
M  V30 3705 C 338.638 -6.24194 -2.36512 0
M  V30 3706 H 337.908 -0.455842 -0.5842 0
M  V30 3707 H 340.555 -1.6482 -0.975016 0
M  V30 3708 H 338.86 -1.58903 -3.5813 0
M  V30 3709 H 340.557 -1.97019 -3.49263 0
M  V30 3710 H 337.147 -3.23298 -2.81384 0
M  V30 3711 H 341.331 -4.19914 -2.64549 0
M  V30 3712 H 336.587 -5.59947 -2.45499 0
M  V30 3713 H 340.761 -6.57414 -2.29739 0
M  V30 3714 H 338.388 -7.27759 -2.19706 0
M  V30 3715 N 339.963 1.05934 -1.16686 0
M  V30 3716 C 341.374 1.60263 -0.957745 0
M  V30 3717 C 341.725 1.89789 0.49745 0
M  V30 3718 O 340.85 1.67401 1.37135 0
M  V30 3719 C 341.445 2.91172 -1.73218 0
M  V30 3720 C 340.004 3.42188 -1.56794 0
M  V30 3721 C 339.151 2.16028 -1.73859 0
M  V30 3722 H 342.102 0.888392 -1.31504 0
M  V30 3723 H 342.123 3.60744 -1.21014 0
M  V30 3724 H 341.635 2.6965 -2.79124 0
M  V30 3725 H 339.736 3.68762 -0.533437 0
M  V30 3726 H 339.849 4.17273 -2.35414 0
M  V30 3727 H 338.213 2.26426 -1.16633 0
M  V30 3728 H 338.996 1.96985 -2.81161 0
M  V30 3729 N 341.441 0.965919 1.2453 0
M  V30 3730 C 342.351 0.502154 2.29163 0
M  V30 3731 C 343.367 -0.436017 1.68448 0
M  V30 3732 O 344.543 -0.309497 1.99008 0
M  V30 3733 C 341.608 -0.201956 3.46111 0
M  V30 3734 C 340.669 0.775821 4.22232 0
M  V30 3735 C 339.902 0.105217 5.33596 0
M  V30 3736 O 340.125 -1.10683 5.59558 0
M  V30 3737 O 339.059 0.796475 5.96607 0
M  V30 3738 H 342.885 1.37194 2.70946 0
M  V30 3739 H 340.47 0.732875 1.30189 0
M  V30 3740 H 342.352 -0.597564 4.17142 0
M  V30 3741 H 341.027 -1.04673 3.06309 0
M  V30 3742 H 339.934 1.22185 3.53584 0
M  V30 3743 H 341.267 1.58896 4.65846 0
M  V30 3744 N 342.919 -1.39368 0.735821 0
M  V30 3745 C 343.829 -2.34395 0.0979693 0
M  V30 3746 C 344.845 -1.58361 -0.720968 0
M  V30 3747 O 346.021 -1.90648 -0.649245 0
M  V30 3748 C 343.086 -3.37393 -0.797916 0
M  V30 3749 C 342.147 -4.29287 0.0333662 0
M  V30 3750 C 341.38 -5.27365 -0.819854 0
M  V30 3751 O 341.603 -5.31959 -2.05855 0
M  V30 3752 O 340.537 -6.01389 -0.248079 0
M  V30 3753 H 344.363 -2.90601 0.882315 0
M  V30 3754 H 341.948 -1.40909 0.4965 0
M  V30 3755 H 343.83 -4.00505 -1.31048 0
M  V30 3756 H 342.505 -2.83571 -1.56106 0
M  V30 3757 H 341.412 -3.69395 0.591475 0
M  V30 3758 H 342.745 -4.86317 0.758752 0
M  V30 3759 N 344.397 -0.483516 -1.5 0
M  V30 3760 C 345.674 0.129337 -1.95172 0
M  V30 3761 C 346.054 1.55802 -1.4244 0
M  V30 3762 O 345.402 2.19625 -0.630649 0
M  V30 3763 C 345.612 0.0599251 -3.48949 0
M  V30 3764 C 346.96 0.242617 -4.23906 0
M  V30 3765 O 347.984 0.135933 -3.55941 0
M  V30 3766 O 346.843 0.459454 -5.44565 0
M  V30 3767 H 343.937 0.104887 -0.820322 0
M  V30 3768 H 346.483 -0.544807 -1.60717 0
M  V30 3769 H 345.255 -0.937079 -3.79914 0
M  V30 3770 H 344.878 0.774984 -3.89974 0
M  V30 3771 N 345.875 1.56104 -0.216619 0
M  V30 3772 C 347.152 1.89988 0.465165 0
M  V30 3773 C 347.532 1.13326 1.78102 0
M  V30 3774 O 346.88 0.241033 2.27225 0
M  V30 3775 C 347.09 3.42646 0.662939 0
M  V30 3776 C 348.438 4.13311 0.972602 0
M  V30 3777 O 349.462 3.48217 0.749901 0
M  V30 3778 O 348.321 5.28396 1.39499 0
M  V30 3779 H 345.415 0.78979 0.245276 0
M  V30 3780 H 347.961 1.67721 -0.258436 0
M  V30 3781 H 346.733 3.90399 -0.26543 0
M  V30 3782 H 346.356 3.70677 1.43821 0
M  V30 3783 N 347.353 -0.0568162 1.57498 0
M  V30 3784 C 348.764 -0.606858 1.76562 0
M  V30 3785 C 349.115 -1.77114 0.844094 0
M  V30 3786 O 348.24 -2.16376 0.0318911 0
M  V30 3787 C 348.835 -1.10766 3.20182 0
M  V30 3788 C 347.394 -1.60344 3.40539 0
M  V30 3789 C 346.541 -0.529311 2.72201 0
M  V30 3790 H 349.492 0.169393 1.57793 0
M  V30 3791 H 349.513 -1.97602 3.25167 0
M  V30 3792 H 349.025 -0.26006 3.87228 0
M  V30 3793 H 347.126 -2.47379 2.78629 0
M  V30 3794 H 347.239 -1.67006 4.4905 0
M  V30 3795 H 345.603 -0.977893 2.35179 0
M  V30 3796 H 346.386 0.308352 3.41912 0
M  V30 3797 N 348.832 -1.54138 -0.328536 0
M  V30 3798 C 350.06 -1.76062 -1.08673 0
M  V30 3799 C 350.475 -0.506852 -1.81869 0
M  V30 3800 O 349.832 0.522223 -1.74869 0
M  V30 3801 C 349.883 -2.95054 -2.08866 0
M  V30 3802 O 349.604 -4.15583 -1.38644 0
M  V30 3803 C 351.105 -3.2915 -2.96943 0
M  V30 3804 H 348.325 -0.587889 -0.323461 0
M  V30 3805 H 350.869 -2.0101 -0.376175 0
M  V30 3806 H 349.024 -2.72394 -2.75464 0
M  V30 3807 H 349.438 -4.82481 -2.05699 0
M  V30 3808 H 350.912 -4.15723 -3.63151 0
M  V30 3809 H 351.389 -2.461 -3.63774 0
M  V30 3810 H 351.995 -3.53871 -2.35914 0
M  V30 3811 N 350.31 0.590341 -1.46126 0
M  V30 3812 C 351.258 1.72105 -1.5647 0
M  V30 3813 C 352.252 1.63756 -0.433612 0
M  V30 3814 O 353.458 1.69342 -0.610194 0
M  V30 3815 H 349.833 0.568889 -0.491802 0
M  V30 3816 H 351.804 1.6051 -2.51553 0
M  V30 3817 C 350.553 3.10493 -1.56491 0
M  V30 3818 H 349.876 3.17583 -2.4286 0
M  V30 3819 H 351.316 3.8939 -1.67785 0
M  V30 3820 C 349.775 3.3563 -0.292231 0
M  V30 3821 O 350.305 3.96875 0.620739 0
M  V30 3822 N 348.511 2.90026 -0.182523 0
M  V30 3823 H 348.058 2.40367 -0.926356 0
M  V30 3824 H 348.016 3.07218 0.668152 0
M  V30 3825 N 351.788 1.33704 0.83433 0
M  V30 3826 C 353.034 1.26612 1.59188 0
M  V30 3827 C 353.389 -0.165439 1.91687 0
M  V30 3828 O 352.682 -1.10873 1.56262 0
M  V30 3829 C 352.876 2.07926 2.90692 0
M  V30 3830 C 352.705 3.58844 2.71038 0
M  V30 3831 C 351.475 4.28148 2.68361 0
M  V30 3832 C 353.673 4.53082 2.43353 0
M  V30 3833 N 351.655 5.64987 2.40132 0
M  V30 3834 C 353.026 5.77843 2.24716 0
M  V30 3835 C 355.081 4.42119 2.28987 0
M  V30 3836 C 353.784 6.92877 1.9317 0
M  V30 3837 C 355.81 5.56973 1.98835 0
M  V30 3838 C 355.172 6.80745 1.81012 0
M  V30 3839 H 351.271 0.518517 0.585375 0
M  V30 3840 H 353.855 1.68294 0.979044 0
M  V30 3841 H 352.026 1.68558 3.49918 0
M  V30 3842 H 353.758 1.92568 3.55949 0
M  V30 3843 H 350.513 3.80469 2.82029 0
M  V30 3844 H 350.937 6.37133 2.28889 0
M  V30 3845 H 355.579 3.47058 2.41477 0
M  V30 3846 H 353.297 7.87931 1.79418 0
M  V30 3847 H 356.883 5.50428 1.88468 0
M  V30 3848 H 355.763 7.68115 1.58017 0
M  V30 3849 N 353.266 -1.05314 1.17247 0
M  V30 3850 C 354.196 -2.1498 0.911362 0
M  V30 3851 C 355.177 -1.69471 -0.146169 0
M  V30 3852 O 356.362 -1.942 0.003812 0
M  V30 3853 C 353.492 -3.4472 0.422528 0
M  V30 3854 C 352.446 -4.03789 1.4191 0
M  V30 3855 C 351.772 -5.28858 0.788274 0
M  V30 3856 C 353.072 -4.41418 2.7919 0
M  V30 3857 H 354.766 -2.3708 1.82848 0
M  V30 3858 H 352.312 -1.13938 0.880569 0
M  V30 3859 H 354.265 -4.20787 0.227289 0
M  V30 3860 H 352.989 -3.22269 -0.530123 0
M  V30 3861 H 351.648 -3.2979 1.60106 0
M  V30 3862 H 351.296 -5.02709 -0.171173 0
M  V30 3863 H 350.996 -5.69338 1.45353 0
M  V30 3864 H 352.52 -6.07612 0.603282 0
M  V30 3865 H 353.934 -5.08524 2.64719 0
M  V30 3866 H 352.331 -4.92913 3.42282 0
M  V30 3867 H 353.401 -3.51819 3.33693 0
M  V30 3868 N 354.744 -0.972509 -1.24016 0
M  V30 3869 C 356.16 -0.679827 -1.44397 0
M  V30 3870 C 356.36 0.756716 -1.86751 0
M  V30 3871 O 355.416 1.53007 -2.00861 0
M  V30 3872 C 356.729 -1.66803 -2.50195 0
M  V30 3873 C 358.277 -1.68119 -2.64017 0
M  V30 3874 C 358.752 -2.65748 -3.73017 0
M  V30 3875 N 360.243 -2.64219 -3.8045 0
M  V30 3876 C 360.978 -3.36433 -4.64328 0
M  V30 3877 N 360.474 -4.1818 -5.52356 0
M  V30 3878 N 362.267 -3.25235 -4.58453 0
M  V30 3879 H 354.418 -1.90059 -0.948228 0
M  V30 3880 H 356.681 -0.818527 -0.478245 0
M  V30 3881 H 356.387 -2.69498 -2.25973 0
M  V30 3882 H 356.261 -1.4446 -3.48441 0
M  V30 3883 H 358.648 -0.661319 -2.87594 0
M  V30 3884 H 358.729 -1.94525 -1.66113 0
M  V30 3885 H 358.373 -3.67872 -3.50189 0
M  V30 3886 H 358.303 -2.36619 -4.70446 0
M  V30 3887 H 360.794 -2.04887 -3.17537 0
M  V30 3888 H 361.107 -4.70157 -6.13329 0
M  V30 3889 H 359.452 -4.22273 -5.52006 0
M  V30 3890 H 362.643 -2.60829 -3.88698 0
M  V30 3891 H 362.816 -3.81776 -5.23594 0
M  V30 3892 N 356.222 1.38976 -0.743202 0
M  V30 3893 C 357.462 2.02193 -0.29954 0
M  V30 3894 C 357.826 1.5771 1.09506 0
M  V30 3895 O 359.027 2.13184 1.63726 0
M  V30 3896 C 357.298 3.55077 -0.406822 0
M  V30 3897 S 358.857 4.38778 -0.0442109 0
M  V30 3898 H 355.675 0.701335 -0.116836 0
M  V30 3899 H 358.277 1.69651 -0.971529 0
M  V30 3900 H 356.981 3.84942 -1.42295 0
M  V30 3901 H 356.512 3.92383 0.282707 0
M  V30 3902 H 358.527 4.82222 1.16947 0
M  V30 3903 N 357.7 0.491464 1.49741 0
M  V30 3904 C 358.93 -0.0534375 2.06531 0
M  V30 3905 C 359.338 -1.32233 1.35318 0
M  V30 3906 O 358.681 -1.78781 0.422243 0
M  V30 3907 C 358.743 -0.387034 3.57411 0
M  V30 3908 C 358.407 0.782764 4.50246 0
M  V30 3909 C 359.404 1.67059 4.92329 0
M  V30 3910 C 357.089 0.978866 4.9267 0
M  V30 3911 C 359.083 2.73874 5.75562 0
M  V30 3912 C 356.77 2.05022 5.75682 0
M  V30 3913 C 357.768 2.92851 6.17031 0
M  V30 3914 O 357.456 3.98138 6.98385 0
M  V30 3915 H 357.188 0.0129324 0.675876 0
M  V30 3916 H 359.742 0.685238 1.93633 0
M  V30 3917 H 357.972 -1.17918 3.68283 0
M  V30 3918 H 359.661 -0.869419 3.96479 0
M  V30 3919 H 360.427 1.53086 4.60206 0
M  V30 3920 H 356.306 0.304646 4.59992 0
M  V30 3921 H 359.85 3.42458 6.07757 0
M  V30 3922 H 355.747 2.18993 6.07217 0
M  V30 3923 H 356.515 3.95374 7.16674 0
M  V30 3924 N 359.178 -1.55987 0.224894 0
M  V30 3925 C 360.408 -2.02489 -0.41007 0
M  V30 3926 C 360.816 -1.10391 -1.53657 0
M  V30 3927 O 360.159 -0.106458 -1.83391 0
M  V30 3928 C 360.221 -3.45319 -0.999757 0
M  V30 3929 C 359.885 -4.56999 -0.00827976 0
M  V30 3930 C 360.882 -5.13812 0.793314 0
M  V30 3931 C 358.567 -5.02176 0.111442 0
M  V30 3932 C 360.561 -6.14276 1.7013 0
M  V30 3933 C 358.248 -6.02477 1.02296 0
M  V30 3934 C 359.246 -6.58403 1.81643 0
M  V30 3935 O 358.934 -7.56751 2.71262 0
M  V30 3936 H 358.666 -0.667915 -0.104235 0
M  V30 3937 H 361.22 -2.0257 0.339782 0
M  V30 3938 H 359.45 -3.42318 -1.79876 0
M  V30 3939 H 361.139 -3.7545 -1.54248 0
M  V30 3940 H 361.905 -4.79756 0.711288 0
M  V30 3941 H 357.784 -4.58323 -0.49605 0
M  V30 3942 H 361.328 -6.57854 2.32107 0
M  V30 3943 H 357.225 -6.35954 1.10599 0
M  V30 3944 H 357.993 -7.74286 2.65375 0
M  V30 3945 N 360.656 0.0484629 -1.57525 0
M  V30 3946 C 361.886 0.754326 -1.92337 0
M  V30 3947 C 362.294 1.70443 -0.82132 0
M  V30 3948 O 361.637 1.82466 0.21254 0
M  V30 3949 C 361.699 1.58231 -3.22805 0
M  V30 3950 C 361.363 0.799074 -4.4996 0
M  V30 3951 C 362.36 0.1079 -5.19788 0
M  V30 3952 C 360.045 0.759345 -4.96527 0
M  V30 3953 C 362.039 -0.612516 -6.3445 0
M  V30 3954 C 359.726 0.0351713 -6.1109 0
M  V30 3955 C 360.724 -0.649537 -6.79904 0
M  V30 3956 O 360.412 -1.36199 -7.92278 0
M  V30 3957 H 360.144 0.218257 -0.639797 0
M  V30 3958 H 362.698 0.0159295 -2.05394 0
M  V30 3959 H 360.928 2.36406 -3.06021 0
M  V30 3960 H 362.617 2.16898 -3.43089 0
M  V30 3961 H 363.383 0.129748 -4.84826 0
M  V30 3962 H 359.262 1.28177 -4.42822 0
M  V30 3963 H 362.806 -1.14751 -6.88097 0
M  V30 3964 H 358.703 0.0113314 -6.45499 0
M  V30 3965 H 359.471 -1.27366 -8.0853 0
M  V30 3966 N 362.134 1.5431 0.320358 0
M  V30 3967 C 363.044 1.86946 1.41734 0
M  V30 3968 C 364.06 0.761689 1.56443 0
M  V30 3969 O 365.236 1.05629 1.71477 0
M  V30 3970 C 362.301 2.09293 2.76401 0
M  V30 3971 C 361.362 3.33082 2.70841 0
M  V30 3972 C 360.595 3.54353 3.99086 0
M  V30 3973 O 360.818 2.79002 4.97508 0
M  V30 3974 O 359.752 4.47838 4.0215 0
M  V30 3975 H 363.578 2.80232 1.17062 0
M  V30 3976 H 361.163 1.40255 0.514673 0
M  V30 3977 H 363.045 2.25303 3.56113 0
M  V30 3978 H 361.72 1.19194 3.00956 0
M  V30 3979 H 360.627 3.22454 1.89668 0
M  V30 3980 H 361.96 4.23249 2.5124 0
M  V30 3981 N 363.613 -0.582584 1.46437 0
M  V30 3982 C 364.89 -1.34276 1.4223 0
M  V30 3983 C 365.27 -2.10835 0.10583 0
M  V30 3984 O 364.618 -2.09485 -0.912596 0
M  V30 3985 C 364.828 -2.26865 2.65204 0
M  V30 3986 C 366.176 -2.88691 3.11356 0
M  V30 3987 O 367.2 -2.37178 2.65753 0
M  V30 3988 O 366.059 -3.82255 3.90568 0
M  V30 3989 H 363.153 -0.603326 0.565621 0
M  V30 3990 H 365.699 -0.603591 1.58603 0
M  V30 3991 H 364.471 -1.69724 3.52576 0
M  V30 3992 H 364.094 -3.08122 2.5129 0
M  V30 3993 N 365.091 -1.34144 -0.827227 0
M  V30 3994 C 366.319 -1.29325 -1.61501 0
M  V30 3995 C 366.734 0.13354 -1.88327 0
M  V30 3996 O 366.091 1.0793 -1.47164 0
M  V30 3997 C 366.142 -2.07746 -2.95844 0
M  V30 3998 O 365.863 -3.4486 -2.70191 0
M  V30 3999 C 367.364 -2.10273 -3.90256 0
M  V30 4000 H 364.584 -0.445069 -0.50215 0
M  V30 4001 H 367.128 -1.76693 -1.02955 0
M  V30 4002 H 365.283 -1.6403 -3.5096 0
M  V30 4003 H 365.697 -3.85345 -3.55822 0
M  V30 4004 H 367.171 -2.69575 -4.81698 0
M  V30 4005 H 367.648 -1.096 -4.25305 0
M  V30 4006 H 368.254 -2.54059 -3.41078 0
M  V30 4007 N 366.569 1.04691 -1.17803 0
M  V30 4008 C 367.818 1.77176 -0.963931 0
M  V30 4009 C 368.131 1.88888 0.508015 0
M  V30 4010 O 369.337 2.58164 0.840465 0
M  V30 4011 C 367.793 3.18518 -1.67555 0
M  V30 4012 C 367.401 3.14919 -3.18637 0
M  V30 4013 C 369.145 3.95424 -1.54402 0
M  V30 4014 C 367.052 4.51081 -3.82466 0
M  V30 4015 H 365.982 0.664116 -0.357023 0
M  V30 4016 H 368.633 1.17303 -1.4111 0
M  V30 4017 H 367.015 3.78748 -1.15613 0
M  V30 4018 H 368.189 2.64178 -3.77554 0
M  V30 4019 H 366.504 2.51512 -3.31859 0
M  V30 4020 H 369.101 4.96106 -1.99456 0
M  V30 4021 H 369.444 4.13343 -0.495329 0
M  V30 4022 H 369.977 3.41754 -2.0359 0
M  V30 4023 H 366.716 4.38368 -4.87354 0
M  V30 4024 H 366.236 5.01951 -3.28337 0
M  V30 4025 H 367.915 5.2001 -3.84965 0
M  V30 4026 N 368.047 0.979072 1.23499 0
M  V30 4027 C 369.272 0.664845 1.96455 0
M  V30 4028 C 369.697 -0.761287 1.72006 0
M  V30 4029 O 369.055 -1.51837 0.990713 0
M  V30 4030 C 369.103 0.959479 3.47601 0
M  V30 4031 O 368.207 0.0508168 4.12369 0
M  V30 4032 H 367.548 0.250185 0.615064 0
M  V30 4033 H 370.078 1.31231 1.5697 0
M  V30 4034 H 370.088 0.895642 3.98048 0
M  V30 4035 H 368.763 1.99876 3.64723 0
M  V30 4036 H 367.34 0.16895 3.72517 0
M  V30 4037 N 369.525 -1.3858 0.750561 0
M  V30 4038 C 370.753 -2.04471 0.316098 0
M  V30 4039 C 371.168 -1.56606 -1.05452 0
M  V30 4040 O 370.525 -0.737784 -1.66922 0
M  V30 4041 C 370.576 -3.60025 0.326275 0
M  V30 4042 O 370.297 -4.06133 1.6428 0
M  V30 4043 C 371.798 -4.43131 -0.122429 0
M  V30 4044 H 369.018 -0.65717 0.135528 0
M  V30 4045 H 371.562 -1.77329 1.01857 0
M  V30 4046 H 369.717 -3.86014 -0.327431 0
M  V30 4047 H 370.131 -5.00547 1.56693 0
M  V30 4048 H 371.605 -5.51963 -0.0641473 0
M  V30 4049 H 372.082 -4.23333 -1.16988 0
M  V30 4050 H 372.688 -4.22323 0.50229 0
M  V30 4051 N 371.003 -0.499398 -1.49478 0
M  V30 4052 C 372.252 0.0475259 -2.01644 0
M  V30 4053 C 372.565 1.38195 -1.38425 0
M  V30 4054 O 373.771 2.01547 -1.8191 0
M  V30 4055 C 372.227 0.135164 -3.59646 0
M  V30 4056 C 371.835 -1.19252 -4.31837 0
M  V30 4057 C 373.579 0.632538 -4.19761 0
M  V30 4058 C 371.486 -1.06713 -5.81693 0
M  V30 4059 H 370.416 0.0215349 -0.753692 0
M  V30 4060 H 373.067 -0.638577 -1.7203 0
M  V30 4061 H 371.449 0.885681 -3.85969 0
M  V30 4062 H 372.623 -1.9562 -4.17216 0
M  V30 4063 H 370.938 -1.62321 -3.83459 0
M  V30 4064 H 373.535 0.743833 -5.29501 0
M  V30 4065 H 373.878 1.63098 -3.83021 0
M  V30 4066 H 374.411 -0.0613987 -3.97753 0
M  V30 4067 H 371.15 -2.03979 -6.22955 0
M  V30 4068 H 370.67 -0.344307 -5.98811 0
M  V30 4069 H 372.349 -0.745208 -6.42694 0
M  V30 4070 N 372.481 1.55866 -0.233164 0
M  V30 4071 C 373.428 2.20796 0.67215 0
M  V30 4072 C 374.398 1.16731 1.18166 0
M  V30 4073 O 375.583 1.45129 1.23864 0
M  V30 4074 C 372.723 2.90072 1.86955 0
M  V30 4075 C 371.836 4.08759 1.39786 0
M  V30 4076 C 370.971 4.65787 2.55374 0
M  V30 4077 C 370.01 5.76752 2.04998 0
M  V30 4078 N 369.147 6.28021 3.13901 0
M  V30 4079 H 373.987 2.9779 0.111749 0
M  V30 4080 H 371.524 1.47036 0.0434007 0
M  V30 4081 H 373.482 3.28428 2.57276 0
M  V30 4082 H 372.112 2.15575 2.40265 0
M  V30 4083 H 371.164 3.7581 0.589173 0
M  V30 4084 H 372.476 4.88906 0.98856 0
M  V30 4085 H 371.63 5.06646 3.33758 0
M  V30 4086 H 370.369 3.84828 2.99598 0
M  V30 4087 H 369.374 5.35383 1.25079 0
M  V30 4088 H 370.599 6.59553 1.61759 0
M  V30 4089 H 368.545 5.49971 3.57586 0
M  V30 4090 H 368.462 7.03323 2.7726 0
M  V30 4091 H 369.73 6.73538 3.92386 0
M  V30 4092 N 373.959 -0.0401083 1.57549 0
M  V30 4093 C 375.236 -0.767917 1.79896 0
M  V30 4094 C 375.616 -1.9416 0.82856 0
M  V30 4095 O 374.964 -2.2812 -0.131671 0
M  V30 4096 C 375.174 -1.2113 3.27305 0
M  V30 4097 C 376.522 -1.63175 3.91994 0
M  V30 4098 O 377.546 -1.30616 3.31388 0
M  V30 4099 O 376.405 -2.23565 4.98679 0
M  V30 4100 H 373.499 -0.370441 0.739393 0
M  V30 4101 H 376.045 -0.017737 1.69691 0
M  V30 4102 H 374.817 -0.372937 3.89519 0
M  V30 4103 H 374.44 -2.02183 3.42356 0
M  V30 4104 N 375.437 -1.54477 -0.31217 0
M  V30 4105 C 376.686 -1.72438 -1.04633 0
M  V30 4106 C 376.999 -0.511163 -1.88803 0
M  V30 4107 O 378.205 -0.572341 -2.65399 0
M  V30 4108 C 376.661 -3.05043 -1.9099 0
M  V30 4109 C 376.269 -4.33806 -1.11877 0
M  V30 4110 C 378.013 -3.32364 -2.64073 0
M  V30 4111 C 375.92 -5.57467 -1.97445 0
M  V30 4112 H 374.85 -0.642647 -0.394361 0
M  V30 4113 H 377.501 -1.80966 -0.303929 0
M  V30 4114 H 375.883 -2.90451 -2.69173 0
M  V30 4115 H 377.057 -4.59199 -0.383843 0
M  V30 4116 H 375.372 -4.13336 -0.504252 0
M  V30 4117 H 377.969 -4.21951 -3.28423 0
M  V30 4118 H 378.312 -2.50745 -3.32314 0
M  V30 4119 H 378.845 -3.47875 -1.92944 0
M  V30 4120 H 375.584 -6.41722 -1.33692 0
M  V30 4121 H 375.104 -5.36277 -2.6864 0
M  V30 4122 H 376.783 -5.94303 -2.5576 0
M  V30 4123 N 376.915 0.57481 -1.46744 0
M  V30 4124 C 377.878 1.66533 -1.57478 0
M  V30 4125 C 378.878 1.54338 -0.451263 0
M  V30 4126 O 380.068 1.58814 -0.715813 0
M  V30 4127 C 377.2 3.05999 -1.50259 0
M  V30 4128 H 378.393 1.58372 -2.54673 0
M  V30 4129 H 375.946 0.793301 -1.34672 0
M  V30 4130 H 376.681 3.19709 -0.543725 0
M  V30 4131 H 376.466 3.16259 -2.31781 0
M  V30 4132 H 377.956 3.8537 -1.60872 0
M  V30 4133 N 378.394 1.34581 0.820102 0
M  V30 4134 C 379.64 1.27285 1.57881 0
M  V30 4135 C 379.973 -0.156137 1.93571 0
M  V30 4136 O 379.248 -1.10222 1.60254 0
M  V30 4137 C 379.531 2.16639 2.87645 0
M  V30 4138 C 379.384 3.68088 2.58517 0
M  V30 4139 C 380.703 2.05378 3.8924 0
M  V30 4140 H 377.822 0.463714 0.572833 0
M  V30 4141 H 380.464 1.64859 0.944539 0
M  V30 4142 H 378.614 1.84725 3.41773 0
M  V30 4143 H 380.286 4.10382 2.10676 0
M  V30 4144 H 378.529 3.89038 1.91917 0
M  V30 4145 H 379.2 4.2598 3.51063 0
M  V30 4146 H 381.676 2.33404 3.44473 0
M  V30 4147 H 380.552 2.7012 4.77835 0
M  V30 4148 H 380.813 1.0316 4.29896 0
M  V30 4149 N 379.872 -1.04064 1.18357 0
M  V30 4150 C 380.782 -2.15569 0.925596 0
M  V30 4151 C 381.798 -1.7365 -0.110295 0
M  V30 4152 O 382.974 -2.01273 0.0716218 0
M  V30 4153 C 380.039 -3.43704 0.454836 0
M  V30 4154 C 379.1 -4.00004 1.55869 0
M  V30 4155 C 378.333 -5.22023 1.1103 0
M  V30 4156 O 378.556 -5.70392 -0.0309756 0
M  V30 4157 O 377.49 -5.70856 1.90805 0
M  V30 4158 H 381.316 -2.40187 1.8586 0
M  V30 4159 H 378.901 -1.1402 0.965394 0
M  V30 4160 H 380.783 -4.20923 0.200382 0
M  V30 4161 H 379.458 -3.20559 -0.449876 0
M  V30 4162 H 378.365 -3.24172 1.86716 0
M  V30 4163 H 379.698 -4.2749 2.43953 0
M  V30 4164 N 381.35 -0.985608 -1.22978 0
M  V30 4165 C 382.26 -0.538548 -2.28335 0
M  V30 4166 C 383.276 0.409163 -1.69121 0
M  V30 4167 O 384.452 0.277797 -1.99475 0
M  V30 4168 C 381.517 0.146867 -3.46389 0
M  V30 4169 C 380.578 -0.842896 -4.20944 0
M  V30 4170 C 379.811 -0.190095 -5.33361 0
M  V30 4171 O 380.034 1.01767 -5.61248 0
M  V30 4172 O 378.968 -0.891289 -5.95264 0
M  V30 4173 H 382.794 -1.41487 -2.68729 0
M  V30 4174 H 380.379 -0.753495 -1.29007 0
M  V30 4175 H 382.261 0.531125 -4.1804 0
M  V30 4176 H 380.936 0.997871 -3.07935 0
M  V30 4177 H 379.843 -1.27795 -3.51595 0
M  V30 4178 H 381.176 -1.66287 -4.6326 0
M  V30 4179 N 382.828 1.3818 -0.7579 0
M  V30 4180 C 384.105 1.94106 -0.241306 0
M  V30 4181 C 384.485 1.69282 1.26122 0
M  V30 4182 O 383.833 1.03378 2.03777 0
M  V30 4183 C 384.043 3.43809 -0.59967 0
M  V30 4184 C 385.391 4.20868 -0.561717 0
M  V30 4185 O 386.415 3.5211 -0.538222 0
M  V30 4186 O 385.274 5.43451 -0.576478 0
M  V30 4187 H 382.368 0.825376 -0.0518042 0
M  V30 4188 H 384.914 1.47548 -0.838315 0
M  V30 4189 H 383.686 3.55403 -1.6372 0
M  V30 4190 H 383.309 3.97592 0.0251197 0
M  V30 4191 N 384.306 0.507319 1.49211 0
M  V30 4192 C 385.236 -0.256939 2.32082 0
M  V30 4193 C 386.217 -0.956609 1.40652 0
M  V30 4194 O 387.402 -0.946788 1.69557 0
M  V30 4195 C 384.532 -1.31802 3.21318 0
M  V30 4196 C 383.486 -0.737855 4.21592 0
M  V30 4197 C 382.812 -1.89992 4.99807 0
M  V30 4198 C 384.112 0.275325 5.21574 0
M  V30 4199 H 385.806 0.434798 2.96226 0
M  V30 4200 H 383.352 0.210546 1.42452 0
M  V30 4201 H 385.305 -1.86045 3.78107 0
M  V30 4202 H 384.029 -2.03903 2.5513 0
M  V30 4203 H 382.688 -0.217126 3.65956 0
M  V30 4204 H 382.336 -2.60877 4.30061 0
M  V30 4205 H 382.036 -1.51777 5.6766 0
M  V30 4206 H 383.56 -2.44657 5.59442 0
M  V30 4207 H 384.974 -0.179193 5.7302 0
M  V30 4208 H 383.371 0.573649 5.97352 0
M  V30 4209 H 384.441 1.18903 4.70096 0
M  V30 4210 N 385.784 -1.5574 0.241426 0
M  V30 4211 C 387.009 -2.0366 -0.392111 0
M  V30 4212 C 387.434 -1.11969 -1.51144 0
M  V30 4213 O 386.792 -0.111594 -1.80956 0
M  V30 4214 C 386.84 -3.49638 -0.882371 0
M  V30 4215 O 385.944 -3.6108 -1.99235 0
M  V30 4216 H 385.285 -0.658379 -0.0862122 0
M  V30 4217 H 387.815 -2.01302 0.365881 0
M  V30 4218 H 387.825 -3.90351 -1.18702 0
M  V30 4219 H 386.5 -4.15852 -0.0632361 0
M  V30 4220 H 385.077 -3.32262 -1.69282 0
M  V30 4221 N 387.262 0.0317525 -1.57568 0
M  V30 4222 C 388.487 0.738664 -1.938 0
M  V30 4223 C 388.912 1.68242 -0.841208 0
M  V30 4224 O 388.27 1.80157 0.203267 0
M  V30 4225 C 388.318 1.47417 -3.29091 0
M  V30 4226 O 387.422 2.5872 -3.2115 0
M  V30 4227 H 386.763 0.198856 -0.633524 0
M  V30 4228 H 389.293 -0.0119713 -2.04596 0
M  V30 4229 H 389.303 1.84468 -3.63917 0
M  V30 4230 H 387.978 0.781988 -4.08482 0
M  V30 4231 H 386.555 2.24231 -2.97951 0
M  V30 4232 N 388.74 1.54641 0.303973 0
M  V30 4233 C 389.968 1.77768 1.05858 0
M  V30 4234 C 390.383 0.535722 1.8104 0
M  V30 4235 O 389.74 -0.494337 1.75677 0
M  V30 4236 C 389.791 2.9834 2.04146 0
M  V30 4237 O 389.512 4.17736 1.32015 0
M  V30 4238 C 391.013 3.33832 2.91669 0
M  V30 4239 H 388.233 0.592961 0.314067 0
M  V30 4240 H 390.777 2.01583 0.344149 0
M  V30 4241 H 388.932 2.76742 2.71096 0
M  V30 4242 H 389.346 4.85693 1.97998 0
M  V30 4243 H 390.82 4.21448 3.56491 0
M  V30 4244 H 391.297 2.51857 3.59812 0
M  V30 4245 H 391.903 3.57579 2.30254 0
M  V30 4246 N 390.218 -0.567019 1.47046 0
M  V30 4247 C 391.629 -1.14916 1.47143 0
M  V30 4248 C 391.98 -1.94954 0.220767 0
M  V30 4249 O 391.105 -2.05602 -0.67505 0
M  V30 4250 C 391.7 -2.09069 2.666 0
M  V30 4251 C 390.259 -2.62575 2.69687 0
M  V30 4252 C 389.406 -1.38755 2.40088 0
M  V30 4253 H 392.357 -0.354126 1.54699 0
M  V30 4254 H 392.378 -2.92789 2.43011 0
M  V30 4255 H 391.89 -1.50789 3.57609 0
M  V30 4256 H 389.991 -3.24681 1.82792 0
M  V30 4257 H 390.104 -3.04239 3.70102 0
M  V30 4258 H 388.468 -1.69098 1.90468 0
M  V30 4259 H 389.251 -0.822822 3.33293 0
M  V30 4260 N 391.696 -1.35014 -0.812953 0
M  V30 4261 C 392.626 -1.30069 -1.93919 0
M  V30 4262 C 393.607 -0.176275 -1.69184 0
M  V30 4263 O 394.792 -0.370227 -1.90638 0
M  V30 4264 C 391.922 -1.06547 -3.30552 0
M  V30 4265 C 390.876 -2.15561 -3.69753 0
M  V30 4266 C 390.202 -1.77214 -5.04479 0
M  V30 4267 C 391.502 -3.57476 -3.808 0
M  V30 4268 H 393.196 -2.24303 -1.98314 0
M  V30 4269 H 390.742 -1.07977 -0.952736 0
M  V30 4270 H 392.695 -1.01729 -4.08937 0
M  V30 4271 H 391.419 -0.0875719 -3.26483 0
M  V30 4272 H 390.078 -2.19466 -2.9365 0
M  V30 4273 H 389.726 -0.780589 -4.96906 0
M  V30 4274 H 389.426 -2.50184 -5.31678 0
M  V30 4275 H 390.95 -1.7391 -5.8531 0
M  V30 4276 H 392.364 -3.55929 -4.4943 0
M  V30 4277 H 390.761 -4.29152 -4.19462 0
M  V30 4278 H 391.831 -3.94091 -2.82525 0
M  V30 4279 N 393.175 1.03435 -1.18907 0
M  V30 4280 C 394.105 2.13503 -0.945448 0
M  V30 4281 C 395.086 1.69682 0.119189 0
M  V30 4282 O 396.271 1.94169 -0.034707 0
M  V30 4283 C 393.401 3.44004 -0.477316 0
M  V30 4284 C 392.355 4.0148 -1.48316 0
M  V30 4285 C 391.681 5.27537 -0.872311 0
M  V30 4286 C 392.981 4.36921 -2.86177 0
M  V30 4287 H 394.675 2.34141 -1.86597 0
M  V30 4288 H 392.221 1.12523 -0.898584 0
M  V30 4289 H 394.174 4.20372 -0.294204 0
M  V30 4290 H 392.898 3.23072 0.478786 0
M  V30 4291 H 391.557 3.27201 -1.65332 0
M  V30 4292 H 391.205 5.02917 0.0911752 0
M  V30 4293 H 390.905 5.66954 -1.54393 0
M  V30 4294 H 392.429 6.06576 -0.699871 0
M  V30 4295 H 393.843 5.04248 -2.72776 0
M  V30 4296 H 392.24 4.87405 -3.50081 0
M  V30 4297 H 393.31 3.46466 -3.39248 0
M  V30 4298 N 394.653 0.992116 1.22453 0
M  V30 4299 C 395.6 0.541731 2.24352 0
M  V30 4300 C 396.57 -0.425519 1.60557 0
M  V30 4301 O 397.755 -0.330453 1.87917 0
M  V30 4302 C 394.895 -0.138248 3.44823 0
M  V30 4303 C 394.008 0.870649 4.23136 0
M  V30 4304 C 393.143 0.164269 5.30946 0
M  V30 4305 C 392.182 1.16159 6.00977 0
M  V30 4306 N 391.319 0.483568 7.00433 0
M  V30 4307 H 396.159 1.41541 2.62241 0
M  V30 4308 H 393.696 0.709013 1.28885 0
M  V30 4309 H 395.654 -0.5494 4.13567 0
M  V30 4310 H 394.284 -0.975721 3.077 0
M  V30 4311 H 393.336 1.40013 3.53696 0
M  V30 4312 H 394.648 1.63014 4.7141 0
M  V30 4313 H 393.802 -0.303653 6.0594 0
M  V30 4314 H 392.541 -0.627733 4.83643 0
M  V30 4315 H 391.546 1.64015 5.24766 0
M  V30 4316 H 392.771 1.95445 6.50368 0
M  V30 4317 H 390.717 -0.289012 6.55363 0
M  V30 4318 H 390.634 1.18152 7.4671 0
M  V30 4319 H 391.902 0.0384219 7.79491 0
M  V30 4320 N 396.131 -1.37776 0.765217 0
M  V30 4321 C 397.408 -1.93975 0.251596 0
M  V30 4322 C 397.788 -1.69949 -1.25222 0
M  V30 4323 O 397.136 -1.04457 -2.03226 0
M  V30 4324 C 397.346 -3.43487 0.617895 0
M  V30 4325 C 398.694 -4.20564 0.584029 0
M  V30 4326 O 399.718 -3.5182 0.556888 0
M  V30 4327 O 398.577 -5.43138 0.605291 0
M  V30 4328 H 395.671 -0.82509 0.0561806 0
M  V30 4329 H 398.217 -1.47101 0.846128 0
M  V30 4330 H 396.989 -3.5453 1.65602 0
M  V30 4331 H 396.612 -3.976 -0.00403411 0
M  V30 4332 N 397.609 -0.515225 -1.4894 0
M  V30 4333 C 398.539 0.244628 -2.32215 0
M  V30 4334 C 399.52 0.949136 -1.41157 0
M  V30 4335 O 400.705 0.937783 -1.70057 0
M  V30 4336 C 397.835 1.30096 -3.22013 0
M  V30 4337 C 396.789 0.715486 -4.21977 0
M  V30 4338 C 396.115 1.87339 -5.00808 0
M  V30 4339 C 397.415 -0.302982 -5.2142 0
M  V30 4340 H 399.109 -0.450501 -2.95991 0
M  V30 4341 H 396.655 -0.218098 -1.42339 0
M  V30 4342 H 398.608 1.84037 -3.79089 0
M  V30 4343 H 397.332 2.02547 -2.56207 0
M  V30 4344 H 395.991 0.197715 -3.66066 0
M  V30 4345 H 395.639 2.58592 -4.31438 0
M  V30 4346 H 395.339 1.48764 -5.68457 0
M  V30 4347 H 396.863 2.41686 -5.60732 0
M  V30 4348 H 398.277 0.148802 -5.73107 0
M  V30 4349 H 396.674 -0.60532 -5.97039 0
M  V30 4350 H 397.744 -1.21395 -4.69459 0
M  V30 4351 N 399.087 1.5561 -0.249682 0
M  V30 4352 C 400.017 2.24477 0.642826 0
M  V30 4353 C 400.998 1.22601 1.17911 0
M  V30 4354 O 402.183 1.5126 1.21795 0
M  V30 4355 C 399.313 2.94638 1.83863 0
M  V30 4356 C 398.267 4.03227 1.435 0
M  V30 4357 C 397.593 4.60828 2.71186 0
M  V30 4358 C 398.893 5.18796 0.604002 0
M  V30 4359 H 400.587 2.99321 0.0685625 0
M  V30 4360 H 398.133 1.43965 0.0315363 0
M  V30 4361 H 400.086 3.41517 2.46868 0
M  V30 4362 H 398.81 2.17287 2.43832 0
M  V30 4363 H 397.469 3.57121 0.828275 0
M  V30 4364 H 397.117 3.80174 3.29358 0
M  V30 4365 H 396.817 5.34132 2.44901 0
M  V30 4366 H 398.341 5.10442 3.35084 0
M  V30 4367 H 399.755 5.61883 1.13842 0
M  V30 4368 H 398.152 5.98506 0.437097 0
M  V30 4369 H 399.222 4.83384 -0.383147 0
M  V30 4370 N 400.565 -0.0233959 1.57583 0
M  V30 4371 C 401.475 -1.03907 2.10334 0
M  V30 4372 C 402.491 -1.39257 1.04323 0
M  V30 4373 O 403.667 -1.48462 1.36091 0
M  V30 4374 C 400.732 -2.31938 2.57693 0
M  V30 4375 C 399.793 -2.03117 3.78209 0
M  V30 4376 C 399.026 -3.25043 4.233 0
M  V30 4377 O 399.249 -4.35916 3.67876 0
M  V30 4378 O 398.183 -3.10411 5.15683 0
M  V30 4379 H 402.009 -0.620748 2.97288 0
M  V30 4380 H 399.594 -0.240743 1.47448 0
M  V30 4381 H 401.476 -3.07196 2.88458 0
M  V30 4382 H 400.151 -2.73055 1.73847 0
M  V30 4383 H 399.058 -1.25408 3.52454 0
M  V30 4384 H 400.391 -1.66852 4.63056 0
M  V30 4385 N 402.043 -1.548 -0.295768 0
M  V30 4386 C 402.973 -1.89115 -1.36959 0
M  V30 4387 C 403.954 -0.75059 -1.52644 0
M  V30 4388 O 405.139 -1.00678 -1.66065 0
M  V30 4389 C 402.269 -2.14307 -2.73295 0
M  V30 4390 C 401.223 -3.30151 -2.72368 0
M  V30 4391 C 400.549 -3.40772 -4.12042 0
M  V30 4392 C 401.849 -4.67126 -2.33646 0
M  V30 4393 H 403.543 -2.79053 -1.08488 0
M  V30 4394 H 401.089 -1.34266 -0.520443 0
M  V30 4395 H 403.042 -2.36898 -3.48507 0
M  V30 4396 H 401.766 -1.21145 -3.03301 0
M  V30 4397 H 400.425 -3.0749 -1.99613 0
M  V30 4398 H 400.073 -2.45117 -4.39234 0
M  V30 4399 H 399.773 -4.18645 -4.12322 0
M  V30 4400 H 401.297 -3.6563 -4.89027 0
M  V30 4401 H 402.711 -4.89414 -2.98575 0
M  V30 4402 H 401.108 -5.47751 -2.45129 0
M  V30 4403 H 402.178 -4.67489 -1.28772 0
M  V30 4404 N 403.521 0.559213 -1.47345 0
M  V30 4405 C 404.749 1.34194 -1.57479 0
M  V30 4406 C 405.164 1.87463 -0.224261 0
M  V30 4407 O 404.521 1.64888 0.782185 0
M  V30 4408 C 404.572 2.51324 -2.59843 0
M  V30 4409 O 404.293 2.00256 -3.89653 0
M  V30 4410 C 405.794 3.43563 -2.80142 0
M  V30 4411 H 403.014 0.409136 -0.531835 0
M  V30 4412 H 405.558 0.677609 -1.92947 0
M  V30 4413 H 403.713 3.13699 -2.27314 0
M  V30 4414 H 404.127 2.76708 -4.4557 0
M  V30 4415 H 405.601 4.2217 -3.55635 0
M  V30 4416 H 406.078 3.9698 -1.87892 0
M  V30 4417 H 406.684 2.87005 -3.1386 0
M  V30 4418 N 404.999 1.35443 0.805782 0
M  V30 4419 C 406.415 1.15499 1.10146 0
M  V30 4420 C 406.615 -0.0319975 2.01475 0
M  V30 4421 O 405.671 -0.70236 2.42535 0
M  V30 4422 C 406.984 2.45833 1.73166 0
M  V30 4423 C 408.532 2.52047 1.85583 0
M  V30 4424 C 409.007 3.82427 2.52019 0
M  V30 4425 N 410.498 3.83682 2.59504 0
M  V30 4426 C 411.233 4.81294 3.11679 0
M  V30 4427 N 410.729 5.89294 3.64287 0
M  V30 4428 N 412.522 4.6873 3.1024 0
M  V30 4429 H 404.673 2.11469 0.198678 0
M  V30 4430 H 406.936 0.93594 0.150731 0
M  V30 4431 H 406.642 3.32874 1.13526 0
M  V30 4432 H 406.516 2.6044 2.72857 0
M  V30 4433 H 408.903 1.65435 2.44367 0
M  V30 4434 H 408.984 2.41354 0.847455 0
M  V30 4435 H 408.628 4.69437 1.93885 0
M  V30 4436 H 408.558 3.90409 3.53395 0
M  V30 4437 H 411.049 3.05648 2.22234 0
M  V30 4438 H 411.362 6.59768 4.02401 0
M  V30 4439 H 409.707 5.92985 3.62483 0
M  V30 4440 H 412.898 3.83496 2.68419 0
M  V30 4441 H 413.071 5.44965 3.50596 0
M  V30 4442 N 406.477 -1.02803 1.19454 0
M  V30 4443 C 407.893 -1.28473 0.946937 0
M  V30 4444 C 408.093 -1.97881 -0.380202 0
M  V30 4445 O 407.149 -2.26719 -1.11151 0
M  V30 4446 C 408.462 -2.13099 2.12154 0
M  V30 4447 C 410.01 -2.26404 2.16126 0
M  V30 4448 C 410.485 -3.14402 3.33039 0
M  V30 4449 N 411.976 -3.21991 3.32981 0
M  V30 4450 C 412.711 -3.90272 4.20089 0
M  V30 4451 N 412.207 -4.60777 5.17355 0
M  V30 4452 N 414 -3.8668 4.07964 0
M  V30 4453 H 406.151 -0.561665 2.04839 0
M  V30 4454 H 408.414 -0.310438 0.89573 0
M  V30 4455 H 408.12 -1.69422 3.08203 0
M  V30 4456 H 407.994 -3.13813 2.09287 0
M  V30 4457 H 410.381 -2.69311 1.20647 0
M  V30 4458 H 410.462 -1.25237 2.23045 0
M  V30 4459 H 410.106 -2.72204 4.28798 0
M  V30 4460 H 410.036 -4.1563 3.23356 0
M  V30 4461 H 412.527 -2.71778 2.62574 0
M  V30 4462 H 412.84 -5.10513 5.80169 0
M  V30 4463 H 411.185 -4.5964 5.21302 0
M  V30 4464 H 414.376 -3.30739 3.31254 0
M  V30 4465 H 414.549 -4.39621 4.76064 0
M  V30 4466 N 407.956 -0.998596 -1.21925 0
M  V30 4467 C 408.866 -0.562736 -2.27751 0
M  V30 4468 C 409.882 0.391203 -1.69545 0
M  V30 4469 O 411.058 0.256625 -1.99758 0
M  V30 4470 C 408.123 0.11012 -3.46525 0
M  V30 4471 C 407.184 -0.887495 -4.20026 0
M  V30 4472 C 406.417 -0.246654 -5.3313 0
M  V30 4473 O 406.64 0.958088 -5.62296 0
M  V30 4474 O 405.574 -0.954374 -5.94286 0
M  V30 4475 H 409.4 -1.44329 -2.67213 0
M  V30 4476 H 406.985 -0.767135 -1.28201 0
M  V30 4477 H 408.867 0.486756 -4.18579 0
M  V30 4478 H 407.542 0.965154 -3.08976 0
M  V30 4479 H 406.449 -1.31517 -3.5022 0
M  V30 4480 H 407.782 -1.71191 -4.6147 0
M  V30 4481 N 409.434 1.37368 -0.772513 0
M  V30 4482 C 410.681 1.99673 -0.337182 0
M  V30 4483 C 411.009 1.61324 1.0865 0
M  V30 4484 O 410.264 0.851377 1.7621 0
M  V30 4485 C 410.563 3.54817 -0.428876 0
M  V30 4486 C 410.229 4.12936 -1.81092 0
M  V30 4487 C 408.891 4.28523 -2.1891 0
M  V30 4488 C 411.243 4.44801 -2.71664 0
M  V30 4489 C 408.571 4.73277 -3.46735 0
M  V30 4490 C 410.923 4.90981 -3.98899 0
M  V30 4491 C 409.587 5.04773 -4.36761 0
M  V30 4492 H 408.857 0.730656 -0.123384 0
M  V30 4493 H 411.504 1.64124 -0.986686 0
M  V30 4494 H 409.809 3.90618 0.304167 0
M  V30 4495 H 411.506 4.00933 -0.0733334 0
M  V30 4496 H 408.096 4.01233 -1.50699 0
M  V30 4497 H 412.28 4.32344 -2.43706 0
M  V30 4498 H 407.536 4.82142 -3.75964 0
M  V30 4499 H 411.71 5.14603 -4.69208 0
M  V30 4500 H 409.337 5.39211 -5.35868 0
M  V30 4501 N 410.912 0.523116 1.48665 0
M  V30 4502 C 411.844 -0.280421 2.27478 0
M  V30 4503 C 412.857 -0.910694 1.34945 0
M  V30 4504 O 414.046 -0.790295 1.60052 0
M  V30 4505 C 411.146 -1.41171 3.08097 0
M  V30 4506 C 410.319 -0.884642 4.28361 0
M  V30 4507 C 409.378 -1.89622 4.90846 0
M  V30 4508 O 408.404 -1.4559 5.50265 0
M  V30 4509 N 409.606 -3.22801 4.82472 0
M  V30 4510 H 412.371 0.395481 2.97079 0
M  V30 4511 H 409.932 0.357018 1.57915 0
M  V30 4512 H 411.924 -2.08645 3.4677 0
M  V30 4513 H 410.494 -1.99139 2.40961 0
M  V30 4514 H 409.714 -0.0341177 3.94185 0
M  V30 4515 H 411.002 -0.511268 5.06225 0
M  V30 4516 H 410.4 -3.61246 4.35336 0
M  V30 4517 H 408.957 -3.85927 5.25265 0
M  V30 4518 N 412.39 -1.55475 0.257931 0
M  V30 4519 C 413.806 -1.59307 -0.0966563 0
M  V30 4520 C 414.006 -1.27514 -1.5602 0
M  V30 4521 O 413.062 -1.02774 -2.30637 0
M  V30 4522 C 414.375 -2.99552 0.262481 0
M  V30 4523 C 415.923 -3.1231 0.207683 0
M  V30 4524 C 416.398 -4.54793 0.541012 0
M  V30 4525 N 417.889 -4.6058 0.491921 0
M  V30 4526 C 418.624 -5.68825 0.722857 0
M  V30 4527 N 418.12 -6.85287 1.0175 0
M  V30 4528 N 419.913 -5.58296 0.652815 0
M  V30 4529 H 412.064 -1.74409 1.21224 0
M  V30 4530 H 414.327 -0.812424 0.48854 0
M  V30 4531 H 414.033 -3.27593 1.27967 0
M  V30 4532 H 413.907 -3.75019 -0.40508 0
M  V30 4533 H 416.294 -2.84044 -0.800195 0
M  V30 4534 H 416.375 -2.39095 0.909255 0
M  V30 4535 H 416.019 -4.83783 1.5465 0
M  V30 4536 H 415.949 -5.26285 -0.18216 0
M  V30 4537 H 418.44 -3.7691 0.273366 0
M  V30 4538 H 418.753 -7.63725 1.18084 0
M  V30 4539 H 417.098 -6.86945 1.05509 0
M  V30 4540 H 420.289 -4.66189 0.422592 0
M  V30 4541 H 420.462 -6.42582 0.836182 0
M  V30 4542 N 413.868 0.0150385 -1.57593 0
M  V30 4543 C 414.778 1.02791 -2.10882 0
M  V30 4544 C 415.794 1.38702 -1.0506 0
M  V30 4545 O 416.97 1.47739 -1.36877 0
M  V30 4546 C 414.035 2.30568 -2.58919 0
M  V30 4547 C 413.096 2.01108 -3.79281 0
M  V30 4548 C 412.329 3.22794 -4.25018 0
M  V30 4549 O 412.552 4.33959 -3.70183 0
M  V30 4550 O 411.486 3.07672 -5.17322 0
M  V30 4551 H 415.312 0.604973 -2.97613 0
M  V30 4552 H 412.897 0.23292 -1.47573 0
M  V30 4553 H 414.779 3.05662 -2.90084 0
M  V30 4554 H 413.454 2.72129 -1.75293 0
M  V30 4555 H 412.361 1.23537 -3.53114 0
M  V30 4556 H 413.694 1.64394 -4.63935 0
M  V30 4557 N 415.346 1.54954 0.287554 0
M  V30 4558 C 416.623 1.65569 1.04146 0
M  V30 4559 C 417.003 0.512672 2.0478 0
M  V30 4560 O 416.351 -0.489038 2.23205 0
M  V30 4561 C 416.561 3.04163 1.71131 0
M  V30 4562 C 417.909 3.61429 2.22832 0
M  V30 4563 O 418.933 3.06702 1.81141 0
M  V30 4564 O 417.792 4.57281 2.9926 0
M  V30 4565 H 414.886 0.671881 0.482188 0
M  V30 4566 H 417.432 1.67297 0.28457 0
M  V30 4567 H 416.204 3.78796 0.981303 0
M  V30 4568 H 415.827 3.06271 2.53543 0
M  V30 4569 N 416.824 -0.551391 1.4764 0
M  V30 4570 C 418.073 -1.30467 1.53822 0
M  V30 4571 C 418.386 -1.94495 0.207661 0
M  V30 4572 O 419.592 -2.71099 0.147533 0
M  V30 4573 C 418.048 -2.36616 2.71184 0
M  V30 4574 C 417.656 -1.78754 4.10793 0
M  V30 4575 C 419.4 -3.13088 2.86663 0
M  V30 4576 C 417.307 -2.82717 5.19447 0
M  V30 4577 H 416.237 -0.490584 0.572576 0
M  V30 4578 H 418.888 -0.58494 1.73927 0
M  V30 4579 H 417.27 -3.11529 2.4447 0
M  V30 4580 H 418.444 -1.10173 4.47435 0
M  V30 4581 H 416.759 -1.14846 4.00249 0
M  V30 4582 H 419.356 -3.90736 3.65007 0
M  V30 4583 H 419.699 -3.67635 1.95321 0
M  V30 4584 H 420.232 -2.45288 3.13175 0
M  V30 4585 H 416.971 -2.33018 6.12685 0
M  V30 4586 H 416.491 -3.4969 4.87316 0
M  V30 4587 H 418.17 -3.46102 5.46646 0
M  V30 4588 N 418.302 -1.35869 -0.798587 0
M  V30 4589 C 419.265 -1.29307 -1.89242 0
M  V30 4590 C 420.265 -0.202747 -1.59517 0
M  V30 4591 O 421.455 -0.456957 -1.681 0
M  V30 4592 C 418.587 -1.00229 -3.25833 0
M  V30 4593 H 419.78 -2.26576 -1.96478 0
M  V30 4594 H 417.333 -1.20509 -0.995358 0
M  V30 4595 H 418.068 -0.033801 -3.24282 0
M  V30 4596 H 417.853 -1.79121 -3.48795 0
M  V30 4597 H 419.343 -0.98219 -4.05885 0
M  V30 4598 N 419.78 1.02168 -1.19998 0
M  V30 4599 C 420.71 2.12488 -0.96804 0
M  V30 4600 C 421.691 1.69799 0.101185 0
M  V30 4601 O 422.876 1.94121 -0.0552993 0
M  V30 4602 C 420.006 3.43479 -0.513776 0
M  V30 4603 C 418.96 3.99884 -1.52566 0
M  V30 4604 C 418.286 5.26582 -0.928214 0
M  V30 4605 C 419.586 4.33861 -2.90795 0
M  V30 4606 H 421.28 2.32149 -1.89069 0
M  V30 4607 H 418.826 1.11564 -0.910468 0
M  V30 4608 H 420.779 4.20036 -0.338774 0
M  V30 4609 H 419.503 3.23561 0.444493 0
M  V30 4610 H 418.162 3.25429 -1.68794 0
M  V30 4611 H 417.81 5.02986 0.0378289 0
M  V30 4612 H 417.51 5.65284 -1.60397 0
M  V30 4613 H 419.034 6.05799 -0.764167 0
M  V30 4614 H 420.448 5.01327 -2.78109 0
M  V30 4615 H 418.845 4.83664 -3.55231 0
M  V30 4616 H 419.915 3.42848 -3.42904 0
M  V30 4617 N 421.258 1.00505 1.21394 0
M  V30 4618 C 422.206 0.558623 2.25792 0
M  V30 4619 C 423.2 -0.396848 1.64686 0
M  V30 4620 O 424.406 -0.268035 1.77993 0
M  V30 4621 H 420.781 0.1623 0.734277 0
M  V30 4622 H 422.752 1.4503 2.60785 0
M  V30 4623 C 421.501 -0.0989574 3.47559 0
M  V30 4624 H 420.824 0.627225 3.94849 0
M  V30 4625 H 422.264 -0.3746 4.22342 0
M  V30 4626 C 420.723 -1.33817 3.09184 0
M  V30 4627 O 421.253 -2.43252 3.19674 0
M  V30 4628 N 419.459 -1.21793 2.63846 0
M  V30 4629 H 419.006 -0.32746 2.5551 0
M  V30 4630 H 418.964 -2.04809 2.38539 0
M  V30 4631 N 422.737 -1.36956 0.779787 0
M  V30 4632 C 423.967 -2.03459 0.358877 0
M  V30 4633 C 424.375 -1.58939 -1.02641 0
M  V30 4634 O 423.718 -0.769777 -1.66794 0
M  V30 4635 C 423.78 -3.5796 0.332393 0
M  V30 4636 C 423.444 -4.25644 1.66362 0
M  V30 4637 C 424.441 -4.49205 2.61746 0
M  V30 4638 C 422.126 -4.63313 1.94027 0
M  V30 4639 C 424.12 -5.09503 3.82996 0
M  V30 4640 C 421.807 -5.2333 3.15546 0
M  V30 4641 C 422.805 -5.46363 4.0985 0
M  V30 4642 O 422.493 -6.05122 5.29228 0
M  V30 4643 H 422.225 -0.659767 0.147254 0
M  V30 4644 H 424.779 -1.76111 1.05708 0
M  V30 4645 H 423.009 -3.84388 -0.422237 0
M  V30 4646 H 424.698 -4.05852 -0.0625389 0
M  V30 4647 H 425.464 -4.20508 2.41657 0
M  V30 4648 H 421.343 -4.44715 1.21448 0
M  V30 4649 H 424.887 -5.27397 4.56617 0
M  V30 4650 H 420.784 -5.51451 3.35517 0
M  V30 4651 H 421.552 -6.23595 5.30161 0
M  V30 4652 N 424.215 -0.530993 -1.48385 0
M  V30 4653 C 425.631 -0.188919 -1.58478 0
M  V30 4654 C 425.831 1.30786 -1.53288 0
M  V30 4655 O 424.887 2.08619 -1.42248 0
M  V30 4656 C 426.2 -0.792343 -2.90073 0
M  V30 4657 C 427.748 -0.76117 -3.03604 0
M  V30 4658 C 428.223 -1.34319 -4.37861 0
M  V30 4659 N 429.714 -1.3052 -4.44431 0
M  V30 4660 C 430.449 -1.72543 -5.46824 0
M  V30 4661 N 429.945 -2.22299 -6.56167 0
M  V30 4662 N 431.738 -1.63773 -5.37712 0
M  V30 4663 H 423.889 -1.50377 -1.50002 0
M  V30 4664 H 426.152 -0.625559 -0.712306 0
M  V30 4665 H 425.858 -1.84323 -2.99529 0
M  V30 4666 H 425.732 -0.270026 -3.76232 0
M  V30 4667 H 428.119 0.280957 -2.93759 0
M  V30 4668 H 428.2 -1.32097 -2.19053 0
M  V30 4669 H 427.844 -2.38425 -4.4846 0
M  V30 4670 H 427.774 -0.759064 -5.21101 0
M  V30 4671 H 430.265 -0.940973 -3.65997 0
M  V30 4672 H 430.578 -2.52356 -7.30436 0
M  V30 4673 H 428.923 -2.26293 -6.57127 0
M  V30 4674 H 432.114 -1.24698 -4.51185 0
M  V30 4675 H 432.287 -1.96844 -6.17379 0
M  V30 4676 N 425.693 1.55336 -0.266172 0
M  V30 4677 C 426.97 1.91372 0.404486 0
M  V30 4678 C 427.35 1.18935 1.74407 0
M  V30 4679 O 426.698 0.3132 2.26343 0
M  V30 4680 C 426.908 3.44581 0.553593 0
M  V30 4681 C 428.256 4.16196 0.840618 0
M  V30 4682 O 429.28 3.50426 0.638739 0
M  V30 4683 O 428.139 5.32567 1.22618 0
M  V30 4684 H 425.233 0.797194 0.220025 0
M  V30 4685 H 427.779 1.66813 -0.311664 0
M  V30 4686 H 426.551 3.89357 -0.389498 0
M  V30 4687 H 426.174 3.75065 1.31955 0
M  V30 4688 N 427.171 -0.0066808 1.57599 0
M  V30 4689 C 428.134 -0.985035 2.06953 0
M  V30 4690 C 429.134 -1.27663 0.977687 0
M  V30 4691 O 430.324 -1.22293 1.24057 0
M  V30 4692 C 427.456 -2.3118 2.50536 0
M  V30 4693 H 428.649 -0.558255 2.94658 0
M  V30 4694 H 426.202 -0.254011 1.54222 0
M  V30 4695 H 426.937 -2.78561 1.66054 0
M  V30 4696 H 426.722 -2.11338 3.3027 0
M  V30 4697 H 428.212 -3.01377 2.8907 0
M  V30 4698 N 428.649 -1.55105 -0.279332 0
M  V30 4699 C 429.559 -1.90638 -1.36727 0
M  V30 4700 C 430.575 -0.802899 -1.54368 0
M  V30 4701 O 431.751 -1.10138 -1.68616 0
M  V30 4702 C 428.816 -2.16547 -2.70755 0
M  V30 4703 C 427.877 -3.40146 -2.61915 0
M  V30 4704 C 427.11 -3.6481 -3.8955 0
M  V30 4705 O 427.333 -2.92095 -4.89935 0
M  V30 4706 O 426.267 -4.58343 -3.90135 0
M  V30 4707 H 430.093 -2.83237 -1.09591 0
M  V30 4708 H 427.678 -1.4157 -0.477306 0
M  V30 4709 H 429.56 -2.34665 -3.50014 0
M  V30 4710 H 428.235 -1.27131 -2.9769 0
M  V30 4711 H 427.142 -3.2737 -1.81052 0
M  V30 4712 H 428.475 -4.29761 -2.3993 0
M  V30 4713 N 430.127 0.543554 -1.4793 0
M  V30 4714 C 431.375 1.29752 -1.54948 0
M  V30 4715 C 431.696 1.93764 -0.219242 0
M  V30 4716 O 430.966 1.80639 0.75805 0
M  V30 4717 H 429.546 0.481874 -0.570795 0
M  V30 4718 H 432.208 0.633636 -1.84312 0
M  V30 4719 H 431.304 2.08392 -2.32334 0
M  V30 4720 N 431.605 1.3629 0.791371 0
M  V30 4721 C 432.882 1.20962 1.53712 0
M  V30 4722 C 433.262 -0.205021 2.10102 0
M  V30 4723 O 432.61 -1.21042 1.93807 0
M  V30 4724 C 432.82 2.29002 2.63361 0
M  V30 4725 C 434.168 2.65572 3.31295 0
M  V30 4726 O 435.192 2.2803 2.73643 0
M  V30 4727 O 434.051 3.3018 4.35481 0
M  V30 4728 H 431.145 0.47086 0.679867 0
M  V30 4729 H 433.691 1.48016 0.830021 0
M  V30 4730 H 432.463 3.2382 2.19674 0
M  V30 4731 H 432.086 2.03303 3.41692 0
M  V30 4732 N 433.083 -1.0153 1.20538 0
M  V30 4733 C 434.013 -2.11972 0.979295 0
M  V30 4734 C 434.994 -1.6985 -0.0921787 0
M  V30 4735 O 436.179 -1.94089 0.0655932 0
M  V30 4736 C 433.309 -3.43201 0.531984 0
M  V30 4737 C 432.263 -3.9907 1.54685 0
M  V30 4738 C 431.589 -5.26082 0.956127 0
M  V30 4739 C 432.889 -4.32313 2.93092 0
M  V30 4740 H 434.583 -2.31143 1.90298 0
M  V30 4741 H 432.129 -1.11079 0.916372 0
M  V30 4742 H 434.082 -4.1985 0.361044 0
M  V30 4743 H 432.806 -3.23792 -0.427327 0
M  V30 4744 H 431.465 -3.2453 1.70517 0
M  V30 4745 H 431.113 -5.02999 -0.0111538 0
M  V30 4746 H 430.813 -5.64426 1.63393 0
M  V30 4747 H 432.337 -6.05386 0.796284 0
M  V30 4748 H 433.751 -4.99845 2.80763 0
M  V30 4749 H 432.148 -4.81774 3.57791 0
M  V30 4750 H 433.218 -3.41025 3.44717 0
M  V30 4751 N 434.561 -1.01147 -1.20859 0
M  V30 4752 C 435.807 -0.698899 -1.90377 0
M  V30 4753 C 436.14 0.76904 -1.78324 0
M  V30 4754 O 435.415 1.55817 -1.16409 0
M  V30 4755 C 435.698 -1.12878 -3.41951 0
M  V30 4756 C 435.551 -2.65665 -3.62963 0
M  V30 4757 C 436.87 -0.696114 -4.3456 0
M  V30 4758 H 433.989 -0.255372 -0.691342 0
M  V30 4759 H 436.631 -1.25831 -1.42361 0
M  V30 4760 H 434.781 -0.652827 -3.82976 0
M  V30 4761 H 436.453 -3.21074 -3.31224 0
M  V30 4762 H 434.696 -3.06878 -3.06608 0
M  V30 4763 H 435.367 -2.90797 -4.69192 0
M  V30 4764 H 437.843 -1.10521 -4.01154 0
M  V30 4765 H 436.719 -1.025 -5.39245 0
M  V30 4766 H 436.98 0.402465 -4.40264 0
M  V30 4767 N 436.039 1.36541 -0.78704 0
M  V30 4768 C 437.455 1.52571 -0.46844 0
M  V30 4769 C 437.655 1.7415 1.01361 0
M  V30 4770 O 436.711 1.77163 1.79915 0
M  V30 4771 C 438.024 2.71299 -1.29682 0
M  V30 4772 C 439.572 2.85169 -1.29027 0
M  V30 4773 C 440.047 4.06898 -2.10233 0
M  V30 4774 N 441.538 4.1404 -2.07666 0
M  V30 4775 C 442.273 5.07301 -2.67271 0
M  V30 4776 N 441.769 6.06021 -3.35724 0
M  V30 4777 N 443.562 4.99898 -2.57018 0
M  V30 4778 H 435.713 1.20788 -1.74711 0
M  V30 4779 H 437.976 0.589364 -0.742532 0
M  V30 4780 H 437.682 2.61868 -2.34773 0
M  V30 4781 H 437.556 3.6539 -0.936479 0
M  V30 4782 H 439.943 2.94062 -0.247284 0
M  V30 4783 H 440.024 1.91992 -1.69035 0
M  V30 4784 H 439.668 3.98766 -3.1456 0
M  V30 4785 H 439.598 4.99218 -1.67597 0
M  V30 4786 H 442.089 3.43357 -1.57843 0
M  V30 4787 H 442.402 6.73741 -3.78541 0
M  V30 4788 H 440.747 6.06253 -3.39826 0
M  V30 4789 H 443.938 4.21724 -2.03142 0
M  V30 4790 H 444.111 5.72392 -3.03761 0
M  V30 4791 N 437.518 0.538854 1.48102 0
M  V30 4792 C 438.448 -0.207654 2.32575 0
M  V30 4793 C 439.429 -0.926559 1.4265 0
M  V30 4794 O 440.614 -0.91061 1.71527 0
M  V30 4795 C 437.744 -1.24957 3.24042 0
M  V30 4796 C 436.698 -0.648263 4.23062 0
M  V30 4797 C 436.024 -1.79348 5.03725 0
M  V30 4798 C 437.324 0.385897 5.20872 0
M  V30 4799 H 439.018 0.497534 2.95237 0
M  V30 4800 H 436.564 0.240715 1.41974 0
M  V30 4801 H 438.517 -1.77983 3.81969 0
M  V30 4802 H 437.241 -1.98446 2.59397 0
M  V30 4803 H 435.9 -0.139452 3.66335 0
M  V30 4804 H 435.548 -2.51696 4.35498 0
M  V30 4805 H 435.248 -1.39702 5.70751 0
M  V30 4806 H 436.772 -2.32735 5.64506 0
M  V30 4807 H 438.186 -0.057607 5.73271 0
M  V30 4808 H 436.583 0.700227 5.96001 0
M  V30 4809 H 437.653 1.28848 4.67468 0
M  V30 4810 N 438.996 -1.55193 0.274407 0
M  V30 4811 C 439.926 -2.25471 -0.607032 0
M  V30 4812 C 440.907 -1.24461 -1.15946 0
M  V30 4813 O 442.092 -1.53179 -1.19373 0
M  V30 4814 C 439.222 -2.97526 -1.79153 0
M  V30 4815 C 438.176 -4.05459 -1.37067 0
M  V30 4816 C 437.502 -4.65084 -2.6382 0
M  V30 4817 C 438.802 -5.19691 -0.521389 0
M  V30 4818 H 440.496 -2.99393 -0.0209343 0
M  V30 4819 H 438.042 -1.43997 -0.00862866 0
M  V30 4820 H 439.995 -3.45402 -2.41404 0
M  V30 4821 H 438.719 -2.21138 -2.40344 0
M  V30 4822 H 437.378 -3.58393 -0.771355 0
M  V30 4823 H 437.026 -3.85365 -3.23268 0
M  V30 4824 H 436.726 -5.37961 -2.36372 0
M  V30 4825 H 438.25 -5.15708 -3.26921 0
M  V30 4826 H 439.664 -5.63623 -1.04889 0
M  V30 4827 H 438.061 -5.99126 -0.341825 0
M  V30 4828 H 439.131 -4.82713 0.46 0
M  V30 4829 N 440.474 -0.00167713 -1.576 0
M  V30 4830 C 441.699 0.69739 -1.95323 0
M  V30 4831 C 442.124 1.6642 -0.876706 0
M  V30 4832 O 441.482 1.80548 0.165007 0
M  V30 4833 C 441.53 1.40403 -3.32144 0
M  V30 4834 O 440.634 2.5185 -3.26566 0
M  V30 4835 H 439.975 0.185373 -0.637599 0
M  V30 4836 H 442.505 -0.0553665 -2.04525 0
M  V30 4837 H 442.515 1.76707 -3.67748 0
M  V30 4838 H 441.19 0.695167 -4.10049 0
M  V30 4839 H 439.767 2.17861 -3.0264 0
M  V30 4840 N 441.952 1.55251 0.271103 0
M  V30 4841 C 443.229 1.66664 1.02384 0
M  V30 4842 C 443.609 0.534363 2.04225 0
M  V30 4843 O 442.957 -0.465337 2.23712 0
M  V30 4844 C 443.167 3.05961 1.67895 0
M  V30 4845 C 444.515 3.63772 2.18986 0
M  V30 4846 O 445.539 3.08606 1.77878 0
M  V30 4847 O 444.398 4.60429 2.94393 0
M  V30 4848 H 441.492 0.676957 0.475035 0
M  V30 4849 H 444.038 1.67589 0.26681 0
M  V30 4850 H 442.81 3.79815 0.941071 0
M  V30 4851 H 442.433 3.08943 2.5028 0
M  V30 4852 N 443.43 -0.535701 1.48216 0
M  V30 4853 C 444.34 -1.66785 1.64985 0
M  V30 4854 C 445.356 -1.65654 0.532414 0
M  V30 4855 O 446.532 -1.8471 0.80275 0
M  V30 4856 C 443.597 -3.0326 1.68031 0
M  V30 4857 C 442.658 -3.1529 2.9136 0
M  V30 4858 C 441.891 -4.45255 2.94252 0
M  V30 4859 O 442.114 -5.32011 2.05719 0
M  V30 4860 O 441.048 -4.6153 3.86359 0
M  V30 4861 H 444.874 -1.55576 2.60825 0
M  V30 4862 H 442.459 -0.70815 1.31551 0
M  V30 4863 H 444.341 -3.84436 1.72589 0
M  V30 4864 H 443.016 -3.14805 0.753628 0
M  V30 4865 H 441.923 -2.3343 2.92337 0
M  V30 4866 H 443.256 -3.08658 3.83394 0
M  V30 4867 N 444.908 -1.36708 -0.784132 0
M  V30 4868 C 446.185 -1.21776 -1.53069 0
M  V30 4869 C 446.565 0.193876 -2.10208 0
M  V30 4870 O 445.913 1.20012 -1.94446 0
M  V30 4871 C 446.123 -2.30395 -2.62143 0
M  V30 4872 C 447.471 -2.67325 -3.29882 0
M  V30 4873 O 448.495 -2.29478 -2.7243 0
M  V30 4874 O 447.354 -3.32485 -4.33724 0
M  V30 4875 H 444.448 -0.474459 -0.677361 0
M  V30 4876 H 446.994 -1.48454 -0.82216 0
M  V30 4877 H 445.766 -3.2498 -2.17953 0
M  V30 4878 H 445.389 -2.05112 -3.40609 0
M  V30 4879 N 446.386 1.0089 -1.21074 0
M  V30 4880 C 447.632 1.74866 -1.02712 0
M  V30 4881 C 447.965 1.89178 0.438787 0
M  V30 4882 O 447.24 1.42325 1.32567 0
M  V30 4883 C 447.523 3.16347 -1.72036 0
M  V30 4884 C 447.376 3.09782 -3.26121 0
M  V30 4885 C 448.695 4.15187 -1.45973 0
M  V30 4886 H 445.814 0.634736 -0.374539 0
M  V30 4887 H 448.456 1.17646 -1.49196 0
M  V30 4888 H 446.606 3.65201 -1.32517 0
M  V30 4889 H 448.278 2.68673 -3.74983 0
M  V30 4890 H 446.521 2.46982 -3.56626 0
M  V30 4891 H 447.192 4.09829 -3.6979 0
M  V30 4892 H 449.668 3.75022 -1.80272 0
M  V30 4893 H 448.544 5.12331 -1.96999 0
M  V30 4894 H 448.805 4.40386 -0.388924 0
M  V30 4895 N 447.864 1.01787 1.20321 0
M  V30 4896 C 448.827 0.593972 2.2137 0
M  V30 4897 C 449.827 -0.336553 1.57239 0
M  V30 4898 O 451.017 -0.125069 1.7375 0
M  V30 4899 C 448.149 -0.132433 3.40643 0
M  V30 4900 H 449.342 1.48791 2.60387 0
M  V30 4901 H 446.895 0.807803 1.33807 0
M  V30 4902 H 447.63 -1.04123 3.0713 0
M  V30 4903 H 447.415 0.53605 3.88418 0
M  V30 4904 H 448.905 -0.416314 4.1552 0
M  V30 4905 N 449.342 -1.36122 0.79427 0
M  V30 4906 C 450.272 -2.32551 0.210328 0
M  V30 4907 C 451.253 -1.56884 -0.657386 0
M  V30 4908 O 452.438 -1.85014 -0.590207 0
M  V30 4909 C 449.568 -3.41128 -0.651819 0
M  V30 4910 C 448.522 -4.27842 0.116395 0
M  V30 4911 C 447.848 -5.2763 -0.86666 0
M  V30 4912 C 449.148 -5.05647 1.30837 0
M  V30 4913 H 450.842 -2.81636 1.01594 0
M  V30 4914 H 448.388 -1.35407 0.489981 0
M  V30 4915 H 450.341 -4.07581 -1.07031 0
M  V30 4916 H 449.065 -2.90622 -1.49019 0
M  V30 4917 H 447.724 -3.62952 0.515915 0
M  V30 4918 H 447.372 -4.73395 -1.70019 0
M  V30 4919 H 447.072 -5.86514 -0.35705 0
M  V30 4920 H 448.596 -5.96955 -1.28361 0
M  V30 4921 H 450.01 -5.65113 0.965393 0
M  V30 4922 H 448.407 -5.73967 1.75161 0
M  V30 4923 H 449.477 -4.37006 2.10128 0
M  V30 4924 N 450.82 -0.546701 -1.47814 0
M  V30 4925 C 451.753 0.254472 -2.26777 0
M  V30 4926 C 452.731 0.929809 -1.33392 0
M  V30 4927 O 453.915 0.950889 -1.62759 0
M  V30 4928 C 451.042 1.36171 -3.10121 0
M  V30 4929 C 450.088 0.796038 -4.19005 0
M  V30 4930 S 450.921 -0.349191 -5.3436 0
M  V30 4931 C 452.077 0.760122 -6.21267 0
M  V30 4932 H 452.31 -0.415612 -2.94381 0
M  V30 4933 H 449.843 -0.332809 -1.5077 0
M  V30 4934 H 451.801 1.99588 -3.58713 0
M  V30 4935 H 450.462 2.00359 -2.41899 0
M  V30 4936 H 449.655 1.62719 -4.7701 0
M  V30 4937 H 449.257 0.238246 -3.7324 0
M  V30 4938 H 451.549 1.65479 -6.5698 0
M  V30 4939 H 452.492 0.217673 -7.07765 0
M  V30 4940 H 452.9 1.04806 -5.54685 0
M  V30 4941 N 452.299 1.55045 -0.282633 0
M  V30 4942 C 453.545 2.00056 0.332481 0
M  V30 4943 C 453.878 1.1708 1.54939 0
M  V30 4944 O 453.153 0.2427 1.9298 0
M  V30 4945 C 453.436 3.53086 0.70725 0
M  V30 4946 C 453.289 4.46813 -0.517521 0
M  V30 4947 C 454.608 4.12245 1.54084 0
M  V30 4948 H 451.727 0.727268 0.119373 0
M  V30 4949 H 454.369 1.85932 -0.391076 0
M  V30 4950 H 452.519 3.65253 1.32372 0
M  V30 4951 H 454.191 4.46579 -1.15607 0
M  V30 4952 H 452.434 4.18163 -1.1542 0
M  V30 4953 H 453.105 5.51595 -0.211426 0
M  V30 4954 H 455.581 4.03401 1.02013 0
M  V30 4955 H 454.457 5.19515 1.77186 0
M  V30 4956 H 454.718 3.62951 2.52427 0
M  V30 4957 N 453.777 0.010035 1.57597 0
M  V30 4958 C 455.193 -0.346164 1.55801 0
M  V30 4959 C 455.393 -1.74144 1.01371 0
M  V30 4960 O 454.449 -2.43938 0.651968 0
M  V30 4961 C 455.762 -0.212216 2.9995 0
M  V30 4962 C 457.31 -0.286409 3.11687 0
M  V30 4963 C 457.785 -0.18147 4.5764 0
M  V30 4964 N 459.276 -0.239056 4.62583 0
M  V30 4965 C 460.011 -0.181351 5.73113 0
M  V30 4966 N 459.507 -0.073661 6.92761 0
M  V30 4967 N 461.3 -0.233949 5.61613 0
M  V30 4968 H 453.451 0.922657 1.91313 0
M  V30 4969 H 455.714 0.354595 0.879185 0
M  V30 4970 H 455.42 0.748169 3.4365 0
M  V30 4971 H 455.294 -0.990224 3.6397 0
M  V30 4972 H 457.681 -1.23724 2.67911 0
M  V30 4973 H 457.762 0.521645 2.50425 0
M  V30 4974 H 457.406 0.765863 5.02093 0
M  V30 4975 H 457.336 -1.00814 5.1686 0
M  V30 4976 H 459.827 -0.32321 3.76515 0
M  V30 4977 H 460.14 -0.0358003 7.72792 0
M  V30 4978 H 458.485 -0.0391461 6.94989 0
M  V30 4979 H 461.676 -0.316347 4.6703 0
M  V30 4980 H 461.849 -0.185514 6.47734 0
M  V30 4981 N 455.255 -1.55392 -0.262866 0
M  V30 4982 C 456.187 -1.85392 -1.34768 0
M  V30 4983 C 457.2 -0.739069 -1.45057 0
M  V30 4984 O 458.389 -1.01703 -1.46693 0
M  V30 4985 C 455.489 -2.01088 -2.72795 0
M  V30 4986 C 454.662 -3.31828 -2.84972 0
M  V30 4987 C 453.721 -3.37464 -4.03738 0
M  V30 4988 O 452.747 -4.10778 -3.94018 0
M  V30 4989 N 453.949 -2.65599 -5.16176 0
M  V30 4990 H 456.714 -2.79029 -1.09375 0
M  V30 4991 H 454.275 -1.55434 -0.452981 0
M  V30 4992 H 456.267 -2.02217 -3.50557 0
M  V30 4993 H 454.837 -1.1427 -2.90966 0
M  V30 4994 H 454.057 -3.43152 -1.94012 0
M  V30 4995 H 455.345 -4.18032 -2.90045 0
M  V30 4996 H 454.743 -2.05736 -5.26962 0
M  V30 4997 H 453.3 -2.72439 -5.92132 0
M  V30 4998 N 456.733 0.527833 -1.48498 0
M  V30 4999 C 457.696 1.61439 -1.62696 0
M  V30 5000 C 458.696 1.52824 -0.500136 0
M  V30 5001 O 459.886 1.56456 -0.765976 0
M  V30 5002 C 457.018 3.01063 -1.59918 0
M  V30 5003 H 458.211 1.50189 -2.59583 0
M  V30 5004 H 455.764 0.750055 -1.37127 0
M  V30 5005 H 456.499 3.17818 -0.645163 0
M  V30 5006 H 456.284 3.08725 -2.41726 0
M  V30 5007 H 457.774 3.80057 -1.73051 0
M  V30 5008 N 458.211 1.37122 0.776871 0
M  V30 5009 C 459.627 1.1781 1.07671 0
M  V30 5010 C 459.827 0.0107454 2.01497 0
M  V30 5011 O 458.883 -0.650756 2.4397 0
M  V30 5012 C 460.196 2.49451 1.67913 0
M  V30 5013 C 461.744 2.55927 1.80195 0
M  V30 5014 C 462.219 3.87686 2.43851 0
M  V30 5015 N 463.71 3.891 2.51307 0
M  V30 5016 C 464.445 4.87797 3.014 0
M  V30 5017 N 463.941 5.96888 3.51705 0
M  V30 5018 N 465.734 4.75205 3.00227 0
M  V30 5019 H 457.885 2.11843 0.153778 0
M  V30 5020 H 460.148 0.938927 0.130844 0
M  V30 5021 H 459.854 3.35207 1.06439 0
M  V30 5022 H 459.728 2.66169 2.67271 0
M  V30 5023 H 462.115 1.70582 2.40803 0
M  V30 5024 H 462.196 2.43097 0.796069 0
M  V30 5025 H 461.84 4.73444 1.83884 0
M  V30 5026 H 461.77 3.97817 3.45035 0
M  V30 5027 H 464.261 3.10293 2.157 0
M  V30 5028 H 464.574 6.68155 3.88316 0
M  V30 5029 H 462.919 6.0054 3.49824 0
M  V30 5030 H 466.11 3.89103 2.60224 0
M  V30 5031 H 466.283 5.52279 3.38957 0
M  V30 5032 N 459.689 -1.00246 1.21608 0
M  V30 5033 C 460.937 -1.73717 1.0328 0
M  V30 5034 C 461.258 -1.90102 -0.434318 0
M  V30 5035 O 460.528 -1.45376 -1.31311 0
M  V30 5036 H 459.108 -0.643613 0.379172 0
M  V30 5037 H 461.77 -1.20787 1.52959 0
M  V30 5038 H 460.866 -2.73535 1.50283 0
M  V30 5039 N 461.167 -1.02423 -1.1978 0
M  V30 5040 C 462.097 -0.62157 -2.25075 0
M  V30 5041 C 463.078 0.367148 -1.6609 0
M  V30 5042 O 464.263 0.250892 -1.92573 0
M  V30 5043 C 461.393 0.0331826 -3.47284 0
M  V30 5044 C 460.347 -0.877323 -4.18912 0
M  V30 5045 C 459.673 -0.0879296 -5.34628 0
M  V30 5046 C 460.973 -2.18892 -4.74219 0
M  V30 5047 H 462.667 -1.50179 -2.59011 0
M  V30 5048 H 460.213 -0.723547 -1.24502 0
M  V30 5049 H 462.166 0.326488 -4.20133 0
M  V30 5050 H 460.89 0.948164 -3.12534 0
M  V30 5051 H 459.549 -1.15475 -3.47938 0
M  V30 5052 H 459.197 0.828941 -4.96123 0
M  V30 5053 H 458.897 -0.694359 -5.83483 0
M  V30 5054 H 460.421 0.198743 -6.10276 0
M  V30 5055 H 461.835 -1.95746 -5.38847 0
M  V30 5056 H 460.232 -2.74686 -5.33542 0
M  V30 5057 H 461.302 -2.84674 -3.92541 0
M  V30 5058 N 462.645 1.35699 -0.801477 0
M  V30 5059 C 464.056 1.81415 -0.441073 0
M  V30 5060 C 464.407 1.66595 1.03636 0
M  V30 5061 O 463.532 1.19369 1.80499 0
M  V30 5062 C 464.127 3.29369 -0.793819 0
M  V30 5063 C 462.686 3.73248 -0.486083 0
M  V30 5064 C 461.833 2.57775 -1.02213 0
M  V30 5065 H 464.784 1.23749 -0.993572 0
M  V30 5066 H 464.805 3.80395 -0.0894158 0
M  V30 5067 H 464.317 3.40123 -1.86917 0
M  V30 5068 H 462.418 3.68046 0.580735 0
M  V30 5069 H 462.531 4.68222 -1.01513 0
M  V30 5070 H 460.895 2.50788 -0.444712 0
M  V30 5071 H 461.678 2.71309 -2.10348 0
M  V30 5072 N 464.123 0.554532 1.47522 0
M  V30 5073 C 465.348 0.0322661 2.07375 0
M  V30 5074 C 465.773 -1.25079 1.40488 0
M  V30 5075 O 465.131 -1.74859 0.47896 0
M  V30 5076 C 465.179 -0.149397 3.6029 0
M  V30 5077 O 464.283 -1.21259 3.9417 0
M  V30 5078 H 463.624 0.0501228 0.662106 0
M  V30 5079 H 466.154 0.769452 1.8958 0
M  V30 5080 H 466.164 -0.364437 4.06369 0
M  V30 5081 H 464.839 0.787743 4.08372 0
M  V30 5082 H 463.416 -0.97825 3.5984 0
M  V30 5083 N 465.601 -1.54893 0.290851 0
M  V30 5084 C 466.533 -2.20564 -0.623236 0
M  V30 5085 C 467.546 -1.19519 -1.1054 0
M  V30 5086 O 468.735 -1.46165 -1.02459 0
M  V30 5087 C 465.835 -2.83033 -1.86401 0
M  V30 5088 C 465.008 -4.09916 -1.52604 0
M  V30 5089 C 464.067 -4.56284 -2.62091 0
M  V30 5090 O 463.093 -5.2171 -2.27612 0
M  V30 5091 N 464.295 -4.27746 -3.92446 0
M  V30 5092 H 467.06 -2.99638 -0.0610915 0
M  V30 5093 H 464.621 -1.61508 0.112615 0
M  V30 5094 H 466.613 -3.1099 -2.58973 0
M  V30 5095 H 465.183 -2.0786 -2.33481 0
M  V30 5096 H 464.403 -3.89078 -0.633424 0
M  V30 5097 H 465.691 -4.92554 -1.27547 0
M  V30 5098 H 465.089 -3.7531 -4.23272 0
M  V30 5099 H 463.646 -4.60437 -4.61347 0
M  V30 5100 N 467.08 -0.0183926 -1.57589 0
M  V30 5101 C 468.027 0.967022 -2.09565 0
M  V30 5102 C 468.997 1.32983 -0.995225 0
M  V30 5103 O 470.182 1.42501 -1.26878 0
M  V30 5104 C 467.322 2.24772 -2.61861 0
M  V30 5105 C 466.435 1.94232 -3.85873 0
M  V30 5106 C 465.57 3.16518 -4.26603 0
M  V30 5107 C 464.609 2.81748 -5.43401 0
M  V30 5108 N 463.746 3.96626 -5.79338 0
M  V30 5109 H 468.586 0.516874 -2.93483 0
M  V30 5110 H 466.123 0.243544 -1.4507 0
M  V30 5111 H 468.081 2.99667 -2.90268 0
M  V30 5112 H 466.711 2.67423 -1.8079 0
M  V30 5113 H 465.763 1.09625 -3.64262 0
M  V30 5114 H 467.075 1.64616 -4.70853 0
M  V30 5115 H 466.229 3.99743 -4.56389 0
M  V30 5116 H 464.968 3.49286 -3.40368 0
M  V30 5117 H 463.973 1.96933 -5.1332 0
M  V30 5118 H 465.198 2.50207 -6.31327 0
M  V30 5119 H 463.144 4.29257 -4.96059 0
M  V30 5120 H 463.061 3.70598 -6.58933 0
M  V30 5121 H 464.329 4.80586 -6.13724 0
M  V30 5122 N 468.558 1.5553 0.254621 0
M  V30 5123 C 469.974 1.4778 0.602753 0
M  V30 5124 C 470.174 0.707047 1.88688 0
M  V30 5125 O 469.23 0.233288 2.5142 0
M  V30 5126 C 470.543 2.92133 0.712648 0
M  V30 5127 C 472.091 3.02458 0.805488 0
M  V30 5128 C 472.566 4.48102 0.947009 0
M  V30 5129 N 474.057 4.52008 1.01207 0
M  V30 5130 C 474.792 5.61939 1.1407 0
M  V30 5131 N 474.288 6.81697 1.23536 0
M  V30 5132 N 476.081 5.49719 1.17325 0
M  V30 5133 H 468.232 2.04085 -0.588463 0
M  V30 5134 H 470.495 0.926229 -0.202001 0
M  V30 5135 H 470.201 3.51332 -0.160766 0
M  V30 5136 H 470.075 3.42187 1.58707 0
M  V30 5137 H 472.462 2.43344 1.66936 0
M  V30 5138 H 472.543 2.55627 -0.0939266 0
M  V30 5139 H 472.187 5.07824 0.087725 0
M  V30 5140 H 472.117 4.92607 1.86135 0
M  V30 5141 H 474.608 3.65749 0.950577 0
M  V30 5142 H 474.921 7.61228 1.33236 0
M  V30 5143 H 473.266 6.84473 1.20508 0
M  V30 5144 H 476.457 4.55095 1.09573 0
M  V30 5145 H 476.63 6.35432 1.27005 0
M  V30 5146 N 470.036 -0.519951 1.48776 0
M  V30 5147 C 470.966 -1.63253 1.66945 0
M  V30 5148 C 471.947 -1.62014 0.518224 0
M  V30 5149 O 473.132 -1.79053 0.751919 0
M  V30 5150 C 470.262 -3.0181 1.71836 0
M  V30 5151 C 469.216 -3.17911 2.8656 0
M  V30 5152 C 468.542 -4.5763 2.76548 0
M  V30 5153 C 469.842 -2.99729 4.27738 0
M  V30 5154 H 471.536 -1.48302 2.6009 0
M  V30 5155 H 469.082 -0.712026 1.25165 0
M  V30 5156 H 471.035 -3.79525 1.83135 0
M  V30 5157 H 469.759 -3.17806 0.752775 0
M  V30 5158 H 468.418 -2.42616 2.74833 0
M  V30 5159 H 468.066 -4.70476 1.77937 0
M  V30 5160 H 467.766 -4.69346 3.53536 0
M  V30 5161 H 469.29 -5.37431 2.89828 0
M  V30 5162 H 470.704 -3.67228 4.40246 0
M  V30 5163 H 469.101 -3.22932 5.05801 0
M  V30 5164 H 470.171 -1.96047 4.43502 0
M  V30 5165 N 471.514 -1.37532 -0.769588 0
M  V30 5166 C 472.761 -1.3286 -1.52822 0
M  V30 5167 C 473.089 0.0862597 -1.94309 0
M  V30 5168 O 472.344 1.05995 -1.6451 0
M  V30 5169 C 472.643 -2.21558 -2.8044 0
M  V30 5170 C 472.309 -3.69796 -2.57996 0
M  V30 5171 C 470.971 -4.10194 -2.51583 0
M  V30 5172 C 473.323 -4.63699 -2.37976 0
M  V30 5173 C 470.651 -5.42608 -2.23144 0
M  V30 5174 C 473.003 -5.96353 -2.1106 0
M  V30 5175 C 471.667 -6.35853 -2.03093 0
M  V30 5176 H 470.937 -0.486168 -0.559215 0
M  V30 5177 H 473.584 -1.69757 -0.886277 0
M  V30 5178 H 471.889 -1.77663 -3.49204 0
M  V30 5179 H 473.586 -2.15256 -3.38328 0
M  V30 5180 H 470.176 -3.37759 -2.63851 0
M  V30 5181 H 474.36 -4.33346 -2.41919 0
M  V30 5182 H 469.616 -5.72173 -2.15472 0
M  V30 5183 H 473.79 -6.68667 -1.94568 0
M  V30 5184 H 471.417 -7.38382 -1.8082 0
M  V30 5185 N 472.992 0.995999 -1.22138 0
M  V30 5186 C 474.403 1.54961 -1.04135 0
M  V30 5187 C 474.754 1.92159 0.396147 0
M  V30 5188 O 473.879 1.74435 1.28069 0
M  V30 5189 C 474.474 2.81581 -1.88408 0
M  V30 5190 C 473.033 3.33396 -1.74712 0
M  V30 5191 C 472.18 2.06509 -1.85066 0
M  V30 5192 H 475.131 0.817436 -1.36028 0
M  V30 5193 H 475.152 3.53822 -1.39966 0
M  V30 5194 H 474.664 2.54476 -2.93025 0
M  V30 5195 H 472.765 3.65416 -0.728159 0
M  V30 5196 H 472.878 4.04208 -2.57202 0
M  V30 5197 H 471.242 2.19925 -1.28472 0
M  V30 5198 H 472.025 1.81804 -2.91208 0
M  V30 5199 N 474.47 1.03057 1.19235 0
M  V30 5200 C 475.716 0.738841 1.89506 0
M  V30 5201 C 476.071 -0.724807 1.78225 0
M  V30 5202 O 475.364 -1.52118 1.16494 0
M  V30 5203 C 475.558 1.1268 3.39172 0
M  V30 5204 C 475.387 2.62662 3.65019 0
M  V30 5205 C 474.157 3.29658 3.82954 0
M  V30 5206 C 476.355 3.60873 3.66436 0
M  V30 5207 N 474.337 4.68726 3.96446 0
M  V30 5208 C 475.708 4.85566 3.8552 0
M  V30 5209 C 477.763 3.54647 3.49471 0
M  V30 5210 C 476.466 6.04783 3.89397 0
M  V30 5211 C 478.492 4.73281 3.54625 0
M  V30 5212 C 477.854 5.96789 3.74196 0
M  V30 5213 H 473.953 0.322256 0.712513 0
M  V30 5214 H 476.537 1.31822 1.43287 0
M  V30 5215 H 474.708 0.575612 3.84111 0
M  V30 5216 H 476.44 0.787145 3.96971 0
M  V30 5217 H 473.195 2.8007 3.81913 0
M  V30 5218 H 473.619 5.40971 4.07037 0
M  V30 5219 H 478.261 2.60143 3.33295 0
M  V30 5220 H 475.979 6.99654 4.04364 0
M  V30 5221 H 479.565 4.70094 3.42787 0
M  V30 5222 H 478.445 6.87051 3.78061 0
M  V30 5223 N 475.948 -1.35272 0.808662 0
M  V30 5224 C 476.895 -2.29764 0.218482 0
M  V30 5225 C 477.865 -1.52911 -0.648652 0
M  V30 5226 O 479.05 -1.81341 -0.593297 0
M  V30 5227 C 476.19 -3.39388 -0.625282 0
M  V30 5228 C 475.303 -4.31202 0.262516 0
M  V30 5229 C 474.438 -5.27919 -0.589451 0
M  V30 5230 C 473.477 -6.11371 0.298617 0
M  V30 5231 N 472.614 -7.0022 -0.513443 0
M  V30 5232 H 477.454 -2.79645 1.02968 0
M  V30 5233 H 474.991 -1.37629 0.519303 0
M  V30 5234 H 476.949 -4.01615 -1.12966 0
M  V30 5235 H 475.579 -2.90777 -1.40173 0
M  V30 5236 H 474.631 -3.69962 0.885013 0
M  V30 5237 H 475.943 -4.89748 0.945971 0
M  V30 5238 H 475.097 -5.95529 -1.15888 0
M  V30 5239 H 473.836 -4.69875 -1.30647 0
M  V30 5240 H 472.841 -5.42707 0.880301 0
M  V30 5241 H 474.066 -6.71494 1.01352 0
M  V30 5242 H 472.012 -6.44662 -1.21439 0
M  V30 5243 H 471.929 -7.55917 0.111922 0
M  V30 5244 H 473.197 -7.72175 -1.06608 0
M  V30 5245 N 477.426 -0.562348 -1.47226 0
M  V30 5246 C 478.356 0.170627 -2.32876 0
M  V30 5247 C 479.337 0.903748 -1.44106 0
M  V30 5248 O 480.522 0.883206 -1.72954 0
M  V30 5249 C 477.652 1.19786 -3.25989 0
M  V30 5250 C 476.606 0.580875 -4.2404 0
M  V30 5251 C 475.932 1.71311 -5.06514 0
M  V30 5252 C 477.232 -0.468714 -5.20193 0
M  V30 5253 H 478.926 -0.544441 -2.94408 0
M  V30 5254 H 476.472 -0.263271 -1.41573 0
M  V30 5255 H 478.425 1.71884 -3.84752 0
M  V30 5256 H 477.149 1.94294 -2.62521 0
M  V30 5257 H 475.808 0.0811538 -3.6651 0
M  V30 5258 H 475.456 2.44736 -4.39447 0
M  V30 5259 H 475.156 1.30604 -5.72902 0
M  V30 5260 H 476.68 2.23725 -5.68137 0
M  V30 5261 H 478.094 -0.0336028 -5.7329 0
M  V30 5262 H 476.491 -0.794957 -5.94811 0
M  V30 5263 H 477.561 -1.36269 -4.65359 0
M  V30 5264 N 478.904 1.54736 -0.299062 0
M  V30 5265 C 479.854 2.20155 0.592932 0
M  V30 5266 C 480.838 1.1739 1.10038 0
M  V30 5267 O 482.03 1.43116 1.04147 0
M  V30 5268 C 479.159 2.94437 1.76527 0
M  V30 5269 C 478.245 4.04516 1.27388 0
M  V30 5270 N 478.636 5.03319 0.500339 0
M  V30 5271 C 476.934 4.18022 1.55478 0
M  V30 5272 C 477.635 5.81209 0.238909 0
M  V30 5273 N 476.611 5.37408 0.818163 0
M  V30 5274 H 480.413 2.93899 -0.00563596 0
M  V30 5275 H 477.927 1.62068 -0.103732 0
M  V30 5276 H 479.924 3.3977 2.41582 0
M  V30 5277 H 478.584 2.22209 2.36756 0
M  V30 5278 H 479.595 5.17696 0.145419 0
M  V30 5279 H 476.272 3.56998 2.16469 0
M  V30 5280 H 477.662 6.70812 -0.382223 0
M  V30 5281 N 480.382 0.0267497 1.57577 0
M  V30 5282 C 481.631 -0.651736 1.9088 0
M  V30 5283 C 481.944 -1.73427 0.904576 0
M  V30 5284 O 483.15 -2.46923 1.12877 0
M  V30 5285 C 481.606 -1.21048 3.38933 0
M  V30 5286 C 481.214 -0.161362 4.47709 0
M  V30 5287 C 482.958 -1.86562 3.81307 0
M  V30 5288 C 480.865 -0.731611 5.86857 0
M  V30 5289 H 479.795 -0.247198 0.712326 0
M  V30 5290 H 482.446 0.0916641 1.83271 0
M  V30 5291 H 480.828 -2.00542 3.41466 0
M  V30 5292 H 482.002 0.61094 4.56732 0
M  V30 5293 H 480.317 0.394877 4.14523 0
M  V30 5294 H 482.914 -2.30178 4.8262 0
M  V30 5295 H 483.257 -2.70735 3.16241 0
M  V30 5296 H 483.79 -1.13762 3.81186 0
M  V30 5297 H 480.529 0.0719329 6.55461 0
M  V30 5298 H 480.049 -1.47245 5.81445 0
M  V30 5299 H 481.728 -1.22208 6.35354 0
M  V30 5300 N 481.861 -1.55662 -0.24637 0
M  V30 5301 C 483.089 -1.81575 -0.991876 0
M  V30 5302 C 483.504 -0.602545 -1.78927 0
M  V30 5303 O 482.861 0.428795 -1.77391 0
M  V30 5304 C 482.912 -3.05711 -1.92933 0
M  V30 5305 O 482.633 -4.22348 -1.1642 0
M  V30 5306 C 484.134 -3.44428 -2.79078 0
M  V30 5307 H 481.354 -0.604209 -0.291844 0
M  V30 5308 H 483.898 -2.02722 -0.269095 0
M  V30 5309 H 482.053 -2.86612 -2.60638 0
M  V30 5310 H 482.467 -4.92706 -1.79835 0
M  V30 5311 H 483.941 -4.34388 -3.40603 0
M  V30 5312 H 484.418 -2.65037 -3.50217 0
M  V30 5313 H 485.024 -3.65879 -2.16824 0
M  V30 5314 N 483.339 0.512053 -1.4905 0
M  V30 5315 C 484.271 1.63121 -1.6101 0
M  V30 5316 C 485.284 1.55145 -0.493352 0
M  V30 5317 O 486.473 1.61278 -0.764955 0
M  V30 5318 C 483.573 3.01863 -1.54052 0
M  V30 5319 C 482.746 3.35138 -2.81072 0
M  V30 5320 C 481.805 4.5324 -2.67319 0
M  V30 5321 O 480.831 4.55571 -3.41238 0
M  V30 5322 N 482.033 5.52495 -1.78127 0
M  V30 5323 H 484.798 1.53292 -2.5753 0
M  V30 5324 H 482.359 0.699706 -1.45999 0
M  V30 5325 H 484.351 3.78774 -1.42521 0
M  V30 5326 H 482.921 3.05675 -0.654345 0
M  V30 5327 H 482.141 2.4723 -3.07036 0
M  V30 5328 H 483.429 3.54162 -3.65304 0
M  V30 5329 H 482.827 5.53403 -1.17308 0
M  V30 5330 H 481.384 6.28553 -1.72525 0
M  V30 5331 N 484.817 1.37938 0.762283 0
M  V30 5332 C 485.764 1.34467 1.87583 0
M  V30 5333 C 486.734 0.208633 1.64785 0
M  V30 5334 O 487.919 0.399494 1.86571 0
M  V30 5335 C 485.059 1.16692 3.24772 0
M  V30 5336 C 484.172 2.39608 3.59461 0
M  V30 5337 C 483.307 2.14631 4.85908 0
M  V30 5338 C 482.346 3.33364 5.13357 0
M  V30 5339 N 481.483 3.07877 6.30996 0
M  V30 5340 H 486.323 2.29669 1.89885 0
M  V30 5341 H 483.86 1.14116 0.928219 0
M  V30 5342 H 485.818 1.04405 4.03925 0
M  V30 5343 H 484.448 0.251333 3.2182 0
M  V30 5344 H 483.5 2.626 2.75219 0
M  V30 5345 H 484.812 3.28128 3.75678 0
M  V30 5346 H 483.966 1.99429 5.72986 0
M  V30 5347 H 482.705 1.23463 4.71814 0
M  V30 5348 H 481.71 3.49094 4.24751 0
M  V30 5349 H 482.935 4.25395 5.29354 0
M  V30 5350 H 480.881 2.19348 6.18241 0
M  V30 5351 H 480.798 3.89944 6.47673 0
M  V30 5352 H 482.066 2.96313 7.20985 0
M  V30 5353 N 486.295 -0.989507 1.22664 0
M  V30 5354 C 487.572 -1.70326 0.961688 0
M  V30 5355 C 487.952 -2.04537 -0.522279 0
M  V30 5356 O 487.3 -1.73136 -1.49118 0
M  V30 5357 C 487.51 -2.95135 1.86269 0
M  V30 5358 C 488.858 -3.67842 2.12078 0
M  V30 5359 O 489.882 -3.0515 1.83745 0
M  V30 5360 O 488.741 -4.80644 2.60083 0
M  V30 5361 H 485.835 -0.743589 0.361946 0
M  V30 5362 H 488.381 -1.04555 1.33665 0
M  V30 5363 H 487.153 -2.66382 2.8663 0
M  V30 5364 H 486.776 -3.68645 1.48952 0
M  V30 5365 N 487.773 -1.03688 -1.18687 0
M  V30 5366 C 488.721 -0.618292 -2.24232 0
M  V30 5367 C 489.715 0.353045 -1.6568 0
M  V30 5368 O 490.921 0.220749 -1.78641 0
M  V30 5369 H 487.296 -0.181711 -0.729716 0
M  V30 5370 H 489.267 -1.51893 -2.56848 0
M  V30 5371 C 488.016 0.00677342 -3.47699 0
M  V30 5372 H 487.339 -0.731692 -3.93047 0
M  V30 5373 H 488.779 0.262492 -4.23187 0
M  V30 5374 C 487.238 1.25572 -3.12623 0
M  V30 5375 O 487.768 2.34691 -3.26011 0
M  V30 5376 N 485.974 1.14755 -2.66982 0
M  V30 5377 H 485.521 0.259601 -2.56289 0
M  V30 5378 H 485.479 1.98412 -2.43885 0
M  V30 5379 N 489.251 1.34841 -0.815825 0
M  V30 5380 C 490.481 2.02436 -0.412695 0
M  V30 5381 C 490.889 1.61604 0.983906 0
M  V30 5382 O 490.232 0.813729 1.64694 0
M  V30 5383 C 490.294 3.56953 -0.427182 0
M  V30 5384 C 489.958 4.21083 -1.77589 0
M  V30 5385 C 490.955 4.42107 -2.73564 0
M  V30 5386 C 488.64 4.58006 -2.06243 0
M  V30 5387 C 490.634 4.99169 -3.9637 0
M  V30 5388 C 488.321 5.1478 -3.2931 0
M  V30 5389 C 489.319 5.35304 -4.24191 0
M  V30 5390 O 489.007 5.90878 -5.45086 0
M  V30 5391 H 488.739 0.655631 -0.164695 0
M  V30 5392 H 491.293 1.73246 -1.1034 0
M  V30 5393 H 489.523 3.85372 0.320175 0
M  V30 5394 H 491.212 4.05875 -0.0450875 0
M  V30 5395 H 491.978 4.13953 -2.52721 0
M  V30 5396 H 487.857 4.41339 -1.33196 0
M  V30 5397 H 491.401 5.15105 -4.70439 0
M  V30 5398 H 487.298 5.42362 -3.5002 0
M  V30 5399 H 488.066 6.0932 -5.46508 0
M  V30 5400 N 490.729 0.570148 1.46925 0
M  V30 5401 C 492.145 0.23087 1.57921 0
M  V30 5402 C 492.345 -1.26676 1.56702 0
M  V30 5403 O 491.401 -2.04774 1.47729 0
M  V30 5404 C 492.714 0.868973 2.8787 0
M  V30 5405 C 494.262 0.841397 3.01479 0
M  V30 5406 C 494.737 1.45881 4.34146 0
M  V30 5407 N 496.228 1.42258 4.40814 0
M  V30 5408 C 496.963 1.8698 5.42057 0
M  V30 5409 N 496.459 2.39618 6.50042 0
M  V30 5410 N 498.252 1.77972 5.33181 0
M  V30 5411 H 490.403 1.54301 1.45962 0
M  V30 5412 H 492.666 0.644224 0.69547 0
M  V30 5413 H 492.372 1.922 2.94537 0
M  V30 5414 H 492.246 0.369682 3.75384 0
M  V30 5415 H 494.633 -0.202973 2.94401 0
M  V30 5416 H 494.714 1.37858 2.15474 0
M  V30 5417 H 494.358 2.50231 4.4198 0
M  V30 5418 H 494.288 0.896958 5.18905 0
M  V30 5419 H 496.779 1.03768 3.63374 0
M  V30 5420 H 497.092 2.71633 7.23488 0
M  V30 5421 H 495.437 2.43636 6.50897 0
M  V30 5422 H 498.628 1.36617 4.4772 0
M  V30 5423 H 498.801 2.13143 6.11943 0
M  V30 5424 N 492.207 -1.54576 0.307264 0
M  V30 5425 C 493.453 -2.0056 -0.300612 0
M  V30 5426 C 493.786 -1.1953 -1.53057 0
M  V30 5427 O 493.061 -0.27337 -1.92569 0
M  V30 5428 C 493.344 -3.54167 -0.650987 0
M  V30 5429 C 493.197 -4.45933 0.588539 0
M  V30 5430 C 494.516 -4.14645 -1.47506 0
M  V30 5431 H 491.635 -0.729075 -0.107788 0
M  V30 5432 H 494.277 -1.85286 0.420606 0
M  V30 5433 H 492.427 -3.67313 -1.26544 0
M  V30 5434 H 494.099 -4.44683 1.22697 0
M  V30 5435 H 492.342 -4.16274 1.22058 0
M  V30 5436 H 493.013 -5.51189 0.299153 0
M  V30 5437 H 495.489 -4.04973 -0.955821 0
M  V30 5438 H 494.365 -5.22269 -1.68899 0
M  V30 5439 H 494.626 -3.66921 -2.4662 0
M  V30 5440 N 493.685 -0.035106 -1.57561 0
M  V30 5441 C 494.915 0.651312 -1.96065 0
M  V30 5442 C 495.323 1.6585 -0.910514 0
M  V30 5443 O 494.666 1.83336 0.11552 0
M  V30 5444 C 494.728 1.40897 -3.30739 0
M  V30 5445 C 494.392 0.559436 -4.53563 0
M  V30 5446 C 495.389 -0.16778 -5.19629 0
M  V30 5447 C 493.074 0.495079 -4.99854 0
M  V30 5448 C 495.068 -0.947963 -6.30311 0
M  V30 5449 C 492.755 -0.288804 -6.10417 0
M  V30 5450 C 493.753 -1.00903 -6.75505 0
M  V30 5451 O 493.441 -1.78005 -7.83945 0
M  V30 5452 H 493.173 0.184036 -0.650467 0
M  V30 5453 H 495.727 -0.0929677 -2.05189 0
M  V30 5454 H 493.957 2.19852 -3.18123 0
M  V30 5455 H 495.646 1.98407 -3.54104 0
M  V30 5456 H 496.412 -0.12743 -4.84833 0
M  V30 5457 H 492.291 1.04524 -4.48994 0
M  V30 5458 H 495.835 -1.51064 -6.81047 0
M  V30 5459 H 491.732 -0.33085 -6.44652 0
M  V30 5460 H 492.5 -1.70046 -8.00641 0
M  V30 5461 N 495.163 1.55791 0.238111 0
M  V30 5462 C 496.111 1.91885 1.31464 0
M  V30 5463 C 497.105 0.798929 1.49377 0
M  V30 5464 O 498.311 0.983626 1.50747 0
M  V30 5465 H 494.686 0.609551 0.440399 0
M  V30 5466 H 496.657 2.81747 0.982925 0
M  V30 5467 C 495.406 2.23763 2.6613 0
M  V30 5468 H 494.729 3.09444 2.53149 0
M  V30 5469 H 496.169 2.52915 3.40309 0
M  V30 5470 C 494.628 1.05699 3.1989 0
M  V30 5471 O 495.158 0.309524 4.00506 0
M  V30 5472 N 493.364 0.845251 2.78036 0
M  V30 5473 H 492.911 1.4548 2.12588 0
M  V30 5474 H 492.869 0.0569973 3.14348 0
M  V30 5475 N 496.642 -0.504142 1.49319 0
M  V30 5476 C 497.87 -1.28256 1.62351 0
M  V30 5477 C 498.285 -1.86502 0.293682 0
M  V30 5478 O 497.642 -1.67678 -0.720449 0
M  V30 5479 C 497.693 -2.41507 2.68992 0
M  V30 5480 O 497.414 -1.85656 3.96817 0
M  V30 5481 C 498.915 -3.32929 2.927 0
M  V30 5482 H 496.135 -0.389115 0.546654 0
M  V30 5483 H 498.679 -0.605531 1.95329 0
M  V30 5484 H 496.834 -3.05046 2.38801 0
M  V30 5485 H 497.248 -2.59981 4.55533 0
M  V30 5486 H 498.722 -4.0868 3.71058 0
M  V30 5487 H 499.199 -3.89733 2.02496 0
M  V30 5488 H 499.805 -2.75158 3.24296 0
M  V30 5489 N 498.12 -1.38341 -0.754957 0
M  V30 5490 C 499.053 -1.29837 -1.87663 0
M  V30 5491 C 500.031 -0.175659 -1.61648 0
M  V30 5492 O 501.215 -0.352745 -1.8517 0
M  V30 5493 C 498.342 -1.01141 -3.23246 0
M  V30 5494 C 497.388 -2.15331 -3.6815 0
M  V30 5495 S 498.221 -3.77459 -3.79849 0
M  V30 5496 C 499.377 -3.50948 -5.18253 0
M  V30 5497 H 499.61 -2.24771 -1.9459 0
M  V30 5498 H 497.143 -1.24161 -0.917796 0
M  V30 5499 H 499.101 -0.852687 -4.01546 0
M  V30 5500 H 497.762 -0.0792784 -3.14 0
M  V30 5501 H 496.955 -1.90795 -4.6649 0
M  V30 5502 H 496.557 -2.27304 -2.97 0
M  V30 5503 H 498.849 -3.06977 -6.03963 0
M  V30 5504 H 499.792 -4.48677 -5.47809 0
M  V30 5505 H 500.2 -2.85492 -4.86985 0
M  V30 5506 N 499.598 0.982988 -1.23187 0
M  V30 5507 C 501.009 1.53847 -1.05773 0
M  V30 5508 C 501.36 1.92568 0.375744 0
M  V30 5509 O 500.485 1.75783 1.26211 0
M  V30 5510 C 501.08 2.79567 -1.91384 0
M  V30 5511 C 499.639 3.31524 -1.78238 0
M  V30 5512 C 498.786 2.04534 -1.87246 0
M  V30 5513 H 501.737 0.802962 -1.36888 0
M  V30 5514 H 501.758 3.52317 -1.43711 0
M  V30 5515 H 501.27 2.51353 -2.95708 0
M  V30 5516 H 499.371 3.64623 -0.766875 0
M  V30 5517 H 499.484 4.01457 -2.61475 0
M  V30 5518 H 497.848 2.1855 -1.30797 0
M  V30 5519 H 498.631 1.78706 -2.9312 0
M  V30 5520 O 501.115 1.16872 1.1146 0
M  V30 5521 H 501.806 0.903209 1.71353 0
M  V30 END ATOM
M  V30 BEGIN BOND
M  V30 END BOND
M  V30 END CTAB
M  END
$$$$
