drugbank_target|Q15078 Cyclin-dependent kinase 5 activator 1 (DB02052; DB07364)
 OpenBabel12092120423D

  0  0  0     0  0            999 V3000
M  V30 BEGIN CTAB
M  V30 COUNTS 4826 4878 0 0 0
M  V30 BEGIN ATOM
M  V30 1 H -0.908 1.98254 -0.117106 0
M  V30 2 N 0 1.576 0 0
M  V30 3 C 0.933 2.03868 1.02534 0
M  V30 4 C 1.911 0.928543 1.3348 0
M  V30 5 O 3.095 1.19667 1.45644 0
M  V30 6 C 0.222 2.43627 2.35294 0
M  V30 7 C -0.732 3.65373 2.2001 0
M  V30 8 S 0.101 5.13292 1.52614 0
M  V30 9 C 1.257 5.56322 2.86805 0
M  V30 10 H 1.49 2.90518 0.631377 0
M  V30 11 H -0.977 1.52953 0.210867 0
M  V30 12 H 0.981 2.67203 3.11629 0
M  V30 13 H -0.358 1.57376 2.7183 0
M  V30 14 H -1.165 3.90944 3.18086 0
M  V30 15 H -1.563 3.418 1.51819 0
M  V30 16 H 0.729 5.58782 3.83104 0
M  V30 17 H 1.672 6.56266 2.65933 0
M  V30 18 H 2.08 4.83886 2.90714 0
M  V30 19 N 1.4781 -0.272755 1.55222 0
M  V30 20 C 2.7261 -1.00234 1.75492 0
M  V30 21 C 3.0471 -1.8681 0.5592 0
M  V30 22 O 2.3171 -1.91215 -0.425882 0
M  V30 23 H 0.8971 -0.373076 0.647166 0
M  V30 24 H 3.5591 -0.296926 1.92625 0
M  V30 25 H 2.6551 -1.63913 2.65592 0
M  V30 26 N 2.9562 -1.48159 -0.537278 0
M  V30 27 C 4.1842 -1.59454 -1.31841 0
M  V30 28 C 4.5992 -0.252065 -1.8711 0
M  V30 29 O 3.9562 0.757621 -1.66031 0
M  V30 30 C 4.0072 -2.63546 -2.47439 0
M  V30 31 O 3.7282 -3.92583 -1.94449 0
M  V30 32 C 5.2292 -2.85212 -3.39366 0
M  V30 33 H 2.4492 -0.53785 -0.401196 0
M  V30 34 H 4.9932 -1.93932 -0.648891 0
M  V30 35 H 3.1482 -2.31946 -3.1029 0
M  V30 36 H 3.5622 -4.49629 -2.70063 0
M  V30 37 H 5.0362 -3.61863 -4.16844 0
M  V30 38 H 5.5132 -1.93765 -3.94147 0
M  V30 39 H 6.1192 -3.18086 -2.82314 0
M  V30 40 N 4.4343 0.785586 -1.36625 0
M  V30 41 C 5.6803 1.54591 -1.31261 0
M  V30 42 C 6.0133 1.93906 0.106823 0
M  V30 43 O 5.2883 1.63007 1.06108 0
M  V30 44 C 5.5713 2.82038 -2.23889 0
M  V30 45 C 5.4243 2.49066 -3.74548 0
M  V30 46 C 6.7433 3.83887 -2.15217 0
M  V30 47 H 3.8623 0.560846 -0.478143 0
M  V30 48 H 6.5043 0.902278 -1.67209 0
M  V30 49 H 4.6543 3.36961 -1.93363 0
M  V30 50 H 6.3263 2.00164 -4.15611 0
M  V30 51 H 4.5693 1.81954 -3.93796 0
M  V30 52 H 5.2403 3.40109 -4.34776 0
M  V30 53 H 7.7163 3.38421 -2.42096 0
M  V30 54 H 6.5923 4.70806 -2.82193 0
M  V30 55 H 6.8533 4.27131 -1.14068 0
M  V30 56 N 5.9124 1.20967 1.01018 0
M  V30 57 C 6.8424 0.988272 2.11555 0
M  V30 58 C 7.8234 -0.0849778 1.69888 0
M  V30 59 O 9.0084 0.0738202 1.9406 0
M  V30 60 C 6.1384 0.546528 3.42973 0
M  V30 61 C 5.0924 1.56375 3.9841 0
M  V30 62 C 4.4184 0.97842 5.25672 0
M  V30 63 C 5.7184 2.94922 4.31066 0
M  V30 64 H 7.4124 1.91276 2.30334 0
M  V30 65 H 4.9584 0.921073 1.1069 0
M  V30 66 H 6.9114 0.378839 4.19694 0
M  V30 67 H 5.6354 -0.413598 3.23971 0
M  V30 68 H 4.2944 1.71891 3.23804 0
M  V30 69 H 3.9424 0.0101688 5.02999 0
M  V30 70 H 3.6424 1.65784 5.63728 0
M  V30 71 H 5.1664 0.821939 6.05043 0
M  V30 72 H 6.5804 2.8288 4.9865 0
M  V30 73 H 4.9774 3.5983 4.80253 0
M  V30 74 H 6.0474 3.4616 3.39561 0
M  V30 75 N 7.3905 -1.2043 1.01659 0
M  V30 76 C 8.6155 -1.94318 0.724942 0
M  V30 77 C 9.0405 -1.74266 -0.708034 0
M  V30 78 O 8.3985 -1.03694 -1.48719 0
M  V30 79 C 8.4465 -3.44486 1.06591 0
M  V30 80 O 7.5505 -4.12017 0.177599 0
M  V30 81 H 6.8915 -0.60708 0.26898 0
M  V30 82 H 9.4215 -1.52861 1.35995 0
M  V30 83 H 9.4315 -3.95106 1.01762 0
M  V30 84 H 8.1065 -3.58404 2.10997 0
M  V30 85 H 6.6835 -3.71821 0.283421 0
M  V30 86 N 8.8686 -0.792821 -1.36206 0
M  V30 87 C 9.7986 -0.207853 -2.32573 0
M  V30 88 C 10.7796 0.659055 -1.56813 0
M  V30 89 O 11.9646 0.592176 -1.84951 0
M  V30 90 C 9.0946 0.655449 -3.41059 0
M  V30 91 C 8.0486 -0.111842 -4.27854 0
M  V30 92 C 7.3746 0.872274 -5.27537 0
M  V30 93 C 8.6746 -1.30299 -5.05786 0
M  V30 94 H 10.3686 -1.01294 -2.81744 0
M  V30 95 H 7.9146 -0.48854 -1.3546 0
M  V30 96 H 9.8676 1.07464 -4.07467 0
M  V30 97 H 8.5916 1.49328 -2.90463 0
M  V30 98 H 7.2506 -0.512053 -3.63006 0
M  V30 99 H 6.8986 1.70523 -4.73214 0
M  V30 100 H 6.5986 0.363291 -5.86476 0
M  V30 101 H 8.1226 1.28996 -5.96818 0
M  V30 102 H 9.5366 -0.959379 -5.65216 0
M  V30 103 H 7.9336 -1.7455 -5.74154 0
M  V30 104 H 9.0036 -2.09663 -4.37229 0
M  V30 105 N 10.3467 1.47872 -0.545128 0
M  V30 106 C 11.5717 2.07391 -0.0190611 0
M  V30 107 C 11.9967 1.39688 1.25971 0
M  V30 108 O 11.3547 0.467816 1.7516 0
M  V30 109 C 11.4027 3.60188 0.172335 0
M  V30 110 O 10.5067 3.9339 1.23766 0
M  V30 111 H 9.8477 0.662411 -0.0459059 0
M  V30 112 H 12.3777 1.90066 -0.757365 0
M  V30 113 H 12.3877 4.06129 0.390305 0
M  V30 114 H 11.0627 4.08865 -0.761725 0
M  V30 115 H 9.6397 3.5921 1.00114 0
M  V30 116 N 11.8248 0.280983 1.55075 0
M  V30 117 C 13.2358 -0.215629 1.85451 0
M  V30 118 C 13.5868 -1.54991 1.203 0
M  V30 119 O 12.7118 -2.10699 0.493435 0
M  V30 120 C 13.3068 -0.398026 3.36454 0
M  V30 121 C 11.8658 -0.838866 3.66933 0
M  V30 122 C 11.0128 0.064458 2.77225 0
M  V30 123 H 13.9638 0.502601 1.50531 0
M  V30 124 H 13.9848 -1.23569 3.59876 0
M  V30 125 H 13.4968 0.573241 3.83843 0
M  V30 126 H 11.5978 -1.8214 3.25048 0
M  V30 127 H 11.7108 -0.672123 4.74362 0
M  V30 128 H 10.0748 -0.452863 2.50642 0
M  V30 129 H 10.8578 1.03172 3.2743 0
M  V30 130 N 13.3029 -1.57598 0.00835791 0
M  V30 131 C 14.5279 -1.95617 -0.689103 0
M  V30 132 C 14.9529 -0.883753 -1.66046 0
M  V30 133 O 14.3109 0.157352 -1.80616 0
M  V30 134 C 14.3589 -3.32736 -1.38994 0
M  V30 135 O 13.4629 -3.27631 -2.50463 0
M  V30 136 H 12.8039 -0.638379 -0.182668 0
M  V30 137 H 15.3339 -2.045 0.064036 0
M  V30 138 H 15.3439 -3.68494 -1.75147 0
M  V30 139 H 14.0189 -4.1034 -0.677778 0
M  V30 140 H 12.5959 -3.03561 -2.16576 0
M  V30 141 N 14.781 0.264519 -1.55364 0
M  V30 142 C 16.011 1.01153 -1.80143 0
M  V30 143 C 16.419 1.80115 -0.579253 0
M  V30 144 O 15.762 1.77813 0.46132 0
M  V30 145 C 15.824 2.01098 -2.97993 0
M  V30 146 C 15.488 1.40995 -4.34706 0
M  V30 147 C 16.485 0.821316 -5.13372 0
M  V30 148 C 14.17 1.43461 -4.81378 0
M  V30 149 C 16.164 0.265339 -6.36847 0
M  V30 150 C 13.851 0.874771 -6.04807 0
M  V30 151 C 14.849 0.291146 -6.82379 0
M  V30 152 O 14.537 -0.260093 -8.03479 0
M  V30 153 H 14.269 0.304125 -0.603725 0
M  V30 154 H 16.823 0.298089 -2.03225 0
M  V30 155 H 15.053 2.76224 -2.70623 0
M  V30 156 H 16.742 2.61997 -3.1002 0
M  V30 157 H 17.508 0.794903 -4.78442 0
M  V30 158 H 13.387 1.87826 -4.21002 0
M  V30 159 H 16.931 -0.190837 -6.97339 0
M  V30 160 H 12.828 0.898452 -6.39217 0
M  V30 161 H 13.596 -0.150265 -8.18362 0
M  V30 162 N 16.2591 1.48442 0.529413 0
M  V30 163 C 17.6751 1.34575 0.858004 0
M  V30 164 C 17.8751 0.3572 1.98309 0
M  V30 165 O 16.9311 -0.221379 2.51528 0
M  V30 166 C 18.2441 2.74617 1.22499 0
M  V30 167 C 19.7921 2.83109 1.33484 0
M  V30 168 C 20.2671 4.23854 1.73526 0
M  V30 169 N 21.7581 4.2653 1.80628 0
M  V30 170 C 22.4931 5.32372 2.12997 0
M  V30 171 N 21.9891 6.48491 2.43786 0
M  V30 172 N 23.7821 5.19766 2.14008 0
M  V30 173 H 15.9331 2.1133 -0.212925 0
M  V30 174 H 18.1961 0.947439 -0.0326199 0
M  V30 175 H 17.9021 3.4852 0.471905 0
M  V30 176 H 17.7761 3.08177 2.17501 0
M  V30 177 H 20.1631 2.09462 2.0787 0
M  V30 178 H 20.2441 2.53168 0.366027 0
M  V30 179 H 19.8881 4.98018 0.997013 0
M  V30 180 H 19.8181 4.5124 2.71459 0
M  V30 181 H 22.3091 3.42772 1.59108 0
M  V30 182 H 22.6221 7.24993 2.67592 0
M  V30 183 H 20.9671 6.51765 2.41304 0
M  V30 184 H 24.1581 4.28066 1.89412 0
M  V30 185 H 24.3311 6.02354 2.38902 0
M  V30 186 N 17.7372 -0.778329 1.37039 0
M  V30 187 C 18.6842 -1.89139 1.32269 0
M  V30 188 C 19.6542 -1.65017 0.189387 0
M  V30 189 O 20.8392 -1.87024 0.377693 0
M  V30 190 C 17.9792 -3.26112 1.12894 0
M  V30 191 C 17.0922 -3.62233 2.35396 0
M  V30 192 C 16.2272 -4.8838 2.08946 0
M  V30 193 C 15.2662 -5.17212 3.2735 0
M  V30 194 N 14.4032 -6.34546 3.00492 0
M  V30 195 H 19.2432 -1.92552 2.27437 0
M  V30 196 H 16.7802 -0.941473 1.13025 0
M  V30 197 H 18.7382 -4.05116 0.996835 0
M  V30 198 H 17.3682 -3.22091 0.213758 0
M  V30 199 H 16.4202 -2.78265 2.5937 0
M  V30 200 H 17.7322 -3.79481 3.23721 0
M  V30 201 H 16.8862 -5.75274 1.92729 0
M  V30 202 H 15.6252 -4.73222 1.17949 0
M  V30 203 H 14.6302 -4.28796 3.44113 0
M  V30 204 H 15.8552 -5.34283 4.19188 0
M  V30 205 H 13.8012 -6.20759 2.12118 0
M  V30 206 H 13.7182 -6.52179 3.82358 0
M  V30 207 H 14.9862 -7.24394 2.87879 0
M  V30 208 N 19.2153 -1.21501 -1.00376 0
M  V30 209 C 20.1783 -0.976927 -2.07337 0
M  V30 210 C 21.1783 0.0525322 -1.60714 0
M  V30 211 O 22.3683 -0.184869 -1.73216 0
M  V30 212 C 19.5003 -0.473423 -3.37597 0
M  V30 213 H 20.6933 -1.92587 -2.29892 0
M  V30 214 H 18.2463 -1.03217 -1.17371 0
M  V30 215 H 18.9813 0.480379 -3.20722 0
M  V30 216 H 18.7663 -1.216 -3.72768 0
M  V30 217 H 20.2563 -0.32675 -4.1632 0
M  V30 218 N 20.6934 1.19889 -1.02296 0
M  V30 219 C 21.9214 1.9339 -0.735399 0
M  V30 220 C 22.3364 1.75148 0.704887 0
M  V30 221 O 21.6934 1.06954 1.47875 0
M  V30 222 C 21.7444 3.45313 -1.06962 0
M  V30 223 O 21.4654 3.62964 -2.45334 0
M  V30 224 C 22.9664 4.35948 -0.804021 0
M  V30 225 H 20.1864 0.61448 -0.269546 0
M  V30 226 H 22.7304 1.522 -1.36585 0
M  V30 227 H 20.8854 3.84359 -0.484455 0
M  V30 228 H 21.2994 4.56886 -2.57595 0
M  V30 229 H 22.7734 5.41174 -1.0879 0
M  V30 230 H 23.2504 4.3842 0.261691 0
M  V30 231 H 23.8564 4.02574 -1.37164 0
M  V30 232 N 22.1715 0.800033 1.35784 0
M  V30 233 C 23.1015 0.220184 2.3246 0
M  V30 234 C 24.0825 -0.65073 1.57161 0
M  V30 235 O 25.2675 -0.582359 1.85263 0
M  V30 236 C 22.3975 -0.637353 3.41402 0
M  V30 237 C 21.3515 0.134531 4.27789 0
M  V30 238 C 20.6775 -0.844285 5.27992 0
M  V30 239 C 21.9775 1.32979 5.05088 0
M  V30 240 H 23.6715 1.02787 2.81203 0
M  V30 241 H 21.2175 0.495717 1.35199 0
M  V30 242 H 23.1705 -1.05302 4.08031 0
M  V30 243 H 21.8945 -1.47785 2.91251 0
M  V30 244 H 20.5535 0.531296 3.6273 0
M  V30 245 H 20.2015 -1.68011 4.74111 0
M  V30 246 H 19.9015 -0.332184 5.8666 0
M  V30 247 H 21.4255 -1.2583 5.97494 0
M  V30 248 H 22.8395 0.98934 5.64699 0
M  V30 249 H 21.2365 1.77593 5.7322 0
M  V30 250 H 22.3065 2.11978 4.36111 0
M  V30 251 N 23.6496 -1.47581 0.552962 0
M  V30 252 C 24.8966 -2.02482 0.0273243 0
M  V30 253 C 25.2246 -1.42776 -1.32081 0
M  V30 254 O 24.4796 -0.571393 -1.87173 0
M  V30 255 C 24.7786 -3.57199 -0.119728 0
M  V30 256 C 24.4446 -4.35804 1.15697 0
M  V30 257 C 23.1066 -4.57 1.50681 0
M  V30 258 C 25.4586 -4.81167 2.00319 0
M  V30 259 C 22.7866 -5.20807 2.70142 0
M  V30 260 C 25.1386 -5.46293 3.18978 0
M  V30 261 C 23.8026 -5.65722 3.54281 0
M  V30 262 H 23.0726 -0.740933 0.00999866 0
M  V30 263 H 25.7196 -1.77302 0.72362 0
M  V30 264 H 24.0246 -3.81348 -0.89896 0
M  V30 265 H 25.7216 -3.97324 -0.541718 0
M  V30 266 H 22.3116 -4.19582 0.874561 0
M  V30 267 H 26.4956 -4.64574 1.74599 0
M  V30 268 H 21.7516 -5.34045 2.97668 0
M  V30 269 H 25.9256 -5.80407 3.84838 0
M  V30 270 H 23.5526 -6.14936 4.46942 0
M  V30 271 N 25.1277 -0.289203 -1.54924 0
M  V30 272 C 26.0377 0.601863 -2.26748 0
M  V30 273 C 27.0537 1.15834 -1.2984 0
M  V30 274 O 28.2297 1.18564 -1.62802 0
M  V30 275 C 25.2947 1.76299 -2.98529 0
M  V30 276 C 24.3557 1.24178 -4.10948 0
M  V30 277 C 23.5887 2.34757 -4.79296 0
M  V30 278 O 23.8117 3.54411 -4.46933 0
M  V30 279 O 22.7457 2.02115 -5.66951 0
M  V30 280 H 26.5717 0.0195879 -3.03694 0
M  V30 281 H 24.1567 -0.0560868 -1.49295 0
M  V30 282 H 26.0387 2.43973 -3.43592 0
M  V30 283 H 24.7137 2.33209 -2.24488 0
M  V30 284 H 23.6207 0.531104 -3.70311 0
M  V30 285 H 24.9537 0.718252 -4.86931 0
M  V30 286 N 26.6058 1.57591 -0.0167156 0
M  V30 287 C 27.8828 1.82547 0.702564 0
M  V30 288 C 28.2628 0.898018 1.91047 0
M  V30 289 O 27.6108 -0.0493456 2.28447 0
M  V30 290 C 27.8208 3.31459 1.09251 0
M  V30 291 C 29.1688 3.97622 1.48937 0
M  V30 292 O 30.1928 3.35881 1.18584 0
M  V30 293 O 29.0518 5.06415 2.05442 0
M  V30 294 H 26.1458 0.752268 0.343544 0
M  V30 295 H 28.6918 1.69644 -0.0434495 0
M  V30 296 H 27.4638 3.9061 0.23227 0
M  V30 297 H 27.0868 3.49422 1.89709 0
M  V30 298 N 28.0839 -0.256276 1.55502 0
M  V30 299 C 29.3319 -0.983672 1.76545 0
M  V30 300 C 29.6529 -1.86206 0.578982 0
M  V30 301 O 28.9229 -1.91656 -0.405577 0
M  V30 302 H 27.5029 -0.366191 0.651086 0
M  V30 303 H 30.1649 -0.276479 1.92929 0
M  V30 304 H 29.2609 -1.61087 2.67315 0
M  V30 305 N 29.562 -1.4872 -0.521534 0
M  V30 306 C 30.525 -1.63379 -1.60748 0
M  V30 307 C 31.525 -0.50661 -1.52611 0
M  V30 308 O 32.715 -0.772601 -1.5613 0
M  V30 309 C 29.847 -1.61192 -3.00383 0
M  V30 310 H 31.04 -2.60217 -1.49087 0
M  V30 311 H 28.593 -1.37444 -0.744235 0
M  V30 312 H 29.328 -0.65863 -3.17541 0
M  V30 313 H 29.113 -2.43032 -3.07698 0
M  V30 314 H 30.603 -1.7466 -3.7932 0
M  V30 315 N 31.0401 0.771051 -1.3745 0
M  V30 316 C 32.0031 1.86598 -1.33093 0
M  V30 317 C 33.0031 1.59076 -0.234845 0
M  V30 318 O 34.1931 1.67145 -0.490732 0
M  V30 319 C 31.3251 3.23747 -1.06773 0
M  V30 320 H 32.5181 1.91873 -2.30488 0
M  V30 321 H 30.0711 0.970876 -1.2249 0
M  V30 322 H 30.8061 3.24148 -0.099129 0
M  V30 323 H 30.5911 3.45115 -1.86112 0
M  V30 324 H 32.0811 4.03824 -1.06377 0
M  V30 325 N 32.5182 1.22032 0.997298 0
M  V30 326 C 33.7462 1.06841 1.7718 0
M  V30 327 C 34.1612 -0.381325 1.84909 0
M  V30 328 O 33.5182 -1.26437 1.31605 0
M  V30 329 C 33.5692 1.66814 3.20711 0
M  V30 330 O 33.2902 3.06116 3.13408 0
M  V30 331 C 34.7912 1.56838 4.14628 0
M  V30 332 H 32.0112 0.374782 0.556578 0
M  V30 333 H 34.5552 1.61532 1.2541 0
M  V30 334 H 32.7102 1.16196 3.69564 0
M  V30 335 H 33.1242 3.34926 4.0364 0
M  V30 336 H 34.5982 2.03532 5.13107 0
M  V30 337 H 35.0752 0.524155 4.36061 0
M  V30 338 H 35.6812 2.06741 3.7167 0
M  V30 339 N 33.9963 -1.19345 1.0293 0
M  V30 340 C 35.2423 -1.89318 0.727083 0
M  V30 341 C 35.5753 -1.79446 -0.742483 0
M  V30 342 O 34.8503 -1.1871 -1.54072 0
M  V30 343 C 35.1333 -3.40238 1.17942 0
M  V30 344 C 34.9863 -3.58979 2.71024 0
M  V30 345 C 36.3053 -4.33479 0.760548 0
M  V30 346 H 33.4243 -0.687475 0.265606 0
M  V30 347 H 36.0663 -1.40477 1.2793 0
M  V30 348 H 34.2163 -3.81964 0.709608 0
M  V30 349 H 35.8883 -3.26421 3.25955 0
M  V30 350 H 34.1313 -3.02018 3.11396 0
M  V30 351 H 34.8023 -4.64823 2.9773 0
M  V30 352 H 37.2783 -3.99469 1.16464 0
M  V30 353 H 36.1543 -5.37664 1.10493 0
M  V30 354 H 36.4153 -4.40813 -0.337063 0
M  V30 355 N 35.4744 -0.807222 -1.35358 0
M  V30 356 C 36.7224 -0.387122 -1.98358 0
M  V30 357 C 37.0434 1.04942 -1.64354 0
M  V30 358 O 36.3134 1.72615 -0.926339 0
M  V30 359 H 34.8934 -0.140154 -0.733734 0
M  V30 360 H 37.5554 -1.0332 -1.6526 0
M  V30 361 H 36.6514 -0.493352 -3.08176 0
M  V30 362 N 36.9525 1.47285 -0.560781 0
M  V30 363 C 37.9025 2.27073 0.205384 0
M  V30 364 C 38.8865 1.34569 0.882044 0
M  V30 365 O 40.0785 1.58899 0.77976 0
M  V30 366 C 37.2075 3.20414 1.23247 0
M  V30 367 C 36.2935 4.20399 0.559041 0
M  V30 368 N 36.6845 5.04423 -0.372927 0
M  V30 369 C 34.9825 4.38536 0.812522 0
M  V30 370 C 35.6835 5.76655 -0.764446 0
M  V30 371 N 34.6595 5.43471 -0.11848 0
M  V30 372 H 38.4615 2.89422 -0.511117 0
M  V30 373 H 35.9755 1.57868 -0.380975 0
M  V30 374 H 37.9725 3.76262 1.79534 0
M  V30 375 H 36.6325 2.59623 1.95002 0
M  V30 376 H 37.6435 5.1248 -0.747287 0
M  V30 377 H 34.3205 3.88913 1.51832 0
M  V30 378 H 35.7105 6.54238 -1.53045 0
M  V30 379 N 38.4306 0.297415 1.54768 0
M  V30 380 C 39.6606 -0.315165 2.04182 0
M  V30 381 C 40.0686 -1.4834 1.17439 0
M  V30 382 O 39.4116 -1.82695 0.191891 0
M  V30 383 C 39.4736 -0.837583 3.49607 0
M  V30 384 C 39.1376 0.204912 4.5654 0
M  V30 385 C 40.1346 1.03214 5.09552 0
M  V30 386 C 37.8196 0.345578 5.0111 0
M  V30 387 C 39.8136 1.986 6.05671 0
M  V30 388 C 37.5006 1.30289 5.97049 0
M  V30 389 C 38.4986 2.12159 6.49213 0
M  V30 390 O 38.1866 3.06268 7.43273 0
M  V30 391 H 37.9186 -0.0729646 0.672051 0
M  V30 392 H 40.4726 0.433907 2.00765 0
M  V30 393 H 38.7026 -1.63712 3.50336 0
M  V30 394 H 40.3916 -1.36566 3.82236 0
M  V30 395 H 41.1576 0.934312 4.75916 0
M  V30 396 H 37.0366 -0.28171 4.60138 0
M  V30 397 H 40.5806 2.62542 6.46311 0
M  V30 398 H 36.4776 1.40145 6.30103 0
M  V30 399 H 37.2456 3.01205 7.61064 0
M  V30 400 N 39.9087 -1.5758 0.0250728 0
M  V30 401 C 41.1367 -1.9593 -0.664747 0
M  V30 402 C 41.5517 -0.901352 -1.65895 0
M  V30 403 O 40.9087 0.117255 -1.82123 0
M  V30 404 C 40.9597 -3.34342 -1.37468 0
M  V30 405 O 40.6807 -4.36079 -0.420324 0
M  V30 406 C 42.1817 -3.873 -2.1567 0
M  V30 407 H 39.4017 -0.645405 -0.183557 0
M  V30 408 H 41.9457 -2.04329 0.0836372 0
M  V30 409 H 40.1007 -3.27175 -2.0745 0
M  V30 410 H 40.5147 -5.16297 -0.923991 0
M  V30 411 H 41.9887 -4.86504 -2.60803 0
M  V30 412 H 42.4657 -3.21331 -2.99405 0
M  V30 413 H 43.0717 -3.97723 -1.50654 0
M  V30 414 N 41.3868 0.248026 -1.55636 0
M  V30 415 C 42.3498 1.29044 -1.89421 0
M  V30 416 C 43.3498 1.41134 -0.770581 0
M  V30 417 O 44.5398 1.39854 -1.03858 0
M  V30 418 C 41.6718 2.66831 -2.12165 0
M  V30 419 H 42.8648 1.00305 -2.82629 0
M  V30 420 H 40.4178 0.487265 -1.48511 0
M  V30 421 H 41.1528 3.00711 -1.21422 0
M  V30 422 H 40.9378 2.59438 -2.93997 0
M  V30 423 H 42.4278 3.42103 -2.3949 0
M  V30 424 N 42.8649 1.48995 0.513639 0
M  V30 425 C 44.1109 1.58076 1.27042 0
M  V30 426 C 44.4439 0.261026 1.92438 0
M  V30 427 O 43.7189 -0.734393 1.80103 0
M  V30 428 C 44.0019 2.73091 2.34719 0
M  V30 429 C 43.8549 4.14821 1.73907 0
M  V30 430 C 45.1739 2.83796 3.36375 0
M  V30 431 H 42.2929 0.575391 0.460536 0
M  V30 432 H 44.9349 1.81232 0.570516 0
M  V30 433 H 43.0849 2.53479 2.94416 0
M  V30 434 H 44.7569 4.45917 1.18135 0
M  V30 435 H 42.9999 4.21058 1.0437 0
M  V30 436 H 43.6709 4.91147 2.51949 0
M  V30 437 H 46.1469 3.01611 2.86653 0
M  V30 438 H 45.0229 3.65971 4.09093 0
M  V30 439 H 45.2839 1.92624 3.9793 0
M  V30 440 N 44.343 -0.763751 1.37857 0
M  V30 441 C 45.275 -1.88664 1.30148 0
M  V30 442 C 46.288 -1.61365 0.215685 0
M  V30 443 O 47.477 -1.72134 0.472459 0
M  V30 444 C 44.577 -3.24075 0.991396 0
M  V30 445 C 43.75 -3.78958 2.18426 0
M  V30 446 C 42.809 -4.92862 1.8432 0
M  V30 447 O 41.835 -5.08027 2.56704 0
M  V30 448 N 43.037 -5.75071 0.792081 0
M  V30 449 H 45.802 -1.95791 2.26905 0
M  V30 450 H 43.363 -0.943226 1.31586 0
M  V30 451 H 45.355 -3.97804 0.743935 0
M  V30 452 H 43.925 -3.12399 0.112122 0
M  V30 453 H 43.145 -2.96913 2.59299 0
M  V30 454 H 44.433 -4.12357 2.98058 0
M  V30 455 H 43.831 -5.65375 0.191595 0
M  V30 456 H 42.388 -6.48991 0.60449 0
M  V30 457 N 45.8211 -1.22559 -0.990812 0
M  V30 458 C 46.7691 -0.994798 -2.10253 0
M  V30 459 C 47.7631 0.0627798 -1.69284 0
M  V30 460 O 48.9691 -0.0898392 -1.79776 0
M  V30 461 H 45.3441 -0.304527 -0.687581 0
M  V30 462 H 47.3151 -1.93812 -2.26891 0
M  V30 463 C 46.0641 -0.591439 -3.42633 0
M  V30 464 H 45.3871 -1.3969 -3.74602 0
M  V30 465 H 46.8271 -0.469385 -4.21394 0
M  V30 466 C 45.2861 0.699232 -3.29564 0
M  V30 467 O 45.8161 1.75112 -3.61523 0
M  V30 468 N 44.0221 0.671182 -2.82743 0
M  V30 469 H 43.5691 -0.185136 -2.56934 0
M  V30 470 H 43.5271 1.53502 -2.7438 0
M  V30 471 N 47.2992 1.18797 -1.03562 0
M  V30 472 C 48.5242 1.9314 -0.755764 0
M  V30 473 C 48.9492 1.7537 0.68022 0
M  V30 474 O 48.3072 1.06046 1.47051 0
M  V30 475 C 48.3552 3.42747 -1.12058 0
M  V30 476 O 47.4592 4.11683 -0.243124 0
M  V30 477 H 46.8002 0.602724 -0.278604 0
M  V30 478 H 49.3302 1.50678 -1.3841 0
M  V30 479 H 49.3402 3.93437 -1.08035 0
M  V30 480 H 48.0152 3.55002 -2.16672 0
M  V30 481 H 46.5922 3.71323 -0.342539 0
M  V30 482 N 48.7773 0.814389 1.34928 0
M  V30 483 C 49.7243 0.22822 2.29669 0
M  V30 484 C 50.6943 -0.642164 1.53184 0
M  V30 485 O 51.8793 -0.585605 1.81591 0
M  V30 486 C 49.0193 -0.61089 3.3965 0
M  V30 487 C 48.1323 0.280792 4.31086 0
M  V30 488 C 47.2673 -0.567067 5.28165 0
M  V30 489 C 46.3063 0.324531 6.11239 0
M  V30 490 N 45.4433 -0.483756 7.00431 0
M  V30 491 H 50.2833 1.04153 2.79206 0
M  V30 492 H 47.8203 0.525133 1.37407 0
M  V30 493 H 49.7783 -1.11263 4.0209 0
M  V30 494 H 48.4083 -1.38939 2.91369 0
M  V30 495 H 47.4603 0.900688 3.69583 0
M  V30 496 H 48.7723 0.966723 4.89342 0
M  V30 497 H 47.9263 -1.13363 5.96015 0
M  V30 498 H 46.6653 -1.28654 4.70425 0
M  V30 499 H 45.6703 0.903298 5.42329 0
M  V30 500 H 46.8953 1.04198 6.71059 0
M  V30 501 H 44.8413 -1.18706 6.45171 0
M  V30 502 H 44.7583 0.143965 7.55863 0
M  V30 503 H 46.0263 -1.03334 7.7262 0
M  V30 504 N 50.2554 -1.46986 0.568584 0
M  V30 505 C 51.2034 -2.31858 -0.185649 0
M  V30 506 C 52.1974 -1.43624 -0.898249 0
M  V30 507 O 53.4034 -1.60327 -0.818242 0
M  V30 508 H 49.7784 -0.747866 -0.0787399 0
M  V30 509 H 51.7494 -2.93303 0.549191 0
M  V30 510 C 50.4984 -3.26513 -1.19519 0
M  V30 511 H 49.8214 -3.94377 -0.656285 0
M  V30 512 H 51.2614 -3.88707 -1.6936 0
M  V30 513 C 49.7204 -2.50847 -2.24894 0
M  V30 514 O 50.2504 -2.26119 -3.32014 0
M  V30 515 N 48.4564 -2.11656 -1.99124 0
M  V30 516 H 48.0034 -2.31966 -1.12024 0
M  V30 517 H 47.9614 -1.61347 -2.69842 0
M  V30 518 N 51.7335 -0.305618 -1.54608 0
M  V30 519 C 52.6965 0.555591 -2.22364 0
M  V30 520 C 53.6965 1.05768 -1.21119 0
M  V30 521 O 54.8865 0.952972 -1.45822 0
M  V30 522 C 52.0185 1.76974 -2.91364 0
M  V30 523 H 53.2115 -0.0364572 -2.99878 0
M  V30 524 H 50.7645 -0.0565007 -1.56198 0
M  V30 525 H 51.4995 2.40151 -2.17941 0
M  V30 526 H 51.2845 1.41732 -3.65588 0
M  V30 527 H 52.7745 2.38148 -3.43038 0
M  V30 528 N 53.2116 1.57565 -0.0334293 0
M  V30 529 C 54.1586 2.10478 0.946981 0
M  V30 530 C 55.1286 1.00787 1.32027 0
M  V30 531 O 56.3136 1.28232 1.41284 0
M  V30 532 C 53.4536 2.63994 2.22263 0
M  V30 533 C 52.5666 3.87709 1.90541 0
M  V30 534 C 51.7016 4.29604 3.12433 0
M  V30 535 C 50.7406 5.46065 2.76549 0
M  V30 536 N 49.8776 5.83096 3.9108 0
M  V30 537 H 54.7176 2.93963 0.488846 0
M  V30 538 H 52.2546 1.45296 0.22969 0
M  V30 539 H 54.2126 2.93114 2.96884 0
M  V30 540 H 52.8426 1.83333 2.65685 0
M  V30 541 H 51.8946 3.65291 1.06144 0
M  V30 542 H 53.2066 4.72403 1.60116 0
M  V30 543 H 52.3606 4.60182 3.9537 0
M  V30 544 H 51.0996 3.43685 3.46023 0
M  V30 545 H 50.1046 5.15176 1.92026 0
M  V30 546 H 51.3296 6.33685 2.44171 0
M  V30 547 H 49.2756 5.00132 4.24504 0
M  V30 548 H 49.1926 6.6244 3.64293 0
M  V30 549 H 50.4606 6.18282 4.74708 0
M  V30 550 N 54.6897 -0.239769 1.55765 0
M  V30 551 C 55.9667 -0.990056 1.68693 0
M  V30 552 C 56.3467 -2.03107 0.5754 0
M  V30 553 O 55.6947 -2.24604 -0.42017 0
M  V30 554 C 55.9047 -1.61696 3.09282 0
M  V30 555 C 57.2527 -2.11613 3.6811 0
M  V30 556 O 58.2767 -1.71624 3.12127 0
M  V30 557 O 57.1357 -2.85057 4.66267 0
M  V30 558 H 54.2297 -0.461299 0.686391 0
M  V30 559 H 56.7757 -0.232991 1.68093 0
M  V30 560 H 55.5477 -0.864357 3.81634 0
M  V30 561 H 55.1707 -2.44005 3.13923 0
M  V30 562 N 56.1678 -1.49265 -0.50573 0
M  V30 563 C 57.1148 -1.65585 -1.6078 0
M  V30 564 C 58.0848 -0.497396 -1.58478 0
M  V30 565 O 59.2698 -0.72385 -1.76536 0
M  V30 566 C 56.4098 -1.72408 -2.98948 0
M  V30 567 C 55.5228 -2.99525 -3.11301 0
M  V30 568 C 54.6578 -2.97356 -4.40174 0
M  V30 569 C 53.6968 -4.19074 -4.46143 0
M  V30 570 N 52.8338 -4.14841 -5.66437 0
M  V30 571 H 57.6738 -2.59688 -1.46172 0
M  V30 572 H 55.2108 -1.28761 -0.711261 0
M  V30 573 H 57.1688 -1.74344 -3.79025 0
M  V30 574 H 55.7988 -0.817753 -3.1227 0
M  V30 575 H 54.8508 -3.07222 -2.24318 0
M  V30 576 H 56.1628 -3.89518 -3.11572 0
M  V30 577 H 55.3168 -2.97829 -5.28567 0
M  V30 578 H 54.0558 -2.05133 -4.42461 0
M  V30 579 H 53.0608 -4.1885 -3.56153 0
M  V30 580 H 54.2858 -5.12483 -4.45575 0
M  V30 581 H 52.2318 -3.25453 -5.69575 0
M  V30 582 H 52.1488 -4.98564 -5.68304 0
M  V30 583 H 53.4168 -4.1941 -6.57051 0
M  V30 584 N 57.6459 0.756429 -1.3826 0
M  V30 585 C 58.5939 1.89149 -1.35372 0
M  V30 586 C 59.5879 1.67691 -0.24004 0
M  V30 587 O 60.7939 1.75294 -0.408919 0
M  V30 588 H 57.1689 0.622271 -0.422236 0
M  V30 589 H 59.1399 1.88701 -2.31159 0
M  V30 590 C 57.8889 3.26599 -1.19284 0
M  V30 591 H 57.2119 3.43695 -2.0424 0
M  V30 592 H 58.6519 4.06274 -1.21316 0
M  V30 593 C 57.1109 3.3675 0.100454 0
M  V30 594 O 57.6409 3.86951 1.07851 0
M  V30 595 N 55.8469 2.90179 0.15633 0
M  V30 596 H 55.3939 2.49517 -0.640253 0
M  V30 597 H 55.3519 2.97352 1.02123 0
M  V30 598 N 59.124 1.23083 0.984299 0
M  V30 599 C 60.054 1.03292 2.09411 0
M  V30 600 C 61.035 -0.048923 1.7003 0
M  V30 601 O 62.22 0.114967 1.93859 0
M  V30 602 C 59.35 0.619155 3.41736 0
M  V30 603 C 58.304 1.64791 3.95004 0
M  V30 604 C 57.63 1.0897 5.23478 0
M  V30 605 C 58.93 3.03999 4.24714 0
M  V30 606 H 60.624 1.96119 2.26225 0
M  V30 607 H 58.17 0.944344 1.08711 0
M  V30 608 H 60.123 0.467777 4.18796 0
M  V30 609 H 58.847 -0.344786 3.24775 0
M  V30 610 H 57.506 1.78721 3.20085 0
M  V30 611 H 57.154 0.11686 5.02864 0
M  V30 612 H 56.854 1.77704 5.60085 0
M  V30 613 H 58.378 0.950093 6.03163 0
M  V30 614 H 59.792 2.93393 4.92538 0
M  V30 615 H 58.189 3.69936 4.72512 0
M  V30 616 H 59.259 3.53285 3.32142 0
M  V30 617 N 60.6021 -1.18246 1.0419 0
M  V30 618 C 61.5491 -2.2192 0.634037 0
M  V30 619 C 62.5191 -1.62179 -0.358765 0
M  V30 620 O 63.7041 -1.89122 -0.252466 0
M  V30 621 C 60.8441 -3.451 0.00445535 0
M  V30 622 C 59.9571 -4.19174 1.04487 0
M  V30 623 C 59.0921 -5.29813 0.383676 0
M  V30 624 C 58.1311 -5.9566 1.4091 0
M  V30 625 N 57.2681 -6.97834 0.772784 0
M  V30 626 H 62.1081 -2.56164 1.52263 0
M  V30 627 H 59.6451 -1.25843 0.761701 0
M  V30 628 H 61.6031 -4.15485 -0.377919 0
M  V30 629 H 60.2331 -3.11472 -0.847652 0
M  V30 630 H 59.2851 -3.47604 1.54518 0
M  V30 631 H 60.5971 -4.64267 1.82368 0
M  V30 632 H 59.7511 -6.06677 -0.0528366 0
M  V30 633 H 58.4901 -4.85825 -0.427208 0
M  V30 634 H 57.4951 -5.17535 1.85574 0
M  V30 635 H 58.7201 -6.4173 2.22171 0
M  V30 636 H 56.6661 -6.55998 -0.0177708 0
M  V30 637 H 56.5831 -7.41186 1.48928 0
M  V30 638 H 57.8511 -7.78665 0.36071 0
M  V30 639 N 62.0802 -0.821533 -1.34494 0
M  V30 640 C 63.4962 -0.507117 -1.51329 0
M  V30 641 C 63.6962 0.968964 -1.76673 0
M  V30 642 O 62.7522 1.75348 -1.81685 0
M  V30 643 C 64.0652 -1.36544 -2.67911 0
M  V30 644 C 65.6132 -1.36242 -2.81793 0
M  V30 645 C 66.0882 -2.2052 -4.01416 0
M  V30 646 N 67.5792 -2.18136 -4.08621 0
M  V30 647 C 68.3142 -2.80095 -5.00334 0
M  V30 648 N 67.8102 -3.51039 -5.9728 0
M  V30 649 N 69.6032 -2.69656 -4.93196 0
M  V30 650 H 61.7542 -1.77729 -1.16302 0
M  V30 651 H 64.0172 -0.757291 -0.570276 0
M  V30 652 H 63.7232 -2.41361 -2.55808 0
M  V30 653 H 63.5972 -1.02917 -3.62888 0
M  V30 654 H 65.9842 -0.322041 -2.93338 0
M  V30 655 H 66.0652 -1.73866 -1.87628 0
M  V30 656 H 65.7092 -3.24607 -3.90631 0
M  V30 657 H 65.6392 -1.80247 -4.94791 0
M  V30 658 H 68.1302 -1.6653 -3.39229 0
M  V30 659 H 68.4432 -3.95565 -6.63889 0
M  V30 660 H 66.7882 -3.55145 -5.97409 0
M  V30 661 H 69.9792 -2.13808 -4.16418 0
M  V30 662 H 70.1522 -3.1823 -5.64476 0
M  V30 663 N 63.5583 1.46682 -0.576371 0
M  V30 664 C 64.5083 2.27278 0.181288 0
M  V30 665 C 65.4923 1.35497 0.867721 0
M  V30 666 O 66.6843 1.59717 0.762863 0
M  V30 667 C 63.8133 3.21703 1.19841 0
M  V30 668 C 62.8993 4.20969 0.51442 0
M  V30 669 N 63.2903 5.03999 -0.426407 0
M  V30 670 C 61.5883 4.39373 0.765963 0
M  V30 671 C 62.2893 5.75812 -0.825565 0
M  V30 672 N 61.2653 5.43315 -0.176116 0
M  V30 673 H 65.0673 2.88863 -0.541785 0
M  V30 674 H 62.5813 1.57455 -0.397697 0
M  V30 675 H 64.5783 3.78145 1.75533 0
M  V30 676 H 63.2383 2.61677 1.92238 0
M  V30 677 H 64.2493 5.11659 -0.8016 0
M  V30 678 H 60.9263 3.90502 1.47698 0
M  V30 679 H 62.3163 6.52577 -1.59976 0
M  V30 680 N 65.0364 0.313813 1.54444 0
M  V30 681 C 66.2614 -0.296681 2.05267 0
M  V30 682 C 66.6864 -1.45757 1.18897 0
M  V30 683 O 66.0444 -1.80239 0.195886 0
M  V30 684 C 66.0924 -0.71831 3.53373 0
M  V30 685 O 65.1964 -1.82175 3.69981 0
M  V30 686 H 64.5374 -0.0554061 0.661684 0
M  V30 687 H 67.0674 0.459387 1.99376 0
M  V30 688 H 67.0774 -1.00364 3.95463 0
M  V30 689 H 65.7524 0.130821 4.15694 0
M  V30 690 H 64.3294 -1.53598 3.39797 0
M  V30 691 N 66.5145 -1.57545 0.0417849 0
M  V30 692 C 67.7635 -1.91494 -0.633492 0
M  V30 693 C 68.0765 -0.921084 -1.72556 0
M  V30 694 O 69.2825 -1.15228 -2.45835 0
M  V30 695 C 67.7385 -3.40072 -1.17808 0
M  V30 696 C 67.3465 -4.47843 -0.118633 0
M  V30 697 C 69.0905 -3.8307 -1.82915 0
M  V30 698 C 66.9975 -5.87529 -0.675578 0
M  V30 699 H 65.9275 -0.714653 -0.24039 0
M  V30 700 H 68.5785 -1.83175 0.109148 0
M  V30 701 H 66.9605 -3.43364 -1.97274 0
M  V30 702 H 68.1345 -4.56128 0.654494 0
M  V30 703 H 66.4495 -4.14128 0.434414 0
M  V30 704 H 69.0465 -4.84794 -2.25563 0
M  V30 705 H 69.3895 -3.1881 -2.67705 0
M  V30 706 H 69.9225 -3.82255 -1.10119 0
M  V30 707 H 66.6615 -6.55362 0.134475 0
M  V30 708 H 66.1815 -5.82824 -1.4169 0
M  V30 709 H 67.8605 -6.36491 -1.1614 0
M  V30 710 N 67.9926 0.231505 -1.5589 0
M  V30 711 C 69.2416 0.955346 -1.7764 0
M  V30 712 C 69.5546 1.85893 -0.608546 0
M  V30 713 O 70.7606 2.62067 -0.70943 0
M  V30 714 C 69.2166 1.74886 -3.14552 0
M  V30 715 C 68.8246 0.891915 -4.39032 0
M  V30 716 C 70.5686 2.46452 -3.45633 0
M  V30 717 C 68.4756 1.68221 -5.66971 0
M  V30 718 H 67.4056 0.360446 -0.662265 0
M  V30 719 H 70.0566 0.209516 -1.823 0
M  V30 720 H 68.4386 2.53723 -3.04041 0
M  V30 721 H 69.6126 0.144793 -4.60572 0
M  V30 722 H 67.9276 0.288863 -4.15397 0
M  V30 723 H 70.5246 3.06061 -4.38441 0
M  V30 724 H 70.8676 3.18841 -2.67668 0
M  V30 725 H 71.4006 1.74613 -3.57428 0
M  V30 726 H 68.1396 1.00178 -6.478 0
M  V30 727 H 67.6596 2.4042 -5.49507 0
M  V30 728 H 69.3386 2.24544 -6.06786 0
M  V30 729 N 69.4707 1.49531 0.497807 0
M  V30 730 C 70.6957 1.63159 1.28039 0
M  V30 731 C 71.1207 0.30418 1.85624 0
M  V30 732 O 70.4787 -0.728618 1.66015 0
M  V30 733 C 70.5267 2.70537 2.38416 0
M  V30 734 O 69.6307 2.29931 3.42353 0
M  V30 735 H 68.9717 0.546001 0.377861 0
M  V30 736 H 71.5017 1.9574 0.59558 0
M  V30 737 H 71.5117 2.92802 2.84132 0
M  V30 738 H 70.1867 3.6689 1.95869 0
M  V30 739 H 68.7637 2.18009 3.02533 0
M  V30 740 N 70.9488 -0.749086 1.3866 0
M  V30 741 C 72.1948 -1.51056 1.35314 0
M  V30 742 C 72.5278 -1.94121 -0.0553751 0
M  V30 743 O 71.8028 -1.65763 -1.01749 0
M  V30 744 C 72.0858 -2.76003 2.31288 0
M  V30 745 C 71.9388 -2.39047 3.8102 0
M  V30 746 C 73.2578 -3.78046 2.2532 0
M  V30 747 H 70.3768 -0.547972 0.492844 0
M  V30 748 H 73.0188 -0.857628 1.69543 0
M  V30 749 H 71.1688 -3.31716 2.02229 0
M  V30 750 H 72.8408 -1.89074 4.20771 0
M  V30 751 H 71.0838 -1.71449 3.98482 0
M  V30 752 H 71.7548 -3.28462 4.4364 0
M  V30 753 H 74.2308 -3.31884 2.50983 0
M  V30 754 H 73.1068 -4.63159 2.94576 0
M  V30 755 H 73.3678 -4.23957 1.25352 0
M  V30 756 N 72.4269 -1.23603 -0.977757 0
M  V30 757 C 73.3569 -1.04401 -2.0886 0
M  V30 758 C 74.3379 0.0399052 -1.70053 0
M  V30 759 O 75.5229 -0.125246 -1.93796 0
M  V30 760 C 72.6529 -0.637269 -3.41403 0
M  V30 761 C 71.6069 -1.66883 -3.94124 0
M  V30 762 C 70.9329 -1.11745 -5.22893 0
M  V30 763 C 72.2329 -3.06247 -4.23096 0
M  V30 764 H 73.9269 -1.97316 -2.25182 0
M  V30 765 H 71.4729 -0.950096 -1.08209 0
M  V30 766 H 73.4259 -0.48998 -4.18542 0
M  V30 767 H 72.1499 0.327557 -3.24953 0
M  V30 768 H 70.8089 -1.80416 -3.19133 0
M  V30 769 H 70.4569 -0.143527 -5.02795 0
M  V30 770 H 70.1569 -1.80672 -5.59134 0
M  V30 771 H 71.6809 -0.982067 -6.02651 0
M  V30 772 H 73.0949 -2.96001 -4.90975 0
M  V30 773 H 71.4919 -3.72436 -4.70544 0
M  V30 774 H 72.5619 -3.55041 -3.30263 0
M  V30 775 N 73.905 1.17692 -1.04816 0
M  V30 776 C 75.316 1.69501 -0.782698 0
M  V30 777 C 75.667 1.83456 0.695577 0
M  V30 778 O 74.792 1.51942 1.54086 0
M  V30 779 C 75.387 3.07874 -1.41419 0
M  V30 780 C 73.946 3.56864 -1.19686 0
M  V30 781 C 73.093 2.3322 -1.50012 0
M  V30 782 H 76.044 1.02262 -1.2136 0
M  V30 783 H 76.065 3.71528 -0.821428 0
M  V30 784 H 75.577 2.97685 -2.49009 0
M  V30 785 H 73.678 3.72337 -0.140043 0
M  V30 786 H 73.791 4.39851 -1.89916 0
M  V30 787 H 72.155 2.37501 -0.920071 0
M  V30 788 H 72.938 2.25644 -2.58727 0
M  V30 789 N 75.3831 0.828654 1.34056 0
M  V30 790 C 76.6291 0.429279 1.98818 0
M  V30 791 C 76.9841 -0.998011 1.64492 0
M  V30 792 O 76.2771 -1.68652 0.909228 0
M  V30 793 C 76.4711 0.575226 3.52741 0
M  V30 794 C 76.3001 2.01515 4.02022 0
M  V30 795 C 75.0701 2.64825 4.30344 0
M  V30 796 C 77.2681 2.98261 4.18981 0
M  V30 797 N 75.2501 3.99998 4.65698 0
M  V30 798 C 76.6211 4.18356 4.57578 0
M  V30 799 C 78.6761 2.94802 4.01243 0
M  V30 800 C 77.3791 5.35454 4.80293 0
M  V30 801 C 79.4051 4.11121 4.25128 0
M  V30 802 C 78.7671 5.29969 4.64018 0
M  V30 803 H 74.8661 0.205304 0.754569 0
M  V30 804 H 77.4501 1.07457 1.62361 0
M  V30 805 H 75.6211 -0.0401962 3.88379 0
M  V30 806 H 77.3531 0.148292 4.04428 0
M  V30 807 H 74.1081 2.16027 4.21461 0
M  V30 808 H 74.5321 4.69653 4.87601 0
M  V30 809 H 79.1741 2.04054 3.70299 0
M  V30 810 H 76.8921 6.26755 5.10102 0
M  V30 811 H 80.4781 4.0985 4.12934 0
M  V30 812 H 79.3581 6.18479 4.82134 0
M  V30 813 N 76.8612 -1.46375 0.584142 0
M  V30 814 C 77.8082 -2.30323 -0.148286 0
M  V30 815 C 78.7782 -1.40703 -0.882713 0
M  V30 816 O 79.9632 -1.69651 -0.873099 0
M  V30 817 C 77.1032 -3.25196 -1.15507 0
M  V30 818 C 76.2162 -4.29915 -0.423943 0
M  V30 819 C 75.3512 -5.11914 -1.41838 0
M  V30 820 C 74.3902 -6.08381 -0.673736 0
M  V30 821 N 73.5272 -6.83242 -1.6163 0
M  V30 822 H 78.3672 -2.92427 0.573644 0
M  V30 823 H 75.9042 -1.44118 0.294703 0
M  V30 824 H 77.8622 -3.78646 -1.75166 0
M  V30 825 H 76.4922 -2.64898 -1.8447 0
M  V30 826 H 75.5442 -3.7931 0.287714 0
M  V30 827 H 76.8562 -4.98549 0.158128 0
M  V30 828 H 76.0102 -5.69648 -2.08773 0
M  V30 829 H 74.7492 -4.43243 -2.03438 0
M  V30 830 H 73.7542 -5.49799 0.00938483 0
M  V30 831 H 74.9792 -6.79071 -0.0631082 0
M  V30 832 H 72.9252 -6.1728 -2.22038 0
M  V30 833 H 72.8422 -7.48144 -1.08707 0
M  V30 834 H 74.1102 -7.45534 -2.27596 0
M  V30 835 N 78.3393 -0.321999 -1.54275 0
M  V30 836 C 79.7553 0.0306999 -1.5957 0
M  V30 837 C 79.9553 1.50614 -1.33857 0
M  V30 838 O 79.0113 2.2619 -1.12223 0
M  V30 839 C 80.3243 -0.386122 -2.98211 0
M  V30 840 C 81.8723 -0.336647 -3.11184 0
M  V30 841 C 82.3473 -0.728607 -4.52167 0
M  V30 842 N 83.8383 -0.681952 -4.58152 0
M  V30 843 C 84.5733 -0.957449 -5.6535 0
M  V30 844 N 84.0693 -1.3 -6.80494 0
M  V30 845 N 85.8623 -0.883113 -5.55119 0
M  V30 846 H 78.0133 -1.28332 -1.69247 0
M  V30 847 H 80.2763 -0.521716 -0.791528 0
M  V30 848 H 79.9823 -1.41404 -3.22022 0
M  V30 849 H 79.8563 0.249662 -3.76373 0
M  V30 850 H 82.2433 0.682058 -2.8711 0
M  V30 851 H 82.3243 -1.00734 -2.3513 0
M  V30 852 H 81.9683 -1.74522 -4.76974 0
M  V30 853 H 81.8983 -0.0356152 -5.26588 0
M  V30 854 H 84.3893 -0.428985 -3.75457 0
M  V30 855 H 84.7023 -1.49563 -7.58189 0
M  V30 856 H 83.0473 -1.33824 -6.81994 0
M  V30 857 H 86.2383 -0.615001 -4.64042 0
M  V30 858 H 86.4113 -1.10118 -6.38575 0
M  V30 859 N 79.8174 1.5752 -0.0501392 0
M  V30 860 C 81.0664 1.91827 0.623328 0
M  V30 861 C 81.3794 0.930222 1.72065 0
M  V30 862 O 82.5854 1.1653 2.4522 0
M  V30 863 C 81.0414 3.40692 1.16003 0
M  V30 864 C 80.6494 4.479 0.0948811 0
M  V30 865 C 82.3934 3.84034 1.80881 0
M  V30 866 C 80.3004 5.87879 0.644411 0
M  V30 867 H 79.2304 0.715918 0.236596 0
M  V30 868 H 81.8814 1.83115 -0.118861 0
M  V30 869 H 80.2634 3.44405 1.9545 0
M  V30 870 H 81.4374 4.55775 -0.678675 0
M  V30 871 H 79.7524 4.13892 -0.45637 0
M  V30 872 H 82.3494 4.85984 2.22988 0
M  V30 873 H 82.6924 3.20225 2.6601 0
M  V30 874 H 83.2254 3.82833 1.0809 0
M  V30 875 H 79.9644 6.55282 -0.169229 0
M  V30 876 H 79.4844 5.83567 1.38598 0
M  V30 877 H 81.1634 6.37098 1.12763 0
M  V30 878 N 81.2955 -0.223234 1.56011 0
M  V30 879 C 82.5415 -0.949279 1.79211 0
M  V30 880 C 82.8745 -1.84054 0.619494 0
M  V30 881 O 82.1495 -1.90726 -0.381317 0
M  V30 882 C 82.4325 -1.78965 3.12479 0
M  V30 883 C 82.2855 -0.924997 4.40186 0
M  V30 884 C 83.6045 -2.76774 3.42175 0
M  V30 885 H 80.7235 -0.343676 0.651963 0
M  V30 886 H 83.3655 -0.218253 1.88742 0
M  V30 887 H 81.5155 -2.41291 3.04485 0
M  V30 888 H 83.1875 -0.318615 4.60198 0
M  V30 889 H 81.4305 -0.230344 4.33188 0
M  V30 890 H 82.1015 -1.54735 5.29869 0
M  V30 891 H 84.5775 -2.24584 3.50287 0
M  V30 892 H 83.4535 -3.32678 4.36597 0
M  V30 893 H 83.7145 -3.54429 2.64258 0
M  V30 894 N 82.7736 -1.49793 -0.48987 0
M  V30 895 C 83.7366 -1.66752 -1.57246 0
M  V30 896 C 84.7366 -0.538867 -1.51502 0
M  V30 897 O 85.9266 -0.805545 -1.54456 0
M  V30 898 C 83.0586 -1.67528 -2.96896 0
M  V30 899 H 84.2516 -2.63321 -1.43534 0
M  V30 900 H 81.8046 -1.38992 -0.714914 0
M  V30 901 H 82.5396 -0.725837 -3.16073 0
M  V30 902 H 82.3246 -2.49504 -3.02473 0
M  V30 903 H 83.8146 -1.82667 -3.7553 0
M  V30 904 N 84.2517 0.741722 -1.39055 0
M  V30 905 C 85.4977 1.50336 -1.36113 0
M  V30 906 C 85.8307 1.94148 0.0450796 0
M  V30 907 O 85.1057 1.66301 1.00868 0
M  V30 908 C 85.3887 2.74773 -2.32749 0
M  V30 909 C 85.2417 2.37023 -3.82283 0
M  V30 910 C 86.5607 3.76846 -2.27322 0
M  V30 911 H 83.6797 0.545351 -0.495743 0
M  V30 912 H 86.3217 0.848624 -1.69995 0
M  V30 913 H 84.4717 3.30639 -2.03986 0
M  V30 914 H 86.1437 1.8684 -4.21768 0
M  V30 915 H 84.3867 1.69334 -3.99385 0
M  V30 916 H 85.0577 3.26104 -4.45376 0
M  V30 917 H 87.5337 3.30548 -2.5274 0
M  V30 918 H 86.4097 4.6159 -2.97028 0
M  V30 919 H 86.6707 4.23286 -1.27599 0
M  V30 920 N 85.7298 1.2412 0.971189 0
M  V30 921 C 86.9548 1.10667 1.75407 0
M  V30 922 C 87.3798 -0.337048 1.85056 0
M  V30 923 O 86.7378 -1.24396 1.31892 0
M  V30 924 C 86.7858 1.74726 3.15441 0
M  V30 925 O 85.8898 1.01566 3.99697 0
M  V30 926 H 85.2308 0.387341 0.539317 0
M  V30 927 H 87.7608 1.64358 1.2185 0
M  V30 928 H 87.7708 1.80341 3.6598 0
M  V30 929 H 86.4458 2.79773 3.07734 0
M  V30 930 H 85.0228 1.03713 3.58187 0
M  V30 931 N 87.2079 -1.17134 1.05439 0
M  V30 932 C 88.1709 -2.19439 0.661764 0
M  V30 933 C 89.1709 -1.58199 -0.288042 0
M  V30 934 O 90.3609 -1.74053 -0.0715803 0
M  V30 935 C 87.4929 -3.40889 -0.0276209 0
M  V30 936 H 88.6859 -2.55688 1.56728 0
M  V30 937 H 86.2389 -1.31259 0.848567 0
M  V30 938 H 86.9739 -3.10187 -0.94629 0
M  V30 939 H 86.7589 -3.86586 0.655238 0
M  V30 940 H 88.2489 -4.16603 -0.288342 0
M  V30 941 N 88.686 -0.835752 -1.33615 0
M  V30 942 C 89.633 -0.26473 -2.29277 0
M  V30 943 C 90.603 0.617712 -1.54187 0
M  V30 944 O 91.788 0.556641 -1.825 0
M  V30 945 C 88.928 0.556777 -3.40579 0
M  V30 946 C 88.041 -0.349339 -4.30585 0
M  V30 947 C 87.176 0.482969 -5.29 0
M  V30 948 C 86.215 -0.421732 -6.10645 0
M  V30 949 N 85.352 0.372262 -7.01112 0
M  V30 950 H 90.192 -1.08582 -2.77514 0
M  V30 951 H 87.729 -0.546927 -1.36554 0
M  V30 952 H 89.687 1.04852 -4.03809 0
M  V30 953 H 88.317 1.34286 -2.93542 0
M  V30 954 H 87.369 -0.959372 -3.68104 0
M  V30 955 H 88.681 -1.04445 -4.87742 0
M  V30 956 H 87.835 1.03866 -5.97743 0
M  V30 957 H 86.574 1.21153 -4.72412 0
M  V30 958 H 85.579 -0.989464 -5.40823 0
M  V30 959 H 86.804 -1.14861 -6.69316 0
M  V30 960 H 84.75 1.08426 -6.46977 0
M  V30 961 H 84.667 -0.264198 -7.55538 0
M  V30 962 H 85.935 0.910293 -7.74167 0
M  V30 963 N 90.1641 1.46063 -0.591896 0
M  V30 964 C 91.1111 2.30399 0.136069 0
M  V30 965 C 92.0811 1.41169 0.875238 0
M  V30 966 O 93.2661 1.70112 0.86409 0
M  V30 967 C 90.4061 3.25804 1.13781 0
M  V30 968 C 89.5191 4.30134 0.401137 0
M  V30 969 C 88.6541 5.12659 1.39121 0
M  V30 970 C 87.6931 6.0873 0.641462 0
M  V30 971 N 86.8301 6.8409 1.58004 0
M  V30 972 H 91.6701 2.92118 -0.589144 0
M  V30 973 H 89.2071 1.43959 -0.302342 0
M  V30 974 H 91.1651 3.79569 1.73156 0
M  V30 975 H 89.7951 2.65872 1.83062 0
M  V30 976 H 88.8471 3.79152 -0.307826 0
M  V30 977 H 90.1591 4.98458 -0.184565 0
M  V30 978 H 89.3131 5.70747 2.05749 0
M  V30 979 H 88.0521 4.44316 2.01084 0
M  V30 980 H 87.0571 5.49786 -0.0385419 0
M  V30 981 H 88.2821 6.79095 0.0270945 0
M  V30 982 H 86.2281 6.18449 2.18761 0
M  V30 983 H 86.1451 7.48709 1.04738 0
M  V30 984 H 87.4131 7.4673 2.23639 0
M  V30 985 N 91.6422 0.330177 1.54103 0
M  V30 986 C 92.5892 -0.532762 2.24567 0
M  V30 987 C 93.5592 -1.10635 1.23892 0
M  V30 988 O 94.7442 -1.14546 1.5259 0
M  V30 989 C 91.8842 -1.6845 3.01195 0
M  V30 990 C 90.9972 -1.13951 4.167 0
M  V30 991 C 90.1322 -2.25746 4.80845 0
M  V30 992 C 89.1712 -1.6853 5.88442 0
M  V30 993 N 88.3082 -2.74014 6.46421 0
M  V30 994 H 93.1482 0.0746905 2.97906 0
M  V30 995 H 90.6852 0.048632 1.4702 0
M  V30 996 H 92.6432 -2.36234 3.43874 0
M  V30 997 H 91.2732 -2.26314 2.30178 0
M  V30 998 H 90.3252 -0.35301 3.78758 0
M  V30 999 H 91.6372 -0.680892 4.94131 0
M  V30 1000 H 90.7912 -3.01422 5.26526 0
M  V30 1001 H 89.5302 -2.74947 4.0281 0
M  V30 1002 H 88.5352 -0.913543 5.42157 0
M  V30 1003 H 89.7602 -1.20198 6.68378 0
M  V30 1004 H 87.7062 -3.22494 5.71256 0
M  V30 1005 H 87.6232 -2.32735 7.19285 0
M  V30 1006 H 88.8912 -3.49499 6.96757 0
M  V30 1007 N 93.1203 -1.57491 0.0584922 0
M  V30 1008 C 94.0683 -2.13148 -0.931168 0
M  V30 1009 C 95.0623 -1.06507 -1.31729 0
M  V30 1010 O 96.2683 -1.24906 -1.29609 0
M  V30 1011 H 92.6433 -0.68137 -0.31818 0
M  V30 1012 H 94.6143 -2.95187 -0.436707 0
M  V30 1013 C 93.3633 -2.69732 -2.19408 0
M  V30 1014 H 92.6863 -3.51454 -1.90578 0
M  V30 1015 H 94.1263 -3.12287 -2.86798 0
M  V30 1016 C 92.5853 -1.63855 -2.94369 0
M  V30 1017 O 93.1153 -1.05565 -3.87581 0
M  V30 1018 N 91.3213 -1.35202 -2.57233 0
M  V30 1019 H 90.8683 -1.82791 -1.81508 0
M  V30 1020 H 90.8263 -0.645922 -3.07693 0
M  V30 1021 N 94.5984 0.214957 -1.56127 0
M  V30 1022 C 95.8234 0.95924 -1.83884 0
M  V30 1023 C 96.2484 1.7689 -0.639644 0
M  V30 1024 O 95.6064 1.76566 0.411601 0
M  V30 1025 C 95.6544 1.84723 -3.09693 0
M  V30 1026 O 94.7584 2.94346 -2.8885 0
M  V30 1027 H 94.0994 0.27125 -0.606069 0
M  V30 1028 H 96.6294 0.226276 -2.03345 0
M  V30 1029 H 96.6394 2.25576 -3.39969 0
M  V30 1030 H 95.3144 1.25218 -3.96602 0
M  V30 1031 H 93.8914 2.57391 -2.69823 0
M  V30 1032 N 96.0765 1.50051 0.48192 0
M  V30 1033 C 97.0235 1.68122 1.58125 0
M  V30 1034 C 97.9935 0.522545 1.57666 0
M  V30 1035 O 99.1785 0.751844 1.75362 0
M  V30 1036 C 96.3185 1.77142 2.96167 0
M  V30 1037 C 95.4315 3.0444 3.06497 0
M  V30 1038 C 94.5665 3.04321 4.35387 0
M  V30 1039 C 93.6055 4.26118 4.3942 0
M  V30 1040 N 92.7425 4.238 5.59766 0
M  V30 1041 H 97.5825 2.6198 1.42022 0
M  V30 1042 H 95.1195 1.29877 0.690687 0
M  V30 1043 H 97.0775 1.80352 3.76203 0
M  V30 1044 H 95.7075 0.867329 3.1093 0
M  V30 1045 H 94.7595 3.10752 2.19402 0
M  V30 1046 H 96.0715 3.94426 3.05336 0
M  V30 1047 H 95.2255 3.062 5.23762 0
M  V30 1048 H 93.9645 2.12147 4.39141 0
M  V30 1049 H 92.9695 4.24463 3.49444 0
M  V30 1050 H 94.1945 5.19507 4.37366 0
M  V30 1051 H 92.1405 3.34474 5.64326 0
M  V30 1052 H 92.0575 5.07542 5.60301 0
M  V30 1053 H 93.3255 4.2981 6.50295 0
M  V30 1054 N 97.5546 -0.734337 1.39446 0
M  V30 1055 C 98.5016 -1.84835 1.38219 0
M  V30 1056 C 99.4716 -1.64331 0.24179 0
M  V30 1057 O 100.657 -1.85728 0.437002 0
M  V30 1058 C 97.7966 -3.22355 1.23212 0
M  V30 1059 C 96.9096 -3.5456 2.46801 0
M  V30 1060 C 96.0446 -4.81485 2.24377 0
M  V30 1061 C 95.0836 -5.06536 3.43639 0
M  V30 1062 N 94.2206 -6.24665 3.20528 0
M  V30 1063 H 99.0606 -1.85219 2.33448 0
M  V30 1064 H 96.5976 -0.905039 1.15963 0
M  V30 1065 H 98.5556 -4.0174 1.12522 0
M  V30 1066 H 97.1856 -3.21248 0.316121 0
M  V30 1067 H 96.2376 -2.69872 2.68092 0
M  V30 1068 H 97.5496 -3.6899 3.3563 0
M  V30 1069 H 96.7036 -5.68852 2.10933 0
M  V30 1070 H 95.4426 -4.6923 1.32944 0
M  V30 1071 H 94.4476 -4.17632 3.5758 0
M  V30 1072 H 95.6726 -5.20676 4.35974 0
M  V30 1073 H 93.6186 -6.13696 2.3176 0
M  V30 1074 H 93.5356 -6.39685 4.02913 0
M  V30 1075 H 94.8036 -7.14868 3.10779 0
M  V30 1076 N 99.0327 -1.24633 -0.964593 0
M  V30 1077 C 100.279 -1.08949 -1.71049 0
M  V30 1078 C 100.612 0.370302 -1.90637 0
M  V30 1079 O 99.8867 1.27349 -1.47011 0
M  V30 1080 C 100.17 -1.83329 -3.0994 0
M  V30 1081 C 100.023 -3.37077 -2.97824 0
M  V30 1082 C 101.342 -1.60846 -4.09654 0
M  V30 1083 H 98.4607 -0.397178 -0.620821 0
M  V30 1084 H 101.103 -1.5334 -1.12191 0
M  V30 1085 H 99.2527 -1.45597 -3.60186 0
M  V30 1086 H 100.925 -3.84425 -2.5498 0
M  V30 1087 H 99.1677 -3.65298 -2.33965 0
M  V30 1088 H 99.8387 -3.84324 -3.96231 0
M  V30 1089 H 102.315 -1.93674 -3.68279 0
M  V30 1090 H 101.191 -2.1534 -5.04896 0
M  V30 1091 H 101.452 -0.547434 -4.38698 0
M  V30 1092 N 100.511 1.16574 -1.06058 0
M  V30 1093 C 101.443 2.2045 -0.627239 0
M  V30 1094 C 102.456 1.59752 0.313534 0
M  V30 1095 O 103.645 1.78192 0.104896 0
M  V30 1096 C 100.745 3.3875 0.100974 0
M  V30 1097 C 99.9178 4.29008 -0.852687 0
M  V30 1098 C 98.9768 5.25944 -0.164152 0
M  V30 1099 O 98.0028 5.63535 -0.801047 0
M  V30 1100 N 99.2048 5.70075 1.09518 0
M  V30 1101 H 101.97 2.58249 -1.52077 0
M  V30 1102 H 99.5308 1.3156 -0.943594 0
M  V30 1103 H 101.523 4.00638 0.57194 0
M  V30 1104 H 100.093 2.99476 0.89628 0
M  V30 1105 H 99.3128 3.64419 -1.50308 0
M  V30 1106 H 100.601 4.86195 -1.49972 0
M  V30 1107 H 99.9988 5.41624 1.6328 0
M  V30 1108 H 98.5558 6.34067 1.51006 0
M  V30 1109 N 101.989 0.842826 1.3317 0
M  V30 1110 C 103.4 0.496651 1.79973 0
M  V30 1111 C 103.751 -0.984641 1.69703 0
M  V30 1112 O 102.876 -1.76743 1.24863 0
M  V30 1113 C 103.471 0.894727 3.26772 0
M  V30 1114 C 102.03 0.600629 3.71577 0
M  V30 1115 C 101.177 1.10091 2.5451 0
M  V30 1116 H 104.128 1.03116 1.20635 0
M  V30 1117 H 104.149 0.206347 3.7994 0
M  V30 1118 H 103.661 1.97287 3.34215 0
M  V30 1119 H 101.762 -0.467284 3.69658 0
M  V30 1120 H 101.875 1.15863 4.64879 0
M  V30 1121 H 100.239 0.52162 2.49301 0
M  V30 1122 H 101.022 2.18591 2.64713 0
M  V30 1123 N 103.467 -1.45747 0.599634 0
M  V30 1124 C 104.415 -2.322 -0.136426 0
M  V30 1125 C 105.409 -1.45497 -0.867583 0
M  V30 1126 O 106.615 -1.62027 -0.78405 0
M  V30 1127 H 102.99 -0.749368 -0.0628588 0
M  V30 1128 H 104.961 -2.92072 0.611281 0
M  V30 1129 C 103.71 -3.28974 -1.12567 0
M  V30 1130 H 103.033 -3.9568 -0.572484 0
M  V30 1131 H 104.473 -3.92212 -1.61077 0
M  V30 1132 C 102.932 -2.55561 -2.19523 0
M  V30 1133 O 103.462 -2.33111 -3.27143 0
M  V30 1134 N 101.668 -2.15832 -1.94589 0
M  V30 1135 H 101.215 -2.3429 -1.07078 0
M  V30 1136 H 101.173 -1.67034 -2.66359 0
M  V30 1137 N 104.945 -0.338344 -1.53925 0
M  V30 1138 C 106.17 0.263987 -2.05713 0
M  V30 1139 C 106.595 1.43847 -1.21201 0
M  V30 1140 O 105.953 1.79904 -0.224535 0
M  V30 1141 C 106.001 0.662 -3.54471 0
M  V30 1142 O 105.105 1.76265 -3.72833 0
M  V30 1143 H 104.446 0.0448722 -0.662482 0
M  V30 1144 H 106.976 -0.491048 -1.9862 0
M  V30 1145 H 106.986 0.940594 -3.9701 0
M  V30 1146 H 105.661 -0.196937 -4.15433 0
M  V30 1147 H 104.238 1.48173 -3.42198 0
M  V30 1148 N 106.423 1.57458 -0.0668435 0
M  V30 1149 C 107.648 1.9804 0.616027 0
M  V30 1150 C 108.073 0.944771 1.62652 0
M  V30 1151 O 107.431 -0.0902094 1.81075 0
M  V30 1152 C 107.479 3.37665 1.26549 0
M  V30 1153 O 106.583 3.36701 2.38131 0
M  V30 1154 H 105.924 0.644719 0.158849 0
M  V30 1155 H 108.454 2.04121 -0.139891 0
M  V30 1156 H 108.464 3.7474 1.6135 0
M  V30 1157 H 107.139 4.12573 0.525016 0
M  V30 1158 H 105.716 3.1139 2.0516 0
M  V30 1159 N 107.901 -0.206675 1.56239 0
M  V30 1160 C 109.131 -0.943975 1.83773 0
M  V30 1161 C 109.539 -1.77841 0.645703 0
M  V30 1162 O 108.882 -1.79403 -0.395008 0
M  V30 1163 C 108.944 -1.899 3.05251 0
M  V30 1164 C 108.608 -1.24764 4.39639 0
M  V30 1165 C 109.605 -0.630216 5.16066 0
M  V30 1166 C 107.29 -1.25496 4.8637 0
M  V30 1167 C 109.284 -0.0287946 6.37393 0
M  V30 1168 C 106.971 -0.649698 6.07637 0
M  V30 1169 C 107.969 -0.0376845 6.8299 0
M  V30 1170 O 107.657 0.55812 8.0196 0
M  V30 1171 H 107.389 -0.281508 0.614597 0
M  V30 1172 H 109.943 -0.222458 2.04192 0
M  V30 1173 H 108.173 -2.6599 2.80689 0
M  V30 1174 H 109.862 -2.5031 3.1953 0
M  V30 1175 H 110.628 -0.616785 4.81062 0
M  V30 1176 H 106.507 -1.72072 4.27683 0
M  V30 1177 H 110.051 0.449518 6.9615 0
M  V30 1178 H 105.948 -0.660592 6.42111 0
M  V30 1179 H 106.716 0.453891 8.17241 0
M  V30 1180 N 109.379 -1.50304 -0.473955 0
M  V30 1181 C 110.311 -1.65109 -1.58971 0
M  V30 1182 C 111.324 -0.532676 -1.53839 0
M  V30 1183 O 112.513 -0.805751 -1.59279 0
M  V30 1184 C 109.613 -1.61684 -2.97845 0
M  V30 1185 C 108.786 -2.8951 -3.27876 0
M  V30 1186 C 107.845 -2.78768 -4.4629 0
M  V30 1187 O 106.871 -3.52722 -4.46739 0
M  V30 1188 N 108.073 -1.9213 -5.47783 0
M  V30 1189 H 110.838 -2.61347 -1.46689 0
M  V30 1190 H 108.399 -1.47732 -0.662324 0
M  V30 1191 H 110.391 -1.52114 -3.75024 0
M  V30 1192 H 108.961 -0.731925 -3.03911 0
M  V30 1193 H 108.181 -3.13228 -2.39336 0
M  V30 1194 H 109.469 -3.74199 -3.4475 0
M  V30 1195 H 108.867 -1.31353 -5.50239 0
M  V30 1196 H 107.424 -1.88466 -6.23958 0
M  V30 1197 N 110.857 0.726932 -1.39834 0
M  V30 1198 C 111.805 1.86235 -1.39353 0
M  V30 1199 C 112.799 1.67144 -0.275555 0
M  V30 1200 O 114.005 1.74387 -0.44601 0
M  V30 1201 H 110.38 0.613174 -0.43534 0
M  V30 1202 H 112.351 1.83756 -2.35109 0
M  V30 1203 C 111.1 3.23995 -1.26185 0
M  V30 1204 H 110.423 3.39285 -2.11484 0
M  V30 1205 H 111.863 4.03609 -1.29907 0
M  V30 1206 C 110.322 3.36888 0.0290018 0
M  V30 1207 O 110.852 3.89152 0.99619 0
M  V30 1208 N 109.058 2.90446 0.0947437 0
M  V30 1209 H 108.605 2.48102 -0.693035 0
M  V30 1210 H 108.563 2.99451 0.957932 0
M  V30 1211 N 112.336 1.25143 0.95797 0
M  V30 1212 C 113.284 1.05019 2.07542 0
M  V30 1213 C 114.278 -0.0178751 1.69391 0
M  V30 1214 O 115.484 0.137472 1.79474 0
M  V30 1215 H 111.859 0.32265 0.679265 0
M  V30 1216 H 113.83 1.99759 2.21673 0
M  V30 1217 C 112.579 0.682074 3.40944 0
M  V30 1218 H 111.902 1.49573 3.70767 0
M  V30 1219 H 113.342 0.580945 4.20001 0
M  V30 1220 C 111.801 -0.611608 3.31302 0
M  V30 1221 O 112.331 -1.65465 3.66038 0
M  V30 1222 N 110.537 -0.595982 2.84423 0
M  V30 1223 H 110.084 0.253192 2.56353 0
M  V30 1224 H 110.042 -1.46173 2.78354 0
M  V30 1225 N 113.814 -1.1601 1.06675 0
M  V30 1226 C 115.063 -1.85973 0.780818 0
M  V30 1227 C 115.376 -1.82819 -0.695444 0
M  V30 1228 O 116.582 -2.484 -1.09589 0
M  V30 1229 C 115.038 -3.33757 1.34665 0
M  V30 1230 C 114.646 -3.45374 2.85343 0
M  V30 1231 C 116.39 -4.0895 1.13843 0
M  V30 1232 C 114.297 -4.87266 3.35151 0
M  V30 1233 H 113.227 -0.696661 0.288407 0
M  V30 1234 H 115.878 -1.30903 1.28595 0
M  V30 1235 H 114.26 -3.88456 0.769274 0
M  V30 1236 H 115.434 -3.00816 3.49065 0
M  V30 1237 H 113.749 -2.83619 3.04876 0
M  V30 1238 H 116.346 -5.13654 1.4854 0
M  V30 1239 H 116.689 -4.16229 0.0770282 0
M  V30 1240 H 117.222 -3.605 1.68179 0
M  V30 1241 H 113.961 -4.85168 4.40786 0
M  V30 1242 H 113.481 -5.32433 2.76179 0
M  V30 1243 H 115.16 -5.56097 3.30704 0
M  V30 1244 N 115.292 -0.849877 -1.32721 0
M  V30 1245 C 116.52 -0.464754 -2.01613 0
M  V30 1246 C 116.935 0.937191 -1.63897 0
M  V30 1247 O 116.292 1.61081 -0.857856 0
M  V30 1248 C 116.343 -0.588638 -3.56675 0
M  V30 1249 O 116.064 -1.93535 -3.93034 0
M  V30 1250 C 117.565 -0.2019 -4.4284 0
M  V30 1251 H 114.785 -0.183215 -0.645502 0
M  V30 1252 H 117.329 -1.1455 -1.69407 0
M  V30 1253 H 115.484 0.0443159 -3.87375 0
M  V30 1254 H 115.898 -1.92871 -4.87751 0
M  V30 1255 H 117.372 -0.339599 -5.50954 0
M  V30 1256 H 117.849 0.857224 -4.30753 0
M  V30 1257 H 118.455 -0.809733 -4.17521 0
M  V30 1258 N 116.77 1.45427 -0.607355 0
M  V30 1259 C 117.72 2.27612 0.133038 0
M  V30 1260 C 118.704 1.37307 0.838785 0
M  V30 1261 O 119.896 1.61299 0.728813 0
M  V30 1262 C 117.025 3.24173 1.12991 0
M  V30 1263 C 116.111 4.21965 0.425011 0
M  V30 1264 N 116.502 5.02982 -0.533217 0
M  V30 1265 C 114.8 4.40899 0.672593 0
M  V30 1266 C 115.501 5.73931 -0.947518 0
M  V30 1267 N 114.477 5.42819 -0.291321 0
M  V30 1268 H 118.279 2.87649 -0.602935 0
M  V30 1269 H 115.793 1.56576 -0.431006 0
M  V30 1270 H 117.79 3.81783 1.67473 0
M  V30 1271 H 116.45 2.65696 1.86644 0
M  V30 1272 H 117.461 5.09843 -0.90995 0
M  V30 1273 H 114.138 3.93547 1.39382 0
M  V30 1274 H 115.528 6.49037 -1.73782 0
M  V30 1275 N 118.248 0.346503 1.53744 0
M  V30 1276 C 119.178 -0.501193 2.28058 0
M  V30 1277 C 120.159 -1.10014 1.29734 0
M  V30 1278 O 121.344 -1.12097 1.58581 0
M  V30 1279 C 118.474 -1.65078 3.05559 0
M  V30 1280 C 117.428 -1.18003 4.11411 0
M  V30 1281 C 116.754 -2.41837 4.76884 0
M  V30 1282 C 118.054 -0.278394 5.21558 0
M  V30 1283 H 119.748 0.11875 2.99164 0
M  V30 1284 H 117.294 0.0585531 1.43881 0
M  V30 1285 H 119.247 -2.25028 3.56287 0
M  V30 1286 H 117.971 -2.29767 2.32109 0
M  V30 1287 H 116.63 -0.603331 3.61601 0
M  V30 1288 H 116.278 -3.0494 4.00026 0
M  V30 1289 H 115.978 -2.1102 5.48402 0
M  V30 1290 H 117.502 -3.02508 5.30397 0
M  V30 1291 H 118.916 -0.784823 5.67903 0
M  V30 1292 H 117.313 -0.0619707 6.00068 0
M  V30 1293 H 118.383 0.684677 4.80042 0
M  V30 1294 N 119.726 -1.57421 0.075193 0
M  V30 1295 C 120.674 -2.14124 -0.908508 0
M  V30 1296 C 121.668 -1.07898 -1.30592 0
M  V30 1297 O 122.874 -1.26273 -1.28277 0
M  V30 1298 H 119.249 -0.684707 -0.310935 0
M  V30 1299 H 121.22 -2.95634 -0.405374 0
M  V30 1300 C 119.969 -2.72044 -2.16535 0
M  V30 1301 H 119.292 -3.53456 -1.86839 0
M  V30 1302 H 120.732 -3.15311 -2.83469 0
M  V30 1303 C 119.191 -1.66968 -2.92615 0
M  V30 1304 O 119.721 -1.0967 -3.86439 0
M  V30 1305 N 117.927 -1.37923 -2.55784 0
M  V30 1306 H 117.474 -1.84706 -1.79559 0
M  V30 1307 H 117.432 -0.67852 -3.06991 0
M  V30 1308 N 121.204 0.198386 -1.56346 0
M  V30 1309 C 122.152 1.26538 -1.95169 0
M  V30 1310 C 123.146 1.47295 -0.836685 0
M  V30 1311 O 124.352 1.48195 -1.02167 0
M  V30 1312 H 120.727 0.424744 -0.620561 0
M  V30 1313 H 122.698 0.910904 -2.84157 0
M  V30 1314 C 121.447 2.6035 -2.30463 0
M  V30 1315 H 120.77 2.45192 -3.15786 0
M  V30 1316 H 122.21 3.33762 -2.61494 0
M  V30 1317 C 120.669 3.17096 -1.13806 0
M  V30 1318 O 121.199 3.99588 -0.41135 0
M  V30 1319 N 119.405 2.75795 -0.915736 0
M  V30 1320 H 118.952 2.08816 -1.50843 0
M  V30 1321 H 118.91 3.14101 -0.136979 0
M  V30 1322 N 122.682 1.50554 0.465978 0
M  V30 1323 C 123.592 1.72585 1.58907 0
M  V30 1324 C 124.608 0.60911 1.6299 0
M  V30 1325 O 125.784 0.88804 1.80765 0
M  V30 1326 C 122.849 1.81995 2.95091 0
M  V30 1327 C 121.91 3.05751 3.01355 0
M  V30 1328 C 121.143 3.14702 4.31043 0
M  V30 1329 O 121.366 2.30313 5.21835 0
M  V30 1330 O 120.3 4.07468 4.43005 0
M  V30 1331 H 124.126 2.67799 1.43239 0
M  V30 1332 H 121.711 1.34711 0.646013 0
M  V30 1333 H 123.593 1.90335 3.75966 0
M  V30 1334 H 122.268 0.899659 3.10947 0
M  V30 1335 H 121.175 3.02908 2.19539 0
M  V30 1336 H 122.508 3.97375 2.90437 0
M  V30 1337 N 124.16 -0.719506 1.40217 0
M  V30 1338 C 125.108 -1.85493 1.40339 0
M  V30 1339 C 126.102 -1.66995 0.284415 0
M  V30 1340 O 127.308 -1.74148 0.455252 0
M  V30 1341 H 123.683 -0.610857 0.438586 0
M  V30 1342 H 125.654 -1.82506 2.36081 0
M  V30 1343 C 124.403 -3.23321 1.27901 0
M  V30 1344 H 123.726 -3.38159 2.1328 0
M  V30 1345 H 125.166 -4.02914 1.32045 0
M  V30 1346 C 123.625 -3.36898 -0.0111355 0
M  V30 1347 O 124.155 -3.89674 -0.975538 0
M  V30 1348 N 122.361 -2.90492 -0.0793393 0
M  V30 1349 H 121.908 -2.47731 0.706183 0
M  V30 1350 H 121.866 -2.99955 -0.942038 0
M  V30 1351 N 125.638 -1.25649 -0.95132 0
M  V30 1352 C 126.568 -1.08808 -2.06599 0
M  V30 1353 C 127.549 0.00382547 -1.701 0
M  V30 1354 O 128.734 -0.166325 -1.93486 0
M  V30 1355 C 125.864 -0.709542 -3.39975 0
M  V30 1356 C 124.818 -1.75206 -3.90496 0
M  V30 1357 C 124.144 -1.22811 -5.20405 0
M  V30 1358 C 125.444 -3.15153 -4.16504 0
M  V30 1359 H 127.138 -2.02048 -2.20946 0
M  V30 1360 H 124.684 -0.972835 -1.06169 0
M  V30 1361 H 126.637 -0.578649 -4.17408 0
M  V30 1362 H 125.361 0.258556 -3.25575 0
M  V30 1363 H 124.02 -1.87145 -3.15234 0
M  V30 1364 H 123.668 -0.250145 -5.02378 0
M  V30 1365 H 123.368 -1.92492 -5.55176 0
M  V30 1366 H 124.892 -1.10968 -6.00432 0
M  V30 1367 H 126.306 -3.06349 -4.84586 0
M  V30 1368 H 124.703 -3.82333 -4.62538 0
M  V30 1369 H 125.773 -3.61966 -3.22658 0
M  V30 1370 N 127.117 1.15442 -1.07289 0
M  V30 1371 C 128.064 2.20161 -0.692653 0
M  V30 1372 C 129.034 1.63073 0.31564 0
M  V30 1373 O 130.219 1.89725 0.202235 0
M  V30 1374 C 127.359 3.44967 -0.0959509 0
M  V30 1375 C 126.472 4.16256 -1.15564 0
M  V30 1376 C 125.607 5.28609 -0.524011 0
M  V30 1377 C 124.646 5.91715 -1.56653 0
M  V30 1378 N 123.783 6.9554 -0.957531 0
M  V30 1379 H 128.623 2.52037 -1.59002 0
M  V30 1380 H 126.16 1.2378 -0.794798 0
M  V30 1381 H 128.118 4.16341 0.267628 0
M  V30 1382 H 126.748 3.1361 0.764772 0
M  V30 1383 H 125.8 3.43385 -1.6368 0
M  V30 1384 H 127.112 4.59268 -1.94613 0
M  V30 1385 H 126.266 6.06604 -0.108032 0
M  V30 1386 H 125.005 4.86787 0.29825 0
M  V30 1387 H 124.01 5.12433 -1.9923 0
M  V30 1388 H 125.235 6.35614 -2.39107 0
M  V30 1389 H 123.181 6.55814 -0.156162 0
M  V30 1390 H 123.098 7.36977 -1.68526 0
M  V30 1391 H 124.366 7.77435 -0.567032 0
M  V30 1392 N 128.595 0.856903 1.32268 0
M  V30 1393 C 129.542 0.301172 2.28827 0
M  V30 1394 C 130.512 -0.593104 1.5515 0
M  V30 1395 O 131.697 -0.527537 1.83362 0
M  V30 1396 C 128.837 -0.502523 3.41422 0
M  V30 1397 C 127.95 0.417797 4.29975 0
M  V30 1398 C 127.085 -0.398749 5.29701 0
M  V30 1399 C 126.124 0.518827 6.09897 0
M  V30 1400 N 125.261 -0.260674 7.01616 0
M  V30 1401 H 130.101 1.12983 2.75751 0
M  V30 1402 H 127.638 0.568582 1.35667 0
M  V30 1403 H 129.596 -0.984141 4.05426 0
M  V30 1404 H 128.226 -1.29599 2.95642 0
M  V30 1405 H 127.278 1.01781 3.66531 0
M  V30 1406 H 128.59 1.12191 4.86019 0
M  V30 1407 H 127.744 -0.943435 5.9932 0
M  V30 1408 H 126.483 -1.13622 4.7428 0
M  V30 1409 H 125.488 1.07538 5.39181 0
M  V30 1410 H 126.713 1.25495 6.67404 0
M  V30 1411 H 124.659 -0.981198 6.4862 0
M  V30 1412 H 124.576 0.384364 7.55022 0
M  V30 1413 H 125.844 -0.787014 7.75517 0
M  V30 1414 N 130.073 -1.45103 0.615059 0
M  V30 1415 C 131.298 -2.07064 0.117988 0
M  V30 1416 C 131.723 -1.4554 -1.19163 0
M  V30 1417 O 131.081 -0.550855 -1.72729 0
M  V30 1418 C 131.129 -3.606 -0.000288387 0
M  V30 1419 O 130.233 -3.98847 -1.04856 0
M  V30 1420 H 129.574 -0.659467 0.0774581 0
M  V30 1421 H 132.104 -1.86236 0.847186 0
M  V30 1422 H 132.114 -4.07529 -0.196091 0
M  V30 1423 H 130.789 -4.04765 0.955932 0
M  V30 1424 H 129.366 -3.63577 -0.828619 0
M  V30 1425 N 131.551 -0.354651 -1.53558 0
M  V30 1426 C 132.481 0.489091 -2.2832 0
M  V30 1427 C 133.462 1.09324 -1.30316 0
M  V30 1428 O 134.647 1.11255 -1.59173 0
M  V30 1429 C 131.777 1.63456 -3.0643 0
M  V30 1430 C 130.731 1.1582 -4.12031 0
M  V30 1431 C 130.057 2.39305 -4.7816 0
M  V30 1432 C 131.357 0.250731 -5.21698 0
M  V30 1433 H 133.051 -0.134614 -2.99097 0
M  V30 1434 H 130.597 -0.0661826 -1.43848 0
M  V30 1435 H 132.55 2.23136 -3.57475 0
M  V30 1436 H 131.274 2.28533 -2.33325 0
M  V30 1437 H 129.933 0.584146 -3.61916 0
M  V30 1438 H 129.581 3.02814 -4.01637 0
M  V30 1439 H 129.281 2.08109 -5.49513 0
M  V30 1440 H 130.805 2.99691 -5.31994 0
M  V30 1441 H 132.219 0.754695 -5.68311 0
M  V30 1442 H 130.616 0.0301468 -6.00092 0
M  V30 1443 H 131.686 -0.710125 -4.79672 0
M  V30 1444 N 133.029 1.57378 -0.0835403 0
M  V30 1445 C 134.254 1.98682 0.594987 0
M  V30 1446 C 134.679 0.961969 1.61641 0
M  V30 1447 O 134.037 -0.0709989 1.81161 0
M  V30 1448 C 134.085 3.38988 1.2296 0
M  V30 1449 O 133.189 3.39208 2.34546 0
M  V30 1450 H 132.53 0.646368 0.152002 0
M  V30 1451 H 135.06 2.03961 -0.161533 0
M  V30 1452 H 135.07 3.76431 1.57366 0
M  V30 1453 H 133.745 4.13107 0.481228 0
M  V30 1454 H 132.322 3.13548 2.01846 0
M  V30 1455 N 134.507 -0.190092 1.56449 0
M  V30 1456 C 135.747 -0.916414 1.82705 0
M  V30 1457 C 136.111 -1.80235 0.661763 0
M  V30 1458 O 137.312 -2.56484 0.80433 0
M  V30 1459 C 135.583 -1.70691 3.14005 0
M  V30 1460 S 137.142 -2.48457 3.61683 0
M  V30 1461 H 133.96 -0.307281 0.64117 0
M  V30 1462 H 136.562 -0.179433 1.94675 0
M  V30 1463 H 135.266 -1.04677 3.96826 0
M  V30 1464 H 134.797 -2.48562 3.04927 0
M  V30 1465 H 136.812 -3.72756 3.27517 0
M  V30 1466 N 135.985 -1.50799 -0.457987 0
M  V30 1467 C 136.948 -1.7005 -1.53674 0
M  V30 1468 C 137.948 -0.570881 -1.50325 0
M  V30 1469 O 139.138 -0.838126 -1.52712 0
M  V30 1470 C 136.27 -1.73788 -2.93276 0
M  V30 1471 H 137.463 -2.66306 -1.37917 0
M  V30 1472 H 135.016 -1.40477 -0.685271 0
M  V30 1473 H 135.751 -0.792717 -3.14462 0
M  V30 1474 H 135.536 -2.55864 -2.97113 0
M  V30 1475 H 137.026 -1.90591 -3.71571 0
M  V30 1476 N 137.463 0.71206 -1.40597 0
M  V30 1477 C 138.411 1.84746 -1.41321 0
M  V30 1478 C 139.405 1.66842 -0.293268 0
M  V30 1479 O 140.611 1.73904 -0.464481 0
M  V30 1480 H 136.986 0.608522 -0.441819 0
M  V30 1481 H 138.957 1.81252 -2.37045 0
M  V30 1482 C 137.706 3.22638 -1.29614 0
M  V30 1483 H 137.029 3.37023 -2.15071 0
M  V30 1484 H 138.469 4.02209 -1.3418 0
M  V30 1485 C 136.928 3.36899 -0.00673121 0
M  V30 1486 O 137.458 3.90186 0.954859 0
M  V30 1487 N 135.664 2.9053 0.0639327 0
M  V30 1488 H 135.211 2.47353 -0.719311 0
M  V30 1489 H 135.169 3.0045 0.926118 0
M  V30 1490 N 138.941 1.26152 0.944643 0
M  V30 1491 C 139.871 1.09902 2.06019 0
M  V30 1492 C 140.852 0.00519538 1.70099 0
M  V30 1493 O 142.037 0.176583 1.93396 0
M  V30 1494 C 139.167 0.727562 3.39594 0
M  V30 1495 C 138.121 1.77274 3.89561 0
M  V30 1496 C 137.447 1.25569 5.19747 0
M  V30 1497 C 138.747 3.17357 4.14827 0
M  V30 1498 H 140.441 2.03217 2.19871 0
M  V30 1499 H 137.987 0.978452 1.05652 0
M  V30 1500 H 139.94 0.600777 4.17095 0
M  V30 1501 H 138.664 -0.241287 3.25707 0
M  V30 1502 H 137.323 1.88814 3.14237 0
M  V30 1503 H 136.971 0.276783 5.02238 0
M  V30 1504 H 136.671 1.95433 5.54148 0
M  V30 1505 H 138.195 1.1415 5.99835 0
M  V30 1506 H 139.609 3.08914 4.82954 0
M  V30 1507 H 138.006 3.84781 4.60504 0
M  V30 1508 H 139.076 3.63673 3.20734 0
M  V30 1509 N 140.419 -1.14872 1.07899 0
M  V30 1510 C 141.644 -1.90202 0.826926 0
M  V30 1511 C 142.069 -1.77774 -0.614664 0
M  V30 1512 O 141.427 -1.11431 -1.43013 0
M  V30 1513 C 141.475 -3.38352 1.24702 0
M  V30 1514 O 140.579 -4.10497 0.39575 0
M  V30 1515 H 139.92 -0.591968 0.300782 0
M  V30 1516 H 142.45 -1.45437 1.43907 0
M  V30 1517 H 142.46 -3.89156 1.22563 0
M  V30 1518 H 141.135 -3.46715 2.29698 0
M  V30 1519 H 139.712 -3.69796 0.480117 0
M  V30 1520 N 141.898 -0.863906 -1.31812 0
M  V30 1521 C 143.126 -0.486111 -2.01108 0
M  V30 1522 C 143.541 0.919755 -1.64882 0
M  V30 1523 O 142.898 1.60162 -0.874893 0
M  V30 1524 C 142.949 -0.626435 -3.56031 0
M  V30 1525 O 142.67 -1.97693 -3.90959 0
M  V30 1526 C 144.171 -0.248857 -4.42601 0
M  V30 1527 H 141.391 -0.190052 -0.643523 0
M  V30 1528 H 143.935 -1.1634 -1.68182 0
M  V30 1529 H 142.09 0.00322717 -3.874 0
M  V30 1530 H 142.504 -1.98034 -4.85678 0
M  V30 1531 H 143.978 -0.398016 -5.50563 0
M  V30 1532 H 144.455 0.811489 -4.31638 0
M  V30 1533 H 145.061 -0.853971 -4.16638 0
M  V30 1534 N 143.376 1.44774 -0.622745 0
M  V30 1535 C 144.623 2.02121 -0.1239 0
M  V30 1536 C 144.951 1.48915 1.25118 0
M  V30 1537 O 144.206 0.660045 1.84233 0
M  V30 1538 C 144.505 3.57364 -0.0508323 0
M  V30 1539 C 144.171 4.29787 -1.36358 0
M  V30 1540 C 142.833 4.4929 -1.72314 0
M  V30 1541 C 145.185 4.71062 -2.23048 0
M  V30 1542 C 142.513 5.07325 -2.94682 0
M  V30 1543 C 144.865 5.30452 -3.44679 0
M  V30 1544 C 143.529 5.48175 -3.80868 0
M  V30 1545 H 142.799 0.739612 -0.0453381 0
M  V30 1546 H 145.446 1.73648 -0.807389 0
M  V30 1547 H 143.751 3.85202 0.715991 0
M  V30 1548 H 145.448 3.99456 0.351533 0
M  V30 1549 H 142.038 4.14932 -1.07375 0
M  V30 1550 H 146.222 4.55715 -1.96565 0
M  V30 1551 H 141.478 5.19235 -3.22809 0
M  V30 1552 H 145.652 5.61385 -4.12092 0
M  V30 1553 H 143.279 5.92912 -4.75773 0
M  V30 1554 N 144.854 0.36279 1.53368 0
M  V30 1555 C 145.817 -0.472679 2.24273 0
M  V30 1556 C 146.817 -1.012 1.24961 0
M  V30 1557 O 148.007 -0.898194 1.49259 0
M  V30 1558 C 145.139 -1.66039 2.97731 0
M  V30 1559 H 146.332 0.14773 2.99536 0
M  V30 1560 H 143.885 0.114434 1.55881 0
M  V30 1561 H 144.62 -2.31896 2.26704 0
M  V30 1562 H 144.405 -1.28066 3.70596 0
M  V30 1563 H 145.895 -2.25252 3.51641 0
M  V30 1564 N 146.332 -1.57332 0.0918853 0
M  V30 1565 C 147.264 -2.10869 -0.898168 0
M  V30 1566 C 148.277 -1.04521 -1.24817 0
M  V30 1567 O 149.466 -1.31977 -1.20184 0
M  V30 1568 C 146.566 -2.57083 -2.2082 0
M  V30 1569 C 145.739 -3.87229 -2.03402 0
M  V30 1570 C 144.798 -4.19324 -3.17889 0
M  V30 1571 O 143.824 -4.88598 -2.91994 0
M  V30 1572 N 145.026 -3.74471 -4.43567 0
M  V30 1573 H 147.791 -2.96439 -0.440943 0
M  V30 1574 H 145.352 -1.61631 -0.0933064 0
M  V30 1575 H 147.344 -2.75602 -2.96354 0
M  V30 1576 H 145.914 -1.76541 -2.57977 0
M  V30 1577 H 145.134 -3.7789 -1.12218 0
M  V30 1578 H 146.422 -4.72379 -1.89038 0
M  V30 1579 H 145.82 -3.18546 -4.67488 0
M  V30 1580 H 144.377 -3.98151 -5.16061 0
M  V30 1581 N 147.81 0.181792 -1.56548 0
M  V30 1582 C 149.221 0.745244 -1.71181 0
M  V30 1583 C 149.572 1.83262 -0.70068 0
M  V30 1584 O 148.697 2.15946 0.140154 0
M  V30 1585 C 149.292 1.35859 -3.10367 0
M  V30 1586 C 147.851 1.86898 -3.2672 0
M  V30 1587 C 146.998 0.743942 -2.67134 0
M  V30 1588 H 149.949 -0.0434661 -1.5864 0
M  V30 1589 H 149.97 2.22817 -3.08436 0
M  V30 1590 H 149.482 0.566948 -3.83937 0
M  V30 1591 H 147.583 2.68738 -2.5809 0
M  V30 1592 H 147.696 2.02162 -4.34359 0
M  V30 1593 H 146.06 1.16169 -2.26665 0
M  V30 1594 H 146.843 -0.035676 -3.43281 0
M  V30 1595 N 149.288 1.51039 0.449983 0
M  V30 1596 C 150.699 1.557 1.03026 0
M  V30 1597 C 151.05 0.372939 1.92623 0
M  V30 1598 O 150.175 -0.511771 2.10261 0
M  V30 1599 C 150.77 2.82171 1.87523 0
M  V30 1600 C 149.329 2.89444 2.40622 0
M  V30 1601 C 148.476 2.50228 1.19504 0
M  V30 1602 H 151.427 1.56999 0.231745 0
M  V30 1603 H 151.448 2.65219 2.72835 0
M  V30 1604 H 150.96 3.68331 1.22286 0
M  V30 1605 H 149.061 2.07685 3.0935 0
M  V30 1606 H 149.174 3.92816 2.74285 0
M  V30 1607 H 147.538 2.03139 1.53644 0
M  V30 1608 H 148.321 3.38719 0.558972 0
M  V30 1609 N 150.766 -0.704594 1.40972 0
M  V30 1610 C 152.177 -1.28418 1.3552 0
M  V30 1611 C 152.528 -1.96171 0.0339434 0
M  V30 1612 O 151.653 -1.98231 -0.867944 0
M  V30 1613 C 152.248 -2.33528 2.45459 0
M  V30 1614 C 150.807 -2.87085 2.43433 0
M  V30 1615 C 149.954 -1.61007 2.2577 0
M  V30 1616 H 152.905 -0.499963 1.50619 0
M  V30 1617 H 152.926 -3.14619 2.13998 0
M  V30 1618 H 152.438 -1.84187 3.41609 0
M  V30 1619 H 150.539 -3.40626 1.51013 0
M  V30 1620 H 150.652 -3.3813 3.39419 0
M  V30 1621 H 149.016 -1.86482 1.73483 0
M  V30 1622 H 149.799 -1.13675 3.23933 0
M  V30 1623 N 152.244 -1.26651 -0.937939 0
M  V30 1624 C 153.207 -1.08546 -2.01867 0
M  V30 1625 C 154.207 -0.0327327 -1.60767 0
M  V30 1626 O 155.397 -0.276427 -1.71993 0
M  V30 1627 C 152.529 -0.651711 -3.34613 0
M  V30 1628 H 153.722 -2.04502 -2.1936 0
M  V30 1629 H 151.275 -1.09294 -1.11734 0
M  V30 1630 H 152.01 0.309696 -3.22818 0
M  V30 1631 H 151.795 -1.41189 -3.65798 0
M  V30 1632 H 153.285 -0.546973 -4.14002 0
M  V30 1633 N 153.722 1.14298 -1.08507 0
M  V30 1634 C 154.654 2.1907 -0.673859 0
M  V30 1635 C 155.667 1.60381 0.279577 0
M  V30 1636 O 156.856 1.78374 0.0670754 0
M  V30 1637 C 153.956 3.38888 0.0290979 0
M  V30 1638 C 153.129 4.27103 -0.943494 0
M  V30 1639 C 152.188 5.25477 -0.275676 0
M  V30 1640 O 151.214 5.61709 -0.920401 0
M  V30 1641 N 152.416 5.7227 0.974013 0
M  V30 1642 H 155.181 2.54965 -1.57521 0
M  V30 1643 H 152.742 1.29528 -0.971287 0
M  V30 1644 H 154.734 4.01761 0.48683 0
M  V30 1645 H 153.304 3.01309 0.832555 0
M  V30 1646 H 152.524 3.61149 -1.58004 0
M  V30 1647 H 153.812 4.82905 -1.60251 0
M  V30 1648 H 153.21 5.44965 1.51755 0
M  V30 1649 H 151.767 6.37127 1.37522 0
M  V30 1650 N 155.201 0.870884 1.31352 0
M  V30 1651 C 156.612 0.534714 1.78879 0
M  V30 1652 C 156.963 -0.948423 1.71754 0
M  V30 1653 O 156.088 -1.74055 1.28584 0
M  V30 1654 C 156.683 0.963839 3.24801 0
M  V30 1655 C 155.242 0.679311 3.70219 0
M  V30 1656 C 154.389 1.15465 2.52117 0
M  V30 1657 H 157.34 1.05651 1.18421 0
M  V30 1658 H 157.361 0.286892 3.79417 0
M  V30 1659 H 156.873 2.04332 3.29955 0
M  V30 1660 H 154.974 -0.388769 3.70566 0
M  V30 1661 H 155.087 1.25698 4.62317 0
M  V30 1662 H 153.451 0.574383 2.48139 0
M  V30 1663 H 154.234 2.24157 2.60016 0
M  V30 1664 N 156.679 -1.44442 0.630414 0
M  V30 1665 C 158.09 -1.85434 0.217063 0
M  V30 1666 C 158.441 -1.52748 -1.23136 0
M  V30 1667 O 157.566 -0.965205 -1.93682 0
M  V30 1668 C 158.161 -3.36581 0.387168 0
M  V30 1669 C 156.72 -3.76389 0.0283297 0
M  V30 1670 C 155.867 -2.68296 0.700889 0
M  V30 1671 H 158.818 -1.34919 0.83562 0
M  V30 1672 H 158.839 -3.78657 -0.374086 0
M  V30 1673 H 158.351 -3.60339 1.44144 0
M  V30 1674 H 156.452 -3.58246 -1.02423 0
M  V30 1675 H 156.565 -4.77095 0.437892 0
M  V30 1676 H 154.929 -2.54335 0.136267 0
M  V30 1677 H 155.712 -2.94887 1.75774 0
M  V30 1678 N 158.157 -0.370918 -1.53173 0
M  V30 1679 C 159.12 0.460778 -2.24521 0
M  V30 1680 C 160.12 1.00536 -1.25496 0
M  V30 1681 O 161.31 0.890266 -1.49733 0
M  V30 1682 C 158.442 1.64457 -2.98608 0
M  V30 1683 H 159.635 -0.163613 -2.99453 0
M  V30 1684 H 157.188 -0.122699 -1.55818 0
M  V30 1685 H 157.923 2.30691 -2.2793 0
M  V30 1686 H 157.708 1.26099 -3.7127 0
M  V30 1687 H 159.198 2.23384 -3.5283 0
M  V30 1688 N 159.635 1.57281 -0.100228 0
M  V30 1689 C 161.046 1.81725 0.428107 0
M  V30 1690 C 161.397 1.01619 1.67833 0
M  V30 1691 O 160.522 0.247098 2.14985 0
M  V30 1692 C 161.117 3.29617 0.78347 0
M  V30 1693 C 159.676 3.54808 1.25653 0
M  V30 1694 C 158.823 2.76118 0.255752 0
M  V30 1695 H 161.774 1.55324 -0.325608 0
M  V30 1696 H 161.795 3.4322 1.64256 0
M  V30 1697 H 161.307 3.87893 -0.12665 0
M  V30 1698 H 159.408 3.01868 2.18418 0
M  V30 1699 H 159.521 4.63443 1.21482 0
M  V30 1700 H 157.885 2.43745 0.738956 0
M  V30 1701 H 158.668 3.37145 -0.647136 0
M  V30 1702 N 161.113 -0.173488 1.56642 0
M  V30 1703 C 162.524 -0.736155 1.71574 0
M  V30 1704 C 162.875 -1.82888 0.710389 0
M  V30 1705 O 162 -2.16017 -0.1287 0
M  V30 1706 C 162.595 -1.34211 3.11083 0
M  V30 1707 C 161.154 -1.85162 3.27707 0
M  V30 1708 C 160.301 -0.729765 2.67525 0
M  V30 1709 H 163.252 0.0518786 1.58615 0
M  V30 1710 H 163.273 -2.21178 3.09613 0
M  V30 1711 H 162.785 -0.546579 3.84232 0
M  V30 1712 H 160.886 -2.67366 2.59512 0
M  V30 1713 H 160.999 -1.99855 4.35425 0
M  V30 1714 H 159.363 -1.14965 2.27278 0
M  V30 1715 H 160.146 0.0538806 3.43258 0
M  V30 1716 N 162.591 -1.51276 -0.441967 0
M  V30 1717 C 163.554 -1.7167 -1.51862 0
M  V30 1718 C 164.554 -0.586793 -1.49711 0
M  V30 1719 O 165.744 -0.854276 -1.51815 0
M  V30 1720 C 162.876 -1.76889 -2.91416 0
M  V30 1721 H 164.069 -2.67754 -1.35084 0
M  V30 1722 H 161.622 -1.41196 -0.670333 0
M  V30 1723 H 162.357 -0.826026 -3.13604 0
M  V30 1724 H 162.142 -2.59001 -2.94382 0
M  V30 1725 H 163.632 -1.94522 -3.69528 0
M  V30 1726 N 164.069 0.697108 -1.41344 0
M  V30 1727 C 165.294 1.49096 -1.44171 0
M  V30 1728 C 165.719 1.88038 -0.0481568 0
M  V30 1729 O 165.077 1.54525 0.948243 0
M  V30 1730 C 165.125 2.73088 -2.3549 0
M  V30 1731 O 164.229 3.70514 -1.81088 0
M  V30 1732 H 163.57 0.448801 -0.489361 0
M  V30 1733 H 166.1 0.856992 -1.85787 0
M  V30 1734 H 166.11 3.21413 -2.51312 0
M  V30 1735 H 164.785 2.44081 -3.36745 0
M  V30 1736 H 163.362 3.29441 -1.74708 0
M  V30 1737 N 165.547 1.27147 0.931209 0
M  V30 1738 C 166.479 1.05364 2.03546 0
M  V30 1739 C 167.492 0.0108438 1.62796 0
M  V30 1740 O 168.681 0.25202 1.76712 0
M  V30 1741 C 165.781 0.575566 3.33977 0
M  V30 1742 C 164.954 1.68985 4.03439 0
M  V30 1743 C 164.013 1.20813 5.12143 0
M  V30 1744 O 163.039 1.90712 5.363 0
M  V30 1745 N 164.241 0.0618851 5.80467 0
M  V30 1746 H 167.006 2.00454 2.22796 0
M  V30 1747 H 164.567 1.18666 1.10136 0
M  V30 1748 H 166.559 0.237264 4.04004 0
M  V30 1749 H 165.129 -0.282016 3.11325 0
M  V30 1750 H 164.349 2.19861 3.27192 0
M  V30 1751 H 165.637 2.4378 4.46597 0
M  V30 1752 H 165.035 -0.521621 5.6329 0
M  V30 1753 H 163.592 -0.217264 6.51438 0
M  V30 1754 N 167.025 -1.13721 1.09112 0
M  V30 1755 C 167.955 -2.21148 0.749385 0
M  V30 1756 C 168.936 -1.6792 -0.271475 0
M  V30 1757 O 170.121 -1.93693 -0.140251 0
M  V30 1758 C 167.251 -3.46905 0.165659 0
M  V30 1759 C 166.205 -4.13203 1.11567 0
M  V30 1760 C 165.531 -5.33248 0.393809 0
M  V30 1761 C 166.831 -4.60912 2.45678 0
M  V30 1762 H 168.525 -2.4999 1.64758 0
M  V30 1763 H 166.071 -1.20156 0.793626 0
M  V30 1764 H 168.024 -4.21313 -0.085466 0
M  V30 1765 H 166.748 -3.17449 -0.767714 0
M  V30 1766 H 165.407 -3.40758 1.35202 0
M  V30 1767 H 165.055 -5.00054 -0.543599 0
M  V30 1768 H 164.755 -5.78552 1.02721 0
M  V30 1769 H 166.279 -6.10413 0.150908 0
M  V30 1770 H 167.693 -5.26759 2.26269 0
M  V30 1771 H 166.09 -5.16944 3.04776 0
M  V30 1772 H 167.16 -3.75603 3.06677 0
M  V30 1773 N 168.503 -0.877838 -1.30888 0
M  V30 1774 C 169.728 -0.506629 -2.01117 0
M  V30 1775 C 170.153 0.895564 -1.65412 0
M  V30 1776 O 169.511 1.5923 -0.866922 0
M  V30 1777 C 169.559 -0.680223 -3.54126 0
M  V30 1778 O 168.663 0.277033 -4.11468 0
M  V30 1779 H 168.004 -0.200518 -0.633 0
M  V30 1780 H 170.534 -1.18342 -1.66902 0
M  V30 1781 H 170.544 -0.5765 -4.03907 0
M  V30 1782 H 169.219 -1.70261 -3.79452 0
M  V30 1783 H 167.796 0.127606 -3.72682 0
M  V30 1784 N 169.982 1.44106 -0.638065 0
M  V30 1785 C 171.23 2.01579 -0.145043 0
M  V30 1786 C 171.551 1.50496 1.24 0
M  V30 1787 O 170.821 0.711374 1.82527 0
M  V30 1788 H 169.401 0.745282 -0.05063 0
M  V30 1789 H 172.063 1.76516 -0.826327 0
M  V30 1790 H 171.159 3.11877 -0.118039 0
M  V30 1791 N 171.46 0.379036 1.52974 0
M  V30 1792 C 172.685 -0.209353 2.06341 0
M  V30 1793 C 173.11 -1.40583 1.24972 0
M  V30 1794 O 172.468 -1.79246 0.272155 0
M  V30 1795 C 172.516 -0.567786 3.56102 0
M  V30 1796 O 171.62 -1.66318 3.77375 0
M  V30 1797 H 170.961 -0.0272919 0.663439 0
M  V30 1798 H 173.491 0.543536 1.97248 0
M  V30 1799 H 173.501 -0.835003 3.99364 0
M  V30 1800 H 172.176 0.307013 4.14765 0
M  V30 1801 H 170.753 -1.39048 3.46006 0
M  V30 1802 N 172.938 -1.57226 0.108567 0
M  V30 1803 C 173.87 -2.11809 -0.875752 0
M  V30 1804 C 174.883 -1.05839 -1.23701 0
M  V30 1805 O 176.072 -1.33245 -1.18778 0
M  V30 1806 C 173.172 -2.59411 -2.18081 0
M  V30 1807 C 172.345 -3.89364 -1.99284 0
M  V30 1808 C 171.404 -4.22672 -3.13424 0
M  V30 1809 O 170.43 -4.91668 -2.86795 0
M  V30 1810 N 171.632 -3.79154 -4.3957 0
M  V30 1811 H 174.397 -2.9689 -0.409477 0
M  V30 1812 H 171.958 -1.61721 -0.076158 0
M  V30 1813 H 173.95 -2.7873 -2.93414 0
M  V30 1814 H 172.52 -1.79268 -2.5609 0
M  V30 1815 H 171.74 -3.79059 -1.08203 0
M  V30 1816 H 173.028 -4.74358 -1.84017 0
M  V30 1817 H 172.426 -3.23486 -4.64083 0
M  V30 1818 H 170.983 -4.03602 -5.11809 0
M  V30 1819 N 174.416 0.165178 -1.56732 0
M  V30 1820 C 175.644 0.896218 -1.86482 0
M  V30 1821 C 176.059 1.75555 -0.694675 0
M  V30 1822 O 175.416 1.79379 0.33607 0
M  V30 1823 C 175.467 1.76792 -3.1532 0
M  V30 1824 O 175.188 0.943239 -4.27825 0
M  V30 1825 C 176.689 2.6081 -3.58459 0
M  V30 1826 H 173.909 0.260064 -0.618553 0
M  V30 1827 H 176.453 0.163428 -2.03846 0
M  V30 1828 H 174.608 2.45398 -2.99764 0
M  V30 1829 H 175.022 1.53998 -5.01383 0
M  V30 1830 H 176.496 3.17579 -4.51495 0
M  V30 1831 H 176.973 3.35977 -2.82872 0
M  V30 1832 H 177.579 1.97526 -3.76648 0
M  V30 1833 N 175.894 1.51508 0.433938 0
M  V30 1834 C 177.142 1.6402 1.18075 0
M  V30 1835 C 177.463 0.360328 1.91642 0
M  V30 1836 O 176.733 -0.623945 1.85698 0
M  V30 1837 H 175.313 0.6045 0.43885 0
M  V30 1838 H 177.975 1.88452 0.497178 0
M  V30 1839 H 177.071 2.46949 1.90847 0
M  V30 1840 N 177.372 -0.689602 1.41712 0
M  V30 1841 C 178.62 -1.4468 1.4111 0
M  V30 1842 C 178.941 -1.94986 0.0232196 0
M  V30 1843 O 178.211 -1.72097 -0.935913 0
M  V30 1844 H 176.791 -0.536847 0.519427 0
M  V30 1845 H 179.453 -0.815825 1.77004 0
M  V30 1846 H 178.549 -2.30706 2.10193 0
M  V30 1847 N 178.85 -1.27639 -0.924453 0
M  V30 1848 C 180.075 -1.17101 -1.71179 0
M  V30 1849 C 180.5 0.268134 -1.86179 0
M  V30 1850 O 179.858 1.19415 -1.36418 0
M  V30 1851 C 179.906 -1.86313 -3.08739 0
M  V30 1852 O 179.01 -1.16331 -3.95652 0
M  V30 1853 H 178.351 -0.407091 -0.524569 0
M  V30 1854 H 180.881 -1.68767 -1.15666 0
M  V30 1855 H 180.891 -1.938 -3.59034 0
M  V30 1856 H 179.566 -2.91001 -2.97138 0
M  V30 1857 H 178.143 -1.16935 -3.54091 0
M  V30 1858 N 180.328 1.1314 -1.09713 0
M  V30 1859 C 181.553 1.88862 -0.857081 0
M  V30 1860 C 181.978 1.78729 0.586304 0
M  V30 1861 O 181.336 1.13692 1.41222 0
M  V30 1862 C 181.384 3.36325 -1.30069 0
M  V30 1863 O 180.488 4.09815 -0.461007 0
M  V30 1864 H 179.829 0.587108 -0.310162 0
M  V30 1865 H 182.359 1.43129 -1.46203 0
M  V30 1866 H 182.369 3.87157 -1.28738 0
M  V30 1867 H 181.044 3.43017 -2.35185 0
M  V30 1868 H 179.621 3.68986 -0.538888 0
M  V30 1869 N 181.806 0.884767 1.30421 0
M  V30 1870 C 183.031 0.517288 2.00845 0
M  V30 1871 C 183.456 -0.886779 1.65885 0
M  V30 1872 O 182.814 -1.58768 0.875354 0
M  V30 1873 C 182.862 0.698994 3.5376 0
M  V30 1874 O 181.966 -0.255208 4.1161 0
M  V30 1875 H 181.307 0.203872 0.631927 0
M  V30 1876 H 183.837 1.19225 1.66272 0
M  V30 1877 H 183.847 0.597912 4.03595 0
M  V30 1878 H 182.522 1.72271 3.78544 0
M  V30 1879 H 181.099 -0.10784 3.72744 0
M  V30 1880 N 183.284 -1.43765 0.645699 0
M  V30 1881 C 184.53 -2.02197 0.156271 0
M  V30 1882 C 184.863 -1.50776 -1.22393 0
M  V30 1883 O 184.138 -0.697771 -1.81553 0
M  V30 1884 C 184.421 -3.59749 0.158872 0
M  V30 1885 C 184.274 -4.21419 1.57245 0
M  V30 1886 C 185.593 -4.37149 -0.50879 0
M  V30 1887 H 182.712 -0.734694 0.0582602 0
M  V30 1888 H 185.354 -1.71157 0.824951 0
M  V30 1889 H 183.504 -3.86325 -0.410525 0
M  V30 1890 H 185.176 -4.059 2.19186 0
M  V30 1891 H 183.419 -3.78356 2.122 0
M  V30 1892 H 184.09 -5.30482 1.52619 0
M  V30 1893 H 186.566 -4.16093 -0.024412 0
M  V30 1894 H 185.442 -5.4683 -0.476213 0
M  V30 1895 H 185.703 -4.12839 -1.58165 0
M  V30 1896 N 184.763 -0.387143 -1.52771 0
M  V30 1897 C 185.71 0.449048 -2.26389 0
M  V30 1898 C 186.68 1.05961 -1.27912 0
M  V30 1899 O 187.865 1.08804 -1.56737 0
M  V30 1900 C 185.005 1.57155 -3.0724 0
M  V30 1901 C 184.118 0.984066 -4.20643 0
M  V30 1902 C 183.253 2.07745 -4.88892 0
M  V30 1903 C 182.292 1.46574 -5.94292 0
M  V30 1904 N 181.429 2.49834 -6.56146 0
M  V30 1905 H 186.269 -0.185205 -2.97424 0
M  V30 1906 H 183.806 -0.103164 -1.46738 0
M  V30 1907 H 185.764 2.23309 -3.52405 0
M  V30 1908 H 184.394 2.17615 -2.38419 0
M  V30 1909 H 183.446 0.212193 -3.79808 0
M  V30 1910 H 184.758 0.497029 -4.96318 0
M  V30 1911 H 183.912 2.81673 -5.3735 0
M  V30 1912 H 182.651 2.59807 -4.12737 0
M  V30 1913 H 181.656 0.711696 -5.45174 0
M  V30 1914 H 182.881 0.953088 -6.72379 0
M  V30 1915 H 180.827 3.0107 -5.82832 0
M  V30 1916 H 180.744 2.05879 -7.27427 0
M  V30 1917 H 182.012 3.23399 -7.09249 0
M  V30 1918 N 186.241 1.57166 -0.116904 0
M  V30 1919 C 187.188 2.15202 0.83408 0
M  V30 1920 C 188.158 1.07644 1.26499 0
M  V30 1921 O 189.343 1.35541 1.34288 0
M  V30 1922 C 186.483 2.75405 2.07957 0
M  V30 1923 C 185.596 3.97264 1.69721 0
M  V30 1924 C 184.731 4.45561 2.89221 0
M  V30 1925 C 183.77 5.59956 2.47215 0
M  V30 1926 N 182.907 6.03006 3.59622 0
M  V30 1927 H 187.747 2.96141 0.332335 0
M  V30 1928 H 185.284 1.46309 0.152349 0
M  V30 1929 H 187.242 3.08439 2.80929 0
M  V30 1930 H 185.872 1.97159 2.55594 0
M  V30 1931 H 184.924 3.70404 0.866316 0
M  V30 1932 H 186.236 4.80226 1.34849 0
M  V30 1933 H 185.39 4.80493 3.7042 0
M  V30 1934 H 184.129 3.61544 3.27318 0
M  V30 1935 H 183.134 5.2463 1.64448 0
M  V30 1936 H 184.359 6.45738 2.10238 0
M  V30 1937 H 182.305 5.21931 3.97396 0
M  V30 1938 H 182.222 6.80819 3.28667 0
M  V30 1939 H 183.49 6.42576 4.41267 0
M  V30 1940 N 187.719 -0.156864 1.56817 0
M  V30 1941 C 188.682 -1.17781 1.96622 0
M  V30 1942 C 189.682 -1.36401 0.851555 0
M  V30 1943 O 190.872 -1.33561 1.11836 0
M  V30 1944 C 188.004 -2.54008 2.27361 0
M  V30 1945 H 189.197 -0.836564 2.87996 0
M  V30 1946 H 186.75 -0.39985 1.51099 0
M  V30 1947 H 187.485 -2.9312 1.38748 0
M  V30 1948 H 187.27 -2.41856 3.08623 0
M  V30 1949 H 188.76 -3.27558 2.59029 0
M  V30 1950 N 189.197 -1.51736 -0.425897 0
M  V30 1951 C 190.608 -1.5732 -1.00536 0
M  V30 1952 C 190.959 -0.403537 -1.92005 0
M  V30 1953 O 190.084 0.478256 -2.11049 0
M  V30 1954 C 190.679 -2.85119 -1.8301 0
M  V30 1955 C 189.238 -2.93236 -2.35987 0
M  V30 1956 C 188.385 -2.52098 -1.15508 0
M  V30 1957 H 191.336 -1.57348 -0.206739 0
M  V30 1958 H 191.357 -2.69526 -2.68581 0
M  V30 1959 H 190.869 -3.7023 -1.16411 0
M  V30 1960 H 188.97 -2.12581 -3.06007 0
M  V30 1961 H 189.083 -3.9713 -2.68001 0
M  V30 1962 H 187.447 -2.05558 -1.50393 0
M  V30 1963 H 188.23 -3.39565 -0.505014 0
M  V30 1964 N 190.675 0.682077 -1.42076 0
M  V30 1965 C 191.625 1.78823 -1.41444 0
M  V30 1966 C 192.609 1.58323 -0.28681 0
M  V30 1967 O 193.801 1.68926 -0.528498 0
M  V30 1968 C 190.93 3.17232 -1.3122 0
M  V30 1969 C 190.016 3.4338 -2.489 0
M  V30 1970 N 190.407 3.40152 -3.7434 0
M  V30 1971 C 188.705 3.73986 -2.43003 0
M  V30 1972 C 189.406 3.65581 -4.52466 0
M  V30 1973 N 188.382 3.85989 -3.8277 0
M  V30 1974 H 192.184 1.7471 -2.36334 0
M  V30 1975 H 189.698 0.882622 -1.36321 0
M  V30 1976 H 191.695 3.96489 -1.2885 0
M  V30 1977 H 190.355 3.22547 -0.373263 0
M  V30 1978 H 191.366 3.20221 -4.07037 0
M  V30 1979 H 188.043 3.86591 -1.57651 0
M  V30 1980 H 189.433 3.69108 -5.61435 0
M  V30 1981 N 192.153 1.28127 0.917671 0
M  V30 1982 C 193.564 1.13622 1.48145 0
M  V30 1983 C 193.915 -0.275207 1.9426 0
M  V30 1984 O 193.04 -1.1691 1.82102 0
M  V30 1985 C 193.635 2.05648 2.69248 0
M  V30 1986 C 192.194 1.95219 3.21818 0
M  V30 1987 C 191.341 1.97618 1.94532 0
M  V30 1988 H 194.292 1.40874 0.730772 0
M  V30 1989 H 194.313 1.61818 3.44377 0
M  V30 1990 H 193.825 3.08365 2.35653 0
M  V30 1991 H 191.926 0.955244 3.60147 0
M  V30 1992 H 192.039 2.81976 3.87333 0
M  V30 1993 H 190.403 1.41973 2.11461 0
M  V30 1994 H 191.186 3.02007 1.63238 0
M  V30 1995 N 193.631 -1.12557 1.10312 0
M  V30 1996 C 194.594 -2.16434 0.75424 0
M  V30 1997 C 195.594 -1.59278 -0.220685 0
M  V30 1998 O 196.784 -1.742 0.00230591 0
M  V30 1999 C 193.916 -3.40699 0.116987 0
M  V30 2000 H 195.109 -2.48811 1.67431 0
M  V30 2001 H 192.662 -1.27542 0.903475 0
M  V30 2002 H 193.397 -3.13921 -0.813877 0
M  V30 2003 H 193.182 -3.83459 0.818613 0
M  V30 2004 H 194.672 -4.17451 -0.111387 0
M  V30 2005 N 195.109 -0.891671 -1.2995 0
M  V30 2006 C 196.355 -0.514261 -1.96171 0
M  V30 2007 C 196.688 0.935506 -1.70182 0
M  V30 2008 O 195.963 1.66204 -1.01028 0
M  V30 2009 C 196.246 -0.797719 -3.51153 0
M  V30 2010 C 196.099 -2.2986 -3.86632 0
M  V30 2011 C 197.418 -0.278749 -4.39216 0
M  V30 2012 H 194.537 -0.188314 -0.712535 0
M  V30 2013 H 197.179 -1.11689 -1.53706 0
M  V30 2014 H 195.329 -0.284826 -3.87455 0
M  V30 2015 H 197.001 -2.88042 -3.60319 0
M  V30 2016 H 195.244 -2.76257 -3.34462 0
M  V30 2017 H 195.915 -2.44753 -4.94773 0
M  V30 2018 H 198.391 -0.717825 -4.09862 0
M  V30 2019 H 197.267 -0.506353 -5.46559 0
M  V30 2020 H 197.528 0.820266 -4.34424 0
M  V30 2021 N 196.587 1.43421 -0.653314 0
M  V30 2022 C 197.815 2.06163 -0.174491 0
M  V30 2023 C 198.23 1.48969 1.1599 0
M  V30 2024 O 197.587 0.621042 1.71608 0
M  V30 2025 C 197.638 3.61417 -0.0774865 0
M  V30 2026 O 197.359 4.16485 -1.35912 0
M  V30 2027 C 198.86 4.41235 0.427402 0
M  V30 2028 H 196.08 0.664946 -0.0899353 0
M  V30 2029 H 198.624 1.83924 -0.893988 0
M  V30 2030 H 196.779 3.82841 0.59257 0
M  V30 2031 H 197.193 5.10153 -1.21839 0
M  V30 2032 H 198.667 5.5021 0.44423 0
M  V30 2033 H 199.144 4.14268 1.45873 0
M  V30 2034 H 199.75 4.2478 -0.210167 0
M  V30 2035 N 198.065 0.39524 1.52563 0
M  V30 2036 C 199.29 -0.187456 2.06551 0
M  V30 2037 C 199.715 -1.39249 1.26457 0
M  V30 2038 O 199.073 -1.78947 0.291151 0
M  V30 2039 C 199.121 -0.529985 3.56684 0
M  V30 2040 O 198.225 -1.62307 3.79118 0
M  V30 2041 H 197.566 -0.0202537 0.663691 0
M  V30 2042 H 200.096 0.564426 1.96661 0
M  V30 2043 H 200.106 -0.792598 4.00227 0
M  V30 2044 H 198.781 0.350987 4.14416 0
M  V30 2045 H 197.358 -1.3537 3.47461 0
M  V30 2046 N 199.544 -1.57102 0.125237 0
M  V30 2047 C 200.507 -2.14471 -0.80838 0
M  V30 2048 C 201.507 -1.0811 -1.19033 0
M  V30 2049 O 202.697 -1.33856 -1.11482 0
M  V30 2050 C 199.829 -2.69005 -2.09402 0
M  V30 2051 H 201.022 -2.98297 -0.309696 0
M  V30 2052 H 198.575 -1.55807 -0.124051 0
M  V30 2053 H 199.31 -1.88785 -2.63687 0
M  V30 2054 H 199.095 -3.46799 -1.82957 0
M  V30 2055 H 200.585 -3.13278 -2.76128 0
M  V30 2056 N 201.022 0.148545 -1.56898 0
M  V30 2057 C 202.27 0.859717 -1.82902 0
M  V30 2058 C 202.591 1.81775 -0.70588 0
M  V30 2059 O 201.861 1.93994 0.272586 0
M  V30 2060 H 200.441 0.320469 -0.674766 0
M  V30 2061 H 203.103 0.142918 -1.94375 0
M  V30 2062 H 202.199 1.4229 -2.77777 0
M  V30 2063 N 202.5 1.5196 0.417844 0
M  V30 2064 C 203.728 1.69426 1.18753 0
M  V30 2065 C 204.143 0.399955 1.84515 0
M  V30 2066 O 203.5 -0.623288 1.71527 0
M  V30 2067 C 203.551 2.82375 2.25714 0
M  V30 2068 O 203.272 4.06793 1.62638 0
M  V30 2069 C 204.773 3.11277 3.15628 0
M  V30 2070 H 201.993 0.568031 0.357186 0
M  V30 2071 H 204.537 1.98475 0.49273 0
M  V30 2072 H 202.692 2.5587 2.90877 0
M  V30 2073 H 203.106 4.69667 2.3348 0
M  V30 2074 H 204.58 3.93843 3.86771 0
M  V30 2075 H 205.057 2.24473 3.77503 0
M  V30 2076 H 205.663 3.39515 2.56144 0
M  V30 2077 N 203.978 -0.674533 1.42435 0
M  V30 2078 C 205.389 -1.25514 1.38214 0
M  V30 2079 C 205.74 -1.96055 0.0755464 0
M  V30 2080 O 204.865 -2.00028 -0.8257 0
M  V30 2081 C 205.46 -2.28269 2.50357 0
M  V30 2082 C 204.019 -2.81856 2.49467 0
M  V30 2083 C 203.166 -1.56182 2.29134 0
M  V30 2084 H 206.117 -0.467902 1.51646 0
M  V30 2085 H 206.138 -3.10009 2.20624 0
M  V30 2086 H 205.65 -1.769 3.45439 0
M  V30 2087 H 203.751 -3.37346 1.58204 0
M  V30 2088 H 203.864 -3.30854 3.46515 0
M  V30 2089 H 202.228 -1.82761 1.774 0
M  V30 2090 H 203.011 -1.06778 3.26272 0
M  V30 2091 N 205.456 -1.28612 -0.910864 0
M  V30 2092 C 206.403 -1.12786 -2.01365 0
M  V30 2093 C 207.373 -0.024201 -1.66082 0
M  V30 2094 O 208.558 -0.189667 -1.89855 0
M  V30 2095 C 205.698 -0.798743 -3.35729 0
M  V30 2096 C 204.811 -1.98173 -3.83864 0
M  V30 2097 C 203.946 -1.59298 -5.06752 0
M  V30 2098 C 202.985 -2.74245 -5.47226 0
M  V30 2099 N 202.122 -2.35842 -6.61304 0
M  V30 2100 H 206.962 -2.07142 -2.14234 0
M  V30 2101 H 204.499 -1.03093 -1.0493 0
M  V30 2102 H 206.457 -0.588662 -4.13026 0
M  V30 2103 H 205.087 0.10789 -3.2262 0
M  V30 2104 H 204.139 -2.30386 -3.02699 0
M  V30 2105 H 205.451 -2.84343 -4.09818 0
M  V30 2106 H 204.605 -1.34513 -5.916 0
M  V30 2107 H 203.344 -0.702618 -4.82612 0
M  V30 2108 H 202.349 -2.99725 -4.60918 0
M  V30 2109 H 203.574 -3.63928 -5.73353 0
M  V30 2110 H 201.52 -1.49279 -6.38789 0
M  V30 2111 H 201.437 -3.15546 -6.86998 0
M  V30 2112 H 202.705 -2.14348 -7.4945 0
M  V30 2113 N 206.934 1.1197 -1.10907 0
M  V30 2114 C 208.35 1.35591 -0.841852 0
M  V30 2115 C 208.55 1.94233 0.536246 0
M  V30 2116 O 207.606 2.1717 1.28816 0
M  V30 2117 C 208.919 2.29284 -1.94549 0
M  V30 2118 C 210.467 2.42862 -1.97451 0
M  V30 2119 C 210.942 3.39873 -3.07002 0
M  V30 2120 N 212.433 3.47433 -3.06341 0
M  V30 2121 C 213.168 4.22421 -3.87748 0
M  V30 2122 N 212.664 5.00432 -4.79103 0
M  V30 2123 N 214.457 4.17876 -3.75946 0
M  V30 2124 H 206.608 0.722664 -1.99728 0
M  V30 2125 H 208.871 0.380635 -0.868229 0
M  V30 2126 H 208.577 1.93378 -2.93765 0
M  V30 2127 H 208.451 3.29452 -1.83688 0
M  V30 2128 H 210.838 2.78046 -0.988645 0
M  V30 2129 H 210.919 1.42566 -2.12388 0
M  V30 2130 H 210.563 3.05417 -4.05811 0
M  V30 2131 H 210.493 4.40011 -2.89306 0
M  V30 2132 H 212.984 2.91784 -2.40147 0
M  V30 2133 H 213.297 5.55002 -5.37766 0
M  V30 2134 H 211.642 4.99612 -4.83128 0
M  V30 2135 H 214.833 3.56016 -3.03924 0
M  V30 2136 H 215.006 4.76061 -4.39624 0
M  V30 2137 N 208.412 0.89855 1.29475 0
M  V30 2138 C 209.658 0.524658 1.95896 0
M  V30 2139 C 209.991 -0.926468 1.70676 0
M  V30 2140 O 209.266 -1.65665 1.01908 0
M  V30 2141 C 209.549 0.81633 3.50725 0
M  V30 2142 C 209.402 2.31907 3.85408 0
M  V30 2143 C 210.721 0.302038 4.39062 0
M  V30 2144 H 207.84 0.19209 0.711527 0
M  V30 2145 H 210.482 1.12502 1.53112 0
M  V30 2146 H 208.632 0.305369 3.87298 0
M  V30 2147 H 210.304 2.89949 3.58786 0
M  V30 2148 H 208.547 2.78027 3.32992 0
M  V30 2149 H 209.218 2.47373 4.93468 0
M  V30 2150 H 211.694 0.739551 4.09475 0
M  V30 2151 H 210.57 0.535331 5.46283 0
M  V30 2152 H 210.831 -0.797216 4.34853 0
M  V30 2153 N 209.89 -1.43072 0.660911 0
M  V30 2154 C 211.139 -2.00942 0.174735 0
M  V30 2155 C 211.452 -1.52797 -1.22117 0
M  V30 2156 O 212.658 -2.02991 -1.80297 0
M  V30 2157 C 211.114 -3.58948 0.261559 0
M  V30 2158 C 210.722 -4.16085 1.66064 0
M  V30 2159 C 212.466 -4.24173 -0.166617 0
M  V30 2160 C 210.373 -5.6641 1.70098 0
M  V30 2161 H 209.303 -0.751483 0.0615631 0
M  V30 2162 H 211.954 -1.63955 0.824069 0
M  V30 2163 H 210.336 -3.93372 -0.455421 0
M  V30 2164 H 211.51 -3.93147 2.40359 0
M  V30 2165 H 209.825 -3.6326 2.03546 0
M  V30 2166 H 212.422 -5.34471 -0.156433 0
M  V30 2167 H 212.765 -3.98647 -1.19943 0
M  V30 2168 H 213.298 -3.94659 0.498875 0
M  V30 2169 H 210.037 -5.96715 2.71315 0
M  V30 2170 H 209.557 -5.91382 1.00139 0
M  V30 2171 H 211.236 -6.30585 1.44816 0
M  V30 2172 N 211.368 -0.403325 -1.52352 0
M  V30 2173 C 212.614 0.174605 -2.02047 0
M  V30 2174 C 212.947 1.45282 -1.28867 0
M  V30 2175 O 212.222 1.90483 -0.393257 0
M  V30 2176 C 212.505 0.428238 -3.57545 0
M  V30 2177 C 212.358 -0.866248 -4.4138 0
M  V30 2178 C 213.677 1.21287 -4.23057 0
M  V30 2179 H 210.796 0.0619851 -0.734389 0
M  V30 2180 H 213.438 -0.53565 -1.82293 0
M  V30 2181 H 211.588 1.03327 -3.74507 0
M  V30 2182 H 213.26 -1.50265 -4.3614 0
M  V30 2183 H 211.503 -1.47851 -4.07827 0
M  V30 2184 H 212.174 -0.643249 -5.48239 0
M  V30 2185 H 214.65 0.700703 -4.10158 0
M  V30 2186 H 213.526 1.35909 -5.31808 0
M  V30 2187 H 213.787 2.23193 -3.81625 0
M  V30 2188 N 212.846 1.57033 -0.133567 0
M  V30 2189 C 213.778 2.13176 0.841944 0
M  V30 2190 C 214.791 1.07794 1.22001 0
M  V30 2191 O 215.98 1.35117 1.16643 0
M  V30 2192 C 213.08 2.62847 2.13926 0
M  V30 2193 C 212.253 3.92486 1.93064 0
M  V30 2194 C 211.312 4.27605 3.0666 0
M  V30 2195 O 210.338 4.96168 2.78937 0
M  V30 2196 N 211.54 3.861 4.33483 0
M  V30 2197 H 214.305 2.97503 0.362192 0
M  V30 2198 H 211.866 1.61821 0.05042 0
M  V30 2199 H 213.858 2.83363 2.88942 0
M  V30 2200 H 212.428 1.83319 2.53205 0
M  V30 2201 H 211.648 3.80732 1.02159 0
M  V30 2202 H 212.936 4.77225 1.76447 0
M  V30 2203 H 212.334 3.30828 4.58878 0
M  V30 2204 H 210.891 4.11694 5.05323 0
M  V30 2205 N 214.325 -0.140222 1.56975 0
M  V30 2206 C 215.288 -1.15689 1.97861 0
M  V30 2207 C 216.288 -1.3549 0.865974 0
M  V30 2208 O 217.478 -1.32367 1.13246 0
M  V30 2209 C 214.61 -2.51582 2.30042 0
M  V30 2210 H 215.803 -0.805971 2.88867 0
M  V30 2211 H 213.356 -0.383801 1.51515 0
M  V30 2212 H 214.091 -2.91632 1.41849 0
M  V30 2213 H 213.876 -2.38569 3.11171 0
M  V30 2214 H 215.366 -3.24792 2.62488 0
M  V30 2215 N 215.803 -1.52179 -0.40978 0
M  V30 2216 C 217.028 -1.70347 -1.18308 0
M  V30 2217 C 217.453 -0.411887 -1.83535 0
M  V30 2218 O 216.811 0.630587 -1.6998 0
M  V30 2219 C 216.859 -2.83977 -2.22238 0
M  V30 2220 O 215.963 -2.495 -3.28365 0
M  V30 2221 H 215.304 -0.567103 -0.345384 0
M  V30 2222 H 217.834 -1.98879 -0.480445 0
M  V30 2223 H 217.844 -3.0887 -2.66577 0
M  V30 2224 H 216.519 -3.77685 -1.74146 0
M  V30 2225 H 215.096 -2.35277 -2.89308 0
M  V30 2226 N 217.281 0.66697 -1.42791 0
M  V30 2227 C 218.509 1.45505 -1.47091 0
M  V30 2228 C 218.924 1.8861 -0.0845873 0
M  V30 2229 O 218.281 1.58632 0.90234 0
M  V30 2230 C 218.332 2.69906 -2.40485 0
M  V30 2231 O 218.053 2.28608 -3.73725 0
M  V30 2232 C 219.554 3.63396 -2.53886 0
M  V30 2233 H 216.774 0.447459 -0.500022 0
M  V30 2234 H 219.318 0.818866 -1.8739 0
M  V30 2235 H 217.473 3.29696 -2.03419 0
M  V30 2236 H 217.887 3.08997 -4.23817 0
M  V30 2237 H 219.361 4.47387 -3.2334 0
M  V30 2238 H 219.838 4.09824 -1.57927 0
M  V30 2239 H 220.444 3.09495 -2.91706 0
M  V30 2240 N 218.759 1.29093 0.90403 0
M  V30 2241 C 219.984 1.19809 1.69294 0
M  V30 2242 C 220.409 -0.238481 1.86582 0
M  V30 2243 O 219.767 -1.1723 1.383 0
M  V30 2244 C 219.815 1.91202 3.05736 0
M  V30 2245 O 218.919 1.22611 3.93752 0
M  V30 2246 H 218.26 0.415385 0.518027 0
M  V30 2247 H 220.79 1.70586 1.12967 0
M  V30 2248 H 220.8 1.99487 3.55906 0
M  V30 2249 H 219.475 2.95692 2.92471 0
M  V30 2250 H 218.052 1.22554 3.52186 0
M  V30 2251 N 220.237 -1.11381 1.11499 0
M  V30 2252 C 221.147 -2.21019 0.786628 0
M  V30 2253 C 222.163 -1.72597 -0.220507 0
M  V30 2254 O 223.339 -2.01321 -0.0565251 0
M  V30 2255 C 220.404 -3.459 0.235333 0
M  V30 2256 C 219.465 -4.09107 1.30115 0
M  V30 2257 C 218.698 -5.28027 0.776068 0
M  V30 2258 O 218.921 -5.6904 -0.393661 0
M  V30 2259 O 217.855 -5.81835 1.54114 0
M  V30 2260 H 221.681 -2.51521 1.70209 0
M  V30 2261 H 219.266 -1.19928 0.890928 0
M  V30 2262 H 221.148 -4.21346 -0.067715 0
M  V30 2263 H 219.823 -3.17049 -0.652828 0
M  V30 2264 H 218.73 -3.35391 1.65722 0
M  V30 2265 H 220.063 -4.42139 2.16273 0
M  V30 2266 N 221.715 -0.905404 -1.28997 0
M  V30 2267 C 222.645 -0.404212 -2.29975 0
M  V30 2268 C 223.626 0.523784 -1.61835 0
M  V30 2269 O 224.811 0.433298 -1.89304 0
M  V30 2270 C 221.941 0.364042 -3.45387 0
M  V30 2271 C 220.895 -0.474048 -4.25367 0
M  V30 2272 C 220.221 0.422045 -5.33032 0
M  V30 2273 C 221.521 -1.72696 -4.92923 0
M  V30 2274 H 223.215 -1.24807 -2.72146 0
M  V30 2275 H 220.761 -0.601585 -1.30832 0
M  V30 2276 H 222.714 0.725447 -4.15109 0
M  V30 2277 H 221.438 1.24174 -3.02074 0
M  V30 2278 H 220.097 -0.81786 -3.57361 0
M  V30 2279 H 219.745 1.29804 -4.85963 0
M  V30 2280 H 219.445 -0.135057 -5.87445 0
M  V30 2281 H 220.969 0.779517 -6.05604 0
M  V30 2282 H 222.383 -1.43495 -5.55051 0
M  V30 2283 H 220.78 -2.22582 -5.57295 0
M  V30 2284 H 221.85 -2.45964 -4.17887 0
M  V30 2285 N 223.193 1.4272 -0.668489 0
M  V30 2286 C 224.123 2.335 -0.000100175 0
M  V30 2287 C 225.104 1.50328 0.795964 0
M  V30 2288 O 226.289 1.78949 0.754385 0
M  V30 2289 C 223.419 3.33874 0.956302 0
M  V30 2290 C 222.373 4.27152 0.269278 0
M  V30 2291 C 221.699 5.17684 1.33818 0
M  V30 2292 C 222.999 5.15373 -0.847805 0
M  V30 2293 H 224.693 2.89639 -0.758244 0
M  V30 2294 H 222.239 1.39269 -0.366079 0
M  V30 2295 H 224.192 3.9629 1.43292 0
M  V30 2296 H 222.916 2.76025 1.74579 0
M  V30 2297 H 221.575 3.66123 -0.187042 0
M  V30 2298 H 221.223 4.56165 2.1195 0
M  V30 2299 H 220.923 5.80918 0.883659 0
M  V30 2300 H 222.447 5.82974 1.81586 0
M  V30 2301 H 223.861 5.7151 -0.452681 0
M  V30 2302 H 222.258 5.87407 -1.22773 0
M  V30 2303 H 223.328 4.5415 -1.69929 0
M  V30 2304 N 224.671 0.411399 1.52136 0
M  V30 2305 C 226.087 0.0623865 1.59478 0
M  V30 2306 C 226.287 -1.42554 1.4241 0
M  V30 2307 O 225.343 -2.19263 1.2522 0
M  V30 2308 C 226.656 0.559331 2.95452 0
M  V30 2309 C 228.204 0.517503 3.08692 0
M  V30 2310 C 228.679 0.990994 4.4715 0
M  V30 2311 N 230.17 0.947908 4.53397 0
M  V30 2312 C 230.905 1.28544 5.58806 0
M  V30 2313 N 230.401 1.69454 6.71757 0
M  V30 2314 N 232.194 1.20526 5.49026 0
M  V30 2315 H 224.345 1.37982 1.61477 0
M  V30 2316 H 226.608 0.566977 0.759764 0
M  V30 2317 H 226.314 1.59938 3.1323 0
M  V30 2318 H 226.188 -0.0298014 3.77188 0
M  V30 2319 H 228.575 -0.513505 2.90598 0
M  V30 2320 H 228.656 1.14272 2.28857 0
M  V30 2321 H 228.3 2.02034 4.65988 0
M  V30 2322 H 228.23 0.34257 5.25485 0
M  V30 2323 H 230.721 0.647157 3.72317 0
M  V30 2324 H 231.034 1.93513 7.48179 0
M  V30 2325 H 229.379 1.73359 6.73032 0
M  V30 2326 H 232.57 0.884505 4.59667 0
M  V30 2327 H 232.743 1.47161 6.31069 0
M  V30 2328 N 226.149 -1.5696 0.141893 0
M  V30 2329 C 227.389 -1.9785 -0.513304 0
M  V30 2330 C 227.753 -1.02467 -1.62371 0
M  V30 2331 O 228.954 -1.32382 -2.33941 0
M  V30 2332 C 227.225 -3.42797 -1.01118 0
M  V30 2333 S 228.784 -4.05709 -1.67169 0
M  V30 2334 H 225.602 -0.691318 -0.166135 0
M  V30 2335 H 228.204 -1.94114 0.232398 0
M  V30 2336 H 226.908 -4.0995 -0.192179 0
M  V30 2337 H 226.439 -3.50235 -1.79162 0
M  V30 2338 H 228.454 -3.98342 -2.95868 0
M  V30 2339 N 227.627 0.131896 -1.57047 0
M  V30 2340 C 228.557 1.16384 -2.02428 0
M  V30 2341 C 229.538 1.43936 -0.90644 0
M  V30 2342 O 230.723 1.54599 -1.17528 0
M  V30 2343 C 227.853 2.49328 -2.4177 0
M  V30 2344 C 226.807 2.36266 -3.56879 0
M  V30 2345 C 226.133 3.74057 -3.8208 0
M  V30 2346 C 227.433 1.834 -4.89042 0
M  V30 2347 H 229.127 0.786433 -2.88887 0
M  V30 2348 H 226.673 0.376855 -1.38981 0
M  V30 2349 H 228.626 3.21759 -2.7212 0
M  V30 2350 H 227.35 2.88934 -1.52266 0
M  V30 2351 H 226.009 1.66286 -3.26718 0
M  V30 2352 H 225.657 4.11125 -2.89803 0
M  V30 2353 H 225.357 3.66174 -4.59554 0
M  V30 2354 H 226.881 4.48012 -4.1487 0
M  V30 2355 H 228.295 2.45636 -5.18011 0
M  V30 2356 H 226.692 1.8637 -5.70426 0
M  V30 2357 H 227.762 0.790662 -4.7841 0
M  V30 2358 N 229.106 1.52395 0.401703 0
M  V30 2359 C 230.354 1.66488 1.14569 0
M  V30 2360 C 230.675 0.400897 1.90835 0
M  V30 2361 O 229.945 -0.584415 1.8698 0
M  V30 2362 H 228.525 0.613672 0.425929 0
M  V30 2363 H 231.187 1.89464 0.457093 0
M  V30 2364 H 230.283 2.50942 1.85566 0
M  V30 2365 N 230.584 -0.659388 1.43143 0
M  V30 2366 C 231.494 -1.80167 1.50256 0
M  V30 2367 C 232.51 -1.69571 0.390106 0
M  V30 2368 O 233.686 -1.90849 0.643319 0
M  V30 2369 C 230.751 -3.16409 1.41725 0
M  V30 2370 C 229.812 -3.38848 2.63591 0
M  V30 2371 C 229.045 -4.68591 2.55458 0
M  V30 2372 O 229.268 -5.47532 1.59891 0
M  V30 2373 O 228.202 -4.92614 3.45854 0
M  V30 2374 H 232.028 -1.77121 2.46702 0
M  V30 2375 H 229.613 -0.817092 1.25076 0
M  V30 2376 H 231.495 -3.9768 1.39387 0
M  V30 2377 H 230.17 -3.20059 0.484118 0
M  V30 2378 H 229.077 -2.57366 2.71502 0
M  V30 2379 H 230.41 -3.4004 3.55856 0
M  V30 2380 N 232.062 -1.29571 -0.897171 0
M  V30 2381 C 233.309 -1.17689 -1.6479 0
M  V30 2382 C 233.637 0.27107 -1.92602 0
M  V30 2383 O 232.892 1.21193 -1.53658 0
M  V30 2384 C 233.191 -1.9382 -3.00281 0
M  V30 2385 C 232.857 -3.43522 -2.92068 0
M  V30 2386 C 231.519 -3.84348 -2.89535 0
M  V30 2387 C 233.871 -4.38906 -2.81089 0
M  V30 2388 C 231.199 -5.18869 -2.73846 0
M  V30 2389 C 233.551 -5.73521 -2.66939 0
M  V30 2390 C 232.215 -6.13601 -2.62774 0
M  V30 2391 H 231.485 -0.430654 -0.603008 0
M  V30 2392 H 234.132 -1.60536 -1.04404 0
M  V30 2393 H 232.437 -1.4357 -3.64547 0
M  V30 2394 H 234.134 -1.82028 -3.57305 0
M  V30 2395 H 230.724 -3.11072 -2.94842 0
M  V30 2396 H 234.908 -4.08315 -2.82121 0
M  V30 2397 H 230.164 -5.4903 -2.69027 0
M  V30 2398 H 234.338 -6.47078 -2.57416 0
M  V30 2399 H 231.965 -7.17786 -2.50375 0
M  V30 2400 N 233.54 1.10788 -1.12088 0
M  V30 2401 C 234.47 2.19083 -0.807755 0
M  V30 2402 C 235.451 1.6858 0.226859 0
M  V30 2403 O 236.636 1.93997 0.0888475 0
M  V30 2404 C 233.766 3.46344 -0.257576 0
M  V30 2405 C 232.72 4.101 -1.22483 0
M  V30 2406 C 232.046 5.32016 -0.535052 0
M  V30 2407 C 233.346 4.54236 -2.57811 0
M  V30 2408 H 235.04 2.45534 -1.71328 0
M  V30 2409 H 232.586 1.1801 -0.825205 0
M  V30 2410 H 234.539 4.21392 -0.0262679 0
M  V30 2411 H 233.263 3.19373 0.683278 0
M  V30 2412 H 231.922 3.37054 -1.44189 0
M  V30 2413 H 231.57 5.01319 0.410827 0
M  V30 2414 H 231.27 5.75625 -1.18024 0
M  V30 2415 H 232.794 6.09799 -0.312695 0
M  V30 2416 H 234.208 5.20575 -2.40155 0
M  V30 2417 H 232.605 5.08682 -3.18375 0
M  V30 2418 H 233.675 3.6734 -3.16528 0
M  V30 2419 N 235.018 0.912232 1.28515 0
M  V30 2420 C 236.258 0.551677 1.96814 0
M  V30 2421 C 236.622 -0.887825 1.7024 0
M  V30 2422 O 237.823 -1.35588 2.32098 0
M  V30 2423 C 236.094 0.850555 3.47132 0
M  V30 2424 S 237.653 0.59619 4.34731 0
M  V30 2425 H 234.471 0.204191 0.681049 0
M  V30 2426 H 237.073 1.17736 1.56072 0
M  V30 2427 H 235.777 1.8962 3.63968 0
M  V30 2428 H 235.308 0.213471 3.9282 0
M  V30 2429 H 237.323 -0.553154 4.93107 0
M  V30 2430 N 236.496 -1.42363 0.676048 0
M  V30 2431 C 237.912 -1.55811 0.345718 0
M  V30 2432 C 238.112 -1.65544 -1.14879 0
M  V30 2433 O 237.168 -1.62306 -1.93424 0
M  V30 2434 C 238.481 -2.80746 1.07713 0
M  V30 2435 C 240.029 -2.9452 1.05958 0
M  V30 2436 C 240.504 -4.22318 1.77233 0
M  V30 2437 N 241.995 -4.29233 1.74108 0
M  V30 2438 C 242.73 -5.26935 2.26113 0
M  V30 2439 N 242.226 -6.30783 2.86505 0
M  V30 2440 N 244.019 -5.18741 2.1648 0
M  V30 2441 H 236.17 -1.34289 1.6456 0
M  V30 2442 H 238.433 -0.646506 0.69335 0
M  V30 2443 H 238.139 -2.79696 2.13221 0
M  V30 2444 H 238.013 -3.71676 0.64316 0
M  V30 2445 H 240.4 -2.95097 0.0128255 0
M  V30 2446 H 240.481 -2.04817 1.53244 0
M  V30 2447 H 240.125 -4.22502 2.81877 0
M  V30 2448 H 240.055 -5.10958 1.27396 0
M  V30 2449 H 242.546 -3.54814 1.30059 0
M  V30 2450 H 242.859 -7.01691 3.23805 0
M  V30 2451 H 241.204 -6.31341 2.90575 0
M  V30 2452 H 244.395 -4.36533 1.68987 0
M  V30 2453 H 244.568 -5.94721 2.57316 0
M  V30 2454 N 237.974 -0.419461 -1.51915 0
M  V30 2455 C 239.39 -0.0708431 -1.59443 0
M  V30 2456 C 239.59 1.41796 -1.43164 0
M  V30 2457 O 238.646 2.18596 -1.26381 0
M  V30 2458 C 239.959 -0.574991 -2.95151 0
M  V30 2459 C 241.507 -0.533867 -3.08413 0
M  V30 2460 C 241.982 -1.01469 -4.46618 0
M  V30 2461 N 243.473 -0.971939 -4.52888 0
M  V30 2462 C 244.208 -1.31505 -5.58116 0
M  V30 2463 N 243.704 -1.73014 -6.70849 0
M  V30 2464 N 245.497 -1.23436 -5.48379 0
M  V30 2465 H 237.648 -1.38836 -1.60743 0
M  V30 2466 H 239.911 -0.570998 -0.756747 0
M  V30 2467 H 239.617 -1.61597 -3.12377 0
M  V30 2468 H 239.491 0.00979777 -3.77199 0
M  V30 2469 H 241.878 0.498086 -2.90866 0
M  V30 2470 H 241.959 -1.15484 -2.28248 0
M  V30 2471 H 241.603 -2.04502 -4.6491 0
M  V30 2472 H 241.533 -0.370433 -5.25295 0
M  V30 2473 H 244.024 -0.666893 -3.71969 0
M  V30 2474 H 244.337 -1.97479 -7.47143 0
M  V30 2475 H 242.682 -1.76926 -6.72103 0
M  V30 2476 H 245.873 -0.908869 -4.59192 0
M  V30 2477 H 246.046 -1.50506 -6.30279 0
M  V30 2478 N 239.452 1.56882 -0.150215 0
M  V30 2479 C 240.692 1.98119 0.502804 0
M  V30 2480 C 241.056 1.03327 1.61826 0
M  V30 2481 O 242.257 1.33621 2.33236 0
M  V30 2482 C 240.528 3.43329 0.992988 0
M  V30 2483 S 242.087 4.0659 1.65015 0
M  V30 2484 H 238.905 0.692189 0.162467 0
M  V30 2485 H 241.507 1.93988 -0.242689 0
M  V30 2486 H 240.211 4.10046 0.170436 0
M  V30 2487 H 239.742 3.5118 1.77303 0
M  V30 2488 H 241.757 3.99906 2.93752 0
M  V30 2489 N 240.93 -0.123565 1.57115 0
M  V30 2490 C 242.16 -0.845233 1.88519 0
M  V30 2491 C 242.568 -1.74168 0.739064 0
M  V30 2492 O 241.911 -1.81244 -0.299355 0
M  V30 2493 C 241.973 -1.73452 3.14888 0
M  V30 2494 C 241.637 -1.01285 4.45635 0
M  V30 2495 C 242.634 -0.355774 5.18681 0
M  V30 2496 C 240.319 -0.99538 4.92339 0
M  V30 2497 C 242.313 0.309114 6.3665 0
M  V30 2498 C 240 -0.32669 6.10226 0
M  V30 2499 C 240.998 0.324406 6.82229 0
M  V30 2500 O 240.686 0.982437 7.97874 0
M  V30 2501 H 240.418 -0.248534 0.628655 0
M  V30 2502 H 242.972 -0.113907 2.05084 0
M  V30 2503 H 241.202 -2.50737 2.94394 0
M  V30 2504 H 242.891 -2.33021 3.32349 0
M  V30 2505 H 243.657 -0.360918 4.83655 0
M  V30 2506 H 239.536 -1.49159 4.36202 0
M  V30 2507 H 243.08 0.8179 6.92789 0
M  V30 2508 H 238.977 -0.319294 6.4471 0
M  V30 2509 H 239.745 0.886454 8.13686 0
M  V30 2510 N 242.408 -1.52605 -0.393616 0
M  V30 2511 C 243.824 -1.41753 -0.733357 0
M  V30 2512 C 244.024 -0.534293 -1.94287 0
M  V30 2513 O 243.08 -0.0059787 -2.52499 0
M  V30 2514 C 244.393 -2.84531 -0.972772 0
M  V30 2515 C 245.941 -2.93978 -1.07453 0
M  V30 2516 C 246.416 -4.37756 -1.3466 0
M  V30 2517 N 247.907 -4.4106 -1.41492 0
M  V30 2518 C 248.642 -5.49387 -1.642 0
M  V30 2519 N 248.138 -6.67806 -1.8441 0
M  V30 2520 N 249.931 -5.36923 -1.66342 0
M  V30 2521 H 242.082 -2.08555 0.402328 0
M  V30 2522 H 244.345 -0.940654 0.117789 0
M  V30 2523 H 244.051 -3.51353 -0.156204 0
M  V30 2524 H 243.925 -3.26508 -1.88871 0
M  V30 2525 H 246.312 -2.27326 -1.88167 0
M  V30 2526 H 246.393 -2.55435 -0.136605 0
M  V30 2527 H 246.037 -5.04972 -0.544581 0
M  V30 2528 H 245.967 -4.73848 -2.2973 0
M  V30 2529 H 248.458 -3.55705 -1.27601 0
M  V30 2530 H 248.771 -7.46141 -2.01231 0
M  V30 2531 H 247.116 -6.70843 -1.81644 0
M  V30 2532 H 250.307 -4.43381 -1.50102 0
M  V30 2533 H 250.48 -6.21416 -1.837 0
M  V30 2534 N 243.887 0.651787 -1.4349 0
M  V30 2535 C 244.817 1.77621 -1.51569 0
M  V30 2536 C 245.798 1.66022 -0.370253 0
M  V30 2537 O 246.983 1.85095 -0.587658 0
M  V30 2538 C 244.113 3.16056 -1.43966 0
M  V30 2539 C 243.067 3.4242 -2.56774 0
M  V30 2540 C 242.393 4.8067 -2.34223 0
M  V30 2541 C 243.693 3.37023 -3.99015 0
M  V30 2542 H 245.387 1.71117 -2.45681 0
M  V30 2543 H 242.933 0.821825 -1.18246 0
M  V30 2544 H 244.886 3.94472 -1.48221 0
M  V30 2545 H 243.61 3.23293 -0.463586 0
M  V30 2546 H 242.269 2.66375 -2.51873 0
M  V30 2547 H 241.917 4.84585 -1.34856 0
M  V30 2548 H 241.617 4.9927 -3.09844 0
M  V30 2549 H 243.141 5.61342 -2.40265 0
M  V30 2550 H 244.555 4.05374 -4.05395 0
M  V30 2551 H 242.952 3.67159 -4.74673 0
M  V30 2552 H 244.022 2.3518 -4.2405 0
M  V30 2553 N 245.365 1.30045 0.890287 0
M  V30 2554 C 246.312 1.15976 1.99545 0
M  V30 2555 C 247.282 0.0506202 1.66023 0
M  V30 2556 O 248.467 0.219847 1.89529 0
M  V30 2557 C 245.607 0.852054 3.34416 0
M  V30 2558 C 244.72 2.04255 3.80662 0
M  V30 2559 C 243.855 1.6734 5.04154 0
M  V30 2560 C 242.894 2.82916 5.42794 0
M  V30 2561 N 242.031 2.46333 6.57468 0
M  V30 2562 H 246.871 2.10524 2.10911 0
M  V30 2563 H 244.408 1.04749 1.03276 0
M  V30 2564 H 246.366 0.654296 4.12037 0
M  V30 2565 H 244.996 -0.0565502 3.2275 0
M  V30 2566 H 244.048 2.35172 2.98995 0
M  V30 2567 H 245.36 2.90826 4.05242 0
M  V30 2568 H 244.514 1.43908 5.89386 0
M  V30 2569 H 243.253 0.779308 4.81433 0
M  V30 2570 H 242.258 3.0702 4.56091 0
M  V30 2571 H 243.483 3.73004 5.6749 0
M  V30 2572 H 241.429 1.59423 6.36334 0
M  V30 2573 H 241.346 3.26436 6.81891 0
M  V30 2574 H 242.614 2.26244 7.45945 0
M  V30 2575 N 246.843 -1.10192 1.12674 0
M  V30 2576 C 247.793 -2.14754 0.765801 0
M  V30 2577 C 248.777 -1.59154 -0.236409 0
M  V30 2578 O 249.969 -1.76951 -0.0415261 0
M  V30 2579 C 247.098 -3.42563 0.224827 0
M  V30 2580 C 246.184 -4.05091 1.25548 0
M  V30 2581 N 246.575 -4.42287 2.4539 0
M  V30 2582 C 244.873 -4.32186 1.10142 0
M  V30 2583 C 245.574 -4.91441 3.11224 0
M  V30 2584 N 244.55 -4.88405 2.38666 0
M  V30 2585 H 248.352 -2.41309 1.67772 0
M  V30 2586 H 245.866 -1.27339 1.00789 0
M  V30 2587 H 247.863 -4.16868 -0.0519578 0
M  V30 2588 H 246.523 -3.17467 -0.681515 0
M  V30 2589 H 247.534 -4.33902 2.82754 0
M  V30 2590 H 244.211 -4.16735 0.252587 0
M  V30 2591 H 245.601 -5.29749 4.13298 0
M  V30 2592 N 248.321 -0.919034 -1.28029 0
M  V30 2593 C 249.251 -0.428581 -2.29533 0
M  V30 2594 C 250.232 0.50659 -1.62381 0
M  V30 2595 O 251.417 0.413195 -1.89753 0
M  V30 2596 C 248.547 0.327388 -3.45753 0
M  V30 2597 C 247.501 -0.519137 -4.2484 0
M  V30 2598 C 246.827 0.365486 -5.33449 0
M  V30 2599 C 248.127 -1.77914 -4.91064 0
M  V30 2600 H 249.821 -1.27687 -2.70807 0
M  V30 2601 H 247.367 -0.615428 -1.30186 0
M  V30 2602 H 249.32 0.681378 -4.15855 0
M  V30 2603 H 248.044 1.20963 -3.03374 0
M  V30 2604 H 246.703 -0.855717 -3.56473 0
M  V30 2605 H 246.351 1.24642 -4.87312 0
M  V30 2606 H 246.051 -0.197356 -5.87268 0
M  V30 2607 H 247.575 0.715241 -6.06396 0
M  V30 2608 H 248.989 -1.49374 -5.53498 0
M  V30 2609 H 247.386 -2.2848 -5.54903 0
M  V30 2610 H 248.456 -2.50382 -4.15255 0
M  V30 2611 N 249.799 1.42003 -0.683588 0
M  V30 2612 C 251.024 2.06265 -0.216647 0
M  V30 2613 C 251.449 1.51059 1.12083 0
M  V30 2614 O 250.807 0.632638 1.69904 0
M  V30 2615 C 250.855 3.60191 -0.171759 0
M  V30 2616 O 249.959 4.03396 0.857069 0
M  V30 2617 H 249.3 0.65502 -0.108834 0
M  V30 2618 H 251.83 1.81982 -0.935077 0
M  V30 2619 H 251.84 4.08 0.0014303 0
M  V30 2620 H 250.515 3.99743 -1.14796 0
M  V30 2621 H 249.092 3.67117 0.654208 0
M  V30 2622 N 251.277 0.427512 1.51691 0
M  V30 2623 C 252.688 -0.0378867 1.86662 0
M  V30 2624 C 253.039 -1.42819 1.34525 0
M  V30 2625 O 252.164 -2.05037 0.692014 0
M  V30 2626 C 252.759 -0.0755266 3.38716 0
M  V30 2627 C 251.318 -0.485309 3.73258 0
M  V30 2628 C 250.465 0.328399 2.75349 0
M  V30 2629 H 253.416 0.64379 1.45055 0
M  V30 2630 H 253.437 -0.887056 3.70016 0
M  V30 2631 H 252.949 0.936487 3.76632 0
M  V30 2632 H 251.05 -1.50329 3.40928 0
M  V30 2633 H 251.163 -0.21693 4.78609 0
M  V30 2634 H 249.527 -0.211905 2.53817 0
M  V30 2635 H 250.31 1.3391 3.16106 0
M  V30 2636 N 252.755 -1.56801 0.158532 0
M  V30 2637 C 253.983 -2.00859 -0.496303 0
M  V30 2638 C 254.398 -1.03871 -1.57659 0
M  V30 2639 O 253.755 -0.0375165 -1.82461 0
M  V30 2640 C 253.806 -3.4479 -1.08638 0
M  V30 2641 O 253.527 -4.38072 -0.0492322 0
M  V30 2642 C 255.028 -4.04185 -1.8207 0
M  V30 2643 H 252.248 -0.65864 -0.128199 0
M  V30 2644 H 254.792 -2.02885 0.256506 0
M  V30 2645 H 252.947 -3.43579 -1.78975 0
M  V30 2646 H 253.361 -5.2227 -0.483102 0
M  V30 2647 H 254.835 -5.06857 -2.18633 0
M  V30 2648 H 255.312 -3.45549 -2.71095 0
M  V30 2649 H 255.918 -4.0906 -1.16405 0
M  V30 2650 N 254.233 0.115231 -1.57178 0
M  V30 2651 C 255.51 0.852873 -1.76027 0
M  V30 2652 C 255.89 1.97892 -0.73498 0
M  V30 2653 O 255.238 2.27232 0.24036 0
M  V30 2654 C 255.448 1.36608 -3.21153 0
M  V30 2655 C 256.796 1.81692 -3.83762 0
M  V30 2656 O 257.82 1.46278 -3.24779 0
M  V30 2657 O 256.679 2.47104 -4.87444 0
M  V30 2658 H 253.773 0.405296 -0.720877 0
M  V30 2659 H 256.319 0.0986785 -1.69413 0
M  V30 2660 H 255.091 0.558357 -3.87296 0
M  V30 2661 H 254.714 2.18287 -3.3232 0
M  V30 2662 N 255.711 1.52812 0.385517 0
M  V30 2663 C 257.122 1.5993 0.963293 0
M  V30 2664 C 257.473 0.454302 1.90868 0
M  V30 2665 O 256.598 -0.422132 2.12243 0
M  V30 2666 C 257.193 2.89871 1.75387 0
M  V30 2667 C 255.752 2.99389 2.28129 0
M  V30 2668 C 254.899 2.55071 1.08783 0
M  V30 2669 H 257.85 1.5784 0.164948 0
M  V30 2670 H 257.871 2.76553 2.61341 0
M  V30 2671 H 257.383 3.73186 1.06554 0
M  V30 2672 H 255.484 2.20619 3.00263 0
M  V30 2673 H 255.597 4.04096 2.57377 0
M  V30 2674 H 253.961 2.09473 1.4489 0
M  V30 2675 H 254.744 3.40785 0.414807 0
M  V30 2676 N 257.189 -0.644168 1.43834 0
M  V30 2677 C 258.435 -1.40603 1.46146 0
M  V30 2678 C 258.768 -1.93997 0.0887717 0
M  V30 2679 O 258.043 -1.72854 -0.891724 0
M  V30 2680 C 258.326 -2.58086 2.51124 0
M  V30 2681 C 258.179 -2.10126 3.97702 0
M  V30 2682 C 259.498 -3.60291 2.52742 0
M  V30 2683 H 256.617 -0.509905 0.532134 0
M  V30 2684 H 259.259 -0.729502 1.75437 0
M  V30 2685 H 257.409 -3.15801 2.26278 0
M  V30 2686 H 259.081 -1.57342 4.33637 0
M  V30 2687 H 257.324 -1.41419 4.10101 0
M  V30 2688 H 257.995 -2.94649 4.66783 0
M  V30 2689 H 260.471 -3.12352 2.7491 0
M  V30 2690 H 259.347 -4.40032 3.28121 0
M  V30 2691 H 259.608 -4.1349 1.56455 0
M  V30 2692 N 258.668 -1.30515 -0.883378 0
M  V30 2693 C 259.598 -1.19607 -2.00541 0
M  V30 2694 C 260.579 -0.086346 -1.69881 0
M  V30 2695 O 261.764 -0.268654 -1.92333 0
M  V30 2696 C 258.894 -0.888758 -3.35736 0
M  V30 2697 C 257.848 -1.95659 -3.8066 0
M  V30 2698 C 257.174 -1.50224 -5.13164 0
M  V30 2699 C 258.474 -3.36788 -3.99213 0
M  V30 2700 H 260.168 -2.13476 -2.09925 0
M  V30 2701 H 257.714 -1.02775 -1.00863 0
M  V30 2702 H 259.667 -0.799094 -4.13754 0
M  V30 2703 H 258.391 0.0856125 -3.26488 0
M  V30 2704 H 257.05 -2.03591 -3.04871 0
M  V30 2705 H 256.698 -0.516092 -5.00345 0
M  V30 2706 H 256.398 -2.2165 -5.44192 0
M  V30 2707 H 257.922 -1.42639 -5.93706 0
M  V30 2708 H 259.336 -3.31605 -4.67665 0
M  V30 2709 H 257.733 -4.06314 -4.41621 0
M  V30 2710 H 258.803 -3.78561 -3.03017 0
M  V30 2711 N 260.146 1.09593 -1.13257 0
M  V30 2712 C 261.392 1.82181 -0.904521 0
M  V30 2713 C 261.747 1.83967 0.563358 0
M  V30 2714 O 261.04 1.29566 1.41149 0
M  V30 2715 C 261.234 3.27802 -1.42411 0
M  V30 2716 C 261.063 3.40201 -2.94097 0
M  V30 2717 C 259.833 3.52104 -3.62424 0
M  V30 2718 C 262.031 3.32875 -3.92044 0
M  V30 2719 N 260.013 3.53169 -5.0214 0
M  V30 2720 C 261.384 3.40789 -5.17941 0
M  V30 2721 C 263.439 3.16531 -3.84334 0
M  V30 2722 C 262.142 3.34042 -6.37031 0
M  V30 2723 C 264.168 3.11109 -5.02956 0
M  V30 2724 C 263.53 3.19614 -6.27715 0
M  V30 2725 H 259.629 0.681015 -0.384373 0
M  V30 2726 H 262.213 1.3099 -1.44048 0
M  V30 2727 H 260.384 3.77466 -0.915086 0
M  V30 2728 H 262.116 3.88393 -1.13722 0
M  V30 2729 H 258.871 3.5548 -3.12939 0
M  V30 2730 H 259.295 3.57291 -5.75041 0
M  V30 2731 H 263.937 3.08827 -2.88766 0
M  V30 2732 H 261.655 3.4051 -7.32857 0
M  V30 2733 H 265.241 2.99601 -4.98729 0
M  V30 2734 H 264.121 3.15432 -7.17964 0
M  V30 2735 N 261.624 0.925811 1.2754 0
M  V30 2736 C 262.554 0.440748 2.29303 0
M  V30 2737 C 263.535 -0.497971 1.62648 0
M  V30 2738 O 264.72 -0.403126 1.8997 0
M  V30 2739 C 261.85 -0.309048 3.45922 0
M  V30 2740 C 260.804 0.54166 4.24559 0
M  V30 2741 C 260.13 -0.337191 5.33636 0
M  V30 2742 C 261.43 1.80516 4.90114 0
M  V30 2743 H 263.124 1.29121 2.70126 0
M  V30 2744 H 260.67 0.622323 1.29858 0
M  V30 2745 H 262.623 -0.659315 4.1621 0
M  V30 2746 H 261.347 -1.19352 3.04011 0
M  V30 2747 H 260.006 0.874609 3.56014 0
M  V30 2748 H 259.654 -1.22056 4.87966 0
M  V30 2749 H 259.354 0.228497 5.87156 0
M  V30 2750 H 260.878 -0.683072 6.06767 0
M  V30 2751 H 262.292 1.52307 5.52698 0
M  V30 2752 H 260.689 2.3142 5.53683 0
M  V30 2753 H 261.759 2.52581 4.13921 0
M  V30 2754 N 263.102 -1.41638 0.69111 0
M  V30 2755 C 264.518 -1.55435 0.362224 0
M  V30 2756 C 264.718 -1.66754 -1.13117 0
M  V30 2757 O 263.774 -1.64348 -1.91692 0
M  V30 2758 C 265.087 -2.79588 1.10684 0
M  V30 2759 C 266.635 -2.9338 1.09075 0
M  V30 2760 C 267.11 -4.20414 1.81703 0
M  V30 2761 N 268.601 -4.27362 1.7865 0
M  V30 2762 C 269.336 -5.24507 2.31689 0
M  V30 2763 N 268.832 -6.27708 2.93179 0
M  V30 2764 N 270.625 -5.16416 2.2197 0
M  V30 2765 H 262.776 -1.32536 1.65976 0
M  V30 2766 H 265.039 -0.639115 0.700168 0
M  V30 2767 H 264.745 -2.77419 2.16175 0
M  V30 2768 H 264.619 -3.70973 0.682545 0
M  V30 2769 H 267.006 -2.95067 0.0441238 0
M  V30 2770 H 267.087 -2.0318 1.55407 0
M  V30 2771 H 266.731 -4.19488 2.86343 0
M  V30 2772 H 266.661 -5.09578 1.32808 0
M  V30 2773 H 269.152 -3.53415 1.33815 0
M  V30 2774 H 269.465 -6.98217 3.31229 0
M  V30 2775 H 267.81 -6.28223 2.97255 0
M  V30 2776 H 271.001 -4.34716 1.73607 0
M  V30 2777 H 271.174 -5.91958 2.63609 0
M  V30 2778 N 264.58 -0.43555 -1.51462 0
M  V30 2779 C 265.805 0.132627 -2.06976 0
M  V30 2780 C 266.23 1.35848 -1.30104 0
M  V30 2781 O 265.588 1.78112 -0.338493 0
M  V30 2782 C 265.636 0.43523 -3.57964 0
M  V30 2783 O 264.74 1.52198 -3.83288 0
M  V30 2784 H 264.081 0.00265 -0.663995 0
M  V30 2785 H 266.611 -0.616369 -1.95095 0
M  V30 2786 H 266.621 0.686206 -4.02188 0
M  V30 2787 H 265.296 -0.460739 -4.1334 0
M  V30 2788 H 263.873 1.2611 -3.50928 0
M  V30 2789 N 266.058 1.56714 -0.166846 0
M  V30 2790 C 267.304 1.97039 0.479962 0
M  V30 2791 C 267.637 1.05264 1.63197 0
M  V30 2792 O 266.912 0.0988833 1.94248 0
M  V30 2793 C 267.195 3.46867 0.967212 0
M  V30 2794 C 267.048 4.49421 -0.18466 0
M  V30 2795 C 268.367 3.9968 1.84238 0
M  V30 2796 H 265.486 0.71641 0.172992 0
M  V30 2797 H 268.128 1.8832 -0.252079 0
M  V30 2798 H 266.278 3.54428 1.59101 0
M  V30 2799 H 267.95 4.53924 -0.821621 0
M  V30 2800 H 266.193 4.25573 -0.840837 0
M  V30 2801 H 266.864 5.51644 0.198317 0
M  V30 2802 H 269.34 3.94723 1.31655 0
M  V30 2803 H 268.216 5.04941 2.15234 0
M  V30 2804 H 268.477 3.43226 2.78654 0
M  V30 2805 N 267.536 -0.106894 1.57237 0
M  V30 2806 C 268.813 -0.843526 1.76477 0
M  V30 2807 C 269.193 -1.97499 0.745464 0
M  V30 2808 O 268.541 -2.27357 -0.228306 0
M  V30 2809 C 268.751 -1.34903 3.21873 0
M  V30 2810 C 270.099 -1.79654 3.8472 0
M  V30 2811 O 271.123 -1.44554 3.2555 0
M  V30 2812 O 269.982 -2.44515 4.88748 0
M  V30 2813 H 267.076 -0.401468 0.723016 0
M  V30 2814 H 269.622 -0.0896927 1.69463 0
M  V30 2815 H 268.394 -0.53781 3.87586 0
M  V30 2816 H 268.017 -2.16522 3.33473 0
M  V30 2817 N 269.014 -1.53014 -0.377408 0
M  V30 2818 C 270.43 -1.42523 -0.718281 0
M  V30 2819 C 270.63 -0.55487 -1.9371 0
M  V30 2820 O 269.686 -0.0327593 -2.52479 0
M  V30 2821 C 270.999 -2.85546 -0.942539 0
M  V30 2822 C 272.547 -2.95101 -1.04329 0
M  V30 2823 C 273.022 -4.3916 -1.3001 0
M  V30 2824 N 274.513 -4.42536 -1.36806 0
M  V30 2825 C 275.248 -5.51097 -1.58364 0
M  V30 2826 N 274.744 -6.69724 -1.77317 0
M  V30 2827 N 276.537 -5.38657 -1.60638 0
M  V30 2828 H 268.688 -2.08116 0.424426 0
M  V30 2829 H 270.951 -0.939352 0.127759 0
M  V30 2830 H 270.657 -3.51499 -0.118929 0
M  V30 2831 H 270.531 -3.28493 -1.85397 0
M  V30 2832 H 272.918 -2.29309 -1.85745 0
M  V30 2833 H 272.999 -2.55566 -0.109505 0
M  V30 2834 H 272.643 -5.05521 -0.490991 0
M  V30 2835 H 272.573 -4.76258 -2.24691 0
M  V30 2836 H 275.064 -3.57039 -1.23821 0
M  V30 2837 H 275.377 -7.48233 -1.93306 0
M  V30 2838 H 273.722 -6.72732 -1.74518 0
M  V30 2839 H 276.913 -4.44948 -1.45391 0
M  V30 2840 H 277.086 -6.2333 -1.77098 0
M  V30 2841 N 270.492 0.636531 -1.44174 0
M  V30 2842 C 271.717 1.42847 -1.50364 0
M  V30 2843 C 272.142 1.87665 -0.127867 0
M  V30 2844 O 271.5 1.58408 0.88185 0
M  V30 2845 C 271.548 2.62854 -2.4686 0
M  V30 2846 O 270.652 3.62501 -1.9664 0
M  V30 2847 H 269.993 0.427642 -0.507955 0
M  V30 2848 H 272.523 0.777422 -1.89255 0
M  V30 2849 H 272.533 3.10465 -2.64718 0
M  V30 2850 H 271.208 2.29578 -3.46795 0
M  V30 2851 H 269.785 3.21735 -1.88523 0
M  V30 2852 N 271.97 1.30982 0.876444 0
M  V30 2853 C 272.9 1.20668 1.99903 0
M  V30 2854 C 273.881 0.095354 1.69833 0
M  V30 2855 O 275.066 0.27885 1.92188 0
M  V30 2856 C 272.196 0.90655 3.3526 0
M  V30 2857 C 271.15 1.97675 3.79617 0
M  V30 2858 C 270.476 1.52943 5.1236 0
M  V30 2859 C 271.776 3.389 3.97422 0
M  V30 2860 H 273.47 2.14586 2.0879 0
M  V30 2861 H 271.016 1.03308 1.00317 0
M  V30 2862 H 272.969 0.821025 4.13324 0
M  V30 2863 H 271.693 -0.0682969 3.26529 0
M  V30 2864 H 270.352 2.05205 3.03787 0
M  V30 2865 H 270 0.54262 5.00065 0
M  V30 2866 H 269.7 2.24532 5.43009 0
M  V30 2867 H 271.224 1.45786 5.92941 0
M  V30 2868 H 272.638 3.34081 4.659 0
M  V30 2869 H 271.035 4.0865 4.3946 0
M  V30 2870 H 272.105 3.80163 3.01006 0
M  V30 2871 N 273.449 -1.08991 1.13837 0
M  V30 2872 C 274.379 -2.17771 0.842507 0
M  V30 2873 C 275.36 -1.6892 -0.20001 0
M  V30 2874 O 276.545 -1.94113 -0.0579731 0
M  V30 2875 C 273.675 -3.4589 0.312644 0
M  V30 2876 C 272.629 -4.08099 1.28992 0
M  V30 2877 C 271.955 -5.31098 0.619623 0
M  V30 2878 C 273.255 -4.50077 2.65005 0
M  V30 2879 H 274.949 -2.42777 1.75213 0
M  V30 2880 H 272.495 -1.16682 0.843875 0
M  V30 2881 H 274.448 -4.21297 0.0933043 0
M  V30 2882 H 273.172 -3.20419 -0.632382 0
M  V30 2883 H 271.831 -3.34717 1.49533 0
M  V30 2884 H 271.479 -5.0191 -0.33102 0
M  V30 2885 H 271.179 -5.73674 1.27167 0
M  V30 2886 H 272.703 -6.09224 0.409669 0
M  V30 2887 H 274.117 -5.16688 2.48407 0
M  V30 2888 H 272.514 -5.03553 3.26427 0
M  V30 2889 H 273.584 -3.62257 3.22332 0
M  V30 2890 N 274.927 -0.932562 -1.27047 0
M  V30 2891 C 275.857 -0.452902 -2.29066 0
M  V30 2892 C 276.838 0.489338 -1.62909 0
M  V30 2893 O 278.023 0.393046 -1.90181 0
M  V30 2894 C 275.153 0.290698 -3.46081 0
M  V30 2895 C 274.107 -0.564168 -4.24265 0
M  V30 2896 C 273.433 0.308886 -5.33807 0
M  V30 2897 C 274.733 -1.83112 -4.89149 0
M  V30 2898 H 276.427 -1.30552 -2.69437 0
M  V30 2899 H 273.973 -0.629201 -1.29526 0
M  V30 2900 H 275.926 0.637233 -4.16554 0
M  V30 2901 H 274.65 1.17738 -3.0464 0
M  V30 2902 H 273.309 -0.893477 -3.55545 0
M  V30 2903 H 272.957 1.19467 -4.88607 0
M  V30 2904 H 272.657 -0.259633 -5.87026 0
M  V30 2905 H 274.181 0.650884 -6.07121 0
M  V30 2906 H 275.595 -1.55236 -5.51883 0
M  V30 2907 H 273.992 -2.34353 -5.52448 0
M  V30 2908 H 275.062 -2.54772 -4.12576 0
M  V30 2909 N 276.405 1.4127 -0.698611 0
M  V30 2910 C 277.337 2.292 0.00399731 0
M  V30 2911 C 278.35 1.44944 0.741279 0
M  V30 2912 O 279.539 1.68416 0.591477 0
M  V30 2913 C 276.639 3.22875 1.02979 0
M  V30 2914 C 275.812 4.35904 0.36151 0
M  V30 2915 C 274.871 5.10134 1.29033 0
M  V30 2916 O 273.897 5.63809 0.781562 0
M  V30 2917 N 275.099 5.17885 2.6225 0
M  V30 2918 H 277.864 2.9014 -0.750921 0
M  V30 2919 H 275.425 1.52455 -0.544882 0
M  V30 2920 H 277.417 3.69404 1.65296 0
M  V30 2921 H 275.987 2.63221 1.68622 0
M  V30 2922 H 275.207 3.91719 -0.441584 0
M  V30 2923 H 276.495 5.08696 -0.103055 0
M  V30 2924 H 275.893 4.7573 3.061 0
M  V30 2925 H 274.45 5.6798 3.19754 0
M  V30 2926 N 277.883 0.443576 1.51229 0
M  V30 2927 C 279.131 -0.120557 2.0174 0
M  V30 2928 C 279.452 -1.42665 1.32935 0
M  V30 2929 O 278.722 -1.9028 0.465866 0
M  V30 2930 H 277.302 -0.0475426 0.745486 0
M  V30 2931 H 279.964 0.587711 1.85828 0
M  V30 2932 H 279.06 -0.291972 3.10731 0
M  V30 2933 N 279.361 -1.56624 0.175154 0
M  V30 2934 C 280.607 -1.98061 -0.462976 0
M  V30 2935 C 280.962 -1.05949 -1.60601 0
M  V30 2936 O 280.255 -0.0999027 -1.91339 0
M  V30 2937 C 280.449 -3.43419 -0.989864 0
M  V30 2938 C 280.278 -4.49587 0.100583 0
M  V30 2939 C 279.048 -5.02281 0.551539 0
M  V30 2940 C 281.246 -5.06322 0.902369 0
M  V30 2941 N 279.228 -5.92088 1.62189 0
M  V30 2942 C 280.599 -5.92607 1.82256 0
M  V30 2943 C 282.654 -4.88811 0.947019 0
M  V30 2944 C 281.357 -6.63254 2.78364 0
M  V30 2945 C 283.383 -5.60182 1.89606 0
M  V30 2946 C 282.745 -6.46197 2.80372 0
M  V30 2947 H 278.844 -0.769833 -0.137409 0
M  V30 2948 H 281.428 -1.9273 0.276256 0
M  V30 2949 H 279.599 -3.49288 -1.6986 0
M  V30 2950 H 281.331 -3.7186 -1.59694 0
M  V30 2951 H 278.086 -4.73367 0.148537 0
M  V30 2952 H 278.51 -6.41696 2.15767 0
M  V30 2953 H 283.152 -4.22004 0.259304 0
M  V30 2954 H 280.87 -7.29271 3.48122 0
M  V30 2955 H 284.456 -5.48617 1.93676 0
M  V30 2956 H 283.336 -7.00453 3.52612 0
M  V30 2957 N 280.839 0.0985539 -1.57292 0
M  V30 2958 C 281.771 1.14595 -1.98496 0
M  V30 2959 C 282.784 1.36512 -0.887031 0
M  V30 2960 O 283.973 1.35225 -1.16518 0
M  V30 2961 C 281.073 2.50216 -2.28572 0
M  V30 2962 C 280.246 2.48624 -3.59868 0
M  V30 2963 C 279.305 3.66146 -3.7792 0
M  V30 2964 O 278.331 3.48795 -4.49812 0
M  V30 2965 N 279.533 4.85496 -3.18235 0
M  V30 2966 H 282.298 0.795277 -2.88956 0
M  V30 2967 H 279.859 0.287579 -1.59325 0
M  V30 2968 H 281.851 3.27432 -2.37845 0
M  V30 2969 H 280.421 2.77387 -1.44136 0
M  V30 2970 H 279.641 1.56978 -3.61596 0
M  V30 2971 H 280.929 2.44635 -4.46129 0
M  V30 2972 H 280.327 5.02497 -2.59833 0
M  V30 2973 H 278.884 5.60317 -3.32999 0
M  V30 2974 N 282.317 1.53212 0.369288 0
M  V30 2975 C 283.594 1.59815 1.12776 0
M  V30 2976 C 283.974 0.403402 2.0721 0
M  V30 2977 O 283.322 -0.606667 2.20299 0
M  V30 2978 C 283.532 2.94664 1.87013 0
M  V30 2979 C 284.88 3.49109 2.41677 0
M  V30 2980 O 285.904 2.96669 1.97144 0
M  V30 2981 O 284.763 4.40775 3.23079 0
M  V30 2982 H 281.857 0.645376 0.517125 0
M  V30 2983 H 284.403 1.65553 0.37285 0
M  V30 2984 H 283.175 3.73061 1.18071 0
M  V30 2985 H 282.798 2.92401 2.69421 0
M  V30 2986 N 283.795 -0.628877 1.44509 0
M  V30 2987 C 284.727 -1.754 1.47538 0
M  V30 2988 C 285.74 -1.58575 0.368506 0
M  V30 2989 O 286.929 -1.66847 0.634376 0
M  V30 2990 C 284.029 -3.1315 1.29577 0
M  V30 2991 C 283.202 -3.56413 2.53551 0
M  V30 2992 C 282.261 -4.7305 2.30457 0
M  V30 2993 O 281.287 -4.81247 3.03957 0
M  V30 2994 N 282.489 -5.64903 1.3366 0
M  V30 2995 H 285.254 -1.73272 2.44534 0
M  V30 2996 H 282.815 -0.813512 1.39977 0
M  V30 2997 H 284.807 -3.88902 1.11971 0
M  V30 2998 H 283.377 -3.09908 0.409371 0
M  V30 2999 H 282.597 -2.70847 2.86419 0
M  V30 3000 H 283.885 -3.82071 3.36005 0
M  V30 3001 H 283.283 -5.60975 0.729604 0
M  V30 3002 H 281.84 -6.40275 1.22032 0
M  V30 3003 N 285.273 -1.31445 -0.869486 0
M  V30 3004 C 286.521 -1.20918 -1.61936 0
M  V30 3005 C 286.842 0.232683 -1.93607 0
M  V30 3006 O 286.112 1.15352 -1.58338 0
M  V30 3007 H 284.692 -0.44454 -0.600328 0
M  V30 3008 H 287.354 -1.64776 -1.0409 0
M  V30 3009 H 286.45 -1.78124 -2.56278 0
M  V30 3010 N 286.751 1.08385 -1.14413 0
M  V30 3011 C 287.998 1.80776 -0.912482 0
M  V30 3012 C 288.326 1.86236 0.560934 0
M  V30 3013 O 287.581 1.33431 1.43159 0
M  V30 3014 C 287.88 3.26273 -1.45879 0
M  V30 3015 C 287.546 3.4093 -2.95089 0
M  V30 3016 C 286.208 3.44638 -3.35824 0
M  V30 3017 C 288.56 3.44591 -3.91033 0
M  V30 3018 C 285.888 3.49597 -4.71167 0
M  V30 3019 C 288.24 3.51086 -5.26233 0
M  V30 3020 C 286.904 3.53067 -5.6648 0
M  V30 3021 H 286.174 0.661507 -0.333901 0
M  V30 3022 H 288.821 1.27613 -1.42784 0
M  V30 3023 H 287.126 3.82146 -0.864376 0
M  V30 3024 H 288.823 3.80839 -1.2555 0
M  V30 3025 H 285.413 3.38736 -2.62594 0
M  V30 3026 H 289.597 3.40957 -3.60641 0
M  V30 3027 H 284.853 3.49424 -5.0171 0
M  V30 3028 H 289.027 3.52864 -6.00383 0
M  V30 3029 H 286.654 3.56662 -6.71339 0
M  V30 3030 N 288.23 0.939286 1.26551 0
M  V30 3031 C 289.479 0.581601 1.93133 0
M  V30 3032 C 289.792 -0.883224 1.74524 0
M  V30 3033 O 290.998 -1.3502 2.35546 0
M  V30 3034 C 289.454 0.989425 3.46032 0
M  V30 3035 C 289.062 2.47573 3.73379 0
M  V30 3036 C 290.806 0.703544 4.18629 0
M  V30 3037 C 288.713 2.82235 5.19709 0
M  V30 3038 H 287.643 0.213803 0.723052 0
M  V30 3039 H 290.294 1.14167 1.4366 0
M  V30 3040 H 288.676 0.357902 3.94379 0
M  V30 3041 H 289.85 3.15614 3.35744 0
M  V30 3042 H 288.165 2.73471 3.1401 0
M  V30 3043 H 290.762 0.938869 5.26393 0
M  V30 3044 H 291.105 -0.359639 4.14744 0
M  V30 3045 H 291.638 1.2947 3.76141 0
M  V30 3046 H 288.377 3.87509 5.28694 0
M  V30 3047 H 287.897 2.18854 5.58447 0
M  V30 3048 H 289.576 2.70599 5.87695 0
M  V30 3049 N 289.708 -1.40897 0.706093 0
M  V30 3050 C 290.936 -2.05373 0.250887 0
M  V30 3051 C 291.351 -1.53172 -1.10381 0
M  V30 3052 O 290.708 -0.684305 -1.69185 0
M  V30 3053 C 290.759 -3.6088 0.211571 0
M  V30 3054 O 290.48 -4.11153 1.51276 0
M  V30 3055 C 291.981 -4.42517 -0.263346 0
M  V30 3056 H 289.201 -0.66115 0.114552 0
M  V30 3057 H 291.745 -1.80479 0.961635 0
M  V30 3058 H 289.9 -3.84777 -0.450073 0
M  V30 3059 H 290.314 -5.05279 1.40689 0
M  V30 3060 H 291.788 -5.51479 -0.239718 0
M  V30 3061 H 292.265 -4.19396 -1.30397 0
M  V30 3062 H 292.871 -4.23708 0.367677 0
M  V30 3063 N 291.186 -0.45159 -1.50991 0
M  V30 3064 C 292.597 0.00818571 -1.86698 0
M  V30 3065 C 292.948 1.40661 -1.3678 0
M  V30 3066 O 292.073 2.0391 -0.724546 0
M  V30 3067 C 292.668 0.0216303 -3.38793 0
M  V30 3068 C 291.227 0.425865 -3.73983 0
M  V30 3069 C 290.374 -0.372163 -2.74791 0
M  V30 3070 H 293.325 -0.666785 -1.44013 0
M  V30 3071 H 293.346 0.828078 -3.7138 0
M  V30 3072 H 292.858 -0.996288 -3.75094 0
M  V30 3073 H 290.959 1.44886 -3.43277 0
M  V30 3074 H 291.072 0.140761 -4.78893 0
M  V30 3075 H 289.436 0.171498 -2.54122 0
M  V30 3076 H 290.219 -1.38922 -3.13935 0
M  V30 3077 N 292.664 1.56529 -0.183458 0
M  V30 3078 C 293.627 2.17324 0.728223 0
M  V30 3079 C 294.627 1.12453 1.14939 0
M  V30 3080 O 295.817 1.37902 1.06437 0
M  V30 3081 C 292.949 2.76591 1.99274 0
M  V30 3082 H 294.142 2.99241 0.198772 0
M  V30 3083 H 291.695 1.5616 0.0661391 0
M  V30 3084 H 292.43 1.98441 2.56499 0
M  V30 3085 H 292.215 3.5335 1.69959 0
M  V30 3086 H 293.705 3.23311 2.6431 0
M  V30 3087 N 294.142 -0.090211 1.57342 0
M  V30 3088 C 295.09 -1.12792 2.03422 0
M  V30 3089 C 296.084 -1.41182 0.936166 0
M  V30 3090 O 297.29 -1.40805 1.12133 0
M  V30 3091 H 293.665 -0.380986 0.648347 0
M  V30 3092 H 295.636 -0.71299 2.89757 0
M  V30 3093 C 294.385 -2.43855 2.47851 0
M  V30 3094 H 293.708 -2.22855 3.31927 0
M  V30 3095 H 295.148 -3.14955 2.83865 0
M  V30 3096 C 293.607 -3.08503 1.3538 0
M  V30 3097 O 294.137 -3.95805 0.685641 0
M  V30 3098 N 292.343 -2.68831 1.10355 0
M  V30 3099 H 291.89 -1.97929 1.64869 0
M  V30 3100 H 291.848 -3.12412 0.353031 0
M  V30 3101 N 295.62 -1.53406 -0.361157 0
M  V30 3102 C 296.866 -1.70054 -1.10496 0
M  V30 3103 C 297.199 -0.453278 -1.88836 0
M  V30 3104 O 296.474 0.5495 -1.86576 0
M  V30 3105 C 296.757 -2.95317 -2.06058 0
M  V30 3106 C 296.61 -4.3021 -1.31298 0
M  V30 3107 C 297.929 -3.16193 -3.06121 0
M  V30 3108 H 295.048 -0.618799 -0.400321 0
M  V30 3109 H 297.69 -1.86052 -0.385318 0
M  V30 3110 H 295.84 -2.81809 -2.67425 0
M  V30 3111 H 297.512 -4.55538 -0.726807 0
M  V30 3112 H 295.755 -4.29421 -0.614853 0
M  V30 3113 H 296.426 -5.14 -2.01265 0
M  V30 3114 H 298.902 -3.28916 -2.5486 0
M  V30 3115 H 297.778 -4.05266 -3.70204 0
M  V30 3116 H 298.039 -2.31676 -3.76535 0
M  V30 3117 N 297.098 0.621204 -1.44841 0
M  V30 3118 C 298.344 1.3826 -1.48365 0
M  V30 3119 C 298.677 1.93831 -0.119624 0
M  V30 3120 O 297.952 1.74251 0.864111 0
M  V30 3121 C 298.235 2.54058 -2.55199 0
M  V30 3122 C 298.088 2.03772 -4.00995 0
M  V30 3123 C 299.407 3.56225 -2.58442 0
M  V30 3124 H 296.526 0.501374 -0.540179 0
M  V30 3125 H 299.168 0.7015 -1.76576 0
M  V30 3126 H 297.318 3.12162 -2.31274 0
M  V30 3127 H 298.99 1.50423 -4.36086 0
M  V30 3128 H 297.233 1.34876 -4.12299 0
M  V30 3129 H 297.904 2.87185 -4.71411 0
M  V30 3130 H 300.38 3.07939 -2.79844 0
M  V30 3131 H 299.256 4.34756 -3.3508 0
M  V30 3132 H 299.517 4.10949 -1.63013 0
M  V30 3133 N 298.576 1.31904 0.862503 0
M  V30 3134 C 299.823 1.22017 1.61611 0
M  V30 3135 C 300.151 -0.21991 1.93253 0
M  V30 3136 O 299.406 -1.17076 1.56817 0
M  V30 3137 C 299.705 2.01713 2.95037 0
M  V30 3138 C 299.371 3.51145 2.82857 0
M  V30 3139 C 298.033 3.91889 2.79243 0
M  V30 3140 C 300.385 4.46204 2.69353 0
M  V30 3141 C 297.713 5.25947 2.59993 0
M  V30 3142 C 300.065 5.80397 2.5164 0
M  V30 3143 C 298.729 6.20352 2.46413 0
M  V30 3144 H 297.999 0.44649 0.591378 0
M  V30 3145 H 300.646 1.63248 1.00111 0
M  V30 3146 H 298.951 1.53185 3.60613 0
M  V30 3147 H 300.648 1.91437 3.52353 0
M  V30 3148 H 297.238 3.1878 2.86491 0
M  V30 3149 H 301.422 4.15652 2.71196 0
M  V30 3150 H 296.678 5.5597 2.54376 0
M  V30 3151 H 300.852 6.53676 2.40169 0
M  V30 3152 H 298.479 7.24172 2.31256 0
M  V30 3153 N 300.054 -1.07777 1.14986 0
M  V30 3154 C 300.984 -2.16865 0.865557 0
M  V30 3155 C 301.965 -1.69123 -0.182083 0
M  V30 3156 O 303.15 -1.94164 -0.0373815 0
M  V30 3157 C 300.28 -3.45539 0.349313 0
M  V30 3158 C 299.234 -4.06708 1.33313 0
M  V30 3159 C 298.56 -5.30411 0.675918 0
M  V30 3160 C 299.86 -4.47241 2.69764 0
M  V30 3161 H 301.554 -2.40905 1.77778 0
M  V30 3162 H 299.1 -1.15781 0.856203 0
M  V30 3163 H 301.053 -4.21174 0.137983 0
M  V30 3164 H 299.777 -3.21072 -0.598362 0
M  V30 3165 H 298.436 -3.33112 1.53075 0
M  V30 3166 H 298.084 -5.02232 -0.277767 0
M  V30 3167 H 297.784 -5.72293 1.33244 0
M  V30 3168 H 299.308 -6.08755 0.474262 0
M  V30 3169 H 300.722 -5.14025 2.53873 0
M  V30 3170 H 299.119 -5.00062 3.3175 0
M  V30 3171 H 300.189 -3.58818 3.26156 0
M  V30 3172 N 301.532 -0.945985 -1.26051 0
M  V30 3173 C 302.762 -0.612136 -1.97323 0
M  V30 3174 C 303.17 0.818171 -1.70595 0
M  V30 3175 O 302.513 1.55777 -0.973613 0
M  V30 3176 C 302.575 -0.780347 -3.50929 0
M  V30 3177 C 302.239 -2.18619 -4.01317 0
M  V30 3178 C 303.236 -3.16209 -4.12683 0
M  V30 3179 C 300.921 -2.50805 -4.35203 0
M  V30 3180 C 302.915 -4.44085 -4.57238 0
M  V30 3181 C 300.602 -3.78912 -4.79446 0
M  V30 3182 C 301.6 -4.75365 -4.90425 0
M  V30 3183 O 301.288 -6.01191 -5.3369 0
M  V30 3184 H 301.02 -0.229134 -0.635982 0
M  V30 3185 H 303.574 -1.27036 -1.61404 0
M  V30 3186 H 301.804 -0.0649864 -3.86645 0
M  V30 3187 H 303.493 -0.448842 -4.03411 0
M  V30 3188 H 304.259 -2.92668 -3.86744 0
M  V30 3189 H 300.138 -1.76463 -4.2589 0
M  V30 3190 H 303.682 -5.19373 -4.65723 0
M  V30 3191 H 299.579 -4.02265 -5.0483 0
M  V30 3192 H 300.347 -6.04442 -5.51899 0
M  V30 3193 N 303.011 1.40521 -0.713556 0
M  V30 3194 C 303.944 2.28198 -0.00881422 0
M  V30 3195 C 304.922 1.43227 0.769735 0
M  V30 3196 O 306.106 1.72641 0.756799 0
M  V30 3197 C 303.233 3.23758 0.994899 0
M  V30 3198 C 302.279 4.25391 0.3074 0
M  V30 3199 S 303.112 5.26765 -0.963247 0
M  V30 3200 C 304.268 6.25888 0.0384143 0
M  V30 3201 H 304.501 2.87622 -0.752407 0
M  V30 3202 H 302.034 1.45925 -0.504502 0
M  V30 3203 H 303.992 3.79341 1.56879 0
M  V30 3204 H 302.653 2.63396 1.71118 0
M  V30 3205 H 301.846 4.92596 1.0661 0
M  V30 3206 H 301.448 3.73497 -0.193879 0
M  V30 3207 H 303.74 6.71683 0.885912 0
M  V30 3208 H 304.683 7.05552 -0.60019 0
M  V30 3209 H 305.091 5.63072 0.401233 0
M  V30 3210 N 304.489 0.459591 1.5075 0
M  V30 3211 C 305.419 -0.330644 2.31147 0
M  V30 3212 C 306.4 -1.00087 1.37538 0
M  V30 3213 O 307.585 -1.00025 1.66459 0
M  V30 3214 C 304.715 -1.41958 3.16962 0
M  V30 3215 C 303.669 -0.871608 4.19031 0
M  V30 3216 C 302.995 -2.05797 4.9351 0
M  V30 3217 C 304.295 0.109251 5.22186 0
M  V30 3218 H 305.989 0.340336 2.97459 0
M  V30 3219 H 303.535 0.165119 1.4305 0
M  V30 3220 H 305.488 -1.9798 3.71997 0
M  V30 3221 H 304.212 -2.11917 2.48513 0
M  V30 3222 H 302.871 -0.333442 3.6508 0
M  V30 3223 H 302.519 -2.74427 4.21544 0
M  V30 3224 H 302.219 -1.6976 5.62544 0
M  V30 3225 H 303.743 -2.62331 5.51375 0
M  V30 3226 H 305.157 -0.361405 5.7216 0
M  V30 3227 H 303.554 0.383316 5.98875 0
M  V30 3228 H 304.624 1.03887 4.73641 0
M  V30 3229 N 305.967 -1.56429 0.191757 0
M  V30 3230 C 307.207 -1.99383 -0.450099 0
M  V30 3231 C 307.571 -1.07581 -1.59029 0
M  V30 3232 O 308.772 -1.39758 -2.29611 0
M  V30 3233 C 307.043 -3.45841 -0.901611 0
M  V30 3234 S 308.602 -4.10822 -1.54177 0
M  V30 3235 H 305.42 -0.696253 -0.144057 0
M  V30 3236 H 308.022 -1.93276 0.294036 0
M  V30 3237 H 306.726 -4.10354 -0.0616596 0
M  V30 3238 H 306.257 -3.55757 -1.67929 0
M  V30 3239 H 308.272 -4.07553 -2.83046 0
M  V30 3240 N 307.445 0.0818655 -1.57387 0
M  V30 3241 C 308.861 0.436412 -1.53517 0
M  V30 3242 C 309.061 1.79758 -0.910459 0
M  V30 3243 O 308.117 2.47324 -0.508636 0
M  V30 3244 C 309.43 0.386734 -2.98203 0
M  V30 3245 C 310.978 0.467644 -3.09487 0
M  V30 3246 C 311.453 0.447978 -4.55804 0
M  V30 3247 N 312.944 0.508348 -4.60402 0
M  V30 3248 C 313.679 0.515184 -5.71081 0
M  V30 3249 N 313.175 0.477435 -6.91153 0
M  V30 3250 N 314.968 0.560988 -5.59294 0
M  V30 3251 H 307.119 -0.809546 -1.96367 0
M  V30 3252 H 309.382 -0.302733 -0.898363 0
M  V30 3253 H 309.088 -0.546539 -3.47427 0
M  V30 3254 H 308.962 1.20075 -3.57578 0
M  V30 3255 H 311.349 1.39134 -2.60242 0
M  V30 3256 H 311.43 -0.374753 -2.5304 0
M  V30 3257 H 311.074 -0.471826 -5.05704 0
M  V30 3258 H 311.004 1.30777 -5.10103 0
M  V30 3259 H 313.495 0.54218 -3.7399 0
M  V30 3260 H 313.808 0.486299 -7.71268 0
M  V30 3261 H 312.153 0.444278 -6.93579 0
M  V30 3262 H 315.344 0.5881 -4.64391 0
M  V30 3263 H 315.517 0.562846 -6.45551 0
M  V30 3264 N 308.923 1.53595 0.353017 0
M  V30 3265 C 310.2 1.61002 1.11075 0
M  V30 3266 C 310.58 0.425356 2.0677 0
M  V30 3267 O 309.928 -0.583267 2.2093 0
M  V30 3268 C 310.138 2.96631 1.83877 0
M  V30 3269 C 311.486 3.51653 2.37961 0
M  V30 3270 O 312.51 2.98743 1.93987 0
M  V30 3271 O 311.369 4.44177 3.18386 0
M  V30 3272 H 308.463 0.650825 0.510251 0
M  V30 3273 H 311.009 1.6594 0.35527 0
M  V30 3274 H 309.781 3.74293 1.14108 0
M  V30 3275 H 309.404 2.95242 2.66304 0
M  V30 3276 N 310.401 -0.613514 1.45168 0
M  V30 3277 C 311.647 -1.37471 1.49096 0
M  V30 3278 C 311.98 -1.93765 0.129901 0
M  V30 3279 O 311.255 -1.74707 -0.854858 0
M  V30 3280 C 311.538 -2.52701 2.56542 0
M  V30 3281 C 311.391 -2.01643 4.0207 0
M  V30 3282 C 312.71 -3.54849 2.60327 0
M  V30 3283 H 309.829 -0.498502 0.54283 0
M  V30 3284 H 312.471 -0.692125 1.76945 0
M  V30 3285 H 310.621 -3.10931 2.32926 0
M  V30 3286 H 312.293 -1.48108 4.36877 0
M  V30 3287 H 310.536 -1.32688 4.13009 0
M  V30 3288 H 311.207 -2.84681 4.72928 0
M  V30 3289 H 313.683 -3.0645 2.81474 0
M  V30 3290 H 312.559 -4.32973 3.37381 0
M  V30 3291 H 312.82 -4.10079 1.6519 0
M  V30 3292 N 311.879 -1.3236 -0.855495 0
M  V30 3293 C 313.128 -1.22226 -1.60448 0
M  V30 3294 C 313.441 0.214733 -1.94418 0
M  V30 3295 O 314.647 0.437917 -2.67945 0
M  V30 3296 C 313.103 -2.14063 -2.89318 0
M  V30 3297 C 312.711 -3.62839 -2.62777 0
M  V30 3298 C 314.455 -2.12764 -3.67331 0
M  V30 3299 C 312.362 -4.4664 -3.87643 0
M  V30 3300 H 311.292 -0.453904 -0.602069 0
M  V30 3301 H 313.943 -1.57314 -0.944698 0
M  V30 3302 H 312.325 -1.71889 -3.5675 0
M  V30 3303 H 313.499 -4.1335 -2.03662 0
M  V30 3304 H 311.814 -3.66261 -1.98096 0
M  V30 3305 H 314.411 -2.72611 -4.59987 0
M  V30 3306 H 314.754 -1.11841 -4.00995 0
M  V30 3307 H 315.287 -2.53214 -3.06802 0
M  V30 3308 H 312.026 -5.48373 -3.5912 0
M  V30 3309 H 311.546 -4.0088 -4.46156 0
M  V30 3310 H 313.225 -4.59597 -4.55389 0
M  V30 3311 N 313.357 1.07166 -1.15556 0
M  V30 3312 C 314.582 1.84053 -0.955988 0
M  V30 3313 C 315.007 1.81586 0.490739 0
M  V30 3314 O 314.365 1.21018 1.34997 0
M  V30 3315 C 314.413 3.28957 -1.47714 0
M  V30 3316 O 313.517 4.06795 -0.677593 0
M  V30 3317 H 312.858 0.569842 -0.340847 0
M  V30 3318 H 315.388 1.35178 -1.53584 0
M  V30 3319 H 315.398 3.79788 -1.4908 0
M  V30 3320 H 314.073 3.30068 -2.53037 0
M  V30 3321 H 312.65 3.6561 -0.733721 0
M  V30 3322 N 314.835 0.952656 1.25548 0
M  V30 3323 C 316.06 0.623025 1.97821 0
M  V30 3324 C 316.485 -0.7976 1.70352 0
M  V30 3325 O 315.843 -1.53905 0.958283 0
M  V30 3326 C 315.891 0.885532 3.49558 0
M  V30 3327 O 314.995 -0.0366641 4.12384 0
M  V30 3328 H 314.336 0.237082 0.620232 0
M  V30 3329 H 316.866 1.27871 1.59719 0
M  V30 3330 H 316.876 0.811009 3.99858 0
M  V30 3331 H 315.551 1.92094 3.6888 0
M  V30 3332 H 314.128 0.0898954 3.72792 0
M  V30 3333 N 316.313 -1.40141 0.720998 0
M  V30 3334 C 317.223 -2.34486 0.0731031 0
M  V30 3335 C 318.239 -1.57587 -0.737723 0
M  V30 3336 O 319.415 -1.89949 -0.669429 0
M  V30 3337 C 316.48 -3.36528 -0.833656 0
M  V30 3338 C 315.541 -4.29298 -0.0121673 0
M  V30 3339 C 314.774 -5.26466 -0.875742 0
M  V30 3340 O 314.997 -5.29745 -2.11485 0
M  V30 3341 O 313.931 -6.01092 -0.31185 0
M  V30 3342 H 317.757 -2.9152 0.851444 0
M  V30 3343 H 315.342 -1.41427 0.481527 0
M  V30 3344 H 317.224 -3.99093 -1.35289 0
M  V30 3345 H 315.899 -2.81899 -1.59105 0
M  V30 3346 H 314.806 -3.70001 0.552262 0
M  V30 3347 H 316.139 -4.87094 0.707129 0
M  V30 3348 N 317.792 -0.46758 -1.50504 0
M  V30 3349 C 319.038 0.0887532 -2.02606 0
M  V30 3350 C 319.371 1.39686 -1.34913 0
M  V30 3351 O 318.646 1.88644 -0.473694 0
M  V30 3352 C 318.929 0.276206 -3.59039 0
M  V30 3353 C 318.782 -1.05267 -4.37309 0
M  V30 3354 C 320.101 1.03235 -4.27821 0
M  V30 3355 H 317.22 0.0307814 -0.736357 0
M  V30 3356 H 319.862 -0.612485 -1.79857 0
M  V30 3357 H 318.012 0.8735 -3.78553 0
M  V30 3358 H 319.684 -1.68628 -4.29374 0
M  V30 3359 H 317.927 -1.65015 -4.01189 0
M  V30 3360 H 318.598 -0.875197 -5.45018 0
M  V30 3361 H 321.074 0.526111 -4.12761 0
M  V30 3362 H 319.95 1.1323 -5.37094 0
M  V30 3363 H 320.211 2.06806 -3.90748 0
M  V30 3364 N 319.27 1.56325 -0.20005 0
M  V30 3365 C 320.518 1.97329 0.436547 0
M  V30 3366 C 320.839 1.08826 1.61808 0
M  V30 3367 O 320.109 0.160604 1.95241 0
M  V30 3368 H 318.689 0.728714 0.164272 0
M  V30 3369 H 321.351 1.92761 -0.287937 0
M  V30 3370 H 320.447 3.02264 0.777353 0
M  V30 3371 N 320.748 -0.0735177 1.57428 0
M  V30 3372 C 321.973 -0.789787 1.91774 0
M  V30 3373 C 322.398 -1.70413 0.796306 0
M  V30 3374 O 321.756 -1.79555 -0.250961 0
M  V30 3375 C 321.804 -1.5609 3.25067 0
M  V30 3376 O 320.908 -2.67144 3.14178 0
M  V30 3377 H 320.249 -0.215582 0.628029 0
M  V30 3378 H 322.779 -0.0422781 2.04556 0
M  V30 3379 H 322.789 -1.94052 3.58898 0
M  V30 3380 H 321.464 -0.890015 4.06265 0
M  V30 3381 H 320.041 -2.32052 2.91901 0
M  V30 3382 N 322.226 -1.5378 -0.344866 0
M  V30 3383 C 323.503 -1.61589 -1.10219 0
M  V30 3384 C 323.883 -0.436316 -2.06542 0
M  V30 3385 O 323.231 0.571543 -2.21237 0
M  V30 3386 C 323.441 -2.97602 -1.82301 0
M  V30 3387 C 324.789 -3.5291 -2.36093 0
M  V30 3388 O 325.813 -2.99768 -1.924 0
M  V30 3389 O 324.672 -4.45859 -3.16026 0
M  V30 3390 H 321.766 -0.653522 -0.506792 0
M  V30 3391 H 324.312 -1.66126 -0.346465 0
M  V30 3392 H 323.084 -3.74893 -1.12121 0
M  V30 3393 H 322.707 -2.9665 -2.64735 0
M  V30 3394 N 323.704 0.605807 -1.45491 0
M  V30 3395 C 324.654 1.71074 -1.50724 0
M  V30 3396 C 325.638 1.5658 -0.37033 0
M  V30 3397 O 326.83 1.65887 -0.617299 0
M  V30 3398 C 323.959 3.0983 -1.47852 0
M  V30 3399 C 323.045 3.29704 -2.66751 0
M  V30 3400 N 323.436 3.19831 -3.91844 0
M  V30 3401 C 321.734 3.60579 -2.62486 0
M  V30 3402 C 322.435 3.41083 -4.71208 0
M  V30 3403 N 321.411 3.65157 -4.02693 0
M  V30 3404 H 325.213 1.61937 -2.45263 0
M  V30 3405 H 322.727 0.80912 -1.40808 0
M  V30 3406 H 324.724 3.89101 -1.49686 0
M  V30 3407 H 323.384 3.20115 -0.543714 0
M  V30 3408 H 324.395 2.98194 -4.23439 0
M  V30 3409 H 321.072 3.7769 -1.77922 0
M  V30 3410 H 322.462 3.38828 -5.80211 0
M  V30 3411 N 325.182 1.32811 0.848464 0
M  V30 3412 C 326.092 1.24278 1.98978 0
M  V30 3413 C 327.108 0.155176 1.73307 0
M  V30 3414 O 328.284 0.376999 1.9784 0
M  V30 3415 C 325.349 0.972444 3.32783 0
M  V30 3416 C 324.41 2.14911 3.71634 0
M  V30 3417 C 323.643 1.89157 4.99054 0
M  V30 3418 O 323.866 0.837165 5.64223 0
M  V30 3419 O 322.8 2.75433 5.35183 0
M  V30 3420 H 326.626 2.20238 2.09115 0
M  V30 3421 H 324.211 1.12762 0.980052 0
M  V30 3422 H 326.093 0.838432 4.12975 0
M  V30 3423 H 324.768 0.043051 3.23671 0
M  V30 3424 H 323.675 2.33862 2.91992 0
M  V30 3425 H 325.008 3.06151 3.85399 0
M  V30 3426 N 326.66 -1.06551 1.16123 0
M  V30 3427 C 327.59 -2.15935 0.88851 0
M  V30 3428 C 328.571 -1.69306 -0.164135 0
M  V30 3429 O 329.756 -1.94193 -0.0167857 0
M  V30 3430 C 326.886 -3.45149 0.385942 0
M  V30 3431 C 325.84 -4.05271 1.3762 0
M  V30 3432 C 325.166 -5.29664 0.732137 0
M  V30 3433 C 326.466 -4.44355 2.74493 0
M  V30 3434 H 328.16 -2.39006 1.80323 0
M  V30 3435 H 325.706 -1.14866 0.868435 0
M  V30 3436 H 327.659 -4.21004 0.182647 0
M  V30 3437 H 326.383 -3.21689 -0.564274 0
M  V30 3438 H 325.042 -3.3147 1.56599 0
M  V30 3439 H 324.69 -5.02499 -0.224483 0
M  V30 3440 H 324.39 -5.70848 1.39307 0
M  V30 3441 H 325.914 -6.08218 0.538802 0
M  V30 3442 H 327.328 -5.11303 2.59311 0
M  V30 3443 H 325.725 -4.96515 3.37035 0
M  V30 3444 H 326.795 -3.55339 3.29943 0
M  V30 3445 N 328.138 -0.959301 -1.25041 0
M  V30 3446 C 329.07 -0.440543 -2.24926 0
M  V30 3447 C 330.083 0.446131 -1.56568 0
M  V30 3448 O 331.272 0.253657 -1.76689 0
M  V30 3449 C 328.372 0.38412 -3.36716 0
M  V30 3450 C 327.545 -0.490658 -4.34639 0
M  V30 3451 C 326.604 0.276587 -5.25473 0
M  V30 3452 O 325.63 -0.326614 -5.68262 0
M  V30 3453 N 326.832 1.56844 -5.5891 0
M  V30 3454 H 329.597 -1.29931 -2.70071 0
M  V30 3455 H 327.158 -0.830181 -1.38995 0
M  V30 3456 H 329.15 0.905228 -3.94446 0
M  V30 3457 H 327.72 1.14377 -2.90924 0
M  V30 3458 H 326.94 -1.19282 -3.7572 0
M  V30 3459 H 328.228 -1.08756 -4.97041 0
M  V30 3460 H 327.626 2.08036 -5.26059 0
M  V30 3461 H 326.183 2.03541 -6.19205 0
M  V30 3462 N 329.616 1.39756 -0.72842 0
M  V30 3463 C 330.579 2.29012 -0.0927297 0
M  V30 3464 C 331.579 1.45992 0.674025 0
M  V30 3465 O 332.769 1.66749 0.50402 0
M  V30 3466 C 329.901 3.29396 0.878137 0
M  V30 3467 H 331.094 2.86729 -0.879011 0
M  V30 3468 H 328.647 1.48293 -0.493847 0
M  V30 3469 H 329.382 2.76722 1.69101 0
M  V30 3470 H 329.167 3.907 0.331051 0
M  V30 3471 H 330.657 3.96199 1.3197 0
M  V30 3472 N 331.094 0.475555 1.50254 0
M  V30 3473 C 332.34 -0.0780073 2.0265 0
M  V30 3474 C 332.673 -1.38968 1.35652 0
M  V30 3475 O 331.948 -1.8839 0.483691 0
M  V30 3476 C 332.231 -0.257161 3.59181 0
M  V30 3477 C 332.084 1.07585 4.36744 0
M  V30 3478 C 333.403 -1.00965 4.28362 0
M  V30 3479 H 330.522 -0.0268758 0.73651 0
M  V30 3480 H 333.164 0.622015 1.7953 0
M  V30 3481 H 331.314 -0.853412 3.79011 0
M  V30 3482 H 332.986 1.70902 4.28474 0
M  V30 3483 H 331.229 1.6714 4.00308 0
M  V30 3484 H 331.9 0.904088 5.44546 0
M  V30 3485 H 334.376 -0.504214 4.13034 0
M  V30 3486 H 333.252 -1.10381 5.37687 0
M  V30 3487 H 333.513 -2.04731 3.91839 0
M  V30 3488 N 332.573 -1.56217 0.208337 0
M  V30 3489 C 333.503 -2.22694 -0.702116 0
M  V30 3490 C 334.484 -1.19432 -1.2112 0
M  V30 3491 O 335.669 -1.47978 -1.25762 0
M  V30 3492 C 332.799 -2.8966 -1.9161 0
M  V30 3493 C 331.753 -3.9928 -1.5414 0
M  V30 3494 C 331.079 -4.53476 -2.83308 0
M  V30 3495 C 332.379 -5.17012 -0.741339 0
M  V30 3496 H 334.073 -2.99034 -0.147898 0
M  V30 3497 H 331.619 -1.43831 -0.0696951 0
M  V30 3498 H 333.572 -3.34852 -2.55836 0
M  V30 3499 H 332.296 -2.10746 -2.49507 0
M  V30 3500 H 330.955 -3.54799 -0.922668 0
M  V30 3501 H 330.603 -3.71308 -3.39322 0
M  V30 3502 H 330.303 -5.27451 -2.58976 0
M  V30 3503 H 331.827 -5.01378 -3.485 0
M  V30 3504 H 333.241 -5.58667 -1.28699 0
M  V30 3505 H 331.638 -5.97137 -0.595627 0
M  V30 3506 H 332.708 -4.8423 0.254851 0
M  V30 3507 N 334.051 0.0651679 -1.57465 0
M  V30 3508 C 334.981 1.07693 -2.07182 0
M  V30 3509 C 335.962 1.39962 -0.966673 0
M  V30 3510 O 337.147 1.49475 -1.2398 0
M  V30 3511 C 334.277 2.3885 -2.52127 0
M  V30 3512 C 333.231 2.20917 -3.66579 0
M  V30 3513 C 332.557 3.57515 -3.97601 0
M  V30 3514 C 333.857 1.62493 -4.9638 0
M  V30 3515 H 335.551 0.663199 -2.91962 0
M  V30 3516 H 333.097 0.317569 -1.40455 0
M  V30 3517 H 335.05 3.09928 -2.85522 0
M  V30 3518 H 333.774 2.82215 -1.64384 0
M  V30 3519 H 332.433 1.52279 -3.33477 0
M  V30 3520 H 332.081 3.98463 -3.06979 0
M  V30 3521 H 331.781 3.46353 -4.74672 0
M  V30 3522 H 333.305 4.30013 -4.33499 0
M  V30 3523 H 334.719 2.23445 -5.27963 0
M  V30 3524 H 333.116 1.62009 -5.77818 0
M  V30 3525 H 334.186 0.587041 -4.81333 0
M  V30 3526 N 335.529 1.53961 0.336706 0
M  V30 3527 C 336.757 1.75483 1.09605 0
M  V30 3528 C 337.172 0.4972 1.82136 0
M  V30 3529 O 336.529 -0.53149 1.74589 0
M  V30 3530 C 336.58 2.93943 2.10428 0
M  V30 3531 O 336.301 4.14842 1.40846 0
M  V30 3532 C 337.802 3.27571 2.98684 0
M  V30 3533 H 335.022 0.586166 0.326574 0
M  V30 3534 H 337.566 2.00808 0.38683 0
M  V30 3535 H 335.721 2.70929 2.76905 0
M  V30 3536 H 336.135 4.81383 2.08255 0
M  V30 3537 H 337.609 4.13791 3.6535 0
M  V30 3538 H 338.086 2.44168 3.65074 0
M  V30 3539 H 338.692 3.52615 2.37787 0
M  V30 3540 N 337.007 -0.598083 1.45811 0
M  V30 3541 C 338.247 -1.36802 1.5187 0
M  V30 3542 C 338.611 -1.9133 0.160224 0
M  V30 3543 O 339.812 -2.6863 0.0955302 0
M  V30 3544 C 338.083 -2.47835 2.57513 0
M  V30 3545 S 339.642 -3.35458 2.82866 0
M  V30 3546 H 336.46 -0.466278 0.536755 0
M  V30 3547 H 339.062 -0.689152 1.82951 0
M  V30 3548 H 337.766 -2.06141 3.54872 0
M  V30 3549 H 337.297 -3.20512 2.28114 0
M  V30 3550 H 339.312 -4.46251 2.16967 0
M  V30 3551 N 338.485 -1.33259 -0.841409 0
M  V30 3552 C 339.415 -1.25926 -1.96634 0
M  V30 3553 C 340.396 -0.140349 -1.6952 0
M  V30 3554 O 341.581 -0.329707 -1.91381 0
M  V30 3555 C 338.711 -0.99512 -3.32738 0
M  V30 3556 C 337.665 -2.0767 -3.74242 0
M  V30 3557 C 336.991 -1.66474 -5.08125 0
M  V30 3558 C 338.291 -3.49318 -3.88297 0
M  V30 3559 H 339.985 -2.20046 -2.03027 0
M  V30 3560 H 337.531 -1.05931 -0.975425 0
M  V30 3561 H 339.484 -0.930323 -4.11002 0
M  V30 3562 H 338.208 -0.0183004 -3.26595 0
M  V30 3563 H 336.867 -2.13187 -2.98239 0
M  V30 3564 H 336.515 -0.675012 -4.9845 0
M  V30 3565 H 336.215 -2.3885 -5.36865 0
M  V30 3566 H 337.739 -1.61455 -5.88867 0
M  V30 3567 H 339.153 -3.46316 -4.56879 0
M  V30 3568 H 337.55 -4.20158 -4.28471 0
M  V30 3569 H 338.62 -3.8801 -2.9082 0
M  V30 3570 N 339.963 1.05934 -1.16686 0
M  V30 3571 C 341.193 1.82226 -0.973515 0
M  V30 3572 C 341.601 1.8297 0.481532 0
M  V30 3573 O 340.944 1.25009 1.34604 0
M  V30 3574 C 341.006 3.29897 -1.42858 0
M  V30 3575 C 340.67 3.52849 -2.90425 0
M  V30 3576 C 341.667 3.45595 -3.88407 0
M  V30 3577 C 339.352 3.80053 -3.28428 0
M  V30 3578 C 341.346 3.65217 -5.22394 0
M  V30 3579 C 339.033 3.99325 -4.62583 0
M  V30 3580 C 340.031 3.91905 -5.59374 0
M  V30 3581 O 339.719 4.10647 -6.91104 0
M  V30 3582 H 339.451 0.581314 -0.345036 0
M  V30 3583 H 342.005 1.3453 -1.55212 0
M  V30 3584 H 340.235 3.78472 -0.793477 0
M  V30 3585 H 341.924 3.87692 -1.20207 0
M  V30 3586 H 342.69 3.24564 -3.60393 0
M  V30 3587 H 338.569 3.84936 -2.53664 0
M  V30 3588 H 342.113 3.59341 -5.9793 0
M  V30 3589 H 338.01 4.19846 -4.90306 0
M  V30 3590 H 338.778 4.27915 -6.97733 0
M  V30 3591 N 341.441 0.965919 1.2453 0
M  V30 3592 C 342.371 0.513476 2.27784 0
M  V30 3593 C 343.352 -0.445974 1.6415 0
M  V30 3594 O 344.537 -0.342485 1.91156 0
M  V30 3595 C 341.667 -0.198839 3.4673 0
M  V30 3596 C 340.621 0.676456 4.2262 0
M  V30 3597 C 339.947 -0.167248 5.34438 0
M  V30 3598 C 341.247 1.96017 4.84123 0
M  V30 3599 H 342.941 1.3765 2.65881 0
M  V30 3600 H 340.487 0.663321 1.27813 0
M  V30 3601 H 342.44 -0.526567 4.18097 0
M  V30 3602 H 341.164 -1.0962 3.07654 0
M  V30 3603 H 339.823 0.98743 3.53052 0
M  V30 3604 H 339.471 -1.0647 4.91603 0
M  V30 3605 H 339.171 0.415181 5.86131 0
M  V30 3606 H 340.695 -0.489688 6.08633 0
M  V30 3607 H 342.109 1.69814 5.47573 0
M  V30 3608 H 340.506 2.48918 5.4604 0
M  V30 3609 H 341.576 2.65622 4.05676 0
M  V30 3610 N 342.919 -1.39368 0.735821 0
M  V30 3611 C 344.144 -2.05319 0.293052 0
M  V30 3612 C 344.569 -1.55115 -1.064 0
M  V30 3613 O 343.927 -0.695261 -1.67439 0
M  V30 3614 C 343.975 -3.59305 0.305323 0
M  V30 3615 O 343.079 -4.06299 -0.706761 0
M  V30 3616 H 342.42 -0.650529 0.13307 0
M  V30 3617 H 344.95 -1.78386 1.00197 0
M  V30 3618 H 344.96 -4.07724 0.149997 0
M  V30 3619 H 343.635 -3.95207 1.29553 0
M  V30 3620 H 342.212 -3.69292 -0.517504 0
M  V30 3621 N 344.397 -0.483516 -1.5 0
M  V30 3622 C 345.627 0.0643896 -2.065 0
M  V30 3623 C 346.035 1.32949 -1.34615 0
M  V30 3624 O 345.378 1.79003 -0.412756 0
M  V30 3625 C 345.44 0.405983 -3.572 0
M  V30 3626 C 345.104 -0.758875 -4.50655 0
M  V30 3627 C 346.101 -1.64445 -4.93208 0
M  V30 3628 C 343.786 -0.952725 -4.93182 0
M  V30 3629 C 345.78 -2.70818 -5.77006 0
M  V30 3630 C 343.467 -2.01966 -5.76761 0
M  V30 3631 C 344.465 -2.89574 -6.18576 0
M  V30 3632 O 344.153 -3.94429 -7.00486 0
M  V30 3633 H 343.885 -0.00934786 -0.675935 0
M  V30 3634 H 346.439 -0.674959 -1.93993 0
M  V30 3635 H 344.669 1.19869 -3.67652 0
M  V30 3636 H 346.358 0.890433 -3.96013 0
M  V30 3637 H 347.124 -1.50643 -4.61012 0
M  V30 3638 H 343.003 -0.280247 -4.60147 0
M  V30 3639 H 346.547 -3.3923 -6.09565 0
M  V30 3640 H 342.444 -2.1577 -6.0837 0
M  V30 3641 H 343.212 -3.91568 -7.1876 0
M  V30 3642 N 345.875 1.56104 -0.216619 0
M  V30 3643 C 347.1 2.0301 0.424462 0
M  V30 3644 C 347.525 1.0955 1.52907 0
M  V30 3645 O 346.883 0.0827914 1.81111 0
M  V30 3646 C 346.931 3.4819 0.937883 0
M  V30 3647 O 346.035 3.57865 2.04955 0
M  V30 3648 H 345.376 0.656925 0.0966755 0
M  V30 3649 H 347.906 2.01859 -0.33381 0
M  V30 3650 H 347.916 3.88413 1.24897 0
M  V30 3651 H 346.591 4.15699 0.129387 0
M  V30 3652 H 345.168 3.29527 1.74546 0
M  V30 3653 N 347.353 -0.0568162 1.57498 0
M  V30 3654 C 348.583 -0.764515 1.91934 0
M  V30 3655 C 348.991 -1.70877 0.81227 0
M  V30 3656 O 348.334 -1.82351 -0.222213 0
M  V30 3657 C 348.396 -1.5994 3.21962 0
M  V30 3658 C 348.06 -0.822925 4.4953 0
M  V30 3659 C 349.057 -0.135464 5.19723 0
M  V30 3660 C 346.742 -0.785666 4.96117 0
M  V30 3661 C 348.736 0.578861 6.34766 0
M  V30 3662 C 346.423 -0.0675784 6.11063 0
M  V30 3663 C 347.421 0.613471 6.80239 0
M  V30 3664 O 347.109 1.31996 7.92989 0
M  V30 3665 H 346.841 -0.221647 0.63863 0
M  V30 3666 H 349.395 -0.0268218 2.05382 0
M  V30 3667 H 347.625 -2.38026 3.04763 0
M  V30 3668 H 349.314 -2.18715 3.41934 0
M  V30 3669 H 350.08 -0.155458 4.84751 0
M  V30 3670 H 345.959 -1.30524 4.42136 0
M  V30 3671 H 349.503 1.111 6.88696 0
M  V30 3672 H 345.4 -0.0455636 6.45484 0
M  V30 3673 H 346.168 1.23077 8.09194 0
M  V30 3674 N 348.832 -1.54138 -0.328536 0
M  V30 3675 C 349.765 -1.78014 -1.4278 0
M  V30 3676 C 350.743 -0.629889 -1.49904 0
M  V30 3677 O 351.927 -0.866763 -1.6739 0
M  V30 3678 C 349.054 -1.89225 -2.80912 0
M  V30 3679 C 348.1 -3.11483 -2.91343 0
M  V30 3680 S 348.933 -4.70201 -2.56263 0
M  V30 3681 C 350.089 -4.84312 -3.96476 0
M  V30 3682 H 350.322 -2.70974 -1.22313 0
M  V30 3683 H 347.855 -1.45197 -0.525084 0
M  V30 3684 H 349.813 -1.9637 -3.60485 0
M  V30 3685 H 348.474 -0.972518 -2.98665 0
M  V30 3686 H 347.667 -3.16046 -3.92595 0
M  V30 3687 H 347.269 -3.02642 -2.19736 0
M  V30 3688 H 349.561 -4.66643 -4.91173 0
M  V30 3689 H 350.504 -5.86411 -3.96898 0
M  V30 3690 H 350.912 -4.12652 -3.85199 0
M  V30 3691 N 350.31 0.590341 -1.46126 0
M  V30 3692 C 351.558 1.34616 -1.50742 0
M  V30 3693 C 351.879 1.94363 -0.157486 0
M  V30 3694 O 351.149 1.78136 0.815136 0
M  V30 3695 H 349.729 0.499789 -0.555175 0
M  V30 3696 H 352.391 0.691953 -1.82203 0
M  V30 3697 H 351.487 2.15678 -2.25587 0
M  V30 3698 N 351.788 1.33704 0.83433 0
M  V30 3699 C 352.736 1.24323 1.96587 0
M  V30 3700 C 353.73 0.143659 1.6879 0
M  V30 3701 O 354.936 0.30791 1.77347 0
M  V30 3702 H 351.311 0.385925 0.645419 0
M  V30 3703 H 353.282 2.19978 2.01624 0
M  V30 3704 C 352.031 1.00394 3.32891 0
M  V30 3705 H 351.354 1.84231 3.54822 0
M  V30 3706 H 352.794 0.97862 4.12552 0
M  V30 3707 C 351.253 -0.293047 3.35623 0
M  V30 3708 O 351.783 -1.29823 3.80143 0
M  V30 3709 N 349.989 -0.322174 2.88809 0
M  V30 3710 H 349.536 0.496379 2.52772 0
M  V30 3711 H 349.494 -1.18977 2.91019 0
M  V30 3712 N 353.266 -1.05314 1.17247 0
M  V30 3713 C 354.176 -2.16538 0.90268 0
M  V30 3714 C 355.192 -1.73523 -0.128707 0
M  V30 3715 O 356.368 -2.01337 0.0502701 0
M  V30 3716 C 353.433 -3.44167 0.418356 0
M  V30 3717 C 352.494 -4.01635 1.51618 0
M  V30 3718 C 351.727 -5.23171 1.05487 0
M  V30 3719 O 351.95 -5.70327 -0.0914715 0
M  V30 3720 O 350.884 -5.72848 1.8474 0
M  V30 3721 H 354.71 -2.42145 1.83302 0
M  V30 3722 H 352.295 -1.15037 0.953246 0
M  V30 3723 H 354.177 -4.21112 0.155726 0
M  V30 3724 H 352.852 -3.20063 -0.48385 0
M  V30 3725 H 351.759 -3.26135 1.83268 0
M  V30 3726 H 353.092 -4.30053 2.39405 0
M  V30 3727 N 354.744 -0.972509 -1.24016 0
M  V30 3728 C 355.993 -0.632603 -1.91523 0
M  V30 3729 C 356.306 0.836641 -1.76804 0
M  V30 3730 O 357.512 1.28728 -2.39043 0
M  V30 3731 C 355.968 -1.08082 -3.43287 0
M  V30 3732 C 355.576 -2.57386 -3.66683 0
M  V30 3733 C 357.32 -0.814288 -4.16617 0
M  V30 3734 C 355.227 -2.95915 -5.12043 0
M  V30 3735 H 354.157 -0.232898 -0.717129 0
M  V30 3736 H 356.808 -1.17936 -1.40582 0
M  V30 3737 H 355.19 -0.462339 -3.93292 0
M  V30 3738 H 356.364 -3.24405 -3.27258 0
M  V30 3739 H 354.679 -2.81701 -3.06649 0
M  V30 3740 H 357.276 -1.0781 -5.23718 0
M  V30 3741 H 357.619 0.24955 -4.15551 0
M  V30 3742 H 358.152 -1.39397 -3.72577 0
M  V30 3743 H 354.891 -4.0139 -5.18234 0
M  V30 3744 H 354.411 -2.33584 -5.52448 0
M  V30 3745 H 356.09 -2.86086 -5.80314 0
M  V30 3746 N 356.222 1.38976 -0.743202 0
M  V30 3747 C 357.447 2.05161 -0.303936 0
M  V30 3748 C 357.872 1.55677 1.05576 0
M  V30 3749 O 357.23 0.704131 1.67068 0
M  V30 3750 C 357.278 3.59138 -0.324373 0
M  V30 3751 O 356.382 4.06668 0.685204 0
M  V30 3752 H 355.723 0.649815 -0.136518 0
M  V30 3753 H 358.253 1.77852 -1.01142 0
M  V30 3754 H 358.263 4.07639 -0.171618 0
M  V30 3755 H 356.938 3.94515 -1.31647 0
M  V30 3756 H 355.515 3.69561 0.497913 0
M  V30 3757 N 357.7 0.491464 1.49741 0
M  V30 3758 C 358.93 -0.0534375 2.06531 0
M  V30 3759 C 359.338 -1.32233 1.35318 0
M  V30 3760 O 358.681 -1.78781 0.422243 0
M  V30 3761 C 358.743 -0.387034 3.57411 0
M  V30 3762 C 358.407 0.782764 4.50246 0
M  V30 3763 C 359.404 1.67059 4.92329 0
M  V30 3764 C 357.089 0.978866 4.9267 0
M  V30 3765 C 359.083 2.73874 5.75562 0
M  V30 3766 C 356.77 2.05022 5.75682 0
M  V30 3767 C 357.768 2.92851 6.17031 0
M  V30 3768 O 357.456 3.98138 6.98385 0
M  V30 3769 H 357.188 0.0129324 0.675876 0
M  V30 3770 H 359.742 0.685238 1.93633 0
M  V30 3771 H 357.972 -1.17918 3.68283 0
M  V30 3772 H 359.661 -0.869419 3.96479 0
M  V30 3773 H 360.427 1.53086 4.60206 0
M  V30 3774 H 356.306 0.304646 4.59992 0
M  V30 3775 H 359.85 3.42458 6.07757 0
M  V30 3776 H 355.747 2.18993 6.07217 0
M  V30 3777 H 356.515 3.95374 7.16674 0
M  V30 3778 N 359.178 -1.55987 0.224894 0
M  V30 3779 C 360.589 -1.84553 -0.282345 0
M  V30 3780 C 360.94 -1.14634 -1.59227 0
M  V30 3781 O 360.065 -0.417155 -2.12341 0
M  V30 3782 C 360.66 -3.348 -0.519062 0
M  V30 3783 C 359.219 -3.63671 -0.970604 0
M  V30 3784 C 358.366 -2.77277 -0.0355261 0
M  V30 3785 H 361.317 -1.52245 0.448006 0
M  V30 3786 H 361.338 -3.55187 -1.36463 0
M  V30 3787 H 360.85 -3.8566 0.43449 0
M  V30 3788 H 358.951 -3.1827 -1.9374 0
M  V30 3789 H 359.064 -4.71631 -0.842698 0
M  V30 3790 H 357.428 -2.48846 -0.542927 0
M  V30 3791 H 358.211 -3.30937 0.913003 0
M  V30 3792 N 360.656 0.0484629 -1.57525 0
M  V30 3793 C 361.586 1.0549 -2.08313 0
M  V30 3794 C 362.567 1.38929 -0.981463 0
M  V30 3795 O 363.752 1.48151 -1.25558 0
M  V30 3796 C 360.882 2.36162 -2.54646 0
M  V30 3797 C 359.836 2.17016 -3.68901 0
M  V30 3798 C 359.162 3.53278 -4.01371 0
M  V30 3799 C 360.462 1.57219 -4.98076 0
M  V30 3800 H 362.156 0.632195 -2.92649 0
M  V30 3801 H 359.702 0.302654 -1.40784 0
M  V30 3802 H 361.655 3.06882 -2.88793 0
M  V30 3803 H 360.379 2.80456 -1.67368 0
M  V30 3804 H 359.038 1.48733 -3.35073 0
M  V30 3805 H 358.686 3.95185 -3.11188 0
M  V30 3806 H 358.386 3.41299 -4.78318 0
M  V30 3807 H 359.91 4.25391 -4.38035 0
M  V30 3808 H 361.324 2.17832 -5.30304 0
M  V30 3809 H 359.721 1.55871 -5.79503 0
M  V30 3810 H 360.791 0.535956 -4.81929 0
M  V30 3811 N 362.134 1.5431 0.320358 0
M  V30 3812 C 363.081 1.83918 1.39438 0
M  V30 3813 C 364.051 0.686525 1.51248 0
M  V30 3814 O 365.236 0.933269 1.66417 0
M  V30 3815 C 362.376 2.075 2.75749 0
M  V30 3816 C 361.489 3.35177 2.72544 0
M  V30 3817 C 360.624 3.48704 4.00723 0
M  V30 3818 C 359.663 4.70244 3.91838 0
M  V30 3819 N 358.8 4.80679 5.11754 0
M  V30 3820 H 363.64 2.75544 1.13489 0
M  V30 3821 H 361.177 1.36459 0.549309 0
M  V30 3822 H 363.135 2.19166 3.54996 0
M  V30 3823 H 361.765 1.19163 3 0
M  V30 3824 H 360.817 3.32233 1.85271 0
M  V30 3825 H 362.129 4.24534 2.61863 0
M  V30 3826 H 361.283 3.59928 4.88402 0
M  V30 3827 H 360.022 2.57445 4.14214 0
M  V30 3828 H 359.027 4.59072 3.02544 0
M  V30 3829 H 360.252 5.6289 3.7991 0
M  V30 3830 H 358.198 3.92337 5.25745 0
M  V30 3831 H 358.115 5.64007 5.0342 0
M  V30 3832 H 359.383 4.96239 6.01138 0
M  V30 3833 N 363.613 -0.582584 1.46437 0
M  V30 3834 C 365.024 -1.1647 1.45916 0
M  V30 3835 C 365.375 -1.95177 0.200077 0
M  V30 3836 O 364.5 -2.04874 -0.696819 0
M  V30 3837 C 365.095 -2.11885 2.64367 0
M  V30 3838 C 363.654 -2.65421 2.66887 0
M  V30 3839 C 362.801 -1.41294 2.38603 0
M  V30 3840 H 365.752 -0.370514 1.54314 0
M  V30 3841 H 365.773 -2.9535 2.39892 0
M  V30 3842 H 365.285 -1.54573 3.5599 0
M  V30 3843 H 363.386 -3.26602 1.79338 0
M  V30 3844 H 363.499 -3.08147 3.66854 0
M  V30 3845 H 361.863 -1.71109 1.88663 0
M  V30 3846 H 362.646 -0.858125 3.32402 0
M  V30 3847 N 365.091 -1.34144 -0.827227 0
M  V30 3848 C 366.338 -1.26258 -1.58319 0
M  V30 3849 C 366.666 0.168595 -1.93768 0
M  V30 3850 O 365.921 1.12877 -1.59866 0
M  V30 3851 C 366.22 -2.09464 -2.89585 0
M  V30 3852 C 365.886 -3.58521 -2.73448 0
M  V30 3853 C 364.548 -3.99155 -2.68754 0
M  V30 3854 C 366.9 -4.53189 -2.57428 0
M  V30 3855 C 364.228 -5.32656 -2.45957 0
M  V30 3856 C 366.58 -5.86864 -2.36163 0
M  V30 3857 C 365.244 -6.26667 -2.29879 0
M  V30 3858 H 364.514 -0.462013 -0.579332 0
M  V30 3859 H 367.161 -1.65845 -0.95748 0
M  V30 3860 H 365.466 -1.62692 -3.56425 0
M  V30 3861 H 367.163 -2.00712 -3.47154 0
M  V30 3862 H 363.753 -3.26264 -2.77939 0
M  V30 3863 H 367.937 -4.22696 -2.60081 0
M  V30 3864 H 363.193 -5.62519 -2.39546 0
M  V30 3865 H 367.367 -6.59813 -2.22754 0
M  V30 3866 H 364.994 -7.30049 -2.11975 0
M  V30 3867 N 366.569 1.04691 -1.17803 0
M  V30 3868 C 367.499 2.14494 -0.92275 0
M  V30 3869 C 368.48 1.69546 0.137179 0
M  V30 3870 O 369.665 1.94195 -0.0141108 0
M  V30 3871 C 366.795 3.44491 -0.440803 0
M  V30 3872 C 365.749 4.03031 -1.4405 0
M  V30 3873 C 365.075 5.28432 -0.81631 0
M  V30 3874 C 366.375 4.39932 -2.81527 0
M  V30 3875 H 368.069 2.36107 -1.84103 0
M  V30 3876 H 365.615 1.1347 -0.886599 0
M  V30 3877 H 367.568 4.2066 -0.249602 0
M  V30 3878 H 366.292 3.22546 0.513025 0
M  V30 3879 H 364.951 3.28937 -1.61853 0
M  V30 3880 H 364.599 5.02792 0.144511 0
M  V30 3881 H 364.299 5.68559 -1.48371 0
M  V30 3882 H 365.823 6.07284 -0.635496 0
M  V30 3883 H 367.237 5.07113 -2.67412 0
M  V30 3884 H 365.634 4.9109 -3.44892 0
M  V30 3885 H 366.704 3.50045 -3.35554 0
M  V30 3886 N 368.047 0.979072 1.23499 0
M  V30 3887 C 369.293 0.648178 1.92163 0
M  V30 3888 C 369.626 -0.816049 1.76222 0
M  V30 3889 O 368.901 -1.58849 1.12237 0
M  V30 3890 C 369.184 1.03773 3.44824 0
M  V30 3891 C 369.037 2.55948 3.69879 0
M  V30 3892 C 370.356 0.580653 4.36253 0
M  V30 3893 H 367.475 0.236952 0.69787 0
M  V30 3894 H 370.117 1.22012 1.45647 0
M  V30 3895 H 368.267 0.551058 3.84572 0
M  V30 3896 H 369.939 3.12179 3.3962 0
M  V30 3897 H 368.182 2.98641 3.14636 0
M  V30 3898 H 368.853 2.78255 4.76737 0
M  V30 3899 H 371.329 0.998465 4.03943 0
M  V30 3900 H 370.205 0.881663 5.41773 0
M  V30 3901 H 370.466 -0.519052 4.39042 0
M  V30 3902 N 369.525 -1.3858 0.750561 0
M  V30 3903 C 370.435 -2.34278 0.122825 0
M  V30 3904 C 371.451 -1.59116 -0.704131 0
M  V30 3905 O 372.627 -1.91326 -0.628987 0
M  V30 3906 C 369.692 -3.38221 -0.762086 0
M  V30 3907 C 368.753 -4.29227 0.078896 0
M  V30 3908 C 367.986 -5.28205 -0.763874 0
M  V30 3909 O 368.209 -5.34112 -2.00201 0
M  V30 3910 O 367.143 -6.01618 -0.18428 0
M  V30 3911 H 370.969 -2.89649 0.913088 0
M  V30 3912 H 368.554 -1.40374 0.511417 0
M  V30 3913 H 370.436 -4.01872 -1.26793 0
M  V30 3914 H 369.111 -2.85211 -1.5309 0
M  V30 3915 H 368.018 -3.68747 0.630621 0
M  V30 3916 H 369.351 -4.85484 0.810289 0
M  V30 3917 N 371.003 -0.499398 -1.49478 0
M  V30 3918 C 372.228 0.044722 -2.07352 0
M  V30 3919 C 372.653 1.30207 -1.35749 0
M  V30 3920 O 372.011 1.76516 -0.413732 0
M  V30 3921 C 372.059 0.283013 -3.59488 0
M  V30 3922 O 371.163 1.35804 -3.89398 0
M  V30 3923 H 370.504 -0.0255147 -0.66351 0
M  V30 3924 H 373.034 -0.698561 -1.92305 0
M  V30 3925 H 373.044 0.515007 -4.04737 0
M  V30 3926 H 371.719 -0.635636 -4.11014 0
M  V30 3927 H 370.296 1.11113 -3.55961 0
M  V30 3928 N 372.481 1.55866 -0.233164 0
M  V30 3929 C 373.721 2.00506 0.397078 0
M  V30 3930 C 374.085 1.1176 1.56121 0
M  V30 3931 O 375.286 1.45796 2.25825 0
M  V30 3932 C 373.557 3.4811 0.809601 0
M  V30 3933 S 375.116 4.14765 1.43231 0
M  V30 3934 H 371.934 0.699828 0.125547 0
M  V30 3935 H 374.536 1.92429 -0.345177 0
M  V30 3936 H 373.24 4.10373 -0.0471601 0
M  V30 3937 H 372.771 3.60085 1.58438 0
M  V30 3938 H 374.786 4.14914 2.7214 0
M  V30 3939 N 373.959 -0.0401083 1.57549 0
M  V30 3940 C 374.906 -1.04413 2.05831 0
M  V30 3941 C 375.876 -1.36585 0.945184 0
M  V30 3942 O 377.061 -1.47112 1.21502 0
M  V30 3943 C 374.201 -2.34336 2.53339 0
M  V30 3944 C 373.314 -2.08419 3.78398 0
M  V30 3945 C 372.449 -3.32133 4.14561 0
M  V30 3946 C 371.488 -3.01721 5.3257 0
M  V30 3947 N 370.625 -4.17855 5.64218 0
M  V30 3948 H 375.465 -0.625442 2.91363 0
M  V30 3949 H 373.002 -0.297218 1.44066 0
M  V30 3950 H 374.96 -3.10234 2.78946 0
M  V30 3951 H 373.59 -2.73948 1.7074 0
M  V30 3952 H 372.642 -1.23069 3.59942 0
M  V30 3953 H 373.954 -1.81978 4.64419 0
M  V30 3954 H 373.108 -4.16406 4.41238 0
M  V30 3955 H 371.847 -3.61678 3.2717 0
M  V30 3956 H 370.852 -2.15849 5.05657 0
M  V30 3957 H 372.077 -2.73466 6.21605 0
M  V30 3958 H 370.023 -4.47372 4.79786 0
M  V30 3959 H 369.94 -3.94798 6.44725 0
M  V30 3960 H 371.208 -5.03033 5.95465 0
M  V30 3961 N 375.437 -1.54477 -0.31217 0
M  V30 3962 C 376.347 -1.87695 -1.4074 0
M  V30 3963 C 377.363 -0.769975 -1.56036 0
M  V30 3964 O 378.539 -1.06537 -1.70915 0
M  V30 3965 C 375.604 -2.10755 -2.75287 0
M  V30 3966 C 374.665 -3.34514 -2.69071 0
M  V30 3967 C 373.898 -3.56465 -3.97201 0
M  V30 3968 O 374.121 -2.81637 -4.96021 0
M  V30 3969 O 373.055 -4.49964 -3.9977 0
M  V30 3970 H 376.881 -2.80849 -1.15574 0
M  V30 3971 H 374.466 -1.40526 -0.507228 0
M  V30 3972 H 376.348 -2.27188 -3.54913 0
M  V30 3973 H 375.023 -1.20788 -3.0032 0
M  V30 3974 H 373.93 -3.23456 -1.87955 0
M  V30 3975 H 375.263 -4.24575 -2.48992 0
M  V30 3976 N 376.915 0.57481 -1.46744 0
M  V30 3977 C 377.878 1.66533 -1.57478 0
M  V30 3978 C 378.878 1.54338 -0.451263 0
M  V30 3979 O 380.068 1.58814 -0.715813 0
M  V30 3980 C 377.2 3.05999 -1.50259 0
M  V30 3981 H 378.393 1.58372 -2.54673 0
M  V30 3982 H 375.946 0.793301 -1.34672 0
M  V30 3983 H 376.681 3.19709 -0.543725 0
M  V30 3984 H 376.466 3.16259 -2.31781 0
M  V30 3985 H 377.956 3.8537 -1.60872 0
M  V30 3986 N 378.394 1.34581 0.820102 0
M  V30 3987 C 379.641 1.27096 1.57648 0
M  V30 3988 C 379.969 -0.158317 1.93855 0
M  V30 3989 O 379.224 -1.12028 1.60463 0
M  V30 3990 C 379.523 2.10997 2.8847 0
M  V30 3991 C 379.189 3.59966 2.71543 0
M  V30 3992 C 377.851 4.00575 2.66634 0
M  V30 3993 C 380.203 4.54548 2.55021 0
M  V30 3994 C 377.531 5.33953 2.43128 0
M  V30 3995 C 379.883 5.88109 2.33047 0
M  V30 3996 C 378.547 6.27878 2.26552 0
M  V30 3997 H 377.817 0.465078 0.576874 0
M  V30 3998 H 380.464 1.6635 0.948671 0
M  V30 3999 H 378.769 1.6458 3.55557 0
M  V30 4000 H 380.466 2.0255 3.46084 0
M  V30 4001 H 377.056 3.27733 2.76205 0
M  V30 4002 H 381.24 4.24069 2.57835 0
M  V30 4003 H 376.496 5.63781 2.3656 0
M  V30 4004 H 380.67 6.60985 2.19251 0
M  V30 4005 H 378.297 7.31162 2.081 0
M  V30 4006 N 379.872 -1.04064 1.18357 0
M  V30 4007 C 381.118 -1.77658 0.990412 0
M  V30 4008 C 381.473 -1.86446 -0.474944 0
M  V30 4009 O 380.766 -1.36153 -1.34807 0
M  V30 4010 C 380.96 -3.20634 1.57888 0
M  V30 4011 C 380.789 -3.25782 3.09994 0
M  V30 4012 C 379.559 -3.34411 3.7881 0
M  V30 4013 C 381.757 -3.13791 4.0748 0
M  V30 4014 N 379.739 -3.28809 5.18418 0
M  V30 4015 C 381.11 -3.15689 5.33611 0
M  V30 4016 C 383.165 -2.97833 3.98998 0
M  V30 4017 C 381.868 -3.03268 6.52243 0
M  V30 4018 C 383.894 -2.86759 5.17227 0
M  V30 4019 C 383.256 -2.893 6.4225 0
M  V30 4020 H 379.355 -0.661901 0.416427 0
M  V30 4021 H 381.939 -1.23968 1.50133 0
M  V30 4022 H 380.11 -3.7267 1.09414 0
M  V30 4023 H 381.842 -3.82525 1.32124 0
M  V30 4024 H 378.597 -3.40144 3.29543 0
M  V30 4025 H 379.021 -3.29448 5.91433 0
M  V30 4026 H 383.663 -2.94698 3.03171 0
M  V30 4027 H 381.381 -3.05156 7.48268 0
M  V30 4028 H 384.967 -2.75465 5.12455 0
M  V30 4029 H 383.847 -2.80818 7.32196 0
M  V30 4030 N 381.35 -0.985608 -1.22978 0
M  V30 4031 C 382.627 -0.573599 -1.87001 0
M  V30 4032 C 383.007 0.949213 -1.88555 0
M  V30 4033 O 382.355 1.82811 -1.37086 0
M  V30 4034 C 382.565 -1.18564 -3.28243 0
M  V30 4035 C 383.913 -1.28163 -4.04796 0
M  V30 4036 O 384.937 -1.13949 -3.37482 0
M  V30 4037 O 383.796 -1.50832 -5.25273 0
M  V30 4038 H 380.89 -0.193868 -0.803955 0
M  V30 4039 H 383.436 -1.08102 -1.30813 0
M  V30 4040 H 382.208 -2.22758 -3.21706 0
M  V30 4041 H 381.831 -0.663363 -3.92027 0
M  V30 4042 N 382.828 1.3818 -0.7579 0
M  V30 4043 C 384.244 1.5353 -0.435972 0
M  V30 4044 C 384.444 1.71961 1.05032 0
M  V30 4045 O 383.5 1.73307 1.83633 0
M  V30 4046 C 384.813 2.73989 -1.23898 0
M  V30 4047 C 386.361 2.87841 -1.22949 0
M  V30 4048 C 386.836 4.11266 -2.01554 0
M  V30 4049 N 388.327 4.18352 -1.98837 0
M  V30 4050 C 389.062 5.12856 -2.5645 0
M  V30 4051 N 388.558 6.13005 -3.22794 0
M  V30 4052 N 390.351 5.05238 -2.46356 0
M  V30 4053 H 382.502 1.24467 -1.7211 0
M  V30 4054 H 384.765 0.604982 -0.729864 0
M  V30 4055 H 384.471 2.66789 -2.29165 0
M  V30 4056 H 384.345 3.67294 -0.858764 0
M  V30 4057 H 386.732 2.9452 -0.184854 0
M  V30 4058 H 386.813 1.95534 -1.64924 0
M  V30 4059 H 386.457 4.05349 -3.06031 0
M  V30 4060 H 386.387 5.02661 -1.5697 0
M  V30 4061 H 388.878 3.46628 -1.50524 0
M  V30 4062 H 389.191 6.81619 -3.64165 0
M  V30 4063 H 387.536 6.13325 -3.2689 0
M  V30 4064 H 390.727 4.25938 -1.9415 0
M  V30 4065 H 390.9 5.78707 -2.91552 0
M  V30 4066 N 384.306 0.507319 1.49211 0
M  V30 4067 C 385.546 -0.0332372 2.04373 0
M  V30 4068 C 385.91 -1.33694 1.37804 0
M  V30 4069 O 387.111 -1.96213 1.83722 0
M  V30 4070 C 385.382 -0.17599 3.56966 0
M  V30 4071 S 386.941 -0.669882 4.33657 0
M  V30 4072 H 383.759 0.00123603 0.710999 0
M  V30 4073 H 386.361 0.682725 1.83191 0
M  V30 4074 H 385.065 0.778053 4.02957 0
M  V30 4075 H 384.596 -0.917005 3.82563 0
M  V30 4076 H 386.611 -1.93806 4.56786 0
M  V30 4077 N 385.784 -1.5574 0.241426 0
M  V30 4078 C 386.714 -2.24133 -0.654722 0
M  V30 4079 C 387.695 -1.21974 -1.1856 0
M  V30 4080 O 388.88 -1.50612 -1.22595 0
M  V30 4081 C 386.01 -2.93659 -1.85423 0
M  V30 4082 C 384.964 -4.0246 -1.45636 0
M  V30 4083 C 384.29 -4.59383 -2.73626 0
M  V30 4084 C 385.59 -5.18468 -0.631506 0
M  V30 4085 H 387.284 -2.99281 -0.0844353 0
M  V30 4086 H 384.83 -1.43947 -0.0391707 0
M  V30 4087 H 386.783 -3.40203 -2.48676 0
M  V30 4088 H 385.507 -2.15991 -2.44981 0
M  V30 4089 H 384.166 -3.56676 -0.847202 0
M  V30 4090 H 383.814 -3.78422 -3.3137 0
M  V30 4091 H 383.514 -5.32826 -2.4773 0
M  V30 4092 H 385.038 -5.08658 -3.37786 0
M  V30 4093 H 386.452 -5.61272 -1.1682 0
M  V30 4094 H 384.849 -5.98266 -0.468831 0
M  V30 4095 H 385.919 -4.8358 0.357506 0
M  V30 4096 N 387.262 0.0317525 -1.57568 0
M  V30 4097 C 388.487 0.738664 -1.938 0
M  V30 4098 C 388.912 1.68242 -0.841208 0
M  V30 4099 O 388.27 1.80157 0.203267 0
M  V30 4100 C 388.318 1.47417 -3.29091 0
M  V30 4101 O 387.422 2.5872 -3.2115 0
M  V30 4102 H 386.763 0.198856 -0.633524 0
M  V30 4103 H 389.293 -0.0119713 -2.04596 0
M  V30 4104 H 389.303 1.84468 -3.63917 0
M  V30 4105 H 387.978 0.781988 -4.08482 0
M  V30 4106 H 386.555 2.24231 -2.97951 0
M  V30 4107 N 388.74 1.54641 0.303973 0
M  V30 4108 C 389.986 1.74038 1.04109 0
M  V30 4109 C 390.319 0.523051 1.87024 0
M  V30 4110 O 389.594 -0.479874 1.88487 0
M  V30 4111 C 389.877 3.02761 1.94955 0
M  V30 4112 C 389.73 4.34787 1.1524 0
M  V30 4113 C 391.049 3.27336 2.94175 0
M  V30 4114 H 388.168 0.63323 0.377079 0
M  V30 4115 H 390.81 1.87354 0.316001 0
M  V30 4116 H 388.96 2.9154 2.56782 0
M  V30 4117 H 390.632 4.57922 0.557236 0
M  V30 4118 H 388.875 4.31407 0.455053 0
M  V30 4119 H 389.546 5.21116 1.8205 0
M  V30 4120 H 392.022 3.38148 2.42477 0
M  V30 4121 H 390.898 4.18726 3.54908 0
M  V30 4122 H 391.159 2.45491 3.67677 0
M  V30 4123 N 390.218 -0.567019 1.47046 0
M  V30 4124 C 391.467 -1.32091 1.5243 0
M  V30 4125 C 391.78 -1.94704 0.187021 0
M  V30 4126 O 392.986 -2.7124 0.118771 0
M  V30 4127 C 391.442 -2.39479 2.68659 0
M  V30 4128 C 391.05 -1.831 4.08874 0
M  V30 4129 C 392.794 -3.16111 2.83327 0
M  V30 4130 C 390.701 -2.8821 5.16419 0
M  V30 4131 H 389.631 -0.496629 0.56734 0
M  V30 4132 H 392.282 -0.603354 1.73297 0
M  V30 4133 H 390.664 -3.14105 2.41152 0
M  V30 4134 H 391.838 -1.14913 4.46242 0
M  V30 4135 H 390.153 -1.19085 3.99008 0
M  V30 4136 H 392.75 -3.94585 3.60842 0
M  V30 4137 H 393.093 -3.69686 1.91411 0
M  V30 4138 H 393.626 -2.48595 3.10556 0
M  V30 4139 H 390.365 -2.39504 6.10179 0
M  V30 4140 H 389.885 -3.54839 4.8358 0
M  V30 4141 H 391.564 -3.51881 5.42945 0
M  V30 4142 N 391.696 -1.35014 -0.812953 0
M  V30 4143 C 392.644 -1.27435 -1.94585 0
M  V30 4144 C 393.638 -0.170494 -1.6854 0
M  V30 4145 O 394.844 -0.336085 -1.76835 0
M  V30 4146 H 391.219 -0.396144 -0.639198 0
M  V30 4147 H 393.19 -2.23158 -1.98098 0
M  V30 4148 C 391.939 -1.05677 -3.31252 0
M  V30 4149 H 391.262 -1.89853 -3.51846 0
M  V30 4150 H 392.702 -1.04413 -4.10943 0
M  V30 4151 C 391.161 0.239615 -3.36047 0
M  V30 4152 O 391.691 1.23759 -3.8216 0
M  V30 4153 N 389.897 0.276186 -2.89285 0
M  V30 4154 H 389.444 -0.53653 -2.51951 0
M  V30 4155 H 389.402 1.14332 -2.92875 0
M  V30 4156 N 393.175 1.03435 -1.18907 0
M  V30 4157 C 394.105 2.13503 -0.945448 0
M  V30 4158 C 395.086 1.69682 0.119189 0
M  V30 4159 O 396.271 1.94169 -0.034707 0
M  V30 4160 C 393.401 3.44004 -0.477316 0
M  V30 4161 C 392.355 4.0148 -1.48316 0
M  V30 4162 C 391.681 5.27537 -0.872311 0
M  V30 4163 C 392.981 4.36921 -2.86177 0
M  V30 4164 H 394.675 2.34141 -1.86597 0
M  V30 4165 H 392.221 1.12523 -0.898584 0
M  V30 4166 H 394.174 4.20372 -0.294204 0
M  V30 4167 H 392.898 3.23072 0.478786 0
M  V30 4168 H 391.557 3.27201 -1.65332 0
M  V30 4169 H 391.205 5.02917 0.0911752 0
M  V30 4170 H 390.905 5.66954 -1.54393 0
M  V30 4171 H 392.429 6.06576 -0.699871 0
M  V30 4172 H 393.843 5.04248 -2.72776 0
M  V30 4173 H 392.24 4.87405 -3.50081 0
M  V30 4174 H 393.31 3.46466 -3.39248 0
M  V30 4175 N 394.653 0.992116 1.22453 0
M  V30 4176 C 395.586 0.486701 2.22949 0
M  V30 4177 C 396.564 -0.45259 1.56174 0
M  V30 4178 O 397.748 -0.378317 1.84665 0
M  V30 4179 C 394.875 -0.294537 3.37417 0
M  V30 4180 C 393.921 0.590628 4.22391 0
M  V30 4181 S 394.754 2.04546 4.94895 0
M  V30 4182 C 395.91 1.27369 6.12803 0
M  V30 4183 H 396.143 1.33828 2.65475 0
M  V30 4184 H 393.676 0.799023 1.32117 0
M  V30 4185 H 395.634 -0.739241 4.03789 0
M  V30 4186 H 394.295 -1.12139 2.934 0
M  V30 4187 H 393.488 -0.0104375 5.03999 0
M  V30 4188 H 393.09 0.972064 3.61147 0
M  V30 4189 H 395.382 0.540943 6.75337 0
M  V30 4190 H 396.325 2.06502 6.7732 0
M  V30 4191 H 396.733 0.787324 5.58983 0
M  V30 4192 N 396.131 -1.37776 0.765217 0
M  V30 4193 C 397.356 -2.04651 0.336537 0
M  V30 4194 C 397.781 -1.57337 -1.03086 0
M  V30 4195 O 397.139 -0.730621 -1.65927 0
M  V30 4196 C 397.187 -3.58577 0.381468 0
M  V30 4197 O 396.291 -4.07706 -0.62042 0
M  V30 4198 H 395.632 -0.64756 0.146838 0
M  V30 4199 H 398.162 -1.76221 1.03959 0
M  V30 4200 H 398.172 -4.07314 0.236448 0
M  V30 4201 H 396.847 -3.9237 1.37907 0
M  V30 4202 H 395.424 -3.70306 -0.439056 0
M  V30 4203 N 397.609 -0.515225 -1.4894 0
M  V30 4204 C 398.834 0.022727 -2.07388 0
M  V30 4205 C 399.259 1.2876 -1.37122 0
M  V30 4206 O 398.617 1.76067 -0.432431 0
M  V30 4207 C 398.665 0.244869 -3.59768 0
M  V30 4208 O 397.769 1.31667 -3.90817 0
M  V30 4209 H 397.11 -0.0325506 -0.663202 0
M  V30 4210 H 399.64 -0.718918 -1.91553 0
M  V30 4211 H 399.65 0.47205 -4.0526 0
M  V30 4212 H 398.325 -0.679194 -4.10317 0
M  V30 4213 H 396.902 1.07331 -3.5712 0
M  V30 4214 N 399.087 1.5561 -0.249682 0
M  V30 4215 C 400.034 2.21496 0.648694 0
M  V30 4216 C 401.004 1.17977 1.16921 0
M  V30 4217 O 402.189 1.46434 1.22318 0
M  V30 4218 C 399.329 2.92039 1.83868 0
M  V30 4219 C 398.442 4.10219 1.35442 0
M  V30 4220 C 397.577 4.6847 2.50419 0
M  V30 4221 C 396.616 5.78893 1.98869 0
M  V30 4222 N 395.753 6.31315 3.07223 0
M  V30 4223 H 400.593 2.97892 0.0801582 0
M  V30 4224 H 398.13 1.47074 0.0278031 0
M  V30 4225 H 400.088 3.31138 2.53778 0
M  V30 4226 H 398.718 2.18111 2.37965 0
M  V30 4227 H 397.77 3.76413 0.54928 0
M  V30 4228 H 399.082 4.89927 0.936649 0
M  V30 4229 H 398.236 5.10158 3.28366 0
M  V30 4230 H 396.975 3.87984 2.95499 0
M  V30 4231 H 395.98 5.3668 1.19393 0
M  V30 4232 H 397.205 6.61232 1.54755 0
M  V30 4233 H 395.151 5.53733 3.51732 0
M  V30 4234 H 395.068 7.06224 2.69784 0
M  V30 4235 H 396.336 6.77662 3.8522 0
M  V30 4236 N 400.565 -0.0233959 1.57583 0
M  V30 4237 C 401.498 -1.05549 2.02323 0
M  V30 4238 C 402.476 -1.34843 0.908626 0
M  V30 4239 O 403.66 -1.47404 1.17491 0
M  V30 4240 C 400.787 -2.38885 2.40108 0
M  V30 4241 C 399.833 -2.2541 3.62067 0
M  V30 4242 S 400.666 -1.60217 5.1097 0
M  V30 4243 C 401.822 -2.95032 5.52003 0
M  V30 4244 H 402.055 -0.674435 2.89549 0
M  V30 4245 H 399.588 -0.23355 1.52623 0
M  V30 4246 H 401.546 -3.15562 2.62547 0
M  V30 4247 H 400.207 -2.74137 1.53323 0
M  V30 4248 H 399.4 -3.23854 3.86179 0
M  V30 4249 H 399.002 -1.56876 3.39508 0
M  V30 4250 H 401.294 -3.91357 5.53033 0
M  V30 4251 H 402.237 -2.75646 6.52246 0
M  V30 4252 H 402.645 -2.97865 4.79517 0
M  V30 4253 N 402.043 -1.548 -0.295768 0
M  V30 4254 C 402.973 -1.89115 -1.36959 0
M  V30 4255 C 403.954 -0.75059 -1.52644 0
M  V30 4256 O 405.139 -1.00678 -1.66065 0
M  V30 4257 C 402.269 -2.14307 -2.73295 0
M  V30 4258 C 401.223 -3.30151 -2.72368 0
M  V30 4259 C 400.549 -3.40772 -4.12042 0
M  V30 4260 C 401.849 -4.67126 -2.33646 0
M  V30 4261 H 403.543 -2.79053 -1.08488 0
M  V30 4262 H 401.089 -1.34266 -0.520443 0
M  V30 4263 H 403.042 -2.36898 -3.48507 0
M  V30 4264 H 401.766 -1.21145 -3.03301 0
M  V30 4265 H 400.425 -3.0749 -1.99613 0
M  V30 4266 H 400.073 -2.45117 -4.39234 0
M  V30 4267 H 399.773 -4.18645 -4.12322 0
M  V30 4268 H 401.297 -3.6563 -4.89027 0
M  V30 4269 H 402.711 -4.89414 -2.98575 0
M  V30 4270 H 401.108 -5.47751 -2.45129 0
M  V30 4271 H 402.178 -4.67489 -1.28772 0
M  V30 4272 N 403.521 0.559213 -1.47345 0
M  V30 4273 C 404.453 1.68161 -1.55738 0
M  V30 4274 C 405.466 1.56636 -0.443744 0
M  V30 4275 O 406.655 1.6363 -0.713258 0
M  V30 4276 C 403.755 3.06611 -1.4437 0
M  V30 4277 C 402.928 3.4391 -2.70268 0
M  V30 4278 C 401.987 4.61515 -2.52765 0
M  V30 4279 O 401.013 4.66197 -3.26572 0
M  V30 4280 N 402.215 5.57883 -1.6046 0
M  V30 4281 H 404.98 1.61408 -2.52522 0
M  V30 4282 H 402.541 0.7458 -1.43699 0
M  V30 4283 H 404.533 3.83117 -1.30398 0
M  V30 4284 H 403.103 3.07602 -0.556766 0
M  V30 4285 H 402.323 2.56873 -2.99015 0
M  V30 4286 H 403.611 3.65605 -3.53851 0
M  V30 4287 H 403.009 5.56855 -0.996422 0
M  V30 4288 H 401.566 6.33723 -1.52441 0
M  V30 4289 N 404.999 1.35443 0.805782 0
M  V30 4290 C 406.248 1.28097 1.55801 0
M  V30 4291 C 406.561 -0.142428 1.95081 0
M  V30 4292 O 407.767 -0.33817 2.69386 0
M  V30 4293 C 406.223 2.24653 2.81174 0
M  V30 4294 C 405.831 3.72342 2.49129 0
M  V30 4295 C 407.575 2.2625 3.59181 0
M  V30 4296 C 405.482 4.60719 3.70799 0
M  V30 4297 H 404.412 0.475937 0.584808 0
M  V30 4298 H 407.063 1.60712 0.885661 0
M  V30 4299 H 405.445 1.85011 3.50124 0
M  V30 4300 H 406.619 4.20624 1.88181 0
M  V30 4301 H 404.934 3.73361 1.84366 0
M  V30 4302 H 407.531 2.89495 4.49552 0
M  V30 4303 H 407.874 1.26647 3.96568 0
M  V30 4304 H 408.407 2.64426 2.97193 0
M  V30 4305 H 405.146 5.61324 3.3852 0
M  V30 4306 H 404.666 4.17163 4.3097 0
M  V30 4307 H 406.345 4.76182 4.38018 0
M  V30 4308 N 406.477 -1.02803 1.19454 0
M  V30 4309 C 407.425 -2.13213 0.929673 0
M  V30 4310 C 408.419 -1.69011 -0.114806 0
M  V30 4311 O 409.625 -1.79967 0.0345147 0
M  V30 4312 H 406 -0.69662 0.28324 0
M  V30 4313 H 407.971 -2.32744 1.86743 0
M  V30 4314 C 406.72 -3.4429 0.485797 0
M  V30 4315 H 406.043 -3.7872 1.28105 0
M  V30 4316 H 407.483 -4.22638 0.339582 0
M  V30 4317 C 405.942 -3.27258 -0.800244 0
M  V30 4318 O 406.472 -3.55967 -1.86146 0
M  V30 4319 N 404.678 -2.80545 -0.75781 0
M  V30 4320 H 404.225 -2.57382 0.106039 0
M  V30 4321 H 404.183 -2.6953 -1.61867 0
M  V30 4322 N 407.956 -0.998596 -1.21925 0
M  V30 4323 C 408.919 -0.558679 -2.22287 0
M  V30 4324 C 409.919 0.361525 -1.56683 0
M  V30 4325 O 411.109 0.152695 -1.73529 0
M  V30 4326 C 408.241 0.18661 -3.40389 0
M  V30 4327 H 409.434 -1.4463 -2.62721 0
M  V30 4328 H 406.987 -0.786413 -1.35075 0
M  V30 4329 H 407.722 1.08996 -3.05435 0
M  V30 4330 H 407.507 -0.474188 -3.89222 0
M  V30 4331 H 408.997 0.482367 -4.14805 0
M  V30 4332 N 409.434 1.37368 -0.772513 0
M  V30 4333 C 410.711 1.93839 -0.26188 0
M  V30 4334 C 411.091 1.7061 1.24319 0
M  V30 4335 O 410.439 1.05534 2.02669 0
M  V30 4336 C 410.649 3.43154 -0.636102 0
M  V30 4337 C 411.997 4.20249 -0.606324 0
M  V30 4338 O 413.021 3.5152 -0.575538 0
M  V30 4339 O 411.88 5.42809 -0.634086 0
M  V30 4340 H 408.974 0.82478 -0.0605555 0
M  V30 4341 H 411.52 1.4665 -0.853917 0
M  V30 4342 H 410.292 3.53647 -1.6748 0
M  V30 4343 H 409.915 3.97596 -0.0170516 0
M  V30 4344 N 410.912 0.523116 1.48665 0
M  V30 4345 C 412.323 0.0808997 1.86525 0
M  V30 4346 C 412.674 -1.33975 1.43336 0
M  V30 4347 O 411.799 -2.00221 0.821009 0
M  V30 4348 C 412.394 0.140037 3.3851 0
M  V30 4349 C 410.953 -0.246948 3.75589 0
M  V30 4350 C 410.1 0.502845 2.72703 0
M  V30 4351 H 413.051 0.734736 1.40667 0
M  V30 4352 H 413.072 -0.649945 3.74908 0
M  V30 4353 H 412.584 1.17412 3.69914 0
M  V30 4354 H 410.685 -1.28343 3.49798 0
M  V30 4355 H 410.798 0.0878859 4.79019 0
M  V30 4356 H 409.162 -0.0500581 2.54651 0
M  V30 4357 H 409.945 1.53743 3.0695 0
M  V30 4358 N 412.39 -1.55475 0.257931 0
M  V30 4359 C 413.34 -2.18506 -0.651094 0
M  V30 4360 C 414.324 -1.14431 -1.13112 0
M  V30 4361 O 415.516 -1.40305 -1.07905 0
M  V30 4362 C 412.645 -2.89653 -1.84272 0
M  V30 4363 C 411.731 -4.00996 -1.38068 0
M  V30 4364 N 412.122 -5.01816 -0.633609 0
M  V30 4365 C 410.42 -4.13753 -1.66506 0
M  V30 4366 C 411.121 -5.80371 -0.392922 0
M  V30 4367 N 410.097 -5.3505 -0.960359 0
M  V30 4368 H 413.899 -2.93811 -0.0722883 0
M  V30 4369 H 411.413 -1.62286 0.0607256 0
M  V30 4370 H 413.41 -3.33245 -2.50506 0
M  V30 4371 H 412.07 -2.15854 -2.42564 0
M  V30 4372 H 413.081 -5.17128 -0.282626 0
M  V30 4373 H 409.758 -3.51133 -2.25858 0
M  V30 4374 H 411.148 -6.7159 0.204235 0
M  V30 4375 N 413.868 0.0150385 -1.57593 0
M  V30 4376 C 415.098 0.713359 -1.93894 0
M  V30 4377 C 415.506 1.68663 -0.857289 0
M  V30 4378 O 414.849 1.82876 0.173788 0
M  V30 4379 C 414.911 1.51348 -3.26089 0
M  V30 4380 C 414.575 0.703451 -4.51554 0
M  V30 4381 C 415.572 -0.00237924 -5.199 0
M  V30 4382 C 413.257 0.653854 -4.98026 0
M  V30 4383 C 415.251 -0.746955 -6.33008 0
M  V30 4384 C 412.938 -0.0944578 -6.11027 0
M  V30 4385 C 413.936 -0.793609 -6.78374 0
M  V30 4386 O 413.624 -1.52974 -7.89211 0
M  V30 4387 H 413.356 0.204637 -0.644282 0
M  V30 4388 H 415.91 -0.0276411 -2.05381 0
M  V30 4389 H 414.14 2.29862 -3.10967 0
M  V30 4390 H 415.829 2.09572 -3.47612 0
M  V30 4391 H 416.595 0.0268803 -4.84993 0
M  V30 4392 H 412.474 1.18756 -4.45441 0
M  V30 4393 H 416.018 -1.2932 -6.85509 0
M  V30 4394 H 411.915 -0.125591 -6.45378 0
M  V30 4395 H 412.683 -1.44488 -8.05646 0
M  V30 4396 N 415.346 1.54954 0.287554 0
M  V30 4397 C 416.593 1.74873 1.02106 0
M  V30 4398 C 416.921 0.541829 1.86801 0
M  V30 4399 O 416.176 -0.475992 1.89823 0
M  V30 4400 C 416.475 2.99833 1.94512 0
M  V30 4401 C 416.141 4.33029 1.25686 0
M  V30 4402 C 414.803 4.69233 1.06649 0
M  V30 4403 C 417.155 5.15542 0.765913 0
M  V30 4404 C 414.483 5.85518 0.372222 0
M  V30 4405 C 416.835 6.32542 0.0853101 0
M  V30 4406 C 415.499 6.67398 -0.1169 0
M  V30 4407 H 414.769 0.639906 0.373632 0
M  V30 4408 H 417.416 1.89219 0.294665 0
M  V30 4409 H 415.721 2.80325 2.73725 0
M  V30 4410 H 417.418 3.1244 2.51361 0
M  V30 4411 H 414.008 4.04564 1.41512 0
M  V30 4412 H 418.192 4.88059 0.90066 0
M  V30 4413 H 413.448 6.11057 0.204695 0
M  V30 4414 H 417.622 6.95741 -0.302936 0
M  V30 4415 H 415.249 7.57357 -0.656859 0
M  V30 4416 N 416.824 -0.551391 1.4764 0
M  V30 4417 C 418.052 -1.33357 1.58189 0
M  V30 4418 C 418.467 -1.87342 0.234199 0
M  V30 4419 O 417.824 -1.65301 -0.77343 0
M  V30 4420 C 417.875 -2.49942 2.61173 0
M  V30 4421 O 417.596 -1.98187 3.90709 0
M  V30 4422 C 419.097 -3.42072 2.8196 0
M  V30 4423 H 416.317 -0.40631 0.533998 0
M  V30 4424 H 418.861 -0.667367 1.93304 0
M  V30 4425 H 417.016 -3.12489 2.28975 0
M  V30 4426 H 417.43 -2.74342 4.47031 0
M  V30 4427 H 418.904 -4.20278 3.57869 0
M  V30 4428 H 419.381 -3.95978 1.89995 0
M  V30 4429 H 419.987 -2.85336 3.15378 0
M  V30 4430 N 418.302 -1.35869 -0.798587 0
M  V30 4431 C 419.234 -1.25305 -1.91915 0
M  V30 4432 C 420.247 -0.174548 -1.61862 0
M  V30 4433 O 421.436 -0.428499 -1.73281 0
M  V30 4434 C 418.536 -0.9086 -3.26493 0
M  V30 4435 C 417.709 -2.08711 -3.84394 0
M  V30 4436 C 416.768 -1.71717 -4.97393 0
M  V30 4437 O 415.794 -2.43692 -5.14396 0
M  V30 4438 N 416.996 -0.645473 -5.769 0
M  V30 4439 H 419.761 -2.21849 -2.01502 0
M  V30 4440 H 417.322 -1.29143 -0.976408 0
M  V30 4441 H 419.314 -0.642455 -3.99568 0
M  V30 4442 H 417.884 -0.0325815 -3.12583 0
M  V30 4443 H 417.104 -2.51659 -3.03416 0
M  V30 4444 H 418.392 -2.87468 -4.19809 0
M  V30 4445 H 417.79 -0.047648 -5.6568 0
M  V30 4446 H 416.347 -0.43913 -6.50319 0
M  V30 4447 N 419.78 1.02168 -1.19998 0
M  V30 4448 C 421.026 1.75945 -1.00852 0
M  V30 4449 C 421.359 1.88702 0.458828 0
M  V30 4450 O 420.634 1.40911 1.34069 0
M  V30 4451 C 420.917 3.18154 -1.68671 0
M  V30 4452 C 420.77 3.13224 -3.22817 0
M  V30 4453 C 422.089 4.16711 -1.41561 0
M  V30 4454 H 419.208 0.638673 -0.367785 0
M  V30 4455 H 421.85 1.19222 -1.4794 0
M  V30 4456 H 420 3.66586 -1.28636 0
M  V30 4457 H 421.672 2.72635 -3.72112 0
M  V30 4458 H 419.915 2.50751 -3.53986 0
M  V30 4459 H 420.586 4.13728 -3.65422 0
M  V30 4460 H 423.062 3.76913 -1.76284 0
M  V30 4461 H 421.938 5.14391 -1.91553 0
M  V30 4462 H 422.199 4.40774 -0.342193 0
M  V30 4463 N 421.258 1.00505 1.21394 0
M  V30 4464 C 422.505 0.687774 1.90462 0
M  V30 4465 C 422.833 -0.78147 1.7811 0
M  V30 4466 O 422.088 -1.58208 1.1519 0
M  V30 4467 C 422.387 1.0546 3.41486 0
M  V30 4468 C 422.053 2.51812 3.74034 0
M  V30 4469 C 420.715 2.91804 3.82628 0
M  V30 4470 C 423.067 3.46614 3.8924 0
M  V30 4471 C 420.395 4.2556 4.03876 0
M  V30 4472 C 422.747 4.80044 4.11995 0
M  V30 4473 C 421.411 5.19759 4.18816 0
M  V30 4474 H 420.681 0.251674 0.696951 0
M  V30 4475 H 423.328 1.26349 1.43903 0
M  V30 4476 H 421.633 0.397133 3.89782 0
M  V30 4477 H 423.33 0.786976 3.93202 0
M  V30 4478 H 419.92 2.1982 3.67936 0
M  V30 4479 H 424.104 3.16883 3.81967 0
M  V30 4480 H 419.36 4.55901 4.07387 0
M  V30 4481 H 423.534 5.53439 4.22704 0
M  V30 4482 H 421.161 6.23418 4.35033 0
M  V30 4483 N 422.737 -1.36956 0.779787 0
M  V30 4484 C 423.962 -2.04283 0.358224 0
M  V30 4485 C 424.387 -1.58422 -1.01411 0
M  V30 4486 O 423.745 -0.748179 -1.65142 0
M  V30 4487 C 423.793 -3.58152 0.419479 0
M  V30 4488 O 422.897 -4.08342 -0.577142 0
M  V30 4489 H 422.238 -0.645967 0.153698 0
M  V30 4490 H 424.768 -1.75108 1.05822 0
M  V30 4491 H 424.778 -4.07041 0.279636 0
M  V30 4492 H 423.453 -3.90886 1.42061 0
M  V30 4493 H 422.03 -3.70751 -0.399755 0
M  V30 4494 N 424.215 -0.530993 -1.48385 0
M  V30 4495 C 425.492 0.0671788 -1.95485 0
M  V30 4496 C 425.872 1.51191 -1.47324 0
M  V30 4497 O 425.22 2.17507 -0.700202 0
M  V30 4498 C 425.43 -0.0511206 -3.48963 0
M  V30 4499 C 426.778 0.107632 -4.24464 0
M  V30 4500 O 427.802 0.0226248 -3.56193 0
M  V30 4501 O 426.661 0.285972 -5.45751 0
M  V30 4502 H 423.755 0.0787365 -0.823243 0
M  V30 4503 H 426.301 -0.595662 -1.58902 0
M  V30 4504 H 425.073 -1.05747 -3.7674 0
M  V30 4505 H 424.696 0.650525 -3.92242 0
M  V30 4506 N 425.693 1.55336 -0.266172 0
M  V30 4507 C 426.623 2.25146 0.618981 0
M  V30 4508 C 427.604 1.23845 1.16604 0
M  V30 4509 O 428.789 1.52544 1.20183 0
M  V30 4510 C 425.919 2.96572 1.80728 0
M  V30 4511 C 424.873 4.04726 1.39215 0
M  V30 4512 C 424.199 4.63678 2.66283 0
M  V30 4513 C 425.499 5.19407 0.548942 0
M  V30 4514 H 427.193 2.99377 0.0368116 0
M  V30 4515 H 424.739 1.43991 0.0162651 0
M  V30 4516 H 426.692 3.44116 2.43232 0
M  V30 4517 H 425.416 2.19861 2.41514 0
M  V30 4518 H 424.075 3.57979 0.790351 0
M  V30 4519 H 423.723 3.83646 3.25308 0
M  V30 4520 H 423.423 5.367 2.39222 0
M  V30 4521 H 424.947 5.13967 3.29651 0
M  V30 4522 H 426.361 5.63059 1.07876 0
M  V30 4523 H 424.758 5.98936 0.373593 0
M  V30 4524 H 425.828 4.8295 -0.434394 0
M  V30 4525 N 427.171 -0.0066808 1.57599 0
M  V30 4526 C 428.118 -1.00024 2.08 0
M  V30 4527 C 429.088 -1.34549 0.973943 0
M  V30 4528 O 430.273 -1.44502 1.24595 0
M  V30 4529 C 427.413 -2.2891 2.58252 0
M  V30 4530 C 426.526 -2.00346 3.82734 0
M  V30 4531 C 425.661 -3.23265 4.21513 0
M  V30 4532 C 424.7 -2.90357 5.3885 0
M  V30 4533 N 423.837 -4.05793 5.72954 0
M  V30 4534 H 428.677 -0.563499 2.92624 0
M  V30 4535 H 426.214 -0.266592 1.44664 0
M  V30 4536 H 428.172 -3.04247 2.85464 0
M  V30 4537 H 426.802 -2.70265 1.76512 0
M  V30 4538 H 425.854 -1.15406 3.62471 0
M  V30 4539 H 427.166 -1.72086 4.68175 0
M  V30 4540 H 426.32 -4.06953 4.49971 0
M  V30 4541 H 425.059 -3.54657 3.34768 0
M  V30 4542 H 424.064 -2.05075 5.10122 0
M  V30 4543 H 425.289 -2.60219 6.27266 0
M  V30 4544 H 423.235 -4.37094 4.89167 0
M  V30 4545 H 423.152 -3.81034 6.52954 0
M  V30 4546 H 424.42 -4.90289 6.06001 0
M  V30 4547 N 428.649 -1.55105 -0.279332 0
M  V30 4548 C 429.597 -1.88333 -1.36505 0
M  V30 4549 C 430.591 -0.759043 -1.51443 0
M  V30 4550 O 431.797 -0.943312 -1.53302 0
M  V30 4551 H 428.172 -0.59766 -0.456406 0
M  V30 4552 H 430.143 -2.79041 -1.05728 0
M  V30 4553 C 428.892 -2.16628 -2.7197 0
M  V30 4554 H 428.215 -3.02624 -2.61264 0
M  V30 4555 H 429.655 -2.43803 -3.46895 0
M  V30 4556 C 428.114 -0.971807 -3.22579 0
M  V30 4557 O 428.644 -0.203228 -4.01186 0
M  V30 4558 N 426.85 -0.771238 -2.80179 0
M  V30 4559 H 426.397 -1.39792 -2.1637 0
M  V30 4560 H 426.355 0.0263667 -3.14389 0
M  V30 4561 N 430.127 0.543554 -1.4793 0
M  V30 4562 C 431.037 1.67657 -1.64098 0
M  V30 4563 C 432.053 1.65934 -0.523622 0
M  V30 4564 O 433.229 1.85133 -0.792943 0
M  V30 4565 C 430.294 3.04146 -1.66421 0
M  V30 4566 C 429.355 3.16831 -2.89684 0
M  V30 4567 C 428.588 4.46809 -2.91886 0
M  V30 4568 O 428.811 5.33095 -2.02895 0
M  V30 4569 O 427.745 4.63573 -3.83906 0
M  V30 4570 H 431.571 1.56957 -2.59997 0
M  V30 4571 H 429.156 0.715116 -1.31173 0
M  V30 4572 H 431.038 3.85346 -1.70548 0
M  V30 4573 H 429.713 3.152 -0.736923 0
M  V30 4574 H 428.62 2.34977 -2.91095 0
M  V30 4575 H 429.953 3.10687 -3.81752 0
M  V30 4576 N 431.605 1.3629 0.791371 0
M  V30 4577 C 432.83 1.33726 1.58531 0
M  V30 4578 C 433.255 -0.0794933 1.87932 0
M  V30 4579 O 432.613 -1.05087 1.47738 0
M  V30 4580 C 432.661 2.16425 2.88431 0
M  V30 4581 O 431.765 1.5554 3.81944 0
M  V30 4582 H 431.106 0.457793 0.480959 0
M  V30 4583 H 433.636 1.79547 0.981031 0
M  V30 4584 H 433.646 2.28933 3.37718 0
M  V30 4585 H 432.321 3.19415 2.66359 0
M  V30 4586 H 430.898 1.51961 3.40532 0
M  V30 4587 N 433.083 -1.0153 1.20538 0
M  V30 4588 C 434.331 -1.74803 1.01432 0
M  V30 4589 C 434.652 -1.8963 -0.454456 0
M  V30 4590 O 433.922 -1.43975 -1.32846 0
M  V30 4591 H 432.502 -0.647598 0.372324 0
M  V30 4592 H 435.164 -1.22402 1.5167 0
M  V30 4593 H 434.26 -2.75114 1.47373 0
M  V30 4594 N 434.561 -1.01147 -1.20859 0
M  V30 4595 C 435.493 -0.535546 -2.22855 0
M  V30 4596 C 436.506 0.379323 -1.58319 0
M  V30 4597 O 437.695 0.178489 -1.77605 0
M  V30 4598 C 434.795 0.240962 -3.38042 0
M  V30 4599 C 433.968 -0.674562 -4.32167 0
M  V30 4600 C 433.027 0.053467 -5.26173 0
M  V30 4601 O 432.053 -0.567339 -5.66366 0
M  V30 4602 N 433.255 1.32997 -5.65059 0
M  V30 4603 H 436.02 -1.41268 -2.64317 0
M  V30 4604 H 433.581 -0.888386 -1.35349 0
M  V30 4605 H 435.573 0.737115 -3.97931 0
M  V30 4606 H 434.143 1.01935 -2.95513 0
M  V30 4607 H 433.363 -1.35111 -3.70322 0
M  V30 4608 H 434.651 -1.2974 -4.91981 0
M  V30 4609 H 434.049 1.85536 -5.34409 0
M  V30 4610 H 432.606 1.77095 -6.2728 0
M  V30 4611 N 436.039 1.36541 -0.78704 0
M  V30 4612 C 436.949 2.3387 -0.184896 0
M  V30 4613 C 437.965 1.60927 0.661697 0
M  V30 4614 O 439.141 1.92927 0.57804 0
M  V30 4615 C 436.206 3.40122 0.672145 0
M  V30 4616 C 435.267 4.28867 -0.19267 0
M  V30 4617 C 434.5 5.30045 0.623561 0
M  V30 4618 O 434.723 5.39232 1.8597 0
M  V30 4619 O 433.657 6.01895 0.0247068 0
M  V30 4620 H 437.483 2.87126 -0.989562 0
M  V30 4621 H 435.068 1.38969 -0.548455 0
M  V30 4622 H 436.95 4.05093 1.16094 0
M  V30 4623 H 435.625 2.89169 1.45474 0
M  V30 4624 H 434.532 3.66945 -0.728166 0
M  V30 4625 H 435.865 4.83165 -0.938722 0
M  V30 4626 N 437.518 0.538854 1.48102 0
M  V30 4627 C 438.795 -0.0568108 1.95517 0
M  V30 4628 C 439.175 -1.50408 1.48124 0
M  V30 4629 O 438.523 -2.17133 0.711727 0
M  V30 4630 C 438.733 0.0696262 3.48931 0
M  V30 4631 C 440.081 -0.0851202 4.24515 0
M  V30 4632 O 441.105 -0.0037347 3.562 0
M  V30 4633 O 439.964 -0.257025 5.45895 0
M  V30 4634 H 437.058 -0.0743695 0.823649 0
M  V30 4635 H 439.604 0.604081 1.58584 0
M  V30 4636 H 438.376 1.07744 3.76174 0
M  V30 4637 H 437.999 -0.629714 3.92582 0
M  V30 4638 N 438.996 -1.55193 0.274407 0
M  V30 4639 C 439.943 -2.225 -0.613374 0
M  V30 4640 C 440.913 -1.19823 -1.15029 0
M  V30 4641 O 442.098 -1.48362 -1.19973 0
M  V30 4642 C 439.238 -2.94927 -1.79199 0
M  V30 4643 C 438.351 -4.12322 -1.28899 0
M  V30 4644 C 437.486 -4.72394 -2.42934 0
M  V30 4645 C 436.525 -5.81984 -1.89634 0
M  V30 4646 N 435.662 -6.36123 -2.9714 0
M  V30 4647 H 440.502 -2.97982 -0.032756 0
M  V30 4648 H 438.039 -1.47099 -0.00440146 0
M  V30 4649 H 439.997 -3.35134 -2.48478 0
M  V30 4650 H 438.627 -2.2187 -2.34465 0
M  V30 4651 H 437.679 -3.7724 -0.489327 0
M  V30 4652 H 438.991 -4.91355 -0.858587 0
M  V30 4653 H 438.145 -5.15317 -3.20208 0
M  V30 4654 H 436.884 -3.92636 -2.8929 0
M  V30 4655 H 435.889 -5.38511 -1.1084 0
M  V30 4656 H 437.114 -6.6361 -1.44215 0
M  V30 4657 H 435.06 -5.59259 -3.42878 0
M  V30 4658 H 434.977 -7.10427 -2.58515 0
M  V30 4659 H 436.245 -6.83704 -3.74391 0
M  V30 4660 N 440.474 -0.00167713 -1.576 0
M  V30 4661 C 441.421 0.989195 -2.08527 0
M  V30 4662 C 442.391 1.34031 -0.981065 0
M  V30 4663 O 443.576 1.43839 -1.2536 0
M  V30 4664 C 440.716 2.27537 -2.59463 0
M  V30 4665 C 439.829 1.98314 -3.83791 0
M  V30 4666 C 438.964 3.21025 -4.23222 0
M  V30 4667 C 438.003 2.87495 -5.40382 0
M  V30 4668 N 437.14 4.02749 -5.75098 0
M  V30 4669 H 441.98 0.547973 -2.92919 0
M  V30 4670 H 439.517 0.258917 -1.44803 0
M  V30 4671 H 441.475 3.02729 -2.87073 0
M  V30 4672 H 440.105 2.69325 -1.77943 0
M  V30 4673 H 439.157 1.13482 -3.63078 0
M  V30 4674 H 440.469 1.69601 -4.69081 0
M  V30 4675 H 439.623 4.04561 -4.52123 0
M  V30 4676 H 438.362 3.52877 -3.36644 0
M  V30 4677 H 437.367 2.02367 -5.11202 0
M  V30 4678 H 438.592 2.56889 -6.28637 0
M  V30 4679 H 436.538 4.34494 -4.91478 0
M  V30 4680 H 436.455 3.77566 -6.54966 0
M  V30 4681 H 437.723 4.87068 -6.08592 0
M  V30 4682 N 441.952 1.55251 0.271103 0
M  V30 4683 C 443.368 1.47133 0.618393 0
M  V30 4684 C 443.568 0.686994 1.89427 0
M  V30 4685 O 442.624 0.206609 2.51653 0
M  V30 4686 C 443.937 2.91361 0.743593 0
M  V30 4687 C 445.485 3.01587 0.837522 0
M  V30 4688 C 445.96 4.47073 0.994483 0
M  V30 4689 N 447.451 4.50909 1.05996 0
M  V30 4690 C 448.186 5.60698 1.20024 0
M  V30 4691 N 447.682 6.80348 1.30759 0
M  V30 4692 N 449.475 5.48444 1.23149 0
M  V30 4693 H 441.626 2.04698 -0.566784 0
M  V30 4694 H 443.889 0.928319 -0.192165 0
M  V30 4695 H 443.595 3.51483 -0.123493 0
M  V30 4696 H 443.469 3.40484 1.62328 0
M  V30 4697 H 445.856 2.4156 1.69507 0
M  V30 4698 H 445.937 2.55713 -0.0668086 0
M  V30 4699 H 445.581 5.07703 0.141582 0
M  V30 4700 H 445.511 4.90605 1.91349 0
M  V30 4701 H 448.002 3.6472 0.989316 0
M  V30 4702 H 448.315 7.59772 1.41303 0
M  V30 4703 H 446.66 6.83156 1.27761 0
M  V30 4704 H 449.851 4.53907 1.14394 0
M  V30 4705 H 450.024 6.34049 1.33738 0
M  V30 4706 N 443.43 -0.535701 1.48216 0
M  V30 4707 C 444.36 -1.65014 1.65204 0
M  V30 4708 C 445.341 -1.62554 0.501011 0
M  V30 4709 O 446.526 -1.7984 0.732886 0
M  V30 4710 C 443.656 -3.03616 1.68626 0
M  V30 4711 C 442.61 -3.20932 2.83172 0
M  V30 4712 C 441.936 -4.60537 2.71679 0
M  V30 4713 C 443.236 -3.04249 4.24535 0
M  V30 4714 H 444.93 -1.51053 2.58502 0
M  V30 4715 H 442.476 -0.725262 1.24402 0
M  V30 4716 H 444.429 -3.81446 1.79099 0
M  V30 4717 H 443.153 -3.18587 0.719026 0
M  V30 4718 H 441.812 -2.45517 2.72244 0
M  V30 4719 H 441.46 -4.72336 1.72937 0
M  V30 4720 H 441.16 -4.73069 3.48538 0
M  V30 4721 H 442.684 -5.40475 2.84112 0
M  V30 4722 H 444.098 -3.71877 4.36326 0
M  V30 4723 H 442.495 -3.28278 5.02348 0
M  V30 4724 H 443.565 -2.00739 4.41397 0
M  V30 4725 N 444.908 -1.36708 -0.784132 0
M  V30 4726 C 445.838 -1.34153 -1.91116 0
M  V30 4727 C 446.819 -0.212121 -1.68772 0
M  V30 4728 O 448.004 -0.410581 -1.8981 0
M  V30 4729 C 445.134 -1.13535 -3.28218 0
M  V30 4730 C 444.088 -2.23356 -3.65097 0
M  V30 4731 C 443.414 -1.87875 -5.00607 0
M  V30 4732 C 444.714 -3.65473 -3.73131 0
M  V30 4733 H 446.408 -2.28459 -1.93512 0
M  V30 4734 H 443.954 -1.09973 -0.929618 0
M  V30 4735 H 445.907 -1.10381 -4.06687 0
M  V30 4736 H 444.631 -0.156804 -3.26223 0
M  V30 4737 H 443.29 -2.25645 -2.88929 0
M  V30 4738 H 442.938 -0.885814 -4.95139 0
M  V30 4739 H 442.638 -2.61406 -5.26252 0
M  V30 4740 H 444.162 -1.86286 -5.81489 0
M  V30 4741 H 445.576 -3.65382 -4.41779 0
M  V30 4742 H 443.973 -4.37953 -4.10265 0
M  V30 4743 H 445.043 -3.99995 -2.74102 0
M  V30 4744 N 446.386 1.0089 -1.21074 0
M  V30 4745 C 447.316 2.1145 -0.990523 0
M  V30 4746 C 448.297 1.69897 0.0831699 0
M  V30 4747 O 449.482 1.94052 -0.0758853 0
M  V30 4748 C 446.612 3.42914 -0.550177 0
M  V30 4749 C 445.566 3.98244 -1.56799 0
M  V30 4750 C 444.892 5.25568 -0.984013 0
M  V30 4751 C 446.192 4.30752 -2.95381 0
M  V30 4752 H 447.886 2.3013 -1.91521 0
M  V30 4753 H 445.432 1.10592 -0.92225 0
M  V30 4754 H 447.385 4.19653 -0.383305 0
M  V30 4755 H 446.109 3.24014 0.41015 0
M  V30 4756 H 444.768 3.23621 -1.72236 0
M  V30 4757 H 444.416 5.02998 -0.0155216 0
M  V30 4758 H 444.116 5.63551 -1.66384 0
M  V30 4759 H 445.64 6.04955 -0.828378 0
M  V30 4760 H 447.054 4.98349 -2.8341 0
M  V30 4761 H 445.451 4.79869 -3.60341 0
M  V30 4762 H 446.521 3.39192 -3.46521 0
M  V30 4763 N 447.864 1.01787 1.20321 0
M  V30 4764 C 449.112 0.706538 1.89347 0
M  V30 4765 C 449.433 -0.766289 1.79313 0
M  V30 4766 O 448.703 -1.55126 1.19635 0
M  V30 4767 H 447.283 0.258348 0.700903 0
M  V30 4768 H 449.945 1.28974 1.46122 0
M  V30 4769 H 449.041 0.991066 2.95946 0
M  V30 4770 N 449.342 -1.36122 0.79427 0
M  V30 4771 C 450.272 -2.32551 0.210328 0
M  V30 4772 C 451.253 -1.56884 -0.657386 0
M  V30 4773 O 452.438 -1.85014 -0.590207 0
M  V30 4774 C 449.568 -3.41128 -0.651819 0
M  V30 4775 C 448.522 -4.27842 0.116395 0
M  V30 4776 C 447.848 -5.2763 -0.86666 0
M  V30 4777 C 449.148 -5.05647 1.30837 0
M  V30 4778 H 450.842 -2.81636 1.01594 0
M  V30 4779 H 448.388 -1.35407 0.489981 0
M  V30 4780 H 450.341 -4.07581 -1.07031 0
M  V30 4781 H 449.065 -2.90622 -1.49019 0
M  V30 4782 H 447.724 -3.62952 0.515915 0
M  V30 4783 H 447.372 -4.73395 -1.70019 0
M  V30 4784 H 447.072 -5.86514 -0.35705 0
M  V30 4785 H 448.596 -5.96955 -1.28361 0
M  V30 4786 H 450.01 -5.65113 0.965393 0
M  V30 4787 H 448.407 -5.73967 1.75161 0
M  V30 4788 H 449.477 -4.37006 2.10128 0
M  V30 4789 N 450.82 -0.546701 -1.47814 0
M  V30 4790 C 452.097 0.0464413 -1.95545 0
M  V30 4791 C 452.477 1.4962 -1.48919 0
M  V30 4792 O 451.825 2.16752 -0.723232 0
M  V30 4793 C 452.035 -0.0881298 -3.48889 0
M  V30 4794 C 453.383 0.0626059 -4.24554 0
M  V30 4795 O 454.407 -0.0151555 -3.56197 0
M  V30 4796 O 453.266 0.228071 -5.46024 0
M  V30 4797 H 450.36 0.0700004 -0.824032 0
M  V30 4798 H 452.906 -0.612482 -1.58262 0
M  V30 4799 H 451.678 -1.09737 -3.75597 0
M  V30 4800 H 451.301 0.608886 -3.9291 0
M  V30 4801 N 452.299 1.55045 -0.282633 0
M  V30 4802 C 453.715 1.59441 0.0712997 0
M  V30 4803 C 453.915 1.2998 1.53972 0
M  V30 4804 O 452.971 1.06431 2.28973 0
M  V30 4805 C 454.284 2.99097 -0.310104 0
M  V30 4806 C 455.832 3.1194 -0.257343 0
M  V30 4807 C 456.307 4.53875 -0.613297 0
M  V30 4808 N 457.798 4.5974 -0.565134 0
M  V30 4809 C 458.533 5.67603 -0.81326 0
M  V30 4810 N 458.029 6.83582 -1.1264 0
M  V30 4811 N 459.822 5.57187 -0.741553 0
M  V30 4812 H 451.973 1.72458 -1.23984 0
M  V30 4813 H 454.236 0.804549 -0.501403 0
M  V30 4814 H 453.942 3.25516 -1.33163 0
M  V30 4815 H 453.816 3.75616 0.345366 0
M  V30 4816 H 456.203 2.85281 0.754905 0
M  V30 4817 H 456.284 2.37618 -0.947178 0
M  V30 4818 H 455.928 4.81261 -1.62327 0
M  V30 4819 H 455.858 5.26508 0.09841 0
M  V30 4820 H 458.349 3.76427 -0.333294 0
M  V30 4821 H 458.662 7.6175 -1.30219 0
M  V30 4822 H 457.007 6.85179 -1.16425 0
M  V30 4823 H 460.198 4.65457 -0.496705 0
M  V30 4824 H 460.371 6.41171 -0.938306 0
M  V30 4825 O 453.816 0.148543 1.60815 0
M  V30 4826 H 454.507 -0.445161 1.88515 0
M  V30 END ATOM
M  V30 BEGIN BOND
M  V30 END BOND
M  V30 END CTAB
M  END
$$$$
