drugbank_target|Q15185 Prostaglandin E synthase 3 (DB00316; DB05036; DB09130)
 OpenBabel12092120223D

  0  0  0     0  0            999 V3000
M  V30 BEGIN CTAB
M  V30 COUNTS 2496 2524 0 0 0
M  V30 BEGIN ATOM
M  V30 1 H -0.908 1.98254 -0.117106 0
M  V30 2 N 0 1.576 0 0
M  V30 3 C 0.933 2.03868 1.02534 0
M  V30 4 C 1.911 0.928543 1.3348 0
M  V30 5 O 3.095 1.19667 1.45644 0
M  V30 6 C 0.222 2.43627 2.35294 0
M  V30 7 C -0.732 3.65373 2.2001 0
M  V30 8 S 0.101 5.13292 1.52614 0
M  V30 9 C 1.257 5.56322 2.86805 0
M  V30 10 H 1.49 2.90518 0.631377 0
M  V30 11 H -0.977 1.52953 0.210867 0
M  V30 12 H 0.981 2.67203 3.11629 0
M  V30 13 H -0.358 1.57376 2.7183 0
M  V30 14 H -1.165 3.90944 3.18086 0
M  V30 15 H -1.563 3.418 1.51819 0
M  V30 16 H 0.729 5.58782 3.83104 0
M  V30 17 H 1.672 6.56266 2.65933 0
M  V30 18 H 2.08 4.83886 2.90714 0
M  V30 19 N 1.4781 -0.272755 1.55222 0
M  V30 20 C 2.4101 -1.35946 1.8453 0
M  V30 21 C 3.4231 -1.45525 0.729818 0
M  V30 22 O 4.6121 -1.47337 1.00767 0
M  V30 23 C 1.7121 -2.74069 1.99347 0
M  V30 24 C 0.8851 -2.87079 3.30007 0
M  V30 25 C -0.0559 -4.05879 3.34886 0
M  V30 26 O -1.0299 -3.96626 4.08261 0
M  V30 27 N 0.1721 -5.17857 2.62307 0
M  V30 28 H 2.9371 -1.11149 2.78327 0
M  V30 29 H 0.4981 -0.462869 1.55142 0
M  V30 30 H 2.4901 -3.51838 1.99981 0
M  V30 31 H 1.0601 -2.91688 1.12415 0
M  V30 32 H 0.2801 -1.96193 3.41909 0
M  V30 33 H 1.5681 -2.92701 4.16177 0
M  V30 34 H 0.9661 -5.28261 2.02377 0
M  V30 35 H -0.4769 -5.93855 2.68663 0
M  V30 36 N 2.9562 -1.48159 -0.537278 0
M  V30 37 C 4.3672 -1.49429 -1.11928 0
M  V30 38 C 4.7182 -0.26 -1.9447 0
M  V30 39 O 3.8432 0.633489 -2.0692 0
M  V30 40 C 4.4382 -2.70758 -2.03656 0
M  V30 41 C 2.9972 -2.74923 -2.57088 0
M  V30 42 C 2.1442 -2.42835 -1.3389 0
M  V30 43 H 5.0952 -1.55381 -0.322886 0
M  V30 44 H 5.1162 -2.48861 -2.87834 0
M  V30 45 H 4.6282 -3.60575 -1.43553 0
M  V30 46 H 2.7292 -1.89296 -3.20933 0
M  V30 47 H 2.8422 -3.76157 -2.9672 0
M  V30 48 H 1.2062 -1.93836 -1.65226 0
M  V30 49 H 1.9892 -3.34884 -0.755504 0
M  V30 50 N 4.4343 0.785586 -1.36625 0
M  V30 51 C 5.3973 1.87999 -1.31107 0
M  V30 52 C 6.3973 1.59316 -0.217959 0
M  V30 53 O 7.5873 1.67656 -0.472977 0
M  V30 54 C 4.7193 3.24861 -1.03334 0
M  V30 55 H 5.9123 1.94307 -2.2844 0
M  V30 56 H 3.4653 0.983813 -1.21453 0
M  V30 57 H 4.2003 3.24235 -0.0647432 0
M  V30 58 H 3.9853 3.4707 -1.82441 0
M  V30 59 H 5.4753 4.04929 -1.02088 0
M  V30 60 N 5.9124 1.20967 1.01018 0
M  V30 61 C 7.1374 1.0503 1.78839 0
M  V30 62 C 7.5624 -0.395752 1.8389 0
M  V30 63 O 6.9204 -1.28529 1.27867 0
M  V30 64 C 6.9684 1.64602 3.2084 0
M  V30 65 O 6.0724 0.887988 4.02726 0
M  V30 66 H 5.4134 0.369987 0.551367 0
M  V30 67 H 7.9434 1.60399 1.27018 0
M  V30 68 H 7.9534 1.68607 3.71532 0
M  V30 69 H 6.6284 2.69841 3.16479 0
M  V30 70 H 5.2054 0.922648 3.61305 0
M  V30 71 N 7.3905 -1.2043 1.01659 0
M  V30 72 C 8.3535 -2.21433 0.591616 0
M  V30 73 C 9.3535 -1.57203 -0.338226 0
M  V30 74 O 10.5435 -1.73737 -0.126918 0
M  V30 75 C 7.6755 -3.40628 -0.136058 0
M  V30 76 H 8.8685 -2.60545 1.48514 0
M  V30 77 H 6.4215 -1.33893 0.806379 0
M  V30 78 H 7.1565 -3.07019 -1.04449 0
M  V30 79 H 6.9415 -3.88475 0.531917 0
M  V30 80 H 8.4315 -4.15475 -0.420735 0
M  V30 81 N 8.8686 -0.792821 -1.36206 0
M  V30 82 C 9.8156 -0.191653 -2.30003 0
M  V30 83 C 10.7856 0.666453 -1.52143 0
M  V30 84 O 11.9706 0.61442 -1.80636 0
M  V30 85 C 9.1106 0.664848 -3.38635 0
M  V30 86 C 8.2236 -0.212175 -4.31479 0
M  V30 87 C 7.3586 0.651022 -5.27196 0
M  V30 88 C 6.3976 -0.227247 -6.11678 0
M  V30 89 N 5.5346 0.595127 -6.99573 0
M  V30 90 H 10.3746 -0.996978 -2.80828 0
M  V30 91 H 7.9116 -0.503206 -1.38225 0
M  V30 92 H 9.8696 1.17645 -4.00269 0
M  V30 93 H 8.4996 1.43557 -2.89122 0
M  V30 94 H 7.5516 -0.841777 -3.70969 0
M  V30 95 H 8.8636 -0.888751 -4.90818 0
M  V30 96 H 8.0176 1.2283 -5.94136 0
M  V30 97 H 6.7566 1.36121 -4.68319 0
M  V30 98 H 5.7616 -0.816904 -5.43697 0
M  V30 99 H 6.9866 -0.93509 -6.72631 0
M  V30 100 H 4.9326 1.28955 -6.432 0
M  V30 101 H 4.8496 -0.0236952 -7.55996 0
M  V30 102 H 6.1176 1.15613 -7.70879 0
M  V30 103 N 10.3467 1.47872 -0.545128 0
M  V30 104 C 11.5927 2.03385 -0.0247951 0
M  V30 105 C 11.9477 1.41325 1.30556 0
M  V30 106 O 11.2407 0.5552 1.8338 0
M  V30 107 C 11.4347 3.57131 0.13867 0
M  V30 108 C 11.2637 4.34097 -1.17429 0
M  V30 109 C 10.0337 4.74458 -1.73831 0
M  V30 110 C 12.2317 4.6998 -2.08861 0
M  V30 111 N 10.2137 5.3602 -2.99258 0
M  V30 112 C 11.5847 5.31719 -3.18866 0
M  V30 113 C 13.6397 4.5191 -2.09003 0
M  V30 114 C 12.3427 5.77295 -4.29096 0
M  V30 115 C 14.3687 4.98477 -3.18237 0
M  V30 116 C 13.7307 5.60253 -4.26961 0
M  V30 117 H 9.8297 0.780339 -0.050943 0
M  V30 118 H 12.4137 1.80507 -0.729753 0
M  V30 119 H 10.5847 3.79802 0.812733 0
M  V30 120 H 12.3167 3.99282 0.659976 0
M  V30 121 H 9.0717 4.56037 -1.2778 0
M  V30 122 H 9.4957 5.71355 -3.63157 0
M  V30 123 H 14.1377 4.03516 -1.26234 0
M  V30 124 H 11.8557 6.24687 -5.12633 0
M  V30 125 H 15.4417 4.86274 -3.1942 0
M  V30 126 H 14.3217 5.95631 -5.10091 0
M  V30 127 N 11.8248 0.280983 1.55075 0
M  V30 128 C 13.0548 -0.336804 2.03836 0
M  V30 129 C 13.4628 -1.49577 1.15859 0
M  V30 130 O 12.8058 -1.82888 0.172503 0
M  V30 131 C 12.8678 -0.874616 3.48699 0
M  V30 132 C 12.5318 0.156478 4.56732 0
M  V30 133 C 13.5288 0.978032 5.10618 0
M  V30 134 C 11.2138 0.292409 5.01448 0
M  V30 135 C 13.2078 1.92165 6.07743 0
M  V30 136 C 10.8948 1.23949 5.98398 0
M  V30 137 C 11.8928 2.05261 6.51427 0
M  V30 138 O 11.5808 2.98367 7.4648 0
M  V30 139 H 11.3128 -0.0800885 0.671239 0
M  V30 140 H 13.8668 0.412589 2.01213 0
M  V30 141 H 12.0968 -1.67418 3.4858 0
M  V30 142 H 13.7858 -1.40612 3.80766 0
M  V30 143 H 14.5518 0.883782 4.7688 0
M  V30 144 H 10.4308 -0.330498 4.59814 0
M  V30 145 H 13.9748 2.55672 6.49059 0
M  V30 146 H 9.8718 1.33454 6.31554 0
M  V30 147 H 10.6398 2.93116 7.64215 0
M  V30 148 N 13.3029 -1.57598 0.00835791 0
M  V30 149 C 14.5799 -1.82172 -0.712235 0
M  V30 150 C 14.9599 -0.887873 -1.9152 0
M  V30 151 O 14.3079 0.06146 -2.28417 0
M  V30 152 C 14.5179 -3.30875 -1.11008 0
M  V30 153 C 15.8659 -3.96826 -1.51044 0
M  V30 154 O 16.8899 -3.35248 -1.20364 0
M  V30 155 O 15.7489 -5.05318 -2.08125 0
M  V30 156 H 12.8429 -0.750435 -0.347529 0
M  V30 157 H 15.3889 -1.69665 0.0344523 0
M  V30 158 H 14.1609 -3.90481 -0.252982 0
M  V30 159 H 13.7839 -3.48412 -1.9156 0
M  V30 160 N 14.781 0.264519 -1.55364 0
M  V30 161 C 16.197 0.61215 -1.47394 0
M  V30 162 C 16.397 1.89134 -0.695018 0
M  V30 163 O 15.453 2.51563 -0.217275 0
M  V30 164 C 16.766 0.731235 -2.91674 0
M  V30 165 C 18.314 0.82473 -3.01939 0
M  V30 166 C 18.789 0.975522 -4.4749 0
M  V30 167 N 20.28 1.04083 -4.51354 0
M  V30 168 C 21.015 1.17646 -5.61201 0
M  V30 169 N 20.511 1.27874 -6.80896 0
M  V30 170 N 22.304 1.20823 -5.48961 0
M  V30 171 H 14.455 -0.575456 -2.04456 0
M  V30 172 H 16.718 -0.196099 -0.927496 0
M  V30 173 H 16.424 -0.138392 -3.51428 0
M  V30 174 H 16.298 1.60883 -3.41169 0
M  V30 175 H 18.685 1.68482 -2.42276 0
M  V30 176 H 18.766 -0.0776479 -2.55682 0
M  V30 177 H 18.41 0.120058 -5.07758 0
M  V30 178 H 18.34 1.89268 -4.91412 0
M  V30 179 H 20.831 0.973846 -3.65136 0
M  V30 180 H 21.144 1.38081 -7.60364 0
M  V30 181 H 19.489 1.24863 -6.83692 0
M  V30 182 H 22.68 1.12469 -4.54388 0
M  V30 183 H 22.853 1.31049 -6.3461 0
M  V30 184 N 16.2591 1.48442 0.529413 0
M  V30 185 C 17.6751 1.34575 0.858004 0
M  V30 186 C 17.8751 0.3572 1.98309 0
M  V30 187 O 16.9311 -0.221379 2.51528 0
M  V30 188 C 18.2441 2.74617 1.22499 0
M  V30 189 C 19.7921 2.83109 1.33484 0
M  V30 190 C 20.2671 4.23854 1.73526 0
M  V30 191 N 21.7581 4.2653 1.80628 0
M  V30 192 C 22.4931 5.32372 2.12997 0
M  V30 193 N 21.9891 6.48491 2.43786 0
M  V30 194 N 23.7821 5.19766 2.14008 0
M  V30 195 H 15.9331 2.1133 -0.212925 0
M  V30 196 H 18.1961 0.947439 -0.0326199 0
M  V30 197 H 17.9021 3.4852 0.471905 0
M  V30 198 H 17.7761 3.08177 2.17501 0
M  V30 199 H 20.1631 2.09462 2.0787 0
M  V30 200 H 20.2441 2.53168 0.366027 0
M  V30 201 H 19.8881 4.98018 0.997013 0
M  V30 202 H 19.8181 4.5124 2.71459 0
M  V30 203 H 22.3091 3.42772 1.59108 0
M  V30 204 H 22.6221 7.24993 2.67592 0
M  V30 205 H 20.9671 6.51765 2.41304 0
M  V30 206 H 24.1581 4.28066 1.89412 0
M  V30 207 H 24.3311 6.02354 2.38902 0
M  V30 208 N 17.7372 -0.778329 1.37039 0
M  V30 209 C 19.0142 -1.52551 1.22424 0
M  V30 210 C 19.3942 -2.10288 -0.184964 0
M  V30 211 O 18.7422 -1.94953 -1.19187 0
M  V30 212 C 18.9522 -2.61164 2.31504 0
M  V30 213 C 20.3002 -3.28746 2.68721 0
M  V30 214 O 21.3242 -2.71455 2.30631 0
M  V30 215 O 20.1832 -4.3231 3.3432 0
M  V30 216 H 17.2772 -0.675343 0.477326 0
M  V30 217 H 19.8232 -0.815859 1.48801 0
M  V30 218 H 18.5952 -2.16574 3.25901 0
M  V30 219 H 18.2182 -3.39737 2.06554 0
M  V30 220 N 19.2153 -1.21501 -1.00376 0
M  V30 221 C 20.4453 -1.05746 -1.77486 0
M  V30 222 C 20.8533 0.395655 -1.85017 0
M  V30 223 O 20.1963 1.28626 -1.31152 0
M  V30 224 C 20.2583 -1.58092 -3.22873 0
M  V30 225 C 19.9223 -3.06568 -3.38917 0
M  V30 226 C 20.9193 -4.04106 -3.271 0
M  V30 227 C 18.6043 -3.45799 -3.64319 0
M  V30 228 C 20.5983 -5.38862 -3.40451 0
M  V30 229 C 18.2853 -4.80707 -3.77311 0
M  V30 230 C 19.2833 -5.77047 -3.65384 0
M  V30 231 O 18.9713 -7.09507 -3.77961 0
M  V30 232 H 18.7033 -0.371778 -0.564586 0
M  V30 233 H 21.2573 -1.61319 -1.27143 0
M  V30 234 H 19.4873 -0.969163 -3.74358 0
M  V30 235 H 21.1763 -1.38162 -3.81662 0
M  V30 236 H 21.9423 -3.75141 -3.07399 0
M  V30 237 H 17.8213 -2.71344 -3.72684 0
M  V30 238 H 21.3653 -6.14041 -3.31058 0
M  V30 239 H 17.2623 -5.09357 -3.96517 0
M  V30 240 H 18.0303 -7.16935 -3.94901 0
M  V30 241 N 20.6934 1.19889 -1.02296 0
M  V30 242 C 21.9394 1.89701 -0.717033 0
M  V30 243 C 22.2724 1.7905 0.751989 0
M  V30 244 O 21.5474 1.17891 1.547 0
M  V30 245 C 21.8304 3.40858 -1.16136 0
M  V30 246 C 21.6834 3.60411 -2.69117 0
M  V30 247 C 23.0024 4.33876 -0.737549 0
M  V30 248 H 20.1214 0.688874 -0.261957 0
M  V30 249 H 22.7634 1.41154 -1.27183 0
M  V30 250 H 20.9134 3.82335 -0.689342 0
M  V30 251 H 22.5854 3.28145 -3.2422 0
M  V30 252 H 20.8284 3.03665 -3.0979 0
M  V30 253 H 21.4994 4.66396 -2.95261 0
M  V30 254 H 23.9754 4.00081 -1.14344 0
M  V30 255 H 22.8514 5.38242 -1.0764 0
M  V30 256 H 23.1124 4.40628 0.360436 0
M  V30 257 N 22.1715 0.800033 1.35784 0
M  V30 258 C 23.4185 0.377342 1.98953 0
M  V30 259 C 23.7465 -1.05378 1.6348 0
M  V30 260 O 23.0015 -1.74459 0.886707 0
M  V30 261 C 23.3005 0.500276 3.53881 0
M  V30 262 C 22.9665 1.89375 4.09204 0
M  V30 263 C 21.6285 2.27499 4.24025 0
M  V30 264 C 23.9805 2.8057 4.39238 0
M  V30 265 C 21.3085 3.562 4.66195 0
M  V30 266 C 23.6605 4.0871 4.82844 0
M  V30 267 C 22.3245 4.46843 4.95871 0
M  V30 268 H 21.5945 0.138079 0.728021 0
M  V30 269 H 24.2415 1.01955 1.62103 0
M  V30 270 H 22.5465 -0.225405 3.91151 0
M  V30 271 H 24.2435 0.154097 4.00704 0
M  V30 272 H 20.8335 1.58753 3.98115 0
M  V30 273 H 25.0175 2.52367 4.27346 0
M  V30 274 H 20.2735 3.85602 4.74469 0
M  V30 275 H 24.4475 4.79481 5.05046 0
M  V30 276 H 22.0745 5.46623 5.28306 0
M  V30 277 N 23.6496 -1.47581 0.552962 0
M  V30 278 C 24.8986 -2.01684 0.0251995 0
M  V30 279 C 25.2116 -1.43317 -1.33115 0
M  V30 280 O 26.4176 -1.89057 -1.94858 0
M  V30 281 C 24.8736 -3.599 -0.00542052 0
M  V30 282 C 24.4816 -4.27257 1.34742 0
M  V30 283 C 26.2256 -4.21768 -0.4808 0
M  V30 284 C 24.1326 -5.77467 1.27614 0
M  V30 285 H 23.0626 -0.753979 0.00565033 0
M  V30 286 H 25.7136 -1.69616 0.70018 0
M  V30 287 H 24.0956 -3.88911 -0.745961 0
M  V30 288 H 25.2696 -4.09893 2.10534 0
M  V30 289 H 23.5846 -3.77358 1.76039 0
M  V30 290 H 26.1816 -5.31838 -0.55246 0
M  V30 291 H 26.5246 -3.88651 -1.49184 0
M  V30 292 H 27.0576 -3.97273 0.204752 0
M  V30 293 H 23.7966 -6.15196 2.26304 0
M  V30 294 H 23.3166 -5.9718 0.55996 0
M  V30 295 H 24.9956 -6.3959 0.976421 0
M  V30 296 N 25.1277 -0.289203 -1.54924 0
M  V30 297 C 26.0377 0.601863 -2.26748 0
M  V30 298 C 27.0537 1.15834 -1.2984 0
M  V30 299 O 28.2297 1.18564 -1.62802 0
M  V30 300 C 25.2947 1.76299 -2.98529 0
M  V30 301 C 24.3557 1.24178 -4.10948 0
M  V30 302 C 23.5887 2.34757 -4.79296 0
M  V30 303 O 23.8117 3.54411 -4.46933 0
M  V30 304 O 22.7457 2.02115 -5.66951 0
M  V30 305 H 26.5717 0.0195879 -3.03694 0
M  V30 306 H 24.1567 -0.0560868 -1.49295 0
M  V30 307 H 26.0387 2.43973 -3.43592 0
M  V30 308 H 24.7137 2.33209 -2.24488 0
M  V30 309 H 23.6207 0.531104 -3.70311 0
M  V30 310 H 24.9537 0.718252 -4.86931 0
M  V30 311 N 26.6058 1.57591 -0.0167156 0
M  V30 312 C 27.8528 1.91283 0.664597 0
M  V30 313 C 28.1808 0.891949 1.72842 0
M  V30 314 O 27.4358 -0.100931 1.9544 0
M  V30 315 C 27.7348 3.3172 1.33029 0
M  V30 316 C 27.4008 4.4914 0.398047 0
M  V30 317 C 26.0628 4.80992 0.141421 0
M  V30 318 C 28.4148 5.20634 -0.242825 0
M  V30 319 C 25.7428 5.81703 -0.764092 0
M  V30 320 C 28.0948 6.22311 -1.13632 0
M  V30 321 C 26.7588 6.52611 -1.40196 0
M  V30 322 H 26.0288 0.699956 0.243193 0
M  V30 323 H 28.6758 1.9135 -0.0758267 0
M  V30 324 H 26.9808 3.27856 2.14517 0
M  V30 325 H 28.6778 3.55055 1.86379 0
M  V30 326 H 25.2678 4.24262 0.608238 0
M  V30 327 H 29.4518 4.96267 -0.0576019 0
M  V30 328 H 24.7078 6.03532 -0.977732 0
M  V30 329 H 28.8818 6.76834 -1.63917 0
M  V30 330 H 26.5088 7.30467 -2.10529 0
M  V30 331 N 28.0839 -0.256276 1.55502 0
M  V30 332 C 29.3239 -0.993081 1.78654 0
M  V30 333 C 29.6879 -1.8288 0.584724 0
M  V30 334 O 30.8889 -2.59665 0.694822 0
M  V30 335 C 29.1599 -1.83856 3.06483 0
M  V30 336 S 30.7189 -2.63573 3.5082 0
M  V30 337 H 27.5369 -0.334199 0.62756 0
M  V30 338 H 30.1389 -0.26184 1.93739 0
M  V30 339 H 28.8429 -1.21414 3.92029 0
M  V30 340 H 28.3739 -2.61271 2.94111 0
M  V30 341 H 30.3889 -3.86312 3.11412 0
M  V30 342 N 29.562 -1.4872 -0.521534 0
M  V30 343 C 30.808 -1.574 -1.27879 0
M  V30 344 C 31.141 -0.250817 -1.92573 0
M  V30 345 O 30.416 0.743934 -1.79711 0
M  V30 346 C 30.699 -2.71843 -2.36164 0
M  V30 347 C 30.552 -4.13893 -1.76105 0
M  V30 348 C 31.871 -2.82008 -3.37875 0
M  V30 349 H 28.99 -0.572941 -0.463581 0
M  V30 350 H 31.632 -1.80927 -0.580119 0
M  V30 351 H 29.782 -2.51914 -2.95756 0
M  V30 352 H 31.454 -4.45284 -1.20499 0
M  V30 353 H 29.697 -4.20498 -1.06601 0
M  V30 354 H 30.368 -4.89804 -2.5455 0
M  V30 355 H 32.844 -3.00086 -2.88249 0
M  V30 356 H 31.72 -3.63796 -4.11028 0
M  V30 357 H 31.981 -1.90511 -3.98946 0
M  V30 358 N 31.0401 0.771051 -1.3745 0
M  V30 359 C 31.9501 1.91538 -1.35464 0
M  V30 360 C 32.9661 1.72134 -0.254123 0
M  V30 361 O 34.1421 1.95358 -0.489626 0
M  V30 362 C 31.2071 3.26671 -1.16134 0
M  V30 363 C 30.2681 3.58723 -2.35831 0
M  V30 364 C 29.5011 4.87409 -2.17413 0
M  V30 365 O 29.7241 5.58506 -1.15876 0
M  V30 366 O 28.6581 5.18539 -3.05615 0
M  V30 367 H 32.4841 1.96165 -2.31847 0
M  V30 368 H 30.0691 0.9139 -1.18187 0
M  V30 369 H 31.9511 4.07499 -1.07345 0
M  V30 370 H 30.6261 3.22894 -0.228251 0
M  V30 371 H 29.5331 2.78127 -2.50192 0
M  V30 372 H 30.8661 3.67243 -3.27709 0
M  V30 373 N 32.5182 1.22032 0.997298 0
M  V30 374 C 33.7952 0.950823 1.70935 0
M  V30 375 C 34.1752 -0.535292 2.042 0
M  V30 376 O 33.5232 -1.50217 1.72183 0
M  V30 377 C 33.7332 1.84386 2.96315 0
M  V30 378 C 35.0812 2.09732 3.69185 0
M  V30 379 O 36.1052 1.81798 3.06314 0
M  V30 380 O 34.9642 2.57018 4.82291 0
M  V30 381 H 32.0582 0.357204 0.745878 0
M  V30 382 H 34.6042 1.32997 1.05404 0
M  V30 383 H 33.3762 2.84928 2.68201 0
M  V30 384 H 32.9992 1.46602 3.69586 0
M  V30 385 N 33.9963 -1.19345 1.0293 0
M  V30 386 C 35.2213 -1.93538 0.745511 0
M  V30 387 C 35.6463 -1.75007 -0.689511 0
M  V30 388 O 35.0043 -1.05265 -1.47611 0
M  V30 389 C 35.0523 -3.43336 1.10239 0
M  V30 390 O 34.1563 -4.11806 0.221289 0
M  V30 391 H 33.4973 -0.604193 0.275404 0
M  V30 392 H 36.0273 -1.5141 1.37609 0
M  V30 393 H 36.0373 -3.94004 1.05947 0
M  V30 394 H 34.7123 -3.56146 2.14786 0
M  V30 395 H 33.2893 -3.715 0.322842 0
M  V30 396 N 35.4744 -0.807222 -1.35358 0
M  V30 397 C 36.4214 -0.216037 -2.29787 0
M  V30 398 C 37.3914 0.650278 -1.52842 0
M  V30 399 O 38.5764 0.595227 -1.81278 0
M  V30 400 C 35.7164 0.628893 -3.39321 0
M  V30 401 C 34.8294 -0.257927 -4.31229 0
M  V30 402 C 33.9644 0.595069 -5.27856 0
M  V30 403 C 33.0034 -0.292111 -6.11403 0
M  V30 404 N 32.1404 0.520895 -7.00165 0
M  V30 405 H 36.9804 -1.02671 -2.79755 0
M  V30 406 H 34.5174 -0.517839 -1.37684 0
M  V30 407 H 36.4754 1.13393 -4.01494 0
M  V30 408 H 35.1054 1.40482 -2.90628 0
M  V30 409 H 34.1574 -0.881076 -3.70056 0
M  V30 410 H 35.4694 -0.940759 -4.89848 0
M  V30 411 H 34.6234 1.16522 -5.95405 0
M  V30 412 H 33.3624 1.31146 -4.69736 0
M  V30 413 H 32.3674 -0.874525 -5.428 0
M  V30 414 H 33.5924 -1.00638 -6.71602 0
M  V30 415 H 31.5384 1.22125 -6.44532 0
M  V30 416 H 31.4554 -0.103877 -7.55929 0
M  V30 417 H 32.7234 1.0743 -7.72062 0
M  V30 418 N 36.9525 1.47285 -0.560781 0
M  V30 419 C 38.2295 1.9558 0.0277798 0
M  V30 420 C 38.6095 1.5034 1.48192 0
M  V30 421 O 37.9575 0.743882 2.16052 0
M  V30 422 C 38.1675 3.48789 -0.121418 0
M  V30 423 C 39.5155 4.24594 0.0220912 0
M  V30 424 O 40.5395 3.56166 -0.0491439 0
M  V30 425 O 39.3985 5.46217 0.175958 0
M  V30 426 H 36.4925 0.824663 0.0621342 0
M  V30 427 H 39.0385 1.5767 -0.627556 0
M  V30 428 H 37.8105 3.74533 -1.13316 0
M  V30 429 H 37.4335 3.93473 0.571366 0
M  V30 430 N 38.4306 0.297415 1.54768 0
M  V30 431 C 39.6766 -0.313376 2.00364 0
M  V30 432 C 40.0096 -1.53815 1.18553 0
M  V30 433 O 39.2846 -1.92739 0.261103 0
M  V30 434 C 39.5676 -0.673525 3.53745 0
M  V30 435 C 39.4206 0.560133 4.46299 0
M  V30 436 C 40.7396 -1.50143 4.13697 0
M  V30 437 H 37.8586 -0.112428 0.728374 0
M  V30 438 H 40.5006 0.4088 1.8555 0
M  V30 439 H 38.6506 -1.28881 3.665 0
M  V30 440 H 40.3226 1.19863 4.45455 0
M  V30 441 H 38.5656 1.19405 4.17043 0
M  V30 442 H 39.2366 0.26405 5.51368 0
M  V30 443 H 41.7126 -0.981588 4.04356 0
M  V30 444 H 40.5886 -1.72221 5.21182 0
M  V30 445 H 40.8496 -2.48952 3.65343 0
M  V30 446 N 39.9087 -1.5758 0.0250728 0
M  V30 447 C 40.8567 -2.11125 -0.97617 0
M  V30 448 C 41.8507 -1.03689 -1.33959 0
M  V30 449 O 43.0567 -1.22128 -1.3223 0
M  V30 450 H 39.4317 -0.674468 -0.332561 0
M  V30 451 H 41.4027 -2.94194 -0.499223 0
M  V30 452 C 40.1517 -2.65017 -2.2508 0
M  V30 453 H 39.4747 -3.47333 -1.9799 0
M  V30 454 H 40.9147 -3.06133 -2.93357 0
M  V30 455 C 39.3737 -1.57574 -2.97779 0
M  V30 456 O 39.9037 -0.973203 -3.89733 0
M  V30 457 N 38.1097 -1.29716 -2.60043 0
M  V30 458 H 37.6567 -1.789 -1.85345 0
M  V30 459 H 37.6147 -0.58051 -3.08994 0
M  V30 460 N 41.3868 0.248026 -1.55636 0
M  V30 461 C 42.6328 0.97767 -1.77678 0
M  V30 462 C 42.9658 1.85016 -0.590135 0
M  V30 463 O 42.2408 1.90095 0.411611 0
M  V30 464 C 42.5238 1.83914 -3.09593 0
M  V30 465 C 42.3768 0.99491 -4.38659 0
M  V30 466 C 43.6958 2.82183 -3.37729 0
M  V30 467 H 40.8148 0.354005 -0.646413 0
M  V30 468 H 43.4568 0.248253 -1.88371 0
M  V30 469 H 41.6068 2.46104 -3.00608 0
M  V30 470 H 43.2788 0.391789 -4.59633 0
M  V30 471 H 41.5218 0.299231 -4.32767 0
M  V30 472 H 42.1928 1.63145 -5.2734 0
M  V30 473 H 44.6688 2.30129 -3.4667 0
M  V30 474 H 43.5448 3.39582 -4.31249 0
M  V30 475 H 43.8058 3.58588 -2.58586 0
M  V30 476 N 42.8649 1.48995 0.513639 0
M  V30 477 C 43.8129 1.65199 1.63744 0
M  V30 478 C 44.8069 0.51809 1.61283 0
M  V30 479 O 46.0129 0.697335 1.65943 0
M  V30 480 H 42.3879 0.52069 0.542574 0
M  V30 481 H 44.3589 2.59552 1.47226 0
M  V30 482 C 43.1079 1.72409 3.01945 0
M  V30 483 H 42.4309 2.59029 3.04539 0
M  V30 484 H 43.8709 1.87785 3.80148 0
M  V30 485 C 42.3299 0.46618 3.33659 0
M  V30 486 O 42.8599 -0.413744 3.99564 0
M  V30 487 N 41.0659 0.332931 2.88687 0
M  V30 488 H 40.6129 1.04996 2.35231 0
M  V30 489 H 40.5709 -0.507665 3.10274 0
M  V30 490 N 44.343 -0.763751 1.37857 0
M  V30 491 C 45.59 -1.52257 1.33506 0
M  V30 492 C 45.918 -1.94343 -0.078022 0
M  V30 493 O 45.173 -1.64958 -1.05297 0
M  V30 494 C 45.472 -2.79499 2.22745 0
M  V30 495 C 45.138 -2.56426 3.70886 0
M  V30 496 C 43.8 -2.49842 4.11257 0
M  V30 497 C 46.152 -2.36008 4.64704 0
M  V30 498 C 43.48 -2.20841 5.43549 0
M  V30 499 C 45.832 -2.0853 5.97242 0
M  V30 500 C 44.496 -2.00396 6.36709 0
M  V30 501 H 43.766 -0.557149 0.488534 0
M  V30 502 H 46.413 -0.879073 1.70131 0
M  V30 503 H 44.718 -3.48447 1.79142 0
M  V30 504 H 46.415 -3.37413 2.16688 0
M  V30 505 H 43.005 -2.62416 3.38874 0
M  V30 506 H 47.189 -2.40079 4.34368 0
M  V30 507 H 42.445 -2.13045 5.73081 0
M  V30 508 H 46.619 -1.91732 6.69486 0
M  V30 509 H 44.246 -1.77688 7.39142 0
M  V30 510 N 45.8211 -1.22559 -0.990812 0
M  V30 511 C 46.7311 -1.01394 -2.11557 0
M  V30 512 C 47.7471 0.0383962 -1.73958 0
M  V30 513 O 48.9231 -0.154787 -2.00804 0
M  V30 514 C 45.9881 -0.596569 -3.41529 0
M  V30 515 C 45.0491 -1.72276 -3.93217 0
M  V30 516 C 44.2821 -1.32521 -5.16985 0
M  V30 517 O 44.5051 -0.204909 -5.70032 0
M  V30 518 O 43.4391 -2.14247 -5.62478 0
M  V30 519 H 47.2651 -1.95633 -2.32296 0
M  V30 520 H 44.8501 -1.01172 -1.0993 0
M  V30 521 H 46.7321 -0.374263 -4.19735 0
M  V30 522 H 45.4071 0.316939 -3.22145 0
M  V30 523 H 44.3141 -1.99961 -3.16174 0
M  V30 524 H 45.6471 -2.61421 -4.17037 0
M  V30 525 N 47.2992 1.18797 -1.03562 0
M  V30 526 C 48.2462 2.22253 -0.622259 0
M  V30 527 C 49.2162 1.61987 0.36736 0
M  V30 528 O 50.4012 1.88986 0.262492 0
M  V30 529 C 47.5412 3.45097 0.0138462 0
M  V30 530 C 46.6542 4.19722 -1.02263 0
M  V30 531 C 45.7892 5.30009 -0.355573 0
M  V30 532 C 44.8282 5.96399 -1.37749 0
M  V30 533 N 43.9652 6.98234 -0.735766 0
M  V30 534 H 48.8052 2.56968 -1.50903 0
M  V30 535 H 46.3422 1.26245 -0.755017 0
M  V30 536 H 48.3002 4.15279 0.399948 0
M  V30 537 H 46.9302 3.11018 0.864158 0
M  V30 538 H 45.9822 3.48418 -1.52673 0
M  V30 539 H 47.2942 4.65227 -1.79903 0
M  V30 540 H 46.4482 6.0664 0.0850095 0
M  V30 541 H 45.1872 4.85592 0.452967 0
M  V30 542 H 44.1922 5.18512 -1.82826 0
M  V30 543 H 45.4172 6.42899 -2.18764 0
M  V30 544 H 43.3632 6.55979 0.0525597 0
M  V30 545 H 43.2802 7.41965 -1.44995 0
M  V30 546 H 44.5482 7.78845 -0.31941 0
M  V30 547 N 48.7773 0.814389 1.34928 0
M  V30 548 C 50.0023 0.410097 2.03305 0
M  V30 549 C 50.4273 -0.973464 1.60951 0
M  V30 550 O 49.7853 -1.63185 0.789964 0
M  V30 551 C 49.8333 0.51049 3.56968 0
M  V30 552 O 48.9373 -0.473035 4.09678 0
M  V30 553 H 48.2783 0.170088 0.641846 0
M  V30 554 H 50.8083 1.10244 1.72358 0
M  V30 555 H 50.8183 0.383135 4.06197 0
M  V30 556 H 49.4933 1.51963 3.87144 0
M  V30 557 H 48.0703 -0.305272 3.71648 0
M  V30 558 N 50.2554 -1.46986 0.568584 0
M  V30 559 C 51.2024 -2.30153 -0.172707 0
M  V30 560 C 52.1724 -1.39759 -0.897586 0
M  V30 561 O 53.3574 -1.68716 -0.891044 0
M  V30 562 C 50.4974 -3.23952 -1.1895 0
M  V30 563 C 49.6104 -4.29441 -0.469517 0
M  V30 564 C 48.7454 -5.1038 -1.47259 0
M  V30 565 C 47.7844 -6.07632 -0.738225 0
M  V30 566 N 46.9214 -6.8149 -1.68868 0
M  V30 567 H 51.7614 -2.93019 0.542596 0
M  V30 568 H 49.2984 -1.44422 0.279401 0
M  V30 569 H 51.2564 -3.76767 -1.79173 0
M  V30 570 H 49.8864 -2.62926 -1.87269 0
M  V30 571 H 48.9384 -3.79594 0.247467 0
M  V30 572 H 50.2504 -4.98689 0.105241 0
M  V30 573 H 49.4044 -5.67402 -2.14803 0
M  V30 574 H 48.1434 -4.4106 -2.08128 0
M  V30 575 H 47.1484 -5.49778 -0.0489293 0
M  V30 576 H 48.3734 -6.78966 -0.135129 0
M  V30 577 H 46.3194 -6.14891 -2.28573 0
M  V30 578 H 46.2364 -7.46948 -1.16636 0
M  V30 579 H 47.5044 -7.43078 -2.3549 0
M  V30 580 N 51.7335 -0.305618 -1.54608 0
M  V30 581 C 52.6635 0.561482 -2.26649 0
M  V30 582 C 53.6445 1.13415 -1.26772 0
M  V30 583 O 54.8295 1.16262 -1.55553 0
M  V30 584 C 51.9595 1.73122 -3.01075 0
M  V30 585 C 50.9135 1.2887 -4.08138 0
M  V30 586 C 50.2395 2.54396 -4.70305 0
M  V30 587 C 51.5395 0.416578 -5.20636 0
M  V30 588 H 53.2335 -0.0393902 -2.99374 0
M  V30 589 H 50.7795 -0.020385 -1.43986 0
M  V30 590 H 52.7325 2.34396 -3.50195 0
M  V30 591 H 51.4565 2.3584 -2.25936 0
M  V30 592 H 50.1155 0.698991 -3.59875 0
M  V30 593 H 49.7635 3.15439 -3.918 0
M  V30 594 H 49.4635 2.25486 -5.42614 0
M  V30 595 H 50.9875 3.16464 -5.2219 0
M  V30 596 H 52.4015 0.935116 -5.65622 0
M  V30 597 H 50.7985 0.221046 -5.99693 0
M  V30 598 H 51.8685 -0.557162 -4.81688 0
M  V30 599 N 53.2116 1.57565 -0.0334293 0
M  V30 600 C 54.4396 1.9628 0.654347 0
M  V30 601 C 54.8546 0.910138 1.65414 0
M  V30 602 O 54.2116 -0.107595 1.82183 0
M  V30 603 C 54.2626 3.35067 1.35693 0
M  V30 604 O 53.9836 4.36296 0.397191 0
M  V30 605 C 55.4846 3.88439 2.13613 0
M  V30 606 H 52.7046 0.646369 0.180132 0
M  V30 607 H 55.2486 2.04282 -0.0944721 0
M  V30 608 H 53.4036 3.2827 2.05712 0
M  V30 609 H 53.8176 5.1678 0.896597 0
M  V30 610 H 55.2916 4.8788 2.58219 0
M  V30 611 H 55.7686 3.22914 2.97696 0
M  V30 612 H 56.3746 3.98516 1.48543 0
M  V30 613 N 54.6897 -0.239769 1.55765 0
M  V30 614 C 55.9367 -0.966801 1.7793 0
M  V30 615 C 56.2647 -1.85046 0.599015 0
M  V30 616 O 55.5197 -1.91197 -0.417395 0
M  V30 617 C 55.8187 -1.852 3.05672 0
M  V30 618 C 55.4847 -1.1231 4.36689 0
M  V30 619 C 54.1467 -0.921689 4.72291 0
M  V30 620 C 56.4987 -0.607019 5.17653 0
M  V30 621 C 53.8267 -0.191996 5.86386 0
M  V30 622 C 56.1787 0.109241 6.32506 0
M  V30 623 C 54.8427 0.322073 6.66723 0
M  V30 624 H 54.1127 -0.353778 0.651093 0
M  V30 625 H 56.7597 -0.23634 1.90036 0
M  V30 626 H 55.0647 -2.64975 2.8861 0
M  V30 627 H 56.7617 -2.41635 3.20021 0
M  V30 628 H 53.3517 -1.29004 4.08725 0
M  V30 629 H 57.5357 -0.750153 4.90598 0
M  V30 630 H 52.7917 -0.0166949 6.11398 0
M  V30 631 H 56.9657 0.516737 6.9448 0
M  V30 632 H 54.5927 0.88944 7.54979 0
M  V30 633 N 56.1678 -1.49265 -0.50573 0
M  V30 634 C 57.3928 -1.62478 -1.28902 0
M  V30 635 C 57.8178 -0.294332 -1.85783 0
M  V30 636 O 57.1758 0.737412 -1.65626 0
M  V30 637 C 57.2238 -2.69268 -2.39848 0
M  V30 638 O 56.3278 -2.28113 -3.43567 0
M  V30 639 H 55.6688 -0.54399 -0.380751 0
M  V30 640 H 58.1988 -1.95421 -0.605952 0
M  V30 641 H 58.2088 -2.91291 -2.85681 0
M  V30 642 H 56.8838 -3.65846 -1.97812 0
M  V30 643 H 55.4608 -2.16401 -3.03685 0
M  V30 644 N 57.6459 0.756429 -1.3826 0
M  V30 645 C 58.8859 1.52833 -1.35725 0
M  V30 646 C 59.2499 1.91926 0.0534106 0
M  V30 647 O 60.4509 2.68028 0.203613 0
M  V30 648 C 58.7219 2.74919 -2.28373 0
M  V30 649 S 60.2809 3.64817 -2.43832 0
M  V30 650 H 57.0989 0.523043 -0.481608 0
M  V30 651 H 59.7009 0.888212 -1.74158 0
M  V30 652 H 58.4049 2.44304 -3.29763 0
M  V30 653 H 57.9359 3.43878 -1.91079 0
M  V30 654 H 59.9509 4.676 -1.66027 0
M  V30 655 N 59.124 1.23083 0.984299 0
M  V30 656 C 60.054 1.03292 2.09411 0
M  V30 657 C 61.035 -0.048923 1.7003 0
M  V30 658 O 62.22 0.114967 1.93859 0
M  V30 659 C 59.35 0.619155 3.41736 0
M  V30 660 C 58.304 1.64791 3.95004 0
M  V30 661 C 57.63 1.0897 5.23478 0
M  V30 662 C 58.93 3.03999 4.24714 0
M  V30 663 H 60.624 1.96119 2.26225 0
M  V30 664 H 58.17 0.944344 1.08711 0
M  V30 665 H 60.123 0.467777 4.18796 0
M  V30 666 H 58.847 -0.344786 3.24775 0
M  V30 667 H 57.506 1.78721 3.20085 0
M  V30 668 H 57.154 0.11686 5.02864 0
M  V30 669 H 56.854 1.77704 5.60085 0
M  V30 670 H 58.378 0.950093 6.03163 0
M  V30 671 H 59.792 2.93393 4.92538 0
M  V30 672 H 58.189 3.69936 4.72512 0
M  V30 673 H 59.259 3.53285 3.32142 0
M  V30 674 N 60.6021 -1.18246 1.0419 0
M  V30 675 C 61.8501 -1.87886 0.744543 0
M  V30 676 C 62.1711 -1.8082 -0.730006 0
M  V30 677 O 61.4411 -1.22736 -1.52685 0
M  V30 678 H 60.0211 -0.695556 0.272417 0
M  V30 679 H 62.6831 -1.43494 1.31892 0
M  V30 680 H 61.7791 -2.9389 1.05049 0
M  V30 681 N 62.0802 -0.821533 -1.34494 0
M  V30 682 C 63.3282 -0.408139 -1.97936 0
M  V30 683 C 63.6492 1.03193 -1.65457 0
M  V30 684 O 62.9192 1.71622 -0.944595 0
M  V30 685 H 61.4992 -0.147928 -0.732206 0
M  V30 686 H 64.1612 -1.05067 -1.64155 0
M  V30 687 H 63.2572 -0.52601 -3.07635 0
M  V30 688 N 63.5583 1.46682 -0.576371 0
M  V30 689 C 64.7833 2.07304 -0.0630475 0
M  V30 690 C 65.2083 1.42329 1.2298 0
M  V30 691 O 64.5663 0.504865 1.74129 0
M  V30 692 C 64.6143 3.60472 0.095895 0
M  V30 693 O 63.7183 3.95927 1.15394 0
M  V30 694 H 63.0593 0.661288 -0.0599463 0
M  V30 695 H 65.5893 1.88417 -0.797511 0
M  V30 696 H 65.5993 4.06865 0.304071 0
M  V30 697 H 64.2743 4.07157 -0.84828 0
M  V30 698 H 62.8513 3.61252 0.924724 0
M  V30 699 N 65.0364 0.313813 1.54444 0
M  V30 700 C 66.3134 -0.345447 1.92525 0
M  V30 701 C 66.6934 -1.70667 1.24242 0
M  V30 702 O 66.0414 -2.25273 0.382654 0
M  V30 703 C 66.2514 -0.44737 3.46121 0
M  V30 704 C 67.5994 -0.712238 4.18584 0
M  V30 705 O 68.6234 -0.530678 3.52225 0
M  V30 706 O 67.4824 -1.06183 5.36085 0
M  V30 707 H 64.5764 -0.195407 0.803583 0
M  V30 708 H 67.1224 0.362813 1.65776 0
M  V30 709 H 65.8944 0.509043 3.87975 0
M  V30 710 H 65.5174 -1.20359 3.78945 0
M  V30 711 N 66.5145 -1.57545 0.0417849 0
M  V30 712 C 67.4625 -2.12148 -0.953723 0
M  V30 713 C 68.4565 -1.05104 -1.32852 0
M  V30 714 O 69.6625 -1.23524 -1.30927 0
M  V30 715 H 66.0375 -0.677957 -0.325389 0
M  V30 716 H 68.0085 -2.94707 -0.467991 0
M  V30 717 C 66.7575 -2.6739 -2.22257 0
M  V30 718 H 66.0805 -3.49413 -1.94295 0
M  V30 719 H 67.5205 -3.09227 -2.90094 0
M  V30 720 C 65.9795 -1.60723 -2.96091 0
M  V30 721 O 66.5095 -1.01449 -3.88679 0
M  V30 722 N 64.7155 -1.32466 -2.58652 0
M  V30 723 H 64.2625 -1.80856 -1.83437 0
M  V30 724 H 64.2205 -0.61325 -3.08361 0
M  V30 725 N 67.9926 0.231505 -1.5589 0
M  V30 726 C 69.2396 0.957352 -1.78441 0
M  V30 727 C 69.5676 1.84726 -0.60882 0
M  V30 728 O 68.8226 1.91416 0.40725 0
M  V30 729 C 69.1216 1.83577 -3.0665 0
M  V30 730 C 68.7876 1.09993 -4.37278 0
M  V30 731 C 67.4496 0.896629 -4.72773 0
M  V30 732 C 69.8016 0.579558 -5.17968 0
M  V30 733 C 67.1296 0.160896 -5.86479 0
M  V30 734 C 69.4816 -0.142783 -6.32439 0
M  V30 735 C 68.1456 -0.357427 -6.66542 0
M  V30 736 H 67.4156 0.35032 -0.65296 0
M  V30 737 H 70.0626 0.226259 -1.90159 0
M  V30 738 H 68.3676 2.63441 -2.90011 0
M  V30 739 H 70.0646 2.39934 -3.21298 0
M  V30 740 H 66.6546 1.26835 -4.09403 0
M  V30 741 H 70.8386 0.724125 -4.90989 0
M  V30 742 H 66.0946 -0.0157293 -6.11398 0
M  V30 743 H 70.2686 -0.553559 -6.94196 0
M  V30 744 H 67.8956 -0.929466 -7.54497 0
M  V30 745 N 69.4707 1.49531 0.497807 0
M  V30 746 C 70.4177 1.66436 1.59899 0
M  V30 747 C 71.3877 0.505793 1.58212 0
M  V30 748 O 72.5727 0.733202 1.7615 0
M  V30 749 C 69.7127 1.7399 2.98029 0
M  V30 750 C 68.8257 3.01172 3.09708 0
M  V30 751 C 67.9607 2.99686 4.38591 0
M  V30 752 C 66.9997 4.21434 4.43914 0
M  V30 753 N 66.1367 4.1784 5.64229 0
M  V30 754 H 70.9767 2.60459 1.44793 0
M  V30 755 H 68.5137 1.29137 0.704423 0
M  V30 756 H 70.4717 1.76352 3.78095 0
M  V30 757 H 69.1017 0.834301 3.11832 0
M  V30 758 H 68.1537 3.08408 2.22685 0
M  V30 759 H 69.4657 3.91165 3.09502 0
M  V30 760 H 68.6197 3.00628 5.2698 0
M  V30 761 H 67.3587 2.07477 4.41367 0
M  V30 762 H 66.3637 4.20733 3.53926 0
M  V30 763 H 67.5887 5.14839 4.42851 0
M  V30 764 H 65.5347 3.28469 5.67841 0
M  V30 765 H 65.4517 5.01571 5.65652 0
M  V30 766 H 66.7197 4.22889 6.54817 0
M  V30 767 N 70.9488 -0.749086 1.3866 0
M  V30 768 C 71.8988 -1.85368 1.32751 0
M  V30 769 C 72.8828 -1.59511 0.210945 0
M  V30 770 O 74.0748 -1.71255 0.447299 0
M  V30 771 C 71.2038 -3.23131 1.15935 0
M  V30 772 C 70.2898 -3.54864 2.32233 0
M  V30 773 N 70.6808 -3.57625 3.57684 0
M  V30 774 C 68.9788 -3.85154 2.24883 0
M  V30 775 C 69.6798 -3.86753 4.34508 0
M  V30 776 N 68.6558 -4.03812 3.63918 0
M  V30 777 H 72.4578 -1.85787 2.27729 0
M  V30 778 H 69.9718 -0.946658 1.31955 0
M  V30 779 H 71.9688 -4.02185 1.09786 0
M  V30 780 H 70.6288 -3.23961 0.218947 0
M  V30 781 H 71.6398 -3.39276 3.91295 0
M  V30 782 H 68.3168 -3.93672 1.39027 0
M  V30 783 H 69.7068 -3.95474 5.43185 0
M  V30 784 N 72.4269 -1.23603 -0.977757 0
M  V30 785 C 73.3569 -1.04401 -2.0886 0
M  V30 786 C 74.3379 0.0399052 -1.70053 0
M  V30 787 O 75.5229 -0.125246 -1.93796 0
M  V30 788 C 72.6529 -0.637269 -3.41403 0
M  V30 789 C 71.6069 -1.66883 -3.94124 0
M  V30 790 C 70.9329 -1.11745 -5.22893 0
M  V30 791 C 72.2329 -3.06247 -4.23096 0
M  V30 792 H 73.9269 -1.97316 -2.25182 0
M  V30 793 H 71.4729 -0.950096 -1.08209 0
M  V30 794 H 73.4259 -0.48998 -4.18542 0
M  V30 795 H 72.1499 0.327557 -3.24953 0
M  V30 796 H 70.8089 -1.80416 -3.19133 0
M  V30 797 H 70.4569 -0.143527 -5.02795 0
M  V30 798 H 70.1569 -1.80672 -5.59134 0
M  V30 799 H 71.6809 -0.982067 -6.02651 0
M  V30 800 H 73.0949 -2.96001 -4.90975 0
M  V30 801 H 71.4919 -3.72436 -4.70544 0
M  V30 802 H 72.5619 -3.55041 -3.30263 0
M  V30 803 N 73.905 1.17692 -1.04816 0
M  V30 804 C 74.853 2.23632 -0.63966 0
M  V30 805 C 75.847 1.6601 0.337219 0
M  V30 806 O 77.053 1.78844 0.203693 0
M  V30 807 H 73.428 0.727949 -0.188665 0
M  V30 808 H 75.399 2.55387 -1.54337 0
M  V30 809 C 74.148 3.4769 -0.0264051 0
M  V30 810 H 73.471 3.92331 -0.769164 0
M  V30 811 H 74.911 4.23418 0.222098 0
M  V30 812 C 73.37 3.13807 1.22584 0
M  V30 813 O 73.9 3.28236 2.31569 0
M  V30 814 N 72.106 2.68065 1.12202 0
M  V30 815 H 71.653 2.56525 0.235133 0
M  V30 816 H 71.611 2.45767 1.96076 0
M  V30 817 N 75.3831 0.828654 1.34056 0
M  V30 818 C 76.2931 0.256725 2.33191 0
M  V30 819 C 77.3091 -0.611898 1.62886 0
M  V30 820 O 78.4851 -0.51844 1.94613 0
M  V30 821 C 75.5501 -0.567238 3.42028 0
M  V30 822 C 74.6111 0.324458 4.28072 0
M  V30 823 C 73.8441 -0.460274 5.31712 0
M  V30 824 O 74.0671 -1.693 5.44696 0
M  V30 825 O 73.0011 0.160391 6.01686 0
M  V30 826 H 76.8271 1.07739 2.83947 0
M  V30 827 H 74.4121 0.59093 1.37217 0
M  V30 828 H 76.2941 -1.03582 4.08471 0
M  V30 829 H 74.9691 -1.36513 2.93506 0
M  V30 830 H 73.8761 0.840659 3.64532 0
M  V30 831 H 75.2091 1.08685 4.8005 0
M  V30 832 N 76.8612 -1.46375 0.584142 0
M  V30 833 C 78.1102 -2.01585 0.0679741 0
M  V30 834 C 78.4232 -1.46109 -1.30045 0
M  V30 835 O 79.6292 -1.93148 -1.90804 0
M  V30 836 C 78.0852 -3.5983 0.0709207 0
M  V30 837 C 77.6932 -4.24303 1.43775 0
M  V30 838 C 79.4372 -4.22693 -0.391228 0
M  V30 839 C 77.3442 -5.74631 1.39834 0
M  V30 840 H 76.2742 -0.753689 0.0216421 0
M  V30 841 H 78.9252 -1.68093 0.736001 0
M  V30 842 H 77.3072 -3.90405 -0.663299 0
M  V30 843 H 78.4812 -4.05335 2.19181 0
M  V30 844 H 76.7962 -3.73539 1.84004 0
M  V30 845 H 79.3932 -5.3289 -0.439524 0
M  V30 846 H 79.7362 -3.91728 -1.40906 0
M  V30 847 H 80.2692 -3.96749 0.288974 0
M  V30 848 H 77.0082 -6.10258 2.39303 0
M  V30 849 H 76.5282 -5.95858 0.686505 0
M  V30 850 H 78.2072 -6.37375 1.11187 0
M  V30 851 N 78.3393 -0.321999 -1.54275 0
M  V30 852 C 79.6163 0.335232 -1.92706 0
M  V30 853 C 79.9963 1.70006 -1.25145 0
M  V30 854 O 79.3443 2.25067 -0.394596 0
M  V30 855 C 79.5543 0.429008 -3.46353 0
M  V30 856 C 80.9023 0.690029 -4.18956 0
M  V30 857 O 81.9263 0.511992 -3.52501 0
M  V30 858 O 80.7853 1.03338 -5.36641 0
M  V30 859 H 77.8793 0.191143 -0.804608 0
M  V30 860 H 80.4253 -0.3716 -1.65581 0
M  V30 861 H 79.1973 -0.529611 -3.87699 0
M  V30 862 H 78.8203 1.18348 -3.79578 0
M  V30 863 N 79.8174 1.5752 -0.0501392 0
M  V30 864 C 80.7474 2.14502 0.922566 0
M  V30 865 C 81.7284 1.06642 1.3252 0
M  V30 866 O 82.9134 1.34577 1.4001 0
M  V30 867 C 80.0434 2.68916 2.19776 0
M  V30 868 C 78.9974 3.8175 1.93523 0
M  V30 869 C 78.3234 4.22677 3.27487 0
M  V30 870 C 79.6234 5.06932 1.25765 0
M  V30 871 H 81.3174 2.9603 0.447952 0
M  V30 872 H 78.8634 1.42401 0.214024 0
M  V30 873 H 80.8164 3.07419 2.88222 0
M  V30 874 H 79.5404 1.84578 2.69441 0
M  V30 875 H 78.1994 3.43718 1.27489 0
M  V30 876 H 77.8474 3.35291 3.74952 0
M  V30 877 H 77.5474 4.98725 3.1072 0
M  V30 878 H 79.0714 4.63779 3.97166 0
M  V30 879 H 80.4854 5.42888 1.84244 0
M  V30 880 H 78.8824 5.88116 1.19328 0
M  V30 881 H 79.9524 4.84337 0.233536 0
M  V30 882 N 81.2955 -0.223234 1.56011 0
M  V30 883 C 82.5425 -0.947875 1.78946 0
M  V30 884 C 82.8705 -1.844 0.618608 0
M  V30 885 O 82.1255 -1.91629 -0.397093 0
M  V30 886 C 82.4245 -1.81948 3.0762 0
M  V30 887 C 82.0905 -1.07672 4.37856 0
M  V30 888 C 80.7525 -0.871544 4.73242 0
M  V30 889 C 83.1045 -0.552081 5.18268 0
M  V30 890 C 80.4325 -0.129791 5.86556 0
M  V30 891 C 82.7845 0.17632 6.32354 0
M  V30 892 C 81.4485 0.39277 6.66343 0
M  V30 893 H 80.7185 -0.346852 0.654809 0
M  V30 894 H 83.3655 -0.216171 1.90276 0
M  V30 895 H 81.6705 -2.61899 2.91404 0
M  V30 896 H 83.3675 -2.38227 3.22566 0
M  V30 897 H 79.9575 -1.24662 4.1007 0
M  V30 898 H 84.1415 -0.698076 4.91366 0
M  V30 899 H 79.3975 0.048153 6.11381 0
M  V30 900 H 83.5715 0.590367 6.93893 0
M  V30 901 H 81.1985 0.969466 7.53993 0
M  V30 902 N 82.7736 -1.49793 -0.48987 0
M  V30 903 C 83.7236 -1.63673 -1.5873 0
M  V30 904 C 84.7076 -0.491956 -1.53195 0
M  V30 905 O 85.8996 -0.745461 -1.60536 0
M  V30 906 C 83.0286 -1.71689 -2.97284 0
M  V30 907 C 82.1146 -2.91781 -3.07774 0
M  V30 908 N 82.5056 -4.15714 -2.88124 0
M  V30 909 C 80.8036 -2.89949 -3.38889 0
M  V30 910 C 81.5046 -4.965 -3.03088 0
M  V30 911 N 80.4806 -4.30083 -3.3246 0
M  V30 912 H 84.2826 -2.57204 -1.42208 0
M  V30 913 H 81.7966 -1.46719 -0.69623 0
M  V30 914 H 83.7936 -1.79732 -3.76168 0
M  V30 915 H 82.4536 -0.793024 -3.14867 0
M  V30 916 H 83.4646 -4.45515 -2.64077 0
M  V30 917 H 80.1416 -2.06987 -3.62578 0
M  V30 918 H 81.5316 -6.04991 -2.92294 0
M  V30 919 N 84.2517 0.741722 -1.39055 0
M  V30 920 C 85.4917 1.51385 -1.37338 0
M  V30 921 C 85.8557 1.91972 0.0330513 0
M  V30 922 O 87.0567 2.68229 0.175174 0
M  V30 923 C 85.3277 2.72481 -2.31276 0
M  V30 924 S 86.8867 3.62211 -2.47687 0
M  V30 925 H 83.7047 0.517906 -0.487129 0
M  V30 926 H 86.3067 0.86969 -1.7509 0
M  V30 927 H 85.0107 2.40793 -3.32336 0
M  V30 928 H 84.5417 3.41832 -1.94716 0
M  V30 929 H 86.5567 4.65812 -1.70978 0
M  V30 930 N 85.7298 1.2412 0.971189 0
M  V30 931 C 86.9788 1.07284 1.70801 0
M  V30 932 C 87.2918 -0.388902 1.91695 0
M  V30 933 O 88.4978 -0.677379 2.62914 0
M  V30 934 C 86.9538 1.87145 3.07416 0
M  V30 935 C 86.5618 3.37707 2.94377 0
M  V30 936 C 88.3058 1.78828 3.84995 0
M  V30 937 C 86.2128 4.09925 4.26281 0
M  V30 938 H 85.1428 0.397854 0.64049 0
M  V30 939 H 87.7938 1.4817 1.0825 0
M  V30 940 H 86.1758 1.39071 3.70777 0
M  V30 941 H 87.3498 3.93335 2.4005 0
M  V30 942 H 85.6648 3.46938 2.30267 0
M  V30 943 H 88.2618 2.30089 4.82662 0
M  V30 944 H 88.6048 0.75284 4.09436 0
M  V30 945 H 89.1378 2.24563 3.28354 0
M  V30 946 H 85.8768 5.13813 4.07033 0
M  V30 947 H 85.3968 3.59083 4.80437 0
M  V30 948 H 87.0758 4.1673 4.94919 0
M  V30 949 N 87.2079 -1.17134 1.05439 0
M  V30 950 C 88.4849 -1.83411 0.679699 0
M  V30 951 C 88.8649 -1.9368 -0.839726 0
M  V30 952 O 88.2129 -1.47325 -1.74664 0
M  V30 953 C 88.4229 -3.20918 1.37159 0
M  V30 954 C 89.7709 -3.96796 1.51123 0
M  V30 955 O 90.7949 -3.30406 1.3308 0
M  V30 956 O 89.6539 -5.15778 1.80651 0
M  V30 957 H 86.7479 -0.79154 0.239569 0
M  V30 958 H 89.2939 -1.24411 1.15413 0
M  V30 959 H 88.0659 -3.08428 2.40807 0
M  V30 960 H 87.6889 -3.87587 0.886674 0
M  V30 961 N 88.686 -0.835752 -1.33615 0
M  V30 962 C 90.097 -0.487099 -1.80234 0
M  V30 963 C 90.448 0.993627 -1.69179 0
M  V30 964 O 89.573 1.77403 -1.23924 0
M  V30 965 C 90.168 -0.877385 -3.27242 0
M  V30 966 C 88.727 -0.580915 -3.7189 0
M  V30 967 C 87.874 -1.0874 -2.5509 0
M  V30 968 H 90.825 -1.02474 -1.2118 0
M  V30 969 H 90.846 -0.186195 -3.80044 0
M  V30 970 H 90.358 -1.95512 -3.35256 0
M  V30 971 H 88.459 0.486881 -3.69405 0
M  V30 972 H 88.572 -1.13396 -4.65487 0
M  V30 973 H 86.936 -0.508392 -2.49575 0
M  V30 974 H 87.719 -2.17184 -2.65868 0
M  V30 975 N 90.1641 1.46063 -0.591896 0
M  V30 976 C 91.1121 2.32124 0.148739 0
M  V30 977 C 92.1061 1.45035 0.875286 0
M  V30 978 O 93.3121 1.61609 0.792632 0
M  V30 979 H 89.6871 0.749024 0.066832 0
M  V30 980 H 91.6581 2.92392 -0.595783 0
M  V30 981 C 90.4071 3.28373 1.1431 0
M  V30 982 H 89.7301 3.95371 0.59346 0
M  V30 983 H 91.1701 3.91352 1.63155 0
M  V30 984 C 89.6291 2.54393 2.20875 0
M  V30 985 O 90.1591 2.31373 3.28374 0
M  V30 986 N 88.3651 2.14797 1.95731 0
M  V30 987 H 87.9121 2.33719 1.08319 0
M  V30 988 H 87.8701 1.65619 2.67241 0
M  V30 989 N 91.6422 0.330177 1.54103 0
M  V30 990 C 92.9192 -0.325007 1.92881 0
M  V30 991 C 93.2992 -1.6934 1.26045 0
M  V30 992 O 92.6472 -2.24855 0.406526 0
M  V30 993 C 92.8572 -0.410634 3.46576 0
M  V30 994 C 94.2052 -0.667801 4.19316 0
M  V30 995 O 95.2292 -0.49329 3.52768 0
M  V30 996 O 94.0882 -1.00491 5.37181 0
M  V30 997 H 91.1822 -0.186873 0.80561 0
M  V30 998 H 93.7282 0.380376 1.65382 0
M  V30 999 H 92.5002 0.550164 3.87413 0
M  V30 1000 H 92.1232 -1.16333 3.802 0
M  V30 1001 N 93.1203 -1.57491 0.0584922 0
M  V30 1002 C 94.3453 -1.97711 -0.62652 0
M  V30 1003 C 94.7703 -0.936132 -1.63151 0
M  V30 1004 O 94.1283 0.099811 -1.81025 0
M  V30 1005 C 94.1763 -3.36989 -1.28338 0
M  V30 1006 O 93.2803 -3.35433 -2.39913 0
M  V30 1007 H 92.6213 -0.643868 -0.162266 0
M  V30 1008 H 95.1513 -2.04193 0.129064 0
M  V30 1009 H 95.1613 -3.73879 -1.63335 0
M  V30 1010 H 93.8363 -4.12289 -0.546889 0
M  V30 1011 H 92.4133 -3.10298 -2.06809 0
M  V30 1012 N 94.5984 0.214957 -1.56127 0
M  V30 1013 C 95.5454 1.26642 -1.92952 0
M  V30 1014 C 96.5154 1.46244 -0.78753 0
M  V30 1015 O 97.7004 1.59704 -1.04399 0
M  V30 1016 C 94.8404 2.6104 -2.25726 0
M  V30 1017 C 93.9534 2.49183 -3.52891 0
M  V30 1018 C 93.0884 3.76149 -3.7508 0
M  V30 1019 C 92.1274 3.59041 -4.95738 0
M  V30 1020 N 91.2644 4.77972 -5.14283 0
M  V30 1021 H 96.1044 0.945384 -2.82607 0
M  V30 1022 H 93.6414 0.455489 -1.3987 0
M  V30 1023 H 95.5994 3.39313 -2.42739 0
M  V30 1024 H 94.2294 2.91227 -1.39236 0
M  V30 1025 H 93.2814 1.6231 -3.44034 0
M  V30 1026 H 94.5934 2.32466 -4.41318 0
M  V30 1027 H 93.7474 4.62865 -3.92226 0
M  V30 1028 H 92.4864 3.95799 -2.84947 0
M  V30 1029 H 91.4914 2.7071 -4.78535 0
M  V30 1030 H 92.7164 3.40856 -5.87362 0
M  V30 1031 H 90.6624 4.97923 -4.27093 0
M  V30 1032 H 90.5794 4.64006 -5.96853 0
M  V30 1033 H 91.8474 5.66096 -5.35869 0
M  V30 1034 N 96.0765 1.50051 0.48192 0
M  V30 1035 C 97.0265 1.64512 1.5786 0
M  V30 1036 C 98.0105 0.500073 1.52932 0
M  V30 1037 O 99.2025 0.753964 1.60139 0
M  V30 1038 C 96.3315 1.73263 2.9637 0
M  V30 1039 C 95.4175 2.93409 3.06222 0
M  V30 1040 N 95.8085 4.17236 2.85915 0
M  V30 1041 C 94.1065 2.91742 3.37346 0
M  V30 1042 C 94.8075 4.981 3.00451 0
M  V30 1043 N 93.7835 4.3184 3.30174 0
M  V30 1044 H 97.5855 2.57955 1.40842 0
M  V30 1045 H 95.0995 1.47086 0.688439 0
M  V30 1046 H 97.0965 1.81724 3.75209 0
M  V30 1047 H 95.7565 0.809711 3.14442 0
M  V30 1048 H 96.7675 4.46909 2.6171 0
M  V30 1049 H 93.4445 2.08907 3.61475 0
M  V30 1050 H 94.8345 6.06532 2.89082 0
M  V30 1051 N 97.5546 -0.734337 1.39446 0
M  V30 1052 C 98.5016 -1.84835 1.38219 0
M  V30 1053 C 99.4716 -1.64331 0.24179 0
M  V30 1054 O 100.657 -1.85728 0.437002 0
M  V30 1055 C 97.7966 -3.22355 1.23212 0
M  V30 1056 C 96.9096 -3.5456 2.46801 0
M  V30 1057 C 96.0446 -4.81485 2.24377 0
M  V30 1058 C 95.0836 -5.06536 3.43639 0
M  V30 1059 N 94.2206 -6.24665 3.20528 0
M  V30 1060 H 99.0606 -1.85219 2.33448 0
M  V30 1061 H 96.5976 -0.905039 1.15963 0
M  V30 1062 H 98.5556 -4.0174 1.12522 0
M  V30 1063 H 97.1856 -3.21248 0.316121 0
M  V30 1064 H 96.2376 -2.69872 2.68092 0
M  V30 1065 H 97.5496 -3.6899 3.3563 0
M  V30 1066 H 96.7036 -5.68852 2.10933 0
M  V30 1067 H 95.4426 -4.6923 1.32944 0
M  V30 1068 H 94.4476 -4.17632 3.5758 0
M  V30 1069 H 95.6726 -5.20676 4.35974 0
M  V30 1070 H 93.6186 -6.13696 2.3176 0
M  V30 1071 H 93.5356 -6.39685 4.02913 0
M  V30 1072 H 94.8036 -7.14868 3.10779 0
M  V30 1073 N 99.0327 -1.24633 -0.964593 0
M  V30 1074 C 100.449 -1.01239 -1.2338 0
M  V30 1075 C 100.649 0.2769 -1.99588 0
M  V30 1076 O 99.7047 0.992241 -2.32187 0
M  V30 1077 C 101.018 -2.22937 -2.01791 0
M  V30 1078 C 102.566 -2.27594 -2.14872 0
M  V30 1079 C 103.041 -3.48921 -2.96678 0
M  V30 1080 N 104.532 -3.49257 -3.04259 0
M  V30 1081 C 105.267 -4.39795 -3.67924 0
M  V30 1082 N 104.763 -5.40591 -4.33281 0
M  V30 1083 N 106.556 -4.275 -3.64966 0
M  V30 1084 H 98.7067 -2.0748 -0.454502 0
M  V30 1085 H 100.97 -0.910647 -0.26349 0
M  V30 1086 H 100.676 -3.16587 -1.53184 0
M  V30 1087 H 100.55 -2.25306 -3.02518 0
M  V30 1088 H 102.937 -1.34473 -2.6268 0
M  V30 1089 H 103.018 -2.2925 -1.13482 0
M  V30 1090 H 102.662 -4.42359 -2.49562 0
M  V30 1091 H 102.592 -3.4451 -3.98272 0
M  V30 1092 H 105.083 -2.76337 -2.57771 0
M  V30 1093 H 105.396 -6.05904 -4.79687 0
M  V30 1094 H 103.741 -5.44475 -4.3194 0
M  V30 1095 H 106.932 -3.47987 -3.13086 0
M  V30 1096 H 107.105 -4.98258 -4.14298 0
M  V30 1097 N 100.511 1.16574 -1.06058 0
M  V30 1098 C 101.739 1.90952 -0.796552 0
M  V30 1099 C 102.154 1.77302 0.648808 0
M  V30 1100 O 101.511 1.11605 1.44397 0
M  V30 1101 C 101.562 3.41736 -1.17894 0
M  V30 1102 O 101.283 3.54975 -2.56758 0
M  V30 1103 C 102.784 4.33169 -0.942308 0
M  V30 1104 H 100.004 0.605594 -0.288959 0
M  V30 1105 H 102.548 1.47777 -1.41358 0
M  V30 1106 H 100.703 3.82623 -0.606491 0
M  V30 1107 H 101.117 4.4846 -2.72 0
M  V30 1108 H 102.591 5.37439 -1.25952 0
M  V30 1109 H 103.068 4.3903 0.122078 0
M  V30 1110 H 103.674 3.98007 -1.49902 0
M  V30 1111 N 101.989 0.842826 1.3317 0
M  V30 1112 C 103.266 0.362216 1.92217 0
M  V30 1113 C 103.646 -1.15289 1.76838 0
M  V30 1114 O 102.994 -1.96914 1.15919 0
M  V30 1115 C 103.204 0.813495 3.39387 0
M  V30 1116 C 104.552 0.823804 4.16532 0
M  V30 1117 O 105.576 0.757358 3.48055 0
M  V30 1118 O 104.435 0.915193 5.38782 0
M  V30 1119 H 101.529 0.103317 0.820521 0
M  V30 1120 H 104.075 0.928942 1.42017 0
M  V30 1121 H 102.847 1.85624 3.4447 0
M  V30 1122 H 102.47 0.223561 3.96971 0
M  V30 1123 N 103.467 -1.45747 0.599634 0
M  V30 1124 C 104.883 -1.57424 0.26264 0
M  V30 1125 C 105.083 -1.59222 -1.23493 0
M  V30 1126 O 104.139 -1.51825 -2.01756 0
M  V30 1127 C 105.452 -2.86061 0.926795 0
M  V30 1128 C 107 -2.99722 0.901967 0
M  V30 1129 C 107.475 -4.31119 1.54598 0
M  V30 1130 N 108.966 -4.37858 1.5111 0
M  V30 1131 C 109.701 -5.3818 1.97863 0
M  V30 1132 N 109.197 -6.45083 2.52666 0
M  V30 1133 N 110.99 -5.29487 1.88679 0
M  V30 1134 H 103.141 -1.42823 1.57211 0
M  V30 1135 H 105.404 -0.68235 0.658105 0
M  V30 1136 H 105.11 -2.90605 1.98095 0
M  V30 1137 H 104.984 -3.74563 0.445238 0
M  V30 1138 H 107.371 -2.9475 -0.143617 0
M  V30 1139 H 107.452 -2.12652 1.42171 0
M  V30 1140 H 107.096 -4.36849 2.59085 0
M  V30 1141 H 107.026 -5.16992 1.00132 0
M  V30 1142 H 109.517 -3.61209 1.11068 0
M  V30 1143 H 109.83 -7.17869 2.86155 0
M  V30 1144 H 108.175 -6.45856 2.56701 0
M  V30 1145 H 111.366 -4.44877 1.4561 0
M  V30 1146 H 111.539 -6.07524 2.25429 0
M  V30 1147 N 104.945 -0.338344 -1.53925 0
M  V30 1148 C 106.17 0.263987 -2.05713 0
M  V30 1149 C 106.595 1.43847 -1.21201 0
M  V30 1150 O 105.953 1.79904 -0.224535 0
M  V30 1151 C 106.001 0.662 -3.54471 0
M  V30 1152 O 105.105 1.76265 -3.72833 0
M  V30 1153 H 104.446 0.0448722 -0.662482 0
M  V30 1154 H 106.976 -0.491048 -1.9862 0
M  V30 1155 H 106.986 0.940594 -3.9701 0
M  V30 1156 H 105.661 -0.196937 -4.15433 0
M  V30 1157 H 104.238 1.48173 -3.42198 0
M  V30 1158 N 106.423 1.57458 -0.0668435 0
M  V30 1159 C 107.672 1.92477 0.602947 0
M  V30 1160 C 107.985 0.948419 1.71068 0
M  V30 1161 O 109.191 1.19124 2.43971 0
M  V30 1162 C 107.647 3.41903 1.12383 0
M  V30 1163 C 107.255 4.47975 0.04737 0
M  V30 1164 C 108.999 3.85931 1.76797 0
M  V30 1165 C 106.906 5.88529 0.582022 0
M  V30 1166 H 105.836 0.718387 0.22899 0
M  V30 1167 H 108.487 1.82978 -0.138276 0
M  V30 1168 H 106.869 3.46459 1.91787 0
M  V30 1169 H 108.043 4.55029 -0.726978 0
M  V30 1170 H 106.358 4.13384 -0.500243 0
M  V30 1171 H 108.955 4.88322 2.17821 0
M  V30 1172 H 109.298 3.23029 2.62599 0
M  V30 1173 H 109.831 3.83958 1.04024 0
M  V30 1174 H 106.57 6.55065 -0.238721 0
M  V30 1175 H 106.09 5.85004 1.324 0
M  V30 1176 H 107.769 6.38258 1.05999 0
M  V30 1177 N 107.901 -0.206675 1.56239 0
M  V30 1178 C 108.831 -1.25909 1.96645 0
M  V30 1179 C 109.812 -1.48097 0.836734 0
M  V30 1180 O 110.997 -1.6003 1.10019 0
M  V30 1181 C 108.127 -2.6058 2.29599 0
M  V30 1182 C 107.081 -2.53024 3.452 0
M  V30 1183 C 106.407 -3.91861 3.63798 0
M  V30 1184 C 107.707 -2.06524 4.79734 0
M  V30 1185 H 109.401 -0.923369 2.84806 0
M  V30 1186 H 106.947 -0.442735 1.37025 0
M  V30 1187 H 108.9 -3.34375 2.56459 0
M  V30 1188 H 107.624 -2.95869 1.38307 0
M  V30 1189 H 106.283 -1.81684 3.18412 0
M  V30 1190 H 105.931 -4.24483 2.69857 0
M  V30 1191 H 105.631 -3.87683 4.4156 0
M  V30 1192 H 107.155 -4.67296 3.93022 0
M  V30 1193 H 108.569 -2.70072 5.05702 0
M  V30 1194 H 106.966 -2.13374 5.60885 0
M  V30 1195 H 108.036 -1.01802 4.74093 0
M  V30 1196 N 109.379 -1.50304 -0.473955 0
M  V30 1197 C 110.619 -1.62786 -1.23612 0
M  V30 1198 C 110.983 -0.319786 -1.89318 0
M  V30 1199 O 112.184 -0.320012 -2.66888 0
M  V30 1200 C 110.455 -2.77351 -2.25414 0
M  V30 1201 S 112.014 -3.09948 -3.10608 0
M  V30 1202 H 108.832 -0.573895 -0.419721 0
M  V30 1203 H 111.434 -1.88076 -0.533623 0
M  V30 1204 H 110.138 -3.70879 -1.75719 0
M  V30 1205 H 109.669 -2.54137 -3.00296 0
M  V30 1206 H 111.684 -2.53553 -4.26527 0
M  V30 1207 N 110.857 0.726932 -1.39834 0
M  V30 1208 C 112.097 1.4992 -1.38936 0
M  V30 1209 C 112.461 1.91996 0.0126883 0
M  V30 1210 O 113.662 2.68399 0.146715 0
M  V30 1211 C 111.933 2.70013 -2.34153 0
M  V30 1212 S 113.492 3.59563 -2.51515 0
M  V30 1213 H 110.31 0.51271 -0.492595 0
M  V30 1214 H 112.912 0.85107 -1.76003 0
M  V30 1215 H 111.616 2.37254 -3.34871 0
M  V30 1216 H 111.147 3.39748 -1.98331 0
M  V30 1217 H 113.162 4.63973 -1.75909 0
M  V30 1218 N 112.336 1.25143 0.95797 0
M  V30 1219 C 113.266 1.07711 2.07173 0
M  V30 1220 C 114.247 -0.0128462 1.70095 0
M  V30 1221 O 115.432 0.156061 1.93572 0
M  V30 1222 C 112.562 0.691503 3.40346 0
M  V30 1223 C 111.516 1.73132 3.9142 0
M  V30 1224 C 110.842 1.20049 5.21049 0
M  V30 1225 C 112.142 3.1294 4.1817 0
M  V30 1226 H 113.836 2.00873 2.22014 0
M  V30 1227 H 111.382 0.967191 1.06684 0
M  V30 1228 H 113.335 0.556505 4.17709 0
M  V30 1229 H 112.059 -0.275819 3.25433 0
M  V30 1230 H 110.718 1.8547 3.16222 0
M  V30 1231 H 110.366 0.223499 5.02503 0
M  V30 1232 H 110.066 1.89545 5.56189 0
M  V30 1233 H 111.59 1.07782 6.01012 0
M  V30 1234 H 113.004 3.03775 4.86203 0
M  V30 1235 H 111.401 3.79875 4.64559 0
M  V30 1236 H 112.471 3.6025 3.24573 0
M  V30 1237 N 113.814 -1.1601 1.06675 0
M  V30 1238 C 115.23 -1.38622 0.790948 0
M  V30 1239 C 115.43 -1.92109 -0.607965 0
M  V30 1240 O 114.486 -2.12239 -1.36787 0
M  V30 1241 C 115.799 -2.36347 1.85905 0
M  V30 1242 C 117.347 -2.50023 1.88301 0
M  V30 1243 C 117.822 -3.51033 2.94176 0
M  V30 1244 N 119.313 -3.58563 2.93235 0
M  V30 1245 C 120.048 -4.36521 3.71803 0
M  V30 1246 N 119.544 -5.17869 4.602 0
M  V30 1247 N 121.337 -4.31541 3.60178 0
M  V30 1248 H 113.488 -0.796294 1.96908 0
M  V30 1249 H 115.751 -0.412597 0.853503 0
M  V30 1250 H 115.457 -2.04147 2.86386 0
M  V30 1251 H 115.331 -3.36042 1.71334 0
M  V30 1252 H 117.718 -2.81524 0.884769 0
M  V30 1253 H 117.799 -1.5035 2.06951 0
M  V30 1254 H 117.443 -3.20268 3.94196 0
M  V30 1255 H 117.373 -4.50445 2.72776 0
M  V30 1256 H 119.864 -3.00496 2.29152 0
M  V30 1257 H 120.177 -5.74578 5.16797 0
M  V30 1258 H 118.522 -5.17199 4.64253 0
M  V30 1259 H 121.713 -3.67051 2.90502 0
M  V30 1260 H 121.886 -4.9205 4.21653 0
M  V30 1261 N 115.292 -0.849877 -1.32721 0
M  V30 1262 C 116.239 -0.289033 -2.28983 0
M  V30 1263 C 117.209 0.601324 -1.54833 0
M  V30 1264 O 118.394 0.537253 -1.8308 0
M  V30 1265 C 115.534 0.520623 -3.4115 0
M  V30 1266 C 114.647 -0.394989 -4.3019 0
M  V30 1267 C 113.782 0.426834 -5.29482 0
M  V30 1268 C 112.821 -0.486476 -6.10164 0
M  V30 1269 N 111.958 0.297879 -7.01468 0
M  V30 1270 H 116.798 -1.11519 -2.76347 0
M  V30 1271 H 114.335 -0.56138 -1.35967 0
M  V30 1272 H 116.293 1.00563 -4.04899 0
M  V30 1273 H 114.923 1.31165 -2.9495 0
M  V30 1274 H 113.975 -0.99836 -3.67065 0
M  V30 1275 H 115.287 -1.09612 -4.86607 0
M  V30 1276 H 114.441 0.975205 -5.98811 0
M  V30 1277 H 113.18 1.16136 -4.73671 0
M  V30 1278 H 112.185 -1.04677 -5.39743 0
M  V30 1279 H 113.41 -1.21953 -6.6806 0
M  V30 1280 H 111.356 1.01558 -6.48091 0
M  V30 1281 H 111.273 -0.344318 -7.55216 0
M  V30 1282 H 112.541 0.828131 -7.75089 0
M  V30 1283 N 116.77 1.45427 -0.607355 0
M  V30 1284 C 118.018 2.01841 -0.102253 0
M  V30 1285 C 118.339 1.47832 1.27164 0
M  V30 1286 O 117.609 0.672497 1.83995 0
M  V30 1287 H 116.189 0.746188 -0.0348101 0
M  V30 1288 H 118.851 1.78229 -0.7887 0
M  V30 1289 H 117.947 3.12057 -0.0518585 0
M  V30 1290 N 118.248 0.346503 1.53744 0
M  V30 1291 C 119.158 -0.517293 2.28826 0
M  V30 1292 C 120.174 -1.10935 1.3405 0
M  V30 1293 O 121.35 -1.1244 1.6709 0
M  V30 1294 C 118.415 -1.65098 3.04866 0
M  V30 1295 C 117.476 -1.0884 4.15274 0
M  V30 1296 C 116.709 -2.16806 4.87679 0
M  V30 1297 O 116.932 -3.3758 4.59778 0
M  V30 1298 O 115.866 -1.80934 5.74061 0
M  V30 1299 H 119.692 0.0931396 3.03557 0
M  V30 1300 H 117.277 0.111458 1.48984 0
M  V30 1301 H 119.159 -2.31053 3.5241 0
M  V30 1302 H 117.834 -2.24717 2.32989 0
M  V30 1303 H 116.741 -0.3933 3.72027 0
M  V30 1304 H 118.074 -0.537036 4.89261 0
M  V30 1305 N 119.726 -1.57421 0.075193 0
M  V30 1306 C 120.951 -1.98364 -0.605515 0
M  V30 1307 C 121.376 -0.953383 -1.62149 0
M  V30 1308 O 120.734 0.0806053 -1.81121 0
M  V30 1309 C 120.782 -3.38332 -1.24756 0
M  V30 1310 O 119.886 -3.37959 -2.36342 0
M  V30 1311 H 119.227 -0.645553 -0.155428 0
M  V30 1312 H 121.757 -2.04044 0.150714 0
M  V30 1313 H 121.767 -3.75591 -1.5936 0
M  V30 1314 H 120.442 -4.12846 -0.503129 0
M  V30 1315 H 119.019 -3.12474 -2.03506 0
M  V30 1316 N 121.204 0.198386 -1.56346 0
M  V30 1317 C 122.452 0.91747 -1.80075 0
M  V30 1318 C 122.773 1.83929 -0.647692 0
M  V30 1319 O 122.043 1.93029 0.334166 0
M  V30 1320 H 120.623 0.341774 -0.664228 0
M  V30 1321 H 123.285 0.204684 -1.93822 0
M  V30 1322 H 122.381 1.51055 -2.7311 0
M  V30 1323 N 122.682 1.50554 0.465978 0
M  V30 1324 C 123.614 1.65949 1.58093 0
M  V30 1325 C 124.627 0.540827 1.53554 0
M  V30 1326 O 125.816 0.814187 1.5885 0
M  V30 1327 C 122.916 1.63261 2.96983 0
M  V30 1328 C 122.089 2.91245 3.26336 0
M  V30 1329 C 121.148 2.8113 4.44806 0
M  V30 1330 O 120.174 3.55086 4.44862 0
M  V30 1331 N 121.376 1.95032 5.46756 0
M  V30 1332 H 124.141 2.62122 1.45301 0
M  V30 1333 H 121.702 1.48082 0.65448 0
M  V30 1334 H 123.694 1.54101 3.74212 0
M  V30 1335 H 122.264 0.748032 3.03518 0
M  V30 1336 H 121.484 3.14493 2.37672 0
M  V30 1337 H 122.772 3.76022 3.42761 0
M  V30 1338 H 122.17 1.3427 5.49534 0
M  V30 1339 H 120.727 1.91772 6.2295 0
M  V30 1340 N 124.16 -0.719506 1.40217 0
M  V30 1341 C 125.385 -1.51371 1.4178 0
M  V30 1342 C 125.81 -1.88091 0.0182355 0
M  V30 1343 O 125.168 -1.52997 -0.972707 0
M  V30 1344 C 125.216 -2.768 2.31115 0
M  V30 1345 O 124.32 -3.73349 1.7517 0
M  V30 1346 H 123.661 -0.456529 0.482159 0
M  V30 1347 H 126.191 -0.88644 1.844 0
M  V30 1348 H 126.201 -3.25371 2.46167 0
M  V30 1349 H 124.876 -2.49407 3.3282 0
M  V30 1350 H 123.453 -3.32179 1.69444 0
M  V30 1351 N 125.638 -1.25649 -0.95132 0
M  V30 1352 C 126.884 -1.11766 -1.69941 0
M  V30 1353 C 127.239 0.33735 -1.89419 0
M  V30 1354 O 126.532 1.24491 -1.45645 0
M  V30 1355 C 126.726 -1.80909 -3.08231 0
M  V30 1356 C 126.555 -3.32984 -3.02245 0
M  V30 1357 C 125.325 -4.02247 -3.05819 0
M  V30 1358 C 127.523 -4.29332 -2.83157 0
M  V30 1359 N 125.505 -5.41072 -2.90024 0
M  V30 1360 C 126.876 -5.55265 -2.75828 0
M  V30 1361 C 128.931 -4.19707 -2.67863 0
M  V30 1362 C 127.634 -6.72671 -2.54767 0
M  V30 1363 C 129.66 -5.36809 -2.48173 0
M  V30 1364 C 129.022 -6.61683 -2.41567 0
M  V30 1365 H 125.121 -0.463708 -0.629682 0
M  V30 1366 H 127.705 -1.58796 -1.12659 0
M  V30 1367 H 125.876 -1.36369 -3.63673 0
M  V30 1368 H 127.608 -1.59739 -3.71841 0
M  V30 1369 H 124.363 -3.53531 -3.15139 0
M  V30 1370 H 124.787 -6.13938 -2.85323 0
M  V30 1371 H 129.429 -3.23907 -2.71743 0
M  V30 1372 H 127.147 -7.68577 -2.49629 0
M  V30 1373 H 130.733 -5.31224 -2.37259 0
M  V30 1374 H 129.613 -7.50768 -2.26531 0
M  V30 1375 N 127.117 1.15442 -1.07289 0
M  V30 1376 C 128.528 1.67803 -0.818475 0
M  V30 1377 C 128.879 1.8489 0.656507 0
M  V30 1378 O 128.004 1.55176 1.50829 0
M  V30 1379 C 128.599 3.04805 -1.47917 0
M  V30 1380 C 127.158 3.54245 -1.27229 0
M  V30 1381 C 126.305 2.29986 -1.54925 0
M  V30 1382 H 129.256 0.996646 -1.23502 0
M  V30 1383 H 129.277 3.69702 -0.90005 0
M  V30 1384 H 128.789 2.92336 -2.55267 0
M  V30 1385 H 126.89 3.71956 -0.21899 0
M  V30 1386 H 127.003 4.35723 -1.99203 0
M  V30 1387 H 125.367 2.35496 -0.970242 0
M  V30 1388 H 126.15 2.20105 -2.63455 0
M  V30 1389 N 128.595 0.856903 1.32268 0
M  V30 1390 C 130.011 0.547061 1.49931 0
M  V30 1391 C 130.211 -0.921781 1.7918 0
M  V30 1392 O 129.267 -1.70469 1.8627 0
M  V30 1393 C 130.58 1.43599 2.64196 0
M  V30 1394 C 132.128 1.43665 2.78081 0
M  V30 1395 C 132.603 2.31085 3.95428 0
M  V30 1396 N 134.094 2.28893 4.02694 0
M  V30 1397 C 134.829 2.93262 4.92732 0
M  V30 1398 N 134.325 3.66751 5.87763 0
M  V30 1399 N 136.118 2.82638 4.85873 0
M  V30 1400 H 128.269 1.8075 1.11549 0
M  V30 1401 H 130.532 0.772144 0.549997 0
M  V30 1402 H 130.238 2.48058 2.49319 0
M  V30 1403 H 130.112 1.12502 3.60032 0
M  V30 1404 H 132.499 0.399701 2.92381 0
M  V30 1405 H 132.58 1.7878 1.82952 0
M  V30 1406 H 132.224 3.34849 3.81888 0
M  V30 1407 H 132.154 1.93302 4.89839 0
M  V30 1408 H 134.645 1.75466 3.34694 0
M  V30 1409 H 134.958 4.13027 6.53168 0
M  V30 1410 H 133.303 3.70859 5.87783 0
M  V30 1411 H 136.494 2.24774 4.10602 0
M  V30 1412 H 136.667 3.33084 5.55841 0
M  V30 1413 N 130.073 -1.45103 0.615059 0
M  V30 1414 C 131.003 -2.33339 -0.0865619 0
M  V30 1415 C 131.984 -1.4727 -0.851209 0
M  V30 1416 O 133.169 -1.76026 -0.820281 0
M  V30 1417 C 130.299 -3.30095 -1.07956 0
M  V30 1418 C 129.253 -4.25858 -0.427628 0
M  V30 1419 C 128.579 -5.12361 -1.5294 0
M  V30 1420 C 129.879 -5.18165 0.655944 0
M  V30 1421 H 131.573 -2.92254 0.650224 0
M  V30 1422 H 129.119 -1.40532 0.314138 0
M  V30 1423 H 131.072 -3.90698 -1.57901 0
M  V30 1424 H 129.796 -2.69355 -1.84703 0
M  V30 1425 H 128.455 -3.66564 0.0510292 0
M  V30 1426 H 128.103 -4.47984 -2.28734 0
M  V30 1427 H 127.803 -5.77238 -1.09865 0
M  V30 1428 H 129.327 -5.75833 -2.03098 0
M  V30 1429 H 130.741 -5.72796 0.240257 0
M  V30 1430 H 129.138 -5.91559 1.00888 0
M  V30 1431 H 130.208 -4.60144 1.52957 0
M  V30 1432 N 131.551 -0.354651 -1.53558 0
M  V30 1433 C 132.779 0.239515 -2.05509 0
M  V30 1434 C 133.194 1.4333 -1.2289 0
M  V30 1435 O 132.551 1.80538 -0.266899 0
M  V30 1436 C 132.602 0.643719 -3.55723 0
M  V30 1437 O 132.323 -0.502602 -4.35207 0
M  V30 1438 C 133.824 1.29743 -4.23889 0
M  V30 1439 H 131.044 0.0442697 -0.669538 0
M  V30 1440 H 133.588 -0.509856 -1.98042 0
M  V30 1441 H 131.743 1.34302 -3.63376 0
M  V30 1442 H 132.157 -0.178172 -5.24197 0
M  V30 1443 H 133.631 1.53091 -5.30346 0
M  V30 1444 H 134.108 2.25441 -3.76926 0
M  V30 1445 H 134.714 0.639865 -4.20459 0
M  V30 1446 N 133.029 1.57378 -0.0835403 0
M  V30 1447 C 133.976 2.13384 0.879539 0
M  V30 1448 C 134.946 1.04936 1.28754 0
M  V30 1449 O 136.131 1.32662 1.37133 0
M  V30 1450 C 133.271 2.70932 2.13752 0
M  V30 1451 C 132.384 3.93575 1.7811 0
M  V30 1452 C 131.519 4.39326 2.98607 0
M  V30 1453 C 130.558 5.54587 2.59037 0
M  V30 1454 N 129.695 5.95243 3.72331 0
M  V30 1455 H 134.535 2.9537 0.395076 0
M  V30 1456 H 132.072 1.45953 0.183349 0
M  V30 1457 H 134.03 3.02411 2.87408 0
M  V30 1458 H 132.66 1.91693 2.59718 0
M  V30 1459 H 131.712 3.68483 0.94469 0
M  V30 1460 H 133.024 4.77258 1.45005 0
M  V30 1461 H 132.178 4.72528 3.80529 0
M  V30 1462 H 130.917 3.5452 3.34913 0
M  V30 1463 H 129.922 5.21024 1.75539 0
M  V30 1464 H 131.147 6.41133 2.23887 0
M  V30 1465 H 129.093 5.13385 4.08378 0
M  V30 1466 H 129.01 6.73694 3.43034 0
M  V30 1467 H 130.278 6.33072 4.54797 0
M  V30 1468 N 134.507 -0.190092 1.56449 0
M  V30 1469 C 135.417 -1.25591 1.98152 0
M  V30 1470 C 136.433 -1.49519 0.889944 0
M  V30 1471 O 137.609 -1.62036 1.19609 0
M  V30 1472 C 134.674 -2.57916 2.3169 0
M  V30 1473 C 133.735 -2.42015 3.5458 0
M  V30 1474 C 132.968 -3.6803 3.8651 0
M  V30 1475 O 133.191 -4.72413 3.1966 0
M  V30 1476 O 132.125 -3.6326 4.79923 0
M  V30 1477 H 135.951 -0.931988 2.89046 0
M  V30 1478 H 133.536 -0.395488 1.4407 0
M  V30 1479 H 135.418 -3.36008 2.54316 0
M  V30 1480 H 134.093 -2.89925 1.43963 0
M  V30 1481 H 133 -1.62017 3.37196 0
M  V30 1482 H 134.333 -2.14937 4.4279 0
M  V30 1483 N 135.985 -1.50799 -0.457987 0
M  V30 1484 C 137.401 -1.38515 -0.792819 0
M  V30 1485 C 137.601 -0.451409 -1.96379 0
M  V30 1486 O 136.657 0.10112 -2.52297 0
M  V30 1487 C 137.97 -2.80149 -1.09258 0
M  V30 1488 C 139.518 -2.89156 -1.19825 0
M  V30 1489 C 139.993 -4.31651 -1.53106 0
M  V30 1490 N 141.484 -4.34662 -1.60072 0
M  V30 1491 C 142.219 -5.41928 -1.87354 0
M  V30 1492 N 141.715 -6.59384 -2.12568 0
M  V30 1493 N 143.508 -5.29385 -1.88965 0
M  V30 1494 H 135.659 -2.10073 0.313511 0
M  V30 1495 H 137.922 -0.944803 0.0777862 0
M  V30 1496 H 137.628 -3.50374 -0.305084 0
M  V30 1497 H 137.502 -3.18204 -2.02549 0
M  V30 1498 H 139.889 -2.19141 -1.97639 0
M  V30 1499 H 139.97 -2.54626 -0.244821 0
M  V30 1500 H 139.614 -5.02208 -0.758266 0
M  V30 1501 H 139.544 -4.63678 -2.49621 0
M  V30 1502 H 142.035 -3.49973 -1.42573 0
M  V30 1503 H 142.348 -7.36934 -2.32696 0
M  V30 1504 H 140.693 -6.62535 -2.09933 0
M  V30 1505 H 143.884 -4.36616 -1.68772 0
M  V30 1506 H 144.057 -6.13066 -2.09891 0
M  V30 1507 N 137.463 0.71206 -1.40597 0
M  V30 1508 C 138.426 1.80785 -1.40888 0
M  V30 1509 C 139.426 1.57937 -0.302103 0
M  V30 1510 O 140.616 1.64913 -0.561182 0
M  V30 1511 C 137.748 3.18927 -1.20409 0
M  V30 1512 H 138.941 1.81924 -2.38419 0
M  V30 1513 H 136.494 0.91805 -1.26497 0
M  V30 1514 H 137.229 3.23436 -0.236522 0
M  V30 1515 H 137.014 3.36911 -2.00582 0
M  V30 1516 H 138.504 3.98949 -1.23408 0
M  V30 1517 N 138.941 1.26152 0.944643 0
M  V30 1518 C 139.888 1.07408 2.04285 0
M  V30 1519 C 140.858 -0.0198413 1.66088 0
M  V30 1520 O 142.043 0.139264 1.90291 0
M  V30 1521 C 139.183 0.70945 3.37729 0
M  V30 1522 C 138.296 1.87926 3.88983 0
M  V30 1523 C 137.431 1.45807 5.10797 0
M  V30 1524 C 136.47 2.5964 5.54305 0
M  V30 1525 N 135.607 2.18226 6.67324 0
M  V30 1526 H 140.447 2.01389 2.1965 0
M  V30 1527 H 137.984 1.00275 1.07626 0
M  V30 1528 H 139.942 0.478948 4.14442 0
M  V30 1529 H 138.572 -0.193389 3.2222 0
M  V30 1530 H 137.624 2.22279 3.08701 0
M  V30 1531 H 138.936 2.73377 4.17213 0
M  V30 1532 H 138.09 1.18781 5.94959 0
M  V30 1533 H 136.829 0.574414 4.84305 0
M  V30 1534 H 135.834 2.87399 4.68702 0
M  V30 1535 H 137.059 3.48599 5.828 0
M  V30 1536 H 135.005 1.3229 6.42523 0
M  V30 1537 H 134.922 2.97221 6.95123 0
M  V30 1538 H 136.19 1.94403 7.54869 0
M  V30 1539 N 140.419 -1.14872 1.07899 0
M  V30 1540 C 141.349 -2.2193 0.725887 0
M  V30 1541 C 142.33 -1.67622 -0.28927 0
M  V30 1542 O 143.515 -1.93533 -0.160787 0
M  V30 1543 C 140.645 -3.47061 0.128856 0
M  V30 1544 C 139.599 -4.14363 1.07178 0
M  V30 1545 C 138.925 -5.33636 0.337229 0
M  V30 1546 C 140.225 -4.63492 2.40775 0
M  V30 1547 H 141.919 -2.51724 1.62097 0
M  V30 1548 H 139.465 -1.20991 0.780838 0
M  V30 1549 H 141.418 -4.21199 -0.130147 0
M  V30 1550 H 140.142 -3.16617 -0.80134 0
M  V30 1551 H 138.801 -3.42173 1.3158 0
M  V30 1552 H 138.449 -4.99449 -0.596606 0
M  V30 1553 H 138.149 -5.79609 0.965788 0
M  V30 1554 H 139.673 -6.10539 0.0861567 0
M  V30 1555 H 141.087 -5.2913 2.20669 0
M  V30 1556 H 139.484 -5.20148 2.99276 0
M  V30 1557 H 140.554 -3.78834 3.02676 0
M  V30 1558 N 141.898 -0.863906 -1.31812 0
M  V30 1559 C 142.846 -0.30422 -2.30602 0
M  V30 1560 C 143.84 0.577419 -1.59255 0
M  V30 1561 O 145.046 0.464194 -1.73912 0
M  V30 1562 H 141.421 -0.0796877 -0.747766 0
M  V30 1563 H 143.392 -1.15148 -2.75288 0
M  V30 1564 C 142.141 0.484617 -3.44306 0
M  V30 1565 H 141.464 -0.18451 -3.99374 0
M  V30 1566 H 142.904 0.841664 -4.15562 0
M  V30 1567 C 141.363 1.6735 -2.92396 0
M  V30 1568 O 141.893 2.77273 -2.90659 0
M  V30 1569 N 140.099 1.50362 -2.48676 0
M  V30 1570 H 139.646 0.609402 -2.50288 0
M  V30 1571 H 139.604 2.30051 -2.14299 0
M  V30 1572 N 143.376 1.44774 -0.622745 0
M  V30 1573 C 144.622 2.02968 -0.13257 0
M  V30 1574 C 144.977 1.48047 1.22881 0
M  V30 1575 O 144.27 0.651625 1.80179 0
M  V30 1576 C 144.464 3.57364 -0.0508323 0
M  V30 1577 C 144.293 4.27262 -1.40275 0
M  V30 1578 C 143.063 4.64577 -1.98737 0
M  V30 1579 C 145.261 4.58248 -2.3348 0
M  V30 1580 N 143.243 5.19404 -3.27251 0
M  V30 1581 C 144.614 5.14069 -3.46603 0
M  V30 1582 C 146.669 4.40195 -2.32664 0
M  V30 1583 C 145.372 5.53738 -4.59093 0
M  V30 1584 C 147.398 4.80907 -3.44213 0
M  V30 1585 C 146.76 5.36834 -4.56058 0
M  V30 1586 H 142.859 0.776541 -0.0922354 0
M  V30 1587 H 145.443 1.76385 -0.82441 0
M  V30 1588 H 143.614 3.83576 0.610265 0
M  V30 1589 H 145.346 4.02219 0.447397 0
M  V30 1590 H 142.101 4.48622 -1.51774 0
M  V30 1591 H 142.525 5.51301 -3.92933 0
M  V30 1592 H 147.167 3.96257 -1.47446 0
M  V30 1593 H 144.885 5.96635 -5.45025 0
M  V30 1594 H 148.471 4.68659 -3.44747 0
M  V30 1595 H 147.351 5.67755 -5.40947 0
M  V30 1596 N 144.854 0.36279 1.53368 0
M  V30 1597 C 145.784 -0.476976 2.28576 0
M  V30 1598 C 146.765 -1.08631 1.30894 0
M  V30 1599 O 147.95 -1.10409 1.59761 0
M  V30 1600 C 145.08 -1.61828 3.07293 0
M  V30 1601 C 144.034 -1.13633 4.1264 0
M  V30 1602 C 143.36 -2.36766 4.79423 0
M  V30 1603 C 144.66 -0.223061 5.21823 0
M  V30 1604 H 146.354 0.150474 2.99022 0
M  V30 1605 H 143.9 0.0738103 1.43811 0
M  V30 1606 H 145.853 -2.21237 3.58653 0
M  V30 1607 H 144.577 -2.27292 2.34533 0
M  V30 1608 H 143.236 -0.564945 3.62221 0
M  V30 1609 H 142.884 -3.0068 4.03238 0
M  V30 1610 H 142.584 -2.05192 5.50609 0
M  V30 1611 H 144.108 -2.96865 5.33576 0
M  V30 1612 H 145.522 -0.724545 5.68703 0
M  V30 1613 H 143.919 0.001678 6.001 0
M  V30 1614 H 144.989 0.735553 4.79289 0
M  V30 1615 N 146.332 -1.57332 0.0918853 0
M  V30 1616 C 147.557 -1.98995 -0.584442 0
M  V30 1617 C 147.982 -0.970528 -1.61128 0
M  V30 1618 O 147.34 0.0613904 -1.81196 0
M  V30 1619 C 147.388 -3.39636 -1.21161 0
M  V30 1620 O 146.492 -3.40447 -2.32744 0
M  V30 1621 H 145.833 -0.647165 -0.148572 0
M  V30 1622 H 148.363 -2.03873 0.172347 0
M  V30 1623 H 148.373 -3.7726 -1.55367 0
M  V30 1624 H 147.048 -4.13356 -0.459313 0
M  V30 1625 H 145.625 -3.14614 -2.0018 0
M  V30 1626 N 147.81 0.181792 -1.56548 0
M  V30 1627 C 149.056 0.901431 -1.81665 0
M  V30 1628 C 149.389 1.82347 -0.668075 0
M  V30 1629 O 148.664 1.91669 0.330615 0
M  V30 1630 C 148.947 1.70618 -3.17115 0
M  V30 1631 C 148.8 0.807964 -4.42484 0
M  V30 1632 C 150.119 2.67605 -3.49393 0
M  V30 1633 H 147.238 0.32627 -0.660846 0
M  V30 1634 H 149.88 0.168134 -1.89255 0
M  V30 1635 H 148.03 2.33133 -3.10775 0
M  V30 1636 H 149.702 0.19649 -4.60881 0
M  V30 1637 H 147.945 0.115411 -4.33646 0
M  V30 1638 H 148.616 1.40632 -5.33785 0
M  V30 1639 H 151.092 2.15218 -3.56118 0
M  V30 1640 H 149.968 3.20985 -4.45264 0
M  V30 1641 H 150.229 3.47298 -2.73563 0
M  V30 1642 N 149.288 1.51039 0.449983 0
M  V30 1643 C 150.565 1.53612 1.21089 0
M  V30 1644 C 150.945 0.292997 2.09057 0
M  V30 1645 O 150.293 -0.72259 2.16774 0
M  V30 1646 C 150.503 2.84337 2.0237 0
M  V30 1647 C 151.851 3.35807 2.59843 0
M  V30 1648 O 152.875 2.85802 2.12593 0
M  V30 1649 O 151.734 4.23029 3.45989 0
M  V30 1650 H 148.828 0.617057 0.550608 0
M  V30 1651 H 151.374 1.63344 0.460082 0
M  V30 1652 H 150.146 3.66278 1.37681 0
M  V30 1653 H 149.769 2.77708 2.84542 0
M  V30 1654 N 150.766 -0.704594 1.40972 0
M  V30 1655 C 152.013 -1.46458 1.39844 0
M  V30 1656 C 152.341 -1.94499 0.00447594 0
M  V30 1657 O 151.596 -1.69275 -0.982057 0
M  V30 1658 C 151.895 -2.698 2.34399 0
M  V30 1659 C 151.561 -2.40464 3.81429 0
M  V30 1660 C 150.223 -2.32174 4.21484 0
M  V30 1661 C 152.575 -2.16086 4.74296 0
M  V30 1662 C 149.903 -1.97589 5.52427 0
M  V30 1663 C 152.255 -1.83011 6.05549 0
M  V30 1664 C 150.919 -1.7321 6.44635 0
M  V30 1665 H 150.189 -0.535927 0.511725 0
M  V30 1666 H 152.836 -0.806124 1.73706 0
M  V30 1667 H 151.141 -3.40536 1.93759 0
M  V30 1668 H 152.838 -3.27919 2.30804 0
M  V30 1669 H 149.428 -2.47808 3.49699 0
M  V30 1670 H 153.612 -2.2144 4.4416 0
M  V30 1671 H 148.868 -1.88547 5.81601 0
M  V30 1672 H 153.042 -1.63164 6.77016 0
M  V30 1673 H 150.669 -1.46179 7.46013 0
M  V30 1674 N 152.244 -1.26651 -0.937939 0
M  V30 1675 C 153.192 -1.08308 -2.05845 0
M  V30 1676 C 154.186 -0.0090757 -1.69398 0
M  V30 1677 O 155.392 -0.166007 -1.79233 0
M  V30 1678 H 151.767 -0.333416 -0.674046 0
M  V30 1679 H 153.738 -2.03261 -2.18467 0
M  V30 1680 C 152.487 -0.736229 -3.39816 0
M  V30 1681 H 151.81 -1.55453 -3.6834 0
M  V30 1682 H 153.25 -0.64769 -4.19024 0
M  V30 1683 C 151.709 0.558824 -3.32233 0
M  V30 1684 O 152.239 1.59621 -3.68624 0
M  V30 1685 N 150.445 0.550657 -2.85335 0
M  V30 1686 H 149.992 -0.293943 -2.55917 0
M  V30 1687 H 149.95 1.41726 -2.80644 0
M  V30 1688 N 153.722 1.14298 -1.08507 0
M  V30 1689 C 154.67 2.21483 -0.710483 0
M  V30 1690 C 155.664 1.66998 0.284234 0
M  V30 1691 O 156.87 1.79401 0.146692 0
M  V30 1692 H 153.245 0.721578 -0.211729 0
M  V30 1693 H 155.216 2.50348 -1.62384 0
M  V30 1694 C 153.965 3.4743 -0.137007 0
M  V30 1695 H 153.288 3.89686 -0.893592 0
M  V30 1696 H 154.728 4.2391 0.0872789 0
M  V30 1697 C 153.187 3.17548 1.12538 0
M  V30 1698 O 153.717 3.35437 2.21009 0
M  V30 1699 N 151.923 2.71499 1.03617 0
M  V30 1700 H 151.47 2.57143 0.153403 0
M  V30 1701 H 151.428 2.51881 1.88158 0
M  V30 1702 N 155.201 0.870884 1.31352 0
M  V30 1703 C 156.447 0.492314 1.97352 0
M  V30 1704 C 156.802 -0.945174 1.67583 0
M  V30 1705 O 156.095 -1.65674 0.962423 0
M  V30 1706 C 156.289 0.687157 3.50732 0
M  V30 1707 C 156.118 2.14203 3.95407 0
M  V30 1708 C 154.888 2.78382 4.21701 0
M  V30 1709 C 157.086 3.1144 4.09279 0
M  V30 1710 N 155.068 4.14611 4.52737 0
M  V30 1711 C 156.439 4.32702 4.44037 0
M  V30 1712 C 158.494 3.07418 3.91661 0
M  V30 1713 C 157.197 5.50463 4.63015 0
M  V30 1714 C 159.223 4.24438 4.11833 0
M  V30 1715 C 158.585 5.44463 4.46923 0
M  V30 1716 H 154.684 0.229206 0.747655 0
M  V30 1717 H 157.268 1.12568 1.5886 0
M  V30 1718 H 155.439 0.083384 3.8831 0
M  V30 1719 H 157.171 0.276883 4.03752 0
M  V30 1720 H 153.926 2.29326 4.14375 0
M  V30 1721 H 154.35 4.84928 4.72413 0
M  V30 1722 H 158.992 2.15732 3.6362 0
M  V30 1723 H 156.71 6.42666 4.89904 0
M  V30 1724 H 160.296 4.2278 3.99685 0
M  V30 1725 H 159.176 6.33504 4.62214 0
M  V30 1726 N 156.679 -1.44442 0.630414 0
M  V30 1727 C 157.626 -2.30678 -0.0749355 0
M  V30 1728 C 158.596 -1.4344 -0.837502 0
M  V30 1729 O 159.781 -1.72343 -0.818684 0
M  V30 1730 C 156.921 -3.28706 -1.05103 0
M  V30 1731 C 156.034 -4.31046 -0.286954 0
M  V30 1732 C 155.169 -5.16167 -1.2548 0
M  V30 1733 C 154.208 -6.10216 -0.479843 0
M  V30 1734 N 153.345 -6.88039 -1.39811 0
M  V30 1735 H 158.185 -2.90454 0.666386 0
M  V30 1736 H 155.722 -1.43107 0.340404 0
M  V30 1737 H 157.68 -3.84027 -1.63031 0
M  V30 1738 H 156.31 -2.70632 -1.75949 0
M  V30 1739 H 155.362 -3.78203 0.408243 0
M  V30 1740 H 156.674 -4.97794 0.316657 0
M  V30 1741 H 155.828 -5.76002 -1.90544 0
M  V30 1742 H 154.567 -4.49491 -1.89233 0
M  V30 1743 H 153.572 -5.49491 0.184295 0
M  V30 1744 H 154.797 -6.78928 0.152965 0
M  V30 1745 H 152.743 -6.24032 -2.02287 0
M  V30 1746 H 152.66 -7.51223 -0.848508 0
M  V30 1747 H 153.928 -7.52397 -2.03762 0
M  V30 1748 N 158.157 -0.370918 -1.53173 0
M  V30 1749 C 159.434 0.273754 -1.93675 0
M  V30 1750 C 159.814 1.65938 -1.3049 0
M  V30 1751 O 159.162 2.23698 -0.465999 0
M  V30 1752 C 159.372 0.318602 -3.47543 0
M  V30 1753 C 160.72 0.556392 -4.20939 0
M  V30 1754 O 161.744 0.399587 -3.53952 0
M  V30 1755 O 160.603 0.862133 -5.39657 0
M  V30 1756 H 157.697 0.165448 -0.810281 0
M  V30 1757 H 160.243 -0.42409 -1.64315 0
M  V30 1758 H 159.015 -0.652687 -3.85818 0
M  V30 1759 H 158.638 1.06212 -3.83151 0
M  V30 1760 N 159.635 1.57281 -0.100228 0
M  V30 1761 C 160.881 1.95626 0.556946 0
M  V30 1762 C 161.236 0.981655 1.65473 0
M  V30 1763 O 160.529 0.00849847 1.91598 0
M  V30 1764 C 160.723 3.38305 1.15259 0
M  V30 1765 C 160.552 4.49555 0.114035 0
M  V30 1766 C 159.322 5.0434 -0.311266 0
M  V30 1767 C 161.52 5.10051 -0.659768 0
M  V30 1768 N 159.502 5.99152 -1.33755 0
M  V30 1769 C 160.873 6.00628 -1.53774 0
M  V30 1770 C 162.928 4.92772 -0.712723 0
M  V30 1771 C 161.631 6.7578 -2.46403 0
M  V30 1772 C 163.657 5.6859 -1.62663 0
M  V30 1773 C 163.019 6.58838 -2.49222 0
M  V30 1774 H 159.118 0.7624 0.173982 0
M  V30 1775 H 161.702 1.93829 -0.183988 0
M  V30 1776 H 159.873 3.40786 1.86332 0
M  V30 1777 H 161.605 3.63817 1.77254 0
M  V30 1778 H 158.36 4.73537 0.0774812 0
M  V30 1779 H 158.784 6.5126 -1.84905 0
M  V30 1780 H 163.426 4.22761 -0.0576648 0
M  V30 1781 H 161.144 7.4505 -3.12931 0
M  V30 1782 H 164.73 5.57233 -1.67281 0
M  V30 1783 H 163.61 7.16479 -3.18791 0
M  V30 1784 N 161.113 -0.173488 1.56642 0
M  V30 1785 C 162.023 -1.23482 1.99473 0
M  V30 1786 C 163.039 -1.48567 0.905752 0
M  V30 1787 O 164.215 -1.60758 1.21321 0
M  V30 1788 C 161.28 -2.55444 2.34413 0
M  V30 1789 C 160.341 -2.38241 3.57127 0
M  V30 1790 C 159.574 -3.63909 3.90392 0
M  V30 1791 O 159.797 -4.68996 3.24653 0
M  V30 1792 O 158.731 -3.58149 4.83749 0
M  V30 1793 H 162.557 -0.901279 2.90018 0
M  V30 1794 H 160.142 -0.380185 1.44482 0
M  V30 1795 H 162.024 -3.33292 2.57865 0
M  V30 1796 H 160.699 -2.88382 1.4703 0
M  V30 1797 H 159.606 -1.58431 3.38896 0
M  V30 1798 H 160.939 -2.10228 4.45045 0
M  V30 1799 N 162.591 -1.51276 -0.441967 0
M  V30 1800 C 163.868 -1.54252 -1.20273 0
M  V30 1801 C 164.248 -0.30408 -2.08898 0
M  V30 1802 O 163.596 0.711084 -2.17154 0
M  V30 1803 C 163.806 -2.85406 -2.00859 0
M  V30 1804 C 165.154 -3.37181 -2.58059 0
M  V30 1805 O 166.178 -2.86925 -2.11074 0
M  V30 1806 O 165.037 -4.24858 -3.43741 0
M  V30 1807 H 162.131 -0.619969 -0.547328 0
M  V30 1808 H 164.677 -1.63586 -0.451413 0
M  V30 1809 H 163.449 -3.67003 -1.35736 0
M  V30 1810 H 163.072 -2.79213 -2.83065 0
M  V30 1811 N 164.069 0.697108 -1.41344 0
M  V30 1812 C 165.346 1.45154 -1.31109 0
M  V30 1813 C 165.726 2.11009 0.0620449 0
M  V30 1814 O 165.074 2.01571 1.07618 0
M  V30 1815 C 165.284 2.47223 -2.46337 0
M  V30 1816 C 166.632 3.1252 -2.87431 0
M  V30 1817 O 167.656 2.57547 -2.46065 0
M  V30 1818 O 166.515 4.12083 -3.58957 0
M  V30 1819 H 163.609 0.646365 -0.515889 0
M  V30 1820 H 166.155 0.727716 -1.53305 0
M  V30 1821 H 164.927 1.97204 -3.37974 0
M  V30 1822 H 164.55 3.27116 -2.2601 0
M  V30 1823 N 165.547 1.27147 0.931209 0
M  V30 1824 C 166.772 1.16191 1.71797 0
M  V30 1825 C 167.197 -0.278004 1.86034 0
M  V30 1826 O 166.555 -1.20137 1.35782 0
M  V30 1827 C 166.603 1.84673 3.09723 0
M  V30 1828 O 165.707 1.14231 3.96264 0
M  V30 1829 H 165.048 0.404303 0.526721 0
M  V30 1830 H 167.578 1.68152 1.1656 0
M  V30 1831 H 167.588 1.91893 3.60057 0
M  V30 1832 H 166.263 2.89421 2.98677 0
M  V30 1833 H 164.84 1.15056 3.54706 0
M  V30 1834 N 167.025 -1.13721 1.09112 0
M  V30 1835 C 168.302 -1.81155 0.737706 0
M  V30 1836 C 168.682 -1.96253 -0.777683 0
M  V30 1837 O 168.03 -1.52807 -1.69889 0
M  V30 1838 C 168.24 -3.16392 1.47299 0
M  V30 1839 C 169.588 -3.91787 1.63671 0
M  V30 1840 O 170.612 -3.26005 1.43524 0
M  V30 1841 O 169.471 -5.0977 1.96969 0
M  V30 1842 H 166.565 -0.783518 0.26463 0
M  V30 1843 H 169.111 -1.20676 1.19312 0
M  V30 1844 H 167.883 -3.0061 2.50498 0
M  V30 1845 H 167.506 -3.8457 1.00953 0
M  V30 1846 N 168.503 -0.877838 -1.30888 0
M  V30 1847 C 169.413 -0.343096 -2.32078 0
M  V30 1848 C 170.429 0.551022 -1.65045 0
M  V30 1849 O 171.605 0.445854 -1.96403 0
M  V30 1850 C 168.67 0.439905 -3.43898 0
M  V30 1851 C 167.731 -0.483111 -4.26573 0
M  V30 1852 C 166.964 0.262616 -5.33053 0
M  V30 1853 O 167.187 1.48967 -5.50604 0
M  V30 1854 O 166.121 -0.383593 -6.00676 0
M  V30 1855 H 169.947 -1.18203 -2.79753 0
M  V30 1856 H 167.532 -0.64145 -1.34929 0
M  V30 1857 H 169.414 0.883504 -4.12034 0
M  V30 1858 H 168.089 1.25526 -2.98371 0
M  V30 1859 H 166.996 -0.975374 -3.61161 0
M  V30 1860 H 168.329 -1.26427 -4.75686 0
M  V30 1861 N 169.982 1.44106 -0.638065 0
M  V30 1862 C 171.259 1.95453 -0.0759321 0
M  V30 1863 C 171.639 1.57984 1.40015 0
M  V30 1864 O 170.987 0.857361 2.11806 0
M  V30 1865 C 171.197 3.47655 -0.306132 0
M  V30 1866 C 172.545 4.24114 -0.203008 0
M  V30 1867 O 173.569 3.55405 -0.237871 0
M  V30 1868 O 172.428 5.46381 -0.113827 0
M  V30 1869 H 169.522 0.826797 0.0183332 0
M  V30 1870 H 172.068 1.54122 -0.710251 0
M  V30 1871 H 170.84 3.68 -1.3301 0
M  V30 1872 H 170.463 3.95949 0.361991 0
M  V30 1873 N 171.46 0.379036 1.52974 0
M  V30 1874 C 172.393 -0.504932 2.22544 0
M  V30 1875 C 173.371 -1.0723 1.22231 0
M  V30 1876 O 174.555 -1.12589 1.51182 0
M  V30 1877 C 171.682 -1.69794 2.93066 0
M  V30 1878 C 170.728 -1.25678 4.07563 0
M  V30 1879 S 171.561 -0.246852 5.34931 0
M  V30 1880 C 172.717 -1.44588 6.08971 0
M  V30 1881 H 172.95 0.0858666 2.97176 0
M  V30 1882 H 170.483 0.163183 1.53535 0
M  V30 1883 H 172.441 -2.38219 3.34308 0
M  V30 1884 H 171.102 -2.26002 2.18133 0
M  V30 1885 H 170.295 -2.14725 4.5597 0
M  V30 1886 H 169.897 -0.651584 3.6828 0
M  V30 1887 H 172.189 -2.37469 6.34519 0
M  V30 1888 H 173.132 -1.00292 7.00962 0
M  V30 1889 H 173.54 -1.65804 5.39601 0
M  V30 1890 N 172.938 -1.57226 0.108567 0
M  V30 1891 C 174.163 -1.99604 -0.563303 0
M  V30 1892 C 174.588 -0.987563 -1.6009 0
M  V30 1893 O 173.946 0.0421687 -1.81251 0
M  V30 1894 C 173.994 -3.40902 -1.17552 0
M  V30 1895 O 173.098 -3.42896 -2.2912 0
M  V30 1896 H 172.439 -0.648704 -0.1417 0
M  V30 1897 H 174.969 -2.03679 0.193961 0
M  V30 1898 H 174.979 -3.78886 -1.51357 0
M  V30 1899 H 173.654 -4.1382 -0.415445 0
M  V30 1900 H 172.231 -3.1672 -1.96832 0
M  V30 1901 N 174.416 0.165178 -1.56732 0
M  V30 1902 C 175.364 1.22369 -1.97809 0
M  V30 1903 C 176.358 1.45488 -0.867741 0
M  V30 1904 O 177.564 1.45995 -1.05288 0
M  V30 1905 H 173.939 0.411486 -0.629431 0
M  V30 1906 H 175.91 0.850425 -2.86025 0
M  V30 1907 C 174.659 2.55403 -2.35934 0
M  V30 1908 H 173.982 2.38438 -3.20916 0
M  V30 1909 H 175.422 3.2814 -2.68514 0
M  V30 1910 C 173.881 3.14611 -1.20506 0
M  V30 1911 O 174.411 3.98626 -0.496016 0
M  V30 1912 N 172.617 2.7379 -0.97403 0
M  V30 1913 H 172.164 2.0557 -1.55238 0
M  V30 1914 H 172.122 3.1374 -0.203573 0
M  V30 1915 N 175.894 1.51508 0.433938 0
M  V30 1916 C 177.141 1.64345 1.18309 0
M  V30 1917 C 177.469 0.361315 1.91115 0
M  V30 1918 O 176.724 -0.654753 1.84422 0
M  V30 1919 C 177.023 2.79928 2.22205 0
M  V30 1920 C 176.689 4.19078 1.66387 0
M  V30 1921 C 175.351 4.56932 1.50887 0
M  V30 1922 C 177.703 5.05894 1.25381 0
M  V30 1923 C 175.031 5.79305 0.928608 0
M  V30 1924 C 177.383 6.2885 0.687823 0
M  V30 1925 C 176.047 6.65473 0.519755 0
M  V30 1926 H 175.317 0.601381 0.432923 0
M  V30 1927 H 177.964 1.85549 0.473676 0
M  V30 1928 H 176.269 2.52959 2.99197 0
M  V30 1929 H 177.966 2.87059 2.79997 0
M  V30 1930 H 174.556 3.89234 1.79428 0
M  V30 1931 H 178.74 4.77253 1.36175 0
M  V30 1932 H 173.996 6.06324 0.786186 0
M  V30 1933 H 178.17 6.95461 0.361581 0
M  V30 1934 H 175.797 7.6017 0.0679979 0
M  V30 1935 N 177.372 -0.689602 1.41712 0
M  V30 1936 C 178.649 -1.44457 1.31877 0
M  V30 1937 C 179.029 -2.11039 -0.0508537 0
M  V30 1938 O 178.377 -2.02138 -1.06547 0
M  V30 1939 C 178.587 -2.45913 2.47645 0
M  V30 1940 C 179.935 -3.10991 2.89084 0
M  V30 1941 O 180.959 -2.56238 2.47428 0
M  V30 1942 O 179.818 -4.10174 3.61137 0
M  V30 1943 H 176.912 -0.64362 0.519309 0
M  V30 1944 H 179.458 -0.719576 1.53689 0
M  V30 1945 H 178.23 -1.95409 3.39015 0
M  V30 1946 H 177.853 -3.25913 2.27742 0
M  V30 1947 N 178.85 -1.27639 -0.924453 0
M  V30 1948 C 180.266 -1.05113 -1.20097 0
M  V30 1949 C 180.466 0.213262 -2.00368 0
M  V30 1950 O 179.522 0.91787 -2.35226 0
M  V30 1951 C 180.835 -2.29244 -1.94596 0
M  V30 1952 C 182.383 -2.34315 -2.07522 0
M  V30 1953 C 182.858 -3.58183 -2.85427 0
M  V30 1954 N 184.349 -3.5876 -2.92994 0
M  V30 1955 C 185.084 -4.51277 -3.53746 0
M  V30 1956 N 184.58 -5.54102 -4.15863 0
M  V30 1957 N 186.373 -4.38894 -3.51181 0
M  V30 1958 H 178.524 -2.08821 -0.388264 0
M  V30 1959 H 180.787 -0.918568 -0.234385 0
M  V30 1960 H 180.493 -3.21301 -1.43034 0
M  V30 1961 H 180.367 -2.34816 -2.95197 0
M  V30 1962 H 182.754 -1.42762 -2.58269 0
M  V30 1963 H 182.835 -2.32744 -1.06131 0
M  V30 1964 H 182.479 -4.50074 -2.35363 0
M  V30 1965 H 182.409 -3.57006 -3.8711 0
M  V30 1966 H 184.9 -2.84398 -2.4885 0
M  V30 1967 H 185.213 -6.20859 -4.60168 0
M  V30 1968 H 183.558 -5.57941 -4.144 0
M  V30 1969 H 186.749 -3.57772 -3.01856 0
M  V30 1970 H 186.922 -5.11186 -3.98237 0
M  V30 1971 N 180.328 1.1314 -1.09713 0
M  V30 1972 C 181.575 1.84484 -0.834987 0
M  V30 1973 C 181.903 1.83689 0.639418 0
M  V30 1974 O 181.158 1.2724 1.4869 0
M  V30 1975 C 181.457 3.32167 -1.3191 0
M  V30 1976 C 181.123 3.53139 -2.80363 0
M  V30 1977 C 179.785 3.58571 -3.20905 0
M  V30 1978 C 182.137 3.60866 -3.76065 0
M  V30 1979 C 179.465 3.69267 -4.55916 0
M  V30 1980 C 181.817 3.73089 -5.10869 0
M  V30 1981 C 180.481 3.76775 -5.50996 0
M  V30 1982 H 179.751 0.675073 -0.305544 0
M  V30 1983 H 182.398 1.33554 -1.37243 0
M  V30 1984 H 180.703 3.85469 -0.701517 0
M  V30 1985 H 182.4 3.85821 -1.09284 0
M  V30 1986 H 178.99 3.49569 -2.47991 0
M  V30 1987 H 183.174 3.55946 -3.45855 0
M  V30 1988 H 178.43 3.70388 -4.86438 0
M  V30 1989 H 182.604 3.78011 -5.84877 0
M  V30 1990 H 180.231 3.84815 -6.55608 0
M  V30 1991 N 181.806 0.884767 1.30421 0
M  V30 1992 C 183.031 0.517288 2.00845 0
M  V30 1993 C 183.456 -0.886779 1.65885 0
M  V30 1994 O 182.814 -1.58768 0.875354 0
M  V30 1995 C 182.862 0.698994 3.5376 0
M  V30 1996 O 181.966 -0.255208 4.1161 0
M  V30 1997 H 181.307 0.203872 0.631927 0
M  V30 1998 H 183.837 1.19225 1.66272 0
M  V30 1999 H 183.847 0.597912 4.03595 0
M  V30 2000 H 182.522 1.72271 3.78544 0
M  V30 2001 H 181.099 -0.10784 3.72744 0
M  V30 2002 N 183.284 -1.43765 0.645699 0
M  V30 2003 C 184.194 -2.34544 -0.0512957 0
M  V30 2004 C 185.21 -1.53455 -0.82022 0
M  V30 2005 O 186.386 -1.86133 -0.769176 0
M  V30 2006 C 183.451 -3.31636 -1.01087 0
M  V30 2007 C 182.512 -4.2863 -0.239712 0
M  V30 2008 C 181.745 -5.21084 -1.15358 0
M  V30 2009 O 181.968 -5.1779 -2.39269 0
M  V30 2010 O 180.902 -5.98593 -0.630038 0
M  V30 2011 H 184.728 -2.95624 0.695718 0
M  V30 2012 H 182.313 -1.43781 0.405882 0
M  V30 2013 H 184.195 -3.9136 -1.56254 0
M  V30 2014 H 182.87 -2.73069 -1.73824 0
M  V30 2015 H 181.777 -3.72408 0.355356 0
M  V30 2016 H 183.11 -4.90157 0.447936 0
M  V30 2017 N 184.763 -0.387143 -1.52771 0
M  V30 2018 C 185.696 0.493123 -2.22808 0
M  V30 2019 C 186.674 1.0658 -1.22798 0
M  V30 2020 O 187.858 1.11785 -1.51777 0
M  V30 2021 C 184.985 1.68238 -2.93962 0
M  V30 2022 C 184.031 1.23515 -4.08223 0
M  V30 2023 S 184.864 0.21848 -5.35054 0
M  V30 2024 C 186.02 1.41357 -6.09729 0
M  V30 2025 H 186.253 -0.101625 -2.97126 0
M  V30 2026 H 183.786 -0.171323 -1.53447 0
M  V30 2027 H 185.744 2.36443 -3.35567 0
M  V30 2028 H 184.405 2.24842 -2.19328 0
M  V30 2029 H 183.598 2.12304 -4.57103 0
M  V30 2030 H 183.2 0.632044 -3.68621 0
M  V30 2031 H 185.492 2.34101 -6.3577 0
M  V30 2032 H 186.435 0.965736 -7.01484 0
M  V30 2033 H 186.843 1.6294 -5.40473 0
M  V30 2034 N 186.241 1.57166 -0.116904 0
M  V30 2035 C 187.174 2.10912 0.871291 0
M  V30 2036 C 188.152 1.025 1.26224 0
M  V30 2037 O 189.336 1.3014 1.36366 0
M  V30 2038 C 186.463 2.6041 2.16574 0
M  V30 2039 C 185.509 3.80687 1.92302 0
M  V30 2040 S 186.342 5.23199 1.14119 0
M  V30 2041 C 187.498 5.76064 2.44748 0
M  V30 2042 H 187.731 2.94401 0.414138 0
M  V30 2043 H 185.264 1.54096 0.096829 0
M  V30 2044 H 187.222 2.89583 2.9095 0
M  V30 2045 H 185.883 1.77106 2.59408 0
M  V30 2046 H 185.076 4.13462 2.8821 0
M  V30 2047 H 184.678 3.5212 1.26047 0
M  V30 2048 H 186.97 5.8566 3.406 0
M  V30 2049 H 187.913 6.74184 2.16521 0
M  V30 2050 H 188.321 5.04117 2.54019 0
M  V30 2051 N 187.719 -0.156864 1.56817 0
M  V30 2052 C 188.667 -1.21319 1.98455 0
M  V30 2053 C 189.661 -1.45025 0.875444 0
M  V30 2054 O 190.867 -1.45435 1.0606 0
M  V30 2055 H 187.242 -0.408142 0.631605 0
M  V30 2056 H 189.213 -0.835244 2.86472 0
M  V30 2057 C 187.962 -2.54148 2.37285 0
M  V30 2058 H 187.285 -2.36733 3.22176 0
M  V30 2059 H 188.725 -3.26712 2.70251 0
M  V30 2060 C 187.184 -3.13967 1.22173 0
M  V30 2061 O 187.714 -3.98357 0.517149 0
M  V30 2062 N 185.92 -2.7327 0.988536 0
M  V30 2063 H 185.467 -2.04744 1.56326 0
M  V30 2064 H 185.425 -3.13628 0.220209 0
M  V30 2065 N 189.197 -1.51736 -0.425897 0
M  V30 2066 C 190.145 -1.74464 -1.53834 0
M  V30 2067 C 191.139 -0.611241 -1.57988 0
M  V30 2068 O 192.345 -0.792899 -1.61596 0
M  V30 2069 H 188.72 -0.551437 -0.511293 0
M  V30 2070 H 190.691 -2.67694 -1.31843 0
M  V30 2071 C 189.44 -1.8972 -2.91379 0
M  V30 2072 H 188.763 -2.76344 -2.88919 0
M  V30 2073 H 190.203 -2.09629 -3.68553 0
M  V30 2074 C 188.662 -0.65992 -3.30374 0
M  V30 2075 O 189.192 0.180083 -4.01296 0
M  V30 2076 N 187.398 -0.500677 -2.86254 0
M  V30 2077 H 186.945 -1.18532 -2.28709 0
M  V30 2078 H 186.903 0.325903 -3.12706 0
M  V30 2079 N 190.675 0.682077 -1.42076 0
M  V30 2080 C 191.608 1.80666 -1.3941 0
M  V30 2081 C 192.586 1.60518 -0.25939 0
M  V30 2082 O 193.77 1.83088 -0.448456 0
M  V30 2083 C 190.897 3.17556 -1.17796 0
M  V30 2084 C 189.943 3.56468 -2.34164 0
M  V30 2085 S 190.776 3.59729 -3.96681 0
M  V30 2086 C 191.932 4.99323 -3.77395 0
M  V30 2087 H 192.165 1.82652 -2.34575 0
M  V30 2088 H 189.698 0.852062 -1.2876 0
M  V30 2089 H 191.656 3.96575 -1.06012 0
M  V30 2090 H 190.317 3.13164 -0.242279 0
M  V30 2091 H 189.51 4.5595 -2.1477 0
M  V30 2092 H 189.112 2.84792 -2.42425 0
M  V30 2093 H 191.404 5.87202 -3.37935 0
M  V30 2094 H 192.347 5.23763 -4.76527 0
M  V30 2095 H 192.755 4.71498 -3.10403 0
M  V30 2096 N 192.153 1.28127 0.917671 0
M  V30 2097 C 193.401 1.14825 1.66312 0
M  V30 2098 C 193.722 -0.304379 1.9261 0
M  V30 2099 O 192.992 -1.21149 1.53947 0
M  V30 2100 H 191.572 0.421953 0.616413 0
M  V30 2101 H 194.234 1.608 1.10134 0
M  V30 2102 H 193.33 1.68489 2.62712 0
M  V30 2103 N 193.631 -1.12557 1.10312 0
M  V30 2104 C 194.879 -1.83675 0.843091 0
M  V30 2105 C 195.2 -1.84435 -0.633131 0
M  V30 2106 O 194.47 -1.30657 -1.45964 0
M  V30 2107 H 193.05 -0.680138 0.308904 0
M  V30 2108 H 195.712 -1.36301 1.39313 0
M  V30 2109 H 194.808 -2.87908 1.2048 0
M  V30 2110 N 195.109 -0.891671 -1.2995 0
M  V30 2111 C 196.386 -0.433307 -1.9074 0
M  V30 2112 C 196.766 1.08646 -1.80995 0
M  V30 2113 O 196.114 1.92476 -1.23147 0
M  V30 2114 C 196.324 -0.938895 -3.36134 0
M  V30 2115 C 197.672 -0.977829 -4.13187 0
M  V30 2116 O 198.696 -0.886015 -3.45005 0
M  V30 2117 O 197.555 -1.11453 -5.35015 0
M  V30 2118 H 194.649 -0.133699 -0.816121 0
M  V30 2119 H 197.195 -0.981011 -1.38471 0
M  V30 2120 H 195.967 -1.98281 -3.37343 0
M  V30 2121 H 195.59 -0.37074 -3.95868 0
M  V30 2122 N 196.587 1.43421 -0.653314 0
M  V30 2123 C 197.497 2.34568 0.0388565 0
M  V30 2124 C 198.513 1.53888 0.81207 0
M  V30 2125 O 199.689 1.86539 0.759294 0
M  V30 2126 C 196.754 3.32167 0.993269 0
M  V30 2127 C 195.815 4.28751 0.216977 0
M  V30 2128 C 195.048 5.21688 1.12593 0
M  V30 2129 O 195.271 5.19052 2.36519 0
M  V30 2130 O 194.205 5.98919 0.598284 0
M  V30 2131 H 198.031 2.95251 -0.711386 0
M  V30 2132 H 195.616 1.43564 -0.413502 0
M  V30 2133 H 197.498 3.92183 1.54176 0
M  V30 2134 H 196.173 2.73987 1.72374 0
M  V30 2135 H 195.08 3.72215 -0.375101 0
M  V30 2136 H 196.413 4.89913 -0.473924 0
M  V30 2137 N 198.065 0.39524 1.52563 0
M  V30 2138 C 199.342 -0.242908 1.94086 0
M  V30 2139 C 199.722 -1.63841 1.33114 0
M  V30 2140 O 199.07 -2.22928 0.501529 0
M  V30 2141 C 199.28 -0.26327 3.48006 0
M  V30 2142 C 200.628 -0.489354 4.21771 0
M  V30 2143 O 201.652 -0.343226 3.54543 0
M  V30 2144 O 200.511 -0.776169 5.4096 0
M  V30 2145 H 197.605 -0.152536 0.812811 0
M  V30 2146 H 200.151 0.450178 1.6362 0
M  V30 2147 H 198.923 0.713985 3.84731 0
M  V30 2148 H 198.546 -1.00103 3.84792 0
M  V30 2149 N 199.544 -1.57102 0.125237 0
M  V30 2150 C 200.79 -1.95697 -0.532035 0
M  V30 2151 C 201.123 -1.009 -1.6593 0
M  V30 2152 O 200.398 -0.047347 -1.94442 0
M  V30 2153 C 200.681 -3.44181 -1.05884 0
M  V30 2154 C 200.534 -4.49752 0.0654392 0
M  V30 2155 C 201.853 -3.94655 -1.9477 0
M  V30 2156 H 198.972 -0.711571 -0.191925 0
M  V30 2157 H 201.614 -1.88923 0.20206 0
M  V30 2158 H 199.764 -3.50085 -1.68442 0
M  V30 2159 H 201.436 -4.55943 0.700982 0
M  V30 2160 H 199.679 -4.27653 0.727709 0
M  V30 2161 H 200.35 -5.50924 -0.344505 0
M  V30 2162 H 202.826 -3.91094 -1.42074 0
M  V30 2163 H 201.702 -4.99057 -2.28546 0
M  V30 2164 H 201.963 -3.35718 -2.87656 0
M  V30 2165 N 201.022 0.148545 -1.56898 0
M  V30 2166 C 202.299 0.890019 -1.74178 0
M  V30 2167 C 202.679 1.99407 -0.692839 0
M  V30 2168 O 202.027 2.26671 0.288505 0
M  V30 2169 C 202.237 1.43389 -3.18183 0
M  V30 2170 C 203.585 1.89791 -3.79822 0
M  V30 2171 O 204.609 1.53134 -3.21603 0
M  V30 2172 O 203.468 2.57387 -4.82093 0
M  V30 2173 H 200.562 0.420496 -0.712118 0
M  V30 2174 H 203.108 0.134591 -1.69165 0
M  V30 2175 H 201.88 0.640383 -3.86024 0
M  V30 2176 H 201.503 2.25287 -3.27615 0
M  V30 2177 N 202.5 1.5196 0.417844 0
M  V30 2178 C 203.43 1.77634 1.51554 0
M  V30 2179 C 204.411 0.626918 1.58126 0
M  V30 2180 O 205.596 0.871632 1.7354 0
M  V30 2181 C 202.726 1.91911 2.8946 0
M  V30 2182 C 201.68 3.07463 2.97743 0
M  V30 2183 C 201.006 3.06951 4.37819 0
M  V30 2184 C 202.306 4.47082 2.70027 0
M  V30 2185 H 204 2.6955 1.3032 0
M  V30 2186 H 201.546 1.29706 0.625492 0
M  V30 2187 H 203.499 2.08455 3.6623 0
M  V30 2188 H 202.223 0.966598 3.11969 0
M  V30 2189 H 200.882 2.90656 2.23416 0
M  V30 2190 H 200.53 2.09438 4.57323 0
M  V30 2191 H 200.23 3.84556 4.44286 0
M  V30 2192 H 201.754 3.25613 5.16535 0
M  V30 2193 H 203.168 4.6414 3.36522 0
M  V30 2194 H 201.565 5.2654 2.87881 0
M  V30 2195 H 202.635 4.55777 1.65514 0
M  V30 2196 N 203.978 -0.674533 1.42435 0
M  V30 2197 C 205.389 -1.25514 1.38214 0
M  V30 2198 C 205.74 -1.96055 0.0755464 0
M  V30 2199 O 204.865 -2.00028 -0.8257 0
M  V30 2200 C 205.46 -2.28269 2.50357 0
M  V30 2201 C 204.019 -2.81856 2.49467 0
M  V30 2202 C 203.166 -1.56182 2.29134 0
M  V30 2203 H 206.117 -0.467902 1.51646 0
M  V30 2204 H 206.138 -3.10009 2.20624 0
M  V30 2205 H 205.65 -1.769 3.45439 0
M  V30 2206 H 203.751 -3.37346 1.58204 0
M  V30 2207 H 203.864 -3.30854 3.46515 0
M  V30 2208 H 202.228 -1.82761 1.774 0
M  V30 2209 H 203.011 -1.06778 3.26272 0
M  V30 2210 N 205.456 -1.28612 -0.910864 0
M  V30 2211 C 206.366 -1.14643 -2.0468 0
M  V30 2212 C 207.382 -0.0723121 -1.7385 0
M  V30 2213 O 208.558 -0.282178 -1.99413 0
M  V30 2214 C 205.623 -0.812561 -3.37044 0
M  V30 2215 C 204.684 -1.96935 -3.81465 0
M  V30 2216 C 203.917 -1.65131 -5.07511 0
M  V30 2217 O 204.14 -0.567013 -5.67575 0
M  V30 2218 O 203.074 -2.49585 -5.47714 0
M  V30 2219 H 206.9 -2.1001 -2.19384 0
M  V30 2220 H 204.485 -1.07958 -1.03274 0
M  V30 2221 H 206.367 -0.640441 -4.16505 0
M  V30 2222 H 205.042 0.111426 -3.23508 0
M  V30 2223 H 203.949 -2.19664 -3.02818 0
M  V30 2224 H 205.282 -2.87414 -3.99567 0
M  V30 2225 N 206.934 1.1197 -1.10907 0
M  V30 2226 C 208.18 1.8386 -0.855773 0
M  V30 2227 C 208.513 1.84134 0.617103 0
M  V30 2228 O 207.788 1.29041 1.45529 0
M  V30 2229 C 208.071 3.31305 -1.411 0
M  V30 2230 C 207.924 3.39456 -2.9511 0
M  V30 2231 C 209.243 4.2721 -1.05736 0
M  V30 2232 H 206.362 0.667545 -0.312334 0
M  V30 2233 H 209.004 1.31331 -1.37303 0
M  V30 2234 H 207.154 3.76169 -0.97105 0
M  V30 2235 H 208.826 3.03191 -3.47668 0
M  V30 2236 H 207.069 2.79849 -3.31462 0
M  V30 2237 H 207.74 4.43209 -3.29044 0
M  V30 2238 H 210.216 3.90497 -1.43706 0
M  V30 2239 H 209.092 5.28775 -1.47269 0
M  V30 2240 H 209.353 4.42088 0.0325958 0
M  V30 2241 N 208.412 0.89855 1.29475 0
M  V30 2242 C 209.689 0.443416 1.90508 0
M  V30 2243 C 210.069 -1.07685 1.81569 0
M  V30 2244 O 209.417 -1.9182 1.24166 0
M  V30 2245 C 209.627 0.956708 3.35631 0
M  V30 2246 C 210.975 0.999728 4.12663 0
M  V30 2247 O 211.999 0.904299 3.4453 0
M  V30 2248 O 210.858 1.14289 5.34416 0
M  V30 2249 H 207.952 0.138025 0.815401 0
M  V30 2250 H 210.498 0.98834 1.37949 0
M  V30 2251 H 209.27 2.00067 3.36287 0
M  V30 2252 H 208.893 0.391728 3.95666 0
M  V30 2253 N 209.89 -1.43072 0.660911 0
M  V30 2254 C 211.138 -2.01323 0.177094 0
M  V30 2255 C 211.459 -1.5245 -1.2159 0
M  V30 2256 O 210.729 -0.740322 -1.81373 0
M  V30 2257 H 209.309 -0.744382 0.0624804 0
M  V30 2258 H 211.971 -1.75179 0.854305 0
M  V30 2259 H 211.067 -3.11649 0.167641 0
M  V30 2260 N 211.368 -0.403325 -1.52352 0
M  V30 2261 C 212.331 0.413051 -2.25447 0
M  V30 2262 C 213.331 0.978513 -1.276 0
M  V30 2263 O 214.521 0.858305 -1.51587 0
M  V30 2264 C 211.653 1.58087 -3.02029 0
M  V30 2265 H 212.846 -0.227094 -2.99039 0
M  V30 2266 H 210.399 -0.155722 -1.55522 0
M  V30 2267 H 211.134 2.25804 -2.32772 0
M  V30 2268 H 210.919 1.18195 -3.73861 0
M  V30 2269 H 212.409 2.1585 -3.57489 0
M  V30 2270 N 212.846 1.57033 -0.133567 0
M  V30 2271 C 214.123 1.87256 0.56522 0
M  V30 2272 C 214.503 1.03726 1.83859 0
M  V30 2273 O 213.851 0.120247 2.28183 0
M  V30 2274 C 214.061 3.3865 0.843636 0
M  V30 2275 C 215.409 4.07574 1.19032 0
M  V30 2276 O 216.433 3.43752 0.933429 0
M  V30 2277 O 215.292 5.20259 1.67312 0
M  V30 2278 H 212.386 0.775678 0.286796 0
M  V30 2279 H 214.932 1.68855 -0.169168 0
M  V30 2280 H 213.704 3.91257 -0.0581149 0
M  V30 2281 H 213.327 3.62532 1.63268 0
M  V30 2282 N 214.325 -0.140222 1.56975 0
M  V30 2283 C 215.602 -0.880769 1.74648 0
M  V30 2284 C 215.982 -1.99036 0.703404 0
M  V30 2285 O 215.33 -2.26821 -0.27648 0
M  V30 2286 C 215.54 -1.417 3.18939 0
M  V30 2287 C 216.888 -1.87774 3.80823 0
M  V30 2288 O 217.912 -1.51427 3.2241 0
M  V30 2289 O 216.771 -2.54827 4.83452 0
M  V30 2290 H 213.865 -0.416713 0.714338 0
M  V30 2291 H 216.411 -0.125618 1.69234 0
M  V30 2292 H 215.183 -0.619902 3.86359 0
M  V30 2293 H 214.806 -2.23546 3.28805 0
M  V30 2294 N 215.803 -1.52179 -0.40978 0
M  V30 2295 C 217.08 -1.56769 -1.16974 0
M  V30 2296 C 217.46 -0.348322 -2.08206 0
M  V30 2297 O 216.808 0.664862 -2.18613 0
M  V30 2298 C 217.018 -2.89603 -1.9476 0
M  V30 2299 C 218.366 -3.42579 -2.50849 0
M  V30 2300 O 219.39 -2.91338 -2.04941 0
M  V30 2301 O 218.249 -4.32054 -3.34652 0
M  V30 2302 H 215.343 -0.631439 -0.534054 0
M  V30 2303 H 217.889 -1.64507 -0.416613 0
M  V30 2304 H 216.661 -3.698 -1.27921 0
M  V30 2305 H 216.284 -2.85155 -2.77079 0
M  V30 2306 N 217.281 0.66697 -1.42791 0
M  V30 2307 C 218.506 1.46004 -1.47301 0
M  V30 2308 C 218.931 1.87894 -0.0880317 0
M  V30 2309 O 218.289 1.56502 0.915253 0
M  V30 2310 C 218.337 2.68031 -2.41229 0
M  V30 2311 O 217.441 3.6659 -1.88906 0
M  V30 2312 H 216.782 0.43832 -0.49877 0
M  V30 2313 H 219.312 0.817391 -1.87563 0
M  V30 2314 H 219.322 3.1601 -2.58073 0
M  V30 2315 H 217.997 2.36883 -3.41847 0
M  V30 2316 H 216.574 3.25661 -1.81656 0
M  V30 2317 N 218.759 1.29093 0.90403 0
M  V30 2318 C 219.691 1.09658 2.01266 0
M  V30 2319 C 220.704 0.0453729 1.62737 0
M  V30 2320 O 221.893 0.289446 1.76138 0
M  V30 2321 C 218.993 0.646278 3.32681 0
M  V30 2322 C 218.166 1.77505 3.99763 0
M  V30 2323 C 217.225 1.31649 5.09465 0
M  V30 2324 O 216.251 2.02045 5.32134 0
M  V30 2325 N 217.453 0.184997 5.80205 0
M  V30 2326 H 220.218 2.05135 2.18494 0
M  V30 2327 H 217.779 1.20975 1.07594 0
M  V30 2328 H 219.771 0.322906 4.0341 0
M  V30 2329 H 218.341 -0.215916 3.11853 0
M  V30 2330 H 217.561 2.26752 3.22455 0
M  V30 2331 H 218.849 2.53198 4.41325 0
M  V30 2332 H 218.247 -0.402021 5.6427 0
M  V30 2333 H 216.804 -0.0790358 6.51752 0
M  V30 2334 N 220.237 -1.11381 1.11499 0
M  V30 2335 C 221.514 -1.7955 0.775965 0
M  V30 2336 C 221.894 -1.97859 -0.73588 0
M  V30 2337 O 221.242 -1.56376 -1.66609 0
M  V30 2338 C 221.452 -3.13196 1.53977 0
M  V30 2339 C 222.8 -3.88227 1.71944 0
M  V30 2340 O 223.824 -3.22887 1.50407 0
M  V30 2341 O 222.683 -5.05477 2.07738 0
M  V30 2342 H 219.777 -0.777728 0.28119 0
M  V30 2343 H 222.323 -1.18118 1.21845 0
M  V30 2344 H 221.095 -2.95229 2.56818 0
M  V30 2345 H 220.718 -3.82342 1.09088 0
M  V30 2346 N 221.715 -0.905404 -1.28997 0
M  V30 2347 C 222.94 -0.549175 -1.99997 0
M  V30 2348 C 223.365 0.860276 -1.67275 0
M  V30 2349 O 222.723 1.57355 -0.900502 0
M  V30 2350 C 222.771 -0.755185 -3.52604 0
M  V30 2351 O 221.875 0.189692 -4.11964 0
M  V30 2352 H 221.216 -0.213899 -0.628604 0
M  V30 2353 H 223.746 -1.21856 -1.64354 0
M  V30 2354 H 223.756 -0.662045 -4.02593 0
M  V30 2355 H 222.431 -1.78271 -3.75755 0
M  V30 2356 H 221.008 0.0485257 -3.72868 0
M  V30 2357 N 223.193 1.4272 -0.668489 0
M  V30 2358 C 224.47 1.95248 -0.117373 0
M  V30 2359 C 224.85 1.60919 1.36632 0
M  V30 2360 O 224.198 0.902095 2.09939 0
M  V30 2361 C 224.408 3.46927 -0.379806 0
M  V30 2362 C 225.756 4.23588 -0.292923 0
M  V30 2363 O 226.78 3.5482 -0.313204 0
M  V30 2364 O 225.639 5.46017 -0.229697 0
M  V30 2365 H 222.733 0.827 0.00079152 0
M  V30 2366 H 225.279 1.52581 -0.742783 0
M  V30 2367 H 224.051 3.65096 -1.40786 0
M  V30 2368 H 223.674 3.96627 0.277923 0
M  V30 2369 N 224.671 0.411399 1.52136 0
M  V30 2370 C 225.948 -0.222308 1.94333 0
M  V30 2371 C 226.328 -1.6242 1.34844 0
M  V30 2372 O 225.676 -2.22384 0.525145 0
M  V30 2373 C 225.886 -0.226345 3.48265 0
M  V30 2374 C 227.234 -0.444592 4.22266 0
M  V30 2375 O 228.258 -0.305602 3.54887 0
M  V30 2376 O 227.117 -0.718749 5.41753 0
M  V30 2377 H 224.211 -0.143907 0.814383 0
M  V30 2378 H 226.757 0.467506 1.63133 0
M  V30 2379 H 225.529 0.75475 3.83952 0
M  V30 2380 H 225.152 -0.960163 3.85832 0
M  V30 2381 N 226.149 -1.5696 0.141893 0
M  V30 2382 C 227.059 -2.20066 -0.812905 0
M  V30 2383 C 228.075 -1.18344 -1.27557 0
M  V30 2384 O 229.251 -1.50902 -1.33381 0
M  V30 2385 C 226.316 -2.80583 -2.03652 0
M  V30 2386 C 225.377 -3.97414 -1.62359 0
M  V30 2387 C 224.61 -4.55036 -2.78887 0
M  V30 2388 O 224.833 -4.11538 -3.94959 0
M  V30 2389 O 223.767 -5.45376 -2.54653 0
M  V30 2390 H 227.593 -3.02157 -0.305746 0
M  V30 2391 H 225.178 -1.49159 -0.0848799 0
M  V30 2392 H 227.06 -3.19067 -2.75272 0
M  V30 2393 H 225.735 -2.01508 -2.5333 0
M  V30 2394 H 224.642 -3.63656 -0.877775 0
M  V30 2395 H 225.975 -4.77994 -1.17401 0
M  V30 2396 N 227.627 0.131896 -1.57047 0
M  V30 2397 C 228.574 1.16236 -1.99393 0
M  V30 2398 C 229.544 1.41863 -0.863943 0
M  V30 2399 O 230.729 1.53946 -1.12718 0
M  V30 2400 C 227.869 2.48708 -2.39245 0
M  V30 2401 C 226.982 2.30127 -3.65603 0
M  V30 2402 C 226.117 3.55738 -3.94492 0
M  V30 2403 C 225.156 3.32259 -5.14073 0
M  V30 2404 N 224.293 4.50039 -5.38896 0
M  V30 2405 H 229.133 0.794251 -2.87221 0
M  V30 2406 H 226.67 0.380707 -1.42088 0
M  V30 2407 H 228.628 3.25969 -2.60384 0
M  V30 2408 H 227.258 2.83437 -1.54478 0
M  V30 2409 H 226.31 1.43845 -3.52154 0
M  V30 2410 H 227.622 2.08746 -4.5302 0
M  V30 2411 H 226.776 4.41423 -4.1621 0
M  V30 2412 H 225.515 3.80138 -3.05526 0
M  V30 2413 H 224.52 2.44963 -4.92212 0
M  V30 2414 H 225.745 3.09242 -6.04604 0
M  V30 2415 H 223.691 4.74584 -4.52886 0
M  V30 2416 H 223.608 4.31716 -6.2061 0
M  V30 2417 H 224.876 5.36895 -5.65123 0
M  V30 2418 N 229.106 1.52395 0.401703 0
M  V30 2419 C 230.039 1.70999 1.51111 0
M  V30 2420 C 231.017 0.55765 1.52738 0
M  V30 2421 O 232.201 0.785912 1.71335 0
M  V30 2422 C 229.328 1.75607 2.8962 0
M  V30 2423 C 228.374 2.97227 3.05873 0
M  V30 2424 S 229.207 4.57439 2.78405 0
M  V30 2425 C 230.363 4.64844 4.19131 0
M  V30 2426 H 230.596 2.6483 1.35102 0
M  V30 2427 H 228.129 1.42527 0.593762 0
M  V30 2428 H 230.087 1.78947 3.69443 0
M  V30 2429 H 228.748 0.828914 3.02965 0
M  V30 2430 H 227.941 2.96955 4.07227 0
M  V30 2431 H 227.543 2.91813 2.33925 0
M  V30 2432 H 229.835 4.42677 5.12877 0
M  V30 2433 H 230.778 5.66807 4.24424 0
M  V30 2434 H 231.186 3.93804 4.04448 0
M  V30 2435 N 230.584 -0.659388 1.43143 0
M  V30 2436 C 231.995 -1.24041 1.39537 0
M  V30 2437 C 232.346 -1.95963 0.0963364 0
M  V30 2438 O 231.471 -2.00892 -0.804438 0
M  V30 2439 C 232.066 -2.25601 2.52764 0
M  V30 2440 C 230.625 -2.79195 2.52443 0
M  V30 2441 C 229.772 -1.53743 2.30778 0
M  V30 2442 H 232.723 -0.451792 1.52133 0
M  V30 2443 H 232.744 -3.07651 2.23899 0
M  V30 2444 H 232.256 -1.73226 3.47296 0
M  V30 2445 H 230.357 -3.35649 1.61773 0
M  V30 2446 H 230.47 -3.2716 3.50004 0
M  V30 2447 H 228.834 -1.80869 1.79328 0
M  V30 2448 H 229.617 -1.03312 3.27386 0
M  V30 2449 N 232.062 -1.29571 -0.897171 0
M  V30 2450 C 233.339 -1.08365 -1.62839 0
M  V30 2451 C 233.719 0.371331 -2.07808 0
M  V30 2452 O 233.067 1.3606 -1.83576 0
M  V30 2453 C 233.277 -2.0735 -2.80726 0
M  V30 2454 C 234.625 -2.38406 -3.51351 0
M  V30 2455 O 235.649 -2.05564 -2.90898 0
M  V30 2456 O 234.508 -2.9453 -4.60341 0
M  V30 2457 H 231.602 -0.415345 -0.715134 0
M  V30 2458 H 234.148 -1.40952 -0.945018 0
M  V30 2459 H 232.92 -3.05339 -2.44711 0
M  V30 2460 H 232.543 -1.75507 -3.56767 0
M  V30 2461 N 233.54 1.10788 -1.12088 0
M  V30 2462 C 234.47 2.19083 -0.807755 0
M  V30 2463 C 235.451 1.6858 0.226859 0
M  V30 2464 O 236.636 1.93997 0.0888475 0
M  V30 2465 C 233.766 3.46344 -0.257576 0
M  V30 2466 C 232.72 4.101 -1.22483 0
M  V30 2467 C 232.046 5.32016 -0.535052 0
M  V30 2468 C 233.346 4.54236 -2.57811 0
M  V30 2469 H 235.04 2.45534 -1.71328 0
M  V30 2470 H 232.586 1.1801 -0.825205 0
M  V30 2471 H 234.539 4.21392 -0.0262679 0
M  V30 2472 H 233.263 3.19373 0.683278 0
M  V30 2473 H 231.922 3.37054 -1.44189 0
M  V30 2474 H 231.57 5.01319 0.410827 0
M  V30 2475 H 231.27 5.75625 -1.18024 0
M  V30 2476 H 232.794 6.09799 -0.312695 0
M  V30 2477 H 234.208 5.20575 -2.40155 0
M  V30 2478 H 232.605 5.08682 -3.18375 0
M  V30 2479 H 233.675 3.6734 -3.16528 0
M  V30 2480 N 235.018 0.912232 1.28515 0
M  V30 2481 C 235.928 0.404506 2.31086 0
M  V30 2482 C 236.944 -0.50707 1.66448 0
M  V30 2483 O 238.12 -0.393624 1.97516 0
M  V30 2484 C 235.185 -0.348572 3.44943 0
M  V30 2485 C 234.246 0.59604 4.25142 0
M  V30 2486 C 233.479 -0.121194 5.33562 0
M  V30 2487 O 233.702 -1.34317 5.5436 0
M  V30 2488 O 232.636 0.542716 5.99448 0
M  V30 2489 H 236.462 1.25579 2.76521 0
M  V30 2490 H 234.047 0.676998 1.33181 0
M  V30 2491 H 235.929 -0.77395 4.14232 0
M  V30 2492 H 234.604 -1.17571 3.01594 0
M  V30 2493 H 233.511 1.07079 3.58448 0
M  V30 2494 H 234.844 1.38995 4.72167 0
M  V30 2495 O 236.535 -1.39418 0.815163 0
M  V30 2496 H 237.226 -1.89641 0.394473 0
M  V30 END ATOM
M  V30 BEGIN BOND
M  V30 END BOND
M  V30 END CTAB
M  END
$$$$
