drugbank_target|Q15208 Serine/threonine-protein kinase 38 (DB12010)
 OpenBabel12092121133D

  0  0  0     0  0            999 V3000
M  V30 BEGIN CTAB
M  V30 COUNTS 7598 7683 0 0 0
M  V30 BEGIN ATOM
M  V30 1 H -0.908 1.98254 -0.117106 0
M  V30 2 N 0 1.576 0 0
M  V30 3 C 0.933 2.03868 1.02534 0
M  V30 4 C 1.911 0.928543 1.3348 0
M  V30 5 O 3.095 1.19667 1.45644 0
M  V30 6 C 0.222 2.43627 2.35294 0
M  V30 7 C -0.732 3.65373 2.2001 0
M  V30 8 S 0.101 5.13292 1.52614 0
M  V30 9 C 1.257 5.56322 2.86805 0
M  V30 10 H 1.49 2.90518 0.631377 0
M  V30 11 H -0.977 1.52953 0.210867 0
M  V30 12 H 0.981 2.67203 3.11629 0
M  V30 13 H -0.358 1.57376 2.7183 0
M  V30 14 H -1.165 3.90944 3.18086 0
M  V30 15 H -1.563 3.418 1.51819 0
M  V30 16 H 0.729 5.58782 3.83104 0
M  V30 17 H 1.672 6.56266 2.65933 0
M  V30 18 H 2.08 4.83886 2.90714 0
M  V30 19 N 1.4781 -0.272755 1.55222 0
M  V30 20 C 2.4411 -1.32041 1.87344 0
M  V30 21 C 3.4411 -1.42342 0.74803 0
M  V30 22 O 4.6311 -1.41488 1.0162 0
M  V30 23 C 1.7631 -2.70173 2.07893 0
M  V30 24 H 2.9561 -1.04789 2.80997 0
M  V30 25 H 0.5091 -0.51083 1.47717 0
M  V30 26 H 1.2441 -3.02605 1.16622 0
M  V30 27 H 1.0291 -2.64082 2.89833 0
M  V30 28 H 2.5191 -3.45869 2.34017 0
M  V30 29 N 2.9562 -1.48159 -0.537278 0
M  V30 30 C 3.8892 -1.567 -1.65893 0
M  V30 31 C 4.8672 -0.41787 -1.57139 0
M  V30 32 O 6.0512 -0.628461 -1.77715 0
M  V30 33 C 3.1782 -1.48818 -3.04255 0
M  V30 34 C 2.2242 -2.68482 -3.31391 0
M  V30 35 S 3.0572 -4.30516 -3.1846 0
M  V30 36 C 4.2132 -4.2522 -4.59281 0
M  V30 37 H 4.4462 -2.5159 -1.58397 0
M  V30 38 H 1.9792 -1.36602 -0.719672 0
M  V30 39 H 3.9372 -1.44958 -3.84054 0
M  V30 40 H 2.5982 -0.552777 -3.09198 0
M  V30 41 H 1.7912 -2.59085 -4.32309 0
M  V30 42 H 1.3932 -2.69567 -2.59248 0
M  V30 43 H 3.6852 -3.94703 -5.5065 0
M  V30 44 H 4.6282 -5.26292 -4.73732 0
M  V30 45 H 5.0362 -3.55791 -4.38261 0
M  V30 46 N 4.4343 0.785586 -1.36625 0
M  V30 47 C 5.6623 1.57448 -1.3423 0
M  V30 48 C 6.0773 1.88649 0.0755653 0
M  V30 49 O 5.4343 1.50414 1.03354 0
M  V30 50 C 5.4853 2.89316 -2.16745 0
M  V30 51 O 5.2063 2.59459 -3.53005 0
M  V30 52 C 6.7073 3.83606 -2.22174 0
M  V30 53 H 3.9273 0.488226 -0.4603 0
M  V30 54 H 6.4713 0.974733 -1.79775 0
M  V30 55 H 4.6263 3.4575 -1.74745 0
M  V30 56 H 5.0403 3.43804 -3.96105 0
M  V30 57 H 6.5143 4.73181 -2.8426 0
M  V30 58 H 6.9913 4.21734 -1.22627 0
M  V30 59 H 7.5973 3.33104 -2.64427 0
M  V30 60 N 5.9124 1.20967 1.01018 0
M  V30 61 C 7.1604 1.02172 1.74371 0
M  V30 62 C 7.4814 -0.446414 1.89821 0
M  V30 63 O 6.7514 -1.32234 1.44537 0
M  V30 64 H 5.3314 0.375066 0.646014 0
M  V30 65 H 7.9934 1.52187 1.21758 0
M  V30 66 H 7.0894 1.48538 2.74487 0
M  V30 67 N 7.3905 -1.2043 1.01659 0
M  V30 68 C 8.6155 -1.94318 0.724942 0
M  V30 69 C 9.0405 -1.74266 -0.708034 0
M  V30 70 O 8.3985 -1.03694 -1.48719 0
M  V30 71 C 8.4465 -3.44486 1.06591 0
M  V30 72 O 7.5505 -4.12017 0.177599 0
M  V30 73 H 6.8915 -0.60708 0.26898 0
M  V30 74 H 9.4215 -1.52861 1.35995 0
M  V30 75 H 9.4315 -3.95106 1.01762 0
M  V30 76 H 8.1065 -3.58404 2.10997 0
M  V30 77 H 6.6835 -3.71821 0.283421 0
M  V30 78 N 8.8686 -0.792821 -1.36206 0
M  V30 79 C 10.0966 -0.378825 -2.03402 0
M  V30 80 C 10.5116 1.00586 -1.59774 0
M  V30 81 O 9.8686 1.64574 -0.788764 0
M  V30 82 C 9.9196 -0.43683 -3.58851 0
M  V30 83 O 9.6406 -1.76691 -4.00889 0
M  V30 84 C 11.1416 -0.0138943 -4.43298 0
M  V30 85 H 8.3616 -0.155673 -0.652692 0
M  V30 86 H 10.9056 -1.07261 -1.74113 0
M  V30 87 H 9.0606 0.208575 -3.86838 0
M  V30 88 H 9.4746 -1.72011 -4.95492 0
M  V30 89 H 10.9486 -0.105615 -5.51899 0
M  V30 90 H 11.4256 1.03915 -4.2673 0
M  V30 91 H 12.0316 -0.63192 -4.20579 0
M  V30 92 N 10.3467 1.47872 -0.545128 0
M  V30 93 C 11.7577 1.86384 -0.108581 0
M  V30 94 C 12.1087 1.45309 1.31832 0
M  V30 95 O 11.2337 0.850641 1.9898 0
M  V30 96 C 11.8287 3.38265 -0.190274 0
M  V30 97 C 10.3877 3.75914 0.191164 0
M  V30 98 C 9.5347 2.71926 -0.543273 0
M  V30 99 H 12.4857 1.39561 -0.755537 0
M  V30 100 H 12.5067 3.75831 0.594217 0
M  V30 101 H 12.0187 3.6813 -1.2289 0
M  V30 102 H 10.1197 3.51665 1.23136 0
M  V30 103 H 10.2327 4.78836 -0.158987 0
M  V30 104 H 8.5967 2.54697 0.0122495 0
M  V30 105 H 9.3797 3.04634 -1.58282 0
M  V30 106 N 11.8248 0.280983 1.55075 0
M  V30 107 C 13.0648 -0.335234 2.01632 0
M  V30 108 C 13.4288 -1.5261 1.16508 0
M  V30 109 O 14.6298 -2.21235 1.52672 0
M  V30 110 C 12.9008 -0.702172 3.50434 0
M  V30 111 S 14.4598 -1.30409 4.18974 0
M  V30 112 H 11.2778 -0.103967 0.703358 0
M  V30 113 H 13.8798 0.404187 1.91276 0
M  V30 114 H 12.5838 0.17333 4.10034 0
M  V30 115 H 12.1148 -1.4729 3.64786 0
M  V30 116 H 14.1298 -2.59253 4.23087 0
M  V30 117 N 13.3029 -1.57598 0.00835791 0
M  V30 118 C 14.5279 -1.95617 -0.689103 0
M  V30 119 C 14.9529 -0.883753 -1.66046 0
M  V30 120 O 14.3109 0.157352 -1.80616 0
M  V30 121 C 14.3589 -3.32736 -1.38994 0
M  V30 122 O 13.4629 -3.27631 -2.50463 0
M  V30 123 H 12.8039 -0.638379 -0.182668 0
M  V30 124 H 15.3339 -2.045 0.064036 0
M  V30 125 H 15.3439 -3.68494 -1.75147 0
M  V30 126 H 14.0189 -4.1034 -0.677778 0
M  V30 127 H 12.5959 -3.03561 -2.16576 0
M  V30 128 N 14.781 0.264519 -1.55364 0
M  V30 129 C 16.006 1.01726 -1.80739 0
M  V30 130 C 16.431 1.78836 -0.583044 0
M  V30 131 O 15.789 1.75167 0.467566 0
M  V30 132 C 15.837 1.94482 -3.03659 0
M  V30 133 O 14.941 3.03386 -2.7934 0
M  V30 134 H 14.282 0.290395 -0.597132 0
M  V30 135 H 16.812 0.290854 -2.02522 0
M  V30 136 H 16.822 2.36278 -3.32621 0
M  V30 137 H 15.497 1.37772 -3.92418 0
M  V30 138 H 14.074 2.65844 -2.61498 0
M  V30 139 N 16.2591 1.48442 0.529413 0
M  V30 140 C 17.1921 1.57577 1.65059 0
M  V30 141 C 18.1701 0.426198 1.56915 0
M  V30 142 O 19.3541 0.637877 1.77379 0
M  V30 143 C 16.4811 1.5043 3.03461 0
M  V30 144 C 15.5271 2.70235 3.29962 0
M  V30 145 S 16.3601 4.32198 3.16172 0
M  V30 146 C 17.5161 4.2765 4.57019 0
M  V30 147 H 17.7491 2.52427 1.5706 0
M  V30 148 H 15.2821 1.36982 0.712417 0
M  V30 149 H 17.2401 1.46992 3.8328 0
M  V30 150 H 15.9011 0.569167 3.089 0
M  V30 151 H 15.0941 2.61374 4.30929 0
M  V30 152 H 14.6961 2.70938 2.57815 0
M  V30 153 H 16.9881 3.97618 5.48549 0
M  V30 154 H 17.9311 5.28797 4.70934 0
M  V30 155 H 18.3391 3.5811 4.36368 0
M  V30 156 N 17.7372 -0.778329 1.37039 0
M  V30 157 C 18.9622 -1.57248 1.35233 0
M  V30 158 C 19.3872 -1.87999 -0.0615568 0
M  V30 159 O 18.7452 -1.48734 -1.03672 0
M  V30 160 C 18.7932 -2.86353 2.19167 0
M  V30 161 O 17.8972 -3.80442 1.59178 0
M  V30 162 H 17.2382 -0.476569 0.462362 0
M  V30 163 H 19.7682 -0.963853 1.80474 0
M  V30 164 H 19.7782 -3.35519 2.32145 0
M  V30 165 H 18.4532 -2.63299 3.21942 0
M  V30 166 H 17.0302 -3.39067 1.55203 0
M  V30 167 N 19.2153 -1.21501 -1.00376 0
M  V30 168 C 20.1633 -0.972442 -2.11297 0
M  V30 169 C 21.1573 0.080731 -1.69208 0
M  V30 170 O 22.3633 -0.0707666 -1.79861 0
M  V30 171 H 18.7383 -0.297218 -0.690772 0
M  V30 172 H 20.7093 -1.91394 -2.28934 0
M  V30 173 C 19.4583 -0.555065 -3.43241 0
M  V30 174 H 18.7813 -1.35709 -3.76062 0
M  V30 175 H 20.2213 -0.424664 -4.21868 0
M  V30 176 C 18.6803 0.734147 -3.28804 0
M  V30 177 O 19.2103 1.78937 -3.59645 0
M  V30 178 N 17.4163 0.701133 -2.82015 0
M  V30 179 H 16.9633 -0.157874 -2.57116 0
M  V30 180 H 16.9213 1.56403 -2.72737 0
M  V30 181 N 20.6934 1.19889 -1.02296 0
M  V30 182 C 21.6434 2.20777 -0.56934 0
M  V30 183 C 22.6274 1.56379 0.378741 0
M  V30 184 O 23.8194 1.75859 0.200673 0
M  V30 185 C 20.9484 3.43196 0.0845077 0
M  V30 186 C 20.0344 4.14749 -0.88566 0
M  V30 187 N 20.4254 4.62584 -2.04573 0
M  V30 188 C 18.7234 4.40347 -0.707835 0
M  V30 189 C 19.4244 5.17466 -2.65714 0
M  V30 190 N 18.4004 5.0791 -1.93723 0
M  V30 191 H 22.2024 2.55434 -1.45365 0
M  V30 192 H 19.7164 1.35897 -0.88915 0
M  V30 193 H 21.7134 4.14707 0.427067 0
M  V30 194 H 20.3734 3.10042 0.964574 0
M  V30 195 H 21.3844 4.57597 -2.4254 0
M  V30 196 H 18.0614 4.17317 0.12364 0
M  V30 197 H 19.4514 5.64808 -3.63925 0
M  V30 198 N 22.1715 0.800033 1.35784 0
M  V30 199 C 23.3995 0.389606 2.03199 0
M  V30 200 C 23.8145 -0.997375 1.60306 0
M  V30 201 O 23.1715 -1.64154 0.797481 0
M  V30 202 C 23.2225 0.455855 3.58614 0
M  V30 203 O 22.9435 1.78815 3.99946 0
M  V30 204 C 24.4445 0.0374032 4.43284 0
M  V30 205 H 21.6645 0.159132 0.651857 0
M  V30 206 H 24.2085 1.08183 1.73541 0
M  V30 207 H 22.3635 -0.188057 3.86943 0
M  V30 208 H 22.7775 1.74636 4.94573 0
M  V30 209 H 24.2515 0.134882 5.51835 0
M  V30 210 H 24.7285 -1.01651 4.27275 0
M  V30 211 H 25.3345 0.654215 4.20238 0
M  V30 212 N 23.6496 -1.47581 0.552962 0
M  V30 213 C 24.5966 -2.29957 -0.197108 0
M  V30 214 C 25.5666 -1.38799 -0.912359 0
M  V30 215 O 26.7516 -1.67761 -0.908888 0
M  V30 216 C 23.8916 -3.22672 -1.22379 0
M  V30 217 C 23.0046 -4.28919 -0.515038 0
M  V30 218 C 22.1396 -5.0879 -1.52664 0
M  V30 219 C 21.1786 -6.06815 -0.802631 0
M  V30 220 N 20.3156 -6.7966 -1.76086 0
M  V30 221 H 25.1556 -2.93578 0.511486 0
M  V30 222 H 22.6926 -1.4471 0.264067 0
M  V30 223 H 24.6506 -3.74845 -1.83159 0
M  V30 224 H 23.2806 -2.60925 -1.90047 0
M  V30 225 H 22.3326 -3.79835 0.207192 0
M  V30 226 H 23.6446 -4.98773 0.0523425 0
M  V30 227 H 22.7986 -5.65091 -2.20809 0
M  V30 228 H 21.5376 -4.38828 -2.12794 0
M  V30 229 H 20.5426 -5.49695 -0.107238 0
M  V30 230 H 21.7676 -6.78784 -0.207135 0
M  V30 231 H 19.7136 -6.12432 -2.35081 0
M  V30 232 H 19.6306 -7.45669 -1.24552 0
M  V30 233 H 20.8986 -7.40538 -2.43359 0
M  V30 234 N 25.1277 -0.289203 -1.54924 0
M  V30 235 C 26.0377 0.601863 -2.26748 0
M  V30 236 C 27.0537 1.15834 -1.2984 0
M  V30 237 O 28.2297 1.18564 -1.62802 0
M  V30 238 C 25.2947 1.76299 -2.98529 0
M  V30 239 C 24.3557 1.24178 -4.10948 0
M  V30 240 C 23.5887 2.34757 -4.79296 0
M  V30 241 O 23.8117 3.54411 -4.46933 0
M  V30 242 O 22.7457 2.02115 -5.66951 0
M  V30 243 H 26.5717 0.0195879 -3.03694 0
M  V30 244 H 24.1567 -0.0560868 -1.49295 0
M  V30 245 H 26.0387 2.43973 -3.43592 0
M  V30 246 H 24.7137 2.33209 -2.24488 0
M  V30 247 H 23.6207 0.531104 -3.70311 0
M  V30 248 H 24.9537 0.718252 -4.86931 0
M  V30 249 N 26.6058 1.57591 -0.0167156 0
M  V30 250 C 28.0218 1.55946 0.339557 0
M  V30 251 C 28.2218 1.02109 1.73713 0
M  V30 252 O 27.2778 0.662303 2.43659 0
M  V30 253 C 28.5908 3.00037 0.199499 0
M  V30 254 C 30.1388 3.11805 0.273193 0
M  V30 255 C 30.6138 4.57713 0.162068 0
M  V30 256 N 32.1048 4.6268 0.219444 0
M  V30 257 C 32.8398 5.73185 0.157054 0
M  V30 258 N 32.3358 6.92786 0.0442936 0
M  V30 259 N 34.1288 5.61707 0.21014 0
M  V30 260 H 26.2798 1.90921 -0.930758 0
M  V30 261 H 28.5428 0.877674 -0.358319 0
M  V30 262 H 28.2488 3.4333 -0.76273 0
M  V30 263 H 28.1228 3.64387 0.974786 0
M  V30 264 H 30.5098 2.68433 1.22587 0
M  V30 265 H 30.5908 2.50201 -0.532256 0
M  V30 266 H 30.2348 5.01763 -0.78714 0
M  V30 267 H 30.1648 5.17283 0.986222 0
M  V30 268 H 32.6558 3.76649 0.307246 0
M  V30 269 H 32.9688 7.728 0.00304069 0
M  V30 270 H 31.3138 6.94999 0.00968457 0
M  V30 271 H 34.5048 4.6716 0.296546 0
M  V30 272 H 34.6778 6.47807 0.158054 0
M  V30 273 N 28.0839 -0.256276 1.55502 0
M  V30 274 C 29.3299 -0.987079 1.77157 0
M  V30 275 C 29.6629 -1.85327 0.580315 0
M  V30 276 O 28.9379 -1.89874 -0.421686 0
M  V30 277 C 29.2209 -1.85553 3.08613 0
M  V30 278 C 29.0739 -1.01816 4.38125 0
M  V30 279 C 30.3929 -2.8397 3.36228 0
M  V30 280 H 27.5119 -0.357428 0.644526 0
M  V30 281 H 30.1539 -0.258239 1.88237 0
M  V30 282 H 28.3039 -2.47695 2.99298 0
M  V30 283 H 29.9759 -0.416159 4.59419 0
M  V30 284 H 28.2189 -0.322178 4.32602 0
M  V30 285 H 28.8899 -1.65939 5.26468 0
M  V30 286 H 31.3659 -2.31964 3.45445 0
M  V30 287 H 30.2419 -3.41864 4.29442 0
M  V30 288 H 30.5029 -3.59955 2.56681 0
M  V30 289 N 29.562 -1.4872 -0.521534 0
M  V30 290 C 30.79 -1.60843 -1.30142 0
M  V30 291 C 31.205 -0.271897 -1.86832 0
M  V30 292 O 30.562 0.739969 -1.66825 0
M  V30 293 C 30.613 -2.66155 -2.4463 0
M  V30 294 O 30.334 -3.94623 -1.90275 0
M  V30 295 C 31.835 -2.88795 -3.36322 0
M  V30 296 H 29.055 -0.542075 -0.395468 0
M  V30 297 H 31.599 -1.94609 -0.628285 0
M  V30 298 H 29.754 -2.35224 -3.07812 0
M  V30 299 H 30.168 -4.52468 -2.65279 0
M  V30 300 H 31.642 -3.66264 -4.12983 0
M  V30 301 H 32.119 -1.97934 -3.9207 0
M  V30 302 H 32.725 -3.21063 -2.78924 0
M  V30 303 N 31.0401 0.771051 -1.3745 0
M  V30 304 C 31.9731 1.89166 -1.27638 0
M  V30 305 C 32.9511 1.61842 -0.156782 0
M  V30 306 O 34.1351 1.85569 -0.331111 0
M  V30 307 C 31.2621 3.24405 -0.973621 0
M  V30 308 C 30.3081 3.70638 -2.1102 0
M  V30 309 S 31.1411 3.84228 -3.73 0
M  V30 310 C 32.2971 5.22313 -3.44876 0
M  V30 311 H 32.5301 1.972 -2.22485 0
M  V30 312 H 30.0631 0.932224 -1.23081 0
M  V30 313 H 32.0211 4.02514 -0.805766 0
M  V30 314 H 30.6821 3.14071 -0.0426279 0
M  V30 315 H 29.8751 4.68685 -1.85338 0
M  V30 316 H 29.4771 2.99632 -2.23822 0
M  V30 317 H 31.7691 6.07505 -2.99908 0
M  V30 318 H 32.7121 5.53008 -4.42253 0
M  V30 319 H 33.1201 4.90284 -2.79789 0
M  V30 320 N 32.5182 1.22032 0.997298 0
M  V30 321 C 33.7462 1.06841 1.7718 0
M  V30 322 C 34.1612 -0.381325 1.84909 0
M  V30 323 O 33.5182 -1.26437 1.31605 0
M  V30 324 C 33.5692 1.66814 3.20711 0
M  V30 325 O 33.2902 3.06116 3.13408 0
M  V30 326 C 34.7912 1.56838 4.14628 0
M  V30 327 H 32.0112 0.374782 0.556578 0
M  V30 328 H 34.5552 1.61532 1.2541 0
M  V30 329 H 32.7102 1.16196 3.69564 0
M  V30 330 H 33.1242 3.34926 4.0364 0
M  V30 331 H 34.5982 2.03532 5.13107 0
M  V30 332 H 35.0752 0.524155 4.36061 0
M  V30 333 H 35.6812 2.06741 3.7167 0
M  V30 334 N 33.9963 -1.19345 1.0293 0
M  V30 335 C 34.9433 -2.2258 0.610464 0
M  V30 336 C 35.9133 -1.6179 -0.375946 0
M  V30 337 O 37.0983 -1.88844 -0.272511 0
M  V30 338 C 34.2383 -3.45085 -0.0321473 0
M  V30 339 C 33.3513 -4.20258 1.00035 0
M  V30 340 C 32.4863 -5.3019 0.32746 0
M  V30 341 C 31.5253 -5.97121 1.34584 0
M  V30 342 N 30.6623 -6.98615 0.698726 0
M  V30 343 H 35.5023 -2.57764 1.49538 0
M  V30 344 H 33.0393 -1.26644 0.748311 0
M  V30 345 H 34.9973 -4.15061 -0.421966 0
M  V30 346 H 33.6273 -3.10555 -0.88064 0
M  V30 347 H 32.6793 -3.49223 1.50823 0
M  V30 348 H 33.9913 -4.66175 1.77433 0
M  V30 349 H 33.1453 -6.06587 -0.11718 0
M  V30 350 H 31.8843 -4.85345 -0.478713 0
M  V30 351 H 30.8893 -5.19474 1.80074 0
M  V30 352 H 32.1143 -6.4405 2.15352 0
M  V30 353 H 30.0603 -6.55942 -0.0873471 0
M  V30 354 H 29.9773 -7.42724 1.41058 0
M  V30 355 H 31.2453 -7.79004 0.278102 0
M  V30 356 N 35.4744 -0.807222 -1.35358 0
M  V30 357 C 36.7204 -0.388463 -1.99045 0
M  V30 358 C 37.0534 1.04184 -1.63888 0
M  V30 359 O 36.3284 1.72292 -0.902535 0
M  V30 360 C 36.6114 -0.572783 -3.55515 0
M  V30 361 C 36.4644 -2.04807 -4.00468 0
M  V30 362 C 37.7834 0.00114064 -4.401 0
M  V30 363 H 34.9024 -0.142619 -0.723069 0
M  V30 364 H 37.5444 -1.01687 -1.60498 0
M  V30 365 H 35.6944 -0.0378425 -3.88482 0
M  V30 366 H 37.3664 -2.64544 -3.77908 0
M  V30 367 H 35.6094 -2.54427 -3.51353 0
M  V30 368 H 36.2804 -2.12792 -5.09337 0
M  V30 369 H 38.7564 -0.455716 -4.13597 0
M  V30 370 H 37.6324 -0.157737 -5.48673 0
M  V30 371 H 37.8934 1.09488 -4.28328 0
M  V30 372 N 36.9525 1.47285 -0.560781 0
M  V30 373 C 38.1805 2.06855 -0.0430262 0
M  V30 374 C 38.5955 1.41291 1.25229 0
M  V30 375 O 37.9525 0.510648 1.7521 0
M  V30 376 C 38.0035 3.61178 0.152518 0
M  V30 377 O 37.7245 4.24285 -1.0915 0
M  V30 378 C 39.2255 4.37624 0.707145 0
M  V30 379 H 36.4455 0.669319 -0.0474652 0
M  V30 380 H 38.9895 1.89237 -0.77521 0
M  V30 381 H 37.1445 3.78298 0.834843 0
M  V30 382 H 37.5585 5.16868 -0.891482 0
M  V30 383 H 39.0325 5.46271 0.793244 0
M  V30 384 H 39.5095 4.04152 1.71923 0
M  V30 385 H 40.1155 4.25257 0.0604027 0
M  V30 386 N 38.4306 0.297415 1.54768 0
M  V30 387 C 39.3606 -0.573494 2.26348 0
M  V30 388 C 40.3416 -1.14085 1.26169 0
M  V30 389 O 41.5266 -1.17086 1.54934 0
M  V30 390 C 38.6566 -1.74716 3.00153 0
M  V30 391 C 37.6106 -1.31032 4.07449 0
M  V30 392 C 36.9366 -2.56887 4.68949 0
M  V30 393 C 38.2366 -0.444183 5.20408 0
M  V30 394 H 39.9306 0.0235131 2.99391 0
M  V30 395 H 37.4766 0.0127488 1.43994 0
M  V30 396 H 39.4296 -2.3625 3.48947 0
M  V30 397 H 38.1536 -2.37035 2.24682 0
M  V30 398 H 36.8126 -0.718066 3.59499 0
M  V30 399 H 36.4606 -3.17512 3.90122 0
M  V30 400 H 36.1606 -2.2836 5.41411 0
M  V30 401 H 37.6846 -3.19229 5.20505 0
M  V30 402 H 39.0986 -0.9651 5.65118 0
M  V30 403 H 37.4956 -0.252846 5.99567 0
M  V30 404 H 38.5656 0.531609 4.81977 0
M  V30 405 N 39.9087 -1.5758 0.0250728 0
M  V30 406 C 40.8187 -2.1343 -0.973905 0
M  V30 407 C 41.8347 -1.08556 -1.35984 0
M  V30 408 O 43.0107 -1.40592 -1.44207 0
M  V30 409 C 40.0757 -2.64703 -2.23904 0
M  V30 410 C 39.1367 -3.84276 -1.91391 0
M  V30 411 C 38.3697 -4.33095 -3.11873 0
M  V30 412 O 38.5927 -3.81107 -4.24398 0
M  V30 413 O 37.5267 -5.24984 -2.94406 0
M  V30 414 H 41.3527 -2.99057 -0.529036 0
M  V30 415 H 38.9377 -1.48118 -0.195288 0
M  V30 416 H 40.8197 -2.97769 -2.98181 0
M  V30 417 H 39.4947 -1.82161 -2.6758 0
M  V30 418 H 38.4017 -3.56143 -1.14511 0
M  V30 419 H 39.7347 -4.67968 -1.52534 0
M  V30 420 N 41.3868 0.248026 -1.55636 0
M  V30 421 C 42.3348 1.32683 -1.91045 0
M  V30 422 C 43.3288 1.49883 -0.789401 0
M  V30 423 O 44.5348 1.51371 -0.974007 0
M  V30 424 H 40.9098 0.444272 -0.606734 0
M  V30 425 H 42.8808 1.00085 -2.81115 0
M  V30 426 C 41.6298 2.6755 -2.22064 0
M  V30 427 H 40.9528 2.55114 -3.07826 0
M  V30 428 H 42.3928 3.41912 -2.50743 0
M  V30 429 C 40.8518 3.20556 -1.0366 0
M  V30 430 O 41.3818 4.00695 -0.284016 0
M  V30 431 N 39.5878 2.78568 -0.82753 0
M  V30 432 H 39.1348 2.1351 -1.44123 0
M  V30 433 H 39.0928 3.14378 -0.0369803 0
M  V30 434 N 42.8649 1.48995 0.513639 0
M  V30 435 C 44.1119 1.57843 1.26854 0
M  V30 436 C 44.4399 0.259501 1.92761 0
M  V30 437 O 43.6949 -0.75159 1.80692 0
M  V30 438 C 43.9939 2.67756 2.36731 0
M  V30 439 C 43.6599 4.09669 1.88368 0
M  V30 440 C 42.3219 4.48291 1.74896 0
M  V30 441 C 44.6739 4.98537 1.52021 0
M  V30 442 C 42.0019 5.73568 1.23438 0
M  V30 443 C 44.3539 6.24319 1.0202 0
M  V30 444 C 43.0179 6.61783 0.871778 0
M  V30 445 H 42.2879 0.577587 0.464192 0
M  V30 446 H 44.9349 1.82778 0.571366 0
M  V30 447 H 43.2399 2.36743 3.12185 0
M  V30 448 H 44.9369 2.71813 2.9482 0
M  V30 449 H 41.5269 3.79176 1.99808 0
M  V30 450 H 45.7109 4.69363 1.61281 0
M  V30 451 H 40.9669 6.01304 1.10648 0
M  V30 452 H 45.1409 6.92566 0.729722 0
M  V30 453 H 42.7679 7.5874 0.470852 0
M  V30 454 N 44.343 -0.763751 1.37857 0
M  V30 455 C 45.573 -1.55067 1.3652 0
M  V30 456 C 45.981 -1.89135 -0.0494227 0
M  V30 457 O 45.324 -1.52529 -1.02375 0
M  V30 458 C 45.386 -2.8838 2.14656 0
M  V30 459 C 45.05 -2.76905 3.63555 0
M  V30 460 C 46.047 -2.4739 4.57268 0
M  V30 461 C 43.732 -2.94676 4.06781 0
M  V30 462 C 45.726 -2.35786 5.92186 0
M  V30 463 C 43.413 -2.82692 5.41782 0
M  V30 464 C 44.411 -2.53289 6.34298 0
M  V30 465 O 44.099 -2.41345 7.66817 0
M  V30 466 H 43.831 -0.486776 0.469069 0
M  V30 467 H 46.385 -0.953812 1.81911 0
M  V30 468 H 44.615 -3.50217 1.63967 0
M  V30 469 H 46.304 -3.49828 2.05852 0
M  V30 470 H 47.07 -2.33339 4.2518 0
M  V30 471 H 42.949 -3.16563 3.35126 0
M  V30 472 H 46.493 -2.12757 6.64365 0
M  V30 473 H 42.39 -2.96314 5.7347 0
M  V30 474 H 43.158 -2.56634 7.77226 0
M  V30 475 N 45.8211 -1.22559 -0.990812 0
M  V30 476 C 47.0461 -1.07862 -1.77145 0
M  V30 477 C 47.4711 0.366447 -1.84496 0
M  V30 478 O 46.8291 1.26478 -1.29896 0
M  V30 479 C 46.8771 -1.69686 -3.18181 0
M  V30 480 O 45.9811 -0.951946 -4.01263 0
M  V30 481 H 45.3221 -0.378712 -0.545411 0
M  V30 482 H 47.8521 -1.62399 -1.2445 0
M  V30 483 H 47.8621 -1.74496 -3.68802 0
M  V30 484 H 46.5371 -2.74841 -3.12146 0
M  V30 485 H 45.1141 -0.980011 -3.59792 0
M  V30 486 N 47.2992 1.18797 -1.03562 0
M  V30 487 C 48.2472 2.24297 -0.615905 0
M  V30 488 C 49.2412 1.65643 0.354808 0
M  V30 489 O 50.4472 1.78618 0.22265 0
M  V30 490 H 46.8222 0.729909 -0.180934 0
M  V30 491 H 48.7932 2.5701 -1.5162 0
M  V30 492 C 47.5422 3.47698 0.0104735 0
M  V30 493 H 46.8652 3.93125 -0.727509 0
M  V30 494 H 48.3052 4.23159 0.266995 0
M  V30 495 C 46.7642 3.12489 1.25905 0
M  V30 496 O 47.2942 3.25761 2.35038 0
M  V30 497 N 45.5002 2.6686 1.15039 0
M  V30 498 H 45.0472 2.56261 0.262328 0
M  V30 499 H 45.0052 2.43674 1.98672 0
M  V30 500 N 48.7773 0.814389 1.34928 0
M  V30 501 C 49.7073 0.244827 2.32213 0
M  V30 502 C 50.6883 -0.634024 1.57842 0
M  V30 503 O 51.8733 -0.562676 1.8587 0
M  V30 504 C 49.0033 -0.601106 3.42058 0
M  V30 505 C 47.9573 0.179896 4.27622 0
M  V30 506 C 47.2833 -0.788237 5.28858 0
M  V30 507 C 48.5833 1.38329 5.03649 0
M  V30 508 H 50.2773 1.05763 2.80097 0
M  V30 509 H 47.8233 0.510029 1.34665 0
M  V30 510 H 49.7763 -1.00968 4.09125 0
M  V30 511 H 48.5003 -1.44688 2.92802 0
M  V30 512 H 47.1593 0.569739 3.62146 0
M  V30 513 H 46.8073 -1.62973 4.75866 0
M  V30 514 H 46.5073 -0.269942 5.8698 0
M  V30 515 H 48.0313 -1.19485 5.98795 0
M  V30 516 H 49.4453 1.04918 5.63618 0
M  V30 517 H 47.8423 1.83662 5.71304 0
M  V30 518 H 48.9123 2.16592 4.33839 0
M  V30 519 N 50.2554 -1.46986 0.568584 0
M  V30 520 C 51.5044 -2.01646 0.0465894 0
M  V30 521 C 51.8174 -1.44721 -1.31587 0
M  V30 522 O 53.0234 -1.91113 -1.92842 0
M  V30 523 C 51.4794 -3.59885 0.032752 0
M  V30 524 C 51.0874 -4.25804 1.39266 0
M  V30 525 C 52.8314 -4.22255 -0.436038 0
M  V30 526 C 50.7384 -5.76081 1.33732 0
M  V30 527 H 49.6684 -0.753876 0.013647 0
M  V30 528 H 52.3194 -1.68864 0.718131 0
M  V30 529 H 50.7014 -3.8968 -0.704669 0
M  V30 530 H 51.8754 -4.07637 2.1487 0
M  V30 531 H 50.1904 -3.7547 1.80032 0
M  V30 532 H 52.7874 -5.32394 -0.49602 0
M  V30 533 H 53.1304 -3.90212 -1.45053 0
M  V30 534 H 53.6634 -3.97033 0.246877 0
M  V30 535 H 50.4024 -6.12761 2.32817 0
M  V30 536 H 49.9224 -5.96553 0.623267 0
M  V30 537 H 51.6014 -6.38518 1.0442 0
M  V30 538 N 51.7335 -0.305618 -1.54608 0
M  V30 539 C 52.6965 0.555591 -2.22364 0
M  V30 540 C 53.6965 1.05768 -1.21119 0
M  V30 541 O 54.8865 0.952972 -1.45822 0
M  V30 542 C 52.0185 1.76974 -2.91364 0
M  V30 543 H 53.2115 -0.0364572 -2.99878 0
M  V30 544 H 50.7645 -0.0565007 -1.56198 0
M  V30 545 H 51.4995 2.40151 -2.17941 0
M  V30 546 H 51.2845 1.41732 -3.65588 0
M  V30 547 H 52.7745 2.38148 -3.43038 0
M  V30 548 N 53.2116 1.57565 -0.0334293 0
M  V30 549 C 54.1436 2.0739 0.975811 0
M  V30 550 C 55.1566 0.998166 1.2861 0
M  V30 551 O 56.3456 1.27426 1.25 0
M  V30 552 C 53.4456 2.4871 2.30209 0
M  V30 553 C 52.6186 3.79413 2.17634 0
M  V30 554 C 51.6776 4.07237 3.33233 0
M  V30 555 O 50.7036 4.77425 3.09927 0
M  V30 556 N 51.9056 3.5775 4.5716 0
M  V30 557 H 54.6706 2.94598 0.55066 0
M  V30 558 H 52.2316 1.61173 0.15323 0
M  V30 559 H 54.2236 2.64413 3.06378 0
M  V30 560 H 52.7936 1.66845 2.64351 0
M  V30 561 H 52.0136 3.73465 1.26165 0
M  V30 562 H 53.3016 4.65038 2.0644 0
M  V30 563 H 52.6996 3.00976 4.78989 0
M  V30 564 H 51.2566 3.78724 5.30482 0
M  V30 565 N 54.6897 -0.239769 1.55765 0
M  V30 566 C 55.6397 -1.30002 1.87306 0
M  V30 567 C 56.6237 -1.43156 0.73452 0
M  V30 568 O 57.8157 -1.46277 0.99659 0
M  V30 569 C 54.9447 -2.65409 2.17745 0
M  V30 570 C 54.0307 -2.56231 3.37945 0
M  V30 571 N 54.4217 -2.16689 4.57033 0
M  V30 572 C 52.7197 -2.87229 3.41197 0
M  V30 573 C 53.4207 -2.18318 5.39177 0
M  V30 574 N 52.3967 -2.58098 4.78421 0
M  V30 575 H 56.1987 -0.984912 2.76906 0
M  V30 576 H 53.7127 -0.448381 1.56087 0
M  V30 577 H 55.7097 -3.41934 2.38509 0
M  V30 578 H 54.3697 -2.97781 1.29448 0
M  V30 579 H 55.3807 -1.88116 4.82528 0
M  V30 580 H 52.0577 -3.24094 2.63191 0
M  V30 581 H 53.4477 -1.90025 6.44469 0
M  V30 582 N 56.1678 -1.49265 -0.50573 0
M  V30 583 C 57.0778 -1.68312 -1.63427 0
M  V30 584 C 58.0938 -0.565682 -1.64548 0
M  V30 585 O 59.2698 -0.839801 -1.83055 0
M  V30 586 C 56.3348 -1.74107 -2.99813 0
M  V30 587 C 55.3958 -2.97653 -3.09356 0
M  V30 588 C 54.6288 -3.03163 -4.39236 0
M  V30 589 O 54.8518 -2.16396 -5.27758 0
M  V30 590 O 53.7858 -3.9558 -4.53652 0
M  V30 591 H 57.6118 -2.63907 -1.50289 0
M  V30 592 H 55.1968 -1.32951 -0.681502 0
M  V30 593 H 57.0788 -1.803 -3.80881 0
M  V30 594 H 55.7538 -0.816901 -3.13223 0
M  V30 595 H 54.6608 -2.96981 -2.27493 0
M  V30 596 H 55.9938 -3.89535 -3.00871 0
M  V30 597 N 57.6459 0.756429 -1.3826 0
M  V30 598 C 58.5559 1.9009 -1.37488 0
M  V30 599 C 59.5719 1.71855 -0.272366 0
M  V30 600 O 60.7479 1.94827 -0.510318 0
M  V30 601 C 57.8129 3.25421 -1.19592 0
M  V30 602 C 56.8739 3.56202 -2.39622 0
M  V30 603 C 56.1069 4.85075 -2.2257 0
M  V30 604 O 56.3299 5.57246 -1.21793 0
M  V30 605 O 55.2639 5.15269 -3.11098 0
M  V30 606 H 59.0899 1.93695 -2.33914 0
M  V30 607 H 56.6749 0.901313 -1.1915 0
M  V30 608 H 58.5569 4.06337 -1.11661 0
M  V30 609 H 57.2319 3.22634 -0.262486 0
M  V30 610 H 56.1389 2.75458 -2.53128 0
M  V30 611 H 57.4719 3.63747 -3.31586 0
M  V30 612 N 59.124 1.23083 0.984299 0
M  V30 613 C 60.54 0.992637 1.24975 0
M  V30 614 C 60.74 -0.308618 1.99123 0
M  V30 615 O 59.796 -1.02905 2.30579 0
M  V30 616 C 61.109 2.19698 2.05312 0
M  V30 617 C 62.657 2.24147 2.18465 0
M  V30 618 C 63.132 3.44157 3.02192 0
M  V30 619 N 64.623 3.44372 3.09777 0
M  V30 620 C 65.358 4.33886 3.74874 0
M  V30 621 N 64.854 5.3363 4.41827 0
M  V30 622 N 66.647 4.21639 3.71721 0
M  V30 623 H 58.798 2.06731 0.487453 0
M  V30 624 H 61.061 0.906339 0.277944 0
M  V30 625 H 60.767 3.1411 1.58201 0
M  V30 626 H 60.641 2.20465 3.06064 0
M  V30 627 H 63.028 1.30277 2.64786 0
M  V30 628 H 63.109 2.27415 1.17115 0
M  V30 629 H 62.753 4.38332 2.56568 0
M  V30 630 H 62.683 3.3813 4.03702 0
M  V30 631 H 65.174 2.72201 2.62135 0
M  V30 632 H 65.487 5.98196 4.89266 0
M  V30 633 H 63.832 5.37534 4.40548 0
M  V30 634 H 67.023 3.42962 3.18582 0
M  V30 635 H 67.196 4.91604 4.22173 0
M  V30 636 N 60.6021 -1.18246 1.0419 0
M  V30 637 C 61.5121 -2.25574 0.644476 0
M  V30 638 C 62.5281 -1.70845 -0.329826 0
M  V30 639 O 63.7041 -2.00554 -0.184443 0
M  V30 640 C 60.7691 -3.46697 0.014877 0
M  V30 641 C 59.8301 -4.16554 1.03834 0
M  V30 642 C 59.0631 -5.31894 0.438692 0
M  V30 643 O 59.2861 -5.65385 -0.754752 0
M  V30 644 O 58.2201 -5.90459 1.168 0
M  V30 645 H 62.0461 -2.61836 1.53869 0
M  V30 646 H 59.6311 -1.25352 0.812854 0
M  V30 647 H 61.5131 -4.20062 -0.335538 0
M  V30 648 H 60.1881 -3.12255 -0.853138 0
M  V30 649 H 59.0951 -3.45251 1.44057 0
M  V30 650 H 60.4281 -4.54998 1.87716 0
M  V30 651 N 62.0802 -0.821533 -1.34494 0
M  V30 652 C 63.0132 -0.187704 -2.27427 0
M  V30 653 C 63.9912 0.65507 -1.48821 0
M  V30 654 O 65.1752 0.619111 -1.78043 0
M  V30 655 C 62.3022 0.737996 -3.30562 0
M  V30 656 C 61.3482 -0.0270713 -4.26491 0
M  V30 657 S 62.1812 -1.37329 -5.17592 0
M  V30 658 C 63.3372 -0.452427 -6.24263 0
M  V30 659 H 63.5702 -0.975598 -2.80837 0
M  V30 660 H 61.1032 -0.61736 -1.4152 0
M  V30 661 H 63.0612 1.26654 -3.90473 0
M  V30 662 H 61.7222 1.4994 -2.76001 0
M  V30 663 H 60.9152 0.6766 -4.99438 0
M  V30 664 H 60.5172 -0.48612 -3.70827 0
M  V30 665 H 62.8092 0.356557 -6.76561 0
M  V30 666 H 63.7522 -1.15153 -6.98674 0
M  V30 667 H 64.1602 -0.0414755 -5.64485 0
M  V30 668 N 63.5583 1.46682 -0.576371 0
M  V30 669 C 64.9743 1.57822 -0.237562 0
M  V30 670 C 65.1743 1.57237 1.26011 0
M  V30 671 O 64.2303 1.48596 2.04146 0
M  V30 672 C 65.5433 2.87499 -0.881168 0
M  V30 673 C 67.0913 3.01119 -0.85417 0
M  V30 674 C 67.5663 4.33524 -1.4772 0
M  V30 675 N 69.0573 4.40207 -1.44125 0
M  V30 676 C 69.7923 5.4126 -1.89276 0
M  V30 677 N 69.2883 6.49021 -2.42371 0
M  V30 678 N 71.0813 5.32422 -1.80231 0
M  V30 679 H 63.2323 1.45306 -1.54919 0
M  V30 680 H 65.4953 0.692733 -0.647167 0
M  V30 681 H 65.2013 2.9372 -1.93447 0
M  V30 682 H 65.0753 3.75224 -0.385592 0
M  V30 683 H 67.4623 2.94485 0.190491 0
M  V30 684 H 67.5433 2.14887 -1.3877 0
M  V30 685 H 67.1873 4.40916 -2.52103 0
M  V30 686 H 67.1173 5.1852 -0.918947 0
M  V30 687 H 69.6083 3.62931 -1.05307 0
M  V30 688 H 69.9213 7.2233 -2.74698 0
M  V30 689 H 68.2663 6.49858 -2.46393 0
M  V30 690 H 71.4573 4.47137 -1.38514 0
M  V30 691 H 71.6303 6.11034 -2.15735 0
M  V30 692 N 65.0364 0.313813 1.54444 0
M  V30 693 C 65.9684 -0.590425 2.21465 0
M  V30 694 C 66.9814 -1.08753 1.21147 0
M  V30 695 O 68.1704 -1.00278 1.4767 0
M  V30 696 C 65.2704 -1.82179 2.85769 0
M  V30 697 C 64.4434 -1.46502 4.12136 0
M  V30 698 C 63.5024 -2.55288 4.60124 0
M  V30 699 O 62.5284 -2.19842 5.25032 0
M  V30 700 N 63.7304 -3.86053 4.33525 0
M  V30 701 H 66.4954 -0.0166033 2.99695 0
M  V30 702 H 64.0564 0.136578 1.61323 0
M  V30 703 H 66.0484 -2.54328 3.14801 0
M  V30 704 H 64.6184 -2.30369 2.11303 0
M  V30 705 H 63.8384 -0.575595 3.89975 0
M  V30 706 H 65.1264 -1.20221 4.94393 0
M  V30 707 H 64.5244 -4.17654 3.81552 0
M  V30 708 H 63.0814 -4.54461 4.67235 0
M  V30 709 N 66.5145 -1.57545 0.0417849 0
M  V30 710 C 67.4615 -2.10977 -0.935805 0
M  V30 711 C 68.4315 -1.01486 -1.31491 0
M  V30 712 O 69.6165 -1.2898 -1.40602 0
M  V30 713 C 66.7565 -2.65169 -2.2086 0
M  V30 714 C 65.8695 -3.88714 -1.88482 0
M  V30 715 C 65.0045 -4.31254 -3.1015 0
M  V30 716 C 64.0435 -5.47524 -2.7365 0
M  V30 717 N 63.1805 -5.85162 -3.87982 0
M  V30 718 H 68.0205 -2.94218 -0.473249 0
M  V30 719 H 65.5575 -1.45415 -0.221981 0
M  V30 720 H 67.5155 -2.94685 -2.95325 0
M  V30 721 H 66.1455 -1.8474 -2.64709 0
M  V30 722 H 65.1975 -3.65849 -1.04205 0
M  V30 723 H 66.5095 -4.73245 -1.57608 0
M  V30 724 H 65.6635 -4.62273 -3.92923 0
M  V30 725 H 64.4025 -3.45516 -3.44195 0
M  V30 726 H 63.4075 -5.16187 -1.89291 0
M  V30 727 H 64.6325 -6.34971 -2.40807 0
M  V30 728 H 62.5785 -5.02377 -4.21846 0
M  V30 729 H 62.4955 -6.64362 -3.60775 0
M  V30 730 H 63.7635 -6.20791 -4.71422 0
M  V30 731 N 67.9926 0.231505 -1.5589 0
M  V30 732 C 68.9396 1.28682 -1.91598 0
M  V30 733 C 69.9096 1.47071 -0.771974 0
M  V30 734 O 71.0946 1.60802 -1.027 0
M  V30 735 C 68.2346 2.6342 -2.22944 0
M  V30 736 C 67.3476 2.52912 -3.50228 0
M  V30 737 C 66.4826 3.80106 -3.7107 0
M  V30 738 C 65.5216 3.64279 -4.91902 0
M  V30 739 N 64.6586 4.834 -5.09184 0
M  V30 740 H 69.4986 0.975305 -2.81588 0
M  V30 741 H 67.0356 0.470299 -1.39379 0
M  V30 742 H 68.9936 3.41869 -2.39126 0
M  V30 743 H 67.6236 2.92687 -1.36139 0
M  V30 744 H 66.6756 1.6595 -3.42294 0
M  V30 745 H 67.9876 2.37133 -4.38827 0
M  V30 746 H 67.1416 4.66999 -3.87295 0
M  V30 747 H 65.8806 3.98799 -2.80733 0
M  V30 748 H 64.8856 2.7577 -4.75637 0
M  V30 749 H 66.1106 3.47067 -5.83714 0
M  V30 750 H 64.0566 5.02425 -4.21788 0
M  V30 751 H 63.9736 4.70311 -5.91898 0
M  V30 752 H 65.2416 5.71747 -5.29835 0
M  V30 753 N 69.4707 1.49531 0.497807 0
M  V30 754 C 70.4007 1.6935 1.60757 0
M  V30 755 C 71.3817 0.542218 1.61227 0
M  V30 756 O 72.5667 0.778417 1.77917 0
M  V30 757 C 69.6967 1.76298 2.99226 0
M  V30 758 C 68.6507 2.91248 3.13622 0
M  V30 759 C 67.9767 2.83312 4.53474 0
M  V30 760 C 69.2767 4.3214 2.93346 0
M  V30 761 H 70.9707 2.62263 1.44425 0
M  V30 762 H 68.5167 1.26208 0.693367 0
M  V30 763 H 70.4697 1.88749 3.76765 0
M  V30 764 H 69.1937 0.799871 3.16654 0
M  V30 765 H 67.8527 2.78404 2.38509 0
M  V30 766 H 67.5007 1.84902 4.67782 0
M  V30 767 H 67.2007 3.60465 4.64046 0
M  V30 768 H 68.7247 2.97775 5.33069 0
M  V30 769 H 70.1387 4.45649 3.60652 0
M  V30 770 H 68.5357 5.1054 3.15387 0
M  V30 771 H 69.6057 4.46363 1.89441 0
M  V30 772 N 70.9488 -0.749086 1.3866 0
M  V30 773 C 71.8588 -1.89358 1.38494 0
M  V30 774 C 72.8748 -1.71708 0.281476 0
M  V30 775 O 74.0508 -1.94554 0.520643 0
M  V30 776 C 71.1158 -3.24782 1.21316 0
M  V30 777 C 70.1768 -3.54926 2.41508 0
M  V30 778 C 69.4098 -4.83888 2.2514 0
M  V30 779 O 69.6328 -5.56592 1.24746 0
M  V30 780 O 68.5668 -5.13612 3.13826 0
M  V30 781 H 72.3928 -1.92452 2.34938 0
M  V30 782 H 69.9778 -0.894981 1.19626 0
M  V30 783 H 71.8598 -4.05739 1.13814 0
M  V30 784 H 70.5348 -3.2249 0.279592 0
M  V30 785 H 69.4418 -2.74112 2.54585 0
M  V30 786 H 70.7748 -3.61983 3.3351 0
M  V30 787 N 72.4269 -1.23603 -0.977757 0
M  V30 788 C 73.3739 -1.01954 -2.07061 0
M  V30 789 C 74.3439 0.0638697 -1.65977 0
M  V30 790 O 75.5289 -0.0887624 -1.90593 0
M  V30 791 C 72.6689 -0.619658 -3.39491 0
M  V30 792 C 71.7819 -1.77547 -3.93829 0
M  V30 793 C 70.9169 -1.32212 -5.14484 0
M  V30 794 C 69.9559 -2.44852 -5.60994 0
M  V30 795 N 69.0929 -2.00456 -6.72876 0
M  V30 796 H 73.9329 -1.95495 -2.24913 0
M  V30 797 H 71.4699 -0.973861 -1.10247 0
M  V30 798 H 73.4279 -0.368898 -4.15566 0
M  V30 799 H 72.0579 0.278752 -3.21594 0
M  V30 800 H 71.1099 -2.14016 -3.14486 0
M  V30 801 H 72.4219 -2.62219 -4.24314 0
M  V30 802 H 71.5759 -1.02965 -5.97899 0
M  V30 803 H 70.3149 -0.445808 -4.85658 0
M  V30 804 H 69.3199 -2.74871 -4.76157 0
M  V30 805 H 70.5449 -3.33024 -5.91837 0
M  V30 806 H 68.4909 -1.15208 -6.45804 0
M  V30 807 H 68.4079 -2.78687 -7.02759 0
M  V30 808 H 69.6759 -1.7432 -7.59758 0
M  V30 809 N 73.905 1.17692 -1.04816 0
M  V30 810 C 75.151 1.88137 -0.75711 0
M  V30 811 C 75.484 1.80604 0.713841 0
M  V30 812 O 74.759 1.21146 1.52164 0
M  V30 813 C 75.042 3.38318 -1.2334 0
M  V30 814 C 74.895 3.54622 -2.76701 0
M  V30 815 C 76.214 4.32214 -0.829415 0
M  V30 816 H 73.333 0.683163 -0.27651 0
M  V30 817 H 75.975 1.38424 -1.30149 0
M  V30 818 H 74.125 3.80787 -0.770286 0
M  V30 819 H 75.797 3.21194 -3.31107 0
M  V30 820 H 74.04 2.97026 -3.16161 0
M  V30 821 H 74.711 4.60028 -3.05088 0
M  V30 822 H 77.187 3.97565 -1.22805 0
M  V30 823 H 76.063 5.35838 -1.19033 0
M  V30 824 H 76.324 4.41294 0.266891 0
M  V30 825 N 75.3831 0.828654 1.34056 0
M  V30 826 C 76.3161 0.199763 2.27324 0
M  V30 827 C 77.2941 -0.647168 1.49166 0
M  V30 828 O 78.4781 -0.609661 1.78369 0
M  V30 829 C 75.6051 -0.720455 3.30949 0
M  V30 830 C 74.6511 0.0496888 4.26471 0
M  V30 831 S 75.4841 1.40072 5.16856 0
M  V30 832 C 76.6401 0.485527 6.24014 0
M  V30 833 H 76.8731 0.990478 2.80316 0
M  V30 834 H 74.4061 0.624857 1.41191 0
M  V30 835 H 76.3641 -1.24581 3.91139 0
M  V30 836 H 75.0251 -1.48474 2.76793 0
M  V30 837 H 74.2181 -0.650104 4.9979 0
M  V30 838 H 73.8201 0.505779 3.70564 0
M  V30 839 H 76.1121 -0.320672 6.76741 0
M  V30 840 H 77.0551 1.18856 6.98054 0
M  V30 841 H 77.4631 0.0714109 5.64455 0
M  V30 842 N 76.8612 -1.46375 0.584142 0
M  V30 843 C 77.7712 -2.34115 -0.150728 0
M  V30 844 C 78.7872 -1.49838 -0.884567 0
M  V30 845 O 79.9632 -1.82704 -0.847429 0
M  V30 846 C 77.0282 -3.2705 -1.15062 0
M  V30 847 C 76.0892 -4.27228 -0.421293 0
M  V30 848 C 75.3222 -5.15722 -1.37355 0
M  V30 849 O 75.5452 -5.07176 -2.61014 0
M  V30 850 O 74.4792 -5.95383 -0.883355 0
M  V30 851 H 78.3052 -2.98309 0.569708 0
M  V30 852 H 75.8902 -1.45373 0.344535 0
M  V30 853 H 77.7722 -3.84381 -1.72712 0
M  V30 854 H 76.4472 -2.65451 -1.8525 0
M  V30 855 H 75.3542 -3.7358 0.197085 0
M  V30 856 H 76.6872 -4.91616 0.239641 0
M  V30 857 N 78.3393 -0.321999 -1.54275 0
M  V30 858 C 79.2493 0.553631 -2.27974 0
M  V30 859 C 80.2653 1.13054 -1.32268 0
M  V30 860 O 81.4413 1.15084 -1.6528 0
M  V30 861 C 78.5063 1.69927 -3.02201 0
M  V30 862 C 77.5673 1.15433 -4.1349 0
M  V30 863 C 76.8003 2.24537 -4.84168 0
M  V30 864 O 77.0233 3.44852 -4.5435 0
M  V30 865 O 75.9573 1.90044 -5.7111 0
M  V30 866 H 79.7833 -0.0448345 -3.03667 0
M  V30 867 H 77.3683 -0.0877418 -1.49142 0
M  V30 868 H 79.2503 2.3663 -3.48689 0
M  V30 869 H 77.9253 2.28395 -2.29385 0
M  V30 870 H 76.8323 0.452436 -3.71354 0
M  V30 871 H 78.1653 0.614805 -4.88345 0
M  V30 872 N 79.8174 1.5752 -0.0501392 0
M  V30 873 C 80.7274 2.14952 0.939827 0
M  V30 874 C 81.7434 1.10706 1.34239 0
M  V30 875 O 82.9194 1.42869 1.41952 0
M  V30 876 C 79.9844 2.68232 2.19665 0
M  V30 877 C 79.0454 3.87272 1.85253 0
M  V30 878 C 78.2784 4.38002 3.04943 0
M  V30 879 O 78.5014 3.87811 4.18281 0
M  V30 880 O 77.4354 5.29602 2.86017 0
M  V30 881 H 81.2614 2.9986 0.481392 0
M  V30 882 H 78.8464 1.4841 0.171699 0
M  V30 883 H 80.7284 3.02475 2.93406 0
M  V30 884 H 79.4034 1.86395 2.64648 0
M  V30 885 H 78.3104 3.5792 1.0883 0
M  V30 886 H 79.6434 4.70336 1.4507 0
M  V30 887 N 81.2955 -0.223234 1.56011 0
M  V30 888 C 82.5435 -0.946003 1.78592 0
M  V30 889 C 82.8645 -1.84936 0.618349 0
M  V30 890 O 82.1345 -1.92473 -0.364833 0
M  V30 891 H 80.7145 -0.352298 0.658707 0
M  V30 892 H 83.3765 -0.235494 1.93472 0
M  V30 893 H 82.4725 -1.55381 2.70672 0
M  V30 894 N 82.7736 -1.49793 -0.48987 0
M  V30 895 C 83.7036 -1.70201 -1.59856 0
M  V30 896 C 84.6846 -0.55076 -1.60937 0
M  V30 897 O 85.8696 -0.787841 -1.77501 0
M  V30 898 C 82.9996 -1.77882 -2.98287 0
M  V30 899 C 81.9536 -2.92907 -3.12073 0
M  V30 900 C 81.2796 -2.85712 -4.51965 0
M  V30 901 C 82.5796 -4.3369 -2.91051 0
M  V30 902 H 84.2736 -2.63025 -1.43032 0
M  V30 903 H 81.8196 -1.26574 -0.686664 0
M  V30 904 H 83.7726 -1.90744 -3.75759 0
M  V30 905 H 82.4966 -0.816653 -3.16225 0
M  V30 906 H 81.1556 -2.79665 -2.37029 0
M  V30 907 H 80.8036 -1.8738 -4.66795 0
M  V30 908 H 80.5036 -3.62921 -4.62128 0
M  V30 909 H 82.0276 -3.00598 -5.31482 0
M  V30 910 H 83.4416 -4.47555 -3.58284 0
M  V30 911 H 81.8386 -5.12205 -3.12675 0
M  V30 912 H 82.9086 -4.47362 -1.87071 0
M  V30 913 N 84.2517 0.741722 -1.39055 0
M  V30 914 C 85.1987 1.85566 -1.37237 0
M  V30 915 C 86.1687 1.64457 -0.233072 0
M  V30 916 O 87.3537 1.85957 -0.427147 0
M  V30 917 C 84.4937 3.23004 -1.215 0
M  V30 918 C 83.6067 3.55864 -2.44918 0
M  V30 919 C 82.7417 4.82669 -2.21821 0
M  V30 920 C 81.7807 5.08351 -3.40948 0
M  V30 921 N 80.9177 6.26356 -3.17211 0
M  V30 922 H 85.7577 1.86455 -2.32462 0
M  V30 923 H 83.2947 0.911176 -1.15482 0
M  V30 924 H 85.2527 4.02331 -1.10389 0
M  V30 925 H 83.8827 3.21411 -0.29908 0
M  V30 926 H 82.9347 2.7129 -2.66657 0
M  V30 927 H 84.2467 3.70765 -3.33668 0
M  V30 928 H 83.4007 5.69962 -2.07914 0
M  V30 929 H 82.1397 4.69929 -1.30454 0
M  V30 930 H 81.1447 4.19522 -3.55361 0
M  V30 931 H 82.3697 5.22981 -4.33207 0
M  V30 932 H 80.3157 6.14917 -2.28502 0
M  V30 933 H 80.2327 6.41813 -3.99515 0
M  V30 934 H 81.5007 7.16506 -3.06984 0
M  V30 935 N 85.7298 1.2412 0.971189 0
M  V30 936 C 87.0068 0.986867 1.6888 0
M  V30 937 C 87.3868 -0.491857 2.0529 0
M  V30 938 O 86.7348 -1.46531 1.75331 0
M  V30 939 C 86.9448 1.9063 2.92338 0
M  V30 940 C 88.2928 2.17515 3.64654 0
M  V30 941 O 89.3168 1.88254 3.02388 0
M  V30 942 O 88.1758 2.6719 4.7673 0
M  V30 943 H 85.2698 0.372944 0.738134 0
M  V30 944 H 87.8158 1.35203 1.02559 0
M  V30 945 H 86.5878 2.90552 2.62097 0
M  V30 946 H 86.2108 1.54408 3.66393 0
M  V30 947 N 87.2079 -1.17134 1.05439 0
M  V30 948 C 88.1179 -2.24878 0.668365 0
M  V30 949 C 89.1339 -1.71186 -0.311687 0
M  V30 950 O 90.3099 -2.00738 -0.163161 0
M  V30 951 C 87.3749 -3.46662 0.051648 0
M  V30 952 C 86.4359 -4.15429 1.08246 0
M  V30 953 C 85.6689 -5.31399 0.495082 0
M  V30 954 O 85.8919 -5.66153 -0.694743 0
M  V30 955 O 84.8259 -5.89187 1.23056 0
M  V30 956 H 88.6519 -2.60189 1.56637 0
M  V30 957 H 86.2369 -1.24482 0.826104 0
M  V30 958 H 88.1189 -4.20394 -0.290966 0
M  V30 959 H 86.7939 -3.13142 -0.819971 0
M  V30 960 H 85.7009 -3.43704 1.47711 0
M  V30 961 H 87.0339 -4.52982 1.92532 0
M  V30 962 N 88.686 -0.835752 -1.33615 0
M  V30 963 C 89.596 -0.269088 -2.33052 0
M  V30 964 C 90.612 0.603251 -1.63208 0
M  V30 965 O 91.788 0.508112 -1.94885 0
M  V30 966 C 88.853 0.549091 -3.42324 0
M  V30 967 C 87.914 -0.347156 -4.27894 0
M  V30 968 C 87.147 0.43207 -5.31948 0
M  V30 969 O 87.37 1.66409 -5.45586 0
M  V30 970 O 86.304 -0.192298 -6.01593 0
M  V30 971 H 90.13 -1.09243 -2.83372 0
M  V30 972 H 87.715 -0.598198 -1.36901 0
M  V30 973 H 89.597 1.01414 -4.09015 0
M  V30 974 H 88.272 1.34955 -2.94226 0
M  V30 975 H 87.179 -0.859979 -3.64081 0
M  V30 976 H 88.512 -1.1123 -4.79467 0
M  V30 977 N 90.1641 1.46063 -0.591896 0
M  V30 978 C 91.1111 2.30399 0.136069 0
M  V30 979 C 92.0811 1.41169 0.875238 0
M  V30 980 O 93.2661 1.70112 0.86409 0
M  V30 981 C 90.4061 3.25804 1.13781 0
M  V30 982 C 89.5191 4.30134 0.401137 0
M  V30 983 C 88.6541 5.12659 1.39121 0
M  V30 984 C 87.6931 6.0873 0.641462 0
M  V30 985 N 86.8301 6.8409 1.58004 0
M  V30 986 H 91.6701 2.92118 -0.589144 0
M  V30 987 H 89.2071 1.43959 -0.302342 0
M  V30 988 H 91.1651 3.79569 1.73156 0
M  V30 989 H 89.7951 2.65872 1.83062 0
M  V30 990 H 88.8471 3.79152 -0.307826 0
M  V30 991 H 90.1591 4.98458 -0.184565 0
M  V30 992 H 89.3131 5.70747 2.05749 0
M  V30 993 H 88.0521 4.44316 2.01084 0
M  V30 994 H 87.0571 5.49786 -0.0385419 0
M  V30 995 H 88.2821 6.79095 0.0270945 0
M  V30 996 H 86.2281 6.18449 2.18761 0
M  V30 997 H 86.1451 7.48709 1.04738 0
M  V30 998 H 87.4131 7.4673 2.23639 0
M  V30 999 N 91.6422 0.330177 1.54103 0
M  V30 1000 C 93.0582 -0.0222371 1.59585 0
M  V30 1001 C 93.2582 -1.49902 1.34654 0
M  V30 1002 O 92.3142 -2.25592 1.13421 0
M  V30 1003 C 93.6272 0.401932 2.98002 0
M  V30 1004 C 95.1752 0.353145 3.11001 0
M  V30 1005 C 95.6502 0.752576 4.51775 0
M  V30 1006 N 97.1412 0.706239 4.57784 0
M  V30 1007 C 97.8762 0.987417 5.64834 0
M  V30 1008 N 97.3722 1.33607 6.79795 0
M  V30 1009 N 99.1652 0.91254 5.54643 0
M  V30 1010 H 91.3162 1.29228 1.68564 0
M  V30 1011 H 93.5792 0.525906 0.78875 0
M  V30 1012 H 93.2852 1.4311 3.21267 0
M  V30 1013 H 93.1592 -0.229699 3.765 0
M  V30 1014 H 95.5462 -0.666822 2.87467 0
M  V30 1015 H 95.6272 1.0198 2.34593 0
M  V30 1016 H 95.2712 1.77049 4.76042 0
M  V30 1017 H 95.2012 0.0635409 5.26562 0
M  V30 1018 H 97.6922 0.44889 3.75224 0
M  V30 1019 H 98.0052 1.53582 7.57385 0
M  V30 1020 H 96.3502 1.37439 6.81275 0
M  V30 1021 H 99.5412 0.639601 4.6371 0
M  V30 1022 H 99.7142 1.13503 6.37982 0
M  V30 1023 N 93.1203 -1.57491 0.0584922 0
M  V30 1024 C 94.0503 -2.14988 -0.911178 0
M  V30 1025 C 95.0313 -1.07343 -1.31952 0
M  V30 1026 O 96.2163 -1.35318 -1.39294 0
M  V30 1027 C 93.3463 -2.70078 -2.18347 0
M  V30 1028 C 92.3003 -3.82771 -1.91495 0
M  V30 1029 C 91.6263 -4.24408 -3.25241 0
M  V30 1030 C 92.9263 -5.07592 -1.23075 0
M  V30 1031 H 94.6203 -2.96263 -0.432246 0
M  V30 1032 H 92.1663 -1.42512 -0.206469 0
M  V30 1033 H 94.1193 -3.08943 -2.86587 0
M  V30 1034 H 92.8433 -1.86005 -2.68458 0
M  V30 1035 H 91.5023 -3.44389 -1.25664 0
M  V30 1036 H 91.1503 -3.37275 -3.73168 0
M  V30 1037 H 90.8503 -5.00366 -3.08071 0
M  V30 1038 H 92.3743 -4.65879 -3.94701 0
M  V30 1039 H 93.7883 -5.43857 -1.81362 0
M  V30 1040 H 92.1853 -5.88741 -1.16207 0
M  V30 1041 H 93.2553 -4.84454 -0.207847 0
M  V30 1042 N 94.5984 0.214957 -1.56127 0
M  V30 1043 C 96.0144 0.564948 -1.49267 0
M  V30 1044 C 96.2144 1.86827 -0.754838 0
M  V30 1045 O 95.2704 2.50745 -0.297198 0
M  V30 1046 C 96.5834 0.638071 -2.93852 0
M  V30 1047 C 98.1314 0.728253 -3.0441 0
M  V30 1048 C 98.6064 0.832663 -4.50367 0
M  V30 1049 N 100.097 0.896712 -4.54437 0
M  V30 1050 C 100.832 0.997324 -5.6466 0
M  V30 1051 N 100.328 1.06147 -6.8462 0
M  V30 1052 N 102.121 1.03297 -5.52527 0
M  V30 1053 H 94.2724 -0.640211 -2.02522 0
M  V30 1054 H 96.5354 -0.225507 -0.920788 0
M  V30 1055 H 96.2414 -0.250126 -3.50809 0
M  V30 1056 H 96.1154 1.49947 -3.46115 0
M  V30 1057 H 98.5024 1.60689 -2.47514 0
M  V30 1058 H 98.5834 -0.158952 -2.55306 0
M  V30 1059 H 98.2274 -0.0415417 -5.07883 0
M  V30 1060 H 98.1574 1.73538 -4.97184 0
M  V30 1061 H 100.648 0.857188 -3.6805 0
M  V30 1062 H 100.961 1.1382 -7.64372 0
M  V30 1063 H 99.3064 1.03049 -6.87318 0
M  V30 1064 H 102.497 0.979558 -4.57736 0
M  V30 1065 H 102.67 1.10793 -6.38458 0
M  V30 1066 N 96.0765 1.50051 0.48192 0
M  V30 1067 C 97.4925 1.37237 0.814756 0
M  V30 1068 C 97.6925 0.420109 1.97072 0
M  V30 1069 O 96.7485 -0.141246 2.52105 0
M  V30 1070 C 98.0615 2.78375 1.13701 0
M  V30 1071 C 99.6095 2.87213 1.2441 0
M  V30 1072 C 100.084 4.29161 1.59954 0
M  V30 1073 N 101.575 4.32061 1.66967 0
M  V30 1074 C 102.31 5.38879 1.95952 0
M  V30 1075 N 101.806 6.55918 2.23031 0
M  V30 1076 N 103.599 5.26312 1.97363 0
M  V30 1077 H 95.7505 2.10546 -0.28005 0
M  V30 1078 H 98.0135 0.945921 -0.0627454 0
M  V30 1079 H 97.7195 3.49845 0.360787 0
M  V30 1080 H 97.5935 3.14941 2.07586 0
M  V30 1081 H 99.9805 2.15969 2.01101 0
M  V30 1082 H 100.061 2.54204 0.285299 0
M  V30 1083 H 99.7055 5.00938 0.838067 0
M  V30 1084 H 99.6355 4.59648 2.56966 0
M  V30 1085 H 102.126 3.47661 1.48123 0
M  V30 1086 H 102.439 7.33139 2.44391 0
M  V30 1087 H 100.784 6.59112 2.20447 0
M  V30 1088 H 103.975 4.33876 1.75697 0
M  V30 1089 H 104.148 6.09649 2.19618 0
M  V30 1090 N 97.5546 -0.734337 1.39446 0
M  V30 1091 C 98.7796 -1.52866 1.40167 0
M  V30 1092 C 99.2046 -1.881 -0.00171513 0
M  V30 1093 O 98.5626 -1.51957 -0.988879 0
M  V30 1094 C 98.6106 -2.79235 2.28167 0
M  V30 1095 O 97.7146 -3.75185 1.71201 0
M  V30 1096 H 97.0556 -0.461618 0.477289 0
M  V30 1097 H 99.5856 -0.905949 1.8345 0
M  V30 1098 H 99.5956 -3.27963 2.42702 0
M  V30 1099 H 98.2706 -2.52923 3.30156 0
M  V30 1100 H 96.8476 -3.33958 1.65912 0
M  V30 1101 N 99.0327 -1.24633 -0.964593 0
M  V30 1102 C 99.9957 -1.0424 -2.04124 0
M  V30 1103 C 100.996 0.00137563 -1.608 0
M  V30 1104 O 102.186 -0.239883 -1.7254 0
M  V30 1105 C 99.3177 -0.580588 -3.3592 0
M  V30 1106 H 100.511 -1.99803 -2.23649 0
M  V30 1107 H 98.0637 -1.06899 -1.14027 0
M  V30 1108 H 98.7987 0.3781 -3.22088 0
M  V30 1109 H 98.5837 -1.33398 -3.6871 0
M  V30 1110 H 100.074 -0.459034 -4.15069 0
M  V30 1111 N 100.511 1.16574 -1.06058 0
M  V30 1112 C 101.461 2.18854 -0.63929 0
M  V30 1113 C 102.445 1.57505 0.328798 0
M  V30 1114 O 103.637 1.76408 0.144623 0
M  V30 1115 C 100.766 3.43291 -0.0247203 0
M  V30 1116 C 99.8518 4.11722 -1.01716 0
M  V30 1117 N 100.243 4.55841 -2.19186 0
M  V30 1118 C 98.5408 4.37872 -0.847569 0
M  V30 1119 C 99.2418 5.08751 -2.82042 0
M  V30 1120 N 98.2178 5.01489 -2.09784 0
M  V30 1121 H 102.02 2.5068 -1.53417 0
M  V30 1122 H 99.5338 1.32999 -0.931935 0
M  V30 1123 H 101.531 4.15856 0.294915 0
M  V30 1124 H 100.191 3.12954 0.865448 0
M  V30 1125 H 101.202 4.49649 -2.56975 0
M  V30 1126 H 97.8788 4.17499 -0.00918848 0
M  V30 1127 H 99.2688 5.52944 -3.81709 0
M  V30 1128 N 101.989 0.842826 1.3317 0
M  V30 1129 C 102.952 0.284065 2.27433 0
M  V30 1130 C 103.952 -0.54948 1.5112 0
M  V30 1131 O 105.142 -0.362699 1.70382 0
M  V30 1132 C 102.274 -0.599384 3.35589 0
M  V30 1133 H 103.467 1.11589 2.78366 0
M  V30 1134 H 101.02 0.616221 1.4364 0
M  V30 1135 H 101.755 -1.45349 2.89904 0
M  V30 1136 H 101.54 -0.00291266 3.921 0
M  V30 1137 H 103.03 -0.983488 4.05854 0
M  V30 1138 N 103.467 -1.45747 0.599634 0
M  V30 1139 C 104.883 -1.57424 0.26264 0
M  V30 1140 C 105.083 -1.59222 -1.23493 0
M  V30 1141 O 104.139 -1.51825 -2.01756 0
M  V30 1142 C 105.452 -2.86061 0.926795 0
M  V30 1143 C 107 -2.99722 0.901967 0
M  V30 1144 C 107.475 -4.31119 1.54598 0
M  V30 1145 N 108.966 -4.37858 1.5111 0
M  V30 1146 C 109.701 -5.3818 1.97863 0
M  V30 1147 N 109.197 -6.45083 2.52666 0
M  V30 1148 N 110.99 -5.29487 1.88679 0
M  V30 1149 H 103.141 -1.42823 1.57211 0
M  V30 1150 H 105.404 -0.68235 0.658105 0
M  V30 1151 H 105.11 -2.90605 1.98095 0
M  V30 1152 H 104.984 -3.74563 0.445238 0
M  V30 1153 H 107.371 -2.9475 -0.143617 0
M  V30 1154 H 107.452 -2.12652 1.42171 0
M  V30 1155 H 107.096 -4.36849 2.59085 0
M  V30 1156 H 107.026 -5.16992 1.00132 0
M  V30 1157 H 109.517 -3.61209 1.11068 0
M  V30 1158 H 109.83 -7.17869 2.86155 0
M  V30 1159 H 108.175 -6.45856 2.56701 0
M  V30 1160 H 111.366 -4.44877 1.4561 0
M  V30 1161 H 111.539 -6.07524 2.25429 0
M  V30 1162 N 104.945 -0.338344 -1.53925 0
M  V30 1163 C 105.892 0.520845 -2.24846 0
M  V30 1164 C 106.862 1.09976 -1.24477 0
M  V30 1165 O 108.047 1.13735 -1.53196 0
M  V30 1166 C 105.187 1.6685 -3.02084 0
M  V30 1167 C 104.3 1.11739 -4.17299 0
M  V30 1168 C 103.435 2.23193 -4.82036 0
M  V30 1169 C 102.474 1.65407 -5.89328 0
M  V30 1170 N 101.611 2.70582 -6.47866 0
M  V30 1171 H 106.451 -0.0904881 -2.97863 0
M  V30 1172 H 103.988 -0.0564282 -1.46992 0
M  V30 1173 H 105.946 2.34407 -3.45122 0
M  V30 1174 H 104.576 2.2509 -2.31375 0
M  V30 1175 H 103.628 0.332919 -3.7894 0
M  V30 1176 H 104.94 0.654677 -4.94485 0
M  V30 1177 H 104.094 2.98626 -5.28117 0
M  V30 1178 H 102.833 2.72807 -4.04262 0
M  V30 1179 H 101.838 0.884779 -5.42634 0
M  V30 1180 H 103.063 1.16652 -6.69006 0
M  V30 1181 H 101.009 3.1946 -5.72959 0
M  V30 1182 H 100.926 2.28917 -7.20509 0
M  V30 1183 H 102.194 3.45799 -6.98601 0
M  V30 1184 N 106.423 1.57458 -0.0668435 0
M  V30 1185 C 107.333 2.15937 0.916975 0
M  V30 1186 C 108.349 1.12123 1.33058 0
M  V30 1187 O 109.525 1.44366 1.40429 0
M  V30 1188 C 106.59 2.70547 2.16807 0
M  V30 1189 C 105.651 3.89215 1.81135 0
M  V30 1190 C 104.884 4.41211 3.0028 0
M  V30 1191 O 105.107 3.92225 4.14144 0
M  V30 1192 O 104.041 5.32605 2.80384 0
M  V30 1193 H 107.867 3.00354 0.449561 0
M  V30 1194 H 105.452 1.48584 0.155949 0
M  V30 1195 H 107.334 3.0557 2.90181 0
M  V30 1196 H 106.009 1.89192 2.62656 0
M  V30 1197 H 104.916 3.59054 1.05028 0
M  V30 1198 H 106.249 4.71848 1.40073 0
M  V30 1199 N 107.901 -0.206675 1.56239 0
M  V30 1200 C 109.129 -0.945345 1.8404 0
M  V30 1201 C 109.544 -1.77336 0.647885 0
M  V30 1202 O 108.901 -1.78425 -0.383511 0
M  V30 1203 C 108.952 -1.8509 3.10522 0
M  V30 1204 O 108.673 -1.05634 4.25174 0
M  V30 1205 C 110.174 -2.70222 3.51418 0
M  V30 1206 H 107.394 -0.276372 0.61144 0
M  V30 1207 H 109.938 -0.217417 2.03341 0
M  V30 1208 H 108.093 -2.53259 2.93153 0
M  V30 1209 H 108.507 -1.67238 4.97124 0
M  V30 1210 H 109.981 -3.29438 4.42916 0
M  V30 1211 H 110.458 -3.43358 2.73864 0
M  V30 1212 H 111.064 -2.07443 3.71278 0
M  V30 1213 N 109.379 -1.50304 -0.473955 0
M  V30 1214 C 110.289 -1.7174 -1.5982 0
M  V30 1215 C 111.305 -0.600457 -1.63311 0
M  V30 1216 O 112.481 -0.878441 -1.81233 0
M  V30 1217 C 109.546 -1.80427 -2.96052 0
M  V30 1218 C 108.607 -3.04148 -3.02972 0
M  V30 1219 C 107.84 -3.12411 -4.32706 0
M  V30 1220 O 108.063 -2.27542 -5.23049 0
M  V30 1221 O 106.997 -4.05113 -4.45159 0
M  V30 1222 H 110.823 -2.67035 -1.44657 0
M  V30 1223 H 108.408 -1.34366 -0.653148 0
M  V30 1224 H 110.29 -1.88338 -3.7697 0
M  V30 1225 H 108.965 -0.883156 -3.11419 0
M  V30 1226 H 107.872 -3.0174 -2.21142 0
M  V30 1227 H 109.205 -3.95829 -2.92541 0
M  V30 1228 N 110.857 0.726932 -1.39834 0
M  V30 1229 C 112.104 1.48664 -1.37496 0
M  V30 1230 C 112.432 1.94482 0.0264678 0
M  V30 1231 O 111.687 1.67692 1.00886 0
M  V30 1232 C 111.986 2.73495 -2.30077 0
M  V30 1233 C 111.652 2.46502 -3.77555 0
M  V30 1234 C 110.314 2.3885 -4.17737 0
M  V30 1235 C 112.666 2.23604 -4.70798 0
M  V30 1236 C 109.994 2.06352 -5.49214 0
M  V30 1237 C 112.346 1.92622 -6.02561 0
M  V30 1238 C 111.01 1.83444 -6.41798 0
M  V30 1239 H 110.28 0.544001 -0.503135 0
M  V30 1240 H 112.927 0.833657 -1.72402 0
M  V30 1241 H 111.232 3.43575 -1.88317 0
M  V30 1242 H 112.929 3.31549 -2.25558 0
M  V30 1243 H 109.519 2.5334 -3.45712 0
M  V30 1244 H 113.703 2.28479 -4.40581 0
M  V30 1245 H 108.959 1.97776 -5.78528 0
M  V30 1246 H 113.133 1.73914 -6.74334 0
M  V30 1247 H 110.76 1.58029 -7.43593 0
M  V30 1248 N 112.336 1.25143 0.95797 0
M  V30 1249 C 113.266 1.07711 2.07173 0
M  V30 1250 C 114.247 -0.0128462 1.70095 0
M  V30 1251 O 115.432 0.156061 1.93572 0
M  V30 1252 C 112.562 0.691503 3.40346 0
M  V30 1253 C 111.516 1.73132 3.9142 0
M  V30 1254 C 110.842 1.20049 5.21049 0
M  V30 1255 C 112.142 3.1294 4.1817 0
M  V30 1256 H 113.836 2.00873 2.22014 0
M  V30 1257 H 111.382 0.967191 1.06684 0
M  V30 1258 H 113.335 0.556505 4.17709 0
M  V30 1259 H 112.059 -0.275819 3.25433 0
M  V30 1260 H 110.718 1.8547 3.16222 0
M  V30 1261 H 110.366 0.223499 5.02503 0
M  V30 1262 H 110.066 1.89545 5.56189 0
M  V30 1263 H 111.59 1.07782 6.01012 0
M  V30 1264 H 113.004 3.03775 4.86203 0
M  V30 1265 H 111.401 3.79875 4.64559 0
M  V30 1266 H 112.471 3.6025 3.24573 0
M  V30 1267 N 113.814 -1.1601 1.06675 0
M  V30 1268 C 115.23 -1.38622 0.790948 0
M  V30 1269 C 115.43 -1.92109 -0.607965 0
M  V30 1270 O 114.486 -2.12239 -1.36787 0
M  V30 1271 C 115.799 -2.36347 1.85905 0
M  V30 1272 C 117.347 -2.50023 1.88301 0
M  V30 1273 C 117.822 -3.51033 2.94176 0
M  V30 1274 N 119.313 -3.58563 2.93235 0
M  V30 1275 C 120.048 -4.36521 3.71803 0
M  V30 1276 N 119.544 -5.17869 4.602 0
M  V30 1277 N 121.337 -4.31541 3.60178 0
M  V30 1278 H 113.488 -0.796294 1.96908 0
M  V30 1279 H 115.751 -0.412597 0.853503 0
M  V30 1280 H 115.457 -2.04147 2.86386 0
M  V30 1281 H 115.331 -3.36042 1.71334 0
M  V30 1282 H 117.718 -2.81524 0.884769 0
M  V30 1283 H 117.799 -1.5035 2.06951 0
M  V30 1284 H 117.443 -3.20268 3.94196 0
M  V30 1285 H 117.373 -4.50445 2.72776 0
M  V30 1286 H 119.864 -3.00496 2.29152 0
M  V30 1287 H 120.177 -5.74578 5.16797 0
M  V30 1288 H 118.522 -5.17199 4.64253 0
M  V30 1289 H 121.713 -3.67051 2.90502 0
M  V30 1290 H 121.886 -4.9205 4.21653 0
M  V30 1291 N 115.292 -0.849877 -1.32721 0
M  V30 1292 C 116.222 -0.306308 -2.31482 0
M  V30 1293 C 117.203 0.591952 -1.59468 0
M  V30 1294 O 118.388 0.513199 -1.87296 0
M  V30 1295 C 115.518 0.510204 -3.43532 0
M  V30 1296 C 114.472 -0.293209 -4.26994 0
M  V30 1297 C 113.798 0.647743 -5.30762 0
M  V30 1298 C 115.098 -1.51634 -4.99804 0
M  V30 1299 H 116.792 -1.13153 -2.77195 0
M  V30 1300 H 114.338 -0.545553 -1.33266 0
M  V30 1301 H 116.291 0.900856 -4.11658 0
M  V30 1302 H 115.015 1.36874 -2.96535 0
M  V30 1303 H 113.674 -0.665555 -3.60508 0
M  V30 1304 H 113.322 1.50299 -4.8002 0
M  V30 1305 H 113.022 0.11422 -5.87489 0
M  V30 1306 H 114.546 1.03567 -6.01753 0
M  V30 1307 H 115.96 -1.19824 -5.60638 0
M  V30 1308 H 114.357 -1.98745 -5.66234 0
M  V30 1309 H 115.427 -2.28018 -4.27943 0
M  V30 1310 N 116.77 1.45427 -0.607355 0
M  V30 1311 C 117.717 2.3053 0.111625 0
M  V30 1312 C 118.687 1.4209 0.860216 0
M  V30 1313 O 119.872 1.71019 0.845998 0
M  V30 1314 C 117.012 3.26992 1.10319 0
M  V30 1315 C 116.125 4.30535 0.355493 0
M  V30 1316 C 115.26 5.14105 1.33676 0
M  V30 1317 C 114.299 6.09376 0.576862 0
M  V30 1318 N 113.436 6.85727 1.5074 0
M  V30 1319 H 118.276 2.91477 -0.620093 0
M  V30 1320 H 115.813 1.43631 -0.317594 0
M  V30 1321 H 117.771 3.81385 1.6912 0
M  V30 1322 H 116.401 2.67799 1.80232 0
M  V30 1323 H 115.453 3.78805 -0.348023 0
M  V30 1324 H 116.765 4.98235 -0.237423 0
M  V30 1325 H 115.919 5.72897 1.99684 0
M  V30 1326 H 114.658 4.46423 1.9636 0
M  V30 1327 H 113.663 5.49715 -0.0968519 0
M  V30 1328 H 114.888 6.79085 -0.0449341 0
M  V30 1329 H 112.834 6.20735 2.12189 0
M  V30 1330 H 112.751 7.49778 0.967913 0
M  V30 1331 H 114.019 7.4906 2.15706 0
M  V30 1332 N 118.248 0.346503 1.53744 0
M  V30 1333 C 119.664 -0.00530975 1.59599 0
M  V30 1334 C 119.864 -1.48465 1.36236 0
M  V30 1335 O 118.92 -2.24376 1.15808 0
M  V30 1336 C 120.233 0.433516 2.97559 0
M  V30 1337 C 121.781 0.386111 3.10609 0
M  V30 1338 C 122.256 0.800451 4.50951 0
M  V30 1339 N 123.747 0.754753 4.5701 0
M  V30 1340 C 124.482 1.04727 5.63755 0
M  V30 1341 N 123.978 1.4081 6.7834 0
M  V30 1342 N 125.771 0.971316 5.53644 0
M  V30 1343 H 117.922 1.31009 1.67184 0
M  V30 1344 H 120.185 0.534242 0.783128 0
M  V30 1345 H 119.891 1.46509 3.19731 0
M  V30 1346 H 119.765 -0.189753 3.76722 0
M  V30 1347 H 122.152 -0.636295 2.88158 0
M  V30 1348 H 122.233 1.04462 2.33498 0
M  V30 1349 H 121.877 1.82088 4.74137 0
M  V30 1350 H 121.807 0.119386 5.26465 0
M  V30 1351 H 124.298 0.488662 3.74727 0
M  V30 1352 H 124.611 1.61607 7.55714 0
M  V30 1353 H 122.956 1.44657 6.79779 0
M  V30 1354 H 126.147 0.688748 4.63005 0
M  V30 1355 H 126.32 1.20263 6.36742 0
M  V30 1356 N 119.726 -1.57421 0.075193 0
M  V30 1357 C 120.954 -1.97946 -0.602076 0
M  V30 1358 C 121.369 -0.953674 -1.62943 0
M  V30 1359 O 120.726 0.0592551 -1.82404 0
M  V30 1360 C 120.777 -3.38546 -1.26762 0
M  V30 1361 O 120.498 -4.37195 -0.281376 0
M  V30 1362 C 121.999 -3.93966 -2.03239 0
M  V30 1363 H 119.219 -0.650918 -0.162931 0
M  V30 1364 H 121.763 -2.03959 0.148601 0
M  V30 1365 H 119.918 -3.33609 -1.96936 0
M  V30 1366 H 120.332 -5.18975 -0.759267 0
M  V30 1367 H 121.806 -4.94555 -2.45193 0
M  V30 1368 H 122.283 -3.30693 -2.8903 0
M  V30 1369 H 122.889 -4.02315 -1.37924 0
M  V30 1370 N 121.204 0.198386 -1.56346 0
M  V30 1371 C 122.62 0.549085 -1.49857 0
M  V30 1372 C 122.82 1.86016 -0.774611 0
M  V30 1373 O 121.876 2.50416 -0.323776 0
M  V30 1374 C 123.189 0.606868 -2.94512 0
M  V30 1375 C 124.737 0.695925 -3.05165 0
M  V30 1376 C 125.212 0.784848 -4.51225 0
M  V30 1377 N 126.703 0.848463 -4.55363 0
M  V30 1378 C 127.438 0.937378 -5.65686 0
M  V30 1379 N 126.934 0.9888 -6.85707 0
M  V30 1380 N 128.727 0.974312 -5.53592 0
M  V30 1381 H 120.878 -0.661655 -2.01831 0
M  V30 1382 H 123.141 -0.235261 -0.918344 0
M  V30 1383 H 122.847 -0.28732 -3.50524 0
M  V30 1384 H 122.721 1.46268 -3.47686 0
M  V30 1385 H 125.108 1.58055 -2.49204 0
M  V30 1386 H 125.189 -0.186022 -2.55123 0
M  V30 1387 H 124.833 -0.0954072 -5.0781 0
M  V30 1388 H 124.763 1.68255 -4.98997 0
M  V30 1389 H 127.254 0.818103 -3.68938 0
M  V30 1390 H 127.567 1.05707 -7.65536 0
M  V30 1391 H 125.912 0.957534 -6.88372 0
M  V30 1392 H 129.103 0.930954 -4.58749 0
M  V30 1393 H 129.276 1.04015 -6.39597 0
M  V30 1394 N 122.682 1.50554 0.465978 0
M  V30 1395 C 123.612 1.72722 1.57128 0
M  V30 1396 C 124.593 0.576294 1.6004 0
M  V30 1397 O 125.778 0.81598 1.76225 0
M  V30 1398 C 122.908 1.82605 2.95419 0
M  V30 1399 C 121.862 2.97835 3.07373 0
M  V30 1400 C 121.188 2.92867 4.47363 0
M  V30 1401 C 122.488 4.38265 2.84114 0
M  V30 1402 H 124.182 2.65267 1.38829 0
M  V30 1403 H 121.728 1.2765 0.666441 0
M  V30 1404 H 123.681 1.96698 3.72677 0
M  V30 1405 H 122.405 0.866858 3.14886 0
M  V30 1406 H 121.064 2.83401 2.3255 0
M  V30 1407 H 120.712 1.94783 4.63755 0
M  V30 1408 H 120.412 3.70227 4.56296 0
M  V30 1409 H 121.936 3.09015 5.26633 0
M  V30 1410 H 123.35 4.53198 3.51118 0
M  V30 1411 H 121.747 5.17115 3.04487 0
M  V30 1412 H 122.817 4.50281 1.7993 0
M  V30 1413 N 124.16 -0.719506 1.40217 0
M  V30 1414 C 125.408 -1.47641 1.3801 0
M  V30 1415 C 125.729 -1.94992 -0.018145 0
M  V30 1416 O 124.999 -1.70073 -0.972207 0
M  V30 1417 H 123.579 -0.547744 0.507923 0
M  V30 1418 H 126.241 -0.853187 1.75233 0
M  V30 1419 H 125.337 -2.35112 2.05253 0
M  V30 1420 N 125.638 -1.25649 -0.95132 0
M  V30 1421 C 126.568 -1.08808 -2.06599 0
M  V30 1422 C 127.549 0.00382547 -1.701 0
M  V30 1423 O 128.734 -0.166325 -1.93486 0
M  V30 1424 C 125.864 -0.709542 -3.39975 0
M  V30 1425 C 124.818 -1.75206 -3.90496 0
M  V30 1426 C 124.144 -1.22811 -5.20405 0
M  V30 1427 C 125.444 -3.15153 -4.16504 0
M  V30 1428 H 127.138 -2.02048 -2.20946 0
M  V30 1429 H 124.684 -0.972835 -1.06169 0
M  V30 1430 H 126.637 -0.578649 -4.17408 0
M  V30 1431 H 125.361 0.258556 -3.25575 0
M  V30 1432 H 124.02 -1.87145 -3.15234 0
M  V30 1433 H 123.668 -0.250145 -5.02378 0
M  V30 1434 H 123.368 -1.92492 -5.55176 0
M  V30 1435 H 124.892 -1.10968 -6.00432 0
M  V30 1436 H 126.306 -3.06349 -4.84586 0
M  V30 1437 H 124.703 -3.82333 -4.62538 0
M  V30 1438 H 125.773 -3.61966 -3.22658 0
M  V30 1439 N 127.117 1.15442 -1.07289 0
M  V30 1440 C 128.027 2.23786 -0.704057 0
M  V30 1441 C 129.043 1.7166 0.284413 0
M  V30 1442 O 130.219 2.00972 0.131205 0
M  V30 1443 C 127.284 3.46535 -0.106792 0
M  V30 1444 C 126.345 4.13654 -1.14842 0
M  V30 1445 C 125.578 5.30544 -0.57956 0
M  V30 1446 O 125.801 5.67187 0.604585 0
M  V30 1447 O 124.735 5.87154 -1.32414 0
M  V30 1448 H 128.561 2.57664 -1.60757 0
M  V30 1449 H 126.146 1.23152 -0.845803 0
M  V30 1450 H 128.028 4.20804 0.224048 0
M  V30 1451 H 126.703 3.14407 0.770049 0
M  V30 1452 H 125.61 3.4131 -1.5316 0
M  V30 1453 H 126.943 4.49861 -1.99714 0
M  V30 1454 N 128.595 0.856903 1.32268 0
M  V30 1455 C 129.872 0.382583 1.91822 0
M  V30 1456 C 130.252 -1.13407 1.78051 0
M  V30 1457 O 129.6 -1.95673 1.18001 0
M  V30 1458 C 129.81 0.849446 3.38505 0
M  V30 1459 C 131.158 0.867936 4.15634 0
M  V30 1460 O 132.182 0.794232 3.47232 0
M  V30 1461 O 131.041 0.972286 5.37781 0
M  V30 1462 H 128.135 0.112014 0.819379 0
M  V30 1463 H 130.681 0.943952 1.41024 0
M  V30 1464 H 129.453 1.89267 3.42482 0
M  V30 1465 H 129.076 0.265652 3.96712 0
M  V30 1466 N 130.073 -1.45103 0.615059 0
M  V30 1467 C 131.32 -2.02183 0.113179 0
M  V30 1468 C 131.648 -1.48249 -1.25906 0
M  V30 1469 O 130.903 -0.650265 -1.84581 0
M  V30 1470 C 131.202 -3.57386 0.0318797 0
M  V30 1471 C 130.868 -4.30505 1.34077 0
M  V30 1472 C 129.53 -4.50197 1.69929 0
M  V30 1473 C 131.882 -4.72238 2.20546 0
M  V30 1474 C 129.21 -5.08881 2.91988 0
M  V30 1475 C 131.562 -5.32272 3.41861 0
M  V30 1476 C 130.226 -5.50187 3.77956 0
M  V30 1477 H 129.496 -0.739842 0.0414151 0
M  V30 1478 H 132.143 -1.74073 0.798168 0
M  V30 1479 H 130.448 -3.84817 -0.736409 0
M  V30 1480 H 132.145 -3.99264 -0.372712 0
M  V30 1481 H 128.735 -4.15496 1.05173 0
M  V30 1482 H 132.919 -4.56751 1.94146 0
M  V30 1483 H 128.175 -5.20939 3.2005 0
M  V30 1484 H 132.349 -5.63563 4.09109 0
M  V30 1485 H 129.976 -5.95427 4.72622 0
M  V30 1486 N 131.551 -0.354651 -1.53558 0
M  V30 1487 C 132.461 0.50515 -2.29097 0
M  V30 1488 C 133.477 1.10223 -1.34636 0
M  V30 1489 O 134.653 1.11553 -1.67684 0
M  V30 1490 C 131.718 1.63479 -3.05738 0
M  V30 1491 C 130.779 1.06636 -4.15845 0
M  V30 1492 C 130.012 2.14217 -4.88822 0
M  V30 1493 O 130.235 3.35137 -4.61562 0
M  V30 1494 O 129.169 1.77887 -5.75013 0
M  V30 1495 H 132.995 -0.109237 -3.03503 0
M  V30 1496 H 130.58 -0.119357 -1.48922 0
M  V30 1497 H 132.462 2.2918 -3.5363 0
M  V30 1498 H 131.137 2.23478 -2.34178 0
M  V30 1499 H 130.044 0.373565 -3.7223 0
M  V30 1500 H 131.377 0.511081 -4.89539 0
M  V30 1501 N 133.029 1.57378 -0.0835403 0
M  V30 1502 C 134.254 1.98682 0.594987 0
M  V30 1503 C 134.679 0.961969 1.61641 0
M  V30 1504 O 134.037 -0.0709989 1.81161 0
M  V30 1505 C 134.085 3.38988 1.2296 0
M  V30 1506 O 133.189 3.39208 2.34546 0
M  V30 1507 H 132.53 0.646368 0.152002 0
M  V30 1508 H 135.06 2.03961 -0.161533 0
M  V30 1509 H 135.07 3.76431 1.57366 0
M  V30 1510 H 133.745 4.13107 0.481228 0
M  V30 1511 H 132.322 3.13548 2.01846 0
M  V30 1512 N 134.507 -0.190092 1.56449 0
M  V30 1513 C 135.437 -1.23816 1.97969 0
M  V30 1514 C 136.418 -1.47201 0.852395 0
M  V30 1515 O 137.603 -1.58854 1.1171 0
M  V30 1516 C 134.733 -2.5813 2.3235 0
M  V30 1517 C 133.687 -2.49348 3.47864 0
M  V30 1518 C 133.013 -3.8798 3.67934 0
M  V30 1519 C 134.313 -2.01424 4.81898 0
M  V30 1520 H 136.007 -0.89311 2.85769 0
M  V30 1521 H 133.553 -0.428177 1.37487 0
M  V30 1522 H 135.506 -3.31637 2.59991 0
M  V30 1523 H 134.23 -2.94386 1.41438 0
M  V30 1524 H 132.889 -1.78297 3.20321 0
M  V30 1525 H 132.537 -4.21597 2.74344 0
M  V30 1526 H 132.237 -3.82978 4.45648 0
M  V30 1527 H 133.761 -4.63101 3.97957 0
M  V30 1528 H 135.175 -2.64693 5.08538 0
M  V30 1529 H 133.572 -2.07413 5.63116 0
M  V30 1530 H 134.642 -0.967677 4.75146 0
M  V30 1531 N 135.985 -1.50799 -0.457987 0
M  V30 1532 C 136.932 -1.70617 -1.5543 0
M  V30 1533 C 137.902 -0.547562 -1.56815 0
M  V30 1534 O 139.087 -0.779647 -1.74144 0
M  V30 1535 C 136.227 -1.81831 -2.93311 0
M  V30 1536 C 135.34 -3.09278 -3.01615 0
M  V30 1537 C 134.475 -3.11209 -4.30491 0
M  V30 1538 C 133.514 -4.33055 -4.32585 0
M  V30 1539 N 132.651 -4.32652 -5.52952 0
M  V30 1540 H 137.491 -2.64207 -1.37836 0
M  V30 1541 H 135.028 -1.30959 -0.669937 0
M  V30 1542 H 136.986 -1.86314 -3.73287 0
M  V30 1543 H 135.616 -0.916685 -3.0951 0
M  V30 1544 H 134.668 -3.14203 -2.1443 0
M  V30 1545 H 135.98 -3.99233 -2.99022 0
M  V30 1546 H 135.134 -3.14494 -5.18824 0
M  V30 1547 H 133.873 -2.19106 -4.35711 0
M  V30 1548 H 132.878 -4.29969 -3.42647 0
M  V30 1549 H 134.103 -5.264 -4.29046 0
M  V30 1550 H 132.049 -3.43409 -5.58933 0
M  V30 1551 H 131.966 -5.16392 -5.52155 0
M  V30 1552 H 133.234 -4.40101 -6.43375 0
M  V30 1553 N 137.463 0.71206 -1.40597 0
M  V30 1554 C 138.709 1.47416 -1.39271 0
M  V30 1555 C 139.042 1.942 0.00388791 0
M  V30 1556 O 138.317 1.68403 0.973179 0
M  V30 1557 C 138.6 2.69774 -2.38525 0
M  V30 1558 C 138.453 2.28861 -3.87224 0
M  V30 1559 C 139.772 3.71939 -2.35264 0
M  V30 1560 H 136.891 0.534713 -0.5072 0
M  V30 1561 H 139.533 0.812375 -1.71757 0
M  V30 1562 H 137.683 3.26238 -2.10953 0
M  V30 1563 H 139.355 1.77852 -4.25636 0
M  V30 1564 H 137.598 1.60824 -4.02887 0
M  V30 1565 H 138.269 3.16584 -4.52193 0
M  V30 1566 H 140.745 3.25113 -2.59694 0
M  V30 1567 H 139.621 4.55186 -3.06753 0
M  V30 1568 H 139.882 4.20484 -1.36549 0
M  V30 1569 N 138.941 1.26152 0.944643 0
M  V30 1570 C 140.19 1.10883 1.68487 0
M  V30 1571 C 140.503 -0.348153 1.92477 0
M  V30 1572 O 141.709 -0.621459 2.64292 0
M  V30 1573 C 140.165 1.93624 3.03377 0
M  V30 1574 C 139.773 3.43875 2.87148 0
M  V30 1575 C 141.517 1.86954 3.81115 0
M  V30 1576 C 139.424 4.18875 4.1749 0
M  V30 1577 H 138.354 0.41135 0.631907 0
M  V30 1578 H 141.005 1.50433 1.05082 0
M  V30 1579 H 139.387 1.46904 3.67743 0
M  V30 1580 H 140.561 3.98338 2.31653 0
M  V30 1581 H 138.876 3.51744 2.22856 0
M  V30 1582 H 141.473 2.40275 4.77673 0
M  V30 1583 H 141.816 0.839518 4.07747 0
M  V30 1584 H 142.349 2.31477 3.23517 0
M  V30 1585 H 139.088 5.22332 3.96043 0
M  V30 1586 H 138.608 3.69193 4.72712 0
M  V30 1587 H 140.287 4.27134 4.85968 0
M  V30 1588 N 140.419 -1.14872 1.07899 0
M  V30 1589 C 141.667 -1.85422 0.803941 0
M  V30 1590 C 141.988 -1.83051 -0.67211 0
M  V30 1591 O 141.258 -1.27532 -1.48703 0
M  V30 1592 H 139.838 -0.686537 0.294408 0
M  V30 1593 H 142.5 -1.39226 1.3639 0
M  V30 1594 H 141.596 -2.90399 1.14346 0
M  V30 1595 N 141.898 -0.863906 -1.31812 0
M  V30 1596 C 143.314 -0.555004 -1.49639 0
M  V30 1597 C 143.514 0.912266 -1.79666 0
M  V30 1598 O 142.57 1.69479 -1.87171 0
M  V30 1599 C 143.883 -1.44998 -2.63431 0
M  V30 1600 C 145.431 -1.45138 -2.77316 0
M  V30 1601 C 145.906 -2.33179 -3.94197 0
M  V30 1602 N 147.397 -2.31025 -4.01474 0
M  V30 1603 C 148.132 -2.95871 -4.9117 0
M  V30 1604 N 147.628 -3.69863 -5.8581 0
M  V30 1605 N 149.421 -2.85211 -4.84367 0
M  V30 1606 H 141.572 -1.81339 -1.10589 0
M  V30 1607 H 143.835 -0.77505 -0.545895 0
M  V30 1608 H 143.541 -2.49377 -2.48 0
M  V30 1609 H 143.415 -1.14409 -3.59431 0
M  V30 1610 H 145.802 -0.415201 -2.92164 0
M  V30 1611 H 145.883 -1.79747 -1.82001 0
M  V30 1612 H 145.527 -3.3687 -3.80107 0
M  V30 1613 H 145.457 -1.95897 -4.88807 0
M  V30 1614 H 147.948 -1.77238 -3.33759 0
M  V30 1615 H 148.261 -4.16486 -6.50968 0
M  V30 1616 H 146.606 -3.73971 -5.85808 0
M  V30 1617 H 149.797 -2.26948 -4.09405 0
M  V30 1618 H 149.97 -3.36027 -5.54066 0
M  V30 1619 N 143.376 1.44774 -0.622745 0
M  V30 1620 C 144.624 2.01721 -0.123655 0
M  V30 1621 C 144.945 1.49172 1.25589 0
M  V30 1622 O 144.215 0.691974 1.83272 0
M  V30 1623 H 142.795 0.745777 -0.0427225 0
M  V30 1624 H 145.457 1.77382 -0.807559 0
M  V30 1625 H 144.553 3.11984 -0.0849534 0
M  V30 1626 N 144.854 0.36279 1.53368 0
M  V30 1627 C 145.817 -0.472679 2.24273 0
M  V30 1628 C 146.817 -1.012 1.24961 0
M  V30 1629 O 148.007 -0.898194 1.49259 0
M  V30 1630 C 145.139 -1.66039 2.97731 0
M  V30 1631 H 146.332 0.14773 2.99536 0
M  V30 1632 H 143.885 0.114434 1.55881 0
M  V30 1633 H 144.62 -2.31896 2.26704 0
M  V30 1634 H 144.405 -1.28066 3.70596 0
M  V30 1635 H 145.895 -2.25252 3.51641 0
M  V30 1636 N 146.332 -1.57332 0.0918853 0
M  V30 1637 C 147.579 -1.94236 -0.572577 0
M  V30 1638 C 147.907 -0.973398 -1.6839 0
M  V30 1639 O 147.162 0.00756912 -1.95699 0
M  V30 1640 C 147.461 -3.37689 -1.17051 0
M  V30 1641 C 147.127 -4.50527 -0.183304 0
M  V30 1642 C 145.789 -4.81119 0.0882276 0
M  V30 1643 C 148.141 -5.18883 0.49095 0
M  V30 1644 C 145.469 -5.77395 1.04076 0
M  V30 1645 C 147.821 -6.1618 1.43193 0
M  V30 1646 C 146.485 -6.45179 1.71173 0
M  V30 1647 H 145.755 -0.710762 -0.209521 0
M  V30 1648 H 148.402 -1.9077 0.167036 0
M  V30 1649 H 146.707 -3.37718 -1.9863 0
M  V30 1650 H 148.404 -3.63543 -1.69227 0
M  V30 1651 H 144.994 -4.26681 -0.405124 0
M  V30 1652 H 149.178 -4.95427 0.294312 0
M  V30 1653 H 144.434 -5.98179 1.26457 0
M  V30 1654 H 148.608 -6.68243 1.96023 0
M  V30 1655 H 146.235 -7.1959 2.4514 0
M  V30 1656 N 147.81 0.181792 -1.56548 0
M  V30 1657 C 149.058 0.89832 -1.81038 0
M  V30 1658 C 149.379 1.83232 -0.667164 0
M  V30 1659 O 148.649 1.93372 0.313673 0
M  V30 1660 H 147.229 0.33471 -0.667816 0
M  V30 1661 H 149.891 0.184116 -1.94028 0
M  V30 1662 H 148.987 1.4815 -2.74696 0
M  V30 1663 N 149.288 1.51039 0.449983 0
M  V30 1664 C 150.198 1.74261 1.57067 0
M  V30 1665 C 151.214 0.626363 1.62335 0
M  V30 1666 O 152.39 0.907162 1.79812 0
M  V30 1667 C 149.455 1.85114 2.93144 0
M  V30 1668 C 148.516 3.0893 2.98095 0
M  V30 1669 C 147.749 3.19256 4.27681 0
M  V30 1670 O 147.972 2.35835 5.19363 0
M  V30 1671 O 146.906 4.12144 4.38658 0
M  V30 1672 H 150.732 2.69303 1.40391 0
M  V30 1673 H 148.317 1.35389 0.631688 0
M  V30 1674 H 150.199 1.94311 3.73926 0
M  V30 1675 H 148.874 0.932588 3.09975 0
M  V30 1676 H 147.781 3.0522 2.16314 0
M  V30 1677 H 149.114 4.00433 2.86206 0
M  V30 1678 N 150.766 -0.704594 1.40972 0
M  V30 1679 C 152.012 -1.46675 1.40051 0
M  V30 1680 C 152.345 -1.94199 0.00641102 0
M  V30 1681 O 151.62 -1.68916 -0.964235 0
M  V30 1682 C 151.903 -2.68505 2.39952 0
M  V30 1683 C 151.756 -2.26805 3.88432 0
M  V30 1684 C 153.075 -3.70686 2.37233 0
M  V30 1685 H 150.194 -0.532015 0.510028 0
M  V30 1686 H 152.836 -0.803255 1.72185 0
M  V30 1687 H 150.986 -3.25114 2.1268 0
M  V30 1688 H 152.658 -1.75592 4.26574 0
M  V30 1689 H 150.901 -1.58685 4.03734 0
M  V30 1690 H 151.572 -3.14181 4.53866 0
M  V30 1691 H 154.048 -3.23731 2.61415 0
M  V30 1692 H 152.924 -4.53553 3.09162 0
M  V30 1693 H 153.185 -4.19754 1.38777 0
M  V30 1694 N 152.244 -1.26651 -0.937939 0
M  V30 1695 C 153.66 -1.03834 -1.21205 0
M  V30 1696 C 153.86 0.234502 -2.00131 0
M  V30 1697 O 152.916 0.942767 -2.3424 0
M  V30 1698 C 154.229 -2.27167 -1.97017 0
M  V30 1699 C 155.777 -2.32101 -2.09996 0
M  V30 1700 C 156.252 -3.55136 -2.8921 0
M  V30 1701 N 157.743 -3.55632 -2.96783 0
M  V30 1702 C 158.478 -4.475 -3.58512 0
M  V30 1703 N 157.974 -5.4966 -4.21717 0
M  V30 1704 N 159.767 -4.35145 -3.55816 0
M  V30 1705 H 151.918 -2.08398 -0.410391 0
M  V30 1706 H 154.181 -0.916031 -0.244114 0
M  V30 1707 H 153.887 -3.19765 -1.46434 0
M  V30 1708 H 153.761 -2.31672 -2.97671 0
M  V30 1709 H 156.148 -1.40015 -2.59769 0
M  V30 1710 H 156.229 -2.31605 -1.08594 0
M  V30 1711 H 155.873 -4.47553 -2.40123 0
M  V30 1712 H 155.803 -3.5288 -3.90875 0
M  V30 1713 H 158.294 -2.81743 -2.51852 0
M  V30 1714 H 158.607 -6.15943 -4.66727 0
M  V30 1715 H 156.952 -5.53514 -4.20294 0
M  V30 1716 H 160.143 -3.5455 -3.05634 0
M  V30 1717 H 160.316 -5.06934 -4.03636 0
M  V30 1718 N 153.722 1.14298 -1.08507 0
M  V30 1719 C 154.652 2.21542 -0.737646 0
M  V30 1720 C 155.633 1.67773 0.280377 0
M  V30 1721 O 156.818 1.93616 0.150521 0
M  V30 1722 C 153.948 3.46988 -0.147259 0
M  V30 1723 C 152.902 4.13789 -1.09374 0
M  V30 1724 C 152.228 5.33449 -0.365524 0
M  V30 1725 C 153.528 4.62208 -2.4323 0
M  V30 1726 H 155.222 2.5086 -1.6343 0
M  V30 1727 H 152.768 1.20576 -0.787243 0
M  V30 1728 H 154.721 4.21262 0.107808 0
M  V30 1729 H 153.445 3.17037 0.784538 0
M  V30 1730 H 152.104 3.4147 -1.33393 0
M  V30 1731 H 151.752 4.99759 0.57011 0
M  V30 1732 H 151.452 5.79088 -0.996512 0
M  V30 1733 H 152.976 6.10485 -0.118534 0
M  V30 1734 H 154.39 5.27952 -2.23472 0
M  V30 1735 H 152.787 5.18553 -3.02031 0
M  V30 1736 H 153.857 3.77224 -3.04681 0
M  V30 1737 N 155.201 0.870884 1.31352 0
M  V30 1738 C 156.447 0.482987 1.96965 0
M  V30 1739 C 156.78 -0.962462 1.68672 0
M  V30 1740 O 156.055 -1.6779 0.98371 0
M  V30 1741 C 156.338 0.741752 3.52378 0
M  V30 1742 C 156.191 2.2368 3.9024 0
M  V30 1743 C 157.51 0.208838 4.39604 0
M  V30 1744 H 154.629 0.176955 0.715441 0
M  V30 1745 H 157.271 1.09229 1.55464 0
M  V30 1746 H 155.421 0.223149 3.87859 0
M  V30 1747 H 157.093 2.82273 3.64856 0
M  V30 1748 H 155.336 2.70901 3.38814 0
M  V30 1749 H 156.007 2.3685 4.98604 0
M  V30 1750 H 158.483 0.652529 4.10952 0
M  V30 1751 H 157.359 0.419336 5.47296 0
M  V30 1752 H 157.62 -0.889275 4.33064 0
M  V30 1753 N 156.679 -1.44442 0.630414 0
M  V30 1754 C 157.611 -2.2892 -0.113347 0
M  V30 1755 C 158.624 -1.41243 -0.80959 0
M  V30 1756 O 159.813 -1.65402 -0.671156 0
M  V30 1757 C 156.913 -3.17594 -1.18266 0
M  V30 1758 C 156.086 -4.33682 -0.569073 0
M  V30 1759 C 155.145 -5.03397 -1.53226 0
M  V30 1760 O 154.171 -5.59438 -1.04967 0
M  V30 1761 N 155.373 -5.04783 -2.86661 0
M  V30 1762 H 158.138 -2.93392 0.611636 0
M  V30 1763 H 155.699 -1.54881 0.471523 0
M  V30 1764 H 157.691 -3.61097 -1.82732 0
M  V30 1765 H 156.261 -2.54876 -1.80988 0
M  V30 1766 H 155.481 -3.9338 0.254187 0
M  V30 1767 H 156.769 -5.08608 -0.139767 0
M  V30 1768 H 156.167 -4.60584 -3.28449 0
M  V30 1769 H 154.724 -5.52077 -3.46489 0
M  V30 1770 N 158.157 -0.370918 -1.53173 0
M  V30 1771 C 159.104 0.473035 -2.259 0
M  V30 1772 C 160.074 1.07311 -1.26781 0
M  V30 1773 O 161.259 1.1046 -1.55574 0
M  V30 1774 C 158.399 1.60405 -3.05556 0
M  V30 1775 C 157.512 1.02863 -4.19575 0
M  V30 1776 C 156.647 2.12918 -4.86661 0
M  V30 1777 C 155.686 1.52869 -5.92704 0
M  V30 1778 N 154.823 2.56779 -6.53459 0
M  V30 1779 H 159.663 -0.153649 -2.97604 0
M  V30 1780 H 157.2 -0.0875946 -1.46839 0
M  V30 1781 H 159.158 2.27034 -3.50016 0
M  V30 1782 H 157.788 2.20131 -2.36097 0
M  V30 1783 H 156.84 0.252465 -3.79561 0
M  V30 1784 H 158.152 0.549642 -4.95762 0
M  V30 1785 H 157.306 2.87356 -5.34333 0
M  V30 1786 H 156.045 2.6417 -4.09958 0
M  V30 1787 H 155.05 0.769479 -5.44389 0
M  V30 1788 H 156.275 1.02435 -6.7133 0
M  V30 1789 H 154.221 3.07235 -5.79606 0
M  V30 1790 H 154.138 2.13583 -7.25202 0
M  V30 1791 H 155.406 3.30903 -7.05779 0
M  V30 1792 N 159.635 1.57281 -0.100228 0
M  V30 1793 C 160.582 2.14305 0.856858 0
M  V30 1794 C 161.552 1.06296 1.27634 0
M  V30 1795 O 162.737 1.34109 1.35718 0
M  V30 1796 C 159.877 2.73184 2.10866 0
M  V30 1797 C 158.99 3.95442 1.73925 0
M  V30 1798 C 158.125 4.42468 2.93931 0
M  V30 1799 C 157.164 5.57303 2.5314 0
M  V30 1800 N 156.301 5.99158 3.65997 0
M  V30 1801 H 161.141 2.95772 0.363726 0
M  V30 1802 H 158.678 1.46139 0.167858 0
M  V30 1803 H 160.636 3.05442 2.84185 0
M  V30 1804 H 159.266 1.94437 2.57671 0
M  V30 1805 H 158.318 3.69464 0.905554 0
M  V30 1806 H 159.63 4.78769 1.39935 0
M  V30 1807 H 158.784 4.76537 3.75496 0
M  V30 1808 H 157.523 3.58052 3.31134 0
M  V30 1809 H 156.528 5.22857 1.70003 0
M  V30 1810 H 157.753 6.43471 2.17075 0
M  V30 1811 H 155.699 5.17687 4.02909 0
M  V30 1812 H 155.616 6.77295 3.35869 0
M  V30 1813 H 156.884 6.3786 4.48057 0
M  V30 1814 N 161.113 -0.173488 1.56642 0
M  V30 1815 C 162.39 -0.917617 1.7274 0
M  V30 1816 C 162.77 -2.00484 0.661027 0
M  V30 1817 O 162.118 -2.26184 -0.32453 0
M  V30 1818 C 162.328 -1.48433 3.15862 0
M  V30 1819 C 163.676 -1.95809 3.76754 0
M  V30 1820 O 164.7 -1.58231 3.19126 0
M  V30 1821 O 163.559 -2.65024 4.77938 0
M  V30 1822 H 160.653 -0.431772 0.705338 0
M  V30 1823 H 163.199 -0.161487 1.6893 0
M  V30 1824 H 161.971 -0.701715 3.84957 0
M  V30 1825 H 161.594 -2.30471 3.23989 0
M  V30 1826 N 162.591 -1.51276 -0.441967 0
M  V30 1827 C 163.819 -1.67516 -1.21434 0
M  V30 1828 C 164.234 -0.37055 -1.85128 0
M  V30 1829 O 163.591 0.650498 -1.70513 0
M  V30 1830 C 163.642 -2.78748 -2.30177 0
M  V30 1831 O 163.363 -4.04154 -1.69089 0
M  V30 1832 C 164.864 -3.06217 -3.20541 0
M  V30 1833 H 162.084 -0.562276 -0.366178 0
M  V30 1834 H 164.628 -1.97666 -0.524244 0
M  V30 1835 H 162.783 -2.5121 -2.94911 0
M  V30 1836 H 163.197 -4.65894 -2.40922 0
M  V30 1837 H 164.671 -3.8764 -3.92987 0
M  V30 1838 H 165.148 -2.18439 -3.81026 0
M  V30 1839 H 165.754 -3.35397 -2.61513 0
M  V30 1840 N 164.069 0.697108 -1.41344 0
M  V30 1841 C 165.317 1.45426 -1.40341 0
M  V30 1842 C 165.638 1.94996 -0.0128787 0
M  V30 1843 O 164.908 1.71599 0.945027 0
M  V30 1844 H 163.488 0.539594 -0.516573 0
M  V30 1845 H 166.15 0.825201 -1.76569 0
M  V30 1846 H 165.246 2.31817 -2.08967 0
M  V30 1847 N 165.547 1.27147 0.931209 0
M  V30 1848 C 166.497 1.06227 2.01742 0
M  V30 1849 C 167.481 -0.00859065 1.60898 0
M  V30 1850 O 168.673 0.209537 1.75755 0
M  V30 1851 C 165.802 0.707787 3.35924 0
M  V30 1852 C 164.888 1.81661 3.83223 0
M  V30 1853 N 165.279 3.05564 4.03069 0
M  V30 1854 C 163.577 1.70249 4.12227 0
M  V30 1855 C 164.278 3.77697 4.42403 0
M  V30 1856 N 163.254 3.0544 4.49675 0
M  V30 1857 H 167.056 2.00261 2.15111 0
M  V30 1858 H 164.57 1.1781 1.11779 0
M  V30 1859 H 166.567 0.539043 4.134 0
M  V30 1860 H 165.227 -0.224964 3.2392 0
M  V30 1861 H 166.238 3.41363 3.89476 0
M  V30 1862 H 162.915 0.840329 4.08956 0
M  V30 1863 H 164.305 4.84168 4.65866 0
M  V30 1864 N 167.025 -1.13721 1.09112 0
M  V30 1865 C 168.271 -1.85198 0.826414 0
M  V30 1866 C 168.604 -1.83129 -0.646319 0
M  V30 1867 O 167.879 -1.2671 -1.47563 0
M  V30 1868 C 168.162 -3.33507 1.35812 0
M  V30 1869 C 168.015 -3.44108 2.89672 0
M  V30 1870 C 169.334 -4.28838 0.989256 0
M  V30 1871 H 166.453 -0.67243 0.301675 0
M  V30 1872 H 169.095 -1.33499 1.35197 0
M  V30 1873 H 167.245 -3.77666 0.911082 0
M  V30 1874 H 168.917 -3.08684 3.428 0
M  V30 1875 H 167.16 -2.85087 3.26967 0
M  V30 1876 H 167.831 -4.48388 3.21951 0
M  V30 1877 H 170.307 -3.92734 1.37475 0
M  V30 1878 H 169.183 -5.31051 1.38838 0
M  V30 1879 H 169.444 -4.4198 -0.102924 0
M  V30 1880 N 168.503 -0.877838 -1.30888 0
M  V30 1881 C 169.733 -0.506678 -2.00291 0
M  V30 1882 C 170.141 0.907449 -1.66018 0
M  V30 1883 O 169.484 1.60719 -0.88967 0
M  V30 1884 C 169.546 -0.59323 -3.54572 0
M  V30 1885 C 169.21 -1.97038 -4.12341 0
M  V30 1886 C 170.207 -2.93889 -4.28865 0
M  V30 1887 C 167.892 -2.27383 -4.47886 0
M  V30 1888 C 169.886 -4.19224 -4.80136 0
M  V30 1889 C 167.573 -3.52965 -4.98857 0
M  V30 1890 C 168.571 -4.48701 -5.14934 0
M  V30 1891 O 168.259 -5.72056 -5.64808 0
M  V30 1892 H 167.991 -0.1951 -0.647234 0
M  V30 1893 H 170.545 -1.18301 -1.6791 0
M  V30 1894 H 168.775 0.140057 -3.86446 0
M  V30 1895 H 170.464 -0.234372 -4.05223 0
M  V30 1896 H 171.23 -2.71756 -4.01714 0
M  V30 1897 H 167.109 -1.53639 -4.34645 0
M  V30 1898 H 170.653 -4.93956 -4.92599 0
M  V30 1899 H 166.55 -3.74939 -5.25443 0
M  V30 1900 H 167.318 -5.74337 -5.83163 0
M  V30 1901 N 169.982 1.44106 -0.638065 0
M  V30 1902 C 170.945 2.29138 0.0531013 0
M  V30 1903 C 171.945 1.41409 0.765506 0
M  V30 1904 O 173.135 1.63206 0.609046 0
M  V30 1905 C 170.267 3.23144 1.08584 0
M  V30 1906 H 171.46 2.91739 -0.694883 0
M  V30 1907 H 169.013 1.51134 -0.398538 0
M  V30 1908 H 169.748 2.65408 1.86357 0
M  V30 1909 H 169.533 3.87804 0.578852 0
M  V30 1910 H 171.023 3.87004 1.56899 0
M  V30 1911 N 171.46 0.379036 1.52974 0
M  V30 1912 C 172.393 -0.504932 2.22544 0
M  V30 1913 C 173.371 -1.0723 1.22231 0
M  V30 1914 O 174.555 -1.12589 1.51182 0
M  V30 1915 C 171.682 -1.69794 2.93066 0
M  V30 1916 C 170.728 -1.25678 4.07563 0
M  V30 1917 S 171.561 -0.246852 5.34931 0
M  V30 1918 C 172.717 -1.44588 6.08971 0
M  V30 1919 H 172.95 0.0858666 2.97176 0
M  V30 1920 H 170.483 0.163183 1.53535 0
M  V30 1921 H 172.441 -2.38219 3.34308 0
M  V30 1922 H 171.102 -2.26002 2.18133 0
M  V30 1923 H 170.295 -2.14725 4.5597 0
M  V30 1924 H 169.897 -0.651584 3.6828 0
M  V30 1925 H 172.189 -2.37469 6.34519 0
M  V30 1926 H 173.132 -1.00292 7.00962 0
M  V30 1927 H 173.54 -1.65804 5.39601 0
M  V30 1928 N 172.938 -1.57226 0.108567 0
M  V30 1929 C 173.885 -2.14756 -0.845481 0
M  V30 1930 C 174.855 -1.06971 -1.27068 0
M  V30 1931 O 176.04 -1.34827 -1.35005 0
M  V30 1932 C 173.18 -2.74298 -2.09415 0
M  V30 1933 C 172.293 -3.96358 -1.71826 0
M  V30 1934 C 171.428 -4.44021 -2.9158 0
M  V30 1935 C 170.467 -5.58637 -2.50181 0
M  V30 1936 N 169.604 -6.01091 -3.62814 0
M  V30 1937 H 174.444 -2.95961 -0.348035 0
M  V30 1938 H 171.981 -1.46226 -0.160106 0
M  V30 1939 H 173.939 -3.06945 -2.82561 0
M  V30 1940 H 172.569 -1.95801 -2.56636 0
M  V30 1941 H 171.621 -3.69939 -0.885947 0
M  V30 1942 H 172.933 -4.79504 -1.37394 0
M  V30 1943 H 172.087 -4.78522 -3.72963 0
M  V30 1944 H 170.826 -3.59803 -3.29231 0
M  V30 1945 H 169.831 -5.23751 -1.67228 0
M  V30 1946 H 171.056 -6.44613 -2.13659 0
M  V30 1947 H 169.002 -5.19817 -4.00158 0
M  V30 1948 H 168.919 -6.79066 -3.32273 0
M  V30 1949 H 170.187 -6.40227 -4.44668 0
M  V30 1950 N 174.416 0.165178 -1.56732 0
M  V30 1951 C 175.665 0.879143 -1.81532 0
M  V30 1952 C 175.978 1.83144 -0.686842 0
M  V30 1953 O 177.184 2.58823 -0.819944 0
M  V30 1954 C 175.64 1.61388 -3.21686 0
M  V30 1955 C 175.248 0.704904 -4.4242 0
M  V30 1956 C 176.992 2.3157 -3.55774 0
M  V30 1957 C 174.899 1.44022 -5.73595 0
M  V30 1958 H 173.829 0.332033 -0.676957 0
M  V30 1959 H 176.48 0.132008 -1.83025 0
M  V30 1960 H 174.862 2.40599 -3.14529 0
M  V30 1961 H 176.036 -0.0506815 -4.60772 0
M  V30 1962 H 174.351 0.112419 -4.16248 0
M  V30 1963 H 176.948 2.8719 -4.51028 0
M  V30 1964 H 177.291 3.07201 -2.8095 0
M  V30 1965 H 177.824 1.59297 -3.64513 0
M  V30 1966 H 174.563 0.72612 -6.51466 0
M  V30 1967 H 174.083 2.16898 -5.5921 0
M  V30 1968 H 175.762 1.98606 -6.15764 0
M  V30 1969 N 175.894 1.51508 0.433938 0
M  V30 1970 C 176.824 1.76016 1.53429 0
M  V30 1971 C 177.805 0.610112 1.58782 0
M  V30 1972 O 178.99 0.853177 1.74455 0
M  V30 1973 C 176.12 1.88831 2.9148 0
M  V30 1974 C 175.074 3.04288 3.00987 0
M  V30 1975 C 174.4 3.0229 4.4105 0
M  V30 1976 C 175.7 4.44193 2.74754 0
M  V30 1977 H 177.394 2.68152 1.33171 0
M  V30 1978 H 174.94 1.29035 0.639214 0
M  V30 1979 H 176.893 2.04559 3.6842 0
M  V30 1980 H 175.617 0.933455 3.12976 0
M  V30 1981 H 174.276 2.8827 2.26486 0
M  V30 1982 H 173.924 2.04576 4.59519 0
M  V30 1983 H 173.624 3.79822 4.4834 0
M  V30 1984 H 175.148 3.20116 5.1996 0
M  V30 1985 H 176.562 4.60544 3.41426 0
M  V30 1986 H 174.959 5.23457 2.9345 0
M  V30 1987 H 176.029 4.53996 1.70339 0
M  V30 1988 N 177.372 -0.689602 1.41712 0
M  V30 1989 C 178.788 -1.00093 1.24312 0
M  V30 1990 C 178.988 -2.01036 0.136729 0
M  V30 1991 O 178.044 -2.47562 -0.496918 0
M  V30 1992 C 179.357 -1.51985 2.59463 0
M  V30 1993 C 180.905 -1.63838 2.66695 0
M  V30 1994 C 181.38 -2.1913 4.02177 0
M  V30 1995 N 182.871 -2.26483 4.04054 0
M  V30 1996 C 183.606 -2.70306 5.0569 0
M  V30 1997 N 183.102 -3.13691 6.17713 0
M  V30 1998 N 184.895 -2.69923 4.9305 0
M  V30 1999 H 177.046 -0.0210029 2.1239 0
M  V30 2000 H 179.309 -0.0718733 0.945272 0
M  V30 2001 H 179.015 -0.85269 3.41207 0
M  V30 2002 H 178.889 -2.50103 2.82362 0
M  V30 2003 H 181.276 -2.29664 1.85306 0
M  V30 2004 H 181.357 -0.642492 2.476 0
M  V30 2005 H 181.001 -1.53918 4.84016 0
M  V30 2006 H 180.931 -3.19482 4.18615 0
M  V30 2007 H 183.422 -1.95874 3.23174 0
M  V30 2008 H 183.735 -3.45773 6.9113 0
M  V30 2009 H 182.08 -3.11585 6.21241 0
M  V30 2010 H 185.271 -2.35382 4.04614 0
M  V30 2011 H 185.444 -3.03758 5.72394 0
M  V30 2012 N 178.85 -1.27639 -0.924453 0
M  V30 2013 C 179.797 -1.10644 -2.0255 0
M  V30 2014 C 180.767 -0.00658438 -1.66099 0
M  V30 2015 O 181.952 -0.16952 -1.90045 0
M  V30 2016 C 179.092 -0.76309 -3.36557 0
M  V30 2017 C 178.205 -1.94091 -3.85944 0
M  V30 2018 C 177.34 -1.53914 -5.08413 0
M  V30 2019 C 176.379 -2.68425 -5.50104 0
M  V30 2020 N 175.516 -2.28815 -6.63768 0
M  V30 2021 H 180.356 -2.04858 -2.16419 0
M  V30 2022 H 177.893 -1.01974 -1.06017 0
M  V30 2023 H 179.851 -0.544822 -4.13627 0
M  V30 2024 H 178.481 0.142102 -3.22487 0
M  V30 2025 H 177.533 -2.27162 -3.05125 0
M  V30 2026 H 178.845 -2.7998 -4.12811 0
M  V30 2027 H 177.999 -1.28231 -5.92994 0
M  V30 2028 H 176.738 -0.651391 -4.8333 0
M  V30 2029 H 175.743 -2.94819 -4.64071 0
M  V30 2030 H 176.968 -3.57826 -5.7718 0
M  V30 2031 H 174.914 -1.42495 -6.40337 0
M  V30 2032 H 174.831 -3.08242 -6.90306 0
M  V30 2033 H 176.099 -2.06387 -7.51681 0
M  V30 2034 N 180.328 1.1314 -1.09713 0
M  V30 2035 C 181.291 2.16831 -0.742751 0
M  V30 2036 C 182.291 1.59159 0.229129 0
M  V30 2037 O 183.481 1.74199 0.00693237 0
M  V30 2038 C 180.613 3.40756 -0.0989168 0
M  V30 2039 H 181.806 2.49695 -1.66109 0
M  V30 2040 H 179.359 1.2802 -0.896699 0
M  V30 2041 H 180.094 3.13485 0.830514 0
M  V30 2042 H 179.879 3.83888 -0.798265 0
M  V30 2043 H 181.369 4.17386 0.133524 0
M  V30 2044 N 181.806 0.884767 1.30421 0
M  V30 2045 C 183.083 0.423185 1.90967 0
M  V30 2046 C 183.463 -1.09605 1.80416 0
M  V30 2047 O 182.811 -1.93126 1.22125 0
M  V30 2048 C 183.021 0.921056 3.36627 0
M  V30 2049 C 184.369 0.955903 4.137 0
M  V30 2050 O 185.393 0.867706 3.4547 0
M  V30 2051 O 184.252 1.08614 5.35598 0
M  V30 2052 H 181.346 0.129369 0.816819 0
M  V30 2053 H 183.892 0.973653 1.3899 0
M  V30 2054 H 182.664 1.96489 3.3839 0
M  V30 2055 H 182.287 0.349741 3.96059 0
M  V30 2056 N 183.284 -1.43765 0.645699 0
M  V30 2057 C 184.217 -2.2798 -0.100072 0
M  V30 2058 C 185.195 -1.39391 -0.837194 0
M  V30 2059 O 186.379 -1.68833 -0.838306 0
M  V30 2060 C 183.506 -3.18643 -1.14823 0
M  V30 2061 C 182.552 -4.2344 -0.510009 0
M  V30 2062 S 183.385 -5.30761 0.710824 0
M  V30 2063 C 184.541 -6.24992 -0.33699 0
M  V30 2064 H 184.774 -2.90884 0.614322 0
M  V30 2065 H 182.307 -1.48166 0.434304 0
M  V30 2066 H 184.265 -3.71424 -1.74799 0
M  V30 2067 H 182.926 -2.54932 -1.8349 0
M  V30 2068 H 182.119 -4.86948 -1.29991 0
M  V30 2069 H 181.721 -3.73997 0.0154577 0
M  V30 2070 H 184.013 -6.66691 -1.20537 0
M  V30 2071 H 184.956 -7.07612 0.262879 0
M  V30 2072 H 185.364 -5.60517 -0.669425 0
M  V30 2073 N 184.763 -0.387143 -1.52771 0
M  V30 2074 C 185.693 0.440551 -2.29306 0
M  V30 2075 C 186.674 1.06535 -1.32606 0
M  V30 2076 O 187.859 1.07853 -1.61497 0
M  V30 2077 C 184.989 1.56919 -3.09829 0
M  V30 2078 C 183.943 1.07054 -4.14395 0
M  V30 2079 C 183.269 2.29109 -4.83129 0
M  V30 2080 C 184.569 0.140015 -5.22112 0
M  V30 2081 H 186.263 -0.198026 -2.98744 0
M  V30 2082 H 183.809 -0.09668 -1.43675 0
M  V30 2083 H 185.762 2.15503 -3.62128 0
M  V30 2084 H 184.486 2.23532 -2.3812 0
M  V30 2085 H 183.145 0.507247 -3.63074 0
M  V30 2086 H 182.793 2.94227 -4.0797 0
M  V30 2087 H 182.493 1.96406 -5.53804 0
M  V30 2088 H 184.017 2.88339 -5.38231 0
M  V30 2089 H 185.431 0.633978 -5.69784 0
M  V30 2090 H 183.828 -0.0971485 -6.00021 0
M  V30 2091 H 184.898 -0.811711 -4.78058 0
M  V30 2092 N 186.241 1.57166 -0.116904 0
M  V30 2093 C 187.151 2.18745 0.847812 0
M  V30 2094 C 188.167 1.163 1.29423 0
M  V30 2095 O 189.343 1.48761 1.35765 0
M  V30 2096 C 186.408 2.77307 2.0809 0
M  V30 2097 C 185.469 3.94781 1.68661 0
M  V30 2098 C 184.702 4.50541 2.86091 0
M  V30 2099 O 184.925 4.05202 4.01456 0
M  V30 2100 O 183.859 5.41256 2.63298 0
M  V30 2101 H 187.685 3.01632 0.353778 0
M  V30 2102 H 185.27 1.49005 0.108599 0
M  V30 2103 H 187.152 3.14647 2.80313 0
M  V30 2104 H 185.827 1.97452 2.56504 0
M  V30 2105 H 184.734 3.62214 0.935518 0
M  V30 2106 H 186.067 4.76065 1.24991 0
M  V30 2107 N 187.719 -0.156864 1.56817 0
M  V30 2108 C 188.666 -1.19394 1.97519 0
M  V30 2109 C 189.636 -1.4322 0.841265 0
M  V30 2110 O 190.821 -1.55719 1.10255 0
M  V30 2111 C 187.961 -2.52483 2.35258 0
M  V30 2112 C 187.074 -2.35914 3.61896 0
M  V30 2113 C 186.209 -3.61969 3.88782 0
M  V30 2114 C 185.248 -3.40395 5.08722 0
M  V30 2115 N 184.385 -4.58556 5.31668 0
M  V30 2116 H 189.225 -0.839845 2.85921 0
M  V30 2117 H 186.762 -0.403264 1.41464 0
M  V30 2118 H 188.72 -3.30071 2.55165 0
M  V30 2119 H 187.35 -2.85859 1.49949 0
M  V30 2120 H 186.402 -1.49429 3.49821 0
M  V30 2121 H 187.714 -2.15926 4.49641 0
M  V30 2122 H 186.868 -4.47989 4.09135 0
M  V30 2123 H 185.607 -3.84951 2.9944 0
M  V30 2124 H 184.612 -2.52763 4.88253 0
M  V30 2125 H 185.837 -3.18822 5.99608 0
M  V30 2126 H 183.783 -4.81729 4.45279 0
M  V30 2127 H 183.7 -4.41535 6.13664 0
M  V30 2128 H 184.968 -5.45817 5.5651 0
M  V30 2129 N 189.197 -1.51736 -0.425897 0
M  V30 2130 C 190.107 -1.76738 -1.54275 0
M  V30 2131 C 191.123 -0.65211 -1.61318 0
M  V30 2132 O 192.299 -0.935654 -1.78346 0
M  V30 2133 C 189.364 -1.89755 -2.90162 0
M  V30 2134 C 188.425 -3.13633 -2.93143 0
M  V30 2135 C 187.658 -3.2602 -4.22548 0
M  V30 2136 O 187.881 -2.44067 -5.15546 0
M  V30 2137 O 186.815 -4.19071 -4.32046 0
M  V30 2138 H 190.641 -2.71502 -1.36089 0
M  V30 2139 H 188.226 -1.36376 -0.610069 0
M  V30 2140 H 190.108 -2.00236 -3.70788 0
M  V30 2141 H 188.783 -0.981785 -3.08452 0
M  V30 2142 H 187.69 -3.08622 -2.11431 0
M  V30 2143 H 189.023 -4.04936 -2.798 0
M  V30 2144 N 190.675 0.682077 -1.42076 0
M  V30 2145 C 191.607 1.80755 -1.40926 0
M  V30 2146 C 192.62 1.59833 -0.309398 0
M  V30 2147 O 193.809 1.69087 -0.572014 0
M  V30 2148 C 190.909 3.17744 -1.17865 0
M  V30 2149 C 190.082 3.65578 -2.40149 0
M  V30 2150 C 189.141 4.81277 -2.12742 0
M  V30 2151 O 188.167 4.92197 -2.85887 0
M  V30 2152 N 189.369 5.69474 -1.12602 0
M  V30 2153 H 192.134 1.82229 -2.37935 0
M  V30 2154 H 189.695 0.864903 -1.36861 0
M  V30 2155 H 191.687 3.9279 -0.9746 0
M  V30 2156 H 190.257 3.11214 -0.294068 0
M  V30 2157 H 189.477 2.81291 -2.76169 0
M  V30 2158 H 190.765 3.94278 -3.21593 0
M  V30 2159 H 190.163 5.63297 -0.520899 0
M  V30 2160 H 188.72 6.44363 -0.981842 0
M  V30 2161 N 192.153 1.28127 0.917671 0
M  V30 2162 C 193.399 1.15223 1.66888 0
M  V30 2163 C 193.732 -0.299293 1.9188 0
M  V30 2164 O 193.007 -1.21805 1.51637 0
M  V30 2165 C 193.29 1.94706 3.02922 0
M  V30 2166 C 193.143 3.47898 2.85109 0
M  V30 2167 C 194.462 1.75939 4.03402 0
M  V30 2168 H 191.581 0.419946 0.605652 0
M  V30 2169 H 194.223 1.57398 1.06423 0
M  V30 2170 H 192.373 1.58864 3.54534 0
M  V30 2171 H 194.045 3.93624 2.40537 0
M  V30 2172 H 192.288 3.7373 2.20246 0
M  V30 2173 H 192.959 3.98765 3.81694 0
M  V30 2174 H 195.435 2.07209 3.60837 0
M  V30 2175 H 194.311 2.33931 4.96556 0
M  V30 2176 H 194.572 0.709877 4.36364 0
M  V30 2177 N 193.631 -1.12557 1.10312 0
M  V30 2178 C 194.879 -1.83675 0.843091 0
M  V30 2179 C 195.2 -1.84435 -0.633131 0
M  V30 2180 O 194.47 -1.30657 -1.45964 0
M  V30 2181 H 193.05 -0.680138 0.308904 0
M  V30 2182 H 195.712 -1.36301 1.39313 0
M  V30 2183 H 194.808 -2.87908 1.2048 0
M  V30 2184 N 195.109 -0.891671 -1.2995 0
M  V30 2185 C 196.059 -0.334811 -2.25528 0
M  V30 2186 C 197.043 0.540553 -1.51548 0
M  V30 2187 O 198.235 0.383882 -1.72787 0
M  V30 2188 C 195.364 0.44374 -3.4042 0
M  V30 2189 C 194.45 -0.44609 -4.21747 0
M  V30 2190 N 194.841 -1.54963 -4.81477 0
M  V30 2191 C 193.139 -0.242415 -4.45341 0
M  V30 2192 C 193.84 -2.10015 -5.42465 0
M  V30 2193 N 192.816 -1.39423 -5.25416 0
M  V30 2194 H 196.618 -1.17792 -2.69262 0
M  V30 2195 H 194.132 -0.741822 -1.44467 0
M  V30 2196 H 196.129 0.859362 -4.07947 0
M  V30 2197 H 194.789 1.28421 -2.98225 0
M  V30 2198 H 195.8 -1.93244 -4.80497 0
M  V30 2199 H 192.477 0.560342 -4.13723 0
M  V30 2200 H 193.867 -3.02724 -5.9984 0
M  V30 2201 N 196.587 1.43421 -0.653314 0
M  V30 2202 C 197.836 2.01032 -0.164076 0
M  V30 2203 C 198.149 1.52147 1.22926 0
M  V30 2204 O 199.355 2.02031 1.81371 0
M  V30 2205 C 197.811 3.59082 -0.24252 0
M  V30 2206 C 197.419 4.1696 -1.63855 0
M  V30 2207 C 199.163 4.24079 0.18911 0
M  V30 2208 C 197.07 5.67304 -1.67092 0
M  V30 2209 H 196 0.751798 -0.0575769 0
M  V30 2210 H 198.651 1.6439 -0.815362 0
M  V30 2211 H 197.033 3.93125 0.476276 0
M  V30 2212 H 198.207 3.94416 -2.38271 0
M  V30 2213 H 196.522 3.64335 -2.01616 0
M  V30 2214 H 199.119 5.34381 0.184775 0
M  V30 2215 H 199.462 3.98005 1.22056 0
M  V30 2216 H 199.995 3.94918 -0.477938 0
M  V30 2217 H 196.734 5.98145 -2.68146 0
M  V30 2218 H 196.254 5.91904 -0.970014 0
M  V30 2219 H 197.933 6.31344 -1.4147 0
M  V30 2220 N 198.065 0.39524 1.52563 0
M  V30 2221 C 199.481 0.0454682 1.59535 0
M  V30 2222 C 199.681 -1.44056 1.4089 0
M  V30 2223 O 198.737 -2.20579 1.22888 0
M  V30 2224 C 200.05 0.527963 2.96029 0
M  V30 2225 C 201.598 0.484733 3.09224 0
M  V30 2226 C 202.073 0.943512 4.48176 0
M  V30 2227 N 203.564 0.899765 4.54377 0
M  V30 2228 C 204.299 1.22609 5.60138 0
M  V30 2229 N 203.795 1.62319 6.73516 0
M  V30 2230 N 205.588 1.14696 5.50274 0
M  V30 2231 H 197.739 1.36261 1.62931 0
M  V30 2232 H 200.002 0.558887 0.765735 0
M  V30 2233 H 199.708 1.56607 3.14908 0
M  V30 2234 H 199.582 -0.0698056 3.77135 0
M  V30 2235 H 201.969 -0.544298 2.90037 0
M  V30 2236 H 202.05 1.11838 2.30056 0
M  V30 2237 H 201.694 1.9708 4.68104 0
M  V30 2238 H 201.624 0.286817 5.25818 0
M  V30 2239 H 204.115 0.607632 3.72983 0
M  V30 2240 H 204.428 1.85567 7.5019 0
M  V30 2241 H 202.773 1.66211 6.74833 0
M  V30 2242 H 205.964 0.835701 4.6058 0
M  V30 2243 H 206.137 1.40459 6.32594 0
M  V30 2244 N 199.544 -1.57102 0.125237 0
M  V30 2245 C 200.507 -2.14471 -0.80838 0
M  V30 2246 C 201.507 -1.0811 -1.19033 0
M  V30 2247 O 202.697 -1.33856 -1.11482 0
M  V30 2248 C 199.829 -2.69005 -2.09402 0
M  V30 2249 H 201.022 -2.98297 -0.309696 0
M  V30 2250 H 198.575 -1.55807 -0.124051 0
M  V30 2251 H 199.31 -1.88785 -2.63687 0
M  V30 2252 H 199.095 -3.46799 -1.82957 0
M  V30 2253 H 200.585 -3.13278 -2.76128 0
M  V30 2254 N 201.022 0.148545 -1.56898 0
M  V30 2255 C 201.932 1.20293 -2.01412 0
M  V30 2256 C 202.948 1.47107 -0.929273 0
M  V30 2257 O 204.124 1.58807 -1.23863 0
M  V30 2258 C 201.189 2.51682 -2.38447 0
M  V30 2259 C 200.25 2.32529 -3.60872 0
M  V30 2260 C 199.483 3.57653 -3.96132 0
M  V30 2261 O 199.706 4.63771 -3.32073 0
M  V30 2262 O 198.64 3.50408 -4.89385 0
M  V30 2263 H 202.466 0.855025 -2.91416 0
M  V30 2264 H 200.051 0.357151 -1.45068 0
M  V30 2265 H 201.933 3.29147 -2.63135 0
M  V30 2266 H 200.608 2.86006 -1.51599 0
M  V30 2267 H 199.515 1.53019 -3.41373 0
M  V30 2268 H 200.848 2.03121 -4.48333 0
M  V30 2269 N 202.5 1.5196 0.417844 0
M  V30 2270 C 203.916 1.40569 0.755816 0
M  V30 2271 C 204.116 0.503316 1.95113 0
M  V30 2272 O 203.172 -0.0341925 2.52477 0
M  V30 2273 C 204.485 2.82947 1.01791 0
M  V30 2274 C 206.033 2.92231 1.12116 0
M  V30 2275 C 206.508 4.35559 1.41608 0
M  V30 2276 N 207.999 4.38753 1.48491 0
M  V30 2277 C 208.734 5.46705 1.7292 0
M  V30 2278 N 208.23 6.64788 1.95011 0
M  V30 2279 N 210.023 5.34209 1.74863 0
M  V30 2280 H 202.174 2.09168 -0.369098 0
M  V30 2281 H 204.437 0.942409 -0.102809 0
M  V30 2282 H 204.143 3.5106 0.212081 0
M  V30 2283 H 204.017 3.23462 1.94042 0
M  V30 2284 H 206.404 2.24304 1.9176 0
M  V30 2285 H 206.485 2.55185 0.177225 0
M  V30 2286 H 206.129 5.04042 0.624848 0
M  V30 2287 H 206.059 4.70133 2.37239 0
M  V30 2288 H 208.55 3.5363 1.33244 0
M  V30 2289 H 208.863 7.42845 2.13076 0
M  V30 2290 H 207.208 6.67869 1.92293 0
M  V30 2291 H 210.399 4.40937 1.57137 0
M  V30 2292 H 210.572 6.18415 1.93563 0
M  V30 2293 N 203.978 -0.674533 1.42435 0
M  V30 2294 C 205.255 -1.4305 1.33402 0
M  V30 2295 C 205.635 -2.11081 -0.0284674 0
M  V30 2296 O 204.983 -2.03257 -1.04397 0
M  V30 2297 C 205.193 -2.43272 2.50239 0
M  V30 2298 C 206.541 -3.07907 2.92367 0
M  V30 2299 O 207.565 -2.53599 2.50132 0
M  V30 2300 O 206.424 -4.0632 3.65467 0
M  V30 2301 H 203.518 -0.638076 0.526106 0
M  V30 2302 H 206.064 -0.703235 1.54443 0
M  V30 2303 H 204.836 -1.91803 3.41068 0
M  V30 2304 H 204.459 -3.23479 2.31186 0
M  V30 2305 N 205.456 -1.28612 -0.910864 0
M  V30 2306 C 206.705 -1.15311 -1.65488 0
M  V30 2307 C 207.018 0.296999 -1.93332 0
M  V30 2308 O 208.224 0.551168 -2.65847 0
M  V30 2309 C 206.68 -2.01599 -2.98137 0
M  V30 2310 C 206.288 -3.51367 -2.7793 0
M  V30 2311 C 208.032 -1.96993 -3.76024 0
M  V30 2312 C 205.939 -4.29797 -4.06237 0
M  V30 2313 H 204.869 -0.42796 -0.620779 0
M  V30 2314 H 207.52 -1.53166 -1.01057 0
M  V30 2315 H 205.902 -1.56603 -3.63719 0
M  V30 2316 H 207.076 -4.0434 -2.21011 0
M  V30 2317 H 205.391 -3.57529 -2.13452 0
M  V30 2318 H 207.988 -2.52856 -4.71135 0
M  V30 2319 H 208.331 -0.94733 -4.05378 0
M  V30 2320 H 208.864 -2.39973 -3.17266 0
M  V30 2321 H 205.603 -5.32648 -3.82055 0
M  V30 2322 H 205.123 -3.81596 -4.62757 0
M  V30 2323 H 206.802 -4.39869 -4.74473 0
M  V30 2324 N 206.934 1.1197 -1.10907 0
M  V30 2325 C 207.864 2.19928 -0.784473 0
M  V30 2326 C 208.845 1.6833 0.244726 0
M  V30 2327 O 210.03 1.93892 0.109418 0
M  V30 2328 C 207.16 3.46597 -0.220827 0
M  V30 2329 C 206.114 4.11376 -1.18127 0
M  V30 2330 C 205.44 5.32554 -0.478594 0
M  V30 2331 C 206.74 4.56945 -2.52979 0
M  V30 2332 H 208.434 2.47337 -1.68715 0
M  V30 2333 H 205.98 1.18879 -0.812642 0
M  V30 2334 H 207.933 4.21396 0.0184278 0
M  V30 2335 H 206.657 3.1863 0.717113 0
M  V30 2336 H 205.316 3.38564 -1.40606 0
M  V30 2337 H 204.964 5.00856 0.463976 0
M  V30 2338 H 204.664 5.76844 -1.11912 0
M  V30 2339 H 206.188 6.10096 -0.248 0
M  V30 2340 H 207.602 5.23093 -2.3462 0
M  V30 2341 H 205.999 5.1203 -3.12962 0
M  V30 2342 H 207.069 3.70676 -3.12614 0
M  V30 2343 N 208.412 0.89855 1.29475 0
M  V30 2344 C 209.658 0.524658 1.95896 0
M  V30 2345 C 209.991 -0.926468 1.70676 0
M  V30 2346 O 209.266 -1.65665 1.01908 0
M  V30 2347 C 209.549 0.81633 3.50725 0
M  V30 2348 C 209.402 2.31907 3.85408 0
M  V30 2349 C 210.721 0.302038 4.39062 0
M  V30 2350 H 207.84 0.19209 0.711527 0
M  V30 2351 H 210.482 1.12502 1.53112 0
M  V30 2352 H 208.632 0.305369 3.87298 0
M  V30 2353 H 210.304 2.89949 3.58786 0
M  V30 2354 H 208.547 2.78027 3.32992 0
M  V30 2355 H 209.218 2.47373 4.93468 0
M  V30 2356 H 211.694 0.739551 4.09475 0
M  V30 2357 H 210.57 0.535331 5.46283 0
M  V30 2358 H 210.831 -0.797216 4.34853 0
M  V30 2359 N 209.89 -1.43072 0.660911 0
M  V30 2360 C 210.8 -2.34585 -0.0264163 0
M  V30 2361 C 211.816 -1.54316 -0.803898 0
M  V30 2362 O 212.992 -1.86939 -0.749391 0
M  V30 2363 C 210.057 -3.32689 -0.975639 0
M  V30 2364 C 209.118 -4.2886 -0.194236 0
M  V30 2365 C 208.351 -5.22278 -1.09825 0
M  V30 2366 O 208.574 -5.20299 -2.33763 0
M  V30 2367 O 207.508 -5.99228 -0.566513 0
M  V30 2368 H 211.334 -2.94869 0.727034 0
M  V30 2369 H 208.919 -1.43342 0.42111 0
M  V30 2370 H 210.801 -3.92995 -1.52094 0
M  V30 2371 H 209.476 -2.74898 -1.70918 0
M  V30 2372 H 208.383 -3.72011 0.394835 0
M  V30 2373 H 209.716 -4.89655 0.499899 0
M  V30 2374 N 211.368 -0.403325 -1.52352 0
M  V30 2375 C 212.331 0.413051 -2.25447 0
M  V30 2376 C 213.331 0.978513 -1.276 0
M  V30 2377 O 214.521 0.858305 -1.51587 0
M  V30 2378 C 211.653 1.58087 -3.02029 0
M  V30 2379 H 212.846 -0.227094 -2.99039 0
M  V30 2380 H 210.399 -0.155722 -1.55522 0
M  V30 2381 H 211.134 2.25804 -2.32772 0
M  V30 2382 H 210.919 1.18195 -3.73861 0
M  V30 2383 H 212.409 2.1585 -3.57489 0
M  V30 2384 N 212.846 1.57033 -0.133567 0
M  V30 2385 C 214.123 1.87256 0.56522 0
M  V30 2386 C 214.503 1.03726 1.83859 0
M  V30 2387 O 213.851 0.120247 2.28183 0
M  V30 2388 C 214.061 3.3865 0.843636 0
M  V30 2389 C 215.409 4.07574 1.19032 0
M  V30 2390 O 216.433 3.43752 0.933429 0
M  V30 2391 O 215.292 5.20259 1.67312 0
M  V30 2392 H 212.386 0.775678 0.286796 0
M  V30 2393 H 214.932 1.68855 -0.169168 0
M  V30 2394 H 213.704 3.91257 -0.0581149 0
M  V30 2395 H 213.327 3.62532 1.63268 0
M  V30 2396 N 214.325 -0.140222 1.56975 0
M  V30 2397 C 215.55 -0.870414 1.88251 0
M  V30 2398 C 215.975 -1.73637 0.723312 0
M  V30 2399 O 215.333 -1.78329 -0.32689 0
M  V30 2400 C 215.381 -1.69737 3.18154 0
M  V30 2401 O 214.485 -2.80229 3.02565 0
M  V30 2402 H 213.826 -0.242025 0.61832 0
M  V30 2403 H 216.356 -0.128999 2.04193 0
M  V30 2404 H 216.366 -2.09099 3.50345 0
M  V30 2405 H 215.041 -1.06152 4.02125 0
M  V30 2406 H 213.618 -2.44224 2.81796 0
M  V30 2407 N 215.803 -1.52179 -0.40978 0
M  V30 2408 C 216.733 -1.78435 -1.5061 0
M  V30 2409 C 217.714 -0.635295 -1.57791 0
M  V30 2410 O 218.899 -0.880823 -1.73076 0
M  V30 2411 C 216.029 -1.93444 -2.88439 0
M  V30 2412 C 214.983 -3.09038 -2.96108 0
M  V30 2413 C 214.309 -3.09268 -4.36185 0
M  V30 2414 C 215.609 -4.48508 -2.67652 0
M  V30 2415 H 217.303 -2.70237 -1.28889 0
M  V30 2416 H 214.849 -1.30036 -0.618605 0
M  V30 2417 H 216.802 -2.10394 -3.65119 0
M  V30 2418 H 215.526 -0.983129 -3.11452 0
M  V30 2419 H 214.185 -2.91837 -2.21872 0
M  V30 2420 H 213.833 -2.11861 -4.56206 0
M  V30 2421 H 213.533 -3.86907 -4.42241 0
M  V30 2422 H 215.057 -3.28348 -5.14801 0
M  V30 2423 H 216.471 -4.65918 -3.34056 0
M  V30 2424 H 214.868 -5.28059 -2.85085 0
M  V30 2425 H 215.938 -4.56649 -1.63095 0
M  V30 2426 N 217.281 0.66697 -1.42791 0
M  V30 2427 C 218.527 1.42754 -1.44889 0
M  V30 2428 C 218.882 1.92283 -0.0669755 0
M  V30 2429 O 218.175 1.68494 0.912154 0
M  V30 2430 C 218.369 2.6349 -2.4147 0
M  V30 2431 C 218.198 2.25776 -3.88915 0
M  V30 2432 C 216.968 2.1476 -4.57391 0
M  V30 2433 C 219.166 1.86927 -4.79127 0
M  V30 2434 N 217.148 1.70232 -5.89826 0
M  V30 2435 C 218.519 1.53378 -6.00729 0
M  V30 2436 C 220.574 1.73989 -4.66511 0
M  V30 2437 C 219.277 1.08187 -7.11117 0
M  V30 2438 C 221.303 1.30203 -5.76889 0
M  V30 2439 C 220.665 0.975818 -6.97608 0
M  V30 2440 H 216.764 0.518559 -0.585338 0
M  V30 2441 H 219.348 0.768906 -1.78874 0
M  V30 2442 H 217.519 3.27033 -2.09533 0
M  V30 2443 H 219.251 3.30123 -2.34096 0
M  V30 2444 H 216.006 2.3408 -4.11708 0
M  V30 2445 H 216.43 1.50369 -6.6009 0
M  V30 2446 H 221.072 1.97853 -3.7365 0
M  V30 2447 H 218.79 0.830701 -8.03819 0
M  V30 2448 H 222.376 1.20701 -5.69142 0
M  V30 2449 H 221.256 0.642157 -7.81566 0
M  V30 2450 N 218.759 1.29093 0.90403 0
M  V30 2451 C 220.005 1.16986 1.65656 0
M  V30 2452 C 220.338 -0.278925 1.92186 0
M  V30 2453 O 219.613 -1.2019 1.5292 0
M  V30 2454 C 219.896 1.97908 3.0084 0
M  V30 2455 C 219.749 3.50903 2.81403 0
M  V30 2456 C 221.068 1.80208 4.01513 0
M  V30 2457 H 218.187 0.426346 0.601164 0
M  V30 2458 H 220.829 1.58518 1.04747 0
M  V30 2459 H 218.979 1.62616 3.52829 0
M  V30 2460 H 220.651 3.96153 2.36348 0
M  V30 2461 H 218.894 3.76045 2.1627 0
M  V30 2462 H 219.565 4.02791 3.77443 0
M  V30 2463 H 222.041 2.11025 3.58619 0
M  V30 2464 H 220.917 2.39184 4.94047 0
M  V30 2465 H 221.178 0.756119 4.35586 0
M  V30 2466 N 220.237 -1.11381 1.11499 0
M  V30 2467 C 221.483 -1.83403 0.865512 0
M  V30 2468 C 221.816 -1.84459 -0.607329 0
M  V30 2469 O 221.091 -1.29811 -1.44842 0
M  V30 2470 C 221.374 -3.30552 1.42855 0
M  V30 2471 C 221.227 -3.37886 2.96906 0
M  V30 2472 C 222.546 -4.26643 1.08 0
M  V30 2473 H 219.665 -0.665879 0.31587 0
M  V30 2474 H 222.307 -1.30601 1.37998 0
M  V30 2475 H 220.457 -3.75648 0.990985 0
M  V30 2476 H 222.129 -3.01343 3.49271 0
M  V30 2477 H 220.372 -2.78088 3.32941 0
M  V30 2478 H 221.043 -4.41458 3.31389 0
M  V30 2479 H 223.519 -3.89729 1.45775 0
M  V30 2480 H 222.395 -5.27986 1.50072 0
M  V30 2481 H 222.656 -4.42099 -0.00915037 0
M  V30 2482 N 221.715 -0.905404 -1.28997 0
M  V30 2483 C 222.662 -0.385892 -2.27551 0
M  V30 2484 C 223.632 0.535113 -1.57244 0
M  V30 2485 O 224.817 0.459119 -1.85194 0
M  V30 2486 C 221.957 0.375461 -3.43051 0
M  V30 2487 C 221.07 -0.577092 -4.28128 0
M  V30 2488 C 220.205 0.201879 -5.30816 0
M  V30 2489 C 219.244 -0.744829 -6.07551 0
M  V30 2490 N 218.381 9.42587e-05 -7.021 0
M  V30 2491 H 223.221 -1.23139 -2.71368 0
M  V30 2492 H 220.758 -0.618542 -1.33463 0
M  V30 2493 H 222.716 0.832992 -4.088 0
M  V30 2494 H 221.346 1.18537 -3.00248 0
M  V30 2495 H 220.398 -1.15315 -3.62501 0
M  V30 2496 H 221.71 -1.30152 -4.8152 0
M  V30 2497 H 220.864 0.720351 -6.02408 0
M  V30 2498 H 219.603 0.959413 -4.7817 0
M  V30 2499 H 218.608 -1.27475 -5.34818 0
M  V30 2500 H 219.833 -1.50178 -6.62286 0
M  V30 2501 H 217.779 0.739791 -6.51815 0
M  V30 2502 H 217.696 -0.664321 -7.53076 0
M  V30 2503 H 218.964 0.498644 -7.77903 0
M  V30 2504 N 223.193 1.4272 -0.668489 0
M  V30 2505 C 224.126 2.28111 0.0637898 0
M  V30 2506 C 225.104 1.40705 0.814912 0
M  V30 2507 O 226.288 1.70146 0.81134 0
M  V30 2508 C 223.415 3.20429 1.0974 0
M  V30 2509 C 222.461 4.24197 0.442579 0
M  V30 2510 S 223.294 5.29563 -0.795173 0
M  V30 2511 C 224.45 6.25449 0.237516 0
M  V30 2512 H 224.683 2.8987 -0.660521 0
M  V30 2513 H 222.216 1.47456 -0.457821 0
M  V30 2514 H 224.174 3.74158 1.68868 0
M  V30 2515 H 222.835 2.57818 1.79411 0
M  V30 2516 H 222.028 4.88954 1.22227 0
M  V30 2517 H 221.63 3.73925 -0.0749554 0
M  V30 2518 H 223.922 6.68524 1.09915 0
M  V30 2519 H 224.865 7.07104 -0.375421 0
M  V30 2520 H 225.273 5.61511 0.580167 0
M  V30 2521 N 224.671 0.411399 1.52136 0
M  V30 2522 C 225.918 -0.163645 2.01838 0
M  V30 2523 C 226.246 -1.4495 1.29691 0
M  V30 2524 O 225.501 -1.91725 0.392431 0
M  V30 2525 C 225.8 -0.455872 3.54481 0
M  V30 2526 C 225.466 0.741055 4.44769 0
M  V30 2527 C 224.128 1.06936 4.69167 0
M  V30 2528 C 226.48 1.54075 4.97906 0
M  V30 2529 C 223.808 2.19851 5.43951 0
M  V30 2530 C 226.16 2.66067 5.73926 0
M  V30 2531 C 224.824 2.99381 5.96596 0
M  V30 2532 H 224.094 -0.0598821 0.738576 0
M  V30 2533 H 226.741 0.553283 1.83333 0
M  V30 2534 H 225.046 -1.2544 3.71177 0
M  V30 2535 H 226.743 -0.913802 3.90449 0
M  V30 2536 H 223.333 0.475192 4.25958 0
M  V30 2537 H 227.517 1.30033 4.78963 0
M  V30 2538 H 222.773 2.46006 5.59724 0
M  V30 2539 H 226.947 3.28419 6.14096 0
M  V30 2540 H 224.574 3.86992 6.54325 0
M  V30 2541 N 226.149 -1.5696 0.141893 0
M  V30 2542 C 227.379 -2.00031 -0.516828 0
M  V30 2543 C 227.787 -1.02091 -1.59293 0
M  V30 2544 O 227.13 -0.00909657 -1.83698 0
M  V30 2545 C 227.192 -3.39534 -1.1814 0
M  V30 2546 C 226.856 -4.56313 -0.250513 0
M  V30 2547 C 227.853 -5.17295 0.519839 0
M  V30 2548 C 225.538 -5.02061 -0.154907 0
M  V30 2549 C 227.532 -6.2243 1.3733 0
M  V30 2550 C 225.219 -6.07053 0.702161 0
M  V30 2551 C 226.217 -6.67106 1.46487 0
M  V30 2552 O 225.905 -7.70066 2.30767 0
M  V30 2553 H 225.637 -0.661451 -0.139493 0
M  V30 2554 H 228.191 -2.04086 0.231926 0
M  V30 2555 H 226.421 -3.32302 -1.97769 0
M  V30 2556 H 228.11 -3.66745 -1.73933 0
M  V30 2557 H 228.876 -4.82852 0.45598 0
M  V30 2558 H 224.755 -4.5505 -0.7383 0
M  V30 2559 H 228.299 -6.69233 1.96909 0
M  V30 2560 H 224.196 -6.40923 0.76733 0
M  V30 2561 H 224.964 -7.87264 2.23959 0
M  V30 2562 N 227.627 0.131896 -1.57047 0
M  V30 2563 C 228.852 0.860418 -1.8871 0
M  V30 2564 C 229.277 1.73251 -0.73251 0
M  V30 2565 O 228.635 1.785 0.317429 0
M  V30 2566 C 228.683 1.68047 -3.19049 0
M  V30 2567 O 227.787 2.7862 -3.04047 0
M  V30 2568 H 227.128 0.238743 -0.619595 0
M  V30 2569 H 229.658 0.118169 -2.04258 0
M  V30 2570 H 229.668 2.07238 -3.51449 0
M  V30 2571 H 228.343 1.04018 -4.02682 0
M  V30 2572 H 226.92 2.42726 -2.83088 0
M  V30 2573 N 229.106 1.52395 0.401703 0
M  V30 2574 C 230.353 1.66817 1.14796 0
M  V30 2575 C 230.681 0.401772 1.90305 0
M  V30 2576 O 229.936 -0.615487 1.85769 0
M  V30 2577 C 230.235 2.84578 2.16217 0
M  V30 2578 C 229.901 4.22513 1.5746 0
M  V30 2579 C 228.563 4.60029 1.41161 0
M  V30 2580 C 230.915 5.0844 1.14622 0
M  V30 2581 C 228.243 5.81144 0.80552 0
M  V30 2582 C 230.595 6.30167 0.55428 0
M  V30 2583 C 229.259 6.66426 0.378482 0
M  V30 2584 H 228.529 0.610428 0.420069 0
M  V30 2585 H 231.176 1.86512 0.434212 0
M  V30 2586 H 229.481 2.59248 2.93764 0
M  V30 2587 H 231.178 2.92933 2.73845 0
M  V30 2588 H 227.768 3.92953 1.71132 0
M  V30 2589 H 231.952 4.80034 1.26021 0
M  V30 2590 H 227.208 6.07855 0.657399 0
M  V30 2591 H 231.382 6.96071 0.213983 0
M  V30 2592 H 229.009 7.60143 -0.0932606 0
M  V30 2593 N 230.584 -0.659388 1.43143 0
M  V30 2594 C 231.516 -1.7849 1.43784 0
M  V30 2595 C 232.529 -1.5932 0.334787 0
M  V30 2596 O 233.718 -1.68155 0.598842 0
M  V30 2597 C 230.818 -3.15828 1.22906 0
M  V30 2598 C 229.991 -3.61711 2.45934 0
M  V30 2599 C 229.05 -4.77831 2.20371 0
M  V30 2600 O 228.076 -4.87586 2.93681 0
M  V30 2601 N 229.278 -5.67611 1.21647 0
M  V30 2602 H 232.043 -1.7842 2.40803 0
M  V30 2603 H 229.604 -0.84302 1.3822 0
M  V30 2604 H 231.596 -3.91189 1.03697 0
M  V30 2605 H 230.166 -3.10707 0.343542 0
M  V30 2606 H 229.386 -2.76861 2.80609 0
M  V30 2607 H 230.674 -3.89112 3.27825 0
M  V30 2608 H 230.072 -5.62397 0.610449 0
M  V30 2609 H 228.629 -6.42719 1.08423 0
M  V30 2610 N 232.062 -1.29571 -0.897171 0
M  V30 2611 C 233.339 -1.08365 -1.62839 0
M  V30 2612 C 233.719 0.371331 -2.07808 0
M  V30 2613 O 233.067 1.3606 -1.83576 0
M  V30 2614 C 233.277 -2.0735 -2.80726 0
M  V30 2615 C 234.625 -2.38406 -3.51351 0
M  V30 2616 O 235.649 -2.05564 -2.90898 0
M  V30 2617 O 234.508 -2.9453 -4.60341 0
M  V30 2618 H 231.602 -0.415345 -0.715134 0
M  V30 2619 H 234.148 -1.40952 -0.945018 0
M  V30 2620 H 232.92 -3.05339 -2.44711 0
M  V30 2621 H 232.543 -1.75507 -3.56767 0
M  V30 2622 N 233.54 1.10788 -1.12088 0
M  V30 2623 C 234.487 2.17025 -0.785407 0
M  V30 2624 C 235.457 1.64265 0.246191 0
M  V30 2625 O 236.642 1.90412 0.121584 0
M  V30 2626 C 233.782 3.44249 -0.242177 0
M  V30 2627 C 232.895 4.1098 -1.33115 0
M  V30 2628 C 232.03 5.25911 -0.747741 0
M  V30 2629 C 231.069 5.84538 -1.81609 0
M  V30 2630 N 230.206 6.90853 -1.25167 0
M  V30 2631 H 235.046 2.45066 -1.69548 0
M  V30 2632 H 232.583 1.20297 -0.846582 0
M  V30 2633 H 234.541 4.17101 0.0908026 0
M  V30 2634 H 233.171 3.16571 0.631072 0
M  V30 2635 H 232.223 3.36133 -1.78097 0
M  V30 2636 H 233.535 4.50601 -2.13917 0
M  V30 2637 H 232.689 6.056 -0.365216 0
M  V30 2638 H 231.428 4.87614 0.0915188 0
M  V30 2639 H 230.433 5.03522 -2.20785 0
M  V30 2640 H 231.658 6.249 -2.6585 0
M  V30 2641 H 229.604 6.54562 -0.434174 0
M  V30 2642 H 229.521 7.29166 -1.99633 0
M  V30 2643 H 230.789 7.7433 -0.896259 0
M  V30 2644 N 235.018 0.912232 1.28515 0
M  V30 2645 C 235.948 0.416403 2.29757 0
M  V30 2646 C 236.929 -0.515194 1.6211 0
M  V30 2647 O 238.114 -0.423253 1.89532 0
M  V30 2648 C 235.244 -0.34572 3.45575 0
M  V30 2649 C 234.198 0.496599 4.25109 0
M  V30 2650 C 233.524 -0.393771 5.33248 0
M  V30 2651 C 234.824 1.75307 4.92001 0
M  V30 2652 H 236.518 1.26249 2.7148 0
M  V30 2653 H 234.064 0.608515 1.30511 0
M  V30 2654 H 236.017 -0.703422 4.15488 0
M  V30 2655 H 234.741 -1.2257 3.02728 0
M  V30 2656 H 233.4 0.8368 3.56922 0
M  V30 2657 H 233.048 -1.27225 4.86644 0
M  V30 2658 H 232.748 0.166209 5.87365 0
M  V30 2659 H 234.272 -0.747389 6.06009 0
M  V30 2660 H 235.686 1.46437 5.54283 0
M  V30 2661 H 234.083 2.25534 5.56106 0
M  V30 2662 H 235.153 2.48176 4.16577 0
M  V30 2663 N 236.496 -1.42363 0.676048 0
M  V30 2664 C 237.444 -2.32596 -0.0131507 0
M  V30 2665 C 238.438 -1.49891 -0.789238 0
M  V30 2666 O 239.644 -1.65955 -0.697061 0
M  V30 2667 H 236.019 -0.751647 -0.0230481 0
M  V30 2668 H 237.99 -2.88421 0.765243 0
M  V30 2669 C 236.739 -3.34479 -0.949702 0
M  V30 2670 H 236.062 -3.98158 -0.361938 0
M  V30 2671 H 237.502 -4.00199 -1.4006 0
M  V30 2672 C 235.961 -2.66838 -2.05667 0
M  V30 2673 O 236.491 -2.50124 -3.14326 0
M  V30 2674 N 234.697 -2.25843 -1.82875 0
M  V30 2675 H 234.244 -2.39637 -0.945085 0
M  V30 2676 H 234.202 -1.80918 -2.5713 0
M  V30 2677 N 237.974 -0.419461 -1.51915 0
M  V30 2678 C 238.904 0.391813 -2.30189 0
M  V30 2679 C 239.885 1.03699 -1.34836 0
M  V30 2680 O 241.07 1.04403 -1.63748 0
M  V30 2681 C 238.2 1.50312 -3.13087 0
M  V30 2682 C 237.154 0.9824 -4.16573 0
M  V30 2683 C 236.48 2.18809 -4.8788 0
M  V30 2684 C 237.78 0.0292356 -5.22292 0
M  V30 2685 H 239.474 -0.26135 -2.98257 0
M  V30 2686 H 237.02 -0.127134 -1.43438 0
M  V30 2687 H 238.973 2.07773 -3.66617 0
M  V30 2688 H 237.697 2.18431 -2.42807 0
M  V30 2689 H 236.356 0.430119 -3.64068 0
M  V30 2690 H 236.004 2.85507 -4.14119 0
M  V30 2691 H 235.704 1.84615 -5.57845 0
M  V30 2692 H 237.228 2.76858 -5.44226 0
M  V30 2693 H 238.642 0.512976 -5.71 0
M  V30 2694 H 237.039 -0.2244 -5.9968 0
M  V30 2695 H 238.109 -0.912931 -4.76228 0
M  V30 2696 N 239.452 1.56882 -0.150215 0
M  V30 2697 C 240.682 2.00302 0.506213 0
M  V30 2698 C 241.09 1.02934 1.58749 0
M  V30 2699 O 240.433 0.0188384 1.8369 0
M  V30 2700 C 240.495 3.40156 1.16337 0
M  V30 2701 C 240.159 4.56439 0.226311 0
M  V30 2702 C 241.156 5.17012 -0.547265 0
M  V30 2703 C 238.841 5.02136 0.128279 0
M  V30 2704 C 240.835 6.21693 -1.40629 0
M  V30 2705 C 238.522 6.06672 -0.734345 0
M  V30 2706 C 239.52 6.6632 -1.50023 0
M  V30 2707 O 239.208 7.68831 -2.34848 0
M  V30 2708 H 238.94 0.662182 0.135984 0
M  V30 2709 H 241.494 2.03961 -0.242746 0
M  V30 2710 H 239.724 3.33346 1.96004 0
M  V30 2711 H 241.413 3.67663 1.71985 0
M  V30 2712 H 242.179 4.82603 -0.48158 0
M  V30 2713 H 238.058 4.55435 0.714157 0
M  V30 2714 H 241.602 6.68179 -2.00455 0
M  V30 2715 H 237.499 6.40507 -0.801309 0
M  V30 2716 H 238.267 7.86065 -2.28131 0
M  V30 2717 N 240.93 -0.123565 1.57115 0
M  V30 2718 C 241.86 -1.15309 2.03042 0
M  V30 2719 C 242.841 -1.43454 0.914061 0
M  V30 2720 O 244.026 -1.53973 1.18347 0
M  V30 2721 C 241.156 -2.48043 2.43089 0
M  V30 2722 C 240.11 -2.3437 3.58127 0
M  V30 2723 C 239.436 -3.72026 3.84059 0
M  V30 2724 C 240.736 -1.80804 4.90007 0
M  V30 2725 H 242.43 -0.771102 2.893 0
M  V30 2726 H 239.976 -0.369479 1.39179 0
M  V30 2727 H 241.929 -3.20311 2.73823 0
M  V30 2728 H 240.653 -2.88122 1.53796 0
M  V30 2729 H 239.312 -1.64551 3.27595 0
M  V30 2730 H 238.96 -4.09582 2.91979 0
M  V30 2731 H 238.66 -3.63732 4.6149 0
M  V30 2732 H 240.184 -4.45806 4.1724 0
M  V30 2733 H 241.598 -2.42886 5.19307 0
M  V30 2734 H 239.995 -1.83343 5.71407 0
M  V30 2735 H 241.065 -0.76528 4.78823 0
M  V30 2736 N 242.408 -1.52605 -0.393616 0
M  V30 2737 C 243.657 -1.66649 -1.13627 0
M  V30 2738 C 243.97 -0.410364 -1.91247 0
M  V30 2739 O 245.176 -0.430854 -2.68059 0
M  V30 2740 C 243.632 -2.9449 -2.06891 0
M  V30 2741 C 243.24 -4.27266 -1.34714 0
M  V30 2742 C 244.984 -3.17899 -2.81319 0
M  V30 2743 C 242.891 -5.46217 -2.26717 0
M  V30 2744 H 241.821 -0.62084 -0.427871 0
M  V30 2745 H 244.472 -1.791 -0.399428 0
M  V30 2746 H 242.854 -2.75774 -2.84191 0
M  V30 2747 H 244.028 -4.56518 -0.626714 0
M  V30 2748 H 242.343 -4.10081 -0.722643 0
M  V30 2749 H 244.94 -4.03949 -3.50328 0
M  V30 2750 H 245.283 -2.32777 -3.45139 0
M  V30 2751 H 245.816 -3.37159 -2.11113 0
M  V30 2752 H 242.555 -6.33733 -1.67521 0
M  V30 2753 H 242.075 -5.21283 -2.96689 0
M  V30 2754 H 243.754 -5.7991 -2.86903 0
M  V30 2755 N 243.887 0.651787 -1.4349 0
M  V30 2756 C 244.82 1.77668 -1.43211 0
M  V30 2757 C 245.798 1.59931 -0.29338 0
M  V30 2758 O 246.982 1.82095 -0.487191 0
M  V30 2759 C 244.109 3.14986 -1.24505 0
M  V30 2760 C 243.155 3.51421 -2.41673 0
M  V30 2761 S 243.988 3.51234 -4.04222 0
M  V30 2762 C 245.144 4.91206 -3.87902 0
M  V30 2763 H 245.377 1.77635 -2.38397 0
M  V30 2764 H 242.91 0.824558 -1.30539 0
M  V30 2765 H 244.868 3.94237 -1.144 0
M  V30 2766 H 243.529 3.1258 -0.308651 0
M  V30 2767 H 242.722 4.51291 -2.24393 0
M  V30 2768 H 242.324 2.79585 -2.48411 0
M  V30 2769 H 244.616 5.79902 -3.50315 0
M  V30 2770 H 245.559 5.13537 -4.8753 0
M  V30 2771 H 245.967 4.64808 -3.20334 0
M  V30 2772 N 245.365 1.30045 0.890287 0
M  V30 2773 C 246.275 1.17885 2.02831 0
M  V30 2774 C 247.291 0.0999609 1.73713 0
M  V30 2775 O 248.467 0.313867 1.98939 0
M  V30 2776 C 245.532 0.866079 3.35708 0
M  V30 2777 C 244.593 2.02979 3.78283 0
M  V30 2778 C 243.826 1.73184 5.0482 0
M  V30 2779 O 244.049 0.657237 5.66601 0
M  V30 2780 O 242.983 2.58267 5.43674 0
M  V30 2781 H 246.809 2.13474 2.16015 0
M  V30 2782 H 244.394 1.09587 1.01543 0
M  V30 2783 H 246.276 0.706623 4.15433 0
M  V30 2784 H 244.951 -0.0599443 3.23644 0
M  V30 2785 H 243.858 2.24454 2.99285 0
M  V30 2786 H 245.191 2.93734 3.94944 0
M  V30 2787 N 246.843 -1.10192 1.12674 0
M  V30 2788 C 248.09 -1.82205 0.883606 0
M  V30 2789 C 248.418 -1.8532 -0.590492 0
M  V30 2790 O 247.673 -1.31137 -1.45264 0
M  V30 2791 C 247.972 -3.28552 1.4067 0
M  V30 2792 C 247.638 -3.45582 2.89627 0
M  V30 2793 C 246.3 -3.49937 3.30299 0
M  V30 2794 C 248.652 -3.50768 3.85501 0
M  V30 2795 C 245.98 -3.57049 4.65546 0
M  V30 2796 C 248.332 -3.59414 5.20581 0
M  V30 2797 C 246.996 -3.62034 5.60792 0
M  V30 2798 H 246.266 -0.666735 0.323334 0
M  V30 2799 H 248.913 -1.29868 1.40736 0
M  V30 2800 H 247.218 -3.83473 0.80347 0
M  V30 2801 H 248.915 -3.82788 1.19475 0
M  V30 2802 H 245.505 -3.42871 2.57172 0
M  V30 2803 H 249.689 -3.46651 3.55171 0
M  V30 2804 H 244.945 -3.57361 4.96088 0
M  V30 2805 H 249.119 -3.62371 5.94693 0
M  V30 2806 H 246.746 -3.67298 6.6558 0
M  V30 2807 N 248.321 -0.919034 -1.28029 0
M  V30 2808 C 249.251 -0.428581 -2.29533 0
M  V30 2809 C 250.232 0.50659 -1.62381 0
M  V30 2810 O 251.417 0.413195 -1.89753 0
M  V30 2811 C 248.547 0.327388 -3.45753 0
M  V30 2812 C 247.501 -0.519137 -4.2484 0
M  V30 2813 C 246.827 0.365486 -5.33449 0
M  V30 2814 C 248.127 -1.77914 -4.91064 0
M  V30 2815 H 249.821 -1.27687 -2.70807 0
M  V30 2816 H 247.367 -0.615428 -1.30186 0
M  V30 2817 H 249.32 0.681378 -4.15855 0
M  V30 2818 H 248.044 1.20963 -3.03374 0
M  V30 2819 H 246.703 -0.855717 -3.56473 0
M  V30 2820 H 246.351 1.24642 -4.87312 0
M  V30 2821 H 246.051 -0.197356 -5.87268 0
M  V30 2822 H 247.575 0.715241 -6.06396 0
M  V30 2823 H 248.989 -1.49374 -5.53498 0
M  V30 2824 H 247.386 -2.2848 -5.54903 0
M  V30 2825 H 248.456 -2.50382 -4.15255 0
M  V30 2826 N 249.799 1.42003 -0.683588 0
M  V30 2827 C 251.21 1.84501 -0.285736 0
M  V30 2828 C 251.561 1.57213 1.17382 0
M  V30 2829 O 250.686 1.03642 1.89966 0
M  V30 2830 C 251.281 3.34912 -0.511821 0
M  V30 2831 C 249.84 3.76025 -0.168005 0
M  V30 2832 C 248.987 2.6551 -0.799983 0
M  V30 2833 H 251.938 1.31724 -0.885119 0
M  V30 2834 H 251.959 3.79784 0.233292 0
M  V30 2835 H 251.471 3.54741 -1.57418 0
M  V30 2836 H 249.572 3.61801 0.890567 0
M  V30 2837 H 249.685 4.75141 -0.614661 0
M  V30 2838 H 248.049 2.53654 -0.230568 0
M  V30 2839 H 248.832 2.8816 -1.86597 0
M  V30 2840 N 251.277 0.427512 1.51691 0
M  V30 2841 C 252.525 -0.141948 2.01601 0
M  V30 2842 C 252.846 -1.44067 1.31414 0
M  V30 2843 O 252.116 -1.90763 0.445658 0
M  V30 2844 H 250.696 -0.0554468 0.744939 0
M  V30 2845 H 253.358 0.567968 1.86441 0
M  V30 2846 H 252.454 -0.324913 3.10404 0
M  V30 2847 N 252.755 -1.56801 0.158532 0
M  V30 2848 C 254.003 -1.96102 -0.488712 0
M  V30 2849 C 254.324 -1.04498 -1.64636 0
M  V30 2850 O 253.594 -0.108783 -1.95598 0
M  V30 2851 H 252.174 -0.724102 -0.183535 0
M  V30 2852 H 254.836 -1.93457 0.236728 0
M  V30 2853 H 253.932 -3.00097 -0.857219 0
M  V30 2854 N 254.233 0.115231 -1.57178 0
M  V30 2855 C 255.51 0.852873 -1.76027 0
M  V30 2856 C 255.89 1.97892 -0.73498 0
M  V30 2857 O 255.238 2.27232 0.24036 0
M  V30 2858 C 255.448 1.36608 -3.21153 0
M  V30 2859 C 256.796 1.81692 -3.83762 0
M  V30 2860 O 257.82 1.46278 -3.24779 0
M  V30 2861 O 256.679 2.47104 -4.87444 0
M  V30 2862 H 253.773 0.405296 -0.720877 0
M  V30 2863 H 256.319 0.0986785 -1.69413 0
M  V30 2864 H 255.091 0.558357 -3.87296 0
M  V30 2865 H 254.714 2.18287 -3.3232 0
M  V30 2866 N 255.711 1.52812 0.385517 0
M  V30 2867 C 256.644 1.72592 1.49289 0
M  V30 2868 C 257.622 0.573819 1.52138 0
M  V30 2869 O 258.806 0.80404 1.70492 0
M  V30 2870 C 255.933 1.78669 2.87741 0
M  V30 2871 C 254.979 3.00455 3.02703 0
M  V30 2872 S 255.812 4.60366 2.73538 0
M  V30 2873 C 256.968 4.69263 4.14177 0
M  V30 2874 H 257.201 2.66248 1.32285 0
M  V30 2875 H 254.734 1.43148 0.578611 0
M  V30 2876 H 256.692 1.82855 3.67524 0
M  V30 2877 H 255.353 0.861 3.02069 0
M  V30 2878 H 254.546 3.01258 4.04054 0
M  V30 2879 H 254.148 2.94278 2.30817 0
M  V30 2880 H 256.44 4.48092 5.08153 0
M  V30 2881 H 257.383 5.71276 4.18388 0
M  V30 2882 H 257.791 3.98072 4.00249 0
M  V30 2883 N 257.189 -0.644168 1.43834 0
M  V30 2884 C 258.122 -1.76906 1.44151 0
M  V30 2885 C 259.1 -1.59774 0.301857 0
M  V30 2886 O 260.284 -1.81834 0.496841 0
M  V30 2887 C 257.411 -3.14321 1.26174 0
M  V30 2888 C 256.457 -3.50134 2.43533 0
M  V30 2889 S 257.29 -3.49085 4.06079 0
M  V30 2890 C 258.446 -4.89142 3.90501 0
M  V30 2891 H 258.679 -1.76368 2.39336 0
M  V30 2892 H 256.212 -0.817624 1.30974 0
M  V30 2893 H 258.17 -3.93625 1.16489 0
M  V30 2894 H 256.831 -3.12412 0.325224 0
M  V30 2895 H 256.024 -4.50095 2.26783 0
M  V30 2896 H 255.626 -2.78264 2.4989 0
M  V30 2897 H 257.918 -5.78036 3.53385 0
M  V30 2898 H 258.861 -5.10945 4.90246 0
M  V30 2899 H 259.269 -4.63102 3.22795 0
M  V30 2900 N 258.668 -1.30515 -0.883378 0
M  V30 2901 C 259.896 -1.22359 -1.66841 0
M  V30 2902 C 260.311 0.213296 -1.87591 0
M  V30 2903 O 259.668 1.14075 -1.42454 0
M  V30 2904 C 259.719 -1.95011 -3.04389 0
M  V30 2905 O 259.44 -3.3309 -2.84575 0
M  V30 2906 C 260.941 -1.93532 -3.98824 0
M  V30 2907 H 258.161 -0.423371 -0.520575 0
M  V30 2908 H 260.705 -1.72167 -1.10357 0
M  V30 2909 H 258.86 -1.48997 -3.57601 0
M  V30 2910 H 259.274 -3.69907 -3.71846 0
M  V30 2911 H 260.748 -2.48902 -4.92699 0
M  V30 2912 H 261.225 -0.914627 -4.29571 0
M  V30 2913 H 261.831 -2.39364 -3.51547 0
M  V30 2914 N 260.146 1.09593 -1.13257 0
M  V30 2915 C 261.076 2.18214 -0.830946 0
M  V30 2916 C 262.057 1.68812 0.208966 0
M  V30 2917 O 263.242 1.9408 0.0682666 0
M  V30 2918 C 260.372 3.46051 -0.294296 0
M  V30 2919 C 259.326 4.08778 -1.26826 0
M  V30 2920 C 258.652 5.31419 -0.591449 0
M  V30 2921 C 259.952 4.51476 -2.62615 0
M  V30 2922 H 261.646 2.43703 -1.73923 0
M  V30 2923 H 259.192 1.17128 -0.837675 0
M  V30 2924 H 261.145 4.2134 -0.0709606 0
M  V30 2925 H 259.869 3.20079 0.649366 0
M  V30 2926 H 258.528 3.35505 -1.47756 0
M  V30 2927 H 258.176 5.01727 0.357633 0
M  V30 2928 H 257.876 5.74341 -1.24123 0
M  V30 2929 H 259.4 6.09433 -0.377355 0
M  V30 2930 H 260.814 5.17999 -2.45663 0
M  V30 2931 H 259.211 5.05277 -3.23752 0
M  V30 2932 H 260.281 3.63962 -3.20406 0
M  V30 2933 N 261.624 0.925811 1.2754 0
M  V30 2934 C 262.554 0.440748 2.29303 0
M  V30 2935 C 263.535 -0.497971 1.62648 0
M  V30 2936 O 264.72 -0.403126 1.8997 0
M  V30 2937 C 261.85 -0.309048 3.45922 0
M  V30 2938 C 260.804 0.54166 4.24559 0
M  V30 2939 C 260.13 -0.337191 5.33636 0
M  V30 2940 C 261.43 1.80516 4.90114 0
M  V30 2941 H 263.124 1.29121 2.70126 0
M  V30 2942 H 260.67 0.622323 1.29858 0
M  V30 2943 H 262.623 -0.659315 4.1621 0
M  V30 2944 H 261.347 -1.19352 3.04011 0
M  V30 2945 H 260.006 0.874609 3.56014 0
M  V30 2946 H 259.654 -1.22056 4.87966 0
M  V30 2947 H 259.354 0.228497 5.87156 0
M  V30 2948 H 260.878 -0.683072 6.06767 0
M  V30 2949 H 262.292 1.52307 5.52698 0
M  V30 2950 H 260.689 2.3142 5.53683 0
M  V30 2951 H 261.759 2.52581 4.13921 0
M  V30 2952 N 263.102 -1.41638 0.69111 0
M  V30 2953 C 264.035 -2.28183 -0.0274913 0
M  V30 2954 C 265.013 -1.41984 -0.792424 0
M  V30 2955 O 266.197 -1.71415 -0.784169 0
M  V30 2956 C 263.324 -3.22135 -1.04628 0
M  V30 2957 C 262.37 -4.24848 -0.375037 0
M  V30 2958 S 263.203 -5.28231 0.879321 0
M  V30 2959 C 264.359 -6.25748 -0.137983 0
M  V30 2960 H 264.592 -2.88782 0.706553 0
M  V30 2961 H 262.125 -1.46709 0.481222 0
M  V30 2962 H 264.083 -3.76797 -1.62894 0
M  V30 2963 H 262.744 -2.6064 -1.75287 0
M  V30 2964 H 261.937 -4.90837 -1.14433 0
M  V30 2965 H 261.539 -3.73758 0.134434 0
M  V30 2966 H 263.831 -6.70188 -0.992659 0
M  V30 2967 H 264.774 -7.06417 0.487867 0
M  V30 2968 H 265.182 -5.62363 -0.490762 0
M  V30 2969 N 264.58 -0.43555 -1.51462 0
M  V30 2970 C 265.527 0.376797 -2.27703 0
M  V30 2971 C 266.497 1.01838 -1.31219 0
M  V30 2972 O 267.682 1.03762 -1.60119 0
M  V30 2973 C 264.822 1.47301 -3.12084 0
M  V30 2974 C 263.935 0.849744 -4.2356 0
M  V30 2975 C 263.07 1.92086 -4.95254 0
M  V30 2976 C 262.109 1.27593 -5.98654 0
M  V30 2977 N 261.246 2.28833 -6.63762 0
M  V30 2978 H 266.086 -0.279734 -2.96684 0
M  V30 2979 H 263.623 -0.149795 -1.46335 0
M  V30 2980 H 265.581 2.11984 -3.59331 0
M  V30 2981 H 264.211 2.0992 -2.45221 0
M  V30 2982 H 263.263 0.0912529 -3.80291 0
M  V30 2983 H 264.575 0.338878 -4.97648 0
M  V30 2984 H 263.729 2.64435 -5.46039 0
M  V30 2985 H 262.468 2.46545 -4.20793 0
M  V30 2986 H 261.473 0.537893 -5.47162 0
M  V30 2987 H 262.698 0.738693 -6.7507 0
M  V30 2988 H 260.644 2.82375 -5.92115 0
M  V30 2989 H 260.561 1.82632 -7.33608 0
M  V30 2990 H 261.829 3.00671 -7.19178 0
M  V30 2991 N 266.058 1.56714 -0.166846 0
M  V30 2992 C 267.005 2.17746 0.765193 0
M  V30 2993 C 267.975 1.11614 1.23011 0
M  V30 2994 O 269.16 1.39745 1.29908 0
M  V30 2995 C 266.3 2.81882 1.9909 0
M  V30 2996 C 265.413 4.02462 1.56997 0
M  V30 2997 C 264.548 4.54537 2.749 0
M  V30 2998 C 263.587 5.67538 2.29275 0
M  V30 2999 N 262.724 6.14142 3.40255 0
M  V30 3000 H 267.564 2.97048 0.237952 0
M  V30 3001 H 265.101 1.4672 0.105725 0
M  V30 3002 H 267.059 3.17221 2.70974 0
M  V30 3003 H 265.689 2.05191 2.49192 0
M  V30 3004 H 264.741 3.72973 0.748037 0
M  V30 3005 H 266.053 4.84273 1.19503 0
M  V30 3006 H 265.207 4.92035 3.54946 0
M  V30 3007 H 263.946 3.71774 3.1565 0
M  V30 3008 H 262.951 5.29597 1.47674 0
M  V30 3009 H 264.176 6.52099 1.89588 0
M  V30 3010 H 262.122 5.3431 3.8059 0
M  V30 3011 H 262.039 6.9093 3.06841 0
M  V30 3012 H 263.307 6.56289 4.206 0
M  V30 3013 N 267.536 -0.106894 1.57237 0
M  V30 3014 C 268.813 -0.843526 1.76477 0
M  V30 3015 C 269.193 -1.97499 0.745464 0
M  V30 3016 O 268.541 -2.27357 -0.228306 0
M  V30 3017 C 268.751 -1.34903 3.21873 0
M  V30 3018 C 270.099 -1.79654 3.8472 0
M  V30 3019 O 271.123 -1.44554 3.2555 0
M  V30 3020 O 269.982 -2.44515 4.88748 0
M  V30 3021 H 267.076 -0.401468 0.723016 0
M  V30 3022 H 269.622 -0.0896927 1.69463 0
M  V30 3023 H 268.394 -0.53781 3.87586 0
M  V30 3024 H 268.017 -2.16522 3.33473 0
M  V30 3025 N 269.014 -1.53014 -0.377408 0
M  V30 3026 C 270.242 -1.72515 -1.14219 0
M  V30 3027 C 270.657 -0.448735 -1.8339 0
M  V30 3028 O 270.014 0.577592 -1.73119 0
M  V30 3029 C 270.065 -2.8826 -2.18148 0
M  V30 3030 O 269.786 -4.10962 -1.51795 0
M  V30 3031 C 271.287 -3.19536 -3.07264 0
M  V30 3032 H 268.507 -0.577301 -0.342001 0
M  V30 3033 H 271.051 -1.99712 -0.439935 0
M  V30 3034 H 269.206 -2.63492 -2.83991 0
M  V30 3035 H 269.62 -4.75693 -2.20945 0
M  V30 3036 H 271.094 -4.03959 -3.76193 0
M  V30 3037 H 271.571 -2.34403 -3.71419 0
M  V30 3038 H 272.177 -3.46186 -2.47053 0
M  V30 3039 N 270.492 0.636531 -1.44174 0
M  V30 3040 C 271.422 1.76003 -1.53444 0
M  V30 3041 C 272.403 1.65619 -0.387841 0
M  V30 3042 O 273.588 1.84461 -0.607257 0
M  V30 3043 C 270.718 3.14511 -1.4731 0
M  V30 3044 C 269.672 3.39677 -2.60391 0
M  V30 3045 C 268.998 4.78159 -2.39308 0
M  V30 3046 C 270.298 3.32772 -4.02567 0
M  V30 3047 H 271.992 1.68501 -2.47483 0
M  V30 3048 H 269.538 0.809237 -1.19111 0
M  V30 3049 H 271.491 3.92878 -1.52397 0
M  V30 3050 H 270.215 3.22783 -0.49785 0
M  V30 3051 H 268.874 2.63688 -2.54684 0
M  V30 3052 H 268.522 4.83128 -1.39988 0
M  V30 3053 H 268.222 4.95956 -3.15122 0
M  V30 3054 H 269.746 5.58762 -2.46205 0
M  V30 3055 H 271.16 4.01051 -4.09672 0
M  V30 3056 H 269.557 3.62104 -4.7854 0
M  V30 3057 H 270.627 2.30669 -4.2652 0
M  V30 3058 N 271.97 1.30982 0.876444 0
M  V30 3059 C 273.198 1.23242 1.6619 0
M  V30 3060 C 273.613 -0.203345 1.87702 0
M  V30 3061 O 272.97 -1.13317 1.43057 0
M  V30 3062 C 273.021 1.96623 3.03351 0
M  V30 3063 O 272.742 3.34594 2.82804 0
M  V30 3064 C 274.243 1.95644 3.97792 0
M  V30 3065 H 271.463 0.426126 0.518322 0
M  V30 3066 H 274.007 1.7275 1.09442 0
M  V30 3067 H 272.162 1.50892 3.56806 0
M  V30 3068 H 272.576 3.71873 3.69879 0
M  V30 3069 H 274.05 2.51511 4.91372 0
M  V30 3070 H 274.527 0.937395 4.2908 0
M  V30 3071 H 275.133 2.41225 3.50272 0
M  V30 3072 N 273.449 -1.08991 1.13837 0
M  V30 3073 C 274.359 -2.19301 0.833333 0
M  V30 3074 C 275.375 -1.73026 -0.183847 0
M  V30 3075 O 276.551 -2.01395 -0.0138092 0
M  V30 3076 C 273.616 -3.45323 0.308651 0
M  V30 3077 C 272.677 -4.06255 1.38764 0
M  V30 3078 C 271.91 -5.26262 0.887896 0
M  V30 3079 O 272.133 -5.69747 -0.27287 0
M  V30 3080 O 271.067 -5.78435 1.66421 0
M  V30 3081 H 274.893 -2.47854 1.75506 0
M  V30 3082 H 272.478 -1.18012 0.916166 0
M  V30 3083 H 274.36 -4.21394 0.0216739 0
M  V30 3084 H 273.035 -3.18362 -0.585431 0
M  V30 3085 H 271.942 -3.318 1.72799 0
M  V30 3086 H 273.275 -4.37452 2.25602 0
M  V30 3087 N 274.927 -0.932562 -1.27047 0
M  V30 3088 C 275.837 -0.441219 -2.30414 0
M  V30 3089 C 276.853 0.480525 -1.67233 0
M  V30 3090 O 278.029 0.362151 -1.98117 0
M  V30 3091 C 275.094 0.293651 -3.45454 0
M  V30 3092 C 274.155 -0.663601 -4.2414 0
M  V30 3093 C 273.388 0.0362932 -5.33688 0
M  V30 3094 O 273.611 1.2548 -5.56427 0
M  V30 3095 O 272.545 -0.638015 -5.98509 0
M  V30 3096 H 276.371 -1.29962 -2.74488 0
M  V30 3097 H 273.956 -0.6981 -1.32087 0
M  V30 3098 H 275.838 0.707951 -4.15411 0
M  V30 3099 H 274.513 1.12758 -3.03426 0
M  V30 3100 H 273.42 -1.12768 -3.56699 0
M  V30 3101 H 274.753 -1.46489 -4.69896 0
M  V30 3102 N 276.405 1.4127 -0.698611 0
M  V30 3103 C 277.315 2.34573 -0.0357891 0
M  V30 3104 C 278.331 1.56393 0.762701 0
M  V30 3105 O 279.507 1.8886 0.699564 0
M  V30 3106 C 276.572 3.35159 0.887089 0
M  V30 3107 C 275.633 4.29225 0.0804634 0
M  V30 3108 C 274.866 5.25006 0.959387 0
M  V30 3109 O 275.089 5.26314 2.19886 0
M  V30 3110 O 274.023 6.00519 0.407439 0
M  V30 3111 H 277.849 2.92838 -0.804957 0
M  V30 3112 H 275.434 1.42175 -0.458966 0
M  V30 3113 H 277.316 3.9689 1.41621 0
M  V30 3114 H 275.991 2.79333 1.6357 0
M  V30 3115 H 274.898 3.70833 -0.493328 0
M  V30 3116 H 276.231 4.88157 -0.629547 0
M  V30 3117 N 277.883 0.443576 1.51229 0
M  V30 3118 C 279.111 -0.11929 2.06556 0
M  V30 3119 C 279.526 -1.35921 1.31038 0
M  V30 3120 O 278.883 -1.78675 0.371704 0
M  V30 3121 C 278.934 -0.435228 3.5887 0
M  V30 3122 O 278.655 0.755486 4.31537 0
M  V30 3123 C 280.156 -1.04808 4.30732 0
M  V30 3124 H 277.376 -0.0051584 0.67098 0
M  V30 3125 H 279.92 0.624453 1.94733 0
M  V30 3126 H 278.075 -1.12887 3.70588 0
M  V30 3127 H 278.489 0.483491 5.22267 0
M  V30 3128 H 279.963 -1.2191 5.3837 0
M  V30 3129 H 280.44 -2.03081 3.89429 0
M  V30 3130 H 281.046 -0.393637 4.23474 0
M  V30 3131 N 279.361 -1.56624 0.175154 0
M  V30 3132 C 280.293 -2.15333 -0.785128 0
M  V30 3133 C 281.306 -1.1099 -1.19101 0
M  V30 3134 O 282.495 -1.38162 -1.13019 0
M  V30 3135 C 279.595 -2.68427 -2.06882 0
M  V30 3136 C 278.768 -3.97466 -1.8259 0
M  V30 3137 C 277.827 -4.35585 -2.95215 0
M  V30 3138 O 276.853 -5.03389 -2.65684 0
M  V30 3139 N 278.055 -3.97457 -4.23094 0
M  V30 3140 H 280.82 -2.98359 -0.283187 0
M  V30 3141 H 278.381 -1.61898 -0.00749817 0
M  V30 3142 H 280.373 -2.90924 -2.81328 0
M  V30 3143 H 278.943 -1.89968 -2.48256 0
M  V30 3144 H 278.163 -3.83307 -0.920287 0
M  V30 3145 H 279.451 -4.81736 -1.63733 0
M  V30 3146 H 278.849 -3.42878 -4.49945 0
M  V30 3147 H 277.406 -4.24947 -4.9423 0
M  V30 3148 N 280.839 0.0985539 -1.57292 0
M  V30 3149 C 282.086 0.802678 -1.85912 0
M  V30 3150 C 282.414 1.78901 -0.763186 0
M  V30 3151 O 281.669 1.94178 0.243559 0
M  V30 3152 C 281.968 1.56927 -3.21105 0
M  V30 3153 C 281.634 0.725376 -4.45027 0
M  V30 3154 C 280.296 0.492726 -4.78671 0
M  V30 3155 C 282.648 0.138493 -5.21016 0
M  V30 3156 C 279.976 -0.336727 -5.85733 0
M  V30 3157 C 282.328 -0.678264 -6.28953 0
M  V30 3158 C 280.992 -0.921039 -6.61115 0
M  V30 3159 H 280.262 0.293721 -0.680301 0
M  V30 3160 H 282.909 0.0642841 -1.91392 0
M  V30 3161 H 281.214 2.37914 -3.11294 0
M  V30 3162 H 282.911 2.11841 -3.40477 0
M  V30 3163 H 279.501 0.916815 -4.18679 0
M  V30 3164 H 283.685 0.305404 -4.95359 0
M  V30 3165 H 278.941 -0.533836 -6.09065 0
M  V30 3166 H 283.115 -1.1399 -6.87007 0
M  V30 3167 H 280.742 -1.56556 -7.43905 0
M  V30 3168 N 282.317 1.53212 0.369288 0
M  V30 3169 C 283.547 1.72868 1.13139 0
M  V30 3170 C 283.955 0.455754 1.83629 0
M  V30 3171 O 283.298 -0.580861 1.74275 0
M  V30 3172 C 283.36 2.83667 2.20847 0
M  V30 3173 C 283.024 4.24142 1.70155 0
M  V30 3174 C 284.021 5.06619 1.16763 0
M  V30 3175 C 281.706 4.70539 1.7578 0
M  V30 3176 C 283.7 6.33581 0.696678 0
M  V30 3177 C 281.387 5.97481 1.28297 0
M  V30 3178 C 282.385 6.78833 0.753307 0
M  V30 3179 O 282.073 8.03393 0.285475 0
M  V30 3180 H 281.805 0.581707 0.344373 0
M  V30 3181 H 284.359 2.00736 0.435243 0
M  V30 3182 H 282.589 2.51265 2.93944 0
M  V30 3183 H 284.278 2.91536 2.82421 0
M  V30 3184 H 285.044 4.71948 1.11758 0
M  V30 3185 H 280.923 4.07293 2.15949 0
M  V30 3186 H 284.467 6.97027 0.282581 0
M  V30 3187 H 280.364 6.31651 1.32994 0
M  V30 3188 H 281.132 8.17497 0.405145 0
M  V30 3189 N 283.795 -0.628877 1.44509 0
M  V30 3190 C 285.044 -1.38437 1.4669 0
M  V30 3191 C 285.357 -1.95322 0.104272 0
M  V30 3192 O 286.563 -2.715 0.00362163 0
M  V30 3193 C 285.019 -2.50659 2.5826 0
M  V30 3194 C 284.627 -2.00277 4.0074 0
M  V30 3195 C 286.371 -3.27844 2.69664 0
M  V30 3196 C 284.278 -3.09854 5.0373 0
M  V30 3197 H 283.208 -0.520245 0.545766 0
M  V30 3198 H 285.859 -0.676313 1.70582 0
M  V30 3199 H 284.241 -3.2405 2.27612 0
M  V30 3200 H 285.415 -1.33736 4.40966 0
M  V30 3201 H 283.73 -1.35901 3.93599 0
M  V30 3202 H 286.327 -4.09534 3.43781 0
M  V30 3203 H 286.67 -3.77471 1.75559 0
M  V30 3204 H 287.203 -2.61543 2.99733 0
M  V30 3205 H 283.942 -2.65168 5.99472 0
M  V30 3206 H 283.462 -3.7503 4.68095 0
M  V30 3207 H 285.141 -3.74592 5.27532 0
M  V30 3208 N 285.273 -1.31445 -0.869486 0
M  V30 3209 C 286.236 -1.19094 -1.9583 0
M  V30 3210 C 287.236 -0.117906 -1.60367 0
M  V30 3211 O 288.426 -0.367208 -1.70286 0
M  V30 3212 C 285.558 -0.828165 -3.30688 0
M  V30 3213 H 286.751 -2.15842 -2.08212 0
M  V30 3214 H 284.304 -1.15063 -1.05784 0
M  V30 3215 H 285.039 0.138142 -3.24006 0
M  V30 3216 H 284.824 -1.6038 -3.578 0
M  V30 3217 H 286.314 -0.765658 -4.10521 0
M  V30 3218 N 286.751 1.08385 -1.14413 0
M  V30 3219 C 287.661 2.18856 -0.844951 0
M  V30 3220 C 288.677 1.73121 0.174668 0
M  V30 3221 O 289.853 2.014 0.00312857 0
M  V30 3222 C 286.918 3.45155 -0.32696 0
M  V30 3223 C 285.979 4.05513 -1.40916 0
M  V30 3224 C 285.212 5.25784 -0.915793 0
M  V30 3225 O 285.435 5.69884 0.242651 0
M  V30 3226 O 284.369 5.77545 -1.69487 0
M  V30 3227 H 288.195 2.46919 -1.76818 0
M  V30 3228 H 285.78 1.17524 -0.922411 0
M  V30 3229 H 287.662 4.21377 -0.0440211 0
M  V30 3230 H 286.337 3.18668 0.568539 0
M  V30 3231 H 285.244 3.30879 -1.74556 0
M  V30 3232 H 286.577 4.3625 -2.27919 0
M  V30 3233 N 288.23 0.939286 1.26551 0
M  V30 3234 C 289.458 0.602536 1.97932 0
M  V30 3235 C 289.873 -0.82206 1.69964 0
M  V30 3236 O 289.23 -1.54789 0.966784 0
M  V30 3237 C 289.281 0.832946 3.51773 0
M  V30 3238 O 289.002 2.20151 3.78768 0
M  V30 3239 C 290.503 0.506483 4.40397 0
M  V30 3240 H 287.723 0.227248 0.631347 0
M  V30 3241 H 290.267 1.25948 1.61113 0
M  V30 3242 H 288.422 0.222644 3.8676 0
M  V30 3243 H 288.836 2.26013 4.73306 0
M  V30 3244 H 290.31 0.718333 5.47306 0
M  V30 3245 H 290.787 -0.558451 4.35635 0
M  V30 3246 H 291.393 1.09543 4.10951 0
M  V30 3247 N 289.708 -1.40897 0.706093 0
M  V30 3248 C 290.954 -2.01352 0.241889 0
M  V30 3249 C 291.287 -1.55832 -1.15888 0
M  V30 3250 O 290.562 -0.774145 -1.7843 0
M  V30 3251 C 290.845 -3.58752 0.311311 0
M  V30 3252 C 290.698 -4.1437 1.74978 0
M  V30 3253 C 292.017 -4.38914 -0.322922 0
M  V30 3254 H 289.136 -0.731562 0.0893687 0
M  V30 3255 H 291.778 -1.67504 0.896802 0
M  V30 3256 H 289.928 -3.87718 -0.246302 0
M  V30 3257 H 291.6 -3.96239 2.36205 0
M  V30 3258 H 289.843 -3.69016 2.28057 0
M  V30 3259 H 290.514 -5.23532 1.74981 0
M  V30 3260 H 292.99 -4.15822 0.152089 0
M  V30 3261 H 291.866 -5.48358 -0.243855 0
M  V30 3262 H 292.127 -4.19176 -1.40513 0
M  V30 3263 N 291.186 -0.45159 -1.50991 0
M  V30 3264 C 292.116 0.342898 -2.30969 0
M  V30 3265 C 293.097 1.00815 -1.37005 0
M  V30 3266 O 294.282 1.00907 -1.65926 0
M  V30 3267 C 291.412 1.43637 -3.16205 0
M  V30 3268 C 290.366 0.893818 -4.18563 0
M  V30 3269 C 289.692 2.08411 -4.92411 0
M  V30 3270 C 290.992 -0.0815568 -5.22236 0
M  V30 3271 H 292.686 -0.324556 -2.97636 0
M  V30 3272 H 290.232 -0.157531 -1.43136 0
M  V30 3273 H 292.185 1.9995 -3.70942 0
M  V30 3274 H 290.909 2.13232 -2.47386 0
M  V30 3275 H 289.568 0.352798 -3.64898 0
M  V30 3276 H 289.216 2.76658 -4.20082 0
M  V30 3277 H 288.916 1.72741 -5.61636 0
M  V30 3278 H 290.44 2.65251 -5.49976 0
M  V30 3279 H 291.854 0.391742 -5.7196 0
M  V30 3280 H 290.251 -0.351551 -5.99069 0
M  V30 3281 H 291.321 -1.01374 -4.74185 0
M  V30 3282 N 292.664 1.56529 -0.183458 0
M  V30 3283 C 293.627 2.17324 0.728223 0
M  V30 3284 C 294.627 1.12453 1.14939 0
M  V30 3285 O 295.817 1.37902 1.06437 0
M  V30 3286 C 292.949 2.76591 1.99274 0
M  V30 3287 H 294.142 2.99241 0.198772 0
M  V30 3288 H 291.695 1.5616 0.0661391 0
M  V30 3289 H 292.43 1.98441 2.56499 0
M  V30 3290 H 292.215 3.5335 1.69959 0
M  V30 3291 H 293.705 3.23311 2.6431 0
M  V30 3292 N 294.142 -0.090211 1.57342 0
M  V30 3293 C 295.391 -0.791531 1.8552 0
M  V30 3294 C 295.704 -1.79659 0.773441 0
M  V30 3295 O 296.91 -2.54616 0.942497 0
M  V30 3296 C 295.366 -1.45856 3.2902 0
M  V30 3297 C 294.974 -0.493017 4.45279 0
M  V30 3298 C 296.718 -2.14332 3.66418 0
M  V30 3299 C 294.625 -1.16491 5.79814 0
M  V30 3300 H 293.555 -0.299356 0.692027 0
M  V30 3301 H 296.206 -0.0445343 1.83446 0
M  V30 3302 H 294.588 -2.25318 3.2565 0
M  V30 3303 H 295.762 0.270464 4.60006 0
M  V30 3304 H 294.077 0.0863061 4.16311 0
M  V30 3305 H 296.674 -2.65344 4.64216 0
M  V30 3306 H 297.017 -2.93447 2.95287 0
M  V30 3307 H 297.55 -1.41724 3.71698 0
M  V30 3308 H 294.289 -0.41447 6.54188 0
M  V30 3309 H 293.809 -1.8997 5.68921 0
M  V30 3310 H 295.488 -1.69001 6.24538 0
M  V30 3311 N 295.62 -1.53406 -0.361157 0
M  V30 3312 C 296.897 -1.60411 -1.11927 0
M  V30 3313 C 297.277 -0.414385 -2.06993 0
M  V30 3314 O 296.625 0.594976 -2.20618 0
M  V30 3315 C 296.835 -2.95652 -1.85448 0
M  V30 3316 C 298.183 -3.50386 -2.39823 0
M  V30 3317 O 299.207 -2.97711 -1.95568 0
M  V30 3318 O 298.066 -4.42482 -3.20737 0
M  V30 3319 H 295.16 -0.64811 -0.513695 0
M  V30 3320 H 297.706 -1.65749 -0.364065 0
M  V30 3321 H 296.478 -3.73682 -1.16091 0
M  V30 3322 H 296.101 -2.93825 -2.67866 0
M  V30 3323 N 297.098 0.621204 -1.44841 0
M  V30 3324 C 298.323 1.41244 -1.51871 0
M  V30 3325 C 298.748 1.87519 -0.147764 0
M  V30 3326 O 298.106 1.59334 0.865 0
M  V30 3327 C 298.154 2.60221 -2.49634 0
M  V30 3328 O 297.258 3.60395 -2.00473 0
M  V30 3329 H 296.599 0.42223 -0.512463 0
M  V30 3330 H 299.129 0.757305 -1.90069 0
M  V30 3331 H 299.139 3.0764 -2.67996 0
M  V30 3332 H 297.814 2.25887 -3.4921 0
M  V30 3333 H 296.391 3.19717 -1.91925 0
M  V30 3334 N 298.576 1.31904 0.862503 0
M  V30 3335 C 299.825 1.21373 1.61094 0
M  V30 3336 C 300.138 -0.22504 1.94301 0
M  V30 3337 O 301.344 -0.452121 2.67709 0
M  V30 3338 C 299.8 2.12525 2.9045 0
M  V30 3339 C 299.408 3.61441 2.64697 0
M  V30 3340 C 301.152 2.10813 3.68454 0
M  V30 3341 C 299.059 4.44578 3.90006 0
M  V30 3342 H 297.989 0.450705 0.604468 0
M  V30 3343 H 300.64 1.56811 0.953027 0
M  V30 3344 H 299.022 1.69994 3.57656 0
M  V30 3345 H 300.196 4.12264 2.05851 0
M  V30 3346 H 298.511 3.65205 2.00036 0
M  V30 3347 H 301.108 2.70167 4.61426 0
M  V30 3348 H 301.451 1.09713 4.01583 0
M  V30 3349 H 301.984 2.51583 3.08141 0
M  V30 3350 H 298.723 5.46461 3.62023 0
M  V30 3351 H 298.243 3.98508 4.48276 0
M  V30 3352 H 299.922 4.57176 4.5782 0
M  V30 3353 N 300.054 -1.07777 1.14986 0
M  V30 3354 C 301.004 -2.13082 0.811181 0
M  V30 3355 C 301.988 -1.59619 -0.202597 0
M  V30 3356 O 303.18 -1.77 -0.00398275 0
M  V30 3357 C 300.309 -3.42009 0.297439 0
M  V30 3358 C 299.395 -4.02337 1.34112 0
M  V30 3359 N 299.786 -4.36982 2.54716 0
M  V30 3360 C 298.084 -4.29752 1.19285 0
M  V30 3361 C 298.785 -4.84729 3.21578 0
M  V30 3362 N 297.761 -4.83233 2.48972 0
M  V30 3363 H 301.563 -2.37696 1.72853 0
M  V30 3364 H 299.077 -1.25173 1.03468 0
M  V30 3365 H 301.074 -4.16884 0.0364777 0
M  V30 3366 H 299.734 -3.18841 -0.614022 0
M  V30 3367 H 300.745 -4.27807 2.91894 0
M  V30 3368 H 297.422 -4.16106 0.340926 0
M  V30 3369 H 298.812 -5.20863 4.24442 0
M  V30 3370 N 301.532 -0.945985 -1.26051 0
M  V30 3371 C 302.464 -0.416662 -2.25381 0
M  V30 3372 C 303.477 0.462712 -1.56086 0
M  V30 3373 O 304.666 0.272383 -1.7641 0
M  V30 3374 C 301.766 0.419812 -3.3629 0
M  V30 3375 C 300.939 -0.444531 -4.35135 0
M  V30 3376 C 299.998 0.332305 -5.2515 0
M  V30 3377 O 299.024 -0.266324 -5.68577 0
M  V30 3378 N 300.226 1.62763 -5.57215 0
M  V30 3379 H 302.991 -1.27059 -2.71433 0
M  V30 3380 H 300.552 -0.815392 -1.39868 0
M  V30 3381 H 302.544 0.947013 -3.93464 0
M  V30 3382 H 301.114 1.17456 -2.89694 0
M  V30 3383 H 300.334 -1.15291 -3.76964 0
M  V30 3384 H 301.622 -1.03478 -4.98166 0
M  V30 3385 H 301.02 2.13603 -5.23823 0
M  V30 3386 H 299.577 2.10097 -6.17011 0
M  V30 3387 N 303.011 1.40521 -0.713556 0
M  V30 3388 C 303.941 2.33381 -0.0743864 0
M  V30 3389 C 304.922 1.52784 0.747735 0
M  V30 3390 O 306.107 1.81258 0.697071 0
M  V30 3391 C 303.237 3.36748 0.849598 0
M  V30 3392 C 302.191 4.27793 0.133247 0
M  V30 3393 C 301.517 5.21679 1.17281 0
M  V30 3394 C 302.817 5.12415 -1.01134 0
M  V30 3395 H 304.511 2.87081 -0.850007 0
M  V30 3396 H 302.057 1.38034 -0.410201 0
M  V30 3397 H 304.01 4.00648 1.30612 0
M  V30 3398 H 302.734 2.81439 1.65709 0
M  V30 3399 H 301.393 3.65342 -0.303426 0
M  V30 3400 H 301.041 4.62677 1.9733 0
M  V30 3401 H 300.741 5.83435 0.698397 0
M  V30 3402 H 302.265 5.88456 1.62947 0
M  V30 3403 H 303.679 5.69781 -0.634274 0
M  V30 3404 H 302.076 5.83203 -1.41399 0
M  V30 3405 H 303.146 4.48514 -1.84292 0
M  V30 3406 N 304.489 0.459591 1.5075 0
M  V30 3407 C 305.737 -0.0991532 2.01857 0
M  V30 3408 C 306.058 -1.41247 1.34441 0
M  V30 3409 O 305.328 -1.89775 0.486022 0
M  V30 3410 H 303.908 -0.039633 0.745948 0
M  V30 3411 H 306.57 0.607387 1.85194 0
M  V30 3412 H 305.666 -0.258998 3.11023 0
M  V30 3413 N 305.967 -1.56429 0.191757 0
M  V30 3414 C 307.214 -1.97485 -0.447891 0
M  V30 3415 C 307.542 -1.07852 -1.61859 0
M  V30 3416 O 306.797 -0.116903 -1.95351 0
M  V30 3417 C 307.096 -3.44449 -0.953384 0
M  V30 3418 C 306.762 -4.50781 0.103586 0
M  V30 3419 C 305.424 -4.79584 0.394023 0
M  V30 3420 C 307.776 -5.1471 0.819946 0
M  V30 3421 C 305.104 -5.69607 1.40585 0
M  V30 3422 C 307.456 -6.05827 1.8209 0
M  V30 3423 C 306.12 -6.32987 2.11857 0
M  V30 3424 H 305.39 -0.722648 -0.163895 0
M  V30 3425 H 308.037 -1.89322 0.28802 0
M  V30 3426 H 306.342 -3.49666 -1.76751 0
M  V30 3427 H 308.039 -3.73569 -1.45765 0
M  V30 3428 H 304.629 -4.28394 -0.132951 0
M  V30 3429 H 308.813 -4.92552 0.608789 0
M  V30 3430 H 304.069 -5.88926 1.64243 0
M  V30 3431 H 308.243 -6.54424 2.38123 0
M  V30 3432 H 305.87 -7.02544 2.90407 0
M  V30 3433 N 307.445 0.0818655 -1.57387 0
M  V30 3434 C 308.694 0.781681 -1.85937 0
M  V30 3435 C 309.007 1.79246 -0.782957 0
M  V30 3436 O 310.213 2.54112 -0.955987 0
M  V30 3437 C 308.669 1.44109 -3.29789 0
M  V30 3438 C 308.277 0.469396 -4.45534 0
M  V30 3439 C 310.021 2.12386 -3.67549 0
M  V30 3440 C 307.928 1.13415 -5.80423 0
M  V30 3441 H 306.858 0.295682 -0.693605 0
M  V30 3442 H 309.509 0.0348051 -1.83467 0
M  V30 3443 H 307.891 2.23588 -3.2684 0
M  V30 3444 H 309.065 -0.294856 -4.59856 0
M  V30 3445 H 307.38 -0.108383 -4.16259 0
M  V30 3446 H 309.977 2.62878 -4.65617 0
M  V30 3447 H 310.32 2.91877 -2.96839 0
M  V30 3448 H 310.853 1.39751 -3.72444 0
M  V30 3449 H 307.592 0.379771 -6.54399 0
M  V30 3450 H 307.112 1.8695 -5.69921 0
M  V30 3451 H 308.791 1.65686 -6.25426 0
M  V30 3452 N 308.923 1.53595 0.353017 0
M  V30 3453 C 309.873 1.77299 1.43349 0
M  V30 3454 C 310.857 0.627884 1.48143 0
M  V30 3455 O 312.049 0.88697 1.53173 0
M  V30 3456 C 309.178 1.97757 2.80619 0
M  V30 3457 C 308.264 3.18305 2.80254 0
M  V30 3458 N 308.655 4.39967 2.49526 0
M  V30 3459 C 306.953 3.19283 3.11407 0
M  V30 3460 C 307.654 5.21772 2.57156 0
M  V30 3461 N 306.63 4.58269 2.92388 0
M  V30 3462 H 310.432 2.68963 1.18474 0
M  V30 3463 H 307.946 1.52391 0.561306 0
M  V30 3464 H 309.943 2.1287 3.58458 0
M  V30 3465 H 308.603 1.07329 3.06448 0
M  V30 3466 H 309.614 4.67482 2.22893 0
M  V30 3467 H 306.291 2.3879 3.4247 0
M  V30 3468 H 307.681 6.2885 2.36638 0
M  V30 3469 N 310.401 -0.613514 1.45168 0
M  V30 3470 C 311.817 -0.933629 1.29443 0
M  V30 3471 C 312.017 -2.00028 0.243101 0
M  V30 3472 O 311.073 -2.49848 -0.364992 0
M  V30 3473 C 312.386 -1.38018 2.67155 0
M  V30 3474 C 313.934 -1.49471 2.75004 0
M  V30 3475 C 314.409 -1.97503 4.13227 0
M  V30 3476 N 315.9 -2.04746 4.15491 0
M  V30 3477 C 316.635 -2.43121 5.19307 0
M  V30 3478 N 316.131 -2.80506 6.33473 0
M  V30 3479 N 317.924 -2.43408 5.06664 0
M  V30 3480 H 310.075 0.0916097 2.12202 0
M  V30 3481 H 312.338 -0.0216655 0.947752 0
M  V30 3482 H 312.044 -0.670625 3.45247 0
M  V30 3483 H 311.918 -2.34784 2.95222 0
M  V30 3484 H 314.305 -2.19519 1.9722 0
M  V30 3485 H 314.386 -0.510342 2.50657 0
M  V30 3486 H 314.03 -1.28045 4.91495 0
M  V30 3487 H 313.96 -2.96843 4.34962 0
M  V30 3488 H 316.451 -1.78468 3.33103 0
M  V30 3489 H 316.764 -3.08652 7.08487 0
M  V30 3490 H 315.109 -2.78216 6.36884 0
M  V30 3491 H 318.3 -2.13604 4.16523 0
M  V30 3492 H 318.473 -2.72989 5.87691 0
M  V30 3493 N 311.879 -1.3236 -0.855495 0
M  V30 3494 C 313.156 -1.13491 -1.59309 0
M  V30 3495 C 313.536 0.30503 -2.08885 0
M  V30 3496 O 312.884 1.30151 -1.87811 0
M  V30 3497 C 313.094 -2.16176 -2.73987 0
M  V30 3498 C 314.442 -2.49463 -3.43589 0
M  V30 3499 O 315.466 -2.14715 -2.84211 0
M  V30 3500 O 314.325 -3.09027 -4.50738 0
M  V30 3501 H 311.419 -0.437887 -0.701559 0
M  V30 3502 H 313.965 -1.43887 -0.899696 0
M  V30 3503 H 312.737 -3.1297 -2.34873 0
M  V30 3504 H 312.36 -1.86769 -3.51003 0
M  V30 3505 N 313.357 1.07166 -1.15556 0
M  V30 3506 C 314.606 1.79181 -0.926132 0
M  V30 3507 C 314.919 1.87768 0.547967 0
M  V30 3508 O 316.125 2.56323 0.895036 0
M  V30 3509 C 314.581 3.22 -1.60761 0
M  V30 3510 C 314.189 3.21607 -3.11886 0
M  V30 3511 C 315.933 3.9861 -1.4598 0
M  V30 3512 C 313.84 4.59092 -3.72812 0
M  V30 3513 H 312.77 0.67154 -0.342856 0
M  V30 3514 H 315.421 1.2027 -1.3859 0
M  V30 3515 H 313.803 3.81115 -1.07553 0
M  V30 3516 H 314.977 2.72127 -3.71865 0
M  V30 3517 H 313.292 2.58495 -3.2645 0
M  V30 3518 H 315.889 5.00225 -1.88888 0
M  V30 3519 H 316.232 4.143 -0.407541 0
M  V30 3520 H 316.765 3.45996 -1.96295 0
M  V30 3521 H 313.504 4.48606 -4.77946 0
M  V30 3522 H 313.024 5.08803 -3.17616 0
M  V30 3523 H 314.703 5.28059 -3.73848 0
M  V30 3524 N 314.835 0.952656 1.25548 0
M  V30 3525 C 315.782 0.47008 2.25962 0
M  V30 3526 C 316.752 -0.476384 1.59122 0
M  V30 3527 O 317.937 -0.39007 1.8677 0
M  V30 3528 C 315.077 -0.247881 3.44209 0
M  V30 3529 C 314.19 0.735591 4.25691 0
M  V30 3530 C 313.325 -0.0047306 5.312 0
M  V30 3531 C 312.364 0.969805 6.04368 0
M  V30 3532 N 311.501 0.260486 7.01617 0
M  V30 3533 H 316.341 1.33126 2.66611 0
M  V30 3534 H 313.878 0.66765 1.31076 0
M  V30 3535 H 315.836 -0.680695 4.1161 0
M  V30 3536 H 314.466 -1.07312 3.0444 0
M  V30 3537 H 313.518 1.28689 3.57971 0
M  V30 3538 H 314.83 1.47934 4.76358 0
M  V30 3539 H 313.984 -0.496275 6.04667 0
M  V30 3540 H 312.723 -0.781282 4.81401 0
M  V30 3541 H 311.728 1.47237 5.29718 0
M  V30 3542 H 312.953 1.74655 6.56256 0
M  V30 3543 H 310.899 -0.497364 6.54112 0
M  V30 3544 H 310.816 0.943362 7.50091 0
M  V30 3545 H 312.084 -0.209587 7.79218 0
M  V30 3546 N 316.313 -1.40141 0.720998 0
M  V30 3547 C 317.724 -1.83678 0.334553 0
M  V30 3548 C 318.075 -1.6027 -1.13173 0
M  V30 3549 O 317.2 -1.08643 -1.87152 0
M  V30 3550 C 317.795 -3.33437 0.600437 0
M  V30 3551 C 316.354 -3.75447 0.267642 0
M  V30 3552 C 315.501 -2.63296 0.870097 0
M  V30 3553 H 318.452 -1.29331 0.919732 0
M  V30 3554 H 318.473 -3.80269 -0.132517 0
M  V30 3555 H 317.985 -3.50442 1.66768 0
M  V30 3556 H 316.086 -3.64035 -0.794329 0
M  V30 3557 H 316.199 -4.73344 0.74042 0
M  V30 3558 H 314.563 -2.52954 0.297739 0
M  V30 3559 H 315.346 -2.83112 1.94172 0
M  V30 3560 N 317.792 -0.46758 -1.50504 0
M  V30 3561 C 319.069 0.15003 -1.95024 0
M  V30 3562 C 319.449 1.57304 -1.40779 0
M  V30 3563 O 318.797 2.20281 -0.607319 0
M  V30 3564 C 319.007 0.0969324 -3.48865 0
M  V30 3565 C 320.355 0.287565 -4.23625 0
M  V30 3566 O 321.379 0.173678 -3.55776 0
M  V30 3567 O 320.238 0.517186 -5.44047 0
M  V30 3568 H 317.332 0.113582 -0.819163 0
M  V30 3569 H 319.878 -0.52773 -1.61286 0
M  V30 3570 H 318.65 -0.896732 -3.80886 0
M  V30 3571 H 318.273 0.816303 -3.8913 0
M  V30 3572 N 319.27 1.56325 -0.20005 0
M  V30 3573 C 320.218 2.20666 0.735482 0
M  V30 3574 C 321.212 1.17934 1.21605 0
M  V30 3575 O 322.418 1.36068 1.17837 0
M  V30 3576 H 318.793 0.70725 0.255542 0
M  V30 3577 H 320.764 2.9792 0.169166 0
M  V30 3578 C 319.513 2.88391 1.94232 0
M  V30 3579 H 318.836 3.67185 1.58161 0
M  V30 3580 H 320.276 3.3684 2.57517 0
M  V30 3581 C 318.735 1.89692 2.78421 0
M  V30 3582 O 319.265 1.40032 3.76502 0
M  V30 3583 N 317.471 1.57813 2.44015 0
M  V30 3584 H 317.018 1.9839 1.64314 0
M  V30 3585 H 316.976 0.920325 3.00628 0
M  V30 3586 N 320.748 -0.0735177 1.57428 0
M  V30 3587 C 321.678 -1.0879 2.06608 0
M  V30 3588 C 322.659 -1.40473 0.959237 0
M  V30 3589 O 323.844 -1.5013 1.23185 0
M  V30 3590 C 320.974 -2.40183 2.50857 0
M  V30 3591 C 319.928 -2.22858 3.65402 0
M  V30 3592 C 319.254 -3.59619 3.957 0
M  V30 3593 C 320.554 -1.65123 4.95511 0
M  V30 3594 H 322.248 -0.678673 2.91607 0
M  V30 3595 H 319.794 -0.325013 1.40284 0
M  V30 3596 H 321.747 -3.11437 2.83874 0
M  V30 3597 H 320.471 -2.83083 1.62885 0
M  V30 3598 H 319.13 -1.54045 3.32664 0
M  V30 3599 H 318.778 -4.00086 3.04861 0
M  V30 3600 H 318.478 -3.48866 4.72828 0
M  V30 3601 H 320.002 -4.32306 4.31212 0
M  V30 3602 H 321.416 -2.26241 5.26771 0
M  V30 3603 H 319.813 -1.65071 5.7695 0
M  V30 3604 H 320.883 -0.612559 4.81015 0
M  V30 3605 N 322.226 -1.5378 -0.344866 0
M  V30 3606 C 323.156 -1.84662 -1.42906 0
M  V30 3607 C 324.137 -0.701648 -1.54955 0
M  V30 3608 O 325.322 -0.953438 -1.69184 0
M  V30 3609 C 322.452 -2.05503 -2.79974 0
M  V30 3610 C 321.406 -3.21318 -2.82734 0
M  V30 3611 C 320.732 -3.2749 -4.22675 0
M  V30 3612 C 322.032 -4.59456 -2.48389 0
M  V30 3613 H 323.726 -2.75461 -1.17311 0
M  V30 3614 H 321.272 -1.32542 -0.562896 0
M  V30 3615 H 323.225 -2.25691 -3.55867 0
M  V30 3616 H 321.949 -1.11434 -3.07002 0
M  V30 3617 H 320.608 -3.00984 -2.09294 0
M  V30 3618 H 320.256 -2.31019 -4.4681 0
M  V30 3619 H 319.956 -4.05316 -4.25433 0
M  V30 3620 H 321.48 -3.49887 -5.00412 0
M  V30 3621 H 322.894 -4.79667 -3.13995 0
M  V30 3622 H 321.291 -5.39675 -2.62432 0
M  V30 3623 H 322.361 -4.63155 -1.4358 0
M  V30 3624 N 323.704 0.605807 -1.45491 0
M  V30 3625 C 324.634 1.72709 -1.57143 0
M  V30 3626 C 325.615 1.6476 -0.422884 0
M  V30 3627 O 326.8 1.83132 -0.646247 0
M  V30 3628 C 323.93 3.11316 -1.53948 0
M  V30 3629 C 322.884 3.34077 -2.67537 0
M  V30 3630 C 322.21 4.72975 -2.49397 0
M  V30 3631 C 323.51 3.24158 -4.09535 0
M  V30 3632 H 325.204 1.63214 -2.51001 0
M  V30 3633 H 322.75 0.78379 -1.208 0
M  V30 3634 H 324.703 3.89557 -1.60696 0
M  V30 3635 H 323.427 3.21655 -0.566205 0
M  V30 3636 H 322.086 2.58227 -2.6022 0
M  V30 3637 H 321.734 4.8005 -1.50205 0
M  V30 3638 H 321.434 4.8916 -3.25571 0
M  V30 3639 H 322.958 5.53414 -2.58002 0
M  V30 3640 H 324.372 3.92271 -4.18086 0
M  V30 3641 H 322.769 3.51872 -4.86113 0
M  V30 3642 H 323.839 2.2157 -4.31317 0
M  V30 3643 N 325.182 1.32811 0.848464 0
M  V30 3644 C 326.459 1.14334 1.58704 0
M  V30 3645 C 326.839 -0.293948 2.09043 0
M  V30 3646 O 326.187 -1.29153 1.88499 0
M  V30 3647 C 326.397 2.17626 2.72837 0
M  V30 3648 C 327.745 2.51282 3.42261 0
M  V30 3649 O 328.769 2.16219 2.83068 0
M  V30 3650 O 327.628 3.11413 4.49093 0
M  V30 3651 H 324.722 0.441601 0.699226 0
M  V30 3652 H 327.268 1.44362 0.892053 0
M  V30 3653 H 326.04 3.14211 2.3321 0
M  V30 3654 H 325.663 1.88628 3.50008 0
M  V30 3655 N 326.66 -1.06551 1.16123 0
M  V30 3656 C 327.885 -1.83544 0.965735 0
M  V30 3657 C 328.31 -1.81843 -0.481102 0
M  V30 3658 O 327.668 -1.21732 -1.34354 0
M  V30 3659 C 327.716 -3.28169 1.49457 0
M  V30 3660 O 326.82 -4.0643 0.699157 0
M  V30 3661 H 326.161 -0.568026 0.343864 0
M  V30 3662 H 328.691 -1.34362 1.54299 0
M  V30 3663 H 328.701 -3.78992 1.51092 0
M  V30 3664 H 327.376 -3.28722 2.54784 0
M  V30 3665 H 325.953 -3.65216 0.7531 0
M  V30 3666 N 328.138 -0.959301 -1.25041 0
M  V30 3667 C 329.085 -0.482057 -2.2571 0
M  V30 3668 C 330.055 0.467939 -1.59372 0
M  V30 3669 O 331.24 0.380159 -1.86974 0
M  V30 3670 C 328.38 0.229623 -3.44335 0
M  V30 3671 C 327.493 -0.758156 -4.25295 0
M  V30 3672 C 326.628 -0.0234403 -5.31195 0
M  V30 3673 C 325.667 -1.00184 -6.03846 0
M  V30 3674 N 324.804 -0.29769 -7.01469 0
M  V30 3675 H 329.644 -1.34538 -2.65901 0
M  V30 3676 H 327.181 -0.674592 -1.3072 0
M  V30 3677 H 329.139 0.658856 -4.11965 0
M  V30 3678 H 327.769 1.05696 -3.05005 0
M  V30 3679 H 326.821 -1.30586 -3.57284 0
M  V30 3680 H 328.133 -1.50458 -4.75567 0
M  V30 3681 H 327.287 0.464201 -6.04922 0
M  V30 3682 H 326.026 0.755741 -4.81809 0
M  V30 3683 H 325.031 -1.50044 -5.2893 0
M  V30 3684 H 326.256 -1.78133 -6.55321 0
M  V30 3685 H 324.202 0.462668 -6.54366 0
M  V30 3686 H 324.119 -0.983128 -7.4958 0
M  V30 3687 H 325.387 0.16826 -7.79318 0
M  V30 3688 N 329.616 1.39756 -0.72842 0
M  V30 3689 C 330.864 2.00248 -0.272946 0
M  V30 3690 C 331.185 1.58077 1.14178 0
M  V30 3691 O 330.455 0.826014 1.77634 0
M  V30 3692 H 329.035 0.740554 -0.0979247 0
M  V30 3693 H 331.697 1.70903 -0.936912 0
M  V30 3694 H 330.793 3.10495 -0.316142 0
M  V30 3695 N 331.094 0.475555 1.50254 0
M  V30 3696 C 332.044 -0.335025 2.25525 0
M  V30 3697 C 333.028 -0.957625 1.29299 0
M  V30 3698 O 334.22 -0.869436 1.54175 0
M  V30 3699 C 331.349 -1.41385 3.12834 0
M  V30 3700 C 330.435 -0.798762 4.1651 0
M  V30 3701 N 330.826 0.0835815 5.05731 0
M  V30 3702 C 329.124 -1.06221 4.33166 0
M  V30 3703 C 329.825 0.433113 5.80085 0
M  V30 3704 N 328.801 -0.1928 5.43258 0
M  V30 3705 H 332.603 0.344612 2.91873 0
M  V30 3706 H 330.117 0.289986 1.5979 0
M  V30 3707 H 332.114 -2.00777 3.65368 0
M  V30 3708 H 330.774 -2.09543 2.48036 0
M  V30 3709 H 331.785 0.452715 5.15918 0
M  V30 3710 H 328.462 -1.73844 3.79585 0
M  V30 3711 H 329.852 1.15346 6.61925 0
M  V30 3712 N 332.573 -1.56217 0.208337 0
M  V30 3713 C 333.819 -1.98242 -0.427552 0
M  V30 3714 C 334.152 -1.09554 -1.60348 0
M  V30 3715 O 333.427 -0.15035 -1.93918 0
M  V30 3716 C 333.71 -3.4931 -0.874907 0
M  V30 3717 C 333.563 -4.48773 0.303751 0
M  V30 3718 C 334.882 -4.04424 -1.73577 0
M  V30 3719 H 332.001 -0.720744 -0.153936 0
M  V30 3720 H 334.643 -1.87586 0.30192 0
M  V30 3721 H 332.793 -3.58522 -1.49648 0
M  V30 3722 H 334.465 -4.51586 0.941682 0
M  V30 3723 H 332.708 -4.23194 0.953375 0
M  V30 3724 H 333.379 -5.51976 -0.0519883 0
M  V30 3725 H 335.855 -3.98075 -1.21143 0
M  V30 3726 H 334.731 -5.1047 -2.01771 0
M  V30 3727 H 334.992 -3.50494 -2.69456 0
M  V30 3728 N 334.051 0.0651679 -1.57465 0
M  V30 3729 C 334.998 1.07675 -2.04144 0
M  V30 3730 C 335.968 1.38071 -0.923335 0
M  V30 3731 O 337.153 1.49026 -1.19146 0
M  V30 3732 C 334.293 2.38337 -2.49579 0
M  V30 3733 C 333.406 2.14413 -3.75035 0
M  V30 3734 C 332.541 3.38686 -4.09225 0
M  V30 3735 C 331.58 3.10156 -5.27702 0
M  V30 3736 N 330.717 4.26778 -5.57499 0
M  V30 3737 H 335.557 0.671716 -2.90331 0
M  V30 3738 H 333.094 0.3201 -1.43575 0
M  V30 3739 H 335.052 3.14632 -2.73975 0
M  V30 3740 H 333.682 2.7663 -1.6636 0
M  V30 3741 H 332.734 1.2878 -3.57939 0
M  V30 3742 H 334.046 1.89344 -4.61466 0
M  V30 3743 H 333.2 4.23373 -4.34558 0
M  V30 3744 H 331.939 3.66837 -3.21374 0
M  V30 3745 H 330.944 2.23866 -5.02159 0
M  V30 3746 H 332.169 2.8332 -6.17176 0
M  V30 3747 H 330.115 4.54948 -4.72608 0
M  V30 3748 H 330.032 4.05005 -6.38362 0
M  V30 3749 H 331.3 5.12443 -5.87386 0
M  V30 3750 N 335.529 1.53961 0.336706 0
M  V30 3751 C 336.459 1.85417 1.41925 0
M  V30 3752 C 337.44 0.709856 1.5458 0
M  V30 3753 O 338.625 0.962396 1.68676 0
M  V30 3754 C 335.755 2.06985 2.78881 0
M  V30 3755 C 334.709 3.22813 2.81026 0
M  V30 3756 C 334.035 3.29727 4.20932 0
M  V30 3757 C 335.335 4.60767 2.45949 0
M  V30 3758 H 337.029 2.76079 1.15848 0
M  V30 3759 H 334.575 1.32839 0.555859 0
M  V30 3760 H 336.528 2.27575 3.54665 0
M  V30 3761 H 335.252 1.13061 3.06406 0
M  V30 3762 H 333.911 3.0209 2.07695 0
M  V30 3763 H 333.559 2.33385 4.45579 0
M  V30 3764 H 333.259 4.07566 4.23277 0
M  V30 3765 H 334.783 3.52536 4.98549 0
M  V30 3766 H 336.197 4.81325 3.11446 0
M  V30 3767 H 334.594 5.4106 2.59566 0
M  V30 3768 H 335.664 4.6391 1.41122 0
M  V30 3769 N 337.007 -0.598083 1.45811 0
M  V30 3770 C 338.232 -1.3881 1.54099 0
M  V30 3771 C 338.657 -1.8726 0.177578 0
M  V30 3772 O 338.015 -1.6069 -0.839541 0
M  V30 3773 C 338.063 -2.56217 2.53743 0
M  V30 3774 O 337.167 -3.5716 2.06182 0
M  V30 3775 H 336.508 -0.414024 0.519115 0
M  V30 3776 H 339.038 -0.726971 1.91249 0
M  V30 3777 H 339.048 -3.03337 2.72856 0
M  V30 3778 H 337.723 -2.20303 3.5276 0
M  V30 3779 H 336.3 -3.16624 1.96987 0
M  V30 3780 N 338.485 -1.33259 -0.841409 0
M  V30 3781 C 339.762 -1.15174 -1.58096 0
M  V30 3782 C 340.142 0.282858 -2.09196 0
M  V30 3783 O 339.49 1.28151 -1.89181 0
M  V30 3784 C 339.7 -2.1907 -2.71679 0
M  V30 3785 C 341.048 -2.53093 -3.40924 0
M  V30 3786 O 342.072 -2.17717 -2.81918 0
M  V30 3787 O 340.931 -3.1379 -4.47435 0
M  V30 3788 H 338.025 -0.445303 -0.696875 0
M  V30 3789 H 340.571 -1.44833 -0.884385 0
M  V30 3790 H 339.343 -3.15443 -2.31541 0
M  V30 3791 H 338.966 -1.90481 -3.49002 0
M  V30 3792 N 339.963 1.05934 -1.16686 0
M  V30 3793 C 341.21 1.788 -0.950622 0
M  V30 3794 C 341.538 1.87384 0.521305 0
M  V30 3795 O 340.793 1.36438 1.40297 0
M  V30 3796 C 341.092 3.23105 -1.52767 0
M  V30 3797 C 340.758 3.34594 -3.02254 0
M  V30 3798 C 339.42 3.37437 -3.43059 0
M  V30 3799 C 341.772 3.36219 -3.98254 0
M  V30 3800 C 339.1 3.39525 -4.78477 0
M  V30 3801 C 341.452 3.39845 -5.33562 0
M  V30 3802 C 340.116 3.40971 -5.73842 0
M  V30 3803 H 339.386 0.654275 -0.347857 0
M  V30 3804 H 342.033 1.24555 -1.45459 0
M  V30 3805 H 340.338 3.80227 -0.94524 0
M  V30 3806 H 342.035 3.7809 -1.336 0
M  V30 3807 H 338.625 3.3309 -2.6972 0
M  V30 3808 H 342.809 3.33231 -3.67792 0
M  V30 3809 H 338.065 3.38703 -5.09009 0
M  V30 3810 H 342.239 3.4005 -6.07733 0
M  V30 3811 H 339.866 3.42342 -6.78753 0
M  V30 3812 N 341.441 0.965919 1.2453 0
M  V30 3813 C 342.689 0.625593 1.92174 0
M  V30 3814 C 343.01 -0.841652 1.75901 0
M  V30 3815 O 342.28 -1.60061 1.12948 0
M  V30 3816 H 340.86 0.228388 0.71123 0
M  V30 3817 H 343.522 1.2266 1.51461 0
M  V30 3818 H 342.618 0.864653 2.99884 0
M  V30 3819 N 342.919 -1.39368 0.735821 0
M  V30 3820 C 343.849 -2.33234 0.111506 0
M  V30 3821 C 344.83 -1.53954 -0.723334 0
M  V30 3822 O 346.015 -1.82344 -0.668147 0
M  V30 3823 C 343.145 -3.38057 -0.795917 0
M  V30 3824 C 342.099 -4.2795 -0.065172 0
M  V30 3825 C 341.425 -5.23479 -1.08967 0
M  V30 3826 C 342.725 -5.10741 1.09273 0
M  V30 3827 H 344.419 -2.85692 0.895571 0
M  V30 3828 H 341.965 -1.37364 0.432109 0
M  V30 3829 H 343.918 -4.02675 -1.24221 0
M  V30 3830 H 342.642 -2.8404 -1.61211 0
M  V30 3831 H 341.301 -3.64813 0.361511 0
M  V30 3832 H 340.949 -4.65758 -1.89944 0
M  V30 3833 H 340.649 -5.84472 -0.605489 0
M  V30 3834 H 342.173 -5.90974 -1.53565 0
M  V30 3835 H 343.587 -5.68699 0.724841 0
M  V30 3836 H 341.984 -5.8088 1.50659 0
M  V30 3837 H 343.054 -4.45525 1.91404 0
M  V30 3838 N 344.397 -0.483516 -1.5 0
M  V30 3839 C 345.637 0.0657469 -2.04294 0
M  V30 3840 C 346.001 1.35869 -1.35659 0
M  V30 3841 O 347.202 1.99111 -1.80578 0
M  V30 3842 C 345.473 0.232758 -3.56641 0
M  V30 3843 S 347.032 0.738788 -4.32536 0
M  V30 3844 H 343.85 0.0100755 -0.710929 0
M  V30 3845 H 346.452 -0.653494 -1.84254 0
M  V30 3846 H 345.156 -0.713847 -4.04144 0
M  V30 3847 H 344.687 0.977751 -3.81056 0
M  V30 3848 H 346.702 2.01048 -4.53645 0
M  V30 3849 N 345.875 1.56104 -0.216619 0
M  V30 3850 C 347.103 2.02563 0.421413 0
M  V30 3851 C 347.518 1.0965 1.53695 0
M  V30 3852 O 346.875 0.10521 1.82196 0
M  V30 3853 C 346.926 3.48584 0.957665 0
M  V30 3854 O 346.647 4.37953 -0.113389 0
M  V30 3855 C 348.148 4.10664 1.66943 0
M  V30 3856 H 345.368 0.662944 0.103665 0
M  V30 3857 H 347.912 2.01793 -0.331629 0
M  V30 3858 H 346.067 3.49985 1.661 0
M  V30 3859 H 346.481 5.23704 0.288932 0
M  V30 3860 H 347.955 5.14622 1.99671 0
M  V30 3861 H 348.432 3.55373 2.58083 0
M  V30 3862 H 349.038 4.13098 1.01142 0
M  V30 3863 N 347.353 -0.0568162 1.57498 0
M  V30 3864 C 348.601 -0.751617 1.87604 0
M  V30 3865 C 348.922 -1.77351 0.81066 0
M  V30 3866 O 348.192 -1.95254 -0.159018 0
M  V30 3867 H 346.772 -0.280583 0.692302 0
M  V30 3868 H 349.434 -0.0293483 1.94878 0
M  V30 3869 H 348.53 -1.25852 2.856 0
M  V30 3870 N 348.832 -1.54138 -0.328536 0
M  V30 3871 C 349.762 -1.86167 -1.40939 0
M  V30 3872 C 350.743 -0.718044 -1.54202 0
M  V30 3873 O 351.928 -0.971328 -1.68163 0
M  V30 3874 C 349.058 -2.08461 -2.77779 0
M  V30 3875 C 348.012 -3.24299 -2.7931 0
M  V30 3876 C 347.338 -3.31955 -4.19178 0
M  V30 3877 C 348.638 -4.62065 -2.43502 0
M  V30 3878 H 350.332 -2.76689 -1.14383 0
M  V30 3879 H 347.878 -1.33132 -0.548806 0
M  V30 3880 H 349.831 -2.29453 -3.53454 0
M  V30 3881 H 348.555 -1.14684 -3.05802 0
M  V30 3882 H 347.214 -3.03187 -2.0609 0
M  V30 3883 H 346.862 -2.35745 -4.44335 0
M  V30 3884 H 346.562 -4.09805 -4.2111 0
M  V30 3885 H 348.086 -3.55175 -4.96672 0
M  V30 3886 H 349.5 -4.8297 -3.08889 0
M  V30 3887 H 347.897 -5.42429 -2.56693 0
M  V30 3888 H 348.967 -4.64652 -1.38659 0
M  V30 3889 N 350.31 0.590341 -1.46126 0
M  V30 3890 C 351.257 1.69994 -1.56111 0
M  V30 3891 C 352.227 1.61065 -0.405867 0
M  V30 3892 O 353.412 1.8039 -0.621613 0
M  V30 3893 C 350.552 3.08326 -1.55013 0
M  V30 3894 C 349.665 3.27936 -2.81215 0
M  V30 3895 C 348.8 4.56473 -2.71673 0
M  V30 3896 C 347.839 4.694 -3.92849 0
M  V30 3897 N 346.976 5.89254 -3.81738 0
M  V30 3898 H 351.816 1.60797 -2.50895 0
M  V30 3899 H 349.353 0.783799 -1.24479 0
M  V30 3900 H 351.311 3.88383 -1.52362 0
M  V30 3901 H 349.941 3.16439 -0.637667 0
M  V30 3902 H 348.993 2.41536 -2.93879 0
M  V30 3903 H 350.305 3.33357 -3.71045 0
M  V30 3904 H 349.459 5.44748 -2.67085 0
M  V30 3905 H 348.198 4.53477 -1.7947 0
M  V30 3906 H 347.203 3.79544 -3.97777 0
M  V30 3907 H 348.428 4.7418 -4.86138 0
M  V30 3908 H 346.374 5.87271 -2.92317 0
M  V30 3909 H 346.291 5.95911 -4.65217 0
M  V30 3910 H 347.559 6.79981 -3.81112 0
M  V30 3911 N 351.788 1.33704 0.83433 0
M  V30 3912 C 352.735 1.24335 1.94447 0
M  V30 3913 C 353.705 0.120991 1.65659 0
M  V30 3914 O 354.89 0.300035 1.88426 0
M  V30 3915 C 352.03 0.993124 3.30501 0
M  V30 3916 C 351.143 2.20217 3.71657 0
M  V30 3917 C 350.278 1.88572 4.96602 0
M  V30 3918 C 349.317 3.05683 5.30306 0
M  V30 3919 N 348.454 2.73997 6.46429 0
M  V30 3920 H 353.294 2.1928 2.01792 0
M  V30 3921 H 350.831 1.09035 0.987404 0
M  V30 3922 H 352.789 0.828467 4.08892 0
M  V30 3923 H 351.419 0.0803902 3.227 0
M  V30 3924 H 350.471 2.47642 2.88752 0
M  V30 3925 H 351.783 3.07752 3.92543 0
M  V30 3926 H 350.937 1.68776 5.82752 0
M  V30 3927 H 349.676 0.982799 4.77695 0
M  V30 3928 H 348.681 3.26088 4.42659 0
M  V30 3929 H 349.906 3.96737 5.51159 0
M  V30 3930 H 347.852 1.86268 6.28999 0
M  V30 3931 H 347.769 3.55064 6.67432 0
M  V30 3932 H 349.037 2.57679 7.35678 0
M  V30 3933 N 353.266 -1.05314 1.17247 0
M  V30 3934 C 354.229 -2.112 0.890357 0
M  V30 3935 C 355.229 -1.60359 -0.118943 0
M  V30 3936 O 356.419 -1.73833 0.113086 0
M  V30 3937 C 353.551 -3.39266 0.333422 0
M  V30 3938 H 354.744 -2.37659 1.82916 0
M  V30 3939 H 352.297 -1.21538 0.982758 0
M  V30 3940 H 353.032 -3.18462 -0.612587 0
M  V30 3941 H 352.817 -3.77477 1.06082 0
M  V30 3942 H 354.307 -4.17315 0.154322 0
M  V30 3943 N 354.744 -0.972509 -1.24016 0
M  V30 3944 C 355.694 -0.477561 -2.22942 0
M  V30 3945 C 356.678 0.44308 -1.54679 0
M  V30 3946 O 357.87 0.273219 -1.74879 0
M  V30 3947 C 354.999 0.226348 -3.42553 0
M  V30 3948 C 354.085 -0.713403 -4.18057 0
M  V30 3949 N 354.476 -1.8527 -4.70647 0
M  V30 3950 C 352.774 -0.525145 -4.42898 0
M  V30 3951 C 353.475 -2.44089 -5.28011 0
M  V30 3952 N 352.451 -1.72556 -5.15486 0
M  V30 3953 H 356.253 -1.34678 -2.61226 0
M  V30 3954 H 353.767 -0.832196 -1.39457 0
M  V30 3955 H 355.764 0.598184 -4.12586 0
M  V30 3956 H 354.424 1.09195 -3.05788 0
M  V30 3957 H 355.435 -2.2341 -4.67235 0
M  V30 3958 H 352.112 0.296096 -4.16449 0
M  V30 3959 H 353.502 -3.40259 -5.79374 0
M  V30 3960 N 356.222 1.38976 -0.743202 0
M  V30 3961 C 357.638 1.53984 -0.419664 0
M  V30 3962 C 357.838 1.70837 1.0685 0
M  V30 3963 O 356.894 1.7135 1.8546 0
M  V30 3964 C 358.207 2.75287 -1.20985 0
M  V30 3965 C 359.755 2.89129 -1.19889 0
M  V30 3966 C 360.23 4.13381 -1.97181 0
M  V30 3967 N 361.721 4.20437 -1.94389 0
M  V30 3968 C 362.456 5.15547 -2.50996 0
M  V30 3969 N 361.952 6.16395 -3.16274 0
M  V30 3970 N 363.745 5.07822 -2.40984 0
M  V30 3971 H 355.896 1.26285 -1.7078 0
M  V30 3972 H 358.159 0.612689 -0.723406 0
M  V30 3973 H 357.865 2.69204 -2.26323 0
M  V30 3974 H 357.739 3.68184 -0.819759 0
M  V30 3975 H 360.126 2.947 -0.153606 0
M  V30 3976 H 360.207 1.97272 -1.62841 0
M  V30 3977 H 359.851 4.08572 -3.01714 0
M  V30 3978 H 359.781 5.04298 -1.51629 0
M  V30 3979 H 362.272 3.48205 -1.46839 0
M  V30 3980 H 362.585 6.85443 -3.56915 0
M  V30 3981 H 360.93 6.16758 -3.20367 0
M  V30 3982 H 364.121 4.27973 -1.89622 0
M  V30 3983 H 364.294 5.81767 -2.85397 0
M  V30 3984 N 357.7 0.491464 1.49741 0
M  V30 3985 C 358.928 -0.0535151 2.06831 0
M  V30 3986 C 359.343 -1.31683 1.35296 0
M  V30 3987 O 358.7 -1.77402 0.42836 0
M  V30 3988 C 358.751 -0.320835 3.60073 0
M  V30 3989 O 358.472 0.892394 4.28915 0
M  V30 3990 C 359.973 -0.910519 4.33848 0
M  V30 3991 H 357.193 0.0161909 0.670805 0
M  V30 3992 H 359.737 0.68609 1.92647 0
M  V30 3993 H 357.892 -1.0104 3.73991 0
M  V30 3994 H 358.306 0.649401 5.20464 0
M  V30 3995 H 359.78 -1.04721 5.41976 0
M  V30 3996 H 360.257 -1.90589 3.95692 0
M  V30 3997 H 360.863 -0.258712 4.24512 0
M  V30 3998 N 359.178 -1.55987 0.224894 0
M  V30 3999 C 360.088 -2.24066 -0.69511 0
M  V30 4000 C 361.104 -1.24939 -1.21104 0
M  V30 4001 O 362.28 -1.5776 -1.25195 0
M  V30 4002 C 359.345 -2.90983 -1.88493 0
M  V30 4003 C 358.406 -4.05462 -1.41064 0
M  V30 4004 C 357.639 -4.69179 -2.54375 0
M  V30 4005 O 357.862 -4.31895 -3.72589 0
M  V30 4006 O 356.796 -5.58108 -2.25386 0
M  V30 4007 H 360.622 -3.03353 -0.145149 0
M  V30 4008 H 358.207 -1.49399 -0.00569476 0
M  V30 4009 H 360.089 -3.33209 -2.57972 0
M  V30 4010 H 358.764 -2.14653 -2.42293 0
M  V30 4011 H 357.671 -3.67798 -0.683774 0
M  V30 4012 H 359.004 -4.83545 -0.918985 0
M  V30 4013 N 360.656 0.0484629 -1.57525 0
M  V30 4014 C 361.903 0.743125 -1.88372 0
M  V30 4015 C 362.231 1.76383 -0.819715 0
M  V30 4016 O 361.486 1.94855 0.181659 0
M  V30 4017 C 361.785 1.46632 -3.25935 0
M  V30 4018 C 361.451 0.583427 -4.4711 0
M  V30 4019 C 360.113 0.340191 -4.79996 0
M  V30 4020 C 362.465 -0.0273345 -5.21193 0
M  V30 4021 C 359.793 -0.522903 -5.84365 0
M  V30 4022 C 362.145 -0.878017 -6.26477 0
M  V30 4023 C 360.809 -1.1309 -6.5785 0
M  V30 4024 H 360.079 0.271929 -0.689301 0
M  V30 4025 H 362.726 0.00336166 -1.915 0
M  V30 4026 H 361.031 2.2789 -3.18706 0
M  V30 4027 H 362.728 2.00902 -3.47044 0
M  V30 4028 H 359.318 0.783151 -4.21384 0
M  V30 4029 H 363.502 0.147654 -4.9608 0
M  V30 4030 H 358.758 -0.727335 -6.07058 0
M  V30 4031 H 362.932 -1.35789 -6.83033 0
M  V30 4032 H 360.559 -1.80144 -7.38547 0
M  V30 4033 N 362.134 1.5431 0.320358 0
M  V30 4034 C 363.364 1.7638 1.07582 0
M  V30 4035 C 363.772 0.513944 1.82086 0
M  V30 4036 O 363.115 -0.525123 1.76035 0
M  V30 4037 C 363.177 2.9055 2.1171 0
M  V30 4038 C 362.841 4.2934 1.56575 0
M  V30 4039 C 363.838 5.10077 1.00586 0
M  V30 4040 C 361.523 4.75893 1.60722 0
M  V30 4041 C 363.517 6.35477 0.494756 0
M  V30 4042 C 361.204 6.0126 1.09224 0
M  V30 4043 C 362.202 6.80886 0.53696 0
M  V30 4044 O 361.89 8.03894 0.0297371 0
M  V30 4045 H 361.622 0.592369 0.325692 0
M  V30 4046 H 364.176 2.02019 0.37116 0
M  V30 4047 H 362.406 2.60489 2.85801 0
M  V30 4048 H 364.095 3.00373 2.73003 0
M  V30 4049 H 364.861 4.75265 0.966869 0
M  V30 4050 H 360.74 4.13957 2.02882 0
M  V30 4051 H 364.284 6.97574 0.0606842 0
M  V30 4052 H 360.181 6.35562 1.12831 0
M  V30 4053 H 360.949 8.18372 0.14486 0
M  V30 4054 N 363.613 -0.582584 1.46437 0
M  V30 4055 C 365.029 -0.905962 1.31394 0
M  V30 4056 C 365.229 -1.99468 0.285476 0
M  V30 4057 O 364.285 -2.50566 -0.311914 0
M  V30 4058 C 365.598 -1.3232 2.70022 0
M  V30 4059 C 367.146 -1.43604 2.78113 0
M  V30 4060 C 367.621 -1.88694 4.17323 0
M  V30 4061 N 369.112 -1.95887 4.19741 0
M  V30 4062 C 369.847 -2.32051 5.24347 0
M  V30 4063 N 369.343 -2.67006 6.39281 0
M  V30 4064 N 371.136 -2.32606 5.11713 0
M  V30 4065 H 363.287 0.1366 2.1196 0
M  V30 4066 H 365.55 -0.00155736 0.947999 0
M  V30 4067 H 365.256 -0.597242 3.46592 0
M  V30 4068 H 365.13 -2.28469 3.00136 0
M  V30 4069 H 367.517 -2.15286 2.01832 0
M  V30 4070 H 367.598 -0.457059 2.51684 0
M  V30 4071 H 367.242 -1.1759 4.941 0
M  V30 4072 H 367.172 -2.8755 4.4116 0
M  V30 4073 H 369.663 -1.71362 3.36814 0
M  V30 4074 H 369.976 -2.93554 7.14875 0
M  V30 4075 H 368.321 -2.64644 6.42642 0
M  V30 4076 H 371.512 -2.04721 4.2096 0
M  V30 4077 H 371.685 -2.60462 5.93349 0
M  V30 4078 N 365.091 -1.34144 -0.827227 0
M  V30 4079 C 366.039 -1.25364 -1.95925 0
M  V30 4080 C 367.033 -0.152608 -1.68711 0
M  V30 4081 O 368.239 -0.317311 -1.77181 0
M  V30 4082 H 364.614 -0.389342 -0.643364 0
M  V30 4083 H 366.585 -2.21045 -2.00454 0
M  V30 4084 C 365.334 -1.02158 -3.32354 0
M  V30 4085 H 364.657 -1.86111 -3.5384 0
M  V30 4086 H 366.097 -1.00048 -4.12027 0
M  V30 4087 C 364.556 0.275244 -3.35774 0
M  V30 4088 O 365.086 1.27806 -3.80826 0
M  V30 4089 N 363.292 0.306853 -2.88975 0
M  V30 4090 H 362.839 -0.509777 -2.52506 0
M  V30 4091 H 362.797 1.17432 -2.91646 0
M  V30 4092 N 366.569 1.04691 -1.17803 0
M  V30 4093 C 367.499 2.14494 -0.92275 0
M  V30 4094 C 368.48 1.69546 0.137179 0
M  V30 4095 O 369.665 1.94195 -0.0141108 0
M  V30 4096 C 366.795 3.44491 -0.440803 0
M  V30 4097 C 365.749 4.03031 -1.4405 0
M  V30 4098 C 365.075 5.28432 -0.81631 0
M  V30 4099 C 366.375 4.39932 -2.81527 0
M  V30 4100 H 368.069 2.36107 -1.84103 0
M  V30 4101 H 365.615 1.1347 -0.886599 0
M  V30 4102 H 367.568 4.2066 -0.249602 0
M  V30 4103 H 366.292 3.22546 0.513025 0
M  V30 4104 H 364.951 3.28937 -1.61853 0
M  V30 4105 H 364.599 5.02792 0.144511 0
M  V30 4106 H 364.299 5.68559 -1.48371 0
M  V30 4107 H 365.823 6.07284 -0.635496 0
M  V30 4108 H 367.237 5.07113 -2.67412 0
M  V30 4109 H 365.634 4.9109 -3.44892 0
M  V30 4110 H 366.704 3.50045 -3.35554 0
M  V30 4111 N 368.047 0.979072 1.23499 0
M  V30 4112 C 368.995 0.510604 2.26926 0
M  V30 4113 C 369.989 -0.431691 1.63807 0
M  V30 4114 O 371.195 -0.30573 1.77385 0
M  V30 4115 H 367.57 0.146688 0.737554 0
M  V30 4116 H 369.541 1.39466 2.63803 0
M  V30 4117 C 368.29 -0.172658 3.47271 0
M  V30 4118 H 367.613 0.543331 3.96091 0
M  V30 4119 H 369.053 -0.464101 4.21452 0
M  V30 4120 C 367.512 -1.40345 3.06276 0
M  V30 4121 O 368.042 -2.49978 3.14442 0
M  V30 4122 N 366.248 -1.27362 2.61203 0
M  V30 4123 H 365.795 -0.381584 2.54758 0
M  V30 4124 H 365.753 -2.09822 2.34141 0
M  V30 4125 N 369.525 -1.3858 0.750561 0
M  V30 4126 C 370.475 -2.27795 0.0965949 0
M  V30 4127 C 371.459 -1.45048 -0.696411 0
M  V30 4128 O 372.651 -1.67812 -0.562863 0
M  V30 4129 C 369.78 -3.33894 -0.798085 0
M  V30 4130 C 368.866 -4.241 0.0016067 0
M  V30 4131 N 369.257 -4.95067 1.03647 0
M  V30 4132 C 367.555 -4.45429 -0.225674 0
M  V30 4133 C 368.256 -5.61489 1.52004 0
M  V30 4134 N 367.232 -5.37135 0.835874 0
M  V30 4135 H 371.034 -2.80125 0.889228 0
M  V30 4136 H 368.548 -1.51446 0.586323 0
M  V30 4137 H 370.545 -3.96693 -1.28219 0
M  V30 4138 H 369.205 -2.83123 -1.5897 0
M  V30 4139 H 370.216 -4.98104 1.41819 0
M  V30 4140 H 366.893 -4.05571 -0.990872 0
M  V30 4141 H 368.283 -6.28264 2.38188 0
M  V30 4142 N 371.003 -0.499398 -1.49478 0
M  V30 4143 C 372.228 0.044722 -2.07352 0
M  V30 4144 C 372.653 1.30207 -1.35749 0
M  V30 4145 O 372.011 1.76516 -0.413732 0
M  V30 4146 C 372.059 0.283013 -3.59488 0
M  V30 4147 O 371.163 1.35804 -3.89398 0
M  V30 4148 H 370.504 -0.0255147 -0.66351 0
M  V30 4149 H 373.034 -0.698561 -1.92305 0
M  V30 4150 H 373.044 0.515007 -4.04737 0
M  V30 4151 H 371.719 -0.635636 -4.11014 0
M  V30 4152 H 370.296 1.11113 -3.55961 0
M  V30 4153 N 372.481 1.55866 -0.233164 0
M  V30 4154 C 373.411 2.23783 0.666599 0
M  V30 4155 C 374.392 1.21343 1.19205 0
M  V30 4156 O 375.577 1.4996 1.23392 0
M  V30 4157 C 372.707 2.92671 1.86978 0
M  V30 4158 C 371.661 4.01682 1.47768 0
M  V30 4159 C 370.987 4.57926 2.76058 0
M  V30 4160 C 372.287 5.18126 0.658993 0
M  V30 4161 H 373.981 2.99232 0.100306 0
M  V30 4162 H 371.527 1.43924 0.046804 0
M  V30 4163 H 373.48 3.3888 2.50476 0
M  V30 4164 H 372.204 2.14688 2.46123 0
M  V30 4165 H 370.863 3.56222 0.866106 0
M  V30 4166 H 370.511 3.76659 3.33372 0
M  V30 4167 H 370.211 5.31505 2.50552 0
M  V30 4168 H 371.735 5.06859 3.40479 0
M  V30 4169 H 373.149 5.60644 1.19795 0
M  V30 4170 H 371.546 5.98009 0.500552 0
M  V30 4171 H 372.616 4.83763 -0.331856 0
M  V30 4172 N 373.959 -0.0401083 1.57549 0
M  V30 4173 C 375.37 -0.588097 1.77196 0
M  V30 4174 C 375.721 -1.76209 0.862832 0
M  V30 4175 O 374.846 -2.16331 0.0548389 0
M  V30 4176 C 375.441 -1.07363 3.21339 0
M  V30 4177 C 374 -1.56723 3.42221 0
M  V30 4178 C 373.147 -0.50041 2.72747 0
M  V30 4179 H 376.098 0.186119 1.57605 0
M  V30 4180 H 376.119 -1.94143 3.27244 0
M  V30 4181 H 375.631 -0.218975 3.87482 0
M  V30 4182 H 373.732 -2.4441 2.81237 0
M  V30 4183 H 373.845 -1.62234 4.50796 0
M  V30 4184 H 372.209 -0.952894 2.36203 0
M  V30 4185 H 372.992 0.344599 3.41566 0
M  V30 4186 N 375.437 -1.54477 -0.31217 0
M  V30 4187 C 376.662 -1.77526 -1.07235 0
M  V30 4188 C 377.087 -0.527775 -1.80544 0
M  V30 4189 O 376.445 0.52121 -1.73646 0
M  V30 4190 C 376.493 -2.97535 -2.03728 0
M  V30 4191 O 375.597 -2.69878 -3.11833 0
M  V30 4192 H 374.938 -0.58792 -0.30862 0
M  V30 4193 H 377.468 -2.01532 -0.352993 0
M  V30 4194 H 377.478 -3.25198 -2.46395 0
M  V30 4195 H 376.153 -3.87996 -1.49774 0
M  V30 4196 H 374.73 -2.53199 -2.7376 0
M  V30 4197 N 376.915 0.57481 -1.46744 0
M  V30 4198 C 378.192 1.3352 -1.4294 0
M  V30 4199 C 378.572 2.10775 -0.117009 0
M  V30 4200 O 377.92 2.09966 0.901474 0
M  V30 4201 C 378.13 2.25456 -2.66403 0
M  V30 4202 C 379.478 2.87035 -3.12883 0
M  V30 4203 O 380.502 2.35766 -2.67007 0
M  V30 4204 O 379.361 3.80179 -3.92589 0
M  V30 4205 H 376.455 0.600318 -0.568812 0
M  V30 4206 H 379.001 0.595171 -1.58921 0
M  V30 4207 H 377.773 1.67851 -3.53471 0
M  V30 4208 H 377.396 3.06785 -2.52921 0
M  V30 4209 N 378.394 1.34581 0.820102 0
M  V30 4210 C 379.641 1.27096 1.57648 0
M  V30 4211 C 379.969 -0.158317 1.93855 0
M  V30 4212 O 379.224 -1.12028 1.60463 0
M  V30 4213 C 379.523 2.10997 2.8847 0
M  V30 4214 C 379.189 3.59966 2.71543 0
M  V30 4215 C 377.851 4.00575 2.66634 0
M  V30 4216 C 380.203 4.54548 2.55021 0
M  V30 4217 C 377.531 5.33953 2.43128 0
M  V30 4218 C 379.883 5.88109 2.33047 0
M  V30 4219 C 378.547 6.27878 2.26552 0
M  V30 4220 H 377.817 0.465078 0.576874 0
M  V30 4221 H 380.464 1.6635 0.948671 0
M  V30 4222 H 378.769 1.6458 3.55557 0
M  V30 4223 H 380.466 2.0255 3.46084 0
M  V30 4224 H 377.056 3.27733 2.76205 0
M  V30 4225 H 381.24 4.24069 2.57835 0
M  V30 4226 H 376.496 5.63781 2.3656 0
M  V30 4227 H 380.67 6.60985 2.19251 0
M  V30 4228 H 378.297 7.31162 2.081 0
M  V30 4229 N 379.872 -1.04064 1.18357 0
M  V30 4230 C 381.1 -1.80916 1.00384 0
M  V30 4231 C 381.515 -1.83414 -0.447738 0
M  V30 4232 O 380.872 -1.26962 -1.31099 0
M  V30 4233 C 380.923 -3.26516 1.55144 0
M  V30 4234 O 380.644 -3.2424 2.94618 0
M  V30 4235 C 382.145 -4.20013 1.41789 0
M  V30 4236 H 379.365 -0.569728 0.354474 0
M  V30 4237 H 381.909 -1.31151 1.56906 0
M  V30 4238 H 380.064 -3.73512 1.02798 0
M  V30 4239 H 380.478 -4.15452 3.20156 0
M  V30 4240 H 381.952 -5.20111 1.84901 0
M  V30 4241 H 382.429 -4.37667 0.36661 0
M  V30 4242 H 383.035 -3.78881 1.93207 0
M  V30 4243 N 381.35 -0.985608 -1.22978 0
M  V30 4244 C 382.597 -0.657386 -1.91532 0
M  V30 4245 C 382.925 0.809707 -1.76845 0
M  V30 4246 O 382.18 1.60021 -1.12658 0
M  V30 4247 C 382.479 -1.00014 -3.43121 0
M  V30 4248 C 382.145 -2.4583 -3.77993 0
M  V30 4249 C 380.807 -2.85679 -3.87222 0
M  V30 4250 C 383.159 -3.40378 -3.94705 0
M  V30 4251 C 380.487 -4.19081 -4.10595 0
M  V30 4252 C 382.839 -4.73429 -4.1958 0
M  V30 4253 C 381.503 -5.1303 -4.27032 0
M  V30 4254 H 380.773 -0.240555 -0.700867 0
M  V30 4255 H 383.42 -1.24044 -1.45895 0
M  V30 4256 H 381.725 -0.335072 -3.90365 0
M  V30 4257 H 383.422 -0.724322 -3.94404 0
M  V30 4258 H 380.012 -2.13939 -3.71387 0
M  V30 4259 H 384.196 -3.10766 -3.8696 0
M  V30 4260 H 379.452 -4.49362 -4.14589 0
M  V30 4261 H 383.626 -5.46644 -4.31455 0
M  V30 4262 H 381.253 -6.16418 -4.44896 0
M  V30 4263 N 382.828 1.3818 -0.7579 0
M  V30 4264 C 383.76 2.2901 -0.0932177 0
M  V30 4265 C 384.773 1.47958 0.679136 0
M  V30 4266 O 385.962 1.70773 0.519514 0
M  V30 4267 C 383.062 3.26953 0.89192 0
M  V30 4268 C 382.235 4.37045 0.176303 0
M  V30 4269 C 381.294 5.15148 1.07281 0
M  V30 4270 O 380.32 5.66616 0.541728 0
M  V30 4271 N 381.522 5.28542 2.40049 0
M  V30 4272 H 384.287 2.86694 -0.873303 0
M  V30 4273 H 381.848 1.50007 -0.609054 0
M  V30 4274 H 383.84 3.76083 1.49479 0
M  V30 4275 H 382.41 2.70136 1.57306 0
M  V30 4276 H 381.63 3.89493 -0.607328 0
M  V30 4277 H 382.918 5.07801 -0.318718 0
M  V30 4278 H 382.316 4.88285 2.85647 0
M  V30 4279 H 380.873 5.8103 2.95376 0
M  V30 4280 N 384.306 0.507319 1.49211 0
M  V30 4281 C 385.254 -0.281364 2.30892 0
M  V30 4282 C 386.248 -0.95687 1.39787 0
M  V30 4283 O 387.454 -0.883838 1.56807 0
M  V30 4284 H 383.829 -0.109597 0.743971 0
M  V30 4285 H 385.8 0.42744 2.95323 0
M  V30 4286 C 384.549 -1.32918 3.21291 0
M  V30 4287 H 383.872 -0.818799 3.91326 0
M  V30 4288 H 385.312 -1.85288 3.81372 0
M  V30 4289 C 383.771 -2.35074 2.41333 0
M  V30 4290 O 384.301 -3.4108 2.12197 0
M  V30 4291 N 382.507 -2.07705 2.03241 0
M  V30 4292 H 382.054 -1.2152 2.27136 0
M  V30 4293 H 382.012 -2.76283 1.50051 0
M  V30 4294 N 385.784 -1.5574 0.241426 0
M  V30 4295 C 386.717 -2.17168 -0.700935 0
M  V30 4296 C 387.695 -1.12206 -1.1768 0
M  V30 4297 O 388.879 -1.40565 -1.25593 0
M  V30 4298 C 386.006 -2.76796 -1.95196 0
M  V30 4299 C 385.052 -3.94764 -1.61442 0
M  V30 4300 S 385.885 -5.30613 -0.72182 0
M  V30 4301 C 387.041 -5.93691 -1.98197 0
M  V30 4302 H 387.274 -2.96761 -0.178882 0
M  V30 4303 H 384.807 -1.54378 0.0259299 0
M  V30 4304 H 386.765 -3.11787 -2.67019 0
M  V30 4305 H 385.426 -1.9716 -2.44514 0
M  V30 4306 H 384.619 -4.35057 -2.54443 0
M  V30 4307 H 384.221 -3.61022 -0.976672 0
M  V30 4308 H 386.513 -6.10874 -2.92983 0
M  V30 4309 H 387.456 -6.89258 -1.62262 0
M  V30 4310 H 387.864 -5.22709 -2.13156 0
M  V30 4311 N 387.262 0.0317525 -1.57568 0
M  V30 4312 C 388.21 1.05165 -2.07468 0
M  V30 4313 C 389.204 1.3761 -0.98792 0
M  V30 4314 O 390.41 1.36546 -1.17282 0
M  V30 4315 H 386.785 0.35666 -0.66204 0
M  V30 4316 H 388.756 0.604958 -2.92203 0
M  V30 4317 C 387.505 2.34488 -2.56731 0
M  V30 4318 H 386.828 2.10383 -3.39969 0
M  V30 4319 H 388.268 3.04203 -2.95358 0
M  V30 4320 C 386.727 3.03266 -1.46736 0
M  V30 4321 O 387.257 3.92988 -0.832069 0
M  V30 4322 N 385.463 2.6455 -1.20256 0
M  V30 4323 H 385.01 1.91674 -1.72102 0
M  V30 4324 H 384.968 3.10886 -0.468737 0
M  V30 4325 N 388.74 1.54641 0.303973 0
M  V30 4326 C 389.965 1.78092 1.06292 0
M  V30 4327 C 390.39 0.537342 1.80262 0
M  V30 4328 O 389.748 -0.511993 1.7392 0
M  V30 4329 C 389.796 2.98612 2.02147 0
M  V30 4330 O 388.9 2.71528 3.10397 0
M  V30 4331 H 388.241 0.589548 0.305497 0
M  V30 4332 H 390.771 2.01716 0.3423 0
M  V30 4333 H 390.781 3.265 2.44667 0
M  V30 4334 H 389.456 3.88785 1.47714 0
M  V30 4335 H 388.033 2.54648 2.72413 0
M  V30 4336 N 390.218 -0.567019 1.47046 0
M  V30 4337 C 391.165 -1.67489 1.58796 0
M  V30 4338 C 392.135 -1.60399 0.43144 0
M  V30 4339 O 393.32 -1.79378 0.650233 0
M  V30 4340 C 390.46 -3.05821 1.59899 0
M  V30 4341 C 389.573 -3.2342 2.86397 0
M  V30 4342 C 388.708 -4.52093 2.789 0
M  V30 4343 C 387.747 -4.6309 4.00267 0
M  V30 4344 N 386.884 -5.83106 3.91064 0
M  V30 4345 H 391.724 -1.56785 2.53422 0
M  V30 4346 H 389.261 -0.763896 1.2571 0
M  V30 4347 H 391.219 -3.8591 1.58522 0
M  V30 4348 H 389.849 -3.15384 0.687929 0
M  V30 4349 H 388.901 -2.3683 2.97684 0
M  V30 4350 H 390.213 -3.27412 3.76301 0
M  V30 4351 H 389.367 -5.4043 2.75718 0
M  V30 4352 H 388.106 -4.50565 1.86662 0
M  V30 4353 H 387.111 -3.73168 4.03765 0
M  V30 4354 H 388.336 -4.66386 4.93621 0
M  V30 4355 H 386.282 -5.82546 3.01623 0
M  V30 4356 H 386.199 -5.88434 4.74638 0
M  V30 4357 H 387.467 -6.73831 3.91882 0
M  V30 4358 N 391.696 -1.35014 -0.812953 0
M  V30 4359 C 393.112 -1.14914 -1.10757 0
M  V30 4360 C 393.312 0.0426818 -2.01455 0
M  V30 4361 O 392.368 0.715212 -2.42159 0
M  V30 4362 C 393.681 -2.44911 -1.74468 0
M  V30 4363 C 395.229 -2.5106 -1.86917 0
M  V30 4364 C 395.704 -3.81085 -2.54044 0
M  V30 4365 N 397.195 -3.82301 -2.61535 0
M  V30 4366 C 397.93 -4.79634 -3.14227 0
M  V30 4367 N 397.426 -5.87353 -3.67407 0
M  V30 4368 N 399.219 -4.67078 -3.12721 0
M  V30 4369 H 391.37 -2.1136 -0.20989 0
M  V30 4370 H 393.633 -0.935128 -0.155692 0
M  V30 4371 H 393.339 -3.32267 -1.15289 0
M  V30 4372 H 393.213 -2.58989 -2.74234 0
M  V30 4373 H 395.6 -1.64137 -2.45241 0
M  V30 4374 H 395.681 -2.40901 -0.860242 0
M  V30 4375 H 395.325 -4.68402 -1.96372 0
M  V30 4376 H 395.255 -3.88529 -3.55461 0
M  V30 4377 H 397.746 -3.04465 -2.23851 0
M  V30 4378 H 398.059 -6.57624 -4.05894 0
M  V30 4379 H 396.404 -5.91054 -3.65623 0
M  V30 4380 H 399.595 -3.82067 -2.70449 0
M  V30 4381 H 399.768 -5.43098 -3.53481 0
M  V30 4382 N 393.175 1.03435 -1.18907 0
M  V30 4383 C 394.122 2.11591 -0.921837 0
M  V30 4384 C 395.092 1.65499 0.141226 0
M  V30 4385 O 396.277 1.908 0.000242829 0
M  V30 4386 C 393.417 3.42012 -0.460616 0
M  V30 4387 C 392.53 4.01682 -1.58982 0
M  V30 4388 C 391.665 5.20091 -1.08069 0
M  V30 4389 C 390.704 5.71805 -2.18416 0
M  V30 4390 N 389.841 6.81494 -1.68849 0
M  V30 4391 H 394.681 2.33787 -1.8479 0
M  V30 4392 H 392.218 1.1467 -0.921373 0
M  V30 4393 H 394.176 4.16834 -0.174642 0
M  V30 4394 H 392.806 3.19944 0.428467 0
M  V30 4395 H 391.858 3.24127 -1.99113 0
M  V30 4396 H 393.17 4.36084 -2.4214 0
M  V30 4397 H 392.324 6.02051 -0.749615 0
M  V30 4398 H 391.063 4.87209 -0.218771 0
M  V30 4399 H 390.068 4.88461 -2.5236 0
M  V30 4400 H 391.293 6.06728 -3.05054 0
M  V30 4401 H 389.239 6.50475 -0.849572 0
M  V30 4402 H 389.156 7.14994 -2.45601 0
M  V30 4403 H 390.424 7.67063 -1.38689 0
M  V30 4404 N 394.653 0.992116 1.22453 0
M  V30 4405 C 395.616 0.546883 2.2258 0
M  V30 4406 C 396.616 -0.369829 1.56489 0
M  V30 4407 O 397.806 -0.161896 1.73446 0
M  V30 4408 C 394.938 -0.204659 3.40285 0
M  V30 4409 H 396.131 1.43234 2.63484 0
M  V30 4410 H 393.684 0.779239 1.3549 0
M  V30 4411 H 394.419 -1.10614 3.04853 0
M  V30 4412 H 394.204 0.45354 3.89468 0
M  V30 4413 H 395.694 -0.504358 4.14543 0
M  V30 4414 N 396.131 -1.37776 0.765217 0
M  V30 4415 C 397.041 -2.34135 0.147666 0
M  V30 4416 C 398.057 -1.59854 -0.687215 0
M  V30 4417 O 399.233 -1.91983 -0.608659 0
M  V30 4418 C 396.298 -3.3901 -0.72617 0
M  V30 4419 C 395.359 -4.2912 0.124417 0
M  V30 4420 C 394.592 -5.28986 -0.707807 0
M  V30 4421 O 394.815 -5.36205 -1.94525 0
M  V30 4422 O 393.749 -6.01779 -0.12046 0
M  V30 4423 H 397.575 -2.88664 0.943758 0
M  V30 4424 H 395.16 -1.39824 0.526277 0
M  V30 4425 H 397.042 -4.03195 -1.22524 0
M  V30 4426 H 395.717 -2.86819 -1.50056 0
M  V30 4427 H 394.624 -3.68057 0.669696 0
M  V30 4428 H 395.957 -4.84598 0.861736 0
M  V30 4429 N 397.609 -0.515225 -1.4894 0
M  V30 4430 C 398.837 0.0206034 -2.0689 0
M  V30 4431 C 399.252 1.29514 -1.37374 0
M  V30 4432 O 398.609 1.76698 -0.456529 0
M  V30 4433 C 398.66 0.26351 -3.60538 0
M  V30 4434 O 398.381 -0.960517 -4.27441 0
M  V30 4435 C 399.882 0.841383 -4.35242 0
M  V30 4436 H 397.102 -0.0268608 -0.670462 0
M  V30 4437 H 399.646 -0.716651 -1.91532 0
M  V30 4438 H 397.801 0.950777 -3.75552 0
M  V30 4439 H 398.215 -0.73212 -5.19365 0
M  V30 4440 H 399.689 0.96085 -5.43573 0
M  V30 4441 H 400.166 1.8427 -3.98674 0
M  V30 4442 H 400.772 0.191143 -4.2487 0
M  V30 4443 N 399.087 1.5561 -0.249682 0
M  V30 4444 C 400.333 2.00044 0.367952 0
M  V30 4445 C 400.688 1.1349 1.55363 0
M  V30 4446 O 399.981 0.191079 1.90645 0
M  V30 4447 C 400.175 3.4775 0.824887 0
M  V30 4448 C 400.004 4.48596 -0.314973 0
M  V30 4449 C 398.774 4.99077 -0.790555 0
M  V30 4450 C 400.972 5.0144 -1.14291 0
M  V30 4451 N 398.954 5.83675 -1.90254 0
M  V30 4452 C 400.325 5.83236 -2.10322 0
M  V30 4453 C 402.38 4.83736 -1.17916 0
M  V30 4454 C 401.083 6.49217 -3.09692 0
M  V30 4455 C 403.109 5.50497 -2.16117 0
M  V30 4456 C 402.471 6.32084 -3.10884 0
M  V30 4457 H 398.57 0.775512 0.100522 0
M  V30 4458 H 401.154 1.91193 -0.367896 0
M  V30 4459 H 399.325 3.56994 1.53002 0
M  V30 4460 H 401.057 3.79056 1.4177 0
M  V30 4461 H 397.812 4.72119 -0.374218 0
M  V30 4462 H 398.236 6.30671 -2.46137 0
M  V30 4463 H 402.878 4.20286 -0.460352 0
M  V30 4464 H 400.596 7.11832 -3.8252 0
M  V30 4465 H 404.182 5.38752 -2.19631 0
M  V30 4466 H 403.062 6.82832 -3.8563 0
M  V30 4467 N 400.565 -0.0233959 1.57583 0
M  V30 4468 C 401.512 -1.02224 2.06927 0
M  V30 4469 C 402.482 -1.35575 0.959617 0
M  V30 4470 O 403.667 -1.45815 1.23055 0
M  V30 4471 C 400.807 -2.31636 2.5581 0
M  V30 4472 C 399.92 -2.04394 3.80588 0
M  V30 4473 C 399.055 -3.27717 4.18061 0
M  V30 4474 C 398.094 -2.96056 5.3574 0
M  V30 4475 N 397.231 -4.11847 5.68618 0
M  V30 4476 H 402.071 -0.594504 2.9201 0
M  V30 4477 H 399.608 -0.281921 1.44373 0
M  V30 4478 H 401.566 -3.07258 2.82221 0
M  V30 4479 H 400.196 -2.72122 1.73636 0
M  V30 4480 H 399.248 -1.19244 3.61227 0
M  V30 4481 H 400.56 -1.77042 4.66323 0
M  V30 4482 H 399.714 -4.11702 4.4563 0
M  V30 4483 H 398.453 -3.58188 3.30988 0
M  V30 4484 H 397.458 -2.10474 5.07918 0
M  V30 4485 H 398.683 -2.66857 6.24471 0
M  V30 4486 H 396.629 -4.42258 4.84504 0
M  V30 4487 H 396.546 -3.87938 6.48876 0
M  V30 4488 H 397.814 -4.96689 6.00766 0
M  V30 4489 N 402.043 -1.548 -0.295768 0
M  V30 4490 C 403.459 -1.4613 -0.641722 0
M  V30 4491 C 403.659 -0.656771 -1.90496 0
M  V30 4492 O 402.715 -0.166547 -2.5195 0
M  V30 4493 C 404.028 -2.90141 -0.789852 0
M  V30 4494 C 405.576 -3.00216 -0.885396 0
M  V30 4495 C 406.051 -4.45434 -1.06548 0
M  V30 4496 N 407.542 -4.49166 -1.13156 0
M  V30 4497 C 408.277 -5.58717 -1.28929 0
M  V30 4498 N 407.773 -6.78182 -1.41567 0
M  V30 4499 N 409.566 -5.46415 -1.31859 0
M  V30 4500 H 401.717 -2.05574 0.534147 0
M  V30 4501 H 403.98 -0.931259 0.177372 0
M  V30 4502 H 403.686 -3.51635 0.0675598 0
M  V30 4503 H 403.56 -3.37859 -1.67724 0
M  V30 4504 H 405.947 -2.38833 -1.73329 0
M  V30 4505 H 406.028 -2.55787 0.0261185 0
M  V30 4506 H 405.672 -5.07413 -0.222335 0
M  V30 4507 H 405.602 -4.87499 -1.9913 0
M  V30 4508 H 408.093 -3.631 -1.04721 0
M  V30 4509 H 408.406 -7.57428 -1.53372 0
M  V30 4510 H 406.751 -6.81037 -1.38613 0
M  V30 4511 H 409.942 -4.5203 -1.21601 0
M  V30 4512 H 410.115 -6.31841 -1.43808 0
M  V30 4513 N 403.521 0.559213 -1.47345 0
M  V30 4514 C 404.469 1.68747 -1.60085 0
M  V30 4515 C 405.463 1.628 -0.46825 0
M  V30 4516 O 406.669 1.68009 -0.645977 0
M  V30 4517 H 403.044 0.558329 -0.503759 0
M  V30 4518 H 405.015 1.55138 -2.54902 0
M  V30 4519 C 403.764 3.07103 -1.63042 0
M  V30 4520 H 403.087 3.12361 -2.49541 0
M  V30 4521 H 404.527 3.85743 -1.76006 0
M  V30 4522 C 402.986 3.34935 -0.363357 0
M  V30 4523 O 403.516 3.98102 0.536416 0
M  V30 4524 N 401.722 2.89574 -0.244 0
M  V30 4525 H 401.269 2.38348 -0.977133 0
M  V30 4526 H 401.227 3.08566 0.602836 0
M  V30 4527 N 404.999 1.35443 0.805782 0
M  V30 4528 C 406.415 1.15499 1.10146 0
M  V30 4529 C 406.615 -0.0319975 2.01475 0
M  V30 4530 O 405.671 -0.70236 2.42535 0
M  V30 4531 C 406.984 2.45833 1.73166 0
M  V30 4532 C 408.532 2.52047 1.85583 0
M  V30 4533 C 409.007 3.82427 2.52019 0
M  V30 4534 N 410.498 3.83682 2.59504 0
M  V30 4535 C 411.233 4.81294 3.11679 0
M  V30 4536 N 410.729 5.89294 3.64287 0
M  V30 4537 N 412.522 4.6873 3.1024 0
M  V30 4538 H 404.673 2.11469 0.198678 0
M  V30 4539 H 406.936 0.93594 0.150731 0
M  V30 4540 H 406.642 3.32874 1.13526 0
M  V30 4541 H 406.516 2.6044 2.72857 0
M  V30 4542 H 408.903 1.65435 2.44367 0
M  V30 4543 H 408.984 2.41354 0.847455 0
M  V30 4544 H 408.628 4.69437 1.93885 0
M  V30 4545 H 408.558 3.90409 3.53395 0
M  V30 4546 H 411.049 3.05648 2.22234 0
M  V30 4547 H 411.362 6.59768 4.02401 0
M  V30 4548 H 409.707 5.92985 3.62483 0
M  V30 4549 H 412.898 3.83496 2.68419 0
M  V30 4550 H 413.071 5.44965 3.50596 0
M  V30 4551 N 406.477 -1.02803 1.19454 0
M  V30 4552 C 407.893 -1.28473 0.946937 0
M  V30 4553 C 408.093 -1.97881 -0.380202 0
M  V30 4554 O 407.149 -2.26719 -1.11151 0
M  V30 4555 C 408.462 -2.13099 2.12154 0
M  V30 4556 C 410.01 -2.26404 2.16126 0
M  V30 4557 C 410.485 -3.14402 3.33039 0
M  V30 4558 N 411.976 -3.21991 3.32981 0
M  V30 4559 C 412.711 -3.90272 4.20089 0
M  V30 4560 N 412.207 -4.60777 5.17355 0
M  V30 4561 N 414 -3.8668 4.07964 0
M  V30 4562 H 406.151 -0.561665 2.04839 0
M  V30 4563 H 408.414 -0.310438 0.89573 0
M  V30 4564 H 408.12 -1.69422 3.08203 0
M  V30 4565 H 407.994 -3.13813 2.09287 0
M  V30 4566 H 410.381 -2.69311 1.20647 0
M  V30 4567 H 410.462 -1.25237 2.23045 0
M  V30 4568 H 410.106 -2.72204 4.28798 0
M  V30 4569 H 410.036 -4.1563 3.23356 0
M  V30 4570 H 412.527 -2.71778 2.62574 0
M  V30 4571 H 412.84 -5.10513 5.80169 0
M  V30 4572 H 411.185 -4.5964 5.21302 0
M  V30 4573 H 414.376 -3.30739 3.31254 0
M  V30 4574 H 414.549 -4.39621 4.76064 0
M  V30 4575 N 407.956 -0.998596 -1.21925 0
M  V30 4576 C 408.888 -0.511879 -2.23411 0
M  V30 4577 C 409.901 0.396094 -1.57908 0
M  V30 4578 O 411.09 0.197316 -1.77406 0
M  V30 4579 C 408.19 0.276802 -3.37768 0
M  V30 4580 C 407.363 -0.628687 -4.32858 0
M  V30 4581 C 406.422 0.109272 -5.26087 0
M  V30 4582 O 405.448 -0.507237 -5.66935 0
M  V30 4583 N 406.65 1.38983 -5.63617 0
M  V30 4584 H 409.415 -1.38457 -2.658 0
M  V30 4585 H 406.976 -0.873981 -1.36283 0
M  V30 4586 H 408.968 0.77928 -3.97126 0
M  V30 4587 H 407.538 1.05063 -2.94415 0
M  V30 4588 H 406.758 -1.31175 -3.71735 0
M  V30 4589 H 408.046 -1.24514 -4.93329 0
M  V30 4590 H 407.444 1.91194 -5.32411 0
M  V30 4591 H 406.001 1.83739 -6.25367 0
M  V30 4592 N 409.434 1.37368 -0.772513 0
M  V30 4593 C 410.364 2.32856 -0.173304 0
M  V30 4594 C 411.345 1.55818 0.682262 0
M  V30 4595 O 412.53 1.84052 0.619566 0
M  V30 4596 C 409.66 3.40048 0.706007 0
M  V30 4597 C 408.614 4.27973 -0.0483144 0
M  V30 4598 C 407.94 5.26184 0.950491 0
M  V30 4599 C 409.24 5.07665 -1.22776 0
M  V30 4600 H 410.934 2.83217 -0.971002 0
M  V30 4601 H 408.48 1.3617 -0.468377 0
M  V30 4602 H 410.433 4.05827 1.13501 0
M  V30 4603 H 409.157 2.88214 1.53623 0
M  V30 4604 H 407.816 3.63726 -0.458107 0
M  V30 4605 H 407.464 4.7063 1.77529 0
M  V30 4606 H 407.164 5.85872 0.450314 0
M  V30 4607 H 408.688 5.94838 1.37842 0
M  V30 4608 H 410.102 5.66578 -0.875366 0
M  V30 4609 H 408.499 5.76681 -1.66007 0
M  V30 4610 H 409.569 4.40294 -2.03149 0
M  V30 4611 N 410.912 0.523116 1.48665 0
M  V30 4612 C 411.875 -0.232592 2.28017 0
M  V30 4613 C 412.875 -0.874021 1.34972 0
M  V30 4614 O 414.065 -0.735132 1.57929 0
M  V30 4615 C 411.197 -1.33586 3.13636 0
M  V30 4616 H 412.39 0.464008 2.96289 0
M  V30 4617 H 409.943 0.278816 1.53793 0
M  V30 4618 H 410.678 -2.06593 2.4998 0
M  V30 4619 H 410.463 -0.881125 3.82071 0
M  V30 4620 H 411.953 -1.86759 3.73511 0
M  V30 4621 N 412.39 -1.55475 0.257931 0
M  V30 4622 C 413.637 -1.99207 -0.363728 0
M  V30 4623 C 413.965 -1.1462 -1.57139 0
M  V30 4624 O 413.22 -0.199653 -1.94679 0
M  V30 4625 C 413.519 -3.48183 -0.806433 0
M  V30 4626 C 413.185 -4.49936 0.294684 0
M  V30 4627 C 411.847 -4.77481 0.597076 0
M  V30 4628 C 414.199 -5.10769 1.03751 0
M  V30 4629 C 411.527 -5.63132 1.64618 0
M  V30 4630 C 413.879 -5.97558 2.07622 0
M  V30 4631 C 412.543 -6.23432 2.38514 0
M  V30 4632 H 411.813 -0.728949 -0.133097 0
M  V30 4633 H 414.46 -1.8793 0.368059 0
M  V30 4634 H 412.765 -3.56848 -1.61761 0
M  V30 4635 H 414.462 -3.79415 -1.29789 0
M  V30 4636 H 411.052 -4.28572 0.0488649 0
M  V30 4637 H 415.236 -4.89527 0.817149 0
M  V30 4638 H 410.492 -5.8143 1.89074 0
M  V30 4639 H 414.666 -6.43735 2.65666 0
M  V30 4640 H 412.293 -6.89594 3.19943 0
M  V30 4641 N 413.868 0.0150385 -1.57593 0
M  V30 4642 C 415.093 0.718067 -1.94573 0
M  V30 4643 C 415.518 1.6734 -0.859005 0
M  V30 4644 O 414.876 1.80362 0.184147 0
M  V30 4645 C 414.924 1.43918 -3.30636 0
M  V30 4646 O 414.028 2.55299 -3.23876 0
M  V30 4647 H 413.369 0.192125 -0.635597 0
M  V30 4648 H 415.899 -0.0336708 -2.04572 0
M  V30 4649 H 415.909 1.80598 -3.65853 0
M  V30 4650 H 414.584 0.738619 -4.09289 0
M  V30 4651 H 413.161 2.21058 -3.00312 0
M  V30 4652 N 415.346 1.54954 0.287554 0
M  V30 4653 C 416.574 1.78881 1.03967 0
M  V30 4654 C 416.989 0.554894 1.80462 0
M  V30 4655 O 416.346 -0.475676 1.76192 0
M  V30 4656 C 416.397 3.00488 2.0097 0
M  V30 4657 O 416.118 4.19113 1.27577 0
M  V30 4658 C 417.619 3.36907 2.88112 0
M  V30 4659 H 414.839 0.596259 0.307761 0
M  V30 4660 H 417.383 2.01937 0.322749 0
M  V30 4661 H 415.538 2.79601 2.68145 0
M  V30 4662 H 415.952 4.87765 1.92835 0
M  V30 4663 H 417.426 4.25205 3.52001 0
M  V30 4664 H 417.903 2.55659 3.57121 0
M  V30 4665 H 418.509 3.60001 2.26449 0
M  V30 4666 N 416.824 -0.551391 1.4764 0
M  V30 4667 C 418.07 -1.31024 1.54792 0
M  V30 4668 C 418.403 -1.9304 0.211967 0
M  V30 4669 O 417.678 -1.78175 -0.77999 0
M  V30 4670 C 417.961 -2.41593 2.67029 0
M  V30 4671 C 417.814 -1.84408 4.10261 0
M  V30 4672 C 419.133 -3.43488 2.75143 0
M  V30 4673 H 416.252 -0.475031 0.563485 0
M  V30 4674 H 418.894 -0.616454 1.79722 0
M  V30 4675 H 417.044 -3.00772 2.45904 0
M  V30 4676 H 418.716 -1.29445 4.42766 0
M  V30 4677 H 416.959 -1.15051 4.18265 0
M  V30 4678 H 417.63 -2.64367 4.84576 0
M  V30 4679 H 420.106 -2.94236 2.94218 0
M  V30 4680 H 418.982 -4.18274 3.55441 0
M  V30 4681 H 419.243 -4.02703 1.82435 0
M  V30 4682 N 418.302 -1.35869 -0.798587 0
M  V30 4683 C 419.55 -1.29332 -1.55298 0
M  V30 4684 C 419.871 0.129729 -1.94568 0
M  V30 4685 O 419.141 1.06796 -1.6423 0
M  V30 4686 H 417.721 -0.475737 -0.57592 0
M  V30 4687 H 420.383 -1.70062 -0.952093 0
M  V30 4688 H 419.479 -1.91458 -2.46476 0
M  V30 4689 N 419.78 1.02168 -1.19998 0
M  V30 4690 C 421.008 1.79296 -1.03249 0
M  V30 4691 C 421.423 1.84103 0.418502 0
M  V30 4692 O 420.78 1.29031 1.29063 0
M  V30 4693 C 420.831 3.24007 -1.60319 0
M  V30 4694 O 420.552 3.19512 -2.99739 0
M  V30 4695 C 422.053 4.17704 -1.48453 0
M  V30 4696 H 419.273 0.564016 -0.363493 0
M  V30 4697 H 421.817 1.28639 -1.58973 0
M  V30 4698 H 419.972 3.7183 -1.08727 0
M  V30 4699 H 420.386 4.10306 -3.26725 0
M  V30 4700 H 421.86 5.17104 -1.93153 0
M  V30 4701 H 422.337 4.37029 -0.436193 0
M  V30 4702 H 422.943 3.7576 -1.99211 0
M  V30 4703 N 421.258 1.00505 1.21394 0
M  V30 4704 C 422.669 0.721082 1.72213 0
M  V30 4705 C 423.02 -0.761263 1.80829 0
M  V30 4706 O 422.145 -1.59464 1.46288 0
M  V30 4707 C 422.74 1.30228 3.12772 0
M  V30 4708 C 421.299 1.06743 3.60947 0
M  V30 4709 C 420.446 1.41507 2.38477 0
M  V30 4710 H 423.397 1.17594 1.06571 0
M  V30 4711 H 423.418 0.686955 3.74247 0
M  V30 4712 H 422.93 2.38115 3.06468 0
M  V30 4713 H 421.031 0.00572162 3.726 0
M  V30 4714 H 421.144 1.73936 4.46411 0
M  V30 4715 H 419.508 0.833852 2.40664 0
M  V30 4716 H 420.291 2.50424 2.34824 0
M  V30 4717 N 422.737 -1.36956 0.779787 0
M  V30 4718 C 424.014 -1.93697 0.272156 0
M  V30 4719 C 424.394 -1.71267 -1.23413 0
M  V30 4720 O 423.742 -1.06607 -2.02107 0
M  V30 4721 C 423.952 -3.42812 0.654291 0
M  V30 4722 C 425.3 -4.19921 0.628602 0
M  V30 4723 O 426.324 -3.51209 0.594172 0
M  V30 4724 O 425.183 -5.42465 0.662864 0
M  V30 4725 H 422.277 -0.824447 0.0649286 0
M  V30 4726 H 424.823 -1.46196 0.861682 0
M  V30 4727 H 423.595 -3.52754 1.69353 0
M  V30 4728 H 423.218 -3.97582 0.0381369 0
M  V30 4729 N 424.215 -0.530993 -1.48385 0
M  V30 4730 C 425.445 -0.00133928 -2.066 0
M  V30 4731 C 425.853 1.28599 -1.38777 0
M  V30 4732 O 425.196 1.77599 -0.469495 0
M  V30 4733 C 425.258 0.292137 -3.58311 0
M  V30 4734 C 424.922 -0.901864 -4.48013 0
M  V30 4735 C 425.919 -1.80053 -4.87726 0
M  V30 4736 C 423.604 -1.10915 -4.89901 0
M  V30 4737 C 425.598 -2.89038 -5.68098 0
M  V30 4738 C 423.285 -2.20213 -5.70043 0
M  V30 4739 C 424.283 -3.09107 -6.0905 0
M  V30 4740 O 423.971 -4.16514 -6.87583 0
M  V30 4741 H 423.703 -0.0308475 -0.675296 0
M  V30 4742 H 426.257 -0.736335 -1.91748 0
M  V30 4743 H 424.487 1.08112 -3.7128 0
M  V30 4744 H 426.176 0.763994 -3.98645 0
M  V30 4745 H 426.942 -1.65234 -4.55986 0
M  V30 4746 H 422.821 -0.426498 -4.59023 0
M  V30 4747 H 426.365 -3.58451 -5.98464 0
M  V30 4748 H 422.262 -2.35016 -6.01197 0
M  V30 4749 H 423.03 -4.14237 -7.05939 0
M  V30 4750 N 425.693 1.55336 -0.266172 0
M  V30 4751 C 426.942 1.98574 0.353749 0
M  V30 4752 C 427.255 1.15789 1.57646 0
M  V30 4753 O 428.461 1.49129 2.26876 0
M  V30 4754 C 426.917 3.53403 0.680747 0
M  V30 4755 C 426.525 4.44953 -0.52165 0
M  V30 4756 C 428.269 4.05251 1.26379 0
M  V30 4757 C 426.176 5.91156 -0.169736 0
M  V30 4758 H 425.106 0.741643 0.135949 0
M  V30 4759 H 427.757 1.79743 -0.369421 0
M  V30 4760 H 426.139 3.68001 1.46257 0
M  V30 4761 H 427.313 4.42121 -1.29869 0
M  V30 4762 H 425.628 4.03691 -1.02093 0
M  V30 4763 H 428.225 5.12021 1.54074 0
M  V30 4764 H 428.568 3.53749 2.19471 0
M  V30 4765 H 429.101 3.94057 0.544447 0
M  V30 4766 H 425.84 6.46736 -1.0683 0
M  V30 4767 H 425.36 5.97079 0.570717 0
M  V30 4768 H 427.039 6.4655 0.241245 0
M  V30 4769 N 427.171 -0.0066808 1.57599 0
M  V30 4770 C 428.134 -0.985035 2.06953 0
M  V30 4771 C 429.134 -1.27663 0.977687 0
M  V30 4772 O 430.324 -1.22293 1.24057 0
M  V30 4773 C 427.456 -2.3118 2.50536 0
M  V30 4774 H 428.649 -0.558255 2.94658 0
M  V30 4775 H 426.202 -0.254011 1.54222 0
M  V30 4776 H 426.937 -2.78561 1.66054 0
M  V30 4777 H 426.722 -2.11338 3.3027 0
M  V30 4778 H 428.212 -3.01377 2.8907 0
M  V30 4779 N 428.649 -1.55105 -0.279332 0
M  V30 4780 C 430.06 -1.66186 -0.850832 0
M  V30 4781 C 430.411 -0.584707 -1.87285 0
M  V30 4782 O 429.536 0.274919 -2.14647 0
M  V30 4783 C 430.131 -3.01264 -1.55001 0
M  V30 4784 C 428.69 -3.14394 -2.06963 0
M  V30 4785 C 427.837 -2.61959 -0.909536 0
M  V30 4786 H 430.788 -1.58602 -0.0558235 0
M  V30 4787 H 430.809 -2.93899 -2.41669 0
M  V30 4788 H 430.321 -3.7964 -0.805931 0
M  V30 4789 H 428.422 -2.4078 -2.84352 0
M  V30 4790 H 428.535 -4.20867 -2.28928 0
M  V30 4791 H 426.899 -2.18957 -1.30116 0
M  V30 4792 H 427.682 -3.42833 -0.179062 0
M  V30 4793 N 430.127 0.543554 -1.4793 0
M  V30 4794 C 431.037 1.67657 -1.64098 0
M  V30 4795 C 432.053 1.65934 -0.523622 0
M  V30 4796 O 433.229 1.85133 -0.792943 0
M  V30 4797 C 430.294 3.04146 -1.66421 0
M  V30 4798 C 429.355 3.16831 -2.89684 0
M  V30 4799 C 428.588 4.46809 -2.91886 0
M  V30 4800 O 428.811 5.33095 -2.02895 0
M  V30 4801 O 427.745 4.63573 -3.83906 0
M  V30 4802 H 431.571 1.56957 -2.59997 0
M  V30 4803 H 429.156 0.715116 -1.31173 0
M  V30 4804 H 431.038 3.85346 -1.70548 0
M  V30 4805 H 429.713 3.152 -0.736923 0
M  V30 4806 H 428.62 2.34977 -2.91095 0
M  V30 4807 H 429.953 3.10687 -3.81752 0
M  V30 4808 N 431.605 1.3629 0.791371 0
M  V30 4809 C 432.851 1.30605 1.55146 0
M  V30 4810 C 433.184 -0.115042 1.93859 0
M  V30 4811 O 432.459 -1.06798 1.62556 0
M  V30 4812 C 432.742 2.22692 2.82985 0
M  V30 4813 C 432.595 3.73489 2.50651 0
M  V30 4814 C 433.914 2.13588 3.84796 0
M  V30 4815 H 431.033 0.475761 0.562868 0
M  V30 4816 H 433.675 1.66825 0.909358 0
M  V30 4817 H 431.825 1.91933 3.37778 0
M  V30 4818 H 433.497 4.14758 2.01924 0
M  V30 4819 H 431.74 3.93021 1.83622 0
M  V30 4820 H 432.411 4.3333 3.41949 0
M  V30 4821 H 434.887 2.40659 3.39445 0
M  V30 4822 H 433.763 2.80195 4.71998 0
M  V30 4823 H 434.024 1.12256 4.27611 0
M  V30 4824 N 433.083 -1.0153 1.20538 0
M  V30 4825 C 434.33 -1.75149 1.01633 0
M  V30 4826 C 434.658 -1.89189 -0.451399 0
M  V30 4827 O 433.913 -1.41551 -1.35136 0
M  V30 4828 C 434.212 -3.17213 1.64654 0
M  V30 4829 C 433.878 -3.23146 3.14464 0
M  V30 4830 C 432.54 -3.24472 3.55347 0
M  V30 4831 C 434.892 -3.21207 4.10458 0
M  V30 4832 C 432.22 -3.21532 4.90748 0
M  V30 4833 C 434.572 -3.19808 5.45807 0
M  V30 4834 C 433.236 -3.19439 5.86102 0
M  V30 4835 H 432.506 -0.640914 0.3719 0
M  V30 4836 H 435.153 -1.19071 1.49981 0
M  V30 4837 H 433.458 -3.76457 1.08571 0
M  V30 4838 H 435.155 -3.72871 1.4754 0
M  V30 4839 H 431.745 -3.2285 2.81897 0
M  V30 4840 H 435.929 -3.19351 3.79906 0
M  V30 4841 H 431.185 -3.19578 5.21229 0
M  V30 4842 H 435.359 -3.1726 6.19935 0
M  V30 4843 H 432.986 -3.16915 6.90991 0
M  V30 4844 N 434.561 -1.01147 -1.20859 0
M  V30 4845 C 435.494 -0.522108 -2.22147 0
M  V30 4846 C 436.472 0.427686 -1.56874 0
M  V30 4847 O 437.656 0.34889 -1.85243 0
M  V30 4848 C 434.783 0.240819 -3.37843 0
M  V30 4849 C 433.829 -0.657752 -4.21398 0
M  V30 4850 S 434.662 -2.12393 -4.91578 0
M  V30 4851 C 435.818 -1.37102 -6.10699 0
M  V30 4852 H 436.051 -1.38035 -2.63313 0
M  V30 4853 H 433.584 -0.819941 -1.30829 0
M  V30 4854 H 435.542 0.674908 -4.04914 0
M  V30 4855 H 434.203 1.07457 -2.95147 0
M  V30 4856 H 433.396 -0.0697456 -5.03952 0
M  V30 4857 H 432.998 -1.0294 -3.59555 0
M  V30 4858 H 435.29 -0.648315 -6.74391 0
M  V30 4859 H 436.233 -2.17252 -6.73949 0
M  V30 4860 H 436.641 -0.876154 -5.57659 0
M  V30 4861 N 436.039 1.36541 -0.78704 0
M  V30 4862 C 436.971 2.28761 -0.141773 0
M  V30 4863 C 437.984 1.49365 0.647599 0
M  V30 4864 O 439.173 1.71836 0.483173 0
M  V30 4865 C 436.273 3.28771 0.822368 0
M  V30 4866 C 435.446 4.3732 0.0835594 0
M  V30 4867 C 434.505 5.17307 0.963296 0
M  V30 4868 O 433.531 5.67638 0.421419 0
M  V30 4869 N 434.733 5.33515 2.28784 0
M  V30 4870 H 437.498 2.84777 -0.933919 0
M  V30 4871 H 435.059 1.48682 -0.640735 0
M  V30 4872 H 437.051 3.79169 1.41468 0
M  V30 4873 H 435.621 2.73412 1.5154 0
M  V30 4874 H 434.841 3.88118 -0.689809 0
M  V30 4875 H 436.129 5.0701 -0.426358 0
M  V30 4876 H 435.527 4.94234 2.75226 0
M  V30 4877 H 434.084 5.87165 2.82985 0
M  V30 4878 N 437.518 0.538854 1.48102 0
M  V30 4879 C 438.746 0.0123136 2.06896 0
M  V30 4880 C 439.161 -1.27312 1.39417 0
M  V30 4881 O 438.518 -1.75949 0.484582 0
M  V30 4882 C 438.569 -0.206118 3.60912 0
M  V30 4883 O 438.29 1.0284 4.25859 0
M  V30 4884 C 439.791 -0.772033 4.36526 0
M  V30 4885 H 437.011 0.0375239 0.66995 0
M  V30 4886 H 439.555 0.747032 1.90367 0
M  V30 4887 H 437.71 -0.89091 3.77017 0
M  V30 4888 H 438.124 0.814654 5.18135 0
M  V30 4889 H 439.598 -0.874251 5.45033 0
M  V30 4890 H 440.075 -1.77904 4.01555 0
M  V30 4891 H 440.681 -0.123526 4.25121 0
M  V30 4892 N 438.996 -1.55193 0.274407 0
M  V30 4893 C 440.244 -1.99187 -0.341902 0
M  V30 4894 C 440.565 -1.16422 -1.56431 0
M  V30 4895 O 439.835 -0.253573 -1.94252 0
M  V30 4896 H 438.415 -0.735721 -0.129317 0
M  V30 4897 H 441.077 -1.91168 0.379578 0
M  V30 4898 H 440.173 -3.05629 -0.632253 0
M  V30 4899 N 440.474 -0.00167713 -1.576 0
M  V30 4900 C 441.704 0.692754 -1.94639 0
M  V30 4901 C 442.112 1.67744 -0.87513 0
M  V30 4902 O 441.455 1.8305 0.154382 0
M  V30 4903 C 441.517 1.47881 -3.27676 0
M  V30 4904 C 441.181 0.655518 -4.52274 0
M  V30 4905 C 442.178 -0.0575214 -5.19868 0
M  V30 4906 C 439.863 0.600994 -4.98692 0
M  V30 4907 C 441.857 -0.814052 -6.3218 0
M  V30 4908 C 439.544 -0.15926 -6.10892 0
M  V30 4909 C 440.542 -0.865515 -6.77494 0
M  V30 4910 O 440.23 -1.61336 -7.87544 0
M  V30 4911 H 439.962 0.197792 -0.646417 0
M  V30 4912 H 442.516 -0.049423 -2.05341 0
M  V30 4913 H 440.746 2.2655 -3.13388 0
M  V30 4914 H 442.435 2.05874 -3.49816 0
M  V30 4915 H 443.201 -0.0245611 -4.84994 0
M  V30 4916 H 439.08 1.14025 -4.46676 0
M  V30 4917 H 442.624 -1.36584 -6.84098 0
M  V30 4918 H 438.521 -0.194035 -6.45208 0
M  V30 4919 H 439.289 -1.53025 -8.04068 0
M  V30 4920 N 441.952 1.55251 0.271103 0
M  V30 4921 C 442.9 1.89054 1.35504 0
M  V30 4922 C 443.894 0.767064 1.51038 0
M  V30 4923 O 445.1 0.951429 1.528 0
M  V30 4924 H 441.475 0.600072 0.45323 0
M  V30 4925 H 443.446 2.79598 1.04247 0
M  V30 4926 C 442.195 2.18068 2.70817 0
M  V30 4927 H 441.518 3.04005 2.59656 0
M  V30 4928 H 442.958 2.4564 3.45597 0
M  V30 4929 C 441.417 0.988901 3.2206 0
M  V30 4930 O 441.947 0.224501 4.01072 0
M  V30 4931 N 440.153 0.786085 2.79766 0
M  V30 4932 H 439.7 1.40937 2.15626 0
M  V30 4933 H 439.658 -0.00969349 3.14399 0
M  V30 4934 N 443.43 -0.535701 1.48216 0
M  V30 4935 C 444.377 -1.64083 1.62312 0
M  V30 4936 C 445.347 -1.59448 0.465365 0
M  V30 4937 O 446.532 -1.77959 0.688135 0
M  V30 4938 C 443.672 -3.0236 1.66349 0
M  V30 4939 C 442.785 -3.17273 2.93193 0
M  V30 4940 C 441.92 -4.46075 2.88427 0
M  V30 4941 C 440.959 -4.54496 4.1 0
M  V30 4942 N 440.096 -5.7468 4.03345 0
M  V30 4943 H 444.936 -1.51374 2.5669 0
M  V30 4944 H 442.473 -0.737059 1.27302 0
M  V30 4945 H 444.431 -3.82461 1.66672 0
M  V30 4946 H 443.061 -3.13854 0.754672 0
M  V30 4947 H 442.113 -2.30462 3.02641 0
M  V30 4948 H 443.425 -3.19357 3.83162 0
M  V30 4949 H 442.579 -5.3446 2.87119 0
M  V30 4950 H 441.318 -4.46504 1.96177 0
M  V30 4951 H 440.323 -3.64519 4.11589 0
M  V30 4952 H 441.548 -4.5581 5.03402 0
M  V30 4953 H 439.494 -5.76017 3.13912 0
M  V30 4954 H 439.411 -5.78234 4.87013 0
M  V30 4955 H 440.679 -6.65367 4.06087 0
M  V30 4956 N 444.908 -1.36708 -0.784132 0
M  V30 4957 C 445.838 -1.34153 -1.91116 0
M  V30 4958 C 446.819 -0.212121 -1.68772 0
M  V30 4959 O 448.004 -0.410581 -1.8981 0
M  V30 4960 C 445.134 -1.13535 -3.28218 0
M  V30 4961 C 444.088 -2.23356 -3.65097 0
M  V30 4962 C 443.414 -1.87875 -5.00607 0
M  V30 4963 C 444.714 -3.65473 -3.73131 0
M  V30 4964 H 446.408 -2.28459 -1.93512 0
M  V30 4965 H 443.954 -1.09973 -0.929618 0
M  V30 4966 H 445.907 -1.10381 -4.06687 0
M  V30 4967 H 444.631 -0.156804 -3.26223 0
M  V30 4968 H 443.29 -2.25645 -2.88929 0
M  V30 4969 H 442.938 -0.885814 -4.95139 0
M  V30 4970 H 442.638 -2.61406 -5.26252 0
M  V30 4971 H 444.162 -1.86286 -5.81489 0
M  V30 4972 H 445.576 -3.65382 -4.41779 0
M  V30 4973 H 443.973 -4.37953 -4.10265 0
M  V30 4974 H 445.043 -3.99995 -2.74102 0
M  V30 4975 N 446.386 1.0089 -1.21074 0
M  V30 4976 C 447.626 1.76142 -1.03699 0
M  V30 4977 C 447.99 1.87292 0.422587 0
M  V30 4978 O 449.191 2.59068 0.716752 0
M  V30 4979 C 447.462 3.13805 -1.7106 0
M  V30 4980 S 449.021 4.04996 -1.68889 0
M  V30 4981 H 445.839 0.606113 -0.371683 0
M  V30 4982 H 448.441 1.20744 -1.53756 0
M  V30 4983 H 447.145 3.0332 -2.76451 0
M  V30 4984 H 446.676 3.74276 -1.21166 0
M  V30 4985 H 448.691 4.90842 -0.727211 0
M  V30 4986 N 447.864 1.01787 1.20321 0
M  V30 4987 C 449.141 0.622978 1.85414 0
M  V30 4988 C 449.521 -0.898887 1.91006 0
M  V30 4989 O 448.869 -1.79112 1.41884 0
M  V30 4990 C 449.079 1.27226 3.24984 0
M  V30 4991 C 450.427 1.3885 4.01255 0
M  V30 4992 O 451.451 1.22857 3.34342 0
M  V30 4993 O 450.31 1.64705 5.2109 0
M  V30 4994 H 447.404 0.215116 0.798533 0
M  V30 4995 H 449.95 1.11533 1.27901 0
M  V30 4996 H 448.722 2.31209 3.15687 0
M  V30 4997 H 448.345 0.767069 3.90131 0
M  V30 4998 N 449.342 -1.36122 0.79427 0
M  V30 4999 C 450.588 -1.99846 0.378542 0
M  V30 5000 C 450.943 -1.61898 -1.03955 0
M  V30 5001 O 450.236 -0.866013 -1.70912 0
M  V30 5002 C 450.43 -3.5409 0.48527 0
M  V30 5003 C 450.259 -4.0702 1.91219 0
M  V30 5004 C 449.029 -4.36944 2.53787 0
M  V30 5005 C 451.227 -4.26435 2.87502 0
M  V30 5006 N 449.209 -4.75727 3.88017 0
M  V30 5007 C 450.58 -4.68077 4.06576 0
M  V30 5008 C 452.635 -4.08616 2.84495 0
M  V30 5009 C 451.338 -4.93765 5.23057 0
M  V30 5010 C 453.364 -4.35453 4.00169 0
M  V30 5011 C 452.726 -4.77355 5.17988 0
M  V30 5012 H 448.825 -0.759549 0.186034 0
M  V30 5013 H 451.409 -1.65043 1.0329 0
M  V30 5014 H 449.58 -3.88151 -0.139023 0
M  V30 5015 H 451.312 -4.04675 0.0453192 0
M  V30 5016 H 448.067 -4.26822 2.05231 0
M  V30 5017 H 448.491 -4.99396 4.57092 0
M  V30 5018 H 453.133 -3.75373 1.94564 0
M  V30 5019 H 450.851 -5.25887 6.1357 0
M  V30 5020 H 454.437 -4.2323 3.99208 0
M  V30 5021 H 453.317 -4.97718 6.06008 0
M  V30 5022 N 450.82 -0.546701 -1.47814 0
M  V30 5023 C 452.066 -0.0269594 -2.03382 0
M  V30 5024 C 452.421 1.30406 -1.41464 0
M  V30 5025 O 451.714 1.8332 -0.557151 0
M  V30 5026 C 451.908 0.134869 -3.57145 0
M  V30 5027 C 451.737 -1.17891 -4.33972 0
M  V30 5028 C 450.507 -1.74336 -4.74273 0
M  V30 5029 C 452.705 -2.09361 -4.69758 0
M  V30 5030 N 450.687 -2.99829 -5.35701 0
M  V30 5031 C 452.058 -3.19431 -5.31379 0
M  V30 5032 C 454.113 -2.09484 -4.51687 0
M  V30 5033 C 452.816 -4.2971 -5.76838 0
M  V30 5034 C 454.842 -3.18767 -4.98138 0
M  V30 5035 C 454.204 -4.27557 -5.59799 0
M  V30 5036 H 450.303 -0.0517733 -0.780284 0
M  V30 5037 H 452.887 -0.731673 -1.80429 0
M  V30 5038 H 451.058 0.80869 -3.79888 0
M  V30 5039 H 452.79 0.655726 -3.99352 0
M  V30 5040 H 449.545 -1.28265 -4.559 0
M  V30 5041 H 449.969 -3.63765 -5.70968 0
M  V30 5042 H 454.611 -1.26663 -4.03381 0
M  V30 5043 H 452.329 -5.13297 -6.24141 0
M  V30 5044 H 455.915 -3.19937 -4.85934 0
M  V30 5045 H 454.795 -5.10725 -5.95088 0
M  V30 5046 N 452.299 1.55045 -0.282633 0
M  V30 5047 C 453.524 2.04628 0.337977 0
M  V30 5048 C 453.949 1.15937 1.48123 0
M  V30 5049 O 453.307 0.159532 1.80597 0
M  V30 5050 C 453.355 3.51854 0.78936 0
M  V30 5051 O 452.459 3.66236 1.89592 0
M  V30 5052 H 451.8 0.660434 0.0687261 0
M  V30 5053 H 454.33 2.00261 -0.419124 0
M  V30 5054 H 454.34 3.93361 1.08311 0
M  V30 5055 H 453.015 4.15873 -0.0470419 0
M  V30 5056 H 451.592 3.36633 1.60413 0
M  V30 5057 N 453.777 0.010035 1.57597 0
M  V30 5058 C 454.707 -0.976857 2.12084 0
M  V30 5059 C 455.688 -1.35191 1.03235 0
M  V30 5060 O 456.873 -1.43389 1.3097 0
M  V30 5061 C 454.003 -2.26548 2.63236 0
M  V30 5062 C 452.957 -2.03175 3.76701 0
M  V30 5063 C 452.283 -3.38138 4.14206 0
M  V30 5064 C 453.583 -1.38625 5.03568 0
M  V30 5065 H 455.277 -0.523145 2.94794 0
M  V30 5066 H 452.823 -0.250195 1.4181 0
M  V30 5067 H 454.776 -2.95952 2.99984 0
M  V30 5068 H 453.5 -2.74051 1.77661 0
M  V30 5069 H 452.159 -1.36195 3.40362 0
M  V30 5070 H 451.807 -3.83363 3.25641 0
M  V30 5071 H 451.507 -3.23312 4.90656 0
M  V30 5072 H 453.031 -4.08841 4.53521 0
M  V30 5073 H 454.445 -1.98 5.38023 0
M  V30 5074 H 452.842 -1.34256 5.84889 0
M  V30 5075 H 453.912 -0.356722 4.83586 0
M  V30 5076 N 455.255 -1.55392 -0.262866 0
M  V30 5077 C 456.503 -1.76127 -0.991147 0
M  V30 5078 C 456.824 -0.571083 -1.8645 0
M  V30 5079 O 456.094 0.413698 -1.91482 0
M  V30 5080 H 454.674 -0.649528 -0.368948 0
M  V30 5081 H 457.336 -1.9281 -0.284655 0
M  V30 5082 H 456.432 -2.6663 -1.62219 0
M  V30 5083 N 456.733 0.527833 -1.48498 0
M  V30 5084 C 457.979 1.28545 -1.56857 0
M  V30 5085 C 458.312 1.92678 -0.242651 0
M  V30 5086 O 457.587 1.79394 0.751545 0
M  V30 5087 C 457.87 2.37314 -2.70839 0
M  V30 5088 C 457.723 1.77858 -4.13142 0
M  V30 5089 C 459.042 3.39068 -2.80573 0
M  V30 5090 H 456.161 0.466006 -0.570971 0
M  V30 5091 H 458.803 0.587784 -1.8068 0
M  V30 5092 H 456.953 2.96821 -2.50658 0
M  V30 5093 H 458.625 1.22385 -4.44769 0
M  V30 5094 H 456.868 1.08383 -4.20042 0
M  V30 5095 H 457.539 2.56624 -4.88721 0
M  V30 5096 H 460.015 2.89518 -2.98862 0
M  V30 5097 H 458.891 4.12566 -3.6205 0
M  V30 5098 H 459.152 3.9975 -1.88818 0
M  V30 5099 N 458.211 1.37122 0.776871 0
M  V30 5100 C 459.46 1.31373 1.53049 0
M  V30 5101 C 459.773 -0.101016 1.95339 0
M  V30 5102 O 460.979 -0.280953 2.70042 0
M  V30 5103 C 459.435 2.30567 2.76346 0
M  V30 5104 C 459.043 3.77543 2.41175 0
M  V30 5105 C 460.787 2.33818 3.54301 0
M  V30 5106 C 458.694 4.68481 3.60943 0
M  V30 5107 H 457.624 0.488234 0.574581 0
M  V30 5108 H 460.275 1.62554 0.851372 0
M  V30 5109 H 458.657 1.92396 3.46121 0
M  V30 5110 H 459.831 4.24521 1.79216 0
M  V30 5111 H 458.146 3.77187 1.76405 0
M  V30 5112 H 460.743 2.98965 4.4331 0
M  V30 5113 H 461.086 1.3503 3.93793 0
M  V30 5114 H 461.619 2.7067 2.91518 0
M  V30 5115 H 458.358 5.68378 3.26537 0
M  V30 5116 H 457.878 4.2621 4.22025 0
M  V30 5117 H 459.557 4.85366 4.27819 0
M  V30 5118 N 459.689 -1.00246 1.21608 0
M  V30 5119 C 460.622 -2.08794 0.920892 0
M  V30 5120 C 461.6 -1.62059 -0.132552 0
M  V30 5121 O 462.784 -1.885 -0.0030366 0
M  V30 5122 C 459.911 -3.36525 0.383226 0
M  V30 5123 C 458.957 -4.02172 1.41987 0
M  V30 5124 S 459.79 -4.44256 2.98994 0
M  V30 5125 C 460.946 -5.7517 2.4684 0
M  V30 5126 H 461.179 -2.33511 1.8401 0
M  V30 5127 H 458.712 -1.13562 1.04609 0
M  V30 5128 H 460.67 -4.10423 0.0795871 0
M  V30 5129 H 459.331 -3.09854 -0.514711 0
M  V30 5130 H 458.524 -4.94114 0.993335 0
M  V30 5131 H 458.126 -3.34559 1.67171 0
M  V30 5132 H 460.418 -6.51042 1.87484 0
M  V30 5133 H 461.361 -6.22638 3.37235 0
M  V30 5134 H 461.769 -5.32112 1.88461 0
M  V30 5135 N 461.167 -1.02423 -1.1978 0
M  V30 5136 C 462.397 -0.736387 -1.93031 0
M  V30 5137 C 462.805 0.708023 -1.75453 0
M  V30 5138 O 462.148 1.4927 -1.07071 0
M  V30 5139 C 462.21 -1.00194 -3.45255 0
M  V30 5140 C 461.874 -2.43698 -3.86601 0
M  V30 5141 C 462.871 -3.41814 -3.91738 0
M  V30 5142 C 460.556 -2.77975 -4.18372 0
M  V30 5143 C 462.55 -4.72265 -4.28071 0
M  V30 5144 C 460.237 -4.08636 -4.54378 0
M  V30 5145 C 461.235 -5.05592 -4.59201 0
M  V30 5146 O 460.923 -6.33914 -4.94376 0
M  V30 5147 H 460.655 -0.269116 -0.620123 0
M  V30 5148 H 463.209 -1.37043 -1.52998 0
M  V30 5149 H 461.439 -0.310747 -3.85449 0
M  V30 5150 H 463.128 -0.704488 -3.9974 0
M  V30 5151 H 463.894 -3.16671 -3.67348 0
M  V30 5152 H 459.773 -2.0319 -4.13805 0
M  V30 5153 H 463.317 -5.4794 -4.3175 0
M  V30 5154 H 459.214 -4.33556 -4.78226 0
M  V30 5155 H 459.982 -6.38317 -5.12341 0
M  V30 5156 N 462.645 1.35699 -0.801477 0
M  V30 5157 C 463.555 2.33661 -0.209691 0
M  V30 5158 C 464.571 1.6162 0.644591 0
M  V30 5159 O 465.747 1.93529 0.557545 0
M  V30 5160 C 462.812 3.40816 0.636033 0
M  V30 5161 C 461.873 4.28639 -0.238147 0
M  V30 5162 C 461.106 5.30676 0.567307 0
M  V30 5163 O 461.329 5.41174 1.8024 0
M  V30 5164 O 460.263 6.01887 -0.0391336 0
M  V30 5165 H 464.089 2.8606 -1.01996 0
M  V30 5166 H 461.674 1.38379 -0.563164 0
M  V30 5167 H 463.556 4.06301 1.11791 0
M  V30 5168 H 462.231 2.90696 1.42399 0
M  V30 5169 H 461.138 3.66152 -0.767044 0
M  V30 5170 H 462.471 4.82143 -0.989915 0
M  V30 5171 N 464.123 0.554532 1.47522 0
M  V30 5172 C 465.056 -0.242442 2.26908 0
M  V30 5173 C 466.034 -0.922722 1.33883 0
M  V30 5174 O 467.218 -0.942244 1.63261 0
M  V30 5175 C 464.345 -1.34525 3.10839 0
M  V30 5176 C 463.391 -0.773805 4.19422 0
M  V30 5177 S 464.224 0.377525 5.34168 0
M  V30 5178 C 465.38 -0.727164 6.21662 0
M  V30 5179 H 465.613 0.431218 2.94156 0
M  V30 5180 H 463.146 0.3408 1.50592 0
M  V30 5181 H 465.104 -1.97683 3.59766 0
M  V30 5182 H 463.765 -1.99073 2.42958 0
M  V30 5183 H 462.958 -1.60187 4.77866 0
M  V30 5184 H 462.56 -0.218448 3.73361 0
M  V30 5185 H 464.852 -1.61992 6.57849 0
M  V30 5186 H 465.795 -0.180135 7.07871 0
M  V30 5187 H 466.203 -1.01863 5.55233 0
M  V30 5188 N 465.601 -1.54893 0.290851 0
M  V30 5189 C 466.531 -2.26103 -0.583084 0
M  V30 5190 C 467.512 -1.25684 -1.14619 0
M  V30 5191 O 468.697 -1.54436 -1.17741 0
M  V30 5192 C 465.827 -2.99409 -1.75987 0
M  V30 5193 C 464.781 -4.0689 -1.32758 0
M  V30 5194 C 464.107 -4.67856 -2.58872 0
M  V30 5195 C 465.407 -5.20215 -0.46624 0
M  V30 5196 H 467.101 -2.99398 0.0108214 0
M  V30 5197 H 464.647 -1.43998 0.00664468 0
M  V30 5198 H 466.6 -3.47943 -2.37727 0
M  V30 5199 H 465.324 -2.23675 -2.37985 0
M  V30 5200 H 463.983 -3.59191 -0.733299 0
M  V30 5201 H 463.631 -3.88772 -3.19163 0
M  V30 5202 H 463.331 -5.40438 -2.30653 0
M  V30 5203 H 464.855 -5.19147 -3.21433 0
M  V30 5204 H 466.269 -5.64704 -0.989047 0
M  V30 5205 H 464.666 -5.99455 -0.27826 0
M  V30 5206 H 465.736 -4.82198 0.511173 0
M  V30 5207 N 467.08 -0.0183926 -1.57589 0
M  V30 5208 C 468.329 0.66185 -1.90532 0
M  V30 5209 C 468.642 1.73904 -0.895366 0
M  V30 5210 O 469.848 2.47518 -1.11566 0
M  V30 5211 C 468.304 1.22844 -3.38286 0
M  V30 5212 C 467.912 0.185103 -4.47617 0
M  V30 5213 C 469.656 1.88581 -3.80312 0
M  V30 5214 C 467.563 0.762723 -5.86461 0
M  V30 5215 H 466.493 0.250972 -0.711006 0
M  V30 5216 H 469.144 -0.0819435 -1.83317 0
M  V30 5217 H 467.526 2.0235 -3.40398 0
M  V30 5218 H 468.7 -0.58671 -4.5705 0
M  V30 5219 H 467.015 -0.372889 -4.14727 0
M  V30 5220 H 469.612 2.32735 -4.81392 0
M  V30 5221 H 469.955 2.72408 -3.14801 0
M  V30 5222 H 470.488 1.15782 -3.80578 0
M  V30 5223 H 467.227 -0.0371713 -6.55489 0
M  V30 5224 H 466.747 1.50327 -5.80656 0
M  V30 5225 H 468.426 1.25576 -6.34697 0
M  V30 5226 N 468.558 1.5553 0.254621 0
M  V30 5227 C 469.806 1.7665 0.981793 0
M  V30 5228 C 470.127 0.580963 1.86145 0
M  V30 5229 O 469.397 -0.403537 1.91699 0
M  V30 5230 H 467.977 0.651475 0.365498 0
M  V30 5231 H 470.639 1.92958 0.274426 0
M  V30 5232 H 469.735 2.67486 1.60802 0
M  V30 5233 N 470.036 -0.519951 1.48776 0
M  V30 5234 C 471.266 -1.29783 1.60748 0
M  V30 5235 C 471.674 -1.87253 0.27072 0
M  V30 5236 O 471.017 -1.67628 -0.751438 0
M  V30 5237 C 471.079 -2.47984 2.60277 0
M  V30 5238 C 470.743 -2.11526 4.051 0
M  V30 5239 C 471.74 -1.66608 4.92481 0
M  V30 5240 C 469.425 -2.21742 4.50706 0
M  V30 5241 C 471.419 -1.32384 6.23501 0
M  V30 5242 C 469.106 -1.87129 5.81744 0
M  V30 5243 C 470.104 -1.42523 6.67964 0
M  V30 5244 O 469.792 -1.0837 7.96562 0
M  V30 5245 H 469.524 -0.400562 0.544542 0
M  V30 5246 H 472.078 -0.632879 1.95407 0
M  V30 5247 H 470.308 -3.17493 2.2076 0
M  V30 5248 H 471.997 -3.10036 2.61978 0
M  V30 5249 H 472.763 -1.58178 4.58481 0
M  V30 5250 H 468.642 -2.55415 3.83776 0
M  V30 5251 H 472.186 -0.974949 6.90754 0
M  V30 5252 H 468.083 -1.95204 6.15277 0
M  V30 5253 H 468.851 -1.21681 8.09405 0
M  V30 5254 N 471.514 -1.37532 -0.769588 0
M  V30 5255 C 472.925 -1.29382 -1.346 0
M  V30 5256 C 473.276 0.0576039 -1.96115 0
M  V30 5257 O 472.401 0.95947 -1.93967 0
M  V30 5258 C 472.996 -2.34298 -2.44724 0
M  V30 5259 C 471.555 -2.29776 -2.98128 0
M  V30 5260 C 470.702 -2.18013 -1.71364 0
M  V30 5261 H 473.653 -1.48123 -0.56968 0
M  V30 5262 H 473.674 -1.99089 -3.24259 0
M  V30 5263 H 473.186 -3.32645 -1.99922 0
M  V30 5264 H 471.287 -1.34959 -3.47299 0
M  V30 5265 H 471.4 -3.23276 -3.53595 0
M  V30 5266 H 469.764 -1.64595 -1.94372 0
M  V30 5267 H 470.547 -3.18278 -1.28662 0
M  V30 5268 N 472.992 0.995999 -1.22138 0
M  V30 5269 C 474.403 1.54961 -1.04135 0
M  V30 5270 C 474.754 1.92159 0.396147 0
M  V30 5271 O 473.879 1.74435 1.28069 0
M  V30 5272 C 474.474 2.81581 -1.88408 0
M  V30 5273 C 473.033 3.33396 -1.74712 0
M  V30 5274 C 472.18 2.06509 -1.85066 0
M  V30 5275 H 475.131 0.817436 -1.36028 0
M  V30 5276 H 475.152 3.53822 -1.39966 0
M  V30 5277 H 474.664 2.54476 -2.93025 0
M  V30 5278 H 472.765 3.65416 -0.728159 0
M  V30 5279 H 472.878 4.04208 -2.57202 0
M  V30 5280 H 471.242 2.19925 -1.28472 0
M  V30 5281 H 472.025 1.81804 -2.91208 0
M  V30 5282 N 474.47 1.03057 1.19235 0
M  V30 5283 C 475.717 0.728019 1.88961 0
M  V30 5284 C 476.045 -0.743515 1.79728 0
M  V30 5285 O 475.3 -1.55729 1.1852 0
M  V30 5286 C 475.599 1.1268 3.39172 0
M  V30 5287 C 475.265 2.5969 3.68608 0
M  V30 5288 C 473.927 2.99854 3.76352 0
M  V30 5289 C 476.279 3.54793 3.81801 0
M  V30 5290 C 473.607 4.34031 3.94758 0
M  V30 5291 C 475.959 4.88675 4.0172 0
M  V30 5292 C 474.623 5.28526 4.07697 0
M  V30 5293 H 473.893 0.266401 0.691456 0
M  V30 5294 H 476.54 1.29373 1.41191 0
M  V30 5295 H 474.845 0.479722 3.88852 0
M  V30 5296 H 476.542 0.870203 3.91444 0
M  V30 5297 H 473.132 2.27575 3.63191 0
M  V30 5298 H 477.316 3.24914 3.7516 0
M  V30 5299 H 472.572 4.6444 3.97625 0
M  V30 5300 H 476.746 5.6228 4.1087 0
M  V30 5301 H 474.373 6.32506 4.21712 0
M  V30 5302 N 475.948 -1.35272 0.808662 0
M  V30 5303 C 477.188 -2.00534 0.395668 0
M  V30 5304 C 477.552 -1.62755 -1.01857 0
M  V30 5305 O 478.753 -2.20752 -1.53368 0
M  V30 5306 C 477.024 -3.52732 0.575771 0
M  V30 5307 S 478.583 -4.38067 0.253507 0
M  V30 5308 H 475.401 -0.694962 0.150165 0
M  V30 5309 H 478.003 -1.64823 1.05137 0
M  V30 5310 H 476.707 -3.77714 1.60499 0
M  V30 5311 H 476.238 -3.93285 -0.0951739 0
M  V30 5312 H 478.253 -4.87252 -0.938068 0
M  V30 5313 N 477.426 -0.562348 -1.47226 0
M  V30 5314 C 478.651 -0.0432632 -2.07355 0
M  V30 5315 C 479.076 1.24332 -1.41149 0
M  V30 5316 O 478.434 1.74603 -0.488226 0
M  V30 5317 C 478.482 0.130288 -3.60365 0
M  V30 5318 O 477.586 1.19166 -3.94808 0
M  V30 5319 H 476.927 -0.0536334 -0.66183 0
M  V30 5320 H 479.457 -0.779495 -1.89169 0
M  V30 5321 H 479.467 0.342881 -4.06557 0
M  V30 5322 H 478.142 -0.809389 -4.07948 0
M  V30 5323 H 476.719 0.959153 -3.60354 0
M  V30 5324 N 478.904 1.54736 -0.299062 0
M  V30 5325 C 479.814 2.27127 0.587413 0
M  V30 5326 C 480.83 1.30575 1.15005 0
M  V30 5327 O 482.006 1.63554 1.17525 0
M  V30 5328 C 479.071 2.99645 1.74395 0
M  V30 5329 C 478.132 4.11731 1.21559 0
M  V30 5330 C 477.365 4.80781 2.317 0
M  V30 5331 O 477.588 4.4918 3.51558 0
M  V30 5332 O 476.522 5.68226 1.98501 0
M  V30 5333 H 480.348 3.037 0.000250109 0
M  V30 5334 H 477.933 1.49256 -0.0655919 0
M  V30 5335 H 479.815 3.45138 2.4178 0
M  V30 5336 H 478.49 2.25969 2.31775 0
M  V30 5337 H 477.397 3.70641 0.507514 0
M  V30 5338 H 478.73 4.87379 0.687233 0
M  V30 5339 N 480.382 0.0267497 1.57577 0
M  V30 5340 C 481.61 -0.662661 1.96001 0
M  V30 5341 C 482.025 -1.65799 0.903117 0
M  V30 5342 O 481.382 -1.82135 -0.115317 0
M  V30 5343 C 481.433 -1.37112 3.34488 0
M  V30 5344 O 481.154 -0.415683 4.36123 0
M  V30 5345 C 482.655 -2.15257 3.8753 0
M  V30 5346 H 479.875 -0.18287 0.6456 0
M  V30 5347 H 482.419 0.0858116 2.0432 0
M  V30 5348 H 480.574 -2.07101 3.27395 0
M  V30 5349 H 480.988 -0.918496 5.16395 0
M  V30 5350 H 482.462 -2.60285 4.86781 0
M  V30 5351 H 482.939 -2.99063 3.21649 0
M  V30 5352 H 483.545 -1.50231 3.97883 0
M  V30 5353 N 481.861 -1.55662 -0.24637 0
M  V30 5354 C 483.272 -1.67953 -0.81539 0
M  V30 5355 C 483.623 -0.624302 -1.86002 0
M  V30 5356 O 482.748 0.229328 -2.15181 0
M  V30 5357 C 483.343 -3.04484 -1.48576 0
M  V30 5358 C 481.902 -3.18713 -2.00248 0
M  V30 5359 C 481.049 -2.6383 -0.853766 0
M  V30 5360 H 484 -1.58685 -0.0221692 0
M  V30 5361 H 484.021 -2.98959 -2.3538 0
M  V30 5362 H 483.533 -3.81264 -0.725222 0
M  V30 5363 H 481.634 -2.46757 -2.79181 0
M  V30 5364 H 481.747 -4.25628 -2.1995 0
M  V30 5365 H 480.111 -2.21667 -1.25442 0
M  V30 5366 H 480.894 -3.43135 -0.106302 0
M  V30 5367 N 483.339 0.512053 -1.4905 0
M  V30 5368 C 484.271 1.63121 -1.6101 0
M  V30 5369 C 485.284 1.55145 -0.493352 0
M  V30 5370 O 486.473 1.61278 -0.764955 0
M  V30 5371 C 483.573 3.01863 -1.54052 0
M  V30 5372 C 482.746 3.35138 -2.81072 0
M  V30 5373 C 481.805 4.5324 -2.67319 0
M  V30 5374 O 480.831 4.55571 -3.41238 0
M  V30 5375 N 482.033 5.52495 -1.78127 0
M  V30 5376 H 484.798 1.53292 -2.5753 0
M  V30 5377 H 482.359 0.699706 -1.45999 0
M  V30 5378 H 484.351 3.78774 -1.42521 0
M  V30 5379 H 482.921 3.05675 -0.654345 0
M  V30 5380 H 482.141 2.4723 -3.07036 0
M  V30 5381 H 483.429 3.54162 -3.65304 0
M  V30 5382 H 482.827 5.53403 -1.17308 0
M  V30 5383 H 481.384 6.28553 -1.72525 0
M  V30 5384 N 484.817 1.37938 0.762283 0
M  V30 5385 C 485.727 1.36681 1.90671 0
M  V30 5386 C 486.743 0.265078 1.71969 0
M  V30 5387 O 487.919 0.502055 1.95042 0
M  V30 5388 C 484.984 1.18211 3.25925 0
M  V30 5389 C 484.045 2.3811 3.57214 0
M  V30 5390 C 483.278 2.20512 4.86014 0
M  V30 5391 O 483.501 1.19429 5.57757 0
M  V30 5392 O 482.435 3.08911 5.16583 0
M  V30 5393 H 486.261 2.33091 1.94685 0
M  V30 5394 H 483.846 1.18767 0.906356 0
M  V30 5395 H 485.728 1.09937 4.06807 0
M  V30 5396 H 484.403 0.248807 3.22742 0
M  V30 5397 H 483.31 2.51958 2.76529 0
M  V30 5398 H 484.643 3.30041 3.65149 0
M  V30 5399 N 486.295 -0.989507 1.22664 0
M  V30 5400 C 487.523 -1.76496 1.07967 0
M  V30 5401 C 487.938 -1.85148 -0.369543 0
M  V30 5402 O 487.295 -1.32408 -1.25596 0
M  V30 5403 C 487.346 -3.19642 1.68853 0
M  V30 5404 O 487.067 -3.11453 3.08105 0
M  V30 5405 C 488.568 -4.13621 1.59475 0
M  V30 5406 H 485.788 -0.55418 0.378319 0
M  V30 5407 H 488.332 -1.24378 1.62328 0
M  V30 5408 H 486.487 -3.68816 1.18547 0
M  V30 5409 H 486.901 -4.01499 3.37489 0
M  V30 5410 H 488.375 -5.11801 2.06795 0
M  V30 5411 H 488.852 -4.35718 0.55191 0
M  V30 5412 H 489.458 -3.70346 2.09103 0
M  V30 5413 N 487.773 -1.03688 -1.18687 0
M  V30 5414 C 489.003 -0.756819 -1.92239 0
M  V30 5415 C 489.411 0.689374 -1.76194 0
M  V30 5416 O 488.754 1.48126 -1.08648 0
M  V30 5417 C 488.816 -1.03851 -3.44173 0
M  V30 5418 C 488.48 -2.47785 -3.83994 0
M  V30 5419 C 489.477 -3.4595 -3.88091 0
M  V30 5420 C 487.162 -2.82397 -4.154 0
M  V30 5421 C 489.156 -4.76779 -4.23038 0
M  V30 5422 C 486.843 -4.13433 -4.50018 0
M  V30 5423 C 487.841 -5.10434 -4.53813 0
M  V30 5424 O 487.529 -6.39122 -4.87625 0
M  V30 5425 H 487.261 -0.275678 -0.617234 0
M  V30 5426 H 489.815 -1.38658 -1.51536 0
M  V30 5427 H 488.045 -0.351612 -3.85098 0
M  V30 5428 H 489.734 -0.746846 -3.9897 0
M  V30 5429 H 490.5 -3.20549 -3.63969 0
M  V30 5430 H 486.379 -2.07568 -4.11627 0
M  V30 5431 H 489.923 -5.52488 -4.25914 0
M  V30 5432 H 485.82 -4.38604 -4.736 0
M  V30 5433 H 486.588 -6.43715 -5.05542 0
M  V30 5434 N 489.251 1.34841 -0.815825 0
M  V30 5435 C 490.198 2.29644 -0.230664 0
M  V30 5436 C 491.168 1.53253 0.640533 0
M  V30 5437 O 492.353 1.81653 0.583672 0
M  V30 5438 C 489.493 3.39715 0.607275 0
M  V30 5439 C 488.606 4.31056 -0.28538 0
M  V30 5440 C 487.741 5.28225 0.561446 0
M  V30 5441 C 486.78 6.11204 -0.331035 0
M  V30 5442 N 485.917 7.00483 0.476302 0
M  V30 5443 H 490.757 2.79095 -1.0445 0
M  V30 5444 H 488.294 1.37351 -0.526595 0
M  V30 5445 H 490.252 4.02208 1.10835 0
M  V30 5446 H 488.882 2.91517 1.38629 0
M  V30 5447 H 487.934 3.69487 -0.904621 0
M  V30 5448 H 489.246 4.89239 -0.97193 0
M  V30 5449 H 488.4 5.96135 1.12728 0
M  V30 5450 H 487.139 4.70562 1.28153 0
M  V30 5451 H 486.144 5.42232 -0.909069 0
M  V30 5452 H 487.369 6.70947 -1.04912 0
M  V30 5453 H 485.315 6.45296 1.18019 0
M  V30 5454 H 485.232 7.55847 -0.152008 0
M  V30 5455 H 486.5 7.7273 1.02512 0
M  V30 5456 N 490.729 0.570148 1.46925 0
M  V30 5457 C 491.676 -0.170257 2.30171 0
M  V30 5458 C 492.646 -0.896099 1.39855 0
M  V30 5459 O 493.831 -0.889248 1.68811 0
M  V30 5460 C 490.971 -1.18605 3.24079 0
M  V30 5461 C 490.084 -0.464947 4.29491 0
M  V30 5462 C 489.219 -1.46716 5.10537 0
M  V30 5463 C 488.258 -0.731758 6.0771 0
M  V30 5464 N 487.395 -1.68142 6.81669 0
M  V30 5465 H 492.235 0.545713 2.92961 0
M  V30 5466 H 489.772 0.280938 1.44392 0
M  V30 5467 H 491.73 -1.78771 3.76957 0
M  V30 5468 H 490.36 -1.86989 2.63125 0
M  V30 5469 H 489.412 0.251506 3.79568 0
M  V30 5470 H 490.724 0.110548 4.98677 0
M  V30 5471 H 489.878 -2.14199 5.6763 0
M  V30 5472 H 488.617 -2.07658 4.41282 0
M  V30 5473 H 487.622 -0.0430787 5.49783 0
M  V30 5474 H 488.847 -0.127904 6.7898 0
M  V30 5475 H 486.793 -2.27918 6.15134 0
M  V30 5476 H 486.71 -1.15841 7.47072 0
M  V30 5477 H 487.978 -2.347 7.43328 0
M  V30 5478 N 492.207 -1.54576 0.307264 0
M  V30 5479 C 493.453 -2.0056 -0.300612 0
M  V30 5480 C 493.786 -1.1953 -1.53057 0
M  V30 5481 O 493.061 -0.27337 -1.92569 0
M  V30 5482 C 493.344 -3.54167 -0.650987 0
M  V30 5483 C 493.197 -4.45933 0.588539 0
M  V30 5484 C 494.516 -4.14645 -1.47506 0
M  V30 5485 H 491.635 -0.729075 -0.107788 0
M  V30 5486 H 494.277 -1.85286 0.420606 0
M  V30 5487 H 492.427 -3.67313 -1.26544 0
M  V30 5488 H 494.099 -4.44683 1.22697 0
M  V30 5489 H 492.342 -4.16274 1.22058 0
M  V30 5490 H 493.013 -5.51189 0.299153 0
M  V30 5491 H 495.489 -4.04973 -0.955821 0
M  V30 5492 H 494.365 -5.22269 -1.68899 0
M  V30 5493 H 494.626 -3.66921 -2.4662 0
M  V30 5494 N 493.685 -0.035106 -1.57561 0
M  V30 5495 C 494.618 0.979673 -2.06101 0
M  V30 5496 C 495.596 1.31378 -0.958046 0
M  V30 5497 O 496.78 1.42942 -1.22881 0
M  V30 5498 C 493.907 2.29809 -2.48808 0
M  V30 5499 C 492.953 2.11817 -3.70184 0
M  V30 5500 S 493.786 1.41143 -5.16565 0
M  V30 5501 C 494.942 2.74341 -5.62572 0
M  V30 5502 H 495.175 0.566506 -2.91853 0
M  V30 5503 H 492.708 0.176744 -1.53385 0
M  V30 5504 H 494.666 3.056 -2.74078 0
M  V30 5505 H 493.327 2.68257 -1.63392 0
M  V30 5506 H 492.52 3.09299 -3.97933 0
M  V30 5507 H 492.122 1.44168 -3.45097 0
M  V30 5508 H 494.414 3.70562 -5.67177 0
M  V30 5509 H 495.357 2.51249 -6.62027 0
M  V30 5510 H 495.765 2.79863 -4.90242 0
M  V30 5511 N 495.163 1.55791 0.238111 0
M  V30 5512 C 496.111 1.91885 1.31464 0
M  V30 5513 C 497.105 0.798929 1.49377 0
M  V30 5514 O 498.311 0.983626 1.50747 0
M  V30 5515 H 494.686 0.609551 0.440399 0
M  V30 5516 H 496.657 2.81747 0.982925 0
M  V30 5517 C 495.406 2.23763 2.6613 0
M  V30 5518 H 494.729 3.09444 2.53149 0
M  V30 5519 H 496.169 2.52915 3.40309 0
M  V30 5520 C 494.628 1.05699 3.1989 0
M  V30 5521 O 495.158 0.309524 4.00506 0
M  V30 5522 N 493.364 0.845251 2.78036 0
M  V30 5523 H 492.911 1.4548 2.12588 0
M  V30 5524 H 492.869 0.0569973 3.14348 0
M  V30 5525 N 496.642 -0.504142 1.49319 0
M  V30 5526 C 497.888 -1.25767 1.59857 0
M  V30 5527 C 498.243 -1.90348 0.280262 0
M  V30 5528 O 497.536 -1.77588 -0.719241 0
M  V30 5529 C 497.73 -2.35021 2.69258 0
M  V30 5530 C 497.559 -1.81154 4.11598 0
M  V30 5531 C 496.329 -1.62596 4.78425 0
M  V30 5532 C 498.527 -1.3252 4.96934 0
M  V30 5533 N 496.509 -1.03625 6.05091 0
M  V30 5534 C 497.88 -0.856633 6.14054 0
M  V30 5535 C 499.935 -1.21063 4.82958 0
M  V30 5536 C 498.638 -0.284841 7.18736 0
M  V30 5537 C 500.664 -0.652815 5.87786 0
M  V30 5538 C 500.026 -0.194461 7.04132 0
M  V30 5539 H 496.125 -0.450293 0.639343 0
M  V30 5540 H 498.709 -0.565344 1.86311 0
M  V30 5541 H 496.88 -3.01719 2.44581 0
M  V30 5542 H 498.612 -3.02061 2.69335 0
M  V30 5543 H 495.367 -1.86873 4.35173 0
M  V30 5544 H 495.791 -0.76076 6.72712 0
M  V30 5545 H 500.433 -1.551 3.93324 0
M  V30 5546 H 498.151 0.0677979 8.08072 0
M  V30 5547 H 501.737 -0.566994 5.79031 0
M  V30 5548 H 500.617 0.230442 7.83861 0
M  V30 5549 N 498.12 -1.38341 -0.754957 0
M  V30 5550 C 499.067 -1.3546 -1.86867 0
M  V30 5551 C 500.037 -0.217369 -1.64672 0
M  V30 5552 O 501.222 -0.409383 -1.86356 0
M  V30 5553 C 498.362 -1.18413 -3.24149 0
M  V30 5554 C 497.475 -2.41511 -3.58185 0
M  V30 5555 C 496.61 -2.17205 -4.84763 0
M  V30 5556 C 495.649 -3.36081 -5.11582 0
M  V30 5557 N 494.786 -3.11219 -6.29354 0
M  V30 5558 H 499.626 -2.30672 -1.88664 0
M  V30 5559 H 497.163 -1.14607 -0.922154 0
M  V30 5560 H 499.121 -1.06545 -4.03366 0
M  V30 5561 H 497.751 -0.268397 -3.21682 0
M  V30 5562 H 496.803 -2.64056 -2.73822 0
M  V30 5563 H 498.115 -3.30115 -3.73932 0
M  V30 5564 H 497.269 -2.02465 -5.7192 0
M  V30 5565 H 496.008 -1.25964 -4.71152 0
M  V30 5566 H 495.013 -3.51341 -4.22894 0
M  V30 5567 H 496.238 -4.28196 -5.27091 0
M  V30 5568 H 494.184 -2.22624 -6.17069 0
M  V30 5569 H 494.101 -3.93373 -6.45596 0
M  V30 5570 H 495.369 -3.00132 -7.19403 0
M  V30 5571 N 499.598 0.982988 -1.23187 0
M  V30 5572 C 500.508 2.10907 -1.02739 0
M  V30 5573 C 501.524 1.73979 0.0273188 0
M  V30 5574 O 502.7 2.00702 -0.16757 0
M  V30 5575 C 499.765 3.41142 -0.618304 0
M  V30 5576 C 498.826 3.92112 -1.74777 0
M  V30 5577 C 498.059 5.16131 -1.3581 0
M  V30 5578 O 498.282 5.6989 -0.241201 0
M  V30 5579 O 497.216 5.61103 -2.17824 0
M  V30 5580 H 501.042 2.31046 -1.97108 0
M  V30 5581 H 498.627 1.09284 -1.01869 0
M  V30 5582 H 500.509 4.19488 -0.400982 0
M  V30 5583 H 499.184 3.2234 0.296421 0
M  V30 5584 H 498.091 3.14895 -2.0197 0
M  V30 5585 H 499.424 4.15364 -2.64071 0
M  V30 5586 N 501.076 1.04316 1.18135 0
M  V30 5587 C 502.304 0.768117 1.92113 0
M  V30 5588 C 502.719 -0.675057 1.76319 0
M  V30 5589 O 502.076 -1.46038 1.09449 0
M  V30 5590 C 502.127 1.12808 3.43448 0
M  V30 5591 O 501.848 2.5146 3.58747 0
M  V30 5592 C 503.349 0.8779 4.3452 0
M  V30 5593 H 500.569 0.279937 0.609817 0
M  V30 5594 H 503.113 1.39149 1.49859 0
M  V30 5595 H 501.268 0.549623 3.83481 0
M  V30 5596 H 501.682 2.65313 4.52448 0
M  V30 5597 H 503.156 1.17959 5.39249 0
M  V30 5598 H 503.633 -0.187239 4.38801 0
M  V30 5599 H 504.239 1.43977 4.00188 0
M  V30 5600 N 502.554 -1.34406 0.822964 0
M  V30 5601 C 503.484 -2.32052 0.259608 0
M  V30 5602 C 504.465 -1.58243 -0.623961 0
M  V30 5603 O 505.65 -1.86224 -0.55083 0
M  V30 5604 C 502.78 -3.42434 -0.579314 0
M  V30 5605 C 501.734 -4.27499 0.20712 0
M  V30 5606 C 501.06 -5.29349 -0.754547 0
M  V30 5607 C 502.36 -5.02758 1.41533 0
M  V30 5608 H 504.054 -2.79418 1.07545 0
M  V30 5609 H 501.6 -1.34338 0.518593 0
M  V30 5610 H 503.553 -4.0976 -0.983612 0
M  V30 5611 H 502.277 -2.93717 -1.4282 0
M  V30 5612 H 500.936 -3.61776 0.592787 0
M  V30 5613 H 500.584 -4.76895 -1.59939 0
M  V30 5614 H 500.284 -5.8714 -0.232561 0
M  V30 5615 H 501.808 -5.99544 -1.1567 0
M  V30 5616 H 503.222 -5.62938 1.08504 0
M  V30 5617 H 501.619 -5.70123 1.87296 0
M  V30 5618 H 502.689 -4.32451 2.1935 0
M  V30 5619 N 504.032 -0.577932 -1.46621 0
M  V30 5620 C 505.26 -0.0671642 -2.06791 0
M  V30 5621 C 505.675 1.23571 -1.42743 0
M  V30 5622 O 505.032 1.74602 -0.531062 0
M  V30 5623 C 505.083 0.110357 -3.61332 0
M  V30 5624 O 504.804 -1.14095 -4.22982 0
M  V30 5625 C 506.305 0.656025 -4.38419 0
M  V30 5626 H 503.525 -0.0552732 -0.66872 0
M  V30 5627 H 506.069 -0.797242 -1.8832 0
M  V30 5628 H 504.224 0.790637 -3.79246 0
M  V30 5629 H 504.638 -0.951742 -5.15793 0
M  V30 5630 H 506.112 0.729438 -5.47159 0
M  V30 5631 H 506.589 1.67195 -4.06131 0
M  V30 5632 H 507.195 0.0107692 -4.25299 0
M  V30 5633 N 505.51 1.54411 -0.315457 0
M  V30 5634 C 506.757 2.00419 0.289543 0
M  V30 5635 C 507.085 1.20373 1.52776 0
M  V30 5636 O 506.34 0.271769 1.93804 0
M  V30 5637 C 506.639 3.50936 0.676652 0
M  V30 5638 C 506.305 4.48532 -0.461472 0
M  V30 5639 C 504.967 4.74936 -0.773879 0
M  V30 5640 C 507.319 5.06567 -1.22637 0
M  V30 5641 C 504.647 5.56634 -1.85405 0
M  V30 5642 C 506.999 5.89441 -2.29657 0
M  V30 5643 C 505.663 6.1415 -2.61488 0
M  V30 5644 H 504.933 0.733386 0.105951 0
M  V30 5645 H 507.58 1.86434 -0.437554 0
M  V30 5646 H 505.885 3.62606 1.48405 0
M  V30 5647 H 507.582 3.83971 1.15618 0
M  V30 5648 H 504.172 4.28096 -0.207893 0
M  V30 5649 H 508.356 4.86157 -0.998271 0
M  V30 5650 H 503.612 5.74012 -2.10523 0
M  V30 5651 H 507.786 6.33432 -2.89374 0
M  V30 5652 H 505.413 6.77245 -3.45317 0
M  V30 5653 N 506.988 0.0434614 1.5754 0
M  V30 5654 C 508.399 -0.493343 1.80064 0
M  V30 5655 C 508.75 -1.71388 0.955023 0
M  V30 5656 O 507.875 -2.15736 0.169434 0
M  V30 5657 C 508.47 -0.90179 3.26578 0
M  V30 5658 C 507.029 -1.38362 3.50047 0
M  V30 5659 C 506.176 -0.355129 2.75017 0
M  V30 5660 H 509.127 0.2694 1.56397 0
M  V30 5661 H 509.148 -1.76523 3.37075 0
M  V30 5662 H 508.66 -0.013271 3.88098 0
M  V30 5663 H 506.761 -2.29159 2.93798 0
M  V30 5664 H 506.874 -1.3811 4.58762 0
M  V30 5665 H 505.238 -0.826348 2.40922 0
M  V30 5666 H 506.021 0.525172 3.39259 0
M  V30 5667 N 508.466 -1.55915 -0.229846 0
M  V30 5668 C 509.877 -1.68809 -0.797531 0
M  V30 5669 C 510.228 -0.643995 -1.8533 0
M  V30 5670 O 509.353 0.206492 -2.15413 0
M  V30 5671 C 509.948 -3.06043 -1.45338 0
M  V30 5672 C 508.507 -3.20819 -1.96856 0
M  V30 5673 C 507.654 -2.6472 -0.825736 0
M  V30 5674 H 510.605 -1.58699 -0.00533733 0
M  V30 5675 H 510.626 -3.01438 -2.32196 0
M  V30 5676 H 510.138 -3.82012 -0.684743 0
M  V30 5677 H 508.239 -2.49704 -2.76548 0
M  V30 5678 H 508.352 -4.27937 -2.15423 0
M  V30 5679 H 506.716 -2.22985 -1.23084 0
M  V30 5680 H 507.499 -3.43229 -0.0699019 0
M  V30 5681 N 509.944 0.496216 -1.49584 0
M  V30 5682 C 510.854 1.62352 -1.69349 0
M  V30 5683 C 511.87 1.64184 -0.576147 0
M  V30 5684 O 513.046 1.82517 -0.85144 0
M  V30 5685 C 510.111 2.98698 -1.76013 0
M  V30 5686 C 509.172 3.07454 -2.99617 0
M  V30 5687 C 508.405 4.37296 -3.05953 0
M  V30 5688 O 508.628 5.2637 -2.19752 0
M  V30 5689 O 507.562 4.51124 -3.9846 0
M  V30 5690 H 511.388 1.48606 -2.64859 0
M  V30 5691 H 508.973 0.673022 -1.33382 0
M  V30 5692 H 510.855 3.79725 -1.82721 0
M  V30 5693 H 509.53 3.12696 -0.836828 0
M  V30 5694 H 508.437 2.25597 -2.98424 0
M  V30 5695 H 509.77 2.98385 -3.91443 0
M  V30 5696 N 511.423 1.38739 0.74761 0
M  V30 5697 C 512.669 1.35475 1.50912 0
M  V30 5698 C 513.002 -0.0533093 1.94127 0
M  V30 5699 O 512.277 -1.01572 1.65871 0
M  V30 5700 C 512.56 2.31582 2.75757 0
M  V30 5701 C 512.413 3.81274 2.38642 0
M  V30 5702 C 513.732 2.25722 3.77806 0
M  V30 5703 H 510.851 0.493427 0.547447 0
M  V30 5704 H 513.493 1.69634 0.855823 0
M  V30 5705 H 511.643 2.02582 3.31501 0
M  V30 5706 H 513.315 4.20972 1.88626 0
M  V30 5707 H 511.558 3.98664 1.71025 0
M  V30 5708 H 512.229 4.4399 3.27989 0
M  V30 5709 H 514.705 2.51336 3.31616 0
M  V30 5710 H 513.581 2.95069 4.62845 0
M  V30 5711 H 513.842 1.25803 4.23823 0
M  V30 5712 N 512.901 -0.976442 1.23707 0
M  V30 5713 C 514.312 -1.53284 1.06587 0
M  V30 5714 C 514.663 -1.92765 -0.365526 0
M  V30 5715 O 513.788 -1.7645 -1.25277 0
M  V30 5716 C 514.383 -2.78548 1.92864 0
M  V30 5717 C 512.942 -3.30574 1.79994 0
M  V30 5718 C 512.089 -2.03538 1.88328 0
M  V30 5719 H 515.04 -0.795692 1.37311 0
M  V30 5720 H 515.061 -3.5155 1.45577 0
M  V30 5721 H 514.573 -2.49782 2.97037 0
M  V30 5722 H 512.674 -3.64211 0.786202 0
M  V30 5723 H 512.787 -4.00065 2.636 0
M  V30 5724 H 511.151 -2.17853 1.31954 0
M  V30 5725 H 511.934 -1.77149 2.94063 0
M  V30 5726 N 514.379 -1.04941 -1.1758 0
M  V30 5727 C 515.628 -0.753124 -1.87112 0
M  V30 5728 C 515.941 0.722507 -1.81767 0
M  V30 5729 O 517.147 1.13265 -2.46746 0
M  V30 5730 C 515.603 -1.29695 -3.35719 0
M  V30 5731 C 515.211 -2.80184 -3.49572 0
M  V30 5732 C 516.955 -1.07759 -4.10595 0
M  V30 5733 C 514.862 -3.2788 -4.92187 0
M  V30 5734 H 513.792 -0.278034 -0.700866 0
M  V30 5735 H 516.443 -1.26637 -1.32798 0
M  V30 5736 H 514.825 -0.711522 -3.89555 0
M  V30 5737 H 515.999 -3.44561 -3.05965 0
M  V30 5738 H 514.314 -3.00632 -2.88113 0
M  V30 5739 H 516.911 -1.40899 -5.15802 0
M  V30 5740 H 517.254 -0.0152302 -4.16297 0
M  V30 5741 H 517.787 -1.62809 -3.62957 0
M  V30 5742 H 514.526 -4.33535 -4.91658 0
M  V30 5743 H 514.046 -2.68245 -5.36475 0
M  V30 5744 H 515.725 -3.22412 -5.60945 0
M  V30 5745 N 515.857 1.33968 -0.830081 0
M  V30 5746 C 517.082 2.02813 -0.433796 0
M  V30 5747 C 517.507 1.62076 0.954614 0
M  V30 5748 O 516.865 0.808955 1.62252 0
M  V30 5749 C 516.913 3.56348 -0.552115 0
M  V30 5750 O 516.017 4.10202 0.425191 0
M  V30 5751 H 515.358 0.639817 -0.177567 0
M  V30 5752 H 517.888 1.7106 -1.12248 0
M  V30 5753 H 517.898 4.05722 -0.430513 0
M  V30 5754 H 516.573 3.85344 -1.56471 0
M  V30 5755 H 515.15 3.71979 0.261878 0
M  V30 5756 N 517.335 0.585699 1.46312 0
M  V30 5757 C 518.245 -0.148236 2.34131 0
M  V30 5758 C 519.261 -0.882972 1.49932 0
M  V30 5759 O 520.437 -0.845484 1.82794 0
M  V30 5760 C 517.502 -1.14714 3.27172 0
M  V30 5761 C 516.563 -0.416746 4.27272 0
M  V30 5762 C 515.796 -1.36806 5.15868 0
M  V30 5763 O 516.019 -2.60475 5.07454 0
M  V30 5764 O 514.953 -0.877018 5.95476 0
M  V30 5765 H 518.779 0.572882 2.98248 0
M  V30 5766 H 516.364 0.346082 1.45336 0
M  V30 5767 H 518.246 -1.72303 3.84564 0
M  V30 5768 H 516.921 -1.84967 2.65648 0
M  V30 5769 H 515.828 0.201061 3.73559 0
M  V30 5770 H 517.161 0.244872 4.9159 0
M  V30 5771 N 518.813 -1.54241 0.323641 0
M  V30 5772 C 519.76 -2.24339 -0.542277 0
M  V30 5773 C 520.73 -1.23421 -1.11159 0
M  V30 5774 O 521.915 -1.52104 -1.15192 0
M  V30 5775 C 519.055 -3.00479 -1.69725 0
M  V30 5776 C 518.168 -4.16214 -1.15716 0
M  V30 5777 C 517.303 -4.79884 -2.27783 0
M  V30 5778 C 516.342 -5.87722 -1.71023 0
M  V30 5779 N 515.479 -6.45254 -2.76752 0
M  V30 5780 H 520.319 -2.97935 0.0620613 0
M  V30 5781 H 517.856 -1.47039 0.0423993 0
M  V30 5782 H 519.814 -3.42869 -2.3769 0
M  V30 5783 H 518.444 -2.29217 -2.27288 0
M  V30 5784 H 517.496 -3.78605 -0.369063 0
M  V30 5785 H 518.808 -4.93838 -0.701832 0
M  V30 5786 H 517.962 -5.25243 -3.03651 0
M  V30 5787 H 516.701 -4.01641 -2.76652 0
M  V30 5788 H 515.706 -5.41765 -0.936518 0
M  V30 5789 H 516.931 -6.67863 -1.2303 0
M  V30 5790 H 514.877 -5.69884 -3.24912 0
M  V30 5791 H 514.794 -7.18292 -2.35782 0
M  V30 5792 H 516.062 -6.95269 -3.5245 0
M  V30 5793 N 520.291 -0.0518155 -1.57515 0
M  V30 5794 C 521.254 0.907547 -2.10467 0
M  V30 5795 C 522.254 1.23947 -1.02439 0
M  V30 5796 O 523.444 1.17604 -1.2851 0
M  V30 5797 C 520.576 2.21723 -2.58944 0
M  V30 5798 H 521.769 0.44851 -2.96527 0
M  V30 5799 H 519.322 0.196598 -1.55059 0
M  V30 5800 H 520.057 2.72206 -1.76279 0
M  V30 5801 H 519.842 1.98935 -3.37886 0
M  V30 5802 H 521.332 2.90441 -3.00056 0
M  V30 5803 N 521.769 1.56035 0.221574 0
M  V30 5804 C 522.716 1.92413 1.27459 0
M  V30 5805 C 523.686 0.781323 1.46576 0
M  V30 5806 O 524.871 1.03721 1.60145 0
M  V30 5807 C 522.011 2.24617 2.61995 0
M  V30 5808 C 521.124 3.51831 2.50677 0
M  V30 5809 C 520.259 3.73482 3.77736 0
M  V30 5810 C 519.298 4.94211 3.6114 0
M  V30 5811 N 518.435 5.12252 4.80148 0
M  V30 5812 H 523.275 2.82203 0.957355 0
M  V30 5813 H 520.812 1.39676 0.461415 0
M  V30 5814 H 522.77 2.41298 3.40339 0
M  V30 5815 H 521.4 1.38 2.91815 0
M  V30 5816 H 520.452 3.43343 1.63767 0
M  V30 5817 H 521.764 4.40328 2.34334 0
M  V30 5818 H 520.918 3.9026 4.64523 0
M  V30 5819 H 519.657 2.83266 3.97003 0
M  V30 5820 H 518.662 4.77384 2.72736 0
M  V30 5821 H 519.887 5.85912 3.43343 0
M  V30 5822 H 517.833 4.24978 4.99729 0
M  V30 5823 H 517.75 5.94881 4.66532 0
M  V30 5824 H 519.018 5.33465 5.68362 0
M  V30 5825 N 523.247 -0.488276 1.49845 0
M  V30 5826 C 524.524 -1.24959 1.50481 0
M  V30 5827 C 524.904 -2.09735 0.239698 0
M  V30 5828 O 524.252 -2.14865 -0.777524 0
M  V30 5829 C 524.462 -2.0954 2.79095 0
M  V30 5830 C 525.81 -2.68305 3.29086 0
M  V30 5831 O 526.834 -2.19797 2.80299 0
M  V30 5832 O 525.693 -3.56643 4.14087 0
M  V30 5833 H 522.787 -0.566133 0.602845 0
M  V30 5834 H 525.333 -0.501504 1.6212 0
M  V30 5835 H 524.105 -1.46958 3.62656 0
M  V30 5836 H 523.728 -2.91517 2.70377 0
M  V30 5837 N 524.725 -1.39134 -0.740242 0
M  V30 5838 C 525.655 -1.40165 -1.86751 0
M  V30 5839 C 526.636 -0.265708 -1.68012 0
M  V30 5840 O 527.821 -0.47076 -1.88408 0
M  V30 5841 C 524.951 -1.2392 -3.2444 0
M  V30 5842 C 523.905 -2.34858 -3.57807 0
M  V30 5843 C 523.231 -2.03707 -4.94376 0
M  V30 5844 C 524.531 -3.77159 -3.61315 0
M  V30 5845 H 526.225 -2.345 -1.86145 0
M  V30 5846 H 523.771 -1.12875 -0.89416 0
M  V30 5847 H 525.724 -1.23263 -4.02969 0
M  V30 5848 H 524.448 -0.26051 -3.25559 0
M  V30 5849 H 523.107 -2.34723 -2.81604 0
M  V30 5850 H 522.755 -1.04289 -4.9207 0
M  V30 5851 H 522.455 -2.78016 -5.17669 0
M  V30 5852 H 523.979 -2.04691 -5.75268 0
M  V30 5853 H 525.393 -3.79252 -4.29931 0
M  V30 5854 H 523.79 -4.50784 -3.96124 0
M  V30 5855 H 524.86 -4.08513 -2.61238 0
M  V30 5856 N 526.204 0.969867 -1.24223 0
M  V30 5857 C 527.453 1.70687 -1.07466 0
M  V30 5858 C 527.766 1.91736 0.386861 0
M  V30 5859 O 528.972 2.62986 0.674581 0
M  V30 5860 C 527.428 3.07217 -1.87472 0
M  V30 5861 C 527.036 2.94018 -3.3802 0
M  V30 5862 C 528.78 3.84804 -1.79237 0
M  V30 5863 C 526.687 4.25844 -4.10379 0
M  V30 5864 H 525.617 0.640067 -0.398536 0
M  V30 5865 H 528.268 1.08092 -1.48285 0
M  V30 5866 H 526.65 3.70628 -1.39466 0
M  V30 5867 H 527.824 2.39632 -3.9359 0
M  V30 5868 H 526.139 2.29898 -3.47183 0
M  V30 5869 H 528.736 4.82417 -2.30603 0
M  V30 5870 H 529.079 4.09356 -0.757197 0
M  V30 5871 H 529.612 3.28115 -2.24912 0
M  V30 5872 H 526.351 4.06486 -5.14246 0
M  V30 5873 H 525.871 4.80054 -3.59594 0
M  V30 5874 H 527.55 4.94475 -4.17257 0
M  V30 5875 N 527.682 1.05563 1.17022 0
M  V30 5876 C 528.612 0.681026 2.23348 0
M  V30 5877 C 529.593 -0.322983 1.67005 0
M  V30 5878 O 530.778 -0.199746 1.9317 0
M  V30 5879 C 527.908 0.0589053 3.4725 0
M  V30 5880 C 526.862 0.988082 4.16438 0
M  V30 5881 C 526.188 0.229646 5.34207 0
M  V30 5882 C 527.488 2.31388 4.68249 0
M  V30 5883 H 529.182 1.56993 2.54938 0
M  V30 5884 H 526.728 0.756302 1.2254 0
M  V30 5885 H 528.681 -0.214982 4.20851 0
M  V30 5886 H 527.405 -0.864968 3.14938 0
M  V30 5887 H 526.064 1.24659 3.44754 0
M  V30 5888 H 525.712 -0.697111 4.98146 0
M  V30 5889 H 525.412 0.848815 5.81437 0
M  V30 5890 H 526.936 -0.0368694 6.10589 0
M  V30 5891 H 528.35 2.09964 5.33468 0
M  V30 5892 H 526.747 2.88736 5.26072 0
M  V30 5893 H 527.817 2.94982 3.84855 0
M  V30 5894 N 529.16 -1.33526 0.837174 0
M  V30 5895 C 530.576 -1.50727 0.524743 0
M  V30 5896 C 530.776 -1.77792 -0.948279 0
M  V30 5897 O 529.832 -1.83719 -1.73216 0
M  V30 5898 C 531.145 -2.66299 1.39661 0
M  V30 5899 C 532.693 -2.80183 1.39521 0
M  V30 5900 C 533.168 -3.98815 2.25189 0
M  V30 5901 N 534.659 -4.06047 2.2289 0
M  V30 5902 C 535.394 -4.97032 2.85915 0
M  V30 5903 N 534.89 -5.93143 3.57985 0
M  V30 5904 N 536.683 -4.90015 2.75394 0
M  V30 5905 H 528.834 -1.1422 1.79074 0
M  V30 5906 H 531.097 -0.561399 0.763894 0
M  V30 5907 H 530.803 -2.52974 2.4433 0
M  V30 5908 H 530.677 -3.61663 1.07145 0
M  V30 5909 H 533.064 -2.92942 0.356253 0
M  V30 5910 H 533.145 -1.85586 1.76044 0
M  V30 5911 H 532.789 -3.86817 3.29143 0
M  V30 5912 H 532.719 -4.92654 1.86009 0
M  V30 5913 H 535.21 -3.37262 1.70478 0
M  V30 5914 H 535.523 -6.59227 4.03286 0
M  V30 5915 H 533.868 -5.93223 3.62093 0
M  V30 5916 H 537.059 -4.13894 2.18654 0
M  V30 5917 H 537.232 -5.60724 3.24796 0
M  V30 5918 N 530.638 -0.59345 -1.46 0
M  V30 5919 C 531.885 -0.0831523 -2.02329 0
M  V30 5920 C 532.213 1.28093 -1.46364 0
M  V30 5921 O 531.468 1.85526 -0.622793 0
M  V30 5922 C 531.767 0.021178 -3.57394 0
M  V30 5923 C 531.433 -1.27671 -4.32448 0
M  V30 5924 C 530.095 -1.63227 -4.5267 0
M  V30 5925 C 532.447 -2.13511 -4.7546 0
M  V30 5926 C 529.775 -2.84401 -5.1316 0
M  V30 5927 C 532.127 -3.33922 -5.37289 0
M  V30 5928 C 530.791 -3.69747 -5.55737 0
M  V30 5929 H 530.061 -0.0304276 -0.740375 0
M  V30 5930 H 532.708 -0.772239 -1.75239 0
M  V30 5931 H 531.013 0.793454 -3.83682 0
M  V30 5932 H 532.71 0.431942 -3.98667 0
M  V30 5933 H 529.3 -0.989937 -4.17011 0
M  V30 5934 H 533.484 -1.87344 -4.59582 0
M  V30 5935 H 528.74 -3.12282 -5.25633 0
M  V30 5936 H 532.914 -4.00698 -5.69574 0
M  V30 5937 H 530.541 -4.6373 -6.02377 0
M  V30 5938 N 532.116 1.54067 -0.331816 0
M  V30 5939 C 533.356 2.02625 0.26876 0
M  V30 5940 C 533.72 1.21462 1.48697 0
M  V30 5941 O 534.921 1.59863 2.16096 0
M  V30 5942 C 533.192 3.52554 0.586577 0
M  V30 5943 S 534.751 4.23035 1.16563 0
M  V30 5944 H 531.569 0.706395 0.0807862 0
M  V30 5945 H 534.171 1.89844 -0.466856 0
M  V30 5946 H 532.875 4.09242 -0.308046 0
M  V30 5947 H 532.406 3.69432 1.35217 0
M  V30 5948 H 534.421 4.31382 2.45203 0
M  V30 5949 N 533.594 0.0601682 1.57485 0
M  V30 5950 C 534.834 -0.615384 1.94916 0
M  V30 5951 C 535.198 -1.67475 0.938948 0
M  V30 5952 O 536.399 -2.40502 1.20051 0
M  V30 5953 C 534.67 -1.18788 3.37082 0
M  V30 5954 S 536.229 -1.88018 3.96478 0
M  V30 5955 H 533.047 -0.201821 0.681754 0
M  V30 5956 H 535.649 0.131252 1.95059 0
M  V30 5957 H 534.353 -0.404869 4.08398 0
M  V30 5958 H 533.884 -1.97114 3.40455 0
M  V30 5959 H 535.899 -3.16161 3.82435 0
M  V30 5960 N 535.072 -1.5615 -0.213296 0
M  V30 5961 C 535.982 -1.96265 -1.28519 0
M  V30 5962 C 536.998 -0.86765 -1.50824 0
M  V30 5963 O 538.174 -1.17191 -1.63793 0
M  V30 5964 C 535.239 -2.27836 -2.61327 0
M  V30 5965 C 534.3 -3.50949 -2.47252 0
M  V30 5966 C 533.533 -3.81004 -3.73727 0
M  V30 5967 O 533.756 -3.12612 -4.77106 0
M  V30 5968 O 532.69 -4.74477 -3.70344 0
M  V30 5969 H 536.516 -2.87631 -0.974795 0
M  V30 5970 H 534.101 -1.43467 -0.416832 0
M  V30 5971 H 535.983 -2.49299 -3.39747 0
M  V30 5972 H 534.658 -1.39643 -2.9203 0
M  V30 5973 H 533.565 -3.34754 -1.67004 0
M  V30 5974 H 534.898 -4.39551 -2.21486 0
M  V30 5975 N 536.55 0.480323 -1.50102 0
M  V30 5976 C 537.796 1.23208 -1.61837 0
M  V30 5977 C 538.151 1.89878 -0.310509 0
M  V30 5978 O 537.444 1.7871 0.690897 0
M  V30 5979 C 537.638 2.30708 -2.72963 0
M  V30 5980 C 537.467 1.74583 -4.14428 0
M  V30 5981 C 536.237 1.54964 -4.80951 0
M  V30 5982 C 538.435 1.24597 -4.98979 0
M  V30 5983 N 536.417 0.939855 -6.06663 0
M  V30 5984 C 537.788 0.758834 -6.15339 0
M  V30 5985 C 539.843 1.13365 -4.84822 0
M  V30 5986 C 538.546 0.17046 -7.19098 0
M  V30 5987 C 540.572 0.559221 -5.8875 0
M  V30 5988 C 539.934 0.082415 -7.04352 0
M  V30 5989 H 536.033 0.440065 -0.646426 0
M  V30 5990 H 538.617 0.535632 -1.87187 0
M  V30 5991 H 536.788 2.9779 -2.4935 0
M  V30 5992 H 538.52 2.97738 -2.74106 0
M  V30 5993 H 535.275 1.79926 -4.38091 0
M  V30 5994 H 535.699 0.653641 -6.73837 0
M  V30 5995 H 540.341 1.48823 -3.95742 0
M  V30 5996 H 538.059 -0.196347 -8.07861 0
M  V30 5997 H 541.645 0.474804 -5.79859 0
M  V30 5998 H 540.525 -0.355119 -7.83396 0
M  V30 5999 N 538.028 1.39524 0.732853 0
M  V30 6000 C 538.938 1.40695 1.87729 0
M  V30 6001 C 539.954 0.301496 1.71368 0
M  V30 6002 O 541.13 0.543313 1.93933 0
M  V30 6003 C 538.195 1.25098 3.23344 0
M  V30 6004 C 537.256 2.45634 3.52083 0
M  V30 6005 C 536.489 2.30772 4.81228 0
M  V30 6006 O 536.712 1.31233 5.55098 0
M  V30 6007 O 535.646 3.19799 5.09914 0
M  V30 6008 H 539.472 2.37168 1.89697 0
M  V30 6009 H 537.057 1.20663 0.880959 0
M  V30 6010 H 538.939 1.18541 4.04383 0
M  V30 6011 H 537.614 0.317209 3.22142 0
M  V30 6012 H 536.521 2.57767 2.71122 0
M  V30 6013 H 537.854 3.37712 3.58066 0
M  V30 6014 N 539.506 -0.963266 1.24736 0
M  V30 6015 C 540.456 -2.0438 1.01058 0
M  V30 6016 C 541.44 -1.60824 -0.0495354 0
M  V30 6017 O 542.632 -1.76232 0.164741 0
M  V30 6018 C 539.761 -3.37617 0.622067 0
M  V30 6019 C 538.847 -3.87722 1.7185 0
M  V30 6020 N 539.238 -4.10715 2.95207 0
M  V30 6021 C 537.536 -4.16426 1.59703 0
M  V30 6022 C 538.237 -4.51872 3.66315 0
M  V30 6023 N 537.213 -4.57302 2.93897 0
M  V30 6024 H 541.015 -2.20138 1.94721 0
M  V30 6025 H 538.529 -1.14741 1.14927 0
M  V30 6026 H 540.526 -4.14638 0.43366 0
M  V30 6027 H 539.186 -3.23242 -0.307327 0
M  V30 6028 H 540.197 -3.98037 3.31341 0
M  V30 6029 H 536.874 -4.10962 0.73598 0
M  V30 6030 H 538.264 -4.78037 4.72155 0
M  V30 6031 N 540.985 -1.06182 -1.16461 0
M  V30 6032 C 542.401 -0.785065 -1.38956 0
M  V30 6033 C 542.601 0.616103 -1.9185 0
M  V30 6034 O 541.657 1.37686 -2.11657 0
M  V30 6035 C 542.97 -1.84902 -2.37132 0
M  V30 6036 C 544.518 -1.8724 -2.50819 0
M  V30 6037 C 544.993 -2.92686 -3.52277 0
M  V30 6038 N 546.484 -2.91712 -3.59803 0
M  V30 6039 C 547.219 -3.69949 -4.38093 0
M  V30 6040 N 546.715 -4.58 -5.19815 0
M  V30 6041 N 548.508 -3.58346 -4.33064 0
M  V30 6042 H 540.659 -1.96569 -0.804634 0
M  V30 6043 H 542.922 -0.851747 -0.416211 0
M  V30 6044 H 542.628 -2.85518 -2.0536 0
M  V30 6045 H 542.502 -1.69908 -3.36766 0
M  V30 6046 H 544.889 -0.872827 -2.81897 0
M  V30 6047 H 544.97 -2.06311 -1.51226 0
M  V30 6048 H 544.614 -3.92835 -3.21937 0
M  V30 6049 H 544.544 -2.70864 -4.51598 0
M  V30 6050 H 547.035 -2.27876 -3.01464 0
M  V30 6051 H 547.348 -5.14357 -5.76764 0
M  V30 6052 H 545.693 -4.62056 -5.19162 0
M  V30 6053 H 548.884 -2.88943 -3.68279 0
M  V30 6054 H 549.057 -4.19563 -4.93833 0
M  V30 6055 N 542.463 1.3308 -0.844243 0
M  V30 6056 C 543.712 1.96868 -0.438833 0
M  V30 6057 C 544.025 1.67599 1.00846 0
M  V30 6058 O 545.231 2.25043 1.51881 0
M  V30 6059 C 543.687 3.5234 -0.73377 0
M  V30 6060 C 543.295 3.90481 -2.1961 0
M  V30 6061 C 545.039 4.22653 -0.395574 0
M  V30 6062 C 542.946 5.38954 -2.43481 0
M  V30 6063 H 541.876 0.736749 -0.160364 0
M  V30 6064 H 544.527 1.51623 -1.03358 0
M  V30 6065 H 542.909 3.95941 -0.068589 0
M  V30 6066 H 544.083 3.57922 -2.90221 0
M  V30 6067 H 542.398 3.33165 -2.4978 0
M  V30 6068 H 544.995 5.31848 -0.551477 0
M  V30 6069 H 545.338 4.11004 0.661921 0
M  V30 6070 H 545.871 3.84601 -1.01621 0
M  V30 6071 H 542.61 5.55612 -3.47816 0
M  V30 6072 H 542.13 5.72954 -1.77437 0
M  V30 6073 H 543.809 6.05907 -2.26905 0
M  V30 6074 N 543.941 0.601185 1.45683 0
M  V30 6075 C 545.189 0.0936957 2.01883 0
M  V30 6076 C 545.51 -1.2779 1.47291 0
M  V30 6077 O 544.78 -1.84279 0.664691 0
M  V30 6078 H 543.36 0.0316466 0.746329 0
M  V30 6079 H 546.022 0.781137 1.78562 0
M  V30 6080 H 545.118 0.0386297 3.12076 0
M  V30 6081 N 545.419 -1.53889 0.339982 0
M  V30 6082 C 546.382 -2.23547 -0.50592 0
M  V30 6083 C 547.382 -1.23445 -1.03044 0
M  V30 6084 O 548.572 -1.47909 -0.920253 0
M  V30 6085 C 545.704 -2.95234 -1.7044 0
M  V30 6086 H 546.897 -2.99722 0.103247 0
M  V30 6087 H 544.45 -1.56033 0.0912804 0
M  V30 6088 H 545.185 -2.23236 -2.35236 0
M  V30 6089 H 544.97 -3.68654 -1.33553 0
M  V30 6090 H 546.46 -3.48258 -2.30447 0
M  V30 6091 N 546.897 -0.0685191 -1.57451 0
M  V30 6092 C 548.308 0.464634 -1.80826 0
M  V30 6093 C 548.659 1.69847 -0.982169 0
M  V30 6094 O 547.784 2.15439 -0.203734 0
M  V30 6095 C 548.379 0.849721 -3.27971 0
M  V30 6096 C 546.938 1.32776 -3.52204 0
M  V30 6097 C 546.085 0.311332 -2.75547 0
M  V30 6098 H 549.036 -0.294248 -1.55948 0
M  V30 6099 H 549.057 1.71138 -3.39841 0
M  V30 6100 H 548.569 -0.0484736 -3.8807 0
M  V30 6101 H 546.67 2.24456 -2.97406 0
M  V30 6102 H 546.783 1.30794 -4.60901 0
M  V30 6103 H 545.147 0.787915 -2.42206 0
M  V30 6104 H 545.93 -0.579078 -3.38381 0
M  V30 6105 N 548.375 1.56261 0.205012 0
M  V30 6106 C 549.623 1.79684 0.925096 0
M  V30 6107 C 549.944 0.63989 1.84202 0
M  V30 6108 O 549.214 -0.342345 1.92885 0
M  V30 6109 H 547.794 0.662774 0.344587 0
M  V30 6110 H 550.456 1.93734 0.212899 0
M  V30 6111 H 549.552 2.72467 1.52211 0
M  V30 6112 N 549.853 -0.472356 1.50355 0
M  V30 6113 C 551.099 -1.22634 1.6152 0
M  V30 6114 C 551.432 -1.91645 0.313995 0
M  V30 6115 O 550.707 -1.82059 -0.684446 0
M  V30 6116 C 550.99 -2.27099 2.7946 0
M  V30 6117 C 550.843 -1.62402 4.19459 0
M  V30 6118 C 552.162 -3.28421 2.92964 0
M  V30 6119 H 549.281 -0.444494 0.587873 0
M  V30 6120 H 551.923 -0.520321 1.82737 0
M  V30 6121 H 550.073 -2.87314 2.61501 0
M  V30 6122 H 551.745 -1.05793 4.49005 0
M  V30 6123 H 549.988 -0.927184 4.23776 0
M  V30 6124 H 550.659 -2.38309 4.97909 0
M  V30 6125 H 553.135 -2.78227 3.09401 0
M  V30 6126 H 552.011 -3.98845 3.77113 0
M  V30 6127 H 552.272 -3.92467 2.03525 0
M  V30 6128 N 551.331 -1.39911 -0.725443 0
M  V30 6129 C 552.241 -1.41688 -1.8698 0
M  V30 6130 C 553.257 -0.310579 -1.71206 0
M  V30 6131 O 554.433 -0.55359 -1.93642 0
M  V30 6132 C 551.498 -1.26811 -3.22676 0
M  V30 6133 C 550.559 -2.47497 -3.50776 0
M  V30 6134 C 549.792 -2.3332 -4.79997 0
M  V30 6135 O 550.015 -1.34175 -5.54394 0
M  V30 6136 O 548.949 -3.22498 -5.08211 0
M  V30 6137 H 552.775 -2.38171 -1.88436 0
M  V30 6138 H 550.36 -1.21128 -0.874548 0
M  V30 6139 H 552.242 -1.20684 -4.03749 0
M  V30 6140 H 550.917 -0.334289 -3.21969 0
M  V30 6141 H 549.824 -2.59201 -2.69751 0
M  V30 6142 H 551.157 -3.39606 -3.5627 0
M  V30 6143 N 552.809 0.956637 -1.25245 0
M  V30 6144 C 553.719 2.0868 -1.0719 0
M  V30 6145 C 554.735 1.73997 -0.00959074 0
M  V30 6146 O 555.911 2.00301 -0.210104 0
M  V30 6147 C 552.976 3.39754 -0.690526 0
M  V30 6148 C 552.037 3.88316 -1.83055 0
M  V30 6149 C 551.27 5.13134 -1.46728 0
M  V30 6150 O 551.493 5.6925 -0.362029 0
M  V30 6151 O 550.427 5.56356 -2.29677 0
M  V30 6152 H 554.253 2.26813 -2.01965 0
M  V30 6153 H 551.838 1.07098 -1.04165 0
M  V30 6154 H 553.72 4.18543 -0.489871 0
M  V30 6155 H 552.395 3.22896 0.227981 0
M  V30 6156 H 551.302 3.1054 -2.08604 0
M  V30 6157 H 552.635 4.09669 -2.72822 0
M  V30 6158 N 554.287 1.06798 1.15896 0
M  V30 6159 C 555.536 0.782796 1.8589 0
M  V30 6160 C 555.849 -0.693498 1.82893 0
M  V30 6161 O 557.055 -1.09325 2.48516 0
M  V30 6162 C 555.511 1.3502 3.33613 0
M  V30 6163 C 555.119 2.8571 3.45071 0
M  V30 6164 C 556.863 1.14278 4.08829 0
M  V30 6165 C 554.77 3.35669 4.86909 0
M  V30 6166 H 553.7 0.289149 0.696354 0
M  V30 6167 H 556.351 1.28734 1.30766 0
M  V30 6168 H 554.733 0.773407 3.88374 0
M  V30 6169 H 555.907 3.49385 3.00445 0
M  V30 6170 H 554.222 3.05178 2.83294 0
M  V30 6171 H 556.819 1.49087 5.13495 0
M  V30 6172 H 557.162 0.0814575 4.1622 0
M  V30 6173 H 557.695 1.68563 3.60321 0
M  V30 6174 H 554.434 4.41302 4.84698 0
M  V30 6175 H 553.954 2.76745 5.32139 0
M  V30 6176 H 555.633 3.31296 5.55745 0
M  V30 6177 N 555.766 -1.3263 0.851289 0
M  V30 6178 C 556.713 -2.28952 0.291469 0
M  V30 6179 C 557.683 -1.54897 -0.599676 0
M  V30 6180 O 558.868 -1.83137 -0.535305 0
M  V30 6181 C 556.008 -3.41206 -0.516992 0
M  V30 6182 C 555.121 -4.30148 0.399566 0
M  V30 6183 C 554.256 -5.29527 -0.4212 0
M  V30 6184 C 553.295 -6.10112 0.492969 0
M  V30 6185 N 552.432 -7.01499 -0.290414 0
M  V30 6186 H 557.272 -2.76228 1.11813 0
M  V30 6187 H 554.809 -1.35907 0.562826 0
M  V30 6188 H 556.767 -4.05005 -1.00132 0
M  V30 6189 H 555.397 -2.9509 -1.30851 0
M  V30 6190 H 554.449 -3.66959 1.00227 0
M  V30 6191 H 555.761 -4.8649 1.1013 0
M  V30 6192 H 554.915 -5.98914 -0.968832 0
M  V30 6193 H 553.654 -4.73794 -1.15632 0
M  V30 6194 H 552.659 -5.39632 1.05251 0
M  V30 6195 H 553.884 -6.6793 1.22664 0
M  V30 6196 H 551.83 -6.48199 -1.00868 0
M  V30 6197 H 551.747 -7.55178 0.352354 0
M  V30 6198 H 553.015 -7.75176 -0.819882 0
M  V30 6199 N 557.244 -0.608902 -1.45362 0
M  V30 6200 C 558.469 -0.10921 -2.07112 0
M  V30 6201 C 558.894 1.19779 -1.45033 0
M  V30 6202 O 558.252 1.72961 -0.543527 0
M  V30 6203 C 558.3 0.0155745 -3.60597 0
M  V30 6204 O 557.404 1.06546 -3.98399 0
M  V30 6205 H 556.745 -0.0746619 -0.659789 0
M  V30 6206 H 559.275 -0.839283 -1.86594 0
M  V30 6207 H 559.285 0.213364 -4.07442 0
M  V30 6208 H 557.96 -0.938765 -4.05167 0
M  V30 6209 H 556.537 0.844024 -3.63223 0
M  V30 6210 N 558.722 1.53707 -0.348139 0
M  V30 6211 C 559.67 2.26671 0.521808 0
M  V30 6212 C 560.664 1.28988 1.09811 0
M  V30 6213 O 561.87 1.4668 1.04332 0
M  V30 6214 H 558.245 0.728387 0.186968 0
M  V30 6215 H 560.216 2.98176 -0.115563 0
M  V30 6216 C 558.965 3.05591 1.6586 0
M  V30 6217 H 558.288 3.80589 1.22443 0
M  V30 6218 H 559.728 3.59851 2.24239 0
M  V30 6219 C 558.187 2.15366 2.59073 0
M  V30 6220 O 558.717 1.7528 3.61441 0
M  V30 6221 N 556.923 1.80352 2.27863 0
M  V30 6222 H 556.47 2.13149 1.44656 0
M  V30 6223 H 556.428 1.20268 2.90488 0
M  V30 6224 N 560.2 0.0768682 1.57412 0
M  V30 6225 C 561.425 -0.603404 1.98428 0
M  V30 6226 C 561.85 -1.62047 0.955108 0
M  V30 6227 O 561.208 -1.81129 -0.0786778 0
M  V30 6228 C 561.256 -1.24396 3.38464 0
M  V30 6229 O 560.36 -2.35982 3.3821 0
M  V30 6230 H 559.701 -0.154741 0.645718 0
M  V30 6231 H 562.231 0.152885 2.04028 0
M  V30 6232 H 562.241 -1.5896 3.7576 0
M  V30 6233 H 560.916 -0.498735 4.12899 0
M  V30 6234 H 559.493 -2.03173 3.1269 0
M  V30 6235 N 561.678 -1.56367 -0.196722 0
M  V30 6236 C 562.925 -1.80529 -0.917366 0
M  V30 6237 C 563.253 -0.649817 -1.83324 0
M  V30 6238 O 562.508 0.36451 -1.92275 0
M  V30 6239 C 562.807 -3.10663 -1.767 0
M  V30 6240 C 562.473 -4.3962 -1.00225 0
M  V30 6241 C 561.135 -4.74653 -0.791095 0
M  V30 6242 C 563.487 -5.1913 -0.464035 0
M  V30 6243 C 560.815 -5.86692 -0.0302155 0
M  V30 6244 C 563.167 -6.31964 0.283625 0
M  V30 6245 C 561.831 -6.65581 0.505813 0
M  V30 6246 H 561.101 -0.660602 -0.335688 0
M  V30 6247 H 563.748 -1.90615 -0.183844 0
M  V30 6248 H 562.053 -2.95807 -2.56915 0
M  V30 6249 H 563.75 -3.26563 -2.32718 0
M  V30 6250 H 560.34 -4.12127 -1.17684 0
M  V30 6251 H 564.524 -4.9248 -0.614575 0
M  V30 6252 H 559.78 -6.11211 0.151917 0
M  V30 6253 H 563.954 -6.92791 0.708057 0
M  V30 6254 H 561.581 -7.52239 1.0973 0
M  V30 6255 N 563.156 0.464375 -1.50603 0
M  V30 6256 C 564.403 1.21596 -1.61928 0
M  V30 6257 C 564.731 1.91804 -0.322737 0
M  V30 6258 O 563.986 1.83065 0.691776 0
M  V30 6259 C 564.285 2.278 -2.75394 0
M  V30 6260 C 563.951 1.74797 -4.1564 0
M  V30 6261 C 562.613 1.60063 -4.53799 0
M  V30 6262 C 564.965 1.35548 -5.03266 0
M  V30 6263 C 562.293 1.04514 -5.77316 0
M  V30 6264 C 564.645 0.814381 -6.27336 0
M  V30 6265 C 563.309 0.653726 -6.64291 0
M  V30 6266 H 562.579 0.444951 -0.592536 0
M  V30 6267 H 565.226 0.510964 -1.84557 0
M  V30 6268 H 563.531 3.04233 -2.46879 0
M  V30 6269 H 565.228 2.85723 -2.81359 0
M  V30 6270 H 561.818 1.87234 -3.8554 0
M  V30 6271 H 566.002 1.45763 -4.74412 0
M  V30 6272 H 561.258 0.908186 -6.04617 0
M  V30 6273 H 565.432 0.501626 -6.94591 0
M  V30 6274 H 563.059 0.22114 -7.59878 0
M  V30 6275 N 564.634 1.40294 0.718013 0
M  V30 6276 C 565.544 1.42678 1.86226 0
M  V30 6277 C 566.56 0.319655 1.71039 0
M  V30 6278 O 567.736 0.563852 1.93346 0
M  V30 6279 C 564.801 1.2852 3.21999 0
M  V30 6280 C 563.862 2.49354 3.49458 0
M  V30 6281 C 563.095 2.35863 4.78753 0
M  V30 6282 O 563.318 1.37114 5.53675 0
M  V30 6283 O 562.252 3.25189 5.06494 0
M  V30 6284 H 566.078 2.39167 1.87171 0
M  V30 6285 H 563.663 1.2159 0.868112 0
M  V30 6286 H 565.545 1.22824 4.03103 0
M  V30 6287 H 564.22 0.351359 3.21787 0
M  V30 6288 H 563.127 2.60628 2.68373 0
M  V30 6289 H 564.46 3.41491 3.54464 0
M  V30 6290 N 566.112 -0.949982 1.2575 0
M  V30 6291 C 567.36 -1.6918 1.10555 0
M  V30 6292 C 567.681 -1.91773 -0.353298 0
M  V30 6293 O 566.951 -1.50814 -1.25027 0
M  V30 6294 H 565.531 -0.626952 0.406129 0
M  V30 6295 H 568.193 -1.1419 1.57945 0
M  V30 6296 H 567.289 -2.66915 1.61749 0
M  V30 6297 N 567.59 -1.07411 -1.15328 0
M  V30 6298 C 568.836 -0.798831 -1.86404 0
M  V30 6299 C 569.169 0.673433 -1.8215 0
M  V30 6300 O 568.444 1.49428 -1.24505 0
M  V30 6301 C 568.727 -1.30846 -3.35487 0
M  V30 6302 C 568.58 -2.84532 -3.4837 0
M  V30 6303 C 569.899 -0.925486 -4.30259 0
M  V30 6304 H 567.018 -0.291659 -0.676834 0
M  V30 6305 H 569.66 -1.332 -1.35491 0
M  V30 6306 H 567.81 -0.854916 -3.78977 0
M  V30 6307 H 569.482 -3.3818 -3.13739 0
M  V30 6308 H 567.725 -3.22699 -2.8991 0
M  V30 6309 H 568.396 -3.15259 -4.53118 0
M  V30 6310 H 570.872 -1.3163 -3.94731 0
M  V30 6311 H 569.748 -1.3094 -5.33053 0
M  V30 6312 H 570.009 0.168525 -4.41779 0
M  V30 6313 N 569.068 1.32177 -0.85831 0
M  V30 6314 C 570.345 1.91781 -0.384624 0
M  V30 6315 C 570.725 1.78171 1.13217 0
M  V30 6316 O 570.073 1.18209 1.95548 0
M  V30 6317 C 570.283 3.38414 -0.853047 0
M  V30 6318 C 571.631 4.15542 -0.872359 0
M  V30 6319 O 572.655 3.47148 -0.797926 0
M  V30 6320 O 571.514 5.37678 -0.978009 0
M  V30 6321 H 568.608 0.819259 -0.112886 0
M  V30 6322 H 571.154 1.40923 -0.945453 0
M  V30 6323 H 569.926 3.4228 -1.89632 0
M  V30 6324 H 569.549 3.96683 -0.269874 0
M  V30 6325 N 570.547 0.616602 1.45037 0
M  V30 6326 C 571.793 0.123965 2.03022 0
M  V30 6327 C 572.148 -1.23508 1.47525 0
M  V30 6328 O 571.441 -1.80453 0.643981 0
M  V30 6329 C 571.635 0.0356829 3.57382 0
M  V30 6330 C 571.464 1.38462 4.27853 0
M  V30 6331 C 570.234 1.96766 4.65415 0
M  V30 6332 C 572.432 2.31536 4.59234 0
M  V30 6333 N 570.414 3.25046 5.20786 0
M  V30 6334 C 571.785 3.4442 5.15533 0
M  V30 6335 C 573.84 2.30796 4.41178 0
M  V30 6336 C 572.543 4.56742 5.55679 0
M  V30 6337 C 574.569 3.42171 4.82362 0
M  V30 6338 C 573.931 4.53778 5.38762 0
M  V30 6339 H 570.03 0.0889428 0.776925 0
M  V30 6340 H 572.614 0.816925 1.76733 0
M  V30 6341 H 570.785 -0.62652 3.83314 0
M  V30 6342 H 572.517 -0.464443 4.02026 0
M  V30 6343 H 569.272 1.4987 4.49261 0
M  V30 6344 H 569.696 3.90592 5.52962 0
M  V30 6345 H 574.338 1.45765 3.96878 0
M  V30 6346 H 572.056 5.42491 5.9894 0
M  V30 6347 H 575.642 3.42757 4.70116 0
M  V30 6348 H 574.522 5.38536 5.70043 0
M  V30 6349 N 572.025 -1.5352 0.356285 0
M  V30 6350 C 572.935 -2.29151 -0.502712 0
M  V30 6351 C 573.951 -1.34753 -1.1008 0
M  V30 6352 O 575.127 -1.67803 -1.11374 0
M  V30 6353 C 572.192 -3.05911 -1.63154 0
M  V30 6354 C 571.253 -4.15958 -1.06194 0
M  V30 6355 C 570.486 -4.8905 -2.13696 0
M  V30 6356 O 570.709 -4.61919 -3.34645 0
M  V30 6357 O 569.643 -5.75202 -1.77275 0
M  V30 6358 H 573.469 -3.03492 0.112466 0
M  V30 6359 H 571.054 -1.4891 0.120942 0
M  V30 6360 H 572.936 -3.53874 -2.28804 0
M  V30 6361 H 571.611 -2.34415 -2.23229 0
M  V30 6362 H 570.518 -3.7227 -0.369603 0
M  V30 6363 H 571.851 -4.89593 -0.505872 0
M  V30 6364 N 573.503 -0.0852151 -1.57369 0
M  V30 6365 C 574.453 0.88767 -2.10011 0
M  V30 6366 C 575.437 1.25021 -1.01285 0
M  V30 6367 O 576.629 1.22694 -1.27574 0
M  V30 6368 C 573.758 2.15037 -2.67608 0
M  V30 6369 C 572.844 1.81371 -3.83361 0
M  V30 6370 N 573.235 1.18216 -4.91791 0
M  V30 6371 C 571.533 2.11041 -3.92909 0
M  V30 6372 C 572.234 1.02941 -5.72519 0
M  V30 6373 N 571.21 1.54351 -5.21226 0
M  V30 6374 H 575.012 0.395279 -2.9123 0
M  V30 6375 H 572.526 0.11829 -1.61969 0
M  V30 6376 H 574.523 2.85667 -3.03644 0
M  V30 6377 H 573.183 2.64851 -1.8784 0
M  V30 6378 H 574.194 0.850168 -5.10874 0
M  V30 6379 H 570.871 2.63138 -3.24136 0
M  V30 6380 H 572.261 0.536298 -6.69756 0
M  V30 6381 N 574.981 1.5647 0.188427 0
M  V30 6382 C 576.23 1.80207 0.905995 0
M  V30 6383 C 576.543 0.659579 1.84144 0
M  V30 6384 O 577.749 0.781431 2.60011 0
M  V30 6385 C 576.205 3.19255 1.66145 0
M  V30 6386 C 575.813 4.41324 0.770504 0
M  V30 6387 C 577.557 3.52298 2.36826 0
M  V30 6388 C 575.464 5.71394 1.52521 0
M  V30 6389 H 574.394 0.671953 0.342045 0
M  V30 6390 H 577.045 1.82808 0.159164 0
M  V30 6391 H 575.427 3.10922 2.45242 0
M  V30 6392 H 576.601 4.60797 0.0177261 0
M  V30 6393 H 574.916 4.16035 0.174199 0
M  V30 6394 H 577.513 4.46715 2.93854 0
M  V30 6395 H 577.856 2.76359 3.11338 0
M  V30 6396 H 578.389 3.62108 1.6469 0
M  V30 6397 H 575.128 6.50316 0.82275 0
M  V30 6398 H 574.648 5.55928 2.25175 0
M  V30 6399 H 576.327 6.12747 2.07725 0
M  V30 6400 N 576.459 -0.456382 1.50847 0
M  V30 6401 C 577.875 -0.791345 1.386 0
M  V30 6402 C 578.075 -1.9633 0.453498 0
M  V30 6403 O 577.131 -2.52308 -0.0984353 0
M  V30 6404 C 578.444 -1.08959 2.80265 0
M  V30 6405 C 579.992 -1.19517 2.89283 0
M  V30 6406 C 580.467 -1.52647 4.31814 0
M  V30 6407 N 581.958 -1.59609 4.34832 0
M  V30 6408 C 582.693 -1.86777 5.42127 0
M  V30 6409 N 582.189 -2.11866 6.59609 0
M  V30 6410 N 583.982 -1.88402 5.29586 0
M  V30 6411 H 576.133 0.315746 2.1004 0
M  V30 6412 H 578.396 0.0787916 0.94472 0
M  V30 6413 H 578.102 -0.301355 3.50407 0
M  V30 6414 H 577.976 -2.02211 3.18419 0
M  V30 6415 H 580.363 -1.97406 2.19351 0
M  V30 6416 H 580.444 -0.242111 2.54652 0
M  V30 6417 H 580.088 -0.752922 5.02288 0
M  V30 6418 H 580.018 -2.49127 4.63943 0
M  V30 6419 H 582.509 -1.42201 3.50125 0
M  V30 6420 H 582.822 -2.31912 7.37182 0
M  V30 6421 H 581.167 -2.09228 6.62758 0
M  V30 6422 H 584.358 -1.68307 4.36795 0
M  V30 6423 H 584.531 -2.09238 6.13289 0
M  V30 6424 N 577.937 -1.40673 -0.710563 0
M  V30 6425 C 578.847 -1.43663 -1.85467 0
M  V30 6426 C 579.863 -0.328721 -1.70867 0
M  V30 6427 O 581.039 -0.574098 -1.93044 0
M  V30 6428 C 578.104 -1.30226 -3.21313 0
M  V30 6429 C 577.165 -2.51204 -3.48131 0
M  V30 6430 C 576.398 -2.38398 -4.77495 0
M  V30 6431 O 576.621 -1.40048 -5.5294 0
M  V30 6432 O 575.555 -3.2787 -5.04762 0
M  V30 6433 H 579.381 -2.40156 -1.859 0
M  V30 6434 H 576.966 -1.22049 -0.861652 0
M  V30 6435 H 578.848 -1.2496 -4.02446 0
M  V30 6436 H 577.523 -0.368419 -3.21597 0
M  V30 6437 H 576.43 -2.62048 -2.66987 0
M  V30 6438 H 577.763 -3.43366 -3.52648 0
M  V30 6439 N 579.415 0.9433 -1.26252 0
M  V30 6440 C 580.831 1.21644 -1.03319 0
M  V30 6441 C 581.031 2.0003 0.242983 0
M  V30 6442 O 580.087 2.33838 0.952688 0
M  V30 6443 C 581.4 1.97978 -2.2633 0
M  V30 6444 C 582.948 2.10978 -2.31209 0
M  V30 6445 C 583.423 2.90713 -3.53907 0
M  V30 6446 N 584.914 2.98287 -3.54371 0
M  V30 6447 C 585.649 3.60406 -4.45976 0
M  V30 6448 N 585.145 4.24043 -5.47868 0
M  V30 6449 N 586.938 3.57658 -4.33633 0
M  V30 6450 H 579.089 0.419221 -2.08222 0
M  V30 6451 H 581.352 0.247995 -0.914988 0
M  V30 6452 H 581.058 1.47788 -3.19142 0
M  V30 6453 H 580.932 2.9865 -2.30408 0
M  V30 6454 H 583.319 2.6036 -1.38913 0
M  V30 6455 H 583.4 1.09575 -2.31143 0
M  V30 6456 H 583.044 2.42018 -4.46531 0
M  V30 6457 H 582.974 3.92367 -3.5122 0
M  V30 6458 H 585.465 2.53044 -2.80673 0
M  V30 6459 H 585.778 4.69334 -6.13959 0
M  V30 6460 H 584.123 4.22637 -5.51728 0
M  V30 6461 H 587.314 3.07134 -3.53251 0
M  V30 6462 H 587.487 4.05782 -5.05218 0
M  V30 6463 N 580.893 1.08022 1.14757 0
M  V30 6464 C 582.304 0.829144 1.67279 0
M  V30 6465 C 582.655 -0.644721 1.85305 0
M  V30 6466 O 581.78 -1.49838 1.56133 0
M  V30 6467 C 582.375 1.49855 3.03857 0
M  V30 6468 C 580.934 1.29482 3.53428 0
M  V30 6469 C 580.081 1.56386 2.28995 0
M  V30 6470 H 583.032 1.24134 0.988762 0
M  V30 6471 H 583.053 0.923572 3.69121 0
M  V30 6472 H 582.565 2.57123 2.90705 0
M  V30 6473 H 580.666 0.242669 3.71809 0
M  V30 6474 H 580.779 2.01974 4.34446 0
M  V30 6475 H 579.143 0.985217 2.34874 0
M  V30 6476 H 579.926 2.64851 2.18423 0
M  V30 6477 N 582.371 -1.3172 0.865308 0
M  V30 6478 C 583.334 -2.26918 0.322627 0
M  V30 6479 C 584.334 -1.52031 -0.523751 0
M  V30 6480 O 585.524 -1.70973 -0.333727 0
M  V30 6481 C 582.656 -3.36558 -0.542338 0
M  V30 6482 H 583.849 -2.76432 1.16298 0
M  V30 6483 H 581.402 -1.42573 0.640512 0
M  V30 6484 H 582.137 -2.92329 -1.40407 0
M  V30 6485 H 581.922 -3.92048 0.0636395 0
M  V30 6486 H 583.412 -4.07465 -0.91446 0
M  V30 6487 N 583.85 -0.624285 -1.44708 0
M  V30 6488 C 584.812 0.0749638 -2.29077 0
M  V30 6489 C 585.812 0.778965 -1.40673 0
M  V30 6490 O 587.003 0.624591 -1.62618 0
M  V30 6491 C 584.135 1.11663 -3.22094 0
M  V30 6492 H 585.327 -0.667013 -2.92388 0
M  V30 6493 H 582.88 -0.384098 -1.51507 0
M  V30 6494 H 583.615 1.88881 -2.63618 0
M  V30 6495 H 583.401 0.61583 -3.87234 0
M  V30 6496 H 584.891 1.60585 -3.8549 0
M  V30 6497 N 585.328 1.53329 -0.364422 0
M  V30 6498 C 586.577 2.00421 0.226747 0
M  V30 6499 C 586.89 1.25581 1.49963 0
M  V30 6500 O 588.096 1.63256 2.16933 0
M  V30 6501 C 586.552 3.57017 0.454618 0
M  V30 6502 C 586.16 4.40734 -0.803568 0
M  V30 6503 C 587.904 4.12468 1.00351 0
M  V30 6504 C 585.811 5.8888 -0.545345 0
M  V30 6505 H 584.741 0.748787 0.0885082 0
M  V30 6506 H 587.392 1.7703 -0.482983 0
M  V30 6507 H 585.774 3.76558 1.22558 0
M  V30 6508 H 586.948 4.32967 -1.57723 0
M  V30 6509 H 585.263 3.96381 -1.27559 0
M  V30 6510 H 587.86 5.20783 1.212 0
M  V30 6511 H 588.203 3.6699 1.9653 0
M  V30 6512 H 588.736 3.96721 0.29274 0
M  V30 6513 H 585.475 6.38633 -1.47743 0
M  V30 6514 H 584.995 5.99499 0.189842 0
M  V30 6515 H 586.674 6.46776 -0.170425 0
M  V30 6516 N 586.806 0.0935595 1.57322 0
M  V30 6517 C 588.031 -0.582324 1.99057 0
M  V30 6518 C 588.456 -1.61025 0.972242 0
M  V30 6519 O 587.814 -1.81202 -0.0594622 0
M  V30 6520 C 587.862 -1.20799 3.39765 0
M  V30 6521 O 586.966 -2.32382 3.40694 0
M  V30 6522 H 586.307 -0.147884 0.647323 0
M  V30 6523 H 588.837 0.174516 2.03854 0
M  V30 6524 H 588.847 -1.54966 3.77425 0
M  V30 6525 H 587.522 -0.454914 4.13405 0
M  V30 6526 H 586.099 -1.99845 3.14827 0
M  V30 6527 N 588.284 -1.56567 -0.180126 0
M  V30 6528 C 589.533 -1.80685 -0.896426 0
M  V30 6529 C 589.846 -0.669335 -1.83791 0
M  V30 6530 O 591.052 -0.795209 -2.59593 0
M  V30 6531 C 589.508 -3.20132 -1.6445 0
M  V30 6532 C 589.116 -4.41727 -0.747088 0
M  V30 6533 C 590.86 -3.53549 -2.34955 0
M  V30 6534 C 588.767 -5.72195 -1.49489 0
M  V30 6535 H 587.697 -0.673758 -0.338477 0
M  V30 6536 H 590.348 -1.8289 -0.149467 0
M  V30 6537 H 588.73 -3.12218 -2.43589 0
M  V30 6538 H 589.904 -4.608 0.00671129 0
M  V30 6539 H 588.219 -4.16122 -0.152134 0
M  V30 6540 H 590.816 -4.48267 -2.91481 0
M  V30 6541 H 591.159 -2.78006 -3.09868 0
M  V30 6542 H 591.692 -3.62976 -1.62768 0
M  V30 6543 H 588.431 -6.50743 -0.788251 0
M  V30 6544 H 587.951 -5.57115 -2.22224 0
M  V30 6545 H 589.63 -6.1384 -2.04472 0
M  V30 6546 N 589.762 0.448376 -1.51087 0
M  V30 6547 C 590.672 1.56882 -1.74428 0
M  V30 6548 C 591.688 1.62268 -0.62809 0
M  V30 6549 O 592.864 1.79716 -0.909075 0
M  V30 6550 C 589.929 2.92947 -1.85426 0
M  V30 6551 C 588.99 2.97766 -3.09247 0
M  V30 6552 C 588.223 4.27341 -3.19711 0
M  V30 6553 O 588.446 5.19112 -2.36387 0
M  V30 6554 O 587.38 4.38219 -4.12611 0
M  V30 6555 H 591.206 1.40104 -2.69452 0
M  V30 6556 H 588.791 0.630247 -1.35456 0
M  V30 6557 H 590.673 3.73719 -1.94709 0
M  V30 6558 H 589.348 3.09876 -0.935887 0
M  V30 6559 H 588.255 2.15989 -3.0545 0
M  V30 6560 H 589.588 2.8578 -4.00738 0
M  V30 6561 N 591.24 1.41047 0.703093 0
M  V30 6562 C 592.489 1.39301 1.4587 0
M  V30 6563 C 592.802 0.00267077 1.956 0
M  V30 6564 O 594.008 -0.137414 2.71152 0
M  V30 6565 C 592.464 2.44891 2.63735 0
M  V30 6566 C 592.072 3.89796 2.20824 0
M  V30 6567 C 593.816 2.5227 3.41409 0
M  V30 6568 C 591.723 4.86955 3.35602 0
M  V30 6569 H 590.653 0.518005 0.547893 0
M  V30 6570 H 593.304 1.66839 0.764009 0
M  V30 6571 H 591.686 2.10472 3.35436 0
M  V30 6572 H 592.86 4.33424 1.56461 0
M  V30 6573 H 591.175 3.86008 1.56163 0
M  V30 6574 H 593.772 3.22044 4.26839 0
M  V30 6575 H 594.115 1.55714 3.86081 0
M  V30 6576 H 594.648 2.85742 2.7676 0
M  V30 6577 H 591.387 5.84888 2.9595 0
M  V30 6578 H 590.907 4.47982 3.98839 0
M  V30 6579 H 592.586 5.07361 4.01489 0
M  V30 6580 N 592.718 -0.936591 1.26751 0
M  V30 6581 C 593.665 -2.03597 1.08706 0
M  V30 6582 C 594.635 -1.66097 -0.00926542 0
M  V30 6583 O 595.82 -1.90199 0.151377 0
M  V30 6584 C 592.96 -3.3727 0.73094 0
M  V30 6585 C 592.073 -3.87778 1.90399 0
M  V30 6586 C 591.208 -5.09859 1.49056 0
M  V30 6587 C 590.247 -5.5264 2.63164 0
M  V30 6588 N 589.384 -6.65921 2.22471 0
M  V30 6589 H 594.224 -2.18364 2.02784 0
M  V30 6590 H 591.761 -1.06985 1.00958 0
M  V30 6591 H 593.719 -4.14128 0.505328 0
M  V30 6592 H 592.349 -3.22337 -0.172868 0
M  V30 6593 H 591.401 -3.07279 2.2424 0
M  V30 6594 H 592.713 -4.15464 2.76028 0
M  V30 6595 H 591.867 -5.9419 1.22567 0
M  V30 6596 H 590.606 -4.8393 0.60524 0
M  V30 6597 H 589.611 -4.66863 2.90377 0
M  V30 6598 H 590.836 -5.80568 3.52303 0
M  V30 6599 H 588.782 -6.41667 1.36379 0
M  V30 6600 H 588.699 -6.93216 3.01641 0
M  V30 6601 H 589.967 -7.53616 1.99205 0
M  V30 6602 N 594.196 -1.08629 -1.14182 0
M  V30 6603 C 595.421 -0.83902 -1.89671 0
M  V30 6604 C 595.846 0.603332 -1.78161 0
M  V30 6605 O 595.204 1.42301 -1.12339 0
M  V30 6606 C 595.252 -1.26854 -3.37551 0
M  V30 6607 O 594.356 -0.42188 -4.10236 0
M  V30 6608 H 593.697 -0.304545 -0.590041 0
M  V30 6609 H 596.227 -1.4483 -1.44518 0
M  V30 6610 H 596.237 -1.25038 -3.88368 0
M  V30 6611 H 594.912 -2.31901 -3.45246 0
M  V30 6612 H 593.489 -0.503654 -3.69483 0
M  V30 6613 N 595.674 1.31259 -0.872281 0
M  V30 6614 C 596.923 1.95893 -0.480493 0
M  V30 6615 C 597.236 1.697 0.972688 0
M  V30 6616 O 598.442 2.28214 1.47073 0
M  V30 6617 C 596.898 3.50705 -0.808342 0
M  V30 6618 C 596.506 3.85735 -2.27844 0
M  V30 6619 C 598.25 4.21719 -0.485136 0
M  V30 6620 C 596.157 5.33668 -2.54858 0
M  V30 6621 H 595.087 0.733182 -0.175955 0
M  V30 6622 H 597.738 1.49396 -1.0655 0
M  V30 6623 H 596.12 3.95706 -0.152558 0
M  V30 6624 H 597.294 3.51686 -2.97748 0
M  V30 6625 H 595.609 3.27792 -2.56791 0
M  V30 6626 H 598.206 5.30559 -0.664166 0
M  V30 6627 H 598.549 4.12316 0.574592 0
M  V30 6628 H 599.082 3.82359 -1.09756 0
M  V30 6629 H 595.821 5.48109 -3.59523 0
M  V30 6630 H 595.341 5.69061 -1.8955 0
M  V30 6631 H 597.02 6.00958 -2.39706 0
M  V30 6632 N 597.152 0.631951 1.44375 0
M  V30 6633 C 598.429 0.067646 1.95483 0
M  V30 6634 C 598.809 -1.40683 1.57389 0
M  V30 6635 O 598.157 -2.12167 0.848375 0
M  V30 6636 C 598.367 0.291392 3.47781 0
M  V30 6637 C 599.715 0.185028 4.24197 0
M  V30 6638 O 600.739 0.222803 3.55503 0
M  V30 6639 O 599.598 0.0906642 5.46425 0
M  V30 6640 H 596.692 -0.0218379 0.826712 0
M  V30 6641 H 599.238 0.703711 1.54421 0
M  V30 6642 H 598.01 1.31449 3.68561 0
M  V30 6643 H 597.633 -0.378772 3.95792 0
M  V30 6644 N 598.631 -1.53133 0.372548 0
M  V30 6645 C 599.908 -1.93704 -0.271693 0
M  V30 6646 C 600.288 -1.30667 -1.65799 0
M  V30 6647 O 599.636 -0.46838 -2.23648 0
M  V30 6648 C 599.846 -3.47576 -0.314903 0
M  V30 6649 C 601.194 -4.20998 -0.551912 0
M  V30 6650 O 602.218 -3.53994 -0.39582 0
M  V30 6651 O 601.077 -5.39748 -0.85639 0
M  V30 6652 H 598.171 -0.810457 -0.164586 0
M  V30 6653 H 600.717 -1.6427 0.425838 0
M  V30 6654 H 599.489 -3.85749 0.656792 0
M  V30 6655 H 599.112 -3.83264 -1.05804 0
M  V30 6656 N 600.109 -0.101901 -1.5727 0
M  V30 6657 C 601.337 0.568392 -1.98939 0
M  V30 6658 C 601.752 1.61301 -0.981194 0
M  V30 6659 O 601.109 1.82478 0.0282869 0
M  V30 6660 C 601.16 1.20997 -3.40649 0
M  V30 6661 O 600.881 0.207129 -4.3761 0
M  V30 6662 C 602.382 1.96523 -3.97358 0
M  V30 6663 H 599.602 0.15186 -0.65359 0
M  V30 6664 H 602.146 -0.183198 -2.03678 0
M  V30 6665 H 600.301 1.91245 -3.36904 0
M  V30 6666 H 600.715 0.671071 -5.20189 0
M  V30 6667 H 602.189 2.36764 -4.98645 0
M  V30 6668 H 602.666 2.83376 -3.35552 0
M  V30 6669 H 603.272 1.31076 -4.04598 0
M  V30 6670 N 601.587 1.56661 0.17182 0
M  V30 6671 C 602.812 1.86459 0.908165 0
M  V30 6672 C 603.237 0.688181 1.75059 0
M  V30 6673 O 602.595 -0.362753 1.77634 0
M  V30 6674 C 602.643 3.14669 1.76112 0
M  V30 6675 O 601.747 2.96858 2.86268 0
M  V30 6676 H 601.088 0.613318 0.254434 0
M  V30 6677 H 603.618 2.03892 0.170113 0
M  V30 6678 H 603.628 3.46061 2.16115 0
M  V30 6679 H 602.303 3.99905 1.14233 0
M  V30 6680 H 600.88 2.76819 2.49852 0
M  V30 6681 N 603.065 -0.440357 1.51323 0
M  V30 6682 C 604.013 -1.55492 1.72988 0
M  V30 6683 C 605.007 -1.58564 0.596138 0
M  V30 6684 O 606.213 -1.62345 0.777443 0
M  V30 6685 H 602.588 -0.516532 0.546533 0
M  V30 6686 H 604.559 -1.34392 2.66423 0
M  V30 6687 C 603.308 -2.93176 1.86931 0
M  V30 6688 H 602.631 -2.91543 2.73574 0
M  V30 6689 H 604.071 -3.70537 2.06103 0
M  V30 6690 C 602.53 -3.30988 0.628365 0
M  V30 6691 O 603.06 -4.01106 -0.218367 0
M  V30 6692 N 601.266 -2.86719 0.473339 0
M  V30 6693 H 600.813 -2.2983 1.16345 0
M  V30 6694 H 600.771 -3.12381 -0.355727 0
M  V30 6695 N 604.543 -1.41418 -0.695603 0
M  V30 6696 C 605.79 -1.40774 -1.45564 0
M  V30 6697 C 606.118 -0.0168604 -1.94493 0
M  V30 6698 O 605.373 0.971259 -1.69897 0
M  V30 6699 C 605.672 -2.36112 -2.68302 0
M  V30 6700 C 605.338 -3.82952 -2.38031 0
M  V30 6701 C 604 -4.22954 -2.29486 0
M  V30 6702 C 606.352 -4.75662 -2.13061 0
M  V30 6703 C 603.68 -5.53674 -1.94067 0
M  V30 6704 C 606.032 -6.06702 -1.79151 0
M  V30 6705 C 604.696 -6.45725 -1.69102 0
M  V30 6706 H 603.966 -0.515128 -0.532658 0
M  V30 6707 H 606.613 -1.74216 -0.795047 0
M  V30 6708 H 604.918 -1.95924 -3.39295 0
M  V30 6709 H 606.615 -2.32887 -3.26442 0
M  V30 6710 H 603.205 -3.5127 -2.45576 0
M  V30 6711 H 607.389 -4.45561 -2.18608 0
M  V30 6712 H 602.645 -5.8279 -1.8484 0
M  V30 6713 H 606.819 -6.78041 -1.5885 0
M  V30 6714 H 604.446 -7.46929 -1.41426 0
M  V30 6715 N 606.021 0.929856 -1.27246 0
M  V30 6716 C 607.298 1.65544 -1.04186 0
M  V30 6717 C 607.678 2.06796 0.424097 0
M  V30 6718 O 607.026 1.80053 1.40688 0
M  V30 6719 C 607.236 2.85912 -2.00138 0
M  V30 6720 C 608.584 3.57305 -2.29387 0
M  V30 6721 O 609.608 2.96036 -1.98094 0
M  V30 6722 O 608.467 4.67688 -2.82719 0
M  V30 6723 H 605.561 0.725473 -0.397011 0
M  V30 6724 H 608.107 0.980583 -1.38501 0
M  V30 6725 H 606.879 2.52403 -2.99013 0
M  V30 6726 H 606.502 3.61118 -1.66371 0
M  V30 6727 N 607.499 1.09233 1.13605 0
M  V30 6728 C 608.409 0.741939 2.22559 0
M  V30 6729 C 609.425 -0.255236 1.72118 0
M  V30 6730 O 610.601 -0.0970747 2.01166 0
M  V30 6731 C 607.666 0.165595 3.46304 0
M  V30 6732 C 606.727 1.21846 4.11645 0
M  V30 6733 C 605.96 0.669526 5.29484 0
M  V30 6734 O 606.183 -0.508228 5.68131 0
M  V30 6735 O 605.117 1.42361 5.84822 0
M  V30 6736 H 608.943 1.65107 2.54899 0
M  V30 6737 H 606.528 0.866584 1.21699 0
M  V30 6738 H 608.41 -0.152592 4.21124 0
M  V30 6739 H 607.085 -0.716573 3.15669 0
M  V30 6740 H 605.992 1.58931 3.38662 0
M  V30 6741 H 607.325 2.07321 4.46407 0
M  V30 6742 N 608.977 -1.30795 0.87923 0
M  V30 6743 C 610.224 -1.96362 0.494786 0
M  V30 6744 C 610.552 -1.69448 -0.954868 0
M  V30 6745 O 609.807 -0.988711 -1.68888 0
M  V30 6746 C 610.106 -3.50287 0.709476 0
M  V30 6747 C 609.772 -3.9724 2.13333 0
M  V30 6748 C 608.434 -4.09772 2.52271 0
M  V30 6749 C 610.786 -4.21807 3.06151 0
M  V30 6750 C 608.114 -4.44227 3.83248 0
M  V30 6751 C 610.466 -4.5773 4.36654 0
M  V30 6752 C 609.13 -4.68469 4.75492 0
M  V30 6753 H 608.4 -0.71854 0.181055 0
M  V30 6754 H 611.047 -1.55764 1.11399 0
M  V30 6755 H 609.352 -3.91799 0.0072 0
M  V30 6756 H 611.049 -3.99082 0.391703 0
M  V30 6757 H 607.639 -3.87988 1.82107 0
M  V30 6758 H 611.823 -4.11611 2.77291 0
M  V30 6759 H 607.079 -4.50741 4.13089 0
M  V30 6760 H 611.253 -4.7569 5.08617 0
M  V30 6761 H 608.88 -4.94923 5.77022 0
M  V30 6762 N 610.455 -0.639598 -1.44038 0
M  V30 6763 C 611.866 -0.228866 -1.85292 0
M  V30 6764 C 612.217 1.22161 -1.53529 0
M  V30 6765 O 611.342 1.93064 -0.977518 0
M  V30 6766 C 611.937 -0.408592 -3.36327 0
M  V30 6767 C 610.496 -0.0522953 -3.76364 0
M  V30 6768 C 609.643 -0.717959 -2.67844 0
M  V30 6769 H 612.594 -0.844194 -1.34384 0
M  V30 6770 H 612.615 0.349968 -3.78887 0
M  V30 6771 H 612.127 -1.46435 -3.59414 0
M  V30 6772 H 610.228 1.0014 -3.58891 0
M  V30 6773 H 610.341 -0.468261 -4.76806 0
M  V30 6774 H 608.705 -0.152459 -2.54243 0
M  V30 6775 H 609.488 -1.77648 -2.93762 0
M  V30 6776 N 611.933 1.52934 -0.380664 0
M  V30 6777 C 612.843 2.29921 0.466192 0
M  V30 6778 C 613.859 1.36488 1.07922 0
M  V30 6779 O 615.035 1.69553 1.0869 0
M  V30 6780 C 612.1 3.08468 1.58266 0
M  V30 6781 C 611.161 4.17595 0.995627 0
M  V30 6782 C 610.394 4.92387 2.05889 0
M  V30 6783 O 610.617 4.67184 3.27254 0
M  V30 6784 O 609.551 5.77949 1.68102 0
M  V30 6785 H 613.377 3.03274 -0.160735 0
M  V30 6786 H 610.962 1.48698 -0.144617 0
M  V30 6787 H 612.844 3.57469 2.23145 0
M  V30 6788 H 611.519 2.37937 2.19471 0
M  V30 6789 H 610.426 3.72811 0.310332 0
M  V30 6790 H 611.759 4.90336 0.427918 0
M  V30 6791 N 613.412 0.11024 1.57214 0
M  V30 6792 C 614.637 -0.561179 1.99664 0
M  V30 6793 C 615.062 -1.59985 0.989266 0
M  V30 6794 O 614.42 -1.81255 -0.0402399 0
M  V30 6795 C 614.468 -1.17189 3.41027 0
M  V30 6796 O 613.572 -2.28755 3.4314 0
M  V30 6797 H 612.913 -0.14101 0.648855 0
M  V30 6798 H 615.443 0.196128 2.03658 0
M  V30 6799 H 615.453 -1.50954 3.79047 0
M  V30 6800 H 614.128 -0.411041 4.13864 0
M  V30 6801 H 612.705 -1.96495 3.16929 0
M  V30 6802 N 614.89 -1.56749 -0.16351 0
M  V30 6803 C 616.167 -1.73321 -0.906599 0
M  V30 6804 C 616.547 -0.673779 -2.00059 0
M  V30 6805 O 615.895 0.310121 -2.26386 0
M  V30 6806 C 616.105 -3.168 -1.46419 0
M  V30 6807 C 617.453 -3.77993 -1.93407 0
M  V30 6808 O 618.477 -3.20127 -1.56196 0
M  V30 6809 O 617.336 -4.79615 -2.61976 0
M  V30 6810 H 614.43 -0.708073 -0.427272 0
M  V30 6811 H 616.976 -1.69029 -0.150727 0
M  V30 6812 H 615.748 -3.85396 -0.677189 0
M  V30 6813 H 615.371 -3.2545 -2.28403 0
M  V30 6814 N 616.368 0.432326 -1.51554 0
M  V30 6815 C 617.617 1.17831 -1.63703 0
M  V30 6816 C 617.93 1.92229 -0.36156 0
M  V30 6817 O 619.136 2.69069 -0.362495 0
M  V30 6818 C 617.592 2.14318 -2.89129 0
M  V30 6819 C 617.2 1.45544 -4.23699 0
M  V30 6820 C 618.944 2.89319 -3.10636 0
M  V30 6821 C 616.851 2.40545 -5.4027 0
M  V30 6822 H 615.781 0.443533 -0.60975 0
M  V30 6823 H 618.432 0.444878 -1.78026 0
M  V30 6824 H 616.814 2.91117 -2.68452 0
M  V30 6825 H 617.988 0.742693 -4.54775 0
M  V30 6826 H 616.303 0.826772 -4.0811 0
M  V30 6827 H 618.9 3.60495 -3.94902 0
M  V30 6828 H 619.243 3.50951 -2.23918 0
M  V30 6829 H 619.776 2.19625 -3.31677 0
M  V30 6830 H 616.515 1.83594 -6.29264 0
M  V30 6831 H 616.035 3.09859 -5.13563 0
M  V30 6832 H 617.714 3.01569 -5.72421 0
M  V30 6833 N 617.846 1.41785 0.688094 0
M  V30 6834 C 618.776 1.47 1.8142 0
M  V30 6835 C 619.757 0.327881 1.6691 0
M  V30 6836 O 620.942 0.540362 1.86531 0
M  V30 6837 C 618.072 1.35876 3.19617 0
M  V30 6838 C 617.026 2.47976 3.48844 0
M  V30 6839 C 616.352 2.21915 4.86475 0
M  V30 6840 C 617.652 3.90309 3.47068 0
M  V30 6841 H 619.346 2.41247 1.77314 0
M  V30 6842 H 616.892 1.16116 0.851651 0
M  V30 6843 H 618.845 1.38134 3.98117 0
M  V30 6844 H 617.569 0.38116 3.24368 0
M  V30 6845 H 616.228 2.45013 2.72698 0
M  V30 6846 H 615.876 1.2248 4.8786 0
M  V30 6847 H 615.576 2.97037 5.06994 0
M  V30 6848 H 617.1 2.25901 5.67275 0
M  V30 6849 H 618.514 3.94947 4.1556 0
M  V30 6850 H 616.911 4.65175 3.7912 0
M  V30 6851 H 617.981 4.17927 2.45896 0
M  V30 6852 N 619.324 -0.923095 1.27737 0
M  V30 6853 C 620.271 -2.02432 1.1086 0
M  V30 6854 C 621.241 -1.66098 0.00835195 0
M  V30 6855 O 622.426 -1.90027 0.171542 0
M  V30 6856 C 619.566 -3.36476 0.766671 0
M  V30 6857 C 618.679 -3.85737 1.94501 0
M  V30 6858 C 617.814 -5.08249 1.54455 0
M  V30 6859 C 616.853 -5.49818 2.6901 0
M  V30 6860 N 615.99 -6.63524 2.29521 0
M  V30 6861 H 620.83 -2.16201 2.05089 0
M  V30 6862 H 618.367 -1.05909 1.02087 0
M  V30 6863 H 620.325 -4.13569 0.549223 0
M  V30 6864 H 618.955 -3.22502 -0.13867 0
M  V30 6865 H 618.007 -3.04883 2.27487 0
M  V30 6866 H 619.319 -4.12513 2.80419 0
M  V30 6867 H 618.473 -5.92857 1.28862 0
M  V30 6868 H 617.212 -4.83261 0.656534 0
M  V30 6869 H 616.217 -4.63757 2.95313 0
M  V30 6870 H 617.442 -5.76799 3.5844 0
M  V30 6871 H 615.388 -6.40185 1.43177 0
M  V30 6872 H 615.305 -6.89978 3.08977 0
M  V30 6873 H 616.573 -7.51461 2.07187 0
M  V30 6874 N 620.802 -1.09834 -1.13024 0
M  V30 6875 C 622.213 -0.855651 -1.65938 0
M  V30 6876 C 622.564 0.615159 -1.86307 0
M  V30 6877 O 621.689 1.47335 -1.58497 0
M  V30 6878 C 622.284 -1.5467 -3.01434 0
M  V30 6879 C 620.843 -1.35088 -3.51323 0
M  V30 6880 C 619.99 -1.6001 -2.26478 0
M  V30 6881 H 622.941 -1.25691 -0.968889 0
M  V30 6882 H 622.962 -0.982179 -3.67605 0
M  V30 6883 H 622.474 -2.61715 -2.86578 0
M  V30 6884 H 620.575 -0.30179 -3.71376 0
M  V30 6885 H 620.688 -2.0886 -4.31178 0
M  V30 6886 H 619.052 -1.02246 -2.33276 0
M  V30 6887 H 619.835 -2.68293 -2.14182 0
M  V30 6888 N 622.28 1.30327 -0.886154 0
M  V30 6889 C 623.508 2.00254 -0.520176 0
M  V30 6890 C 623.923 1.66419 0.891637 0
M  V30 6891 O 623.28 0.901951 1.58654 0
M  V30 6892 C 623.331 3.54916 -0.686775 0
M  V30 6893 O 623.052 3.87547 -2.04301 0
M  V30 6894 C 624.553 4.42115 -0.323945 0
M  V30 6895 H 621.773 0.640204 -0.200947 0
M  V30 6896 H 624.317 1.66183 -1.19178 0
M  V30 6897 H 622.472 3.8735 -0.0625273 0
M  V30 6898 H 622.886 4.82247 -2.06249 0
M  V30 6899 H 624.36 5.49808 -0.491407 0
M  V30 6900 H 624.837 4.32953 0.73811 0
M  V30 6901 H 625.443 4.15129 -0.924565 0
M  V30 6902 N 623.758 0.647228 1.43697 0
M  V30 6903 C 625.004 0.158422 2.0218 0
M  V30 6904 C 625.337 -1.22233 1.50907 0
M  V30 6905 O 624.612 -1.81478 0.699702 0
M  V30 6906 C 624.895 0.1627 3.59732 0
M  V30 6907 C 624.748 1.57694 4.21251 0
M  V30 6908 C 626.067 -0.504138 4.37203 0
M  V30 6909 H 623.186 0.059042 0.734631 0
M  V30 6910 H 625.828 0.826772 1.71069 0
M  V30 6911 H 623.978 -0.406414 3.86368 0
M  V30 6912 H 625.65 2.19618 4.05667 0
M  V30 6913 H 623.893 2.12603 3.7813 0
M  V30 6914 H 624.564 1.53183 5.3032 0
M  V30 6915 H 627.04 -0.0199841 4.16095 0
M  V30 6916 H 625.916 -0.470394 5.46881 0
M  V30 6917 H 626.177 -1.57726 4.13007 0
M  V30 6918 N 625.236 -1.5273 0.388769 0
M  V30 6919 C 626.199 -2.25043 -0.434544 0
M  V30 6920 C 627.199 -1.26661 -0.990644 0
M  V30 6921 O 628.389 -1.50762 -0.872731 0
M  V30 6922 C 625.521 -3.00507 -1.60961 0
M  V30 6923 H 626.714 -2.99242 0.198549 0
M  V30 6924 H 624.267 -1.55664 0.140875 0
M  V30 6925 H 625.002 -2.30607 -2.28015 0
M  V30 6926 H 624.787 -3.72716 -1.21757 0
M  V30 6927 H 626.277 -3.55413 -2.19251 0
M  V30 6928 N 626.714 -0.118576 -1.57153 0
M  V30 6929 C 627.942 0.54726 -1.99531 0
M  V30 6930 C 628.357 1.60251 -0.998246 0
M  V30 6931 O 627.714 1.82498 0.00893106 0
M  V30 6932 C 627.765 1.17378 -3.41913 0
M  V30 6933 O 627.486 0.160703 -4.37805 0
M  V30 6934 C 628.987 1.92297 -3.9942 0
M  V30 6935 H 626.207 0.144919 -0.655164 0
M  V30 6936 H 628.751 -0.20479 -2.03472 0
M  V30 6937 H 626.906 1.87661 -3.38913 0
M  V30 6938 H 627.32 0.61586 -5.20872 0
M  V30 6939 H 628.794 2.31462 -5.01128 0
M  V30 6940 H 629.271 2.79801 -3.38538 0
M  V30 6941 H 629.877 1.26777 -4.05965 0
M  V30 6942 N 628.193 1.56834 0.155195 0
M  V30 6943 C 629.418 1.87412 0.888337 0
M  V30 6944 C 629.843 0.70671 1.74319 0
M  V30 6945 O 629.201 -0.343892 1.78009 0
M  V30 6946 C 629.249 3.1652 1.72765 0
M  V30 6947 O 628.353 2.99877 2.83103 0
M  V30 6948 H 627.694 0.615983 0.247914 0
M  V30 6949 H 630.224 2.04061 0.148478 0
M  V30 6950 H 630.234 3.48334 2.12433 0
M  V30 6951 H 628.909 4.01094 1.09985 0
M  V30 6952 H 627.486 2.79453 2.46902 0
M  V30 6953 N 629.671 -0.424282 1.51781 0
M  V30 6954 C 630.619 -1.53649 1.74628 0
M  V30 6955 C 631.613 -1.57923 0.612922 0
M  V30 6956 O 632.819 -1.61511 0.794618 0
M  V30 6957 H 629.194 -0.510706 0.551981 0
M  V30 6958 H 631.165 -1.31558 2.67834 0
M  V30 6959 C 629.914 -2.91177 1.9003 0
M  V30 6960 H 629.237 -2.88625 2.76651 0
M  V30 6961 H 630.677 -3.6833 2.10021 0
M  V30 6962 C 629.136 -3.30303 0.663435 0
M  V30 6963 O 629.666 -4.01315 -0.175812 0
M  V30 6964 N 627.872 -2.86201 0.503723 0
M  V30 6965 H 627.419 -2.28583 1.18776 0
M  V30 6966 H 627.377 -3.12741 -0.322575 0
M  V30 6967 N 631.149 -1.42148 -0.680565 0
M  V30 6968 C 632.099 -1.41634 -1.78672 0
M  V30 6969 C 633.083 -0.288494 -1.58293 0
M  V30 6970 O 634.275 -0.530295 -1.68869 0
M  V30 6971 C 631.404 -1.31558 -3.17092 0
M  V30 6972 C 630.49 -2.49265 -3.43115 0
M  V30 6973 N 630.881 -3.74702 -3.39753 0
M  V30 6974 C 629.179 -2.43401 -3.73727 0
M  V30 6975 C 629.88 -4.52854 -3.651 0
M  V30 6976 N 628.856 -3.83181 -3.85582 0
M  V30 6977 H 632.658 -2.3652 -1.74458 0
M  V30 6978 H 630.172 -1.36415 -0.881171 0
M  V30 6979 H 632.169 -1.29272 -3.96351 0
M  V30 6980 H 630.829 -0.376696 -3.22508 0
M  V30 6981 H 631.84 -4.07378 -3.19787 0
M  V30 6982 H 628.517 -1.58062 -3.86423 0
M  V30 6983 H 629.907 -5.61827 -3.6851 0
M  V30 6984 N 632.627 0.916307 -1.28225 0
M  V30 6985 C 634.038 1.48024 -1.13779 0
M  V30 6986 C 634.389 1.94289 0.273139 0
M  V30 6987 O 633.514 1.82226 1.16716 0
M  V30 6988 C 634.109 2.69029 -2.05935 0
M  V30 6989 C 632.668 3.2161 -1.95561 0
M  V30 6990 C 631.815 1.94321 -1.97825 0
M  V30 6991 H 634.766 0.729272 -1.40951 0
M  V30 6992 H 634.787 3.44204 -1.62184 0
M  V30 6993 H 634.299 2.35325 -3.08616 0
M  V30 6994 H 632.4 3.60045 -0.959076 0
M  V30 6995 H 632.513 3.87032 -2.82388 0
M  V30 6996 H 630.877 2.1131 -1.42198 0
M  V30 6997 H 631.66 1.62917 -3.0218 0
M  V30 6998 N 634.105 1.10431 1.1244 0
M  V30 6999 C 635.015 0.765502 2.21759 0
M  V30 7000 C 636.031 -0.236966 1.72379 0
M  V30 7001 O 637.207 -0.0757329 2.01258 0
M  V30 7002 C 634.272 0.202316 3.46109 0
M  V30 7003 C 633.333 1.26205 4.1033 0
M  V30 7004 C 632.566 0.725648 5.28744 0
M  V30 7005 O 632.789 -0.447942 5.68638 0
M  V30 7006 O 631.723 1.48555 5.83279 0
M  V30 7007 H 635.549 1.67801 2.53133 0
M  V30 7008 H 633.134 0.879443 1.20773 0
M  V30 7009 H 635.016 -0.107918 4.21262 0
M  V30 7010 H 633.691 -0.683052 3.16411 0
M  V30 7011 H 632.598 1.62514 3.36957 0
M  V30 7012 H 633.931 2.12044 4.44183 0
M  V30 7013 N 635.583 -1.29855 0.893053 0
M  V30 7014 C 636.811 -1.99976 0.530788 0
M  V30 7015 C 637.226 -1.66889 -0.882799 0
M  V30 7016 O 636.583 -0.910352 -1.58173 0
M  V30 7017 C 636.634 -3.54547 0.705587 0
M  V30 7018 O 636.355 -3.86458 2.06353 0
M  V30 7019 C 637.856 -4.41937 0.347387 0
M  V30 7020 H 635.076 -0.639129 0.204339 0
M  V30 7021 H 637.62 -1.65549 1.20057 0
M  V30 7022 H 635.775 -3.87311 0.0830685 0
M  V30 7023 H 636.189 -4.81146 2.08803 0
M  V30 7024 H 637.663 -5.4954 0.520557 0
M  V30 7025 H 638.14 -4.33339 -0.715139 0
M  V30 7026 H 638.746 -4.14633 0.946567 0
M  V30 7027 N 637.061 -0.65484 -1.43351 0
M  V30 7028 C 638.338 -0.0987371 -1.95351 0
M  V30 7029 C 638.718 1.38161 -1.59608 0
M  V30 7030 O 638.066 2.10791 -0.882021 0
M  V30 7031 C 638.276 -0.346684 -3.47274 0
M  V30 7032 C 639.624 -0.25249 -4.23849 0
M  V30 7033 O 640.648 -0.279332 -3.55103 0
M  V30 7034 O 639.507 -0.177584 -5.46211 0
M  V30 7035 H 636.601 0.0086829 -0.826954 0
M  V30 7036 H 639.147 -0.728189 -1.53282 0
M  V30 7037 H 637.919 -1.37296 -3.66423 0
M  V30 7038 H 637.542 0.315757 -3.96344 0
M  V30 7039 N 638.539 1.52521 -0.396863 0
M  V30 7040 C 639.769 2.05792 0.182485 0
M  V30 7041 C 640.177 1.26784 1.40436 0
M  V30 7042 O 639.52 0.309617 1.81072 0
M  V30 7043 C 639.582 3.54291 0.609781 0
M  V30 7044 C 639.246 4.5426 -0.499674 0
M  V30 7045 C 640.243 5.01812 -1.35944 0
M  V30 7046 C 637.928 4.97827 -0.668864 0
M  V30 7047 C 639.922 5.91562 -2.37346 0
M  V30 7048 C 637.609 5.87376 -1.68621 0
M  V30 7049 C 638.607 6.34137 -2.53692 0
M  V30 7050 O 638.295 7.21915 -3.53686 0
M  V30 7051 H 638.027 0.675362 0.0293583 0
M  V30 7052 H 640.581 1.97539 -0.56281 0
M  V30 7053 H 638.811 3.60188 1.40717 0
M  V30 7054 H 640.5 3.90267 1.11565 0
M  V30 7055 H 641.266 4.68879 -1.24008 0
M  V30 7056 H 637.145 4.60997 -0.0163971 0
M  V30 7057 H 640.689 6.27983 -3.03782 0
M  V30 7058 H 636.586 6.19723 -1.80593 0
M  V30 7059 H 637.354 7.39996 -3.49784 0
M  V30 7060 N 640.017 0.126909 1.57088 0
M  V30 7061 C 640.964 -0.82036 2.15728 0
M  V30 7062 C 641.934 -1.25811 1.08447 0
M  V30 7063 O 643.119 -1.33422 1.36393 0
M  V30 7064 C 640.259 -2.06199 2.76724 0
M  V30 7065 C 639.372 -1.67188 3.98337 0
M  V30 7066 C 638.507 -2.86378 4.47393 0
M  V30 7067 C 637.546 -2.43644 5.61519 0
M  V30 7068 N 636.683 -3.55775 6.05284 0
M  V30 7069 H 641.523 -0.313472 2.96347 0
M  V30 7070 H 639.06 -0.14303 1.46403 0
M  V30 7071 H 641.018 -2.78959 3.10222 0
M  V30 7072 H 639.648 -2.54333 1.98782 0
M  V30 7073 H 638.7 -0.842714 3.70948 0
M  V30 7074 H 640.012 -1.31789 4.81075 0
M  V30 7075 H 639.166 -3.67353 4.82842 0
M  V30 7076 H 637.905 -3.25009 3.63621 0
M  V30 7077 H 636.91 -1.61104 5.25667 0
M  V30 7078 H 638.135 -2.06122 6.47063 0
M  V30 7079 H 636.081 -3.94065 5.24451 0
M  V30 7080 H 635.998 -3.24325 6.82898 0
M  V30 7081 H 637.266 -4.37166 6.45373 0
M  V30 7082 N 641.495 -1.56914 -0.146875 0
M  V30 7083 C 642.443 -1.99224 -1.20053 0
M  V30 7084 C 643.437 -0.884661 -1.44465 0
M  V30 7085 O 644.643 -1.06984 -1.44756 0
M  V30 7086 H 641.018 -0.634191 -0.404112 0
M  V30 7087 H 642.989 -2.86998 -0.816987 0
M  V30 7088 C 641.738 -2.38899 -2.52632 0
M  V30 7089 H 641.061 -3.23677 -2.34677 0
M  V30 7090 H 642.501 -2.72326 -3.24984 0
M  V30 7091 C 640.96 -1.2417 -3.13183 0
M  V30 7092 O 641.49 -0.542503 -3.9802 0
M  V30 7093 N 639.696 -1.00592 -2.72635 0
M  V30 7094 H 639.243 -1.57627 -2.03744 0
M  V30 7095 H 639.201 -0.240174 -3.13481 0
M  V30 7096 N 642.974 0.416227 -1.52004 0
M  V30 7097 C 643.921 1.50666 -1.74838 0
M  V30 7098 C 644.891 1.55245 -0.590599 0
M  V30 7099 O 646.076 1.71928 -0.827374 0
M  V30 7100 C 643.216 2.88185 -1.89851 0
M  V30 7101 C 642.329 2.92971 -3.17478 0
M  V30 7102 C 641.464 4.21745 -3.22962 0
M  V30 7103 C 640.503 4.20478 -4.4482 0
M  V30 7104 N 639.64 5.40811 -4.47736 0
M  V30 7105 H 644.48 1.30498 -2.67907 0
M  V30 7106 H 642.017 0.633568 -1.32757 0
M  V30 7107 H 643.975 3.68007 -1.96537 0
M  V30 7108 H 642.605 3.06865 -1.00169 0
M  V30 7109 H 641.657 2.05684 -3.19997 0
M  V30 7110 H 642.969 2.87899 -4.07328 0
M  V30 7111 H 642.123 5.09954 -3.28682 0
M  V30 7112 H 640.862 4.29503 -2.31038 0
M  V30 7113 H 639.867 3.30659 -4.39254 0
M  V30 7114 H 641.092 4.14366 -5.38031 0
M  V30 7115 H 639.038 5.4925 -3.58692 0
M  V30 7116 H 638.955 5.37705 -5.31422 0
M  V30 7117 H 640.223 6.30993 -4.57676 0
M  V30 7118 N 644.452 1.42507 0.673017 0
M  V30 7119 C 645.729 1.33554 1.42908 0
M  V30 7120 C 646.109 -0.0262211 2.11084 0
M  V30 7121 O 645.457 -1.04181 2.03368 0
M  V30 7122 C 645.667 2.50498 2.43006 0
M  V30 7123 C 647.015 2.92694 3.07596 0
M  V30 7124 O 648.039 2.50401 2.53333 0
M  V30 7125 O 646.898 3.65899 4.05931 0
M  V30 7126 H 643.992 0.526785 0.637516 0
M  V30 7127 H 646.538 1.54518 0.701591 0
M  V30 7128 H 645.31 3.41272 1.9144 0
M  V30 7129 H 644.933 2.3153 3.23233 0
M  V30 7130 N 645.93 -0.909495 1.28709 0
M  V30 7131 C 647.176 -1.66175 1.17293 0
M  V30 7132 C 647.531 -1.90426 -0.274891 0
M  V30 7133 O 646.824 -1.49659 -1.19635 0
M  V30 7134 C 647.018 -3.02117 1.90945 0
M  V30 7135 C 646.847 -2.91134 3.42741 0
M  V30 7136 C 645.617 -2.92429 4.12085 0
M  V30 7137 C 647.815 -2.68889 4.3841 0
M  V30 7138 N 645.797 -2.72078 5.50315 0
M  V30 7139 C 647.168 -2.57423 5.64033 0
M  V30 7140 C 649.223 -2.53919 4.28287 0
M  V30 7141 C 647.926 -2.32513 6.80683 0
M  V30 7142 C 649.952 -2.3039 5.44678 0
M  V30 7143 C 649.314 -2.19682 6.69268 0
M  V30 7144 H 645.413 -0.614095 0.48416 0
M  V30 7145 H 647.997 -1.07377 1.62414 0
M  V30 7146 H 646.168 -3.58993 1.48252 0
M  V30 7147 H 647.9 -3.66388 1.71878 0
M  V30 7148 H 644.655 -3.03345 3.63701 0
M  V30 7149 H 645.079 -2.64983 6.22987 0
M  V30 7150 H 649.721 -2.60946 3.32666 0
M  V30 7151 H 647.439 -2.24225 7.76369 0
M  V30 7152 H 651.025 -2.19665 5.38738 0
M  V30 7153 H 649.905 -2.01725 7.5781 0
M  V30 7154 N 647.408 -1.11026 -1.11852 0
M  V30 7155 C 648.654 -0.857729 -1.83768 0
M  V30 7156 C 648.987 0.615143 -1.842 0
M  V30 7157 O 648.262 1.45391 -1.29196 0
M  V30 7158 C 648.545 -1.41453 -3.31154 0
M  V30 7159 C 648.398 -2.95471 -3.39142 0
M  V30 7160 C 649.717 -1.0619 -4.27097 0
M  V30 7161 H 646.836 -0.313044 -0.667212 0
M  V30 7162 H 649.478 -1.37443 -1.31185 0
M  V30 7163 H 647.628 -0.975052 -3.76065 0
M  V30 7164 H 649.3 -3.4799 -3.02821 0
M  V30 7165 H 647.543 -3.31759 -2.79497 0
M  V30 7166 H 648.214 -3.29515 -4.42859 0
M  V30 7167 H 650.69 -1.44122 -3.90344 0
M  V30 7168 H 649.566 -1.47832 -5.28618 0
M  V30 7169 H 649.827 0.0278912 -4.42091 0
M  V30 7170 N 648.886 1.2938 -0.899927 0
M  V30 7171 C 650.133 1.9555 -0.525963 0
M  V30 7172 C 650.461 1.70945 0.927789 0
M  V30 7173 O 649.716 1.01545 1.67293 0
M  V30 7174 C 650.015 3.49114 -0.765113 0
M  V30 7175 C 649.681 3.93796 -2.19626 0
M  V30 7176 C 648.343 4.05707 -2.58758 0
M  V30 7177 C 650.695 4.16883 -3.12823 0
M  V30 7178 C 648.023 4.38074 -3.90267 0
M  V30 7179 C 650.375 4.50725 -4.4388 0
M  V30 7180 C 649.039 4.60845 -4.82885 0
M  V30 7181 H 648.309 0.715569 -0.192463 0
M  V30 7182 H 650.956 1.53972 -1.13863 0
M  V30 7183 H 649.261 3.91738 -0.069531 0
M  V30 7184 H 650.958 3.98409 -0.455144 0
M  V30 7185 H 647.548 3.85042 -1.88256 0
M  V30 7186 H 651.732 4.07147 -2.83804 0
M  V30 7187 H 646.988 4.44112 -4.20207 0
M  V30 7188 H 651.162 4.67538 -5.16121 0
M  V30 7189 H 648.789 4.85681 -5.84823 0
M  V30 7190 N 650.364 0.662433 1.43002 0
M  V30 7191 C 651.613 0.176873 2.00923 0
M  V30 7192 C 651.926 -1.21954 1.52927 0
M  V30 7193 O 653.132 -1.80081 2.03182 0
M  V30 7194 C 651.588 0.265379 3.5892 0
M  V30 7195 C 651.196 1.66507 4.15908 0
M  V30 7196 C 652.94 -0.162103 4.2419 0
M  V30 7197 C 650.847 1.707 5.66229 0
M  V30 7198 H 649.777 0.0623627 0.751417 0
M  V30 7199 H 652.428 0.825813 1.63868 0
M  V30 7200 H 650.81 -0.451235 3.93421 0
M  V30 7201 H 651.984 2.40777 3.92891 0
M  V30 7202 H 650.299 2.03932 3.63044 0
M  V30 7203 H 652.896 -0.150745 5.34487 0
M  V30 7204 H 653.239 -1.19519 3.98774 0
M  V30 7205 H 653.772 0.503075 3.94606 0
M  V30 7206 H 650.511 2.7195 5.96426 0
M  V30 7207 H 650.031 1.00768 5.91275 0
M  V30 7208 H 651.71 1.45487 6.3043 0
M  V30 7209 N 651.842 -1.52309 0.404946 0
M  V30 7210 C 652.79 -2.28452 -0.437321 0
M  V30 7211 C 653.784 -1.32975 -1.04948 0
M  V30 7212 O 654.99 -1.50451 -0.988159 0
M  V30 7213 H 651.365 -0.734824 -0.159805 0
M  V30 7214 H 653.336 -2.97542 0.22615 0
M  V30 7215 C 652.085 -3.11536 -1.54404 0
M  V30 7216 H 651.408 -3.84871 -1.08233 0
M  V30 7217 H 652.848 -3.67926 -2.10729 0
M  V30 7218 C 651.307 -2.24833 -2.50902 0
M  V30 7219 O 651.837 -1.88574 -3.54687 0
M  V30 7220 N 650.043 -1.88685 -2.21012 0
M  V30 7221 H 649.59 -2.18371 -1.36646 0
M  V30 7222 H 649.548 -1.30966 -2.85824 0
M  V30 7223 N 653.32 -0.135238 -1.57019 0
M  V30 7224 C 654.55 0.525303 -1.9981 0
M  V30 7225 C 654.958 1.59724 -1.01415 0
M  V30 7226 O 654.301 1.837 -0.00130938 0
M  V30 7227 C 654.363 1.19578 -3.3903 0
M  V30 7228 C 654.027 0.269855 -4.56203 0
M  V30 7229 C 655.024 -0.497905 -5.1751 0
M  V30 7230 C 652.709 0.176188 -5.01991 0
M  V30 7231 C 654.703 -1.3469 -6.23007 0
M  V30 7232 C 652.39 -0.676422 -6.07345 0
M  V30 7233 C 653.388 -1.43658 -6.67721 0
M  V30 7234 O 653.076 -2.27501 -7.71037 0
M  V30 7235 H 652.808 0.142296 -0.660854 0
M  V30 7236 H 655.362 -0.223272 -2.04183 0
M  V30 7237 H 653.592 1.99176 -3.3146 0
M  V30 7238 H 655.281 1.75486 -3.66005 0
M  V30 7239 H 656.047 -0.435507 -4.83041 0
M  V30 7240 H 651.926 0.757583 -4.54733 0
M  V30 7241 H 655.47 -1.9407 -6.70062 0
M  V30 7242 H 651.367 -0.740154 -6.41243 0
M  V30 7243 H 652.135 -2.20619 -7.88206 0
M  V30 7244 N 654.798 1.5699 0.138552 0
M  V30 7245 C 656.026 1.87976 0.864437 0
M  V30 7246 C 656.441 0.724372 1.74351 0
M  V30 7247 O 655.798 -0.305575 1.79924 0
M  V30 7248 C 655.849 3.18276 1.71414 0
M  V30 7249 O 655.57 4.29365 0.870487 0
M  V30 7250 C 657.071 3.62834 2.54688 0
M  V30 7251 H 654.291 0.622878 0.249528 0
M  V30 7252 H 656.835 2.04094 0.128805 0
M  V30 7253 H 654.99 3.03886 2.40274 0
M  V30 7254 H 655.404 5.03924 1.45466 0
M  V30 7255 H 656.878 4.5682 3.0987 0
M  V30 7256 H 657.355 2.88533 3.31127 0
M  V30 7257 H 657.961 3.79946 1.91105 0
M  V30 7258 N 656.276 -0.40816 1.52223 0
M  V30 7259 C 657.506 -1.17501 1.69932 0
M  V30 7260 C 657.914 -1.84729 0.408874 0
M  V30 7261 O 657.257 -1.7274 -0.625025 0
M  V30 7262 C 657.319 -2.27994 2.77955 0
M  V30 7263 C 656.983 -1.80894 4.19674 0
M  V30 7264 C 657.98 -1.29618 5.03483 0
M  V30 7265 C 655.665 -1.87698 4.65913 0
M  V30 7266 C 657.659 -0.857695 6.31603 0
M  V30 7267 C 655.346 -1.43461 5.94022 0
M  V30 7268 C 656.344 -0.925822 6.76696 0
M  V30 7269 O 656.032 -0.489841 8.02406 0
M  V30 7270 H 655.764 -0.359065 0.572755 0
M  V30 7271 H 658.318 -0.486188 1.99563 0
M  V30 7272 H 656.548 -3.00243 2.43703 0
M  V30 7273 H 658.237 -2.89749 2.84254 0
M  V30 7274 H 659.003 -1.23733 4.68951 0
M  V30 7275 H 654.882 -2.26244 4.01665 0
M  V30 7276 H 658.426 -0.459879 6.96083 0
M  V30 7277 H 654.323 -1.49026 6.28062 0
M  V30 7278 H 655.091 -0.613062 8.16201 0
M  V30 7279 N 657.755 -1.42862 -0.66545 0
M  V30 7280 C 658.702 -1.4707 -1.77874 0
M  V30 7281 C 659.672 -0.321654 -1.62956 0
M  V30 7282 O 660.857 -0.52707 -1.83376 0
M  V30 7283 C 657.997 -1.38788 -3.15962 0
M  V30 7284 C 657.11 -2.63801 -3.42101 0
M  V30 7285 C 656.245 -2.47594 -4.69969 0
M  V30 7286 C 655.284 -3.67936 -4.89172 0
M  V30 7287 N 654.421 -3.50614 -6.08288 0
M  V30 7288 H 659.261 -2.42204 -1.73613 0
M  V30 7289 H 656.798 -1.20239 -0.847401 0
M  V30 7290 H 658.756 -1.31982 -3.95773 0
M  V30 7291 H 657.386 -0.472431 -3.19324 0
M  V30 7292 H 656.438 -2.80935 -2.56475 0
M  V30 7293 H 657.75 -3.53228 -3.52181 0
M  V30 7294 H 656.904 -2.38427 -5.57886 0
M  V30 7295 H 655.643 -1.55672 -4.62188 0
M  V30 7296 H 654.648 -3.77525 -3.99694 0
M  V30 7297 H 655.873 -4.60851 -4.98792 0
M  V30 7298 H 653.819 -2.61417 -6.01662 0
M  V30 7299 H 653.736 -4.33634 -6.19272 0
M  V30 7300 H 655.004 -3.45276 -6.98859 0
M  V30 7301 N 659.233 0.902656 -1.29189 0
M  V30 7302 C 660.649 1.18296 -1.07137 0
M  V30 7303 C 660.849 2.00701 0.179223 0
M  V30 7304 O 659.905 2.3675 0.877812 0
M  V30 7305 C 661.218 1.90677 -2.32514 0
M  V30 7306 C 662.766 2.03515 -2.37804 0
M  V30 7307 C 663.241 2.79307 -3.62976 0
M  V30 7308 N 664.732 2.86862 -3.63681 0
M  V30 7309 C 665.467 3.46035 -4.57217 0
M  V30 7310 N 664.963 4.06399 -5.61081 0
M  V30 7311 N 666.756 3.43681 -4.44792 0
M  V30 7312 H 658.907 0.352765 -2.0945 0
M  V30 7313 H 661.17 0.21876 -0.922414 0
M  V30 7314 H 660.876 1.3756 -3.23682 0
M  V30 7315 H 660.75 2.91169 -2.39793 0
M  V30 7316 H 663.137 2.55809 -1.47125 0
M  V30 7317 H 663.218 1.02166 -2.34512 0
M  V30 7318 H 662.862 2.2769 -4.54004 0
M  V30 7319 H 662.792 3.80995 -3.63525 0
M  V30 7320 H 665.283 2.43987 -2.88581 0
M  V30 7321 H 665.596 4.49564 -6.2858 0
M  V30 7322 H 663.941 4.0487 -5.64894 0
M  V30 7323 H 667.132 2.9574 -3.62843 0
M  V30 7324 H 667.305 3.89503 -5.17872 0
M  V30 7325 N 660.711 1.11618 1.11262 0
M  V30 7326 C 661.958 0.86618 1.8304 0
M  V30 7327 C 662.286 -0.608149 1.84748 0
M  V30 7328 O 661.541 -1.46508 1.29745 0
M  V30 7329 C 661.84 1.37529 3.2988 0
M  V30 7330 C 661.506 2.86317 3.4833 0
M  V30 7331 C 660.168 3.26945 3.53073 0
M  V30 7332 C 662.52 3.82136 3.54431 0
M  V30 7333 C 659.848 4.62117 3.61475 0
M  V30 7334 C 662.2 5.17128 3.64365 0
M  V30 7335 C 660.864 5.57312 3.67369 0
M  V30 7336 H 660.134 0.316958 0.66979 0
M  V30 7337 H 662.781 1.3949 1.31205 0
M  V30 7338 H 661.086 0.766842 3.84222 0
M  V30 7339 H 662.783 1.15817 3.83911 0
M  V30 7340 H 659.373 2.53889 3.45309 0
M  V30 7341 H 663.557 3.51847 3.50025 0
M  V30 7342 H 658.813 4.92655 3.62079 0
M  V30 7343 H 662.987 5.91208 3.68029 0
M  V30 7344 H 660.614 6.62045 3.73632 0
M  V30 7345 N 662.189 -1.289 0.906776 0
M  V30 7346 C 663.099 -2.31256 0.394707 0
M  V30 7347 C 664.115 -1.66231 -0.514121 0
M  V30 7348 O 665.291 -1.97347 -0.401994 0
M  V30 7349 C 662.356 -3.44792 -0.363191 0
M  V30 7350 C 661.417 -4.25391 0.578012 0
M  V30 7351 C 660.65 -5.33506 -0.143811 0
M  V30 7352 O 660.873 -5.53786 -1.36665 0
M  V30 7353 O 659.807 -5.99673 0.5173 0
M  V30 7354 H 663.633 -2.77051 1.24405 0
M  V30 7355 H 661.218 -1.33466 0.671346 0
M  V30 7356 H 663.1 -4.139 -0.791503 0
M  V30 7357 H 661.775 -3.01093 -1.18848 0
M  V30 7358 H 660.682 -3.58899 1.05558 0
M  V30 7359 H 662.015 -4.72752 1.36992 0
M  V30 7360 N 663.667 -0.670007 -1.42649 0
M  V30 7361 C 664.915 -0.18991 -2.01206 0
M  V30 7362 C 665.236 1.20617 -1.53221 0
M  V30 7363 O 664.506 1.80898 -0.751856 0
M  V30 7364 H 663.086 -0.0672189 -0.743969 0
M  V30 7365 H 665.748 -0.865442 -1.74631 0
M  V30 7366 H 664.844 -0.187481 -3.11536 0
M  V30 7367 N 665.145 1.52092 -0.413018 0
M  V30 7368 C 666.075 2.30021 0.401567 0
M  V30 7369 C 667.056 1.34395 1.04269 0
M  V30 7370 O 668.241 1.63304 1.05097 0
M  V30 7371 C 665.371 3.12447 1.51638 0
M  V30 7372 C 664.325 4.16153 1.00005 0
M  V30 7373 C 663.651 4.86948 2.20875 0
M  V30 7374 C 664.951 5.22275 0.0513757 0
M  V30 7375 H 666.645 2.98365 -0.248704 0
M  V30 7376 H 664.191 1.4349 -0.121052 0
M  V30 7377 H 666.144 3.65733 2.09326 0
M  V30 7378 H 664.868 2.41879 2.19458 0
M  V30 7379 H 663.527 3.63882 0.445549 0
M  V30 7380 H 663.175 4.12905 2.8726 0
M  V30 7381 H 662.875 5.57057 1.86978 0
M  V30 7382 H 664.399 5.43048 2.79162 0
M  V30 7383 H 665.813 5.70778 0.537176 0
M  V30 7384 H 664.21 5.9977 -0.198977 0
M  V30 7385 H 665.28 4.76611 -0.892736 0
M  V30 7386 N 666.623 0.143563 1.56945 0
M  V30 7387 C 667.851 -0.515447 2.00377 0
M  V30 7388 C 668.266 -1.58643 1.02361 0
M  V30 7389 O 667.623 -1.82489 0.0201039 0
M  V30 7390 C 667.674 -1.11923 3.43737 0
M  V30 7391 O 667.395 -0.0910318 4.38005 0
M  V30 7392 C 668.896 -1.85918 4.02429 0
M  V30 7393 H 666.116 -0.134478 0.657386 0
M  V30 7394 H 668.66 0.237135 2.0312 0
M  V30 7395 H 666.815 -1.82245 3.41856 0
M  V30 7396 H 667.229 -0.532916 5.21786 0
M  V30 7397 H 668.703 -2.2346 5.04747 0
M  V30 7398 H 669.18 -2.7438 3.42947 0
M  V30 7399 H 669.786 -1.20303 4.07931 0
M  V30 7400 N 668.101 -1.57061 -0.130224 0
M  V30 7401 C 669.064 -1.98593 -1.14426 0
M  V30 7402 C 670.064 -0.874584 -1.34936 0
M  V30 7403 O 671.254 -1.14086 -1.31643 0
M  V30 7404 C 668.386 -2.31639 -2.50112 0
M  V30 7405 H 669.579 -2.89374 -0.787561 0
M  V30 7406 H 667.132 -1.51756 -0.374146 0
M  V30 7407 H 667.867 -1.43703 -2.90723 0
M  V30 7408 H 667.652 -3.12684 -2.36583 0
M  V30 7409 H 669.142 -2.64551 -3.23114 0
M  V30 7410 N 669.579 0.400081 -1.52437 0
M  V30 7411 C 670.995 0.739359 -1.41441 0
M  V30 7412 C 671.195 1.94512 -0.526053 0
M  V30 7413 O 670.251 2.525 0.00472502 0
M  V30 7414 C 671.564 0.984824 -2.84116 0
M  V30 7415 C 673.112 1.08698 -2.93519 0
M  V30 7416 C 673.587 1.36515 -4.37181 0
M  V30 7417 N 675.078 1.43361 -4.40457 0
M  V30 7418 C 675.813 1.66528 -5.48686 0
M  V30 7419 N 675.309 1.87239 -6.67018 0
M  V30 7420 N 677.102 1.68617 -5.36213 0
M  V30 7421 H 669.253 -0.393484 -2.08723 0
M  V30 7422 H 671.516 -0.1138 -0.941145 0
M  V30 7423 H 671.222 0.171096 -3.51284 0
M  V30 7424 H 671.096 1.90253 -3.25705 0
M  V30 7425 H 673.483 1.89129 -2.26526 0
M  V30 7426 H 673.564 0.147432 -2.55375 0
M  V30 7427 H 673.208 0.565982 -5.04737 0
M  V30 7428 H 673.138 2.31737 -4.7287 0
M  V30 7429 H 675.629 1.29108 -3.55161 0
M  V30 7430 H 675.942 2.04392 -7.45281 0
M  V30 7431 H 674.287 1.84486 -6.70067 0
M  V30 7432 H 677.478 1.5198 -4.42741 0
M  V30 7433 H 677.651 1.86332 -6.20632 0
M  V30 7434 N 671.057 1.43213 0.657864 0
M  V30 7435 C 672.305 1.44298 1.41501 0
M  V30 7436 C 672.626 0.0666478 1.94886 0
M  V30 7437 O 671.896 -0.897345 1.74139 0
M  V30 7438 H 670.476 0.531257 0.525143 0
M  V30 7439 H 673.138 1.78777 0.776195 0
M  V30 7440 H 672.234 2.1528 2.25966 0
M  V30 7441 N 672.536 -0.895792 1.29666 0
M  V30 7442 C 673.499 -1.98189 1.15124 0
M  V30 7443 C 674.499 -1.60572 0.0855717 0
M  V30 7444 O 675.689 -1.70991 0.332826 0
M  V30 7445 C 672.821 -3.32289 0.761372 0
M  V30 7446 H 674.014 -2.12518 2.11603 0
M  V30 7447 H 671.567 -1.0808 1.12908 0
M  V30 7448 H 672.302 -3.23662 -0.203393 0
M  V30 7449 H 672.087 -3.60958 1.53139 0
M  V30 7450 H 673.577 -4.1198 0.682792 0
M  V30 7451 N 674.014 -1.12206 -1.10668 0
M  V30 7452 C 675.263 -0.870595 -1.81944 0
M  V30 7453 C 675.576 0.605447 -1.85994 0
M  V30 7454 O 676.782 0.973433 -2.53449 0
M  V30 7455 C 675.238 -1.50783 -3.26791 0
M  V30 7456 C 674.846 -3.01849 -3.31046 0
M  V30 7457 C 676.59 -1.33653 -4.02911 0
M  V30 7458 C 674.497 -3.58518 -4.70339 0
M  V30 7459 H 673.427 -0.322043 -0.681765 0
M  V30 7460 H 676.078 -1.34827 -1.24475 0
M  V30 7461 H 674.46 -0.957825 -3.84242 0
M  V30 7462 H 675.634 -3.63321 -2.83433 0
M  V30 7463 H 673.949 -3.18346 -2.68411 0
M  V30 7464 H 676.546 -1.73416 -5.05797 0
M  V30 7465 H 676.889 -0.279949 -4.15358 0
M  V30 7466 H 677.422 -1.85562 -3.51868 0
M  V30 7467 H 674.161 -4.63925 -4.63091 0
M  V30 7468 H 673.681 -3.01819 -5.18329 0
M  V30 7469 H 675.36 -3.57434 -5.39305 0
M  V30 7470 N 675.492 1.28418 -0.913599 0
M  V30 7471 C 676.903 1.77024 -0.593237 0
M  V30 7472 C 677.254 1.74779 0.891441 0
M  V30 7473 O 676.379 1.34237 1.69733 0
M  V30 7474 C 676.974 3.21456 -1.07011 0
M  V30 7475 C 675.533 3.67786 -0.800664 0
M  V30 7476 C 674.68 2.48185 -1.23691 0
M  V30 7477 H 677.631 1.14883 -1.09487 0
M  V30 7478 H 677.652 3.78269 -0.411481 0
M  V30 7479 H 677.164 3.23058 -2.1507 0
M  V30 7480 H 675.265 3.71644 0.266725 0
M  V30 7481 H 675.378 4.57934 -1.4083 0
M  V30 7482 H 673.742 2.46116 -0.655655 0
M  V30 7483 H 674.525 2.52506 -2.32585 0
M  V30 7484 N 676.97 0.677563 1.42291 0
M  V30 7485 C 678.195 0.207901 2.06355 0
M  V30 7486 C 678.62 -1.12723 1.50583 0
M  V30 7487 O 677.978 -1.70171 0.62543 0
M  V30 7488 C 678.026 0.156489 3.6026 0
M  V30 7489 O 677.13 -0.874162 4.03029 0
M  V30 7490 H 676.471 0.106056 0.655475 0
M  V30 7491 H 679.001 0.927354 1.82377 0
M  V30 7492 H 679.011 -0.0187258 4.07996 0
M  V30 7493 H 677.686 1.13101 4.00226 0
M  V30 7494 H 676.263 -0.669764 3.66836 0
M  V30 7495 N 678.448 -1.51871 0.421078 0
M  V30 7496 C 679.678 -2.06057 -0.149723 0
M  V30 7497 C 680.086 -1.29002 -1.38402 0
M  V30 7498 O 679.429 -0.338385 -1.80556 0
M  V30 7499 C 679.491 -3.55216 -0.553339 0
M  V30 7500 C 679.155 -4.53408 0.571879 0
M  V30 7501 C 680.152 -4.99586 1.4391 0
M  V30 7502 C 677.837 -4.967 0.747979 0
M  V30 7503 C 679.831 -5.87711 2.46727 0
M  V30 7504 C 677.518 -5.84619 1.77944 0
M  V30 7505 C 678.516 -6.30021 2.63748 0
M  V30 7506 O 678.204 -7.16197 3.65126 0
M  V30 7507 H 677.936 -0.675744 -0.0186102 0
M  V30 7508 H 680.49 -1.96618 0.594166 0
M  V30 7509 H 678.72 -3.62381 -1.34969 0
M  V30 7510 H 680.409 -3.91992 -1.05342 0
M  V30 7511 H 681.175 -4.66846 1.31451 0
M  V30 7512 H 677.054 -4.60913 0.0897357 0
M  V30 7513 H 680.598 -6.2307 3.13734 0
M  V30 7514 H 676.495 -6.16771 1.90429 0
M  V30 7515 H 677.263 -7.34337 3.61512 0
M  V30 7516 N 679.926 -0.151884 -1.56866 0
M  V30 7517 C 680.859 0.824094 -2.128 0
M  V30 7518 C 681.837 1.2391 -1.05286 0
M  V30 7519 O 683.021 1.33433 -1.33146 0
M  V30 7520 C 680.148 2.1072 -2.65169 0
M  V30 7521 C 679.194 1.83774 -3.84876 0
M  V30 7522 S 680.027 1.02436 -5.25611 0
M  V30 7523 C 681.183 2.31855 -5.81373 0
M  V30 7524 H 681.416 0.348456 -2.95251 0
M  V30 7525 H 678.949 0.0624794 -1.54274 0
M  V30 7526 H 680.907 2.84428 -2.95992 0
M  V30 7527 H 679.568 2.55398 -1.8284 0
M  V30 7528 H 678.761 2.78929 -4.19779 0
M  V30 7529 H 678.363 1.18172 -3.5484 0
M  V30 7530 H 680.655 3.27469 -5.93102 0
M  V30 7531 H 681.598 2.01449 -6.7884 0
M  V30 7532 H 682.006 2.42727 -5.09651 0
M  V30 7533 N 681.404 1.57128 0.121893 0
M  V30 7534 C 682.351 2.0013 1.14964 0
M  V30 7535 C 683.321 0.872959 1.4131 0
M  V30 7536 O 684.506 1.13696 1.53225 0
M  V30 7537 C 681.646 2.40824 2.4718 0
M  V30 7538 C 680.759 3.67061 2.27794 0
M  V30 7539 C 679.894 3.96749 3.53219 0
M  V30 7540 C 678.933 5.16178 3.28978 0
M  V30 7541 N 678.07 5.41751 4.46599 0
M  V30 7542 H 682.91 2.8772 0.775947 0
M  V30 7543 H 680.447 1.42328 0.371652 0
M  V30 7544 H 682.405 2.62454 3.24305 0
M  V30 7545 H 681.035 1.56279 2.82448 0
M  V30 7546 H 680.087 3.53063 1.416 0
M  V30 7547 H 681.399 4.5434 2.05857 0
M  V30 7548 H 680.553 4.19012 4.38764 0
M  V30 7549 H 679.292 3.07941 3.78185 0
M  V30 7550 H 678.297 4.93762 2.41824 0
M  V30 7551 H 679.522 6.06561 3.05386 0
M  V30 7552 H 677.468 4.55899 4.71691 0
M  V30 7553 H 677.385 6.23347 4.27756 0
M  V30 7554 H 678.653 5.68531 5.33285 0
M  V30 7555 N 682.882 -0.391992 1.52647 0
M  V30 7556 C 683.845 -1.46135 1.7657 0
M  V30 7557 C 684.845 -1.47701 0.635698 0
M  V30 7558 O 686.035 -1.48924 0.903728 0
M  V30 7559 C 683.167 -2.85443 1.86374 0
M  V30 7560 H 684.36 -1.26208 2.72051 0
M  V30 7561 H 681.913 -0.623549 1.43323 0
M  V30 7562 H 682.648 -3.10718 0.928685 0
M  V30 7563 H 682.433 -2.85708 2.68539 0
M  V30 7564 H 683.923 -3.62933 2.06566 0
M  V30 7565 N 684.36 -1.4356 -0.65026 0
M  V30 7566 C 685.323 -1.48615 -1.74489 0
M  V30 7567 C 686.323 -0.370483 -1.56474 0
M  V30 7568 O 687.513 -0.632351 -1.62317 0
M  V30 7569 C 684.645 -1.34161 -3.13391 0
M  V30 7570 H 685.838 -2.46103 -1.71387 0
M  V30 7571 H 683.391 -1.30369 -0.862186 0
M  V30 7572 H 684.126 -0.376918 -3.22102 0
M  V30 7573 H 683.911 -2.1504 -3.27872 0
M  V30 7574 H 685.401 -1.40637 -3.93206 0
M  V30 7575 N 685.838 0.888903 -1.30139 0
M  V30 7576 C 686.785 1.99422 -1.16188 0
M  V30 7577 C 687.755 1.66017 -0.0523869 0
M  V30 7578 O 688.94 1.89506 -0.221864 0
M  V30 7579 C 686.08 3.34325 -0.855612 0
M  V30 7580 C 685.193 3.80445 -2.0466 0
M  V30 7581 C 684.328 5.03975 -1.67876 0
M  V30 7582 C 683.367 5.42492 -2.83493 0
M  V30 7583 N 682.504 6.57206 -2.47032 0
M  V30 7584 H 687.344 2.10687 -2.10749 0
M  V30 7585 H 684.881 1.03165 -1.04859 0
M  V30 7586 H 686.839 4.11968 -0.658681 0
M  V30 7587 H 685.469 3.22756 0.0531155 0
M  V30 7588 H 684.521 2.98745 -2.3549 0
M  V30 7589 H 685.833 4.04933 -2.91257 0
M  V30 7590 H 684.987 5.89232 -1.44535 0
M  V30 7591 H 683.726 4.8135 -0.784431 0
M  V30 7592 H 682.731 4.55764 -3.07505 0
M  V30 7593 H 683.956 5.67093 -3.73607 0
M  V30 7594 H 681.902 6.36164 -1.601 0
M  V30 7595 H 681.819 6.81543 -3.27161 0
M  V30 7596 H 683.087 7.45704 -2.27038 0
M  V30 7597 O 687.355 1.24817 1.02483 0
M  V30 7598 H 688.046 1.02783 1.64181 0
M  V30 END ATOM
M  V30 BEGIN BOND
M  V30 END BOND
M  V30 END CTAB
M  END
$$$$
