drugbank_target|Q15238 Pregnancy-specific beta-1-glycoprotein 5 (DB00523)
 OpenBabel12092121063D

  0  0  0     0  0            999 V3000
M  V30 BEGIN CTAB
M  V30 COUNTS 5324 5397 0 0 0
M  V30 BEGIN ATOM
M  V30 1 H -0.908 1.98254 -0.117106 0
M  V30 2 N 0 1.576 0 0
M  V30 3 C 0.933 2.03868 1.02534 0
M  V30 4 C 1.911 0.928543 1.3348 0
M  V30 5 O 3.095 1.19667 1.45644 0
M  V30 6 C 0.222 2.43627 2.35294 0
M  V30 7 C -0.732 3.65373 2.2001 0
M  V30 8 S 0.101 5.13292 1.52614 0
M  V30 9 C 1.257 5.56322 2.86805 0
M  V30 10 H 1.49 2.90518 0.631377 0
M  V30 11 H -0.977 1.52953 0.210867 0
M  V30 12 H 0.981 2.67203 3.11629 0
M  V30 13 H -0.358 1.57376 2.7183 0
M  V30 14 H -1.165 3.90944 3.18086 0
M  V30 15 H -1.563 3.418 1.51819 0
M  V30 16 H 0.729 5.58782 3.83104 0
M  V30 17 H 1.672 6.56266 2.65933 0
M  V30 18 H 2.08 4.83886 2.90714 0
M  V30 19 N 1.4781 -0.272755 1.55222 0
M  V30 20 C 2.7261 -1.00234 1.75492 0
M  V30 21 C 3.0471 -1.8681 0.5592 0
M  V30 22 O 2.3171 -1.91215 -0.425882 0
M  V30 23 H 0.8971 -0.373076 0.647166 0
M  V30 24 H 3.5591 -0.296926 1.92625 0
M  V30 25 H 2.6551 -1.63913 2.65592 0
M  V30 26 N 2.9562 -1.48159 -0.537278 0
M  V30 27 C 4.3672 -1.49429 -1.11928 0
M  V30 28 C 4.7182 -0.26 -1.9447 0
M  V30 29 O 3.8432 0.633489 -2.0692 0
M  V30 30 C 4.4382 -2.70758 -2.03656 0
M  V30 31 C 2.9972 -2.74923 -2.57088 0
M  V30 32 C 2.1442 -2.42835 -1.3389 0
M  V30 33 H 5.0952 -1.55381 -0.322886 0
M  V30 34 H 5.1162 -2.48861 -2.87834 0
M  V30 35 H 4.6282 -3.60575 -1.43553 0
M  V30 36 H 2.7292 -1.89296 -3.20933 0
M  V30 37 H 2.8422 -3.76157 -2.9672 0
M  V30 38 H 1.2062 -1.93836 -1.65226 0
M  V30 39 H 1.9892 -3.34884 -0.755504 0
M  V30 40 N 4.4343 0.785586 -1.36625 0
M  V30 41 C 5.3643 1.91259 -1.33949 0
M  V30 42 C 6.3453 1.68795 -0.210325 0
M  V30 43 O 7.5303 1.89854 -0.408561 0
M  V30 44 C 4.6603 3.28339 -1.13186 0
M  V30 45 C 3.6143 3.65335 -2.22967 0
M  V30 46 C 2.9403 5.00806 -1.87342 0
M  V30 47 C 4.2403 3.7352 -3.65075 0
M  V30 48 H 5.9343 1.93755 -2.28253 0
M  V30 49 H 3.4803 0.930788 -1.09874 0
M  V30 50 H 5.4333 4.06804 -1.09948 0
M  V30 51 H 4.1573 3.2624 -0.153332 0
M  V30 52 H 2.8163 2.89169 -2.25337 0
M  V30 53 H 2.4643 4.95233 -0.880545 0
M  V30 54 H 2.1643 5.26529 -2.60846 0
M  V30 55 H 3.6883 5.81687 -1.85667 0
M  V30 56 H 5.1023 4.42168 -3.64911 0
M  V30 57 H 3.4993 4.10731 -4.37516 0
M  V30 58 H 4.5693 2.74527 -3.99703 0
M  V30 59 N 5.9124 1.20967 1.01018 0
M  V30 60 C 7.1374 1.0503 1.78839 0
M  V30 61 C 7.5624 -0.395752 1.8389 0
M  V30 62 O 6.9204 -1.28529 1.27867 0
M  V30 63 C 6.9684 1.64602 3.2084 0
M  V30 64 O 6.0724 0.887988 4.02726 0
M  V30 65 H 5.4134 0.369987 0.551367 0
M  V30 66 H 7.9434 1.60399 1.27018 0
M  V30 67 H 7.9534 1.68607 3.71532 0
M  V30 68 H 6.6284 2.69841 3.16479 0
M  V30 69 H 5.2054 0.922648 3.61305 0
M  V30 70 N 7.3905 -1.2043 1.01659 0
M  V30 71 C 8.3535 -2.21433 0.591616 0
M  V30 72 C 9.3535 -1.57203 -0.338226 0
M  V30 73 O 10.5435 -1.73737 -0.126918 0
M  V30 74 C 7.6755 -3.40628 -0.136058 0
M  V30 75 H 8.8685 -2.60545 1.48514 0
M  V30 76 H 6.4215 -1.33893 0.806379 0
M  V30 77 H 7.1565 -3.07019 -1.04449 0
M  V30 78 H 6.9415 -3.88475 0.531917 0
M  V30 79 H 8.4315 -4.15475 -0.420735 0
M  V30 80 N 8.8686 -0.792821 -1.36206 0
M  V30 81 C 10.2796 -0.429513 -1.81692 0
M  V30 82 C 10.6306 1.04695 -1.65932 0
M  V30 83 O 9.7556 1.81256 -1.18218 0
M  V30 84 C 10.3506 -0.772831 -3.29868 0
M  V30 85 C 8.9096 -0.462307 -3.7355 0
M  V30 86 C 8.0566 -1.00569 -2.5842 0
M  V30 87 H 11.0076 -0.985672 -1.24379 0
M  V30 88 H 11.0286 -0.0651928 -3.80444 0
M  V30 89 H 10.5406 -1.84747 -3.41307 0
M  V30 90 H 8.6416 0.604158 -3.67669 0
M  V30 91 H 8.7546 -0.985299 -4.68859 0
M  V30 92 H 7.1186 -0.428734 -2.51066 0
M  V30 93 H 7.9016 -2.08616 -2.72643 0
M  V30 94 N 10.3467 1.47872 -0.545128 0
M  V30 95 C 11.7577 1.86384 -0.108581 0
M  V30 96 C 12.1087 1.45309 1.31832 0
M  V30 97 O 11.2337 0.850641 1.9898 0
M  V30 98 C 11.8287 3.38265 -0.190274 0
M  V30 99 C 10.3877 3.75914 0.191164 0
M  V30 100 C 9.5347 2.71926 -0.543273 0
M  V30 101 H 12.4857 1.39561 -0.755537 0
M  V30 102 H 12.5067 3.75831 0.594217 0
M  V30 103 H 12.0187 3.6813 -1.2289 0
M  V30 104 H 10.1197 3.51665 1.23136 0
M  V30 105 H 10.2327 4.78836 -0.158987 0
M  V30 106 H 8.5967 2.54697 0.0122495 0
M  V30 107 H 9.3797 3.04634 -1.58282 0
M  V30 108 N 11.8248 0.280983 1.55075 0
M  V30 109 C 13.0648 -0.335234 2.01632 0
M  V30 110 C 13.4288 -1.5261 1.16508 0
M  V30 111 O 14.6298 -2.21235 1.52672 0
M  V30 112 C 12.9008 -0.702172 3.50434 0
M  V30 113 S 14.4598 -1.30409 4.18974 0
M  V30 114 H 11.2778 -0.103967 0.703358 0
M  V30 115 H 13.8798 0.404187 1.91276 0
M  V30 116 H 12.5838 0.17333 4.10034 0
M  V30 117 H 12.1148 -1.4729 3.64786 0
M  V30 118 H 14.1298 -2.59253 4.23087 0
M  V30 119 N 13.3029 -1.57598 0.00835791 0
M  V30 120 C 14.5309 -1.95214 -0.68549 0
M  V30 121 C 14.9459 -0.883706 -1.66841 0
M  V30 122 O 14.3029 0.136565 -1.81988 0
M  V30 123 C 14.3539 -3.32865 -1.41007 0
M  V30 124 O 14.0749 -4.35609 -0.466552 0
M  V30 125 C 15.5759 -3.84991 -2.19765 0
M  V30 126 H 12.7959 -0.643422 -0.190392 0
M  V30 127 H 15.3399 -2.04406 0.0619607 0
M  V30 128 H 13.4949 -3.24956 -2.10908 0
M  V30 129 H 13.9089 -5.15288 -0.978699 0
M  V30 130 H 15.3829 -4.8371 -2.65948 0
M  V30 131 H 15.8599 -3.18137 -3.02796 0
M  V30 132 H 16.4659 -3.96103 -1.54864 0
M  V30 133 N 14.781 0.264519 -1.55364 0
M  V30 134 C 15.713 1.34965 -1.85248 0
M  V30 135 C 16.726 1.45136 -0.737525 0
M  V30 136 O 17.915 1.46801 -1.01547 0
M  V30 137 C 15.015 2.73008 -2.00797 0
M  V30 138 C 14.188 2.85324 -3.31525 0
M  V30 139 C 13.247 4.04097 -3.37034 0
M  V30 140 O 12.273 3.94455 -4.10358 0
M  V30 141 N 13.475 5.16458 -2.65049 0
M  V30 142 H 16.24 1.09672 -2.78913 0
M  V30 143 H 13.801 0.454635 -1.55386 0
M  V30 144 H 15.793 3.50772 -2.01844 0
M  V30 145 H 14.363 2.91087 -1.1396 0
M  V30 146 H 13.583 1.94377 -3.42945 0
M  V30 147 H 14.871 2.9049 -4.17724 0
M  V30 148 H 14.269 5.27181 -2.05175 0
M  V30 149 H 12.826 5.92422 -2.71809 0
M  V30 150 N 16.2591 1.48442 0.529413 0
M  V30 151 C 17.2091 1.59407 1.63014 0
M  V30 152 C 18.1931 0.451166 1.54445 0
M  V30 153 O 19.3851 0.702635 1.62456 0
M  V30 154 C 16.5141 1.63746 3.01732 0
M  V30 155 C 15.6001 2.83518 3.15402 0
M  V30 156 N 15.9911 4.07929 2.99045 0
M  V30 157 C 14.2891 2.80862 3.46457 0
M  V30 158 C 14.9901 4.8829 3.16146 0
M  V30 159 N 13.9661 4.21117 3.43746 0
M  V30 160 H 17.7681 2.53343 1.48978 0
M  V30 161 H 15.2821 1.44821 0.734885 0
M  V30 162 H 17.2791 1.69695 3.80801 0
M  V30 163 H 15.9391 0.709264 3.16859 0
M  V30 164 H 16.9501 4.38357 2.75796 0
M  V30 165 H 13.6271 1.97301 3.67938 0
M  V30 166 H 15.0171 5.97028 3.08232 0
M  V30 167 N 17.7372 -0.778329 1.37039 0
M  V30 168 C 18.9862 -1.53189 1.3121 0
M  V30 169 C 19.2992 -1.95328 -0.103095 0
M  V30 170 O 20.5052 -2.70012 -0.283826 0
M  V30 171 C 18.9612 -2.76591 2.30272 0
M  V30 172 C 18.5692 -2.41577 3.77286 0
M  V30 173 C 20.3132 -3.5455 2.33441 0
M  V30 174 C 18.2202 -3.61441 4.68096 0
M  V30 175 H 17.1502 -0.5751 0.487622 0
M  V30 176 H 19.8012 -0.853101 1.62464 0
M  V30 177 H 18.1832 -3.46326 1.92027 0
M  V30 178 H 19.3572 -1.79668 4.2433 0
M  V30 179 H 17.6722 -1.76806 3.76999 0
M  V30 180 H 20.2692 -4.43628 2.98493 0
M  V30 181 H 20.6122 -3.93936 1.34611 0
M  V30 182 H 21.1452 -2.91805 2.7036 0
M  V30 183 H 17.8842 -3.27142 5.6803 0
M  V30 184 H 17.4042 -4.22478 4.25761 0
M  V30 185 H 19.0832 -4.28335 4.8491 0
M  V30 186 N 19.2153 -1.21501 -1.00376 0
M  V30 187 C 20.4433 -1.059 -1.77744 0
M  V30 188 C 20.8583 0.391125 -1.84704 0
M  V30 189 O 20.2153 1.27133 -1.30933 0
M  V30 190 C 20.2663 -1.65111 -3.21591 0
M  V30 191 O 19.9873 -3.0445 -3.15027 0
M  V30 192 C 21.4883 -1.54637 -4.15454 0
M  V30 193 H 18.7083 -0.371825 -0.558558 0
M  V30 194 H 21.2523 -1.60865 -1.26264 0
M  V30 195 H 19.4073 -1.14235 -3.70175 0
M  V30 196 H 19.8213 -3.3278 -4.0541 0
M  V30 197 H 21.2953 -2.00808 -5.14179 0
M  V30 198 H 21.7723 -0.501022 -4.36333 0
M  V30 199 H 22.3783 -2.04767 -3.72761 0
M  V30 200 N 20.6934 1.19889 -1.02296 0
M  V30 201 C 21.9394 1.89973 -0.726759 0
M  V30 202 C 22.2944 1.7776 0.73614 0
M  V30 203 O 21.5874 1.15523 1.52856 0
M  V30 204 C 21.7814 3.39883 -1.10518 0
M  V30 205 C 21.6104 3.66684 -2.60332 0
M  V30 206 C 20.3804 3.85045 -3.27213 0
M  V30 207 C 22.5784 3.68727 -3.58532 0
M  V30 208 N 20.5604 3.99422 -4.66192 0
M  V30 209 C 21.9314 3.88604 -4.83101 0
M  V30 210 C 23.9864 3.51722 -3.52414 0
M  V30 211 C 22.6894 3.9324 -6.02292 0
M  V30 212 C 24.7154 3.57632 -4.71013 0
M  V30 213 C 24.0774 3.77988 -5.94394 0
M  V30 214 H 20.1764 0.714551 -0.317712 0
M  V30 215 H 22.7604 1.44123 -1.30907 0
M  V30 216 H 20.9314 3.8447 -0.551142 0
M  V30 217 H 22.6634 3.97464 -0.761853 0
M  V30 218 H 19.4184 3.83689 -2.77632 0
M  V30 219 H 19.8424 4.10473 -5.38368 0
M  V30 220 H 24.4844 3.34945 -2.58015 0
M  V30 221 H 22.2024 4.08811 -6.97065 0
M  V30 222 H 25.7884 3.45773 -4.67902 0
M  V30 223 H 24.6684 3.82428 -6.8463 0
M  V30 224 N 22.1715 0.800033 1.35784 0
M  V30 225 C 23.1185 0.203848 2.29898 0
M  V30 226 C 24.0885 -0.658375 1.52495 0
M  V30 227 O 25.2735 -0.604832 1.8096 0
M  V30 228 C 22.4135 -0.64688 3.38983 0
M  V30 229 C 21.5265 0.235054 4.3136 0
M  V30 230 C 20.6615 -0.623054 5.27533 0
M  V30 231 C 19.7005 0.259682 6.11549 0
M  V30 232 N 18.8375 -0.558019 6.99879 0
M  V30 233 H 23.6775 1.01186 2.80295 0
M  V30 234 H 21.2145 0.51053 1.37957 0
M  V30 235 H 23.1725 -1.15521 4.00887 0
M  V30 236 H 21.8025 -1.42021 2.89879 0
M  V30 237 H 20.8545 0.861438 3.70518 0
M  V30 238 H 22.1665 0.914768 4.9034 0
M  V30 239 H 21.3205 -1.19678 5.94779 0
M  V30 240 H 20.0595 -1.33636 4.69034 0
M  V30 241 H 19.0645 0.845726 5.43256 0
M  V30 242 H 20.2895 0.970748 6.72126 0
M  V30 243 H 18.2355 -1.25542 6.43875 0
M  V30 244 H 18.1525 0.0637872 7.55973 0
M  V30 245 H 19.4205 -1.11523 7.71481 0
M  V30 246 N 23.6496 -1.47581 0.552962 0
M  V30 247 C 24.8976 -2.02082 0.0272703 0
M  V30 248 C 25.2186 -1.4301 -1.32563 0
M  V30 249 O 24.4886 -0.603745 -1.86365 0
M  V30 250 H 23.0686 -0.746966 0.00709182 0
M  V30 251 H 25.7306 -1.81033 0.722008 0
M  V30 252 H 24.8266 -3.12034 -0.0639951 0
M  V30 253 N 25.1277 -0.289203 -1.54924 0
M  V30 254 C 26.0577 0.58549 -2.2604 0
M  V30 255 C 27.0387 1.14753 -1.25562 0
M  V30 256 O 28.2237 1.17906 -1.54311 0
M  V30 257 C 25.3537 1.76305 -2.99222 0
M  V30 258 C 24.3077 1.33191 -4.06748 0
M  V30 259 C 23.6337 2.5937 -4.6758 0
M  V30 260 C 24.9337 0.471775 -5.20165 0
M  V30 261 H 26.6277 -0.00763532 -2.99399 0
M  V30 262 H 24.1737 -0.00511229 -1.43999 0
M  V30 263 H 26.1267 2.38097 -3.47689 0
M  V30 264 H 24.8507 2.38223 -2.23422 0
M  V30 265 H 23.5097 0.737121 -3.59113 0
M  V30 266 H 23.1577 3.19576 -3.88433 0
M  V30 267 H 22.8577 2.31228 -5.40192 0
M  V30 268 H 24.3817 3.21985 -5.18804 0
M  V30 269 H 25.7957 0.995056 -5.64599 0
M  V30 270 H 24.1927 0.284639 -5.99425 0
M  V30 271 H 25.2627 -0.506041 -4.82252 0
M  V30 272 N 26.6058 1.57591 -0.0167156 0
M  V30 273 C 27.5358 2.12496 0.967858 0
M  V30 274 C 28.5168 1.03807 1.34752 0
M  V30 275 O 29.7018 1.31577 1.42833 0
M  V30 276 C 26.8318 2.64194 2.25431 0
M  V30 277 C 25.7858 3.77559 2.01576 0
M  V30 278 C 25.1118 4.15636 3.36379 0
M  V30 279 C 26.4118 5.04151 1.36489 0
M  V30 280 H 28.1058 2.95013 0.510643 0
M  V30 281 H 25.6518 1.41915 0.244181 0
M  V30 282 H 27.6048 3.01236 2.94678 0
M  V30 283 H 26.3288 1.78821 2.73296 0
M  V30 284 H 24.9878 3.40937 1.34751 0
M  V30 285 H 24.6358 3.27263 3.81979 0
M  V30 286 H 24.3358 4.92022 3.21229 0
M  V30 287 H 25.8598 4.5525 4.06915 0
M  V30 288 H 27.2738 5.38857 1.95718 0
M  V30 289 H 25.6708 5.85453 1.31776 0
M  V30 290 H 26.7408 4.83733 0.336219 0
M  V30 291 N 28.0839 -0.256276 1.55502 0
M  V30 292 C 29.0139 -1.32102 1.92539 0
M  V30 293 C 29.9949 -1.50684 0.789194 0
M  V30 294 O 31.1799 -1.63449 1.04872 0
M  V30 295 C 28.3099 -2.67752 2.21192 0
M  V30 296 C 27.2639 -2.63878 3.36975 0
M  V30 297 C 26.5899 -4.03236 3.51147 0
M  V30 298 C 27.8899 -2.21682 4.72921 0
M  V30 299 H 29.5839 -1.01351 2.81724 0
M  V30 300 H 27.1299 -0.486105 1.35547 0
M  V30 301 H 29.0829 -3.42365 2.45691 0
M  V30 302 H 27.8069 -3.0012 1.28824 0
M  V30 303 H 26.4659 -1.91722 3.12471 0
M  V30 304 H 26.1139 -4.32854 2.56216 0
M  V30 305 H 25.8139 -4.01535 4.29003 0
M  V30 306 H 27.3379 -4.79563 3.77957 0
M  V30 307 H 28.7519 -2.86023 4.96854 0
M  V30 308 H 27.1489 -2.3111 5.53812 0
M  V30 309 H 28.2189 -1.16833 4.70615 0
M  V30 310 N 29.562 -1.4872 -0.521534 0
M  V30 311 C 30.79 -1.60843 -1.30142 0
M  V30 312 C 31.205 -0.271897 -1.86832 0
M  V30 313 O 30.562 0.739969 -1.66825 0
M  V30 314 C 30.613 -2.66155 -2.4463 0
M  V30 315 O 30.334 -3.94623 -1.90275 0
M  V30 316 C 31.835 -2.88795 -3.36322 0
M  V30 317 H 29.055 -0.542075 -0.395468 0
M  V30 318 H 31.599 -1.94609 -0.628285 0
M  V30 319 H 29.754 -2.35224 -3.07812 0
M  V30 320 H 30.168 -4.52468 -2.65279 0
M  V30 321 H 31.642 -3.66264 -4.12983 0
M  V30 322 H 32.119 -1.97934 -3.9207 0
M  V30 323 H 32.725 -3.21063 -2.78924 0
M  V30 324 N 31.0401 0.771051 -1.3745 0
M  V30 325 C 32.0031 1.86598 -1.33093 0
M  V30 326 C 33.0031 1.59076 -0.234845 0
M  V30 327 O 34.1931 1.67145 -0.490732 0
M  V30 328 C 31.3251 3.23747 -1.06773 0
M  V30 329 H 32.5181 1.91873 -2.30488 0
M  V30 330 H 30.0711 0.970876 -1.2249 0
M  V30 331 H 30.8061 3.24148 -0.099129 0
M  V30 332 H 30.5911 3.45115 -1.86112 0
M  V30 333 H 32.0811 4.03824 -1.06377 0
M  V30 334 N 32.5182 1.22032 0.997298 0
M  V30 335 C 33.7432 1.06921 1.77715 0
M  V30 336 C 34.1682 -0.376226 1.84299 0
M  V30 337 O 33.5262 -1.27165 1.29223 0
M  V30 338 C 33.5742 1.67996 3.19076 0
M  V30 339 O 32.6782 0.930653 4.01762 0
M  V30 340 H 32.0192 0.375814 0.547412 0
M  V30 341 H 34.5492 1.61737 1.25309 0
M  V30 342 H 34.5592 1.72538 3.69723 0
M  V30 343 H 33.2342 2.73182 3.13599 0
M  V30 344 H 31.8112 0.960917 3.60307 0
M  V30 345 N 33.9963 -1.19345 1.0293 0
M  V30 346 C 34.9263 -2.2481 0.631105 0
M  V30 347 C 35.9073 -1.66245 -0.360104 0
M  V30 348 O 37.0923 -1.92677 -0.242726 0
M  V30 349 C 34.2223 -3.47295 -0.0184607 0
M  V30 350 C 33.1763 -4.18536 0.895073 0
M  V30 351 C 32.5023 -5.34586 0.110592 0
M  V30 352 C 33.8023 -4.73287 2.209 0
M  V30 353 H 35.4963 -2.58372 1.51275 0
M  V30 354 H 33.0423 -1.24194 0.728818 0
M  V30 355 H 34.9953 -4.20268 -0.308675 0
M  V30 356 H 33.7193 -3.12933 -0.934907 0
M  V30 357 H 32.3783 -3.47446 1.16949 0
M  V30 358 H 32.0263 -4.96469 -0.807902 0
M  V30 359 H 31.7263 -5.83183 0.719087 0
M  V30 360 H 33.2503 -6.10355 -0.172871 0
M  V30 361 H 34.6643 -5.38013 1.98028 0
M  V30 362 H 33.0613 -5.32373 2.76946 0
M  V30 363 H 34.1313 -3.91331 2.86336 0
M  V30 364 N 35.4744 -0.807222 -1.35358 0
M  V30 365 C 36.4044 -0.232509 -2.3234 0
M  V30 366 C 37.3854 0.642386 -1.57504 0
M  V30 367 O 38.5704 0.572526 -1.85569 0
M  V30 368 C 35.7004 0.619238 -3.41735 0
M  V30 369 C 34.6544 -0.157215 -4.27711 0
M  V30 370 C 33.9804 0.816273 -5.28433 0
M  V30 371 C 35.2804 -1.35656 -5.04376 0
M  V30 372 H 36.9744 -1.04276 -2.80654 0
M  V30 373 H 34.5204 -0.50288 -1.34934 0
M  V30 374 H 36.4734 1.03137 -4.08584 0
M  V30 375 H 35.1974 1.46239 -2.92031 0
M  V30 376 H 33.8564 -0.550525 -3.62443 0
M  V30 377 H 33.5044 1.65494 -4.74996 0
M  V30 378 H 33.2044 0.301067 -5.86828 0
M  V30 379 H 34.7284 1.22659 -5.98153 0
M  V30 380 H 36.1424 -1.01927 -5.64166 0
M  V30 381 H 34.5394 -1.8063 -5.7227 0
M  V30 382 H 35.6094 -2.14288 -4.34981 0
M  V30 383 N 36.9525 1.47285 -0.560781 0
M  V30 384 C 37.9005 2.31756 0.197942 0
M  V30 385 C 38.8945 1.43146 0.905854 0
M  V30 386 O 40.1005 1.59891 0.826733 0
M  V30 387 H 36.4755 0.747438 0.0827049 0
M  V30 388 H 38.4465 2.9359 -0.533629 0
M  V30 389 C 37.1955 3.25874 1.21249 0
M  V30 390 H 36.5185 3.94023 0.67719 0
M  V30 391 H 37.9585 3.87803 1.71419 0
M  V30 392 C 36.4175 2.49651 2.26221 0
M  V30 393 O 36.9475 2.24355 3.33208 0
M  V30 394 N 35.1535 2.10597 2.00243 0
M  V30 395 H 34.7005 2.31369 1.13252 0
M  V30 396 H 34.6585 1.59913 2.70694 0
M  V30 397 N 38.4306 0.297415 1.54768 0
M  V30 398 C 39.6776 -0.312913 2.00068 0
M  V30 399 C 40.0056 -1.54171 1.18582 0
M  V30 400 O 39.2606 -1.94108 0.249133 0
M  V30 401 C 39.5596 -0.717561 3.50123 0
M  V30 402 C 39.2256 0.409095 4.4904 0
M  V30 403 C 37.8876 0.718399 4.75807 0
M  V30 404 C 40.2396 1.16717 5.07963 0
M  V30 405 C 37.5676 1.78896 5.5876 0
M  V30 406 C 39.9196 2.22762 5.92081 0
M  V30 407 C 38.5836 2.54303 6.1716 0
M  V30 408 H 37.8536 -0.114503 0.7321 0
M  V30 409 H 40.5006 0.415767 1.86932 0
M  V30 410 H 38.8056 -1.52627 3.60849 0
M  V30 411 H 40.5026 -1.20091 3.82595 0
M  V30 412 H 37.0926 0.157918 4.28309 0
M  V30 413 H 41.2766 0.941466 4.87289 0
M  V30 414 H 36.5326 2.0381 5.7643 0
M  V30 415 H 40.7066 2.81962 6.36765 0
M  V30 416 H 38.3336 3.3739 6.81229 0
M  V30 417 N 39.9087 -1.5758 0.0250728 0
M  V30 418 C 41.1547 -1.92746 -0.649648 0
M  V30 419 C 41.5097 -0.901588 -1.69968 0
M  V30 420 O 40.8027 0.0829251 -1.9142 0
M  V30 421 C 40.9967 -3.32421 -1.31268 0
M  V30 422 C 40.8257 -4.48499 -0.328394 0
M  V30 423 C 39.5957 -5.05251 0.070284 0
M  V30 424 C 41.7937 -5.12618 0.415665 0
M  V30 425 N 39.7757 -6.04851 1.05016 0
M  V30 426 C 41.1467 -6.0728 1.24943 0
M  V30 427 C 43.2017 -4.95612 0.476803 0
M  V30 428 C 41.9047 -6.86766 2.1388 0
M  V30 429 C 43.9307 -5.75703 1.3535 0
M  V30 430 C 43.2927 -6.69978 2.17504 0
M  V30 431 H 39.3917 -0.753231 -0.210159 0
M  V30 432 H 41.9757 -1.94486 0.0912999 0
M  V30 433 H 40.1467 -3.31508 -2.02379 0
M  V30 434 H 41.8787 -3.54946 -1.94411 0
M  V30 435 H 38.6337 -4.72628 -0.303323 0
M  V30 436 H 39.0577 -6.5934 1.53622 0
M  V30 437 H 43.6997 -4.22554 -0.144105 0
M  V30 438 H 41.4177 -7.59132 2.77027 0
M  V30 439 H 45.0037 -5.64579 1.40504 0
M  V30 440 H 43.8837 -7.30873 2.84244 0
M  V30 441 N 41.3868 0.248026 -1.55636 0
M  V30 442 C 42.3348 1.32683 -1.91045 0
M  V30 443 C 43.3288 1.49883 -0.789401 0
M  V30 444 O 44.5348 1.51371 -0.974007 0
M  V30 445 H 40.9098 0.444272 -0.606734 0
M  V30 446 H 42.8808 1.00085 -2.81115 0
M  V30 447 C 41.6298 2.6755 -2.22064 0
M  V30 448 H 40.9528 2.55114 -3.07826 0
M  V30 449 H 42.3928 3.41912 -2.50743 0
M  V30 450 C 40.8518 3.20556 -1.0366 0
M  V30 451 O 41.3818 4.00695 -0.284016 0
M  V30 452 N 39.5878 2.78568 -0.82753 0
M  V30 453 H 39.1348 2.1351 -1.44123 0
M  V30 454 H 39.0928 3.14378 -0.0369803 0
M  V30 455 N 42.8649 1.48995 0.513639 0
M  V30 456 C 43.7949 1.67636 1.62544 0
M  V30 457 C 44.7759 0.525087 1.61793 0
M  V30 458 O 45.9609 0.759502 1.78732 0
M  V30 459 C 43.0909 1.73114 3.01079 0
M  V30 460 C 42.0449 2.87905 3.16693 0
M  V30 461 C 41.3709 2.78486 4.56453 0
M  V30 462 C 42.6709 4.29005 2.97913 0
M  V30 463 H 44.3649 2.60716 1.47198 0
M  V30 464 H 41.9109 1.25465 0.706714 0
M  V30 465 H 43.8639 1.84742 3.78746 0
M  V30 466 H 42.5879 0.766241 3.17484 0
M  V30 467 H 41.2469 2.75859 2.41448 0
M  V30 468 H 40.8949 1.7993 4.69717 0
M  V30 469 H 40.5949 3.55523 4.67843 0
M  V30 470 H 42.1189 2.92104 5.36197 0
M  V30 471 H 43.5329 4.41798 3.65359 0
M  V30 472 H 41.9299 5.07166 3.20785 0
M  V30 473 H 42.9999 4.44329 1.94165 0
M  V30 474 N 44.343 -0.763751 1.37857 0
M  V30 475 C 45.754 -1.3405 1.29952 0
M  V30 476 C 46.105 -1.96138 -0.0492898 0
M  V30 477 O 45.23 -1.94372 -0.951239 0
M  V30 478 C 45.825 -2.43729 2.35333 0
M  V30 479 C 44.384 -2.97151 2.31037 0
M  V30 480 C 43.531 -1.70438 2.18738 0
M  V30 481 H 46.482 -0.563396 1.48363 0
M  V30 482 H 46.503 -3.23412 2.00462 0
M  V30 483 H 46.015 -1.9851 3.33489 0
M  V30 484 H 44.116 -3.46724 1.3643 0
M  V30 485 H 44.229 -3.52221 3.24772 0
M  V30 486 H 42.593 -1.93673 1.65418 0
M  V30 487 H 43.376 -1.27312 3.18821 0
M  V30 488 N 45.8211 -1.22559 -0.990812 0
M  V30 489 C 47.0701 -1.04553 -1.72486 0
M  V30 490 C 47.3831 0.419349 -1.91052 0
M  V30 491 O 48.5891 0.719121 -2.61803 0
M  V30 492 C 47.0451 -1.82231 -3.10355 0
M  V30 493 C 46.6531 -3.32981 -2.99713 0
M  V30 494 C 48.3971 -1.7268 -3.87791 0
M  V30 495 C 46.3041 -4.03091 -4.32748 0
M  V30 496 H 45.2341 -0.387614 -0.646739 0
M  V30 497 H 47.8851 -1.46429 -1.10593 0
M  V30 498 H 46.2671 -1.33155 -3.72942 0
M  V30 499 H 47.4411 -3.89466 -2.46278 0
M  V30 500 H 45.7561 -3.43231 -2.35758 0
M  V30 501 H 48.3531 -2.22381 -4.86262 0
M  V30 502 H 48.6961 -0.687607 -4.10582 0
M  V30 503 H 49.2291 -2.1931 -3.31885 0
M  V30 504 H 45.9681 -5.07273 -4.15156 0
M  V30 505 H 45.4881 -3.51394 -4.86089 0
M  V30 506 H 47.1671 -4.08804 -5.01486 0
M  V30 507 N 47.2992 1.18797 -1.03562 0
M  V30 508 C 48.5272 1.92599 -0.755869 0
M  V30 509 C 48.9422 1.75886 0.686271 0
M  V30 510 O 48.2992 1.08517 1.46732 0
M  V30 511 C 48.3502 3.44159 -1.10619 0
M  V30 512 O 48.0712 3.60341 -2.4917 0
M  V30 513 C 49.5722 4.3507 -0.850214 0
M  V30 514 H 46.7922 0.611587 -0.276048 0
M  V30 515 H 49.3362 1.50742 -1.38192 0
M  V30 516 H 47.4912 3.83823 -0.525194 0
M  V30 517 H 47.9052 4.54128 -2.62427 0
M  V30 518 H 49.3792 5.39989 -1.14523 0
M  V30 519 H 49.8562 4.38673 0.215176 0
M  V30 520 H 50.4622 4.01097 -1.41426 0
M  V30 521 N 48.7773 0.814389 1.34928 0
M  V30 522 C 49.7403 0.235759 2.27984 0
M  V30 523 C 50.7403 -0.581412 1.49921 0
M  V30 524 O 51.9303 -0.398758 1.69575 0
M  V30 525 C 49.0623 -0.670433 3.34242 0
M  V30 526 H 50.2553 1.05659 2.80671 0
M  V30 527 H 47.8083 0.585614 1.44915 0
M  V30 528 H 48.5433 -1.51466 2.86755 0
M  V30 529 H 48.3283 -0.0860822 3.92005 0
M  V30 530 H 49.8183 -1.06935 4.03676 0
M  V30 531 N 50.2554 -1.46986 0.568584 0
M  V30 532 C 51.1874 -2.28233 -0.210337 0
M  V30 533 C 52.2004 -1.37682 -0.868767 0
M  V30 534 O 53.3894 -1.62406 -0.740705 0
M  V30 535 C 50.4894 -3.12293 -1.3163 0
M  V30 536 C 49.6624 -4.30878 -0.7525 0
M  V30 537 C 48.7214 -4.96445 -1.74439 0
M  V30 538 O 47.7474 -5.54482 -1.286 0
M  V30 539 N 48.9494 -4.92171 -3.07812 0
M  V30 540 H 51.7144 -2.95723 0.486648 0
M  V30 541 H 49.2754 -1.56742 0.405409 0
M  V30 542 H 51.2674 -3.53022 -1.97883 0
M  V30 543 H 49.8374 -2.46971 -1.91636 0
M  V30 544 H 49.0574 -3.94104 0.0871128 0
M  V30 545 H 50.3454 -5.07558 -0.35536 0
M  V30 546 H 49.7434 -4.46239 -3.47688 0
M  V30 547 H 48.3004 -5.36884 -3.69592 0
M  V30 548 N 51.7335 -0.305618 -1.54608 0
M  V30 549 C 52.9795 0.302746 -2.00528 0
M  V30 550 C 53.3125 1.53184 -1.19367 0
M  V30 551 O 52.5875 1.92598 -0.271321 0
M  V30 552 C 52.8705 0.654756 -3.54097 0
M  V30 553 C 52.7235 -0.583793 -4.45995 0
M  V30 554 C 54.0425 1.47947 -4.14487 0
M  V30 555 H 51.1615 0.108564 -0.72896 0
M  V30 556 H 53.8035 -0.418634 -1.85331 0
M  V30 557 H 51.9535 1.26935 -3.67178 0
M  V30 558 H 53.6255 -1.22224 -4.44814 0
M  V30 559 H 51.8685 -1.21615 -4.16404 0
M  V30 560 H 52.5395 -0.293287 -5.5122 0
M  V30 561 H 55.0155 0.96013 -4.04871 0
M  V30 562 H 53.8915 1.69454 -5.22088 0
M  V30 563 H 54.1525 2.47011 -3.66658 0
M  V30 564 N 53.2116 1.57565 -0.0334293 0
M  V30 565 C 54.4396 1.9628 0.654347 0
M  V30 566 C 54.8546 0.910138 1.65414 0
M  V30 567 O 54.2116 -0.107595 1.82183 0
M  V30 568 C 54.2626 3.35067 1.35693 0
M  V30 569 O 53.9836 4.36296 0.397191 0
M  V30 570 C 55.4846 3.88439 2.13613 0
M  V30 571 H 52.7046 0.646369 0.180132 0
M  V30 572 H 55.2486 2.04282 -0.0944721 0
M  V30 573 H 53.4036 3.2827 2.05712 0
M  V30 574 H 53.8176 5.1678 0.896597 0
M  V30 575 H 55.2916 4.8788 2.58219 0
M  V30 576 H 55.7686 3.22914 2.97696 0
M  V30 577 H 56.3746 3.98516 1.48543 0
M  V30 578 N 54.6897 -0.239769 1.55765 0
M  V30 579 C 55.9387 -0.964754 1.77131 0
M  V30 580 C 56.2517 -1.86213 0.59868 0
M  V30 581 O 57.4577 -2.6244 0.695522 0
M  V30 582 C 55.9137 -1.76552 3.1362 0
M  V30 583 C 55.5217 -0.915185 4.38553 0
M  V30 584 C 57.2657 -2.48281 3.44321 0
M  V30 585 C 55.1727 -1.71225 5.66071 0
M  V30 586 H 54.1027 -0.363953 0.660344 0
M  V30 587 H 56.7537 -0.219181 1.82186 0
M  V30 588 H 55.1357 -2.55331 3.02691 0
M  V30 589 H 56.3097 -0.169217 4.60489 0
M  V30 590 H 54.6247 -0.310889 4.15238 0
M  V30 591 H 57.2217 -3.08382 4.36812 0
M  V30 592 H 57.5647 -3.20256 2.65973 0
M  V30 593 H 58.0977 -1.76507 3.56497 0
M  V30 594 H 54.8367 -1.03612 6.4726 0
M  V30 595 H 54.3567 -2.43331 5.48224 0
M  V30 596 H 56.0357 -2.27758 6.05587 0
M  V30 597 N 56.1678 -1.49265 -0.50573 0
M  V30 598 C 57.0778 -1.68312 -1.63427 0
M  V30 599 C 58.0938 -0.565682 -1.64548 0
M  V30 600 O 59.2698 -0.839801 -1.83055 0
M  V30 601 C 56.3348 -1.74107 -2.99813 0
M  V30 602 C 55.3958 -2.97653 -3.09356 0
M  V30 603 C 54.6288 -3.03163 -4.39236 0
M  V30 604 O 54.8518 -2.16396 -5.27758 0
M  V30 605 O 53.7858 -3.9558 -4.53652 0
M  V30 606 H 57.6118 -2.63907 -1.50289 0
M  V30 607 H 55.1968 -1.32951 -0.681502 0
M  V30 608 H 57.0788 -1.803 -3.80881 0
M  V30 609 H 55.7538 -0.816901 -3.13223 0
M  V30 610 H 54.6608 -2.96981 -2.27493 0
M  V30 611 H 55.9938 -3.89535 -3.00871 0
M  V30 612 N 57.6459 0.756429 -1.3826 0
M  V30 613 C 58.6089 1.85176 -1.35065 0
M  V30 614 C 59.6089 1.58818 -0.251703 0
M  V30 615 O 60.7989 1.66615 -0.508433 0
M  V30 616 C 57.9309 3.22596 -1.10201 0
M  V30 617 H 59.1239 1.89417 -2.3251 0
M  V30 618 H 56.6769 0.95783 -1.23512 0
M  V30 619 H 57.4119 3.24025 -0.133504 0
M  V30 620 H 57.1969 3.43122 -1.89762 0
M  V30 621 H 58.6869 4.02673 -1.10654 0
M  V30 622 N 59.124 1.23083 0.984299 0
M  V30 623 C 60.054 1.03292 2.09411 0
M  V30 624 C 61.035 -0.048923 1.7003 0
M  V30 625 O 62.22 0.114967 1.93859 0
M  V30 626 C 59.35 0.619155 3.41736 0
M  V30 627 C 58.304 1.64791 3.95004 0
M  V30 628 C 57.63 1.0897 5.23478 0
M  V30 629 C 58.93 3.03999 4.24714 0
M  V30 630 H 60.624 1.96119 2.26225 0
M  V30 631 H 58.17 0.944344 1.08711 0
M  V30 632 H 60.123 0.467777 4.18796 0
M  V30 633 H 58.847 -0.344786 3.24775 0
M  V30 634 H 57.506 1.78721 3.20085 0
M  V30 635 H 57.154 0.11686 5.02864 0
M  V30 636 H 56.854 1.77704 5.60085 0
M  V30 637 H 58.378 0.950093 6.03163 0
M  V30 638 H 59.792 2.93393 4.92538 0
M  V30 639 H 58.189 3.69936 4.72512 0
M  V30 640 H 59.259 3.53285 3.32142 0
M  V30 641 N 60.6021 -1.18246 1.0419 0
M  V30 642 C 62.0131 -1.69914 0.773698 0
M  V30 643 C 62.3641 -1.83085 -0.705297 0
M  V30 644 O 61.4891 -1.51123 -1.5489 0
M  V30 645 C 62.0841 -3.08619 1.39784 0
M  V30 646 C 60.6431 -3.57494 1.17792 0
M  V30 647 C 59.7901 -2.34013 1.48773 0
M  V30 648 H 62.7411 -1.02904 1.20816 0
M  V30 649 H 62.7621 -3.71958 0.801714 0
M  V30 650 H 62.2741 -2.99001 2.47426 0
M  V30 651 H 60.3751 -3.72406 0.120295 0
M  V30 652 H 60.4881 -4.40852 1.87581 0
M  V30 653 H 58.8521 -2.37986 0.907463 0
M  V30 654 H 59.6351 -2.27013 2.57527 0
M  V30 655 N 62.0802 -0.821533 -1.34494 0
M  V30 656 C 63.4912 -0.467956 -1.8074 0
M  V30 657 C 63.8422 1.01151 -1.68116 0
M  V30 658 O 62.9672 1.78707 -1.22036 0
M  V30 659 C 63.5622 -0.842627 -3.28154 0
M  V30 660 C 62.1212 -0.541439 -3.72485 0
M  V30 661 C 61.2682 -1.06028 -2.56229 0
M  V30 662 H 64.2192 -1.01183 -1.22261 0
M  V30 663 H 64.2402 -0.145876 -3.8022 0
M  V30 664 H 63.7522 -1.91945 -3.37311 0
M  V30 665 H 61.8532 0.526034 -3.68868 0
M  V30 666 H 61.9662 -1.08453 -4.66663 0
M  V30 667 H 60.3302 -0.481892 -2.501 0
M  V30 668 H 61.1132 -2.14352 -2.68157 0
M  V30 669 N 63.5583 1.46682 -0.576371 0
M  V30 670 C 64.5053 2.30241 0.160499 0
M  V30 671 C 65.4753 1.40233 0.890162 0
M  V30 672 O 66.6603 1.69186 0.882084 0
M  V30 673 C 63.8003 3.24578 1.1723 0
M  V30 674 C 62.9133 4.29684 0.446736 0
M  V30 675 C 62.0483 5.11154 1.44551 0
M  V30 676 C 61.0873 6.08015 0.70599 0
M  V30 677 N 60.2243 6.82376 1.65251 0
M  V30 678 H 65.0643 2.92727 -0.558127 0
M  V30 679 H 62.6013 1.44272 -0.287056 0
M  V30 680 H 64.5593 3.77711 1.77172 0
M  V30 681 H 63.1893 2.63916 1.85872 0
M  V30 682 H 62.2413 3.79458 -0.267594 0
M  V30 683 H 63.5533 4.98626 -0.131686 0
M  V30 684 H 62.7073 5.68533 2.11791 0
M  V30 685 H 61.4463 4.42158 2.05786 0
M  V30 686 H 60.4513 5.49796 0.0197725 0
M  V30 687 H 61.6763 6.79028 0.09912 0
M  V30 688 H 59.6223 6.16094 2.25308 0
M  V30 689 H 59.5393 7.47556 1.12673 0
M  V30 690 H 60.8073 7.44316 2.31546 0
M  V30 691 N 65.0364 0.313813 1.54444 0
M  V30 692 C 66.2824 -0.292108 2.00685 0
M  V30 693 C 66.6154 -1.52548 1.20177 0
M  V30 694 O 65.8904 -1.92452 0.281531 0
M  V30 695 C 66.1734 -0.635968 3.5444 0
M  V30 696 C 66.0264 0.607437 4.4568 0
M  V30 697 C 67.3454 -1.45747 4.15266 0
M  V30 698 H 64.4644 -0.104697 0.729526 0
M  V30 699 H 67.1064 0.428457 1.85106 0
M  V30 700 H 65.2564 -1.24986 3.67846 0
M  V30 701 H 66.9284 1.24581 4.44159 0
M  V30 702 H 65.1714 1.23822 4.15753 0
M  V30 703 H 65.8424 0.322515 5.51057 0
M  V30 704 H 68.3184 -0.938645 4.05375 0
M  V30 705 H 67.1944 -1.66683 5.2298 0
M  V30 706 H 67.4554 -2.45063 3.67963 0
M  V30 707 N 66.5145 -1.57545 0.0417849 0
M  V30 708 C 67.7395 -1.97035 -0.647455 0
M  V30 709 C 68.1645 -0.918775 -1.64135 0
M  V30 710 O 67.5225 0.119006 -1.80909 0
M  V30 711 C 67.5705 -3.35609 -1.31905 0
M  V30 712 O 66.6745 -3.3287 -2.43457 0
M  V30 713 H 66.0155 -0.64211 -0.169086 0
M  V30 714 H 68.5455 -2.04318 0.107399 0
M  V30 715 H 68.5555 -3.72126 -1.67291 0
M  V30 716 H 67.2305 -4.11685 -0.590586 0
M  V30 717 H 65.8075 -3.08087 -2.10088 0
M  V30 718 N 67.9926 0.231505 -1.5589 0
M  V30 719 C 68.9026 1.308 -1.94752 0
M  V30 720 C 69.9186 1.51826 -0.849989 0
M  V30 721 O 71.0946 1.6515 -1.15271 0
M  V30 722 C 68.1596 2.63968 -2.24771 0
M  V30 723 C 67.2206 2.51331 -3.48039 0
M  V30 724 C 66.4536 3.78148 -3.76616 0
M  V30 725 O 66.6766 4.80722 -3.07022 0
M  V30 726 O 65.6106 3.75857 -4.70123 0
M  V30 727 H 69.4366 1.0083 -2.86474 0
M  V30 728 H 67.0216 0.433547 -1.42971 0
M  V30 729 H 68.9036 3.42633 -2.45318 0
M  V30 730 H 67.5786 2.9364 -1.36225 0
M  V30 731 H 66.4856 1.709 -3.32782 0
M  V30 732 H 67.8186 2.26601 -4.36936 0
M  V30 733 N 69.4707 1.49531 0.497807 0
M  V30 734 C 70.7187 1.58865 1.24926 0
M  V30 735 C 71.0397 0.278721 1.92998 0
M  V30 736 O 70.3097 -0.702144 1.82885 0
M  V30 737 H 68.8897 0.585343 0.464094 0
M  V30 738 H 71.5517 1.86174 0.57666 0
M  V30 739 H 70.6477 2.38633 2.01149 0
M  V30 740 N 70.9488 -0.749086 1.3866 0
M  V30 741 C 71.8958 -1.86291 1.36251 0
M  V30 742 C 72.8658 -1.64578 0.224347 0
M  V30 743 O 74.0508 -1.86181 0.417279 0
M  V30 744 C 71.1908 -3.23644 1.19786 0
M  V30 745 C 70.3038 -3.57158 2.43027 0
M  V30 746 C 69.4388 -4.83838 2.19258 0
M  V30 747 C 68.4778 -5.10152 3.38247 0
M  V30 748 N 67.6148 -6.28029 3.13884 0
M  V30 749 H 72.4548 -1.87685 2.3147 0
M  V30 750 H 69.9918 -0.917287 1.14997 0
M  V30 751 H 71.9498 -4.0291 1.08254 0
M  V30 752 H 70.5798 -3.21566 0.282031 0
M  V30 753 H 69.6318 -2.72701 2.65214 0
M  V30 754 H 70.9438 -3.7253 3.31697 0
M  V30 755 H 70.0978 -5.71057 2.04888 0
M  V30 756 H 68.8368 -4.70614 1.2796 0
M  V30 757 H 67.8418 -4.21401 3.53131 0
M  V30 758 H 69.0668 -5.25271 4.30427 0
M  V30 759 H 67.0128 -6.1612 2.25238 0
M  V30 760 H 66.9298 -6.43922 3.96106 0
M  V30 761 H 68.1978 -7.18124 3.03179 0
M  V30 762 N 72.4269 -1.23603 -0.977757 0
M  V30 763 C 73.7039 -0.977897 -1.69401 0
M  V30 764 C 74.0839 0.502738 -2.05026 0
M  V30 765 O 73.4319 1.47459 -1.74551 0
M  V30 766 C 73.6419 -1.89077 -2.93345 0
M  V30 767 C 74.9899 -2.15579 -3.65802 0
M  V30 768 O 76.0139 -1.86648 -3.03383 0
M  V30 769 O 74.8729 -2.64658 -4.78141 0
M  V30 770 H 71.9669 -0.369025 -0.740101 0
M  V30 771 H 74.5129 -1.34657 -1.03274 0
M  V30 772 H 73.2849 -2.89158 -2.63634 0
M  V30 773 H 72.9079 -1.52463 -3.67207 0
M  V30 774 N 73.905 1.17692 -1.04816 0
M  V30 775 C 75.151 1.88137 -0.75711 0
M  V30 776 C 75.484 1.80604 0.713841 0
M  V30 777 O 74.759 1.21146 1.52164 0
M  V30 778 C 75.042 3.38318 -1.2334 0
M  V30 779 C 74.895 3.54622 -2.76701 0
M  V30 780 C 76.214 4.32214 -0.829415 0
M  V30 781 H 73.333 0.683163 -0.27651 0
M  V30 782 H 75.975 1.38424 -1.30149 0
M  V30 783 H 74.125 3.80787 -0.770286 0
M  V30 784 H 75.797 3.21194 -3.31107 0
M  V30 785 H 74.04 2.97026 -3.16161 0
M  V30 786 H 74.711 4.60028 -3.05088 0
M  V30 787 H 77.187 3.97565 -1.22805 0
M  V30 788 H 76.063 5.35838 -1.19033 0
M  V30 789 H 76.324 4.41294 0.266891 0
M  V30 790 N 75.3831 0.828654 1.34056 0
M  V30 791 C 76.3131 0.269443 2.3194 0
M  V30 792 C 77.2941 -0.617247 1.58506 0
M  V30 793 O 78.4791 -0.542931 1.86456 0
M  V30 794 C 75.6091 -0.564793 3.42677 0
M  V30 795 C 74.5631 0.225241 4.27407 0
M  V30 796 C 73.8891 -0.7321 5.29664 0
M  V30 797 C 75.1891 1.43663 5.02154 0
M  V30 798 H 76.8831 1.08728 2.7896 0
M  V30 799 H 74.4291 0.524283 1.34117 0
M  V30 800 H 76.3821 -0.966233 4.10173 0
M  V30 801 H 75.1061 -1.41574 2.9432 0
M  V30 802 H 73.7651 0.608117 3.61521 0
M  V30 803 H 73.4131 -1.57916 4.77568 0
M  V30 804 H 73.1131 -0.20767 5.87233 0
M  V30 805 H 74.6371 -1.13128 6.00029 0
M  V30 806 H 76.0511 1.1089 5.62473 0
M  V30 807 H 74.4481 1.89711 5.69324 0
M  V30 808 H 75.5181 2.21181 4.31517 0
M  V30 809 N 76.8612 -1.46375 0.584142 0
M  V30 810 C 77.7912 -2.33103 -0.136037 0
M  V30 811 C 78.7722 -1.45431 -0.882255 0
M  V30 812 O 79.9572 -1.74246 -0.857434 0
M  V30 813 C 77.0872 -3.27731 -1.14933 0
M  V30 814 C 76.0412 -4.24855 -0.517862 0
M  V30 815 C 75.3672 -5.09001 -1.63773 0
M  V30 816 C 76.6672 -5.19439 0.545886 0
M  V30 817 H 78.3612 -2.93568 0.588086 0
M  V30 818 H 75.9072 -1.41166 0.284259 0
M  V30 819 H 77.8602 -3.87261 -1.66153 0
M  V30 820 H 76.5842 -2.65377 -1.90375 0
M  V30 821 H 75.2432 -3.6659 -0.0267361 0
M  V30 822 H 74.8912 -4.43031 -2.38185 0
M  V30 823 H 74.5912 -5.74777 -1.22085 0
M  V30 824 H 76.1152 -5.71396 -2.15266 0
M  V30 825 H 77.5292 -5.73177 0.118704 0
M  V30 826 H 75.9262 -5.93566 0.88317 0
M  V30 827 H 76.9962 -4.63285 1.43162 0
M  V30 828 N 78.3393 -0.321999 -1.54275 0
M  V30 829 C 79.2693 0.537411 -2.27231 0
M  V30 830 C 80.2503 1.12064 -1.27968 0
M  V30 831 O 81.4353 1.14606 -1.56777 0
M  V30 832 C 78.5653 1.69919 -3.02894 0
M  V30 833 C 77.5193 1.24534 -4.09482 0
M  V30 834 C 76.8453 2.49394 -4.72977 0
M  V30 835 C 78.1453 0.361335 -5.21049 0
M  V30 836 H 79.8393 -0.0711406 -2.99315 0
M  V30 837 H 77.3853 -0.0356555 -1.43956 0
M  V30 838 H 79.3383 2.30668 -3.52662 0
M  V30 839 H 78.0623 2.33431 -2.28424 0
M  V30 840 H 76.7213 0.660782 -3.60596 0
M  V30 841 H 76.3693 3.11265 -3.95124 0
M  V30 842 H 76.0693 2.19718 -5.44975 0
M  V30 843 H 77.5933 3.10908 -5.25517 0
M  V30 844 H 79.0073 0.875072 -5.66582 0
M  V30 845 H 77.4043 0.157428 -5.99893 0
M  V30 846 H 78.4743 -0.60822 -4.8107 0
M  V30 847 N 79.8174 1.5752 -0.0501392 0
M  V30 848 C 81.0634 1.92936 0.624798 0
M  V30 849 C 81.3964 0.928685 1.70555 0
M  V30 850 O 80.6714 -0.0454779 1.94447 0
M  V30 851 C 80.9544 3.38737 1.22185 0
M  V30 852 C 80.8074 4.49552 0.149218 0
M  V30 853 C 82.1264 3.84913 2.13378 0
M  V30 854 H 79.2454 0.701604 0.225657 0
M  V30 855 H 81.8874 1.89671 -0.111693 0
M  V30 856 H 80.0374 3.4165 1.84953 0
M  V30 857 H 81.7094 4.58768 -0.482648 0
M  V30 858 H 79.9524 4.30638 -0.522841 0
M  V30 859 H 80.6234 5.48653 0.606966 0
M  V30 860 H 83.0994 3.8387 1.60572 0
M  V30 861 H 81.9754 4.87584 2.52097 0
M  V30 862 H 82.2364 3.21611 3.03346 0
M  V30 863 N 81.2955 -0.223234 1.56011 0
M  V30 864 C 82.2455 -1.28008 1.88674 0
M  V30 865 C 83.2295 -1.42369 0.749663 0
M  V30 866 O 84.4215 -1.45212 1.01205 0
M  V30 867 C 81.5505 -2.63084 2.20548 0
M  V30 868 C 80.6365 -2.52632 3.40643 0
M  V30 869 N 81.0275 -2.11829 4.59306 0
M  V30 870 C 79.3255 -2.83594 3.44224 0
M  V30 871 C 80.0265 -2.12587 5.41463 0
M  V30 872 N 79.0025 -2.5301 4.81131 0
M  V30 873 H 82.8045 -0.955487 2.77935 0
M  V30 874 H 80.3185 -0.431801 1.56554 0
M  V30 875 H 82.3155 -3.39385 2.42122 0
M  V30 876 H 80.9755 -2.96391 1.32599 0
M  V30 877 H 81.9865 -1.82988 4.84496 0
M  V30 878 H 78.6635 -3.21284 2.66614 0
M  V30 879 H 80.0535 -1.83179 6.46448 0
M  V30 880 N 82.7736 -1.49793 -0.48987 0
M  V30 881 C 83.7216 -1.67783 -1.61095 0
M  V30 882 C 84.7156 -0.543683 -1.60438 0
M  V30 883 O 85.9216 -0.723647 -1.64813 0
M  V30 884 H 82.2966 -0.529255 -0.534222 0
M  V30 885 H 84.2676 -2.61861 -1.43078 0
M  V30 886 C 83.0166 -1.77191 -2.99164 0
M  V30 887 H 82.3396 -2.63841 -3.0038 0
M  V30 888 H 83.7796 -1.93809 -3.77113 0
M  V30 889 C 82.2386 -0.519203 -3.32875 0
M  V30 890 O 82.7686 0.350124 -4.00171 0
M  V30 891 N 80.9746 -0.378816 -2.8812 0
M  V30 892 H 80.5216 -1.08725 -2.33531 0
M  V30 893 H 80.4796 0.458239 -3.11043 0
M  V30 894 N 84.2517 0.741722 -1.39055 0
M  V30 895 C 85.1817 1.869 -1.39966 0
M  V30 896 C 86.1627 1.6804 -0.26392 0
M  V30 897 O 87.3477 1.88458 -0.468755 0
M  V30 898 C 84.4777 3.24572 -1.23574 0
M  V30 899 C 83.4317 3.58056 -2.34477 0
M  V30 900 C 82.7577 4.94593 -2.0318 0
M  V30 901 C 84.0577 3.61716 -3.76774 0
M  V30 902 H 85.7517 1.86395 -2.34302 0
M  V30 903 H 83.2977 0.895361 -1.1278 0
M  V30 904 H 85.2507 4.031 -1.22834 0
M  V30 905 H 83.9747 3.25587 -0.257045 0
M  V30 906 H 82.6337 2.81854 -2.34423 0
M  V30 907 H 82.2817 4.92181 -1.03765 0
M  V30 908 H 81.9817 5.17964 -2.77465 0
M  V30 909 H 83.5057 5.75486 -2.04079 0
M  V30 910 H 84.9197 4.30335 -3.78794 0
M  V30 911 H 83.3167 3.96603 -4.50362 0
M  V30 912 H 84.3867 2.61672 -4.08235 0
M  V30 913 N 85.7298 1.2412 0.971189 0
M  V30 914 C 87.1408 1.07236 1.52831 0
M  V30 915 C 87.4918 -0.357352 1.92918 0
M  V30 916 O 86.6168 -1.24528 1.76979 0
M  V30 917 C 87.2118 1.94043 2.77728 0
M  V30 918 C 85.7708 1.81394 3.29808 0
M  V30 919 C 84.9178 1.89189 2.02738 0
M  V30 920 H 87.8688 1.37648 0.789864 0
M  V30 921 H 87.8898 1.47066 3.5093 0
M  V30 922 H 87.4018 2.98093 2.4852 0
M  V30 923 H 85.5028 0.801634 3.63874 0
M  V30 924 H 85.6158 2.65294 3.98944 0
M  V30 925 H 83.9798 1.32877 2.17292 0
M  V30 926 H 84.7628 2.94812 1.759 0
M  V30 927 N 87.2079 -1.17134 1.05439 0
M  V30 928 C 88.1399 -2.2078 0.615539 0
M  V30 929 C 89.1529 -1.59584 -0.322001 0
M  V30 930 O 90.3419 -1.78133 -0.114344 0
M  V30 931 C 87.4419 -3.38691 -0.118938 0
M  V30 932 C 86.6149 -4.29454 0.829924 0
M  V30 933 C 85.6739 -5.26024 0.136258 0
M  V30 934 O 84.6999 -5.63952 0.77115 0
M  V30 935 N 85.9019 -5.69487 -1.1254 0
M  V30 936 H 88.6669 -2.59052 1.50705 0
M  V30 937 H 86.2279 -1.32058 0.936603 0
M  V30 938 H 88.2199 -4.00329 -0.593179 0
M  V30 939 H 86.7899 -2.98996 -0.91215 0
M  V30 940 H 86.0099 -3.65211 1.48373 0
M  V30 941 H 87.2979 -4.86984 1.47392 0
M  V30 942 H 86.6959 -5.4075 -1.6615 0
M  V30 943 H 85.2529 -6.33257 -1.54366 0
M  V30 944 N 88.686 -0.835752 -1.33615 0
M  V30 945 C 89.634 -0.255238 -2.31195 0
M  V30 946 C 90.628 0.61107 -1.57995 0
M  V30 947 O 91.834 0.500979 -1.72888 0
M  V30 948 H 88.209 -0.0638085 -0.749288 0
M  V30 949 H 90.18 -1.09283 -2.77669 0
M  V30 950 C 88.929 0.55754 -3.43201 0
M  V30 951 H 88.252 -0.0997553 -3.99676 0
M  V30 952 H 89.692 0.929622 -4.13683 0
M  V30 953 C 88.151 1.73515 -2.88781 0
M  V30 954 O 88.681 2.83376 -2.84712 0
M  V30 955 N 86.887 1.55603 -2.4543 0
M  V30 956 H 86.434 0.662354 -2.48939 0
M  V30 957 H 86.392 2.34545 -2.09371 0
M  V30 958 N 90.1641 1.46063 -0.591896 0
M  V30 959 C 91.0941 2.33172 0.123673 0
M  V30 960 C 92.0751 1.45897 0.87453 0
M  V30 961 O 93.2601 1.74698 0.848181 0
M  V30 962 C 90.3901 3.28336 1.13194 0
M  V30 963 C 89.3441 4.25124 0.495324 0
M  V30 964 C 88.6701 5.09863 1.61071 0
M  V30 965 C 89.9701 5.19143 -0.573425 0
M  V30 966 H 91.6641 2.93252 -0.603646 0
M  V30 967 H 89.2101 1.41014 -0.291741 0
M  V30 968 H 91.1631 3.88137 1.64097 0
M  V30 969 H 89.8871 2.66383 1.88965 0
M  V30 970 H 88.5461 3.66599 0.00729452 0
M  V30 971 H 88.1941 4.44288 2.35832 0
M  V30 972 H 87.8941 5.75417 1.19035 0
M  V30 973 H 89.4181 5.72529 2.12233 0
M  V30 974 H 90.8321 5.73106 -0.1491 0
M  V30 975 H 89.2291 5.93089 -0.914636 0
M  V30 976 H 90.2991 4.62519 -1.45617 0
M  V30 977 N 91.6422 0.330177 1.54103 0
M  V30 978 C 92.6052 -0.520144 2.2322 0
M  V30 979 C 93.6052 -1.03828 1.22786 0
M  V30 980 O 94.7952 -0.929652 1.4732 0
M  V30 981 C 91.9272 -1.72317 2.94142 0
M  V30 982 H 93.1202 0.0841605 2.99782 0
M  V30 983 H 90.6732 0.0813433 1.56088 0
M  V30 984 H 91.4082 -2.36653 2.21734 0
M  V30 985 H 91.1932 -1.35898 3.67796 0
M  V30 986 H 92.6832 -2.3266 3.46784 0
M  V30 987 N 93.1203 -1.57491 0.0584922 0
M  V30 988 C 94.3683 -1.92597 -0.612436 0
M  V30 989 C 94.6893 -0.938162 -1.70949 0
M  V30 990 O 93.9593 0.0158301 -1.95894 0
M  V30 991 H 92.5393 -0.710964 -0.229214 0
M  V30 992 H 95.2013 -1.94571 0.113218 0
M  V30 993 H 94.2973 -2.94038 -1.04633 0
M  V30 994 N 94.5984 0.214957 -1.56127 0
M  V30 995 C 95.8284 0.953707 -1.8327 0
M  V30 996 C 96.2364 1.78181 -0.636262 0
M  V30 997 O 95.5794 1.79191 0.404516 0
M  V30 998 C 95.6414 1.91516 -3.0424 0
M  V30 999 C 95.3054 1.27094 -4.38972 0
M  V30 1000 C 96.3024 0.657575 -5.15725 0
M  V30 1001 C 93.9874 1.28073 -4.85698 0
M  V30 1002 C 95.9814 0.0625968 -6.37369 0
M  V30 1003 C 93.6684 0.681914 -6.07283 0
M  V30 1004 C 94.6664 0.0739046 -6.8296 0
M  V30 1005 O 94.3544 -0.515582 -8.02245 0
M  V30 1006 H 94.0864 0.284764 -0.613095 0
M  V30 1007 H 96.6404 0.233283 -2.04071 0
M  V30 1008 H 94.8704 2.67475 -2.79274 0
M  V30 1009 H 96.5594 2.52001 -3.18198 0
M  V30 1010 H 97.3254 0.642288 -4.80728 0
M  V30 1011 H 93.2044 1.74337 -4.26764 0
M  V30 1012 H 96.7484 -0.412593 -6.96379 0
M  V30 1013 H 92.6454 0.694636 -6.41752 0
M  V30 1014 H 93.4134 -0.410544 -8.1747 0
M  V30 1015 N 96.0765 1.50051 0.48192 0
M  V30 1016 C 97.3255 1.59741 1.23149 0
M  V30 1017 C 97.6385 0.298163 1.93314 0
M  V30 1018 O 98.8445 0.273835 2.70116 0
M  V30 1019 C 97.3005 2.81926 2.23708 0
M  V30 1020 C 96.9085 4.18685 1.59396 0
M  V30 1021 C 98.6525 3.00956 2.99375 0
M  V30 1022 C 96.5595 5.3207 2.58178 0
M  V30 1023 H 95.4895 0.594838 0.46334 0
M  V30 1024 H 98.1405 1.76467 0.503169 0
M  V30 1025 H 96.5225 2.58736 2.99786 0
M  V30 1026 H 97.6965 4.52088 0.891811 0
M  V30 1027 H 96.0115 4.05171 0.960503 0
M  V30 1028 H 98.6085 3.82836 3.73283 0
M  V30 1029 H 98.9515 2.12258 3.58123 0
M  V30 1030 H 99.4845 3.24277 2.30411 0
M  V30 1031 H 96.2235 6.22888 2.04184 0
M  V30 1032 H 95.7435 5.03098 3.26577 0
M  V30 1033 H 97.4225 5.62196 3.20225 0
M  V30 1034 N 97.5546 -0.734337 1.39446 0
M  V30 1035 C 98.8006 -1.49505 1.37913 0
M  V30 1036 C 99.1556 -1.92384 -0.0248416 0
M  V30 1037 O 98.4486 -1.6395 -0.991506 0
M  V30 1038 C 98.6426 -2.74711 2.28623 0
M  V30 1039 C 98.4716 -2.44075 3.777 0
M  V30 1040 C 97.2416 -2.36338 4.46623 0
M  V30 1041 C 99.4396 -2.09574 4.69663 0
M  V30 1042 N 97.4216 -1.9818 5.81032 0
M  V30 1043 C 98.7926 -1.81865 5.92727 0
M  V30 1044 C 100.848 -1.96048 4.57678 0
M  V30 1045 C 99.5506 -1.41992 7.05146 0
M  V30 1046 C 101.577 -1.57579 5.7002 0
M  V30 1047 C 100.939 -1.30754 6.92158 0
M  V30 1048 H 97.0376 -0.545896 0.55993 0
M  V30 1049 H 99.6216 -0.853373 1.75002 0
M  V30 1050 H 97.7926 -3.36657 1.93692 0
M  V30 1051 H 99.5246 -3.40916 2.18078 0
M  V30 1052 H 96.2796 -2.53456 4.00071 0
M  V30 1053 H 96.7036 -1.81691 6.52163 0
M  V30 1054 H 101.346 -2.15455 3.63784 0
M  V30 1055 H 99.0636 -1.21327 7.9894 0
M  V30 1056 H 102.65 -1.47718 5.62735 0
M  V30 1057 H 101.53 -1.01432 7.77612 0
M  V30 1058 N 99.0327 -1.24633 -0.964593 0
M  V30 1059 C 100.263 -1.11339 -1.74032 0
M  V30 1060 C 100.671 0.336593 -1.86182 0
M  V30 1061 O 100.014 1.24389 -1.35178 0
M  V30 1062 C 100.076 -1.68284 -3.1768 0
M  V30 1063 C 99.7397 -3.17196 -3.28992 0
M  V30 1064 C 100.737 -4.14308 -3.14078 0
M  V30 1065 C 98.4217 -3.57215 -3.53133 0
M  V30 1066 C 100.416 -5.4942 -3.23135 0
M  V30 1067 C 98.1027 -4.92468 -3.61827 0
M  V30 1068 C 99.1007 -5.8838 -3.46841 0
M  V30 1069 O 98.7887 -7.21173 -3.55197 0
M  V30 1070 H 98.5207 -0.389551 -0.552472 0
M  V30 1071 H 101.075 -1.65282 -1.21946 0
M  V30 1072 H 99.3047 -1.08777 -3.71085 0
M  V30 1073 H 100.994 -1.50234 -3.77074 0
M  V30 1074 H 101.76 -3.84731 -2.95308 0
M  V30 1075 H 97.6387 -2.83063 -3.63863 0
M  V30 1076 H 101.183 -6.24263 -3.11355 0
M  V30 1077 H 97.0797 -5.21714 -3.80111 0
M  V30 1078 H 97.8477 -7.29135 -3.71892 0
M  V30 1079 N 100.511 1.16574 -1.06058 0
M  V30 1080 C 101.458 2.20883 -0.669263 0
M  V30 1081 C 102.428 1.62729 0.332918 0
M  V30 1082 O 103.613 1.895 0.222346 0
M  V30 1083 C 100.753 3.45049 -0.0593572 0
M  V30 1084 C 99.8658 4.17458 -1.11143 0
M  V30 1085 C 99.0008 5.29135 -0.467916 0
M  V30 1086 C 98.0398 5.93343 -1.50369 0
M  V30 1087 N 97.1768 6.96516 -0.883706 0
M  V30 1088 H 102.017 2.53709 -1.5632 0
M  V30 1089 H 99.5538 1.24616 -0.781625 0
M  V30 1090 H 101.512 4.16033 0.311771 0
M  V30 1091 H 100.142 3.12781 0.797992 0
M  V30 1092 H 99.1938 3.45101 -1.60029 0
M  V30 1093 H 100.506 4.61307 -1.89731 0
M  V30 1094 H 99.6598 6.06684 -0.0436871 0
M  V30 1095 H 98.3988 4.86443 0.349864 0
M  V30 1096 H 97.4038 5.14517 -1.93784 0
M  V30 1097 H 98.6288 6.38114 -2.32352 0
M  V30 1098 H 96.5748 6.55943 -0.086595 0
M  V30 1099 H 96.4918 7.38723 -1.607 0
M  V30 1100 H 97.7598 7.77993 -0.484543 0
M  V30 1101 N 101.989 0.842826 1.3317 0
M  V30 1102 C 103.237 0.439577 1.97262 0
M  V30 1103 C 103.558 -1.00548 1.67078 0
M  V30 1104 O 102.828 -1.70098 0.971779 0
M  V30 1105 H 101.408 0.159558 0.72976 0
M  V30 1106 H 104.07 1.07665 1.62463 0
M  V30 1107 H 103.166 0.574886 3.0676 0
M  V30 1108 N 103.467 -1.45747 0.599634 0
M  V30 1109 C 104.399 -2.28628 -0.161879 0
M  V30 1110 C 105.412 -1.39494 -0.839367 0
M  V30 1111 O 106.601 -1.63941 -0.706089 0
M  V30 1112 C 103.701 -3.15014 -1.24976 0
M  V30 1113 C 102.874 -4.32378 -0.660935 0
M  V30 1114 C 101.933 -5.00033 -1.63869 0
M  V30 1115 O 100.959 -5.57085 -1.1681 0
M  V30 1116 N 102.161 -4.98589 -2.97303 0
M  V30 1117 H 104.926 -2.94624 0.549265 0
M  V30 1118 H 102.487 -1.55847 0.438565 0
M  V30 1119 H 104.479 -3.5714 -1.9035 0
M  V30 1120 H 103.049 -2.5098 -1.86354 0
M  V30 1121 H 102.269 -3.9383 0.170688 0
M  V30 1122 H 103.557 -5.08197 -0.247619 0
M  V30 1123 H 102.955 -4.53514 -3.38145 0
M  V30 1124 H 101.512 -5.44603 -3.58121 0
M  V30 1125 N 104.945 -0.338344 -1.53925 0
M  V30 1126 C 105.875 0.51328 -2.27789 0
M  V30 1127 C 106.856 1.107 -1.29149 0
M  V30 1128 O 108.041 1.12937 -1.57984 0
M  V30 1129 C 105.171 1.66697 -3.04679 0
M  V30 1130 C 104.125 1.20183 -4.1078 0
M  V30 1131 C 103.451 2.44363 -4.75595 0
M  V30 1132 C 104.751 0.30605 -5.21403 0
M  V30 1133 H 106.445 -0.102883 -2.99223 0
M  V30 1134 H 103.991 -0.0509219 -1.4391 0
M  V30 1135 H 105.944 2.26915 -3.55088 0
M  V30 1136 H 104.668 2.30995 -2.30887 0
M  V30 1137 H 103.327 0.622499 -3.61276 0
M  V30 1138 H 102.975 3.07057 -3.98403 0
M  V30 1139 H 102.675 2.13925 -5.47275 0
M  V30 1140 H 104.199 3.05317 -5.28786 0
M  V30 1141 H 105.613 0.814929 -5.67478 0
M  V30 1142 H 104.01 0.0937929 -6.00027 0
M  V30 1143 H 105.08 -0.65921 -4.80398 0
M  V30 1144 N 106.423 1.57458 -0.0668435 0
M  V30 1145 C 107.356 2.08033 0.93795 0
M  V30 1146 C 108.334 0.984321 1.29421 0
M  V30 1147 O 109.518 1.25736 1.40437 0
M  V30 1148 C 106.645 2.53388 2.24749 0
M  V30 1149 C 105.691 3.74376 2.04315 0
M  V30 1150 S 106.524 5.19303 1.30706 0
M  V30 1151 C 107.68 5.67986 2.62951 0
M  V30 1152 H 107.913 2.92935 0.50759 0
M  V30 1153 H 105.446 1.5371 0.145804 0
M  V30 1154 H 107.404 2.8018 3.00016 0
M  V30 1155 H 106.065 1.68763 2.64911 0
M  V30 1156 H 105.258 4.04083 3.01218 0
M  V30 1157 H 104.86 3.47931 1.37186 0
M  V30 1158 H 107.152 5.74528 3.5906 0
M  V30 1159 H 108.095 6.66955 2.3786 0
M  V30 1160 H 108.503 4.95781 2.69929 0
M  V30 1161 N 107.901 -0.206675 1.56239 0
M  V30 1162 C 109.178 -0.954051 1.70755 0
M  V30 1163 C 109.558 -2.01841 0.618353 0
M  V30 1164 O 108.906 -2.25444 -0.372434 0
M  V30 1165 C 109.116 -1.551 3.12642 0
M  V30 1166 C 110.464 -2.03757 3.72516 0
M  V30 1167 O 111.488 -1.64965 3.15698 0
M  V30 1168 O 110.347 -2.75103 4.72208 0
M  V30 1169 H 107.441 -0.446636 0.696021 0
M  V30 1170 H 109.987 -0.197283 1.68549 0
M  V30 1171 H 108.759 -0.783212 3.83382 0
M  V30 1172 H 108.382 -2.37291 3.19028 0
M  V30 1173 N 109.379 -1.50304 -0.473955 0
M  V30 1174 C 110.309 -1.71886 -1.58042 0
M  V30 1175 C 111.29 -0.567799 -1.60344 0
M  V30 1176 O 112.475 -0.806623 -1.76656 0
M  V30 1177 C 109.605 -1.81036 -2.96384 0
M  V30 1178 C 108.559 -2.962 -3.08949 0
M  V30 1179 C 107.885 -2.9049 -4.48909 0
M  V30 1180 C 109.185 -4.36752 -2.86434 0
M  V30 1181 H 110.879 -2.64527 -1.40234 0
M  V30 1182 H 108.425 -1.27295 -0.673201 0
M  V30 1183 H 110.378 -1.94719 -3.73714 0
M  V30 1184 H 109.102 -0.850147 -3.15341 0
M  V30 1185 H 107.761 -2.82164 -2.3405 0
M  V30 1186 H 107.409 -1.92321 -4.64781 0
M  V30 1187 H 107.109 -3.67802 -4.58253 0
M  V30 1188 H 108.633 -3.06218 -5.28264 0
M  V30 1189 H 110.047 -4.5133 -3.53517 0
M  V30 1190 H 108.444 -5.15493 -3.07225 0
M  V30 1191 H 109.514 -4.49321 -1.82316 0
M  V30 1192 N 110.857 0.726932 -1.39834 0
M  V30 1193 C 112.087 1.51393 -1.40583 0
M  V30 1194 C 112.495 1.892 -0.000740625 0
M  V30 1195 O 111.838 1.55189 0.982951 0
M  V30 1196 C 111.9 2.82588 -2.22226 0
M  V30 1197 C 111.564 2.67169 -3.70769 0
M  V30 1198 C 112.561 2.3518 -4.63666 0
M  V30 1199 C 110.246 2.83788 -4.14451 0
M  V30 1200 C 112.24 2.20002 -5.98229 0
M  V30 1201 C 109.927 2.68229 -5.49087 0
M  V30 1202 C 110.925 2.36382 -6.4079 0
M  V30 1203 O 110.613 2.2093 -7.72946 0
M  V30 1204 H 110.345 0.474168 -0.48181 0
M  V30 1205 H 112.899 0.905247 -1.84376 0
M  V30 1206 H 111.129 3.45746 -1.73195 0
M  V30 1207 H 112.818 3.44247 -2.15055 0
M  V30 1208 H 113.584 2.21984 -4.31217 0
M  V30 1209 H 109.463 3.07566 -3.43401 0
M  V30 1210 H 113.007 1.95067 -6.69772 0
M  V30 1211 H 108.904 2.81006 -5.81125 0
M  V30 1212 H 109.672 2.35937 -7.83757 0
M  V30 1213 N 112.336 1.25143 0.95797 0
M  V30 1214 C 113.286 1.01924 2.0395 0
M  V30 1215 C 114.27 -0.0427175 1.60843 0
M  V30 1216 O 115.462 0.17221 1.7616 0
M  V30 1217 C 112.591 0.636373 3.3735 0
M  V30 1218 C 111.677 1.73492 3.8699 0
M  V30 1219 N 112.068 2.96945 4.0946 0
M  V30 1220 C 110.366 1.61467 4.15746 0
M  V30 1221 C 111.067 3.68228 4.50315 0
M  V30 1222 N 110.043 2.95833 4.56053 0
M  V30 1223 H 113.845 1.95653 2.19311 0
M  V30 1224 H 111.359 1.15413 1.14253 0
M  V30 1225 H 113.356 0.451233 4.14451 0
M  V30 1226 H 112.016 -0.293621 3.2337 0
M  V30 1227 H 113.027 3.33025 3.96629 0
M  V30 1228 H 109.704 0.753394 4.10646 0
M  V30 1229 H 111.094 4.74178 4.76031 0
M  V30 1230 N 113.814 -1.1601 1.06675 0
M  V30 1231 C 115.044 -1.90251 0.805497 0
M  V30 1232 C 115.452 -1.77891 -0.64431 0
M  V30 1233 O 114.795 -1.12383 -1.45313 0
M  V30 1234 C 114.857 -3.41419 1.12576 0
M  V30 1235 C 114.521 -3.77564 2.57477 0
M  V30 1236 C 115.518 -3.79161 3.55715 0
M  V30 1237 C 113.203 -4.08079 2.92877 0
M  V30 1238 C 115.197 -4.10767 4.8739 0
M  V30 1239 C 112.884 -4.39351 4.24751 0
M  V30 1240 C 113.882 -4.40675 5.21818 0
M  V30 1241 O 113.57 -4.71202 6.51325 0
M  V30 1242 H 113.302 -0.610018 0.291297 0
M  V30 1243 H 115.856 -1.47958 1.4247 0
M  V30 1244 H 114.086 -3.84079 0.449503 0
M  V30 1245 H 115.775 -3.9694 0.84814 0
M  V30 1246 H 116.541 -3.55693 3.29708 0
M  V30 1247 H 112.42 -4.06211 2.17976 0
M  V30 1248 H 115.964 -4.11715 5.63148 0
M  V30 1249 H 111.861 -4.62285 4.50514 0
M  V30 1250 H 112.629 -4.88996 6.56373 0
M  V30 1251 N 115.292 -0.849877 -1.32721 0
M  V30 1252 C 116.541 -0.447175 -1.96681 0
M  V30 1253 C 116.854 1.00135 -1.68025 0
M  V30 1254 O 118.06 1.50926 -2.25685 0
M  V30 1255 C 116.516 -0.7487 -3.52026 0
M  V30 1256 C 116.124 -2.21264 -3.89546 0
M  V30 1257 C 117.868 -0.413487 -4.22481 0
M  V30 1258 C 115.775 -2.45763 -5.37917 0
M  V30 1259 H 114.705 -0.163486 -0.736063 0
M  V30 1260 H 117.356 -1.03999 -1.51183 0
M  V30 1261 H 115.738 -0.0853727 -3.95908 0
M  V30 1262 H 116.912 -2.91736 -3.56689 0
M  V30 1263 H 115.227 -2.5119 -3.32103 0
M  V30 1264 H 117.824 -0.574017 -5.3161 0
M  V30 1265 H 118.167 0.644492 -4.11281 0
M  V30 1266 H 118.7 -1.03251 -3.84167 0
M  V30 1267 H 115.439 -3.50168 -5.54132 0
M  V30 1268 H 114.959 -1.79864 -5.72197 0
M  V30 1269 H 116.638 -2.29471 -6.0494 0
M  V30 1270 N 116.77 1.45427 -0.607355 0
M  V30 1271 C 117.998 2.06614 -0.108814 0
M  V30 1272 C 118.413 1.45204 1.2067 0
M  V30 1273 O 117.77 0.566132 1.73497 0
M  V30 1274 C 117.821 3.61481 0.0375347 0
M  V30 1275 O 117.542 4.20598 -1.22593 0
M  V30 1276 C 119.043 4.39652 0.567561 0
M  V30 1277 H 116.263 0.66747 -0.0687351 0
M  V30 1278 H 118.807 1.86675 -0.835022 0
M  V30 1279 H 116.962 3.80762 0.714068 0
M  V30 1280 H 117.376 5.1377 -1.05547 0
M  V30 1281 H 118.85 5.48518 0.61905 0
M  V30 1282 H 119.327 4.09417 1.58978 0
M  V30 1283 H 119.933 4.25234 -0.0749202 0
M  V30 1284 N 118.248 0.346503 1.53744 0
M  V30 1285 C 119.473 -0.253074 2.0585 0
M  V30 1286 C 119.898 -1.43202 1.21962 0
M  V30 1287 O 119.256 -1.79783 0.234073 0
M  V30 1288 C 119.304 -0.643193 3.54817 0
M  V30 1289 O 118.408 -1.74286 3.73762 0
M  V30 1290 H 117.749 -0.0413583 0.662711 0
M  V30 1291 H 120.279 0.501574 1.98357 0
M  V30 1292 H 120.289 -0.919526 3.97503 0
M  V30 1293 H 118.964 0.218966 4.15323 0
M  V30 1294 H 117.541 -1.46356 3.42979 0
M  V30 1295 N 119.726 -1.57421 0.075193 0
M  V30 1296 C 120.956 -1.97659 -0.601203 0
M  V30 1297 C 121.364 -0.952427 -1.63479 0
M  V30 1298 O 120.707 0.0688241 -1.83571 0
M  V30 1299 C 120.769 -3.34218 -1.32434 0
M  V30 1300 C 120.433 -4.5484 -0.443826 0
M  V30 1301 C 121.43 -5.19034 0.299969 0
M  V30 1302 C 119.115 -5.00952 -0.367709 0
M  V30 1303 C 121.109 -6.27695 1.10807 0
M  V30 1304 C 118.796 -6.09484 0.444058 0
M  V30 1305 C 119.794 -6.72719 1.18061 0
M  V30 1306 O 119.482 -7.79161 1.97898 0
M  V30 1307 H 119.214 -0.65494 -0.167422 0
M  V30 1308 H 121.768 -2.04886 0.145157 0
M  V30 1309 H 119.998 -3.23615 -2.11685 0
M  V30 1310 H 121.687 -3.59038 -1.89331 0
M  V30 1311 H 122.453 -4.84351 0.250776 0
M  V30 1312 H 118.332 -4.51509 -0.930638 0
M  V30 1313 H 121.876 -6.76982 1.68347 0
M  V30 1314 H 117.773 -6.43601 0.494803 0
M  V30 1315 H 118.541 -7.96055 1.90367 0
M  V30 1316 N 121.204 0.198386 -1.56346 0
M  V30 1317 C 122.45 0.920648 -1.80698 0
M  V30 1318 C 122.783 1.83045 -0.648697 0
M  V30 1319 O 122.058 1.91308 0.350925 0
M  V30 1320 C 122.341 1.73971 -3.15287 0
M  V30 1321 C 122.194 0.85485 -4.41602 0
M  V30 1322 C 123.513 2.71296 -3.46535 0
M  V30 1323 H 120.632 0.333261 -0.657348 0
M  V30 1324 H 123.274 0.188198 -1.89066 0
M  V30 1325 H 121.424 2.36416 -3.08285 0
M  V30 1326 H 123.096 0.245362 -4.60647 0
M  V30 1327 H 121.339 0.161398 -4.335 0
M  V30 1328 H 122.01 1.46286 -5.32264 0
M  V30 1329 H 124.486 2.18983 -3.53816 0
M  V30 1330 H 123.362 3.2569 -4.41834 0
M  V30 1331 H 123.623 3.5018 -2.69864 0
M  V30 1332 N 122.682 1.50554 0.465978 0
M  V30 1333 C 123.928 1.62038 1.21949 0
M  V30 1334 C 124.261 0.322116 1.9151 0
M  V30 1335 O 123.536 -0.676723 1.82348 0
M  V30 1336 C 123.819 2.80421 2.25912 0
M  V30 1337 C 123.672 4.20144 1.60622 0
M  V30 1338 C 124.991 2.94354 3.27176 0
M  V30 1339 H 122.11 0.589752 0.441998 0
M  V30 1340 H 124.752 1.82956 0.51257 0
M  V30 1341 H 122.902 2.62717 2.86203 0
M  V30 1342 H 124.574 4.49449 1.03889 0
M  V30 1343 H 122.817 4.24165 0.909211 0
M  V30 1344 H 123.488 4.98914 2.36196 0
M  V30 1345 H 125.964 3.10578 2.76913 0
M  V30 1346 H 124.84 3.788 3.97242 0
M  V30 1347 H 125.101 2.05186 3.916 0
M  V30 1348 N 124.16 -0.719506 1.40217 0
M  V30 1349 C 125.437 -1.47221 1.28784 0
M  V30 1350 C 125.817 -2.10883 -0.0956067 0
M  V30 1351 O 125.165 -1.99833 -1.10811 0
M  V30 1352 C 125.375 -2.5111 2.42373 0
M  V30 1353 C 126.723 -3.17053 2.82423 0
M  V30 1354 O 127.747 -2.61429 2.41937 0
M  V30 1355 O 126.606 -4.17742 3.52355 0
M  V30 1356 H 123.7 -0.654491 0.50554 0
M  V30 1357 H 126.246 -0.752014 1.52128 0
M  V30 1358 H 125.018 -2.02556 3.34793 0
M  V30 1359 H 124.641 -3.3067 2.20778 0
M  V30 1360 N 125.638 -1.25649 -0.95132 0
M  V30 1361 C 126.886 -1.10375 -1.69298 0
M  V30 1362 C 127.207 0.355339 -1.91735 0
M  V30 1363 O 126.477 1.25188 -1.50681 0
M  V30 1364 H 125.057 -0.405461 -0.627384 0
M  V30 1365 H 127.719 -1.57823 -1.14358 0
M  V30 1366 H 126.815 -1.61465 -2.67087 0
M  V30 1367 N 127.117 1.15442 -1.07289 0
M  V30 1368 C 128.049 2.19773 -0.650585 0
M  V30 1369 C 129.062 1.60076 0.296572 0
M  V30 1370 O 130.251 1.78293 0.0859905 0
M  V30 1371 C 127.351 3.38838 0.0650398 0
M  V30 1372 C 126.524 4.2808 -0.898141 0
M  V30 1373 C 125.583 5.2574 -0.219926 0
M  V30 1374 O 124.609 5.62654 -0.860773 0
M  V30 1375 N 125.811 5.71205 1.03466 0
M  V30 1376 H 128.576 2.56622 -1.54808 0
M  V30 1377 H 126.137 1.30551 -0.957494 0
M  V30 1378 H 128.129 4.01222 0.529415 0
M  V30 1379 H 126.699 3.00409 0.864466 0
M  V30 1380 H 125.919 3.62804 -1.54165 0
M  V30 1381 H 127.207 4.84577 -1.5512 0
M  V30 1382 H 126.605 5.43325 1.57526 0
M  V30 1383 H 125.162 6.35633 1.44272 0
M  V30 1384 N 128.595 0.856903 1.32268 0
M  V30 1385 C 129.844 0.457599 1.96441 0
M  V30 1386 C 130.157 -0.992426 1.68553 0
M  V30 1387 O 131.363 -1.49727 2.26482 0
M  V30 1388 C 129.819 0.767358 3.51624 0
M  V30 1389 C 129.427 2.23326 3.88367 0
M  V30 1390 C 131.171 0.435887 4.22256 0
M  V30 1391 C 129.078 2.48613 5.36606 0
M  V30 1392 H 128.008 0.167387 0.735185 0
M  V30 1393 H 130.659 1.048 1.5063 0
M  V30 1394 H 129.041 0.106367 3.95857 0
M  V30 1395 H 130.215 2.93623 3.55137 0
M  V30 1396 H 128.53 2.52948 3.30766 0
M  V30 1397 H 131.127 0.602202 5.31298 0
M  V30 1398 H 131.47 -0.622672 4.11617 0
M  V30 1399 H 132.003 1.05286 3.83614 0
M  V30 1400 H 128.742 3.53101 5.52268 0
M  V30 1401 H 128.262 1.82896 5.71235 0
M  V30 1402 H 129.941 2.32676 6.03714 0
M  V30 1403 N 130.073 -1.45103 0.615059 0
M  V30 1404 C 131.021 -2.32331 -0.111791 0
M  V30 1405 C 132.015 -1.46409 -0.852102 0
M  V30 1406 O 133.221 -1.62849 -0.766821 0
M  V30 1407 H 129.596 -0.749993 -0.0549072 0
M  V30 1408 H 131.567 -2.91407 0.642225 0
M  V30 1409 C 130.316 -3.3015 -1.09071 0
M  V30 1410 H 129.639 -3.96265 -0.530485 0
M  V30 1411 H 131.079 -3.93898 -1.56908 0
M  V30 1412 C 129.538 -2.57875 -2.168 0
M  V30 1413 O 130.068 -2.36567 -3.24652 0
M  V30 1414 N 128.274 -2.17884 -1.92289 0
M  V30 1415 H 127.821 -2.35413 -1.04587 0
M  V30 1416 H 127.779 -1.6985 -2.64572 0
M  V30 1417 N 131.551 -0.354651 -1.53558 0
M  V30 1418 C 132.8 0.239504 -2.00273 0
M  V30 1419 C 133.113 1.50759 -1.24623 0
M  V30 1420 O 134.319 2.17968 -1.61871 0
M  V30 1421 C 132.775 0.477341 -3.5672 0
M  V30 1422 C 132.383 -0.775488 -4.41237 0
M  V30 1423 C 134.127 1.02975 -4.11821 0
M  V30 1424 C 132.034 -0.507838 -5.89216 0
M  V30 1425 H 130.964 0.0932743 -0.748208 0
M  V30 1426 H 133.615 -0.471701 -1.77334 0
M  V30 1427 H 131.997 1.24953 -3.7577 0
M  V30 1428 H 133.171 -1.54963 -4.33962 0
M  V30 1429 H 131.486 -1.25033 -3.97185 0
M  V30 1430 H 134.083 1.24513 -5.2 0
M  V30 1431 H 134.426 1.98862 -3.65731 0
M  V30 1432 H 134.959 0.317994 -3.96527 0
M  V30 1433 H 131.698 -1.43674 -6.39561 0
M  V30 1434 H 131.218 0.228011 -5.99366 0
M  V30 1435 H 132.897 -0.129238 -6.46871 0
M  V30 1436 N 133.029 1.57378 -0.0835403 0
M  V30 1437 C 134.259 1.97975 0.590713 0
M  V30 1438 C 134.667 0.961083 1.62972 0
M  V30 1439 O 134.01 -0.0590879 1.83605 0
M  V30 1440 C 134.072 3.34915 1.3066 0
M  V30 1441 C 133.736 4.55069 0.419698 0
M  V30 1442 C 134.733 5.18868 -0.32749 0
M  V30 1443 C 132.418 5.0114 0.341137 0
M  V30 1444 C 134.412 6.27098 -1.14134 0
M  V30 1445 C 132.099 6.0924 -0.476374 0
M  V30 1446 C 133.097 6.72083 -1.21627 0
M  V30 1447 O 132.785 7.781 -2.02028 0
M  V30 1448 H 132.517 0.655818 0.163947 0
M  V30 1449 H 135.071 2.04807 -0.156021 0
M  V30 1450 H 133.301 3.24733 2.09966 0
M  V30 1451 H 134.99 3.60037 1.87424 0
M  V30 1452 H 135.756 4.84211 -0.276459 0
M  V30 1453 H 131.635 4.51996 0.90668 0
M  V30 1454 H 135.179 6.7608 -1.71935 0
M  V30 1455 H 131.076 6.43329 -0.528927 0
M  V30 1456 H 131.844 7.95034 -1.94586 0
M  V30 1457 N 134.507 -0.190092 1.56449 0
M  V30 1458 C 135.755 -0.907908 1.80559 0
M  V30 1459 C 136.076 -1.83583 0.657438 0
M  V30 1460 O 135.346 -1.93203 -0.323924 0
M  V30 1461 H 133.926 -0.338247 0.666032 0
M  V30 1462 H 136.588 -0.194403 1.93928 0
M  V30 1463 H 135.684 -1.49604 2.73907 0
M  V30 1464 N 135.985 -1.50799 -0.457987 0
M  V30 1465 C 137.396 -1.55152 -1.0385 0
M  V30 1466 C 137.747 -0.362719 -1.92818 0
M  V30 1467 O 136.872 0.522915 -2.09987 0
M  V30 1468 C 137.467 -2.81173 -1.89017 0
M  V30 1469 C 136.026 -2.88164 -2.42154 0
M  V30 1470 C 135.173 -2.49591 -1.20829 0
M  V30 1471 H 138.124 -1.56874 -0.240068 0
M  V30 1472 H 138.145 -2.63769 -2.74238 0
M  V30 1473 H 137.657 -3.67677 -1.24238 0
M  V30 1474 H 135.758 -2.06042 -3.10447 0
M  V30 1475 H 135.871 -3.91356 -2.76364 0
M  V30 1476 H 134.235 -2.02322 -1.54719 0
M  V30 1477 H 135.018 -3.38418 -0.576927 0
M  V30 1478 N 137.463 0.71206 -1.40597 0
M  V30 1479 C 138.426 1.80785 -1.40888 0
M  V30 1480 C 139.426 1.57937 -0.302103 0
M  V30 1481 O 140.616 1.64913 -0.561182 0
M  V30 1482 C 137.748 3.18927 -1.20409 0
M  V30 1483 H 138.941 1.81924 -2.38419 0
M  V30 1484 H 136.494 0.91805 -1.26497 0
M  V30 1485 H 137.229 3.23436 -0.236522 0
M  V30 1486 H 137.014 3.36911 -2.00582 0
M  V30 1487 H 138.504 3.98949 -1.23408 0
M  V30 1488 N 138.941 1.26152 0.944643 0
M  V30 1489 C 140.171 1.14094 1.72239 0
M  V30 1490 C 140.579 -0.306931 1.86694 0
M  V30 1491 O 139.922 -1.22222 1.3714 0
M  V30 1492 C 139.984 1.73316 3.14963 0
M  V30 1493 C 139.648 3.2239 3.23904 0
M  V30 1494 C 140.645 4.19252 3.07447 0
M  V30 1495 C 138.33 3.62788 3.47405 0
M  V30 1496 C 140.324 5.54491 3.14353 0
M  V30 1497 C 138.011 4.98162 3.53947 0
M  V30 1498 C 139.009 5.93823 3.37436 0
M  V30 1499 O 138.697 7.26732 3.43679 0
M  V30 1500 H 138.429 0.398292 0.546205 0
M  V30 1501 H 140.983 1.67201 1.19301 0
M  V30 1502 H 139.213 1.14667 3.69308 0
M  V30 1503 H 140.902 1.56214 3.74636 0
M  V30 1504 H 141.668 3.8938 2.8915 0
M  V30 1505 H 137.547 2.88816 3.59313 0
M  V30 1506 H 141.091 6.29137 3.01384 0
M  V30 1507 H 136.988 5.27695 3.71763 0
M  V30 1508 H 137.756 7.3496 3.60245 0
M  V30 1509 N 140.419 -1.14872 1.07899 0
M  V30 1510 C 141.647 -1.89661 0.82683 0
M  V30 1511 C 142.062 -1.78312 -0.620519 0
M  V30 1512 O 141.419 -1.13888 -1.42604 0
M  V30 1513 C 141.47 -3.39817 1.23316 0
M  V30 1514 O 141.191 -3.50845 2.62372 0
M  V30 1515 C 142.692 -4.31615 1.0111 0
M  V30 1516 H 139.912 -0.60092 0.298557 0
M  V30 1517 H 142.456 -1.4551 1.43691 0
M  V30 1518 H 140.611 -3.8161 0.667286 0
M  V30 1519 H 141.025 -4.44076 2.79101 0
M  V30 1520 H 142.499 -5.35367 1.34486 0
M  V30 1521 H 142.976 -4.39169 -0.0522168 0
M  V30 1522 H 143.582 -3.95572 1.56215 0
M  V30 1523 N 141.898 -0.863906 -1.31812 0
M  V30 1524 C 143.146 -0.470904 -1.96537 0
M  V30 1525 C 143.467 0.978771 -1.68657 0
M  V30 1526 O 142.737 1.6853 -0.998717 0
M  V30 1527 H 141.317 -0.171148 -0.72713 0
M  V30 1528 H 143.979 -1.10236 -1.60729 0
M  V30 1529 H 143.075 -0.623616 -3.05806 0
M  V30 1530 N 143.376 1.44774 -0.622745 0
M  V30 1531 C 144.792 1.56986 -0.287652 0
M  V30 1532 C 144.992 1.61167 1.20944 0
M  V30 1533 O 144.048 1.55015 1.99315 0
M  V30 1534 C 145.361 2.84551 -0.972188 0
M  V30 1535 C 146.909 2.9825 -0.949536 0
M  V30 1536 C 147.384 4.28605 -1.61437 0
M  V30 1537 N 148.875 4.35399 -1.58057 0
M  V30 1538 C 149.61 5.34964 -2.064 0
M  V30 1539 N 149.106 6.40981 -2.62897 0
M  V30 1540 N 150.899 5.26419 -1.97078 0
M  V30 1541 H 143.05 1.40304 -1.59463 0
M  V30 1542 H 145.313 0.671794 -0.668878 0
M  V30 1543 H 145.019 2.87417 -2.02693 0
M  V30 1544 H 144.893 3.73807 -0.504771 0
M  V30 1545 H 147.28 2.94941 0.0967067 0
M  V30 1546 H 147.361 2.10364 -1.45536 0
M  V30 1547 H 147.005 4.32672 -2.66002 0
M  V30 1548 H 146.935 5.15334 -1.08344 0
M  V30 1549 H 149.426 3.59397 -1.16801 0
M  V30 1550 H 149.739 7.13225 -2.97539 0
M  V30 1551 H 148.084 6.4169 -2.66943 0
M  V30 1552 H 151.275 4.42504 -1.52669 0
M  V30 1553 H 151.448 6.03861 -2.35066 0
M  V30 1554 N 144.854 0.36279 1.53368 0
M  V30 1555 C 145.764 -0.492994 2.29362 0
M  V30 1556 C 146.78 -1.09507 1.35219 0
M  V30 1557 O 147.956 -1.10662 1.68273 0
M  V30 1558 C 145.021 -1.61855 3.066 0
M  V30 1559 C 144.082 -1.04429 4.16405 0
M  V30 1560 C 143.315 -2.11621 4.89951 0
M  V30 1561 O 143.538 -3.32684 4.63333 0
M  V30 1562 O 142.472 -1.74835 5.75948 0
M  V30 1563 H 146.298 0.125331 3.03441 0
M  V30 1564 H 143.883 0.127253 1.48857 0
M  V30 1565 H 145.765 -2.27302 3.54841 0
M  V30 1566 H 144.44 -2.22233 2.3536 0
M  V30 1567 H 143.347 -0.353819 3.72423 0
M  V30 1568 H 144.68 -0.485113 4.89804 0
M  V30 1569 N 146.332 -1.57332 0.0918853 0
M  V30 1570 C 147.56 -1.98574 -0.581048 0
M  V30 1571 C 147.975 -0.970903 -1.61923 0
M  V30 1572 O 147.332 0.0399054 -1.82456 0
M  V30 1573 C 147.383 -3.39872 -1.23164 0
M  V30 1574 O 147.104 -4.37469 -0.234989 0
M  V30 1575 C 148.605 -3.96099 -1.99049 0
M  V30 1576 H 145.825 -0.65261 -0.156018 0
M  V30 1577 H 148.369 -2.0379 0.170225 0
M  V30 1578 H 146.524 -3.35679 -1.93386 0
M  V30 1579 H 146.938 -5.19751 -0.70418 0
M  V30 1580 H 148.412 -4.97127 -2.39934 0
M  V30 1581 H 148.889 -3.3374 -2.85507 0
M  V30 1582 H 149.495 -4.03755 -1.3365 0
M  V30 1583 N 147.81 0.181792 -1.56548 0
M  V30 1584 C 149.056 0.901431 -1.81665 0
M  V30 1585 C 149.389 1.82347 -0.668075 0
M  V30 1586 O 148.664 1.91669 0.330615 0
M  V30 1587 C 148.947 1.70618 -3.17115 0
M  V30 1588 C 148.8 0.807964 -4.42484 0
M  V30 1589 C 150.119 2.67605 -3.49393 0
M  V30 1590 H 147.238 0.32627 -0.660846 0
M  V30 1591 H 149.88 0.168134 -1.89255 0
M  V30 1592 H 148.03 2.33133 -3.10775 0
M  V30 1593 H 149.702 0.19649 -4.60881 0
M  V30 1594 H 147.945 0.115411 -4.33646 0
M  V30 1595 H 148.616 1.40632 -5.33785 0
M  V30 1596 H 151.092 2.15218 -3.56118 0
M  V30 1597 H 149.968 3.20985 -4.45264 0
M  V30 1598 H 150.229 3.47298 -2.73563 0
M  V30 1599 N 149.288 1.51039 0.449983 0
M  V30 1600 C 150.518 1.66627 1.22143 0
M  V30 1601 C 150.926 0.357776 1.85786 0
M  V30 1602 O 150.269 -0.672424 1.70951 0
M  V30 1603 C 150.331 2.71562 2.35573 0
M  V30 1604 C 149.995 4.14526 1.92399 0
M  V30 1605 C 150.992 4.99717 1.43453 0
M  V30 1606 C 148.677 4.60559 2.00475 0
M  V30 1607 C 150.671 6.28998 1.03155 0
M  V30 1608 C 148.358 5.8984 1.59788 0
M  V30 1609 C 149.356 6.73886 1.11208 0
M  V30 1610 O 149.044 8.0075 0.710935 0
M  V30 1611 H 148.776 0.562635 0.374724 0
M  V30 1612 H 151.33 1.98146 0.541036 0
M  V30 1613 H 149.56 2.3533 3.06849 0
M  V30 1614 H 151.249 2.76156 2.97478 0
M  V30 1615 H 152.015 4.65361 1.36618 0
M  V30 1616 H 147.894 3.95273 2.37235 0
M  V30 1617 H 151.438 6.9455 0.651663 0
M  V30 1618 H 147.335 6.23713 1.66289 0
M  V30 1619 H 148.103 8.142 0.837913 0
M  V30 1620 N 150.766 -0.704594 1.40972 0
M  V30 1621 C 151.991 -1.49858 1.43378 0
M  V30 1622 C 152.416 -1.88061 0.038184 0
M  V30 1623 O 151.774 -1.5402 -0.956425 0
M  V30 1624 C 151.822 -2.74333 2.34038 0
M  V30 1625 O 150.926 -3.7147 1.7912 0
M  V30 1626 H 150.267 -0.45139 0.486974 0
M  V30 1627 H 152.797 -0.866832 1.8533 0
M  V30 1628 H 152.807 -3.22741 2.49604 0
M  V30 1629 H 151.482 -2.45863 3.35446 0
M  V30 1630 H 150.059 -3.30363 1.72958 0
M  V30 1631 N 152.244 -1.26651 -0.937939 0
M  V30 1632 C 153.192 -1.08308 -2.05845 0
M  V30 1633 C 154.186 -0.0090757 -1.69398 0
M  V30 1634 O 155.392 -0.166007 -1.79233 0
M  V30 1635 H 151.767 -0.333416 -0.674046 0
M  V30 1636 H 153.738 -2.03261 -2.18467 0
M  V30 1637 C 152.487 -0.736229 -3.39816 0
M  V30 1638 H 151.81 -1.55453 -3.6834 0
M  V30 1639 H 153.25 -0.64769 -4.19024 0
M  V30 1640 C 151.709 0.558824 -3.32233 0
M  V30 1641 O 152.239 1.59621 -3.68624 0
M  V30 1642 N 150.445 0.550657 -2.85335 0
M  V30 1643 H 149.992 -0.293943 -2.55917 0
M  V30 1644 H 149.95 1.41726 -2.80644 0
M  V30 1645 N 153.722 1.14298 -1.08507 0
M  V30 1646 C 154.685 2.17607 -0.719711 0
M  V30 1647 C 155.685 1.58907 0.245997 0
M  V30 1648 O 156.875 1.74181 0.0254081 0
M  V30 1649 C 154.007 3.40842 -0.0627695 0
M  V30 1650 H 155.2 2.51443 -1.63452 0
M  V30 1651 H 152.753 1.28963 -0.88307 0
M  V30 1652 H 153.488 3.12587 0.863716 0
M  V30 1653 H 153.273 3.84713 -0.757504 0
M  V30 1654 H 154.763 4.17221 0.177786 0
M  V30 1655 N 155.201 0.870884 1.31352 0
M  V30 1656 C 156.426 0.495957 2.01383 0
M  V30 1657 C 156.851 -0.904324 1.64935 0
M  V30 1658 O 156.209 -1.59687 0.858466 0
M  V30 1659 C 156.257 0.661433 3.54482 0
M  V30 1660 O 155.361 -0.298851 4.11316 0
M  V30 1661 H 154.702 0.197158 0.634054 0
M  V30 1662 H 157.232 1.17455 1.67527 0
M  V30 1663 H 157.242 0.555072 4.04207 0
M  V30 1664 H 155.917 1.68246 3.8035 0
M  V30 1665 H 154.494 -0.147368 3.72609 0
M  V30 1666 N 156.679 -1.44442 0.630414 0
M  V30 1667 C 157.609 -2.33418 -0.0618083 0
M  V30 1668 C 158.59 -1.48165 -0.835541 0
M  V30 1669 O 159.775 -1.76886 -0.801564 0
M  V30 1670 C 156.905 -3.31222 -1.04449 0
M  V30 1671 C 155.859 -4.26288 -0.382436 0
M  V30 1672 C 155.185 -5.13954 -1.47497 0
M  V30 1673 C 156.485 -5.1744 0.710865 0
M  V30 1674 H 158.179 -2.91548 0.681184 0
M  V30 1675 H 155.725 -1.40191 0.329026 0
M  V30 1676 H 157.678 -3.92351 -1.53748 0
M  V30 1677 H 156.402 -2.71299 -1.81836 0
M  V30 1678 H 155.061 -3.6649 0.0899054 0
M  V30 1679 H 154.709 -4.50385 -2.2397 0
M  V30 1680 H 154.409 -5.7837 -1.03737 0
M  V30 1681 H 155.933 -5.77955 -1.96979 0
M  V30 1682 H 157.347 -5.72509 0.300996 0
M  V30 1683 H 155.744 -5.90455 1.07156 0
M  V30 1684 H 156.814 -4.58496 1.57829 0
M  V30 1685 N 158.157 -0.370918 -1.53173 0
M  V30 1686 C 159.087 0.464847 -2.28826 0
M  V30 1687 C 160.068 1.07936 -1.31468 0
M  V30 1688 O 161.253 1.0956 -1.60344 0
M  V30 1689 C 158.383 1.60196 -3.08147 0
M  V30 1690 C 157.337 1.11443 -4.13237 0
M  V30 1691 C 156.663 2.3422 -4.80672 0
M  V30 1692 C 157.963 0.195384 -5.21934 0
M  V30 1693 H 159.657 -0.166329 -2.98938 0
M  V30 1694 H 157.203 -0.0814359 -1.4377 0
M  V30 1695 H 159.156 2.19332 -3.59822 0
M  V30 1696 H 157.88 2.26045 -2.35735 0
M  V30 1697 H 156.539 0.545727 -3.62515 0
M  V30 1698 H 156.187 2.98537 -4.04827 0
M  V30 1699 H 155.887 2.02269 -5.51689 0
M  V30 1700 H 157.411 2.94032 -5.35143 0
M  V30 1701 H 158.825 0.694375 -5.69079 0
M  V30 1702 H 157.222 -0.0335027 -6.00091 0
M  V30 1703 H 158.292 -0.760961 -4.78892 0
M  V30 1704 N 159.635 1.57281 -0.100228 0
M  V30 1705 C 160.884 1.93713 0.561984 0
M  V30 1706 C 161.197 0.984492 1.69018 0
M  V30 1707 O 162.403 1.24273 2.41389 0
M  V30 1708 C 160.859 3.4421 1.05106 0
M  V30 1709 C 160.467 4.47975 -0.0476628 0
M  V30 1710 C 162.211 3.89595 1.68571 0
M  V30 1711 C 160.118 5.89631 0.457055 0
M  V30 1712 H 159.048 0.723082 0.2137 0
M  V30 1713 H 161.699 1.82644 -0.177057 0
M  V30 1714 H 160.081 3.50449 1.84395 0
M  V30 1715 H 161.255 4.53385 -0.823333 0
M  V30 1716 H 159.57 4.1223 -0.587816 0
M  V30 1717 H 162.167 4.92832 2.07414 0
M  V30 1718 H 162.51 3.28526 2.55688 0
M  V30 1719 H 163.043 3.86078 0.958562 0
M  V30 1720 H 159.782 6.54411 -0.377616 0
M  V30 1721 H 159.302 5.87681 1.19962 0
M  V30 1722 H 160.981 6.40363 0.92437 0
M  V30 1723 N 161.113 -0.173488 1.56642 0
M  V30 1724 C 162.045 -1.23935 1.92802 0
M  V30 1725 C 163.058 -1.40589 0.820889 0
M  V30 1726 O 164.247 -1.40631 1.09933 0
M  V30 1727 C 161.347 -2.60837 2.16373 0
M  V30 1728 C 160.52 -2.6551 3.47596 0
M  V30 1729 C 159.579 -3.8376 3.60021 0
M  V30 1730 O 158.605 -3.69859 4.32658 0
M  V30 1731 N 159.807 -5.00127 2.94709 0
M  V30 1732 H 162.572 -0.932236 2.84832 0
M  V30 1733 H 160.133 -0.363268 1.57772 0
M  V30 1734 H 162.125 -3.38407 2.21952 0
M  V30 1735 H 160.695 -2.83948 1.30738 0
M  V30 1736 H 159.915 -1.74052 3.53694 0
M  V30 1737 H 161.203 -2.65641 4.33949 0
M  V30 1738 H 160.601 -5.14322 2.35563 0
M  V30 1739 H 159.158 -5.75567 3.05886 0
M  V30 1740 N 162.591 -1.51276 -0.441967 0
M  V30 1741 C 163.539 -1.72823 -1.55676 0
M  V30 1742 C 164.533 -0.59445 -1.58627 0
M  V30 1743 O 165.739 -0.775715 -1.62427 0
M  V30 1744 H 162.114 -0.545983 -0.517113 0
M  V30 1745 H 164.085 -2.6628 -1.34675 0
M  V30 1746 C 162.834 -1.86619 -2.93375 0
M  V30 1747 H 162.157 -2.73264 -2.91834 0
M  V30 1748 H 163.597 -2.05709 -3.70756 0
M  V30 1749 C 162.056 -0.624842 -3.31055 0
M  V30 1750 O 162.586 0.222636 -4.01083 0
M  V30 1751 N 160.792 -0.470288 -2.86769 0
M  V30 1752 H 160.339 -1.161 -2.29953 0
M  V30 1753 H 160.297 0.359051 -3.12343 0
M  V30 1754 N 164.069 0.697108 -1.41344 0
M  V30 1755 C 165.315 1.4593 -1.40827 0
M  V30 1756 C 165.648 1.94193 -0.0167098 0
M  V30 1757 O 164.923 1.69425 0.955263 0
M  V30 1758 C 165.206 2.67229 -2.41373 0
M  V30 1759 C 165.059 2.24741 -3.8963 0
M  V30 1760 C 166.378 3.69423 -2.39196 0
M  V30 1761 H 163.497 0.529303 -0.512842 0
M  V30 1762 H 166.139 0.794112 -1.72609 0
M  V30 1763 H 164.289 3.23982 -2.14401 0
M  V30 1764 H 165.961 1.73327 -4.27499 0
M  V30 1765 H 164.204 1.56542 -4.0457 0
M  V30 1766 H 164.875 3.1177 -4.55525 0
M  V30 1767 H 167.351 3.2234 -2.63128 0
M  V30 1768 H 166.227 4.51907 -3.11563 0
M  V30 1769 H 166.488 4.19012 -1.41001 0
M  V30 1770 N 165.547 1.27147 0.931209 0
M  V30 1771 C 166.775 1.16082 1.71267 0
M  V30 1772 C 167.19 -0.282772 1.8667 0
M  V30 1773 O 166.547 -1.19283 1.38122 0
M  V30 1774 C 166.598 1.8358 3.11417 0
M  V30 1775 O 166.319 3.22299 2.96741 0
M  V30 1776 C 167.82 1.78597 4.05732 0
M  V30 1777 H 165.04 0.403758 0.535929 0
M  V30 1778 H 167.584 1.67953 1.16671 0
M  V30 1779 H 165.739 1.35623 3.62885 0
M  V30 1780 H 166.153 3.55851 3.85319 0
M  V30 1781 H 167.627 2.30444 5.01597 0
M  V30 1782 H 168.104 0.754564 4.3267 0
M  V30 1783 H 168.71 2.26152 3.60188 0
M  V30 1784 N 167.025 -1.13721 1.09112 0
M  V30 1785 C 168.441 -1.36914 0.820174 0
M  V30 1786 C 168.641 -1.93356 -0.567079 0
M  V30 1787 O 167.697 -2.15093 -1.32255 0
M  V30 1788 C 169.01 -2.3235 1.90877 0
M  V30 1789 C 170.558 -2.45973 1.93562 0
M  V30 1790 C 171.033 -3.44714 3.01556 0
M  V30 1791 N 172.524 -3.52263 3.00775 0
M  V30 1792 C 173.259 -4.28536 3.80978 0
M  V30 1793 N 172.755 -5.07991 4.71081 0
M  V30 1794 N 174.548 -4.23804 3.69251 0
M  V30 1795 H 166.699 -0.754348 1.98553 0
M  V30 1796 H 168.962 -0.3944 0.862063 0
M  V30 1797 H 168.668 -1.98027 2.90651 0
M  V30 1798 H 168.542 -3.32332 1.78424 0
M  V30 1799 H 170.929 -2.79584 0.944286 0
M  V30 1800 H 171.01 -1.45926 2.10093 0
M  V30 1801 H 170.654 -3.11835 4.00901 0
M  V30 1802 H 170.584 -4.44558 2.82269 0
M  V30 1803 H 173.075 -2.95567 2.35475 0
M  V30 1804 H 173.388 -5.63487 5.28869 0
M  V30 1805 H 171.733 -5.07235 4.75119 0
M  V30 1806 H 174.924 -3.60806 2.98222 0
M  V30 1807 H 175.097 -4.82995 4.31995 0
M  V30 1808 N 168.503 -0.877838 -1.30888 0
M  V30 1809 C 169.413 -0.343096 -2.32078 0
M  V30 1810 C 170.429 0.551022 -1.65045 0
M  V30 1811 O 171.605 0.445854 -1.96403 0
M  V30 1812 C 168.67 0.439905 -3.43898 0
M  V30 1813 C 167.731 -0.483111 -4.26573 0
M  V30 1814 C 166.964 0.262616 -5.33053 0
M  V30 1815 O 167.187 1.48967 -5.50604 0
M  V30 1816 O 166.121 -0.383593 -6.00676 0
M  V30 1817 H 169.947 -1.18203 -2.79753 0
M  V30 1818 H 167.532 -0.64145 -1.34929 0
M  V30 1819 H 169.414 0.883504 -4.12034 0
M  V30 1820 H 168.089 1.25526 -2.98371 0
M  V30 1821 H 166.996 -0.975374 -3.61161 0
M  V30 1822 H 168.329 -1.26427 -4.75686 0
M  V30 1823 N 169.982 1.44106 -0.638065 0
M  V30 1824 C 171.259 1.95453 -0.0759321 0
M  V30 1825 C 171.639 1.57984 1.40015 0
M  V30 1826 O 170.987 0.857361 2.11806 0
M  V30 1827 C 171.197 3.47655 -0.306132 0
M  V30 1828 C 172.545 4.24114 -0.203008 0
M  V30 1829 O 173.569 3.55405 -0.237871 0
M  V30 1830 O 172.428 5.46381 -0.113827 0
M  V30 1831 H 169.522 0.826797 0.0183332 0
M  V30 1832 H 172.068 1.54122 -0.710251 0
M  V30 1833 H 170.84 3.68 -1.3301 0
M  V30 1834 H 170.463 3.95949 0.361991 0
M  V30 1835 N 171.46 0.379036 1.52974 0
M  V30 1836 C 172.423 -0.448865 2.24762 0
M  V30 1837 C 173.423 -0.998689 1.26027 0
M  V30 1838 O 174.613 -0.882313 1.50203 0
M  V30 1839 C 171.745 -1.62872 2.99476 0
M  V30 1840 H 172.938 0.179491 2.99362 0
M  V30 1841 H 170.491 0.13096 1.5575 0
M  V30 1842 H 171.226 -2.29479 2.29151 0
M  V30 1843 H 171.011 -1.24128 3.71934 0
M  V30 1844 H 172.501 -2.2151 3.5401 0
M  V30 1845 N 172.938 -1.57226 0.108567 0
M  V30 1846 C 174.186 -1.94448 -0.550853 0
M  V30 1847 C 174.507 -0.992074 -1.67878 0
M  V30 1848 O 173.777 -0.0465 -1.95845 0
M  V30 1849 H 172.357 -0.717897 -0.206479 0
M  V30 1850 H 175.019 -1.94112 0.175062 0
M  V30 1851 H 174.115 -2.97218 -0.952259 0
M  V30 1852 N 174.416 0.165178 -1.56732 0
M  V30 1853 C 175.641 0.900253 -1.86843 0
M  V30 1854 C 176.066 1.74766 -0.695596 0
M  V30 1855 O 175.424 1.77786 0.35522 0
M  V30 1856 C 175.472 1.74777 -3.15413 0
M  V30 1857 O 174.576 2.85007 -2.98068 0
M  V30 1858 H 173.917 0.251832 -0.614391 0
M  V30 1859 H 176.447 0.161468 -2.03962 0
M  V30 1860 H 176.457 2.14646 -3.46974 0
M  V30 1861 H 175.132 1.12537 -4.00385 0
M  V30 1862 H 173.709 2.48676 -2.77875 0
M  V30 1863 N 175.894 1.51508 0.433938 0
M  V30 1864 C 177.124 1.67914 1.20369 0
M  V30 1865 C 177.532 0.377461 1.85397 0
M  V30 1866 O 176.875 -0.654255 1.71654 0
M  V30 1867 C 176.937 2.74045 2.32679 0
M  V30 1868 C 176.601 4.16543 1.87991 0
M  V30 1869 C 177.598 5.01211 1.38145 0
M  V30 1870 C 175.283 4.6266 1.95579 0
M  V30 1871 C 177.277 6.30056 0.964774 0
M  V30 1872 C 174.964 5.91501 1.53523 0
M  V30 1873 C 175.962 6.75027 1.04055 0
M  V30 1874 O 175.65 8.01459 0.625964 0
M  V30 1875 H 175.382 0.566578 0.368735 0
M  V30 1876 H 177.936 1.98709 0.51999 0
M  V30 1877 H 176.166 2.38572 3.04336 0
M  V30 1878 H 177.855 2.79295 2.94532 0
M  V30 1879 H 178.621 4.66783 1.31675 0
M  V30 1880 H 174.5 3.97767 2.33029 0
M  V30 1881 H 178.044 6.95202 0.57796 0
M  V30 1882 H 173.941 6.25442 1.59665 0
M  V30 1883 H 174.709 8.15043 0.751509 0
M  V30 1884 N 177.372 -0.689602 1.41712 0
M  V30 1885 C 178.6 -1.47827 1.44758 0
M  V30 1886 C 179.015 -1.88721 0.0545703 0
M  V30 1887 O 178.372 -1.57176 -0.927463 0
M  V30 1888 C 178.423 -2.73698 2.3616 0
M  V30 1889 O 178.144 -2.34524 3.7004 0
M  V30 1890 C 179.645 -3.67389 2.48072 0
M  V30 1891 H 176.865 -0.455357 0.49284 0
M  V30 1892 H 179.409 -0.848574 1.86063 0
M  V30 1893 H 177.564 -3.32891 1.98148 0
M  V30 1894 H 177.978 -3.15701 4.18847 0
M  V30 1895 H 179.452 -4.52475 3.16181 0
M  V30 1896 H 179.929 -4.12284 1.51388 0
M  V30 1897 H 180.535 -3.14097 2.86746 0
M  V30 1898 N 178.85 -1.27639 -0.924453 0
M  V30 1899 C 179.78 -1.13166 -2.04244 0
M  V30 1900 C 180.761 -0.032256 -1.70069 0
M  V30 1901 O 181.946 -0.207328 -1.9309 0
M  V30 1902 C 179.076 -0.781496 -3.38393 0
M  V30 1903 C 178.03 -1.83449 -3.86692 0
M  V30 1904 C 177.356 -1.33822 -5.17683 0
M  V30 1905 C 178.656 -3.23917 -4.09726 0
M  V30 1906 H 180.35 -2.06689 -2.1661 0
M  V30 1907 H 177.896 -0.995136 -1.04082 0
M  V30 1908 H 179.849 -0.667057 -4.16087 0
M  V30 1909 H 178.573 0.189439 -3.2605 0
M  V30 1910 H 177.232 -1.93789 -3.11193 0
M  V30 1911 H 176.88 -0.35665 -5.01734 0
M  V30 1912 H 176.58 -2.04224 -5.50968 0
M  V30 1913 H 178.104 -1.23679 -5.97943 0
M  V30 1914 H 179.518 -3.16559 -4.77978 0
M  V30 1915 H 177.915 -3.92059 -4.54324 0
M  V30 1916 H 178.985 -3.68729 -3.14908 0
M  V30 1917 N 180.328 1.1314 -1.09713 0
M  V30 1918 C 181.278 2.16709 -0.708593 0
M  V30 1919 C 182.262 1.58471 0.278523 0
M  V30 1920 O 183.454 1.76779 0.088427 0
M  V30 1921 C 180.583 3.43039 -0.133923 0
M  V30 1922 C 179.669 4.08277 -1.14763 0
M  V30 1923 N 180.06 4.48637 -2.33577 0
M  V30 1924 C 178.358 4.34954 -0.986446 0
M  V30 1925 C 179.059 4.9952 -2.98085 0
M  V30 1926 N 178.035 4.94561 -2.25632 0
M  V30 1927 H 181.837 2.45672 -1.61315 0
M  V30 1928 H 179.351 1.29967 -0.973775 0
M  V30 1929 H 181.348 4.16583 0.162465 0
M  V30 1930 H 180.008 3.15549 0.765447 0
M  V30 1931 H 181.019 4.41246 -2.7115 0
M  V30 1932 H 177.696 4.17258 -0.142008 0
M  V30 1933 H 179.086 5.40521 -3.99108 0
M  V30 1934 N 181.806 0.884767 1.30421 0
M  V30 1935 C 183.055 0.499164 1.95426 0
M  V30 1936 C 183.368 -0.95645 1.70621 0
M  V30 1937 O 184.574 -1.44889 2.29607 0
M  V30 1938 C 183.03 0.84177 3.49917 0
M  V30 1939 C 182.638 2.31514 3.83543 0
M  V30 1940 C 184.382 0.525355 4.21237 0
M  V30 1941 C 182.289 2.59939 5.31212 0
M  V30 1942 H 181.219 0.182944 0.73147 0
M  V30 1943 H 183.87 1.07971 1.48373 0
M  V30 1944 H 182.252 0.190311 3.95542 0
M  V30 1945 H 183.426 3.0109 3.48829 0
M  V30 1946 H 181.741 2.59907 3.25326 0
M  V30 1947 H 184.338 0.714762 5.29901 0
M  V30 1948 H 184.681 -0.535222 4.12845 0
M  V30 1949 H 185.214 1.134 3.81294 0
M  V30 1950 H 181.953 3.64736 5.44654 0
M  V30 1951 H 181.473 1.94972 5.67227 0
M  V30 1952 H 183.152 2.45429 5.98643 0
M  V30 1953 N 183.284 -1.43765 0.645699 0
M  V30 1954 C 184.533 -2.01116 0.153412 0
M  V30 1955 C 184.846 -1.51493 -1.23731 0
M  V30 1956 O 186.052 -2.01067 -1.8244 0
M  V30 1957 C 184.508 -3.59206 0.223473 0
M  V30 1958 C 184.116 -4.17823 1.61642 0
M  V30 1959 C 185.86 -4.23972 -0.211597 0
M  V30 1960 C 183.767 -5.68183 1.64081 0
M  V30 1961 H 182.697 -0.752093 0.0535891 0
M  V30 1962 H 185.348 -1.6482 0.806633 0
M  V30 1963 H 183.73 -3.92867 -0.497118 0
M  V30 1964 H 184.904 -3.95674 2.36176 0
M  V30 1965 H 183.219 -3.65399 1.99681 0
M  V30 1966 H 185.816 -5.34275 -0.213112 0
M  V30 1967 H 186.159 -3.97352 -1.24165 0
M  V30 1968 H 186.692 -3.95166 0.456988 0
M  V30 1969 H 183.431 -5.99559 2.64971 0
M  V30 1970 H 182.951 -5.9241 0.938611 0
M  V30 1971 H 184.63 -6.32085 1.3812 0
M  V30 1972 N 184.763 -0.387143 -1.52771 0
M  V30 1973 C 185.71 0.449048 -2.26389 0
M  V30 1974 C 186.68 1.05961 -1.27912 0
M  V30 1975 O 187.865 1.08804 -1.56737 0
M  V30 1976 C 185.005 1.57155 -3.0724 0
M  V30 1977 C 184.118 0.984066 -4.20643 0
M  V30 1978 C 183.253 2.07745 -4.88892 0
M  V30 1979 C 182.292 1.46574 -5.94292 0
M  V30 1980 N 181.429 2.49834 -6.56146 0
M  V30 1981 H 186.269 -0.185205 -2.97424 0
M  V30 1982 H 183.806 -0.103164 -1.46738 0
M  V30 1983 H 185.764 2.23309 -3.52405 0
M  V30 1984 H 184.394 2.17615 -2.38419 0
M  V30 1985 H 183.446 0.212193 -3.79808 0
M  V30 1986 H 184.758 0.497029 -4.96318 0
M  V30 1987 H 183.912 2.81673 -5.3735 0
M  V30 1988 H 182.651 2.59807 -4.12737 0
M  V30 1989 H 181.656 0.711696 -5.45174 0
M  V30 1990 H 182.881 0.953088 -6.72379 0
M  V30 1991 H 180.827 3.0107 -5.82832 0
M  V30 1992 H 180.744 2.05879 -7.27427 0
M  V30 1993 H 182.012 3.23399 -7.09249 0
M  V30 1994 N 186.241 1.57166 -0.116904 0
M  V30 1995 C 187.657 1.5779 0.239693 0
M  V30 1996 C 187.857 1.1295 1.66867 0
M  V30 1997 O 186.913 0.81592 2.38954 0
M  V30 1998 C 188.226 3.00699 0.00828202 0
M  V30 1999 C 189.774 3.12912 0.0743438 0
M  V30 2000 C 190.249 4.57817 -0.129348 0
M  V30 2001 N 191.74 4.63139 -0.075247 0
M  V30 2002 C 192.475 5.73023 -0.207788 0
M  V30 2003 N 191.971 6.91665 -0.396382 0
M  V30 2004 N 193.764 5.61906 -0.14751 0
M  V30 2005 H 185.915 1.84615 -1.05029 0
M  V30 2006 H 188.178 0.85311 -0.41341 0
M  V30 2007 H 187.884 3.37784 -0.979531 0
M  V30 2008 H 187.758 3.69848 0.741077 0
M  V30 2009 H 190.145 2.75686 1.05268 0
M  V30 2010 H 190.226 2.4631 -0.690297 0
M  V30 2011 H 189.87 4.95742 -1.10465 0
M  V30 2012 H 189.8 5.22507 0.655253 0
M  V30 2013 H 192.291 3.7784 0.0670898 0
M  V30 2014 H 192.604 7.71255 -0.488437 0
M  V30 2015 H 190.949 6.93654 -0.432329 0
M  V30 2016 H 194.14 4.681 -0.00115036 0
M  V30 2017 H 194.313 6.47501 -0.254247 0
M  V30 2018 N 187.719 -0.156864 1.56817 0
M  V30 2019 C 188.967 -0.869404 1.82444 0
M  V30 2020 C 189.288 -1.82147 0.69623 0
M  V30 2021 O 188.558 -1.93847 -0.28287 0
M  V30 2022 H 187.138 -0.324043 0.673056 0
M  V30 2023 H 189.8 -0.153224 1.94297 0
M  V30 2024 H 188.896 -1.43761 2.77019 0
M  V30 2025 N 189.197 -1.51736 -0.425897 0
M  V30 2026 C 190.474 -1.55519 -1.1863 0
M  V30 2027 C 190.854 -0.326219 -2.08564 0
M  V30 2028 O 190.202 0.688012 -2.17896 0
M  V30 2029 C 190.412 -2.87521 -1.9782 0
M  V30 2030 C 191.76 -3.39899 -2.54468 0
M  V30 2031 O 192.784 -2.89148 -2.08019 0
M  V30 2032 O 191.643 -4.2848 -3.39215 0
M  V30 2033 H 188.737 -0.625739 -0.540721 0
M  V30 2034 H 191.283 -1.64055 -0.434038 0
M  V30 2035 H 190.055 -3.68422 -1.31836 0
M  V30 2036 H 189.678 -2.822 -2.80088 0
M  V30 2037 N 190.675 0.682077 -1.42076 0
M  V30 2038 C 192.091 0.994324 -1.24841 0
M  V30 2039 C 192.291 2.0096 -0.147389 0
M  V30 2040 O 191.347 2.47822 0.483782 0
M  V30 2041 C 192.66 1.50607 -2.60265 0
M  V30 2042 C 194.208 1.62421 -2.6756 0
M  V30 2043 C 194.683 2.16994 -4.03333 0
M  V30 2044 N 196.174 2.24337 -4.0525 0
M  V30 2045 C 196.909 2.67621 -5.07116 0
M  V30 2046 N 196.405 3.1041 -6.19368 0
M  V30 2047 N 198.198 2.67305 -4.94474 0
M  V30 2048 H 190.349 0.00973908 -2.12398 0
M  V30 2049 H 192.612 0.0668593 -0.945639 0
M  V30 2050 H 192.318 0.834583 -3.41654 0
M  V30 2051 H 192.192 2.48602 -2.83684 0
M  V30 2052 H 194.579 2.28678 -1.86521 0
M  V30 2053 H 194.66 0.629352 -2.47937 0
M  V30 2054 H 194.304 1.51349 -4.84826 0
M  V30 2055 H 194.234 3.17258 -4.20304 0
M  V30 2056 H 196.725 1.94158 -3.24209 0
M  V30 2057 H 197.038 3.42103 -6.92954 0
M  V30 2058 H 195.383 3.08286 -6.22884 0
M  V30 2059 H 198.574 2.33233 -4.05857 0
M  V30 2060 H 198.747 3.00718 -5.73997 0
M  V30 2061 N 192.153 1.28127 0.917671 0
M  V30 2062 C 193.381 1.17892 1.70026 0
M  V30 2063 C 193.796 -0.262958 1.8696 0
M  V30 2064 O 193.153 -1.17811 1.3938 0
M  V30 2065 C 193.204 1.86872 3.09453 0
M  V30 2066 O 192.925 3.25428 2.93306 0
M  V30 2067 C 194.426 1.8289 4.03815 0
M  V30 2068 H 191.646 0.40942 0.531617 0
M  V30 2069 H 194.19 1.69181 1.14883 0
M  V30 2070 H 192.345 1.39464 3.61426 0
M  V30 2071 H 192.759 3.59918 3.81523 0
M  V30 2072 H 194.233 2.35751 4.99125 0
M  V30 2073 H 194.71 0.800412 4.31845 0
M  V30 2074 H 195.316 2.29959 3.57769 0
M  V30 2075 N 193.631 -1.12557 1.10312 0
M  V30 2076 C 195.047 -1.36036 0.834649 0
M  V30 2077 C 195.247 -1.93946 -0.546539 0
M  V30 2078 O 194.303 -2.16484 -1.29966 0
M  V30 2079 C 195.616 -2.30312 1.9333 0
M  V30 2080 C 197.164 -2.43906 1.9616 0
M  V30 2081 C 197.639 -3.41496 3.05195 0
M  V30 2082 N 199.13 -3.49053 3.04494 0
M  V30 2083 C 199.865 -4.24471 3.85502 0
M  V30 2084 N 199.361 -5.02966 4.76442 0
M  V30 2085 N 201.154 -4.19864 3.73725 0
M  V30 2086 H 193.305 -0.733246 1.99342 0
M  V30 2087 H 195.568 -0.385234 0.866198 0
M  V30 2088 H 195.274 -1.94933 2.92735 0
M  V30 2089 H 195.148 -3.30421 1.81939 0
M  V30 2090 H 197.535 -2.78567 0.973886 0
M  V30 2091 H 197.616 -1.4369 2.11629 0
M  V30 2092 H 197.26 -3.07565 4.04186 0
M  V30 2093 H 197.19 -4.41539 2.86968 0
M  V30 2094 H 199.681 -2.93053 2.38596 0
M  V30 2095 H 199.994 -5.57846 5.34815 0
M  V30 2096 H 198.339 -5.02167 4.80472 0
M  V30 2097 H 201.53 -3.57623 3.02032 0
M  V30 2098 H 201.703 -4.78386 4.37093 0
M  V30 2099 N 195.109 -0.891671 -1.2995 0
M  V30 2100 C 196.357 -0.512486 -1.95494 0
M  V30 2101 C 196.678 0.942776 -1.70695 0
M  V30 2102 O 195.948 1.66374 -1.03424 0
M  V30 2103 H 194.528 -0.186533 -0.723336 0
M  V30 2104 H 197.19 -1.13621 -1.58355 0
M  V30 2105 H 196.286 -0.688342 -3.04415 0
M  V30 2106 N 196.587 1.43421 -0.653314 0
M  V30 2107 C 197.833 2.02111 -0.166992 0
M  V30 2108 C 198.166 1.51423 1.21592 0
M  V30 2109 O 197.441 0.707389 1.8118 0
M  V30 2110 C 197.724 3.5966 -0.177948 0
M  V30 2111 C 197.577 4.20579 -1.59478 0
M  V30 2112 C 198.896 4.37413 0.4856 0
M  V30 2113 H 196.015 0.734374 -0.0621557 0
M  V30 2114 H 198.657 1.70717 -0.834016 0
M  V30 2115 H 196.807 3.86537 0.390032 0
M  V30 2116 H 198.479 4.04732 -2.21336 0
M  V30 2117 H 196.722 3.77226 -2.14204 0
M  V30 2118 H 197.393 5.29665 -1.5543 0
M  V30 2119 H 199.869 4.161 0.00234528 0
M  V30 2120 H 198.745 5.47075 0.447207 0
M  V30 2121 H 199.006 4.13672 1.55974 0
M  V30 2122 N 198.065 0.39524 1.52563 0
M  V30 2123 C 199.293 -0.184943 2.06072 0
M  V30 2124 C 199.708 -1.40021 1.26647 0
M  V30 2125 O 199.065 -1.79767 0.314672 0
M  V30 2126 C 199.116 -0.549179 3.57304 0
M  V30 2127 O 198.837 0.617813 4.33722 0
M  V30 2128 C 200.338 -1.18459 4.2718 0
M  V30 2129 H 197.558 -0.0265025 0.670476 0
M  V30 2130 H 200.102 0.562184 1.96621 0
M  V30 2131 H 198.257 -1.2462 3.66809 0
M  V30 2132 H 198.671 0.317091 5.23541 0
M  V30 2133 H 200.145 -1.38976 5.34219 0
M  V30 2134 H 200.622 -2.15368 3.82771 0
M  V30 2135 H 201.228 -0.528163 4.22008 0
M  V30 2136 N 199.544 -1.57102 0.125237 0
M  V30 2137 C 200.792 -1.95021 -0.530198 0
M  V30 2138 C 201.113 -1.00982 -1.66816 0
M  V30 2139 O 200.383 -0.0672693 -1.95784 0
M  V30 2140 H 198.963 -0.720046 -0.198853 0
M  V30 2141 H 201.625 -1.93916 0.19564 0
M  V30 2142 H 200.721 -2.98211 -0.920681 0
M  V30 2143 N 201.022 0.148545 -1.56898 0
M  V30 2144 C 202.252 0.875118 -1.8715 0
M  V30 2145 C 202.66 1.75322 -0.711262 0
M  V30 2146 O 202.003 1.80745 0.328151 0
M  V30 2147 C 202.065 1.7844 -3.12089 0
M  V30 2148 C 201.729 1.08361 -4.43967 0
M  V30 2149 C 202.726 0.438247 -5.1805 0
M  V30 2150 C 200.411 1.07358 -4.90693 0
M  V30 2151 C 202.405 -0.20779 -6.37061 0
M  V30 2152 C 200.092 0.42373 -6.09629 0
M  V30 2153 C 201.09 -0.215829 -6.82659 0
M  V30 2154 O 200.778 -0.855378 -7.99336 0
M  V30 2155 H 200.51 0.258504 -0.624621 0
M  V30 2156 H 203.064 0.14652 -2.04877 0
M  V30 2157 H 201.294 2.55389 -2.90367 0
M  V30 2158 H 202.983 2.38279 -3.286 0
M  V30 2159 H 203.749 0.437817 -4.8302 0
M  V30 2160 H 199.628 1.5608 -4.33774 0
M  V30 2161 H 203.172 -0.70758 -6.94002 0
M  V30 2162 H 199.069 0.421822 -6.4412 0
M  V30 2163 H 199.837 -0.756892 -8.14993 0
M  V30 2164 N 202.5 1.5196 0.417844 0
M  V30 2165 C 203.747 1.65591 1.16559 0
M  V30 2166 C 204.075 0.381565 1.90721 0
M  V30 2167 O 203.33 -0.635156 1.85106 0
M  V30 2168 C 203.629 2.82269 2.19223 0
M  V30 2169 C 203.295 4.20819 1.61933 0
M  V30 2170 C 201.957 4.58506 1.46033 0
M  V30 2171 C 204.309 5.07196 1.20008 0
M  V30 2172 C 201.637 5.80257 0.867113 0
M  V30 2173 C 203.989 6.29544 0.621086 0
M  V30 2174 C 202.653 6.65987 0.449144 0
M  V30 2175 H 201.923 0.605939 0.42652 0
M  V30 2176 H 204.57 1.86041 0.45397 0
M  V30 2177 H 202.875 2.56118 2.96498 0
M  V30 2178 H 204.572 2.90012 2.76936 0
M  V30 2179 H 201.162 3.91116 1.7529 0
M  V30 2180 H 205.346 4.7867 1.31105 0
M  V30 2181 H 200.602 6.07124 0.721833 0
M  V30 2182 H 204.776 6.95805 0.287798 0
M  V30 2183 H 202.403 7.60199 -0.012632 0
M  V30 2184 N 203.978 -0.674533 1.42435 0
M  V30 2185 C 205.206 -1.46283 1.46317 0
M  V30 2186 C 205.621 -1.88653 0.0745836 0
M  V30 2187 O 204.978 -1.58151 -0.91074 0
M  V30 2188 C 205.029 -2.71178 2.3905 0
M  V30 2189 O 204.75 -2.30586 3.72507 0
M  V30 2190 C 206.251 -3.64738 2.51955 0
M  V30 2191 H 203.471 -0.450104 0.497642 0
M  V30 2192 H 206.015 -0.828792 1.86953 0
M  V30 2193 H 204.17 -3.3077 2.01667 0
M  V30 2194 H 204.584 -3.11241 4.22172 0
M  V30 2195 H 206.058 -4.49096 3.20962 0
M  V30 2196 H 206.535 -4.10656 1.55752 0
M  V30 2197 H 207.141 -3.11038 2.90061 0
M  V30 2198 N 205.456 -1.28612 -0.910864 0
M  V30 2199 C 206.703 -1.15934 -1.66029 0
M  V30 2200 C 207.031 0.291483 -1.92303 0
M  V30 2201 O 206.286 1.22816 -1.52364 0
M  V30 2202 C 206.585 -1.90624 -3.0232 0
M  V30 2203 C 206.251 -3.40405 -2.95695 0
M  V30 2204 C 204.913 -3.81255 -2.93595 0
M  V30 2205 C 207.265 -4.359 -2.85728 0
M  V30 2206 C 204.593 -5.15936 -2.79334 0
M  V30 2207 C 206.945 -5.70657 -2.73007 0
M  V30 2208 C 205.609 -6.10779 -2.69267 0
M  V30 2209 H 204.879 -0.424234 -0.607541 0
M  V30 2210 H 207.526 -1.5942 -1.06101 0
M  V30 2211 H 205.831 -1.39696 -3.6605 0
M  V30 2212 H 207.528 -1.78228 -3.59215 0
M  V30 2213 H 204.118 -3.07927 -2.98125 0
M  V30 2214 H 208.302 -4.053 -2.86436 0
M  V30 2215 H 203.558 -5.46146 -2.74835 0
M  V30 2216 H 207.732 -6.44311 -2.64264 0
M  V30 2217 H 205.359 -7.1509 -2.57974 0
M  V30 2218 N 206.934 1.1197 -1.10907 0
M  V30 2219 C 207.882 2.19927 -0.757303 0
M  V30 2220 C 208.876 1.67564 0.248747 0
M  V30 2221 O 210.082 1.79672 0.108605 0
M  V30 2222 H 206.457 0.716925 -0.226987 0
M  V30 2223 H 208.428 2.46847 -1.67658 0
M  V30 2224 C 207.177 3.47061 -0.210671 0
M  V30 2225 H 206.5 3.87703 -0.976049 0
M  V30 2226 H 207.94 4.24 -0.0026584 0
M  V30 2227 C 206.399 3.19864 1.05777 0
M  V30 2228 O 206.929 3.40049 2.13845 0
M  V30 2229 N 205.135 2.73636 0.978349 0
M  V30 2230 H 204.682 2.5741 0.0988246 0
M  V30 2231 H 204.64 2.55815 1.82773 0
M  V30 2232 N 208.412 0.89855 1.29475 0
M  V30 2233 C 209.342 0.39201 2.30186 0
M  V30 2234 C 210.323 -0.532359 1.61555 0
M  V30 2235 O 211.508 -0.443331 1.89072 0
M  V30 2236 C 208.638 -0.382353 3.45189 0
M  V30 2237 C 207.592 0.451483 4.25612 0
M  V30 2238 C 206.918 -0.450307 5.328 0
M  V30 2239 C 208.218 1.70079 4.93832 0
M  V30 2240 H 209.912 1.23362 2.72804 0
M  V30 2241 H 207.458 0.594638 1.31149 0
M  V30 2242 H 209.411 -0.747451 4.14718 0
M  V30 2243 H 208.135 -1.25774 3.01411 0
M  V30 2244 H 206.794 0.798897 3.57789 0
M  V30 2245 H 206.442 -1.32379 4.85268 0
M  V30 2246 H 206.142 0.103902 5.87508 0
M  V30 2247 H 207.666 -0.811623 6.05182 0
M  V30 2248 H 209.08 1.40549 5.55805 0
M  V30 2249 H 207.477 2.19623 5.58467 0
M  V30 2250 H 208.547 2.43744 4.19186 0
M  V30 2251 N 209.89 -1.43072 0.660911 0
M  V30 2252 C 211.12 -2.05769 0.185153 0
M  V30 2253 C 211.528 -1.49668 -1.15742 0
M  V30 2254 O 210.871 -0.625649 -1.72717 0
M  V30 2255 C 210.933 -3.59489 0.0278237 0
M  V30 2256 C 210.597 -4.38212 1.2969 0
M  V30 2257 C 211.594 -4.69772 2.22734 0
M  V30 2258 C 209.279 -4.7809 1.54063 0
M  V30 2259 C 211.273 -5.40129 3.38437 0
M  V30 2260 C 208.96 -5.4819 2.70058 0
M  V30 2261 C 209.958 -5.79132 3.62071 0
M  V30 2262 O 209.646 -6.47798 4.76039 0
M  V30 2263 H 209.378 -0.669873 0.0908086 0
M  V30 2264 H 211.932 -1.84436 0.90402 0
M  V30 2265 H 210.162 -3.79426 -0.746489 0
M  V30 2266 H 211.851 -4.03862 -0.406275 0
M  V30 2267 H 212.617 -4.39476 2.05149 0
M  V30 2268 H 208.496 -4.53408 0.833215 0
M  V30 2269 H 212.04 -5.64198 4.10277 0
M  V30 2270 H 207.937 -5.77902 2.87574 0
M  V30 2271 H 208.705 -6.66283 4.75404 0
M  V30 2272 N 211.368 -0.403325 -1.52352 0
M  V30 2273 C 212.298 0.416205 -2.29761 0
M  V30 2274 C 213.279 1.05123 -1.33728 0
M  V30 2275 O 214.464 1.06134 -1.62632 0
M  V30 2276 C 211.594 1.53624 -3.11475 0
M  V30 2277 C 210.548 1.02653 -4.15507 0
M  V30 2278 C 209.874 2.23971 -4.85532 0
M  V30 2279 C 211.174 0.08463 -5.22231 0
M  V30 2280 H 212.868 -0.229701 -2.98518 0
M  V30 2281 H 210.414 -0.111913 -1.43564 0
M  V30 2282 H 212.367 2.1165 -3.64393 0
M  V30 2283 H 211.091 2.20994 -2.40477 0
M  V30 2284 H 209.75 0.46871 -3.63591 0
M  V30 2285 H 209.398 2.89883 -4.11068 0
M  V30 2286 H 209.098 1.90521 -5.55856 0
M  V30 2287 H 210.622 2.82614 -5.41259 0
M  V30 2288 H 212.036 0.573509 -5.70424 0
M  V30 2289 H 210.433 -0.160783 -5.99885 0
M  V30 2290 H 211.503 -0.86237 -4.7717 0
M  V30 2291 N 212.846 1.57033 -0.133567 0
M  V30 2292 C 213.793 2.16074 0.811208 0
M  V30 2293 C 214.763 1.08979 1.2535 0
M  V30 2294 O 215.948 1.36958 1.32843 0
M  V30 2295 C 213.088 2.77595 2.05024 0
M  V30 2296 C 212.201 3.99042 1.65498 0
M  V30 2297 C 211.336 4.48603 2.84479 0
M  V30 2298 C 210.375 5.62547 2.41262 0
M  V30 2299 N 209.512 6.06787 3.53206 0
M  V30 2300 H 214.352 2.96477 0.300906 0
M  V30 2301 H 211.889 1.46462 0.136822 0
M  V30 2302 H 213.847 3.11402 2.77642 0
M  V30 2303 H 212.477 1.99859 2.53488 0
M  V30 2304 H 211.529 3.71302 0.826981 0
M  V30 2305 H 212.841 4.81629 1.29748 0
M  V30 2306 H 211.995 4.84395 3.65303 0
M  V30 2307 H 210.734 3.64995 3.23465 0
M  V30 2308 H 209.739 5.26345 1.58874 0
M  V30 2309 H 210.964 6.47931 2.03377 0
M  V30 2310 H 208.91 5.26117 3.91838 0
M  V30 2311 H 208.827 6.84266 3.21427 0
M  V30 2312 H 210.095 6.4722 4.34427 0
M  V30 2313 N 214.325 -0.140222 1.56975 0
M  V30 2314 C 215.255 -1.17456 2.01808 0
M  V30 2315 C 216.236 -1.44415 0.898794 0
M  V30 2316 O 217.421 -1.5522 1.16707 0
M  V30 2317 C 214.551 -2.50607 2.40444 0
M  V30 2318 C 213.505 -2.38155 3.55621 0
M  V30 2319 C 212.831 -3.76078 3.80091 0
M  V30 2320 C 214.131 -1.85991 4.88062 0
M  V30 2321 H 215.825 -0.801743 2.88466 0
M  V30 2322 H 213.371 -0.38422 1.38779 0
M  V30 2323 H 215.324 -3.23197 2.7041 0
M  V30 2324 H 214.048 -2.89737 1.50732 0
M  V30 2325 H 212.707 -1.68016 3.25832 0
M  V30 2326 H 212.355 -4.12656 2.87618 0
M  V30 2327 H 212.055 -3.68606 4.57606 0
M  V30 2328 H 213.579 -4.50206 4.12488 0
M  V30 2329 H 214.993 -2.4838 5.16701 0
M  V30 2330 H 213.39 -1.89393 5.6943 0
M  V30 2331 H 214.46 -0.816023 4.77984 0
M  V30 2332 N 215.803 -1.52179 -0.40978 0
M  V30 2333 C 217.214 -1.58377 -0.988615 0
M  V30 2334 C 217.565 -0.423879 -1.91566 0
M  V30 2335 O 216.69 0.455844 -2.11544 0
M  V30 2336 C 217.285 -2.87044 -1.79976 0
M  V30 2337 C 215.844 -2.95722 -2.32863 0
M  V30 2338 C 214.991 -2.53309 -1.12828 0
M  V30 2339 H 217.942 -1.57558 -0.190039 0
M  V30 2340 H 217.963 -2.7236 -2.65707 0
M  V30 2341 H 217.475 -3.71444 -1.12478 0
M  V30 2342 H 215.576 -2.15814 -3.03735 0
M  V30 2343 H 215.689 -3.99951 -2.63773 0
M  V30 2344 H 214.053 -2.07142 -1.48204 0
M  V30 2345 H 214.836 -3.40082 -0.46897 0
M  V30 2346 N 217.281 0.66697 -1.42791 0
M  V30 2347 C 218.228 1.7803 -1.4688 0
M  V30 2348 C 219.198 1.6299 -0.319919 0
M  V30 2349 O 220.383 1.83432 -0.525118 0
M  V30 2350 C 217.523 3.1611 -1.38451 0
M  V30 2351 C 216.636 3.42381 -2.63437 0
M  V30 2352 C 215.771 4.70232 -2.47094 0
M  V30 2353 C 214.81 4.89564 -3.67415 0
M  V30 2354 N 213.947 6.08661 -3.49966 0
M  V30 2355 H 218.787 1.7387 -2.42019 0
M  V30 2356 H 216.324 0.84868 -1.20149 0
M  V30 2357 H 218.282 3.95914 -1.31561 0
M  V30 2358 H 216.912 3.19374 -0.469033 0
M  V30 2359 H 215.964 2.56774 -2.80662 0
M  V30 2360 H 217.276 3.52557 -3.52853 0
M  V30 2361 H 216.43 5.5814 -2.37834 0
M  V30 2362 H 215.169 4.62353 -1.5518 0
M  V30 2363 H 214.174 4.00096 -3.77099 0
M  V30 2364 H 215.399 4.99282 -4.6032 0
M  V30 2365 H 213.345 6.0194 -2.60776 0
M  V30 2366 H 213.262 6.19733 -4.32975 0
M  V30 2367 H 214.53 6.99226 -3.44532 0
M  V30 2368 N 218.759 1.29093 0.90403 0
M  V30 2369 C 220.17 1.15186 1.46932 0
M  V30 2370 C 220.521 -0.254587 1.94541 0
M  V30 2371 O 219.646 -1.14972 1.83332 0
M  V30 2372 C 220.241 2.08492 2.67051 0
M  V30 2373 C 218.8 1.98621 3.19729 0
M  V30 2374 C 217.947 1.9967 1.92425 0
M  V30 2375 H 220.898 1.41641 0.715789 0
M  V30 2376 H 220.919 1.65461 3.42641 0
M  V30 2377 H 220.431 3.10847 2.3237 0
M  V30 2378 H 218.532 0.993389 3.59114 0
M  V30 2379 H 218.645 2.86068 3.8432 0
M  V30 2380 H 217.009 1.44208 2.09943 0
M  V30 2381 H 217.792 3.03721 1.60026 0
M  V30 2382 N 220.237 -1.11381 1.11499 0
M  V30 2383 C 221.467 -1.86663 0.885464 0
M  V30 2384 C 221.875 -1.80464 -0.568281 0
M  V30 2385 O 221.218 -1.18445 -1.40415 0
M  V30 2386 C 221.28 -3.36337 1.26956 0
M  V30 2387 C 220.944 -3.66304 2.73259 0
M  V30 2388 C 221.941 -3.63733 3.71476 0
M  V30 2389 C 219.626 -3.9529 3.09921 0
M  V30 2390 C 221.62 -3.89725 5.04374 0
M  V30 2391 C 219.307 -4.20941 4.43004 0
M  V30 2392 C 220.305 -4.18147 5.40039 0
M  V30 2393 O 219.993 -4.43153 6.70724 0
M  V30 2394 H 219.725 -0.597114 0.316908 0
M  V30 2395 H 222.279 -1.41782 1.48617 0
M  V30 2396 H 220.509 -3.81826 0.611999 0
M  V30 2397 H 222.198 -3.92986 1.01573 0
M  V30 2398 H 222.964 -3.41389 3.44498 0
M  V30 2399 H 218.843 -3.966 2.35009 0
M  V30 2400 H 222.387 -3.8746 5.80104 0
M  V30 2401 H 218.284 -4.42761 4.69716 0
M  V30 2402 H 219.052 -4.60717 6.76522 0
M  V30 2403 N 221.715 -0.905404 -1.28997 0
M  V30 2404 C 222.964 -0.530191 -1.94607 0
M  V30 2405 C 223.277 0.929185 -1.72121 0
M  V30 2406 O 224.483 1.41218 -2.31883 0
M  V30 2407 C 222.939 -0.897333 -3.48534 0
M  V30 2408 C 222.547 -2.37587 -3.79811 0
M  V30 2409 C 224.291 -0.592304 -4.20347 0
M  V30 2410 C 222.198 -2.68357 -5.27009 0
M  V30 2411 H 221.128 -0.194558 -0.728466 0
M  V30 2412 H 223.779 -1.10318 -1.46636 0
M  V30 2413 H 222.161 -0.253214 -3.9519 0
M  V30 2414 H 223.335 -3.06602 -3.43994 0
M  V30 2415 H 221.65 -2.6505 -3.2115 0
M  V30 2416 H 224.247 -0.798975 -5.28697 0
M  V30 2417 H 224.59 0.469474 -4.13644 0
M  V30 2418 H 225.123 -1.19452 -3.79442 0
M  V30 2419 H 221.862 -3.73355 -5.38782 0
M  V30 2420 H 221.382 -2.03971 -5.64053 0
M  V30 2421 H 223.061 -2.54922 -5.94663 0
M  V30 2422 N 223.193 1.4272 -0.668489 0
M  V30 2423 C 224.421 2.05966 -0.196348 0
M  V30 2424 C 224.836 1.50191 1.14403 0
M  V30 2425 O 224.193 0.639208 1.7094 0
M  V30 2426 C 224.244 3.61314 -0.115815 0
M  V30 2427 O 223.965 4.1502 -1.40322 0
M  V30 2428 C 225.466 4.41663 0.380579 0
M  V30 2429 H 222.686 0.663954 -0.0969829 0
M  V30 2430 H 225.23 1.82966 -0.913446 0
M  V30 2431 H 223.385 3.83448 0.551931 0
M  V30 2432 H 223.799 5.08832 -1.27243 0
M  V30 2433 H 225.273 5.5065 0.385848 0
M  V30 2434 H 225.75 4.15792 1.41471 0
M  V30 2435 H 226.356 4.24534 -0.255209 0
M  V30 2436 N 224.671 0.411399 1.52136 0
M  V30 2437 C 225.92 -0.165009 2.01024 0
M  V30 2438 C 226.233 -1.4603 1.30133 0
M  V30 2439 O 227.439 -2.1181 1.69849 0
M  V30 2440 C 225.895 -0.344618 3.58246 0
M  V30 2441 C 225.503 0.938716 4.38055 0
M  V30 2442 C 227.247 -0.876195 4.15359 0
M  V30 2443 C 225.154 0.726172 5.86925 0
M  V30 2444 H 224.084 -0.0654407 0.751155 0
M  V30 2445 H 226.735 0.537192 1.75461 0
M  V30 2446 H 225.117 -1.10921 3.80148 0
M  V30 2447 H 226.291 1.70963 4.27912 0
M  V30 2448 H 224.606 1.39688 3.92271 0
M  V30 2449 H 227.203 -1.05128 5.24263 0
M  V30 2450 H 227.546 -1.85152 3.7286 0
M  V30 2451 H 228.079 -0.170607 3.97434 0
M  V30 2452 H 224.818 1.67312 6.33788 0
M  V30 2453 H 224.338 -0.00540283 5.998 0
M  V30 2454 H 226.017 0.369231 6.45946 0
M  V30 2455 N 226.149 -1.5696 0.141893 0
M  V30 2456 C 227.097 -2.17784 -0.816874 0
M  V30 2457 C 228.091 -1.1334 -1.25899 0
M  V30 2458 O 229.297 -1.316 -1.22806 0
M  V30 2459 H 225.672 -0.697278 -0.281615 0
M  V30 2460 H 227.643 -2.97087 -0.279621 0
M  V30 2461 C 226.392 -2.80983 -2.04802 0
M  V30 2462 H 225.715 -3.61062 -1.7168 0
M  V30 2463 H 227.155 -3.2705 -2.69841 0
M  V30 2464 C 225.614 -1.79228 -2.8527 0
M  V30 2465 O 226.144 -1.25962 -3.8144 0
M  V30 2466 N 224.35 -1.48647 -2.49704 0
M  V30 2467 H 223.897 -1.92155 -1.71564 0
M  V30 2468 H 223.855 -0.808115 -3.03837 0
M  V30 2469 N 227.627 0.131896 -1.57047 0
M  V30 2470 C 228.575 1.18146 -2.0036 0
M  V30 2471 C 229.569 1.43614 -0.898406 0
M  V30 2472 O 230.775 1.43729 -1.08361 0
M  V30 2473 H 227.15 0.398042 -0.638018 0
M  V30 2474 H 229.121 0.789564 -2.87765 0
M  V30 2475 C 227.87 2.50341 -2.41298 0
M  V30 2476 H 227.193 2.31578 -3.25902 0
M  V30 2477 H 228.633 3.22371 -2.75414 0
M  V30 2478 C 227.092 3.11984 -1.27153 0
M  V30 2479 O 227.622 3.97484 -0.580459 0
M  V30 2480 N 225.828 2.71662 -1.03189 0
M  V30 2481 H 225.375 2.02231 -1.59564 0
M  V30 2482 H 225.333 3.13238 -0.270077 0
M  V30 2483 N 229.106 1.52395 0.401703 0
M  V30 2484 C 230.331 1.70972 1.17403 0
M  V30 2485 C 230.756 0.421615 1.83314 0
M  V30 2486 O 230.114 -0.621564 1.70312 0
M  V30 2487 C 230.162 2.85151 2.20728 0
M  V30 2488 O 229.266 2.51238 3.27037 0
M  V30 2489 H 228.607 0.568927 0.342372 0
M  V30 2490 H 231.137 1.99131 0.469891 0
M  V30 2491 H 231.147 3.10279 2.64936 0
M  V30 2492 H 229.822 3.78603 1.7214 0
M  V30 2493 H 228.399 2.36808 2.88057 0
M  V30 2494 N 230.584 -0.659388 1.43143 0
M  V30 2495 C 231.531 -1.77249 1.47822 0
M  V30 2496 C 232.501 -1.62818 0.328558 0
M  V30 2497 O 233.686 -1.83151 0.534838 0
M  V30 2498 C 230.826 -3.15371 1.40126 0
M  V30 2499 C 229.939 -3.4098 2.65249 0
M  V30 2500 C 229.074 -4.68915 2.49584 0
M  V30 2501 C 228.113 -4.87608 3.70006 0
M  V30 2502 N 227.25 -6.06796 3.53189 0
M  V30 2503 H 232.09 -1.72584 2.42938 0
M  V30 2504 H 229.627 -0.842297 1.20598 0
M  V30 2505 H 231.585 -3.9521 1.33659 0
M  V30 2506 H 230.215 -3.19121 0.485964 0
M  V30 2507 H 229.267 -2.55282 2.8202 0
M  V30 2508 H 230.579 -3.50681 3.54717 0
M  V30 2509 H 229.733 -5.56871 2.4079 0
M  V30 2510 H 228.472 -4.61524 1.5763 0
M  V30 2511 H 227.477 -3.9809 3.79215 0
M  V30 2512 H 228.702 -4.96834 4.62961 0
M  V30 2513 H 226.648 -6.00549 2.63965 0
M  V30 2514 H 226.565 -6.17428 4.36255 0
M  V30 2515 H 227.833 -6.9739 3.48236 0
M  V30 2516 N 232.062 -1.29571 -0.897171 0
M  V30 2517 C 233.473 -1.15964 -1.46319 0
M  V30 2518 C 233.824 0.244267 -1.94674 0
M  V30 2519 O 232.949 1.13998 -1.83939 0
M  V30 2520 C 233.544 -2.09906 -2.65942 0
M  V30 2521 C 232.103 -2.00314 -3.18671 0
M  V30 2522 C 231.25 -2.00687 -1.91363 0
M  V30 2523 H 234.201 -1.42019 -0.708268 0
M  V30 2524 H 234.222 -1.67276 -3.41759 0
M  V30 2525 H 233.734 -3.12075 -2.30718 0
M  V30 2526 H 231.835 -1.01242 -3.58582 0
M  V30 2527 H 231.948 -2.88102 -3.82798 0
M  V30 2528 H 230.312 -1.45319 -2.09175 0
M  V30 2529 H 231.095 -3.04566 -1.58413 0
M  V30 2530 N 233.54 1.10788 -1.12088 0
M  V30 2531 C 234.956 1.34691 -0.856186 0
M  V30 2532 C 235.156 1.94791 0.515615 0
M  V30 2533 O 234.212 2.18524 1.26505 0
M  V30 2534 C 235.525 2.27208 -1.9697 0
M  V30 2535 C 237.073 2.40755 -2.00016 0
M  V30 2536 C 237.548 3.36598 -3.1059 0
M  V30 2537 N 239.039 3.44164 -3.10008 0
M  V30 2538 C 239.774 4.18284 -3.92206 0
M  V30 2539 N 239.27 4.95322 -4.84384 0
M  V30 2540 N 241.063 4.13865 -3.80357 0
M  V30 2541 H 233.214 0.70144 -2.00483 0
M  V30 2542 H 235.477 0.371405 -0.872217 0
M  V30 2543 H 235.183 1.90251 -2.958 0
M  V30 2544 H 235.057 3.27485 -1.87172 0
M  V30 2545 H 237.444 2.76982 -1.01808 0
M  V30 2546 H 237.525 1.40305 -2.13888 0
M  V30 2547 H 237.169 3.01096 -4.09028 0
M  V30 2548 H 237.099 4.36918 -2.93956 0
M  V30 2549 H 239.59 2.8922 -2.43228 0
M  V30 2550 H 239.903 5.49267 -5.43623 0
M  V30 2551 H 238.248 4.94459 -4.884 0
M  V30 2552 H 241.439 3.52773 -3.07683 0
M  V30 2553 H 241.612 4.71372 -4.44649 0
M  V30 2554 N 235.018 0.912232 1.28515 0
M  V30 2555 C 235.928 0.404506 2.31086 0
M  V30 2556 C 236.944 -0.50707 1.66448 0
M  V30 2557 O 238.12 -0.393624 1.97516 0
M  V30 2558 C 235.185 -0.348572 3.44943 0
M  V30 2559 C 234.246 0.59604 4.25142 0
M  V30 2560 C 233.479 -0.121194 5.33562 0
M  V30 2561 O 233.702 -1.34317 5.5436 0
M  V30 2562 O 232.636 0.542716 5.99448 0
M  V30 2563 H 236.462 1.25579 2.76521 0
M  V30 2564 H 234.047 0.676998 1.33181 0
M  V30 2565 H 235.929 -0.77395 4.14232 0
M  V30 2566 H 234.604 -1.17571 3.01594 0
M  V30 2567 H 233.511 1.07079 3.58448 0
M  V30 2568 H 234.844 1.38995 4.72167 0
M  V30 2569 N 236.496 -1.42363 0.676048 0
M  V30 2570 C 237.444 -2.32596 -0.0131507 0
M  V30 2571 C 238.438 -1.49891 -0.789238 0
M  V30 2572 O 239.644 -1.65955 -0.697061 0
M  V30 2573 H 236.019 -0.751647 -0.0230481 0
M  V30 2574 H 237.99 -2.88421 0.765243 0
M  V30 2575 C 236.739 -3.34479 -0.949702 0
M  V30 2576 H 236.062 -3.98158 -0.361938 0
M  V30 2577 H 237.502 -4.00199 -1.4006 0
M  V30 2578 C 235.961 -2.66838 -2.05667 0
M  V30 2579 O 236.491 -2.50124 -3.14326 0
M  V30 2580 N 234.697 -2.25843 -1.82875 0
M  V30 2581 H 234.244 -2.39637 -0.945085 0
M  V30 2582 H 234.202 -1.80918 -2.5713 0
M  V30 2583 N 237.974 -0.419461 -1.51915 0
M  V30 2584 C 238.921 0.400927 -2.27291 0
M  V30 2585 C 239.891 1.03224 -1.30131 0
M  V30 2586 O 241.076 1.05455 -1.59009 0
M  V30 2587 C 238.216 1.50603 -3.10504 0
M  V30 2588 C 237.329 0.89462 -4.22635 0
M  V30 2589 C 236.464 1.97328 -4.93189 0
M  V30 2590 C 235.503 1.33935 -5.97267 0
M  V30 2591 N 234.64 2.3586 -6.61298 0
M  V30 2592 H 239.48 -0.248251 -2.96964 0
M  V30 2593 H 237.017 -0.134266 -1.46486 0
M  V30 2594 H 238.975 2.15783 -3.57062 0
M  V30 2595 H 237.605 2.12509 -2.42981 0
M  V30 2596 H 236.657 0.131583 -3.80172 0
M  V30 2597 H 237.969 0.391641 -4.9726 0
M  V30 2598 H 237.123 2.70211 -5.43204 0
M  V30 2599 H 235.862 2.50994 -4.18155 0
M  V30 2600 H 234.867 0.595896 -5.46561 0
M  V30 2601 H 236.092 0.810252 -6.74249 0
M  V30 2602 H 234.038 2.88639 -5.89087 0
M  V30 2603 H 233.955 1.90403 -7.3163 0
M  V30 2604 H 235.223 3.08282 -7.15949 0
M  V30 2605 N 239.452 1.56882 -0.150215 0
M  V30 2606 C 240.729 1.87844 0.545327 0
M  V30 2607 C 241.109 1.0567 1.82749 0
M  V30 2608 O 240.457 0.144442 2.28043 0
M  V30 2609 C 240.667 3.39526 0.80767 0
M  V30 2610 C 242.015 4.08814 1.14703 0
M  V30 2611 O 243.039 3.44723 0.896917 0
M  V30 2612 O 241.898 5.22004 1.61784 0
M  V30 2613 H 238.992 0.778677 0.278553 0
M  V30 2614 H 241.538 1.68666 -0.187068 0
M  V30 2615 H 240.31 3.91173 -0.0996096 0
M  V30 2616 H 239.933 3.64243 1.59413 0
M  V30 2617 N 240.93 -0.123565 1.57115 0
M  V30 2618 C 242.176 -0.833386 1.84885 0
M  V30 2619 C 242.509 -1.79742 0.735292 0
M  V30 2620 O 241.784 -1.92764 -0.25925 0
M  V30 2621 C 242.067 -1.5873 3.23228 0
M  V30 2622 C 241.92 -0.643183 4.45178 0
M  V30 2623 C 243.239 -2.54453 3.59085 0
M  V30 2624 H 240.358 -0.301518 0.6725 0
M  V30 2625 H 243 -0.097778 1.89748 0
M  V30 2626 H 241.15 -2.21438 3.19214 0
M  V30 2627 H 242.822 -0.0253015 4.61293 0
M  V30 2628 H 241.065 0.0456139 4.33776 0
M  V30 2629 H 241.736 -1.20724 5.38637 0
M  V30 2630 H 244.212 -2.01853 3.63861 0
M  V30 2631 H 243.088 -3.04238 4.5687 0
M  V30 2632 H 243.349 -3.36906 2.86264 0
M  V30 2633 N 242.408 -1.52605 -0.393616 0
M  V30 2634 C 243.338 -1.80022 -1.48709 0
M  V30 2635 C 244.319 -0.651995 -1.57108 0
M  V30 2636 O 245.504 -0.89913 -1.72132 0
M  V30 2637 C 242.634 -1.96492 -2.86371 0
M  V30 2638 C 241.588 -3.12161 -2.92813 0
M  V30 2639 C 240.914 -3.13877 -4.3288 0
M  V30 2640 C 242.214 -4.51322 -2.6288 0
M  V30 2641 H 243.908 -2.71589 -1.26015 0
M  V30 2642 H 241.454 -1.30684 -0.604778 0
M  V30 2643 H 243.407 -2.14255 -3.62867 0
M  V30 2644 H 242.131 -1.01611 -3.10391 0
M  V30 2645 H 240.79 -2.94173 -2.18764 0
M  V30 2646 H 240.438 -2.16687 -4.53933 0
M  V30 2647 H 240.138 -3.91576 -4.38112 0
M  V30 2648 H 241.662 -3.33789 -5.1129 0
M  V30 2649 H 243.076 -4.69435 -3.29096 0
M  V30 2650 H 241.473 -5.31053 -2.79468 0
M  V30 2651 H 242.543 -4.58353 -1.58242 0
M  V30 2652 N 243.887 0.651787 -1.4349 0
M  V30 2653 C 244.85 1.74647 -1.48429 0
M  V30 2654 C 245.85 1.56513 -0.368817 0
M  V30 2655 O 247.04 1.62385 -0.630623 0
M  V30 2656 C 244.172 3.13533 -1.33827 0
M  V30 2657 H 245.365 1.71649 -2.4592 0
M  V30 2658 H 242.918 0.863573 -1.30277 0
M  V30 2659 H 243.653 3.22142 -0.37349 0
M  V30 2660 H 243.438 3.28101 -2.14691 0
M  V30 2661 H 244.928 3.93356 -1.40218 0
M  V30 2662 N 245.365 1.30045 0.890287 0
M  V30 2663 C 246.612 1.18561 1.64163 0
M  V30 2664 C 246.94 -0.260852 1.92743 0
M  V30 2665 O 246.195 -1.20376 1.54299 0
M  V30 2666 C 246.494 1.95409 2.99249 0
M  V30 2667 C 246.16 3.45066 2.90242 0
M  V30 2668 C 244.822 3.85878 2.87492 0
M  V30 2669 C 247.174 4.4039 2.78758 0
M  V30 2670 C 244.502 5.20314 2.7109 0
M  V30 2671 C 246.854 5.74928 2.63894 0
M  V30 2672 C 245.518 6.14986 2.59516 0
M  V30 2673 H 244.788 0.433846 0.600715 0
M  V30 2674 H 247.435 1.61088 1.03552 0
M  V30 2675 H 245.74 1.45501 3.63781 0
M  V30 2676 H 247.437 1.8392 3.56334 0
M  V30 2677 H 244.027 3.12631 2.93189 0
M  V30 2678 H 248.211 4.09806 2.79952 0
M  V30 2679 H 243.467 5.50449 2.66112 0
M  V30 2680 H 247.641 6.48434 2.53981 0
M  V30 2681 H 245.268 7.19104 2.46565 0
M  V30 2682 N 246.843 -1.10192 1.12674 0
M  V30 2683 C 248.071 -1.85983 0.906527 0
M  V30 2684 C 248.486 -1.80783 -0.544333 0
M  V30 2685 O 247.843 -1.19834 -1.37645 0
M  V30 2686 C 247.894 -3.34281 1.37618 0
M  V30 2687 O 247.615 -3.39401 2.77017 0
M  V30 2688 C 249.116 -4.26938 1.19325 0
M  V30 2689 H 246.336 -0.587716 0.323775 0
M  V30 2690 H 248.88 -1.39284 1.49734 0
M  V30 2691 H 247.035 -3.78436 0.828539 0
M  V30 2692 H 247.449 -4.31838 2.97684 0
M  V30 2693 H 248.923 -5.29181 1.57071 0
M  V30 2694 H 249.4 -4.38995 0.134097 0
M  V30 2695 H 250.006 -3.8859 1.72852 0
M  V30 2696 N 248.321 -0.919034 -1.28029 0
M  V30 2697 C 249.561 -0.562107 -1.96519 0
M  V30 2698 C 249.925 0.878784 -1.70708 0
M  V30 2699 O 251.126 1.34355 -2.32813 0
M  V30 2700 C 249.397 -0.868953 -3.46676 0
M  V30 2701 S 250.956 -0.619237 -4.34409 0
M  V30 2702 H 247.774 -0.2078 -0.679956 0
M  V30 2703 H 250.376 -1.18562 -1.55446 0
M  V30 2704 H 249.08 -1.91547 -3.62957 0
M  V30 2705 H 248.611 -0.234301 -3.92702 0
M  V30 2706 H 250.626 0.526995 -4.93394 0
M  V30 2707 N 249.799 1.42003 -0.683588 0
M  V30 2708 C 250.709 2.34597 -0.0109075 0
M  V30 2709 C 251.725 1.55576 0.779245 0
M  V30 2710 O 252.901 1.88107 0.719555 0
M  V30 2711 C 249.966 3.34199 0.922588 0
M  V30 2712 C 249.027 4.29115 0.125984 0
M  V30 2713 C 248.26 5.23959 1.01502 0
M  V30 2714 O 248.483 5.23952 2.25456 0
M  V30 2715 O 247.417 6.00053 0.47111 0
M  V30 2716 H 251.243 2.93675 -0.773853 0
M  V30 2717 H 248.828 1.42654 -0.443861 0
M  V30 2718 H 250.71 3.95365 1.45823 0
M  V30 2719 H 249.385 2.77582 1.66523 0
M  V30 2720 H 248.292 3.71335 -0.453969 0
M  V30 2721 H 249.625 4.88798 -0.577736 0
M  V30 2722 N 251.277 0.427512 1.51691 0
M  V30 2723 C 252.688 -0.0378867 1.86662 0
M  V30 2724 C 253.039 -1.42819 1.34525 0
M  V30 2725 O 252.164 -2.05037 0.692014 0
M  V30 2726 C 252.759 -0.0755266 3.38716 0
M  V30 2727 C 251.318 -0.485309 3.73258 0
M  V30 2728 C 250.465 0.328399 2.75349 0
M  V30 2729 H 253.416 0.64379 1.45055 0
M  V30 2730 H 253.437 -0.887056 3.70016 0
M  V30 2731 H 252.949 0.936487 3.76632 0
M  V30 2732 H 251.05 -1.50329 3.40928 0
M  V30 2733 H 251.163 -0.21693 4.78609 0
M  V30 2734 H 249.527 -0.211905 2.53817 0
M  V30 2735 H 250.31 1.3391 3.16106 0
M  V30 2736 N 252.755 -1.56801 0.158532 0
M  V30 2737 C 253.702 -2.17337 -0.776729 0
M  V30 2738 C 254.672 -1.1096 -1.23601 0
M  V30 2739 O 255.857 -1.39054 -1.30647 0
M  V30 2740 C 252.997 -2.80822 -2.00582 0
M  V30 2741 C 252.11 -4.01624 -1.59129 0
M  V30 2742 C 251.245 -4.53072 -2.77306 0
M  V30 2743 C 250.284 -5.66314 -2.32282 0
M  V30 2744 N 249.421 -6.12329 -3.43508 0
M  V30 2745 H 254.261 -2.96918 -0.253701 0
M  V30 2746 H 251.798 -1.46661 -0.113504 0
M  V30 2747 H 253.756 -3.15779 -2.72652 0
M  V30 2748 H 252.386 -2.03866 -2.50277 0
M  V30 2749 H 251.438 -3.72571 -0.767806 0
M  V30 2750 H 252.75 -4.83633 -1.2207 0
M  V30 2751 H 251.904 -4.90145 -3.57551 0
M  V30 2752 H 250.643 -3.70095 -3.17617 0
M  V30 2753 H 249.648 -5.28806 -1.5048 0
M  V30 2754 H 250.873 -6.51085 -1.93043 0
M  V30 2755 H 248.819 -5.32284 -3.83418 0
M  V30 2756 H 248.736 -6.89293 -3.105 0
M  V30 2757 H 250.004 -6.5405 -4.24075 0
M  V30 2758 N 254.233 0.115231 -1.57178 0
M  V30 2759 C 255.458 0.840354 -1.89612 0
M  V30 2760 C 255.883 1.72464 -0.750845 0
M  V30 2761 O 255.241 1.78826 0.298478 0
M  V30 2762 C 255.289 1.64654 -3.20814 0
M  V30 2763 O 254.393 2.7538 -3.06985 0
M  V30 2764 H 253.734 0.232158 -0.622092 0
M  V30 2765 H 256.264 0.0964977 -2.04372 0
M  V30 2766 H 256.274 2.03499 -3.53627 0
M  V30 2767 H 254.949 0.997416 -4.03763 0
M  V30 2768 H 253.526 2.3971 -2.85646 0
M  V30 2769 N 255.711 1.52812 0.385517 0
M  V30 2770 C 256.621 1.80766 1.49535 0
M  V30 2771 C 257.637 0.694651 1.59532 0
M  V30 2772 O 258.813 0.982611 1.75803 0
M  V30 2773 C 255.878 1.97381 2.85029 0
M  V30 2774 C 254.939 3.21295 2.84724 0
M  V30 2775 C 254.172 3.37108 4.13756 0
M  V30 2776 O 254.395 2.5765 5.08893 0
M  V30 2777 O 253.329 4.30378 4.20783 0
M  V30 2778 H 257.155 2.75015 1.28842 0
M  V30 2779 H 254.74 1.37946 0.573697 0
M  V30 2780 H 256.622 2.09996 3.65349 0
M  V30 2781 H 255.297 1.06322 3.05741 0
M  V30 2782 H 254.204 3.1412 2.03174 0
M  V30 2783 H 255.537 4.12212 2.68965 0
M  V30 2784 N 257.189 -0.644168 1.43834 0
M  V30 2785 C 258.137 -1.77793 1.49974 0
M  V30 2786 C 259.131 -1.65253 0.372536 0
M  V30 2787 O 260.337 -1.7149 0.546924 0
M  V30 2788 H 256.712 -0.58675 0.47035 0
M  V30 2789 H 258.683 -1.69736 2.45423 0
M  V30 2790 C 257.432 -3.16087 1.4486 0
M  V30 2791 H 256.755 -3.26378 2.30905 0
M  V30 2792 H 258.195 -3.95349 1.53217 0
M  V30 2793 C 256.654 -3.36484 0.167463 0
M  V30 2794 O 257.184 -3.94298 -0.767609 0
M  V30 2795 N 255.39 -2.90504 0.0747556 0
M  V30 2796 H 254.937 -2.4364 0.836507 0
M  V30 2797 H 254.895 -3.04527 -0.781714 0
M  V30 2798 N 258.668 -1.30515 -0.883378 0
M  V30 2799 C 259.898 -1.22182 -1.66599 0
M  V30 2800 C 260.306 0.217507 -1.87946 0
M  V30 2801 O 259.649 1.1554 -1.42815 0
M  V30 2802 C 259.711 -1.88146 -3.06335 0
M  V30 2803 C 259.375 -3.37476 -3.08154 0
M  V30 2804 C 260.372 -4.33443 -2.87094 0
M  V30 2805 C 258.057 -3.7895 -3.29701 0
M  V30 2806 C 260.051 -5.68858 -2.8754 0
M  V30 2807 C 257.738 -5.14482 -3.29776 0
M  V30 2808 C 258.736 -6.09246 -3.0872 0
M  V30 2809 O 258.424 -7.42302 -3.08615 0
M  V30 2810 H 258.156 -0.423898 -0.52658 0
M  V30 2811 H 260.71 -1.72703 -1.11188 0
M  V30 2812 H 258.94 -1.32157 -3.63416 0
M  V30 2813 H 260.629 -1.7391 -3.66756 0
M  V30 2814 H 261.395 -4.02733 -2.70243 0
M  V30 2815 H 257.274 -3.05631 -3.45124 0
M  V30 2816 H 260.818 -6.428 -2.71024 0
M  V30 2817 H 256.715 -5.44832 -3.46163 0
M  V30 2818 H 257.483 -7.5131 -3.24769 0
M  V30 2819 N 260.146 1.09593 -1.13257 0
M  V30 2820 C 261.374 1.855 -0.916378 0
M  V30 2821 C 261.789 1.81069 0.534738 0
M  V30 2822 O 261.146 1.20562 1.37007 0
M  V30 2823 C 261.197 3.33546 -1.39388 0
M  V30 2824 O 260.918 3.37927 -2.78813 0
M  V30 2825 C 262.419 4.26299 -1.21588 0
M  V30 2826 H 259.639 0.585991 -0.326887 0
M  V30 2827 H 262.183 1.38488 -1.5047 0
M  V30 2828 H 260.338 3.77992 -0.848597 0
M  V30 2829 H 260.752 4.30254 -2.9997 0
M  V30 2830 H 262.226 5.28341 -1.59876 0
M  V30 2831 H 262.703 4.38918 -0.157376 0
M  V30 2832 H 263.309 3.87668 -1.7491 0
M  V30 2833 N 261.624 0.925811 1.2754 0
M  V30 2834 C 262.854 0.580666 1.98272 0
M  V30 2835 C 263.262 -0.845207 1.69272 0
M  V30 2836 O 262.605 -1.57306 0.948707 0
M  V30 2837 C 262.667 0.724418 3.52126 0
M  V30 2838 C 262.331 2.12206 4.04744 0
M  V30 2839 C 263.328 3.09604 4.17662 0
M  V30 2840 C 261.013 2.4385 4.39138 0
M  V30 2841 C 263.007 4.36755 4.64246 0
M  V30 2842 C 260.694 3.71237 4.85414 0
M  V30 2843 C 261.692 4.67503 4.97926 0
M  V30 2844 O 261.38 5.92624 5.43187 0
M  V30 2845 H 261.112 0.218987 0.639547 0
M  V30 2846 H 263.666 1.24452 1.63404 0
M  V30 2847 H 261.896 0.0034663 3.867 0
M  V30 2848 H 263.585 0.384607 4.04074 0
M  V30 2849 H 264.351 2.86478 3.91351 0
M  V30 2850 H 260.23 1.69665 4.28643 0
M  V30 2851 H 263.774 5.11898 4.73927 0
M  V30 2852 H 259.671 3.94182 5.11166 0
M  V30 2853 H 260.439 5.95585 5.61445 0
M  V30 2854 N 263.102 -1.41638 0.69111 0
M  V30 2855 C 264.351 -2.00526 0.217318 0
M  V30 2856 C 264.664 -1.55353 -1.18848 0
M  V30 2857 O 265.87 -2.06769 -1.75951 0
M  V30 2858 C 264.326 -3.58313 0.337639 0
M  V30 2859 C 263.934 -4.12469 1.74852 0
M  V30 2860 C 265.678 -4.24431 -0.0766066 0
M  V30 2861 C 263.585 -5.62675 1.82074 0
M  V30 2862 H 262.515 -0.750008 0.0774893 0
M  V30 2863 H 265.166 -1.6217 0.858661 0
M  V30 2864 H 263.548 -3.9425 -0.371879 0
M  V30 2865 H 264.722 -3.8796 2.48644 0
M  V30 2866 H 263.037 -3.58861 2.11205 0
M  V30 2867 H 265.634 -5.34683 -0.0430284 0
M  V30 2868 H 265.977 -4.01101 -1.1146 0
M  V30 2869 H 266.51 -3.93512 0.582476 0
M  V30 2870 H 263.249 -5.90826 2.83911 0
M  V30 2871 H 262.769 -5.89124 1.12661 0
M  V30 2872 H 264.448 -6.27371 1.58159 0
M  V30 2873 N 264.58 -0.43555 -1.51462 0
M  V30 2874 C 265.826 0.123979 -2.03022 0
M  V30 2875 C 266.181 1.4054 -1.31401 0
M  V30 2876 O 265.474 1.86948 -0.419634 0
M  V30 2877 C 265.668 0.39942 -3.55161 0
M  V30 2878 C 265.497 -0.853754 -4.41521 0
M  V30 2879 C 264.267 -1.38675 -4.85898 0
M  V30 2880 C 266.465 -1.73939 -4.83994 0
M  V30 2881 N 264.447 -2.59265 -5.56466 0
M  V30 2882 C 265.818 -2.79135 -5.5361 0
M  V30 2883 C 267.873 -1.75402 -4.65981 0
M  V30 2884 C 266.576 -3.85737 -6.07124 0
M  V30 2885 C 268.602 -2.80938 -5.20411 0
M  V30 2886 C 267.964 -3.84854 -5.89972 0
M  V30 2887 H 264.063 0.00624887 -0.781975 0
M  V30 2888 H 266.647 -0.59582 -1.85359 0
M  V30 2889 H 264.818 1.08825 -3.72843 0
M  V30 2890 H 266.55 0.95015 -3.93388 0
M  V30 2891 H 263.305 -0.94094 -4.64159 0
M  V30 2892 H 263.729 -3.2041 -5.96378 0
M  V30 2893 H 268.371 -0.963926 -4.11665 0
M  V30 2894 H 266.089 -4.65586 -6.60496 0
M  V30 2895 H 269.675 -2.8301 -5.08327 0
M  V30 2896 H 268.555 -4.65176 -6.31333 0
M  V30 2897 N 266.058 1.56714 -0.166846 0
M  V30 2898 C 267.304 1.97813 0.473473 0
M  V30 2899 C 267.659 1.05095 1.61161 0
M  V30 2900 O 266.952 0.0897541 1.9139 0
M  V30 2901 C 267.146 3.42889 1.00806 0
M  V30 2902 C 266.975 4.49635 -0.0767392 0
M  V30 2903 C 265.745 5.02566 -0.524894 0
M  V30 2904 C 267.943 5.06793 -0.875504 0
M  V30 2905 N 265.925 5.9294 -1.59047 0
M  V30 2906 C 267.296 5.93565 -1.79111 0
M  V30 2907 C 269.351 4.89306 -0.921083 0
M  V30 2908 C 268.054 6.64721 -2.74843 0
M  V30 2909 C 270.08 5.61179 -1.86633 0
M  V30 2910 C 269.442 6.47675 -2.76942 0
M  V30 2911 H 265.541 0.769093 0.141489 0
M  V30 2912 H 268.125 1.92874 -0.266031 0
M  V30 2913 H 266.296 3.48382 1.7171 0
M  V30 2914 H 268.028 3.71008 1.61664 0
M  V30 2915 H 264.783 4.73439 -0.123432 0
M  V30 2916 H 265.207 6.42831 -2.12361 0
M  V30 2917 H 269.849 4.22136 -0.23692 0
M  V30 2918 H 267.567 7.31107 -3.44249 0
M  V30 2919 H 271.153 5.49636 -1.90764 0
M  V30 2920 H 270.033 7.02313 -3.48893 0
M  V30 2921 N 267.536 -0.106894 1.57237 0
M  V30 2922 C 268.466 -1.13148 2.04254 0
M  V30 2923 C 269.447 -1.42476 0.929224 0
M  V30 2924 O 270.632 -1.52709 1.19973 0
M  V30 2925 C 267.762 -2.4545 2.45706 0
M  V30 2926 C 266.716 -2.30558 3.60592 0
M  V30 2927 C 266.042 -3.67931 3.87983 0
M  V30 2928 C 267.342 -1.75597 4.91897 0
M  V30 2929 H 269.036 -0.740374 2.90101 0
M  V30 2930 H 266.582 -0.354696 1.39563 0
M  V30 2931 H 268.535 -3.17389 2.77205 0
M  V30 2932 H 267.259 -2.86475 1.56843 0
M  V30 2933 H 265.918 -1.61067 3.29322 0
M  V30 2934 H 265.566 -4.06462 2.96306 0
M  V30 2935 H 265.266 -3.58817 4.65322 0
M  V30 2936 H 266.79 -4.41356 4.21945 0
M  V30 2937 H 268.204 -2.37364 5.21854 0
M  V30 2938 H 266.601 -1.77272 5.73319 0
M  V30 2939 H 267.671 -0.714451 4.79608 0
M  V30 2940 N 269.014 -1.53014 -0.377408 0
M  V30 2941 C 269.962 -1.7927 -1.48206 0
M  V30 2942 C 270.956 -0.661195 -1.55963 0
M  V30 2943 O 272.162 -0.843908 -1.58991 0
M  V30 2944 H 268.537 -0.567425 -0.493491 0
M  V30 2945 H 270.508 -2.71753 -1.2326 0
M  V30 2946 C 269.257 -1.98894 -2.85196 0
M  V30 2947 H 268.58 -2.85395 -2.79981 0
M  V30 2948 H 270.02 -2.21249 -3.61698 0
M  V30 2949 C 268.479 -0.764691 -3.28107 0
M  V30 2950 O 269.009 0.0523226 -4.01666 0
M  V30 2951 N 267.215 -0.591493 -2.84517 0
M  V30 2952 H 266.762 -1.25749 -2.24822 0
M  V30 2953 H 266.72 0.226253 -3.13585 0
M  V30 2954 N 270.492 0.636531 -1.44174 0
M  V30 2955 C 271.74 1.39343 -1.46383 0
M  V30 2956 C 272.061 1.94766 -0.0955715 0
M  V30 2957 O 271.331 1.75452 0.871395 0
M  V30 2958 H 269.911 0.517199 -0.538994 0
M  V30 2959 H 272.573 0.74957 -1.7991 0
M  V30 2960 H 271.669 2.22746 -2.18611 0
M  V30 2961 N 271.97 1.30982 0.876444 0
M  V30 2962 C 272.902 1.13902 1.98894 0
M  V30 2963 C 273.915 0.0798815 1.62604 0
M  V30 2964 O 275.104 0.326743 1.75484 0
M  V30 2965 C 272.204 0.716699 3.31235 0
M  V30 2966 C 271.377 1.85945 3.95908 0
M  V30 2967 C 270.436 1.42426 5.06558 0
M  V30 2968 O 269.462 2.13287 5.27729 0
M  V30 2969 N 270.664 0.308025 5.79682 0
M  V30 2970 H 273.429 2.09724 2.14094 0
M  V30 2971 H 270.99 1.2323 1.05004 0
M  V30 2972 H 272.982 0.408403 4.02634 0
M  V30 2973 H 271.552 -0.149719 3.12241 0
M  V30 2974 H 270.772 2.33541 3.17573 0
M  V30 2975 H 272.06 2.62503 4.35855 0
M  V30 2976 H 271.458 -0.282241 5.64995 0
M  V30 2977 H 270.015 0.0592282 6.51773 0
M  V30 2978 N 273.449 -1.08991 1.13837 0
M  V30 2979 C 274.674 -1.85551 0.926585 0
M  V30 2980 C 275.099 -1.80782 -0.519566 0
M  V30 2981 O 274.457 -1.18855 -1.36906 0
M  V30 2982 C 274.505 -3.31266 1.42462 0
M  V30 2983 O 273.609 -4.07822 0.612789 0
M  V30 2984 H 272.95 -0.575192 0.331738 0
M  V30 2985 H 275.48 -1.37604 1.51414 0
M  V30 2986 H 275.49 -3.82112 1.43019 0
M  V30 2987 H 274.165 -3.34052 2.47754 0
M  V30 2988 H 272.742 -3.66731 0.675463 0
M  V30 2989 N 274.927 -0.932562 -1.27047 0
M  V30 2990 C 275.857 -0.452902 -2.29066 0
M  V30 2991 C 276.838 0.489338 -1.62909 0
M  V30 2992 O 278.023 0.393046 -1.90181 0
M  V30 2993 C 275.153 0.290698 -3.46081 0
M  V30 2994 C 274.107 -0.564168 -4.24265 0
M  V30 2995 C 273.433 0.308886 -5.33807 0
M  V30 2996 C 274.733 -1.83112 -4.89149 0
M  V30 2997 H 276.427 -1.30552 -2.69437 0
M  V30 2998 H 273.973 -0.629201 -1.29526 0
M  V30 2999 H 275.926 0.637233 -4.16554 0
M  V30 3000 H 274.65 1.17738 -3.0464 0
M  V30 3001 H 273.309 -0.893477 -3.55545 0
M  V30 3002 H 272.957 1.19467 -4.88607 0
M  V30 3003 H 272.657 -0.259633 -5.87026 0
M  V30 3004 H 274.181 0.650884 -6.07121 0
M  V30 3005 H 275.595 -1.55236 -5.51883 0
M  V30 3006 H 273.992 -2.34353 -5.52448 0
M  V30 3007 H 275.062 -2.54772 -4.12576 0
M  V30 3008 N 276.405 1.4127 -0.698611 0
M  V30 3009 C 277.816 1.84187 -0.305289 0
M  V30 3010 C 278.167 1.58449 1.15708 0
M  V30 3011 O 277.292 1.05651 1.88856 0
M  V30 3012 C 277.887 3.3435 -0.547314 0
M  V30 3013 C 276.446 3.75826 -0.207878 0
M  V30 3014 C 275.593 2.64647 -0.828099 0
M  V30 3015 H 278.544 1.30778 -0.89904 0
M  V30 3016 H 278.565 3.8001 0.192998 0
M  V30 3017 H 278.077 3.53051 -1.61172 0
M  V30 3018 H 276.178 3.62725 0.852143 0
M  V30 3019 H 276.291 4.74462 -0.665021 0
M  V30 3020 H 274.655 2.53395 -0.257458 0
M  V30 3021 H 275.438 2.86165 -1.89643 0
M  V30 3022 N 277.883 0.443576 1.51229 0
M  V30 3023 C 279.129 -0.120975 2.02439 0
M  V30 3024 C 279.462 -1.41815 1.32674 0
M  V30 3025 O 278.737 -1.89373 0.443622 0
M  V30 3026 C 279.02 -0.333291 3.58554 0
M  V30 3027 C 278.873 0.982968 4.38928 0
M  V30 3028 C 280.192 -1.10028 4.26124 0
M  V30 3029 H 277.311 -0.0424923 0.735774 0
M  V30 3030 H 279.953 0.583794 1.80809 0
M  V30 3031 H 278.103 -0.933614 3.77115 0
M  V30 3032 H 279.775 1.61775 4.32003 0
M  V30 3033 H 278.018 1.58611 4.03763 0
M  V30 3034 H 278.689 0.788379 5.46341 0
M  V30 3035 H 281.165 -0.591711 4.11871 0
M  V30 3036 H 280.041 -1.21761 5.35225 0
M  V30 3037 H 280.302 -2.12996 3.87408 0
M  V30 3038 N 279.361 -1.56624 0.175154 0
M  V30 3039 C 280.586 -2.01813 -0.478137 0
M  V30 3040 C 281.011 -1.05457 -1.55757 0
M  V30 3041 O 280.369 -0.0347439 -1.81267 0
M  V30 3042 C 280.417 -3.45581 -1.02987 0
M  V30 3043 O 279.521 -3.52305 -2.14371 0
M  V30 3044 H 278.862 -0.65413 -0.114059 0
M  V30 3045 H 281.392 -2.02673 0.280173 0
M  V30 3046 H 281.402 -3.84965 -1.35151 0
M  V30 3047 H 280.077 -4.1521 -0.239556 0
M  V30 3048 H 278.654 -3.24783 -1.83222 0
M  V30 3049 N 280.839 0.0985539 -1.57292 0
M  V30 3050 C 282.25 0.653457 -1.74891 0
M  V30 3051 C 282.601 1.7929 -0.796838 0
M  V30 3052 O 281.726 2.16385 0.0254886 0
M  V30 3053 C 282.321 1.19216 -3.17133 0
M  V30 3054 C 280.88 1.69316 -3.36168 0
M  V30 3055 C 280.027 0.601294 -2.70702 0
M  V30 3056 H 282.978 -0.127497 -1.58187 0
M  V30 3057 H 282.999 2.06154 -3.19814 0
M  V30 3058 H 282.511 0.362635 -3.86402 0
M  V30 3059 H 280.612 2.5468 -2.71972 0
M  V30 3060 H 280.725 1.78853 -4.44464 0
M  V30 3061 H 279.089 1.0399 -2.32504 0
M  V30 3062 H 279.872 -0.217592 -3.4261 0
M  V30 3063 N 282.317 1.53212 0.369288 0
M  V30 3064 C 283.733 1.42902 0.710712 0
M  V30 3065 C 283.933 0.565135 1.93413 0
M  V30 3066 O 282.989 0.0461484 2.52458 0
M  V30 3067 C 284.302 2.86042 0.927382 0
M  V30 3068 C 285.85 2.9565 1.02762 0
M  V30 3069 C 286.325 4.39843 1.27679 0
M  V30 3070 N 287.816 4.43256 1.34457 0
M  V30 3071 C 288.551 5.51929 1.55439 0
M  V30 3072 N 288.047 6.70655 1.73762 0
M  V30 3073 N 289.84 5.39502 1.57779 0
M  V30 3074 H 281.991 2.07888 -0.435457 0
M  V30 3075 H 284.254 0.938661 -0.132739 0
M  V30 3076 H 283.96 3.51557 0.100287 0
M  V30 3077 H 283.834 3.29472 1.83653 0
M  V30 3078 H 286.221 2.30291 1.84527 0
M  V30 3079 H 286.302 2.5562 0.0959504 0
M  V30 3080 H 285.946 5.05774 0.464175 0
M  V30 3081 H 285.876 4.77443 2.22162 0
M  V30 3082 H 288.367 3.5769 1.21926 0
M  V30 3083 H 288.68 7.49248 1.89335 0
M  V30 3084 H 287.025 6.73648 1.70948 0
M  V30 3085 H 290.216 4.45713 1.43029 0
M  V30 3086 H 290.389 6.2426 1.7379 0
M  V30 3087 N 283.795 -0.628877 1.44509 0
M  V30 3088 C 285.041 -1.39045 1.47629 0
M  V30 3089 C 285.374 -1.93892 0.109343 0
M  V30 3090 O 284.649 -1.7379 -0.87334 0
M  V30 3091 C 284.932 -2.55408 2.53848 0
M  V30 3092 C 284.785 -2.05896 3.99909 0
M  V30 3093 C 286.104 -3.5759 2.56549 0
M  V30 3094 H 283.223 -0.504232 0.537512 0
M  V30 3095 H 285.865 -0.710854 1.76201 0
M  V30 3096 H 284.015 -3.13384 2.29615 0
M  V30 3097 H 285.687 -1.52734 4.35282 0
M  V30 3098 H 283.93 -1.37061 4.11578 0
M  V30 3099 H 284.601 -2.89681 4.69882 0
M  V30 3100 H 287.077 -3.09419 2.78207 0
M  V30 3101 H 285.953 -4.36527 3.32769 0
M  V30 3102 H 286.214 -4.11808 1.60832 0
M  V30 3103 N 285.273 -1.31445 -0.869486 0
M  V30 3104 C 286.22 -1.19135 -1.97675 0
M  V30 3105 C 287.19 -0.0770266 -1.65921 0
M  V30 3106 O 288.375 -0.249972 -1.89155 0
M  V30 3107 C 285.515 -0.905149 -3.33018 0
M  V30 3108 C 284.628 -2.10285 -3.77365 0
M  V30 3109 C 283.763 -1.75339 -5.01427 0
M  V30 3110 C 282.802 -2.91515 -5.38224 0
M  V30 3111 N 281.939 -2.56762 -6.53466 0
M  V30 3112 H 286.779 -2.13853 -2.07535 0
M  V30 3113 H 284.316 -1.06379 -1.01597 0
M  V30 3114 H 286.274 -0.719765 -4.10944 0
M  V30 3115 H 284.904 0.00519624 -3.228 0
M  V30 3116 H 283.956 -2.39899 -2.95216 0
M  V30 3117 H 285.268 -2.97237 -4.00564 0
M  V30 3118 H 284.422 -1.53266 -5.87022 0
M  V30 3119 H 283.161 -0.855801 -4.80133 0
M  V30 3120 H 282.166 -3.14237 -4.51149 0
M  V30 3121 H 283.391 -3.81985 -5.61484 0
M  V30 3122 H 281.337 -1.69526 -6.33717 0
M  V30 3123 H 281.254 -3.37243 -6.76612 0
M  V30 3124 H 282.522 -2.38083 -7.42251 0
M  V30 3125 N 286.751 1.08385 -1.14413 0
M  V30 3126 C 288.167 1.32844 -0.884563 0
M  V30 3127 C 288.367 1.95841 0.474181 0
M  V30 3128 O 287.423 2.21158 1.21842 0
M  V30 3129 C 288.736 2.22978 -2.01745 0
M  V30 3130 C 290.284 2.36458 -2.05077 0
M  V30 3131 C 290.759 3.29934 -3.1766 0
M  V30 3132 N 292.25 3.37511 -3.17239 0
M  V30 3133 C 292.985 4.09871 -4.0099 0
M  V30 3134 N 292.481 4.84936 -4.94781 0
M  V30 3135 N 294.274 4.05704 -3.89051 0
M  V30 3136 H 286.425 0.658756 -2.01926 0
M  V30 3137 H 288.688 0.352821 -0.879899 0
M  V30 3138 H 288.394 1.83934 -2.99769 0
M  V30 3139 H 288.268 3.23441 -1.94077 0
M  V30 3140 H 290.655 2.7476 -1.0766 0
M  V30 3141 H 290.736 1.35736 -2.16816 0
M  V30 3142 H 290.38 2.92352 -4.15322 0
M  V30 3143 H 290.31 4.30584 -3.03158 0
M  V30 3144 H 292.801 2.83996 -2.49308 0
M  V30 3145 H 293.114 5.37612 -5.55151 0
M  V30 3146 H 291.459 4.83988 -4.98779 0
M  V30 3147 H 294.65 3.46167 -3.15097 0
M  V30 3148 H 294.823 4.61834 -4.54547 0
M  V30 3149 N 288.23 0.939286 1.26551 0
M  V30 3150 C 289.641 0.628782 1.75793 0
M  V30 3151 C 289.992 -0.856046 1.7654 0
M  V30 3152 O 289.117 -1.66994 1.3763 0
M  V30 3153 C 289.712 1.13465 3.19235 0
M  V30 3154 C 288.271 0.874601 3.66098 0
M  V30 3155 C 287.418 1.28667 2.45642 0
M  V30 3156 H 290.369 1.1178 1.12654 0
M  V30 3157 H 290.39 0.487609 3.77363 0
M  V30 3158 H 289.902 2.21535 3.1866 0
M  V30 3159 H 288.003 -0.191793 3.72106 0
M  V30 3160 H 288.116 1.50028 4.55004 0
M  V30 3161 H 286.48 0.705109 2.44745 0
M  V30 3162 H 287.263 2.37625 2.47769 0
M  V30 3163 N 289.708 -1.40897 0.706093 0
M  V30 3164 C 290.957 -2.00284 0.238574 0
M  V30 3165 C 291.27 -1.56604 -1.17194 0
M  V30 3166 O 292.476 -2.08624 -1.73748 0
M  V30 3167 C 290.932 -3.57934 0.375623 0
M  V30 3168 C 290.54 -4.10591 1.79217 0
M  V30 3169 C 292.284 -4.24488 -0.0315857 0
M  V30 3170 C 290.191 -5.60712 1.88032 0
M  V30 3171 H 289.121 -0.749144 0.0854398 0
M  V30 3172 H 291.772 -1.61251 0.875813 0
M  V30 3173 H 290.154 -3.94622 -0.330042 0
M  V30 3174 H 291.328 -3.85301 2.52745 0
M  V30 3175 H 289.643 -3.56601 2.15 0
M  V30 3176 H 292.24 -5.34698 0.0136842 0
M  V30 3177 H 292.583 -4.02261 -1.072 0
M  V30 3178 H 293.116 -3.92873 0.624181 0
M  V30 3179 H 289.855 -5.87781 2.90161 0
M  V30 3180 H 289.375 -5.87896 1.18903 0
M  V30 3181 H 291.054 -6.25658 1.64805 0
M  V30 3182 N 291.186 -0.45159 -1.50991 0
M  V30 3183 C 292.096 0.358431 -2.31846 0
M  V30 3184 C 293.112 1.01438 -1.41373 0
M  V30 3185 O 294.288 1.00663 -1.74439 0
M  V30 3186 C 291.353 1.43704 -3.15515 0
M  V30 3187 C 290.414 0.799742 -4.21785 0
M  V30 3188 C 289.647 1.82696 -5.01456 0
M  V30 3189 O 289.87 3.05105 -4.81941 0
M  V30 3190 O 288.804 1.40958 -5.85162 0
M  V30 3191 H 292.63 -0.302032 -3.02194 0
M  V30 3192 H 290.215 -0.213825 -1.47862 0
M  V30 3193 H 292.097 2.06227 -3.67489 0
M  V30 3194 H 290.772 2.08133 -2.47916 0
M  V30 3195 H 289.679 0.136084 -3.73852 0
M  V30 3196 H 291.012 0.198718 -4.91799 0
M  V30 3197 N 292.664 1.56529 -0.183458 0
M  V30 3198 C 293.612 2.19873 0.758845 0
M  V30 3199 C 294.606 1.16638 1.22849 0
M  V30 3200 O 295.812 1.3481 1.19274 0
M  V30 3201 H 292.187 0.7045 0.263029 0
M  V30 3202 H 294.158 2.97724 0.200755 0
M  V30 3203 C 292.907 2.86314 1.9728 0
M  V30 3204 H 292.23 3.65487 1.62047 0
M  V30 3205 H 293.67 3.3409 2.61075 0
M  V30 3206 C 292.129 1.86729 2.80418 0
M  V30 3207 O 292.659 1.36031 3.77966 0
M  V30 3208 N 290.865 1.55216 2.45675 0
M  V30 3209 H 290.412 1.96636 1.66409 0
M  V30 3210 H 290.37 0.888388 3.01588 0
M  V30 3211 N 294.142 -0.090211 1.57342 0
M  V30 3212 C 295.558 -0.444547 1.53284 0
M  V30 3213 C 295.758 -1.80238 0.900914 0
M  V30 3214 O 294.814 -2.4759 0.495513 0
M  V30 3215 C 296.127 -0.402543 2.97993 0
M  V30 3216 C 297.675 -0.48405 3.09234 0
M  V30 3217 C 298.15 -0.472144 4.5556 0
M  V30 3218 N 299.641 -0.532757 4.60126 0
M  V30 3219 C 300.376 -0.545462 5.708 0
M  V30 3220 N 299.872 -0.514082 6.9089 0
M  V30 3221 N 301.665 -0.59064 5.58988 0
M  V30 3222 H 293.816 0.799121 1.96794 0
M  V30 3223 H 296.079 0.297965 0.899956 0
M  V30 3224 H 295.785 0.528106 3.47712 0
M  V30 3225 H 295.659 -1.21969 3.56936 0
M  V30 3226 H 298.046 -1.40512 2.595 0
M  V30 3227 H 298.127 0.361328 2.53235 0
M  V30 3228 H 297.771 0.445 5.05947 0
M  V30 3229 H 297.701 -1.3348 5.09402 0
M  V30 3230 H 300.192 -0.562006 3.73698 0
M  V30 3231 H 300.505 -0.527195 7.71 0
M  V30 3232 H 298.85 -0.481054 6.93333 0
M  V30 3233 H 302.041 -0.61272 4.64073 0
M  V30 3234 H 302.214 -0.597073 6.45243 0
M  V30 3235 N 295.62 -1.53406 -0.361157 0
M  V30 3236 C 296.869 -1.69022 -1.10066 0
M  V30 3237 C 297.182 -0.450838 -1.90333 0
M  V30 3238 O 298.388 -0.487617 -2.67085 0
M  V30 3239 C 296.844 -2.98812 -2.00598 0
M  V30 3240 C 296.452 -4.30027 -1.25621 0
M  V30 3241 C 298.196 -3.23795 -2.74513 0
M  V30 3242 C 296.103 -5.50903 -2.1508 0
M  V30 3243 H 295.033 -0.629776 -0.414606 0
M  V30 3244 H 297.684 -1.79907 -0.361348 0
M  V30 3245 H 296.066 -2.8174 -2.78278 0
M  V30 3246 H 297.24 -4.57745 -0.529739 0
M  V30 3247 H 295.555 -4.11522 -0.635496 0
M  V30 3248 H 298.152 -4.11289 -3.41681 0
M  V30 3249 H 298.495 -2.40045 -3.40123 0
M  V30 3250 H 299.028 -3.41561 -2.03914 0
M  V30 3251 H 295.767 -6.37143 -1.54041 0
M  V30 3252 H 295.287 -5.27459 -2.85565 0
M  V30 3253 H 296.966 -5.85865 -2.74538 0
M  V30 3254 N 297.098 0.621204 -1.44841 0
M  V30 3255 C 298.028 1.74366 -1.55303 0
M  V30 3256 C 299.009 1.65199 -0.405385 0
M  V30 3257 O 300.194 1.83807 -0.626787 0
M  V30 3258 C 297.324 3.12931 -1.50637 0
M  V30 3259 C 296.278 3.36896 -2.63979 0
M  V30 3260 C 295.604 4.75594 -2.44366 0
M  V30 3261 C 296.904 3.28483 -4.06074 0
M  V30 3262 H 298.598 1.65867 -2.49256 0
M  V30 3263 H 296.144 0.796558 -1.19962 0
M  V30 3264 H 298.097 3.9124 -1.56555 0
M  V30 3265 H 296.821 3.22237 -0.532057 0
M  V30 3266 H 295.48 2.60972 -2.57467 0
M  V30 3267 H 295.128 4.81616 -1.45105 0
M  V30 3268 H 294.828 4.92586 -3.20364 0
M  V30 3269 H 296.352 5.5612 -2.52117 0
M  V30 3270 H 297.766 3.96684 -4.13902 0
M  V30 3271 H 296.163 3.57008 -4.82354 0
M  V30 3272 H 297.233 2.26133 -4.28943 0
M  V30 3273 N 298.576 1.31904 0.862503 0
M  V30 3274 C 299.825 1.21373 1.61094 0
M  V30 3275 C 300.138 -0.22504 1.94301 0
M  V30 3276 O 301.344 -0.452121 2.67709 0
M  V30 3277 C 299.8 2.12525 2.9045 0
M  V30 3278 C 299.408 3.61441 2.64697 0
M  V30 3279 C 301.152 2.10813 3.68454 0
M  V30 3280 C 299.059 4.44578 3.90006 0
M  V30 3281 H 297.989 0.450705 0.604468 0
M  V30 3282 H 300.64 1.56811 0.953027 0
M  V30 3283 H 299.022 1.69994 3.57656 0
M  V30 3284 H 300.196 4.12264 2.05851 0
M  V30 3285 H 298.511 3.65205 2.00036 0
M  V30 3286 H 301.108 2.70167 4.61426 0
M  V30 3287 H 301.451 1.09713 4.01583 0
M  V30 3288 H 301.984 2.51583 3.08141 0
M  V30 3289 H 298.723 5.46461 3.62023 0
M  V30 3290 H 298.243 3.98508 4.48276 0
M  V30 3291 H 299.922 4.57176 4.5782 0
M  V30 3292 N 300.054 -1.07777 1.14986 0
M  V30 3293 C 300.984 -2.16865 0.865557 0
M  V30 3294 C 301.965 -1.69123 -0.182083 0
M  V30 3295 O 303.15 -1.94164 -0.0373815 0
M  V30 3296 C 300.28 -3.45539 0.349313 0
M  V30 3297 C 299.234 -4.06708 1.33313 0
M  V30 3298 C 298.56 -5.30411 0.675918 0
M  V30 3299 C 299.86 -4.47241 2.69764 0
M  V30 3300 H 301.554 -2.40905 1.77778 0
M  V30 3301 H 299.1 -1.15781 0.856203 0
M  V30 3302 H 301.053 -4.21174 0.137983 0
M  V30 3303 H 299.777 -3.21072 -0.598362 0
M  V30 3304 H 298.436 -3.33112 1.53075 0
M  V30 3305 H 298.084 -5.02232 -0.277767 0
M  V30 3306 H 297.784 -5.72293 1.33244 0
M  V30 3307 H 299.308 -6.08755 0.474262 0
M  V30 3308 H 300.722 -5.14025 2.53873 0
M  V30 3309 H 299.119 -5.00062 3.3175 0
M  V30 3310 H 300.189 -3.58818 3.26156 0
M  V30 3311 N 301.532 -0.945985 -1.26051 0
M  V30 3312 C 302.943 -0.638096 -1.75457 0
M  V30 3313 C 303.294 0.846672 -1.76991 0
M  V30 3314 O 302.419 1.66262 -1.38513 0
M  V30 3315 C 303.014 -1.15157 -3.18629 0
M  V30 3316 C 301.573 -0.894004 -3.65629 0
M  V30 3317 C 300.72 -1.29967 -2.44957 0
M  V30 3318 H 303.671 -1.12376 -1.1206 0
M  V30 3319 H 303.692 -0.507615 -3.77099 0
M  V30 3320 H 303.204 -2.23222 -3.1748 0
M  V30 3321 H 301.305 0.172057 -3.72203 0
M  V30 3322 H 301.418 -1.52439 -4.54202 0
M  V30 3323 H 299.782 -0.718078 -2.44368 0
M  V30 3324 H 300.565 -2.38935 -2.46505 0
M  V30 3325 N 303.011 1.40521 -0.713556 0
M  V30 3326 C 304.236 2.05759 -0.26035 0
M  V30 3327 C 304.661 1.53403 1.08854 0
M  V30 3328 O 304.019 0.668535 1.68524 0
M  V30 3329 C 304.067 3.59745 -0.248122 0
M  V30 3330 O 303.171 4.05123 0.77131 0
M  V30 3331 H 302.512 0.652564 -0.122703 0
M  V30 3332 H 305.042 1.79958 -0.973467 0
M  V30 3333 H 305.052 4.07911 -0.0851129 0
M  V30 3334 H 303.727 3.97218 -1.2325 0
M  V30 3335 H 302.304 3.68422 0.57619 0
M  V30 3336 N 304.489 0.459591 1.5075 0
M  V30 3337 C 305.735 -0.0994966 2.02556 0
M  V30 3338 C 306.068 -1.40399 1.3417 0
M  V30 3339 O 305.343 -1.88892 0.463683 0
M  V30 3340 C 305.626 -0.295242 3.58888 0
M  V30 3341 C 305.479 1.02947 4.37861 0
M  V30 3342 C 306.798 -1.05502 4.27267 0
M  V30 3343 H 303.917 -0.034686 0.736183 0
M  V30 3344 H 306.559 0.602938 1.8018 0
M  V30 3345 H 304.709 -0.893563 3.78084 0
M  V30 3346 H 306.381 1.66348 4.30263 0
M  V30 3347 H 304.624 1.62885 4.02058 0
M  V30 3348 H 305.295 0.846281 5.45474 0
M  V30 3349 H 307.771 -0.547993 4.12476 0
M  V30 3350 H 306.647 -1.16077 5.36486 0
M  V30 3351 H 306.908 -2.08875 3.89645 0
M  V30 3352 N 305.967 -1.56429 0.191757 0
M  V30 3353 C 307.195 -2.01867 -0.453586 0
M  V30 3354 C 307.61 -1.07191 -1.5542 0
M  V30 3355 O 306.967 -0.0762108 -1.82341 0
M  V30 3356 C 307.018 -3.47017 -1.013 0
M  V30 3357 O 306.739 -4.38078 0.0437005 0
M  V30 3358 C 308.24 -4.07956 -1.73456 0
M  V30 3359 H 305.46 -0.661211 -0.114199 0
M  V30 3360 H 308.004 -2.02295 0.299483 0
M  V30 3361 H 306.159 -3.47298 -1.71647 0
M  V30 3362 H 306.573 -5.23178 -0.372212 0
M  V30 3363 H 308.047 -5.1138 -2.07833 0
M  V30 3364 H 308.524 -3.51222 -2.63704 0
M  V30 3365 H 309.13 -4.11437 -1.07702 0
M  V30 3366 N 307.445 0.0818655 -1.57387 0
M  V30 3367 C 308.861 0.436412 -1.53517 0
M  V30 3368 C 309.061 1.79758 -0.910459 0
M  V30 3369 O 308.117 2.47324 -0.508636 0
M  V30 3370 C 309.43 0.386734 -2.98203 0
M  V30 3371 C 310.978 0.467644 -3.09487 0
M  V30 3372 C 311.453 0.447978 -4.55804 0
M  V30 3373 N 312.944 0.508348 -4.60402 0
M  V30 3374 C 313.679 0.515184 -5.71081 0
M  V30 3375 N 313.175 0.477435 -6.91153 0
M  V30 3376 N 314.968 0.560988 -5.59294 0
M  V30 3377 H 307.119 -0.809546 -1.96367 0
M  V30 3378 H 309.382 -0.302733 -0.898363 0
M  V30 3379 H 309.088 -0.546539 -3.47427 0
M  V30 3380 H 308.962 1.20075 -3.57578 0
M  V30 3381 H 311.349 1.39134 -2.60242 0
M  V30 3382 H 311.43 -0.374753 -2.5304 0
M  V30 3383 H 311.074 -0.471826 -5.05704 0
M  V30 3384 H 311.004 1.30777 -5.10103 0
M  V30 3385 H 313.495 0.54218 -3.7399 0
M  V30 3386 H 313.808 0.486299 -7.71268 0
M  V30 3387 H 312.153 0.444278 -6.93579 0
M  V30 3388 H 315.344 0.5881 -4.64391 0
M  V30 3389 H 315.517 0.562846 -6.45551 0
M  V30 3390 N 308.923 1.53595 0.353017 0
M  V30 3391 C 309.871 1.81605 1.45335 0
M  V30 3392 C 310.865 0.685923 1.54892 0
M  V30 3393 O 312.071 0.869095 1.57628 0
M  V30 3394 H 308.446 0.575204 0.484401 0
M  V30 3395 H 310.417 2.73679 1.18921 0
M  V30 3396 C 309.166 2.03406 2.81995 0
M  V30 3397 H 308.489 2.89814 2.75405 0
M  V30 3398 H 309.929 2.26975 3.58132 0
M  V30 3399 C 308.388 0.816794 3.26849 0
M  V30 3400 O 308.918 0.0115856 4.01698 0
M  V30 3401 N 307.124 0.636682 2.8354 0
M  V30 3402 H 306.671 1.2931 2.22793 0
M  V30 3403 H 306.629 -0.176336 3.13905 0
M  V30 3404 N 310.401 -0.613514 1.45168 0
M  V30 3405 C 311.311 -1.75296 1.55912 0
M  V30 3406 C 312.327 -1.68244 0.443856 0
M  V30 3407 O 313.503 -1.88706 0.70371 0
M  V30 3408 C 310.568 -3.1174 1.5172 0
M  V30 3409 C 309.629 -3.30291 2.74238 0
M  V30 3410 C 308.862 -4.60226 2.70236 0
M  V30 3411 O 309.085 -5.42168 1.77229 0
M  V30 3412 O 308.019 -4.81361 3.61352 0
M  V30 3413 H 311.845 -1.69183 2.52212 0
M  V30 3414 H 309.43 -0.776886 1.27612 0
M  V30 3415 H 311.312 -3.93044 1.51968 0
M  V30 3416 H 309.987 -3.18357 0.585697 0
M  V30 3417 H 308.894 -2.48598 2.79553 0
M  V30 3418 H 310.227 -3.28547 3.66494 0
M  V30 3419 N 311.879 -1.3236 -0.855495 0
M  V30 3420 C 313.107 -1.2587 -1.64208 0
M  V30 3421 C 313.522 0.173457 -1.88002 0
M  V30 3422 O 312.879 1.11027 -1.44842 0
M  V30 3423 C 312.93 -2.01424 -3.00184 0
M  V30 3424 O 312.651 -3.39051 -2.77445 0
M  V30 3425 C 314.152 -2.01948 -3.94629 0
M  V30 3426 H 311.372 -0.434318 -0.511477 0
M  V30 3427 H 313.916 -1.74469 -1.0668 0
M  V30 3428 H 312.071 -1.56549 -3.5436 0
M  V30 3429 H 312.485 -3.77711 -3.63916 0
M  V30 3430 H 313.959 -2.59297 -4.87308 0
M  V30 3431 H 314.436 -1.00554 -4.27534 0
M  V30 3432 H 315.042 -2.46767 -3.4639 0
M  V30 3433 N 313.357 1.07166 -1.15556 0
M  V30 3434 C 314.605 1.79443 -0.929764 0
M  V30 3435 C 314.926 1.87246 0.544414 0
M  V30 3436 O 314.196 1.37473 1.39564 0
M  V30 3437 H 312.776 0.664625 -0.341003 0
M  V30 3438 H 315.438 1.29499 -1.45657 0
M  V30 3439 H 314.534 2.81832 -1.34079 0
M  V30 3440 N 314.835 0.952656 1.25548 0
M  V30 3441 C 316.246 0.647392 1.75116 0
M  V30 3442 C 316.597 -0.837274 1.77438 0
M  V30 3443 O 315.722 -1.65525 1.39393 0
M  V30 3444 C 316.317 1.16845 3.18014 0
M  V30 3445 C 314.876 0.913382 3.6515 0
M  V30 3446 C 314.023 1.31265 2.44264 0
M  V30 3447 H 316.974 1.12968 1.11462 0
M  V30 3448 H 316.995 0.527606 3.76824 0
M  V30 3449 H 316.507 2.24902 3.16292 0
M  V30 3450 H 314.608 -0.152316 3.72289 0
M  V30 3451 H 314.721 1.54845 4.53387 0
M  V30 3452 H 313.085 0.731028 2.43984 0
M  V30 3453 H 313.868 2.40239 2.45234 0
M  V30 3454 N 316.313 -1.40141 0.720998 0
M  V30 3455 C 317.543 -2.04798 0.27226 0
M  V30 3456 C 317.951 -1.54442 -1.09289 0
M  V30 3457 O 317.294 -0.698342 -1.69908 0
M  V30 3458 C 317.356 -3.59048 0.18027 0
M  V30 3459 C 317.02 -4.32317 1.48159 0
M  V30 3460 C 318.017 -4.59902 2.42458 0
M  V30 3461 C 315.702 -4.71125 1.74202 0
M  V30 3462 C 317.696 -5.25288 3.61042 0
M  V30 3463 C 315.383 -5.36242 2.93066 0
M  V30 3464 C 316.381 -5.63254 3.86308 0
M  V30 3465 O 316.069 -6.27024 5.03086 0
M  V30 3466 H 315.801 -0.665419 0.119139 0
M  V30 3467 H 318.355 -1.80436 0.981432 0
M  V30 3468 H 316.585 -3.82251 -0.58489 0
M  V30 3469 H 318.274 -4.05221 -0.234618 0
M  V30 3470 H 319.04 -4.30379 2.23604 0
M  V30 3471 H 314.919 -4.49466 1.02477 0
M  V30 3472 H 318.463 -5.46289 4.33837 0
M  V30 3473 H 314.36 -5.65185 3.11826 0
M  V30 3474 H 315.128 -6.4552 5.03235 0
M  V30 3475 N 317.792 -0.46758 -1.50504 0
M  V30 3476 C 318.702 0.33382 -2.32213 0
M  V30 3477 C 319.718 0.999323 -1.42441 0
M  V30 3478 O 320.894 0.988068 -1.75497 0
M  V30 3479 C 317.959 1.4035 -3.17022 0
M  V30 3480 C 317.02 0.754961 -4.2261 0
M  V30 3481 C 316.253 1.77367 -5.03365 0
M  V30 3482 O 316.476 2.99976 -4.8515 0
M  V30 3483 O 315.41 1.34744 -5.86624 0
M  V30 3484 H 319.236 -0.334067 -3.01857 0
M  V30 3485 H 316.821 -0.229496 -1.47627 0
M  V30 3486 H 318.703 2.02318 -3.69656 0
M  V30 3487 H 317.378 2.05492 -2.5011 0
M  V30 3488 H 316.285 0.0964244 -3.73976 0
M  V30 3489 H 317.618 0.146545 -4.91982 0
M  V30 3490 N 319.27 1.56325 -0.20005 0
M  V30 3491 C 320.51 1.99619 0.439519 0
M  V30 3492 C 320.874 1.08423 1.58456 0
M  V30 3493 O 322.075 1.40973 2.28867 0
M  V30 3494 C 320.346 3.46314 0.883258 0
M  V30 3495 S 321.905 4.11634 1.51997 0
M  V30 3496 H 318.723 0.697007 0.140363 0
M  V30 3497 H 321.325 1.93118 -0.304282 0
M  V30 3498 H 320.029 4.10381 0.0398967 0
M  V30 3499 H 319.56 3.56643 1.6604 0
M  V30 3500 H 321.575 4.09049 2.8088 0
M  V30 3501 N 320.748 -0.0735177 1.57428 0
M  V30 3502 C 321.658 -1.10547 2.06922 0
M  V30 3503 C 322.674 -1.42506 0.998402 0
M  V30 3504 O 323.85 -1.52717 1.31299 0
M  V30 3505 C 320.915 -2.40019 2.50184 0
M  V30 3506 C 319.976 -2.15046 3.71556 0
M  V30 3507 C 319.209 -3.38345 4.12745 0
M  V30 3508 O 319.432 -4.47399 3.53822 0
M  V30 3509 O 318.366 -3.2666 5.05546 0
M  V30 3510 H 322.192 -0.715013 2.95163 0
M  V30 3511 H 319.777 -0.287531 1.46607 0
M  V30 3512 H 321.659 -3.16218 2.78539 0
M  V30 3513 H 320.334 -2.78447 1.65072 0
M  V30 3514 H 319.241 -1.36558 3.48285 0
M  V30 3515 H 320.574 -1.81499 4.57514 0
M  V30 3516 N 322.226 -1.5378 -0.344866 0
M  V30 3517 C 323.475 -1.7018 -1.08267 0
M  V30 3518 C 323.788 -0.471 -1.89845 0
M  V30 3519 O 324.994 -0.515917 -2.66553 0
M  V30 3520 C 323.45 -3.00923 -1.97417 0
M  V30 3521 C 323.058 -4.31335 -1.21053 0
M  V30 3522 C 324.802 -3.26688 -2.71063 0
M  V30 3523 C 322.709 -5.53153 -2.09225 0
M  V30 3524 H 321.639 -0.634138 -0.407903 0
M  V30 3525 H 324.29 -1.8028 -0.342246 0
M  V30 3526 H 322.672 -2.84676 -2.75274 0
M  V30 3527 H 323.846 -4.58281 -0.481159 0
M  V30 3528 H 322.161 -4.12173 -0.591813 0
M  V30 3529 H 324.758 -4.1489 -3.37299 0
M  V30 3530 H 325.101 -2.43639 -3.37558 0
M  V30 3531 H 325.634 -3.43705 -2.0028 0
M  V30 3532 H 322.373 -6.38741 -1.47274 0
M  V30 3533 H 321.893 -5.30458 -2.79955 0
M  V30 3534 H 323.572 -5.88744 -2.68308 0
M  V30 3535 N 323.704 0.605807 -1.45491 0
M  V30 3536 C 325.12 0.926751 -1.29936 0
M  V30 3537 C 325.32 1.99896 -0.253706 0
M  V30 3538 O 324.376 2.50038 0.351737 0
M  V30 3539 C 325.689 1.36599 -2.67883 0
M  V30 3540 C 327.237 1.4801 -2.75793 0
M  V30 3541 C 327.712 1.95309 -4.14268 0
M  V30 3542 N 329.203 2.0254 -4.16571 0
M  V30 3543 C 329.938 2.40363 -5.20589 0
M  V30 3544 N 329.434 2.77143 -6.34952 0
M  V30 3545 N 331.227 2.40718 -5.07948 0
M  V30 3546 H 323.378 -0.102862 -2.12151 0
M  V30 3547 H 325.641 0.016639 -0.947854 0
M  V30 3548 H 325.347 0.652306 -3.45598 0
M  V30 3549 H 325.221 2.33215 -2.96463 0
M  V30 3550 H 327.608 2.1847 -1.98381 0
M  V30 3551 H 327.689 0.497041 -2.50925 0
M  V30 3552 H 327.333 1.25436 -4.92167 0
M  V30 3553 H 327.263 2.94532 -4.3653 0
M  V30 3554 H 329.754 1.76699 -3.34045 0
M  V30 3555 H 330.067 3.0489 -7.10114 0
M  V30 3556 H 328.412 2.74834 -6.3835 0
M  V30 3557 H 331.603 2.11392 -4.1765 0
M  V30 3558 H 331.776 2.69869 -5.89131 0
M  V30 3559 N 325.182 1.32811 0.848464 0
M  V30 3560 C 326.459 1.14334 1.58704 0
M  V30 3561 C 326.839 -0.293948 2.09043 0
M  V30 3562 O 326.187 -1.29153 1.88499 0
M  V30 3563 C 326.397 2.17626 2.72837 0
M  V30 3564 C 327.745 2.51282 3.42261 0
M  V30 3565 O 328.769 2.16219 2.83068 0
M  V30 3566 O 327.628 3.11413 4.49093 0
M  V30 3567 H 324.722 0.441601 0.699226 0
M  V30 3568 H 327.268 1.44362 0.892053 0
M  V30 3569 H 326.04 3.14211 2.3321 0
M  V30 3570 H 325.663 1.88628 3.50008 0
M  V30 3571 N 326.66 -1.06551 1.16123 0
M  V30 3572 C 328.076 -1.3142 0.905585 0
M  V30 3573 C 328.276 -1.96571 -0.442964 0
M  V30 3574 O 327.332 -2.23068 -1.18308 0
M  V30 3575 C 328.645 -2.19741 2.05267 0
M  V30 3576 C 330.193 -2.33165 2.08813 0
M  V30 3577 C 330.668 -3.24838 3.22868 0
M  V30 3578 N 332.159 -3.32421 3.22568 0
M  V30 3579 C 332.894 -4.0344 4.0746 0
M  V30 3580 N 332.39 -4.77003 5.02434 0
M  V30 3581 N 334.183 -3.99464 3.95456 0
M  V30 3582 H 326.334 -0.626548 2.02949 0
M  V30 3583 H 328.597 -0.338777 0.8854 0
M  V30 3584 H 328.303 -1.79142 3.02657 0
M  V30 3585 H 328.177 -3.20313 1.99198 0
M  V30 3586 H 330.564 -2.73013 1.12018 0
M  V30 3587 H 330.645 -1.3227 2.18948 0
M  V30 3588 H 330.289 -2.85708 4.19921 0
M  V30 3589 H 330.219 -4.25707 3.0997 0
M  V30 3590 H 332.71 -2.79994 2.53795 0
M  V30 3591 H 333.023 -5.28712 5.63634 0
M  V30 3592 H 331.368 -4.75992 5.06415 0
M  V30 3593 H 334.559 -3.4111 3.20564 0
M  V30 3594 H 334.732 -4.54544 4.61837 0
M  V30 3595 N 328.138 -0.959301 -1.25041 0
M  V30 3596 C 329.415 -0.533805 -1.88175 0
M  V30 3597 C 329.795 0.988994 -1.865 0
M  V30 3598 O 329.143 1.85677 -1.33177 0
M  V30 3599 C 329.353 -1.11575 -3.30684 0
M  V30 3600 C 330.701 -1.19548 -4.07423 0
M  V30 3601 O 331.725 -1.06765 -3.39823 0
M  V30 3602 O 330.584 -1.39656 -5.28354 0
M  V30 3603 H 327.678 -0.176772 -0.807887 0
M  V30 3604 H 330.224 -1.05303 -1.33076 0
M  V30 3605 H 328.996 -2.15884 -3.26358 0
M  V30 3606 H 328.619 -0.580059 -3.93346 0
M  V30 3607 N 329.616 1.39756 -0.72842 0
M  V30 3608 C 330.864 2.00248 -0.272946 0
M  V30 3609 C 331.185 1.58077 1.14178 0
M  V30 3610 O 330.455 0.826014 1.77634 0
M  V30 3611 H 329.035 0.740554 -0.0979247 0
M  V30 3612 H 331.697 1.70903 -0.936912 0
M  V30 3613 H 330.793 3.10495 -0.316142 0
M  V30 3614 N 331.094 0.475555 1.50254 0
M  V30 3615 C 332.342 -0.077738 2.0195 0
M  V30 3616 C 332.663 -1.39813 1.35931 0
M  V30 3617 O 331.933 -1.89249 0.506123 0
M  V30 3618 H 330.513 -0.031719 0.746326 0
M  V30 3619 H 333.175 0.626995 1.84539 0
M  V30 3620 H 332.271 -0.225995 3.11281 0
M  V30 3621 N 332.573 -1.56217 0.208337 0
M  V30 3622 C 333.506 -2.15633 -0.746842 0
M  V30 3623 C 334.484 -1.09685 -1.20034 0
M  V30 3624 O 335.668 -1.3787 -1.28547 0
M  V30 3625 C 332.795 -2.72594 -2.01023 0
M  V30 3626 C 331.841 -3.91251 -1.69779 0
M  V30 3627 S 332.674 -5.28962 -0.834209 0
M  V30 3628 C 333.83 -5.89353 -2.10745 0
M  V30 3629 H 334.063 -2.96315 -0.241789 0
M  V30 3630 H 331.596 -1.54398 -0.00682183 0
M  V30 3631 H 333.554 -3.06053 -2.73572 0
M  V30 3632 H 332.215 -1.91929 -2.48641 0
M  V30 3633 H 331.408 -4.29562 -2.63614 0
M  V30 3634 H 331.01 -3.58869 -1.05303 0
M  V30 3635 H 333.302 -6.04522 -3.05875 0
M  V30 3636 H 334.245 -6.85661 -1.76845 0
M  V30 3637 H 334.653 -5.1807 -2.24196 0
M  V30 3638 N 334.051 0.0651679 -1.57465 0
M  V30 3639 C 335.467 0.420105 -1.53972 0
M  V30 3640 C 335.667 1.78782 -0.929474 0
M  V30 3641 O 334.723 2.46771 -0.534839 0
M  V30 3642 C 336.036 0.355084 -2.98596 0
M  V30 3643 C 337.584 0.434792 -3.09965 0
M  V30 3644 C 338.059 0.399609 -4.56253 0
M  V30 3645 N 339.55 0.459488 -4.60915 0
M  V30 3646 C 340.285 0.454584 -5.71595 0
M  V30 3647 N 339.781 0.404102 -6.9162 0
M  V30 3648 N 341.574 0.501635 -5.59857 0
M  V30 3649 H 333.725 -0.830328 -1.95498 0
M  V30 3650 H 335.988 -0.312244 -0.895102 0
M  V30 3651 H 335.694 -0.583357 -3.46828 0
M  V30 3652 H 335.568 1.16275 -3.58831 0
M  V30 3653 H 337.955 1.36366 -2.61703 0
M  V30 3654 H 338.036 -0.40157 -2.52628 0
M  V30 3655 H 337.68 -0.525436 -5.05175 0
M  V30 3656 H 337.61 1.25359 -5.11461 0
M  V30 3657 H 340.101 0.502482 -3.74544 0
M  V30 3658 H 340.414 0.404468 -7.71741 0
M  V30 3659 H 338.759 0.37069 -6.94011 0
M  V30 3660 H 341.95 0.538812 -4.64989 0
M  V30 3661 H 342.123 0.494345 -6.46112 0
M  V30 3662 N 335.529 1.53961 0.336706 0
M  V30 3663 C 336.754 1.75797 1.10046 0
M  V30 3664 C 337.179 0.498985 1.81361 0
M  V30 3665 O 336.537 -0.548769 1.72795 0
M  V30 3666 C 336.585 2.94257 2.08436 0
M  V30 3667 O 335.689 2.64883 3.16087 0
M  V30 3668 H 335.03 0.582936 0.317934 0
M  V30 3669 H 337.56 2.00945 0.38501 0
M  V30 3670 H 337.57 3.21237 2.51537 0
M  V30 3671 H 336.245 3.85564 1.55927 0
M  V30 3672 H 334.822 2.48812 2.77753 0
M  V30 3673 N 337.007 -0.598083 1.45811 0
M  V30 3674 C 338.284 -1.35777 1.40797 0
M  V30 3675 C 338.664 -2.10935 0.083462 0
M  V30 3676 O 338.012 -2.08505 -0.934763 0
M  V30 3677 C 338.222 -2.29666 2.62783 0
M  V30 3678 C 339.57 -2.91977 3.08277 0
M  V30 3679 O 340.594 -2.39984 2.63223 0
M  V30 3680 O 339.453 -3.86376 3.86491 0
M  V30 3681 H 336.547 -0.609291 0.55919 0
M  V30 3682 H 339.093 -0.620379 1.57954 0
M  V30 3683 H 337.865 -1.73454 3.50756 0
M  V30 3684 H 337.488 -3.1077 2.48008 0
M  V30 3685 N 338.485 -1.33259 -0.841409 0
M  V30 3686 C 339.896 -1.22066 -1.41269 0
M  V30 3687 C 340.247 0.161479 -1.95534 0
M  V30 3688 O 339.372 1.06094 -1.88608 0
M  V30 3689 C 339.967 -2.20996 -2.568 0
M  V30 3690 C 338.526 -2.13649 -3.09888 0
M  V30 3691 C 337.673 -2.08623 -1.82679 0
M  V30 3692 H 340.624 -1.44895 -0.647395 0
M  V30 3693 H 340.645 -1.81621 -3.34356 0
M  V30 3694 H 340.157 -3.2158 -2.17274 0
M  V30 3695 H 338.258 -1.16359 -3.53965 0
M  V30 3696 H 338.371 -3.04079 -3.70234 0
M  V30 3697 H 336.735 -1.54061 -2.02824 0
M  V30 3698 H 337.518 -3.1101 -1.45353 0
M  V30 3699 N 339.963 1.05934 -1.16686 0
M  V30 3700 C 341.209 1.79065 -0.95203 0
M  V30 3701 C 341.542 1.87147 0.518629 0
M  V30 3702 O 340.817 1.36574 1.38484 0
M  V30 3703 C 341.1 3.23359 -1.58464 0
M  V30 3704 C 340.953 3.23336 -3.12689 0
M  V30 3705 C 342.272 4.21004 -1.28232 0
M  V30 3706 H 339.391 0.65005 -0.34728 0
M  V30 3707 H 342.033 1.23868 -1.44072 0
M  V30 3708 H 340.183 3.70493 -1.16908 0
M  V30 3709 H 341.855 2.84336 -3.6325 0
M  V30 3710 H 340.098 2.61886 -3.4583 0
M  V30 3711 H 340.769 4.25144 -3.52075 0
M  V30 3712 H 343.245 3.8233 -1.64203 0
M  V30 3713 H 342.121 5.20225 -1.75092 0
M  V30 3714 H 342.382 4.41639 -0.201791 0
M  V30 3715 N 341.441 0.965919 1.2453 0
M  V30 3716 C 342.669 0.644385 1.96609 0
M  V30 3717 C 343.084 -0.785823 1.71669 0
M  V30 3718 O 342.441 -1.52703 0.999399 0
M  V30 3719 C 342.492 0.907375 3.49927 0
M  V30 3720 O 342.213 2.28136 3.74013 0
M  V30 3721 C 343.714 0.599784 4.39224 0
M  V30 3722 H 340.934 0.240588 0.626385 0
M  V30 3723 H 343.478 1.29337 1.58405 0
M  V30 3724 H 341.633 0.304631 3.862 0
M  V30 3725 H 342.047 2.36002 4.68405 0
M  V30 3726 H 343.521 0.834263 5.45659 0
M  V30 3727 H 343.998 -0.465921 4.36722 0
M  V30 3728 H 344.604 1.18235 4.08535 0
M  V30 3729 N 342.919 -1.39368 0.735821 0
M  V30 3730 C 343.849 -2.33234 0.111506 0
M  V30 3731 C 344.83 -1.53954 -0.723334 0
M  V30 3732 O 346.015 -1.82344 -0.668147 0
M  V30 3733 C 343.145 -3.38057 -0.795917 0
M  V30 3734 C 342.099 -4.2795 -0.065172 0
M  V30 3735 C 341.425 -5.23479 -1.08967 0
M  V30 3736 C 342.725 -5.10741 1.09273 0
M  V30 3737 H 344.419 -2.85692 0.895571 0
M  V30 3738 H 341.965 -1.37364 0.432109 0
M  V30 3739 H 343.918 -4.02675 -1.24221 0
M  V30 3740 H 342.642 -2.8404 -1.61211 0
M  V30 3741 H 341.301 -3.64813 0.361511 0
M  V30 3742 H 340.949 -4.65758 -1.89944 0
M  V30 3743 H 340.649 -5.84472 -0.605489 0
M  V30 3744 H 342.173 -5.90974 -1.53565 0
M  V30 3745 H 343.587 -5.68699 0.724841 0
M  V30 3746 H 341.984 -5.8088 1.50659 0
M  V30 3747 H 343.054 -4.45525 1.91404 0
M  V30 3748 N 344.397 -0.483516 -1.5 0
M  V30 3749 C 345.345 0.318061 -2.30415 0
M  V30 3750 C 346.339 0.978988 -1.38247 0
M  V30 3751 O 347.545 0.908673 -1.55381 0
M  V30 3752 H 343.92 0.121419 -0.742133 0
M  V30 3753 H 345.891 -0.380403 -2.95965 0
M  V30 3754 C 344.64 1.38013 -3.19136 0
M  V30 3755 H 343.963 0.880952 -3.89973 0
M  V30 3756 H 345.403 1.91332 -3.78375 0
M  V30 3757 C 343.862 2.38884 -2.37563 0
M  V30 3758 O 344.392 3.44412 -2.06744 0
M  V30 3759 N 342.598 2.10912 -1.99911 0
M  V30 3760 H 342.145 1.25118 -2.25174 0
M  V30 3761 H 342.103 2.78635 -1.45636 0
M  V30 3762 N 345.875 1.56104 -0.216619 0
M  V30 3763 C 347.121 1.98466 0.417033 0
M  V30 3764 C 347.454 1.10403 1.59765 0
M  V30 3765 O 346.729 0.160632 1.93836 0
M  V30 3766 C 347.012 3.49769 0.85637 0
M  V30 3767 C 346.865 4.48606 -0.327546 0
M  V30 3768 C 348.184 4.05339 1.7143 0
M  V30 3769 H 345.303 0.721551 0.150112 0
M  V30 3770 H 347.945 1.87423 -0.311864 0
M  V30 3771 H 346.095 3.5931 1.47745 0
M  V30 3772 H 347.767 4.5108 -0.965618 0
M  V30 3773 H 346.01 4.22682 -0.975805 0
M  V30 3774 H 346.681 5.51995 0.0227149 0
M  V30 3775 H 349.157 3.98712 1.19031 0
M  V30 3776 H 348.033 5.11533 1.99061 0
M  V30 3777 H 348.294 3.51918 2.67593 0
M  V30 3778 N 347.353 -0.0568162 1.57498 0
M  V30 3779 C 348.283 -1.06593 2.0775 0
M  V30 3780 C 349.264 -1.39448 0.974082 0
M  V30 3781 O 350.449 -1.48815 1.24771 0
M  V30 3782 C 347.579 -2.37509 2.5339 0
M  V30 3783 C 346.533 -2.1897 3.67745 0
M  V30 3784 C 345.859 -3.55402 3.99492 0
M  V30 3785 C 347.159 -1.59859 4.97235 0
M  V30 3786 H 348.853 -0.647706 2.9231 0
M  V30 3787 H 346.399 -0.310116 1.40621 0
M  V30 3788 H 348.352 -3.08409 2.87162 0
M  V30 3789 H 347.076 -2.8134 1.65878 0
M  V30 3790 H 345.735 -1.50508 3.3428 0
M  V30 3791 H 345.383 -3.9683 3.09088 0
M  V30 3792 H 345.083 -3.43831 4.76502 0
M  V30 3793 H 346.607 -4.27708 4.35773 0
M  V30 3794 H 348.021 -2.20642 5.29141 0
M  V30 3795 H 346.418 -1.58942 5.78669 0
M  V30 3796 H 347.488 -0.561506 4.81638 0
M  V30 3797 N 348.832 -1.54138 -0.328536 0
M  V30 3798 C 350.062 -1.75807 -1.08516 0
M  V30 3799 C 350.47 -0.50428 -1.82356 0
M  V30 3800 O 349.813 0.534451 -1.75754 0
M  V30 3801 C 349.875 -2.89423 -2.13248 0
M  V30 3802 C 349.539 -4.28504 -1.5885 0
M  V30 3803 C 350.536 -5.09536 -1.03289 0
M  V30 3804 C 348.221 -4.75034 -1.63243 0
M  V30 3805 C 350.215 -6.35206 -0.52845 0
M  V30 3806 C 347.902 -6.00672 -1.12411 0
M  V30 3807 C 348.9 -6.80592 -0.573062 0
M  V30 3808 O 348.588 -8.03867 -0.0723692 0
M  V30 3809 H 348.32 -0.590633 -0.328829 0
M  V30 3810 H 350.874 -2.01819 -0.381868 0
M  V30 3811 H 349.104 -2.5897 -2.87178 0
M  V30 3812 H 350.793 -2.98921 -2.74592 0
M  V30 3813 H 351.559 -4.74745 -0.99206 0
M  V30 3814 H 347.438 -4.12875 -2.05074 0
M  V30 3815 H 350.982 -6.97532 -0.0976774 0
M  V30 3816 H 346.879 -6.34955 -1.162 0
M  V30 3817 H 347.647 -8.18283 -0.188258 0
M  V30 3818 N 350.31 0.590341 -1.46126 0
M  V30 3819 C 351.558 1.34616 -1.50742 0
M  V30 3820 C 351.879 1.94363 -0.157486 0
M  V30 3821 O 351.149 1.78136 0.815136 0
M  V30 3822 H 349.729 0.499789 -0.555175 0
M  V30 3823 H 352.391 0.691953 -1.82203 0
M  V30 3824 H 351.487 2.15678 -2.25587 0
M  V30 3825 N 351.788 1.33704 0.83433 0
M  V30 3826 C 353.199 1.22813 1.4062 0
M  V30 3827 C 353.55 -0.151107 1.95617 0
M  V30 3828 O 352.675 -1.05092 1.89168 0
M  V30 3829 C 353.27 2.22355 2.55624 0
M  V30 3830 C 351.829 2.1529 3.08751 0
M  V30 3831 C 350.976 2.09589 1.8157 0
M  V30 3832 H 353.927 1.45236 0.639702 0
M  V30 3833 H 353.948 1.83391 3.33389 0
M  V30 3834 H 353.46 3.22728 2.15566 0
M  V30 3835 H 351.561 1.18235 3.53343 0
M  V30 3836 H 351.674 3.06038 3.68616 0
M  V30 3837 H 350.038 1.55134 2.02004 0
M  V30 3838 H 350.821 3.11777 1.43701 0
M  V30 3839 N 353.266 -1.05314 1.17247 0
M  V30 3840 C 354.543 -1.75184 0.87005 0
M  V30 3841 C 354.923 -2.01481 -0.629965 0
M  V30 3842 O 354.271 -1.64988 -1.58086 0
M  V30 3843 C 354.481 -3.04594 1.70363 0
M  V30 3844 C 355.829 -3.78567 1.92281 0
M  V30 3845 O 356.853 -3.14461 1.67311 0
M  V30 3846 O 355.712 -4.93755 2.3424 0
M  V30 3847 H 352.806 -0.761729 0.322021 0
M  V30 3848 H 355.352 -1.11493 1.27935 0
M  V30 3849 H 354.124 -2.81201 2.72106 0
M  V30 3850 H 353.747 -3.76022 1.29202 0
M  V30 3851 N 354.744 -0.972509 -1.24016 0
M  V30 3852 C 355.674 -0.525548 -2.27509 0
M  V30 3853 C 356.655 0.437262 -1.64384 0
M  V30 3854 O 357.84 0.332343 -1.91335 0
M  V30 3855 C 354.97 0.180448 -3.46831 0
M  V30 3856 C 353.924 -0.698859 -4.22256 0
M  V30 3857 C 353.25 0.138903 -5.3452 0
M  V30 3858 C 354.55 -1.98582 -4.83076 0
M  V30 3859 H 356.244 -1.39058 -2.65148 0
M  V30 3860 H 353.79 -0.67009 -1.27459 0
M  V30 3861 H 355.743 0.504387 -4.18371 0
M  V30 3862 H 354.467 1.07987 -3.08231 0
M  V30 3863 H 353.126 -1.00614 -3.52523 0
M  V30 3864 H 352.774 1.03862 -4.9216 0
M  V30 3865 H 352.474 -0.446259 -5.85903 0
M  V30 3866 H 353.998 0.457404 -6.08884 0
M  V30 3867 H 355.412 -1.72715 -5.46665 0
M  V30 3868 H 353.809 -2.5181 -5.44713 0
M  V30 3869 H 354.879 -2.67769 -4.04262 0
M  V30 3870 N 356.222 1.38976 -0.743202 0
M  V30 3871 C 357.633 1.83123 -0.363732 0
M  V30 3872 C 357.984 1.6205 1.10609 0
M  V30 3873 O 357.109 1.11606 1.854 0
M  V30 3874 C 357.704 3.32439 -0.653408 0
M  V30 3875 C 356.263 3.74974 -0.327338 0
M  V30 3876 C 355.41 2.61878 -0.911875 0
M  V30 3877 H 358.361 1.27852 -0.940191 0
M  V30 3878 H 358.382 3.80432 0.0720031 0
M  V30 3879 H 357.894 3.47745 -1.72323 0
M  V30 3880 H 355.995 3.65252 0.736314 0
M  V30 3881 H 356.108 4.72106 -0.815631 0
M  V30 3882 H 354.472 2.52448 -0.337944 0
M  V30 3883 H 355.255 2.79987 -1.98651 0
M  V30 3884 N 357.7 0.491464 1.49741 0
M  V30 3885 C 358.925 -0.0557177 2.07325 0
M  V30 3886 C 359.35 -1.30925 1.35056 0
M  V30 3887 O 358.708 -1.76733 0.404365 0
M  V30 3888 C 358.756 -0.302074 3.59333 0
M  V30 3889 O 357.86 -1.37868 3.88672 0
M  V30 3890 H 357.201 0.0219956 0.663636 0
M  V30 3891 H 359.731 0.688352 1.92673 0
M  V30 3892 H 359.741 -0.536464 4.04458 0
M  V30 3893 H 358.416 0.61383 4.11345 0
M  V30 3894 H 356.993 -1.12999 3.55367 0
M  V30 3895 N 359.178 -1.55987 0.224894 0
M  V30 3896 C 360.427 -1.97566 -0.406273 0
M  V30 3897 C 360.74 -1.11569 -1.6066 0
M  V30 3898 O 361.946 -1.43062 -2.3075 0
M  V30 3899 C 360.402 -3.51474 -0.774207 0
M  V30 3900 C 360.01 -4.46179 0.403496 0
M  V30 3901 C 361.754 -4.01758 -1.37079 0
M  V30 3902 C 359.661 -5.91399 0.0129412 0
M  V30 3903 H 358.591 -0.737777 -0.155565 0
M  V30 3904 H 361.242 -1.80659 0.321635 0
M  V30 3905 H 359.624 -3.63994 -1.55963 0
M  V30 3906 H 360.798 -4.45409 1.18101 0
M  V30 3907 H 359.113 -4.06255 0.913536 0
M  V30 3908 H 361.71 -5.07756 -1.67596 0
M  V30 3909 H 362.053 -3.47805 -2.28773 0
M  V30 3910 H 362.586 -3.92475 -0.648733 0
M  V30 3911 H 359.325 -6.49341 0.896451 0
M  V30 3912 H 358.845 -5.95356 -0.728821 0
M  V30 3913 H 360.524 -6.45683 -0.412582 0
M  V30 3914 N 360.656 0.0484629 -1.57525 0
M  V30 3915 C 361.886 0.754326 -1.92337 0
M  V30 3916 C 362.294 1.70443 -0.82132 0
M  V30 3917 O 361.637 1.82466 0.21254 0
M  V30 3918 C 361.699 1.58231 -3.22805 0
M  V30 3919 C 361.363 0.799074 -4.4996 0
M  V30 3920 C 362.36 0.1079 -5.19788 0
M  V30 3921 C 360.045 0.759345 -4.96527 0
M  V30 3922 C 362.039 -0.612516 -6.3445 0
M  V30 3923 C 359.726 0.0351713 -6.1109 0
M  V30 3924 C 360.724 -0.649537 -6.79904 0
M  V30 3925 O 360.412 -1.36199 -7.92278 0
M  V30 3926 H 360.144 0.218257 -0.639797 0
M  V30 3927 H 362.698 0.0159295 -2.05394 0
M  V30 3928 H 360.928 2.36406 -3.06021 0
M  V30 3929 H 362.617 2.16898 -3.43089 0
M  V30 3930 H 363.383 0.129748 -4.84826 0
M  V30 3931 H 359.262 1.28177 -4.42822 0
M  V30 3932 H 362.806 -1.14751 -6.88097 0
M  V30 3933 H 358.703 0.0113314 -6.45499 0
M  V30 3934 H 359.471 -1.27366 -8.0853 0
M  V30 3935 N 362.134 1.5431 0.320358 0
M  V30 3936 C 363.545 1.63872 0.894594 0
M  V30 3937 C 363.896 0.534847 1.88769 0
M  V30 3938 O 363.021 -0.331732 2.13842 0
M  V30 3939 C 363.616 2.97049 1.62934 0
M  V30 3940 C 362.175 3.08796 2.15226 0
M  V30 3941 C 361.322 2.59456 0.978671 0
M  V30 3942 H 364.273 1.58398 0.0978544 0
M  V30 3943 H 364.294 2.87388 2.49376 0
M  V30 3944 H 363.806 3.7737 0.906302 0
M  V30 3945 H 361.907 2.33156 2.90636 0
M  V30 3946 H 362.02 4.14649 2.40006 0
M  V30 3947 H 360.384 2.1543 1.35875 0
M  V30 3948 H 361.167 3.42237 0.269895 0
M  V30 3949 N 363.613 -0.582584 1.46437 0
M  V30 3950 C 364.838 -1.37168 1.55563 0
M  V30 3951 C 365.263 -1.87061 0.19743 0
M  V30 3952 O 364.621 -1.61572 -0.822451 0
M  V30 3953 C 364.669 -2.53511 2.56446 0
M  V30 3954 O 363.773 -3.54953 2.09958 0
M  V30 3955 H 363.114 -0.408494 0.523477 0
M  V30 3956 H 365.644 -0.706646 1.9201 0
M  V30 3957 H 365.654 -3.00426 2.76058 0
M  V30 3958 H 364.329 -2.16549 3.55076 0
M  V30 3959 H 362.906 -3.14516 2.00334 0
M  V30 3960 N 365.091 -1.34144 -0.827227 0
M  V30 3961 C 366.338 -1.26258 -1.58319 0
M  V30 3962 C 366.666 0.168595 -1.93768 0
M  V30 3963 O 365.921 1.12877 -1.59866 0
M  V30 3964 C 366.22 -2.09464 -2.89585 0
M  V30 3965 C 365.886 -3.58521 -2.73448 0
M  V30 3966 C 364.548 -3.99155 -2.68754 0
M  V30 3967 C 366.9 -4.53189 -2.57428 0
M  V30 3968 C 364.228 -5.32656 -2.45957 0
M  V30 3969 C 366.58 -5.86864 -2.36163 0
M  V30 3970 C 365.244 -6.26667 -2.29879 0
M  V30 3971 H 364.514 -0.462013 -0.579332 0
M  V30 3972 H 367.161 -1.65845 -0.95748 0
M  V30 3973 H 365.466 -1.62692 -3.56425 0
M  V30 3974 H 367.163 -2.00712 -3.47154 0
M  V30 3975 H 363.753 -3.26264 -2.77939 0
M  V30 3976 H 367.937 -4.22696 -2.60081 0
M  V30 3977 H 363.193 -5.62519 -2.39546 0
M  V30 3978 H 367.367 -6.59813 -2.22754 0
M  V30 3979 H 364.994 -7.30049 -2.11975 0
M  V30 3980 N 366.569 1.04691 -1.17803 0
M  V30 3981 C 367.797 1.81446 -0.99423 0
M  V30 3982 C 368.212 1.83174 0.457459 0
M  V30 3983 O 367.569 1.26265 1.31771 0
M  V30 3984 C 367.62 3.27334 -1.5341 0
M  V30 3985 O 367.341 3.25798 -2.92895 0
M  V30 3986 C 368.842 4.20759 -1.39559 0
M  V30 3987 H 366.062 0.571599 -0.351447 0
M  V30 3988 H 368.606 1.31982 -1.56208 0
M  V30 3989 H 366.761 3.74052 -1.00815 0
M  V30 3990 H 367.175 4.17144 -3.17949 0
M  V30 3991 H 368.649 5.21084 -1.82141 0
M  V30 3992 H 369.126 4.37856 -0.343394 0
M  V30 3993 H 369.732 3.79901 -1.91195 0
M  V30 3994 N 368.047 0.979072 1.23499 0
M  V30 3995 C 369.277 0.664237 1.95631 0
M  V30 3996 C 369.685 -0.772653 1.72704 0
M  V30 3997 O 369.028 -1.53141 1.01457 0
M  V30 3998 C 369.09 0.873115 3.48736 0
M  V30 3999 C 368.754 2.29182 3.95379 0
M  V30 4000 C 369.751 3.2704 4.04155 0
M  V30 4001 C 367.436 2.62256 4.28401 0
M  V30 4002 C 369.43 4.56052 4.45304 0
M  V30 4003 C 367.117 3.91491 4.69231 0
M  V30 4004 C 368.115 4.88201 4.77649 0
M  V30 4005 O 367.803 6.15129 5.17563 0
M  V30 4006 H 367.535 0.245915 0.629684 0
M  V30 4007 H 370.089 1.3127 1.57979 0
M  V30 4008 H 368.319 0.167476 3.86337 0
M  V30 4009 H 370.008 0.555642 4.02079 0
M  V30 4010 H 370.774 3.02819 3.78848 0
M  V30 4011 H 366.653 1.87692 4.21061 0
M  V30 4012 H 370.197 5.31538 4.51789 0
M  V30 4013 H 366.094 4.15508 4.93987 0
M  V30 4014 H 366.862 6.18862 5.35679 0
M  V30 4015 N 369.525 -1.3858 0.750561 0
M  V30 4016 C 370.755 -2.04175 0.31564 0
M  V30 4017 C 371.163 -1.56726 -1.05989 0
M  V30 4018 O 370.506 -0.734225 -1.68389 0
M  V30 4019 C 370.568 -3.58585 0.256389 0
M  V30 4020 C 370.232 -4.29077 1.57296 0
M  V30 4021 C 371.229 -4.54656 2.52159 0
M  V30 4022 C 368.914 -4.67324 1.84156 0
M  V30 4023 C 370.908 -5.17512 3.72103 0
M  V30 4024 C 368.595 -5.29905 3.04374 0
M  V30 4025 C 369.593 -5.54933 3.98168 0
M  V30 4026 O 369.281 -6.16212 5.16273 0
M  V30 4027 H 369.013 -0.662742 0.133226 0
M  V30 4028 H 371.567 -1.78313 1.01948 0
M  V30 4029 H 369.797 -3.83406 -0.503677 0
M  V30 4030 H 371.486 -4.05628 -0.148612 0
M  V30 4031 H 372.252 -4.25539 2.32683 0
M  V30 4032 H 368.131 -4.47191 1.11988 0
M  V30 4033 H 371.675 -5.36963 4.45327 0
M  V30 4034 H 367.572 -5.58444 3.23745 0
M  V30 4035 H 368.34 -6.34701 5.16815 0
M  V30 4036 N 371.003 -0.499398 -1.49478 0
M  V30 4037 C 372.419 -0.155261 -1.58843 0
M  V30 4038 C 372.619 1.34008 -1.50479 0
M  V30 4039 O 371.675 2.11589 -1.37791 0
M  V30 4040 C 372.988 -0.730636 -2.91689 0
M  V30 4041 C 374.536 -0.696599 -3.0515 0
M  V30 4042 C 375.011 -1.25001 -4.40612 0
M  V30 4043 N 376.502 -1.21064 -4.47099 0
M  V30 4044 C 377.237 -1.60905 -5.50361 0
M  V30 4045 N 376.733 -2.08331 -6.60735 0
M  V30 4046 N 378.526 -1.52331 -5.41065 0
M  V30 4047 H 370.677 -1.47162 -1.53158 0
M  V30 4048 H 372.94 -0.610309 -0.725415 0
M  V30 4049 H 372.646 -1.77928 -3.03372 0
M  V30 4050 H 372.52 -0.190161 -3.7672 0
M  V30 4051 H 374.907 0.343204 -2.93097 0
M  V30 4052 H 374.988 -1.2742 -2.21806 0
M  V30 4053 H 374.632 -2.28859 -4.53416 0
M  V30 4054 H 374.562 -0.64836 -5.22593 0
M  V30 4055 H 377.053 -0.863128 -3.67911 0
M  V30 4056 H 377.366 -2.36805 -7.35624 0
M  V30 4057 H 375.711 -2.12304 -6.6178 0
M  V30 4058 H 378.902 -1.151 -4.53729 0
M  V30 4059 H 379.075 -1.83704 -6.21415 0
M  V30 4060 N 372.481 1.55866 -0.233164 0
M  V30 4061 C 373.706 2.03449 0.402906 0
M  V30 4062 C 374.131 1.11166 1.51736 0
M  V30 4063 O 373.489 0.101996 1.81013 0
M  V30 4064 C 373.537 3.49165 0.9009 0
M  V30 4065 O 372.641 3.60019 2.01147 0
M  V30 4066 H 371.982 0.657913 0.0897025 0
M  V30 4067 H 374.512 2.01493 -0.355201 0
M  V30 4068 H 374.522 3.89716 1.2077 0
M  V30 4069 H 373.197 4.15813 0.0852889 0
M  V30 4070 H 371.774 3.3136 1.71042 0
M  V30 4071 N 373.959 -0.0401083 1.57549 0
M  V30 4072 C 375.207 -0.731677 1.8839 0
M  V30 4073 C 375.528 -1.76481 0.829425 0
M  V30 4074 O 374.798 -1.95411 -0.1383 0
M  V30 4075 H 373.378 -0.273225 0.695239 0
M  V30 4076 H 376.04 -0.00867725 1.94898 0
M  V30 4077 H 375.136 -1.22816 2.86919 0
M  V30 4078 N 375.437 -1.54477 -0.31217 0
M  V30 4079 C 376.347 -1.87695 -1.4074 0
M  V30 4080 C 377.363 -0.769975 -1.56036 0
M  V30 4081 O 378.539 -1.06537 -1.70915 0
M  V30 4082 C 375.604 -2.10755 -2.75287 0
M  V30 4083 C 374.665 -3.34514 -2.69071 0
M  V30 4084 C 373.898 -3.56465 -3.97201 0
M  V30 4085 O 374.121 -2.81637 -4.96021 0
M  V30 4086 O 373.055 -4.49964 -3.9977 0
M  V30 4087 H 376.881 -2.80849 -1.15574 0
M  V30 4088 H 374.466 -1.40526 -0.507228 0
M  V30 4089 H 376.348 -2.27188 -3.54913 0
M  V30 4090 H 375.023 -1.20788 -3.0032 0
M  V30 4091 H 373.93 -3.23456 -1.87955 0
M  V30 4092 H 375.263 -4.24575 -2.48992 0
M  V30 4093 N 376.915 0.57481 -1.46744 0
M  V30 4094 C 377.863 1.70435 -1.58286 0
M  V30 4095 C 378.857 1.63287 -0.450956 0
M  V30 4096 O 380.063 1.68685 -0.628121 0
M  V30 4097 H 376.438 0.56364 -0.497809 0
M  V30 4098 H 378.409 1.57833 -2.53242 0
M  V30 4099 C 377.158 3.08815 -1.59776 0
M  V30 4100 H 376.481 3.1499 -2.46214 0
M  V30 4101 H 377.921 3.87588 -1.71905 0
M  V30 4102 C 376.38 3.35301 -0.327812 0
M  V30 4103 O 376.91 3.97511 0.57861 0
M  V30 4104 N 375.116 2.89816 -0.213274 0
M  V30 4105 H 374.663 2.39371 -0.951798 0
M  V30 4106 H 374.621 3.0791 0.63553 0
M  V30 4107 N 378.394 1.34581 0.820102 0
M  V30 4108 C 379.324 1.29038 1.94606 0
M  V30 4109 C 380.305 0.1673 1.69275 0
M  V30 4110 O 381.49 0.360112 1.90832 0
M  V30 4111 C 378.62 1.04793 3.31113 0
M  V30 4112 C 377.574 2.13597 3.70891 0
M  V30 4113 C 376.9 1.74537 5.05412 0
M  V30 4114 C 378.2 3.55451 3.8269 0
M  V30 4115 H 379.894 2.23248 1.99501 0
M  V30 4116 H 377.44 1.0747 0.958449 0
M  V30 4117 H 379.393 0.995592 4.0947 0
M  V30 4118 H 378.117 0.0702565 3.26524 0
M  V30 4119 H 376.776 2.17905 2.9481 0
M  V30 4120 H 376.424 0.754226 4.97313 0
M  V30 4121 H 376.124 2.47361 5.32997 0
M  V30 4122 H 377.648 1.70803 5.86224 0
M  V30 4123 H 379.062 3.5354 4.51312 0
M  V30 4124 H 377.459 4.26922 4.21732 0
M  V30 4125 H 378.529 3.92587 2.84611 0
M  V30 4126 N 379.872 -1.04064 1.18357 0
M  V30 4127 C 381.102 -1.80654 1.00238 0
M  V30 4128 C 381.51 -1.83713 -0.452362 0
M  V30 4129 O 380.853 -1.27135 -1.32599 0
M  V30 4130 C 380.915 -3.27582 1.48088 0
M  V30 4131 C 380.579 -3.48184 2.96002 0
M  V30 4132 C 381.576 -3.39372 3.93856 0
M  V30 4133 C 379.261 -3.7478 3.34433 0
M  V30 4134 C 381.255 -3.5686 5.28138 0
M  V30 4135 C 378.942 -3.91915 4.68877 0
M  V30 4136 C 379.94 -3.82956 5.65539 0
M  V30 4137 O 379.628 -3.996 6.97549 0
M  V30 4138 H 379.36 -0.575751 0.354241 0
M  V30 4139 H 381.914 -1.32044 1.57333 0
M  V30 4140 H 380.144 -3.77161 0.853588 0
M  V30 4141 H 381.833 -3.8573 1.2636 0
M  V30 4142 H 382.599 -3.18789 3.65511 0
M  V30 4143 H 378.478 -3.80852 2.59756 0
M  V30 4144 H 382.022 -3.49783 6.03571 0
M  V30 4145 H 377.919 -4.11992 4.96923 0
M  V30 4146 H 378.687 -4.1676 7.04452 0
M  V30 4147 N 381.35 -0.985608 -1.22978 0
M  V30 4148 C 382.28 -0.549649 -2.26939 0
M  V30 4149 C 383.261 0.419803 -1.64838 0
M  V30 4150 O 384.446 0.31203 -1.91677 0
M  V30 4151 C 381.576 0.143652 -3.47003 0
M  V30 4152 C 380.53 -0.743606 -4.21491 0
M  V30 4153 C 379.856 0.0822027 -5.34637 0
M  V30 4154 C 381.156 -2.03694 -4.80943 0
M  V30 4155 H 382.85 -1.41862 -2.63658 0
M  V30 4156 H 380.396 -0.683571 -1.26741 0
M  V30 4157 H 382.349 0.459985 -4.18882 0
M  V30 4158 H 381.073 1.04711 -3.09359 0
M  V30 4159 H 379.732 -1.04347 -3.51436 0
M  V30 4160 H 379.38 0.986359 -4.93234 0
M  V30 4161 H 379.08 -0.508377 -5.85397 0
M  V30 4162 H 380.604 0.392797 -6.09335 0
M  V30 4163 H 382.018 -1.78504 -5.44802 0
M  V30 4164 H 380.415 -2.57573 -5.42011 0
M  V30 4165 H 381.485 -2.72042 -4.01399 0
M  V30 4166 N 382.828 1.3818 -0.7579 0
M  V30 4167 C 384.053 2.04827 -0.325679 0
M  V30 4168 C 384.478 1.56788 1.03919 0
M  V30 4169 O 383.836 0.721811 1.66312 0
M  V30 4170 C 383.884 3.58774 -0.362447 0
M  V30 4171 O 382.988 4.07372 0.642033 0
M  V30 4172 H 382.329 0.64833 -0.143402 0
M  V30 4173 H 384.859 1.7677 -1.03023 0
M  V30 4174 H 384.869 4.07434 -0.214844 0
M  V30 4175 H 383.544 3.93096 -1.35824 0
M  V30 4176 H 382.121 3.70068 0.458688 0
M  V30 4177 N 384.306 0.507319 1.49211 0
M  V30 4178 C 385.546 -0.0332372 2.04373 0
M  V30 4179 C 385.91 -1.33694 1.37804 0
M  V30 4180 O 387.111 -1.96213 1.83722 0
M  V30 4181 C 385.382 -0.17599 3.56966 0
M  V30 4182 S 386.941 -0.669882 4.33657 0
M  V30 4183 H 383.759 0.00123603 0.710999 0
M  V30 4184 H 386.361 0.682725 1.83191 0
M  V30 4185 H 385.065 0.778053 4.02957 0
M  V30 4186 H 384.596 -0.917005 3.82563 0
M  V30 4187 H 386.611 -1.93806 4.56786 0
M  V30 4188 N 385.784 -1.5574 0.241426 0
M  V30 4189 C 387.031 -1.9881 -0.384836 0
M  V30 4190 C 387.359 -1.12947 -1.58346 0
M  V30 4191 O 386.614 -0.178993 -1.9488 0
M  V30 4192 C 386.913 -3.47308 -0.843317 0
M  V30 4193 C 386.579 -4.50223 0.246946 0
M  V30 4194 C 385.241 -4.78088 0.546399 0
M  V30 4195 C 387.593 -5.11841 0.983282 0
M  V30 4196 C 384.921 -5.64846 1.58636 0
M  V30 4197 C 387.273 -5.99727 2.01272 0
M  V30 4198 C 385.937 -6.25927 2.31888 0
M  V30 4199 H 385.207 -0.727496 -0.140821 0
M  V30 4200 H 387.854 -1.8831 0.348106 0
M  V30 4201 H 386.159 -3.55112 -1.65537 0
M  V30 4202 H 387.856 -3.78017 -1.33806 0
M  V30 4203 H 384.446 -4.286 0.00340639 0
M  V30 4204 H 388.63 -4.90366 0.765182 0
M  V30 4205 H 383.886 -5.83403 1.82896 0
M  V30 4206 H 388.06 -6.46517 2.58823 0
M  V30 4207 H 385.687 -6.92949 3.12611 0
M  V30 4208 N 387.262 0.0317525 -1.57568 0
M  V30 4209 C 388.225 1.01783 -2.0536 0
M  V30 4210 C 389.225 1.29203 -0.957253 0
M  V30 4211 O 390.415 1.24251 -1.22095 0
M  V30 4212 C 387.547 2.35137 -2.46827 0
M  V30 4213 H 388.74 0.605062 -2.93733 0
M  V30 4214 H 386.293 0.278514 -1.53799 0
M  V30 4215 H 387.028 2.81168 -1.61602 0
M  V30 4216 H 386.813 2.16566 -3.26866 0
M  V30 4217 H 388.303 3.05938 -2.84239 0
M  V30 4218 N 388.74 1.54641 0.303973 0
M  V30 4219 C 389.65 1.88439 1.39743 0
M  V30 4220 C 390.666 0.778239 1.55626 0
M  V30 4221 O 391.842 1.07442 1.70347 0
M  V30 4222 C 388.907 2.12212 2.74166 0
M  V30 4223 C 387.968 3.35936 2.67293 0
M  V30 4224 C 387.201 3.58566 3.95305 0
M  V30 4225 O 387.424 2.84263 4.9452 0
M  V30 4226 O 386.358 4.52078 3.97378 0
M  V30 4227 H 390.184 2.81458 1.14083 0
M  V30 4228 H 387.769 1.40793 0.499768 0
M  V30 4229 H 389.651 2.29067 3.53704 0
M  V30 4230 H 388.326 1.22379 2.99675 0
M  V30 4231 H 387.233 3.24448 1.86237 0
M  V30 4232 H 388.566 4.2589 2.46736 0
M  V30 4233 N 390.218 -0.567019 1.47046 0
M  V30 4234 C 391.443 -1.3551 1.57009 0
M  V30 4235 C 391.868 -1.86841 0.217259 0
M  V30 4236 O 391.226 -1.62435 -0.805268 0
M  V30 4237 C 391.274 -2.50777 2.5912 0
M  V30 4238 O 390.378 -3.52706 2.13711 0
M  V30 4239 H 389.719 -0.402919 0.52778 0
M  V30 4240 H 392.249 -0.686241 1.92748 0
M  V30 4241 H 392.259 -2.97481 2.79229 0
M  V30 4242 H 390.934 -2.12771 3.57353 0
M  V30 4243 H 389.511 -3.12374 2.03659 0
M  V30 4244 N 391.696 -1.35014 -0.812953 0
M  V30 4245 C 392.644 -1.27435 -1.94585 0
M  V30 4246 C 393.638 -0.170494 -1.6854 0
M  V30 4247 O 394.844 -0.336085 -1.76835 0
M  V30 4248 H 391.219 -0.396144 -0.639198 0
M  V30 4249 H 393.19 -2.23158 -1.98098 0
M  V30 4250 C 391.939 -1.05677 -3.31252 0
M  V30 4251 H 391.262 -1.89853 -3.51846 0
M  V30 4252 H 392.702 -1.04413 -4.10943 0
M  V30 4253 C 391.161 0.239615 -3.36047 0
M  V30 4254 O 391.691 1.23759 -3.8216 0
M  V30 4255 N 389.897 0.276186 -2.89285 0
M  V30 4256 H 389.444 -0.53653 -2.51951 0
M  V30 4257 H 389.402 1.14332 -2.92875 0
M  V30 4258 N 393.175 1.03435 -1.18907 0
M  V30 4259 C 394.586 1.58195 -0.991523 0
M  V30 4260 C 394.937 1.90801 0.457081 0
M  V30 4261 O 394.062 1.70272 1.33553 0
M  V30 4262 C 394.657 2.87432 -1.79355 0
M  V30 4263 C 393.216 3.38785 -1.64017 0
M  V30 4264 C 392.363 2.12292 -1.78402 0
M  V30 4265 H 395.314 0.860299 -1.33359 0
M  V30 4266 H 395.335 3.58096 -1.28638 0
M  V30 4267 H 394.847 2.63669 -2.84781 0
M  V30 4268 H 392.948 3.67547 -0.611536 0
M  V30 4269 H 393.061 4.12186 -2.44212 0
M  V30 4270 H 391.425 2.23901 -1.2141 0
M  V30 4271 H 392.208 1.90977 -2.85277 0
M  V30 4272 N 394.653 0.992116 1.22453 0
M  V30 4273 C 396.064 0.702776 1.72968 0
M  V30 4274 C 396.415 -0.780399 1.80012 0
M  V30 4275 O 395.54 -1.61007 1.44589 0
M  V30 4276 C 396.135 1.26903 3.14135 0
M  V30 4277 C 394.694 1.02909 3.62059 0
M  V30 4278 C 393.841 1.38969 2.39964 0
M  V30 4279 H 396.792 1.16457 1.07812 0
M  V30 4280 H 396.813 0.647223 3.74955 0
M  V30 4281 H 396.325 2.34851 3.08977 0
M  V30 4282 H 394.426 -0.0337979 3.72585 0
M  V30 4283 H 394.539 1.69191 4.48231 0
M  V30 4284 H 392.903 0.808279 2.41535 0
M  V30 4285 H 393.686 2.4792 2.37467 0
M  V30 4286 N 396.131 -1.37776 0.765217 0
M  V30 4287 C 397.094 -2.28686 0.153416 0
M  V30 4288 C 398.094 -1.47727 -0.635081 0
M  V30 4289 O 399.284 -1.68027 -0.459632 0
M  V30 4290 C 396.416 -3.31608 -0.790495 0
M  V30 4291 H 397.609 -2.84297 0.954723 0
M  V30 4292 H 395.162 -1.46932 0.53299 0
M  V30 4293 H 395.897 -2.81109 -1.61705 0
M  V30 4294 H 395.682 -3.9144 -0.227348 0
M  V30 4295 H 397.172 -3.99559 -1.21419 0
M  V30 4296 N 397.609 -0.515225 -1.4894 0
M  V30 4297 C 398.519 0.259774 -2.33157 0
M  V30 4298 C 399.535 0.953501 -1.45548 0
M  V30 4299 O 400.711 0.931735 -1.78552 0
M  V30 4300 C 397.776 1.30193 -3.21326 0
M  V30 4301 C 396.837 0.620129 -4.24797 0
M  V30 4302 C 396.07 1.61263 -5.08753 0
M  V30 4303 O 396.293 2.84389 -4.94448 0
M  V30 4304 O 395.227 1.16013 -5.90614 0
M  V30 4305 H 399.053 -0.429932 -3.00641 0
M  V30 4306 H 396.638 -0.276346 -1.46822 0
M  V30 4307 H 398.52 1.90455 -3.75905 0
M  V30 4308 H 397.195 1.97431 -2.56521 0
M  V30 4309 H 396.102 -0.0226019 -3.74093 0
M  V30 4310 H 397.435 -0.0100493 -4.92199 0
M  V30 4311 N 399.087 1.5561 -0.249682 0
M  V30 4312 C 400.317 2.03116 0.377803 0
M  V30 4313 C 400.725 1.12822 1.51881 0
M  V30 4314 O 400.068 0.13562 1.83199 0
M  V30 4315 C 400.13 3.46866 0.944693 0
M  V30 4316 C 399.794 4.56955 -0.0644259 0
M  V30 4317 C 400.791 5.12485 -0.874957 0
M  V30 4318 C 398.476 5.01936 -0.19132 0
M  V30 4319 C 400.47 6.11491 -1.79881 0
M  V30 4320 C 398.157 6.00773 -1.11868 0
M  V30 4321 C 399.155 6.5543 -1.92095 0
M  V30 4322 O 398.843 7.5234 -2.83267 0
M  V30 4323 H 398.575 0.669489 0.0935961 0
M  V30 4324 H 401.129 2.02004 -0.371966 0
M  V30 4325 H 399.359 3.45136 1.74407 0
M  V30 4326 H 401.048 3.77856 1.48255 0
M  V30 4327 H 401.814 4.78564 -0.787523 0
M  V30 4328 H 397.693 4.59055 0.423072 0
M  V30 4329 H 401.237 6.54078 -2.42543 0
M  V30 4330 H 397.134 6.34114 -1.20703 0
M  V30 4331 H 397.902 7.69966 -2.7766 0
M  V30 4332 N 400.565 -0.0233959 1.57583 0
M  V30 4333 C 401.812 -0.713063 1.8953 0
M  V30 4334 C 402.14 -1.75056 0.847673 0
M  V30 4335 O 401.395 -1.95119 -0.150636 0
M  V30 4336 C 401.694 -1.41428 3.28227 0
M  V30 4337 C 401.36 -0.512222 4.47981 0
M  V30 4338 C 400.022 -0.263785 4.80476 0
M  V30 4339 C 402.374 0.110248 5.21083 0
M  V30 4340 C 399.702 0.615804 5.83459 0
M  V30 4341 C 402.054 0.977573 6.25001 0
M  V30 4342 C 400.718 1.23542 6.55968 0
M  V30 4343 H 399.988 -0.260928 0.69354 0
M  V30 4344 H 402.635 0.0271047 1.91481 0
M  V30 4345 H 400.94 -2.22791 3.22291 0
M  V30 4346 H 402.637 -1.95355 3.50196 0
M  V30 4347 H 399.227 -0.716013 4.22577 0
M  V30 4348 H 403.411 -0.0687137 4.96252 0
M  V30 4349 H 398.667 0.82382 6.05824 0
M  V30 4350 H 402.841 1.46638 6.80786 0
M  V30 4351 H 400.468 1.91871 7.35588 0
M  V30 4352 N 402.043 -1.548 -0.295768 0
M  V30 4353 C 403.289 -1.75517 -1.02789 0
M  V30 4354 C 403.644 -0.537266 -1.84746 0
M  V30 4355 O 402.937 0.470299 -1.85738 0
M  V30 4356 C 403.131 -2.98797 -1.961 0
M  V30 4357 C 402.96 -4.3246 -1.23321 0
M  V30 4358 C 401.73 -4.96131 -0.95822 0
M  V30 4359 C 403.928 -5.10365 -0.635024 0
M  V30 4360 N 401.91 -6.1357 -0.201257 0
M  V30 4361 C 403.281 -6.19999 -0.0110937 0
M  V30 4362 C 405.336 -4.94957 -0.540594 0
M  V30 4363 C 404.039 -7.15904 0.698136 0
M  V30 4364 C 406.065 -5.91197 0.154992 0
M  V30 4365 C 405.427 -7.00203 0.767752 0
M  V30 4366 H 401.526 -0.694786 -0.358882 0
M  V30 4367 H 404.11 -1.92281 -0.305943 0
M  V30 4368 H 402.281 -2.83448 -2.6554 0
M  V30 4369 H 404.013 -3.08017 -2.62502 0
M  V30 4370 H 400.768 -4.56595 -1.25771 0
M  V30 4371 H 401.192 -6.76802 0.16389 0
M  V30 4372 H 405.834 -4.10803 -1.00003 0
M  V30 4373 H 403.552 -7.99595 1.16933 0
M  V30 4374 H 407.138 -5.81353 0.228069 0
M  V30 4375 H 406.018 -7.73393 1.29743 0
M  V30 4376 N 403.521 0.559213 -1.47345 0
M  V30 4377 C 404.749 1.34194 -1.57479 0
M  V30 4378 C 405.164 1.87463 -0.224261 0
M  V30 4379 O 404.521 1.64888 0.782185 0
M  V30 4380 C 404.572 2.51324 -2.59843 0
M  V30 4381 O 404.293 2.00256 -3.89653 0
M  V30 4382 C 405.794 3.43563 -2.80142 0
M  V30 4383 H 403.014 0.409136 -0.531835 0
M  V30 4384 H 405.558 0.677609 -1.92947 0
M  V30 4385 H 403.713 3.13699 -2.27314 0
M  V30 4386 H 404.127 2.76708 -4.4557 0
M  V30 4387 H 405.601 4.2217 -3.55635 0
M  V30 4388 H 406.078 3.9698 -1.87892 0
M  V30 4389 H 406.684 2.87005 -3.1386 0
M  V30 4390 N 404.999 1.35443 0.805782 0
M  V30 4391 C 406.248 1.28097 1.55801 0
M  V30 4392 C 406.561 -0.142428 1.95081 0
M  V30 4393 O 407.767 -0.33817 2.69386 0
M  V30 4394 C 406.223 2.24653 2.81174 0
M  V30 4395 C 405.831 3.72342 2.49129 0
M  V30 4396 C 407.575 2.2625 3.59181 0
M  V30 4397 C 405.482 4.60719 3.70799 0
M  V30 4398 H 404.412 0.475937 0.584808 0
M  V30 4399 H 407.063 1.60712 0.885661 0
M  V30 4400 H 405.445 1.85011 3.50124 0
M  V30 4401 H 406.619 4.20624 1.88181 0
M  V30 4402 H 404.934 3.73361 1.84366 0
M  V30 4403 H 407.531 2.89495 4.49552 0
M  V30 4404 H 407.874 1.26647 3.96568 0
M  V30 4405 H 408.407 2.64426 2.97193 0
M  V30 4406 H 405.146 5.61324 3.3852 0
M  V30 4407 H 404.666 4.17163 4.3097 0
M  V30 4408 H 406.345 4.76182 4.38018 0
M  V30 4409 N 406.477 -1.02803 1.19454 0
M  V30 4410 C 407.425 -2.13213 0.929673 0
M  V30 4411 C 408.419 -1.69011 -0.114806 0
M  V30 4412 O 409.625 -1.79967 0.0345147 0
M  V30 4413 H 406 -0.69662 0.28324 0
M  V30 4414 H 407.971 -2.32744 1.86743 0
M  V30 4415 C 406.72 -3.4429 0.485797 0
M  V30 4416 H 406.043 -3.7872 1.28105 0
M  V30 4417 H 407.483 -4.22638 0.339582 0
M  V30 4418 C 405.942 -3.27258 -0.800244 0
M  V30 4419 O 406.472 -3.55967 -1.86146 0
M  V30 4420 N 404.678 -2.80545 -0.75781 0
M  V30 4421 H 404.225 -2.57382 0.106039 0
M  V30 4422 H 404.183 -2.6953 -1.61867 0
M  V30 4423 N 407.956 -0.998596 -1.21925 0
M  V30 4424 C 409.204 -0.676325 -1.90448 0
M  V30 4425 C 409.525 0.794719 -1.78071 0
M  V30 4426 O 408.795 1.5701 -1.17152 0
M  V30 4427 H 407.375 -0.247165 -0.704925 0
M  V30 4428 H 410.037 -1.26633 -1.48156 0
M  V30 4429 H 409.133 -0.943858 -2.97486 0
M  V30 4430 N 409.434 1.37368 -0.772513 0
M  V30 4431 C 410.381 2.30262 -0.157488 0
M  V30 4432 C 411.351 1.51137 0.688965 0
M  V30 4433 O 412.536 1.79704 0.641168 0
M  V30 4434 C 409.676 3.37611 0.715045 0
M  V30 4435 C 408.789 4.31746 -0.148098 0
M  V30 4436 C 407.924 5.26171 0.729213 0
M  V30 4437 C 406.963 6.11948 -0.136418 0
M  V30 4438 N 406.1 6.98613 0.698914 0
M  V30 4439 H 410.94 2.82277 -0.955179 0
M  V30 4440 H 408.477 1.38957 -0.482631 0
M  V30 4441 H 410.435 3.98479 1.23575 0
M  V30 4442 H 409.065 2.86959 1.47833 0
M  V30 4443 H 408.117 3.72178 -0.786613 0
M  V30 4444 H 409.429 4.92084 -0.81579 0
M  V30 4445 H 408.583 5.92247 1.31637 0
M  V30 4446 H 407.322 4.66246 1.43059 0
M  V30 4447 H 406.327 5.4485 -0.736102 0
M  V30 4448 H 407.552 6.73945 -0.835134 0
M  V30 4449 H 405.498 6.41215 1.38489 0
M  V30 4450 H 405.415 7.55948 0.0885358 0
M  V30 4451 H 406.683 7.69077 1.27044 0
M  V30 4452 N 410.912 0.523116 1.48665 0
M  V30 4453 C 412.159 -0.0134763 2.02496 0
M  V30 4454 C 412.487 -1.3493 1.40086 0
M  V30 4455 O 411.742 -1.88286 0.533567 0
M  V30 4456 C 412.041 -0.191671 3.56886 0
M  V30 4457 C 411.707 1.06893 4.38046 0
M  V30 4458 C 410.369 1.41443 4.59943 0
M  V30 4459 C 412.721 1.90584 4.85106 0
M  V30 4460 C 410.049 2.59594 5.26144 0
M  V30 4461 C 412.401 3.07907 5.52609 0
M  V30 4462 C 411.065 3.42811 5.72745 0
M  V30 4463 H 410.335 -0.00493133 0.740984 0
M  V30 4464 H 412.982 0.687751 1.78724 0
M  V30 4465 H 411.287 -0.97561 3.79459 0
M  V30 4466 H 412.984 -0.621659 3.96152 0
M  V30 4467 H 409.574 0.789848 4.21259 0
M  V30 4468 H 413.758 1.65203 4.67997 0
M  V30 4469 H 409.014 2.86847 5.39934 0
M  V30 4470 H 413.188 3.73066 5.88043 0
M  V30 4471 H 410.815 4.34462 6.23816 0
M  V30 4472 N 412.39 -1.55475 0.257931 0
M  V30 4473 C 413.322 -2.19192 -0.669881 0
M  V30 4474 C 414.335 -1.17148 -1.1305 0
M  V30 4475 O 415.524 -1.43959 -1.05537 0
M  V30 4476 C 412.624 -2.79016 -1.92363 0
M  V30 4477 C 411.797 -4.06586 -1.61265 0
M  V30 4478 C 410.856 -4.50622 -2.7171 0
M  V30 4479 O 409.882 -5.16765 -2.38627 0
M  V30 4480 N 411.084 -4.19325 -4.01431 0
M  V30 4481 H 413.849 -2.99441 -0.124635 0
M  V30 4482 H 411.41 -1.6171 0.0783311 0
M  V30 4483 H 413.402 -3.05427 -2.65511 0
M  V30 4484 H 411.972 -2.0286 -2.37837 0
M  V30 4485 H 411.192 -3.87646 -0.715811 0
M  V30 4486 H 412.48 -4.89737 -1.37967 0
M  V30 4487 H 411.878 -3.66247 -4.31138 0
M  V30 4488 H 410.435 -4.50547 -4.7101 0
M  V30 4489 N 413.868 0.0150385 -1.57593 0
M  V30 4490 C 414.8 1.03912 -2.04291 0
M  V30 4491 C 415.813 1.31618 -0.958146 0
M  V30 4492 O 417.002 1.28859 -1.23522 0
M  V30 4493 C 414.102 2.37749 -2.41514 0
M  V30 4494 C 413.275 2.29198 -3.72541 0
M  V30 4495 C 412.334 3.45598 -3.96797 0
M  V30 4496 O 411.36 3.24461 -4.67668 0
M  V30 4497 N 412.562 4.67945 -3.43523 0
M  V30 4498 H 415.327 0.64099 -2.92765 0
M  V30 4499 H 412.888 0.20272 -1.60626 0
M  V30 4500 H 414.88 3.14364 -2.54867 0
M  V30 4501 H 413.45 2.69357 -1.58637 0
M  V30 4502 H 412.67 1.3759 -3.69408 0
M  V30 4503 H 413.958 2.20642 -4.5847 0
M  V30 4504 H 413.356 4.88017 -2.86104 0
M  V30 4505 H 411.913 5.41878 -3.62232 0
M  V30 4506 N 415.346 1.54954 0.287554 0
M  V30 4507 C 416.571 1.79209 1.04397 0
M  V30 4508 C 416.996 0.556431 1.79682 0
M  V30 4509 O 416.354 -0.493518 1.74454 0
M  V30 4510 C 416.402 3.00739 1.98969 0
M  V30 4511 O 415.506 2.74805 3.075 0
M  V30 4512 H 414.847 0.592755 0.299227 0
M  V30 4513 H 417.377 2.02068 0.320886 0
M  V30 4514 H 417.387 3.29077 2.4119 0
M  V30 4515 H 416.062 3.90329 1.43582 0
M  V30 4516 H 414.639 2.57523 2.69697 0
M  V30 4517 N 416.824 -0.551391 1.4764 0
M  V30 4518 C 418.072 -1.30572 1.54258 0
M  V30 4519 C 418.393 -1.93877 0.208963 0
M  V30 4520 O 417.663 -1.80234 -0.767619 0
M  V30 4521 H 416.243 -0.484894 0.568231 0
M  V30 4522 H 418.905 -0.643402 1.83974 0
M  V30 4523 H 418.001 -2.09621 2.31226 0
M  V30 4524 N 418.302 -1.35869 -0.798587 0
M  V30 4525 C 419.234 -1.25305 -1.91915 0
M  V30 4526 C 420.247 -0.174548 -1.61862 0
M  V30 4527 O 421.436 -0.428499 -1.73281 0
M  V30 4528 C 418.536 -0.9086 -3.26493 0
M  V30 4529 C 417.709 -2.08711 -3.84394 0
M  V30 4530 C 416.768 -1.71717 -4.97393 0
M  V30 4531 O 415.794 -2.43692 -5.14396 0
M  V30 4532 N 416.996 -0.645473 -5.769 0
M  V30 4533 H 419.761 -2.21849 -2.01502 0
M  V30 4534 H 417.322 -1.29143 -0.976408 0
M  V30 4535 H 419.314 -0.642455 -3.99568 0
M  V30 4536 H 417.884 -0.0325815 -3.12583 0
M  V30 4537 H 417.104 -2.51659 -3.03416 0
M  V30 4538 H 418.392 -2.87468 -4.19809 0
M  V30 4539 H 417.79 -0.047648 -5.6568 0
M  V30 4540 H 416.347 -0.43913 -6.50319 0
M  V30 4541 N 419.78 1.02168 -1.19998 0
M  V30 4542 C 420.727 2.10601 -0.944228 0
M  V30 4543 C 421.697 1.65639 0.123664 0
M  V30 4544 O 422.882 1.9079 -0.0199941 0
M  V30 4545 C 420.022 3.41504 -0.496865 0
M  V30 4546 C 419.135 3.99973 -1.63234 0
M  V30 4547 C 418.27 5.18915 -1.13579 0
M  V30 4548 C 417.309 5.69456 -2.24468 0
M  V30 4549 N 416.446 6.79665 -1.76068 0
M  V30 4550 H 421.286 2.31814 -1.8726 0
M  V30 4551 H 418.823 1.13686 -0.933483 0
M  V30 4552 H 420.781 4.16626 -0.218843 0
M  V30 4553 H 419.411 3.2038 0.394508 0
M  V30 4554 H 418.463 3.21997 -2.0254 0
M  V30 4555 H 419.775 4.33492 -2.46752 0
M  V30 4556 H 418.929 6.01222 -0.813429 0
M  V30 4557 H 417.668 4.8695 -0.270434 0
M  V30 4558 H 416.673 4.85757 -2.57526 0
M  V30 4559 H 417.898 6.03459 -3.11472 0
M  V30 4560 H 415.844 6.49538 -0.918516 0
M  V30 4561 H 415.761 7.12349 -2.5317 0
M  V30 4562 H 417.029 7.65549 -1.46817 0
M  V30 4563 N 421.258 1.00505 1.21394 0
M  V30 4564 C 422.188 0.585684 2.26035 0
M  V30 4565 C 423.169 -0.393525 1.65485 0
M  V30 4566 O 424.354 -0.281497 1.92149 0
M  V30 4567 C 421.484 -0.0884283 3.47187 0
M  V30 4568 C 420.438 0.810567 4.20254 0
M  V30 4569 C 419.764 0.00286382 5.347 0
M  V30 4570 C 421.064 2.1132 4.77641 0
M  V30 4571 H 422.758 1.46039 2.61368 0
M  V30 4572 H 420.304 0.703648 1.25638 0
M  V30 4573 H 422.257 -0.393286 4.19561 0
M  V30 4574 H 420.981 -0.997766 3.10986 0
M  V30 4575 H 419.64 1.09925 3.49731 0
M  V30 4576 H 419.288 -0.907765 4.94741 0
M  V30 4577 H 418.988 0.601444 5.84514 0
M  V30 4578 H 420.512 -0.295808 6.09883 0
M  V30 4579 H 421.926 1.87148 5.41893 0
M  V30 4580 H 420.323 2.66164 5.37845 0
M  V30 4581 H 421.393 2.78393 3.9702 0
M  V30 4582 N 422.737 -1.36956 0.779787 0
M  V30 4583 C 423.962 -2.04283 0.358224 0
M  V30 4584 C 424.387 -1.58422 -1.01411 0
M  V30 4585 O 423.745 -0.748179 -1.65142 0
M  V30 4586 C 423.793 -3.58152 0.419479 0
M  V30 4587 O 422.897 -4.08342 -0.577142 0
M  V30 4588 H 422.238 -0.645967 0.153698 0
M  V30 4589 H 424.768 -1.75108 1.05822 0
M  V30 4590 H 424.778 -4.07041 0.279636 0
M  V30 4591 H 423.453 -3.90886 1.42061 0
M  V30 4592 H 422.03 -3.70751 -0.399755 0
M  V30 4593 N 424.215 -0.530993 -1.48385 0
M  V30 4594 C 425.464 0.00474348 -2.01699 0
M  V30 4595 C 425.777 1.35227 -1.41325 0
M  V30 4596 O 426.983 1.97643 -1.86144 0
M  V30 4597 C 425.439 0.0588473 -3.59852 0
M  V30 4598 C 425.047 -1.28385 -4.2921 0
M  V30 4599 C 426.791 0.543358 -4.21008 0
M  V30 4600 C 424.698 -1.19028 -5.79298 0
M  V30 4601 H 423.628 0.00554317 -0.75398 0
M  V30 4602 H 426.279 -0.674924 -1.70637 0
M  V30 4603 H 424.661 0.803612 -3.8776 0
M  V30 4604 H 425.835 -2.04426 -4.12973 0
M  V30 4605 H 424.15 -1.70418 -3.7993 0
M  V30 4606 H 426.747 0.631351 -5.3096 0
M  V30 4607 H 427.09 1.54937 -3.86394 0
M  V30 4608 H 427.623 -0.145754 -3.97533 0
M  V30 4609 H 424.362 -2.17147 -6.18488 0
M  V30 4610 H 423.882 -0.471246 -5.97946 0
M  V30 4611 H 425.561 -0.881365 -6.40969 0
M  V30 4612 N 425.693 1.55336 -0.266172 0
M  V30 4613 C 427.104 1.85236 0.233315 0
M  V30 4614 C 427.455 1.18816 1.56132 0
M  V30 4615 O 426.58 0.473307 2.11161 0
M  V30 4616 C 427.175 3.36059 0.430113 0
M  V30 4617 C 425.734 3.66116 0.873842 0
M  V30 4618 C 424.881 2.77274 -0.0380016 0
M  V30 4619 H 427.832 1.51004 -0.488214 0
M  V30 4620 H 427.853 3.58681 1.26998 0
M  V30 4621 H 427.365 3.84373 -0.536588 0
M  V30 4622 H 425.466 3.23295 1.85233 0
M  V30 4623 H 425.579 4.73699 0.717358 0
M  V30 4624 H 423.943 2.50198 0.476759 0
M  V30 4625 H 424.726 3.284 -1.00042 0
M  V30 4626 N 427.171 -0.0066808 1.57599 0
M  V30 4627 C 428.103 -1.02827 2.04839 0
M  V30 4628 C 429.116 -1.31108 0.965113 0
M  V30 4629 O 430.305 -1.28202 1.24203 0
M  V30 4630 C 427.405 -2.36464 2.42771 0
M  V30 4631 C 426.578 -2.27219 3.73751 0
M  V30 4632 C 425.637 -3.43489 3.98625 0
M  V30 4633 O 424.663 -3.21976 4.69382 0
M  V30 4634 N 425.865 -4.66116 3.46 0
M  V30 4635 H 428.63 -0.625455 2.93101 0
M  V30 4636 H 426.191 -0.194198 1.60731 0
M  V30 4637 H 428.183 -3.13008 2.56531 0
M  V30 4638 H 426.753 -2.68512 1.60063 0
M  V30 4639 H 425.973 -1.35629 3.70133 0
M  V30 4640 H 427.261 -2.18208 4.59633 0
M  V30 4641 H 426.659 -4.86493 2.88688 0
M  V30 4642 H 425.216 -5.39949 3.65101 0
M  V30 4643 N 428.649 -1.55105 -0.279332 0
M  V30 4644 C 429.898 -1.74618 -1.00952 0
M  V30 4645 C 430.211 -0.551096 -1.87676 0
M  V30 4646 O 431.417 -0.628507 -2.64125 0
M  V30 4647 C 429.873 -3.09025 -1.84476 0
M  V30 4648 C 429.481 -4.36081 -1.0265 0
M  V30 4649 C 431.225 -3.37891 -2.56963 0
M  V30 4650 C 429.132 -5.6153 -1.85576 0
M  V30 4651 H 428.062 -0.650868 -0.38064 0
M  V30 4652 H 430.713 -1.81569 -0.265475 0
M  V30 4653 H 429.095 -2.96095 -2.62952 0
M  V30 4654 H 430.269 -4.59909 -0.286354 0
M  V30 4655 H 428.584 -4.14312 -0.416464 0
M  V30 4656 H 431.181 -4.28822 -3.19399 0
M  V30 4657 H 431.524 -2.57737 -3.26921 0
M  V30 4658 H 432.057 -3.5189 -1.85522 0
M  V30 4659 H 428.796 -6.44413 -1.2005 0
M  V30 4660 H 428.316 -5.41854 -2.57204 0
M  V30 4661 H 429.995 -5.99594 -2.43096 0
M  V30 4662 N 430.127 0.543554 -1.4793 0
M  V30 4663 C 431.355 1.32516 -1.58894 0
M  V30 4664 C 431.77 1.87215 -0.244131 0
M  V30 4665 O 431.127 1.65709 0.764652 0
M  V30 4666 C 431.178 2.48554 -2.62494 0
M  V30 4667 O 430.899 1.96112 -3.91755 0
M  V30 4668 C 432.4 3.40572 -2.8377 0
M  V30 4669 H 429.62 0.403472 -0.536145 0
M  V30 4670 H 432.164 0.657106 -1.93655 0
M  V30 4671 H 430.319 3.1127 -2.30629 0
M  V30 4672 H 430.733 2.71967 -4.4848 0
M  V30 4673 H 432.207 4.18375 -3.60093 0
M  V30 4674 H 432.684 3.94965 -1.92092 0
M  V30 4675 H 433.29 2.8366 -3.16887 0
M  V30 4676 N 431.605 1.3629 0.791371 0
M  V30 4677 C 432.833 1.33562 1.58016 0
M  V30 4678 C 433.248 -0.0835616 1.88615 0
M  V30 4679 O 432.605 -1.0399 1.49974 0
M  V30 4680 C 432.656 2.15517 2.90232 0
M  V30 4681 O 432.377 3.51902 2.60953 0
M  V30 4682 C 433.878 2.20546 3.84544 0
M  V30 4683 H 431.098 0.458226 0.490173 0
M  V30 4684 H 433.642 1.79361 0.982345 0
M  V30 4685 H 431.797 1.73278 3.46487 0
M  V30 4686 H 432.211 3.94644 3.4548 0
M  V30 4687 H 433.685 2.82252 4.74382 0
M  V30 4688 H 434.162 1.20838 4.2225 0
M  V30 4689 H 434.768 2.63013 3.34222 0
M  V30 4690 N 433.083 -1.0153 1.20538 0
M  V30 4691 C 434.03 -2.10098 0.955383 0
M  V30 4692 C 435 -1.65702 -0.114878 0
M  V30 4693 O 436.185 -1.90776 0.0301118 0
M  V30 4694 C 433.325 -3.41236 0.514969 0
M  V30 4695 C 432.438 -3.99102 1.65353 0
M  V30 4696 C 431.573 -5.18306 1.16329 0
M  V30 4697 C 430.612 -5.68258 2.27485 0
M  V30 4698 N 429.749 -6.78722 1.7967 0
M  V30 4699 H 434.589 -2.30818 1.88486 0
M  V30 4700 H 432.126 -1.13189 0.939499 0
M  V30 4701 H 434.084 -4.16504 0.240935 0
M  V30 4702 H 432.714 -3.20585 -0.377512 0
M  V30 4703 H 431.766 -3.20918 2.04245 0
M  V30 4704 H 433.078 -4.32177 2.49047 0
M  V30 4705 H 432.232 -6.00782 0.845302 0
M  V30 4706 H 430.971 -4.86799 0.296254 0
M  V30 4707 H 429.976 -4.84385 2.60099 0
M  V30 4708 H 431.201 -6.01798 3.14667 0
M  V30 4709 H 429.147 -6.49042 0.95295 0
M  V30 4710 H 429.064 -7.10996 2.56944 0
M  V30 4711 H 430.332 -7.64759 1.50875 0
M  V30 4712 N 434.561 -1.01147 -1.20859 0
M  V30 4713 C 435.511 -0.548247 -2.2131 0
M  V30 4714 C 436.495 0.393646 -1.5601 0
M  V30 4715 O 437.687 0.217445 -1.75659 0
M  V30 4716 C 434.816 0.117252 -3.431 0
M  V30 4717 C 433.902 -0.846043 -4.15575 0
M  V30 4718 N 434.293 -2.00149 -4.64515 0
M  V30 4719 C 432.591 -0.665783 -4.41003 0
M  V30 4720 C 433.292 -2.60764 -5.19978 0
M  V30 4721 N 432.268 -1.88868 -5.09735 0
M  V30 4722 H 436.07 -1.42921 -2.56809 0
M  V30 4723 H 433.584 -0.876142 -1.36739 0
M  V30 4724 H 435.581 0.46662 -4.1428 0
M  V30 4725 H 434.241 0.994115 -3.09107 0
M  V30 4726 H 435.252 -2.38162 -4.5989 0
M  V30 4727 H 431.929 0.163456 -4.1718 0
M  V30 4728 H 433.319 -3.58519 -5.68255 0
M  V30 4729 N 436.039 1.36541 -0.78704 0
M  V30 4730 C 437.455 1.52571 -0.46844 0
M  V30 4731 C 437.655 1.7415 1.01361 0
M  V30 4732 O 436.711 1.77163 1.79915 0
M  V30 4733 C 438.024 2.71299 -1.29682 0
M  V30 4734 C 439.572 2.85169 -1.29027 0
M  V30 4735 C 440.047 4.06898 -2.10233 0
M  V30 4736 N 441.538 4.1404 -2.07666 0
M  V30 4737 C 442.273 5.07301 -2.67271 0
M  V30 4738 N 441.769 6.06021 -3.35724 0
M  V30 4739 N 443.562 4.99898 -2.57018 0
M  V30 4740 H 435.713 1.20788 -1.74711 0
M  V30 4741 H 437.976 0.589364 -0.742532 0
M  V30 4742 H 437.682 2.61868 -2.34773 0
M  V30 4743 H 437.556 3.6539 -0.936479 0
M  V30 4744 H 439.943 2.94062 -0.247284 0
M  V30 4745 H 440.024 1.91992 -1.69035 0
M  V30 4746 H 439.668 3.98766 -3.1456 0
M  V30 4747 H 439.598 4.99218 -1.67597 0
M  V30 4748 H 442.089 3.43357 -1.57843 0
M  V30 4749 H 442.402 6.73741 -3.78541 0
M  V30 4750 H 440.747 6.06253 -3.39826 0
M  V30 4751 H 443.938 4.21724 -2.03142 0
M  V30 4752 H 444.111 5.72392 -3.03761 0
M  V30 4753 N 437.518 0.538854 1.48102 0
M  V30 4754 C 438.766 0.00798599 2.02098 0
M  V30 4755 C 439.087 -1.33922 1.41739 0
M  V30 4756 O 438.357 -1.86932 0.585934 0
M  V30 4757 H 436.937 -3.62179e-05 0.747 0
M  V30 4758 H 439.599 0.7047 1.81714 0
M  V30 4759 H 438.695 -0.0937672 3.11959 0
M  V30 4760 N 438.996 -1.55193 0.274407 0
M  V30 4761 C 439.926 -2.25471 -0.607032 0
M  V30 4762 C 440.907 -1.24461 -1.15946 0
M  V30 4763 O 442.092 -1.53179 -1.19373 0
M  V30 4764 C 439.222 -2.97526 -1.79153 0
M  V30 4765 C 438.176 -4.05459 -1.37067 0
M  V30 4766 C 437.502 -4.65084 -2.6382 0
M  V30 4767 C 438.802 -5.19691 -0.521389 0
M  V30 4768 H 440.496 -2.99393 -0.0209343 0
M  V30 4769 H 438.042 -1.43997 -0.00862866 0
M  V30 4770 H 439.995 -3.45402 -2.41404 0
M  V30 4771 H 438.719 -2.21138 -2.40344 0
M  V30 4772 H 437.378 -3.58393 -0.771355 0
M  V30 4773 H 437.026 -3.85365 -3.23268 0
M  V30 4774 H 436.726 -5.37961 -2.36372 0
M  V30 4775 H 438.25 -5.15708 -3.26921 0
M  V30 4776 H 439.664 -5.63623 -1.04889 0
M  V30 4777 H 438.061 -5.99126 -0.341825 0
M  V30 4778 H 439.131 -4.82713 0.46 0
M  V30 4779 N 440.474 -0.00167713 -1.576 0
M  V30 4780 C 441.704 0.692754 -1.94639 0
M  V30 4781 C 442.112 1.67744 -0.87513 0
M  V30 4782 O 441.455 1.8305 0.154382 0
M  V30 4783 C 441.517 1.47881 -3.27676 0
M  V30 4784 C 441.181 0.655518 -4.52274 0
M  V30 4785 C 442.178 -0.0575214 -5.19868 0
M  V30 4786 C 439.863 0.600994 -4.98692 0
M  V30 4787 C 441.857 -0.814052 -6.3218 0
M  V30 4788 C 439.544 -0.15926 -6.10892 0
M  V30 4789 C 440.542 -0.865515 -6.77494 0
M  V30 4790 O 440.23 -1.61336 -7.87544 0
M  V30 4791 H 439.962 0.197792 -0.646417 0
M  V30 4792 H 442.516 -0.049423 -2.05341 0
M  V30 4793 H 440.746 2.2655 -3.13388 0
M  V30 4794 H 442.435 2.05874 -3.49816 0
M  V30 4795 H 443.201 -0.0245611 -4.84994 0
M  V30 4796 H 439.08 1.14025 -4.46676 0
M  V30 4797 H 442.624 -1.36584 -6.84098 0
M  V30 4798 H 438.521 -0.194035 -6.45208 0
M  V30 4799 H 439.289 -1.53025 -8.04068 0
M  V30 4800 N 441.952 1.55251 0.271103 0
M  V30 4801 C 443.18 1.79974 1.02064 0
M  V30 4802 C 443.595 0.574003 1.79863 0
M  V30 4803 O 442.952 -0.456962 1.76686 0
M  V30 4804 C 443.003 3.02603 1.97772 0
M  V30 4805 O 442.724 4.20443 1.23124 0
M  V30 4806 C 444.225 3.39944 2.84522 0
M  V30 4807 H 441.445 0.599489 0.301419 0
M  V30 4808 H 443.989 2.02268 0.301313 0
M  V30 4809 H 442.144 2.8243 2.65165 0
M  V30 4810 H 442.558 4.89783 1.87651 0
M  V30 4811 H 444.032 4.28915 3.47471 0
M  V30 4812 H 444.509 2.59432 3.54389 0
M  V30 4813 H 445.115 3.62383 2.22618 0
M  V30 4814 N 443.43 -0.535701 1.48216 0
M  V30 4815 C 444.67 -1.30238 1.57536 0
M  V30 4816 C 445.034 -1.90479 0.241229 0
M  V30 4817 O 446.235 -2.67983 0.20938 0
M  V30 4818 C 444.506 -2.3669 2.67792 0
M  V30 4819 S 446.065 -3.23159 2.9684 0
M  V30 4820 H 442.883 -0.443093 0.556048 0
M  V30 4821 H 445.485 -0.610937 1.85709 0
M  V30 4822 H 444.189 -1.90905 3.63296 0
M  V30 4823 H 443.72 -3.10548 2.41502 0
M  V30 4824 H 445.735 -4.36647 2.35699 0
M  V30 4825 N 444.908 -1.36708 -0.784132 0
M  V30 4826 C 446.133 -1.34565 -1.5782 0
M  V30 4827 C 446.558 0.0695257 -1.87971 0
M  V30 4828 O 445.916 1.04302 -1.48293 0
M  V30 4829 C 445.964 -2.17952 -2.87279 0
M  V30 4830 O 445.068 -1.57563 -3.81114 0
M  V30 4831 H 444.409 -0.460337 -0.478524 0
M  V30 4832 H 446.939 -1.80064 -0.971495 0
M  V30 4833 H 446.949 -2.30721 -3.365 0
M  V30 4834 H 445.624 -3.20823 -2.64661 0
M  V30 4835 H 444.201 -1.53764 -3.39722 0
M  V30 4836 N 446.386 1.0089 -1.21074 0
M  V30 4837 C 447.632 1.74866 -1.02712 0
M  V30 4838 C 447.965 1.89178 0.438787 0
M  V30 4839 O 447.24 1.42325 1.32567 0
M  V30 4840 C 447.523 3.16347 -1.72036 0
M  V30 4841 C 447.376 3.09782 -3.26121 0
M  V30 4842 C 448.695 4.15187 -1.45973 0
M  V30 4843 H 445.814 0.634736 -0.374539 0
M  V30 4844 H 448.456 1.17646 -1.49196 0
M  V30 4845 H 446.606 3.65201 -1.32517 0
M  V30 4846 H 448.278 2.68673 -3.74983 0
M  V30 4847 H 446.521 2.46982 -3.56626 0
M  V30 4848 H 447.192 4.09829 -3.6979 0
M  V30 4849 H 449.668 3.75022 -1.80272 0
M  V30 4850 H 448.544 5.12331 -1.96999 0
M  V30 4851 H 448.805 4.40386 -0.388924 0
M  V30 4852 N 447.864 1.01787 1.20321 0
M  V30 4853 C 449.28 0.732951 1.41774 0
M  V30 4854 C 449.48 -0.686883 1.89431 0
M  V30 4855 O 448.536 -1.45446 2.06402 0
M  V30 4856 C 449.849 1.75973 2.43832 0
M  V30 4857 C 451.397 1.77802 2.57596 0
M  V30 4858 C 451.872 2.7941 3.62897 0
M  V30 4859 N 453.363 2.78157 3.70382 0
M  V30 4860 C 454.098 3.53434 4.51521 0
M  V30 4861 N 453.594 4.38392 5.36455 0
M  V30 4862 N 455.387 3.42026 4.46066 0
M  V30 4863 H 447.538 1.93447 0.877035 0
M  V30 4864 H 449.801 0.835712 0.447536 0
M  V30 4865 H 449.507 2.77699 2.15815 0
M  V30 4866 H 449.381 1.57292 3.4284 0
M  V30 4867 H 451.768 0.767602 2.84942 0
M  V30 4868 H 451.849 2.00557 1.58779 0
M  V30 4869 H 451.493 3.80616 3.36295 0
M  V30 4870 H 451.423 2.53916 4.61339 0
M  V30 4871 H 453.914 2.16531 3.09714 0
M  V30 4872 H 454.227 4.92596 5.95457 0
M  V30 4873 H 452.572 4.4247 5.35953 0
M  V30 4874 H 455.763 2.75075 3.78749 0
M  V30 4875 H 455.936 4.00946 5.09064 0
M  V30 4876 N 449.342 -1.36122 0.79427 0
M  V30 4877 C 450.29 -2.31871 0.184023 0
M  V30 4878 C 451.284 -1.56041 -0.659365 0
M  V30 4879 O 452.49 -1.71266 -0.553906 0
M  V30 4880 H 448.865 -0.750896 0.0407373 0
M  V30 4881 H 450.836 -2.80898 1.00693 0
M  V30 4882 C 449.585 -3.41324 -0.662813 0
M  V30 4883 H 448.908 -3.99793 -0.0231944 0
M  V30 4884 H 450.348 -4.10629 -1.05639 0
M  V30 4885 C 448.807 -2.83308 -1.82313 0
M  V30 4886 O 449.337 -2.75863 -2.91997 0
M  V30 4887 N 447.543 -2.40529 -1.63077 0
M  V30 4888 H 447.09 -2.46785 -0.738591 0
M  V30 4889 H 447.048 -2.02059 -2.40872 0
M  V30 4890 N 450.82 -0.546701 -1.47814 0
M  V30 4891 C 452.045 -0.021268 -2.07389 0
M  V30 4892 C 452.47 1.25822 -1.39822 0
M  V30 4893 O 451.828 1.75111 -0.46968 0
M  V30 4894 C 451.876 0.168502 -3.60206 0
M  V30 4895 O 450.98 1.23347 -3.93522 0
M  V30 4896 H 450.321 -0.0466108 -0.662362 0
M  V30 4897 H 452.851 -0.759387 -1.89985 0
M  V30 4898 H 452.861 0.385982 -4.0617 0
M  V30 4899 H 451.536 -0.766075 -4.08784 0
M  V30 4900 H 450.113 0.997319 -3.59316 0
M  V30 4901 N 452.299 1.55045 -0.282633 0
M  V30 4902 C 453.262 2.21515 0.588539 0
M  V30 4903 C 454.262 1.19535 1.07554 0
M  V30 4904 O 455.452 1.44391 0.974514 0
M  V30 4905 C 452.584 2.88704 1.8128 0
M  V30 4906 H 453.777 2.99899 0.00806397 0
M  V30 4907 H 451.33 1.56265 -0.0333067 0
M  V30 4908 H 452.065 2.14352 2.43359 0
M  V30 4909 H 451.85 3.63443 1.47144 0
M  V30 4910 H 453.34 3.39465 2.43214 0
M  V30 4911 N 453.777 0.010035 1.57597 0
M  V30 4912 C 455.005 -0.683413 1.95287 0
M  V30 4913 C 455.42 -1.66747 0.885481 0
M  V30 4914 O 454.777 -1.82003 -0.134629 0
M  V30 4915 C 454.828 -1.40652 3.33015 0
M  V30 4916 O 454.549 -0.461916 4.35658 0
M  V30 4917 C 456.05 -2.19356 3.85225 0
M  V30 4918 H 453.27 -0.189708 0.643624 0
M  V30 4919 H 455.814 0.0641359 2.04399 0
M  V30 4920 H 453.969 -2.10562 3.2518 0
M  V30 4921 H 454.383 -0.973215 5.15392 0
M  V30 4922 H 455.857 -2.65433 4.83993 0
M  V30 4923 H 456.334 -3.02457 3.18459 0
M  V30 4924 H 456.94 -1.54442 3.96267 0
M  V30 4925 N 455.255 -1.55392 -0.262866 0
M  V30 4926 C 456.503 -1.76127 -0.991147 0
M  V30 4927 C 456.824 -0.571083 -1.8645 0
M  V30 4928 O 456.094 0.413698 -1.91482 0
M  V30 4929 H 454.674 -0.649528 -0.368948 0
M  V30 4930 H 457.336 -1.9281 -0.284655 0
M  V30 4931 H 456.432 -2.6663 -1.62219 0
M  V30 4932 N 456.733 0.527833 -1.48498 0
M  V30 4933 C 457.68 1.6322 -1.6318 0
M  V30 4934 C 458.65 1.59199 -0.473815 0
M  V30 4935 O 459.835 1.77591 -0.697563 0
M  V30 4936 C 456.975 3.01474 -1.67951 0
M  V30 4937 C 456.088 3.15713 -2.94871 0
M  V30 4938 C 455.223 4.44539 -2.90789 0
M  V30 4939 C 454.262 4.52315 -4.12404 0
M  V30 4940 N 453.399 5.72533 -4.06387 0
M  V30 4941 H 458.239 1.50011 -2.57489 0
M  V30 4942 H 455.776 0.730298 -1.27691 0
M  V30 4943 H 457.734 3.81572 -1.68698 0
M  V30 4944 H 456.364 3.1345 -0.771306 0
M  V30 4945 H 455.416 2.28854 -3.03859 0
M  V30 4946 H 456.728 3.1732 -3.8485 0
M  V30 4947 H 455.882 5.3293 -2.89949 0
M  V30 4948 H 454.621 4.45457 -1.98542 0
M  V30 4949 H 453.626 3.62331 -4.13517 0
M  V30 4950 H 454.851 4.53134 -5.05812 0
M  V30 4951 H 452.797 5.74344 -3.16962 0
M  V30 4952 H 452.714 5.75643 -4.90073 0
M  V30 4953 H 453.982 6.63204 -4.0961 0
M  V30 4954 N 458.211 1.37122 0.776871 0
M  V30 4955 C 459.121 1.34651 1.9211 0
M  V30 4956 C 460.137 0.246824 1.7224 0
M  V30 4957 O 461.313 0.48134 1.95563 0
M  V30 4958 C 458.378 1.14748 3.2716 0
M  V30 4959 C 457.439 2.34308 3.5972 0
M  V30 4960 C 456.672 2.15345 4.88326 0
M  V30 4961 O 456.895 1.13507 5.58992 0
M  V30 4962 O 455.829 3.03414 5.1983 0
M  V30 4963 H 459.655 2.31013 1.97146 0
M  V30 4964 H 457.24 1.17799 0.918901 0
M  V30 4965 H 459.122 1.05616 4.0795 0
M  V30 4966 H 457.797 0.214562 3.22988 0
M  V30 4967 H 456.704 2.49011 2.79185 0
M  V30 4968 H 458.037 3.26149 3.68629 0
M  V30 4969 N 459.689 -1.00246 1.21608 0
M  V30 4970 C 460.914 -1.78167 1.06167 0
M  V30 4971 C 461.339 -1.84138 -0.384035 0
M  V30 4972 O 460.697 -1.28683 -1.27712 0
M  V30 4973 C 460.745 -3.19786 1.66642 0
M  V30 4974 O 459.849 -4.02153 0.913613 0
M  V30 4975 H 459.19 -0.549 0.37349 0
M  V30 4976 H 461.72 -1.25994 1.61204 0
M  V30 4977 H 461.73 -3.70451 1.70969 0
M  V30 4978 H 460.405 -3.14754 2.7185 0
M  V30 4979 H 458.982 -3.60711 0.945635 0
M  V30 4980 N 461.167 -1.02423 -1.1978 0
M  V30 4981 C 462.392 -0.7373 -1.93852 0
M  V30 4982 C 462.817 0.696923 -1.74713 0
M  V30 4983 O 462.175 1.48056 -1.04638 0
M  V30 4984 C 462.223 -1.08783 -3.438 0
M  V30 4985 O 461.327 -0.20383 -4.11896 0
M  V30 4986 H 460.668 -0.27284 -0.605355 0
M  V30 4987 H 463.198 -1.36966 -1.51992 0
M  V30 4988 H 463.208 -1.04276 -3.9445 0
M  V30 4989 H 461.883 -2.13274 -3.57053 0
M  V30 4990 H 460.46 -0.307091 -3.71633 0
M  V30 4991 N 462.645 1.35699 -0.801477 0
M  V30 4992 C 463.592 2.29876 -0.206294 0
M  V30 4993 C 464.562 1.52565 0.656752 0
M  V30 4994 O 465.747 1.81024 0.602906 0
M  V30 4995 C 462.887 3.39052 0.643272 0
M  V30 4996 C 462 4.31335 -0.239644 0
M  V30 4997 C 461.135 5.27599 0.61744 0
M  V30 4998 C 460.174 6.11521 -0.26619 0
M  V30 4999 N 459.311 6.99938 0.550571 0
M  V30 5000 H 464.151 2.80187 -1.01484 0
M  V30 5001 H 461.688 1.37902 -0.511997 0
M  V30 5002 H 463.646 4.0101 1.15094 0
M  V30 5003 H 462.276 2.9003 1.41713 0
M  V30 5004 H 461.328 3.70426 -0.865381 0
M  V30 5005 H 462.64 4.90243 -0.919985 0
M  V30 5006 H 461.794 5.94906 1.19045 0
M  V30 5007 H 460.533 4.69176 1.33137 0
M  V30 5008 H 459.538 5.43166 -0.851507 0
M  V30 5009 H 460.763 6.72022 -0.9779 0
M  V30 5010 H 458.709 6.44008 1.24856 0
M  V30 5011 H 458.626 7.55966 -0.071832 0
M  V30 5012 H 459.894 7.71599 1.10702 0
M  V30 5013 N 464.123 0.554532 1.47522 0
M  V30 5014 C 465.348 0.0322661 2.07375 0
M  V30 5015 C 465.773 -1.25079 1.40488 0
M  V30 5016 O 465.131 -1.74859 0.47896 0
M  V30 5017 C 465.179 -0.149397 3.6029 0
M  V30 5018 O 464.283 -1.21259 3.9417 0
M  V30 5019 H 463.624 0.0501228 0.662106 0
M  V30 5020 H 466.154 0.769452 1.8958 0
M  V30 5021 H 466.164 -0.364437 4.06369 0
M  V30 5022 H 464.839 0.787743 4.08372 0
M  V30 5023 H 463.416 -0.97825 3.5984 0
M  V30 5024 N 465.601 -1.54893 0.290851 0
M  V30 5025 C 466.534 -2.19289 -0.631489 0
M  V30 5026 C 467.512 -1.15893 -1.14051 0
M  V30 5027 O 468.696 -1.4449 -1.21058 0
M  V30 5028 C 465.823 -2.82866 -1.86291 0
M  V30 5029 C 464.869 -3.997 -1.48801 0
M  V30 5030 S 465.702 -5.32641 -0.552644 0
M  V30 5031 C 466.858 -5.99696 -1.79209 0
M  V30 5032 H 467.091 -2.9718 -0.0843791 0
M  V30 5033 H 464.624 -1.54218 0.075031 0
M  V30 5034 H 466.582 -3.20124 -2.56964 0
M  V30 5035 H 465.243 -2.04839 -2.38117 0
M  V30 5036 H 464.436 -4.42932 -2.40473 0
M  V30 5037 H 464.038 -3.63947 -0.861321 0
M  V30 5038 H 466.33 -6.19886 -2.734 0
M  V30 5039 H 467.273 -6.94071 -1.40251 0
M  V30 5040 H 467.681 -5.29226 -1.96419 0
M  V30 5041 N 467.08 -0.0183926 -1.57589 0
M  V30 5042 C 468.308 0.673046 -1.95647 0
M  V30 5043 C 468.723 1.66275 -0.894312 0
M  V30 5044 O 468.08 1.82072 0.124975 0
M  V30 5045 C 468.131 1.38884 -3.33756 0
M  V30 5046 O 467.852 0.438806 -4.35897 0
M  V30 5047 C 469.353 2.1731 -3.86383 0
M  V30 5048 H 466.573 0.186292 -0.644621 0
M  V30 5049 H 469.117 -0.0749748 -2.04363 0
M  V30 5050 H 467.272 2.08835 -3.26293 0
M  V30 5051 H 467.686 0.945869 -5.15901 0
M  V30 5052 H 469.16 2.62863 -4.85394 0
M  V30 5053 H 469.637 3.00764 -3.20059 0
M  V30 5054 H 470.243 1.52339 -3.97081 0
M  V30 5055 N 468.558 1.5553 0.254621 0
M  V30 5056 C 469.804 1.77262 0.985193 0
M  V30 5057 C 470.137 0.582286 1.85265 0
M  V30 5058 O 469.412 -0.419666 1.89919 0
M  V30 5059 C 469.695 3.0881 1.85225 0
M  V30 5060 C 469.548 4.38233 1.0135 0
M  V30 5061 C 470.867 3.3653 2.83612 0
M  V30 5062 H 467.986 0.644906 0.356742 0
M  V30 5063 H 470.628 1.88264 0.256236 0
M  V30 5064 H 468.778 2.99562 2.47376 0
M  V30 5065 H 470.45 4.59463 0.411269 0
M  V30 5066 H 468.693 4.32636 0.317574 0
M  V30 5067 H 469.364 5.26644 1.65379 0
M  V30 5068 H 471.84 3.45691 2.31596 0
M  V30 5069 H 470.716 4.29805 3.41407 0
M  V30 5070 H 470.977 2.57064 3.59681 0
M  V30 5071 N 470.036 -0.519951 1.48776 0
M  V30 5072 C 470.946 -1.65025 1.66745 0
M  V30 5073 C 471.962 -1.6508 0.549954 0
M  V30 5074 O 473.138 -1.83848 0.822295 0
M  V30 5075 C 470.203 -3.0146 1.71238 0
M  V30 5076 C 469.264 -3.12182 2.94688 0
M  V30 5077 C 468.497 -4.42109 2.98958 0
M  V30 5078 O 468.72 -5.29799 2.1135 0
M  V30 5079 O 467.654 -4.57406 3.91233 0
M  V30 5080 H 471.48 -1.52801 2.62461 0
M  V30 5081 H 469.065 -0.694157 1.32294 0
M  V30 5082 H 470.947 -3.82584 1.76657 0
M  V30 5083 H 469.622 -3.13988 0.786975 0
M  V30 5084 H 468.529 -2.30316 2.94797 0
M  V30 5085 H 469.862 -3.04574 3.86646 0
M  V30 5086 N 471.514 -1.37532 -0.769588 0
M  V30 5087 C 472.76 -1.33057 -1.53048 0
M  V30 5088 C 473.093 0.0841865 -1.94017 0
M  V30 5089 O 472.368 1.04198 -1.64235 0
M  V30 5090 C 472.651 -2.27166 -2.79406 0
M  V30 5091 C 472.504 -3.77429 -2.44677 0
M  V30 5092 C 473.823 -2.19683 -3.81349 0
M  V30 5093 H 470.942 -0.484655 -0.555228 0
M  V30 5094 H 473.584 -1.68251 -0.882702 0
M  V30 5095 H 471.734 -1.97283 -3.34682 0
M  V30 5096 H 473.406 -4.17918 -1.953 0
M  V30 5097 H 471.649 -3.95892 -1.77346 0
M  V30 5098 H 472.32 -4.38716 -3.35011 0
M  V30 5099 H 474.796 -2.46029 -3.35573 0
M  V30 5100 H 473.672 -2.87668 -4.67481 0
M  V30 5101 H 473.933 -1.19045 -4.25771 0
M  V30 5102 N 472.992 0.995999 -1.22138 0
M  V30 5103 C 474.217 1.77601 -1.0711 0
M  V30 5104 C 474.642 1.84339 0.374264 0
M  V30 5105 O 474 1.29359 1.27028 0
M  V30 5106 C 474.048 3.18897 -1.68336 0
M  V30 5107 O 473.152 4.01663 -0.934928 0
M  V30 5108 H 472.493 0.547011 -0.376397 0
M  V30 5109 H 475.023 1.25137 -1.6187 0
M  V30 5110 H 475.033 3.69539 -1.72931 0
M  V30 5111 H 473.708 3.13308 -2.73516 0
M  V30 5112 H 472.285 3.60204 -0.964751 0
M  V30 5113 N 474.47 1.03057 1.19235 0
M  V30 5114 C 475.433 0.617418 2.20727 0
M  V30 5115 C 476.433 -0.319856 1.57587 0
M  V30 5116 O 477.623 -0.106633 1.73873 0
M  V30 5117 C 474.755 -0.096296 3.40764 0
M  V30 5118 H 475.948 1.51544 2.58794 0
M  V30 5119 H 473.501 0.821949 1.32942 0
M  V30 5120 H 474.236 -1.00859 3.08217 0
M  V30 5121 H 474.021 0.577217 3.87828 0
M  V30 5122 H 475.511 -0.372219 4.15938 0
M  V30 5123 N 475.948 -1.35272 0.808662 0
M  V30 5124 C 477.359 -1.81179 0.450688 0
M  V30 5125 C 477.71 -1.67143 -1.02751 0
M  V30 5126 O 476.835 -1.20325 -1.79864 0
M  V30 5127 C 477.43 -3.28943 0.811275 0
M  V30 5128 C 475.989 -3.72985 0.505871 0
M  V30 5129 C 475.136 -2.57229 1.03578 0
M  V30 5130 H 478.087 -1.2322 1.00012 0
M  V30 5131 H 478.108 -3.80342 0.109588 0
M  V30 5132 H 477.62 -3.39127 1.88718 0
M  V30 5133 H 475.721 -3.68349 -0.561209 0
M  V30 5134 H 475.834 -4.67677 1.03995 0
M  V30 5135 H 474.198 -2.50548 0.458005 0
M  V30 5136 H 474.981 -2.7019 2.11784 0
M  V30 5137 N 477.426 -0.562348 -1.47226 0
M  V30 5138 C 478.651 -0.0432632 -2.07355 0
M  V30 5139 C 479.076 1.24332 -1.41149 0
M  V30 5140 O 478.434 1.74603 -0.488226 0
M  V30 5141 C 478.482 0.130288 -3.60365 0
M  V30 5142 O 477.586 1.19166 -3.94808 0
M  V30 5143 H 476.927 -0.0536334 -0.66183 0
M  V30 5144 H 479.457 -0.779495 -1.89169 0
M  V30 5145 H 479.467 0.342881 -4.06557 0
M  V30 5146 H 478.142 -0.809389 -4.07948 0
M  V30 5147 H 476.719 0.959153 -3.60354 0
M  V30 5148 N 478.904 1.54736 -0.299062 0
M  V30 5149 C 480.152 1.99706 0.31017 0
M  V30 5150 C 480.473 1.18896 1.54559 0
M  V30 5151 O 479.743 0.284445 1.93824 0
M  V30 5152 H 478.323 0.737686 0.117596 0
M  V30 5153 H 480.985 1.9054 -0.409943 0
M  V30 5154 H 480.081 3.06596 0.58355 0
M  V30 5155 N 480.382 0.0267497 1.57577 0
M  V30 5156 C 481.631 -0.651736 1.9088 0
M  V30 5157 C 481.944 -1.73427 0.904576 0
M  V30 5158 O 483.15 -2.46923 1.12877 0
M  V30 5159 C 481.606 -1.21048 3.38933 0
M  V30 5160 C 481.214 -0.161362 4.47709 0
M  V30 5161 C 482.958 -1.86562 3.81307 0
M  V30 5162 C 480.865 -0.731611 5.86857 0
M  V30 5163 H 479.795 -0.247198 0.712326 0
M  V30 5164 H 482.446 0.0916641 1.83271 0
M  V30 5165 H 480.828 -2.00542 3.41466 0
M  V30 5166 H 482.002 0.61094 4.56732 0
M  V30 5167 H 480.317 0.394877 4.14523 0
M  V30 5168 H 482.914 -2.30178 4.8262 0
M  V30 5169 H 483.257 -2.70735 3.16241 0
M  V30 5170 H 483.79 -1.13762 3.81186 0
M  V30 5171 H 480.529 0.0719329 6.55461 0
M  V30 5172 H 480.049 -1.47245 5.81445 0
M  V30 5173 H 481.728 -1.22208 6.35354 0
M  V30 5174 N 481.861 -1.55662 -0.24637 0
M  V30 5175 C 483.109 -1.77168 -0.972411 0
M  V30 5176 C 483.43 -0.590827 -1.85834 0
M  V30 5177 O 482.7 0.393365 -1.9191 0
M  V30 5178 H 481.28 -0.653405 -0.362038 0
M  V30 5179 H 483.942 -1.93101 -0.264189 0
M  V30 5180 H 483.038 -2.68335 -1.59382 0
M  V30 5181 N 483.339 0.512053 -1.4905 0
M  V30 5182 C 484.755 0.84224 -1.35567 0
M  V30 5183 C 484.955 1.97878 -0.380319 0
M  V30 5184 O 484.011 2.51769 0.19201 0
M  V30 5185 C 485.324 1.19286 -2.76028 0
M  V30 5186 C 486.872 1.30171 -2.84648 0
M  V30 5187 C 487.347 1.68568 -4.25851 0
M  V30 5188 N 488.838 1.75638 -4.28609 0
M  V30 5189 C 489.573 2.06769 -5.34821 0
M  V30 5190 N 489.069 2.36201 -6.51292 0
M  V30 5191 N 490.862 2.07927 -5.22229 0
M  V30 5192 H 483.013 -0.237574 -2.11067 0
M  V30 5193 H 485.276 -0.0436747 -0.946993 0
M  V30 5194 H 484.982 0.431199 -3.49047 0
M  V30 5195 H 484.856 2.13889 -3.10695 0
M  V30 5196 H 487.243 2.05411 -2.11873 0
M  V30 5197 H 487.324 0.336457 -2.53578 0
M  V30 5198 H 486.968 0.938824 -4.99148 0
M  V30 5199 H 486.898 2.66174 -4.54377 0
M  V30 5200 H 489.389 1.55097 -3.44606 0
M  V30 5201 H 489.702 2.59112 -7.28066 0
M  V30 5202 H 488.047 2.33681 -6.54536 0
M  V30 5203 H 491.238 1.84403 -4.30248 0
M  V30 5204 H 491.411 2.31856 -6.05101 0
M  V30 5205 N 484.817 1.37938 0.762283 0
M  V30 5206 C 485.747 1.37176 1.88958 0
M  V30 5207 C 486.728 0.238945 1.68413 0
M  V30 5208 O 487.913 0.440726 1.89133 0
M  V30 5209 C 485.043 1.18742 3.2637 0
M  V30 5210 C 483.997 2.29136 3.61498 0
M  V30 5211 C 483.323 1.95816 4.97554 0
M  V30 5212 C 484.623 3.71363 3.6727 0
M  V30 5213 H 486.317 2.31509 1.89853 0
M  V30 5214 H 483.863 1.11438 0.912005 0
M  V30 5215 H 485.816 1.16837 4.04879 0
M  V30 5216 H 484.54 0.208683 3.25933 0
M  V30 5217 H 483.199 2.30213 2.85303 0
M  V30 5218 H 482.847 0.964475 4.93667 0
M  V30 5219 H 482.547 2.69745 5.22026 0
M  V30 5220 H 484.071 1.95513 5.78452 0
M  V30 5221 H 485.485 3.72364 4.35911 0
M  V30 5222 H 483.882 4.44425 4.03245 0
M  V30 5223 H 484.952 4.04305 2.67704 0
M  V30 5224 N 486.295 -0.989507 1.22664 0
M  V30 5225 C 487.706 -1.54406 1.04955 0
M  V30 5226 C 488.057 -1.92366 -0.385951 0
M  V30 5227 O 487.182 -1.75111 -1.27142 0
M  V30 5228 C 487.777 -2.80578 1.89899 0
M  V30 5229 C 486.336 -3.32464 1.76478 0
M  V30 5230 C 485.483 -2.05524 1.86159 0
M  V30 5231 H 488.434 -0.810211 1.3646 0
M  V30 5232 H 488.455 -3.53075 1.4184 0
M  V30 5233 H 487.967 -2.52918 2.94371 0
M  V30 5234 H 486.068 -3.65024 0.747528 0
M  V30 5235 H 486.181 -4.02838 2.59342 0
M  V30 5236 H 484.545 -2.19241 1.29636 0
M  V30 5237 H 485.328 -1.80258 2.92168 0
M  V30 5238 N 487.773 -1.03688 -1.18687 0
M  V30 5239 C 488.703 -0.645407 -2.24403 0
M  V30 5240 C 489.684 0.349511 -1.66471 0
M  V30 5241 O 490.869 0.230453 -1.92828 0
M  V30 5242 C 487.999 -0.00365337 -3.473 0
M  V30 5243 C 486.953 -0.921705 -4.17958 0
M  V30 5244 C 486.279 -0.144629 -5.34504 0
M  V30 5245 C 487.579 -2.23909 -4.71871 0
M  V30 5246 H 489.273 -1.52917 -2.57404 0
M  V30 5247 H 486.819 -0.736711 -1.23728 0
M  V30 5248 H 488.772 0.281908 -4.20456 0
M  V30 5249 H 487.496 0.914963 -3.13522 0
M  V30 5250 H 486.155 -1.19159 -3.46694 0
M  V30 5251 H 485.803 0.776274 -4.96974 0
M  V30 5252 H 485.503 -0.756206 -5.82714 0
M  V30 5253 H 487.027 0.134004 -6.10453 0
M  V30 5254 H 488.441 -2.0145 -5.36741 0
M  V30 5255 H 486.838 -2.8033 -5.30599 0
M  V30 5256 H 487.908 -2.88822 -3.895 0
M  V30 5257 N 489.251 1.34841 -0.815825 0
M  V30 5258 C 490.181 2.32187 -0.247298 0
M  V30 5259 C 491.162 1.5791 0.632344 0
M  V30 5260 O 492.347 1.8593 0.560698 0
M  V30 5261 C 489.477 3.42122 0.597466 0
M  V30 5262 C 488.431 4.27602 -0.184446 0
M  V30 5263 C 487.757 5.28942 0.782609 0
M  V30 5264 C 489.057 5.03502 -1.38865 0
M  V30 5265 H 490.751 2.79985 -1.06061 0
M  V30 5266 H 488.297 1.34611 -0.511461 0
M  V30 5267 H 490.25 4.09232 1.00533 0
M  V30 5268 H 488.974 2.92956 1.44376 0
M  V30 5269 H 487.633 3.62085 -0.573592 0
M  V30 5270 H 487.281 4.7604 1.62466 0
M  V30 5271 H 486.981 5.87008 0.263695 0
M  V30 5272 H 488.505 5.98922 1.18848 0
M  V30 5273 H 489.919 5.63506 -1.05518 0
M  V30 5274 H 488.316 5.71108 -1.8427 0
M  V30 5275 H 489.386 4.33608 -2.17054 0
M  V30 5276 N 490.729 0.570148 1.46925 0
M  V30 5277 C 491.677 -0.183181 2.31878 0
M  V30 5278 C 492.671 -0.896721 1.43719 0
M  V30 5279 O 493.877 -0.816536 1.60414 0
M  V30 5280 H 490.252 -0.077944 0.74795 0
M  V30 5281 H 492.223 0.552312 2.93244 0
M  V30 5282 C 490.972 -1.19172 3.2664 0
M  V30 5283 H 490.295 -0.652088 3.94446 0
M  V30 5284 H 491.735 -1.68946 3.88887 0
M  V30 5285 C 490.194 -2.24627 2.51086 0
M  V30 5286 O 490.724 -3.31773 2.26472 0
M  V30 5287 N 488.93 -1.98898 2.11867 0
M  V30 5288 H 488.477 -1.11777 2.32086 0
M  V30 5289 H 488.435 -2.6967 1.61634 0
M  V30 5290 N 492.207 -1.54576 0.307264 0
M  V30 5291 C 493.618 -1.8579 -0.184121 0
M  V30 5292 C 493.969 -1.22914 -1.52927 0
M  V30 5293 O 493.094 -0.529126 -2.09831 0
M  V30 5294 C 493.689 -3.37081 -0.340862 0
M  V30 5295 C 492.248 -3.68304 -0.776465 0
M  V30 5296 C 491.395 -2.77076 0.111503 0
M  V30 5297 H 494.346 -1.49656 0.528078 0
M  V30 5298 H 494.367 -3.61922 -1.17443 0
M  V30 5299 H 493.879 -3.82815 0.638309 0
M  V30 5300 H 491.98 -3.28092 -1.76596 0
M  V30 5301 H 492.093 -4.75434 -0.591512 0
M  V30 5302 H 490.457 -2.51374 -0.410256 0
M  V30 5303 H 491.24 -3.25632 1.08714 0
M  V30 5304 N 493.685 -0.035106 -1.57561 0
M  V30 5305 C 494.934 0.641604 -1.91223 0
M  V30 5306 C 495.247 1.72944 -0.913761 0
M  V30 5307 O 496.453 2.46321 -1.14185 0
M  V30 5308 C 494.909 1.19249 -3.3957 0
M  V30 5309 C 494.517 0.137616 -4.47789 0
M  V30 5310 C 496.261 1.84537 -3.82291 0
M  V30 5311 C 494.168 0.700478 -5.87237 0
M  V30 5312 H 493.098 0.243417 -0.713627 0
M  V30 5313 H 495.749 -0.101382 -1.8322 0
M  V30 5314 H 494.131 1.98728 -3.42525 0
M  V30 5315 H 495.305 -0.635153 -4.56402 0
M  V30 5316 H 493.62 -0.416855 -4.14308 0
M  V30 5317 H 496.217 2.27616 -4.83834 0
M  V30 5318 H 496.56 2.69054 -3.17672 0
M  V30 5319 H 497.093 1.11739 -3.81784 0
M  V30 5320 H 493.832 -0.106693 -6.55413 0
M  V30 5321 H 493.352 1.4416 -5.82218 0
M  V30 5322 H 495.031 1.18837 -6.35993 0
M  V30 5323 O 495.202 1.61149 0.106394 0
M  V30 5324 H 495.893 1.7916 0.736293 0
M  V30 END ATOM
M  V30 BEGIN BOND
M  V30 END BOND
M  V30 END CTAB
M  END
$$$$
