drugbank_target|Q15391 P2Y purinoceptor 14 (DB01069)
 OpenBabel12092121213D

  0  0  0     0  0            999 V3000
M  V30 BEGIN CTAB
M  V30 COUNTS 5624 5695 0 0 0
M  V30 BEGIN ATOM
M  V30 1 H -0.908 1.98254 -0.117106 0
M  V30 2 N 0 1.576 0 0
M  V30 3 C 0.933 2.03868 1.02534 0
M  V30 4 C 1.911 0.928543 1.3348 0
M  V30 5 O 3.095 1.19667 1.45644 0
M  V30 6 C 0.222 2.43627 2.35294 0
M  V30 7 C -0.732 3.65373 2.2001 0
M  V30 8 S 0.101 5.13292 1.52614 0
M  V30 9 C 1.257 5.56322 2.86805 0
M  V30 10 H 1.49 2.90518 0.631377 0
M  V30 11 H -0.977 1.52953 0.210867 0
M  V30 12 H 0.981 2.67203 3.11629 0
M  V30 13 H -0.358 1.57376 2.7183 0
M  V30 14 H -1.165 3.90944 3.18086 0
M  V30 15 H -1.563 3.418 1.51819 0
M  V30 16 H 0.729 5.58782 3.83104 0
M  V30 17 H 1.672 6.56266 2.65933 0
M  V30 18 H 2.08 4.83886 2.90714 0
M  V30 19 N 1.4781 -0.272755 1.55222 0
M  V30 20 C 2.7271 -1.00211 1.75045 0
M  V30 21 C 3.0401 -1.87441 0.559046 0
M  V30 22 O 4.2461 -2.63856 0.639698 0
M  V30 23 C 2.7021 -1.83165 3.09804 0
M  V30 24 C 2.3101 -1.008 4.36513 0
M  V30 25 C 4.0541 -2.55529 3.38977 0
M  V30 26 C 1.9611 -1.83194 5.62311 0
M  V30 27 H 0.8911 -0.377878 0.652476 0
M  V30 28 H 3.5421 -0.257776 1.8168 0
M  V30 29 H 1.9241 -2.61694 2.97207 0
M  V30 30 H 3.0981 -0.266855 4.60027 0
M  V30 31 H 1.4131 -0.398897 4.14485 0
M  V30 32 H 4.0101 -3.17578 4.30172 0
M  V30 33 H 4.3531 -3.25825 2.59121 0
M  V30 34 H 4.8861 -1.84029 3.52673 0
M  V30 35 H 1.6251 -1.17318 6.44916 0
M  V30 36 H 1.1451 -2.54905 5.4294 0
M  V30 37 H 2.8241 -2.40552 6.00619 0
M  V30 38 N 2.9562 -1.48159 -0.537278 0
M  V30 39 C 3.9042 -1.62573 -1.66352 0
M  V30 40 C 4.8982 -0.492366 -1.62087 0
M  V30 41 O 6.1042 -0.670847 -1.67032 0
M  V30 42 H 2.4792 -0.511992 -0.550789 0
M  V30 43 H 4.4502 -2.57176 -1.51337 0
M  V30 44 C 3.1992 -1.67583 -3.04649 0
M  V30 45 H 2.5222 -2.54151 -3.08622 0
M  V30 46 H 3.9622 -1.81713 -3.83088 0
M  V30 47 C 2.4212 -0.413039 -3.34358 0
M  V30 48 O 2.9512 0.477259 -3.98855 0
M  V30 49 N 1.1572 -0.286961 -2.8918 0
M  V30 50 H 0.7042 -1.01241 -2.36871 0
M  V30 51 H 0.6622 0.556963 -3.09427 0
M  V30 52 N 4.4343 0.785586 -1.36625 0
M  V30 53 C 5.6593 1.57963 -1.34397 0
M  V30 54 C 6.0843 1.87964 0.071526 0
M  V30 55 O 5.4423 1.48182 1.0446 0
M  V30 56 C 5.4903 2.87511 -2.17646 0
M  V30 57 O 4.5943 3.81281 -1.57158 0
M  V30 58 H 3.9353 0.479014 -0.459828 0
M  V30 59 H 6.4653 0.973411 -1.79961 0
M  V30 60 H 6.4753 3.36745 -2.30362 0
M  V30 61 H 5.1503 2.65002 -3.20541 0
M  V30 62 H 3.7273 3.39885 -1.53403 0
M  V30 63 N 5.9124 1.20967 1.01018 0
M  V30 64 C 7.1404 1.04956 1.78303 0
M  V30 65 C 7.5554 -0.400915 1.84494 0
M  V30 66 O 6.9124 -1.27826 1.30257 0
M  V30 67 C 6.9634 1.63403 3.22462 0
M  V30 68 O 6.6844 3.02775 3.16637 0
M  V30 69 C 8.1854 1.52432 4.16268 0
M  V30 70 H 5.4054 0.368858 0.560522 0
M  V30 71 H 7.9494 1.60193 1.27116 0
M  V30 72 H 6.1044 1.1227 3.70775 0
M  V30 73 H 6.5184 3.30626 4.07169 0
M  V30 74 H 7.9924 1.98078 5.15237 0
M  V30 75 H 8.4694 0.477875 4.36592 0
M  V30 76 H 9.0754 2.02787 3.73841 0
M  V30 77 N 7.3905 -1.2043 1.01659 0
M  V30 78 C 8.6155 -1.94318 0.724942 0
M  V30 79 C 9.0405 -1.74266 -0.708034 0
M  V30 80 O 8.3985 -1.03694 -1.48719 0
M  V30 81 C 8.4465 -3.44486 1.06591 0
M  V30 82 O 7.5505 -4.12017 0.177599 0
M  V30 83 H 6.8915 -0.60708 0.26898 0
M  V30 84 H 9.4215 -1.52861 1.35995 0
M  V30 85 H 9.4315 -3.95106 1.01762 0
M  V30 86 H 8.1065 -3.58404 2.10997 0
M  V30 87 H 6.6835 -3.71821 0.283421 0
M  V30 88 N 8.8686 -0.792821 -1.36206 0
M  V30 89 C 10.0966 -0.378825 -2.03402 0
M  V30 90 C 10.5116 1.00586 -1.59774 0
M  V30 91 O 9.8686 1.64574 -0.788764 0
M  V30 92 C 9.9196 -0.43683 -3.58851 0
M  V30 93 O 9.6406 -1.76691 -4.00889 0
M  V30 94 C 11.1416 -0.0138943 -4.43298 0
M  V30 95 H 8.3616 -0.155673 -0.652692 0
M  V30 96 H 10.9056 -1.07261 -1.74113 0
M  V30 97 H 9.0606 0.208575 -3.86838 0
M  V30 98 H 9.4746 -1.72011 -4.95492 0
M  V30 99 H 10.9486 -0.105615 -5.51899 0
M  V30 100 H 11.4256 1.03915 -4.2673 0
M  V30 101 H 12.0316 -0.63192 -4.20579 0
M  V30 102 N 10.3467 1.47872 -0.545128 0
M  V30 103 C 11.2787 2.27869 0.246621 0
M  V30 104 C 12.2917 1.36282 0.890561 0
M  V30 105 O 13.4807 1.61207 0.766449 0
M  V30 106 C 10.5807 3.10159 1.36582 0
M  V30 107 C 9.7537 4.29627 0.820954 0
M  V30 108 C 8.8127 4.93607 1.82314 0
M  V30 109 O 7.8387 5.52366 1.37406 0
M  V30 110 N 9.0407 4.87211 3.15603 0
M  V30 111 H 11.8057 2.96459 -0.439539 0
M  V30 112 H 9.3667 1.57367 -0.380421 0
M  V30 113 H 11.3587 3.49829 2.03474 0
M  V30 114 H 9.9287 2.43891 1.9554 0
M  V30 115 H 9.1487 3.94192 -0.0244032 0
M  V30 116 H 10.4367 5.06928 0.436063 0
M  V30 117 H 9.8347 4.40651 3.54744 0
M  V30 118 H 8.3917 5.30937 3.78087 0
M  V30 119 N 11.8248 0.280983 1.55075 0
M  V30 120 C 13.2358 -0.215629 1.85451 0
M  V30 121 C 13.5868 -1.54991 1.203 0
M  V30 122 O 12.7118 -2.10699 0.493435 0
M  V30 123 C 13.3068 -0.398026 3.36454 0
M  V30 124 C 11.8658 -0.838866 3.66933 0
M  V30 125 C 11.0128 0.064458 2.77225 0
M  V30 126 H 13.9638 0.502601 1.50531 0
M  V30 127 H 13.9848 -1.23569 3.59876 0
M  V30 128 H 13.4968 0.573241 3.83843 0
M  V30 129 H 11.5978 -1.8214 3.25048 0
M  V30 130 H 11.7108 -0.672123 4.74362 0
M  V30 131 H 10.0748 -0.452863 2.50642 0
M  V30 132 H 10.8578 1.03172 3.2743 0
M  V30 133 N 13.3029 -1.57598 0.00835791 0
M  V30 134 C 14.7139 -1.7892 -0.53333 0
M  V30 135 C 15.0649 -0.916609 -1.73473 0
M  V30 136 O 14.1899 -0.121336 -2.1606 0
M  V30 137 C 14.7849 -3.24488 -0.974313 0
M  V30 138 C 13.3439 -3.46878 -1.46125 0
M  V30 139 C 12.4909 -2.74157 -0.416302 0
M  V30 140 H 15.4419 -1.56958 0.234495 0
M  V30 141 H 15.4629 -3.3306 -1.83988 0
M  V30 142 H 14.9749 -3.87972 -0.099718 0
M  V30 143 H 13.0759 -2.8862 -2.35646 0
M  V30 144 H 13.1889 -4.55572 -1.48295 0
M  V30 145 H 11.5529 -2.39022 -0.87981 0
M  V30 146 H 12.3359 -3.40345 0.44947 0
M  V30 147 N 14.781 0.264519 -1.55364 0
M  V30 148 C 16.058 1.01677 -1.67096 0
M  V30 149 C 16.438 2.03996 -0.543015 0
M  V30 150 O 15.786 2.23907 0.45585 0
M  V30 151 C 15.996 1.66596 -3.0667 0
M  V30 152 C 17.344 2.17442 -3.64697 0
M  V30 153 O 18.368 1.76568 -3.09358 0
M  V30 154 O 17.227 2.92439 -4.61673 0
M  V30 155 H 14.321 0.472161 -0.678965 0
M  V30 156 H 16.867 0.259703 -1.67701 0
M  V30 157 H 15.639 0.924962 -3.80211 0
M  V30 158 H 15.262 2.48968 -3.10001 0
M  V30 159 N 16.2591 1.48442 0.529413 0
M  V30 160 C 17.1691 1.6569 1.66084 0
M  V30 161 C 18.1851 0.539432 1.65427 0
M  V30 162 O 19.3611 0.810572 1.84368 0
M  V30 163 C 16.4261 1.69315 3.02545 0
M  V30 164 C 15.4871 2.92694 3.14052 0
M  V30 165 C 14.7201 2.96137 4.44003 0
M  V30 166 O 14.9431 2.07973 5.31134 0
M  V30 167 O 13.8771 3.88312 4.59888 0
M  V30 168 H 17.7031 2.61483 1.54469 0
M  V30 169 H 15.2881 1.3185 0.702567 0
M  V30 170 H 17.1701 1.74217 3.83701 0
M  V30 171 H 15.8451 0.766966 3.14483 0
M  V30 172 H 14.7521 2.93324 2.32189 0
M  V30 173 H 16.0851 3.84699 3.0703 0
M  V30 174 N 17.7372 -0.778329 1.37039 0
M  V30 175 C 18.9622 -1.57248 1.35233 0
M  V30 176 C 19.3872 -1.87999 -0.0615568 0
M  V30 177 O 18.7452 -1.48734 -1.03672 0
M  V30 178 C 18.7932 -2.86353 2.19167 0
M  V30 179 O 17.8972 -3.80442 1.59178 0
M  V30 180 H 17.2382 -0.476569 0.462362 0
M  V30 181 H 19.7682 -0.963853 1.80474 0
M  V30 182 H 19.7782 -3.35519 2.32145 0
M  V30 183 H 18.4532 -2.63299 3.21942 0
M  V30 184 H 17.0302 -3.39067 1.55203 0
M  V30 185 N 19.2153 -1.21501 -1.00376 0
M  V30 186 C 20.4553 -1.04444 -1.75701 0
M  V30 187 C 20.8193 0.414644 -1.87469 0
M  V30 188 O 22.0203 0.705763 -2.59369 0
M  V30 189 C 20.2913 -1.72389 -3.13077 0
M  V30 190 S 21.8503 -1.70604 -4.04277 0
M  V30 191 H 18.6683 -0.374249 -0.604532 0
M  V30 192 H 21.2703 -1.54267 -1.20091 0
M  V30 193 H 19.9743 -2.77734 -3.02146 0
M  V30 194 H 19.5053 -1.22751 -3.73759 0
M  V30 195 H 21.5203 -0.748012 -4.9053 0
M  V30 196 N 20.6934 1.19889 -1.02296 0
M  V30 197 C 21.9184 1.9393 -0.735237 0
M  V30 198 C 22.3434 1.74639 0.698782 0
M  V30 199 O 21.7014 1.04481 1.48167 0
M  V30 200 C 21.7494 3.43916 -1.08417 0
M  V30 201 O 20.8534 4.11917 -0.199446 0
M  V30 202 H 20.1944 0.605645 -0.272196 0
M  V30 203 H 22.7244 1.52137 -1.36804 0
M  V30 204 H 22.7344 3.9456 -1.03856 0
M  V30 205 H 21.4094 3.5728 -2.12894 0
M  V30 206 H 19.9864 3.71666 -0.303136 0
M  V30 207 N 22.1715 0.800033 1.35784 0
M  V30 208 C 23.1035 0.163596 2.28615 0
M  V30 209 C 24.1165 -0.633317 1.49976 0
M  V30 210 O 25.3055 -0.466754 1.72289 0
M  V30 211 C 22.4055 -0.790958 3.29541 0
M  V30 212 C 21.5785 -0.0418255 4.3738 0
M  V30 213 C 20.6375 -0.91389 5.18203 0
M  V30 214 O 19.6635 -0.367234 5.68014 0
M  V30 215 N 20.8655 -2.23682 5.35674 0
M  V30 216 H 23.6305 0.96105 2.83873 0
M  V30 217 H 21.1915 0.654894 1.48063 0
M  V30 218 H 23.1835 -1.37844 3.80501 0
M  V30 219 H 21.7535 -1.48925 2.74846 0
M  V30 220 H 20.9735 0.726813 3.87442 0
M  V30 221 H 22.2615 0.474719 5.06581 0
M  V30 222 H 21.6595 -2.70497 4.96838 0
M  V30 223 H 20.2165 -2.77369 5.89839 0
M  V30 224 N 23.6496 -1.47581 0.552962 0
M  V30 225 C 24.5976 -2.31648 -0.21023 0
M  V30 226 C 25.5916 -1.42663 -0.913432 0
M  V30 227 O 26.7976 -1.5945 -0.835201 0
M  V30 228 H 23.1726 -0.746989 -0.0866676 0
M  V30 229 H 25.1436 -2.93869 0.518051 0
M  V30 230 C 23.8926 -3.25226 -1.22976 0
M  V30 231 H 23.2156 -3.93658 -0.698077 0
M  V30 232 H 24.6556 -3.86889 -1.73473 0
M  V30 233 C 23.1146 -2.48448 -2.27542 0
M  V30 234 O 23.6446 -2.22585 -3.34393 0
M  V30 235 N 21.8506 -2.09532 -2.01357 0
M  V30 236 H 21.3976 -2.30765 -1.14478 0
M  V30 237 H 21.3556 -1.58476 -2.71538 0
M  V30 238 N 25.1277 -0.289203 -1.54924 0
M  V30 239 C 26.0577 0.58549 -2.2604 0
M  V30 240 C 27.0387 1.14753 -1.25562 0
M  V30 241 O 28.2237 1.17906 -1.54311 0
M  V30 242 C 25.3537 1.76305 -2.99222 0
M  V30 243 C 24.3077 1.33191 -4.06748 0
M  V30 244 C 23.6337 2.5937 -4.6758 0
M  V30 245 C 24.9337 0.471775 -5.20165 0
M  V30 246 H 26.6277 -0.00763532 -2.99399 0
M  V30 247 H 24.1737 -0.00511229 -1.43999 0
M  V30 248 H 26.1267 2.38097 -3.47689 0
M  V30 249 H 24.8507 2.38223 -2.23422 0
M  V30 250 H 23.5097 0.737121 -3.59113 0
M  V30 251 H 23.1577 3.19576 -3.88433 0
M  V30 252 H 22.8577 2.31228 -5.40192 0
M  V30 253 H 24.3817 3.21985 -5.18804 0
M  V30 254 H 25.7957 0.995056 -5.64599 0
M  V30 255 H 24.1927 0.284639 -5.99425 0
M  V30 256 H 25.2627 -0.506041 -4.82252 0
M  V30 257 N 26.6058 1.57591 -0.0167156 0
M  V30 258 C 27.5358 2.12496 0.967858 0
M  V30 259 C 28.5168 1.03807 1.34752 0
M  V30 260 O 29.7018 1.31577 1.42833 0
M  V30 261 C 26.8318 2.64194 2.25431 0
M  V30 262 C 25.7858 3.77559 2.01576 0
M  V30 263 C 25.1118 4.15636 3.36379 0
M  V30 264 C 26.4118 5.04151 1.36489 0
M  V30 265 H 28.1058 2.95013 0.510643 0
M  V30 266 H 25.6518 1.41915 0.244181 0
M  V30 267 H 27.6048 3.01236 2.94678 0
M  V30 268 H 26.3288 1.78821 2.73296 0
M  V30 269 H 24.9878 3.40937 1.34751 0
M  V30 270 H 24.6358 3.27263 3.81979 0
M  V30 271 H 24.3358 4.92022 3.21229 0
M  V30 272 H 25.8598 4.5525 4.06915 0
M  V30 273 H 27.2738 5.38857 1.95718 0
M  V30 274 H 25.6708 5.85453 1.31776 0
M  V30 275 H 26.7408 4.83733 0.336219 0
M  V30 276 N 28.0839 -0.256276 1.55502 0
M  V30 277 C 29.3329 -0.983486 1.76098 0
M  V30 278 C 29.6459 -1.86837 0.578896 0
M  V30 279 O 30.8519 -2.63163 0.667648 0
M  V30 280 C 29.3079 -1.79868 3.1173 0
M  V30 281 C 28.9159 -0.961648 4.37557 0
M  V30 282 C 30.6599 -2.51919 3.41668 0
M  V30 283 C 28.5669 -1.77219 5.64223 0
M  V30 284 H 27.4969 -0.370936 0.656447 0
M  V30 285 H 30.1479 -0.238492 1.81944 0
M  V30 286 H 28.5299 -2.58527 2.99966 0
M  V30 287 H 29.7039 -0.218048 4.60284 0
M  V30 288 H 28.0189 -0.354913 4.14885 0
M  V30 289 H 30.6159 -3.12998 4.33516 0
M  V30 290 H 30.9589 -3.23059 2.62562 0
M  V30 291 H 31.4919 -1.80278 3.54605 0
M  V30 292 H 28.2309 -1.10471 6.46124 0
M  V30 293 H 27.7509 -2.49132 5.45613 0
M  V30 294 H 29.4299 -2.34169 6.03137 0
M  V30 295 N 29.562 -1.4872 -0.521534 0
M  V30 296 C 30.79 -1.60843 -1.30142 0
M  V30 297 C 31.205 -0.271897 -1.86832 0
M  V30 298 O 30.562 0.739969 -1.66825 0
M  V30 299 C 30.613 -2.66155 -2.4463 0
M  V30 300 O 30.334 -3.94623 -1.90275 0
M  V30 301 C 31.835 -2.88795 -3.36322 0
M  V30 302 H 29.055 -0.542075 -0.395468 0
M  V30 303 H 31.599 -1.94609 -0.628285 0
M  V30 304 H 29.754 -2.35224 -3.07812 0
M  V30 305 H 30.168 -4.52468 -2.65279 0
M  V30 306 H 31.642 -3.66264 -4.12983 0
M  V30 307 H 32.119 -1.97934 -3.9207 0
M  V30 308 H 32.725 -3.21063 -2.78924 0
M  V30 309 N 31.0401 0.771051 -1.3745 0
M  V30 310 C 31.9721 1.89352 -1.29146 0
M  V30 311 C 32.9851 1.61477 -0.207124 0
M  V30 312 O 34.1741 1.72382 -0.463324 0
M  V30 313 C 31.2741 3.24596 -0.974195 0
M  V30 314 C 30.4471 3.80111 -2.16413 0
M  V30 315 C 29.5061 4.93832 -1.81703 0
M  V30 316 O 28.5321 5.09382 -2.54006 0
M  V30 317 N 29.7341 5.75483 -0.761573 0
M  V30 318 H 32.4991 1.96991 -2.25864 0
M  V30 319 H 30.0601 0.950191 -1.31084 0
M  V30 320 H 32.0521 3.98193 -0.722828 0
M  V30 321 H 30.6221 3.12454 -0.0955527 0
M  V30 322 H 29.8421 2.98284 -2.57721 0
M  V30 323 H 31.1301 4.13932 -2.95867 0
M  V30 324 H 30.5281 5.65469 -0.161609 0
M  V30 325 H 29.0851 6.49302 -0.570064 0
M  V30 326 N 32.5182 1.22032 0.997298 0
M  V30 327 C 33.4502 0.944263 2.08845 0
M  V30 328 C 34.4632 -0.0754663 1.62625 0
M  V30 329 O 35.6522 0.157994 1.77799 0
M  V30 330 C 32.7522 0.397723 3.36558 0
M  V30 331 C 31.9252 1.47362 4.11829 0
M  V30 332 C 30.9842 0.934951 5.17827 0
M  V30 333 O 30.0102 1.62016 5.45655 0
M  V30 334 N 31.2122 -0.245895 5.79979 0
M  V30 335 H 33.9772 1.88363 2.33109 0
M  V30 336 H 31.5382 1.12661 1.16272 0
M  V30 337 H 33.5302 0.0227771 4.04694 0
M  V30 338 H 32.1002 -0.446646 3.09393 0
M  V30 339 H 31.3202 2.02208 3.38386 0
M  V30 340 H 32.6082 2.19764 4.58891 0
M  V30 341 H 32.0062 -0.819475 5.59733 0
M  V30 342 H 30.5632 -0.562272 6.4937 0
M  V30 343 N 33.9963 -1.19345 1.0293 0
M  V30 344 C 35.2453 -1.88363 0.721256 0
M  V30 345 C 35.5583 -1.80514 -0.753254 0
M  V30 346 O 36.7643 -2.44788 -1.17436 0
M  V30 347 C 35.2203 -3.37872 1.23978 0
M  V30 348 C 34.8283 -3.54278 2.74211 0
M  V30 349 C 36.5723 -4.12365 1.00775 0
M  V30 350 C 34.4793 -4.97682 3.19479 0
M  V30 351 H 33.4093 -0.705484 0.266098 0
M  V30 352 H 36.0603 -1.34928 1.24365 0
M  V30 353 H 34.4423 -3.90707 0.6453 0
M  V30 354 H 35.6163 -3.11769 3.39318 0
M  V30 355 H 33.9313 -2.93174 2.95699 0
M  V30 356 H 36.5283 -5.18119 1.32123 0
M  V30 357 H 36.8713 -4.16263 -0.0554308 0
M  V30 358 H 37.4043 -3.65668 1.56625 0
M  V30 359 H 34.1433 -4.98945 4.25128 0
M  V30 360 H 33.6633 -5.4095 2.591 0
M  V30 361 H 35.3423 -5.66337 3.12845 0
M  V30 362 N 35.4744 -0.807222 -1.35358 0
M  V30 363 C 36.7234 -0.384376 -1.98004 0
M  V30 364 C 37.0364 1.0543 -1.64754 0
M  V30 365 O 38.2424 1.58029 -2.20769 0
M  V30 366 C 36.6984 -0.636326 -3.5423 0
M  V30 367 C 36.3064 -2.08759 -3.96388 0
M  V30 368 C 38.0504 -0.278869 -4.23583 0
M  V30 369 C 35.9574 -2.28525 -5.45463 0
M  V30 370 H 34.8874 -0.139986 -0.740891 0
M  V30 371 H 37.5384 -0.991369 -1.54415 0
M  V30 372 H 35.9204 0.0406256 -3.95979 0
M  V30 373 H 37.0944 -2.8024 -3.6579 0
M  V30 374 H 35.4094 -2.40497 -3.39926 0
M  V30 375 H 38.0064 -0.404599 -5.33167 0
M  V30 376 H 38.3494 0.775012 -4.09022 0
M  V30 377 H 38.8824 -0.909764 -3.87257 0
M  V30 378 H 35.6214 -3.32361 -5.64992 0
M  V30 379 H 35.1414 -1.61569 -5.77629 0
M  V30 380 H 36.8204 -2.10109 -6.11934 0
M  V30 381 N 36.9525 1.47285 -0.560781 0
M  V30 382 C 38.3635 1.86258 -0.128343 0
M  V30 383 C 38.7145 1.46699 1.30284 0
M  V30 384 O 37.8395 0.871698 1.98067 0
M  V30 385 C 38.4345 3.38044 -0.22614 0
M  V30 386 C 36.9935 3.76096 0.151283 0
M  V30 387 C 36.1405 2.71335 -0.572084 0
M  V30 388 H 39.0915 1.38752 -0.770297 0
M  V30 389 H 39.1125 3.76441 0.554322 0
M  V30 390 H 38.6245 3.66806 -1.26788 0
M  V30 391 H 36.7255 3.52951 1.19399 0
M  V30 392 H 36.8385 4.78641 -0.209765 0
M  V30 393 H 35.2025 2.54696 -0.0147653 0
M  V30 394 H 35.9855 3.02938 -1.61504 0
M  V30 395 N 38.4306 0.297415 1.54768 0
M  V30 396 C 39.6766 -0.313376 2.00364 0
M  V30 397 C 40.0096 -1.53815 1.18553 0
M  V30 398 O 39.2846 -1.92739 0.261103 0
M  V30 399 C 39.5676 -0.673525 3.53745 0
M  V30 400 C 39.4206 0.560133 4.46299 0
M  V30 401 C 40.7396 -1.50143 4.13697 0
M  V30 402 H 37.8586 -0.112428 0.728374 0
M  V30 403 H 40.5006 0.4088 1.8555 0
M  V30 404 H 38.6506 -1.28881 3.665 0
M  V30 405 H 40.3226 1.19863 4.45455 0
M  V30 406 H 38.5656 1.19405 4.17043 0
M  V30 407 H 39.2366 0.26405 5.51368 0
M  V30 408 H 41.7126 -0.981588 4.04356 0
M  V30 409 H 40.5886 -1.72221 5.21182 0
M  V30 410 H 40.8496 -2.48952 3.65343 0
M  V30 411 N 39.9087 -1.5758 0.0250728 0
M  V30 412 C 40.8387 -2.13007 -0.956575 0
M  V30 413 C 41.8197 -1.0452 -1.342 0
M  V30 414 O 43.0047 -1.32332 -1.42133 0
M  V30 415 C 40.1347 -2.65386 -2.24026 0
M  V30 416 C 39.0887 -3.78623 -1.99571 0
M  V30 417 C 38.4147 -4.17414 -3.3417 0
M  V30 418 C 39.7147 -5.04867 -1.33814 0
M  V30 419 H 41.4087 -2.9528 -0.494991 0
M  V30 420 H 38.9547 -1.42042 -0.236651 0
M  V30 421 H 40.9077 -3.02794 -2.93076 0
M  V30 422 H 39.6317 -1.80268 -2.72343 0
M  V30 423 H 38.2907 -3.41646 -1.32941 0
M  V30 424 H 37.9387 -3.29284 -3.80238 0
M  V30 425 H 37.6387 -4.93719 -3.18615 0
M  V30 426 H 39.1627 -4.57402 -4.04495 0
M  V30 427 H 40.5767 -5.39888 -1.92857 0
M  V30 428 H 38.9737 -5.86144 -1.28669 0
M  V30 429 H 40.0437 -4.83904 -0.310561 0
M  V30 430 N 41.3868 0.248026 -1.55636 0
M  V30 431 C 42.6168 0.992367 -1.81206 0
M  V30 432 C 43.0248 1.7949 -0.598324 0
M  V30 433 O 42.3678 1.78292 0.442434 0
M  V30 434 C 42.4298 1.97926 -3.00109 0
M  V30 435 C 42.0938 1.36377 -4.36177 0
M  V30 436 C 43.0908 0.76682 -5.14214 0
M  V30 437 C 40.7758 1.38347 -4.82872 0
M  V30 438 C 42.7698 0.197778 -6.37093 0
M  V30 439 C 40.4568 0.810574 -6.057 0
M  V30 440 C 41.4548 0.218754 -6.8265 0
M  V30 441 O 41.1428 -0.345298 -8.03158 0
M  V30 442 H 40.8748 0.297704 -0.606917 0
M  V30 443 H 43.4288 0.276517 -2.0353 0
M  V30 444 H 41.6588 2.73339 -2.73538 0
M  V30 445 H 43.3478 2.58694 -3.12781 0
M  V30 446 H 44.1138 0.744114 -4.79258 0
M  V30 447 H 39.9928 1.8335 -4.2297 0
M  V30 448 H 43.5368 -0.264788 -6.97097 0
M  V30 449 H 39.4338 0.830604 -6.40134 0
M  V30 450 H 40.2018 -0.237055 -8.18157 0
M  V30 451 N 42.8649 1.48995 0.513639 0
M  V30 452 C 44.1049 1.59452 1.27885 0
M  V30 453 C 44.4689 0.269479 1.90099 0
M  V30 454 O 45.6699 0.249139 2.67643 0
M  V30 455 C 43.9409 2.71277 2.32688 0
M  V30 456 S 45.4999 3.01604 3.18717 0
M  V30 457 H 42.3179 0.562565 0.434789 0
M  V30 458 H 44.9199 1.86595 0.583301 0
M  V30 459 H 43.6239 3.66089 1.8549 0
M  V30 460 H 43.1549 2.46086 3.06929 0
M  V30 461 H 45.1699 2.42155 4.331 0
M  V30 462 N 44.343 -0.763751 1.37857 0
M  V30 463 C 45.276 -1.88486 1.28639 0
M  V30 464 C 46.254 -1.61757 0.165363 0
M  V30 465 O 47.438 -1.85391 0.340948 0
M  V30 466 C 44.565 -3.23884 0.990811 0
M  V30 467 C 43.611 -3.69514 2.12983 0
M  V30 468 S 44.444 -3.82244 3.75033 0
M  V30 469 C 45.6 -5.20477 3.47641 0
M  V30 470 H 45.833 -1.96017 2.23527 0
M  V30 471 H 43.366 -0.925684 1.23574 0
M  V30 472 H 45.324 -4.02081 0.827101 0
M  V30 473 H 43.985 -3.14044 0.0592832 0
M  V30 474 H 43.178 -4.67696 1.87821 0
M  V30 475 H 42.78 -2.98441 2.25408 0
M  V30 476 H 45.072 -6.05905 3.03125 0
M  V30 477 H 46.015 -5.50655 4.4518 0
M  V30 478 H 46.423 -4.88793 2.82385 0
M  V30 479 N 45.8211 -1.22559 -0.990812 0
M  V30 480 C 47.0671 -1.05297 -1.73322 0
M  V30 481 C 47.4001 0.410655 -1.89808 0
M  V30 482 O 46.6751 1.30439 -1.44277 0
M  V30 483 C 46.9581 -1.76713 -3.13759 0
M  V30 484 C 46.8111 -3.30684 -3.04907 0
M  V30 485 C 48.1301 -1.52121 -4.12974 0
M  V30 486 H 45.2491 -0.38392 -0.629106 0
M  V30 487 H 47.8911 -1.50926 -1.15418 0
M  V30 488 H 46.0411 -1.37924 -3.63193 0
M  V30 489 H 47.7131 -3.7893 -2.63077 0
M  V30 490 H 45.9561 -3.60253 -2.41661 0
M  V30 491 H 46.6271 -3.75833 -4.04294 0
M  V30 492 H 49.1031 -1.85819 -3.72304 0
M  V30 493 H 47.9791 -2.04582 -5.0935 0
M  V30 494 H 48.2401 -0.454257 -4.3976 0
M  V30 495 N 47.2992 1.18797 -1.03562 0
M  V30 496 C 48.5462 1.8865 -0.736023 0
M  V30 497 C 48.8742 1.80041 0.735889 0
M  V30 498 O 48.1292 1.19179 1.55225 0
M  V30 499 C 48.4282 3.38692 -1.14117 0
M  V30 500 C 48.0942 3.67504 -2.6125 0
M  V30 501 C 46.7562 3.75078 -3.01447 0
M  V30 502 C 49.1082 3.80293 -3.56408 0
M  V30 503 C 46.4362 3.92915 -4.35701 0
M  V30 504 C 48.7882 3.99645 -4.90374 0
M  V30 505 C 47.4522 4.05453 -5.30249 0
M  V30 506 H 46.7222 0.690321 -0.26933 0
M  V30 507 H 49.3692 1.40641 -1.29971 0
M  V30 508 H 47.6742 3.88645 -0.496202 0
M  V30 509 H 49.3712 3.91072 -0.886789 0
M  V30 510 H 45.9612 3.62223 -2.29113 0
M  V30 511 H 50.1452 3.73779 -3.26501 0
M  V30 512 H 45.4012 3.95653 -4.66121 0
M  V30 513 H 49.5752 4.08482 -5.64017 0
M  V30 514 H 47.2022 4.19027 -6.34288 0
M  V30 515 N 48.7773 0.814389 1.34928 0
M  V30 516 C 50.0263 0.394871 1.97797 0
M  V30 517 C 50.3393 -1.04555 1.65311 0
M  V30 518 O 51.5453 -1.56856 2.21604 0
M  V30 519 C 50.0013 0.655103 3.53888 0
M  V30 520 C 49.6093 2.10858 3.95276 0
M  V30 521 C 51.3533 0.301329 4.23429 0
M  V30 522 C 49.2603 2.31415 5.44244 0
M  V30 523 H 48.1903 0.143913 0.740139 0
M  V30 524 H 50.8413 0.999544 1.53888 0
M  V30 525 H 49.2233 -0.0196253 3.95995 0
M  V30 526 H 50.3973 2.82176 3.64298 0
M  V30 527 H 48.7123 2.42297 3.38646 0
M  V30 528 H 51.3093 0.432869 5.32945 0
M  V30 529 H 51.6523 -0.75331 4.09428 0
M  V30 530 H 52.1853 0.930288 3.86769 0
M  V30 531 H 48.9243 3.35353 5.63222 0
M  V30 532 H 48.4443 1.6463 5.76764 0
M  V30 533 H 50.1233 2.13352 6.10811 0
M  V30 534 N 50.2554 -1.46986 0.568584 0
M  V30 535 C 51.2184 -2.28624 -0.162366 0
M  V30 536 C 52.2184 -1.37596 -0.832103 0
M  V30 537 O 53.4084 -1.60115 -0.68622 0
M  V30 538 C 50.5404 -3.17596 -1.23878 0
M  V30 539 H 51.7334 -2.94722 0.554899 0
M  V30 540 H 49.2864 -1.52863 0.325976 0
M  V30 541 H 50.0214 -2.56214 -1.98808 0
M  V30 542 H 49.8064 -3.846 -0.763219 0
M  V30 543 H 51.2964 -3.79078 -1.75185 0
M  V30 544 N 51.7335 -0.305618 -1.54608 0
M  V30 545 C 52.9815 0.301701 -1.99835 0
M  V30 546 C 53.3025 1.54054 -1.19551 0
M  V30 547 O 52.5725 1.93702 -0.292658 0
M  V30 548 H 51.1525 0.114468 -0.738178 0
M  V30 549 H 53.8145 -0.418016 -1.90364 0
M  V30 550 H 52.9105 0.570548 -3.06841 0
M  V30 551 N 53.2116 1.57565 -0.0334293 0
M  V30 552 C 54.4606 1.91155 0.643639 0
M  V30 553 C 54.7736 0.91192 1.73042 0
M  V30 554 O 55.9796 1.13923 2.46442 0
M  V30 555 C 54.4356 3.39443 1.1961 0
M  V30 556 C 54.0436 4.47774 0.142381 0
M  V30 557 C 55.7876 3.82094 1.84944 0
M  V30 558 C 53.6946 5.87162 0.706727 0
M  V30 559 H 52.6246 0.713368 0.244176 0
M  V30 560 H 55.2756 1.8323 -0.0994323 0
M  V30 561 H 53.6576 3.42313 1.99092 0
M  V30 562 H 54.8316 4.56469 -0.630296 0
M  V30 563 H 53.1466 4.14352 -0.412446 0
M  V30 564 H 55.7436 4.83591 2.2813 0
M  V30 565 H 56.0866 3.17386 2.69392 0
M  V30 566 H 56.6196 3.81665 1.12145 0
M  V30 567 H 53.3586 6.55424 -0.0997178 0
M  V30 568 H 52.8786 5.82064 1.44779 0
M  V30 569 H 54.5576 6.35866 1.19514 0
M  V30 570 N 54.6897 -0.239769 1.55765 0
M  V30 571 C 55.6197 -1.30052 1.9393 0
M  V30 572 C 56.6007 -1.49839 0.805132 0
M  V30 573 O 57.7857 -1.62328 1.06599 0
M  V30 574 C 54.9157 -2.65391 2.2402 0
M  V30 575 C 53.8697 -2.60289 3.39755 0
M  V30 576 C 53.1957 -3.99489 3.55405 0
M  V30 577 C 54.4957 -2.16654 4.75246 0
M  V30 578 H 56.1897 -0.983573 2.82783 0
M  V30 579 H 53.7357 -0.471701 1.36055 0
M  V30 580 H 55.6887 -3.3974 2.49308 0
M  V30 581 H 54.4127 -2.98736 1.32 0
M  V30 582 H 53.0717 -1.88398 3.14487 0
M  V30 583 H 52.7197 -4.30112 2.60793 0
M  V30 584 H 52.4197 -3.96962 4.33238 0
M  V30 585 H 53.9437 -4.75528 3.83022 0
M  V30 586 H 55.3577 -2.80737 4.99859 0
M  V30 587 H 53.7547 -2.25223 5.56232 0
M  V30 588 H 54.8247 -1.11835 4.71827 0
M  V30 589 N 56.1678 -1.49265 -0.50573 0
M  V30 590 C 57.0978 -1.68495 -1.61653 0
M  V30 591 C 58.0788 -0.53366 -1.61512 0
M  V30 592 O 59.2638 -0.76897 -1.78327 0
M  V30 593 C 56.3938 -1.74709 -3.00157 0
M  V30 594 C 55.3478 -2.89581 -3.15162 0
M  V30 595 C 54.6738 -2.80903 -4.5497 0
M  V30 596 C 55.9738 -4.30578 -2.95634 0
M  V30 597 H 57.6678 -2.61493 -1.45814 0
M  V30 598 H 55.2138 -1.25838 -0.70005 0
M  V30 599 H 57.1668 -1.86748 -3.77761 0
M  V30 600 H 55.8908 -0.783067 -3.17074 0
M  V30 601 H 54.5498 -2.77136 -2.39982 0
M  V30 602 H 54.1978 -1.82419 -4.68756 0
M  V30 603 H 53.8978 -3.57999 -4.65951 0
M  V30 604 H 55.4218 -2.94944 -5.34641 0
M  V30 605 H 56.8358 -4.4373 -3.63011 0
M  V30 606 H 55.2328 -5.0886 -3.18091 0
M  V30 607 H 56.3028 -4.45352 -1.91806 0
M  V30 608 N 57.6459 0.756429 -1.3826 0
M  V30 609 C 58.5939 1.89149 -1.35372 0
M  V30 610 C 59.5879 1.67691 -0.24004 0
M  V30 611 O 60.7939 1.75294 -0.408919 0
M  V30 612 H 57.1689 0.622271 -0.422236 0
M  V30 613 H 59.1399 1.88701 -2.31159 0
M  V30 614 C 57.8889 3.26599 -1.19284 0
M  V30 615 H 57.2119 3.43695 -2.0424 0
M  V30 616 H 58.6519 4.06274 -1.21316 0
M  V30 617 C 57.1109 3.3675 0.100454 0
M  V30 618 O 57.6409 3.86951 1.07851 0
M  V30 619 N 55.8469 2.90179 0.15633 0
M  V30 620 H 55.3939 2.49517 -0.640253 0
M  V30 621 H 55.3519 2.97352 1.02123 0
M  V30 622 N 59.124 1.23083 0.984299 0
M  V30 623 C 60.372 1.05848 1.72165 0
M  V30 624 C 60.693 -0.406049 1.90726 0
M  V30 625 O 59.963 -1.29139 1.47309 0
M  V30 626 H 58.543 0.388685 0.637913 0
M  V30 627 H 61.205 1.54736 1.18503 0
M  V30 628 H 60.301 1.54327 2.71274 0
M  V30 629 N 60.6021 -1.18246 1.0419 0
M  V30 630 C 61.8481 -1.88536 0.747122 0
M  V30 631 C 62.1811 -1.80223 -0.723409 0
M  V30 632 O 61.4561 -1.20337 -1.52804 0
M  V30 633 C 61.7391 -3.38968 1.21544 0
M  V30 634 C 61.5921 -3.56084 2.74816 0
M  V30 635 C 62.9111 -4.32648 0.806482 0
M  V30 636 H 60.0301 -0.684619 0.272883 0
M  V30 637 H 62.6721 -1.39113 1.29413 0
M  V30 638 H 60.8221 -3.8119 0.750081 0
M  V30 639 H 62.4941 -3.22946 3.29399 0
M  V30 640 H 60.7371 -2.98699 3.14582 0
M  V30 641 H 61.4081 -4.61639 3.02644 0
M  V30 642 H 63.8841 -3.98211 1.20695 0
M  V30 643 H 62.7601 -5.36462 1.1619 0
M  V30 644 H 63.0211 -4.41146 -0.29029 0
M  V30 645 N 62.0802 -0.821533 -1.34494 0
M  V30 646 C 63.3052 -0.420873 -2.03085 0
M  V30 647 C 63.7302 0.964915 -1.61465 0
M  V30 648 O 63.0882 1.62763 -0.798607 0
M  V30 649 C 63.1362 -0.529414 -3.56693 0
M  V30 650 O 62.2402 0.451302 -4.09923 0
M  V30 651 H 61.5812 -0.173489 -0.640935 0
M  V30 652 H 64.1112 -1.11157 -1.71771 0
M  V30 653 H 64.1212 -0.404671 -4.05988 0
M  V30 654 H 62.7962 -1.54014 -3.86332 0
M  V30 655 H 61.3732 0.285558 -3.71805 0
M  V30 656 N 63.5583 1.46682 -0.576371 0
M  V30 657 C 64.8063 2.02013 -0.0594163 0
M  V30 658 C 65.1273 1.45101 1.30271 0
M  V30 659 O 64.3973 0.633317 1.8538 0
M  V30 660 H 62.9773 0.746759 -0.0189745 0
M  V30 661 H 65.6393 1.79862 -0.750717 0
M  V30 662 H 64.7353 3.12097 0.014345 0
M  V30 663 N 65.0364 0.313813 1.54444 0
M  V30 664 C 66.2824 -0.284918 2.01395 0
M  V30 665 C 66.6374 -1.50537 1.19818 0
M  V30 666 O 65.9304 -1.89692 0.269748 0
M  V30 667 C 66.1244 -0.680386 3.50864 0
M  V30 668 C 65.9534 0.500198 4.4691 0
M  V30 669 C 64.7234 0.996248 4.95382 0
M  V30 670 C 66.9214 1.34928 4.96285 0
M  V30 671 N 64.9034 2.14226 5.75309 0
M  V30 672 C 66.2744 2.3426 5.7404 0
M  V30 673 C 68.3294 1.37818 4.78446 0
M  V30 674 C 67.0324 3.36272 6.35856 0
M  V30 675 C 69.0584 2.38695 5.4109 0
M  V30 676 C 68.4204 3.36755 6.18688 0
M  V30 677 H 64.5194 -0.0683689 0.779006 0
M  V30 678 H 67.1034 0.44664 1.89508 0
M  V30 679 H 65.2744 -1.38109 3.63016 0
M  V30 680 H 67.0064 -1.25975 3.84594 0
M  V30 681 H 63.7614 0.56912 4.70168 0
M  V30 682 H 64.1854 2.72005 6.19953 0
M  V30 683 H 68.8274 0.633747 4.18023 0
M  V30 684 H 66.5454 4.11627 6.95405 0
M  V30 685 H 70.1314 2.41721 5.29209 0
M  V30 686 H 69.0114 4.13535 6.66302 0
M  V30 687 N 66.5145 -1.57545 0.0417849 0
M  V30 688 C 67.7635 -1.91494 -0.633492 0
M  V30 689 C 68.0765 -0.921084 -1.72556 0
M  V30 690 O 69.2825 -1.15228 -2.45835 0
M  V30 691 C 67.7385 -3.40072 -1.17808 0
M  V30 692 C 67.3465 -4.47843 -0.118633 0
M  V30 693 C 69.0905 -3.8307 -1.82915 0
M  V30 694 C 66.9975 -5.87529 -0.675578 0
M  V30 695 H 65.9275 -0.714653 -0.24039 0
M  V30 696 H 68.5785 -1.83175 0.109148 0
M  V30 697 H 66.9605 -3.43364 -1.97274 0
M  V30 698 H 68.1345 -4.56128 0.654494 0
M  V30 699 H 66.4495 -4.14128 0.434414 0
M  V30 700 H 69.0465 -4.84794 -2.25563 0
M  V30 701 H 69.3895 -3.1881 -2.67705 0
M  V30 702 H 69.9225 -3.82255 -1.10119 0
M  V30 703 H 66.6615 -6.55362 0.134475 0
M  V30 704 H 66.1815 -5.82824 -1.4169 0
M  V30 705 H 67.8605 -6.36491 -1.1614 0
M  V30 706 N 67.9926 0.231505 -1.5589 0
M  V30 707 C 69.2396 0.957352 -1.78441 0
M  V30 708 C 69.5676 1.84726 -0.60882 0
M  V30 709 O 68.8226 1.91416 0.40725 0
M  V30 710 C 69.1216 1.83577 -3.0665 0
M  V30 711 C 68.7876 1.09993 -4.37278 0
M  V30 712 C 67.4496 0.896629 -4.72773 0
M  V30 713 C 69.8016 0.579558 -5.17968 0
M  V30 714 C 67.1296 0.160896 -5.86479 0
M  V30 715 C 69.4816 -0.142783 -6.32439 0
M  V30 716 C 68.1456 -0.357427 -6.66542 0
M  V30 717 H 67.4156 0.35032 -0.65296 0
M  V30 718 H 70.0626 0.226259 -1.90159 0
M  V30 719 H 68.3676 2.63441 -2.90011 0
M  V30 720 H 70.0646 2.39934 -3.21298 0
M  V30 721 H 66.6546 1.26835 -4.09403 0
M  V30 722 H 70.8386 0.724125 -4.90989 0
M  V30 723 H 66.0946 -0.0157293 -6.11398 0
M  V30 724 H 70.2686 -0.553559 -6.94196 0
M  V30 725 H 67.8956 -0.929466 -7.54497 0
M  V30 726 N 69.4707 1.49531 0.497807 0
M  V30 727 C 70.7177 1.59179 1.25173 0
M  V30 728 C 71.0457 0.279932 1.92475 0
M  V30 729 O 70.3007 -0.732383 1.81479 0
M  V30 730 C 70.5997 2.70252 2.33878 0
M  V30 731 C 70.2657 4.11644 1.84012 0
M  V30 732 C 68.9277 4.50121 1.70132 0
M  V30 733 C 71.2797 5.00121 1.46725 0
M  V30 734 C 68.6077 5.74845 1.17348 0
M  V30 735 C 70.9597 6.25366 0.95392 0
M  V30 736 C 69.6237 6.6267 0.801538 0
M  V30 737 H 68.8937 0.582478 0.45804 0
M  V30 738 H 71.5407 1.83373 0.551948 0
M  V30 739 H 69.8457 2.40041 3.09657 0
M  V30 740 H 71.5427 2.74925 2.9192 0
M  V30 741 H 68.1327 3.81274 1.95775 0
M  V30 742 H 72.3167 4.71048 1.56294 0
M  V30 743 H 67.5727 6.02444 1.04264 0
M  V30 744 H 71.7467 6.93301 0.656225 0
M  V30 745 H 69.3737 7.59197 0.390351 0
M  V30 746 N 70.9488 -0.749086 1.3866 0
M  V30 747 C 72.1788 -1.53611 1.38157 0
M  V30 748 C 72.5868 -1.89177 -0.0293595 0
M  V30 749 O 71.9298 -1.53606 -1.00752 0
M  V30 750 C 71.9918 -2.86087 2.17702 0
M  V30 751 C 71.6558 -2.73034 3.66472 0
M  V30 752 C 72.6528 -2.42526 4.59866 0
M  V30 753 C 70.3378 -2.90345 4.09884 0
M  V30 754 C 72.3318 -2.29492 5.94653 0
M  V30 755 C 70.0188 -2.7693 5.4475 0
M  V30 756 C 71.0168 -2.46547 6.36949 0
M  V30 757 O 70.7048 -2.33199 7.69333 0
M  V30 758 H 70.4368 -0.481773 0.474205 0
M  V30 759 H 72.9908 -0.934465 1.82912 0
M  V30 760 H 71.2208 -3.48458 1.67672 0
M  V30 761 H 72.9098 -3.47625 2.09551 0
M  V30 762 H 73.6758 -2.28816 4.27631 0
M  V30 763 H 69.5548 -3.1299 3.38464 0
M  V30 764 H 73.0988 -2.05698 6.66584 0
M  V30 765 H 68.9958 -2.90215 5.76581 0
M  V30 766 H 69.7638 -2.48376 7.79905 0
M  V30 767 N 72.4269 -1.23603 -0.977757 0
M  V30 768 C 73.6729 -1.07129 -1.72195 0
M  V30 769 C 74.0059 0.390501 -1.90233 0
M  V30 770 O 73.2809 1.28902 -1.45653 0
M  V30 771 C 73.5639 -1.80031 -3.11867 0
M  V30 772 C 73.4169 -3.33899 -3.01383 0
M  V30 773 C 74.7359 -1.56492 -4.11337 0
M  V30 774 H 71.8549 -0.390571 -0.624999 0
M  V30 775 H 74.4969 -1.52142 -1.13811 0
M  V30 776 H 72.6469 -1.41768 -3.6171 0
M  V30 777 H 74.3189 -3.81699 -2.59043 0
M  V30 778 H 72.5619 -3.62796 -2.37827 0
M  V30 779 H 73.2329 -3.801 -4.00285 0
M  V30 780 H 75.7089 -1.89757 -3.70313 0
M  V30 781 H 74.5849 -2.09973 -5.07151 0
M  V30 782 H 74.8459 -0.500874 -4.39254 0
M  V30 783 N 73.905 1.17692 -1.04816 0
M  V30 784 C 75.316 1.69501 -0.782698 0
M  V30 785 C 75.667 1.83456 0.695577 0
M  V30 786 O 74.792 1.51942 1.54086 0
M  V30 787 C 75.387 3.07874 -1.41419 0
M  V30 788 C 73.946 3.56864 -1.19686 0
M  V30 789 C 73.093 2.3322 -1.50012 0
M  V30 790 H 76.044 1.02262 -1.2136 0
M  V30 791 H 76.065 3.71528 -0.821428 0
M  V30 792 H 75.577 2.97685 -2.49009 0
M  V30 793 H 73.678 3.72337 -0.140043 0
M  V30 794 H 73.791 4.39851 -1.89916 0
M  V30 795 H 72.155 2.37501 -0.920071 0
M  V30 796 H 72.938 2.25644 -2.58727 0
M  V30 797 N 75.3831 0.828654 1.34056 0
M  V30 798 C 76.6081 0.431637 2.02859 0
M  V30 799 C 77.0331 -0.956339 1.61975 0
M  V30 800 O 76.3911 -1.62338 0.807228 0
M  V30 801 C 76.4391 0.548323 3.56407 0
M  V30 802 O 75.5431 -0.429556 4.10157 0
M  V30 803 H 74.8841 0.176886 0.640006 0
M  V30 804 H 77.4141 1.12066 1.71179 0
M  V30 805 H 77.4241 0.426196 4.05768 0
M  V30 806 H 76.0991 1.5606 3.8551 0
M  V30 807 H 74.6761 -0.265836 3.71951 0
M  V30 808 N 76.8612 -1.46375 0.584142 0
M  V30 809 C 78.0862 -2.07268 0.0740405 0
M  V30 810 C 78.5112 -1.42979 -1.22223 0
M  V30 811 O 77.8692 -0.514092 -1.73859 0
M  V30 812 C 77.9172 -3.60518 -0.0767769 0
M  V30 813 O 77.0212 -3.96533 -1.13292 0
M  V30 814 H 76.3622 -0.660961 0.0634524 0
M  V30 815 H 78.8922 -1.87991 0.807492 0
M  V30 816 H 78.9022 -4.07021 -0.282489 0
M  V30 817 H 77.5772 -4.06702 0.86986 0
M  V30 818 H 76.1542 -3.61738 -0.905553 0
M  V30 819 N 78.3393 -0.321999 -1.54275 0
M  V30 820 C 79.2863 0.544664 -2.24281 0
M  V30 821 C 80.2563 1.1129 -1.23303 0
M  V30 822 O 81.4413 1.15354 -1.51981 0
M  V30 823 C 78.5813 1.70045 -3.00298 0
M  V30 824 C 77.6943 1.16159 -4.1609 0
M  V30 825 C 76.8293 2.28293 -4.79641 0
M  V30 826 C 75.8683 1.71648 -5.8754 0
M  V30 827 N 75.0053 2.77438 -6.44959 0
M  V30 828 H 79.8453 -0.0588907 -2.97942 0
M  V30 829 H 77.3823 -0.0408345 -1.47043 0
M  V30 830 H 79.3403 2.38054 -3.42616 0
M  V30 831 H 77.9703 2.27531 -2.28975 0
M  V30 832 H 77.0223 0.373092 -3.78566 0
M  V30 833 H 78.3343 0.707087 -4.93763 0
M  V30 834 H 77.4883 3.0421 -5.2492 0
M  V30 835 H 76.2273 2.77079 -4.01346 0
M  V30 836 H 75.2323 0.942282 -5.41665 0
M  V30 837 H 76.4573 1.23741 -6.67731 0
M  V30 838 H 74.4033 3.25519 -5.69538 0
M  V30 839 H 74.3203 2.36547 -7.1804 0
M  V30 840 H 75.5883 3.53189 -6.94894 0
M  V30 841 N 79.8174 1.5752 -0.0501392 0
M  V30 842 C 81.0424 1.97376 0.636997 0
M  V30 843 C 81.4674 0.927466 1.63645 0
M  V30 844 O 80.8254 -0.10941 1.8097 0
M  V30 845 C 80.8734 3.36304 1.30123 0
M  V30 846 O 79.9774 3.34156 2.41689 0
M  V30 847 H 79.3184 0.642998 0.165679 0
M  V30 848 H 81.8484 2.04258 -0.118233 0
M  V30 849 H 81.8584 3.73008 1.65315 0
M  V30 850 H 80.5334 4.11993 0.568746 0
M  V30 851 H 79.1104 3.09196 2.08451 0
M  V30 852 N 81.2955 -0.223234 1.56011 0
M  V30 853 C 82.5425 -0.947875 1.78946 0
M  V30 854 C 82.8705 -1.844 0.618608 0
M  V30 855 O 82.1255 -1.91629 -0.397093 0
M  V30 856 C 82.4245 -1.81948 3.0762 0
M  V30 857 C 82.0905 -1.07672 4.37856 0
M  V30 858 C 80.7525 -0.871544 4.73242 0
M  V30 859 C 83.1045 -0.552081 5.18268 0
M  V30 860 C 80.4325 -0.129791 5.86556 0
M  V30 861 C 82.7845 0.17632 6.32354 0
M  V30 862 C 81.4485 0.39277 6.66343 0
M  V30 863 H 80.7185 -0.346852 0.654809 0
M  V30 864 H 83.3655 -0.216171 1.90276 0
M  V30 865 H 81.6705 -2.61899 2.91404 0
M  V30 866 H 83.3675 -2.38227 3.22566 0
M  V30 867 H 79.9575 -1.24662 4.1007 0
M  V30 868 H 84.1415 -0.698076 4.91366 0
M  V30 869 H 79.3975 0.048153 6.11381 0
M  V30 870 H 83.5715 0.590367 6.93893 0
M  V30 871 H 81.1985 0.969466 7.53993 0
M  V30 872 N 82.7736 -1.49793 -0.48987 0
M  V30 873 C 84.0226 -1.59085 -1.23995 0
M  V30 874 C 84.3356 -0.287907 -1.9347 0
M  V30 875 O 85.5416 -0.259506 -2.70257 0
M  V30 876 C 83.9976 -2.80736 -2.252 0
M  V30 877 C 83.6056 -4.17833 -1.61614 0
M  V30 878 C 85.3496 -2.99364 -3.00967 0
M  V30 879 C 83.2566 -5.30693 -2.60996 0
M  V30 880 H 82.1866 -0.592372 -0.466488 0
M  V30 881 H 84.8376 -1.76197 -0.51252 0
M  V30 882 H 83.2196 -2.57142 -3.01154 0
M  V30 883 H 84.3936 -4.51608 -0.915774 0
M  V30 884 H 82.7086 -4.04656 -0.981977 0
M  V30 885 H 85.3056 -3.80851 -3.75308 0
M  V30 886 H 85.6486 -2.10356 -3.59244 0
M  V30 887 H 86.1816 -3.2305 -2.32128 0
M  V30 888 H 82.9206 -6.21796 -2.07485 0
M  V30 889 H 82.4406 -5.01359 -3.2924 0
M  V30 890 H 84.1196 -5.6049 -3.23202 0
M  V30 891 N 84.2517 0.741722 -1.39055 0
M  V30 892 C 85.5007 1.49656 -1.35225 0
M  V30 893 C 85.8137 1.95533 0.0512708 0
M  V30 894 O 87.0197 2.7067 0.212138 0
M  V30 895 C 85.4757 2.70389 -2.37525 0
M  V30 896 C 85.0837 2.31489 -3.83558 0
M  V30 897 C 86.8277 3.48236 -2.42759 0
M  V30 898 C 84.7347 3.48903 -4.77515 0
M  V30 899 H 83.6647 0.56197 -0.502699 0
M  V30 900 H 86.3157 0.809727 -1.64668 0
M  V30 901 H 84.6977 3.41113 -2.01142 0
M  V30 902 H 85.8717 1.68354 -4.28945 0
M  V30 903 H 84.1867 1.66749 -3.81554 0
M  V30 904 H 86.7837 4.35558 -3.1015 0
M  V30 905 H 87.1267 3.90229 -1.45008 0
M  V30 906 H 87.6597 2.84535 -2.78002 0
M  V30 907 H 84.3987 3.11966 -5.76504 0
M  V30 908 H 83.9187 4.11041 -4.36813 0
M  V30 909 H 85.5977 4.15328 -4.96096 0
M  V30 910 N 85.7298 1.2412 0.971189 0
M  V30 911 C 86.9598 1.10415 1.7462 0
M  V30 912 C 87.3678 -0.346462 1.86001 0
M  V30 913 O 86.7108 -1.25104 1.34517 0
M  V30 914 C 86.7728 1.66596 3.18568 0
M  V30 915 C 86.4368 3.15446 3.3067 0
M  V30 916 C 87.4338 4.12636 3.16271 0
M  V30 917 C 85.1188 3.55337 3.55022 0
M  V30 918 C 87.1128 5.47699 3.26044 0
M  V30 919 C 84.7998 4.90542 3.64434 0
M  V30 920 C 85.7978 5.86532 3.49956 0
M  V30 921 O 85.4858 7.19279 3.59017 0
M  V30 922 H 85.2178 0.386616 0.55453 0
M  V30 923 H 87.7718 1.64633 1.22821 0
M  V30 924 H 86.0018 1.06808 3.71657 0
M  V30 925 H 87.6908 1.48232 3.77865 0
M  V30 926 H 88.4568 3.8316 2.97344 0
M  V30 927 H 84.3358 2.8113 3.65359 0
M  V30 928 H 87.8798 6.22603 3.14661 0
M  V30 929 H 83.7768 5.19691 3.82873 0
M  V30 930 H 84.5448 7.27153 3.75754 0
M  V30 931 N 87.2079 -1.17134 1.05439 0
M  V30 932 C 88.1379 -2.2342 0.678649 0
M  V30 933 C 89.1189 -1.66971 -0.32476 0
M  V30 934 O 90.3039 -1.93149 -0.201802 0
M  V30 935 C 87.4339 -3.47256 0.0552099 0
M  V30 936 C 86.3879 -4.16543 0.98365 0
M  V30 937 C 85.7139 -5.34231 0.223961 0
M  V30 938 C 87.0139 -4.68495 2.3089 0
M  V30 939 H 88.7079 -2.55105 1.56722 0
M  V30 940 H 86.2539 -1.2262 0.754998 0
M  V30 941 H 88.2069 -4.20828 -0.21946 0
M  V30 942 H 86.9309 -3.14846 -0.868319 0
M  V30 943 H 85.5899 -3.44887 1.24293 0
M  V30 944 H 85.2379 -4.98071 -0.702412 0
M  V30 945 H 84.9379 -5.81527 0.842627 0
M  V30 946 H 86.4619 -6.10585 -0.0433671 0
M  V30 947 H 87.8759 -5.33691 2.09396 0
M  V30 948 H 86.2729 -5.26379 2.88176 0
M  V30 949 H 87.3429 -3.85169 2.94572 0
M  V30 950 N 88.686 -0.835752 -1.33615 0
M  V30 951 C 89.633 -0.26473 -2.29277 0
M  V30 952 C 90.603 0.617712 -1.54187 0
M  V30 953 O 91.788 0.556641 -1.825 0
M  V30 954 C 88.928 0.556777 -3.40579 0
M  V30 955 C 88.041 -0.349339 -4.30585 0
M  V30 956 C 87.176 0.482969 -5.29 0
M  V30 957 C 86.215 -0.421732 -6.10645 0
M  V30 958 N 85.352 0.372262 -7.01112 0
M  V30 959 H 90.192 -1.08582 -2.77514 0
M  V30 960 H 87.729 -0.546927 -1.36554 0
M  V30 961 H 89.687 1.04852 -4.03809 0
M  V30 962 H 88.317 1.34286 -2.93542 0
M  V30 963 H 87.369 -0.959372 -3.68104 0
M  V30 964 H 88.681 -1.04445 -4.87742 0
M  V30 965 H 87.835 1.03866 -5.97743 0
M  V30 966 H 86.574 1.21153 -4.72412 0
M  V30 967 H 85.579 -0.989464 -5.40823 0
M  V30 968 H 86.804 -1.14861 -6.69316 0
M  V30 969 H 84.75 1.08426 -6.46977 0
M  V30 970 H 84.667 -0.264198 -7.55538 0
M  V30 971 H 85.935 0.910293 -7.74167 0
M  V30 972 N 90.1641 1.46063 -0.591896 0
M  V30 973 C 91.1121 2.32124 0.148739 0
M  V30 974 C 92.1061 1.45035 0.875286 0
M  V30 975 O 93.3121 1.61609 0.792632 0
M  V30 976 H 89.6871 0.749024 0.066832 0
M  V30 977 H 91.6581 2.92392 -0.595783 0
M  V30 978 C 90.4071 3.28373 1.1431 0
M  V30 979 H 89.7301 3.95371 0.59346 0
M  V30 980 H 91.1701 3.91352 1.63155 0
M  V30 981 C 89.6291 2.54393 2.20875 0
M  V30 982 O 90.1591 2.31373 3.28374 0
M  V30 983 N 88.3651 2.14797 1.95731 0
M  V30 984 H 87.9121 2.33719 1.08319 0
M  V30 985 H 87.8701 1.65619 2.67241 0
M  V30 986 N 91.6422 0.330177 1.54103 0
M  V30 987 C 92.8912 -0.271336 1.99867 0
M  V30 988 C 93.2042 -1.52723 1.22209 0
M  V30 989 O 94.4102 -2.20515 1.58383 0
M  V30 990 C 92.8662 -0.534032 3.55916 0
M  V30 991 C 92.4742 0.705193 4.42415 0
M  V30 992 C 94.2182 -1.09514 4.1013 0
M  V30 993 C 92.1252 0.414035 5.89949 0
M  V30 994 H 91.0552 -0.105166 0.74663 0
M  V30 995 H 93.7062 0.443429 1.78062 0
M  V30 996 H 92.0882 -1.30915 3.73734 0
M  V30 997 H 93.2622 1.4804 4.36372 0
M  V30 998 H 91.5772 1.18698 3.99124 0
M  V30 999 H 94.1742 -1.3277 5.17954 0
M  V30 1000 H 94.5172 -2.04656 3.62521 0
M  V30 1001 H 95.0502 -0.381038 3.95971 0
M  V30 1002 H 91.7892 1.33481 6.41766 0
M  V30 1003 H 91.3092 -0.323336 5.98928 0
M  V30 1004 H 92.9882 0.0263105 6.46995 0
M  V30 1005 N 93.1203 -1.57491 0.0584922 0
M  V30 1006 C 94.3663 -1.93264 -0.614558 0
M  V30 1007 C 94.6993 -0.937717 -1.7006 0
M  V30 1008 O 93.9743 0.0351652 -1.94468 0
M  V30 1009 C 94.2573 -3.3938 -1.20386 0
M  V30 1010 C 94.1103 -4.49625 -0.125375 0
M  V30 1011 C 95.4293 -3.86039 -2.11334 0
M  V30 1012 H 92.5483 -0.702791 -0.221933 0
M  V30 1013 H 95.1903 -1.8961 0.12175 0
M  V30 1014 H 93.3403 -3.42626 -1.83139 0
M  V30 1015 H 95.0123 -4.58506 0.506971 0
M  V30 1016 H 93.2553 -4.30354 0.545672 0
M  V30 1017 H 93.9263 -5.48967 -0.577861 0
M  V30 1018 H 96.4023 -3.84716 -1.58534 0
M  V30 1019 H 95.2783 -4.88914 -2.49507 0
M  V30 1020 H 95.5393 -3.23215 -3.01636 0
M  V30 1021 N 94.5984 0.214957 -1.56127 0
M  V30 1022 C 95.8474 0.936451 -1.78643 0
M  V30 1023 C 96.1604 1.85237 -0.628229 0
M  V30 1024 O 97.3664 2.613 -0.737186 0
M  V30 1025 C 95.8224 1.7154 -3.16389 0
M  V30 1026 C 95.4304 0.845299 -4.39953 0
M  V30 1027 C 97.1744 2.42772 -3.48227 0
M  V30 1028 C 95.0814 1.62198 -5.68723 0
M  V30 1029 H 94.0114 0.353401 -0.666051 0
M  V30 1030 H 96.6624 0.190169 -1.82512 0
M  V30 1031 H 95.0444 2.50484 -3.06715 0
M  V30 1032 H 96.2184 0.0959353 -4.607 0
M  V30 1033 H 94.5334 0.244789 -4.1568 0
M  V30 1034 H 97.1304 3.01394 -4.41663 0
M  V30 1035 H 97.4734 3.15984 -2.71035 0
M  V30 1036 H 98.0064 1.70813 -3.5926 0
M  V30 1037 H 94.7454 0.933011 -6.48826 0
M  V30 1038 H 94.2654 2.34579 -5.52026 0
M  V30 1039 H 95.9444 2.18095 -6.09133 0
M  V30 1040 N 96.0765 1.50051 0.48192 0
M  V30 1041 C 97.0395 1.67584 1.5636 0
M  V30 1042 C 98.0395 0.546894 1.51214 0
M  V30 1043 O 99.2295 0.813725 1.54026 0
M  V30 1044 C 96.3615 1.691 2.96003 0
M  V30 1045 H 97.5545 2.64078 1.42136 0
M  V30 1046 H 95.1075 1.39369 0.707533 0
M  V30 1047 H 95.8425 0.742589 3.15684 0
M  V30 1048 H 95.6275 2.51105 3.01146 0
M  V30 1049 H 97.1175 1.84656 3.74556 0
M  V30 1050 N 97.5546 -0.734337 1.39446 0
M  V30 1051 C 98.8316 -1.48579 1.27215 0
M  V30 1052 C 99.2116 -2.1077 -0.117968 0
M  V30 1053 O 98.5596 -1.98646 -1.12924 0
M  V30 1054 C 98.7696 -2.53667 2.39696 0
M  V30 1055 C 100.118 -3.20031 2.79044 0
M  V30 1056 O 101.142 -2.6398 2.39151 0
M  V30 1057 O 100.001 -4.21455 3.47905 0
M  V30 1058 H 97.0946 -0.659816 0.49857 0
M  V30 1059 H 99.6406 -0.768106 1.51322 0
M  V30 1060 H 98.4126 -2.06096 3.32626 0
M  V30 1061 H 98.0356 -3.32994 2.17258 0
M  V30 1062 N 99.0327 -1.24633 -0.964593 0
M  V30 1063 C 100.28 -1.08788 -1.70796 0
M  V30 1064 C 100.608 0.372783 -1.90894 0
M  V30 1065 O 99.8627 1.29167 -1.47018 0
M  V30 1066 C 100.162 -1.7763 -3.10133 0
M  V30 1067 C 99.8277 -3.27557 -3.09866 0
M  V30 1068 C 98.4897 -3.6846 -3.09501 0
M  V30 1069 C 100.842 -4.23389 -3.03959 0
M  V30 1070 C 98.1697 -5.03624 -3.00965 0
M  V30 1071 C 100.522 -5.58565 -2.96965 0
M  V30 1072 C 99.1857 -5.98809 -2.9493 0
M  V30 1073 H 98.4557 -0.398084 -0.624988 0
M  V30 1074 H 101.103 -1.54777 -1.12767 0
M  V30 1075 H 99.4077 -1.24044 -3.71645 0
M  V30 1076 H 101.105 -1.62832 -3.66451 0
M  V30 1077 H 97.6947 -2.95006 -3.10917 0
M  V30 1078 H 101.879 -3.92787 -3.03368 0
M  V30 1079 H 97.1347 -5.33998 -2.97752 0
M  V30 1080 H 101.309 -6.32523 -2.91354 0
M  V30 1081 H 98.9357 -7.03505 -2.88071 0
M  V30 1082 N 100.511 1.16574 -1.06058 0
M  V30 1083 C 101.757 1.87324 -0.777022 0
M  V30 1084 C 102.09 1.81351 0.694645 0
M  V30 1085 O 101.365 1.22753 1.50871 0
M  V30 1086 C 101.648 3.36991 -1.26922 0
M  V30 1087 C 101.501 3.51667 -2.80447 0
M  V30 1088 C 102.82 4.3131 -0.87521 0
M  V30 1089 H 99.9388 0.680191 -0.28374 0
M  V30 1090 H 102.581 1.37036 -1.3161 0
M  V30 1091 H 100.731 3.79949 -0.81063 0
M  V30 1092 H 102.403 3.17664 -3.34495 0
M  V30 1093 H 100.646 2.93656 -3.19294 0
M  V30 1094 H 101.317 4.56766 -3.0995 0
M  V30 1095 H 103.793 3.9624 -1.27014 0
M  V30 1096 H 102.669 5.34545 -1.2471 0
M  V30 1097 H 102.93 4.41552 0.220071 0
M  V30 1098 N 101.989 0.842826 1.3317 0
M  V30 1099 C 102.922 0.223862 2.27099 0
M  V30 1100 C 103.9 -0.631311 1.49844 0
M  V30 1101 O 105.084 -0.590708 1.79005 0
M  V30 1102 C 102.211 -0.685313 3.31694 0
M  V30 1103 C 101.257 0.094919 4.26394 0
M  V30 1104 S 102.09 1.45546 5.15341 0
M  V30 1105 C 103.246 0.551685 6.23464 0
M  V30 1106 H 103.479 1.02015 2.79249 0
M  V30 1107 H 101.012 0.639797 1.4052 0
M  V30 1108 H 102.97 -1.20426 3.92438 0
M  V30 1109 H 101.631 -1.4553 2.78352 0
M  V30 1110 H 100.824 -0.597059 5.00451 0
M  V30 1111 H 100.426 0.545054 3.70007 0
M  V30 1112 H 102.718 -0.248877 6.77043 0
M  V30 1113 H 103.661 1.26253 6.96754 0
M  V30 1114 H 104.069 0.131275 5.64347 0
M  V30 1115 N 103.467 -1.45747 0.599634 0
M  V30 1116 C 104.692 -2.07178 0.0960198 0
M  V30 1117 C 105.117 -1.44268 -1.207 0
M  V30 1118 O 104.475 -0.532503 -1.73303 0
M  V30 1119 C 104.523 -3.60579 -0.0385348 0
M  V30 1120 O 103.627 -3.97713 -1.0908 0
M  V30 1121 H 102.968 -0.660251 0.0704593 0
M  V30 1122 H 105.498 -1.87124 0.827385 0
M  V30 1123 H 105.508 -4.07298 -0.239304 0
M  V30 1124 H 104.183 -4.05756 0.912947 0
M  V30 1125 H 102.76 -3.62678 -0.867135 0
M  V30 1126 N 104.945 -0.338344 -1.53925 0
M  V30 1127 C 105.875 0.51328 -2.27789 0
M  V30 1128 C 106.856 1.107 -1.29149 0
M  V30 1129 O 108.041 1.12937 -1.57984 0
M  V30 1130 C 105.171 1.66697 -3.04679 0
M  V30 1131 C 104.125 1.20183 -4.1078 0
M  V30 1132 C 103.451 2.44363 -4.75595 0
M  V30 1133 C 104.751 0.30605 -5.21403 0
M  V30 1134 H 106.445 -0.102883 -2.99223 0
M  V30 1135 H 103.991 -0.0509219 -1.4391 0
M  V30 1136 H 105.944 2.26915 -3.55088 0
M  V30 1137 H 104.668 2.30995 -2.30887 0
M  V30 1138 H 103.327 0.622499 -3.61276 0
M  V30 1139 H 102.975 3.07057 -3.98403 0
M  V30 1140 H 102.675 2.13925 -5.47275 0
M  V30 1141 H 104.199 3.05317 -5.28786 0
M  V30 1142 H 105.613 0.814929 -5.67478 0
M  V30 1143 H 104.01 0.0937929 -6.00027 0
M  V30 1144 H 105.08 -0.65921 -4.80398 0
M  V30 1145 N 106.423 1.57458 -0.0668435 0
M  V30 1146 C 107.651 1.97624 0.612565 0
M  V30 1147 C 108.066 0.94502 1.63447 0
M  V30 1148 O 107.423 -0.0689276 1.8237 0
M  V30 1149 C 107.474 3.37869 1.28555 0
M  V30 1150 O 107.195 4.3704 0.304557 0
M  V30 1151 C 108.696 3.92882 2.05325 0
M  V30 1152 H 105.916 0.650045 0.166381 0
M  V30 1153 H 108.46 2.04035 -0.137782 0
M  V30 1154 H 106.615 3.3256 1.98702 0
M  V30 1155 H 107.029 5.18565 0.786779 0
M  V30 1156 H 108.503 4.93247 2.47812 0
M  V30 1157 H 108.98 3.29156 2.9078 0
M  V30 1158 H 109.586 4.01577 1.40056 0
M  V30 1159 N 107.901 -0.206675 1.56239 0
M  V30 1160 C 109.148 -0.928842 1.79941 0
M  V30 1161 C 109.476 -1.83734 0.638131 0
M  V30 1162 O 108.731 -1.92039 -0.376746 0
M  V30 1163 C 109.03 -1.78675 3.09532 0
M  V30 1164 C 108.696 -1.03022 4.38973 0
M  V30 1165 C 107.358 -0.821302 4.74139 0
M  V30 1166 C 109.71 -0.497081 5.18824 0
M  V30 1167 C 107.038 -0.0675719 5.86661 0
M  V30 1168 C 109.39 0.24338 6.32132 0
M  V30 1169 C 108.054 0.463422 6.65889 0
M  V30 1170 H 107.324 -0.339887 0.658451 0
M  V30 1171 H 109.971 -0.195977 1.90495 0
M  V30 1172 H 108.276 -2.58794 2.94165 0
M  V30 1173 H 109.973 -2.34792 3.25075 0
M  V30 1174 H 106.563 -1.20306 4.11369 0
M  V30 1175 H 110.747 -0.645921 4.92079 0
M  V30 1176 H 106.003 0.112995 6.11296 0
M  V30 1177 H 110.177 0.66393 6.93228 0
M  V30 1178 H 107.804 1.04938 7.52922 0
M  V30 1179 N 109.379 -1.50304 -0.473955 0
M  V30 1180 C 110.79 -1.54042 -1.0549 0
M  V30 1181 C 111.141 -0.342248 -1.93192 0
M  V30 1182 O 110.266 0.545157 -2.09421 0
M  V30 1183 C 110.861 -2.79152 -1.91989 0
M  V30 1184 C 109.42 -2.8558 -2.45196 0
M  V30 1185 C 108.567 -2.48295 -1.2347 0
M  V30 1186 H 111.518 -1.5661 -0.256693 0
M  V30 1187 H 111.539 -2.60845 -2.7702 0
M  V30 1188 H 111.051 -3.66339 -1.28131 0
M  V30 1189 H 109.152 -2.02738 -3.12615 0
M  V30 1190 H 109.265 -3.88403 -2.80499 0
M  V30 1191 H 107.629 -2.00669 -1.56856 0
M  V30 1192 H 108.412 -3.37787 -0.612789 0
M  V30 1193 N 110.857 0.726932 -1.39834 0
M  V30 1194 C 112.104 1.48664 -1.37496 0
M  V30 1195 C 112.432 1.94482 0.0264678 0
M  V30 1196 O 111.687 1.67692 1.00886 0
M  V30 1197 C 111.986 2.73495 -2.30077 0
M  V30 1198 C 111.652 2.46502 -3.77555 0
M  V30 1199 C 110.314 2.3885 -4.17737 0
M  V30 1200 C 112.666 2.23604 -4.70798 0
M  V30 1201 C 109.994 2.06352 -5.49214 0
M  V30 1202 C 112.346 1.92622 -6.02561 0
M  V30 1203 C 111.01 1.83444 -6.41798 0
M  V30 1204 H 110.28 0.544001 -0.503135 0
M  V30 1205 H 112.927 0.833657 -1.72402 0
M  V30 1206 H 111.232 3.43575 -1.88317 0
M  V30 1207 H 112.929 3.31549 -2.25558 0
M  V30 1208 H 109.519 2.5334 -3.45712 0
M  V30 1209 H 113.703 2.28479 -4.40581 0
M  V30 1210 H 108.959 1.97776 -5.78528 0
M  V30 1211 H 113.133 1.73914 -6.74334 0
M  V30 1212 H 110.76 1.58029 -7.43593 0
M  V30 1213 N 112.336 1.25143 0.95797 0
M  V30 1214 C 113.283 1.05235 2.05412 0
M  V30 1215 C 114.253 -0.0374561 1.66058 0
M  V30 1216 O 115.438 0.119073 1.90428 0
M  V30 1217 C 112.578 0.673589 3.38462 0
M  V30 1218 C 111.691 1.8379 3.90954 0
M  V30 1219 C 110.826 1.40381 5.12315 0
M  V30 1220 C 109.865 2.53746 5.57027 0
M  V30 1221 N 109.002 2.11136 6.69601 0
M  V30 1222 H 113.842 1.99048 2.21774 0
M  V30 1223 H 111.379 0.991277 1.08683 0
M  V30 1224 H 113.337 0.434964 4.14926 0
M  V30 1225 H 111.967 -0.227554 3.21997 0
M  V30 1226 H 111.019 2.18992 3.11041 0
M  V30 1227 H 112.331 2.68937 4.20089 0
M  V30 1228 H 111.485 1.12464 5.96185 0
M  V30 1229 H 110.224 0.523015 4.84887 0
M  V30 1230 H 109.229 2.82412 4.71724 0
M  V30 1231 H 110.454 3.42398 5.86464 0
M  V30 1232 H 108.4 1.25468 6.4389 0
M  V30 1233 H 108.317 2.89832 6.98236 0
M  V30 1234 H 109.585 1.86385 7.56889 0
M  V30 1235 N 113.814 -1.1601 1.06675 0
M  V30 1236 C 115.063 -1.85973 0.780818 0
M  V30 1237 C 115.376 -1.82819 -0.695444 0
M  V30 1238 O 116.582 -2.484 -1.09589 0
M  V30 1239 C 115.038 -3.33757 1.34665 0
M  V30 1240 C 114.646 -3.45374 2.85343 0
M  V30 1241 C 116.39 -4.0895 1.13843 0
M  V30 1242 C 114.297 -4.87266 3.35151 0
M  V30 1243 H 113.227 -0.696661 0.288407 0
M  V30 1244 H 115.878 -1.30903 1.28595 0
M  V30 1245 H 114.26 -3.88456 0.769274 0
M  V30 1246 H 115.434 -3.00816 3.49065 0
M  V30 1247 H 113.749 -2.83619 3.04876 0
M  V30 1248 H 116.346 -5.13654 1.4854 0
M  V30 1249 H 116.689 -4.16229 0.0770282 0
M  V30 1250 H 117.222 -3.605 1.68179 0
M  V30 1251 H 113.961 -4.85168 4.40786 0
M  V30 1252 H 113.481 -5.32433 2.76179 0
M  V30 1253 H 115.16 -5.56097 3.30704 0
M  V30 1254 N 115.292 -0.849877 -1.32721 0
M  V30 1255 C 116.222 -0.306308 -2.31482 0
M  V30 1256 C 117.203 0.591952 -1.59468 0
M  V30 1257 O 118.388 0.513199 -1.87296 0
M  V30 1258 C 115.518 0.510204 -3.43532 0
M  V30 1259 C 114.472 -0.293209 -4.26994 0
M  V30 1260 C 113.798 0.647743 -5.30762 0
M  V30 1261 C 115.098 -1.51634 -4.99804 0
M  V30 1262 H 116.792 -1.13153 -2.77195 0
M  V30 1263 H 114.338 -0.545553 -1.33266 0
M  V30 1264 H 116.291 0.900856 -4.11658 0
M  V30 1265 H 115.015 1.36874 -2.96535 0
M  V30 1266 H 113.674 -0.665555 -3.60508 0
M  V30 1267 H 113.322 1.50299 -4.8002 0
M  V30 1268 H 113.022 0.11422 -5.87489 0
M  V30 1269 H 114.546 1.03567 -6.01753 0
M  V30 1270 H 115.96 -1.19824 -5.60638 0
M  V30 1271 H 114.357 -1.98745 -5.66234 0
M  V30 1272 H 115.427 -2.28018 -4.27943 0
M  V30 1273 N 116.77 1.45427 -0.607355 0
M  V30 1274 C 118.018 2.01841 -0.102253 0
M  V30 1275 C 118.339 1.47832 1.27164 0
M  V30 1276 O 117.609 0.672497 1.83995 0
M  V30 1277 H 116.189 0.746188 -0.0348101 0
M  V30 1278 H 118.851 1.78229 -0.7887 0
M  V30 1279 H 117.947 3.12057 -0.0518585 0
M  V30 1280 N 118.248 0.346503 1.53744 0
M  V30 1281 C 119.525 -0.304532 1.93215 0
M  V30 1282 C 119.905 -1.67993 1.27834 0
M  V30 1283 O 119.253 -2.24411 0.430352 0
M  V30 1284 C 119.463 -0.373852 3.46992 0
M  V30 1285 C 120.811 -0.62329 4.2 0
M  V30 1286 O 121.835 -0.455847 3.53271 0
M  V30 1287 O 120.694 -0.947879 5.38217 0
M  V30 1288 H 117.788 -0.178318 0.807547 0
M  V30 1289 H 120.334 0.397895 1.64969 0
M  V30 1290 H 119.106 0.591224 3.86808 0
M  V30 1291 H 118.729 -1.12294 3.81413 0
M  V30 1292 N 119.726 -1.57421 0.075193 0
M  V30 1293 C 120.951 -1.98364 -0.605515 0
M  V30 1294 C 121.376 -0.953383 -1.62149 0
M  V30 1295 O 120.734 0.0806053 -1.81121 0
M  V30 1296 C 120.782 -3.38332 -1.24756 0
M  V30 1297 O 119.886 -3.37959 -2.36342 0
M  V30 1298 H 119.227 -0.645553 -0.155428 0
M  V30 1299 H 121.757 -2.04044 0.150714 0
M  V30 1300 H 121.767 -3.75591 -1.5936 0
M  V30 1301 H 120.442 -4.12846 -0.503129 0
M  V30 1302 H 119.019 -3.12474 -2.03506 0
M  V30 1303 N 121.204 0.198386 -1.56346 0
M  V30 1304 C 122.452 0.91747 -1.80075 0
M  V30 1305 C 122.773 1.83929 -0.647692 0
M  V30 1306 O 122.043 1.93029 0.334166 0
M  V30 1307 H 120.623 0.341774 -0.664228 0
M  V30 1308 H 123.285 0.204684 -1.93822 0
M  V30 1309 H 122.381 1.51055 -2.7311 0
M  V30 1310 N 122.682 1.50554 0.465978 0
M  V30 1311 C 123.612 1.72722 1.57128 0
M  V30 1312 C 124.593 0.576294 1.6004 0
M  V30 1313 O 125.778 0.81598 1.76225 0
M  V30 1314 C 122.908 1.82605 2.95419 0
M  V30 1315 C 121.862 2.97835 3.07373 0
M  V30 1316 C 121.188 2.92867 4.47363 0
M  V30 1317 C 122.488 4.38265 2.84114 0
M  V30 1318 H 124.182 2.65267 1.38829 0
M  V30 1319 H 121.728 1.2765 0.666441 0
M  V30 1320 H 123.681 1.96698 3.72677 0
M  V30 1321 H 122.405 0.866858 3.14886 0
M  V30 1322 H 121.064 2.83401 2.3255 0
M  V30 1323 H 120.712 1.94783 4.63755 0
M  V30 1324 H 120.412 3.70227 4.56296 0
M  V30 1325 H 121.936 3.09015 5.26633 0
M  V30 1326 H 123.35 4.53198 3.51118 0
M  V30 1327 H 121.747 5.17115 3.04487 0
M  V30 1328 H 122.817 4.50281 1.7993 0
M  V30 1329 N 124.16 -0.719506 1.40217 0
M  V30 1330 C 125.408 -1.47641 1.3801 0
M  V30 1331 C 125.729 -1.94992 -0.018145 0
M  V30 1332 O 124.999 -1.70073 -0.972207 0
M  V30 1333 H 123.579 -0.547744 0.507923 0
M  V30 1334 H 126.241 -0.853187 1.75233 0
M  V30 1335 H 125.337 -2.35112 2.05253 0
M  V30 1336 N 125.638 -1.25649 -0.95132 0
M  V30 1337 C 127.049 -1.09654 -1.51106 0
M  V30 1338 C 127.4 0.326615 -1.93462 0
M  V30 1339 O 126.525 1.21697 -1.78938 0
M  V30 1340 C 127.12 -1.98437 -2.74605 0
M  V30 1341 C 125.679 -1.86618 -3.2688 0
M  V30 1342 C 124.826 -1.9239 -1.99703 0
M  V30 1343 H 127.777 -1.38887 -0.767865 0
M  V30 1344 H 127.798 -1.5263 -3.48546 0
M  V30 1345 H 127.31 -3.02009 -2.43746 0
M  V30 1346 H 125.411 -0.859421 -3.62553 0
M  V30 1347 H 125.524 -2.71607 -3.94673 0
M  V30 1348 H 123.888 -1.36317 -2.15151 0
M  V30 1349 H 124.671 -2.97573 -1.71188 0
M  V30 1350 N 127.117 1.15442 -1.07289 0
M  V30 1351 C 128.363 1.8672 -0.806679 0
M  V30 1352 C 128.718 1.80723 0.660084 0
M  V30 1353 O 128.011 1.21902 1.47819 0
M  V30 1354 C 128.205 3.3489 -1.24834 0
M  V30 1355 C 128.034 3.55313 -2.7565 0
M  V30 1356 C 126.804 3.7082 -3.4325 0
M  V30 1357 C 129.002 3.53188 -3.73848 0
M  V30 1358 N 126.984 3.7929 -4.82713 0
M  V30 1359 C 128.355 3.67765 -4.99149 0
M  V30 1360 C 130.41 3.36459 -3.67015 0
M  V30 1361 C 129.113 3.6734 -6.18428 0
M  V30 1362 C 131.139 3.37333 -4.85758 0
M  V30 1363 C 130.501 3.52438 -6.09891 0
M  V30 1364 H 126.6 0.700433 -0.347733 0
M  V30 1365 H 129.184 1.38441 -1.36902 0
M  V30 1366 H 127.355 3.81786 -0.713713 0
M  V30 1367 H 129.087 3.93875 -0.929745 0
M  V30 1368 H 125.842 3.71568 -2.93656 0
M  V30 1369 H 126.266 3.8727 -5.55294 0
M  V30 1370 H 130.908 3.237 -2.71989 0
M  V30 1371 H 128.626 3.78878 -7.13777 0
M  V30 1372 H 132.212 3.25617 -4.82146 0
M  V30 1373 H 131.092 3.53047 -7.00234 0
M  V30 1374 N 128.595 0.856903 1.32268 0
M  V30 1375 C 129.527 0.260412 2.27716 0
M  V30 1376 C 130.54 -0.569137 1.52528 0
M  V30 1377 O 131.729 -0.39326 1.74114 0
M  V30 1378 C 128.829 -0.650477 3.32599 0
M  V30 1379 C 128.002 0.14372 4.37164 0
M  V30 1380 C 127.061 -0.69328 5.21613 0
M  V30 1381 O 126.087 -0.12599 5.69061 0
M  V30 1382 N 127.289 -2.00761 5.44679 0
M  V30 1383 H 130.054 1.08059 2.79541 0
M  V30 1384 H 127.615 0.717103 1.45152 0
M  V30 1385 H 129.607 -1.21581 3.86005 0
M  V30 1386 H 128.177 -1.37133 2.80915 0
M  V30 1387 H 127.397 0.890486 3.8401 0
M  V30 1388 H 128.685 0.68915 5.04111 0
M  V30 1389 H 128.083 -2.49181 5.07863 0
M  V30 1390 H 126.64 -2.52103 6.01072 0
M  V30 1391 N 130.073 -1.45103 0.615059 0
M  V30 1392 C 131.003 -2.33339 -0.0865619 0
M  V30 1393 C 131.984 -1.4727 -0.851209 0
M  V30 1394 O 133.169 -1.76026 -0.820281 0
M  V30 1395 C 130.299 -3.30095 -1.07956 0
M  V30 1396 C 129.253 -4.25858 -0.427628 0
M  V30 1397 C 128.579 -5.12361 -1.5294 0
M  V30 1398 C 129.879 -5.18165 0.655944 0
M  V30 1399 H 131.573 -2.92254 0.650224 0
M  V30 1400 H 129.119 -1.40532 0.314138 0
M  V30 1401 H 131.072 -3.90698 -1.57901 0
M  V30 1402 H 129.796 -2.69355 -1.84703 0
M  V30 1403 H 128.455 -3.66564 0.0510292 0
M  V30 1404 H 128.103 -4.47984 -2.28734 0
M  V30 1405 H 127.803 -5.77238 -1.09865 0
M  V30 1406 H 129.327 -5.75833 -2.03098 0
M  V30 1407 H 130.741 -5.72796 0.240257 0
M  V30 1408 H 129.138 -5.91559 1.00888 0
M  V30 1409 H 130.208 -4.60144 1.52957 0
M  V30 1410 N 131.551 -0.354651 -1.53558 0
M  V30 1411 C 132.499 0.512195 -2.26891 0
M  V30 1412 C 133.493 1.09263 -1.29452 0
M  V30 1413 O 134.699 1.03709 -1.47121 0
M  V30 1414 H 131.074 0.183878 -0.729173 0
M  V30 1415 H 133.045 -0.128202 -2.98124 0
M  V30 1416 C 131.794 1.64563 -3.06291 0
M  V30 1417 H 131.117 1.20829 -3.81104 0
M  V30 1418 H 132.557 2.22711 -3.60799 0
M  V30 1419 C 131.016 2.58158 -2.16462 0
M  V30 1420 O 131.546 3.60695 -1.76811 0
M  V30 1421 N 129.752 2.27096 -1.81317 0
M  V30 1422 H 129.299 1.43751 -2.1376 0
M  V30 1423 H 129.257 2.89975 -1.21498 0
M  V30 1424 N 133.029 1.57378 -0.0835403 0
M  V30 1425 C 134.275 1.94217 0.583733 0
M  V30 1426 C 134.608 0.964653 1.68547 0
M  V30 1427 O 133.883 -0.00422258 1.945 0
M  V30 1428 C 134.166 3.41253 1.14972 0
M  V30 1429 C 134.019 4.49768 0.0538277 0
M  V30 1430 C 135.338 3.89352 2.05166 0
M  V30 1431 H 132.457 0.706233 0.210724 0
M  V30 1432 H 135.099 1.89392 -0.1519 0
M  V30 1433 H 133.249 3.45496 1.77665 0
M  V30 1434 H 134.921 4.57641 -0.579851 0
M  V30 1435 H 133.164 4.29432 -0.614068 0
M  V30 1436 H 133.835 5.49817 0.490452 0
M  V30 1437 H 136.311 3.87189 1.52393 0
M  V30 1438 H 135.187 4.92822 2.41698 0
M  V30 1439 H 135.448 3.27973 2.96456 0
M  V30 1440 N 134.507 -0.190092 1.56449 0
M  V30 1441 C 135.754 -0.909705 1.80916 0
M  V30 1442 C 136.082 -1.83047 0.657583 0
M  V30 1443 O 135.337 -1.92428 -0.356356 0
M  V30 1444 C 135.636 -1.75382 3.1141 0
M  V30 1445 C 135.302 -0.983606 4.40041 0
M  V30 1446 C 133.964 -0.770967 4.74984 0
M  V30 1447 C 136.316 -0.442024 5.19322 0
M  V30 1448 C 133.644 -0.0053448 5.867 0
M  V30 1449 C 135.996 0.310412 6.31838 0
M  V30 1450 C 134.66 0.534023 6.6536 0
M  V30 1451 H 133.93 -0.332885 0.662019 0
M  V30 1452 H 136.577 -0.175762 1.90692 0
M  V30 1453 H 134.882 -2.55659 2.96893 0
M  V30 1454 H 136.579 -2.31331 3.27547 0
M  V30 1455 H 133.169 -1.15936 4.12622 0
M  V30 1456 H 137.353 -0.593693 4.92736 0
M  V30 1457 H 132.609 0.177825 6.11141 0
M  V30 1458 H 136.783 0.737419 6.92485 0
M  V30 1459 H 134.41 1.12918 7.51767 0
M  V30 1460 N 135.985 -1.50799 -0.457987 0
M  V30 1461 C 137.231 -1.62683 -1.21088 0
M  V30 1462 C 137.564 -0.332268 -1.91336 0
M  V30 1463 O 136.839 0.667043 -1.82704 0
M  V30 1464 C 137.122 -2.81615 -2.24422 0
M  V30 1465 C 136.975 -4.20989 -1.58392 0
M  V30 1466 C 138.294 -2.96085 -3.2561 0
M  V30 1467 H 135.413 -0.592087 -0.438864 0
M  V30 1468 H 138.055 -1.83225 -0.50286 0
M  V30 1469 H 136.205 -2.64231 -2.84806 0
M  V30 1470 H 137.877 -4.49994 -1.01504 0
M  V30 1471 H 136.12 -4.24641 -0.886704 0
M  V30 1472 H 136.791 -5.0016 -2.33547 0
M  V30 1473 H 139.267 -3.12042 -2.75262 0
M  V30 1474 H 138.143 -3.80902 -3.95228 0
M  V30 1475 H 138.404 -2.0726 -3.90507 0
M  V30 1476 N 137.463 0.71206 -1.40597 0
M  V30 1477 C 138.703 1.48438 -1.40519 0
M  V30 1478 C 139.067 1.91998 -0.00767611 0
M  V30 1479 O 140.268 2.6854 0.118239 0
M  V30 1480 C 138.539 2.67514 -2.37004 0
M  V30 1481 S 140.098 3.56875 -2.55315 0
M  V30 1482 H 136.916 0.507457 -0.498005 0
M  V30 1483 H 139.518 0.832355 -1.76896 0
M  V30 1484 H 138.222 2.33689 -3.37368 0
M  V30 1485 H 137.753 3.37625 -2.01923 0
M  V30 1486 H 139.768 4.62081 -1.8082 0
M  V30 1487 N 138.941 1.26152 0.944643 0
M  V30 1488 C 140.357 1.03189 1.21754 0
M  V30 1489 C 140.557 -0.245112 2.00004 0
M  V30 1490 O 139.613 -0.955176 2.33736 0
M  V30 1491 C 140.926 2.26119 1.98219 0
M  V30 1492 C 142.474 2.30984 2.11224 0
M  V30 1493 C 142.949 3.53597 2.91089 0
M  V30 1494 N 144.44 3.54053 2.98664 0
M  V30 1495 C 145.175 4.45593 3.60881 0
M  V30 1496 N 144.671 5.47416 4.24626 0
M  V30 1497 N 146.464 4.33252 3.58119 0
M  V30 1498 H 138.615 2.08177 0.421437 0
M  V30 1499 H 140.878 0.914723 0.248969 0
M  V30 1500 H 140.584 3.18984 1.48128 0
M  V30 1501 H 140.458 2.3009 2.98895 0
M  V30 1502 H 142.845 1.38635 2.60508 0
M  V30 1503 H 142.926 2.31026 1.09821 0
M  V30 1504 H 142.57 4.46273 2.42493 0
M  V30 1505 H 142.5 3.50802 3.92741 0
M  V30 1506 H 144.991 2.80403 2.53343 0
M  V30 1507 H 145.304 6.13459 4.69987 0
M  V30 1508 H 143.649 5.51278 4.23223 0
M  V30 1509 H 146.84 3.52924 3.0751 0
M  V30 1510 H 147.013 5.04786 4.06319 0
M  V30 1511 N 140.419 -1.14872 1.07899 0
M  V30 1512 C 141.665 -1.86064 0.806725 0
M  V30 1513 C 141.998 -1.82434 -0.665706 0
M  V30 1514 O 141.273 -1.25138 -1.48899 0
M  V30 1515 C 141.556 -3.34929 1.32267 0
M  V30 1516 C 141.409 -3.47161 2.86006 0
M  V30 1517 C 142.728 -4.29863 0.943717 0
M  V30 1518 H 139.847 -0.675591 0.294526 0
M  V30 1519 H 142.489 -1.34925 1.33773 0
M  V30 1520 H 140.639 -3.78611 0.870974 0
M  V30 1521 H 142.311 -3.12302 3.39507 0
M  V30 1522 H 140.554 -2.88539 3.23925 0
M  V30 1523 H 141.225 -4.51777 3.17177 0
M  V30 1524 H 143.701 -3.9417 1.33302 0
M  V30 1525 H 142.577 -5.32494 1.33198 0
M  V30 1526 H 142.838 -4.41846 -0.149796 0
M  V30 1527 N 141.898 -0.863906 -1.31812 0
M  V30 1528 C 143.123 -0.48527 -2.01643 0
M  V30 1529 C 143.548 0.913058 -1.64453 0
M  V30 1530 O 142.906 1.6014 -0.849985 0
M  V30 1531 C 142.954 -0.642625 -3.54828 0
M  V30 1532 O 142.058 0.320659 -4.11151 0
M  V30 1533 H 141.399 -0.193793 -0.635091 0
M  V30 1534 H 143.929 -1.16565 -1.68148 0
M  V30 1535 H 143.939 -0.533628 -4.04495 0
M  V30 1536 H 142.614 -1.66227 -3.81237 0
M  V30 1537 H 141.191 0.167126 -3.72525 0
M  V30 1538 N 143.376 1.44774 -0.622745 0
M  V30 1539 C 144.339 2.29069 0.0774015 0
M  V30 1540 C 145.339 1.4059 0.780461 0
M  V30 1541 O 146.529 1.62551 0.626322 0
M  V30 1542 C 143.661 3.21974 1.12006 0
M  V30 1543 H 144.854 2.92459 -0.663901 0
M  V30 1544 H 142.407 1.51548 -0.382486 0
M  V30 1545 H 143.142 2.63417 1.89162 0
M  V30 1546 H 142.927 3.87168 0.619951 0
M  V30 1547 H 144.417 3.85318 1.60995 0
M  V30 1548 N 144.854 0.36279 1.53368 0
M  V30 1549 C 146.1 -0.228113 2.01513 0
M  V30 1550 C 146.433 -1.48648 1.2497 0
M  V30 1551 O 145.708 -1.91459 0.342616 0
M  V30 1552 C 145.991 -0.522884 3.56284 0
M  V30 1553 C 145.844 0.74892 4.43521 0
M  V30 1554 C 147.163 -1.32461 4.19693 0
M  V30 1555 H 144.282 -0.0814343 0.732487 0
M  V30 1556 H 146.924 0.48713 1.83649 0
M  V30 1557 H 145.074 -1.1322 3.71636 0
M  V30 1558 H 146.746 1.38648 4.39971 0
M  V30 1559 H 144.989 1.36986 4.11603 0
M  V30 1560 H 145.66 0.497667 5.49752 0
M  V30 1561 H 148.136 -0.809203 4.08156 0
M  V30 1562 H 147.012 -1.49961 5.28018 0
M  V30 1563 H 147.273 -2.33232 3.75573 0
M  V30 1564 N 146.332 -1.57332 0.0918853 0
M  V30 1565 C 147.262 -2.16872 -0.865371 0
M  V30 1566 C 148.243 -1.10118 -1.29646 0
M  V30 1567 O 149.428 -1.38242 -1.36392 0
M  V30 1568 C 146.558 -2.74649 -2.12569 0
M  V30 1569 C 145.512 -3.86747 -1.83333 0
M  V30 1570 C 144.838 -4.31212 -3.16166 0
M  V30 1571 C 146.138 -5.10089 -1.1228 0
M  V30 1572 H 147.832 -2.97114 -0.369307 0
M  V30 1573 H 145.378 -1.42918 -0.176194 0
M  V30 1574 H 147.331 -3.14952 -2.7997 0
M  V30 1575 H 146.055 -1.91657 -2.64452 0
M  V30 1576 H 144.714 -3.46978 -1.18331 0
M  V30 1577 H 144.362 -3.45115 -3.6593 0
M  V30 1578 H 144.062 -5.06788 -2.97388 0
M  V30 1579 H 145.586 -4.74146 -3.84731 0
M  V30 1580 H 147 -5.47582 -1.69785 0
M  V30 1581 H 145.397 -5.91073 -1.03693 0
M  V30 1582 H 146.467 -4.84786 -0.105041 0
M  V30 1583 N 147.81 0.181792 -1.56548 0
M  V30 1584 C 149.057 0.900097 -1.81396 0
M  V30 1585 C 149.385 1.82695 -0.667281 0
M  V30 1586 O 148.64 1.92614 0.346146 0
M  V30 1587 C 148.939 1.73728 -3.12335 0
M  V30 1588 C 148.605 0.960255 -4.40556 0
M  V30 1589 C 147.267 0.745766 -4.75386 0
M  V30 1590 C 149.619 0.414477 -5.19549 0
M  V30 1591 C 146.947 -0.0257694 -5.86694 0
M  V30 1592 C 149.299 -0.343916 -6.31664 0
M  V30 1593 C 147.963 -0.569301 -6.65068 0
M  V30 1594 H 147.233 0.329369 -0.663775 0
M  V30 1595 H 149.88 0.165647 -1.90782 0
M  V30 1596 H 148.185 2.54081 -2.98245 0
M  V30 1597 H 149.882 2.29591 -3.28769 0
M  V30 1598 H 146.472 1.13746 -4.13231 0
M  V30 1599 H 150.656 0.567554 -4.93044 0
M  V30 1600 H 145.912 -0.210233 -6.11038 0
M  V30 1601 H 150.086 -0.774133 -6.92084 0
M  V30 1602 H 147.713 -1.16903 -7.51158 0
M  V30 1603 N 149.288 1.51039 0.449983 0
M  V30 1604 C 150.518 1.66627 1.22143 0
M  V30 1605 C 150.926 0.357776 1.85786 0
M  V30 1606 O 150.269 -0.672424 1.70951 0
M  V30 1607 C 150.331 2.71562 2.35573 0
M  V30 1608 C 149.995 4.14526 1.92399 0
M  V30 1609 C 150.992 4.99717 1.43453 0
M  V30 1610 C 148.677 4.60559 2.00475 0
M  V30 1611 C 150.671 6.28998 1.03155 0
M  V30 1612 C 148.358 5.8984 1.59788 0
M  V30 1613 C 149.356 6.73886 1.11208 0
M  V30 1614 O 149.044 8.0075 0.710935 0
M  V30 1615 H 148.776 0.562635 0.374724 0
M  V30 1616 H 151.33 1.98146 0.541036 0
M  V30 1617 H 149.56 2.3533 3.06849 0
M  V30 1618 H 151.249 2.76156 2.97478 0
M  V30 1619 H 152.015 4.65361 1.36618 0
M  V30 1620 H 147.894 3.95273 2.37235 0
M  V30 1621 H 151.438 6.9455 0.651663 0
M  V30 1622 H 147.335 6.23713 1.66289 0
M  V30 1623 H 148.103 8.142 0.837913 0
M  V30 1624 N 150.766 -0.704594 1.40972 0
M  V30 1625 C 152.012 -1.46675 1.40051 0
M  V30 1626 C 152.345 -1.94199 0.00641102 0
M  V30 1627 O 151.62 -1.68916 -0.964235 0
M  V30 1628 C 151.903 -2.68505 2.39952 0
M  V30 1629 C 151.756 -2.26805 3.88432 0
M  V30 1630 C 153.075 -3.70686 2.37233 0
M  V30 1631 H 150.194 -0.532015 0.510028 0
M  V30 1632 H 152.836 -0.803255 1.72185 0
M  V30 1633 H 150.986 -3.25114 2.1268 0
M  V30 1634 H 152.658 -1.75592 4.26574 0
M  V30 1635 H 150.901 -1.58685 4.03734 0
M  V30 1636 H 151.572 -3.14181 4.53866 0
M  V30 1637 H 154.048 -3.23731 2.61415 0
M  V30 1638 H 152.924 -4.53553 3.09162 0
M  V30 1639 H 153.185 -4.19754 1.38777 0
M  V30 1640 N 152.244 -1.26651 -0.937939 0
M  V30 1641 C 153.192 -1.08308 -2.05845 0
M  V30 1642 C 154.186 -0.0090757 -1.69398 0
M  V30 1643 O 155.392 -0.166007 -1.79233 0
M  V30 1644 H 151.767 -0.333416 -0.674046 0
M  V30 1645 H 153.738 -2.03261 -2.18467 0
M  V30 1646 C 152.487 -0.736229 -3.39816 0
M  V30 1647 H 151.81 -1.55453 -3.6834 0
M  V30 1648 H 153.25 -0.64769 -4.19024 0
M  V30 1649 C 151.709 0.558824 -3.32233 0
M  V30 1650 O 152.239 1.59621 -3.68624 0
M  V30 1651 N 150.445 0.550657 -2.85335 0
M  V30 1652 H 149.992 -0.293943 -2.55917 0
M  V30 1653 H 149.95 1.41726 -2.80644 0
M  V30 1654 N 153.722 1.14298 -1.08507 0
M  V30 1655 C 154.655 2.18447 -0.660004 0
M  V30 1656 C 155.633 1.59242 0.328749 0
M  V30 1657 O 156.817 1.87062 0.232367 0
M  V30 1658 C 153.944 3.38688 0.0290807 0
M  V30 1659 C 152.99 4.1646 -0.919982 0
M  V30 1660 S 153.823 4.77334 -2.42718 0
M  V30 1661 C 154.979 6.00931 -1.75024 0
M  V30 1662 H 155.212 2.54166 -1.54231 0
M  V30 1663 H 152.745 1.25446 -0.900149 0
M  V30 1664 H 154.703 4.08342 0.420378 0
M  V30 1665 H 153.364 3.01289 0.887895 0
M  V30 1666 H 152.557 5.02529 -0.384751 0
M  V30 1667 H 152.159 3.52414 -1.25223 0
M  V30 1668 H 154.451 6.69017 -1.06877 0
M  V30 1669 H 155.394 6.59044 -2.58971 0
M  V30 1670 H 155.802 5.51089 -1.22317 0
M  V30 1671 N 155.201 0.870884 1.31352 0
M  V30 1672 C 156.431 0.496049 2.00557 0
M  V30 1673 C 156.839 -0.916241 1.65534 0
M  V30 1674 O 156.182 -1.61188 0.881134 0
M  V30 1675 C 156.244 0.574418 3.54881 0
M  V30 1676 C 155.908 1.94849 4.1338 0
M  V30 1677 C 156.905 2.91611 4.30417 0
M  V30 1678 C 154.59 2.25005 4.49086 0
M  V30 1679 C 156.584 4.16672 4.82352 0
M  V30 1680 C 154.271 3.50315 5.00722 0
M  V30 1681 C 155.269 4.45964 5.17306 0
M  V30 1682 O 154.957 5.69052 5.67833 0
M  V30 1683 H 154.689 0.191664 0.64826 0
M  V30 1684 H 157.243 1.17409 1.68536 0
M  V30 1685 H 155.473 -0.160549 3.86367 0
M  V30 1686 H 157.162 0.212879 4.05341 0
M  V30 1687 H 157.928 2.69622 4.03149 0
M  V30 1688 H 153.807 1.51332 4.35453 0
M  V30 1689 H 157.351 4.91336 4.95211 0
M  V30 1690 H 153.248 3.72147 5.27424 0
M  V30 1691 H 154.016 5.71236 5.86201 0
M  V30 1692 N 156.679 -1.44442 0.630414 0
M  V30 1693 C 157.925 -2.02351 0.134816 0
M  V30 1694 C 158.258 -1.4947 -1.23986 0
M  V30 1695 O 157.533 -0.678475 -1.82283 0
M  V30 1696 C 157.816 -3.59898 0.120707 0
M  V30 1697 C 157.669 -4.23063 1.52767 0
M  V30 1698 C 158.988 -4.36585 -0.555127 0
M  V30 1699 H 156.107 -0.73527 0.0504646 0
M  V30 1700 H 158.749 -1.72022 0.806751 0
M  V30 1701 H 156.899 -3.85868 -0.451477 0
M  V30 1702 H 158.571 -4.08202 2.14869 0
M  V30 1703 H 156.814 -3.80586 2.08175 0
M  V30 1704 H 157.485 -5.32071 1.46984 0
M  V30 1705 H 159.961 -4.16044 -0.0685429 0
M  V30 1706 H 158.837 -5.46294 -0.534185 0
M  V30 1707 H 159.098 -4.11138 -1.62535 0
M  V30 1708 N 158.157 -0.370918 -1.53173 0
M  V30 1709 C 159.382 0.220293 -2.06227 0
M  V30 1710 C 159.807 1.41243 -1.24225 0
M  V30 1711 O 159.165 1.79387 -0.262645 0
M  V30 1712 C 159.213 0.586663 -3.55796 0
M  V30 1713 O 158.317 1.68317 -3.76488 0
M  V30 1714 H 157.658 0.0308099 -0.663285 0
M  V30 1715 H 160.188 -0.533068 -1.97534 0
M  V30 1716 H 160.198 0.85617 -3.98916 0
M  V30 1717 H 158.873 -0.285013 -4.14922 0
M  V30 1718 H 157.45 1.40881 -3.45264 0
M  V30 1719 N 159.635 1.57281 -0.100228 0
M  V30 1720 C 160.884 1.93713 0.561984 0
M  V30 1721 C 161.197 0.984492 1.69018 0
M  V30 1722 O 162.403 1.24273 2.41389 0
M  V30 1723 C 160.859 3.4421 1.05106 0
M  V30 1724 C 160.467 4.47975 -0.0476628 0
M  V30 1725 C 162.211 3.89595 1.68571 0
M  V30 1726 C 160.118 5.89631 0.457055 0
M  V30 1727 H 159.048 0.723082 0.2137 0
M  V30 1728 H 161.699 1.82644 -0.177057 0
M  V30 1729 H 160.081 3.50449 1.84395 0
M  V30 1730 H 161.255 4.53385 -0.823333 0
M  V30 1731 H 159.57 4.1223 -0.587816 0
M  V30 1732 H 162.167 4.92832 2.07414 0
M  V30 1733 H 162.51 3.28526 2.55688 0
M  V30 1734 H 163.043 3.86078 0.958562 0
M  V30 1735 H 159.782 6.54411 -0.377616 0
M  V30 1736 H 159.302 5.87681 1.19962 0
M  V30 1737 H 160.981 6.40363 0.92437 0
M  V30 1738 N 161.113 -0.173488 1.56642 0
M  V30 1739 C 162.359 -0.891784 1.8214 0
M  V30 1740 C 162.692 -1.8199 0.677736 0
M  V30 1741 O 161.967 -1.91842 -0.320446 0
M  V30 1742 C 162.25 -1.68933 3.18015 0
M  V30 1743 C 162.103 -0.784487 4.42906 0
M  V30 1744 C 163.422 -2.65748 3.50808 0
M  V30 1745 H 160.541 -0.322761 0.662567 0
M  V30 1746 H 163.183 -0.158095 1.89341 0
M  V30 1747 H 161.333 -2.31482 3.12007 0
M  V30 1748 H 163.005 -0.172046 4.60979 0
M  V30 1749 H 161.248 -0.0924117 4.33702 0
M  V30 1750 H 161.919 -1.37799 5.34524 0
M  V30 1751 H 164.395 -2.13327 3.57255 0
M  V30 1752 H 163.271 -3.18619 4.4696 0
M  V30 1753 H 163.532 -3.45842 2.75401 0
M  V30 1754 N 162.591 -1.51276 -0.441967 0
M  V30 1755 C 163.838 -1.63715 -1.19179 0
M  V30 1756 C 164.166 -0.351175 -1.91303 0
M  V30 1757 O 163.421 0.664524 -1.84072 0
M  V30 1758 C 163.72 -2.78746 -2.23686 0
M  V30 1759 C 163.386 -4.18189 -1.68607 0
M  V30 1760 C 162.048 -4.56125 -1.53308 0
M  V30 1761 C 164.4 -5.05222 -1.28062 0
M  V30 1762 C 161.728 -5.78804 -0.959317 0
M  V30 1763 C 164.08 -6.28476 -0.721162 0
M  V30 1764 C 162.744 -6.65188 -0.55504 0
M  V30 1765 H 162.014 -0.599076 -0.436106 0
M  V30 1766 H 164.661 -1.85296 -0.48351 0
M  V30 1767 H 162.966 -2.51369 -3.00535 0
M  V30 1768 H 164.663 -2.8557 -2.81515 0
M  V30 1769 H 161.253 -3.88277 -1.8149 0
M  V30 1770 H 165.437 -4.76524 -1.38704 0
M  V30 1771 H 160.693 -6.05899 -0.81833 0
M  V30 1772 H 164.867 -6.95259 -0.398458 0
M  V30 1773 H 162.494 -7.60123 -0.108311 0
M  V30 1774 N 164.069 0.697108 -1.41344 0
M  V30 1775 C 165.316 1.45714 -1.40619 0
M  V30 1776 C 165.644 1.94494 -0.0147907 0
M  V30 1777 O 164.899 1.69794 0.973066 0
M  V30 1778 C 165.198 2.68553 -2.35826 0
M  V30 1779 C 164.864 2.38438 -3.82698 0
M  V30 1780 C 163.526 2.29936 -4.22709 0
M  V30 1781 C 165.878 2.13567 -4.75435 0
M  V30 1782 C 163.206 1.94656 -5.53467 0
M  V30 1783 C 165.558 1.79797 -6.06511 0
M  V30 1784 C 164.222 1.69789 -6.45545 0
M  V30 1785 H 163.492 0.533206 -0.51456 0
M  V30 1786 H 166.139 0.796901 -1.74131 0
M  V30 1787 H 164.444 3.39503 -1.95563 0
M  V30 1788 H 166.141 3.2669 -2.32539 0
M  V30 1789 H 162.731 2.4595 -3.51008 0
M  V30 1790 H 166.915 2.19082 -4.45328 0
M  V30 1791 H 162.171 1.8546 -5.82593 0
M  V30 1792 H 166.345 1.59572 -6.77872 0
M  V30 1793 H 163.972 1.4222 -7.46778 0
M  V30 1794 N 165.547 1.27147 0.931209 0
M  V30 1795 C 166.795 1.13055 1.6752 0
M  V30 1796 C 167.116 -0.324791 1.92276 0
M  V30 1797 O 166.386 -1.22775 1.52654 0
M  V30 1798 H 164.966 0.415391 0.620854 0
M  V30 1799 H 167.628 1.59623 1.11833 0
M  V30 1800 H 166.724 1.65694 2.64485 0
M  V30 1801 N 167.025 -1.13721 1.09112 0
M  V30 1802 C 167.955 -2.21148 0.749385 0
M  V30 1803 C 168.936 -1.6792 -0.271475 0
M  V30 1804 O 170.121 -1.93693 -0.140251 0
M  V30 1805 C 167.251 -3.46905 0.165659 0
M  V30 1806 C 166.205 -4.13203 1.11567 0
M  V30 1807 C 165.531 -5.33248 0.393809 0
M  V30 1808 C 166.831 -4.60912 2.45678 0
M  V30 1809 H 168.525 -2.4999 1.64758 0
M  V30 1810 H 166.071 -1.20156 0.793626 0
M  V30 1811 H 168.024 -4.21313 -0.085466 0
M  V30 1812 H 166.748 -3.17449 -0.767714 0
M  V30 1813 H 165.407 -3.40758 1.35202 0
M  V30 1814 H 165.055 -5.00054 -0.543599 0
M  V30 1815 H 164.755 -5.78552 1.02721 0
M  V30 1816 H 166.279 -6.10413 0.150908 0
M  V30 1817 H 167.693 -5.26759 2.26269 0
M  V30 1818 H 166.09 -5.16944 3.04776 0
M  V30 1819 H 167.16 -3.75603 3.06677 0
M  V30 1820 N 168.503 -0.877838 -1.30888 0
M  V30 1821 C 169.752 -0.488793 -1.95688 0
M  V30 1822 C 170.065 0.965485 -1.70111 0
M  V30 1823 O 171.271 1.46104 -2.28836 0
M  V30 1824 C 169.727 -0.823201 -3.50359 0
M  V30 1825 C 169.335 -2.29477 -3.84765 0
M  V30 1826 C 171.079 -0.503009 -4.21509 0
M  V30 1827 C 168.986 -2.57118 -5.32583 0
M  V30 1828 H 167.916 -0.179062 -0.732429 0
M  V30 1829 H 170.567 -1.07183 -1.48943 0
M  V30 1830 H 168.949 -0.169331 -3.95638 0
M  V30 1831 H 170.123 -2.99236 -3.5042 0
M  V30 1832 H 168.438 -2.58178 -3.267 0
M  V30 1833 H 171.035 -0.68665 -5.30273 0
M  V30 1834 H 171.378 0.557109 -4.12555 0
M  V30 1835 H 171.911 -1.11376 -3.8189 0
M  V30 1836 H 168.65 -3.61843 -5.4658 0
M  V30 1837 H 168.17 -1.91961 -5.68253 0
M  V30 1838 H 169.849 -2.42251 -5.99936 0
M  V30 1839 N 169.982 1.44106 -0.638065 0
M  V30 1840 C 171.207 2.0685 -0.150916 0
M  V30 1841 C 171.632 1.47417 1.16833 0
M  V30 1842 O 170.99 0.578264 1.71831 0
M  V30 1843 C 171.038 3.60555 -0.05708 0
M  V30 1844 O 170.142 4.00465 0.984972 0
M  V30 1845 H 169.483 0.658151 -0.0879399 0
M  V30 1846 H 172.013 1.84865 -0.876707 0
M  V30 1847 H 172.023 4.07789 0.131232 0
M  V30 1848 H 170.698 4.03193 -1.02021 0
M  V30 1849 H 169.275 3.64849 0.770672 0
M  V30 1850 N 171.46 0.379036 1.52974 0
M  V30 1851 C 172.707 -0.206421 2.01445 0
M  V30 1852 C 173.035 -1.47668 1.26587 0
M  V30 1853 O 172.29 -1.92514 0.351675 0
M  V30 1854 C 172.589 -0.53096 3.53434 0
M  V30 1855 C 172.255 0.646546 4.46241 0
M  V30 1856 C 170.917 0.969604 4.7133 0
M  V30 1857 C 173.269 1.43479 5.01062 0
M  V30 1858 C 170.597 2.08263 5.48492 0
M  V30 1859 C 172.949 2.53834 5.7944 0
M  V30 1860 C 171.613 2.86659 6.02812 0
M  V30 1861 H 170.883 -0.0755349 0.73714 0
M  V30 1862 H 173.53 0.514271 1.84465 0
M  V30 1863 H 171.835 -1.33285 3.68432 0
M  V30 1864 H 173.532 -0.996417 3.88423 0
M  V30 1865 H 170.122 0.384734 4.2687 0
M  V30 1866 H 174.306 1.19844 4.81613 0
M  V30 1867 H 169.562 2.34078 5.64816 0
M  V30 1868 H 173.736 3.15319 6.20924 0
M  V30 1869 H 171.363 3.73026 6.62387 0
M  V30 1870 N 172.938 -1.57226 0.108567 0
M  V30 1871 C 174.215 -1.86333 -0.594939 0
M  V30 1872 C 174.595 -1.00788 -1.85486 0
M  V30 1873 O 173.943 -0.0839293 -2.28346 0
M  V30 1874 C 174.153 -3.37265 -0.897405 0
M  V30 1875 C 175.501 -4.05629 -1.25501 0
M  V30 1876 O 176.525 -3.42224 -0.987998 0
M  V30 1877 O 175.384 -5.17531 -1.75567 0
M  V30 1878 H 172.478 -0.771018 -0.2991 0
M  V30 1879 H 175.024 -1.69102 0.142283 0
M  V30 1880 H 173.796 -3.913 -0.00413806 0
M  V30 1881 H 173.419 -3.59889 -1.69014 0
M  V30 1882 N 174.416 0.165178 -1.56732 0
M  V30 1883 C 175.832 0.517174 -1.50988 0
M  V30 1884 C 176.032 1.84331 -0.813894 0
M  V30 1885 O 175.088 2.49672 -0.37682 0
M  V30 1886 C 176.401 0.544261 -2.95733 0
M  V30 1887 C 177.949 0.631039 -3.06573 0
M  V30 1888 C 178.424 0.68896 -4.52788 0
M  V30 1889 N 179.915 0.751683 -4.5706 0
M  V30 1890 C 180.65 0.817177 -5.67547 0
M  V30 1891 N 180.146 0.843129 -6.8765 0
M  V30 1892 N 181.939 0.856668 -5.55534 0
M  V30 1893 H 174.09 -0.704318 -2.00382 0
M  V30 1894 H 176.353 -0.254687 -0.913148 0
M  V30 1895 H 176.059 -0.361607 -3.49836 0
M  V30 1896 H 175.933 1.3886 -3.5071 0
M  V30 1897 H 178.32 1.52733 -2.52501 0
M  V30 1898 H 178.401 -0.240095 -2.54671 0
M  V30 1899 H 178.045 -0.2031 -5.07494 0
M  V30 1900 H 177.975 1.57633 -5.02454 0
M  V30 1901 H 180.466 0.739661 -3.70591 0
M  V30 1902 H 180.779 0.894448 -7.67606 0
M  V30 1903 H 179.124 0.811304 -6.90248 0
M  V30 1904 H 182.315 0.833437 -4.60621 0
M  V30 1905 H 182.488 0.904247 -6.4166 0
M  V30 1906 N 175.894 1.51508 0.433938 0
M  V30 1907 C 177.124 1.67914 1.20369 0
M  V30 1908 C 177.532 0.377461 1.85397 0
M  V30 1909 O 176.875 -0.654255 1.71654 0
M  V30 1910 C 176.937 2.74045 2.32679 0
M  V30 1911 C 176.601 4.16543 1.87991 0
M  V30 1912 C 177.598 5.01211 1.38145 0
M  V30 1913 C 175.283 4.6266 1.95579 0
M  V30 1914 C 177.277 6.30056 0.964774 0
M  V30 1915 C 174.964 5.91501 1.53523 0
M  V30 1916 C 175.962 6.75027 1.04055 0
M  V30 1917 O 175.65 8.01459 0.625964 0
M  V30 1918 H 175.382 0.566578 0.368735 0
M  V30 1919 H 177.936 1.98709 0.51999 0
M  V30 1920 H 176.166 2.38572 3.04336 0
M  V30 1921 H 177.855 2.79295 2.94532 0
M  V30 1922 H 178.621 4.66783 1.31675 0
M  V30 1923 H 174.5 3.97767 2.33029 0
M  V30 1924 H 178.044 6.95202 0.57796 0
M  V30 1925 H 173.941 6.25442 1.59665 0
M  V30 1926 H 174.709 8.15043 0.751509 0
M  V30 1927 N 177.372 -0.689602 1.41712 0
M  V30 1928 C 178.602 -1.47613 1.44548 0
M  V30 1929 C 179.01 -1.89132 0.0509034 0
M  V30 1930 O 178.353 -1.57741 -0.94146 0
M  V30 1931 C 178.415 -2.76596 2.2964 0
M  V30 1932 C 178.079 -2.57245 3.77722 0
M  V30 1933 C 179.076 -2.22804 4.69739 0
M  V30 1934 C 176.761 -2.727 4.2183 0
M  V30 1935 C 178.755 -2.04064 6.03851 0
M  V30 1936 C 176.442 -2.53576 5.56006 0
M  V30 1937 C 177.44 -2.1931 6.46832 0
M  V30 1938 O 177.128 -2.00359 7.78532 0
M  V30 1939 H 176.86 -0.461227 0.494212 0
M  V30 1940 H 179.414 -0.856045 1.86711 0
M  V30 1941 H 177.644 -3.41033 1.82301 0
M  V30 1942 H 179.333 -3.38424 2.24107 0
M  V30 1943 H 180.099 -2.10473 4.36951 0
M  V30 1944 H 175.978 -2.98353 3.51435 0
M  V30 1945 H 179.522 -1.77241 6.74708 0
M  V30 1946 H 175.419 -2.65499 5.88371 0
M  V30 1947 H 176.187 -2.15075 7.89737 0
M  V30 1948 N 178.85 -1.27639 -0.924453 0
M  V30 1949 C 179.797 -1.10644 -2.0255 0
M  V30 1950 C 180.767 -0.00658438 -1.66099 0
M  V30 1951 O 181.952 -0.16952 -1.90045 0
M  V30 1952 C 179.092 -0.76309 -3.36557 0
M  V30 1953 C 178.205 -1.94091 -3.85944 0
M  V30 1954 C 177.34 -1.53914 -5.08413 0
M  V30 1955 C 176.379 -2.68425 -5.50104 0
M  V30 1956 N 175.516 -2.28815 -6.63768 0
M  V30 1957 H 180.356 -2.04858 -2.16419 0
M  V30 1958 H 177.893 -1.01974 -1.06017 0
M  V30 1959 H 179.851 -0.544822 -4.13627 0
M  V30 1960 H 178.481 0.142102 -3.22487 0
M  V30 1961 H 177.533 -2.27162 -3.05125 0
M  V30 1962 H 178.845 -2.7998 -4.12811 0
M  V30 1963 H 177.999 -1.28231 -5.92994 0
M  V30 1964 H 176.738 -0.651391 -4.8333 0
M  V30 1965 H 175.743 -2.94819 -4.64071 0
M  V30 1966 H 176.968 -3.57826 -5.7718 0
M  V30 1967 H 174.914 -1.42495 -6.40337 0
M  V30 1968 H 174.831 -3.08242 -6.90306 0
M  V30 1969 H 176.099 -2.06387 -7.51681 0
M  V30 1970 N 180.328 1.1314 -1.09713 0
M  V30 1971 C 181.577 1.83838 -0.829851 0
M  V30 1972 C 181.89 1.84599 0.646728 0
M  V30 1973 O 183.096 2.51218 1.02965 0
M  V30 1974 C 181.552 3.30069 -1.43466 0
M  V30 1975 C 181.16 3.37688 -2.94399 0
M  V30 1976 C 182.904 4.05788 -1.24645 0
M  V30 1977 C 180.811 4.78209 -3.47952 0
M  V30 1978 H 179.741 0.68877 -0.306777 0
M  V30 1979 H 182.392 1.27448 -1.3202 0
M  V30 1980 H 180.774 3.8628 -0.871996 0
M  V30 1981 H 181.948 2.91456 -3.56918 0
M  V30 1982 H 180.263 2.75436 -3.12289 0
M  V30 1983 H 182.86 5.09535 -1.62107 0
M  V30 1984 H 183.203 4.15878 -0.187357 0
M  V30 1985 H 183.736 3.55915 -1.77678 0
M  V30 1986 H 180.475 4.73311 -4.53495 0
M  V30 1987 H 179.995 5.24924 -2.90198 0
M  V30 1988 H 181.674 5.47133 -3.45332 0
M  V30 1989 N 181.806 0.884767 1.30421 0
M  V30 1990 C 183.052 0.503851 1.96441 0
M  V30 1991 C 183.385 -0.944518 1.69684 0
M  V30 1992 O 182.66 -1.66737 1.00145 0
M  V30 1993 C 182.943 0.779085 3.51571 0
M  V30 1994 C 182.796 2.27807 3.87846 0
M  V30 1995 C 184.115 0.255452 4.39358 0
M  V30 1996 H 181.234 0.184533 0.713524 0
M  V30 1997 H 183.876 1.10872 1.54297 0
M  V30 1998 H 182.026 0.264274 3.876 0
M  V30 1999 H 183.698 2.86127 3.61841 0
M  V30 2000 H 181.941 2.74479 3.35922 0
M  V30 2001 H 182.612 2.42125 4.96064 0
M  V30 2002 H 185.088 0.696079 4.10236 0
M  V30 2003 H 183.964 0.477361 5.4682 0
M  V30 2004 H 184.225 -0.843293 4.33983 0
M  V30 2005 N 183.284 -1.43765 0.645699 0
M  V30 2006 C 184.231 -2.30745 -0.0504648 0
M  V30 2007 C 185.201 -1.4432 -0.822241 0
M  V30 2008 O 186.386 -1.73202 -0.800358 0
M  V30 2009 C 183.526 -3.29802 -1.0161 0
M  V30 2010 C 182.639 -4.31326 -0.241219 0
M  V30 2011 C 181.774 -5.17469 -1.19998 0
M  V30 2012 C 180.813 -6.10691 -0.415094 0
M  V30 2013 N 179.95 -6.89483 -1.32506 0
M  V30 2014 H 184.79 -2.8973 0.697155 0
M  V30 2015 H 182.327 -1.42738 0.355563 0
M  V30 2016 H 184.285 -3.85734 -1.58949 0
M  V30 2017 H 182.915 -2.72483 -1.73069 0
M  V30 2018 H 181.967 -3.77749 0.448334 0
M  V30 2019 H 183.279 -4.9743 0.369437 0
M  V30 2020 H 182.433 -5.7799 -1.84424 0
M  V30 2021 H 181.172 -4.51473 -1.84455 0
M  V30 2022 H 180.177 -5.49265 0.242565 0
M  V30 2023 H 181.402 -6.78727 0.224966 0
M  V30 2024 H 179.348 -6.26142 -1.95657 0
M  V30 2025 H 179.265 -7.52081 -0.768783 0
M  V30 2026 H 180.533 -7.54516 -1.9577 0
M  V30 2027 N 184.763 -0.387143 -1.52771 0
M  V30 2028 C 186.174 0.0873634 -1.86495 0
M  V30 2029 C 186.525 1.46336 -1.30691 0
M  V30 2030 O 185.65 2.068 -0.637409 0
M  V30 2031 C 186.245 0.165305 -3.38396 0
M  V30 2032 C 184.804 0.584101 -3.7184 0
M  V30 2033 C 183.951 -0.255279 -2.76122 0
M  V30 2034 H 186.902 -0.605104 -1.46711 0
M  V30 2035 H 186.923 0.984848 -3.67534 0
M  V30 2036 H 186.435 -0.836301 -3.78982 0
M  V30 2037 H 184.536 1.59315 -3.36823 0
M  V30 2038 H 184.649 0.343749 -4.77865 0
M  V30 2039 H 183.013 0.279126 -2.53166 0
M  V30 2040 H 183.796 -1.25482 -3.19545 0
M  V30 2041 N 186.241 1.57166 -0.116904 0
M  V30 2042 C 187.171 2.18222 0.830759 0
M  V30 2043 C 188.152 1.12167 1.27877 0
M  V30 2044 O 189.337 1.40394 1.34176 0
M  V30 2045 C 186.467 2.77996 2.08172 0
M  V30 2046 C 185.421 3.89614 1.77157 0
M  V30 2047 C 184.747 4.36187 3.09265 0
M  V30 2048 C 186.047 5.1181 1.04151 0
M  V30 2049 H 187.741 2.97664 0.321992 0
M  V30 2050 H 185.287 1.4318 0.153434 0
M  V30 2051 H 187.24 3.19366 2.74924 0
M  V30 2052 H 185.964 1.9584 2.6137 0
M  V30 2053 H 184.623 3.48816 1.12796 0
M  V30 2054 H 184.271 3.50893 3.60393 0
M  V30 2055 H 183.971 5.11455 2.89288 0
M  V30 2056 H 185.495 4.80207 3.77139 0
M  V30 2057 H 186.909 5.50214 1.61052 0
M  V30 2058 H 185.306 5.92648 0.942762 0
M  V30 2059 H 186.376 4.84892 0.0279022 0
M  V30 2060 N 187.719 -0.156864 1.56817 0
M  V30 2061 C 188.965 -0.867645 1.83966 0
M  V30 2062 C 189.32 -1.79233 0.699511 0
M  V30 2063 O 188.613 -1.89186 -0.303176 0
M  V30 2064 C 188.807 -1.68737 3.1506 0
M  V30 2065 C 188.636 -0.843548 4.41718 0
M  V30 2066 C 187.406 -0.512994 5.02689 0
M  V30 2067 C 189.604 -0.178416 5.1399 0
M  V30 2068 N 187.586 0.345456 6.12927 0
M  V30 2069 C 188.957 0.540586 6.17639 0
M  V30 2070 C 191.012 -0.0980696 4.97803 0
M  V30 2071 C 189.715 1.33233 7.06853 0
M  V30 2072 C 191.741 0.680387 5.87473 0
M  V30 2073 C 191.103 1.3877 6.90596 0
M  V30 2074 H 187.202 -0.295642 0.723961 0
M  V30 2075 H 189.786 -0.13365 1.94241 0
M  V30 2076 H 187.957 -2.39268 3.0595 0
M  V30 2077 H 189.689 -2.34056 3.30151 0
M  V30 2078 H 186.444 -0.846476 4.65974 0
M  V30 2079 H 186.868 0.765415 6.72659 0
M  V30 2080 H 191.51 -0.630562 4.18071 0
M  V30 2081 H 189.228 1.87612 7.8602 0
M  V30 2082 H 192.814 0.744415 5.77018 0
M  V30 2083 H 191.694 1.9804 7.58782 0
M  V30 2084 N 189.197 -1.51736 -0.425897 0
M  V30 2085 C 190.425 -1.68794 -1.1965 0
M  V30 2086 C 190.84 -0.390164 -1.84725 0
M  V30 2087 O 190.197 0.632376 -1.71194 0
M  V30 2088 C 190.248 -2.81174 -2.27208 0
M  V30 2089 O 189.969 -4.05925 -1.64793 0
M  V30 2090 C 191.47 -3.09599 -3.17275 0
M  V30 2091 H 188.69 -0.566128 -0.360194 0
M  V30 2092 H 191.234 -1.98211 -0.503249 0
M  V30 2093 H 189.389 -2.54324 -2.9223 0
M  V30 2094 H 189.803 -4.68423 -2.35967 0
M  V30 2095 H 191.277 -3.91786 -3.88854 0
M  V30 2096 H 191.754 -2.22468 -3.78688 0
M  V30 2097 H 192.36 -3.38151 -2.57941 0
M  V30 2098 N 190.675 0.682077 -1.42076 0
M  V30 2099 C 191.9 1.47558 -1.45744 0
M  V30 2100 C 192.325 1.87977 -0.0680981 0
M  V30 2101 O 191.683 1.55522 0.9318 0
M  V30 2102 C 191.731 2.70575 -2.38373 0
M  V30 2103 O 190.835 3.68573 -1.85007 0
M  V30 2104 H 190.176 0.443585 -0.494093 0
M  V30 2105 H 192.706 0.837238 -1.86686 0
M  V30 2106 H 192.716 3.18729 -2.54707 0
M  V30 2107 H 191.391 2.40495 -3.39315 0
M  V30 2108 H 189.968 3.2757 -1.78192 0
M  V30 2109 N 192.153 1.28127 0.917671 0
M  V30 2110 C 193.4 1.15052 1.66641 0
M  V30 2111 C 193.728 -0.301677 1.92146 0
M  V30 2112 O 192.983 -1.23622 1.51711 0
M  V30 2113 C 193.282 1.89018 3.03327 0
M  V30 2114 C 192.948 3.38832 2.97496 0
M  V30 2115 C 191.61 3.79693 2.95613 0
M  V30 2116 C 193.962 4.34378 2.88036 0
M  V30 2117 C 191.29 5.14447 2.82066 0
M  V30 2118 C 193.642 5.69201 2.7603 0
M  V30 2119 C 192.306 6.09343 2.72502 0
M  V30 2120 H 191.576 0.421006 0.609783 0
M  V30 2121 H 194.223 1.58855 1.06945 0
M  V30 2122 H 192.528 1.37752 3.66785 0
M  V30 2123 H 194.225 1.76321 3.60156 0
M  V30 2124 H 190.815 3.06342 2.99754 0
M  V30 2125 H 194.999 4.03775 2.88581 0
M  V30 2126 H 190.255 5.44681 2.77728 0
M  V30 2127 H 194.429 6.42901 2.67678 0
M  V30 2128 H 192.056 7.13712 2.61762 0
M  V30 2129 N 193.631 -1.12557 1.10312 0
M  V30 2130 C 194.88 -1.83395 0.839588 0
M  V30 2131 C 195.193 -1.84939 -0.636929 0
M  V30 2132 O 196.399 -2.51761 -1.01631 0
M  V30 2133 C 194.855 -3.29303 1.45215 0
M  V30 2134 C 194.463 -3.36122 2.96186 0
M  V30 2135 C 196.207 -4.05121 1.26796 0
M  V30 2136 C 194.114 -4.76357 3.50483 0
M  V30 2137 H 193.044 -0.687133 0.310425 0
M  V30 2138 H 195.695 -1.26746 1.32694 0
M  V30 2139 H 194.077 -3.85812 0.892469 0
M  V30 2140 H 195.251 -2.89559 3.58458 0
M  V30 2141 H 193.566 -2.73776 3.13745 0
M  V30 2142 H 196.163 -5.08668 1.64806 0
M  V30 2143 H 196.506 -4.15773 0.209409 0
M  V30 2144 H 197.039 -3.54967 1.79563 0
M  V30 2145 H 193.778 -4.70899 4.55998 0
M  V30 2146 H 193.298 -5.23377 2.92978 0
M  V30 2147 H 194.977 -5.45294 3.48228 0
M  V30 2148 N 195.109 -0.891671 -1.2995 0
M  V30 2149 C 196.041 -0.320695 -2.26945 0
M  V30 2150 C 197.054 0.528497 -1.53983 0
M  V30 2151 O 198.243 0.346959 -1.75096 0
M  V30 2152 C 195.343 0.562066 -3.34207 0
M  V30 2153 C 194.516 -0.259576 -4.36629 0
M  V30 2154 C 193.575 0.554739 -5.23268 0
M  V30 2155 O 192.601 -0.0249311 -5.69195 0
M  V30 2156 N 193.803 1.8625 -5.4981 0
M  V30 2157 H 196.568 -1.15432 -2.76578 0
M  V30 2158 H 194.129 -0.755336 -1.432 0
M  V30 2159 H 196.121 1.11304 -3.89093 0
M  V30 2160 H 194.691 1.29637 -2.84452 0
M  V30 2161 H 193.911 -0.991986 -3.81514 0
M  V30 2162 H 195.199 -0.822564 -5.02107 0
M  V30 2163 H 194.597 2.35628 -5.14292 0
M  V30 2164 H 193.154 2.36078 -6.07545 0
M  V30 2165 N 196.587 1.43421 -0.653314 0
M  V30 2166 C 197.812 2.06678 -0.172846 0
M  V30 2167 C 198.237 1.48648 1.15262 0
M  V30 2168 O 197.595 0.596457 1.71208 0
M  V30 2169 C 197.643 3.60474 -0.0953184 0
M  V30 2170 O 196.747 4.01487 0.942442 0
M  V30 2171 H 196.088 0.657181 -0.0949155 0
M  V30 2172 H 198.618 1.83925 -0.896265 0
M  V30 2173 H 198.628 4.07905 0.0879728 0
M  V30 2174 H 197.303 4.02088 -1.06291 0
M  V30 2175 H 195.88 3.65646 0.731932 0
M  V30 2176 N 198.065 0.39524 1.52563 0
M  V30 2177 C 199.311 -0.185318 2.01952 0
M  V30 2178 C 199.644 -1.45964 1.28095 0
M  V30 2179 O 198.919 -1.90689 0.38315 0
M  V30 2180 C 199.202 -0.447193 3.57312 0
M  V30 2181 C 199.055 0.842828 4.41833 0
M  V30 2182 C 200.374 -1.23529 4.22408 0
M  V30 2183 H 197.493 -0.0658788 0.73405 0
M  V30 2184 H 200.135 0.525975 1.82575 0
M  V30 2185 H 198.285 -1.05312 3.73954 0
M  V30 2186 H 199.957 1.4795 4.36931 0
M  V30 2187 H 198.2 1.45686 4.08605 0
M  V30 2188 H 198.871 0.614165 5.48573 0
M  V30 2189 H 201.347 -0.722445 4.0978 0
M  V30 2190 H 200.223 -1.38727 5.3108 0
M  V30 2191 H 200.484 -2.25213 3.80436 0
M  V30 2192 N 199.544 -1.57102 0.125237 0
M  V30 2193 C 200.769 -2.0019 -0.542101 0
M  V30 2194 C 201.194 -1.00449 -1.59034 0
M  V30 2195 O 200.552 0.0229423 -1.81285 0
M  V30 2196 C 200.6 -3.42129 -1.13929 0
M  V30 2197 O 199.704 -3.45307 -2.2547 0
M  V30 2198 H 199.045 -0.650171 -0.134812 0
M  V30 2199 H 201.575 -2.03461 0.215553 0
M  V30 2200 H 201.585 -3.80471 -1.4733 0
M  V30 2201 H 200.26 -4.14237 -0.371531 0
M  V30 2202 H 198.837 -3.1879 -1.93462 0
M  V30 2203 N 201.022 0.148545 -1.56898 0
M  V30 2204 C 202.252 0.875118 -1.8715 0
M  V30 2205 C 202.66 1.75322 -0.711262 0
M  V30 2206 O 202.003 1.80745 0.328151 0
M  V30 2207 C 202.065 1.7844 -3.12089 0
M  V30 2208 C 201.729 1.08361 -4.43967 0
M  V30 2209 C 202.726 0.438247 -5.1805 0
M  V30 2210 C 200.411 1.07358 -4.90693 0
M  V30 2211 C 202.405 -0.20779 -6.37061 0
M  V30 2212 C 200.092 0.42373 -6.09629 0
M  V30 2213 C 201.09 -0.215829 -6.82659 0
M  V30 2214 O 200.778 -0.855378 -7.99336 0
M  V30 2215 H 200.51 0.258504 -0.624621 0
M  V30 2216 H 203.064 0.14652 -2.04877 0
M  V30 2217 H 201.294 2.55389 -2.90367 0
M  V30 2218 H 202.983 2.38279 -3.286 0
M  V30 2219 H 203.749 0.437817 -4.8302 0
M  V30 2220 H 199.628 1.5608 -4.33774 0
M  V30 2221 H 203.172 -0.70758 -6.94002 0
M  V30 2222 H 199.069 0.421822 -6.4412 0
M  V30 2223 H 199.837 -0.756892 -8.14993 0
M  V30 2224 N 202.5 1.5196 0.417844 0
M  V30 2225 C 203.725 1.69717 1.1921 0
M  V30 2226 C 204.15 0.402148 1.83751 0
M  V30 2227 O 203.508 -0.639593 1.69643 0
M  V30 2228 C 203.556 2.82794 2.2374 0
M  V30 2229 O 202.66 2.47756 3.29683 0
M  V30 2230 H 202.001 0.565263 0.348387 0
M  V30 2231 H 204.531 1.98621 0.490985 0
M  V30 2232 H 204.541 3.07452 2.68212 0
M  V30 2233 H 203.216 3.76756 1.76146 0
M  V30 2234 H 201.793 2.33739 2.90552 0
M  V30 2235 N 203.978 -0.674533 1.42435 0
M  V30 2236 C 204.925 -1.78807 1.45934 0
M  V30 2237 C 205.895 -1.63157 0.311271 0
M  V30 2238 O 207.08 -1.83707 0.515383 0
M  V30 2239 C 204.22 -3.16839 1.36773 0
M  V30 2240 C 203.333 -3.43774 2.61617 0
M  V30 2241 C 202.468 -4.71536 2.44597 0
M  V30 2242 C 201.507 -4.91505 3.64814 0
M  V30 2243 N 200.644 -6.10508 3.46734 0
M  V30 2244 H 205.484 -1.75151 2.41093 0
M  V30 2245 H 203.021 -0.85504 1.19697 0
M  V30 2246 H 204.979 -3.96606 1.29459 0
M  V30 2247 H 203.609 -3.19619 0.452089 0
M  V30 2248 H 202.661 -2.58259 2.79297 0
M  V30 2249 H 203.973 -3.54423 3.50978 0
M  V30 2250 H 203.127 -5.59393 2.3487 0
M  V30 2251 H 201.866 -4.6317 1.52726 0
M  V30 2252 H 200.871 -4.0209 3.74972 0
M  V30 2253 H 202.096 -5.01716 4.57665 0
M  V30 2254 H 200.042 -6.03315 2.5758 0
M  V30 2255 H 199.959 -6.2202 4.29682 0
M  V30 2256 H 201.227 -7.01044 3.40819 0
M  V30 2257 N 205.456 -1.28612 -0.910864 0
M  V30 2258 C 206.386 -1.15326 -2.03032 0
M  V30 2259 C 207.367 -0.0502924 -1.70026 0
M  V30 2260 O 208.552 -0.227797 -1.92859 0
M  V30 2261 C 205.682 -0.817343 -3.37545 0
M  V30 2262 C 204.636 -1.8754 -3.84724 0
M  V30 2263 C 203.962 -1.39305 -5.16235 0
M  V30 2264 C 205.262 -3.28244 -4.06267 0
M  V30 2265 H 206.956 -2.08975 -2.14406 0
M  V30 2266 H 204.502 -1.00612 -1.03021 0
M  V30 2267 H 206.455 -0.711151 -4.15356 0
M  V30 2268 H 205.179 0.154846 -3.26233 0
M  V30 2269 H 203.838 -1.97079 -3.09121 0
M  V30 2270 H 203.486 -0.409846 -5.01328 0
M  V30 2271 H 203.186 -2.10057 -5.48771 0
M  V30 2272 H 204.71 -1.30014 -5.96598 0
M  V30 2273 H 206.124 -3.21611 -4.74594 0
M  V30 2274 H 204.521 -3.96855 -4.5014 0
M  V30 2275 H 205.591 -3.72048 -3.10979 0
M  V30 2276 N 206.934 1.1197 -1.10907 0
M  V30 2277 C 207.864 2.19928 -0.784473 0
M  V30 2278 C 208.845 1.6833 0.244726 0
M  V30 2279 O 210.03 1.93892 0.109418 0
M  V30 2280 C 207.16 3.46597 -0.220827 0
M  V30 2281 C 206.114 4.11376 -1.18127 0
M  V30 2282 C 205.44 5.32554 -0.478594 0
M  V30 2283 C 206.74 4.56945 -2.52979 0
M  V30 2284 H 208.434 2.47337 -1.68715 0
M  V30 2285 H 205.98 1.18879 -0.812642 0
M  V30 2286 H 207.933 4.21396 0.0184278 0
M  V30 2287 H 206.657 3.1863 0.717113 0
M  V30 2288 H 205.316 3.38564 -1.40606 0
M  V30 2289 H 204.964 5.00856 0.463976 0
M  V30 2290 H 204.664 5.76844 -1.11912 0
M  V30 2291 H 206.188 6.10096 -0.248 0
M  V30 2292 H 207.602 5.23093 -2.3462 0
M  V30 2293 H 205.999 5.1203 -3.12962 0
M  V30 2294 H 207.069 3.70676 -3.12614 0
M  V30 2295 N 208.412 0.89855 1.29475 0
M  V30 2296 C 209.637 0.538561 2.00285 0
M  V30 2297 C 210.062 -0.869135 1.66816 0
M  V30 2298 O 209.42 -1.57831 0.892145 0
M  V30 2299 C 209.468 0.736475 3.52999 0
M  V30 2300 O 208.572 -0.211537 4.11857 0
M  V30 2301 H 207.913 0.210563 0.62973 0
M  V30 2302 H 210.443 1.20982 1.64998 0
M  V30 2303 H 210.453 0.640685 4.02938 0
M  V30 2304 H 209.128 1.76276 3.76696 0
M  V30 2305 H 207.705 -0.0682991 3.72837 0
M  V30 2306 N 209.89 -1.43072 0.660911 0
M  V30 2307 C 211.136 -2.0202 0.177708 0
M  V30 2308 C 211.469 -1.52066 -1.20787 0
M  V30 2309 O 210.744 -0.716987 -1.80802 0
M  V30 2310 C 211.027 -3.59561 0.197019 0
M  V30 2311 C 210.88 -4.19727 1.61706 0
M  V30 2312 C 212.199 -4.37664 -0.462396 0
M  V30 2313 H 209.318 -0.734034 0.0660494 0
M  V30 2314 H 211.96 -1.70272 0.843058 0
M  V30 2315 H 210.11 -3.86739 -0.369527 0
M  V30 2316 H 211.782 -4.03553 2.23479 0
M  V30 2317 H 210.025 -3.76084 2.16201 0
M  V30 2318 H 210.696 -5.28834 1.58237 0
M  V30 2319 H 213.172 -4.16095 0.0197215 0
M  V30 2320 H 212.048 -5.47305 -0.418188 0
M  V30 2321 H 212.309 -4.14493 -1.53778 0
M  V30 2322 N 211.368 -0.403325 -1.52352 0
M  V30 2323 C 212.617 0.175668 -2.00934 0
M  V30 2324 C 212.93 1.46718 -1.29356 0
M  V30 2325 O 214.136 2.12708 -1.68724 0
M  V30 2326 C 212.592 0.363612 -3.58058 0
M  V30 2327 C 212.2 -0.915472 -4.38547 0
M  V30 2328 C 213.944 0.89821 -4.14888 0
M  V30 2329 C 211.851 -0.695035 -5.87302 0
M  V30 2330 H 210.781 0.0694234 -0.750797 0
M  V30 2331 H 213.432 -0.527879 -1.75743 0
M  V30 2332 H 211.814 1.12935 -3.79555 0
M  V30 2333 H 212.988 -1.68691 -4.28812 0
M  V30 2334 H 211.303 -1.37606 -3.93006 0
M  V30 2335 H 213.9 1.07907 -5.23699 0
M  V30 2336 H 214.243 1.87126 -3.71873 0
M  V30 2337 H 214.776 0.191681 -3.97338 0
M  V30 2338 H 211.515 -1.63948 -6.34666 0
M  V30 2339 H 211.035 0.0372116 -5.99788 0
M  V30 2340 H 212.714 -0.33497 -6.46132 0
M  V30 2341 N 212.846 1.57033 -0.133567 0
M  V30 2342 C 214.092 1.95976 0.521649 0
M  V30 2343 C 214.425 1.01779 1.65393 0
M  V30 2344 O 213.7 0.0576581 1.94415 0
M  V30 2345 C 213.983 3.44738 1.04057 0
M  V30 2346 C 213.836 4.49711 -0.0892897 0
M  V30 2347 C 215.155 3.95682 1.92675 0
M  V30 2348 H 212.274 0.712579 0.188149 0
M  V30 2349 H 214.916 1.88813 -0.212076 0
M  V30 2350 H 213.066 3.50973 1.66583 0
M  V30 2351 H 214.738 4.55565 -0.725152 0
M  V30 2352 H 212.981 4.27261 -0.750378 0
M  V30 2353 H 213.652 5.51099 0.315284 0
M  V30 2354 H 216.128 3.91841 1.39998 0
M  V30 2355 H 215.004 5.00262 2.25897 0
M  V30 2356 H 215.265 3.37239 2.85872 0
M  V30 2357 N 214.325 -0.140222 1.56975 0
M  V30 2358 C 215.571 -0.848084 1.84876 0
M  V30 2359 C 215.926 -1.78481 0.718481 0
M  V30 2360 O 215.219 -1.89497 -0.283093 0
M  V30 2361 C 215.413 -1.65386 3.16832 0
M  V30 2362 C 215.242 -0.79665 4.42587 0
M  V30 2363 C 214.012 -0.459648 5.03205 0
M  V30 2364 C 216.21 -0.12389 5.14151 0
M  V30 2365 N 214.192 0.410446 6.12526 0
M  V30 2366 C 215.563 0.606064 6.17031 0
M  V30 2367 C 217.618 -0.0452654 4.97879 0
M  V30 2368 C 216.321 1.40723 7.054 0
M  V30 2369 C 218.347 0.742658 5.86718 0
M  V30 2370 C 217.709 1.46087 6.89085 0
M  V30 2371 H 213.808 -0.287946 0.727056 0
M  V30 2372 H 216.392 -0.11304 1.94372 0
M  V30 2373 H 214.563 -2.36009 3.08471 0
M  V30 2374 H 216.295 -2.30541 3.32615 0
M  V30 2375 H 213.05 -0.797006 4.66846 0
M  V30 2376 H 213.474 0.836716 6.7181 0
M  V30 2377 H 218.116 -0.586184 4.18717 0
M  V30 2378 H 215.834 1.95938 7.83986 0
M  V30 2379 H 219.42 0.805574 5.76196 0
M  V30 2380 H 218.3 2.06077 7.56639 0
M  V30 2381 N 215.803 -1.52179 -0.40978 0
M  V30 2382 C 216.736 -1.70196 -1.52015 0
M  V30 2383 C 217.714 -0.549542 -1.53032 0
M  V30 2384 O 218.898 -0.776815 -1.71749 0
M  V30 2385 C 216.025 -1.74069 -2.90547 0
M  V30 2386 C 215.071 -2.95601 -3.07445 0
M  V30 2387 S 215.904 -4.55956 -2.80827 0
M  V30 2388 C 217.06 -4.62614 -4.21591 0
M  V30 2389 H 217.293 -2.64109 -1.36504 0
M  V30 2390 H 214.826 -1.4221 -0.601312 0
M  V30 2391 H 216.784 -1.76985 -3.70387 0
M  V30 2392 H 215.445 -0.812835 -3.034 0
M  V30 2393 H 214.638 -2.94791 -4.08796 0
M  V30 2394 H 214.24 -2.90569 -2.35469 0
M  V30 2395 H 216.532 -4.39951 -5.15218 0
M  V30 2396 H 217.475 -5.64548 -4.27424 0
M  V30 2397 H 217.883 -3.91654 -4.06531 0
M  V30 2398 N 217.281 0.66697 -1.42791 0
M  V30 2399 C 218.211 1.79218 -1.49677 0
M  V30 2400 C 219.192 1.66405 -0.352623 0
M  V30 2401 O 220.377 1.85708 -0.567993 0
M  V30 2402 C 217.507 3.17565 -1.40605 0
M  V30 2403 C 216.461 3.45124 -2.53127 0
M  V30 2404 C 215.787 4.83127 -2.29112 0
M  V30 2405 C 217.087 3.41236 -3.95418 0
M  V30 2406 H 218.781 1.73713 -2.43853 0
M  V30 2407 H 216.327 0.83432 -1.17367 0
M  V30 2408 H 218.28 3.96022 -1.44029 0
M  V30 2409 H 217.004 3.23767 -0.429271 0
M  V30 2410 H 215.663 2.69031 -2.49034 0
M  V30 2411 H 215.311 4.85988 -1.29709 0
M  V30 2412 H 215.011 5.02528 -3.04531 0
M  V30 2413 H 216.535 5.63859 -2.34297 0
M  V30 2414 H 217.949 4.09651 -4.01073 0
M  V30 2415 H 216.346 3.72173 -4.70752 0
M  V30 2416 H 217.416 2.39665 -4.21532 0
M  V30 2417 N 218.759 1.29093 0.90403 0
M  V30 2418 C 219.692 1.08176 2.00931 0
M  V30 2419 C 220.67 -0.005083 1.62599 0
M  V30 2420 O 221.854 0.144765 1.87943 0
M  V30 2421 C 218.981 0.645897 3.32484 0
M  V30 2422 C 218.027 1.73081 3.89801 0
M  V30 2423 S 218.86 3.32905 4.19446 0
M  V30 2424 C 220.016 2.91176 5.54046 0
M  V30 2425 H 220.249 2.01752 2.18365 0
M  V30 2426 H 217.782 1.13191 1.0501 0
M  V30 2427 H 219.74 0.401131 4.08535 0
M  V30 2428 H 218.401 -0.270188 3.12936 0
M  V30 2429 H 217.594 1.37768 4.84805 0
M  V30 2430 H 217.196 1.92888 3.20422 0
M  V30 2431 H 219.488 2.37952 6.34338 0
M  V30 2432 H 220.431 3.85014 5.94281 0
M  V30 2433 H 220.839 2.296 5.15698 0
M  V30 2434 N 220.237 -1.11381 1.11499 0
M  V30 2435 C 221.167 -2.19509 0.796125 0
M  V30 2436 C 222.148 -1.68458 -0.235796 0
M  V30 2437 O 223.333 -1.93947 -0.0991344 0
M  V30 2438 C 220.463 -3.46475 0.239205 0
M  V30 2439 C 219.417 -4.10744 1.20307 0
M  V30 2440 C 218.743 -5.32293 0.50683 0
M  V30 2441 C 220.043 -4.55597 2.55399 0
M  V30 2442 H 221.737 -2.46439 1.70024 0
M  V30 2443 H 219.283 -1.18446 0.818935 0
M  V30 2444 H 221.236 -4.214 0.00392006 0
M  V30 2445 H 219.96 -3.19006 -0.700206 0
M  V30 2446 H 218.619 -3.37813 1.42399 0
M  V30 2447 H 218.267 -5.01095 -0.437408 0
M  V30 2448 H 217.967 -5.76243 1.1497 0
M  V30 2449 H 219.491 -6.09956 0.280351 0
M  V30 2450 H 220.905 -5.21841 2.37391 0
M  V30 2451 H 219.302 -5.10363 3.15673 0
M  V30 2452 H 220.372 -3.69013 3.14575 0
M  V30 2453 N 221.715 -0.905404 -1.28997 0
M  V30 2454 C 222.645 -0.404212 -2.29975 0
M  V30 2455 C 223.626 0.523784 -1.61835 0
M  V30 2456 O 224.811 0.433298 -1.89304 0
M  V30 2457 C 221.941 0.364042 -3.45387 0
M  V30 2458 C 220.895 -0.474048 -4.25367 0
M  V30 2459 C 220.221 0.422045 -5.33032 0
M  V30 2460 C 221.521 -1.72696 -4.92923 0
M  V30 2461 H 223.215 -1.24807 -2.72146 0
M  V30 2462 H 220.761 -0.601585 -1.30832 0
M  V30 2463 H 222.714 0.725447 -4.15109 0
M  V30 2464 H 221.438 1.24174 -3.02074 0
M  V30 2465 H 220.097 -0.81786 -3.57361 0
M  V30 2466 H 219.745 1.29804 -4.85963 0
M  V30 2467 H 219.445 -0.135057 -5.87445 0
M  V30 2468 H 220.969 0.779517 -6.05604 0
M  V30 2469 H 222.383 -1.43495 -5.55051 0
M  V30 2470 H 220.78 -2.22582 -5.57295 0
M  V30 2471 H 221.85 -2.45964 -4.17887 0
M  V30 2472 N 223.193 1.4272 -0.668489 0
M  V30 2473 C 224.123 2.335 -0.000100175 0
M  V30 2474 C 225.104 1.50328 0.795964 0
M  V30 2475 O 226.289 1.78949 0.754385 0
M  V30 2476 C 223.419 3.33874 0.956302 0
M  V30 2477 C 222.373 4.27152 0.269278 0
M  V30 2478 C 221.699 5.17684 1.33818 0
M  V30 2479 C 222.999 5.15373 -0.847805 0
M  V30 2480 H 224.693 2.89639 -0.758244 0
M  V30 2481 H 222.239 1.39269 -0.366079 0
M  V30 2482 H 224.192 3.9629 1.43292 0
M  V30 2483 H 222.916 2.76025 1.74579 0
M  V30 2484 H 221.575 3.66123 -0.187042 0
M  V30 2485 H 221.223 4.56165 2.1195 0
M  V30 2486 H 220.923 5.80918 0.883659 0
M  V30 2487 H 222.447 5.82974 1.81586 0
M  V30 2488 H 223.861 5.7151 -0.452681 0
M  V30 2489 H 222.258 5.87407 -1.22773 0
M  V30 2490 H 223.328 4.5415 -1.69929 0
M  V30 2491 N 224.671 0.411399 1.52136 0
M  V30 2492 C 225.634 -0.401089 2.25663 0
M  V30 2493 C 226.634 -0.971732 1.28117 0
M  V30 2494 O 227.824 -0.850254 1.52041 0
M  V30 2495 C 224.956 -1.56483 3.02863 0
M  V30 2496 H 226.149 0.24295 2.98914 0
M  V30 2497 H 223.702 0.163968 1.55438 0
M  V30 2498 H 224.437 -2.24567 2.33967 0
M  V30 2499 H 224.222 -1.16211 3.74483 0
M  V30 2500 H 225.712 -2.13951 3.58629 0
M  V30 2501 N 226.149 -1.5696 0.141893 0
M  V30 2502 C 227.395 -1.9625 -0.511248 0
M  V30 2503 C 227.728 -1.02654 -1.64851 0
M  V30 2504 O 227.003 -0.0679676 -1.94381 0
M  V30 2505 C 227.286 -3.45285 -1.02227 0
M  V30 2506 C 227.139 -4.49658 0.113138 0
M  V30 2507 C 228.458 -3.96698 -1.90574 0
M  V30 2508 H 225.577 -0.713567 -0.184367 0
M  V30 2509 H 228.219 -1.88698 0.222087 0
M  V30 2510 H 226.369 -3.51852 -1.64719 0
M  V30 2511 H 228.041 -4.55174 0.749302 0
M  V30 2512 H 226.284 -4.26857 0.773026 0
M  V30 2513 H 226.955 -5.51258 -0.286053 0
M  V30 2514 H 229.431 -3.92578 -1.37918 0
M  V30 2515 H 228.307 -5.01453 -2.2324 0
M  V30 2516 H 228.568 -3.3875 -2.84079 0
M  V30 2517 N 227.627 0.131896 -1.57047 0
M  V30 2518 C 229.038 0.690407 -1.73465 0
M  V30 2519 C 229.389 1.8094 -0.758629 0
M  V30 2520 O 228.514 2.16282 0.0713813 0
M  V30 2521 C 229.109 1.25916 -3.14532 0
M  V30 2522 C 227.668 1.76409 -3.32501 0
M  V30 2523 C 226.815 0.658579 -2.69366 0
M  V30 2524 H 229.766 -0.0939144 -1.58422 0
M  V30 2525 H 229.787 2.12892 -3.15369 0
M  V30 2526 H 229.299 0.444515 -3.85546 0
M  V30 2527 H 227.4 2.60391 -2.66509 0
M  V30 2528 H 227.513 1.88241 -4.4057 0
M  V30 2529 H 225.877 1.08899 -2.30246 0
M  V30 2530 H 226.66 -0.14487 -3.42994 0
M  V30 2531 N 229.106 1.52395 0.401703 0
M  V30 2532 C 230.054 1.7689 1.51039 0
M  V30 2533 C 231.048 0.636298 1.56996 0
M  V30 2534 O 232.254 0.818507 1.60314 0
M  V30 2535 H 228.629 0.559502 0.502456 0
M  V30 2536 H 230.6 2.69757 1.27568 0
M  V30 2537 C 229.349 1.94331 2.88324 0
M  V30 2538 H 228.672 2.80905 2.84486 0
M  V30 2539 H 230.112 2.15466 3.65172 0
M  V30 2540 C 228.571 0.712396 3.29282 0
M  V30 2541 O 229.101 -0.116218 4.01532 0
M  V30 2542 N 227.307 0.546154 2.85422 0
M  V30 2543 H 226.854 1.22156 2.26794 0
M  V30 2544 H 226.812 -0.276113 3.13185 0
M  V30 2545 N 230.584 -0.659388 1.43143 0
M  V30 2546 C 231.833 -1.41518 1.43721 0
M  V30 2547 C 232.146 -1.95499 0.0628176 0
M  V30 2548 O 233.352 -2.71446 -0.0539683 0
M  V30 2549 C 231.808 -2.5608 2.52885 0
M  V30 2550 C 231.416 -2.08733 3.96402 0
M  V30 2551 C 233.16 -3.3349 2.62649 0
M  V30 2552 C 231.067 -3.20469 4.97045 0
M  V30 2553 H 229.997 -0.531705 0.534608 0
M  V30 2554 H 232.648 -0.712343 1.69109 0
M  V30 2555 H 231.03 -3.28805 2.20688 0
M  V30 2556 H 232.204 -1.43059 4.3803 0
M  V30 2557 H 230.519 -1.44219 3.90627 0
M  V30 2558 H 233.116 -4.16734 3.35017 0
M  V30 2559 H 233.459 -3.8111 1.67513 0
M  V30 2560 H 233.992 -2.67842 2.94118 0
M  V30 2561 H 230.731 -2.77824 5.93712 0
M  V30 2562 H 230.251 -3.84874 4.60034 0
M  V30 2563 H 231.93 -3.85698 5.19467 0
M  V30 2564 N 232.062 -1.29571 -0.897171 0
M  V30 2565 C 233.311 -1.1706 -1.64256 0
M  V30 2566 C 233.624 0.276476 -1.93636 0
M  V30 2567 O 234.83 0.52294 -2.66416 0
M  V30 2568 C 233.286 -2.0475 -2.95982 0
M  V30 2569 C 232.894 -3.54295 -2.74187 0
M  V30 2570 C 234.638 -2.0097 -3.73914 0
M  V30 2571 C 232.545 -4.34081 -4.01656 0
M  V30 2572 H 231.475 -0.43452 -0.616205 0
M  V30 2573 H 234.126 -1.54229 -0.994268 0
M  V30 2574 H 232.508 -1.60452 -3.62038 0
M  V30 2575 H 233.682 -4.06662 -2.1671 0
M  V30 2576 H 231.997 -3.59773 -2.09648 0
M  V30 2577 H 234.594 -2.57838 -4.68427 0
M  V30 2578 H 234.937 -0.990273 -4.0435 0
M  V30 2579 H 235.47 -2.43325 -3.14703 0
M  V30 2580 H 232.209 -5.36671 -3.76384 0
M  V30 2581 H 231.729 -3.86483 -4.58684 0
M  V30 2582 H 233.408 -4.44877 -4.69781 0
M  V30 2583 N 233.54 1.10788 -1.12088 0
M  V30 2584 C 234.47 2.19083 -0.807755 0
M  V30 2585 C 235.451 1.6858 0.226859 0
M  V30 2586 O 236.636 1.93997 0.0888475 0
M  V30 2587 C 233.766 3.46344 -0.257576 0
M  V30 2588 C 232.72 4.101 -1.22483 0
M  V30 2589 C 232.046 5.32016 -0.535052 0
M  V30 2590 C 233.346 4.54236 -2.57811 0
M  V30 2591 H 235.04 2.45534 -1.71328 0
M  V30 2592 H 232.586 1.1801 -0.825205 0
M  V30 2593 H 234.539 4.21392 -0.0262679 0
M  V30 2594 H 233.263 3.19373 0.683278 0
M  V30 2595 H 231.922 3.37054 -1.44189 0
M  V30 2596 H 231.57 5.01319 0.410827 0
M  V30 2597 H 231.27 5.75625 -1.18024 0
M  V30 2598 H 232.794 6.09799 -0.312695 0
M  V30 2599 H 234.208 5.20575 -2.40155 0
M  V30 2600 H 232.605 5.08682 -3.18375 0
M  V30 2601 H 233.675 3.6734 -3.16528 0
M  V30 2602 N 235.018 0.912232 1.28515 0
M  V30 2603 C 236.246 0.560416 1.99166 0
M  V30 2604 C 236.661 -0.857927 1.68182 0
M  V30 2605 O 236.018 -1.56805 0.933733 0
M  V30 2606 C 236.069 0.758142 3.53461 0
M  V30 2607 O 235.79 2.12067 3.83352 0
M  V30 2608 C 237.291 0.412954 4.41372 0
M  V30 2609 H 234.511 0.213805 0.636026 0
M  V30 2610 H 237.055 1.22502 1.63749 0
M  V30 2611 H 235.21 0.140556 3.87145 0
M  V30 2612 H 235.624 2.15923 4.77993 0
M  V30 2613 H 237.098 0.60208 5.48707 0
M  V30 2614 H 237.575 -0.65073 4.34353 0
M  V30 2615 H 238.181 1.00802 4.13182 0
M  V30 2616 N 236.496 -1.42363 0.676048 0
M  V30 2617 C 237.444 -2.32596 -0.0131507 0
M  V30 2618 C 238.438 -1.49891 -0.789238 0
M  V30 2619 O 239.644 -1.65955 -0.697061 0
M  V30 2620 H 236.019 -0.751647 -0.0230481 0
M  V30 2621 H 237.99 -2.88421 0.765243 0
M  V30 2622 C 236.739 -3.34479 -0.949702 0
M  V30 2623 H 236.062 -3.98158 -0.361938 0
M  V30 2624 H 237.502 -4.00199 -1.4006 0
M  V30 2625 C 235.961 -2.66838 -2.05667 0
M  V30 2626 O 236.491 -2.50124 -3.14326 0
M  V30 2627 N 234.697 -2.25843 -1.82875 0
M  V30 2628 H 234.244 -2.39637 -0.945085 0
M  V30 2629 H 234.202 -1.80918 -2.5713 0
M  V30 2630 N 237.974 -0.419461 -1.51915 0
M  V30 2631 C 238.906 0.43646 -2.25006 0
M  V30 2632 C 239.919 1.00149 -1.28351 0
M  V30 2633 O 241.108 0.898674 -1.54227 0
M  V30 2634 C 238.208 1.6206 -2.9764 0
M  V30 2635 C 237.381 1.17763 -4.21249 0
M  V30 2636 C 236.44 2.22985 -4.76617 0
M  V30 2637 O 235.466 1.83151 -5.38929 0
M  V30 2638 N 236.668 3.55271 -4.59089 0
M  V30 2639 H 239.433 -0.18989 -2.99098 0
M  V30 2640 H 236.994 -0.247386 -1.59999 0
M  V30 2641 H 238.986 2.32038 -3.31573 0
M  V30 2642 H 237.556 2.15266 -2.2667 0
M  V30 2643 H 236.776 0.305582 -3.93014 0
M  V30 2644 H 238.064 0.858781 -5.015 0
M  V30 2645 H 237.462 3.90377 -4.09417 0
M  V30 2646 H 236.019 4.21195 -4.97432 0
M  V30 2647 N 239.452 1.56882 -0.150215 0
M  V30 2648 C 240.677 2.01027 0.510184 0
M  V30 2649 C 241.102 1.02966 1.57415 0
M  V30 2650 O 240.46 0.00590158 1.81299 0
M  V30 2651 C 240.508 3.43899 1.08472 0
M  V30 2652 O 239.612 3.4885 2.19948 0
M  V30 2653 H 238.953 0.652233 0.124451 0
M  V30 2654 H 241.483 2.03093 -0.247894 0
M  V30 2655 H 241.493 3.82766 1.41259 0
M  V30 2656 H 240.168 4.14776 0.305582 0
M  V30 2657 H 238.745 3.21827 1.88366 0
M  V30 2658 N 240.93 -0.123565 1.57115 0
M  V30 2659 C 242.176 -0.833386 1.84885 0
M  V30 2660 C 242.509 -1.79742 0.735292 0
M  V30 2661 O 241.784 -1.92764 -0.25925 0
M  V30 2662 C 242.067 -1.5873 3.23228 0
M  V30 2663 C 241.92 -0.643183 4.45178 0
M  V30 2664 C 243.239 -2.54453 3.59085 0
M  V30 2665 H 240.358 -0.301518 0.6725 0
M  V30 2666 H 243 -0.097778 1.89748 0
M  V30 2667 H 241.15 -2.21438 3.19214 0
M  V30 2668 H 242.822 -0.0253015 4.61293 0
M  V30 2669 H 241.065 0.0456139 4.33776 0
M  V30 2670 H 241.736 -1.20724 5.38637 0
M  V30 2671 H 244.212 -2.01853 3.63861 0
M  V30 2672 H 243.088 -3.04238 4.5687 0
M  V30 2673 H 243.349 -3.36906 2.86264 0
M  V30 2674 N 242.408 -1.52605 -0.393616 0
M  V30 2675 C 243.824 -1.41753 -0.733357 0
M  V30 2676 C 244.024 -0.534293 -1.94287 0
M  V30 2677 O 243.08 -0.0059787 -2.52499 0
M  V30 2678 C 244.393 -2.84531 -0.972772 0
M  V30 2679 C 245.941 -2.93978 -1.07453 0
M  V30 2680 C 246.416 -4.37756 -1.3466 0
M  V30 2681 N 247.907 -4.4106 -1.41492 0
M  V30 2682 C 248.642 -5.49387 -1.642 0
M  V30 2683 N 248.138 -6.67806 -1.8441 0
M  V30 2684 N 249.931 -5.36923 -1.66342 0
M  V30 2685 H 242.082 -2.08555 0.402328 0
M  V30 2686 H 244.345 -0.940654 0.117789 0
M  V30 2687 H 244.051 -3.51353 -0.156204 0
M  V30 2688 H 243.925 -3.26508 -1.88871 0
M  V30 2689 H 246.312 -2.27326 -1.88167 0
M  V30 2690 H 246.393 -2.55435 -0.136605 0
M  V30 2691 H 246.037 -5.04972 -0.544581 0
M  V30 2692 H 245.967 -4.73848 -2.2973 0
M  V30 2693 H 248.458 -3.55705 -1.27601 0
M  V30 2694 H 248.771 -7.46141 -2.01231 0
M  V30 2695 H 247.116 -6.70843 -1.81644 0
M  V30 2696 H 250.307 -4.43381 -1.50102 0
M  V30 2697 H 250.48 -6.21416 -1.837 0
M  V30 2698 N 243.887 0.651787 -1.4349 0
M  V30 2699 C 244.797 1.79368 -1.5121 0
M  V30 2700 C 245.813 1.69361 -0.399093 0
M  V30 2701 O 246.989 1.90505 -0.653431 0
M  V30 2702 C 244.054 3.15653 -1.43401 0
M  V30 2703 C 243.115 3.37446 -2.65384 0
M  V30 2704 C 242.348 4.67229 -2.57939 0
M  V30 2705 O 242.571 5.46676 -1.62792 0
M  V30 2706 O 241.505 4.90773 -3.48462 0
M  V30 2707 H 245.331 1.7581 -2.47638 0
M  V30 2708 H 242.916 0.810447 -1.25507 0
M  V30 2709 H 244.798 3.96935 -1.41494 0
M  V30 2710 H 243.473 3.19798 -0.501085 0
M  V30 2711 H 242.38 2.55923 -2.72863 0
M  V30 2712 H 243.713 3.38148 -3.57654 0
M  V30 2713 N 245.365 1.30045 0.890287 0
M  V30 2714 C 246.611 1.18737 1.64406 0
M  V30 2715 C 246.944 -0.258525 1.92472 0
M  V30 2716 O 246.219 -1.18562 1.54186 0
M  V30 2717 C 246.502 2.01087 2.98724 0
M  V30 2718 C 246.355 3.53867 2.77665 0
M  V30 2719 C 247.674 1.84457 3.9958 0
M  V30 2720 H 244.793 0.432698 0.596608 0
M  V30 2721 H 247.435 1.5962 1.0306 0
M  V30 2722 H 245.585 1.66349 3.51084 0
M  V30 2723 H 247.257 3.98637 2.32133 0
M  V30 2724 H 245.5 3.78318 2.12269 0
M  V30 2725 H 246.171 4.06772 3.7315 0
M  V30 2726 H 248.647 2.14817 3.56361 0
M  V30 2727 H 247.523 2.44411 4.91482 0
M  V30 2728 H 247.784 0.802276 4.3476 0
M  V30 2729 N 246.843 -1.10192 1.12674 0
M  V30 2730 C 248.071 -1.85983 0.906527 0
M  V30 2731 C 248.486 -1.80783 -0.544333 0
M  V30 2732 O 247.843 -1.19834 -1.37645 0
M  V30 2733 C 247.894 -3.34281 1.37618 0
M  V30 2734 O 247.615 -3.39401 2.77017 0
M  V30 2735 C 249.116 -4.26938 1.19325 0
M  V30 2736 H 246.336 -0.587716 0.323775 0
M  V30 2737 H 248.88 -1.39284 1.49734 0
M  V30 2738 H 247.035 -3.78436 0.828539 0
M  V30 2739 H 247.449 -4.31838 2.97684 0
M  V30 2740 H 248.923 -5.29181 1.57071 0
M  V30 2741 H 249.4 -4.38995 0.134097 0
M  V30 2742 H 250.006 -3.8859 1.72852 0
M  V30 2743 N 248.321 -0.919034 -1.28029 0
M  V30 2744 C 249.253 -0.368762 -2.26214 0
M  V30 2745 C 250.266 0.495716 -1.55069 0
M  V30 2746 O 251.455 0.30974 -1.75792 0
M  V30 2747 C 248.555 0.491049 -3.35324 0
M  V30 2748 C 247.728 -0.352133 -4.3598 0
M  V30 2749 C 246.787 0.443622 -5.24327 0
M  V30 2750 O 245.813 -0.14566 -5.69014 0
M  V30 2751 N 247.015 1.74545 -5.53637 0
M  V30 2752 H 249.78 -1.21273 -2.74068 0
M  V30 2753 H 247.341 -0.785541 -1.41566 0
M  V30 2754 H 249.333 1.03026 -3.91366 0
M  V30 2755 H 247.903 1.23574 -2.87138 0
M  V30 2756 H 247.123 -1.07269 -3.79324 0
M  V30 2757 H 248.411 -0.928883 -5.00249 0
M  V30 2758 H 247.809 2.24666 -5.19174 0
M  V30 2759 H 246.366 2.23138 -6.12416 0
M  V30 2760 N 249.799 1.42003 -0.683588 0
M  V30 2761 C 251.048 2.00638 -0.206681 0
M  V30 2762 C 251.361 1.5472 1.19671 0
M  V30 2763 O 252.567 2.05833 1.77045 0
M  V30 2764 C 251.023 3.58487 -0.318632 0
M  V30 2765 C 250.631 4.1339 -1.72663 0
M  V30 2766 C 252.375 4.24384 0.0991141 0
M  V30 2767 C 250.282 5.63633 -1.79087 0
M  V30 2768 H 249.212 0.750408 -0.0735107 0
M  V30 2769 H 251.863 1.62624 -0.850048 0
M  V30 2770 H 250.245 3.94047 0.392781 0
M  V30 2771 H 251.419 3.89273 -2.46583 0
M  V30 2772 H 249.734 3.59976 -2.09299 0
M  V30 2773 H 252.331 5.34652 0.0713833 0
M  V30 2774 H 252.674 4.00505 1.13586 0
M  V30 2775 H 253.207 3.93816 -0.561599 0
M  V30 2776 H 249.946 5.92323 -2.80774 0
M  V30 2777 H 249.466 5.89714 -1.09535 0
M  V30 2778 H 251.145 6.28201 -1.5483 0
M  V30 2779 N 251.277 0.427512 1.51691 0
M  V30 2780 C 252.224 -0.388867 2.275 0
M  V30 2781 C 253.194 -1.02532 1.30677 0
M  V30 2782 O 254.379 -1.0461 1.59566 0
M  V30 2783 C 251.519 -1.48954 3.11298 0
M  V30 2784 C 250.632 -0.872194 4.23104 0
M  V30 2785 C 249.767 -1.94709 4.94228 0
M  V30 2786 C 248.806 -1.30766 5.97969 0
M  V30 2787 N 247.943 -2.32349 6.62539 0
M  V30 2788 H 252.783 0.263997 2.96828 0
M  V30 2789 H 250.32 0.142033 1.46413 0
M  V30 2790 H 252.278 -2.13887 3.58201 0
M  V30 2791 H 250.908 -2.11217 2.44105 0
M  V30 2792 H 249.96 -0.111419 3.80237 0
M  V30 2793 H 251.272 -0.365264 4.97461 0
M  V30 2794 H 250.426 -2.67327 5.44629 0
M  V30 2795 H 249.165 -2.48773 4.1948 0
M  V30 2796 H 248.17 -0.566902 5.4687 0
M  V30 2797 H 249.395 -0.774483 6.74669 0
M  V30 2798 H 247.341 -2.85511 5.90609 0
M  V30 2799 H 247.258 -1.8652 7.3263 0
M  V30 2800 H 248.526 -3.04481 7.17574 0
M  V30 2801 N 252.755 -1.56801 0.158532 0
M  V30 2802 C 253.995 -1.98383 -0.49229 0
M  V30 2803 C 254.359 -1.04184 -1.61275 0
M  V30 2804 O 255.56 -1.34856 -2.32524 0
M  V30 2805 C 253.831 -3.4385 -0.974766 0
M  V30 2806 S 255.39 -4.07459 -1.62857 0
M  V30 2807 H 252.208 -0.693041 -0.158794 0
M  V30 2808 H 254.81 -1.93856 0.252974 0
M  V30 2809 H 253.514 -4.10131 -0.148688 0
M  V30 2810 H 253.045 -3.52115 -1.75438 0
M  V30 2811 H 255.06 -4.01458 -2.91627 0
M  V30 2812 N 254.233 0.115231 -1.57178 0
M  V30 2813 C 255.482 0.820945 -1.84237 0
M  V30 2814 C 255.795 1.80866 -0.744761 0
M  V30 2815 O 257.001 2.56083 -0.901871 0
M  V30 2816 C 255.457 1.51072 -3.26658 0
M  V30 2817 C 255.065 0.563795 -4.44438 0
M  V30 2818 C 256.809 2.20134 -3.62962 0
M  V30 2819 C 254.716 1.25701 -5.77887 0
M  V30 2820 H 253.646 0.310328 -0.687177 0
M  V30 2821 H 256.297 0.0737134 -1.83352 0
M  V30 2822 H 254.679 2.30471 -3.22024 0
M  V30 2823 H 255.853 -0.197247 -4.60378 0
M  V30 2824 H 254.168 -0.0200638 -4.16395 0
M  V30 2825 H 256.765 2.72696 -4.59936 0
M  V30 2826 H 257.108 2.98107 -2.90582 0
M  V30 2827 H 257.641 1.47619 -3.69396 0
M  V30 2828 H 254.38 0.518493 -6.53446 0
M  V30 2829 H 253.9 1.98997 -5.65827 0
M  V30 2830 H 255.579 1.78915 -6.2177 0
M  V30 2831 N 255.711 1.52812 0.385517 0
M  V30 2832 C 256.621 1.80766 1.49535 0
M  V30 2833 C 257.637 0.694651 1.59532 0
M  V30 2834 O 258.813 0.982611 1.75803 0
M  V30 2835 C 255.878 1.97381 2.85029 0
M  V30 2836 C 254.939 3.21295 2.84724 0
M  V30 2837 C 254.172 3.37108 4.13756 0
M  V30 2838 O 254.395 2.5765 5.08893 0
M  V30 2839 O 253.329 4.30378 4.20783 0
M  V30 2840 H 257.155 2.75015 1.28842 0
M  V30 2841 H 254.74 1.37946 0.573697 0
M  V30 2842 H 256.622 2.09996 3.65349 0
M  V30 2843 H 255.297 1.06322 3.05741 0
M  V30 2844 H 254.204 3.1412 2.03174 0
M  V30 2845 H 255.537 4.12212 2.68965 0
M  V30 2846 N 257.189 -0.644168 1.43834 0
M  V30 2847 C 258.119 -1.76814 1.52509 0
M  V30 2848 C 259.1 -1.65823 0.379052 0
M  V30 2849 O 260.285 -1.84781 0.597466 0
M  V30 2850 C 257.415 -3.15288 1.4564 0
M  V30 2851 C 256.369 -3.41053 2.58586 0
M  V30 2852 C 255.695 -4.79421 2.36769 0
M  V30 2853 C 256.995 -3.34902 4.00797 0
M  V30 2854 H 258.689 -1.69812 2.46586 0
M  V30 2855 H 256.235 -0.815542 1.1868 0
M  V30 2856 H 258.188 -3.93681 1.50311 0
M  V30 2857 H 256.912 -3.23043 0.480725 0
M  V30 2858 H 255.571 -2.65035 2.53282 0
M  V30 2859 H 255.219 -4.83863 1.37424 0
M  V30 2860 H 254.919 -4.9762 3.12487 0
M  V30 2861 H 256.443 -5.6006 2.43238 0
M  V30 2862 H 257.857 -4.03218 4.07539 0
M  V30 2863 H 256.254 -3.64637 4.76613 0
M  V30 2864 H 257.324 -2.32928 4.25291 0
M  V30 2865 N 258.668 -1.30515 -0.883378 0
M  V30 2866 C 259.615 -1.17032 -1.98927 0
M  V30 2867 C 260.585 -0.0594241 -1.65994 0
M  V30 2868 O 261.77 -0.229895 -1.8941 0
M  V30 2869 C 258.91 -0.869777 -3.33959 0
M  V30 2870 C 258.023 -2.06271 -3.79574 0
M  V30 2871 C 257.158 -1.70011 -5.03259 0
M  V30 2872 C 256.197 -2.8579 -5.41286 0
M  V30 2873 N 255.334 -2.49816 -6.56153 0
M  V30 2874 H 260.174 -2.1164 -2.09792 0
M  V30 2875 H 257.711 -1.05296 -1.02719 0
M  V30 2876 H 259.669 -0.676138 -4.11685 0
M  V30 2877 H 258.299 0.0394332 -3.22776 0
M  V30 2878 H 257.351 -2.36755 -2.97744 0
M  V30 2879 H 258.663 -2.92971 -4.03694 0
M  V30 2880 H 257.817 -1.47032 -5.88614 0
M  V30 2881 H 256.556 -0.804829 -4.81013 0
M  V30 2882 H 255.561 -3.09434 -4.54456 0
M  V30 2883 H 256.786 -3.76008 -5.65504 0
M  V30 2884 H 254.732 -1.62795 -6.35479 0
M  V30 2885 H 254.649 -3.30048 -6.8015 0
M  V30 2886 H 255.917 -2.30197 -7.44735 0
M  V30 2887 N 260.146 1.09593 -1.13257 0
M  V30 2888 C 261.371 1.8604 -0.916732 0
M  V30 2889 C 261.796 1.80504 0.529146 0
M  V30 2890 O 261.154 1.18127 1.37534 0
M  V30 2891 C 261.202 3.32017 -1.40703 0
M  V30 2892 O 260.306 4.08141 -0.591153 0
M  V30 2893 H 259.647 0.576943 -0.328683 0
M  V30 2894 H 262.177 1.38405 -1.50682 0
M  V30 2895 H 262.187 3.82865 -1.4099 0
M  V30 2896 H 260.862 3.35361 -2.45979 0
M  V30 2897 H 259.439 3.67084 -0.656005 0
M  V30 2898 N 261.624 0.925811 1.2754 0
M  V30 2899 C 262.534 0.428993 2.30644 0
M  V30 2900 C 263.55 -0.489387 1.66976 0
M  V30 2901 O 264.726 -0.372653 1.97922 0
M  V30 2902 C 261.791 -0.311967 3.45294 0
M  V30 2903 C 260.852 0.641098 4.24486 0
M  V30 2904 C 260.085 -0.0645955 5.33661 0
M  V30 2905 O 260.308 -1.28429 5.55754 0
M  V30 2906 O 259.242 0.606265 5.98839 0
M  V30 2907 H 263.068 1.28504 2.75173 0
M  V30 2908 H 260.653 0.691086 1.32455 0
M  V30 2909 H 262.535 -0.729972 4.15029 0
M  V30 2910 H 261.21 -1.14365 3.02824 0
M  V30 2911 H 260.117 1.10874 3.57292 0
M  V30 2912 H 261.45 1.43995 4.70666 0
M  V30 2913 N 263.102 -1.41638 0.69111 0
M  V30 2914 C 264.032 -2.3347 0.037248 0
M  V30 2915 C 265.013 -1.51575 -0.771947 0
M  V30 2916 O 266.198 -1.80126 -0.72582 0
M  V30 2917 C 263.328 -3.35354 -0.903064 0
M  V30 2918 C 262.282 -4.27526 -0.201288 0
M  V30 2919 C 261.608 -5.19747 -1.25565 0
M  V30 2920 C 262.908 -5.13959 0.929689 0
M  V30 2921 H 264.602 -2.88397 0.804227 0
M  V30 2922 H 262.148 -1.38669 0.388189 0
M  V30 2923 H 264.101 -3.98519 -1.36969 0
M  V30 2924 H 262.825 -2.78767 -1.70166 0
M  V30 2925 H 261.484 -3.65779 0.245265 0
M  V30 2926 H 261.132 -4.59479 -2.04666 0
M  V30 2927 H 260.832 -5.8225 -0.791128 0
M  V30 2928 H 262.356 -5.85789 -1.72288 0
M  V30 2929 H 263.77 -5.70718 0.543546 0
M  V30 2930 H 262.167 -5.85379 1.32103 0
M  V30 2931 H 263.237 -4.51389 1.77133 0
M  V30 2932 N 264.58 -0.43555 -1.51462 0
M  V30 2933 C 265.828 0.131254 -2.01673 0
M  V30 2934 C 266.149 1.43368 -1.32177 0
M  V30 2935 O 265.419 1.90524 -0.455769 0
M  V30 2936 H 263.999 0.0514954 -0.745223 0
M  V30 2937 H 266.661 -0.577847 -1.86137 0
M  V30 2938 H 265.757 0.308446 -3.10572 0
M  V30 2939 N 266.058 1.56714 -0.166846 0
M  V30 2940 C 267.474 1.58473 0.189372 0
M  V30 2941 C 267.674 1.18201 1.63189 0
M  V30 2942 O 266.73 0.891528 2.36237 0
M  V30 2943 C 268.043 3.00573 -0.0873872 0
M  V30 2944 C 269.591 3.1299 -0.0252443 0
M  V30 2945 C 270.066 4.57174 -0.274934 0
M  V30 2946 N 271.557 4.62665 -0.222553 0
M  V30 2947 C 272.292 5.72072 -0.389985 0
M  V30 2948 N 271.788 6.90054 -0.616229 0
M  V30 2949 N 273.581 5.61153 -0.326202 0
M  V30 2950 H 265.732 1.8118 -1.10849 0
M  V30 2951 H 267.995 0.839525 -0.440342 0
M  V30 2952 H 267.701 3.34497 -1.0865 0
M  V30 2953 H 267.575 3.72019 0.623037 0
M  V30 2954 H 269.962 2.78895 0.96444 0
M  V30 2955 H 270.043 2.43989 -0.768309 0
M  V30 2956 H 269.687 4.91976 -1.26181 0
M  V30 2957 H 269.617 5.24328 0.48869 0
M  V30 2958 H 272.108 3.77863 -0.0531512 0
M  V30 2959 H 272.421 7.69311 -0.733559 0
M  V30 2960 H 270.766 6.91927 -0.652791 0
M  V30 2961 H 273.957 4.67859 -0.150072 0
M  V30 2962 H 274.13 6.46364 -0.460116 0
M  V30 2963 N 267.536 -0.106894 1.57237 0
M  V30 2964 C 268.483 -1.13049 2.01217 0
M  V30 2965 C 269.453 -1.40471 0.886403 0
M  V30 2966 O 270.638 -1.52133 1.15153 0
M  V30 2967 C 267.778 -2.4487 2.43172 0
M  V30 2968 C 266.891 -2.24281 3.69218 0
M  V30 2969 C 266.026 -3.49417 4.00101 0
M  V30 2970 C 265.065 -3.24038 5.19294 0
M  V30 2971 N 264.202 -4.41409 5.45988 0
M  V30 2972 H 269.042 -0.748456 2.88448 0
M  V30 2973 H 266.579 -0.358054 1.42676 0
M  V30 2974 H 268.537 -3.21786 2.65537 0
M  V30 2975 H 267.167 -2.80944 1.58967 0
M  V30 2976 H 266.219 -1.38224 3.54398 0
M  V30 2977 H 267.531 -2.01512 4.56283 0
M  V30 2978 H 266.685 -4.34746 4.2318 0
M  V30 2979 H 265.424 -3.75229 3.11535 0
M  V30 2980 H 264.429 -2.37102 4.96047 0
M  V30 2981 H 265.654 -2.99584 6.09447 0
M  V30 2982 H 263.6 -4.67319 4.60379 0
M  V30 2983 H 263.517 -4.21788 6.274 0
M  V30 2984 H 264.785 -5.27836 5.73593 0
M  V30 2985 N 269.014 -1.53014 -0.377408 0
M  V30 2986 C 270.26 -1.69821 -1.11948 0
M  V30 2987 C 270.615 -0.438581 -1.87335 0
M  V30 2988 O 269.908 0.568094 -1.82984 0
M  V30 2989 C 270.102 -2.87982 -2.11663 0
M  V30 2990 C 269.931 -4.25315 -1.46072 0
M  V30 2991 C 268.701 -4.90354 -1.21986 0
M  V30 2992 C 270.899 -5.06281 -0.904664 0
M  V30 2993 N 268.881 -6.11641 -0.526215 0
M  V30 2994 C 270.252 -6.19069 -0.339726 0
M  V30 2995 C 272.307 -4.91395 -0.8022 0
M  V30 2996 C 271.01 -7.18598 0.317669 0
M  V30 2997 C 273.036 -5.91187 -0.158606 0
M  V30 2998 C 272.398 -7.03289 0.39551 0
M  V30 2999 H 268.497 -0.674785 -0.395207 0
M  V30 3000 H 271.081 -1.90389 -0.407437 0
M  V30 3001 H 269.252 -2.68974 -2.80192 0
M  V30 3002 H 270.984 -2.93669 -2.78461 0
M  V30 3003 H 267.739 -4.49286 -1.49798 0
M  V30 3004 H 268.163 -6.76719 -0.195098 0
M  V30 3005 H 272.805 -4.04925 -1.21639 0
M  V30 3006 H 270.523 -8.04669 0.743836 0
M  V30 3007 H 274.109 -5.81744 -0.0804138 0
M  V30 3008 H 272.989 -7.79183 0.885648 0
M  V30 3009 N 270.492 0.636531 -1.44174 0
M  V30 3010 C 271.442 1.74233 -1.47061 0
M  V30 3011 C 272.426 1.57331 -0.337034 0
M  V30 3012 O 273.618 1.67159 -0.581973 0
M  V30 3013 C 270.747 3.12897 -1.41246 0
M  V30 3014 C 269.833 3.35288 -2.59698 0
M  V30 3015 N 270.224 3.2807 -3.84972 0
M  V30 3016 C 268.522 3.66065 -2.54778 0
M  V30 3017 C 269.223 3.51001 -4.63867 0
M  V30 3018 N 268.199 3.73616 -3.94857 0
M  V30 3019 H 272.001 1.67103 -2.41773 0
M  V30 3020 H 269.515 0.838806 -1.3906 0
M  V30 3021 H 271.512 3.92189 -1.41398 0
M  V30 3022 H 270.172 3.21197 -0.47569 0
M  V30 3023 H 271.183 3.07109 -4.17019 0
M  V30 3024 H 267.86 3.81379 -1.6987 0
M  V30 3025 H 269.25 3.51059 -5.72894 0
M  V30 3026 N 271.97 1.30982 0.876444 0
M  V30 3027 C 272.917 1.18085 1.98304 0
M  V30 3028 C 273.887 0.0682263 1.6596 0
M  V30 3029 O 275.072 0.239937 1.89285 0
M  V30 3030 C 272.212 0.887475 3.33493 0
M  V30 3031 C 271.325 2.08281 3.78475 0
M  V30 3032 C 270.46 1.72678 5.0235 0
M  V30 3033 C 269.499 2.88657 5.39762 0
M  V30 3034 N 268.636 2.53292 6.54819 0
M  V30 3035 H 273.476 2.1275 2.08666 0
M  V30 3036 H 271.013 1.05839 1.02159 0
M  V30 3037 H 272.971 0.697961 4.1132 0
M  V30 3038 H 271.601 -0.022315 3.22792 0
M  V30 3039 H 270.653 2.3833 2.96484 0
M  V30 3040 H 271.965 2.95108 4.02135 0
M  V30 3041 H 271.119 1.50151 5.87826 0
M  V30 3042 H 269.858 0.830327 4.8058 0
M  V30 3043 H 268.863 3.1184 4.52809 0
M  V30 3044 H 270.088 3.79002 5.63502 0
M  V30 3045 H 268.034 1.66163 6.34607 0
M  V30 3046 H 267.951 3.3365 6.7839 0
M  V30 3047 H 269.219 2.34143 7.43503 0
M  V30 3048 N 273.449 -1.08991 1.13837 0
M  V30 3049 C 274.412 -2.13925 0.822715 0
M  V30 3050 C 275.412 -1.599 -0.1699 0
M  V30 3051 O 276.602 -1.74104 0.0577251 0
M  V30 3052 C 273.734 -3.40155 0.225318 0
M  V30 3053 H 274.927 -2.43358 1.75262 0
M  V30 3054 H 272.48 -1.24603 0.943594 0
M  V30 3055 H 273.215 -3.16352 -0.713594 0
M  V30 3056 H 273 -3.80661 0.940193 0
M  V30 3057 H 274.49 -4.17594 0.0214784 0
M  V30 3058 N 274.927 -0.932562 -1.27047 0
M  V30 3059 C 276.152 -0.591474 -1.98787 0
M  V30 3060 C 276.577 0.824601 -1.69062 0
M  V30 3061 O 275.935 1.5541 -0.933677 0
M  V30 3062 C 275.983 -0.829808 -3.50922 0
M  V30 3063 O 275.087 0.102266 -4.12273 0
M  V30 3064 H 274.428 -0.227185 -0.623926 0
M  V30 3065 H 276.958 -1.25314 -1.61733 0
M  V30 3066 H 276.968 -0.747292 -4.01098 0
M  V30 3067 H 275.643 -1.86201 -3.7189 0
M  V30 3068 H 274.22 -0.0305761 -3.72887 0
M  V30 3069 N 276.405 1.4127 -0.698611 0
M  V30 3070 C 277.353 2.32588 -0.023855 0
M  V30 3071 C 278.347 1.51128 0.765292 0
M  V30 3072 O 279.553 1.67043 0.670571 0
M  V30 3073 H 275.928 0.751918 0.0110871 0
M  V30 3074 H 277.899 2.87167 -0.811031 0
M  V30 3075 C 276.648 3.35947 0.896369 0
M  V30 3076 H 275.971 3.98684 0.298548 0
M  V30 3077 H 277.411 4.02376 1.33676 0
M  V30 3078 C 275.87 2.70076 2.01396 0
M  V30 3079 O 276.4 2.55093 3.10307 0
M  V30 3080 N 274.606 2.28724 1.79259 0
M  V30 3081 H 274.153 2.4111 0.906841 0
M  V30 3082 H 274.111 1.84986 2.54219 0
M  V30 3083 N 277.883 0.443576 1.51229 0
M  V30 3084 C 279.113 -0.119117 2.06256 0
M  V30 3085 C 279.521 -1.36471 1.31043 0
M  V30 3086 O 278.864 -1.80034 0.365151 0
M  V30 3087 C 278.926 -0.500546 3.55998 0
M  V30 3088 C 278.59 0.639125 4.52509 0
M  V30 3089 C 279.587 1.51311 4.97394 0
M  V30 3090 C 277.272 0.821632 4.95535 0
M  V30 3091 C 279.266 2.55425 5.83984 0
M  V30 3092 C 276.953 1.86603 5.81913 0
M  V30 3093 C 277.951 2.73072 6.26036 0
M  V30 3094 O 277.639 3.75718 7.10698 0
M  V30 3095 H 277.371 -0.00857665 0.675946 0
M  V30 3096 H 279.925 0.623288 1.95715 0
M  V30 3097 H 278.155 -1.29575 3.64345 0
M  V30 3098 H 279.844 -0.995116 3.93513 0
M  V30 3099 H 280.61 1.38367 4.64844 0
M  V30 3100 H 276.489 0.158149 4.60729 0
M  V30 3101 H 280.033 3.22949 6.18344 0
M  V30 3102 H 275.93 1.99564 6.13876 0
M  V30 3103 H 276.698 3.72374 7.2889 0
M  V30 3104 N 279.361 -1.56624 0.175154 0
M  V30 3105 C 280.61 -1.96173 -0.468921 0
M  V30 3106 C 280.923 -1.06401 -1.64128 0
M  V30 3107 O 282.129 -1.35648 -2.35185 0
M  V30 3108 C 280.585 -3.48833 -0.885633 0
M  V30 3109 C 280.193 -4.47237 0.261343 0
M  V30 3110 C 281.937 -3.97194 -1.49791 0
M  V30 3111 C 279.844 -5.9114 -0.175214 0
M  V30 3112 H 278.774 -0.732455 -0.178958 0
M  V30 3113 H 281.425 -1.81591 0.263997 0
M  V30 3114 H 279.807 -3.58848 -1.67464 0
M  V30 3115 H 280.981 -4.4894 1.03871 0
M  V30 3116 H 279.296 -4.08956 0.783827 0
M  V30 3117 H 281.893 -5.02167 -1.83665 0
M  V30 3118 H 282.236 -3.40351 -2.39722 0
M  V30 3119 H 282.769 -3.90212 -0.773267 0
M  V30 3120 H 279.508 -6.51865 0.689414 0
M  V30 3121 H 279.028 -5.92735 -0.91786 0
M  V30 3122 H 280.707 -6.44044 -0.617792 0
M  V30 3123 N 280.839 0.0985539 -1.57292 0
M  V30 3124 C 282.086 0.802678 -1.85912 0
M  V30 3125 C 282.414 1.78901 -0.763186 0
M  V30 3126 O 281.669 1.94178 0.243559 0
M  V30 3127 C 281.968 1.56927 -3.21105 0
M  V30 3128 C 281.634 0.725376 -4.45027 0
M  V30 3129 C 280.296 0.492726 -4.78671 0
M  V30 3130 C 282.648 0.138493 -5.21016 0
M  V30 3131 C 279.976 -0.336727 -5.85733 0
M  V30 3132 C 282.328 -0.678264 -6.28953 0
M  V30 3133 C 280.992 -0.921039 -6.61115 0
M  V30 3134 H 280.262 0.293721 -0.680301 0
M  V30 3135 H 282.909 0.0642841 -1.91392 0
M  V30 3136 H 281.214 2.37914 -3.11294 0
M  V30 3137 H 282.911 2.11841 -3.40477 0
M  V30 3138 H 279.501 0.916815 -4.18679 0
M  V30 3139 H 283.685 0.305404 -4.95359 0
M  V30 3140 H 278.941 -0.533836 -6.09065 0
M  V30 3141 H 283.115 -1.1399 -6.87007 0
M  V30 3142 H 280.742 -1.56556 -7.43905 0
M  V30 3143 N 282.317 1.53212 0.369288 0
M  V30 3144 C 283.563 1.69466 1.11397 0
M  V30 3145 C 283.896 0.443257 1.89074 0
M  V30 3146 O 283.171 -0.559386 1.86282 0
M  V30 3147 C 283.454 2.9422 2.07621 0
M  V30 3148 C 283.307 4.29508 1.33577 0
M  V30 3149 C 284.626 3.14565 3.07794 0
M  V30 3150 H 281.745 0.616667 0.403597 0
M  V30 3151 H 284.387 1.85845 0.395179 0
M  V30 3152 H 282.537 2.80387 2.68916 0
M  V30 3153 H 284.209 4.55147 0.750955 0
M  V30 3154 H 282.452 4.29088 0.637618 0
M  V30 3155 H 283.123 5.12926 2.03989 0
M  V30 3156 H 285.599 3.2756 2.56601 0
M  V30 3157 H 284.475 4.03297 3.72348 0
M  V30 3158 H 284.736 2.29675 3.77759 0
M  V30 3159 N 283.795 -0.628877 1.44509 0
M  V30 3160 C 284.758 -1.72263 1.51188 0
M  V30 3161 C 285.758 -1.55907 0.39367 0
M  V30 3162 O 286.948 -1.61361 0.656377 0
M  V30 3163 C 284.08 -3.11365 1.38798 0
M  V30 3164 H 285.273 -1.67714 2.4862 0
M  V30 3165 H 282.826 -0.842737 1.31634 0
M  V30 3166 H 283.561 -3.21507 0.424693 0
M  V30 3167 H 283.346 -3.24644 2.19884 0
M  V30 3168 H 284.836 -3.91075 1.46458 0
M  V30 3169 N 285.273 -1.31445 -0.869486 0
M  V30 3170 C 286.522 -1.20517 -1.61736 0
M  V30 3171 C 286.835 0.235341 -1.94179 0
M  V30 3172 O 288.041 0.466312 -2.67465 0
M  V30 3173 C 286.497 -2.10982 -2.91573 0
M  V30 3174 C 286.105 -3.60032 -2.66611 0
M  V30 3175 C 287.849 -2.08856 -3.69567 0
M  V30 3176 C 285.756 -4.42503 -3.92358 0
M  V30 3177 H 284.686 -0.447493 -0.606849 0
M  V30 3178 H 287.337 -1.56303 -0.96133 0
M  V30 3179 H 285.719 -1.68095 -3.58553 0
M  V30 3180 H 286.893 -4.11167 -2.08035 0
M  V30 3181 H 285.208 -3.64139 -2.0197 0
M  V30 3182 H 287.805 -2.67716 -4.62852 0
M  V30 3183 H 288.148 -1.07582 -4.02159 0
M  V30 3184 H 288.681 -2.49945 -3.09471 0
M  V30 3185 H 285.42 -5.44533 -3.64916 0
M  V30 3186 H 284.94 -3.96125 -4.50383 0
M  V30 3187 H 286.619 -4.54741 -4.60238 0
M  V30 3188 N 286.751 1.08385 -1.14413 0
M  V30 3189 C 287.998 1.80776 -0.912482 0
M  V30 3190 C 288.326 1.86236 0.560934 0
M  V30 3191 O 287.581 1.33431 1.43159 0
M  V30 3192 C 287.88 3.26273 -1.45879 0
M  V30 3193 C 287.546 3.4093 -2.95089 0
M  V30 3194 C 286.208 3.44638 -3.35824 0
M  V30 3195 C 288.56 3.44591 -3.91033 0
M  V30 3196 C 285.888 3.49597 -4.71167 0
M  V30 3197 C 288.24 3.51086 -5.26233 0
M  V30 3198 C 286.904 3.53067 -5.6648 0
M  V30 3199 H 286.174 0.661507 -0.333901 0
M  V30 3200 H 288.821 1.27613 -1.42784 0
M  V30 3201 H 287.126 3.82146 -0.864376 0
M  V30 3202 H 288.823 3.80839 -1.2555 0
M  V30 3203 H 285.413 3.38736 -2.62594 0
M  V30 3204 H 289.597 3.40957 -3.60641 0
M  V30 3205 H 284.853 3.49424 -5.0171 0
M  V30 3206 H 289.027 3.52864 -6.00383 0
M  V30 3207 H 286.654 3.56662 -6.71339 0
M  V30 3208 N 288.23 0.939286 1.26551 0
M  V30 3209 C 289.476 0.596234 1.94465 0
M  V30 3210 C 289.831 -0.855013 1.72358 0
M  V30 3211 O 289.124 -1.6034 1.04889 0
M  V30 3212 C 289.318 0.872106 3.46596 0
M  V30 3213 C 289.147 2.34862 3.83497 0
M  V30 3214 C 287.917 3.00344 4.06352 0
M  V30 3215 C 290.115 3.32697 3.92195 0
M  V30 3216 N 288.097 4.38027 4.30123 0
M  V30 3217 C 289.468 4.55631 4.20476 0
M  V30 3218 C 291.523 3.27747 3.74815 0
M  V30 3219 C 290.226 5.74233 4.33185 0
M  V30 3220 C 292.252 4.45672 3.88755 0
M  V30 3221 C 291.614 5.67388 4.17433 0
M  V30 3222 H 287.713 0.268515 0.734455 0
M  V30 3223 H 290.297 1.2083 1.5267 0
M  V30 3224 H 288.468 0.289102 3.87323 0
M  V30 3225 H 290.2 0.490513 4.01716 0
M  V30 3226 H 286.955 2.50969 4.01636 0
M  V30 3227 H 287.379 5.09288 4.46044 0
M  V30 3228 H 292.021 2.34703 3.51673 0
M  V30 3229 H 289.739 6.67731 4.55149 0
M  V30 3230 H 293.325 4.43372 3.76713 0
M  V30 3231 H 292.205 6.57115 4.27983 0
M  V30 3232 N 289.708 -1.40897 0.706093 0
M  V30 3233 C 290.957 -2.00284 0.238574 0
M  V30 3234 C 291.27 -1.56604 -1.17194 0
M  V30 3235 O 292.476 -2.08624 -1.73748 0
M  V30 3236 C 290.932 -3.57934 0.375623 0
M  V30 3237 C 290.54 -4.10591 1.79217 0
M  V30 3238 C 292.284 -4.24488 -0.0315857 0
M  V30 3239 C 290.191 -5.60712 1.88032 0
M  V30 3240 H 289.121 -0.749144 0.0854398 0
M  V30 3241 H 291.772 -1.61251 0.875813 0
M  V30 3242 H 290.154 -3.94622 -0.330042 0
M  V30 3243 H 291.328 -3.85301 2.52745 0
M  V30 3244 H 289.643 -3.56601 2.15 0
M  V30 3245 H 292.24 -5.34698 0.0136842 0
M  V30 3246 H 292.583 -4.02261 -1.072 0
M  V30 3247 H 293.116 -3.92873 0.624181 0
M  V30 3248 H 289.855 -5.87781 2.90161 0
M  V30 3249 H 289.375 -5.87896 1.18903 0
M  V30 3250 H 291.054 -6.25658 1.64805 0
M  V30 3251 N 291.186 -0.45159 -1.50991 0
M  V30 3252 C 292.432 0.110237 -2.025 0
M  V30 3253 C 292.765 1.41109 -1.33424 0
M  V30 3254 O 292.04 1.89135 -0.453659 0
M  V30 3255 C 292.323 0.314271 -3.58726 0
M  V30 3256 C 292.176 -1.00623 -4.38401 0
M  V30 3257 C 293.495 1.07767 -4.26702 0
M  V30 3258 H 290.614 0.0385897 -0.735989 0
M  V30 3259 H 293.256 -0.593374 -1.80497 0
M  V30 3260 H 291.406 0.913601 -3.77605 0
M  V30 3261 H 293.078 -1.64064 -4.31139 0
M  V30 3262 H 291.321 -1.6075 -4.02917 0
M  V30 3263 H 291.992 -0.817341 -5.45915 0
M  V30 3264 H 294.468 0.56986 -4.12179 0
M  V30 3265 H 293.344 1.18921 -5.35863 0
M  V30 3266 H 293.605 2.10939 -3.88532 0
M  V30 3267 N 292.664 1.56529 -0.183458 0
M  V30 3268 C 293.911 1.97244 0.458357 0
M  V30 3269 C 294.239 1.06992 1.62428 0
M  V30 3270 O 293.494 0.106542 1.9541 0
M  V30 3271 C 293.793 3.43939 0.971637 0
M  V30 3272 C 293.459 4.5083 -0.0796784 0
M  V30 3273 C 292.121 4.79786 -0.368584 0
M  V30 3274 C 294.473 5.15138 -0.792638 0
M  V30 3275 C 291.801 5.70345 -1.37563 0
M  V30 3276 C 294.153 6.06784 -1.78875 0
M  V30 3277 C 292.817 6.34102 -2.08497 0
M  V30 3278 H 292.087 0.721768 0.167725 0
M  V30 3279 H 294.734 1.89472 -0.277976 0
M  V30 3280 H 293.039 3.48724 1.78602 0
M  V30 3281 H 294.736 3.72791 1.47744 0
M  V30 3282 H 291.326 4.28317 0.155668 0
M  V30 3283 H 295.51 4.92868 -0.582659 0
M  V30 3284 H 290.766 5.89789 -1.61118 0
M  V30 3285 H 294.94 6.55677 -2.3465 0
M  V30 3286 H 292.567 7.04074 -2.86678 0
M  V30 3287 N 294.142 -0.090211 1.57342 0
M  V30 3288 C 295.072 -1.10976 2.05443 0
M  V30 3289 C 296.053 -1.41482 0.944284 0
M  V30 3290 O 297.238 -1.51428 1.21586 0
M  V30 3291 C 294.368 -2.42831 2.48295 0
M  V30 3292 C 293.322 -2.26721 3.63018 0
M  V30 3293 C 292.648 -3.63796 3.91863 0
M  V30 3294 C 293.948 -1.7037 4.93732 0
M  V30 3295 H 295.642 -0.709564 2.9087 0
M  V30 3296 H 293.188 -0.339874 1.39932 0
M  V30 3297 H 295.141 -3.14431 2.80555 0
M  V30 3298 H 293.865 -2.84795 1.59873 0
M  V30 3299 H 292.524 -1.57565 3.31012 0
M  V30 3300 H 292.172 -4.03297 3.00601 0
M  V30 3301 H 291.872 -3.53861 4.69101 0
M  V30 3302 H 293.396 -4.36855 4.26603 0
M  V30 3303 H 294.81 -2.31816 5.24342 0
M  V30 3304 H 293.207 -1.71181 5.75167 0
M  V30 3305 H 294.277 -0.663542 4.80339 0
M  V30 3306 N 295.62 -1.53406 -0.361157 0
M  V30 3307 C 296.55 -1.83136 -1.44857 0
M  V30 3308 C 297.531 -0.685174 -1.5569 0
M  V30 3309 O 298.716 -0.93544 -1.70186 0
M  V30 3310 C 295.846 -2.02522 -2.82138 0
M  V30 3311 C 294.8 -3.18302 -2.86126 0
M  V30 3312 C 294.126 -3.22989 -4.26125 0
M  V30 3313 C 295.426 -4.56796 -2.53248 0
M  V30 3314 H 297.12 -2.74201 -1.20226 0
M  V30 3315 H 294.666 -1.31938 -0.576922 0
M  V30 3316 H 296.619 -2.21904 -3.58241 0
M  V30 3317 H 295.343 -1.08172 -3.08166 0
M  V30 3318 H 294.002 -2.98747 -2.12475 0
M  V30 3319 H 293.65 -2.26267 -4.49235 0
M  V30 3320 H 293.35 -4.00781 -4.29708 0
M  V30 3321 H 294.874 -3.44559 -5.04094 0
M  V30 3322 H 296.288 -4.7631 -3.19064 0
M  V30 3323 H 294.685 -5.36862 -2.68141 0
M  V30 3324 H 295.755 -4.61606 -1.48484 0
M  V30 3325 N 297.098 0.621204 -1.44841 0
M  V30 3326 C 298.028 1.74366 -1.55303 0
M  V30 3327 C 299.009 1.65199 -0.405385 0
M  V30 3328 O 300.194 1.83807 -0.626787 0
M  V30 3329 C 297.324 3.12931 -1.50637 0
M  V30 3330 C 296.278 3.36896 -2.63979 0
M  V30 3331 C 295.604 4.75594 -2.44366 0
M  V30 3332 C 296.904 3.28483 -4.06074 0
M  V30 3333 H 298.598 1.65867 -2.49256 0
M  V30 3334 H 296.144 0.796558 -1.19962 0
M  V30 3335 H 298.097 3.9124 -1.56555 0
M  V30 3336 H 296.821 3.22237 -0.532057 0
M  V30 3337 H 295.48 2.60972 -2.57467 0
M  V30 3338 H 295.128 4.81616 -1.45105 0
M  V30 3339 H 294.828 4.92586 -3.20364 0
M  V30 3340 H 296.352 5.5612 -2.52117 0
M  V30 3341 H 297.766 3.96684 -4.13902 0
M  V30 3342 H 296.163 3.57008 -4.82354 0
M  V30 3343 H 297.233 2.26133 -4.28943 0
M  V30 3344 N 298.576 1.31904 0.862503 0
M  V30 3345 C 299.825 1.21373 1.61094 0
M  V30 3346 C 300.138 -0.22504 1.94301 0
M  V30 3347 O 301.344 -0.452121 2.67709 0
M  V30 3348 C 299.8 2.12525 2.9045 0
M  V30 3349 C 299.408 3.61441 2.64697 0
M  V30 3350 C 301.152 2.10813 3.68454 0
M  V30 3351 C 299.059 4.44578 3.90006 0
M  V30 3352 H 297.989 0.450705 0.604468 0
M  V30 3353 H 300.64 1.56811 0.953027 0
M  V30 3354 H 299.022 1.69994 3.57656 0
M  V30 3355 H 300.196 4.12264 2.05851 0
M  V30 3356 H 298.511 3.65205 2.00036 0
M  V30 3357 H 301.108 2.70167 4.61426 0
M  V30 3358 H 301.451 1.09713 4.01583 0
M  V30 3359 H 301.984 2.51583 3.08141 0
M  V30 3360 H 298.723 5.46461 3.62023 0
M  V30 3361 H 298.243 3.98508 4.48276 0
M  V30 3362 H 299.922 4.57176 4.5782 0
M  V30 3363 N 300.054 -1.07777 1.14986 0
M  V30 3364 C 301.3 -1.80557 0.923422 0
M  V30 3365 C 301.633 -1.86298 -0.548337 0
M  V30 3366 O 300.908 -1.34354 -1.40639 0
M  V30 3367 C 301.191 -3.25839 1.53299 0
M  V30 3368 C 301.044 -3.28269 3.07505 0
M  V30 3369 C 302.363 -4.22991 1.21518 0
M  V30 3370 H 299.482 -0.655493 0.336894 0
M  V30 3371 H 302.124 -1.26144 1.42083 0
M  V30 3372 H 300.274 -3.72306 1.10999 0
M  V30 3373 H 301.946 -2.90079 3.58681 0
M  V30 3374 H 300.189 -2.67355 3.4162 0
M  V30 3375 H 300.86 -4.30691 3.45266 0
M  V30 3376 H 303.336 -3.84894 1.581 0
M  V30 3377 H 302.212 -5.22945 1.66793 0
M  V30 3378 H 302.473 -4.41904 0.131505 0
M  V30 3379 N 301.532 -0.945985 -1.26051 0
M  V30 3380 C 302.779 -0.596118 -1.93527 0
M  V30 3381 C 303.107 0.865559 -1.74179 0
M  V30 3382 O 302.362 1.63524 -1.0751 0
M  V30 3383 C 302.661 -0.890475 -3.46129 0
M  V30 3384 C 302.327 -2.3368 -3.85622 0
M  V30 3385 C 300.989 -2.73216 -3.96114 0
M  V30 3386 C 303.341 -3.27648 -4.05334 0
M  V30 3387 C 300.669 -4.05806 -4.2372 0
M  V30 3388 C 303.021 -4.59841 -4.3443 0
M  V30 3389 C 301.685 -4.99185 -4.43137 0
M  V30 3390 H 300.955 -0.218135 -0.708165 0
M  V30 3391 H 303.602 -1.1934 -1.49768 0
M  V30 3392 H 301.907 -0.210711 -3.91233 0
M  V30 3393 H 303.604 -0.598478 -3.96509 0
M  V30 3394 H 300.194 -2.02015 -3.78005 0
M  V30 3395 H 304.378 -2.98298 -3.96651 0
M  V30 3396 H 299.634 -4.35945 -4.28675 0
M  V30 3397 H 303.808 -5.32641 -4.48628 0
M  V30 3398 H 301.435 -6.01952 -4.64282 0
M  V30 3399 N 303.011 1.40521 -0.713556 0
M  V30 3400 C 304.241 2.0494 -0.261395 0
M  V30 3401 C 304.649 1.53861 1.10107 0
M  V30 3402 O 303.992 0.689321 1.70276 0
M  V30 3403 C 304.054 3.59138 -0.161227 0
M  V30 3404 C 303.718 4.33096 -1.45865 0
M  V30 3405 C 304.715 4.61182 -2.40016 0
M  V30 3406 C 302.4 4.72043 -1.71701 0
M  V30 3407 C 304.394 5.27196 -3.58251 0
M  V30 3408 C 302.081 5.37789 -2.90218 0
M  V30 3409 C 303.079 5.65295 -3.83315 0
M  V30 3410 O 302.767 6.29683 -4.99754 0
M  V30 3411 H 302.499 0.666041 -0.115608 0
M  V30 3412 H 305.053 1.80954 -0.971849 0
M  V30 3413 H 303.283 3.81936 0.605153 0
M  V30 3414 H 304.972 4.05091 0.256105 0
M  V30 3415 H 305.738 4.31559 -2.21318 0
M  V30 3416 H 301.617 4.50003 -1.00092 0
M  V30 3417 H 305.161 5.48582 -4.30934 0
M  V30 3418 H 301.058 5.66831 -3.08825 0
M  V30 3419 H 301.826 6.4818 -4.99805 0
M  V30 3420 N 304.489 0.459591 1.5075 0
M  V30 3421 C 305.717 -0.0973749 2.06671 0
M  V30 3422 C 306.132 -1.34524 1.32472 0
M  V30 3423 O 305.489 -1.7827 0.390634 0
M  V30 3424 C 305.54 -0.39714 3.59312 0
M  V30 3425 O 305.261 0.801214 4.30711 0
M  V30 3426 C 306.762 -1.00234 4.31819 0
M  V30 3427 H 303.982 0.00195854 0.670997 0
M  V30 3428 H 306.526 0.645072 1.94059 0
M  V30 3429 H 304.681 -1.08951 3.71764 0
M  V30 3430 H 305.095 0.538857 5.21725 0
M  V30 3431 H 306.569 -1.16193 5.39632 0
M  V30 3432 H 307.046 -1.98939 3.91561 0
M  V30 3433 H 307.652 -0.348699 4.23868 0
M  V30 3434 N 305.967 -1.56429 0.191757 0
M  V30 3435 C 306.93 -2.17707 -0.716688 0
M  V30 3436 C 307.93 -1.13061 -1.14341 0
M  V30 3437 O 309.12 -1.38464 -1.05704 0
M  V30 3438 C 306.252 -2.77644 -1.97804 0
M  V30 3439 H 307.445 -2.99342 -0.1829 0
M  V30 3440 H 304.998 -1.56193 -0.0578566 0
M  V30 3441 H 305.733 -1.99799 -2.55443 0
M  V30 3442 H 305.518 -3.54246 -1.68083 0
M  V30 3443 H 307.008 -3.24708 -2.62592 0
M  V30 3444 N 307.445 0.0818655 -1.57387 0
M  V30 3445 C 308.694 0.781681 -1.85937 0
M  V30 3446 C 309.007 1.79246 -0.782957 0
M  V30 3447 O 310.213 2.54112 -0.955987 0
M  V30 3448 C 308.669 1.44109 -3.29789 0
M  V30 3449 C 308.277 0.469396 -4.45534 0
M  V30 3450 C 310.021 2.12386 -3.67549 0
M  V30 3451 C 307.928 1.13415 -5.80423 0
M  V30 3452 H 306.858 0.295682 -0.693605 0
M  V30 3453 H 309.509 0.0348051 -1.83467 0
M  V30 3454 H 307.891 2.23588 -3.2684 0
M  V30 3455 H 309.065 -0.294856 -4.59856 0
M  V30 3456 H 307.38 -0.108383 -4.16259 0
M  V30 3457 H 309.977 2.62878 -4.65617 0
M  V30 3458 H 310.32 2.91877 -2.96839 0
M  V30 3459 H 310.853 1.39751 -3.72444 0
M  V30 3460 H 307.592 0.379771 -6.54399 0
M  V30 3461 H 307.112 1.8695 -5.69921 0
M  V30 3462 H 308.791 1.65686 -6.25426 0
M  V30 3463 N 308.923 1.53595 0.353017 0
M  V30 3464 C 310.151 1.74311 1.1146 0
M  V30 3465 C 310.566 0.477854 1.82653 0
M  V30 3466 O 309.923 -0.549977 1.74016 0
M  V30 3467 C 309.974 2.91694 2.13534 0
M  V30 3468 O 309.695 4.13325 1.45238 0
M  V30 3469 C 311.196 3.24384 3.02142 0
M  V30 3470 H 308.416 0.582669 0.332773 0
M  V30 3471 H 310.96 2.00386 0.408107 0
M  V30 3472 H 309.115 2.67977 2.79763 0
M  V30 3473 H 309.529 4.79148 2.13349 0
M  V30 3474 H 311.003 4.09893 3.69718 0
M  V30 3475 H 311.48 2.40282 3.67643 0
M  V30 3476 H 312.086 3.50073 2.41514 0
M  V30 3477 N 310.401 -0.613514 1.45168 0
M  V30 3478 C 311.348 -1.72456 1.53387 0
M  V30 3479 C 312.318 -1.6169 0.380191 0
M  V30 3480 O 313.503 -1.81356 0.592836 0
M  V30 3481 C 310.643 -3.10753 1.50088 0
M  V30 3482 C 309.756 -3.32368 2.75963 0
M  V30 3483 C 308.891 -4.60737 2.64376 0
M  V30 3484 C 307.93 -4.7559 3.85332 0
M  V30 3485 N 307.067 -5.95253 3.72315 0
M  V30 3486 H 311.907 -1.64768 2.48305 0
M  V30 3487 H 309.444 -0.803503 1.23216 0
M  V30 3488 H 311.402 -3.90758 1.46164 0
M  V30 3489 H 310.032 -3.17413 0.587243 0
M  V30 3490 H 309.084 -2.4618 2.89999 0
M  V30 3491 H 310.396 -3.39218 3.65695 0
M  V30 3492 H 309.55 -5.48928 2.58385 0
M  V30 3493 H 308.289 -4.56275 1.72233 0
M  V30 3494 H 307.294 -3.85824 3.91688 0
M  V30 3495 H 308.519 -4.81854 4.78533 0
M  V30 3496 H 306.465 -5.91847 2.82937 0
M  V30 3497 H 306.382 -6.03236 4.55677 0
M  V30 3498 H 307.65 -6.85958 3.70246 0
M  V30 3499 N 311.879 -1.3236 -0.855495 0
M  V30 3500 C 312.826 -1.21225 -1.964 0
M  V30 3501 C 313.796 -0.0946204 -1.6583 0
M  V30 3502 O 314.981 -0.27002 -1.8888 0
M  V30 3503 C 312.121 -0.940419 -3.32039 0
M  V30 3504 C 311.234 -2.14276 -3.75113 0
M  V30 3505 C 310.369 -1.80648 -4.9954 0
M  V30 3506 C 309.408 -2.97208 -5.35102 0
M  V30 3507 N 308.545 -2.63678 -6.50706 0
M  V30 3508 H 313.385 -2.16042 -2.05255 0
M  V30 3509 H 310.922 -1.07451 -1.00463 0
M  V30 3510 H 312.88 -0.763311 -4.10158 0
M  V30 3511 H 311.51 -0.0290413 -3.22787 0
M  V30 3512 H 310.562 -2.43017 -2.92655 0
M  V30 3513 H 311.874 -3.01468 -3.97389 0
M  V30 3514 H 311.028 -1.59484 -5.85363 0
M  V30 3515 H 309.767 -0.906678 -4.79198 0
M  V30 3516 H 308.772 -3.19004 -4.47791 0
M  V30 3517 H 309.997 -3.87918 -5.57401 0
M  V30 3518 H 307.943 -1.76238 -6.31883 0
M  V30 3519 H 307.86 -3.444 -6.72997 0
M  V30 3520 H 309.128 -2.45942 -7.39684 0
M  V30 3521 N 313.357 1.07166 -1.15556 0
M  V30 3522 C 314.606 1.79181 -0.926132 0
M  V30 3523 C 314.919 1.87768 0.547967 0
M  V30 3524 O 316.125 2.56323 0.895036 0
M  V30 3525 C 314.581 3.22 -1.60761 0
M  V30 3526 C 314.189 3.21607 -3.11886 0
M  V30 3527 C 315.933 3.9861 -1.4598 0
M  V30 3528 C 313.84 4.59092 -3.72812 0
M  V30 3529 H 312.77 0.67154 -0.342856 0
M  V30 3530 H 315.421 1.2027 -1.3859 0
M  V30 3531 H 313.803 3.81115 -1.07553 0
M  V30 3532 H 314.977 2.72127 -3.71865 0
M  V30 3533 H 313.292 2.58495 -3.2645 0
M  V30 3534 H 315.889 5.00225 -1.88888 0
M  V30 3535 H 316.232 4.143 -0.407541 0
M  V30 3536 H 316.765 3.45996 -1.96295 0
M  V30 3537 H 313.504 4.48606 -4.77946 0
M  V30 3538 H 313.024 5.08803 -3.17616 0
M  V30 3539 H 314.703 5.28059 -3.73848 0
M  V30 3540 N 314.835 0.952656 1.25548 0
M  V30 3541 C 316.082 0.606373 1.93208 0
M  V30 3542 C 316.41 -0.85631 1.74636 0
M  V30 3543 O 315.665 -1.62951 1.08376 0
M  V30 3544 C 315.964 0.908818 3.45652 0
M  V30 3545 C 315.63 2.35722 3.84378 0
M  V30 3546 C 314.292 2.75312 3.9466 0
M  V30 3547 C 316.644 3.29793 4.03591 0
M  V30 3548 C 313.972 4.08047 4.21562 0
M  V30 3549 C 316.324 4.62138 4.31985 0
M  V30 3550 C 314.988 5.01528 4.40484 0
M  V30 3551 H 314.258 0.221888 0.706998 0
M  V30 3552 H 316.905 1.20132 1.49133 0
M  V30 3553 H 315.21 0.231456 3.91116 0
M  V30 3554 H 316.907 0.619498 3.96186 0
M  V30 3555 H 313.497 2.04017 3.76928 0
M  V30 3556 H 317.681 3.00397 3.95064 0
M  V30 3557 H 312.937 4.38212 4.26357 0
M  V30 3558 H 317.111 5.35012 4.45797 0
M  V30 3559 H 314.738 6.04406 4.61083 0
M  V30 3560 N 316.313 -1.40141 0.720998 0
M  V30 3561 C 317.26 -2.30688 0.071919 0
M  V30 3562 C 318.23 -1.48476 -0.744584 0
M  V30 3563 O 319.415 -1.77201 -0.707423 0
M  V30 3564 C 316.555 -3.34724 -0.839855 0
M  V30 3565 C 315.668 -4.31998 -0.0122438 0
M  V30 3566 C 314.803 -5.23102 -0.923995 0
M  V30 3567 C 313.842 -6.12033 -0.0907969 0
M  V30 3568 N 312.979 -6.95537 -0.957718 0
M  V30 3569 H 317.819 -2.85628 0.849755 0
M  V30 3570 H 315.356 -1.40653 0.430726 0
M  V30 3571 H 317.314 -3.93618 -1.38279 0
M  V30 3572 H 315.944 -2.81274 -1.58381 0
M  V30 3573 H 314.996 -3.74841 0.64794 0
M  V30 3574 H 316.308 -4.94772 0.632595 0
M  V30 3575 H 315.462 -5.86953 -1.53527 0
M  V30 3576 H 314.201 -4.60615 -1.60264 0
M  V30 3577 H 313.206 -5.47207 0.533377 0
M  V30 3578 H 314.431 -6.76581 0.584428 0
M  V30 3579 H 312.377 -6.35633 -1.62192 0
M  V30 3580 H 312.294 -7.55099 -0.36904 0
M  V30 3581 H 313.562 -7.63832 -1.555 0
M  V30 3582 N 317.792 -0.46758 -1.50504 0
M  V30 3583 C 319.017 0.0886943 -2.0721 0
M  V30 3584 C 319.442 1.33057 -1.32956 0
M  V30 3585 O 318.8 1.77354 -0.376197 0
M  V30 3586 C 318.848 0.359202 -3.58806 0
M  V30 3587 O 317.952 1.44034 -3.8643 0
M  V30 3588 H 317.293 -0.0114349 -0.663902 0
M  V30 3589 H 319.823 -0.657613 -1.93744 0
M  V30 3590 H 319.833 0.600742 -4.03553 0
M  V30 3591 H 318.508 -0.548311 -4.1227 0
M  V30 3592 H 317.085 1.18638 -3.53524 0
M  V30 3593 N 319.27 1.56325 -0.20005 0
M  V30 3594 C 320.22 2.15939 0.731743 0
M  V30 3595 C 321.204 1.10154 1.17281 0
M  V30 3596 O 322.396 1.36203 1.13038 0
M  V30 3597 C 319.525 2.82614 1.94895 0
M  V30 3598 C 318.611 3.95596 1.52855 0
M  V30 3599 N 319.002 4.99118 0.819418 0
M  V30 3600 C 317.3 4.07288 1.81748 0
M  V30 3601 C 318.001 5.78513 0.608053 0
M  V30 3602 N 316.977 5.31117 1.15828 0
M  V30 3603 H 320.779 2.9334 0.181285 0
M  V30 3604 H 318.293 1.624 -0.000452172 0
M  V30 3605 H 320.29 3.23718 2.62702 0
M  V30 3606 H 318.95 2.06702 2.50408 0
M  V30 3607 H 319.961 5.15723 0.47436 0
M  V30 3608 H 316.638 3.42509 2.38734 0
M  V30 3609 H 318.028 6.71885 0.0451619 0
M  V30 3610 N 320.748 -0.0735177 1.57428 0
M  V30 3611 C 321.678 -1.0879 2.06608 0
M  V30 3612 C 322.659 -1.40473 0.959237 0
M  V30 3613 O 323.844 -1.5013 1.23185 0
M  V30 3614 C 320.974 -2.40183 2.50857 0
M  V30 3615 C 319.928 -2.22858 3.65402 0
M  V30 3616 C 319.254 -3.59619 3.957 0
M  V30 3617 C 320.554 -1.65123 4.95511 0
M  V30 3618 H 322.248 -0.678673 2.91607 0
M  V30 3619 H 319.794 -0.325013 1.40284 0
M  V30 3620 H 321.747 -3.11437 2.83874 0
M  V30 3621 H 320.471 -2.83083 1.62885 0
M  V30 3622 H 319.13 -1.54045 3.32664 0
M  V30 3623 H 318.778 -4.00086 3.04861 0
M  V30 3624 H 318.478 -3.48866 4.72828 0
M  V30 3625 H 320.002 -4.32306 4.31212 0
M  V30 3626 H 321.416 -2.26241 5.26771 0
M  V30 3627 H 319.813 -1.65071 5.7695 0
M  V30 3628 H 320.883 -0.612559 4.81015 0
M  V30 3629 N 322.226 -1.5378 -0.344866 0
M  V30 3630 C 323.173 -1.81676 -1.42346 0
M  V30 3631 C 324.143 -0.662376 -1.52321 0
M  V30 3632 O 325.328 -0.906675 -1.67881 0
M  V30 3633 C 322.468 -2.03087 -2.79015 0
M  V30 3634 C 321.581 -3.30799 -2.77842 0
M  V30 3635 C 320.716 -3.42285 -4.0622 0
M  V30 3636 C 319.755 -4.6395 -3.9927 0
M  V30 3637 N 318.892 -4.72477 -5.19336 0
M  V30 3638 H 323.732 -2.73703 -1.17858 0
M  V30 3639 H 321.269 -1.35568 -0.570949 0
M  V30 3640 H 323.227 -2.1349 -3.58438 0
M  V30 3641 H 321.857 -1.14375 -3.01858 0
M  V30 3642 H 320.909 -3.29244 -1.90533 0
M  V30 3643 H 322.221 -4.20314 -2.68584 0
M  V30 3644 H 321.375 -3.52113 -4.94066 0
M  V30 3645 H 320.114 -2.50823 -4.18258 0
M  V30 3646 H 319.119 -4.54201 -3.09809 0
M  V30 3647 H 320.344 -5.56775 -3.88817 0
M  V30 3648 H 318.29 -3.83924 -5.3192 0
M  V30 3649 H 318.207 -5.55927 -5.12329 0
M  V30 3650 H 319.475 -4.86613 -6.08957 0
M  V30 3651 N 323.704 0.605807 -1.45491 0
M  V30 3652 C 324.929 1.39625 -1.53361 0
M  V30 3653 C 325.354 1.87351 -0.167645 0
M  V30 3654 O 324.712 1.60243 0.848051 0
M  V30 3655 C 324.76 2.57559 -2.5238 0
M  V30 3656 O 323.864 3.58248 -2.04285 0
M  V30 3657 H 323.205 0.416771 -0.516912 0
M  V30 3658 H 325.735 0.737103 -1.90861 0
M  V30 3659 H 325.745 3.0478 -2.71244 0
M  V30 3660 H 324.42 2.22171 -3.51586 0
M  V30 3661 H 322.997 3.17664 -1.95305 0
M  V30 3662 N 325.182 1.32811 0.848464 0
M  V30 3663 C 326.407 1.26882 1.6406 0
M  V30 3664 C 326.832 -0.15913 1.87426 0
M  V30 3665 O 326.19 -1.11258 1.43148 0
M  V30 3666 C 326.238 2.03997 2.97351 0
M  V30 3667 O 325.342 1.39201 3.88197 0
M  V30 3668 H 324.683 0.436982 0.499943 0
M  V30 3669 H 327.213 1.75224 1.0563 0
M  V30 3670 H 327.223 2.14403 3.47124 0
M  V30 3671 H 325.898 3.0783 2.79666 0
M  V30 3672 H 324.475 1.37381 3.46671 0
M  V30 3673 N 326.66 -1.06551 1.16123 0
M  V30 3674 C 328.076 -1.3142 0.905585 0
M  V30 3675 C 328.276 -1.96571 -0.442964 0
M  V30 3676 O 327.332 -2.23068 -1.18308 0
M  V30 3677 C 328.645 -2.19741 2.05267 0
M  V30 3678 C 330.193 -2.33165 2.08813 0
M  V30 3679 C 330.668 -3.24838 3.22868 0
M  V30 3680 N 332.159 -3.32421 3.22568 0
M  V30 3681 C 332.894 -4.0344 4.0746 0
M  V30 3682 N 332.39 -4.77003 5.02434 0
M  V30 3683 N 334.183 -3.99464 3.95456 0
M  V30 3684 H 326.334 -0.626548 2.02949 0
M  V30 3685 H 328.597 -0.338777 0.8854 0
M  V30 3686 H 328.303 -1.79142 3.02657 0
M  V30 3687 H 328.177 -3.20313 1.99198 0
M  V30 3688 H 330.564 -2.73013 1.12018 0
M  V30 3689 H 330.645 -1.3227 2.18948 0
M  V30 3690 H 330.289 -2.85708 4.19921 0
M  V30 3691 H 330.219 -4.25707 3.0997 0
M  V30 3692 H 332.71 -2.79994 2.53795 0
M  V30 3693 H 333.023 -5.28712 5.63634 0
M  V30 3694 H 331.368 -4.75992 5.06415 0
M  V30 3695 H 334.559 -3.4111 3.20564 0
M  V30 3696 H 334.732 -4.54544 4.61837 0
M  V30 3697 N 328.138 -0.959301 -1.25041 0
M  V30 3698 C 329.086 -0.474437 -2.2771 0
M  V30 3699 C 330.08 0.457697 -1.631 0
M  V30 3700 O 331.286 0.333912 -1.76876 0
M  V30 3701 H 327.661 -0.134936 -0.739795 0
M  V30 3702 H 329.632 -1.35251 -2.65988 0
M  V30 3703 C 328.381 0.227884 -3.46952 0
M  V30 3704 H 327.704 -0.480248 -3.96905 0
M  V30 3705 H 329.144 0.531091 -4.20661 0
M  V30 3706 C 327.603 1.452 -3.04004 0
M  V30 3707 O 328.133 2.54949 -3.10426 0
M  V30 3708 N 326.339 1.31502 -2.59144 0
M  V30 3709 H 325.886 0.422065 -2.54119 0
M  V30 3710 H 325.844 2.13521 -2.30773 0
M  V30 3711 N 329.616 1.39756 -0.72842 0
M  V30 3712 C 330.841 2.05472 -0.282159 0
M  V30 3713 C 331.266 1.54549 1.07221 0
M  V30 3714 O 330.624 0.686372 1.67805 0
M  V30 3715 C 330.672 3.59462 -0.286264 0
M  V30 3716 O 329.776 4.05918 0.728298 0
M  V30 3717 H 329.117 0.651226 -0.129618 0
M  V30 3718 H 331.647 1.78915 -0.992499 0
M  V30 3719 H 331.657 4.07798 -0.128373 0
M  V30 3720 H 330.332 3.95889 -1.27456 0
M  V30 3721 H 328.909 3.69012 0.537081 0
M  V30 3722 N 331.094 0.475555 1.50254 0
M  V30 3723 C 332.322 -0.0754493 2.06762 0
M  V30 3724 C 332.737 -1.33111 1.33891 0
M  V30 3725 O 332.094 -1.77846 0.40952 0
M  V30 3726 C 332.145 -0.359008 3.59713 0
M  V30 3727 O 331.866 0.846851 4.29837 0
M  V30 3728 C 333.367 -0.956484 4.32858 0
M  V30 3729 H 330.587 0.00907525 0.670939 0
M  V30 3730 H 333.131 0.665618 1.93364 0
M  V30 3731 H 331.286 -1.05001 3.72899 0
M  V30 3732 H 331.7 0.594162 5.21124 0
M  V30 3733 H 333.174 -1.10463 5.40834 0
M  V30 3734 H 333.651 -1.94775 3.93649 0
M  V30 3735 H 334.257 -0.303723 4.24214 0
M  V30 3736 N 332.573 -1.56217 0.208337 0
M  V30 3737 C 333.798 -2.02782 -0.435222 0
M  V30 3738 C 334.223 -1.08738 -1.53485 0
M  V30 3739 O 333.581 -0.0731855 -1.81152 0
M  V30 3740 C 333.629 -3.47687 -0.956335 0
M  V30 3741 O 332.733 -3.56773 -2.06849 0
M  V30 3742 H 332.074 -0.656403 -0.100158 0
M  V30 3743 H 334.604 -2.02033 0.3231 0
M  V30 3744 H 334.614 -3.87745 -1.26955 0
M  V30 3745 H 333.289 -4.15624 -0.15143 0
M  V30 3746 H 331.866 -3.28597 -1.76292 0
M  V30 3747 N 334.051 0.0651679 -1.57465 0
M  V30 3748 C 335.297 0.764193 -1.87851 0
M  V30 3749 C 335.63 1.76889 -0.801495 0
M  V30 3750 O 334.905 1.93594 0.187528 0
M  V30 3751 C 335.188 1.46625 -3.28897 0
M  V30 3752 C 335.041 0.477515 -4.47258 0
M  V30 3753 C 336.36 2.4095 -3.68281 0
M  V30 3754 H 333.479 0.276351 -0.683227 0
M  V30 3755 H 336.121 0.0272868 -1.8998 0
M  V30 3756 H 334.271 2.09438 -3.27212 0
M  V30 3757 H 335.943 -0.145922 -4.61069 0
M  V30 3758 H 334.186 -0.206576 -4.33308 0
M  V30 3759 H 334.857 1.0065 -5.42746 0
M  V30 3760 H 337.333 1.88209 -3.71102 0
M  V30 3761 H 336.209 2.87072 -4.67847 0
M  V30 3762 H 336.47 3.26049 -2.98571 0
M  V30 3763 N 335.529 1.53961 0.336706 0
M  V30 3764 C 336.476 1.82428 1.41381 0
M  V30 3765 C 337.446 0.670444 1.51968 0
M  V30 3766 O 338.631 0.915565 1.67398 0
M  V30 3767 C 335.771 2.04564 2.77934 0
M  V30 3768 C 334.884 3.32267 2.76084 0
M  V30 3769 C 334.019 3.44434 4.04399 0
M  V30 3770 C 333.058 4.66061 3.96804 0
M  V30 3771 N 332.195 4.75224 5.16823 0
M  V30 3772 H 337.035 2.74324 1.16405 0
M  V30 3773 H 334.572 1.35869 0.563752 0
M  V30 3774 H 336.53 2.15388 3.57301 0
M  V30 3775 H 335.16 1.15974 3.01247 0
M  V30 3776 H 334.212 3.3025 1.88784 0
M  V30 3777 H 335.524 4.21733 2.66351 0
M  V30 3778 H 334.678 3.54728 4.92192 0
M  V30 3779 H 333.417 2.53037 4.16921 0
M  V30 3780 H 332.422 4.55838 3.07396 0
M  V30 3781 H 333.647 5.58829 3.85858 0
M  V30 3782 H 331.593 3.86739 5.29876 0
M  V30 3783 H 331.51 5.58636 5.09374 0
M  V30 3784 H 332.778 4.89835 6.06367 0
M  V30 3785 N 337.007 -0.598083 1.45811 0
M  V30 3786 C 337.954 -1.7082 1.55207 0
M  V30 3787 C 338.924 -1.61278 0.39732 0
M  V30 3788 O 340.109 -1.80717 0.612038 0
M  V30 3789 C 337.249 -3.09144 1.53376 0
M  V30 3790 C 336.362 -3.29423 2.79472 0
M  V30 3791 C 335.497 -4.57907 2.69248 0
M  V30 3792 C 334.536 -4.71476 3.90354 0
M  V30 3793 N 333.673 -5.9127 3.78608 0
M  V30 3794 H 338.513 -1.62125 2.50039 0
M  V30 3795 H 336.05 -0.790389 1.24062 0
M  V30 3796 H 338.008 -3.89186 1.50301 0
M  V30 3797 H 336.638 -3.16773 0.620876 0
M  V30 3798 H 335.69 -2.43091 2.92594 0
M  V30 3799 H 337.002 -3.3532 3.69272 0
M  V30 3800 H 336.156 -5.46157 2.64192 0
M  V30 3801 H 334.895 -4.54423 1.77063 0
M  V30 3802 H 333.9 -3.81648 3.95759 0
M  V30 3803 H 335.125 -4.76751 4.83617 0
M  V30 3804 H 333.071 -5.88813 2.89199 0
M  V30 3805 H 332.988 -5.98369 4.6205 0
M  V30 3806 H 334.256 -6.81992 3.77501 0
M  V30 3807 N 338.485 -1.33259 -0.841409 0
M  V30 3808 C 339.432 -1.23302 -1.95103 0
M  V30 3809 C 340.402 -0.112204 -1.65721 0
M  V30 3810 O 341.587 -0.290038 -1.88583 0
M  V30 3811 C 338.727 -0.975583 -3.31023 0
M  V30 3812 C 337.84 -2.18243 -3.72819 0
M  V30 3813 C 336.975 -1.85936 -4.97595 0
M  V30 3814 C 336.014 -3.02866 -5.3192 0
M  V30 3815 N 335.151 -2.70565 -6.47873 0
M  V30 3816 H 339.991 -2.18207 -2.02952 0
M  V30 3817 H 337.528 -1.0851 -0.993173 0
M  V30 3818 H 339.486 -0.80677 -4.09325 0
M  V30 3819 H 338.116 -0.0632755 -3.22738 0
M  V30 3820 H 337.168 -2.46107 -2.90061 0
M  V30 3821 H 338.48 -3.05666 -3.94169 0
M  V30 3822 H 337.634 -1.65684 -5.83638 0
M  V30 3823 H 336.373 -0.957452 -4.78209 0
M  V30 3824 H 335.378 -3.23736 -4.44382 0
M  V30 3825 H 336.603 -3.93809 -5.53255 0
M  V30 3826 H 334.549 -1.8293 -6.29978 0
M  V30 3827 H 334.466 -3.51519 -6.69306 0
M  V30 3828 H 335.734 -2.53774 -7.37034 0
M  V30 3829 N 339.963 1.05934 -1.16686 0
M  V30 3830 C 341.188 1.83029 -0.975455 0
M  V30 3831 C 341.613 1.82096 0.471452 0
M  V30 3832 O 340.971 1.22443 1.33706 0
M  V30 3833 C 341.019 3.27372 -1.51195 0
M  V30 3834 O 340.123 4.06054 -0.720701 0
M  V30 3835 H 339.464 0.566194 -0.346872 0
M  V30 3836 H 341.994 1.33541 -1.55009 0
M  V30 3837 H 342.004 3.78186 -1.53099 0
M  V30 3838 H 340.679 3.27366 -2.56523 0
M  V30 3839 H 339.256 3.64812 -0.772458 0
M  V30 3840 N 341.441 0.965919 1.2453 0
M  V30 3841 C 342.666 0.643971 1.97149 0
M  V30 3842 C 343.091 -0.779487 1.71189 0
M  V30 3843 O 342.449 -1.5288 0.974553 0
M  V30 3844 C 342.497 0.922557 3.48599 0
M  V30 3845 O 341.601 0.00707672 4.12399 0
M  V30 3846 H 340.942 0.243647 0.617683 0
M  V30 3847 H 343.472 1.29558 1.58353 0
M  V30 3848 H 343.482 0.853373 3.98976 0
M  V30 3849 H 342.157 1.95996 3.66822 0
M  V30 3850 H 340.734 0.12943 3.72675 0
M  V30 3851 N 342.919 -1.39368 0.735821 0
M  V30 3852 C 344.335 -1.54204 0.411492 0
M  V30 3853 C 344.535 -1.70268 -1.07755 0
M  V30 3854 O 343.591 -1.70364 -1.86366 0
M  V30 3855 C 344.904 -2.75925 1.19523 0
M  V30 3856 C 346.452 -2.89761 1.18354 0
M  V30 3857 C 346.927 -4.14421 1.94986 0
M  V30 3858 N 348.418 -4.21462 1.92156 0
M  V30 3859 C 349.153 -5.16871 2.48258 0
M  V30 3860 N 348.649 -6.18063 3.13001 0
M  V30 3861 N 350.442 -5.09093 2.38287 0
M  V30 3862 H 342.593 -1.27189 1.70108 0
M  V30 3863 H 344.856 -0.616517 0.720147 0
M  V30 3864 H 344.562 -2.70401 2.24892 0
M  V30 3865 H 344.436 -3.68614 0.800222 0
M  V30 3866 H 346.823 -2.94777 0.137975 0
M  V30 3867 H 346.904 -1.98133 1.61793 0
M  V30 3868 H 346.548 -4.10166 2.99543 0
M  V30 3869 H 346.478 -5.05095 1.48953 0
M  V30 3870 H 348.969 -3.48979 1.44991 0
M  V30 3871 H 349.282 -6.87326 3.53275 0
M  V30 3872 H 347.627 -6.18448 3.17091 0
M  V30 3873 H 350.818 -4.28973 1.8735 0
M  V30 3874 H 350.991 -5.83272 2.82308 0
M  V30 3875 N 344.397 -0.483516 -1.5 0
M  V30 3876 C 345.345 0.318061 -2.30415 0
M  V30 3877 C 346.339 0.978988 -1.38247 0
M  V30 3878 O 347.545 0.908673 -1.55381 0
M  V30 3879 H 343.92 0.121419 -0.742133 0
M  V30 3880 H 345.891 -0.380403 -2.95965 0
M  V30 3881 C 344.64 1.38013 -3.19136 0
M  V30 3882 H 343.963 0.880952 -3.89973 0
M  V30 3883 H 345.403 1.91332 -3.78375 0
M  V30 3884 C 343.862 2.38884 -2.37563 0
M  V30 3885 O 344.392 3.44412 -2.06744 0
M  V30 3886 N 342.598 2.10912 -1.99911 0
M  V30 3887 H 342.145 1.25118 -2.25174 0
M  V30 3888 H 342.103 2.78635 -1.45636 0
M  V30 3889 N 345.875 1.56104 -0.216619 0
M  V30 3890 C 347.124 1.97348 0.416744 0
M  V30 3891 C 347.437 1.10715 1.6125 0
M  V30 3892 O 348.643 1.41836 2.31506 0
M  V30 3893 C 347.099 3.51059 0.792835 0
M  V30 3894 C 346.707 4.46387 -0.379828 0
M  V30 3895 C 348.451 4.01026 1.39208 0
M  V30 3896 C 346.358 5.91397 0.0184223 0
M  V30 3897 H 345.288 0.736942 0.159475 0
M  V30 3898 H 347.939 1.80827 -0.31205 0
M  V30 3899 H 346.321 3.63162 1.57891 0
M  V30 3900 H 347.495 4.46029 -1.15737 0
M  V30 3901 H 345.81 4.06734 -0.891979 0
M  V30 3902 H 348.407 5.0686 1.70286 0
M  V30 3903 H 348.75 3.46587 2.30614 0
M  V30 3904 H 349.283 3.92125 0.669537 0
M  V30 3905 H 346.022 6.49807 -0.862002 0
M  V30 3906 H 345.542 5.94961 0.760384 0
M  V30 3907 H 347.221 6.45455 0.446818 0
M  V30 3908 N 347.353 -0.0568162 1.57498 0
M  V30 3909 C 348.6 -0.753104 1.87975 0
M  V30 3910 C 348.928 -1.76815 0.81035 0
M  V30 3911 O 348.183 -1.94756 -0.19199 0
M  V30 3912 C 348.482 -1.48359 3.25153 0
M  V30 3913 C 348.148 -0.60713 4.46794 0
M  V30 3914 C 346.81 -0.365642 4.79809 0
M  V30 3915 C 349.162 -0.000305978 5.212 0
M  V30 3916 C 346.49 0.491905 5.84634 0
M  V30 3917 C 348.842 0.844781 6.26934 0
M  V30 3918 C 347.506 1.096 6.58441 0
M  V30 3919 H 346.776 -0.27558 0.687849 0
M  V30 3920 H 349.423 -0.0135173 1.91495 0
M  V30 3921 H 347.728 -2.29577 3.17492 0
M  V30 3922 H 349.425 -2.02739 3.45974 0
M  V30 3923 H 346.015 -0.805487 4.20963 0
M  V30 3924 H 350.199 -0.173961 4.95995 0
M  V30 3925 H 345.455 0.695131 6.07436 0
M  V30 3926 H 349.629 1.32165 6.83744 0
M  V30 3927 H 347.256 1.76224 7.39492 0
M  V30 3928 N 348.832 -1.54138 -0.328536 0
M  V30 3929 C 350.057 -1.76378 -1.09112 0
M  V30 3930 C 350.482 -0.508596 -1.81094 0
M  V30 3931 O 349.84 0.539598 -1.73084 0
M  V30 3932 C 349.888 -2.95358 -2.06872 0
M  V30 3933 O 348.992 -2.66556 -3.14677 0
M  V30 3934 H 348.333 -0.584614 -0.314838 0
M  V30 3935 H 350.863 -2.01146 -0.374348 0
M  V30 3936 H 350.873 -3.22566 -2.4983 0
M  V30 3937 H 349.548 -3.86385 -1.5388 0
M  V30 3938 H 348.125 -2.50282 -2.7643 0
M  V30 3939 N 350.31 0.590341 -1.46126 0
M  V30 3940 C 351.559 1.34499 -1.50309 0
M  V30 3941 C 351.872 1.94977 -0.156021 0
M  V30 3942 O 353.078 2.71395 -0.0756037 0
M  V30 3943 C 351.534 2.43723 -2.64815 0
M  V30 3944 C 351.142 1.89582 -4.0591 0
M  V30 3945 C 352.886 3.20579 -2.78262 0
M  V30 3946 C 350.793 2.9639 -5.11769 0
M  V30 3947 H 349.723 0.505593 -0.559368 0
M  V30 3948 H 352.374 0.630848 -1.72315 0
M  V30 3949 H 350.756 3.17902 -2.36124 0
M  V30 3950 H 351.93 1.21997 -4.44357 0
M  V30 3951 H 350.245 1.25418 -3.97063 0
M  V30 3952 H 352.842 4.00276 -3.54519 0
M  V30 3953 H 353.185 3.72684 -1.85505 0
M  V30 3954 H 353.718 2.53505 -3.06562 0
M  V30 3955 H 350.457 2.49181 -6.06291 0
M  V30 3956 H 349.977 3.62487 -4.77873 0
M  V30 3957 H 351.656 3.60474 -5.37278 0
M  V30 3958 N 351.788 1.33704 0.83433 0
M  V30 3959 C 353.034 1.25603 1.59222 0
M  V30 3960 C 353.367 -0.176659 1.93395 0
M  V30 3961 O 352.642 -1.11915 1.59076 0
M  V30 3962 C 352.925 2.13576 2.89926 0
M  V30 3963 C 352.778 3.65326 2.62406 0
M  V30 3964 C 354.097 2.01238 3.91397 0
M  V30 3965 H 351.216 0.457613 0.577719 0
M  V30 3966 H 353.858 1.63848 0.961972 0
M  V30 3967 H 352.008 1.8109 3.43713 0
M  V30 3968 H 353.68 4.08124 2.15017 0
M  V30 3969 H 351.923 3.8698 1.96033 0
M  V30 3970 H 352.594 4.22232 3.55562 0
M  V30 3971 H 355.07 2.29738 3.46929 0
M  V30 3972 H 353.946 2.65036 4.80673 0
M  V30 3973 H 354.207 0.985951 4.30966 0
M  V30 3974 N 353.266 -1.05314 1.17247 0
M  V30 3975 C 354.513 -1.78293 0.960091 0
M  V30 3976 C 354.841 -1.87658 -0.51136 0
M  V30 3977 O 354.096 -1.3718 -1.39571 0
M  V30 3978 C 354.395 -3.2229 1.54479 0
M  V30 3979 C 354.061 -3.32987 3.04024 0
M  V30 3980 C 352.723 -3.35613 3.44844 0
M  V30 3981 C 355.075 -3.34102 4.00031 0
M  V30 3982 C 352.403 -3.36982 4.8027 0
M  V30 3983 C 354.755 -3.3701 5.35357 0
M  V30 3984 C 353.419 -3.37923 5.75642 0
M  V30 3985 H 352.689 -0.652422 0.351322 0
M  V30 3986 H 355.336 -1.23782 1.46117 0
M  V30 3987 H 353.641 -3.7972 0.965391 0
M  V30 3988 H 355.338 -3.77376 1.35603 0
M  V30 3989 H 351.928 -3.31655 2.71483 0
M  V30 3990 H 356.112 -3.31276 3.69554 0
M  V30 3991 H 351.368 -3.35999 5.10798 0
M  V30 3992 H 355.542 -3.36822 6.09528 0
M  V30 3993 H 353.169 -3.38738 6.80559 0
M  V30 3994 N 354.744 -0.972509 -1.24016 0
M  V30 3995 C 355.99 -0.637978 -1.92504 0
M  V30 3996 C 356.323 0.825383 -1.75787 0
M  V30 3997 O 355.598 1.59442 -1.11393 0
M  V30 3998 C 355.881 -1.01942 -3.45369 0
M  V30 3999 C 355.734 -2.53983 -3.71231 0
M  V30 4000 C 357.053 -0.55751 -4.36555 0
M  V30 4001 H 354.172 -0.233248 -0.699117 0
M  V30 4002 H 356.814 -1.21238 -1.46292 0
M  V30 4003 H 354.964 -0.530656 -3.84859 0
M  V30 4004 H 356.636 -3.10374 -3.41271 0
M  V30 4005 H 354.879 -2.96968 -3.16216 0
M  V30 4006 H 355.55 -2.75723 -4.78206 0
M  V30 4007 H 358.026 -0.977029 -4.04467 0
M  V30 4008 H 356.902 -0.85292 -5.42233 0
M  V30 4009 H 357.163 0.542328 -4.38761 0
M  V30 4010 N 356.222 1.38976 -0.743202 0
M  V30 4011 C 357.469 2.00343 -0.294752 0
M  V30 4012 C 357.797 1.58983 1.12047 0
M  V30 4013 O 357.052 0.813809 1.77977 0
M  V30 4014 C 357.351 3.55647 -0.353517 0
M  V30 4015 C 357.017 4.16685 -1.72292 0
M  V30 4016 C 355.679 4.3307 -2.09771 0
M  V30 4017 C 358.031 4.50464 -2.62168 0
M  V30 4018 C 355.359 4.80526 -3.36618 0
M  V30 4019 C 357.711 4.99332 -3.88395 0
M  V30 4020 C 356.375 5.13924 -4.25956 0
M  V30 4021 H 355.645 0.733108 -0.107857 0
M  V30 4022 H 358.292 1.6618 -0.951651 0
M  V30 4023 H 356.597 3.89884 0.386954 0
M  V30 4024 H 358.294 4.00998 0.0117269 0
M  V30 4025 H 354.884 4.04339 -1.42155 0
M  V30 4026 H 359.068 4.37416 -2.3448 0
M  V30 4027 H 354.324 4.90008 -3.65653 0
M  V30 4028 H 358.498 5.2444 -4.58187 0
M  V30 4029 H 356.125 5.50457 -5.2431 0
M  V30 4030 N 357.7 0.491464 1.49741 0
M  V30 4031 C 358.947 -0.0564256 2.02421 0
M  V30 4032 C 359.275 -1.37872 1.37192 0
M  V30 4033 O 358.53 -1.89375 0.493508 0
M  V30 4034 C 358.829 -0.267329 3.56399 0
M  V30 4035 C 358.495 0.975775 4.40215 0
M  V30 4036 C 357.157 1.31655 4.62839 0
M  V30 4037 C 359.509 1.80251 4.89039 0
M  V30 4038 C 356.837 2.48375 5.31532 0
M  V30 4039 C 359.189 2.96116 5.59015 0
M  V30 4040 C 357.853 3.30585 5.79888 0
M  V30 4041 H 357.123 -0.0206476 0.740712 0
M  V30 4042 H 359.77 0.649686 1.80143 0
M  V30 4043 H 358.075 -1.05588 3.77304 0
M  V30 4044 H 359.772 -0.705549 3.94744 0
M  V30 4045 H 356.362 0.700315 4.2284 0
M  V30 4046 H 360.546 1.55239 4.71396 0
M  V30 4047 H 355.802 2.7533 5.45897 0
M  V30 4048 H 359.976 3.60509 5.95824 0
M  V30 4049 H 357.603 4.21132 6.32892 0
M  V30 4050 N 359.178 -1.55987 0.224894 0
M  V30 4051 C 360.424 -1.98684 -0.406502 0
M  V30 4052 C 360.757 -1.11248 -1.59177 0
M  V30 4053 O 360.032 -0.170909 -1.93748 0
M  V30 4054 C 360.315 -3.50218 -0.837808 0
M  V30 4055 C 360.168 -4.48426 0.351332 0
M  V30 4056 C 361.487 -4.06243 -1.69278 0
M  V30 4057 H 358.606 -0.722337 -0.146283 0
M  V30 4058 H 361.248 -1.87255 0.321799 0
M  V30 4059 H 359.398 -3.60089 -1.45837 0
M  V30 4060 H 361.07 -4.50562 0.989526 0
M  V30 4061 H 359.313 -4.22159 0.998207 0
M  V30 4062 H 359.984 -5.52 0.00655905 0
M  V30 4063 H 362.46 -3.99337 -1.16914 0
M  V30 4064 H 361.336 -5.12581 -1.96346 0
M  V30 4065 H 361.597 -3.53332 -2.65723 0
M  V30 4066 N 360.656 0.0484629 -1.57525 0
M  V30 4067 C 361.896 0.748196 -1.90214 0
M  V30 4068 C 362.26 1.73545 -0.821347 0
M  V30 4069 O 363.461 2.48201 -1.03198 0
M  V30 4070 C 361.732 1.41727 -3.28098 0
M  V30 4071 S 363.291 2.14884 -3.82584 0
M  V30 4072 H 360.109 0.248307 -0.666232 0
M  V30 4073 H 362.711 0.00343188 -1.955 0
M  V30 4074 H 361.415 0.685244 -4.04639 0
M  V30 4075 H 360.946 2.20099 -3.26068 0
M  V30 4076 H 362.961 3.41755 -3.59747 0
M  V30 4077 N 362.134 1.5431 0.320358 0
M  V30 4078 C 363.381 1.72668 1.05792 0
M  V30 4079 C 363.709 0.502084 1.87908 0
M  V30 4080 O 362.964 -0.516149 1.88771 0
M  V30 4081 C 363.263 2.95639 2.00828 0
M  V30 4082 C 362.929 4.30265 1.34843 0
M  V30 4083 C 361.591 4.66865 1.16578 0
M  V30 4084 C 363.943 5.13801 0.875095 0
M  V30 4085 C 361.271 5.84597 0.496336 0
M  V30 4086 C 363.623 6.32219 0.219463 0
M  V30 4087 C 362.287 6.67495 0.0246915 0
M  V30 4088 H 361.557 0.631837 0.387121 0
M  V30 4089 H 364.204 1.88552 0.334735 0
M  V30 4090 H 362.509 2.74456 2.79609 0
M  V30 4091 H 364.206 3.07038 2.57932 0
M  V30 4092 H 360.796 4.01472 1.50061 0
M  V30 4093 H 364.98 4.86039 1.00398 0
M  V30 4094 H 360.236 6.10486 0.334264 0
M  V30 4095 H 364.41 6.96227 -0.155291 0
M  V30 4096 H 362.037 7.5858 -0.496065 0
M  V30 4097 N 363.613 -0.582584 1.46437 0
M  V30 4098 C 364.859 -1.34278 1.51978 0
M  V30 4099 C 365.192 -1.93446 0.170973 0
M  V30 4100 O 364.467 -1.76481 -0.817608 0
M  V30 4101 C 364.75 -2.47203 2.61845 0
M  V30 4102 C 364.603 -1.93069 4.06257 0
M  V30 4103 C 365.922 -3.49247 2.67795 0
M  V30 4104 H 363.041 -0.486876 0.553282 0
M  V30 4105 H 365.683 -0.654437 1.78374 0
M  V30 4106 H 363.833 -3.0592 2.39469 0
M  V30 4107 H 365.505 -1.38808 4.3992 0
M  V30 4108 H 363.748 -1.23898 4.1573 0
M  V30 4109 H 364.419 -2.74586 4.7886 0
M  V30 4110 H 366.895 -3.00411 2.8791 0
M  V30 4111 H 365.771 -4.25719 3.46489 0
M  V30 4112 H 366.032 -4.06482 1.73852 0
M  V30 4113 N 365.091 -1.34144 -0.827227 0
M  V30 4114 C 366.502 -1.23557 -1.39966 0
M  V30 4115 C 366.853 0.140731 -1.95695 0
M  V30 4116 O 365.978 1.04087 -1.89723 0
M  V30 4117 C 366.573 -2.23708 -2.54441 0
M  V30 4118 C 365.132 -2.16924 -3.07605 0
M  V30 4119 C 364.279 -2.10549 -1.80456 0
M  V30 4120 H 367.23 -1.45573 -0.631991 0
M  V30 4121 H 367.251 -1.85157 -3.32411 0
M  V30 4122 H 366.763 -3.23866 -2.13851 0
M  V30 4123 H 364.864 -1.20107 -3.52711 0
M  V30 4124 H 364.977 -3.07988 -3.66988 0
M  V30 4125 H 363.341 -1.56203 -2.01178 0
M  V30 4126 H 364.124 -3.12535 -1.42046 0
M  V30 4127 N 366.569 1.04691 -1.17803 0
M  V30 4128 C 367.799 1.81183 -0.992788 0
M  V30 4129 C 368.207 1.8347 0.462098 0
M  V30 4130 O 367.55 1.2643 1.33271 0
M  V30 4131 C 367.612 3.28363 -1.46349 0
M  V30 4132 C 367.276 3.49749 -2.94151 0
M  V30 4133 C 368.273 3.41456 -3.92051 0
M  V30 4134 C 365.958 3.76548 -3.32441 0
M  V30 4135 C 367.952 3.59656 -5.26238 0
M  V30 4136 C 365.639 3.94396 -4.66792 0
M  V30 4137 C 366.637 3.8595 -5.635 0
M  V30 4138 O 366.325 4.03294 -6.9542 0
M  V30 4139 H 366.057 0.577622 -0.351182 0
M  V30 4140 H 368.611 1.32876 -1.5663 0
M  V30 4141 H 366.841 3.77609 -0.833574 0
M  V30 4142 H 368.53 3.86395 -1.24313 0
M  V30 4143 H 369.296 3.20723 -3.63815 0
M  V30 4144 H 365.175 3.82224 -2.57732 0
M  V30 4145 H 368.719 3.52979 -6.01707 0
M  V30 4146 H 364.616 4.14622 -4.94731 0
M  V30 4147 H 365.384 4.2049 -7.02232 0
M  V30 4148 N 368.047 0.979072 1.23499 0
M  V30 4149 C 368.997 0.489378 2.22686 0
M  V30 4150 C 369.981 -0.434871 1.54912 0
M  V30 4151 O 371.173 -0.263941 1.75021 0
M  V30 4152 C 368.302 -0.208178 3.42668 0
M  V30 4153 C 367.388 0.735563 4.17672 0
M  V30 4154 N 367.779 1.87763 4.69658 0
M  V30 4155 C 366.077 0.548625 4.42613 0
M  V30 4156 C 366.778 2.46886 5.26709 0
M  V30 4157 N 365.754 1.75287 5.14563 0
M  V30 4158 H 369.556 1.36062 2.60508 0
M  V30 4159 H 367.07 0.83958 1.39014 0
M  V30 4160 H 369.067 -0.576295 4.12898 0
M  V30 4161 H 367.727 -1.07572 3.06363 0
M  V30 4162 H 368.738 2.25885 4.66043 0
M  V30 4163 H 365.415 -0.274006 4.166 0
M  V30 4164 H 366.805 3.43326 5.77561 0
M  V30 4165 N 369.525 -1.3858 0.750561 0
M  V30 4166 C 370.774 -1.99424 0.302172 0
M  V30 4167 C 371.087 -1.60254 -1.12152 0
M  V30 4168 O 372.293 -2.14046 -1.67023 0
M  V30 4169 C 370.749 -3.56558 0.489307 0
M  V30 4170 C 370.357 -4.04682 1.92189 0
M  V30 4171 C 372.101 -4.24374 0.103478 0
M  V30 4172 C 370.008 -5.54446 2.05775 0
M  V30 4173 H 368.938 -0.746046 0.10923 0
M  V30 4174 H 371.589 -1.58383 0.92667 0
M  V30 4175 H 369.971 -3.95472 -0.204329 0
M  V30 4176 H 371.145 -3.77065 2.64875 0
M  V30 4177 H 369.46 -3.4958 2.26236 0
M  V30 4178 H 372.057 -5.34384 0.183787 0
M  V30 4179 H 372.4 -4.05468 -0.943481 0
M  V30 4180 H 372.933 -3.90688 0.748854 0
M  V30 4181 H 369.672 -5.78252 3.08714 0
M  V30 4182 H 369.192 -5.83816 1.37546 0
M  V30 4183 H 370.871 -6.20099 1.84626 0
M  V30 4184 N 371.003 -0.499398 -1.49478 0
M  V30 4185 C 371.966 0.268838 -2.27618 0
M  V30 4186 C 372.966 0.895383 -1.33565 0
M  V30 4187 O 374.156 0.760164 -1.56739 0
M  V30 4188 C 371.288 1.38559 -3.11471 0
M  V30 4189 H 372.481 -0.416812 -2.96989 0
M  V30 4190 H 370.034 -0.254313 -1.54217 0
M  V30 4191 H 370.769 2.10544 -2.46661 0
M  V30 4192 H 370.554 0.941797 -3.80621 0
M  V30 4193 H 372.044 1.92678 -3.70493 0
M  V30 4194 N 372.481 1.55866 -0.233164 0
M  V30 4195 C 373.897 1.59133 0.121988 0
M  V30 4196 C 374.097 1.25016 1.58029 0
M  V30 4197 O 373.153 0.990922 2.32243 0
M  V30 4198 C 374.466 2.99932 -0.214792 0
M  V30 4199 C 376.014 3.12601 -0.157971 0
M  V30 4200 C 376.489 4.55597 -0.46859 0
M  V30 4201 N 377.98 4.61305 -0.418585 0
M  V30 4202 C 378.715 5.69903 -0.63227 0
M  V30 4203 N 378.211 6.86819 -0.90835 0
M  V30 4204 N 380.004 5.59264 -0.563913 0
M  V30 4205 H 372.155 1.76315 -1.18434 0
M  V30 4206 H 374.418 0.820093 -0.475553 0
M  V30 4207 H 374.124 3.29588 -1.22739 0
M  V30 4208 H 373.998 3.74327 0.464691 0
M  V30 4209 H 376.385 2.82735 0.845283 0
M  V30 4210 H 376.466 2.40511 -0.871102 0
M  V30 4211 H 376.11 4.86182 -1.46934 0
M  V30 4212 H 376.04 5.25928 0.265865 0
M  V30 4213 H 378.531 3.77297 -0.213368 0
M  V30 4214 H 378.844 7.65507 -1.05919 0
M  V30 4215 H 377.189 6.88536 -0.945673 0
M  V30 4216 H 380.38 4.66802 -0.348372 0
M  V30 4217 H 380.553 6.43831 -0.733847 0
M  V30 4218 N 373.959 -0.0401083 1.57549 0
M  V30 4219 C 375.208 -0.732108 1.87944 0
M  V30 4220 C 375.521 -1.77107 0.830206 0
M  V30 4221 O 376.727 -2.51488 1.02302 0
M  V30 4222 C 375.183 -1.35315 3.33494 0
M  V30 4223 C 374.791 -0.351105 4.46622 0
M  V30 4224 C 376.535 -2.02566 3.73051 0
M  V30 4225 C 374.442 -0.979859 5.83226 0
M  V30 4226 H 373.372 -0.277188 0.701201 0
M  V30 4227 H 376.023 0.0138501 1.83495 0
M  V30 4228 H 374.405 -2.14844 3.32653 0
M  V30 4229 H 375.579 0.416674 4.58912 0
M  V30 4230 H 373.894 0.218708 4.15825 0
M  V30 4231 H 376.491 -2.50441 4.72423 0
M  V30 4232 H 376.834 -2.83904 3.04474 0
M  V30 4233 H 377.367 -1.29827 3.76018 0
M  V30 4234 H 374.106 -0.206135 6.55176 0
M  V30 4235 H 373.626 -1.71774 5.74677 0
M  V30 4236 H 375.305 -1.49046 6.29599 0
M  V30 4237 N 375.437 -1.54477 -0.31217 0
M  V30 4238 C 376.848 -1.64344 -0.885891 0
M  V30 4239 C 377.199 -0.54485 -1.88483 0
M  V30 4240 O 376.324 0.320387 -2.14015 0
M  V30 4241 C 376.919 -2.97908 -1.61357 0
M  V30 4242 C 375.478 -3.09933 -2.13585 0
M  V30 4243 C 374.625 -2.59971 -0.964897 0
M  V30 4244 H 377.576 -1.58448 -0.0894528 0
M  V30 4245 H 377.597 -2.88706 -2.47848 0
M  V30 4246 H 377.109 -3.77845 -0.886277 0
M  V30 4247 H 375.21 -2.34694 -2.89395 0
M  V30 4248 H 375.323 -4.15916 -2.37804 0
M  V30 4249 H 373.687 -2.16147 -1.34731 0
M  V30 4250 H 374.47 -3.42376 -0.251742 0
M  V30 4251 N 376.915 0.57481 -1.46744 0
M  V30 4252 C 378.145 1.35659 -1.55821 0
M  V30 4253 C 378.553 1.88129 -0.201036 0
M  V30 4254 O 377.896 1.64723 0.813134 0
M  V30 4255 C 377.958 2.57473 -2.50894 0
M  V30 4256 C 377.622 2.26415 -3.9697 0
M  V30 4257 C 378.619 1.84771 -4.85958 0
M  V30 4258 C 376.304 2.38316 -4.42166 0
M  V30 4259 C 378.298 1.55434 -6.18158 0
M  V30 4260 C 375.985 2.08591 -5.74398 0
M  V30 4261 C 376.983 1.67216 -6.62214 0
M  V30 4262 O 376.671 1.37859 -7.91991 0
M  V30 4263 H 376.403 0.420496 -0.529301 0
M  V30 4264 H 378.957 0.704967 -1.92923 0
M  V30 4265 H 377.187 3.25468 -2.08824 0
M  V30 4266 H 378.876 3.19546 -2.50291 0
M  V30 4267 H 379.642 1.75085 -4.52295 0
M  V30 4268 H 375.521 2.69483 -3.74032 0
M  V30 4269 H 379.065 1.23065 -6.86659 0
M  V30 4270 H 374.962 2.17905 -6.07608 0
M  V30 4271 H 375.73 1.51638 -8.04331 0
M  V30 4272 N 378.394 1.34581 0.820102 0
M  V30 4273 C 379.622 1.3018 1.60813 0
M  V30 4274 C 380.037 -0.123551 1.88395 0
M  V30 4275 O 379.394 -1.07148 1.47735 0
M  V30 4276 C 379.445 2.09312 2.94739 0
M  V30 4277 O 379.166 3.46288 2.68358 0
M  V30 4278 C 380.667 2.1234 3.89136 0
M  V30 4279 H 377.887 0.447726 0.499782 0
M  V30 4280 H 380.431 1.77237 1.02017 0
M  V30 4281 H 378.586 1.65889 3.50085 0
M  V30 4282 H 379 3.87227 3.53774 0
M  V30 4283 H 380.474 2.72126 4.80262 0
M  V30 4284 H 380.951 1.11854 4.24718 0
M  V30 4285 H 381.557 2.55864 3.39726 0
M  V30 4286 N 379.872 -1.04064 1.18357 0
M  V30 4287 C 380.819 -2.12077 0.910603 0
M  V30 4288 C 381.789 -1.65421 -0.15 0
M  V30 4289 O 382.974 -1.90797 -0.0103614 0
M  V30 4290 C 380.114 -3.42252 0.442472 0
M  V30 4291 C 379.227 -4.0252 1.5685 0
M  V30 4292 C 378.362 -5.20657 1.05309 0
M  V30 4293 C 377.401 -5.72955 2.1538 0
M  V30 4294 N 376.538 -6.8238 1.65233 0
M  V30 4295 H 381.378 -2.34764 1.83548 0
M  V30 4296 H 378.915 -1.15157 0.915279 0
M  V30 4297 H 380.873 -4.16921 0.152534 0
M  V30 4298 H 379.503 -3.19712 -0.445428 0
M  V30 4299 H 378.555 -3.25178 1.97391 0
M  V30 4300 H 379.867 -4.37362 2.39824 0
M  V30 4301 H 379.021 -6.0244 0.717677 0
M  V30 4302 H 377.76 -4.87318 0.19293 0
M  V30 4303 H 376.765 -4.89793 2.49766 0
M  V30 4304 H 377.99 -6.08337 3.01832 0
M  V30 4305 H 375.936 -6.50917 0.815064 0
M  V30 4306 H 375.853 -7.16286 2.41805 0
M  V30 4307 H 377.121 -7.67788 1.34619 0
M  V30 4308 N 381.35 -0.985608 -1.22978 0
M  V30 4309 C 382.575 -0.675254 -1.961 0
M  V30 4310 C 383 0.752154 -1.72407 0
M  V30 4311 O 382.358 1.5131 -0.998751 0
M  V30 4312 C 382.406 -0.977899 -3.47087 0
M  V30 4313 O 381.51 -0.072685 -4.12336 0
M  V30 4314 H 380.851 -0.253443 -0.613728 0
M  V30 4315 H 383.381 -1.32061 -1.56272 0
M  V30 4316 H 383.391 -0.916739 -3.97567 0
M  V30 4317 H 382.066 -2.01807 -3.63657 0
M  V30 4318 H 380.643 -0.188703 -3.72422 0
M  V30 4319 N 382.828 1.3818 -0.7579 0
M  V30 4320 C 383.76 2.2901 -0.0932177 0
M  V30 4321 C 384.773 1.47958 0.679136 0
M  V30 4322 O 385.962 1.70773 0.519514 0
M  V30 4323 C 383.062 3.26953 0.89192 0
M  V30 4324 C 382.235 4.37045 0.176303 0
M  V30 4325 C 381.294 5.15148 1.07281 0
M  V30 4326 O 380.32 5.66616 0.541728 0
M  V30 4327 N 381.522 5.28542 2.40049 0
M  V30 4328 H 384.287 2.86694 -0.873303 0
M  V30 4329 H 381.848 1.50007 -0.609054 0
M  V30 4330 H 383.84 3.76083 1.49479 0
M  V30 4331 H 382.41 2.70136 1.57306 0
M  V30 4332 H 381.63 3.89493 -0.607328 0
M  V30 4333 H 382.918 5.07801 -0.318718 0
M  V30 4334 H 382.316 4.88285 2.85647 0
M  V30 4335 H 380.873 5.8103 2.95376 0
M  V30 4336 N 384.306 0.507319 1.49211 0
M  V30 4337 C 385.534 -0.0315749 2.06876 0
M  V30 4338 C 385.949 -1.30241 1.36685 0
M  V30 4339 O 385.306 -1.76937 0.447152 0
M  V30 4340 C 385.357 -0.282627 3.60393 0
M  V30 4341 O 385.078 0.937835 4.27944 0
M  V30 4342 C 386.579 -0.864453 4.3479 0
M  V30 4343 H 383.799 0.0233048 0.670595 0
M  V30 4344 H 386.343 0.706484 1.91909 0
M  V30 4345 H 384.498 -0.97068 3.75042 0
M  V30 4346 H 384.912 0.704567 5.19746 0
M  V30 4347 H 386.386 -0.989664 5.43056 0
M  V30 4348 H 386.863 -1.86382 3.97692 0
M  V30 4349 H 387.469 -0.213672 4.24763 0
M  V30 4350 N 385.784 -1.5574 0.241426 0
M  V30 4351 C 386.694 -2.2479 -0.671305 0
M  V30 4352 C 387.71 -1.26217 -1.19772 0
M  V30 4353 O 388.886 -1.59079 -1.23514 0
M  V30 4354 C 385.951 -2.92966 -1.85396 0
M  V30 4355 C 385.012 -4.06935 -1.36756 0
M  V30 4356 C 384.245 -4.71851 -2.49384 0
M  V30 4357 O 384.468 -4.35823 -3.67987 0
M  V30 4358 O 383.402 -5.60467 -2.19454 0
M  V30 4359 H 387.228 -3.0349 -0.112966 0
M  V30 4360 H 384.813 -1.49397 0.0101513 0
M  V30 4361 H 386.695 -3.35927 -2.54423 0
M  V30 4362 H 385.37 -2.17211 -2.40002 0
M  V30 4363 H 384.277 -3.68503 -0.644726 0
M  V30 4364 H 385.61 -4.84492 -0.867647 0
M  V30 4365 N 387.262 0.0317525 -1.57568 0
M  V30 4366 C 388.225 1.01783 -2.0536 0
M  V30 4367 C 389.225 1.29203 -0.957253 0
M  V30 4368 O 390.415 1.24251 -1.22095 0
M  V30 4369 C 387.547 2.35137 -2.46827 0
M  V30 4370 H 388.74 0.605062 -2.93733 0
M  V30 4371 H 386.293 0.278514 -1.53799 0
M  V30 4372 H 387.028 2.81168 -1.61602 0
M  V30 4373 H 386.813 2.16566 -3.26866 0
M  V30 4374 H 388.303 3.05938 -2.84239 0
M  V30 4375 N 388.74 1.54641 0.303973 0
M  V30 4376 C 389.69 1.8177 1.37636 0
M  V30 4377 C 390.674 0.674697 1.46071 0
M  V30 4378 O 391.866 0.935251 1.50273 0
M  V30 4379 C 388.995 2.06584 2.74186 0
M  V30 4380 C 388.081 3.2706 2.69986 0
M  V30 4381 N 388.472 4.47682 2.35402 0
M  V30 4382 C 386.77 3.29028 3.01092 0
M  V30 4383 C 387.471 5.29689 2.40426 0
M  V30 4384 N 386.447 4.67339 2.7766 0
M  V30 4385 H 390.249 2.72596 1.09857 0
M  V30 4386 H 387.763 1.541 0.51254 0
M  V30 4387 H 389.76 2.24166 3.51504 0
M  V30 4388 H 388.42 1.17024 3.02879 0
M  V30 4389 H 389.431 4.74336 2.07908 0
M  V30 4390 H 386.108 2.49565 3.34699 0
M  V30 4391 H 387.498 6.3606 2.16512 0
M  V30 4392 N 390.218 -0.567019 1.47046 0
M  V30 4393 C 391.448 -1.34831 1.56538 0
M  V30 4394 C 391.856 -1.8802 0.21101 0
M  V30 4395 O 391.199 -1.65152 -0.804387 0
M  V30 4396 C 391.261 -2.56139 2.52256 0
M  V30 4397 C 390.925 -2.24307 3.98165 0
M  V30 4398 C 391.922 -1.82192 4.86931 0
M  V30 4399 C 389.607 -2.35968 4.43423 0
M  V30 4400 C 391.601 -1.52153 6.18973 0
M  V30 4401 C 389.288 -2.05542 5.75496 0
M  V30 4402 C 390.286 -1.63701 6.63092 0
M  V30 4403 O 389.974 -1.33657 7.92711 0
M  V30 4404 H 389.706 -0.417683 0.531523 0
M  V30 4405 H 392.26 -0.694726 1.93294 0
M  V30 4406 H 390.49 -3.24356 2.10548 0
M  V30 4407 H 392.179 -3.18214 2.51982 0
M  V30 4408 H 392.945 -1.72684 4.53217 0
M  V30 4409 H 388.824 -2.67495 3.75456 0
M  V30 4410 H 392.368 -1.19421 6.87302 0
M  V30 4411 H 388.265 -2.14679 6.08755 0
M  V30 4412 H 389.033 -1.4737 8.05124 0
M  V30 4413 N 391.696 -1.35014 -0.812953 0
M  V30 4414 C 392.921 -1.31187 -1.60639 0
M  V30 4415 C 393.346 0.109382 -1.87782 0
M  V30 4416 O 392.704 1.07424 -1.46047 0
M  V30 4417 C 392.752 -2.11809 -2.91838 0
M  V30 4418 O 391.856 -1.49444 -3.8437 0
M  V30 4419 H 391.197 -0.450084 -0.488181 0
M  V30 4420 H 393.727 -1.77963 -1.00947 0
M  V30 4421 H 393.737 -2.23531 -3.41318 0
M  V30 4422 H 392.412 -3.15137 -2.71407 0
M  V30 4423 H 390.989 -1.46524 -3.42907 0
M  V30 4424 N 393.175 1.03435 -1.18907 0
M  V30 4425 C 394.415 1.78302 -0.999391 0
M  V30 4426 C 394.779 1.86353 0.462219 0
M  V30 4427 O 395.98 2.57489 0.771543 0
M  V30 4428 C 394.251 3.17362 -1.64365 0
M  V30 4429 S 395.81 4.08488 -1.6026 0
M  V30 4430 H 392.628 0.613861 -0.358742 0
M  V30 4431 H 395.23 1.23979 -1.51161 0
M  V30 4432 H 393.934 3.09116 -2.69955 0
M  V30 4433 H 393.465 3.76762 -1.13199 0
M  V30 4434 H 395.48 4.92274 -0.622932 0
M  V30 4435 N 394.653 0.992116 1.22453 0
M  V30 4436 C 395.585 0.500024 2.23679 0
M  V30 4437 C 396.598 -0.404463 1.57696 0
M  V30 4438 O 397.787 -0.206722 1.77299 0
M  V30 4439 C 394.887 -0.294711 3.37616 0
M  V30 4440 C 394.06 0.605723 4.33186 0
M  V30 4441 C 393.119 -0.13717 5.26021 0
M  V30 4442 O 392.145 0.477164 5.67196 0
M  V30 4443 N 393.347 -1.4197 5.62872 0
M  V30 4444 H 396.112 1.37045 2.66531 0
M  V30 4445 H 393.673 0.866741 1.36745 0
M  V30 4446 H 395.665 -0.800329 3.96707 0
M  V30 4447 H 394.235 -1.06623 2.93854 0
M  V30 4448 H 393.455 1.29202 3.72425 0
M  V30 4449 H 394.743 1.21896 4.93983 0
M  V30 4450 H 394.141 -1.94015 5.31389 0
M  V30 4451 H 392.698 -1.87052 6.24383 0
M  V30 4452 N 396.131 -1.37776 0.765217 0
M  V30 4453 C 397.356 -2.04651 0.336537 0
M  V30 4454 C 397.781 -1.57337 -1.03086 0
M  V30 4455 O 397.139 -0.730621 -1.65927 0
M  V30 4456 C 397.187 -3.58577 0.381468 0
M  V30 4457 O 396.291 -4.07706 -0.62042 0
M  V30 4458 H 395.632 -0.64756 0.146838 0
M  V30 4459 H 398.162 -1.76221 1.03959 0
M  V30 4460 H 398.172 -4.07314 0.236448 0
M  V30 4461 H 396.847 -3.9237 1.37907 0
M  V30 4462 H 395.424 -3.70306 -0.439056 0
M  V30 4463 N 397.609 -0.515225 -1.4894 0
M  V30 4464 C 398.556 0.255567 -2.29381 0
M  V30 4465 C 399.526 0.947387 -1.36432 0
M  V30 4466 O 400.711 0.951288 -1.65394 0
M  V30 4467 C 397.851 1.30551 -3.19453 0
M  V30 4468 C 396.964 0.624029 -4.27469 0
M  V30 4469 C 396.099 1.65563 -5.0474 0
M  V30 4470 C 395.138 0.956802 -6.04576 0
M  V30 4471 N 394.275 1.93326 -6.74959 0
M  V30 4472 H 399.115 -0.436607 -2.94784 0
M  V30 4473 H 396.652 -0.227154 -1.45336 0
M  V30 4474 H 398.61 1.92639 -3.70062 0
M  V30 4475 H 397.24 1.96626 -2.56004 0
M  V30 4476 H 396.292 -0.110459 -3.8024 0
M  V30 4477 H 397.604 0.0746092 -4.98744 0
M  V30 4478 H 396.758 2.35119 -5.59289 0
M  V30 4479 H 395.497 2.23893 -4.3327 0
M  V30 4480 H 394.502 0.247097 -5.49244 0
M  V30 4481 H 395.727 0.379814 -6.78037 0
M  V30 4482 H 393.673 2.50591 -6.06251 0
M  V30 4483 H 393.59 1.43489 -7.42258 0
M  V30 4484 H 394.858 2.62126 -7.34105 0
M  V30 4485 N 399.087 1.5561 -0.249682 0
M  V30 4486 C 399.997 2.25143 0.659375 0
M  V30 4487 C 401.013 1.2685 1.19101 0
M  V30 4488 O 402.189 1.59732 1.22669 0
M  V30 4489 C 399.254 2.93945 1.8384 0
M  V30 4490 C 398.315 4.07655 1.34596 0
M  V30 4491 C 397.548 4.73167 2.46878 0
M  V30 4492 O 397.771 4.37768 3.65671 0
M  V30 4493 O 396.705 5.61623 2.16478 0
M  V30 4494 H 400.531 3.03545 0.0968698 0
M  V30 4495 H 398.116 1.49389 -0.018074 0
M  V30 4496 H 399.998 3.37271 2.52638 0
M  V30 4497 H 398.673 2.18481 2.38847 0
M  V30 4498 H 397.58 3.68839 0.625174 0
M  V30 4499 H 398.913 4.84946 0.841941 0
M  V30 4500 N 400.565 -0.0233959 1.57583 0
M  V30 4501 C 401.814 -0.712133 1.8871 0
M  V30 4502 C 402.127 -1.76217 0.848944 0
M  V30 4503 O 403.333 -2.50389 1.04964 0
M  V30 4504 C 401.789 -1.3177 3.3491 0
M  V30 4505 C 401.397 -0.303715 4.46969 0
M  V30 4506 C 403.141 -1.98598 3.75179 0
M  V30 4507 C 401.048 -0.917945 5.84233 0
M  V30 4508 H 399.978 -0.269735 0.704101 0
M  V30 4509 H 402.629 0.0333114 1.8347 0
M  V30 4510 H 401.011 -2.11304 3.34913 0
M  V30 4511 H 402.185 0.465325 4.58445 0
M  V30 4512 H 400.5 0.2628 4.1557 0
M  V30 4513 H 403.097 -2.45416 4.75053 0
M  V30 4514 H 403.44 -2.80659 3.07468 0
M  V30 4515 H 403.973 -1.25831 3.77374 0
M  V30 4516 H 400.712 -0.136633 6.55358 0
M  V30 4517 H 400.232 -1.65669 5.76467 0
M  V30 4518 H 401.911 -1.4236 6.31144 0
M  V30 4519 N 402.043 -1.548 -0.295768 0
M  V30 4520 C 402.973 -1.89115 -1.36959 0
M  V30 4521 C 403.954 -0.75059 -1.52644 0
M  V30 4522 O 405.139 -1.00678 -1.66065 0
M  V30 4523 C 402.269 -2.14307 -2.73295 0
M  V30 4524 C 401.223 -3.30151 -2.72368 0
M  V30 4525 C 400.549 -3.40772 -4.12042 0
M  V30 4526 C 401.849 -4.67126 -2.33646 0
M  V30 4527 H 403.543 -2.79053 -1.08488 0
M  V30 4528 H 401.089 -1.34266 -0.520443 0
M  V30 4529 H 403.042 -2.36898 -3.48507 0
M  V30 4530 H 401.766 -1.21145 -3.03301 0
M  V30 4531 H 400.425 -3.0749 -1.99613 0
M  V30 4532 H 400.073 -2.45117 -4.39234 0
M  V30 4533 H 399.773 -4.18645 -4.12322 0
M  V30 4534 H 401.297 -3.6563 -4.89027 0
M  V30 4535 H 402.711 -4.89414 -2.98575 0
M  V30 4536 H 401.108 -5.47751 -2.45129 0
M  V30 4537 H 402.178 -4.67489 -1.28772 0
M  V30 4538 N 403.521 0.559213 -1.47345 0
M  V30 4539 C 404.937 0.884943 -1.32819 0
M  V30 4540 C 405.137 1.98988 -0.317173 0
M  V30 4541 O 404.193 2.51031 0.272011 0
M  V30 4542 C 405.506 1.28007 -2.72093 0
M  V30 4543 C 407.054 1.39161 -2.80363 0
M  V30 4544 C 407.529 1.82031 -4.20272 0
M  V30 4545 N 409.02 1.89185 -4.22804 0
M  V30 4546 C 409.755 2.2368 -5.27973 0
M  V30 4547 N 409.251 2.56802 -6.43447 0
M  V30 4548 N 411.044 2.24436 -5.15349 0
M  V30 4549 H 403.195 -0.170304 -2.11716 0
M  V30 4550 H 405.458 -0.0135247 -0.947904 0
M  V30 4551 H 405.164 0.542027 -3.47498 0
M  V30 4552 H 405.038 2.23665 -3.03733 0
M  V30 4553 H 407.425 2.12048 -2.05231 0
M  V30 4554 H 407.506 0.41696 -2.52379 0
M  V30 4555 H 407.15 1.09715 -4.95908 0
M  V30 4556 H 407.08 2.80495 -4.45679 0
M  V30 4557 H 409.571 1.65982 -3.39497 0
M  V30 4558 H 409.884 2.82144 -7.19454 0
M  V30 4559 H 408.229 2.54387 -6.46771 0
M  V30 4560 H 411.42 1.97998 -4.24163 0
M  V30 4561 H 411.593 2.50989 -5.97418 0
M  V30 4562 N 404.999 1.35443 0.805782 0
M  V30 4563 C 406.229 1.31687 1.59192 0
M  V30 4564 C 406.637 -0.10756 1.88894 0
M  V30 4565 O 405.98 -1.07017 1.49309 0
M  V30 4566 C 406.042 2.05686 2.94845 0
M  V30 4567 C 405.706 3.54868 2.87954 0
M  V30 4568 C 406.703 4.49444 2.61335 0
M  V30 4569 C 404.388 3.97528 3.07046 0
M  V30 4570 C 406.382 5.84655 2.53885 0
M  V30 4571 C 404.069 5.32833 2.99219 0
M  V30 4572 C 405.067 6.26209 2.72674 0
M  V30 4573 O 404.755 7.59032 2.64811 0
M  V30 4574 H 404.487 0.453878 0.50097 0
M  V30 4575 H 407.041 1.78892 1.0093 0
M  V30 4576 H 405.271 1.5312 3.55093 0
M  V30 4577 H 406.96 1.94998 3.55993 0
M  V30 4578 H 407.726 4.17804 2.46303 0
M  V30 4579 H 403.605 3.25233 3.26718 0
M  V30 4580 H 407.149 6.57508 2.33086 0
M  V30 4581 H 403.046 5.64087 3.13809 0
M  V30 4582 H 403.814 7.68967 2.80413 0
M  V30 4583 N 406.477 -1.02803 1.19454 0
M  V30 4584 C 407.41 -2.107 0.876396 0
M  V30 4585 C 408.388 -1.61741 -0.166897 0
M  V30 4586 O 409.572 -1.88451 -0.0430195 0
M  V30 4587 C 406.699 -3.37262 0.311758 0
M  V30 4588 C 405.745 -4.05093 1.33424 0
M  V30 4589 S 406.578 -4.50498 2.89503 0
M  V30 4590 C 407.734 -5.80277 2.34584 0
M  V30 4591 H 407.967 -2.37362 1.79016 0
M  V30 4592 H 405.5 -1.15755 1.02177 0
M  V30 4593 H 407.458 -4.10499 -0.00748752 0
M  V30 4594 H 406.119 -3.08693 -0.58032 0
M  V30 4595 H 405.312 -4.9611 0.888302 0
M  V30 4596 H 404.914 -3.3803 1.60037 0
M  V30 4597 H 407.206 -6.54873 1.73633 0
M  V30 4598 H 408.149 -6.29651 3.23952 0
M  V30 4599 H 408.557 -5.3599 1.77131 0
M  V30 4600 N 407.956 -0.998596 -1.21925 0
M  V30 4601 C 408.903 -0.553621 -2.24062 0
M  V30 4602 C 409.873 0.416999 -1.6078 0
M  V30 4603 O 411.058 0.320482 -1.88089 0
M  V30 4604 C 408.198 0.119959 -3.44891 0
M  V30 4605 C 407.311 -0.893077 -4.22668 0
M  V30 4606 C 406.446 -0.192424 -5.30851 0
M  V30 4607 C 405.485 -1.19344 -6.00353 0
M  V30 4608 N 404.622 -0.520707 -7.00166 0
M  V30 4609 H 409.462 -1.4293 -2.61486 0
M  V30 4610 H 406.999 -0.715838 -1.28507 0
M  V30 4611 H 408.957 0.527459 -4.13852 0
M  V30 4612 H 407.587 0.959389 -3.08214 0
M  V30 4613 H 406.639 -1.41886 -3.52948 0
M  V30 4614 H 407.951 -1.65512 -4.70539 0
M  V30 4615 H 407.105 0.271515 -6.06092 0
M  V30 4616 H 405.844 0.602075 -4.83969 0
M  V30 4617 H 404.849 -1.66795 -5.23889 0
M  V30 4618 H 406.074 -1.98891 -6.49322 0
M  V30 4619 H 404.02 0.254252 -6.55507 0
M  V30 4620 H 403.937 -1.2211 -7.46073 0
M  V30 4621 H 405.205 -0.0797596 -7.79459 0
M  V30 4622 N 409.434 1.37368 -0.772513 0
M  V30 4623 C 410.344 2.34053 -0.160081 0
M  V30 4624 C 411.36 1.60216 0.678728 0
M  V30 4625 O 412.536 1.92303 0.59847 0
M  V30 4626 C 409.601 3.3939 0.708182 0
M  V30 4627 C 408.662 4.29048 -0.147172 0
M  V30 4628 C 407.895 5.29354 0.679744 0
M  V30 4629 O 408.118 5.3723 1.91678 0
M  V30 4630 O 407.052 6.01835 0.0885444 0
M  V30 4631 H 410.878 2.88159 -0.959053 0
M  V30 4632 H 408.463 1.39543 -0.533685 0
M  V30 4633 H 410.345 4.03839 1.20384 0
M  V30 4634 H 409.02 2.8761 1.48533 0
M  V30 4635 H 407.927 3.67697 -0.689205 0
M  V30 4636 H 409.26 4.84134 -0.887423 0
M  V30 4637 N 410.912 0.523116 1.48665 0
M  V30 4638 C 412.159 -0.0134763 2.02496 0
M  V30 4639 C 412.487 -1.3493 1.40086 0
M  V30 4640 O 411.742 -1.88286 0.533567 0
M  V30 4641 C 412.041 -0.191671 3.56886 0
M  V30 4642 C 411.707 1.06893 4.38046 0
M  V30 4643 C 410.369 1.41443 4.59943 0
M  V30 4644 C 412.721 1.90584 4.85106 0
M  V30 4645 C 410.049 2.59594 5.26144 0
M  V30 4646 C 412.401 3.07907 5.52609 0
M  V30 4647 C 411.065 3.42811 5.72745 0
M  V30 4648 H 410.335 -0.00493133 0.740984 0
M  V30 4649 H 412.982 0.687751 1.78724 0
M  V30 4650 H 411.287 -0.97561 3.79459 0
M  V30 4651 H 412.984 -0.621659 3.96152 0
M  V30 4652 H 409.574 0.789848 4.21259 0
M  V30 4653 H 413.758 1.65203 4.67997 0
M  V30 4654 H 409.014 2.86847 5.39934 0
M  V30 4655 H 413.188 3.73066 5.88043 0
M  V30 4656 H 410.815 4.34462 6.23816 0
M  V30 4657 N 412.39 -1.55475 0.257931 0
M  V30 4658 C 413.618 -2.03609 -0.367559 0
M  V30 4659 C 414.033 -1.13687 -1.50734 0
M  V30 4660 O 413.39 -0.153479 -1.81853 0
M  V30 4661 C 413.441 -3.51001 -0.864908 0
M  V30 4662 O 413.162 -4.37499 0.229465 0
M  V30 4663 C 414.663 -4.14946 -1.55997 0
M  V30 4664 H 411.883 -0.665459 -0.0860521 0
M  V30 4665 H 414.427 -2.00843 0.385014 0
M  V30 4666 H 412.582 -3.54266 -1.56762 0
M  V30 4667 H 412.996 -5.24286 -0.14998 0
M  V30 4668 H 414.47 -5.19735 -1.85956 0
M  V30 4669 H 414.947 -3.6209 -2.4857 0
M  V30 4670 H 415.553 -4.15635 -0.901543 0
M  V30 4671 N 413.868 0.0150385 -1.57593 0
M  V30 4672 C 414.798 1.01047 -2.10503 0
M  V30 4673 C 415.779 1.36816 -1.01071 0
M  V30 4674 O 416.964 1.45455 -1.28672 0
M  V30 4675 C 414.094 2.30708 -2.59598 0
M  V30 4676 C 413.048 2.09142 -3.73421 0
M  V30 4677 C 412.374 3.44685 -4.08774 0
M  V30 4678 C 413.674 1.46619 -5.01298 0
M  V30 4679 H 415.368 0.569978 -2.93925 0
M  V30 4680 H 412.914 0.272724 -1.41394 0
M  V30 4681 H 414.867 3.00687 -2.95238 0
M  V30 4682 H 413.591 2.76843 -1.73279 0
M  V30 4683 H 412.25 1.41592 -3.38153 0
M  V30 4684 H 411.898 3.88495 -3.195 0
M  V30 4685 H 411.598 3.31077 -4.8545 0
M  V30 4686 H 413.122 4.16004 -4.4696 0
M  V30 4687 H 414.536 2.06535 -5.34805 0
M  V30 4688 H 412.933 1.43544 -5.82679 0
M  V30 4689 H 414.003 0.433611 -4.82957 0
M  V30 4690 N 415.346 1.54954 0.287554 0
M  V30 4691 C 416.276 1.89839 1.35954 0
M  V30 4692 C 417.257 0.758675 1.52244 0
M  V30 4693 O 418.442 1.01557 1.65529 0
M  V30 4694 C 415.572 2.15753 2.72154 0
M  V30 4695 C 414.526 3.3159 2.70614 0
M  V30 4696 C 413.852 3.42952 4.10229 0
M  V30 4697 C 415.152 4.68359 2.31165 0
M  V30 4698 H 416.846 2.79625 1.07007 0
M  V30 4699 H 414.392 1.3454 0.513316 0
M  V30 4700 H 416.345 2.38743 3.47246 0
M  V30 4701 H 415.069 1.22752 3.02654 0
M  V30 4702 H 413.728 3.08545 1.97979 0
M  V30 4703 H 413.376 2.47443 4.37928 0
M  V30 4704 H 413.076 4.20826 4.10097 0
M  V30 4705 H 414.6 3.68218 4.87081 0
M  V30 4706 H 416.014 4.9099 2.95976 0
M  V30 4707 H 414.411 5.49044 2.42221 0
M  V30 4708 H 415.481 4.68165 1.26291 0
M  V30 4709 N 416.824 -0.551391 1.4764 0
M  V30 4710 C 417.754 -1.66757 1.63445 0
M  V30 4711 C 418.735 -1.63077 0.483742 0
M  V30 4712 O 419.92 -1.80607 0.71377 0
M  V30 4713 C 417.05 -3.05387 1.65396 0
M  V30 4714 C 416.004 -3.23918 2.79752 0
M  V30 4715 C 415.33 -4.63393 2.66779 0
M  V30 4716 C 416.63 -3.08735 4.21284 0
M  V30 4717 H 418.324 -1.53786 2.56886 0
M  V30 4718 H 415.87 -0.738415 1.23626 0
M  V30 4719 H 417.823 -3.83325 1.75043 0
M  V30 4720 H 416.547 -3.19332 0.685195 0
M  V30 4721 H 415.206 -2.48391 2.69625 0
M  V30 4722 H 414.854 -4.74144 1.67918 0
M  V30 4723 H 414.554 -4.7674 3.43501 0
M  V30 4724 H 416.078 -5.43458 2.78364 0
M  V30 4725 H 417.492 -3.76484 4.32357 0
M  V30 4726 H 415.889 -3.33588 4.98838 0
M  V30 4727 H 416.959 -2.0541 4.39243 0
M  V30 4728 N 418.302 -1.35869 -0.798587 0
M  V30 4729 C 419.527 -1.32883 -1.59238 0
M  V30 4730 C 419.952 0.0894587 -1.87887 0
M  V30 4731 O 419.31 1.05869 -1.47178 0
M  V30 4732 C 419.358 -2.14892 -2.89575 0
M  V30 4733 O 418.462 -1.53512 -3.82763 0
M  V30 4734 H 417.803 -0.455236 -0.48338 0
M  V30 4735 H 420.333 -1.79024 -0.990539 0
M  V30 4736 H 420.343 -2.27139 -3.38928 0
M  V30 4737 H 419.018 -3.17998 -2.68049 0
M  V30 4738 H 417.595 -1.50153 -3.41334 0
M  V30 4739 N 419.78 1.02168 -1.19998 0
M  V30 4740 C 420.743 2.08765 -0.94604 0
M  V30 4741 C 421.743 1.60618 0.0763846 0
M  V30 4742 O 422.933 1.73472 -0.159135 0
M  V30 4743 C 420.065 3.38262 -0.423255 0
M  V30 4744 H 421.258 2.32726 -1.89153 0
M  V30 4745 H 418.811 1.1889 -1.01464 0
M  V30 4746 H 419.546 3.19974 0.527938 0
M  V30 4747 H 419.331 3.74532 -1.16053 0
M  V30 4748 H 420.821 4.16759 -0.264911 0
M  V30 4749 N 421.258 1.00505 1.21394 0
M  V30 4750 C 422.221 0.570459 2.21987 0
M  V30 4751 C 423.221 -0.353211 1.56873 0
M  V30 4752 O 424.411 -0.14349 1.73608 0
M  V30 4753 C 421.543 -0.168555 3.40483 0
M  V30 4754 H 422.736 1.46021 2.6195 0
M  V30 4755 H 420.289 0.793565 1.34656 0
M  V30 4756 H 421.024 -1.07374 3.06009 0
M  V30 4757 H 420.809 0.494823 3.88965 0
M  V30 4758 H 422.299 -0.460362 4.15055 0
M  V30 4759 N 422.737 -1.36956 0.779787 0
M  V30 4760 C 423.685 -2.32053 0.15942 0
M  V30 4761 C 424.679 -1.55333 -0.675878 0
M  V30 4762 O 425.885 -1.70668 -0.57204 0
M  V30 4763 H 422.26 -0.751286 0.0327707 0
M  V30 4764 H 424.231 -2.8195 0.977078 0
M  V30 4765 C 422.98 -3.40602 -0.698977 0
M  V30 4766 H 422.303 -3.99746 -0.0655966 0
M  V30 4767 H 423.743 -4.09486 -1.09989 0
M  V30 4768 C 422.202 -2.81359 -1.85307 0
M  V30 4769 O 422.732 -2.72751 -2.94906 0
M  V30 4770 N 420.938 -2.38786 -1.65619 0
M  V30 4771 H 420.485 -2.45987 -0.764725 0
M  V30 4772 H 420.443 -1.99493 -2.43002 0
M  V30 4773 N 424.215 -0.530993 -1.48385 0
M  V30 4774 C 425.461 0.00274135 -2.028 0
M  V30 4775 C 425.794 1.33838 -1.40716 0
M  V30 4776 O 425.069 1.86465 -0.553277 0
M  V30 4777 C 425.352 0.123676 -3.59888 0
M  V30 4778 C 425.205 -1.2372 -4.3245 0
M  V30 4779 C 426.524 0.849967 -4.31814 0
M  V30 4780 H 423.643 -0.000477758 -0.737 0
M  V30 4781 H 426.285 -0.688217 -1.77098 0
M  V30 4782 H 424.435 0.712157 -3.81917 0
M  V30 4783 H 426.107 -1.86687 -4.21836 0
M  V30 4784 H 424.35 -1.81882 -3.93829 0
M  V30 4785 H 425.021 -1.10557 -5.40815 0
M  V30 4786 H 427.497 0.350572 -4.14621 0
M  V30 4787 H 426.373 0.903486 -5.41413 0
M  V30 4788 H 426.634 1.90047 -3.99167 0
M  V30 4789 N 425.693 1.55336 -0.266172 0
M  V30 4790 C 426.933 2.01303 0.354459 0
M  V30 4791 C 427.297 1.15046 1.53715 0
M  V30 4792 O 428.498 1.50554 2.22681 0
M  V30 4793 C 426.769 3.49748 0.735579 0
M  V30 4794 S 428.328 4.1771 1.34401 0
M  V30 4795 H 425.146 0.702333 0.110674 0
M  V30 4796 H 427.748 1.91653 -0.385916 0
M  V30 4797 H 426.452 4.10181 -0.134196 0
M  V30 4798 H 425.983 3.63364 1.50764 0
M  V30 4799 H 427.998 4.20594 2.63278 0
M  V30 4800 N 427.171 -0.0066808 1.57599 0
M  V30 4801 C 428.101 -0.999296 2.11036 0
M  V30 4802 C 429.082 -1.36278 1.01795 0
M  V30 4803 O 430.267 -1.4477 1.29442 0
M  V30 4804 C 427.397 -2.29328 2.60818 0
M  V30 4805 C 426.351 -2.07159 3.74525 0
M  V30 4806 C 425.677 -3.42512 4.10596 0
M  V30 4807 C 426.977 -1.43959 5.02069 0
M  V30 4808 H 428.671 -0.554382 2.94223 0
M  V30 4809 H 426.217 -0.265221 1.41536 0
M  V30 4810 H 428.17 -2.99117 2.96828 0
M  V30 4811 H 426.894 -2.7592 1.74745 0
M  V30 4812 H 425.553 -1.39797 3.38899 0
M  V30 4813 H 425.201 -3.86795 3.21556 0
M  V30 4814 H 424.901 -3.28498 4.87199 0
M  V30 4815 H 426.425 -4.13628 4.4916 0
M  V30 4816 H 427.839 -2.03696 5.35893 0
M  V30 4817 H 426.236 -1.40452 5.83432 0
M  V30 4818 H 427.306 -0.407992 4.83181 0
M  V30 4819 N 428.649 -1.55105 -0.279332 0
M  V30 4820 C 429.926 -1.66119 -1.03267 0
M  V30 4821 C 430.306 -0.523525 -2.04505 0
M  V30 4822 O 429.654 0.477194 -2.23462 0
M  V30 4823 C 429.864 -3.05067 -1.69515 0
M  V30 4824 C 431.212 -3.62606 -2.20912 0
M  V30 4825 O 432.236 -3.07659 -1.79512 0
M  V30 4826 O 431.095 -4.58861 -2.96831 0
M  V30 4827 H 428.189 -0.674429 -0.478618 0
M  V30 4828 H 430.735 -1.67446 -0.275694 0
M  V30 4829 H 429.507 -3.79311 -0.9612 0
M  V30 4830 H 429.13 -3.07611 -2.51915 0
M  V30 4831 N 430.127 0.543554 -1.4793 0
M  V30 4832 C 431.538 1.12561 -1.48953 0
M  V30 4833 C 431.889 1.94578 -0.251754 0
M  V30 4834 O 431.014 2.0665 0.642255 0
M  V30 4835 C 431.609 2.04801 -2.69892 0
M  V30 4836 C 430.168 2.58251 -2.73831 0
M  V30 4837 C 429.315 1.34918 -2.42265 0
M  V30 4838 H 432.266 0.32947 -1.55242 0
M  V30 4839 H 432.287 2.88886 -2.47639 0
M  V30 4840 H 431.799 1.4508 -3.59963 0
M  V30 4841 H 429.9 3.21732 -1.87934 0
M  V30 4842 H 430.013 2.98312 -3.74895 0
M  V30 4843 H 428.377 1.66046 -1.93134 0
M  V30 4844 H 429.16 0.769693 -3.3456 0
M  V30 4845 N 431.605 1.3629 0.791371 0
M  V30 4846 C 432.854 1.29742 1.54434 0
M  V30 4847 C 433.167 -0.121729 1.95221 0
M  V30 4848 O 434.373 -0.309579 2.69729 0
M  V30 4849 C 432.829 2.27623 2.78776 0
M  V30 4850 C 432.437 3.74963 2.45166 0
M  V30 4851 C 434.181 2.30047 3.56761 0
M  V30 4852 C 432.088 4.64626 3.65891 0
M  V30 4853 H 431.018 0.482113 0.579727 0
M  V30 4854 H 433.669 1.61642 0.868565 0
M  V30 4855 H 432.051 1.88714 3.48142 0
M  V30 4856 H 433.225 4.22596 1.83709 0
M  V30 4857 H 431.54 3.75295 1.80396 0
M  V30 4858 H 434.137 2.94247 4.46456 0
M  V30 4859 H 434.48 1.30846 3.95203 0
M  V30 4860 H 435.013 2.67563 2.94372 0
M  V30 4861 H 431.752 5.64883 3.32547 0
M  V30 4862 H 431.272 4.2171 4.26521 0
M  V30 4863 H 432.951 4.80801 4.32943 0
M  V30 4864 N 433.083 -1.0153 1.20538 0
M  V30 4865 C 434.332 -1.74558 1.01057 0
M  V30 4866 C 434.645 -1.90168 -0.457756 0
M  V30 4867 O 435.851 -2.60301 -0.771722 0
M  V30 4868 C 434.307 -3.13963 1.75941 0
M  V30 4869 C 433.915 -3.06361 3.26875 0
M  V30 4870 C 435.659 -3.91191 1.64832 0
M  V30 4871 C 433.566 -4.40782 3.94291 0
M  V30 4872 H 432.496 -0.654417 0.374505 0
M  V30 4873 H 435.147 -1.13521 1.44171 0
M  V30 4874 H 433.529 -3.75549 1.25614 0
M  V30 4875 H 434.703 -2.54074 3.84425 0
M  V30 4876 H 433.018 -2.42625 3.38411 0
M  V30 4877 H 435.615 -4.90644 2.12539 0
M  V30 4878 H 435.958 -4.11884 0.604745 0
M  V30 4879 H 436.491 -3.36236 2.12579 0
M  V30 4880 H 433.23 -4.25292 4.98805 0
M  V30 4881 H 432.75 -4.9307 3.41529 0
M  V30 4882 H 434.429 -5.09621 3.98617 0
M  V30 4883 N 434.561 -1.01147 -1.20859 0
M  V30 4884 C 435.791 -0.715872 -1.93801 0
M  V30 4885 C 436.199 0.726592 -1.74692 0
M  V30 4886 O 435.542 1.50397 -1.05482 0
M  V30 4887 C 435.604 -0.965269 -3.46299 0
M  V30 4888 C 435.268 -2.39584 -3.89164 0
M  V30 4889 C 436.265 -3.3764 -3.95342 0
M  V30 4890 C 433.95 -2.73522 -4.21297 0
M  V30 4891 C 435.944 -4.67698 -4.33056 0
M  V30 4892 C 433.631 -4.03794 -4.58687 0
M  V30 4893 C 434.629 -5.00693 -4.64538 0
M  V30 4894 O 434.317 -6.28635 -5.01072 0
M  V30 4895 H 434.049 -0.262524 -0.622942 0
M  V30 4896 H 436.603 -1.35413 -1.54443 0
M  V30 4897 H 434.833 -0.269847 -3.85757 0
M  V30 4898 H 436.522 -0.662051 -4.00464 0
M  V30 4899 H 437.288 -3.12757 -3.70686 0
M  V30 4900 H 433.167 -1.9879 -4.15937 0
M  V30 4901 H 436.711 -5.4333 -4.37537 0
M  V30 4902 H 432.608 -4.28459 -4.82797 0
M  V30 4903 H 433.376 -6.32847 -5.19083 0
M  V30 4904 N 436.039 1.36541 -0.78704 0
M  V30 4905 C 437.286 1.99304 -0.358341 0
M  V30 4906 C 437.614 1.62467 1.06933 0
M  V30 4907 O 436.869 0.870019 1.75297 0
M  V30 4908 C 437.168 3.54343 -0.466485 0
M  V30 4909 C 436.834 4.10993 -1.85461 0
M  V30 4910 C 435.496 4.26177 -2.23443 0
M  V30 4911 C 437.848 4.41895 -2.76366 0
M  V30 4912 C 435.176 4.69573 -3.51736 0
M  V30 4913 C 437.528 4.86722 -4.04084 0
M  V30 4914 C 436.192 5.00112 -4.42091 0
M  V30 4915 H 435.462 0.729306 -0.131126 0
M  V30 4916 H 438.109 1.63068 -1.00404 0
M  V30 4917 H 436.414 3.90918 0.262719 0
M  V30 4918 H 438.111 4.00833 -0.115854 0
M  V30 4919 H 434.701 3.99612 -1.54946 0
M  V30 4920 H 438.885 4.29735 -2.48277 0
M  V30 4921 H 434.141 4.78127 -3.81057 0
M  V30 4922 H 438.315 5.09598 -4.7464 0
M  V30 4923 H 435.942 5.33498 -5.41557 0
M  V30 4924 N 437.518 0.538854 1.48102 0
M  V30 4925 C 438.765 0.0080018 2.02498 0
M  V30 4926 C 439.093 -1.33437 1.41509 0
M  V30 4927 O 438.348 -1.87709 0.553507 0
M  V30 4928 C 438.647 -0.153808 3.57069 0
M  V30 4929 C 438.313 1.11533 4.36888 0
M  V30 4930 C 436.975 1.46314 4.58417 0
M  V30 4931 C 439.327 1.95718 4.83057 0
M  V30 4932 C 436.655 2.6516 5.23361 0
M  V30 4933 C 439.007 3.13751 5.49312 0
M  V30 4934 C 437.671 3.48866 5.69077 0
M  V30 4935 H 436.941 0.00292807 0.740994 0
M  V30 4936 H 439.588 0.706668 1.77984 0
M  V30 4937 H 437.893 -0.935309 3.80472 0
M  V30 4938 H 439.59 -0.579607 3.96789 0
M  V30 4939 H 436.18 0.834484 4.20398 0
M  V30 4940 H 440.364 1.70158 4.66219 0
M  V30 4941 H 435.62 2.92558 5.36861 0
M  V30 4942 H 439.794 3.79282 5.84053 0
M  V30 4943 H 437.421 4.41054 6.19173 0
M  V30 4944 N 438.996 -1.55193 0.274407 0
M  V30 4945 C 439.926 -2.25471 -0.607032 0
M  V30 4946 C 440.907 -1.24461 -1.15946 0
M  V30 4947 O 442.092 -1.53179 -1.19373 0
M  V30 4948 C 439.222 -2.97526 -1.79153 0
M  V30 4949 C 438.176 -4.05459 -1.37067 0
M  V30 4950 C 437.502 -4.65084 -2.6382 0
M  V30 4951 C 438.802 -5.19691 -0.521389 0
M  V30 4952 H 440.496 -2.99393 -0.0209343 0
M  V30 4953 H 438.042 -1.43997 -0.00862866 0
M  V30 4954 H 439.995 -3.45402 -2.41404 0
M  V30 4955 H 438.719 -2.21138 -2.40344 0
M  V30 4956 H 437.378 -3.58393 -0.771355 0
M  V30 4957 H 437.026 -3.85365 -3.23268 0
M  V30 4958 H 436.726 -5.37961 -2.36372 0
M  V30 4959 H 438.25 -5.15708 -3.26921 0
M  V30 4960 H 439.664 -5.63623 -1.04889 0
M  V30 4961 H 438.061 -5.99126 -0.341825 0
M  V30 4962 H 439.131 -4.82713 0.46 0
M  V30 4963 N 440.474 -0.00167713 -1.576 0
M  V30 4964 C 441.714 0.687302 -1.92498 0
M  V30 4965 C 442.078 1.70844 -0.876144 0
M  V30 4966 O 443.279 2.44792 -1.11043 0
M  V30 4967 C 441.55 1.31217 -3.32441 0
M  V30 4968 S 443.109 2.02604 -3.89226 0
M  V30 4969 H 439.927 0.226985 -0.673794 0
M  V30 4970 H 442.529 -0.0587666 -1.95412 0
M  V30 4971 H 441.233 0.556164 -4.06614 0
M  V30 4972 H 440.764 2.09613 -3.32905 0
M  V30 4973 H 442.779 3.30137 -3.70438 0
M  V30 4974 N 441.952 1.55251 0.271103 0
M  V30 4975 C 442.884 1.84675 1.35749 0
M  V30 4976 C 443.897 0.731366 1.45447 0
M  V30 4977 O 445.086 1.00924 1.4723 0
M  V30 4978 C 442.186 1.99638 2.73857 0
M  V30 4979 C 441.359 3.30312 2.86727 0
M  V30 4980 C 440.418 3.35318 4.05522 0
M  V30 4981 O 439.444 4.08682 3.96191 0
M  V30 4982 N 440.646 2.62857 5.17577 0
M  V30 4983 H 443.411 2.78445 1.10853 0
M  V30 4984 H 440.972 1.55191 0.461218 0
M  V30 4985 H 442.964 2.00355 3.51625 0
M  V30 4986 H 441.534 1.12725 2.91568 0
M  V30 4987 H 440.754 3.42118 1.95829 0
M  V30 4988 H 442.042 4.16488 2.92258 0
M  V30 4989 H 441.44 2.02939 5.28046 0
M  V30 4990 H 439.997 2.69295 5.93568 0
M  V30 4991 N 443.43 -0.535701 1.48216 0
M  V30 4992 C 444.841 -1.11769 1.49548 0
M  V30 4993 C 445.192 -1.94442 0.26207 0
M  V30 4994 O 444.317 -2.06987 -0.631287 0
M  V30 4995 C 444.912 -2.03367 2.70975 0
M  V30 4996 C 443.471 -2.56795 2.75196 0
M  V30 4997 C 442.618 -1.33631 2.42977 0
M  V30 4998 H 445.569 -0.321232 1.55415 0
M  V30 4999 H 445.59 -2.87569 2.49167 0
M  V30 5000 H 445.102 -1.43169 3.60727 0
M  V30 5001 H 443.203 -3.20731 1.89638 0
M  V30 5002 H 443.316 -2.9632 3.76472 0
M  V30 5003 H 441.68 -1.6502 1.94012 0
M  V30 5004 H 442.463 -0.75194 3.34964 0
M  V30 5005 N 444.908 -1.36708 -0.784132 0
M  V30 5006 C 446.155 -1.31231 -1.54222 0
M  V30 5007 C 446.483 0.106864 -1.94206 0
M  V30 5008 O 445.738 1.07734 -1.63376 0
M  V30 5009 C 446.037 -2.18571 -2.82774 0
M  V30 5010 C 445.703 -3.67039 -2.61903 0
M  V30 5011 C 444.365 -4.07503 -2.55919 0
M  V30 5012 C 446.717 -4.61149 -2.4288 0
M  V30 5013 C 444.045 -5.40211 -2.28886 0
M  V30 5014 C 446.397 -5.94081 -2.17373 0
M  V30 5015 C 445.061 -6.33664 -2.09825 0
M  V30 5016 H 444.331 -0.48021 -0.56434 0
M  V30 5017 H 446.978 -1.68807 -0.904233 0
M  V30 5018 H 445.283 -1.73949 -3.51068 0
M  V30 5019 H 446.98 -2.11655 -3.40592 0
M  V30 5020 H 443.57 -3.34941 -2.67418 0
M  V30 5021 H 447.754 -4.30756 -2.46501 0
M  V30 5022 H 443.01 -5.69855 -2.21529 0
M  V30 5023 H 447.184 -6.66566 -2.01649 0
M  V30 5024 H 444.811 -7.36423 -1.88641 0
M  V30 5025 N 446.386 1.0089 -1.21074 0
M  V30 5026 C 447.802 1.2695 -0.967257 0
M  V30 5027 C 448.002 1.9846 0.348673 0
M  V30 5028 O 447.058 2.28459 1.0753 0
M  V30 5029 C 448.371 2.09697 -2.15517 0
M  V30 5030 C 449.919 2.22937 -2.197 0
M  V30 5031 C 450.394 3.09064 -3.37999 0
M  V30 5032 N 451.885 3.16653 -3.38061 0
M  V30 5033 C 452.62 3.8354 -4.26245 0
M  V30 5034 N 452.116 4.52488 -5.2462 0
M  V30 5035 N 453.909 3.80141 -4.14064 0
M  V30 5036 H 446.06 0.529005 -2.05707 0
M  V30 5037 H 448.323 0.296148 -0.900556 0
M  V30 5038 H 448.029 1.64497 -3.10859 0
M  V30 5039 H 447.903 3.10444 -2.14253 0
M  V30 5040 H 450.29 2.67357 -1.24916 0
M  V30 5041 H 450.371 1.21673 -2.2501 0
M  V30 5042 H 450.015 2.65347 -4.33074 0
M  V30 5043 H 449.945 4.10433 -3.29928 0
M  V30 5044 H 452.436 2.67566 -2.66865 0
M  V30 5045 H 452.749 5.01219 -5.88217 0
M  V30 5046 H 451.094 4.51288 -5.28549 0
M  V30 5047 H 454.285 3.25427 -3.36474 0
M  V30 5048 H 454.458 4.31992 -4.82998 0
M  V30 5049 N 447.864 1.01787 1.20321 0
M  V30 5050 C 448.774 0.598898 2.26827 0
M  V30 5051 C 449.79 -0.36418 1.70146 0
M  V30 5052 O 450.966 -0.224812 2.00141 0
M  V30 5053 C 448.031 -0.0549769 3.46656 0
M  V30 5054 C 447.092 0.954205 4.18561 0
M  V30 5055 C 446.325 0.331439 5.3267 0
M  V30 5056 O 446.548 -0.86851 5.63749 0
M  V30 5057 O 445.482 1.0488 5.92692 0
M  V30 5058 H 449.308 1.48562 2.64883 0
M  V30 5059 H 446.893 0.787434 1.26964 0
M  V30 5060 H 448.775 -0.420102 4.19301 0
M  V30 5061 H 447.45 -0.915876 3.10473 0
M  V30 5062 H 446.357 1.37072 3.48083 0
M  V30 5063 H 447.69 1.78511 4.58688 0
M  V30 5064 N 449.342 -1.36122 0.79427 0
M  V30 5065 C 450.591 -1.98361 0.365464 0
M  V30 5066 C 450.904 -1.6374 -1.06997 0
M  V30 5067 O 452.11 -2.19251 -1.60129 0
M  V30 5068 C 450.566 -3.54821 0.602496 0
M  V30 5069 C 450.174 -3.98362 2.04967 0
M  V30 5070 C 451.918 -4.2383 0.238437 0
M  V30 5071 C 449.825 -5.47619 2.2331 0
M  V30 5072 H 448.755 -0.742193 0.13291 0
M  V30 5073 H 451.406 -1.55354 0.976589 0
M  V30 5074 H 449.788 -3.95922 -0.078409 0
M  V30 5075 H 450.962 -3.68447 2.76737 0
M  V30 5076 H 449.277 -3.42206 2.37243 0
M  V30 5077 H 451.874 -5.33529 0.353705 0
M  V30 5078 H 452.217 -4.08264 -0.814006 0
M  V30 5079 H 452.75 -3.88108 0.872769 0
M  V30 5080 H 449.489 -5.68138 3.26955 0
M  V30 5081 H 449.009 -5.79145 1.5605 0
M  V30 5082 H 450.688 -6.13911 2.0426 0
M  V30 5083 N 450.82 -0.546701 -1.47814 0
M  V30 5084 C 451.75 0.195317 -2.32682 0
M  V30 5085 C 452.731 0.918981 -1.43139 0
M  V30 5086 O 453.916 0.901501 -1.72008 0
M  V30 5087 C 451.046 1.23237 -3.247 0
M  V30 5088 C 450 0.625818 -4.234 0
M  V30 5089 C 449.326 1.76674 -5.04669 0
M  V30 5090 C 450.626 -0.413515 -5.2066 0
M  V30 5091 H 452.32 -0.513184 -2.94969 0
M  V30 5092 H 449.866 -0.248241 -1.41844 0
M  V30 5093 H 451.819 1.75955 -3.82907 0
M  V30 5094 H 450.543 1.97067 -2.60446 0
M  V30 5095 H 449.202 0.120023 -3.66403 0
M  V30 5096 H 448.85 2.49383 -4.36826 0
M  V30 5097 H 448.55 1.36673 -5.71484 0
M  V30 5098 H 450.074 2.29738 -5.65732 0
M  V30 5099 H 451.488 0.0272042 -5.73294 0
M  V30 5100 H 449.885 -0.731825 -5.95621 0
M  V30 5101 H 450.955 -1.31325 -4.66778 0
M  V30 5102 N 452.299 1.55045 -0.282633 0
M  V30 5103 C 453.539 2.01668 0.333088 0
M  V30 5104 C 453.903 1.1667 1.52486 0
M  V30 5105 O 455.104 1.52907 2.21072 0
M  V30 5106 C 453.375 3.50509 0.698442 0
M  V30 5107 S 454.934 4.19112 1.29963 0
M  V30 5108 H 451.752 0.703468 0.103219 0
M  V30 5109 H 454.354 1.91233 -0.406222 0
M  V30 5110 H 453.058 4.10015 -0.177693 0
M  V30 5111 H 452.589 3.64943 1.46902 0
M  V30 5112 H 454.604 4.23362 2.58803 0
M  V30 5113 N 453.777 0.010035 1.57597 0
M  V30 5114 C 454.724 -0.978122 2.09049 0
M  V30 5115 C 455.694 -1.33509 0.988159 0
M  V30 5116 O 456.879 -1.43172 1.26121 0
M  V30 5117 C 454.019 -2.26158 2.60666 0
M  V30 5118 C 453.132 -1.96275 3.84838 0
M  V30 5119 C 452.267 -3.18776 4.24918 0
M  V30 5120 C 451.306 -2.84625 5.41899 0
M  V30 5121 N 450.443 -3.99693 5.77226 0
M  V30 5122 H 455.283 -0.532431 2.93205 0
M  V30 5123 H 452.82 -0.251234 1.44939 0
M  V30 5124 H 454.778 -3.01202 2.88675 0
M  V30 5125 H 453.408 -2.68378 1.79369 0
M  V30 5126 H 452.46 -1.11555 3.63675 0
M  V30 5127 H 453.772 -1.67111 4.69974 0
M  V30 5128 H 452.926 -4.02157 4.54262 0
M  V30 5129 H 451.665 -3.51087 3.38511 0
M  V30 5130 H 450.67 -1.99653 5.12268 0
M  V30 5131 H 451.895 -2.53551 6.29991 0
M  V30 5132 H 449.841 -4.31882 4.93776 0
M  V30 5133 H 449.758 -3.74087 6.56959 0
M  V30 5134 H 451.026 -4.83834 6.11167 0
M  V30 5135 N 455.255 -1.55392 -0.262866 0
M  V30 5136 C 456.202 -1.88966 -1.32516 0
M  V30 5137 C 457.172 -0.742187 -1.48596 0
M  V30 5138 O 458.357 -0.99439 -1.62839 0
M  V30 5139 C 455.497 -2.17592 -2.67858 0
M  V30 5140 C 454.61 -3.45061 -2.59917 0
M  V30 5141 C 453.745 -3.63336 -3.87505 0
M  V30 5142 C 452.784 -4.84462 -3.74116 0
M  V30 5143 N 451.921 -4.99342 -4.93561 0
M  V30 5144 H 456.761 -2.79566 -1.03184 0
M  V30 5145 H 454.298 -1.38404 -0.498285 0
M  V30 5146 H 456.256 -2.3219 -3.46617 0
M  V30 5147 H 454.886 -1.30215 -2.95371 0
M  V30 5148 H 453.938 -3.38881 -1.72812 0
M  V30 5149 H 455.25 -4.3396 -2.45926 0
M  V30 5150 H 454.404 -3.77807 -4.74707 0
M  V30 5151 H 453.143 -2.72641 -4.04374 0
M  V30 5152 H 452.148 -4.69985 -2.85297 0
M  V30 5153 H 453.373 -5.76603 -3.58757 0
M  V30 5154 H 451.319 -4.1158 -5.10821 0
M  V30 5155 H 451.236 -5.82303 -4.82141 0
M  V30 5156 H 452.504 -5.18208 -5.82306 0
M  V30 5157 N 456.733 0.527833 -1.48498 0
M  V30 5158 C 457.663 1.64136 -1.66077 0
M  V30 5159 C 458.644 1.62286 -0.509625 0
M  V30 5160 O 459.829 1.79449 -0.742413 0
M  V30 5161 C 456.959 3.02717 -1.70234 0
M  V30 5162 C 455.913 3.19426 -2.8487 0
M  V30 5163 C 455.239 4.5909 -2.74118 0
M  V30 5164 C 456.539 3.01993 -4.26142 0
M  V30 5165 H 458.233 1.4968 -2.593 0
M  V30 5166 H 455.779 0.718654 -1.24785 0
M  V30 5167 H 457.732 3.80491 -1.8112 0
M  V30 5168 H 456.456 3.18201 -0.735911 0
M  V30 5169 H 455.115 2.4407 -2.73542 0
M  V30 5170 H 454.763 4.71413 -1.7544 0
M  V30 5171 H 454.463 4.71214 -3.51042 0
M  V30 5172 H 455.987 5.3896 -2.86974 0
M  V30 5173 H 457.401 3.69558 -4.38292 0
M  V30 5174 H 455.798 3.2561 -5.04082 0
M  V30 5175 H 456.868 1.98396 -4.42456 0
M  V30 5176 N 458.211 1.37122 0.776871 0
M  V30 5177 C 459.161 1.28989 1.88005 0
M  V30 5178 C 460.145 0.178765 1.59904 0
M  V30 5179 O 461.337 0.412705 1.72121 0
M  V30 5180 C 458.466 1.09402 3.25402 0
M  V30 5181 C 457.552 2.25036 3.59471 0
M  V30 5182 N 457.943 3.50407 3.64759 0
M  V30 5183 C 456.241 2.17078 3.89607 0
M  V30 5184 C 456.942 4.26628 3.95428 0
M  V30 5185 N 455.918 3.55709 4.11062 0
M  V30 5186 H 459.72 2.2394 1.90337 0
M  V30 5187 H 457.234 1.30021 0.973052 0
M  V30 5188 H 459.231 1.01661 4.04315 0
M  V30 5189 H 457.891 0.153632 3.24336 0
M  V30 5190 H 458.902 3.8438 3.47091 0
M  V30 5191 H 455.579 1.31067 3.96393 0
M  V30 5192 H 456.969 5.35107 4.06338 0
M  V30 5193 N 459.689 -1.00246 1.21608 0
M  V30 5194 C 460.938 -1.73476 1.02902 0
M  V30 5195 C 461.251 -1.90643 -0.437561 0
M  V30 5196 O 462.457 -2.61105 -0.74407 0
M  V30 5197 C 460.913 -3.12079 1.79261 0
M  V30 5198 C 460.521 -3.02877 3.30106 0
M  V30 5199 C 462.265 -3.89421 1.68972 0
M  V30 5200 C 460.172 -4.36575 3.98944 0
M  V30 5201 H 459.102 -0.650408 0.381425 0
M  V30 5202 H 461.753 -1.11985 1.45367 0
M  V30 5203 H 460.135 -3.74196 1.2959 0
M  V30 5204 H 461.309 -2.49983 3.87098 0
M  V30 5205 H 459.624 -2.39022 3.40965 0
M  V30 5206 H 462.221 -4.88362 2.17731 0
M  V30 5207 H 462.564 -4.1122 0.648397 0
M  V30 5208 H 463.097 -3.33963 2.16133 0
M  V30 5209 H 459.836 -4.19978 5.03288 0
M  V30 5210 H 459.356 -4.8942 3.4674 0
M  V30 5211 H 461.035 -5.05364 4.04 0
M  V30 5212 N 461.167 -1.02423 -1.1978 0
M  V30 5213 C 462.578 -0.748389 -1.71044 0
M  V30 5214 C 462.929 0.732398 -1.82017 0
M  V30 5215 O 462.054 1.57116 -1.48807 0
M  V30 5216 C 462.649 -1.35187 -3.1066 0
M  V30 5217 C 461.208 -1.12472 -3.59203 0
M  V30 5218 C 460.355 -1.45283 -2.36195 0
M  V30 5219 H 463.306 -1.19275 -1.04686 0
M  V30 5220 H 463.327 -0.746408 -3.73107 0
M  V30 5221 H 462.839 -2.4296 -3.02642 0
M  V30 5222 H 460.94 -0.0649983 -3.72543 0
M  V30 5223 H 461.053 -1.81016 -4.43588 0
M  V30 5224 H 459.417 -0.872034 -2.39307 0
M  V30 5225 H 460.2 -2.54129 -2.30811 0
M  V30 5226 N 462.645 1.35699 -0.801477 0
M  V30 5227 C 463.575 2.32436 -0.222658 0
M  V30 5228 C 464.556 1.5723 0.649057 0
M  V30 5229 O 465.741 1.85324 0.580387 0
M  V30 5230 C 462.871 3.41469 0.633719 0
M  V30 5231 C 461.825 4.27774 -0.139083 0
M  V30 5232 C 461.151 5.28082 0.838666 0
M  V30 5233 C 462.451 5.04946 -1.33517 0
M  V30 5234 H 464.145 2.81094 -1.03086 0
M  V30 5235 H 461.691 1.35146 -0.497155 0
M  V30 5236 H 463.644 4.08143 1.04868 0
M  V30 5237 H 462.368 2.91408 1.47475 0
M  V30 5238 H 461.027 3.62673 -0.535156 0
M  V30 5239 H 460.675 4.7429 1.67506 0
M  V30 5240 H 460.375 5.86695 0.32594 0
M  V30 5241 H 461.899 5.97628 1.25194 0
M  V30 5242 H 463.313 5.64593 -0.995349 0
M  V30 5243 H 461.71 5.7303 -1.78202 0
M  V30 5244 H 462.78 4.35886 -2.12442 0
M  V30 5245 N 464.123 0.554532 1.47522 0
M  V30 5246 C 465.07 -0.19466 2.29978 0
M  V30 5247 C 466.04 -0.910882 1.38896 0
M  V30 5248 O 467.225 -0.907102 1.67858 0
M  V30 5249 C 464.365 -1.22035 3.22802 0
M  V30 5250 C 463.478 -0.510474 4.28973 0
M  V30 5251 C 462.613 -1.52123 5.08952 0
M  V30 5252 C 461.652 -0.796173 6.069 0
M  V30 5253 N 460.789 -1.75363 6.79847 0
M  V30 5254 H 465.629 0.51461 2.93523 0
M  V30 5255 H 463.166 0.265607 1.44682 0
M  V30 5256 H 465.124 -1.8276 3.7504 0
M  V30 5257 H 463.754 -1.89769 2.61127 0
M  V30 5258 H 462.806 0.211234 3.79813 0
M  V30 5259 H 464.118 0.0576503 4.98767 0
M  V30 5260 H 463.272 -2.20207 5.65326 0
M  V30 5261 H 462.011 -2.12327 4.39054 0
M  V30 5262 H 461.016 -0.101388 5.49707 0
M  V30 5263 H 462.241 -0.199911 6.78806 0
M  V30 5264 H 460.187 -2.3443 6.12682 0
M  V30 5265 H 460.104 -1.23759 7.45801 0
M  V30 5266 H 461.372 -2.4257 7.40797 0
M  V30 5267 N 465.601 -1.54893 0.290851 0
M  V30 5268 C 466.564 -2.21824 -0.576784 0
M  V30 5269 C 467.564 -1.20104 -1.06919 0
M  V30 5270 O 468.754 -1.44906 -0.966843 0
M  V30 5271 C 465.886 -2.89662 -1.79747 0
M  V30 5272 H 467.079 -2.99899 0.00784051 0
M  V30 5273 H 464.632 -1.56245 0.0415934 0
M  V30 5274 H 465.367 -2.15639 -2.42219 0
M  V30 5275 H 465.152 -3.64219 -1.45214 0
M  V30 5276 H 466.642 -3.4075 -2.4141 0
M  V30 5277 N 467.08 -0.0183926 -1.57589 0
M  V30 5278 C 468.012 0.995557 -2.06449 0
M  V30 5279 C 469.025 1.29556 -0.985849 0
M  V30 5280 O 470.214 1.2621 -1.26227 0
M  V30 5281 C 467.314 2.32572 -2.46502 0
M  V30 5282 C 466.487 2.21245 -3.77319 0
M  V30 5283 C 465.546 3.37104 -4.04039 0
M  V30 5284 O 464.572 3.14468 -4.74445 0
M  V30 5285 N 465.774 4.60553 -3.53372 0
M  V30 5286 H 468.539 0.578746 -2.94059 0
M  V30 5287 H 466.1 0.168603 -1.6102 0
M  V30 5288 H 468.092 3.08887 -2.61478 0
M  V30 5289 H 466.662 2.65931 -1.64315 0
M  V30 5290 H 465.882 1.29723 -3.72244 0
M  V30 5291 H 467.17 2.10868 -4.63047 0
M  V30 5292 H 466.568 4.81839 -2.96391 0
M  V30 5293 H 465.125 5.34072 -3.73644 0
M  V30 5294 N 468.558 1.5553 0.254621 0
M  V30 5295 C 469.506 1.9048 1.33492 0
M  V30 5296 C 470.5 0.78304 1.50216 0
M  V30 5297 O 471.706 0.967582 1.51782 0
M  V30 5298 H 468.081 0.604846 0.44684 0
M  V30 5299 H 470.052 2.80688 1.01275 0
M  V30 5300 C 468.801 2.20928 2.68489 0
M  V30 5301 H 468.124 3.06742 2.56417 0
M  V30 5302 H 469.564 2.49291 3.42972 0
M  V30 5303 C 468.023 1.023 3.20993 0
M  V30 5304 O 468.553 0.267027 4.00811 0
M  V30 5305 N 466.759 0.815714 2.78917 0
M  V30 5306 H 466.306 1.43217 2.14119 0
M  V30 5307 H 466.264 0.0236532 3.14391 0
M  V30 5308 N 470.036 -0.519951 1.48776 0
M  V30 5309 C 471.313 -1.28123 1.47797 0
M  V30 5310 C 471.693 -2.10196 0.195157 0
M  V30 5311 O 471.041 -2.13167 -0.822925 0
M  V30 5312 C 471.251 -2.15413 2.74587 0
M  V30 5313 C 472.599 -2.75225 3.23321 0
M  V30 5314 O 473.623 -2.25694 2.75574 0
M  V30 5315 O 472.482 -3.65346 4.06429 0
M  V30 5316 H 469.576 -0.578793 0.590701 0
M  V30 5317 H 472.122 -0.535779 1.6102 0
M  V30 5318 H 470.894 -1.54617 3.59457 0
M  V30 5319 H 470.517 -2.97186 2.64132 0
M  V30 5320 N 471.514 -1.37532 -0.769588 0
M  V30 5321 C 472.444 -1.36172 -1.89682 0
M  V30 5322 C 473.425 -0.23001 -1.68538 0
M  V30 5323 O 474.61 -0.43069 -1.89364 0
M  V30 5324 C 471.74 -1.1701 -3.26995 0
M  V30 5325 C 470.694 -2.27216 -3.62708 0
M  V30 5326 C 470.02 -1.93174 -4.98586 0
M  V30 5327 C 471.32 -3.6941 -3.69234 0
M  V30 5328 H 473.014 -2.30499 -1.91078 0
M  V30 5329 H 470.56 -1.10953 -0.917902 0
M  V30 5330 H 472.513 -1.14688 -4.05493 0
M  V30 5331 H 471.237 -0.191395 -3.26039 0
M  V30 5332 H 469.896 -2.28697 -2.86519 0
M  V30 5333 H 469.544 -0.938281 -4.94171 0
M  V30 5334 H 469.244 -2.66973 -5.23449 0
M  V30 5335 H 470.768 -1.92443 -5.79481 0
M  V30 5336 H 472.182 -3.70047 -4.37879 0
M  V30 5337 H 470.579 -4.4228 -4.05597 0
M  V30 5338 H 471.649 -4.0288 -2.69844 0
M  V30 5339 N 472.992 0.995999 -1.22138 0
M  V30 5340 C 474.269 1.70834 -0.952642 0
M  V30 5341 C 474.649 2.04257 0.533119 0
M  V30 5342 O 473.997 1.72343 1.50034 0
M  V30 5343 C 474.207 2.96119 -1.84701 0
M  V30 5344 C 475.555 3.68962 -2.10124 0
M  V30 5345 O 476.579 3.0612 -1.82124 0
M  V30 5346 O 475.438 4.82017 -2.57531 0
M  V30 5347 H 472.532 0.745498 -0.357997 0
M  V30 5348 H 475.078 1.05262 -1.33109 0
M  V30 5349 H 473.85 2.67898 -2.85213 0
M  V30 5350 H 473.473 3.6943 -1.46995 0
M  V30 5351 N 474.47 1.03057 1.19235 0
M  V30 5352 C 475.719 0.72326 1.88287 0
M  V30 5353 C 476.032 -0.751333 1.80594 0
M  V30 5354 O 477.238 -1.17176 2.44912 0
M  V30 5355 C 475.694 1.24338 3.3774 0
M  V30 5356 C 475.302 2.74587 3.53986 0
M  V30 5357 C 477.046 1.01213 4.12257 0
M  V30 5358 C 474.953 3.20009 4.97341 0
M  V30 5359 H 473.883 0.266848 0.705201 0
M  V30 5360 H 476.534 1.24509 1.34795 0
M  V30 5361 H 474.916 0.649457 3.90638 0
M  V30 5362 H 476.09 3.39649 3.11408 0
M  V30 5363 H 474.405 2.9601 2.9286 0
M  V30 5364 H 477.002 1.32675 5.17978 0
M  V30 5365 H 477.345 -0.051001 4.16269 0
M  V30 5366 H 477.878 1.57014 3.65501 0
M  V30 5367 H 474.617 4.25659 4.98493 0
M  V30 5368 H 474.137 2.59676 5.40674 0
M  V30 5369 H 475.816 3.13447 5.66003 0
M  V30 5370 N 475.948 -1.35272 0.808662 0
M  V30 5371 C 477.173 -2.03477 0.401475 0
M  V30 5372 C 477.598 -1.60537 -0.980279 0
M  V30 5373 O 476.956 -0.78304 -1.63518 0
M  V30 5374 C 477.004 -3.57181 0.495354 0
M  V30 5375 O 476.108 -4.09474 -0.490397 0
M  V30 5376 H 475.449 -0.642561 0.167366 0
M  V30 5377 H 477.979 -1.72824 1.09512 0
M  V30 5378 H 477.989 -4.06356 0.365912 0
M  V30 5379 H 476.664 -3.87784 1.5032 0
M  V30 5380 H 475.241 -3.71516 -0.321023 0
M  V30 5381 N 477.426 -0.562348 -1.47226 0
M  V30 5382 C 478.842 -0.222492 -1.58042 0
M  V30 5383 C 479.042 1.27505 -1.56028 0
M  V30 5384 O 478.098 2.05555 -1.46641 0
M  V30 5385 C 479.411 -0.853694 -2.88327 0
M  V30 5386 C 480.959 -0.825397 -3.01921 0
M  V30 5387 C 481.434 -1.43576 -4.34914 0
M  V30 5388 N 482.925 -1.39918 -4.41562 0
M  V30 5389 C 483.66 -1.84103 -5.43041 0
M  V30 5390 N 483.156 -2.36167 -6.51304 0
M  V30 5391 N 484.949 -1.75142 -5.34118 0
M  V30 5392 H 477.1 -1.53525 -1.46778 0
M  V30 5393 H 479.363 -0.640527 -0.698877 0
M  V30 5394 H 479.069 -1.90635 -2.95552 0
M  V30 5395 H 478.943 -0.34977 -3.75575 0
M  V30 5396 H 481.33 0.218583 -2.94289 0
M  V30 5397 H 481.411 -1.36713 -2.16202 0
M  V30 5398 H 481.055 -2.47884 -4.43301 0
M  V30 5399 H 480.985 -0.869427 -5.19373 0
M  V30 5400 H 483.476 -1.0184 -3.63919 0
M  V30 5401 H 483.789 -2.67793 -7.24919 0
M  V30 5402 H 482.134 -2.40181 -6.52179 0
M  V30 5403 H 485.325 -1.34241 -4.48439 0
M  V30 5404 H 485.498 -2.09895 -6.13065 0
M  V30 5405 N 478.904 1.54736 -0.299062 0
M  V30 5406 C 480.153 1.99279 0.311549 0
M  V30 5407 C 480.466 1.19107 1.55154 0
M  V30 5408 O 481.672 1.53908 2.23662 0
M  V30 5409 C 480.128 3.54768 0.605632 0
M  V30 5410 C 479.736 4.43746 -0.615914 0
M  V30 5411 C 481.48 4.07841 1.17754 0
M  V30 5412 C 479.387 5.90663 -0.29509 0
M  V30 5413 H 478.317 0.744359 0.120187 0
M  V30 5414 H 480.968 1.78919 -0.407464 0
M  V30 5415 H 479.35 3.71021 1.38419 0
M  V30 5416 H 480.524 4.39267 -1.39218 0
M  V30 5417 H 478.839 4.01434 -1.10633 0
M  V30 5418 H 481.436 5.15174 1.43179 0
M  V30 5419 H 481.779 3.58324 2.11918 0
M  V30 5420 H 482.312 3.95123 0.460739 0
M  V30 5421 H 479.051 6.44325 -1.20524 0
M  V30 5422 H 478.571 5.98155 0.44394 0
M  V30 5423 H 480.25 6.46916 0.104048 0
M  V30 5424 N 480.382 0.0267497 1.57577 0
M  V30 5425 C 481.329 -0.955894 2.10075 0
M  V30 5426 C 482.299 -1.32453 1.00226 0
M  V30 5427 O 483.484 -1.41826 1.27632 0
M  V30 5428 C 480.624 -2.2338 2.6305 0
M  V30 5429 C 479.737 -1.92183 3.86898 0
M  V30 5430 C 478.872 -3.14251 4.28275 0
M  V30 5431 C 477.911 -2.78862 5.44888 0
M  V30 5432 N 477.048 -3.93548 5.81433 0
M  V30 5433 H 481.888 -0.501303 2.93753 0
M  V30 5434 H 479.425 -0.235847 1.45197 0
M  V30 5435 H 481.383 -2.98124 2.91853 0
M  V30 5436 H 480.013 -2.6646 1.82205 0
M  V30 5437 H 479.065 -1.07692 3.64838 0
M  V30 5438 H 480.377 -1.62117 4.7172 0
M  V30 5439 H 479.531 -3.97317 4.58502 0
M  V30 5440 H 478.27 -3.47476 3.42215 0
M  V30 5441 H 477.275 -1.94208 5.14357 0
M  V30 5442 H 478.5 -2.46855 6.32645 0
M  V30 5443 H 476.446 -4.2662 4.98328 0
M  V30 5444 H 476.363 -3.67098 6.6089 0
M  V30 5445 H 477.631 -4.77325 6.16264 0
M  V30 5446 N 481.861 -1.55662 -0.24637 0
M  V30 5447 C 483.277 -1.48098 -0.594907 0
M  V30 5448 C 483.477 -0.717044 -1.8831 0
M  V30 5449 O 482.533 -0.246618 -2.51293 0
M  V30 5450 C 483.846 -2.92507 -0.697146 0
M  V30 5451 C 485.394 -3.02881 -0.789436 0
M  V30 5452 C 485.869 -4.48598 -0.923232 0
M  V30 5453 N 487.36 -4.52538 -0.988088 0
M  V30 5454 C 488.095 -5.62536 -1.11089 0
M  V30 5455 N 487.591 -6.82342 -1.19919 0
M  V30 5456 N 489.384 -5.50334 -1.14408 0
M  V30 5457 H 481.535 -2.0377 0.599278 0
M  V30 5458 H 483.798 -0.925145 0.20691 0
M  V30 5459 H 483.504 -3.51242 0.179396 0
M  V30 5460 H 483.378 -3.43024 -1.5689 0
M  V30 5461 H 485.765 -2.44226 -1.65643 0
M  V30 5462 H 485.846 -2.55574 0.107482 0
M  V30 5463 H 485.49 -5.07864 -0.0607927 0
M  V30 5464 H 485.42 -4.93587 -1.8352 0
M  V30 5465 H 487.911 -3.66248 -0.931167 0
M  V30 5466 H 488.224 -7.61924 -1.29197 0
M  V30 5467 H 486.569 -6.85102 -1.16876 0
M  V30 5468 H 489.76 -4.5567 -1.07158 0
M  V30 5469 H 489.933 -6.36096 -1.23634 0
M  V30 5470 N 483.339 0.512053 -1.4905 0
M  V30 5471 C 484.587 1.26436 -1.57665 0
M  V30 5472 C 484.908 1.93255 -0.260293 0
M  V30 5473 O 484.178 1.82206 0.719564 0
M  V30 5474 H 482.758 0.469658 -0.580888 0
M  V30 5475 H 485.42 0.594398 -1.85615 0
M  V30 5476 H 484.516 2.03417 -2.36702 0
M  V30 5477 N 484.817 1.37938 0.762283 0
M  V30 5478 C 485.765 1.34569 1.89721 0
M  V30 5479 C 486.759 0.232929 1.67791 0
M  V30 5480 O 487.965 0.401485 1.75465 0
M  V30 5481 H 484.34 0.419594 0.624055 0
M  V30 5482 H 486.311 2.30357 1.8968 0
M  V30 5483 C 485.06 1.17898 3.27101 0
M  V30 5484 H 484.383 2.02781 3.44558 0
M  V30 5485 H 485.823 1.19593 4.06784 0
M  V30 5486 C 484.282 -0.114728 3.36705 0
M  V30 5487 O 484.812 -1.0949 3.8649 0
M  V30 5488 N 483.018 -0.16863 2.9011 0
M  V30 5489 H 482.565 0.62967 2.49786 0
M  V30 5490 H 482.523 -1.03383 2.96916 0
M  V30 5491 N 486.295 -0.989507 1.22664 0
M  V30 5492 C 487.523 -1.76496 1.07967 0
M  V30 5493 C 487.938 -1.85148 -0.369543 0
M  V30 5494 O 487.295 -1.32408 -1.25596 0
M  V30 5495 C 487.346 -3.19642 1.68853 0
M  V30 5496 O 487.067 -3.11453 3.08105 0
M  V30 5497 C 488.568 -4.13621 1.59475 0
M  V30 5498 H 485.788 -0.55418 0.378319 0
M  V30 5499 H 488.332 -1.24378 1.62328 0
M  V30 5500 H 486.487 -3.68816 1.18547 0
M  V30 5501 H 486.901 -4.01499 3.37489 0
M  V30 5502 H 488.375 -5.11801 2.06795 0
M  V30 5503 H 488.852 -4.35718 0.55191 0
M  V30 5504 H 489.458 -3.70346 2.09103 0
M  V30 5505 N 487.773 -1.03688 -1.18687 0
M  V30 5506 C 489.001 -0.757918 -1.92518 0
M  V30 5507 C 489.416 0.684398 -1.75959 0
M  V30 5508 O 488.773 1.46617 -1.08673 0
M  V30 5509 C 488.824 -1.10985 -3.44042 0
M  V30 5510 O 488.545 -2.49554 -3.60076 0
M  V30 5511 C 490.046 -0.854844 -4.3498 0
M  V30 5512 H 487.266 -0.276699 -0.611293 0
M  V30 5513 H 489.81 -1.38352 -1.50595 0
M  V30 5514 H 487.965 -0.529279 -3.83767 0
M  V30 5515 H 488.379 -2.6291 -4.53849 0
M  V30 5516 H 489.853 -1.15098 -5.39867 0
M  V30 5517 H 490.33 0.210507 -4.38695 0
M  V30 5518 H 490.936 -1.41853 -4.00946 0
M  V30 5519 N 489.251 1.34841 -0.815825 0
M  V30 5520 C 490.181 2.32187 -0.247298 0
M  V30 5521 C 491.162 1.5791 0.632344 0
M  V30 5522 O 492.347 1.8593 0.560698 0
M  V30 5523 C 489.477 3.42122 0.597466 0
M  V30 5524 C 488.431 4.27602 -0.184446 0
M  V30 5525 C 487.757 5.28942 0.782609 0
M  V30 5526 C 489.057 5.03502 -1.38865 0
M  V30 5527 H 490.751 2.79985 -1.06061 0
M  V30 5528 H 488.297 1.34611 -0.511461 0
M  V30 5529 H 490.25 4.09232 1.00533 0
M  V30 5530 H 488.974 2.92956 1.44376 0
M  V30 5531 H 487.633 3.62085 -0.573592 0
M  V30 5532 H 487.281 4.7604 1.62466 0
M  V30 5533 H 486.981 5.87008 0.263695 0
M  V30 5534 H 488.505 5.98922 1.18848 0
M  V30 5535 H 489.919 5.63506 -1.05518 0
M  V30 5536 H 488.316 5.71108 -1.8427 0
M  V30 5537 H 489.386 4.33608 -2.17054 0
M  V30 5538 N 490.729 0.570148 1.46925 0
M  V30 5539 C 491.639 -0.173061 2.33961 0
M  V30 5540 C 492.655 -0.898825 1.48987 0
M  V30 5541 O 493.831 -0.864825 1.81887 0
M  V30 5542 C 490.896 -1.18177 3.25937 0
M  V30 5543 C 489.957 -0.462041 4.26806 0
M  V30 5544 C 489.19 -1.4227 5.14388 0
M  V30 5545 O 489.413 -2.65842 5.04662 0
M  V30 5546 O 488.347 -0.940127 5.94513 0
M  V30 5547 H 492.173 0.541216 2.98839 0
M  V30 5548 H 489.758 0.330647 1.45695 0
M  V30 5549 H 491.64 -1.76372 3.82715 0
M  V30 5550 H 490.315 -1.87774 2.63671 0
M  V30 5551 H 489.222 0.161429 3.73752 0
M  V30 5552 H 490.555 0.192719 4.91823 0
M  V30 5553 N 492.207 -1.54576 0.307264 0
M  V30 5554 C 493.432 -2.05139 -0.305379 0
M  V30 5555 C 493.857 -1.18278 -1.46259 0
M  V30 5556 O 493.215 -0.188243 -1.8032 0
M  V30 5557 C 493.263 -3.53066 -0.733283 0
M  V30 5558 O 492.367 -3.69206 -1.83741 0
M  V30 5559 H 491.708 -0.661444 -0.0582105 0
M  V30 5560 H 494.238 -1.99569 0.450931 0
M  V30 5561 H 494.248 -3.95034 -1.02039 0
M  V30 5562 H 492.923 -4.15746 0.113198 0
M  V30 5563 H 491.5 -3.39143 -1.55037 0
M  V30 5564 N 493.685 -0.035106 -1.57561 0
M  V30 5565 C 494.913 0.652258 -1.9635 0
M  V30 5566 C 495.328 1.65317 -0.911897 0
M  V30 5567 O 494.685 1.82194 0.105657 0
M  V30 5568 C 494.736 1.35337 -3.35211 0
M  V30 5569 O 494.457 0.392548 -4.36338 0
M  V30 5570 C 495.958 2.13199 -3.88666 0
M  V30 5571 H 493.178 0.179444 -0.646561 0
M  V30 5572 H 495.722 -0.0966459 -2.04271 0
M  V30 5573 H 493.877 2.05362 -3.28489 0
M  V30 5574 H 494.291 0.891097 -5.16875 0
M  V30 5575 H 495.765 2.577 -4.88154 0
M  V30 5576 H 496.242 2.97353 -3.23231 0
M  V30 5577 H 496.848 1.48118 -3.98674 0
M  V30 5578 N 495.163 1.55791 0.238111 0
M  V30 5579 C 496.44 1.68798 0.98826 0
M  V30 5580 C 496.82 0.577562 2.03045 0
M  V30 5581 O 496.168 -0.41778 2.24648 0
M  V30 5582 C 496.378 3.09454 1.61367 0
M  V30 5583 C 497.726 3.68335 2.11221 0
M  V30 5584 O 498.75 3.1231 1.71292 0
M  V30 5585 O 497.609 4.6657 2.84561 0
M  V30 5586 H 494.703 0.686881 0.460568 0
M  V30 5587 H 497.249 1.68118 0.231202 0
M  V30 5588 H 496.021 3.81726 0.860295 0
M  V30 5589 H 495.644 3.14182 2.4367 0
M  V30 5590 N 496.642 -0.504142 1.49319 0
M  V30 5591 C 497.87 -1.28256 1.62351 0
M  V30 5592 C 498.285 -1.86502 0.293682 0
M  V30 5593 O 497.642 -1.67678 -0.720449 0
M  V30 5594 C 497.693 -2.41507 2.68992 0
M  V30 5595 O 497.414 -1.85656 3.96817 0
M  V30 5596 C 498.915 -3.32929 2.927 0
M  V30 5597 H 496.135 -0.389115 0.546654 0
M  V30 5598 H 498.679 -0.605531 1.95329 0
M  V30 5599 H 496.834 -3.05046 2.38801 0
M  V30 5600 H 497.248 -2.59981 4.55533 0
M  V30 5601 H 498.722 -4.0868 3.71058 0
M  V30 5602 H 499.199 -3.89733 2.02496 0
M  V30 5603 H 499.805 -2.75158 3.24296 0
M  V30 5604 N 498.12 -1.38341 -0.754957 0
M  V30 5605 C 499.05 -1.38176 -1.88227 0
M  V30 5606 C 500.031 -0.247873 -1.68284 0
M  V30 5607 O 501.216 -0.45075 -1.88896 0
M  V30 5608 C 498.346 -1.20471 -3.25736 0
M  V30 5609 C 497.3 -2.3105 -3.60278 0
M  V30 5610 C 496.626 -1.98452 -4.96509 0
M  V30 5611 C 497.926 -3.73305 -3.65295 0
M  V30 5612 H 499.62 -2.32512 -1.88622 0
M  V30 5613 H 497.166 -1.1192 -0.906082 0
M  V30 5614 H 499.119 -1.18982 -4.04254 0
M  V30 5615 H 497.843 -0.225965 -3.25817 0
M  V30 5616 H 496.502 -2.31723 -2.84078 0
M  V30 5617 H 496.15 -0.990641 -4.93148 0
M  V30 5618 H 495.85 -2.7251 -5.20588 0
M  V30 5619 H 497.374 -1.98578 -5.77407 0
M  V30 5620 H 498.788 -3.7467 -4.3393 0
M  V30 5621 H 497.185 -4.46557 -4.00883 0
M  V30 5622 H 498.255 -4.05719 -2.65556 0
M  V30 5623 O 499.637 0.895511 -1.34398 0
M  V30 5624 H 500.328 1.53136 -1.18614 0
M  V30 END ATOM
M  V30 BEGIN BOND
M  V30 END BOND
M  V30 END CTAB
M  END
$$$$
