drugbank_target|Q15393 Splicing factor 3B subunit 3 (DB04216)
 OpenBabel12092121063D

  0  0  0     0  0            999 V3000
M  V30 BEGIN CTAB
M  V30 COUNTS 18989 19186 0 0 0
M  V30 BEGIN ATOM
M  V30 1 H -0.908 1.98254 -0.117106 0
M  V30 2 N 0 1.576 0 0
M  V30 3 C 0.933 2.03868 1.02534 0
M  V30 4 C 1.911 0.928543 1.3348 0
M  V30 5 O 3.095 1.19667 1.45644 0
M  V30 6 C 0.222 2.43627 2.35294 0
M  V30 7 C -0.732 3.65373 2.2001 0
M  V30 8 S 0.101 5.13292 1.52614 0
M  V30 9 C 1.257 5.56322 2.86805 0
M  V30 10 H 1.49 2.90518 0.631377 0
M  V30 11 H -0.977 1.52953 0.210867 0
M  V30 12 H 0.981 2.67203 3.11629 0
M  V30 13 H -0.358 1.57376 2.7183 0
M  V30 14 H -1.165 3.90944 3.18086 0
M  V30 15 H -1.563 3.418 1.51819 0
M  V30 16 H 0.729 5.58782 3.83104 0
M  V30 17 H 1.672 6.56266 2.65933 0
M  V30 18 H 2.08 4.83886 2.90714 0
M  V30 19 N 1.4781 -0.272755 1.55222 0
M  V30 20 C 2.7251 -1.00433 1.7584 0
M  V30 21 C 3.0531 -1.86275 0.559629 0
M  V30 22 O 2.3081 -1.90269 -0.457857 0
M  V30 23 C 2.6071 -1.91642 3.01675 0
M  V30 24 C 2.2731 -1.21548 4.34208 0
M  V30 25 C 0.9351 -1.02166 4.70229 0
M  V30 26 C 3.2871 -0.716684 5.16249 0
M  V30 27 C 0.6151 -0.316334 5.85847 0
M  V30 28 C 2.9671 -0.0249476 6.32595 0
M  V30 29 C 1.6311 0.180579 6.67256 0
M  V30 30 H 0.9011 -0.367509 0.643443 0
M  V30 31 H 3.5481 -0.276596 1.89492 0
M  V30 32 H 1.8531 -2.71037 2.82924 0
M  V30 33 H 3.5501 -2.48369 3.14824 0
M  V30 34 H 0.1401 -1.37645 4.05896 0
M  V30 35 H 4.3241 -0.854047 4.88896 0
M  V30 36 H -0.4199 -0.146378 6.11225 0
M  V30 37 H 3.7541 0.369311 6.9542 0
M  V30 38 H 1.3811 0.729098 7.56696 0
M  V30 39 N 2.9562 -1.48159 -0.537278 0
M  V30 40 C 3.8862 -1.65029 -1.6519 0
M  V30 41 C 4.8672 -0.499281 -1.62607 0
M  V30 42 O 6.0522 -0.730972 -1.79918 0
M  V30 43 C 3.1822 -1.68303 -3.03795 0
M  V30 44 C 2.1362 -2.8283 -3.21234 0
M  V30 45 C 1.4622 -2.71189 -4.60826 0
M  V30 46 C 2.7622 -4.24211 -3.04701 0
M  V30 47 H 4.4562 -2.58341 -1.51328 0
M  V30 48 H 2.0022 -1.24325 -0.726585 0
M  V30 49 H 3.9552 -1.78693 -3.81637 0
M  V30 50 H 2.6792 -0.715635 -3.18663 0
M  V30 51 H 1.3382 -2.71983 -2.45807 0
M  V30 52 H 0.9862 -1.72435 -4.7252 0
M  V30 53 H 0.6862 -3.48035 -4.7344 0
M  V30 54 H 2.2102 -2.83537 -5.40777 0
M  V30 55 H 3.6242 -4.3593 -3.72341 0
M  V30 56 H 2.0212 -5.01998 -3.28813 0
M  V30 57 H 3.0912 -4.41184 -2.01209 0
M  V30 58 N 4.4343 0.785586 -1.36625 0
M  V30 59 C 5.6643 1.5722 -1.34036 0
M  V30 60 C 6.0723 1.89033 0.0795062 0
M  V30 61 O 5.4153 1.50881 1.04789 0
M  V30 62 C 5.4773 2.91759 -2.10041 0
M  V30 63 C 5.1413 2.82654 -3.59104 0
M  V30 64 C 6.1383 2.54634 -4.53274 0
M  V30 65 C 3.8233 3.01111 -4.02042 0
M  V30 66 C 5.8173 2.45177 -5.88359 0
M  V30 67 C 3.5043 2.91276 -5.37216 0
M  V30 68 C 4.5023 2.63348 -6.30188 0
M  V30 69 O 4.1903 2.53514 -7.6288 0
M  V30 70 H 3.9223 0.494177 -0.461265 0
M  V30 71 H 6.4763 0.982632 -1.8037 0
M  V30 72 H 4.7063 3.52781 -1.58375 0
M  V30 73 H 6.3953 3.53059 -2.00261 0
M  V30 74 H 7.1613 2.40073 -4.21414 0
M  V30 75 H 3.0403 3.21854 -3.30047 0
M  V30 76 H 6.5843 2.23299 -6.60896 0
M  V30 77 H 2.4813 3.054 -5.68684 0
M  V30 78 H 3.2493 2.68967 -7.73045 0
M  V30 79 N 5.9124 1.20967 1.01018 0
M  V30 80 C 6.8604 0.961223 2.1181 0
M  V30 81 C 7.8544 -0.0897034 1.69162 0
M  V30 82 O 9.0604 0.0612271 1.79896 0
M  V30 83 H 5.4354 0.29355 0.692338 0
M  V30 84 H 7.4064 1.90178 2.29946 0
M  V30 85 C 6.1554 0.536854 3.4353 0
M  V30 86 H 5.4784 1.33713 3.76777 0
M  V30 87 H 6.9184 0.402286 4.22087 0
M  V30 88 C 5.3774 -0.751574 3.2841 0
M  V30 89 O 5.9074 -1.80841 3.58691 0
M  V30 90 N 4.1134 -0.716079 2.81639 0
M  V30 91 H 3.6604 0.144236 2.57196 0
M  V30 92 H 3.6184 -1.57847 2.71904 0
M  V30 93 N 7.3905 -1.2043 1.01659 0
M  V30 94 C 8.3205 -2.25466 0.607226 0
M  V30 95 C 9.3015 -1.65853 -0.377716 0
M  V30 96 O 10.4865 -1.92409 -0.263149 0
M  V30 97 C 7.6165 -3.47256 -0.0552949 0
M  V30 98 C 6.5705 -4.19462 0.850632 0
M  V30 99 C 5.8965 -5.34673 0.0538859 0
M  V30 100 C 7.1965 -4.75603 2.15868 0
M  V30 101 H 8.8905 -2.59962 1.48526 0
M  V30 102 H 6.4365 -1.2496 0.715605 0
M  V30 103 H 8.3895 -4.19917 -0.353233 0
M  V30 104 H 7.1135 -3.11924 -0.968045 0
M  V30 105 H 5.7725 -3.48667 1.13257 0
M  V30 106 H 5.4205 -4.95585 -0.860514 0
M  V30 107 H 5.1205 -5.83913 0.657192 0
M  V30 108 H 6.6445 -6.10138 -0.237598 0
M  V30 109 H 8.0585 -5.40083 1.92311 0
M  V30 110 H 6.4555 -5.3528 2.71284 0
M  V30 111 H 7.5255 -3.94346 2.82169 0
M  V30 112 N 8.8686 -0.792821 -1.36206 0
M  V30 113 C 10.0966 -0.378825 -2.03402 0
M  V30 114 C 10.5116 1.00586 -1.59774 0
M  V30 115 O 9.8686 1.64574 -0.788764 0
M  V30 116 C 9.9196 -0.43683 -3.58851 0
M  V30 117 O 9.6406 -1.76691 -4.00889 0
M  V30 118 C 11.1416 -0.0138943 -4.43298 0
M  V30 119 H 8.3616 -0.155673 -0.652692 0
M  V30 120 H 10.9056 -1.07261 -1.74113 0
M  V30 121 H 9.0606 0.208575 -3.86838 0
M  V30 122 H 9.4746 -1.72011 -4.95492 0
M  V30 123 H 10.9486 -0.105615 -5.51899 0
M  V30 124 H 11.4256 1.03915 -4.2673 0
M  V30 125 H 12.0316 -0.63192 -4.20579 0
M  V30 126 N 10.3467 1.47872 -0.545128 0
M  V30 127 C 11.2767 2.32661 0.197793 0
M  V30 128 C 12.2577 1.43041 0.920504 0
M  V30 129 O 13.4427 1.71912 0.90333 0
M  V30 130 C 10.5727 3.24569 1.23582 0
M  V30 131 C 9.5267 4.23333 0.630323 0
M  V30 132 C 8.8527 5.0448 1.77211 0
M  V30 133 C 10.1527 5.20704 -0.407974 0
M  V30 134 H 11.8467 2.95024 -0.510045 0
M  V30 135 H 9.3927 1.4187 -0.246731 0
M  V30 136 H 11.3457 3.8272 1.76362 0
M  V30 137 H 10.0697 2.60236 1.97344 0
M  V30 138 H 8.7287 3.6639 0.123922 0
M  V30 139 H 8.3767 4.36561 2.49847 0
M  V30 140 H 8.0767 5.71339 1.37281 0
M  V30 141 H 9.6007 5.65487 2.3034 0
M  V30 142 H 11.0147 5.7329 0.033305 0
M  V30 143 H 9.4117 5.95699 -0.725486 0
M  V30 144 H 10.4817 4.66917 -1.30828 0
M  V30 145 N 11.8248 0.280983 1.55075 0
M  V30 146 C 12.7568 -0.637268 2.20163 0
M  V30 147 C 13.7698 -1.11298 1.18813 0
M  V30 148 O 14.9588 -1.03388 1.4551 0
M  V30 149 C 12.0588 -1.88199 2.81841 0
M  V30 150 C 11.2318 -1.55211 4.08936 0
M  V30 151 C 10.2908 -2.64991 4.54606 0
M  V30 152 O 9.3168 -2.30929 5.2025 0
M  V30 153 N 10.5188 -3.95161 4.25238 0
M  V30 154 H 13.2838 -0.0801694 2.99593 0
M  V30 155 H 10.8448 0.102329 1.61576 0
M  V30 156 H 12.8368 -2.60948 3.09335 0
M  V30 157 H 11.4068 -2.34799 2.06369 0
M  V30 158 H 10.6268 -0.658185 3.88666 0
M  V30 159 H 11.9148 -1.30681 4.91732 0
M  V30 160 H 11.3128 -4.25653 3.72607 0
M  V30 161 H 9.8698 -4.6427 4.5749 0
M  V30 162 N 13.3029 -1.57598 0.00835791 0
M  V30 163 C 14.7189 -1.55764 -0.347822 0
M  V30 164 C 14.9189 -1.01186 -1.74252 0
M  V30 165 O 13.9749 -0.649371 -2.44007 0
M  V30 166 C 15.2879 -2.99927 -0.215407 0
M  V30 167 C 16.8359 -3.11656 -0.289725 0
M  V30 168 C 17.3109 -4.57621 -0.18634 0
M  V30 169 N 18.8019 -4.62557 -0.243978 0
M  V30 170 C 19.5369 -5.73094 -0.18745 0
M  V30 171 N 19.0329 -6.92753 -0.0810331 0
M  V30 172 N 20.8259 -5.61588 -0.239925 0
M  V30 173 H 12.9769 -1.91411 0.92062 0
M  V30 174 H 15.2399 -0.879562 0.353659 0
M  V30 175 H 14.9459 -3.43729 0.744512 0
M  V30 176 H 14.8199 -3.63865 -0.994097 0
M  V30 177 H 17.2069 -2.67779 -1.24009 0
M  V30 178 H 17.2879 -2.5048 0.51898 0
M  V30 179 H 16.9319 -5.02174 0.760519 0
M  V30 180 H 16.8619 -5.16752 -1.01364 0
M  V30 181 H 19.3529 -3.76481 -0.327217 0
M  V30 182 H 19.6659 -7.72787 -0.0440241 0
M  V30 183 H 18.0109 -6.94984 -0.0465419 0
M  V30 184 H 21.2019 -4.66996 -0.321317 0
M  V30 185 H 21.3749 -6.47714 -0.192407 0
M  V30 186 N 14.781 0.264519 -1.55364 0
M  V30 187 C 15.744 1.31046 -1.88042 0
M  V30 188 C 16.744 1.41943 -0.755569 0
M  V30 189 O 17.934 1.40947 -1.02369 0
M  V30 190 C 15.066 2.69067 -2.09323 0
M  V30 191 H 16.259 1.03297 -2.81549 0
M  V30 192 H 13.812 0.502989 -1.47986 0
M  V30 193 H 14.547 3.01982 -1.18226 0
M  V30 194 H 14.332 2.62542 -2.91229 0
M  V30 195 H 15.822 3.44623 -2.35848 0
M  V30 196 N 16.2591 1.48442 0.529413 0
M  V30 197 C 17.4871 1.60151 1.30994 0
M  V30 198 C 17.9021 0.261985 1.86973 0
M  V30 199 O 17.2591 -0.748805 1.66431 0
M  V30 200 C 17.3101 2.64854 2.46038 0
M  V30 201 O 17.0311 3.93608 1.92365 0
M  V30 202 C 18.5321 2.87007 3.37849 0
M  V30 203 H 15.7521 0.539971 0.398338 0
M  V30 204 H 18.2961 1.94273 0.638597 0
M  V30 205 H 16.4511 2.33589 3.09055 0
M  V30 206 H 16.8651 4.51055 2.67675 0
M  V30 207 H 18.3391 3.64068 4.14919 0
M  V30 208 H 18.8161 1.95852 3.93114 0
M  V30 209 H 19.4221 3.19579 2.80623 0
M  V30 210 N 17.7372 -0.778329 1.37039 0
M  V30 211 C 18.9852 -1.53361 1.31623 0
M  V30 212 C 19.3062 -1.94739 -0.100831 0
M  V30 213 O 18.5762 -1.65797 -1.04347 0
M  V30 214 H 17.1562 -0.568794 0.484234 0
M  V30 215 H 19.8182 -0.926742 1.71457 0
M  V30 216 H 18.9142 -2.43606 1.95096 0
M  V30 217 N 19.2153 -1.21501 -1.00376 0
M  V30 218 C 20.4643 -1.02718 -1.73586 0
M  V30 219 C 20.7773 0.439589 -1.90596 0
M  V30 220 O 21.9833 0.746848 -2.61026 0
M  V30 221 C 20.4393 -1.78929 -3.1227 0
M  V30 222 C 20.0473 -3.29783 -3.03228 0
M  V30 223 C 21.7913 -1.68557 -3.89601 0
M  V30 224 C 19.6983 -3.98479 -4.36999 0
M  V30 225 H 18.6283 -0.380733 -0.650814 0
M  V30 226 H 21.2793 -1.45248 -1.1214 0
M  V30 227 H 19.6613 -1.29192 -3.74333 0
M  V30 228 H 20.8353 -3.86832 -2.50395 0
M  V30 229 H 19.1503 -3.40711 -2.39385 0
M  V30 230 H 21.7473 -2.17211 -4.88593 0
M  V30 231 H 22.0903 -0.644021 -4.11288 0
M  V30 232 H 22.6233 -2.15778 -3.34193 0
M  V30 233 H 19.3623 -5.02841 -4.20513 0
M  V30 234 H 18.8823 -3.46219 -4.89788 0
M  V30 235 H 20.5613 -4.03462 -5.05794 0
M  V30 236 N 20.6934 1.19889 -1.02296 0
M  V30 237 C 21.9184 1.9393 -0.735237 0
M  V30 238 C 22.3434 1.74639 0.698782 0
M  V30 239 O 21.7014 1.04481 1.48167 0
M  V30 240 C 21.7494 3.43916 -1.08417 0
M  V30 241 O 20.8534 4.11917 -0.199446 0
M  V30 242 H 20.1944 0.605645 -0.272196 0
M  V30 243 H 22.7244 1.52137 -1.36804 0
M  V30 244 H 22.7344 3.9456 -1.03856 0
M  V30 245 H 21.4094 3.5728 -2.12894 0
M  V30 246 H 19.9864 3.71666 -0.303136 0
M  V30 247 N 22.1715 0.800033 1.35784 0
M  V30 248 C 23.4185 0.377342 1.98953 0
M  V30 249 C 23.7465 -1.05378 1.6348 0
M  V30 250 O 23.0015 -1.74459 0.886707 0
M  V30 251 C 23.3005 0.500276 3.53881 0
M  V30 252 C 22.9665 1.89375 4.09204 0
M  V30 253 C 21.6285 2.27499 4.24025 0
M  V30 254 C 23.9805 2.8057 4.39238 0
M  V30 255 C 21.3085 3.562 4.66195 0
M  V30 256 C 23.6605 4.0871 4.82844 0
M  V30 257 C 22.3245 4.46843 4.95871 0
M  V30 258 H 21.5945 0.138079 0.728021 0
M  V30 259 H 24.2415 1.01955 1.62103 0
M  V30 260 H 22.5465 -0.225405 3.91151 0
M  V30 261 H 24.2435 0.154097 4.00704 0
M  V30 262 H 20.8335 1.58753 3.98115 0
M  V30 263 H 25.0175 2.52367 4.27346 0
M  V30 264 H 20.2735 3.85602 4.74469 0
M  V30 265 H 24.4475 4.79481 5.05046 0
M  V30 266 H 22.0745 5.46623 5.28306 0
M  V30 267 N 23.6496 -1.47581 0.552962 0
M  V30 268 C 24.6126 -2.28439 -0.186605 0
M  V30 269 C 25.6126 -1.36706 -0.84665 0
M  V30 270 O 26.8026 -1.59378 -0.703164 0
M  V30 271 C 23.9346 -3.16264 -1.2724 0
M  V30 272 H 25.1276 -2.95294 0.523609 0
M  V30 273 H 22.6806 -1.532 0.309745 0
M  V30 274 H 23.4156 -2.54091 -2.01514 0
M  V30 275 H 23.2006 -3.83769 -0.803968 0
M  V30 276 H 24.6906 -3.77198 -1.79196 0
M  V30 277 N 25.1277 -0.289203 -1.54924 0
M  V30 278 C 26.3767 0.324231 -1.99077 0
M  V30 279 C 26.6897 1.5591 -1.18117 0
M  V30 280 O 27.8957 2.24637 -1.52481 0
M  V30 281 C 26.3517 0.628209 -3.54375 0
M  V30 282 C 25.9597 -0.587647 -4.44129 0
M  V30 283 C 27.7037 1.20349 -4.07083 0
M  V30 284 C 25.6107 -0.257475 -5.90839 0
M  V30 285 H 24.5407 0.124924 -0.743579 0
M  V30 286 H 27.1917 -0.396063 -1.79175 0
M  V30 287 H 25.5737 1.40778 -3.70132 0
M  V30 288 H 26.7477 -1.36418 -4.40144 0
M  V30 289 H 25.0627 -1.08074 -4.0213 0
M  V30 290 H 27.6597 1.46456 -5.14252 0
M  V30 291 H 28.0027 2.14195 -3.56968 0
M  V30 292 H 28.5357 0.485889 -3.94821 0
M  V30 293 H 25.2747 -1.16419 -6.45079 0
M  V30 294 H 24.7947 0.482018 -5.9786 0
M  V30 295 H 26.4737 0.145238 -6.46837 0
M  V30 296 N 26.6058 1.57591 -0.0167156 0
M  V30 297 C 27.5558 2.05953 0.978137 0
M  V30 298 C 28.5398 0.957532 1.29306 0
M  V30 299 O 29.7318 1.22119 1.28125 0
M  V30 300 C 26.8608 2.58006 2.26468 0
M  V30 301 C 25.9468 3.75113 1.97867 0
M  V30 302 N 26.3378 4.86187 1.39486 0
M  V30 303 C 24.6358 3.83363 2.27924 0
M  V30 304 C 25.3368 5.67502 1.27735 0
M  V30 305 N 24.3128 5.14023 1.76866 0
M  V30 306 H 28.1148 2.89236 0.521522 0
M  V30 307 H 25.6288 1.61301 0.188596 0
M  V30 308 H 27.6258 2.90937 2.98599 0
M  V30 309 H 26.2858 1.76148 2.72767 0
M  V30 310 H 27.2968 5.06695 1.07147 0
M  V30 311 H 23.9738 3.1239 2.76982 0
M  V30 312 H 25.3638 6.66791 0.826978 0
M  V30 313 N 28.0839 -0.256276 1.55502 0
M  V30 314 C 29.3319 -0.983672 1.76545 0
M  V30 315 C 29.6529 -1.86206 0.578982 0
M  V30 316 O 28.9229 -1.91656 -0.405577 0
M  V30 317 H 27.5029 -0.366191 0.651086 0
M  V30 318 H 30.1649 -0.276479 1.92929 0
M  V30 319 H 29.2609 -1.61087 2.67315 0
M  V30 320 N 29.562 -1.4872 -0.521534 0
M  V30 321 C 30.51 -1.64328 -1.64618 0
M  V30 322 C 31.504 -0.50953 -1.61555 0
M  V30 323 O 32.71 -0.688525 -1.66311 0
M  V30 324 H 29.085 -0.517805 -0.545328 0
M  V30 325 H 31.056 -2.58767 -1.48601 0
M  V30 326 C 29.805 -1.70805 -3.02855 0
M  V30 327 H 29.128 -2.5741 -3.05909 0
M  V30 328 H 30.568 -1.85766 -3.81139 0
M  V30 329 C 29.027 -0.448479 -3.33902 0
M  V30 330 O 29.557 0.434928 -3.99339 0
M  V30 331 N 27.763 -0.317616 -2.88859 0
M  V30 332 H 27.31 -1.03748 -2.35784 0
M  V30 333 H 27.268 0.524113 -3.10001 0
M  V30 334 N 31.0401 0.771051 -1.3745 0
M  V30 335 C 32.2871 1.52963 -1.32697 0
M  V30 336 C 32.6151 1.94299 0.0883274 0
M  V30 337 O 31.8701 1.64397 1.0617 0
M  V30 338 C 32.1691 2.80676 -2.2126 0
M  V30 339 C 31.8351 2.58389 -3.69521 0
M  V30 340 C 30.4971 2.52019 -4.09927 0
M  V30 341 C 32.8491 2.38469 -4.63446 0
M  V30 342 C 30.1771 2.23721 -5.42371 0
M  V30 343 C 32.5291 2.11694 -5.96128 0
M  V30 344 C 31.1931 2.03769 -6.35637 0
M  V30 345 H 30.4631 0.559732 -0.485573 0
M  V30 346 H 33.1101 0.888083 -1.69662 0
M  V30 347 H 31.4151 3.49392 -1.77291 0
M  V30 348 H 33.1121 3.38557 -2.14895 0
M  V30 349 H 29.7021 2.6421 -3.37478 0
M  V30 350 H 33.8861 2.4238 -4.33089 0
M  V30 351 H 29.1421 2.16081 -5.71943 0
M  V30 352 H 33.3161 1.9528 -6.6846 0
M  V30 353 H 30.9431 1.81606 -7.38189 0
M  V30 354 N 32.5182 1.22032 0.997298 0
M  V30 355 C 33.7432 1.06921 1.77715 0
M  V30 356 C 34.1682 -0.376226 1.84299 0
M  V30 357 O 33.5262 -1.27165 1.29223 0
M  V30 358 C 33.5742 1.67996 3.19076 0
M  V30 359 O 32.6782 0.930653 4.01762 0
M  V30 360 H 32.0192 0.375814 0.547412 0
M  V30 361 H 34.5492 1.61737 1.25309 0
M  V30 362 H 34.5592 1.72538 3.69723 0
M  V30 363 H 33.2342 2.73182 3.13599 0
M  V30 364 H 31.8112 0.960917 3.60307 0
M  V30 365 N 33.9963 -1.19345 1.0293 0
M  V30 366 C 35.2443 -1.88665 0.724574 0
M  V30 367 C 35.5653 -1.80036 -0.749144 0
M  V30 368 O 34.8353 -1.2111 -1.53978 0
M  V30 369 H 33.4153 -0.698406 0.265025 0
M  V30 370 H 36.0773 -1.44885 1.30362 0
M  V30 371 H 35.1733 -2.94987 1.01926 0
M  V30 372 N 35.4744 -0.807222 -1.35358 0
M  V30 373 C 36.7024 -0.400377 -2.02989 0
M  V30 374 C 37.1174 0.988859 -1.60832 0
M  V30 375 O 36.4744 1.63729 -0.806175 0
M  V30 376 C 36.5254 -0.474867 -3.58368 0
M  V30 377 O 36.2464 -1.80933 -3.98992 0
M  V30 378 C 37.7474 -0.0609112 -4.43258 0
M  V30 379 H 34.9674 -0.162587 -0.651004 0
M  V30 380 H 37.5114 -1.09102 -1.72965 0
M  V30 381 H 35.6664 0.167534 -3.87038 0
M  V30 382 H 36.0804 -1.77256 -4.9364 0
M  V30 383 H 37.5544 -0.164145 -5.51756 0
M  V30 384 H 38.0314 0.993831 -4.27808 0
M  V30 385 H 38.6374 -0.676492 -4.19885 0
M  V30 386 N 36.9525 1.47285 -0.560781 0
M  V30 387 C 37.8995 2.30058 0.18491 0
M  V30 388 C 38.8695 1.39281 0.904986 0
M  V30 389 O 40.0545 1.68241 0.899979 0
M  V30 390 C 37.1945 3.23317 1.20666 0
M  V30 391 C 36.3075 4.29186 0.492285 0
M  V30 392 C 35.4425 5.09592 1.49964 0
M  V30 393 C 34.4815 6.07232 0.770439 0
M  V30 394 N 33.6185 6.80584 1.72479 0
M  V30 395 H 38.4585 2.93302 -0.527048 0
M  V30 396 H 35.9955 1.44568 -0.271738 0
M  V30 397 H 37.9535 3.75811 1.81168 0
M  V30 398 H 36.5835 2.61929 1.88661 0
M  V30 399 H 35.6355 3.7972 -0.227333 0
M  V30 400 H 36.9475 4.98738 -0.0787929 0
M  V30 401 H 36.1015 5.66254 2.17809 0
M  V30 402 H 34.8405 4.3995 2.10464 0
M  V30 403 H 33.8455 5.49745 0.0780846 0
M  V30 404 H 35.0705 6.78884 0.171134 0
M  V30 405 H 33.0165 6.1367 2.3183 0
M  V30 406 H 32.9335 7.46319 1.20596 0
M  V30 407 H 34.2015 7.41818 2.39428 0
M  V30 408 N 38.4306 0.297415 1.54768 0
M  V30 409 C 39.3626 -0.613881 2.20826 0
M  V30 410 C 40.3756 -1.10032 1.19987 0
M  V30 411 O 41.5646 -1.01839 1.46598 0
M  V30 412 C 38.6646 -1.852 2.83821 0
M  V30 413 C 37.8376 -1.50865 4.10559 0
M  V30 414 C 36.8966 -2.60154 4.57391 0
M  V30 415 O 35.9226 -2.25398 5.2267 0
M  V30 416 N 37.1246 -3.90629 4.29406 0
M  V30 417 H 39.8896 -0.048389 2.99661 0
M  V30 418 H 37.4506 0.11946 1.61459 0
M  V30 419 H 39.4426 -2.57652 3.12086 0
M  V30 420 H 38.0126 -2.32597 2.08847 0
M  V30 421 H 37.2326 -0.616925 3.89343 0
M  V30 422 H 38.5206 -1.25458 4.9309 0
M  V30 423 H 37.9186 -4.21677 3.77101 0
M  V30 424 H 36.4756 -4.59391 4.62388 0
M  V30 425 N 39.9087 -1.5758 0.0250728 0
M  V30 426 C 40.8407 -2.06869 -0.986796 0
M  V30 427 C 41.8537 -0.991332 -1.29137 0
M  V30 428 O 43.0427 -1.26761 -1.25674 0
M  V30 429 C 40.1427 -2.47486 -2.31525 0
M  V30 430 C 39.3157 -3.78253 -2.19643 0
M  V30 431 C 38.3747 -4.05464 -3.35388 0
M  V30 432 O 37.4007 -4.75774 -3.12454 0
M  V30 433 N 38.6027 -3.55321 -4.59051 0
M  V30 434 H 41.3677 -2.94302 -0.566276 0
M  V30 435 H 38.9287 -1.6109 -0.161776 0
M  V30 436 H 40.9207 -2.62785 -3.07776 0
M  V30 437 H 39.4907 -1.65441 -2.65232 0
M  V30 438 H 38.7107 -3.7279 -1.28144 0
M  V30 439 H 39.9987 -4.63936 -2.08903 0
M  V30 440 H 39.3967 -2.98431 -4.80578 0
M  V30 441 H 37.9537 -3.75905 -5.32483 0
M  V30 442 N 41.3868 0.248026 -1.55636 0
M  V30 443 C 42.2968 1.32859 -1.93354 0
M  V30 444 C 43.3128 1.52719 -0.833838 0
M  V30 445 O 44.4888 1.66363 -1.13513 0
M  V30 446 C 41.5538 2.66337 -2.21958 0
M  V30 447 C 40.6148 2.55008 -3.45354 0
M  V30 448 C 39.8478 3.82121 -3.72584 0
M  V30 449 O 40.0708 4.83951 -3.01907 0
M  V30 450 O 39.0048 3.80822 -4.6611 0
M  V30 451 H 42.8308 1.03862 -2.85388 0
M  V30 452 H 40.4158 0.448686 -1.42503 0
M  V30 453 H 42.2978 3.45216 -2.4167 0
M  V30 454 H 40.9728 2.95068 -1.33103 0
M  V30 455 H 39.8798 1.7442 -3.30951 0
M  V30 456 H 41.2128 2.31222 -4.34508 0
M  V30 457 N 42.8649 1.48995 0.513639 0
M  V30 458 C 44.1139 1.57093 1.2651 0
M  V30 459 C 44.4269 0.257091 1.93903 0
M  V30 460 O 45.6329 0.216478 2.70636 0
M  V30 461 C 44.0889 2.77118 2.29638 0
M  V30 462 C 43.6969 4.15209 1.68241 0
M  V30 463 C 45.4409 2.94538 3.05692 0
M  V30 464 C 43.3479 5.26474 2.69406 0
M  V30 465 H 42.2779 0.584876 0.475854 0
M  V30 466 H 44.9289 1.7536 0.540487 0
M  V30 467 H 43.3109 2.52319 3.05207 0
M  V30 468 H 44.4849 4.50094 0.987505 0
M  V30 469 H 42.7999 4.03042 1.04623 0
M  V30 470 H 45.3969 3.74832 3.8132 0
M  V30 471 H 45.7399 2.04614 3.62545 0
M  V30 472 H 46.2729 3.19316 2.37238 0
M  V30 473 H 43.0119 6.18417 2.17351 0
M  V30 474 H 42.5319 4.96058 3.37175 0
M  V30 475 H 44.2109 5.55277 3.32078 0
M  V30 476 N 44.343 -0.763751 1.37857 0
M  V30 477 C 45.589 -1.52483 1.33704 0
M  V30 478 C 45.922 -1.94051 -0.0759612 0
M  V30 479 O 45.197 -1.64675 -1.03501 0
M  V30 480 C 45.48 -2.78441 2.28348 0
M  V30 481 C 45.333 -2.43075 3.78463 0
M  V30 482 C 46.652 -3.80415 2.21298 0
M  V30 483 H 43.771 -0.553169 0.487005 0
M  V30 484 H 46.413 -0.875562 1.68624 0
M  V30 485 H 44.563 -3.33842 1.987 0
M  V30 486 H 46.235 -1.93527 4.18742 0
M  V30 487 H 44.478 -1.75666 3.96641 0
M  V30 488 H 45.149 -3.33149 4.40132 0
M  V30 489 H 47.625 -3.34527 2.47449 0
M  V30 490 H 46.501 -4.66257 2.89647 0
M  V30 491 H 46.762 -4.25262 1.20849 0
M  V30 492 N 45.8211 -1.22559 -0.990812 0
M  V30 493 C 47.0671 -1.05297 -1.73322 0
M  V30 494 C 47.4001 0.410655 -1.89808 0
M  V30 495 O 46.6751 1.30439 -1.44277 0
M  V30 496 C 46.9581 -1.76713 -3.13759 0
M  V30 497 C 46.8111 -3.30684 -3.04907 0
M  V30 498 C 48.1301 -1.52121 -4.12974 0
M  V30 499 H 45.2491 -0.38392 -0.629106 0
M  V30 500 H 47.8911 -1.50926 -1.15418 0
M  V30 501 H 46.0411 -1.37924 -3.63193 0
M  V30 502 H 47.7131 -3.7893 -2.63077 0
M  V30 503 H 45.9561 -3.60253 -2.41661 0
M  V30 504 H 46.6271 -3.75833 -4.04294 0
M  V30 505 H 49.1031 -1.85819 -3.72304 0
M  V30 506 H 47.9791 -2.04582 -5.0935 0
M  V30 507 H 48.2401 -0.454257 -4.3976 0
M  V30 508 N 47.2992 1.18797 -1.03562 0
M  V30 509 C 48.5242 1.9314 -0.755764 0
M  V30 510 C 48.9492 1.7537 0.68022 0
M  V30 511 O 48.3072 1.06046 1.47051 0
M  V30 512 C 48.3552 3.42747 -1.12058 0
M  V30 513 O 47.4592 4.11683 -0.243124 0
M  V30 514 H 46.8002 0.602724 -0.278604 0
M  V30 515 H 49.3302 1.50678 -1.3841 0
M  V30 516 H 49.3402 3.93437 -1.08035 0
M  V30 517 H 48.0152 3.55002 -2.16672 0
M  V30 518 H 46.5922 3.71323 -0.342539 0
M  V30 519 N 48.7773 0.814389 1.34928 0
M  V30 520 C 50.1933 0.499084 1.51596 0
M  V30 521 C 50.3933 -0.978319 1.76157 0
M  V30 522 O 49.4493 -1.76309 1.80752 0
M  V30 523 C 50.7623 1.35121 2.68631 0
M  V30 524 C 52.3103 1.34746 2.82511 0
M  V30 525 C 52.7853 2.18388 4.0258 0
M  V30 526 N 54.2763 2.15966 4.09772 0
M  V30 527 C 55.0113 2.77437 5.01813 0
M  V30 528 N 54.5073 3.47866 5.99134 0
M  V30 529 N 56.3003 2.67037 4.94619 0
M  V30 530 H 48.4513 1.7711 1.17243 0
M  V30 531 H 50.7143 0.754256 0.574284 0
M  V30 532 H 50.4203 2.40001 2.57085 0
M  V30 533 H 50.2943 1.00991 3.63429 0
M  V30 534 H 52.6813 0.30648 2.93504 0
M  V30 535 H 52.7623 1.72869 1.88547 0
M  V30 536 H 52.4063 3.2253 3.92347 0
M  V30 537 H 52.3363 1.77621 4.9574 0
M  V30 538 H 54.8273 1.64729 3.40107 0
M  V30 539 H 55.1403 3.92038 6.65977 0
M  V30 540 H 53.4853 3.51972 5.99284 0
M  V30 541 H 56.6763 2.11597 4.17546 0
M  V30 542 H 56.8493 3.15232 5.66156 0
M  V30 543 N 50.2554 -1.46986 0.568584 0
M  V30 544 C 51.5034 -2.02041 0.0487022 0
M  V30 545 C 51.8244 -1.44408 -1.31039 0
M  V30 546 O 51.0944 -0.623477 -1.85714 0
M  V30 547 H 49.6744 -0.746849 0.015014 0
M  V30 548 H 52.3364 -1.80257 0.741168 0
M  V30 549 H 51.4324 -3.12085 -0.0308961 0
M  V30 550 N 51.7335 -0.305618 -1.54608 0
M  V30 551 C 52.6805 0.568421 -2.23691 0
M  V30 552 C 53.6505 1.12592 -1.22116 0
M  V30 553 O 54.8355 1.16959 -1.50749 0
M  V30 554 C 51.9755 1.7322 -2.98477 0
M  V30 555 C 51.0885 1.20566 -4.14835 0
M  V30 556 C 50.2235 2.33368 -4.77193 0
M  V30 557 C 49.2625 1.7787 -5.85686 0
M  V30 558 N 48.3995 2.84263 -6.4198 0
M  V30 559 H 53.2395 -0.0272867 -2.97988 0
M  V30 560 H 50.7765 -0.0252363 -1.47078 0
M  V30 561 H 52.7345 2.41675 -3.40072 0
M  V30 562 H 51.3645 2.29947 -2.26548 0
M  V30 563 H 50.4165 0.413223 -3.78149 0
M  V30 564 H 51.7285 0.759417 -4.92985 0
M  V30 565 H 50.8825 3.09761 -5.21664 0
M  V30 566 H 49.6215 2.8132 -3.98385 0
M  V30 567 H 48.6265 0.99968 -5.40635 0
M  V30 568 H 49.8515 1.30816 -6.66381 0
M  V30 569 H 47.7975 3.31541 -5.66053 0
M  V30 570 H 47.7145 2.44149 -7.15491 0
M  V30 571 H 48.9825 3.6054 -6.91109 0
M  V30 572 N 53.2116 1.57565 -0.0334293 0
M  V30 573 C 54.4606 1.91155 0.643639 0
M  V30 574 C 54.7736 0.91192 1.73042 0
M  V30 575 O 55.9796 1.13923 2.46442 0
M  V30 576 C 54.4356 3.39443 1.1961 0
M  V30 577 C 54.0436 4.47774 0.142381 0
M  V30 578 C 55.7876 3.82094 1.84944 0
M  V30 579 C 53.6946 5.87162 0.706727 0
M  V30 580 H 52.6246 0.713368 0.244176 0
M  V30 581 H 55.2756 1.8323 -0.0994323 0
M  V30 582 H 53.6576 3.42313 1.99092 0
M  V30 583 H 54.8316 4.56469 -0.630296 0
M  V30 584 H 53.1466 4.14352 -0.412446 0
M  V30 585 H 55.7436 4.83591 2.2813 0
M  V30 586 H 56.0866 3.17386 2.69392 0
M  V30 587 H 56.6196 3.81665 1.12145 0
M  V30 588 H 53.3586 6.55424 -0.0997178 0
M  V30 589 H 52.8786 5.82064 1.44779 0
M  V30 590 H 54.5576 6.35866 1.19514 0
M  V30 591 N 54.6897 -0.239769 1.55765 0
M  V30 592 C 55.6197 -1.30052 1.9393 0
M  V30 593 C 56.6007 -1.49839 0.805132 0
M  V30 594 O 57.7857 -1.62328 1.06599 0
M  V30 595 C 54.9157 -2.65391 2.2402 0
M  V30 596 C 53.8697 -2.60289 3.39755 0
M  V30 597 C 53.1957 -3.99489 3.55405 0
M  V30 598 C 54.4957 -2.16654 4.75246 0
M  V30 599 H 56.1897 -0.983573 2.82783 0
M  V30 600 H 53.7357 -0.471701 1.36055 0
M  V30 601 H 55.6887 -3.3974 2.49308 0
M  V30 602 H 54.4127 -2.98736 1.32 0
M  V30 603 H 53.0717 -1.88398 3.14487 0
M  V30 604 H 52.7197 -4.30112 2.60793 0
M  V30 605 H 52.4197 -3.96962 4.33238 0
M  V30 606 H 53.9437 -4.75528 3.83022 0
M  V30 607 H 55.3577 -2.80737 4.99859 0
M  V30 608 H 53.7547 -2.25223 5.56232 0
M  V30 609 H 54.8247 -1.11835 4.71827 0
M  V30 610 N 56.1678 -1.49265 -0.50573 0
M  V30 611 C 57.0778 -1.68312 -1.63427 0
M  V30 612 C 58.0938 -0.565682 -1.64548 0
M  V30 613 O 59.2698 -0.839801 -1.83055 0
M  V30 614 C 56.3348 -1.74107 -2.99813 0
M  V30 615 C 55.3958 -2.97653 -3.09356 0
M  V30 616 C 54.6288 -3.03163 -4.39236 0
M  V30 617 O 54.8518 -2.16396 -5.27758 0
M  V30 618 O 53.7858 -3.9558 -4.53652 0
M  V30 619 H 57.6118 -2.63907 -1.50289 0
M  V30 620 H 55.1968 -1.32951 -0.681502 0
M  V30 621 H 57.0788 -1.803 -3.80881 0
M  V30 622 H 55.7538 -0.816901 -3.13223 0
M  V30 623 H 54.6608 -2.96981 -2.27493 0
M  V30 624 H 55.9938 -3.89535 -3.00871 0
M  V30 625 N 57.6459 0.756429 -1.3826 0
M  V30 626 C 58.5759 1.88374 -1.37976 0
M  V30 627 C 59.5569 1.68311 -0.246082 0
M  V30 628 O 60.7419 1.88944 -0.44874 0
M  V30 629 C 57.8719 3.25864 -1.20125 0
M  V30 630 C 56.8259 3.60523 -2.30666 0
M  V30 631 C 56.1519 4.9672 -1.97923 0
M  V30 632 C 57.4519 3.65692 -3.72916 0
M  V30 633 H 59.1459 1.88869 -2.32312 0
M  V30 634 H 56.6919 0.907272 -1.11824 0
M  V30 635 H 58.6449 4.0438 -1.18552 0
M  V30 636 H 57.3689 3.25841 -0.222498 0
M  V30 637 H 56.0279 2.84324 -2.3142 0
M  V30 638 H 55.6759 4.93253 -0.985393 0
M  V30 639 H 55.3759 5.20878 -2.71955 0
M  V30 640 H 56.8999 5.77618 -1.97964 0
M  V30 641 H 58.3139 4.34328 -3.74208 0
M  V30 642 H 56.7109 4.01358 -4.4613 0
M  V30 643 H 57.7809 2.65987 -4.05436 0
M  V30 644 N 59.124 1.23083 0.984299 0
M  V30 645 C 60.054 1.03292 2.09411 0
M  V30 646 C 61.035 -0.048923 1.7003 0
M  V30 647 O 62.22 0.114967 1.93859 0
M  V30 648 C 59.35 0.619155 3.41736 0
M  V30 649 C 58.304 1.64791 3.95004 0
M  V30 650 C 57.63 1.0897 5.23478 0
M  V30 651 C 58.93 3.03999 4.24714 0
M  V30 652 H 60.624 1.96119 2.26225 0
M  V30 653 H 58.17 0.944344 1.08711 0
M  V30 654 H 60.123 0.467777 4.18796 0
M  V30 655 H 58.847 -0.344786 3.24775 0
M  V30 656 H 57.506 1.78721 3.20085 0
M  V30 657 H 57.154 0.11686 5.02864 0
M  V30 658 H 56.854 1.77704 5.60085 0
M  V30 659 H 58.378 0.950093 6.03163 0
M  V30 660 H 59.792 2.93393 4.92538 0
M  V30 661 H 58.189 3.69936 4.72512 0
M  V30 662 H 59.259 3.53285 3.32142 0
M  V30 663 N 60.6021 -1.18246 1.0419 0
M  V30 664 C 62.0181 -1.40269 0.761366 0
M  V30 665 C 62.2181 -1.90777 -0.648578 0
M  V30 666 O 61.2741 -2.0929 -1.41258 0
M  V30 667 C 62.5871 -2.40237 1.8085 0
M  V30 668 C 64.1351 -2.53961 1.82955 0
M  V30 669 C 64.6101 -3.57194 2.86664 0
M  V30 670 N 66.1011 -3.64702 2.85563 0
M  V30 671 C 66.8361 -4.44309 3.6246 0
M  V30 672 N 66.3321 -5.27514 4.49111 0
M  V30 673 N 68.1251 -4.39084 3.50944 0
M  V30 674 H 60.2761 -0.837882 1.95175 0
M  V30 675 H 62.5391 -0.430608 0.84456 0
M  V30 676 H 62.2451 -2.10176 2.81991 0
M  V30 677 H 62.1191 -3.39601 1.64168 0
M  V30 678 H 64.5061 -2.83338 0.824855 0
M  V30 679 H 64.5871 -1.54706 2.03715 0
M  V30 680 H 64.2311 -3.28558 3.87314 0
M  V30 681 H 64.1611 -4.5613 2.6316 0
M  V30 682 H 66.6521 -3.05289 2.22727 0
M  V30 683 H 66.9651 -5.85411 5.04493 0
M  V30 684 H 65.3101 -5.2693 4.53178 0
M  V30 685 H 68.5011 -3.7313 2.82651 0
M  V30 686 H 68.6741 -5.00883 4.11121 0
M  V30 687 N 62.0802 -0.821533 -1.34494 0
M  V30 688 C 63.4912 -0.467956 -1.8074 0
M  V30 689 C 63.8422 1.01151 -1.68116 0
M  V30 690 O 62.9672 1.78707 -1.22036 0
M  V30 691 C 63.5622 -0.842627 -3.28154 0
M  V30 692 C 62.1212 -0.541439 -3.72485 0
M  V30 693 C 61.2682 -1.06028 -2.56229 0
M  V30 694 H 64.2192 -1.01183 -1.22261 0
M  V30 695 H 64.2402 -0.145876 -3.8022 0
M  V30 696 H 63.7522 -1.91945 -3.37311 0
M  V30 697 H 61.8532 0.526034 -3.68868 0
M  V30 698 H 61.9662 -1.08453 -4.66663 0
M  V30 699 H 60.3302 -0.481892 -2.501 0
M  V30 700 H 61.1132 -2.14352 -2.68157 0
M  V30 701 N 63.5583 1.46682 -0.576371 0
M  V30 702 C 64.8353 1.95599 0.00703437 0
M  V30 703 C 65.2153 1.51904 1.46589 0
M  V30 704 O 64.5633 0.766755 2.15251 0
M  V30 705 C 64.7733 3.4864 -0.158404 0
M  V30 706 C 66.1213 4.24594 -0.0229439 0
M  V30 707 O 67.1453 3.56094 -0.0869173 0
M  V30 708 O 66.0043 5.46373 0.118015 0
M  V30 709 H 63.0983 0.825275 0.053384 0
M  V30 710 H 65.6443 1.56996 -0.644244 0
M  V30 711 H 64.4163 3.7331 -1.17282 0
M  V30 712 H 64.0393 3.94057 0.5296 0
M  V30 713 N 65.0364 0.313813 1.54444 0
M  V30 714 C 66.4474 -0.176243 1.85866 0
M  V30 715 C 66.7984 -1.52405 1.23561 0
M  V30 716 O 65.9234 -2.09605 0.538016 0
M  V30 717 C 66.5184 -0.32657 3.37222 0
M  V30 718 C 65.0774 -0.760846 3.6863 0
M  V30 719 C 64.2244 0.123247 2.77026 0
M  V30 720 H 67.1754 0.534418 1.49431 0
M  V30 721 H 67.1964 -1.15908 3.62416 0
M  V30 722 H 66.7084 0.654531 3.82541 0
M  V30 723 H 64.8094 -1.75204 3.28838 0
M  V30 724 H 64.9224 -0.571353 4.75681 0
M  V30 725 H 63.2864 -0.399597 2.51546 0
M  V30 726 H 64.0694 1.10094 3.25168 0
M  V30 727 N 66.5145 -1.57545 0.0417849 0
M  V30 728 C 67.4625 -2.12148 -0.953723 0
M  V30 729 C 68.4565 -1.05104 -1.32852 0
M  V30 730 O 69.6625 -1.23524 -1.30927 0
M  V30 731 H 66.0375 -0.677957 -0.325389 0
M  V30 732 H 68.0085 -2.94707 -0.467991 0
M  V30 733 C 66.7575 -2.6739 -2.22257 0
M  V30 734 H 66.0805 -3.49413 -1.94295 0
M  V30 735 H 67.5205 -3.09227 -2.90094 0
M  V30 736 C 65.9795 -1.60723 -2.96091 0
M  V30 737 O 66.5095 -1.01449 -3.88679 0
M  V30 738 N 64.7155 -1.32466 -2.58652 0
M  V30 739 H 64.2625 -1.80856 -1.83437 0
M  V30 740 H 64.2205 -0.61325 -3.08361 0
M  V30 741 N 67.9926 0.231505 -1.5589 0
M  V30 742 C 69.2206 0.974505 -1.82513 0
M  V30 743 C 69.6356 1.78344 -0.619591 0
M  V30 744 O 68.9926 1.77792 0.411848 0
M  V30 745 C 69.0436 1.90007 -3.07538 0
M  V30 746 O 68.7646 1.12385 -4.2344 0
M  V30 747 C 70.2656 2.75779 -3.47075 0
M  V30 748 H 67.4856 0.286065 -0.606966 0
M  V30 749 H 70.0296 0.249739 -2.02969 0
M  V30 750 H 68.1846 2.57891 -2.89086 0
M  V30 751 H 68.5986 1.75125 -4.944 0
M  V30 752 H 70.0726 3.36443 -4.37619 0
M  V30 753 H 70.5496 3.47672 -2.68367 0
M  V30 754 H 71.1556 2.13323 -3.67931 0
M  V30 755 N 69.4707 1.49531 0.497807 0
M  V30 756 C 70.7187 1.58865 1.24926 0
M  V30 757 C 71.0397 0.278721 1.92998 0
M  V30 758 O 70.3097 -0.702144 1.82885 0
M  V30 759 H 68.8897 0.585343 0.464094 0
M  V30 760 H 71.5517 1.86174 0.57666 0
M  V30 761 H 70.6477 2.38633 2.01149 0
M  V30 762 N 70.9488 -0.749086 1.3866 0
M  V30 763 C 71.8958 -1.86291 1.36251 0
M  V30 764 C 72.8658 -1.64578 0.224347 0
M  V30 765 O 74.0508 -1.86181 0.417279 0
M  V30 766 C 71.1908 -3.23644 1.19786 0
M  V30 767 C 70.3038 -3.57158 2.43027 0
M  V30 768 C 69.4388 -4.83838 2.19258 0
M  V30 769 C 68.4778 -5.10152 3.38247 0
M  V30 770 N 67.6148 -6.28029 3.13884 0
M  V30 771 H 72.4548 -1.87685 2.3147 0
M  V30 772 H 69.9918 -0.917287 1.14997 0
M  V30 773 H 71.9498 -4.0291 1.08254 0
M  V30 774 H 70.5798 -3.21566 0.282031 0
M  V30 775 H 69.6318 -2.72701 2.65214 0
M  V30 776 H 70.9438 -3.7253 3.31697 0
M  V30 777 H 70.0978 -5.71057 2.04888 0
M  V30 778 H 68.8368 -4.70614 1.2796 0
M  V30 779 H 67.8418 -4.21401 3.53131 0
M  V30 780 H 69.0668 -5.25271 4.30427 0
M  V30 781 H 67.0128 -6.1612 2.25238 0
M  V30 782 H 66.9298 -6.43922 3.96106 0
M  V30 783 H 68.1978 -7.18124 3.03179 0
M  V30 784 N 72.4269 -1.23603 -0.977757 0
M  V30 785 C 73.6729 -1.07129 -1.72195 0
M  V30 786 C 74.0059 0.390501 -1.90233 0
M  V30 787 O 73.2809 1.28902 -1.45653 0
M  V30 788 C 73.5639 -1.80031 -3.11867 0
M  V30 789 C 73.4169 -3.33899 -3.01383 0
M  V30 790 C 74.7359 -1.56492 -4.11337 0
M  V30 791 H 71.8549 -0.390571 -0.624999 0
M  V30 792 H 74.4969 -1.52142 -1.13811 0
M  V30 793 H 72.6469 -1.41768 -3.6171 0
M  V30 794 H 74.3189 -3.81699 -2.59043 0
M  V30 795 H 72.5619 -3.62796 -2.37827 0
M  V30 796 H 73.2329 -3.801 -4.00285 0
M  V30 797 H 75.7089 -1.89757 -3.70313 0
M  V30 798 H 74.5849 -2.09973 -5.07151 0
M  V30 799 H 74.8459 -0.500874 -4.39254 0
M  V30 800 N 73.905 1.17692 -1.04816 0
M  V30 801 C 74.855 2.1952 -0.616042 0
M  V30 802 C 75.839 1.57147 0.345485 0
M  V30 803 O 77.031 1.76245 0.163325 0
M  V30 804 C 74.16 3.43298 0.0116917 0
M  V30 805 C 73.246 4.12777 -0.973435 0
M  V30 806 N 73.637 4.5814 -2.14339 0
M  V30 807 C 71.935 4.38747 -0.80108 0
M  V30 808 C 72.636 5.11713 -2.7663 0
M  V30 809 N 71.612 5.03686 -2.04453 0
M  V30 810 H 75.414 2.52293 -1.5075 0
M  V30 811 H 72.928 1.3398 -0.917776 0
M  V30 812 H 74.925 4.15519 0.339006 0
M  V30 813 H 73.585 3.12018 0.898593 0
M  V30 814 H 74.596 4.52349 -2.52191 0
M  V30 815 H 71.273 4.17485 0.0350934 0
M  V30 816 H 72.663 5.56962 -3.75823 0
M  V30 817 N 75.3831 0.828654 1.34056 0
M  V30 818 C 76.6111 0.43262 2.02326 0
M  V30 819 C 77.0261 -0.963147 1.62385 0
M  V30 820 O 76.3831 -1.62425 0.832121 0
M  V30 821 C 76.4341 0.53182 3.57567 0
M  V30 822 O 76.1551 1.87258 3.96063 0
M  V30 823 C 77.6561 0.131422 4.43105 0
M  V30 824 H 74.8761 0.172923 0.648335 0
M  V30 825 H 77.4201 1.1184 1.71208 0
M  V30 826 H 75.5751 -0.105938 3.87255 0
M  V30 827 H 75.9891 1.85087 4.90758 0
M  V30 828 H 77.4631 0.251904 5.51425 0
M  V30 829 H 77.9401 -0.925645 4.29335 0
M  V30 830 H 78.5461 0.743207 4.18756 0
M  V30 831 N 76.8612 -1.46375 0.584142 0
M  V30 832 C 77.7912 -2.33103 -0.136037 0
M  V30 833 C 78.7722 -1.45431 -0.882255 0
M  V30 834 O 79.9572 -1.74246 -0.857434 0
M  V30 835 C 77.0872 -3.27731 -1.14933 0
M  V30 836 C 76.0412 -4.24855 -0.517862 0
M  V30 837 C 75.3672 -5.09001 -1.63773 0
M  V30 838 C 76.6672 -5.19439 0.545886 0
M  V30 839 H 78.3612 -2.93568 0.588086 0
M  V30 840 H 75.9072 -1.41166 0.284259 0
M  V30 841 H 77.8602 -3.87261 -1.66153 0
M  V30 842 H 76.5842 -2.65377 -1.90375 0
M  V30 843 H 75.2432 -3.6659 -0.0267361 0
M  V30 844 H 74.8912 -4.43031 -2.38185 0
M  V30 845 H 74.5912 -5.74777 -1.22085 0
M  V30 846 H 76.1152 -5.71396 -2.15266 0
M  V30 847 H 77.5292 -5.73177 0.118704 0
M  V30 848 H 75.9262 -5.93566 0.88317 0
M  V30 849 H 76.9962 -4.63285 1.43162 0
M  V30 850 N 78.3393 -0.321999 -1.54275 0
M  V30 851 C 79.2693 0.537411 -2.27231 0
M  V30 852 C 80.2503 1.12064 -1.27968 0
M  V30 853 O 81.4353 1.14606 -1.56777 0
M  V30 854 C 78.5653 1.69919 -3.02894 0
M  V30 855 C 77.5193 1.24534 -4.09482 0
M  V30 856 C 76.8453 2.49394 -4.72977 0
M  V30 857 C 78.1453 0.361335 -5.21049 0
M  V30 858 H 79.8393 -0.0711406 -2.99315 0
M  V30 859 H 77.3853 -0.0356555 -1.43956 0
M  V30 860 H 79.3383 2.30668 -3.52662 0
M  V30 861 H 78.0623 2.33431 -2.28424 0
M  V30 862 H 76.7213 0.660782 -3.60596 0
M  V30 863 H 76.3693 3.11265 -3.95124 0
M  V30 864 H 76.0693 2.19718 -5.44975 0
M  V30 865 H 77.5933 3.10908 -5.25517 0
M  V30 866 H 79.0073 0.875072 -5.66582 0
M  V30 867 H 77.4043 0.157428 -5.99893 0
M  V30 868 H 78.4743 -0.60822 -4.8107 0
M  V30 869 N 79.8174 1.5752 -0.0501392 0
M  V30 870 C 81.0454 1.96963 0.633492 0
M  V30 871 C 81.4604 0.927631 1.6444 0
M  V30 872 O 80.8174 -0.0882665 1.82286 0
M  V30 873 C 80.8684 3.36487 1.32132 0
M  V30 874 O 80.5894 4.36693 0.350894 0
M  V30 875 C 82.0904 3.90682 2.09481 0
M  V30 876 H 79.3104 0.648244 0.173266 0
M  V30 877 H 81.8544 2.0417 -0.116134 0
M  V30 878 H 80.0094 3.30434 2.02218 0
M  V30 879 H 80.4234 5.17702 0.841735 0
M  V30 880 H 81.8974 4.90591 2.5303 0
M  V30 881 H 82.3744 3.26053 2.94255 0
M  V30 882 H 82.9804 4.00069 1.44307 0
M  V30 883 N 81.2955 -0.223234 1.56011 0
M  V30 884 C 82.5415 -0.949279 1.79211 0
M  V30 885 C 82.8745 -1.84054 0.619494 0
M  V30 886 O 82.1495 -1.90726 -0.381317 0
M  V30 887 C 82.4325 -1.78965 3.12479 0
M  V30 888 C 82.2855 -0.924997 4.40186 0
M  V30 889 C 83.6045 -2.76774 3.42175 0
M  V30 890 H 80.7235 -0.343676 0.651963 0
M  V30 891 H 83.3655 -0.218253 1.88742 0
M  V30 892 H 81.5155 -2.41291 3.04485 0
M  V30 893 H 83.1875 -0.318615 4.60198 0
M  V30 894 H 81.4305 -0.230344 4.33188 0
M  V30 895 H 82.1015 -1.54735 5.29869 0
M  V30 896 H 84.5775 -2.24584 3.50287 0
M  V30 897 H 83.4535 -3.32678 4.36597 0
M  V30 898 H 83.7145 -3.54429 2.64258 0
M  V30 899 N 82.7736 -1.49793 -0.48987 0
M  V30 900 C 83.6836 -1.70036 -1.61632 0
M  V30 901 C 84.6996 -0.583102 -1.63939 0
M  V30 902 O 85.8756 -0.859169 -1.82154 0
M  V30 903 C 82.9406 -1.77277 -2.97949 0
M  V30 904 C 82.0016 -3.00918 -3.06181 0
M  V30 905 C 81.2346 -3.07804 -4.35996 0
M  V30 906 O 81.4576 -2.21982 -5.25433 0
M  V30 907 O 80.3916 -4.00369 -4.49431 0
M  V30 908 H 84.2176 -2.65486 -1.47482 0
M  V30 909 H 81.8026 -1.33666 -0.667362 0
M  V30 910 H 83.6846 -1.84329 -3.78947 0
M  V30 911 H 82.3596 -0.850076 -3.12339 0
M  V30 912 H 81.2666 -2.99377 -2.2433 0
M  V30 913 H 82.5996 -3.92704 -2.96723 0
M  V30 914 N 84.2517 0.741722 -1.39055 0
M  V30 915 C 85.4977 1.50336 -1.36113 0
M  V30 916 C 85.8307 1.94148 0.0450796 0
M  V30 917 O 85.1057 1.66301 1.00868 0
M  V30 918 C 85.3887 2.74773 -2.32749 0
M  V30 919 C 85.2417 2.37023 -3.82283 0
M  V30 920 C 86.5607 3.76846 -2.27322 0
M  V30 921 H 83.6797 0.545351 -0.495743 0
M  V30 922 H 86.3217 0.848624 -1.69995 0
M  V30 923 H 84.4717 3.30639 -2.03986 0
M  V30 924 H 86.1437 1.8684 -4.21768 0
M  V30 925 H 84.3867 1.69334 -3.99385 0
M  V30 926 H 85.0577 3.26104 -4.45376 0
M  V30 927 H 87.5337 3.30548 -2.5274 0
M  V30 928 H 86.4097 4.6159 -2.97028 0
M  V30 929 H 86.6707 4.23286 -1.27599 0
M  V30 930 N 85.7298 1.2412 0.971189 0
M  V30 931 C 86.9768 1.07881 1.71371 0
M  V30 932 C 87.3048 -0.382901 1.90694 0
M  V30 933 O 86.5598 -1.29945 1.46331 0
M  V30 934 C 86.8588 1.75983 3.11071 0
M  V30 935 C 86.5248 3.25909 3.11599 0
M  V30 936 C 85.1868 3.66813 3.11451 0
M  V30 937 C 87.5388 4.21771 3.062 0
M  V30 938 C 84.8668 5.02021 3.03631 0
M  V30 939 C 87.2188 5.56982 2.99923 0
M  V30 940 C 85.8828 5.97237 2.98102 0
M  V30 941 H 85.1528 0.394764 0.62709 0
M  V30 942 H 87.7998 1.54176 1.13587 0
M  V30 943 H 86.1048 1.22072 3.72298 0
M  V30 944 H 87.8018 1.60887 3.6731 0
M  V30 945 H 84.3918 2.93353 3.12477 0
M  V30 946 H 88.5758 3.91172 3.05447 0
M  V30 947 H 83.8318 5.32411 3.0058 0
M  V30 948 H 88.0058 6.30969 2.94704 0
M  V30 949 H 85.6328 7.01967 2.91798 0
M  V30 950 N 87.2079 -1.17134 1.05439 0
M  V30 951 C 88.4559 -1.87085 0.764429 0
M  V30 952 C 88.7769 -1.81584 -0.710787 0
M  V30 953 O 88.0469 -1.24349 -1.51374 0
M  V30 954 H 86.6269 -0.692627 0.279779 0
M  V30 955 H 89.2889 -1.42087 1.33406 0
M  V30 956 H 88.3849 -2.92759 1.0816 0
M  V30 957 N 88.686 -0.835752 -1.33615 0
M  V30 958 C 89.932 -0.430596 -1.98176 0
M  V30 959 C 90.265 1.00684 -1.66061 0
M  V30 960 O 89.54 1.70339 -0.938877 0
M  V30 961 C 89.823 -0.648065 -3.5422 0
M  V30 962 C 89.676 -2.13255 -3.96033 0
M  V30 963 C 90.995 -0.0922113 -4.40003 0
M  V30 964 H 88.114 -0.157924 -0.719881 0
M  V30 965 H 90.756 -1.05069 -1.58305 0
M  V30 966 H 88.906 -0.120237 -3.88314 0
M  V30 967 H 90.578 -2.725 -3.72211 0
M  V30 968 H 88.821 -2.61823 -3.45878 0
M  V30 969 H 89.492 -2.23547 -5.04708 0
M  V30 970 H 91.968 -0.543343 -4.12537 0
M  V30 971 H 90.844 -0.274083 -5.48215 0
M  V30 972 H 91.105 1.00378 -4.30554 0
M  V30 973 N 90.1641 1.46063 -0.591896 0
M  V30 974 C 91.4131 2.01547 -0.0786637 0
M  V30 975 C 91.7261 1.46796 1.29268 0
M  V30 976 O 92.9321 1.94157 1.89777 0
M  V30 977 C 91.3881 3.59787 -0.0900024 0
M  V30 978 C 90.9961 4.23534 -1.46023 0
M  V30 979 C 92.7401 4.22895 0.368806 0
M  V30 980 C 90.6471 5.73881 -1.4288 0
M  V30 981 H 89.5771 0.753564 -0.0256388 0
M  V30 982 H 92.2281 1.677 -0.744905 0
M  V30 983 H 90.6101 3.90752 0.642586 0
M  V30 984 H 91.7841 4.04167 -2.21328 0
M  V30 985 H 90.0991 3.72558 -1.85982 0
M  V30 986 H 92.6961 5.33116 0.411258 0
M  V30 987 H 93.0391 3.9247 1.38827 0
M  V30 988 H 93.5721 3.9659 -0.31001 0
M  V30 989 H 90.3111 6.0898 -2.42536 0
M  V30 990 H 89.8311 5.95486 -0.718095 0
M  V30 991 H 91.5101 6.36776 -1.14565 0
M  V30 992 N 91.6422 0.330177 1.54103 0
M  V30 993 C 93.0582 -0.0222371 1.59585 0
M  V30 994 C 93.2582 -1.49902 1.34654 0
M  V30 995 O 92.3142 -2.25592 1.13421 0
M  V30 996 C 93.6272 0.401932 2.98002 0
M  V30 997 C 95.1752 0.353145 3.11001 0
M  V30 998 C 95.6502 0.752576 4.51775 0
M  V30 999 N 97.1412 0.706239 4.57784 0
M  V30 1000 C 97.8762 0.987417 5.64834 0
M  V30 1001 N 97.3722 1.33607 6.79795 0
M  V30 1002 N 99.1652 0.91254 5.54643 0
M  V30 1003 H 91.3162 1.29228 1.68564 0
M  V30 1004 H 93.5792 0.525906 0.78875 0
M  V30 1005 H 93.2852 1.4311 3.21267 0
M  V30 1006 H 93.1592 -0.229699 3.765 0
M  V30 1007 H 95.5462 -0.666822 2.87467 0
M  V30 1008 H 95.6272 1.0198 2.34593 0
M  V30 1009 H 95.2712 1.77049 4.76042 0
M  V30 1010 H 95.2012 0.0635409 5.26562 0
M  V30 1011 H 97.6922 0.44889 3.75224 0
M  V30 1012 H 98.0052 1.53582 7.57385 0
M  V30 1013 H 96.3502 1.37439 6.81275 0
M  V30 1014 H 99.5412 0.639601 4.6371 0
M  V30 1015 H 99.7142 1.13503 6.37982 0
M  V30 1016 N 93.1203 -1.57491 0.0584922 0
M  V30 1017 C 94.3453 -1.97711 -0.62652 0
M  V30 1018 C 94.7703 -0.936132 -1.63151 0
M  V30 1019 O 94.1283 0.099811 -1.81025 0
M  V30 1020 C 94.1763 -3.36989 -1.28338 0
M  V30 1021 O 93.2803 -3.35433 -2.39913 0
M  V30 1022 H 92.6213 -0.643868 -0.162266 0
M  V30 1023 H 95.1513 -2.04193 0.129064 0
M  V30 1024 H 95.1613 -3.73879 -1.63335 0
M  V30 1025 H 93.8363 -4.12289 -0.546889 0
M  V30 1026 H 92.4133 -3.10298 -2.06809 0
M  V30 1027 N 94.5984 0.214957 -1.56127 0
M  V30 1028 C 95.5284 1.2695 -1.95974 0
M  V30 1029 C 96.5094 1.48539 -0.828868 0
M  V30 1030 O 97.6944 1.60611 -1.09168 0
M  V30 1031 C 94.8244 2.61794 -2.28214 0
M  V30 1032 C 93.7784 2.54851 -3.43853 0
M  V30 1033 C 93.1044 3.93785 -3.61715 0
M  V30 1034 C 94.4044 2.09065 -4.78632 0
M  V30 1035 H 96.0984 0.93846 -2.84312 0
M  V30 1036 H 93.6444 0.449996 -1.36788 0
M  V30 1037 H 95.5974 3.35731 -2.54682 0
M  V30 1038 H 94.3214 2.96599 -1.36736 0
M  V30 1039 H 92.9804 1.8337 -3.17444 0
M  V30 1040 H 92.6284 4.25908 -2.67602 0
M  V30 1041 H 92.3284 3.90019 -4.39498 0
M  V30 1042 H 93.8524 4.69374 -3.90539 0
M  V30 1043 H 95.2664 2.7275 -5.04262 0
M  V30 1044 H 93.6634 2.16346 -5.59745 0
M  V30 1045 H 94.7334 1.04315 -4.73547 0
M  V30 1046 N 96.0765 1.50051 0.48192 0
M  V30 1047 C 97.0095 1.62749 1.59963 0
M  V30 1048 C 97.9875 0.475903 1.5548 0
M  V30 1049 O 99.1715 0.693986 1.7526 0
M  V30 1050 C 96.2985 1.60008 2.98522 0
M  V30 1051 C 95.3445 2.80596 3.21198 0
M  V30 1052 S 96.1775 4.42038 3.02262 0
M  V30 1053 C 97.3335 4.41973 4.43182 0
M  V30 1054 H 97.5665 2.57296 1.4895 0
M  V30 1055 H 95.0995 1.39179 0.668477 0
M  V30 1056 H 97.0575 1.59112 3.78409 0
M  V30 1057 H 95.7185 0.667153 3.06933 0
M  V30 1058 H 94.9115 2.74952 4.22395 0
M  V30 1059 H 94.5135 2.79003 2.49065 0
M  V30 1060 H 96.8055 4.14868 5.35622 0
M  V30 1061 H 97.7485 5.43512 4.53873 0
M  V30 1062 H 98.1565 3.71812 4.24755 0
M  V30 1063 N 97.5546 -0.734337 1.39446 0
M  V30 1064 C 98.5176 -1.83004 1.37994 0
M  V30 1065 C 99.5176 -1.58397 0.276938 0
M  V30 1066 O 100.708 -1.65785 0.534875 0
M  V30 1067 C 97.8396 -3.20802 1.1532 0
M  V30 1068 H 99.0326 -1.85694 2.35494 0
M  V30 1069 H 96.5856 -0.938059 1.25021 0
M  V30 1070 H 97.3206 -3.23772 0.185036 0
M  V30 1071 H 97.1056 -3.4006 1.95197 0
M  V30 1072 H 98.5956 -4.00862 1.17046 0
M  V30 1073 N 99.0327 -1.24633 -0.964593 0
M  V30 1074 C 100.28 -1.08788 -1.70796 0
M  V30 1075 C 100.608 0.372783 -1.90894 0
M  V30 1076 O 99.8627 1.29167 -1.47018 0
M  V30 1077 C 100.162 -1.7763 -3.10133 0
M  V30 1078 C 99.8277 -3.27557 -3.09866 0
M  V30 1079 C 98.4897 -3.6846 -3.09501 0
M  V30 1080 C 100.842 -4.23389 -3.03959 0
M  V30 1081 C 98.1697 -5.03624 -3.00965 0
M  V30 1082 C 100.522 -5.58565 -2.96965 0
M  V30 1083 C 99.1857 -5.98809 -2.9493 0
M  V30 1084 H 98.4557 -0.398084 -0.624988 0
M  V30 1085 H 101.103 -1.54777 -1.12767 0
M  V30 1086 H 99.4077 -1.24044 -3.71645 0
M  V30 1087 H 101.105 -1.62832 -3.66451 0
M  V30 1088 H 97.6947 -2.95006 -3.10917 0
M  V30 1089 H 101.879 -3.92787 -3.03368 0
M  V30 1090 H 97.1347 -5.33998 -2.97752 0
M  V30 1091 H 101.309 -6.32523 -2.91354 0
M  V30 1092 H 98.9357 -7.03505 -2.88071 0
M  V30 1093 N 100.511 1.16574 -1.06058 0
M  V30 1094 C 101.927 1.3904 -0.783585 0
M  V30 1095 C 102.127 1.91784 0.618145 0
M  V30 1096 O 101.183 2.11511 1.37911 0
M  V30 1097 C 102.496 2.37329 -1.84649 0
M  V30 1098 C 104.044 2.51018 -1.86973 0
M  V30 1099 C 104.519 3.52588 -2.92311 0
M  V30 1100 N 106.01 3.60113 -2.91329 0
M  V30 1101 C 106.745 4.38486 -3.69482 0
M  V30 1102 N 106.241 5.20302 -4.57447 0
M  V30 1103 N 108.034 4.33446 -3.57885 0
M  V30 1104 H 100.185 0.806725 -1.96483 0
M  V30 1105 H 102.448 0.417117 -0.851303 0
M  V30 1106 H 102.154 2.05663 -2.85299 0
M  V30 1107 H 102.028 3.36946 -1.6955 0
M  V30 1108 H 104.415 2.81989 -0.869827 0
M  V30 1109 H 104.496 1.51445 -2.0615 0
M  V30 1110 H 104.14 3.22354 -3.92492 0
M  V30 1111 H 104.07 4.51886 -2.70383 0
M  V30 1112 H 106.561 3.01707 -2.27555 0
M  V30 1113 H 106.874 5.77311 -5.13743 0
M  V30 1114 H 105.219 5.19653 -4.61503 0
M  V30 1115 H 108.41 3.68586 -2.88551 0
M  V30 1116 H 108.583 4.94279 -4.19037 0
M  V30 1117 N 101.989 0.842826 1.3317 0
M  V30 1118 C 102.919 0.294028 2.31641 0
M  V30 1119 C 103.9 -0.600401 1.59151 0
M  V30 1120 O 105.085 -0.523124 1.87022 0
M  V30 1121 C 102.215 -0.528416 3.43257 0
M  V30 1122 C 101.169 0.27056 4.27144 0
M  V30 1123 C 100.495 -0.675881 5.30411 0
M  V30 1124 C 101.795 1.48981 5.00602 0
M  V30 1125 H 103.489 1.11681 2.77791 0
M  V30 1126 H 101.035 0.538478 1.33553 0
M  V30 1127 H 102.988 -0.922674 4.11175 0
M  V30 1128 H 101.712 -1.38445 2.95805 0
M  V30 1129 H 100.371 0.646427 3.60856 0
M  V30 1130 H 100.019 -1.52842 4.79216 0
M  V30 1131 H 99.7189 -0.145374 5.8742 0
M  V30 1132 H 101.243 -1.06757 6.01195 0
M  V30 1133 H 102.657 1.16849 5.61266 0
M  V30 1134 H 101.054 1.95739 5.6728 0
M  V30 1135 H 102.124 2.25746 4.29147 0
M  V30 1136 N 103.467 -1.45747 0.599634 0
M  V30 1137 C 104.695 -2.06668 0.0978551 0
M  V30 1138 C 105.11 -1.44562 -1.21439 0
M  V30 1139 O 104.467 -0.556923 -1.73795 0
M  V30 1140 C 104.518 -3.61456 -0.0567044 0
M  V30 1141 O 104.239 -4.21242 1.20361 0
M  V30 1142 C 105.74 -4.39345 -0.590869 0
M  V30 1143 H 102.96 -0.667825 0.0651943 0
M  V30 1144 H 105.504 -1.87115 0.82511 0
M  V30 1145 H 103.659 -3.80378 -0.734251 0
M  V30 1146 H 104.073 -5.14323 1.02821 0
M  V30 1147 H 105.547 -5.48182 -0.648131 0
M  V30 1148 H 106.024 -4.08568 -1.61147 0
M  V30 1149 H 106.63 -4.25268 0.0523679 0
M  V30 1150 N 104.945 -0.338344 -1.53925 0
M  V30 1151 C 106.193 0.259245 -2.0043 0
M  V30 1152 C 106.514 1.51484 -1.22791 0
M  V30 1153 O 105.784 1.93037 -0.33368 0
M  V30 1154 H 104.364 0.0987845 -0.740439 0
M  V30 1155 H 107.026 -0.458302 -1.89435 0
M  V30 1156 H 106.122 0.505334 -3.07982 0
M  V30 1157 N 106.423 1.57458 -0.0668435 0
M  V30 1158 C 107.671 1.92919 0.602214 0
M  V30 1159 C 107.992 0.947215 1.70449 0
M  V30 1160 O 107.262 -0.00544117 1.95899 0
M  V30 1161 H 105.842 0.71217 0.22544 0
M  V30 1162 H 108.504 1.94508 -0.123535 0
M  V30 1163 H 107.6 2.94589 1.03073 0
M  V30 1164 N 107.901 -0.206675 1.56239 0
M  V30 1165 C 109.129 -0.945345 1.8404 0
M  V30 1166 C 109.544 -1.77336 0.647885 0
M  V30 1167 O 108.901 -1.78425 -0.383511 0
M  V30 1168 C 108.952 -1.8509 3.10522 0
M  V30 1169 O 108.673 -1.05634 4.25174 0
M  V30 1170 C 110.174 -2.70222 3.51418 0
M  V30 1171 H 107.394 -0.276372 0.61144 0
M  V30 1172 H 109.938 -0.217417 2.03341 0
M  V30 1173 H 108.093 -2.53259 2.93153 0
M  V30 1174 H 108.507 -1.67238 4.97124 0
M  V30 1175 H 109.981 -3.29438 4.42916 0
M  V30 1176 H 110.458 -3.43358 2.73864 0
M  V30 1177 H 111.064 -2.07443 3.71278 0
M  V30 1178 N 109.379 -1.50304 -0.473955 0
M  V30 1179 C 110.326 -1.68959 -1.57231 0
M  V30 1180 C 111.296 -0.530899 -1.57387 0
M  V30 1181 O 112.481 -0.761133 -1.74961 0
M  V30 1182 C 109.621 -1.7871 -2.95223 0
M  V30 1183 C 108.734 -3.06061 -3.04878 0
M  V30 1184 C 107.869 -3.06626 -4.33767 0
M  V30 1185 C 106.908 -4.28443 -4.37154 0
M  V30 1186 N 106.045 -4.26763 -5.5751 0
M  V30 1187 H 110.885 -2.6273 -1.40631 0
M  V30 1188 H 108.422 -1.30241 -0.683789 0
M  V30 1189 H 110.38 -1.82344 -3.75242 0
M  V30 1190 H 109.01 -0.883806 -3.10465 0
M  V30 1191 H 108.062 -3.11911 -2.17751 0
M  V30 1192 H 109.374 -3.96039 -3.0324 0
M  V30 1193 H 108.528 -3.08973 -5.22131 0
M  V30 1194 H 107.267 -2.14473 -4.3801 0
M  V30 1195 H 106.272 -4.2631 -3.47188 0
M  V30 1196 H 107.497 -5.2182 -4.34605 0
M  V30 1197 H 105.443 -3.37462 -5.62544 0
M  V30 1198 H 105.36 -5.10507 -5.57601 0
M  V30 1199 H 106.628 -4.33253 -6.48006 0
M  V30 1200 N 110.857 0.726932 -1.39834 0
M  V30 1201 C 112.134 1.47902 -1.28001 0
M  V30 1202 C 112.514 2.1083 0.106789 0
M  V30 1203 O 111.862 1.99242 1.11869 0
M  V30 1204 C 112.072 2.52392 -2.41038 0
M  V30 1205 C 113.42 3.18546 -2.80737 0
M  V30 1206 O 114.444 2.62708 -2.40547 0
M  V30 1207 O 113.303 4.19604 -3.50135 0
M  V30 1208 H 110.397 0.657163 -0.502062 0
M  V30 1209 H 112.943 0.760071 -1.51727 0
M  V30 1210 H 111.715 2.04329 -3.33715 0
M  V30 1211 H 111.338 3.31837 -2.19021 0
M  V30 1212 N 112.336 1.25143 0.95797 0
M  V30 1213 C 113.566 1.12261 1.73439 0
M  V30 1214 C 113.974 -0.326715 1.86358 0
M  V30 1215 O 113.317 -1.2367 1.35836 0
M  V30 1216 C 113.379 1.69966 3.16784 0
M  V30 1217 C 113.043 3.18936 3.27305 0
M  V30 1218 C 114.04 4.15968 3.11877 0
M  V30 1219 C 111.725 3.59083 3.51234 0
M  V30 1220 C 113.719 5.51126 3.20217 0
M  V30 1221 C 111.406 4.9438 3.5921 0
M  V30 1222 C 112.404 5.90211 3.43716 0
M  V30 1223 O 112.092 7.23046 3.51368 0
M  V30 1224 H 111.824 0.392476 0.550399 0
M  V30 1225 H 114.378 1.65927 1.21068 0
M  V30 1226 H 112.608 1.10744 3.70503 0
M  V30 1227 H 114.297 1.52232 3.76272 0
M  V30 1228 H 115.063 3.86292 2.93264 0
M  V30 1229 H 110.942 2.84989 3.62356 0
M  V30 1230 H 114.486 6.25905 3.0804 0
M  V30 1231 H 110.383 5.23723 3.77339 0
M  V30 1232 H 111.151 7.31097 3.6802 0
M  V30 1233 N 113.814 -1.1601 1.06675 0
M  V30 1234 C 115.063 -1.85973 0.780818 0
M  V30 1235 C 115.376 -1.82819 -0.695444 0
M  V30 1236 O 116.582 -2.484 -1.09589 0
M  V30 1237 C 115.038 -3.33757 1.34665 0
M  V30 1238 C 114.646 -3.45374 2.85343 0
M  V30 1239 C 116.39 -4.0895 1.13843 0
M  V30 1240 C 114.297 -4.87266 3.35151 0
M  V30 1241 H 113.227 -0.696661 0.288407 0
M  V30 1242 H 115.878 -1.30903 1.28595 0
M  V30 1243 H 114.26 -3.88456 0.769274 0
M  V30 1244 H 115.434 -3.00816 3.49065 0
M  V30 1245 H 113.749 -2.83619 3.04876 0
M  V30 1246 H 116.346 -5.13654 1.4854 0
M  V30 1247 H 116.689 -4.16229 0.0770282 0
M  V30 1248 H 117.222 -3.605 1.68179 0
M  V30 1249 H 113.961 -4.85168 4.40786 0
M  V30 1250 H 113.481 -5.32433 2.76179 0
M  V30 1251 H 115.16 -5.56097 3.30704 0
M  V30 1252 N 115.292 -0.849877 -1.32721 0
M  V30 1253 C 116.538 -0.451591 -1.97708 0
M  V30 1254 C 116.871 0.989175 -1.6712 0
M  V30 1255 O 116.146 1.69334 -0.956891 0
M  V30 1256 C 116.429 -0.685598 -3.53513 0
M  V30 1257 C 116.282 -2.17444 -3.93749 0
M  V30 1258 C 117.601 -0.138874 -4.39881 0
M  V30 1259 H 114.72 -0.16555 -0.718166 0
M  V30 1260 H 117.362 -1.06742 -1.57182 0
M  V30 1261 H 115.512 -0.161416 -3.88165 0
M  V30 1262 H 117.184 -2.76433 -3.693 0
M  V30 1263 H 115.427 -2.65476 -3.43081 0
M  V30 1264 H 116.098 -2.28888 -5.02309 0
M  V30 1265 H 118.574 -0.587068 -4.11938 0
M  V30 1266 H 117.45 -0.332213 -5.47894 0
M  V30 1267 H 117.711 0.95806 -4.31594 0
M  V30 1268 N 116.77 1.45427 -0.607355 0
M  V30 1269 C 118.016 2.0254 -0.102607 0
M  V30 1270 C 118.349 1.47478 1.26348 0
M  V30 1271 O 117.624 0.64939 1.83339 0
M  V30 1272 C 117.907 3.60044 -0.0634347 0
M  V30 1273 C 117.76 4.2544 -1.46017 0
M  V30 1274 C 119.079 4.35646 0.624514 0
M  V30 1275 H 116.198 0.73598 -0.0387607 0
M  V30 1276 H 118.84 1.73284 -0.779282 0
M  V30 1277 H 116.99 3.85101 0.512808 0
M  V30 1278 H 118.662 4.11569 -2.08347 0
M  V30 1279 H 116.905 3.83849 -2.02094 0
M  V30 1280 H 117.576 5.34342 -1.385 0
M  V30 1281 H 120.052 4.15882 0.134723 0
M  V30 1282 H 118.928 5.45376 0.621028 0
M  V30 1283 H 119.189 4.08501 1.69055 0
M  V30 1284 N 118.248 0.346503 1.53744 0
M  V30 1285 C 119.496 -0.248612 2.00565 0
M  V30 1286 C 119.817 -1.5083 1.23593 0
M  V30 1287 O 119.087 -1.92858 0.343912 0
M  V30 1288 H 117.667 -0.0948564 0.740953 0
M  V30 1289 H 120.329 0.468341 1.89189 0
M  V30 1290 H 119.425 -0.488994 3.08245 0
M  V30 1291 N 119.726 -1.57421 0.075193 0
M  V30 1292 C 120.951 -1.98364 -0.605515 0
M  V30 1293 C 121.376 -0.953383 -1.62149 0
M  V30 1294 O 120.734 0.0806053 -1.81121 0
M  V30 1295 C 120.782 -3.38332 -1.24756 0
M  V30 1296 O 119.886 -3.37959 -2.36342 0
M  V30 1297 H 119.227 -0.645553 -0.155428 0
M  V30 1298 H 121.757 -2.04044 0.150714 0
M  V30 1299 H 121.767 -3.75591 -1.5936 0
M  V30 1300 H 120.442 -4.12846 -0.503129 0
M  V30 1301 H 119.019 -3.12474 -2.03506 0
M  V30 1302 N 121.204 0.198386 -1.56346 0
M  V30 1303 C 122.481 0.944982 -1.71258 0
M  V30 1304 C 122.861 2.0151 -0.629048 0
M  V30 1305 O 122.209 2.25639 0.360473 0
M  V30 1306 C 122.419 1.5344 -3.1346 0
M  V30 1307 C 123.767 2.01778 -3.73591 0
M  V30 1308 O 124.791 1.63288 -3.16568 0
M  V30 1309 O 123.65 2.72594 -4.73661 0
M  V30 1310 H 120.744 0.442939 -0.69838 0
M  V30 1311 H 123.29 0.188342 -1.68652 0
M  V30 1312 H 122.062 0.762869 -3.83792 0
M  V30 1313 H 121.685 2.35596 -3.20282 0
M  V30 1314 N 122.682 1.50554 0.465978 0
M  V30 1315 C 123.907 1.65838 1.24549 0
M  V30 1316 C 124.332 0.343486 1.84937 0
M  V30 1317 O 123.69 -0.69324 1.67523 0
M  V30 1318 C 123.738 2.75533 2.32624 0
M  V30 1319 O 122.842 2.37142 3.37398 0
M  V30 1320 H 122.183 0.553893 0.366194 0
M  V30 1321 H 124.713 1.96959 0.553927 0
M  V30 1322 H 124.723 2.98763 2.77857 0
M  V30 1323 H 123.398 3.70962 1.88043 0
M  V30 1324 H 121.975 2.24377 2.97841 0
M  V30 1325 N 124.16 -0.719506 1.40217 0
M  V30 1326 C 125.408 -1.47641 1.3801 0
M  V30 1327 C 125.729 -1.94992 -0.018145 0
M  V30 1328 O 124.999 -1.70073 -0.972207 0
M  V30 1329 H 123.579 -0.547744 0.507923 0
M  V30 1330 H 126.241 -0.853187 1.75233 0
M  V30 1331 H 125.337 -2.35112 2.05253 0
M  V30 1332 N 125.638 -1.25649 -0.95132 0
M  V30 1333 C 127.054 -1.02542 -1.223 0
M  V30 1334 C 127.254 0.255715 -1.99871 0
M  V30 1335 O 126.31 0.967558 -2.33226 0
M  V30 1336 C 127.623 -2.25065 -1.99415 0
M  V30 1337 C 129.171 -2.29861 -2.12446 0
M  V30 1338 C 129.646 -3.52048 -2.92961 0
M  V30 1339 N 131.137 -3.52465 -3.00538 0
M  V30 1340 C 131.872 -4.43672 -3.63239 0
M  V30 1341 N 131.368 -5.45157 -4.27523 0
M  V30 1342 N 133.161 -4.31346 -3.60412 0
M  V30 1343 H 125.312 -2.07951 -0.432471 0
M  V30 1344 H 127.575 -0.91339 -0.253816 0
M  V30 1345 H 127.281 -3.18194 -1.49817 0
M  V30 1346 H 127.155 -2.28502 -3.00111 0
M  V30 1347 H 129.542 -1.37252 -2.61239 0
M  V30 1348 H 129.623 -2.3044 -1.11044 0
M  V30 1349 H 129.267 -4.44981 -2.44856 0
M  V30 1350 H 129.197 -3.48715 -3.94596 0
M  V30 1351 H 131.688 -2.79056 -2.54826 0
M  V30 1352 H 132.001 -6.10958 -4.73234 0
M  V30 1353 H 130.346 -5.49025 -4.26141 0
M  V30 1354 H 133.537 -3.51288 -3.09377 0
M  V30 1355 H 133.71 -5.02624 -4.0899 0
M  V30 1356 N 127.117 1.15442 -1.07289 0
M  V30 1357 C 128.366 1.85557 -0.790669 0
M  V30 1358 C 128.679 1.83186 0.685739 0
M  V30 1359 O 129.885 2.48977 1.0827 0
M  V30 1360 C 128.341 3.33038 -1.36433 0
M  V30 1361 C 127.949 3.43856 -2.8717 0
M  V30 1362 C 129.693 4.0834 -1.1601 0
M  V30 1363 C 127.6 4.85482 -3.3773 0
M  V30 1364 H 126.53 0.695122 -0.292098 0
M  V30 1365 H 129.181 1.30219 -1.29287 0
M  V30 1366 H 127.563 3.88043 -0.789864 0
M  V30 1367 H 128.737 2.98961 -3.50655 0
M  V30 1368 H 127.052 2.81998 -3.06376 0
M  V30 1369 H 129.649 5.12859 -1.51262 0
M  V30 1370 H 129.992 4.16182 -0.0991007 0
M  V30 1371 H 130.525 3.59603 -1.70089 0
M  V30 1372 H 127.264 4.82823 -4.43353 0
M  V30 1373 H 126.784 5.30961 -2.78999 0
M  V30 1374 H 128.463 5.54335 -3.33648 0
M  V30 1375 N 128.595 0.856903 1.32268 0
M  V30 1376 C 129.841 0.462069 1.97466 0
M  V30 1377 C 130.174 -0.980298 1.67642 0
M  V30 1378 O 129.449 -1.68824 0.965858 0
M  V30 1379 C 129.732 0.704336 3.53145 0
M  V30 1380 C 129.585 2.19529 3.9259 0
M  V30 1381 C 130.904 0.1622 4.39801 0
M  V30 1382 H 128.023 0.169357 0.717278 0
M  V30 1383 H 130.665 1.07574 1.56614 0
M  V30 1384 H 128.815 0.181999 3.88073 0
M  V30 1385 H 130.487 2.78387 3.67829 0
M  V30 1386 H 128.73 2.67292 3.41668 0
M  V30 1387 H 129.401 2.31549 5.01088 0
M  V30 1388 H 131.877 0.608905 4.11621 0
M  V30 1389 H 130.753 0.361265 5.4771 0
M  V30 1390 H 131.014 -0.935158 4.32096 0
M  V30 1391 N 130.073 -1.45103 0.615059 0
M  V30 1392 C 131.322 -2.01396 0.110718 0
M  V30 1393 C 131.635 -1.48834 -1.26916 0
M  V30 1394 O 132.841 -1.97152 -1.86664 0
M  V30 1395 C 131.297 -3.59599 0.14723 0
M  V30 1396 C 130.905 -4.21158 1.52743 0
M  V30 1397 C 132.649 -4.23428 -0.30148 0
M  V30 1398 C 130.556 -5.71535 1.51992 0
M  V30 1399 H 129.486 -0.753061 0.0376241 0
M  V30 1400 H 132.137 -1.66494 0.77149 0
M  V30 1401 H 130.519 -3.91724 -0.580339 0
M  V30 1402 H 131.693 -4.00594 2.2773 0
M  V30 1403 H 130.008 -3.69552 1.91886 0
M  V30 1404 H 132.605 -5.33703 -0.326392 0
M  V30 1405 H 132.948 -3.94629 -1.32565 0
M  V30 1406 H 133.481 -3.96047 0.373065 0
M  V30 1407 H 130.22 -6.05044 2.52193 0
M  V30 1408 H 129.74 -5.94268 0.81274 0
M  V30 1409 H 131.419 -6.34873 1.24681 0
M  V30 1410 N 131.551 -0.354651 -1.53558 0
M  V30 1411 C 132.481 0.489091 -2.2832 0
M  V30 1412 C 133.462 1.09324 -1.30316 0
M  V30 1413 O 134.647 1.11255 -1.59173 0
M  V30 1414 C 131.777 1.63456 -3.0643 0
M  V30 1415 C 130.731 1.1582 -4.12031 0
M  V30 1416 C 130.057 2.39305 -4.7816 0
M  V30 1417 C 131.357 0.250731 -5.21698 0
M  V30 1418 H 133.051 -0.134614 -2.99097 0
M  V30 1419 H 130.597 -0.0661826 -1.43848 0
M  V30 1420 H 132.55 2.23136 -3.57475 0
M  V30 1421 H 131.274 2.28533 -2.33325 0
M  V30 1422 H 129.933 0.584146 -3.61916 0
M  V30 1423 H 129.581 3.02814 -4.01637 0
M  V30 1424 H 129.281 2.08109 -5.49513 0
M  V30 1425 H 130.805 2.99691 -5.31994 0
M  V30 1426 H 132.219 0.754695 -5.68311 0
M  V30 1427 H 130.616 0.0301468 -6.00092 0
M  V30 1428 H 131.686 -0.710125 -4.79672 0
M  V30 1429 N 133.029 1.57378 -0.0835403 0
M  V30 1430 C 133.939 2.16897 0.894021 0
M  V30 1431 C 134.955 1.13528 1.31861 0
M  V30 1432 O 136.131 1.45848 1.3889 0
M  V30 1433 C 133.196 2.72831 2.13925 0
M  V30 1434 C 132.257 3.91115 1.76997 0
M  V30 1435 C 131.49 4.44371 2.95584 0
M  V30 1436 O 131.713 3.96596 4.09961 0
M  V30 1437 O 130.647 5.35549 2.74719 0
M  V30 1438 H 134.473 3.00814 0.417679 0
M  V30 1439 H 132.058 1.48741 0.140181 0
M  V30 1440 H 133.94 3.0863 2.86924 0
M  V30 1441 H 132.615 1.91967 2.60635 0
M  V30 1442 H 131.522 3.60148 1.01214 0
M  V30 1443 H 132.855 4.73307 1.3506 0
M  V30 1444 N 134.507 -0.190092 1.56449 0
M  V30 1445 C 135.737 -0.92443 1.84764 0
M  V30 1446 C 136.145 -1.77146 0.664529 0
M  V30 1447 O 135.488 -1.79812 -0.375957 0
M  V30 1448 C 135.55 -1.86651 3.07248 0
M  V30 1449 C 135.214 -1.20094 4.40938 0
M  V30 1450 C 136.211 -0.575445 5.16706 0
M  V30 1451 C 133.896 -1.2033 4.87674 0
M  V30 1452 C 135.89 0.0388111 6.37388 0
M  V30 1453 C 133.577 -0.585214 6.08291 0
M  V30 1454 C 134.575 0.0347578 6.82991 0
M  V30 1455 O 134.263 0.643147 8.01323 0
M  V30 1456 H 133.995 -0.274974 0.617548 0
M  V30 1457 H 136.549 -0.200788 2.04416 0
M  V30 1458 H 134.779 -2.62998 2.83494 0
M  V30 1459 H 136.468 -2.46907 3.22167 0
M  V30 1460 H 137.234 -0.565728 4.81689 0
M  V30 1461 H 133.113 -1.67526 4.29484 0
M  V30 1462 H 136.657 0.523329 6.95634 0
M  V30 1463 H 132.554 -0.592451 6.42775 0
M  V30 1464 H 133.322 0.540545 8.16713 0
M  V30 1465 N 135.985 -1.50799 -0.457987 0
M  V30 1466 C 136.917 -1.66786 -1.57211 0
M  V30 1467 C 137.93 -0.548962 -1.53265 0
M  V30 1468 O 139.119 -0.8226 -1.58416 0
M  V30 1469 C 136.219 -1.64834 -2.96113 0
M  V30 1470 C 135.392 -2.92971 -3.24787 0
M  V30 1471 C 134.451 -2.83485 -4.43309 0
M  V30 1472 O 133.477 -3.5744 -4.42973 0
M  V30 1473 N 134.679 -1.97929 -5.45714 0
M  V30 1474 H 137.444 -2.62889 -1.43909 0
M  V30 1475 H 135.005 -1.48427 -0.646617 0
M  V30 1476 H 136.997 -1.56084 -3.7339 0
M  V30 1477 H 135.567 -0.764118 -3.03117 0
M  V30 1478 H 134.787 -3.15749 -2.36 0
M  V30 1479 H 136.075 -3.77834 -3.40762 0
M  V30 1480 H 135.473 -1.37182 -5.48815 0
M  V30 1481 H 134.03 -1.95073 -6.21924 0
M  V30 1482 N 137.463 0.71206 -1.40597 0
M  V30 1483 C 138.874 1.29135 -1.34837 0
M  V30 1484 C 139.225 1.96186 -0.0235395 0
M  V30 1485 O 138.35 1.97768 0.878444 0
M  V30 1486 C 138.945 2.34827 -2.44217 0
M  V30 1487 C 137.504 2.88371 -2.41907 0
M  V30 1488 C 136.651 1.62202 -2.24913 0
M  V30 1489 H 139.602 0.507944 -1.50352 0
M  V30 1490 H 139.623 3.15749 -2.12327 0
M  V30 1491 H 139.135 1.85996 -3.40627 0
M  V30 1492 H 137.236 3.41422 -1.49204 0
M  V30 1493 H 137.349 3.39925 -3.37621 0
M  V30 1494 H 135.713 1.874 -1.72492 0
M  V30 1495 H 136.496 1.15391 -3.23326 0
M  V30 1496 N 138.941 1.26152 0.944643 0
M  V30 1497 C 140.166 1.14363 1.7302 0
M  V30 1498 C 140.591 -0.29772 1.85729 0
M  V30 1499 O 139.949 -1.2157 1.34501 0
M  V30 1500 C 139.997 1.81378 3.11664 0
M  V30 1501 O 139.101 1.10022 3.97453 0
M  V30 1502 H 138.442 0.398694 0.53098 0
M  V30 1503 H 140.972 1.66906 1.18337 0
M  V30 1504 H 140.982 1.88064 3.62072 0
M  V30 1505 H 139.657 2.86237 3.0173 0
M  V30 1506 H 138.234 1.11287 3.55907 0
M  V30 1507 N 140.419 -1.14872 1.07899 0
M  V30 1508 C 141.366 -2.19791 0.704319 0
M  V30 1509 C 142.336 -1.63238 -0.306987 0
M  V30 1510 O 143.521 -1.8983 -0.192171 0
M  V30 1511 C 140.661 -3.44911 0.114244 0
M  V30 1512 C 139.774 -4.15637 1.1777 0
M  V30 1513 C 138.909 -5.28324 0.552037 0
M  V30 1514 C 137.948 -5.90875 1.59789 0
M  V30 1515 N 137.085 -6.95022 0.994404 0
M  V30 1516 H 141.925 -2.5119 1.60336 0
M  V30 1517 H 139.462 -1.23356 0.801352 0
M  V30 1518 H 141.42 -4.16477 -0.245544 0
M  V30 1519 H 140.05 -3.14011 -0.74813 0
M  V30 1520 H 139.102 -3.42512 1.65499 0
M  V30 1521 H 140.414 -4.5823 1.97046 0
M  V30 1522 H 139.568 -6.06538 0.1402 0
M  V30 1523 H 138.307 -4.86939 -0.272431 0
M  V30 1524 H 137.312 -5.11369 2.01945 0
M  V30 1525 H 138.537 -6.34337 2.42474 0
M  V30 1526 H 136.483 -6.55722 0.190939 0
M  V30 1527 H 136.4 -7.36073 1.72432 0
M  V30 1528 H 137.668 -7.77123 0.608253 0
M  V30 1529 N 141.898 -0.863906 -1.31812 0
M  V30 1530 C 142.846 -0.30422 -2.30602 0
M  V30 1531 C 143.84 0.577419 -1.59255 0
M  V30 1532 O 145.046 0.464194 -1.73912 0
M  V30 1533 H 141.421 -0.0796877 -0.747766 0
M  V30 1534 H 143.392 -1.15148 -2.75288 0
M  V30 1535 C 142.141 0.484617 -3.44306 0
M  V30 1536 H 141.464 -0.18451 -3.99374 0
M  V30 1537 H 142.904 0.841664 -4.15562 0
M  V30 1538 C 141.363 1.6735 -2.92396 0
M  V30 1539 O 141.893 2.77273 -2.90659 0
M  V30 1540 N 140.099 1.50362 -2.48676 0
M  V30 1541 H 139.646 0.609402 -2.50288 0
M  V30 1542 H 139.604 2.30051 -2.14299 0
M  V30 1543 N 143.376 1.44774 -0.622745 0
M  V30 1544 C 144.309 2.27792 0.136329 0
M  V30 1545 C 145.287 1.38041 0.859264 0
M  V30 1546 O 146.471 1.67478 0.86506 0
M  V30 1547 C 143.598 3.16776 1.19878 0
M  V30 1548 C 142.644 4.22575 0.57731 0
M  V30 1549 S 143.477 5.31825 -0.626294 0
M  V30 1550 C 144.633 6.24377 0.436378 0
M  V30 1551 H 144.866 2.91824 -0.567967 0
M  V30 1552 H 142.399 1.48838 -0.410677 0
M  V30 1553 H 144.357 3.68596 1.80686 0
M  V30 1554 H 143.018 2.5198 1.87523 0
M  V30 1555 H 142.211 4.84818 1.37721 0
M  V30 1556 H 141.813 3.73974 0.0440439 0
M  V30 1557 H 144.105 6.64689 1.31128 0
M  V30 1558 H 145.048 7.07941 -0.150271 0
M  V30 1559 H 145.456 5.59381 0.758513 0
M  V30 1560 N 144.854 0.36279 1.53368 0
M  V30 1561 C 146.101 -0.227776 2.01215 0
M  V30 1562 C 146.429 -1.49003 1.25014 0
M  V30 1563 O 145.684 -1.92876 0.331236 0
M  V30 1564 C 145.983 -0.568417 3.52851 0
M  V30 1565 C 145.649 0.59918 4.46901 0
M  V30 1566 C 144.311 0.919559 4.72332 0
M  V30 1567 C 146.663 1.38156 5.02556 0
M  V30 1568 C 143.991 2.02434 5.5067 0
M  V30 1569 C 146.343 2.47674 5.821 0
M  V30 1570 C 145.007 2.8025 6.05819 0
M  V30 1571 H 144.277 -0.083349 0.736297 0
M  V30 1572 H 146.924 0.494677 1.85001 0
M  V30 1573 H 145.229 -1.37185 3.66998 0
M  V30 1574 H 146.926 -1.03756 3.87344 0
M  V30 1575 H 143.516 0.339437 4.27254 0
M  V30 1576 H 147.7 1.14729 4.82857 0
M  V30 1577 H 142.956 2.28075 5.67267 0
M  V30 1578 H 147.13 3.08716 6.24234 0
M  V30 1579 H 144.757 3.65979 6.66306 0
M  V30 1580 N 146.332 -1.57332 0.0918853 0
M  V30 1581 C 147.242 -2.17368 -0.882505 0
M  V30 1582 C 148.258 -1.14226 -1.31257 0
M  V30 1583 O 149.434 -1.46582 -1.38115 0
M  V30 1584 C 146.499 -2.73962 -2.12476 0
M  V30 1585 C 145.56 -3.92048 -1.7492 0
M  V30 1586 C 144.793 -4.45933 -2.93223 0
M  V30 1587 O 145.016 -3.98764 -4.07852 0
M  V30 1588 O 143.95 -5.36999 -2.71875 0
M  V30 1589 H 147.776 -3.01031 -0.40172 0
M  V30 1590 H 145.361 -1.48813 -0.132291 0
M  V30 1591 H 147.243 -3.10147 -2.85283 0
M  V30 1592 H 145.918 -1.93347 -2.59613 0
M  V30 1593 H 144.825 -3.6068 -0.993025 0
M  V30 1594 H 146.158 -4.74017 -1.32548 0
M  V30 1595 N 147.81 0.181792 -1.56548 0
M  V30 1596 C 148.757 1.22521 -1.95595 0
M  V30 1597 C 149.727 1.4454 -0.818373 0
M  V30 1598 O 150.912 1.57454 -1.07763 0
M  V30 1599 C 148.052 2.56193 -2.31212 0
M  V30 1600 C 147.165 2.41641 -3.58097 0
M  V30 1601 C 146.3 3.68108 -3.82975 0
M  V30 1602 C 145.339 3.48445 -5.03242 0
M  V30 1603 N 144.476 4.66956 -5.24306 0
M  V30 1604 H 149.316 0.885226 -2.84548 0
M  V30 1605 H 146.853 0.425718 -1.40805 0
M  V30 1606 H 148.811 3.34088 -2.49882 0
M  V30 1607 H 147.441 2.88208 -1.45382 0
M  V30 1608 H 146.493 1.54976 -3.474 0
M  V30 1609 H 147.805 2.23052 -4.46149 0
M  V30 1610 H 146.959 4.54441 -4.01956 0
M  V30 1611 H 145.698 3.89666 -2.93278 0
M  V30 1612 H 144.703 2.60499 -4.8417 0
M  V30 1613 H 145.928 3.2832 -5.9446 0
M  V30 1614 H 143.874 4.88752 -4.37559 0
M  V30 1615 H 143.791 4.51242 -6.06561 0
M  V30 1616 H 145.059 5.54602 -5.47756 0
M  V30 1617 N 149.288 1.51039 0.449983 0
M  V30 1618 C 150.537 1.62317 1.19733 0
M  V30 1619 C 150.85 0.339101 1.92638 0
M  V30 1620 O 152.056 0.331069 2.69474 0
M  V30 1621 C 150.512 2.86608 2.17678 0
M  V30 1622 C 150.12 4.21972 1.50479 0
M  V30 1623 C 151.864 3.07239 2.92924 0
M  V30 1624 C 149.771 5.37426 2.46834 0
M  V30 1625 H 148.701 0.604532 0.450619 0
M  V30 1626 H 151.352 1.77494 0.465625 0
M  V30 1627 H 149.734 2.65037 2.94231 0
M  V30 1628 H 150.908 4.53878 0.795716 0
M  V30 1629 H 149.223 4.07117 0.874344 0
M  V30 1630 H 151.82 3.90668 3.65079 0
M  V30 1631 H 152.163 2.19807 3.5354 0
M  V30 1632 H 152.696 3.29091 2.23481 0
M  V30 1633 H 149.435 6.27079 1.90926 0
M  V30 1634 H 148.955 5.09912 3.15832 0
M  V30 1635 H 150.634 5.68862 3.08228 0
M  V30 1636 N 150.766 -0.704594 1.40972 0
M  V30 1637 C 151.716 -1.81051 1.38581 0
M  V30 1638 C 152.7 -1.58759 0.261585 0
M  V30 1639 O 153.892 -1.69745 0.501556 0
M  V30 1640 C 151.021 -3.19279 1.26157 0
M  V30 1641 C 150.107 -3.47296 2.43405 0
M  V30 1642 N 150.498 -3.46064 3.68881 0
M  V30 1643 C 148.796 -3.77804 2.37023 0
M  V30 1644 C 149.497 -3.72733 4.46592 0
M  V30 1645 N 148.473 -3.9203 3.76581 0
M  V30 1646 H 152.275 -1.78448 2.33525 0
M  V30 1647 H 149.789 -0.904198 1.349 0
M  V30 1648 H 151.786 -3.98488 1.22526 0
M  V30 1649 H 150.446 -3.231 0.321902 0
M  V30 1650 H 151.457 -3.26656 4.01891 0
M  V30 1651 H 148.134 -3.8905 1.51481 0
M  V30 1652 H 149.524 -3.77993 5.55492 0
M  V30 1653 N 152.244 -1.26651 -0.937939 0
M  V30 1654 C 153.176 -1.04283 -2.04102 0
M  V30 1655 C 154.189 -0.00221014 -1.628 0
M  V30 1656 O 155.378 -0.242645 -1.76843 0
M  V30 1657 C 152.478 -0.557846 -3.34277 0
M  V30 1658 C 151.651 -1.66843 -4.04329 0
M  V30 1659 C 150.71 -1.18095 -5.12777 0
M  V30 1660 O 149.736 -1.87865 -5.37304 0
M  V30 1661 N 150.938 -0.0311006 -5.80492 0
M  V30 1662 H 153.703 -1.9927 -2.23856 0
M  V30 1663 H 151.264 -1.1808 -1.10764 0
M  V30 1664 H 153.256 -0.215836 -4.04124 0
M  V30 1665 H 151.826 0.298523 -3.11171 0
M  V30 1666 H 151.046 -2.18123 -3.28353 0
M  V30 1667 H 152.334 -2.41408 -4.47883 0
M  V30 1668 H 151.732 0.551486 -5.63005 0
M  V30 1669 H 150.289 0.251809 -6.51313 0
M  V30 1670 N 153.722 1.14298 -1.08507 0
M  V30 1671 C 154.632 2.23027 -0.727753 0
M  V30 1672 C 155.648 1.71952 0.26619 0
M  V30 1673 O 156.824 2.011 0.109882 0
M  V30 1674 C 153.889 3.46403 -0.143541 0
M  V30 1675 C 152.95 4.12413 -1.19223 0
M  V30 1676 C 152.183 5.29899 -0.635798 0
M  V30 1677 O 152.406 5.67796 0.544393 0
M  V30 1678 O 151.34 5.85717 -1.38634 0
M  V30 1679 H 155.166 2.55945 -1.63481 0
M  V30 1680 H 152.751 1.22248 -0.858817 0
M  V30 1681 H 154.633 4.21018 0.179404 0
M  V30 1682 H 153.308 3.15206 0.736659 0
M  V30 1683 H 152.215 3.39667 -1.56772 0
M  V30 1684 H 153.548 4.47718 -2.04474 0
M  V30 1685 N 155.201 0.870884 1.31352 0
M  V30 1686 C 156.429 0.49677 2.00848 0
M  V30 1687 C 156.844 -0.910998 1.65367 0
M  V30 1688 O 156.201 -1.59696 0.883374 0
M  V30 1689 C 156.252 0.645308 3.55694 0
M  V30 1690 O 155.973 1.99764 3.89905 0
M  V30 1691 C 157.474 0.272326 4.42463 0
M  V30 1692 H 154.694 0.193462 0.642506 0
M  V30 1693 H 157.238 1.1723 1.67563 0
M  V30 1694 H 155.393 0.0173176 3.87396 0
M  V30 1695 H 155.807 2.00607 4.84621 0
M  V30 1696 H 157.281 0.427208 5.50344 0
M  V30 1697 H 157.758 -0.788587 4.32062 0
M  V30 1698 H 158.364 0.876054 4.1618 0
M  V30 1699 N 156.679 -1.44442 0.630414 0
M  V30 1700 C 157.926 -2.02052 0.134617 0
M  V30 1701 C 158.254 -1.49576 -1.24327 0
M  V30 1702 O 157.509 -0.669806 -1.83881 0
M  V30 1703 C 157.808 -3.57332 0.0697835 0
M  V30 1704 C 157.474 -4.29058 1.38635 0
M  V30 1705 C 156.136 -4.4837 1.74694 0
M  V30 1706 C 158.488 -4.69872 2.25543 0
M  V30 1707 C 155.816 -5.05756 2.97369 0
M  V30 1708 C 158.168 -5.28616 3.47487 0
M  V30 1709 C 156.832 -5.46147 3.8377 0
M  V30 1710 H 156.102 -0.739361 0.0492598 0
M  V30 1711 H 158.749 -1.73217 0.816586 0
M  V30 1712 H 157.054 -3.85577 -0.695553 0
M  V30 1713 H 158.751 -3.99637 -0.330344 0
M  V30 1714 H 155.341 -4.14357 1.09574 0
M  V30 1715 H 159.525 -4.54666 1.98979 0
M  V30 1716 H 154.781 -5.17515 3.25558 0
M  V30 1717 H 158.955 -5.59192 4.15063 0
M  V30 1718 H 156.582 -5.9038 4.7891 0
M  V30 1719 N 158.157 -0.370918 -1.53173 0
M  V30 1720 C 159.405 0.216673 -2.00935 0
M  V30 1721 C 159.726 1.48845 -1.25977 0
M  V30 1722 O 158.996 1.92286 -0.374551 0
M  V30 1723 H 157.576 0.0830565 -0.742368 0
M  V30 1724 H 160.238 -0.49838 -1.8842 0
M  V30 1725 H 159.334 0.439893 -3.08984 0
M  V30 1726 N 159.635 1.57281 -0.100228 0
M  V30 1727 C 160.582 2.14305 0.856858 0
M  V30 1728 C 161.552 1.06296 1.27634 0
M  V30 1729 O 162.737 1.34109 1.35718 0
M  V30 1730 C 159.877 2.73184 2.10866 0
M  V30 1731 C 158.99 3.95442 1.73925 0
M  V30 1732 C 158.125 4.42468 2.93931 0
M  V30 1733 C 157.164 5.57303 2.5314 0
M  V30 1734 N 156.301 5.99158 3.65997 0
M  V30 1735 H 161.141 2.95772 0.363726 0
M  V30 1736 H 158.678 1.46139 0.167858 0
M  V30 1737 H 160.636 3.05442 2.84185 0
M  V30 1738 H 159.266 1.94437 2.57671 0
M  V30 1739 H 158.318 3.69464 0.905554 0
M  V30 1740 H 159.63 4.78769 1.39935 0
M  V30 1741 H 158.784 4.76537 3.75496 0
M  V30 1742 H 157.523 3.58052 3.31134 0
M  V30 1743 H 156.528 5.22857 1.70003 0
M  V30 1744 H 157.753 6.43471 2.17075 0
M  V30 1745 H 155.699 5.17687 4.02909 0
M  V30 1746 H 155.616 6.77295 3.35869 0
M  V30 1747 H 156.884 6.3786 4.48057 0
M  V30 1748 N 161.113 -0.173488 1.56642 0
M  V30 1749 C 162.338 -0.910149 1.86363 0
M  V30 1750 C 162.763 -1.75132 0.686318 0
M  V30 1751 O 162.121 -1.77595 -0.364643 0
M  V30 1752 C 162.169 -1.76447 3.14482 0
M  V30 1753 O 161.273 -2.86584 2.96553 0
M  V30 1754 H 160.614 -0.255086 0.613047 0
M  V30 1755 H 163.144 -0.172283 2.03873 0
M  V30 1756 H 163.154 -2.16483 3.45831 0
M  V30 1757 H 161.829 -1.14658 3.99783 0
M  V30 1758 H 160.406 -2.50146 2.76553 0
M  V30 1759 N 162.591 -1.51276 -0.441967 0
M  V30 1760 C 163.839 -1.63392 -1.18943 0
M  V30 1761 C 164.16 -0.350159 -1.9183 0
M  V30 1762 O 163.43 0.633784 -1.85364 0
M  V30 1763 H 162.01 -0.602164 -0.442049 0
M  V30 1764 H 164.672 -1.88186 -0.507165 0
M  V30 1765 H 163.768 -2.45934 -1.92154 0
M  V30 1766 N 164.069 0.697108 -1.41344 0
M  V30 1767 C 165.309 1.46939 -1.42085 0
M  V30 1768 C 165.673 1.9198 -0.0280397 0
M  V30 1769 O 166.874 2.6865 0.0897504 0
M  V30 1770 C 165.145 2.64985 -2.39828 0
M  V30 1771 S 166.704 3.54147 -2.59085 0
M  V30 1772 H 163.522 0.502146 -0.503359 0
M  V30 1773 H 166.124 0.813546 -1.77769 0
M  V30 1774 H 164.828 2.30098 -3.39828 0
M  V30 1775 H 164.359 3.35464 -2.05493 0
M  V30 1776 H 166.374 4.60137 -1.85711 0
M  V30 1777 N 165.547 1.27147 0.931209 0
M  V30 1778 C 166.963 1.04475 1.20653 0
M  V30 1779 C 167.163 -0.223885 2.00252 0
M  V30 1780 O 166.219 -0.930332 2.34736 0
M  V30 1781 C 167.532 2.28209 1.95809 0
M  V30 1782 C 169.08 2.33211 2.08762 0
M  V30 1783 C 169.555 3.56665 2.87323 0
M  V30 1784 N 171.046 3.57201 2.94892 0
M  V30 1785 C 171.781 4.49395 3.56134 0
M  V30 1786 N 171.277 5.51889 4.18796 0
M  V30 1787 N 173.07 4.37026 3.53504 0
M  V30 1788 H 165.221 2.08612 0.399333 0
M  V30 1789 H 167.484 0.917312 0.239253 0
M  V30 1790 H 167.19 3.20538 1.44736 0
M  V30 1791 H 167.064 2.33247 2.96438 0
M  V30 1792 H 169.451 1.41391 2.59023 0
M  V30 1793 H 169.532 2.32178 1.07364 0
M  V30 1794 H 169.176 4.4882 2.37746 0
M  V30 1795 H 169.106 3.54948 3.88998 0
M  V30 1796 H 171.597 2.83074 2.50354 0
M  V30 1797 H 171.91 6.18409 4.63454 0
M  V30 1798 H 170.255 5.55735 4.17353 0
M  V30 1799 H 173.446 3.56166 3.03749 0
M  V30 1800 H 173.619 5.09067 4.00942 0
M  V30 1801 N 167.025 -1.13721 1.09112 0
M  V30 1802 C 168.441 -1.36914 0.820174 0
M  V30 1803 C 168.641 -1.93356 -0.567079 0
M  V30 1804 O 167.697 -2.15093 -1.32255 0
M  V30 1805 C 169.01 -2.3235 1.90877 0
M  V30 1806 C 170.558 -2.45973 1.93562 0
M  V30 1807 C 171.033 -3.44714 3.01556 0
M  V30 1808 N 172.524 -3.52263 3.00775 0
M  V30 1809 C 173.259 -4.28536 3.80978 0
M  V30 1810 N 172.755 -5.07991 4.71081 0
M  V30 1811 N 174.548 -4.23804 3.69251 0
M  V30 1812 H 166.699 -0.754348 1.98553 0
M  V30 1813 H 168.962 -0.3944 0.862063 0
M  V30 1814 H 168.668 -1.98027 2.90651 0
M  V30 1815 H 168.542 -3.32332 1.78424 0
M  V30 1816 H 170.929 -2.79584 0.944286 0
M  V30 1817 H 171.01 -1.45926 2.10093 0
M  V30 1818 H 170.654 -3.11835 4.00901 0
M  V30 1819 H 170.584 -4.44558 2.82269 0
M  V30 1820 H 173.075 -2.95567 2.35475 0
M  V30 1821 H 173.388 -5.63487 5.28869 0
M  V30 1822 H 171.733 -5.07235 4.75119 0
M  V30 1823 H 174.924 -3.60806 2.98222 0
M  V30 1824 H 175.097 -4.82995 4.31995 0
M  V30 1825 N 168.503 -0.877838 -1.30888 0
M  V30 1826 C 169.752 -0.488793 -1.95688 0
M  V30 1827 C 170.065 0.965485 -1.70111 0
M  V30 1828 O 171.271 1.46104 -2.28836 0
M  V30 1829 C 169.727 -0.823201 -3.50359 0
M  V30 1830 C 169.335 -2.29477 -3.84765 0
M  V30 1831 C 171.079 -0.503009 -4.21509 0
M  V30 1832 C 168.986 -2.57118 -5.32583 0
M  V30 1833 H 167.916 -0.179062 -0.732429 0
M  V30 1834 H 170.567 -1.07183 -1.48943 0
M  V30 1835 H 168.949 -0.169331 -3.95638 0
M  V30 1836 H 170.123 -2.99236 -3.5042 0
M  V30 1837 H 168.438 -2.58178 -3.267 0
M  V30 1838 H 171.035 -0.68665 -5.30273 0
M  V30 1839 H 171.378 0.557109 -4.12555 0
M  V30 1840 H 171.911 -1.11376 -3.8189 0
M  V30 1841 H 168.65 -3.61843 -5.4658 0
M  V30 1842 H 168.17 -1.91961 -5.68253 0
M  V30 1843 H 169.849 -2.42251 -5.99936 0
M  V30 1844 N 169.982 1.44106 -0.638065 0
M  V30 1845 C 171.228 2.02277 -0.145546 0
M  V30 1846 C 171.561 1.50125 1.23191 0
M  V30 1847 O 170.836 0.688133 1.8192 0
M  V30 1848 C 171.119 3.59829 -0.139791 0
M  V30 1849 C 170.972 4.22247 -1.55008 0
M  V30 1850 C 172.291 4.36873 0.531966 0
M  V30 1851 H 169.41 0.734992 -0.0543632 0
M  V30 1852 H 172.052 1.71592 -0.815863 0
M  V30 1853 H 170.202 3.86102 0.431007 0
M  V30 1854 H 171.874 4.07057 -2.1703 0
M  V30 1855 H 170.117 3.79476 -2.10191 0
M  V30 1856 H 170.788 5.31284 -1.49804 0
M  V30 1857 H 173.264 4.16074 0.0464781 0
M  V30 1858 H 172.14 5.4657 0.505206 0
M  V30 1859 H 172.401 4.11995 1.60352 0
M  V30 1860 N 171.46 0.379036 1.52974 0
M  V30 1861 C 172.871 -0.0972525 1.86447 0
M  V30 1862 C 173.222 -1.47027 1.29914 0
M  V30 1863 O 172.347 -2.07135 0.626433 0
M  V30 1864 C 172.942 -0.183248 3.38304 0
M  V30 1865 C 171.501 -0.603812 3.71525 0
M  V30 1866 C 170.648 0.240632 2.76254 0
M  V30 1867 H 173.599 0.597316 1.4703 0
M  V30 1868 H 173.62 -1.00432 3.67006 0
M  V30 1869 H 173.132 0.816191 3.79421 0
M  V30 1870 H 171.233 -1.61099 3.35973 0
M  V30 1871 H 171.346 -0.369086 4.77676 0
M  V30 1872 H 169.71 -0.292548 2.53014 0
M  V30 1873 H 170.493 1.23786 3.20206 0
M  V30 1874 N 172.938 -1.57226 0.108567 0
M  V30 1875 C 174.186 -1.94448 -0.550853 0
M  V30 1876 C 174.507 -0.992074 -1.67878 0
M  V30 1877 O 173.777 -0.0465 -1.95845 0
M  V30 1878 H 172.357 -0.717897 -0.206479 0
M  V30 1879 H 175.019 -1.94112 0.175062 0
M  V30 1880 H 174.115 -2.97218 -0.952259 0
M  V30 1881 N 174.416 0.165178 -1.56732 0
M  V30 1882 C 175.348 1.22911 -1.93457 0
M  V30 1883 C 176.361 1.40152 -0.828333 0
M  V30 1884 O 177.55 1.40046 -1.10677 0
M  V30 1885 C 174.65 2.59686 -2.17753 0
M  V30 1886 C 173.823 2.63663 -3.48999 0
M  V30 1887 C 172.882 3.81845 -3.62051 0
M  V30 1888 O 171.908 3.67559 -4.34613 0
M  V30 1889 N 173.11 4.98557 -2.97357 0
M  V30 1890 H 175.875 0.917118 -2.85323 0
M  V30 1891 H 173.436 0.354895 -1.57962 0
M  V30 1892 H 175.428 3.37225 -2.23743 0
M  V30 1893 H 173.998 2.83251 -1.32242 0
M  V30 1894 H 173.218 1.72173 -3.54612 0
M  V30 1895 H 174.506 2.63336 -4.35352 0
M  V30 1896 H 173.904 5.13065 -2.38287 0
M  V30 1897 H 172.461 5.73936 -3.08934 0
M  V30 1898 N 175.894 1.51508 0.433938 0
M  V30 1899 C 177.141 1.64345 1.18309 0
M  V30 1900 C 177.469 0.361315 1.91115 0
M  V30 1901 O 176.724 -0.654753 1.84422 0
M  V30 1902 C 177.023 2.79928 2.22205 0
M  V30 1903 C 176.689 4.19078 1.66387 0
M  V30 1904 C 175.351 4.56932 1.50887 0
M  V30 1905 C 177.703 5.05894 1.25381 0
M  V30 1906 C 175.031 5.79305 0.928608 0
M  V30 1907 C 177.383 6.2885 0.687823 0
M  V30 1908 C 176.047 6.65473 0.519755 0
M  V30 1909 H 175.317 0.601381 0.432923 0
M  V30 1910 H 177.964 1.85549 0.473676 0
M  V30 1911 H 176.269 2.52959 2.99197 0
M  V30 1912 H 177.966 2.87059 2.79997 0
M  V30 1913 H 174.556 3.89234 1.79428 0
M  V30 1914 H 178.74 4.77253 1.36175 0
M  V30 1915 H 173.996 6.06324 0.786186 0
M  V30 1916 H 178.17 6.95461 0.361581 0
M  V30 1917 H 175.797 7.6017 0.0679979 0
M  V30 1918 N 177.372 -0.689602 1.41712 0
M  V30 1919 C 178.302 -1.81577 1.46806 0
M  V30 1920 C 179.283 -1.66945 0.326105 0
M  V30 1921 O 180.468 -1.86588 0.538377 0
M  V30 1922 C 177.598 -3.19762 1.35535 0
M  V30 1923 C 176.552 -3.49107 2.47605 0
M  V30 1924 C 175.878 -4.86711 2.21397 0
M  V30 1925 C 177.178 -3.47483 3.89939 0
M  V30 1926 H 178.872 -1.7757 2.41058 0
M  V30 1927 H 176.418 -0.852887 1.16025 0
M  V30 1928 H 178.371 -3.98263 1.3771 0
M  V30 1929 H 177.095 -3.24409 0.377708 0
M  V30 1930 H 175.754 -2.72959 2.44722 0
M  V30 1931 H 175.402 -4.8799 1.21961 0
M  V30 1932 H 175.102 -5.0731 2.96497 0
M  V30 1933 H 176.626 -5.67515 2.25297 0
M  V30 1934 H 178.04 -4.1598 3.94505 0
M  V30 1935 H 176.437 -3.79615 4.64771 0
M  V30 1936 H 177.507 -2.46341 4.17665 0
M  V30 1937 N 178.85 -1.27639 -0.924453 0
M  V30 1938 C 179.813 -1.10681 -2.00705 0
M  V30 1939 C 180.813 -0.0497823 -1.60723 0
M  V30 1940 O 182.003 -0.294654 -1.7169 0
M  V30 1941 C 179.135 -0.687164 -3.33902 0
M  V30 1942 H 180.328 -2.06817 -2.17179 0
M  V30 1943 H 177.881 -1.10473 -1.10569 0
M  V30 1944 H 178.616 0.275439 -3.23128 0
M  V30 1945 H 178.401 -1.45061 -3.6428 0
M  V30 1946 H 179.891 -0.590853 -4.13399 0
M  V30 1947 N 180.328 1.1314 -1.09713 0
M  V30 1948 C 181.574 1.84757 -0.836224 0
M  V30 1949 C 181.907 1.8347 0.636598 0
M  V30 1950 O 181.182 1.27491 1.46889 0
M  V30 1951 C 181.465 3.32782 -1.37578 0
M  V30 1952 C 181.318 3.42567 -2.91493 0
M  V30 1953 C 182.637 4.28307 -1.01198 0
M  V30 1954 H 179.756 0.67082 -0.305236 0
M  V30 1955 H 182.398 1.3278 -1.35903 0
M  V30 1956 H 180.548 3.77177 -0.931097 0
M  V30 1957 H 182.22 3.06862 -3.44432 0
M  V30 1958 H 180.463 2.83349 -3.28475 0
M  V30 1959 H 181.134 4.46674 -3.24324 0
M  V30 1960 H 183.61 3.91999 -1.39556 0
M  V30 1961 H 182.486 5.30307 -1.41653 0
M  V30 1962 H 182.747 4.42029 0.0794833 0
M  V30 1963 N 181.806 0.884767 1.30421 0
M  V30 1964 C 183.083 0.423185 1.90967 0
M  V30 1965 C 183.463 -1.09605 1.80416 0
M  V30 1966 O 182.811 -1.93126 1.22125 0
M  V30 1967 C 183.021 0.921056 3.36627 0
M  V30 1968 C 184.369 0.955903 4.137 0
M  V30 1969 O 185.393 0.867706 3.4547 0
M  V30 1970 O 184.252 1.08614 5.35598 0
M  V30 1971 H 181.346 0.129369 0.816819 0
M  V30 1972 H 183.892 0.973653 1.3899 0
M  V30 1973 H 182.664 1.96489 3.3839 0
M  V30 1974 H 182.287 0.349741 3.96059 0
M  V30 1975 N 183.284 -1.43765 0.645699 0
M  V30 1976 C 184.695 -1.85193 0.236719 0
M  V30 1977 C 185.046 -1.54045 -1.21509 0
M  V30 1978 O 184.171 -0.985694 -1.92647 0
M  V30 1979 C 184.766 -3.36151 0.422845 0
M  V30 1980 C 183.325 -3.76338 0.0682492 0
M  V30 1981 C 182.472 -2.67538 0.729306 0
M  V30 1982 H 185.423 -1.34025 0.849883 0
M  V30 1983 H 185.444 -3.79032 -0.333904 0
M  V30 1984 H 184.956 -3.5879 1.47958 0
M  V30 1985 H 183.057 -3.59312 -0.986179 0
M  V30 1986 H 183.17 -4.76603 0.488469 0
M  V30 1987 H 181.534 -2.54176 0.163235 0
M  V30 1988 H 182.317 -2.93006 1.78892 0
M  V30 1989 N 184.763 -0.387143 -1.52771 0
M  V30 1990 C 185.71 0.449048 -2.26389 0
M  V30 1991 C 186.68 1.05961 -1.27912 0
M  V30 1992 O 187.865 1.08804 -1.56737 0
M  V30 1993 C 185.005 1.57155 -3.0724 0
M  V30 1994 C 184.118 0.984066 -4.20643 0
M  V30 1995 C 183.253 2.07745 -4.88892 0
M  V30 1996 C 182.292 1.46574 -5.94292 0
M  V30 1997 N 181.429 2.49834 -6.56146 0
M  V30 1998 H 186.269 -0.185205 -2.97424 0
M  V30 1999 H 183.806 -0.103164 -1.46738 0
M  V30 2000 H 185.764 2.23309 -3.52405 0
M  V30 2001 H 184.394 2.17615 -2.38419 0
M  V30 2002 H 183.446 0.212193 -3.79808 0
M  V30 2003 H 184.758 0.497029 -4.96318 0
M  V30 2004 H 183.912 2.81673 -5.3735 0
M  V30 2005 H 182.651 2.59807 -4.12737 0
M  V30 2006 H 181.656 0.711696 -5.45174 0
M  V30 2007 H 182.881 0.953088 -6.72379 0
M  V30 2008 H 180.827 3.0107 -5.82832 0
M  V30 2009 H 180.744 2.05879 -7.27427 0
M  V30 2010 H 182.012 3.23399 -7.09249 0
M  V30 2011 N 186.241 1.57166 -0.116904 0
M  V30 2012 C 187.489 1.94737 0.540533 0
M  V30 2013 C 187.81 1.00096 1.67349 0
M  V30 2014 O 187.08 0.0568854 1.95817 0
M  V30 2015 H 185.66 0.718981 0.202669 0
M  V30 2016 H 188.322 1.94017 -0.185353 0
M  V30 2017 H 187.418 2.97719 0.936483 0
M  V30 2018 N 187.719 -0.156864 1.56817 0
M  V30 2019 C 189.135 -0.50916 1.5126 0
M  V30 2020 C 189.335 -1.83897 0.823658 0
M  V30 2021 O 188.391 -2.49469 0.390055 0
M  V30 2022 C 189.704 -0.52857 2.96018 0
M  V30 2023 C 191.252 -0.614771 3.06903 0
M  V30 2024 C 191.727 -0.664938 4.53147 0
M  V30 2025 N 193.218 -0.727433 4.57452 0
M  V30 2026 C 193.953 -0.787067 5.67973 0
M  V30 2027 N 193.449 -0.806649 6.88088 0
M  V30 2028 N 195.242 -0.827195 5.5598 0
M  V30 2029 H 187.393 0.714935 2.00006 0
M  V30 2030 H 189.656 0.259526 0.911784 0
M  V30 2031 H 189.362 0.380154 3.49639 0
M  V30 2032 H 189.236 -1.36998 3.51442 0
M  V30 2033 H 191.623 -1.51392 2.53307 0
M  V30 2034 H 191.704 0.253597 2.5454 0
M  V30 2035 H 191.348 0.230011 5.07379 0
M  V30 2036 H 191.278 -1.54966 5.03282 0
M  V30 2037 H 193.769 -0.719998 3.70978 0
M  V30 2038 H 194.082 -0.853727 7.6807 0
M  V30 2039 H 192.427 -0.774687 6.90669 0
M  V30 2040 H 195.618 -0.808998 4.61056 0
M  V30 2041 H 195.791 -0.870206 6.4213 0
M  V30 2042 N 189.197 -1.51736 -0.425897 0
M  V30 2043 C 190.16 -1.73271 -1.50032 0
M  V30 2044 C 191.16 -0.602639 -1.4908 0
M  V30 2045 O 192.35 -0.87033 -1.509 0
M  V30 2046 C 189.482 -1.79969 -2.89523 0
M  V30 2047 H 190.675 -2.69172 -1.32237 0
M  V30 2048 H 188.228 -1.41899 -0.65532 0
M  V30 2049 H 188.963 -0.859241 -3.1271 0
M  V30 2050 H 188.748 -2.62109 -2.91619 0
M  V30 2051 H 190.238 -1.9843 -3.67444 0
M  V30 2052 N 190.675 0.682077 -1.42076 0
M  V30 2053 C 191.921 1.44428 -1.42367 0
M  V30 2054 C 192.254 1.94164 -0.0373056 0
M  V30 2055 O 191.529 1.70429 0.937239 0
M  V30 2056 C 191.812 2.64654 -2.44194 0
M  V30 2057 C 191.665 2.20596 -3.91991 0
M  V30 2058 C 192.984 3.66865 -2.431 0
M  V30 2059 H 190.103 0.523834 -0.518428 0
M  V30 2060 H 192.745 0.77576 -1.73442 0
M  V30 2061 H 190.895 3.2169 -2.17826 0
M  V30 2062 H 192.567 1.68783 -4.29313 0
M  V30 2063 H 190.81 1.52242 -4.06208 0
M  V30 2064 H 191.481 3.06921 -4.58807 0
M  V30 2065 H 193.957 3.19531 -2.66532 0
M  V30 2066 H 192.833 4.48577 -3.16339 0
M  V30 2067 H 193.094 4.17493 -1.45437 0
M  V30 2068 N 192.153 1.28127 0.917671 0
M  V30 2069 C 193.086 1.06039 2.02067 0
M  V30 2070 C 194.064 -0.0223285 1.62585 0
M  V30 2071 O 195.248 0.124823 1.88086 0
M  V30 2072 C 192.375 0.610596 3.33151 0
M  V30 2073 C 191.421 1.68937 3.91615 0
M  V30 2074 S 192.254 3.28437 4.22953 0
M  V30 2075 C 193.41 2.85283 5.57103 0
M  V30 2076 H 193.643 1.99425 2.20493 0
M  V30 2077 H 191.176 1.12071 1.06205 0
M  V30 2078 H 193.134 0.357778 4.08938 0
M  V30 2079 H 191.795 -0.303364 3.12632 0
M  V30 2080 H 190.988 1.32619 4.86239 0
M  V30 2081 H 190.59 1.89478 3.2245 0
M  V30 2082 H 192.882 2.3121 6.36827 0
M  V30 2083 H 193.825 3.7869 5.98331 0
M  V30 2084 H 194.233 2.24118 5.18104 0
M  V30 2085 N 193.631 -1.12557 1.10312 0
M  V30 2086 C 194.88 -1.83395 0.839588 0
M  V30 2087 C 195.193 -1.84939 -0.636929 0
M  V30 2088 O 196.399 -2.51761 -1.01631 0
M  V30 2089 C 194.855 -3.29303 1.45215 0
M  V30 2090 C 194.463 -3.36122 2.96186 0
M  V30 2091 C 196.207 -4.05121 1.26796 0
M  V30 2092 C 194.114 -4.76357 3.50483 0
M  V30 2093 H 193.044 -0.687133 0.310425 0
M  V30 2094 H 195.695 -1.26746 1.32694 0
M  V30 2095 H 194.077 -3.85812 0.892469 0
M  V30 2096 H 195.251 -2.89559 3.58458 0
M  V30 2097 H 193.566 -2.73776 3.13745 0
M  V30 2098 H 196.163 -5.08668 1.64806 0
M  V30 2099 H 196.506 -4.15773 0.209409 0
M  V30 2100 H 197.039 -3.54967 1.79563 0
M  V30 2101 H 193.778 -4.70899 4.55998 0
M  V30 2102 H 193.298 -5.23377 2.92978 0
M  V30 2103 H 194.977 -5.45294 3.48228 0
M  V30 2104 N 195.109 -0.891671 -1.2995 0
M  V30 2105 C 196.334 -0.527932 -2.00568 0
M  V30 2106 C 196.759 0.877969 -1.66353 0
M  V30 2107 O 196.117 1.58301 -0.883762 0
M  V30 2108 C 196.165 -0.717745 -3.53385 0
M  V30 2109 O 195.269 0.233376 -4.11739 0
M  V30 2110 H 194.61 -0.20722 -0.630837 0
M  V30 2111 H 197.14 -1.20105 -1.65638 0
M  V30 2112 H 197.15 -0.619307 -4.03272 0
M  V30 2113 H 195.825 -1.74276 -3.77625 0
M  V30 2114 H 194.402 0.0880706 -3.72796 0
M  V30 2115 N 196.587 1.43421 -0.653314 0
M  V30 2116 C 197.55 2.29182 0.0287951 0
M  V30 2117 C 198.55 1.42213 0.750465 0
M  V30 2118 O 199.74 1.63843 0.591701 0
M  V30 2119 C 196.872 3.24278 1.05151 0
M  V30 2120 H 198.065 2.90985 -0.725786 0
M  V30 2121 H 195.618 1.50702 -0.414545 0
M  V30 2122 H 196.353 2.6737 1.83532 0
M  V30 2123 H 196.138 3.88396 0.537687 0
M  V30 2124 H 197.628 3.88647 1.52786 0
M  V30 2125 N 198.065 0.39524 1.52563 0
M  V30 2126 C 199.314 -0.186321 2.00838 0
M  V30 2127 C 199.627 -1.47402 1.28577 0
M  V30 2128 O 200.833 -2.13599 1.67593 0
M  V30 2129 C 199.289 -0.382595 3.57861 0
M  V30 2130 C 198.897 0.892202 4.39026 0
M  V30 2131 C 200.641 -0.9202 4.14406 0
M  V30 2132 C 198.548 0.66388 5.87662 0
M  V30 2133 H 197.478 -0.0734041 0.750418 0
M  V30 2134 H 200.129 0.518552 1.76021 0
M  V30 2135 H 198.511 -1.14946 3.7895 0
M  V30 2136 H 199.685 1.66414 4.29701 0
M  V30 2137 H 198 1.35519 3.9373 0
M  V30 2138 H 200.597 -1.10683 5.23119 0
M  V30 2139 H 200.94 -1.89096 3.70875 0
M  V30 2140 H 201.473 -0.212751 3.97231 0
M  V30 2141 H 198.212 1.6058 6.35527 0
M  V30 2142 H 197.732 -0.0690193 5.9976 0
M  V30 2143 H 199.411 0.300699 6.46301 0
M  V30 2144 N 199.544 -1.57102 0.125237 0
M  V30 2145 C 200.454 -2.19191 -0.8362 0
M  V30 2146 C 201.47 -1.16985 -1.28805 0
M  V30 2147 O 202.646 -1.49479 -1.34974 0
M  V30 2148 C 199.711 -2.78407 -2.06617 0
M  V30 2149 C 198.772 -3.9567 -1.66565 0
M  V30 2150 C 198.005 -4.52052 -2.83698 0
M  V30 2151 O 198.228 -4.07326 -3.99302 0
M  V30 2152 O 197.162 -5.42645 -2.60423 0
M  V30 2153 H 200.988 -3.01816 -0.337776 0
M  V30 2154 H 198.573 -1.4906 -0.100695 0
M  V30 2155 H 200.455 -3.16129 -2.7864 0
M  V30 2156 H 199.13 -1.9881 -2.55453 0
M  V30 2157 H 198.037 -3.62705 -0.916296 0
M  V30 2158 H 199.37 -4.76722 -1.22464 0
M  V30 2159 N 201.022 0.148545 -1.56898 0
M  V30 2160 C 201.969 1.18345 -1.98149 0
M  V30 2161 C 202.939 1.42772 -0.848848 0
M  V30 2162 O 204.124 1.55132 -1.11079 0
M  V30 2163 C 201.264 2.51231 -2.36594 0
M  V30 2164 C 200.377 2.33991 -3.63142 0
M  V30 2165 C 199.512 3.59902 -3.90697 0
M  V30 2166 C 198.551 3.37692 -5.1052 0
M  V30 2167 N 197.688 4.5573 -5.34092 0
M  V30 2168 H 202.528 0.82467 -2.86362 0
M  V30 2169 H 200.065 0.395756 -1.41676 0
M  V30 2170 H 202.023 3.28713 -2.56912 0
M  V30 2171 H 200.653 2.85059 -1.51463 0
M  V30 2172 H 199.705 1.47572 -3.50609 0
M  V30 2173 H 201.017 2.13539 -4.5078 0
M  V30 2174 H 200.171 4.45813 -4.11505 0
M  V30 2175 H 198.91 3.83357 -3.01477 0
M  V30 2176 H 197.915 2.5017 -4.89587 0
M  V30 2177 H 199.14 3.15637 -6.0129 0
M  V30 2178 H 197.086 4.79361 -4.47827 0
M  V30 2179 H 197.003 4.38274 -6.15996 0
M  V30 2180 H 198.271 5.42858 -5.59397 0
M  V30 2181 N 202.5 1.5196 0.417844 0
M  V30 2182 C 203.432 1.70895 1.52733 0
M  V30 2183 C 204.445 0.589405 1.51756 0
M  V30 2184 O 205.634 0.864312 1.56179 0
M  V30 2185 C 202.734 1.72627 2.91639 0
M  V30 2186 C 201.907 3.01479 3.16905 0
M  V30 2187 C 200.966 2.95139 4.35637 0
M  V30 2188 O 199.992 3.69059 4.3334 0
M  V30 2189 N 201.194 2.12328 5.40275 0
M  V30 2190 H 203.959 2.66612 1.36888 0
M  V30 2191 H 201.52 1.50089 0.607037 0
M  V30 2192 H 203.512 1.65928 3.6912 0
M  V30 2193 H 202.082 0.844216 3.00985 0
M  V30 2194 H 201.302 3.21895 2.27546 0
M  V30 2195 H 202.59 3.86736 3.30625 0
M  V30 2196 H 201.988 1.51685 5.44985 0
M  V30 2197 H 200.545 2.11494 6.16534 0
M  V30 2198 N 203.978 -0.674533 1.42435 0
M  V30 2199 C 204.925 -1.78807 1.45934 0
M  V30 2200 C 205.895 -1.63157 0.311271 0
M  V30 2201 O 207.08 -1.83707 0.515383 0
M  V30 2202 C 204.22 -3.16839 1.36773 0
M  V30 2203 C 203.333 -3.43774 2.61617 0
M  V30 2204 C 202.468 -4.71536 2.44597 0
M  V30 2205 C 201.507 -4.91505 3.64814 0
M  V30 2206 N 200.644 -6.10508 3.46734 0
M  V30 2207 H 205.484 -1.75151 2.41093 0
M  V30 2208 H 203.021 -0.85504 1.19697 0
M  V30 2209 H 204.979 -3.96606 1.29459 0
M  V30 2210 H 203.609 -3.19619 0.452089 0
M  V30 2211 H 202.661 -2.58259 2.79297 0
M  V30 2212 H 203.973 -3.54423 3.50978 0
M  V30 2213 H 203.127 -5.59393 2.3487 0
M  V30 2214 H 201.866 -4.6317 1.52726 0
M  V30 2215 H 200.871 -4.0209 3.74972 0
M  V30 2216 H 202.096 -5.01716 4.57665 0
M  V30 2217 H 200.042 -6.03315 2.5758 0
M  V30 2218 H 199.959 -6.2202 4.29682 0
M  V30 2219 H 201.227 -7.01044 3.40819 0
M  V30 2220 N 205.456 -1.28612 -0.910864 0
M  V30 2221 C 206.386 -1.15326 -2.03032 0
M  V30 2222 C 207.367 -0.0502924 -1.70026 0
M  V30 2223 O 208.552 -0.227797 -1.92859 0
M  V30 2224 C 205.682 -0.817343 -3.37545 0
M  V30 2225 C 204.636 -1.8754 -3.84724 0
M  V30 2226 C 203.962 -1.39305 -5.16235 0
M  V30 2227 C 205.262 -3.28244 -4.06267 0
M  V30 2228 H 206.956 -2.08975 -2.14406 0
M  V30 2229 H 204.502 -1.00612 -1.03021 0
M  V30 2230 H 206.455 -0.711151 -4.15356 0
M  V30 2231 H 205.179 0.154846 -3.26233 0
M  V30 2232 H 203.838 -1.97079 -3.09121 0
M  V30 2233 H 203.486 -0.409846 -5.01328 0
M  V30 2234 H 203.186 -2.10057 -5.48771 0
M  V30 2235 H 204.71 -1.30014 -5.96598 0
M  V30 2236 H 206.124 -3.21611 -4.74594 0
M  V30 2237 H 204.521 -3.96855 -4.5014 0
M  V30 2238 H 205.591 -3.72048 -3.10979 0
M  V30 2239 N 206.934 1.1197 -1.10907 0
M  V30 2240 C 208.18 1.8386 -0.855773 0
M  V30 2241 C 208.513 1.84134 0.617103 0
M  V30 2242 O 207.788 1.29041 1.45529 0
M  V30 2243 C 208.071 3.31305 -1.411 0
M  V30 2244 C 207.924 3.39456 -2.9511 0
M  V30 2245 C 209.243 4.2721 -1.05736 0
M  V30 2246 H 206.362 0.667545 -0.312334 0
M  V30 2247 H 209.004 1.31331 -1.37303 0
M  V30 2248 H 207.154 3.76169 -0.97105 0
M  V30 2249 H 208.826 3.03191 -3.47668 0
M  V30 2250 H 207.069 2.79849 -3.31462 0
M  V30 2251 H 207.74 4.43209 -3.29044 0
M  V30 2252 H 210.216 3.90497 -1.43706 0
M  V30 2253 H 209.092 5.28775 -1.47269 0
M  V30 2254 H 209.353 4.42088 0.0325958 0
M  V30 2255 N 208.412 0.89855 1.29475 0
M  V30 2256 C 209.642 0.538479 1.99459 0
M  V30 2257 C 210.05 -0.880922 1.67441 0
M  V30 2258 O 209.393 -1.59283 0.915127 0
M  V30 2259 C 209.455 0.649564 3.53583 0
M  V30 2260 C 209.119 2.03573 4.09154 0
M  V30 2261 C 210.116 3.00675 4.24135 0
M  V30 2262 C 207.801 2.3448 4.44212 0
M  V30 2263 C 209.795 4.26809 4.73405 0
M  V30 2264 C 207.482 3.60857 4.93179 0
M  V30 2265 C 208.48 4.56836 5.0773 0
M  V30 2266 O 208.168 5.80969 5.55635 0
M  V30 2267 H 207.9 0.205372 0.644048 0
M  V30 2268 H 210.454 1.20958 1.66007 0
M  V30 2269 H 208.684 -0.0785592 3.8662 0
M  V30 2270 H 210.373 0.29881 4.04799 0
M  V30 2271 H 211.139 2.78112 3.97339 0
M  V30 2272 H 207.018 1.60534 4.32145 0
M  V30 2273 H 210.562 5.0173 4.84678 0
M  V30 2274 H 206.459 3.83251 5.19412 0
M  V30 2275 H 207.227 5.83542 5.73952 0
M  V30 2276 N 209.89 -1.43072 0.660911 0
M  V30 2277 C 211.139 -2.00942 0.174735 0
M  V30 2278 C 211.452 -1.52797 -1.22117 0
M  V30 2279 O 212.658 -2.02991 -1.80297 0
M  V30 2280 C 211.114 -3.58948 0.261559 0
M  V30 2281 C 210.722 -4.16085 1.66064 0
M  V30 2282 C 212.466 -4.24173 -0.166617 0
M  V30 2283 C 210.373 -5.6641 1.70098 0
M  V30 2284 H 209.303 -0.751483 0.0615631 0
M  V30 2285 H 211.954 -1.63955 0.824069 0
M  V30 2286 H 210.336 -3.93372 -0.455421 0
M  V30 2287 H 211.51 -3.93147 2.40359 0
M  V30 2288 H 209.825 -3.6326 2.03546 0
M  V30 2289 H 212.422 -5.34471 -0.156433 0
M  V30 2290 H 212.765 -3.98647 -1.19943 0
M  V30 2291 H 213.298 -3.94659 0.498875 0
M  V30 2292 H 210.037 -5.96715 2.71315 0
M  V30 2293 H 209.557 -5.91382 1.00139 0
M  V30 2294 H 211.236 -6.30585 1.44816 0
M  V30 2295 N 211.368 -0.403325 -1.52352 0
M  V30 2296 C 212.298 0.416205 -2.29761 0
M  V30 2297 C 213.279 1.05123 -1.33728 0
M  V30 2298 O 214.464 1.06134 -1.62632 0
M  V30 2299 C 211.594 1.53624 -3.11475 0
M  V30 2300 C 210.548 1.02653 -4.15507 0
M  V30 2301 C 209.874 2.23971 -4.85532 0
M  V30 2302 C 211.174 0.08463 -5.22231 0
M  V30 2303 H 212.868 -0.229701 -2.98518 0
M  V30 2304 H 210.414 -0.111913 -1.43564 0
M  V30 2305 H 212.367 2.1165 -3.64393 0
M  V30 2306 H 211.091 2.20994 -2.40477 0
M  V30 2307 H 209.75 0.46871 -3.63591 0
M  V30 2308 H 209.398 2.89883 -4.11068 0
M  V30 2309 H 209.098 1.90521 -5.55856 0
M  V30 2310 H 210.622 2.82614 -5.41259 0
M  V30 2311 H 212.036 0.573509 -5.70424 0
M  V30 2312 H 210.433 -0.160783 -5.99885 0
M  V30 2313 H 211.503 -0.86237 -4.7717 0
M  V30 2314 N 212.846 1.57033 -0.133567 0
M  V30 2315 C 213.794 2.17348 0.828412 0
M  V30 2316 C 214.788 1.12671 1.26498 0
M  V30 2317 O 215.994 1.30947 1.23502 0
M  V30 2318 H 212.369 0.695775 0.285309 0
M  V30 2319 H 214.34 2.96935 0.295372 0
M  V30 2320 C 213.089 2.79893 2.06289 0
M  V30 2321 H 212.412 3.60147 1.73592 0
M  V30 2322 H 213.852 3.25615 2.71572 0
M  V30 2323 C 212.311 1.77713 2.86216 0
M  V30 2324 O 212.841 1.23937 3.82103 0
M  V30 2325 N 211.047 1.47321 2.50489 0
M  V30 2326 H 210.594 1.91243 1.7258 0
M  V30 2327 H 210.552 0.79199 3.04261 0
M  V30 2328 N 214.325 -0.140222 1.56975 0
M  V30 2329 C 215.741 -0.493088 1.51792 0
M  V30 2330 C 215.941 -1.83013 0.843116 0
M  V30 2331 O 214.997 -2.49041 0.416493 0
M  V30 2332 C 216.31 -0.497144 2.96562 0
M  V30 2333 C 217.858 -0.582186 3.07538 0
M  V30 2334 C 218.333 -0.616838 4.53827 0
M  V30 2335 N 219.824 -0.678873 4.58198 0
M  V30 2336 C 220.559 -0.726782 5.68775 0
M  V30 2337 N 220.055 -0.733623 6.88905 0
M  V30 2338 N 221.848 -0.768179 5.56826 0
M  V30 2339 H 213.999 0.736108 1.99237 0
M  V30 2340 H 216.262 0.269182 0.90898 0
M  V30 2341 H 215.968 0.417217 3.49217 0
M  V30 2342 H 215.842 -1.33263 3.52875 0
M  V30 2343 H 218.229 -1.48697 2.54899 0
M  V30 2344 H 218.31 0.280581 2.54257 0
M  V30 2345 H 217.954 0.283812 5.07106 0
M  V30 2346 H 217.884 -1.49619 5.04898 0
M  V30 2347 H 220.375 -0.68061 3.7172 0
M  V30 2348 H 220.688 -0.772215 7.68932 0
M  V30 2349 H 219.033 -0.701389 6.91452 0
M  V30 2350 H 222.224 -0.760051 4.61888 0
M  V30 2351 H 222.397 -0.80205 6.43017 0
M  V30 2352 N 215.803 -1.52179 -0.40978 0
M  V30 2353 C 217.08 -1.56769 -1.16974 0
M  V30 2354 C 217.46 -0.348322 -2.08206 0
M  V30 2355 O 216.808 0.664862 -2.18613 0
M  V30 2356 C 217.018 -2.89603 -1.9476 0
M  V30 2357 C 218.366 -3.42579 -2.50849 0
M  V30 2358 O 219.39 -2.91338 -2.04941 0
M  V30 2359 O 218.249 -4.32054 -3.34652 0
M  V30 2360 H 215.343 -0.631439 -0.534054 0
M  V30 2361 H 217.889 -1.64507 -0.416613 0
M  V30 2362 H 216.661 -3.698 -1.27921 0
M  V30 2363 H 216.284 -2.85155 -2.77079 0
M  V30 2364 N 217.281 0.66697 -1.42791 0
M  V30 2365 C 218.244 1.76211 -1.46568 0
M  V30 2366 C 219.244 1.56896 -0.352196 0
M  V30 2367 O 220.434 1.63044 -0.613364 0
M  V30 2368 C 217.566 3.14935 -1.30494 0
M  V30 2369 H 218.759 1.74247 -2.44086 0
M  V30 2370 H 216.312 0.877342 -1.29354 0
M  V30 2371 H 217.047 3.2252 -0.339301 0
M  V30 2372 H 216.832 3.30359 -2.11199 0
M  V30 2373 H 218.322 3.94821 -1.36038 0
M  V30 2374 N 218.759 1.29093 0.90403 0
M  V30 2375 C 219.722 1.1386 1.98919 0
M  V30 2376 C 220.722 0.0753457 1.60623 0
M  V30 2377 O 221.912 0.321931 1.71199 0
M  V30 2378 C 219.044 0.740198 3.32767 0
M  V30 2379 H 220.237 2.10246 2.13861 0
M  V30 2380 H 217.79 1.12218 1.08797 0
M  V30 2381 H 218.525 -0.223997 3.23525 0
M  V30 2382 H 218.31 1.50838 3.61926 0
M  V30 2383 H 219.8 0.656546 4.12407 0
M  V30 2384 N 220.237 -1.11381 1.11499 0
M  V30 2385 C 221.2 -2.15622 0.777153 0
M  V30 2386 C 222.2 -1.59504 -0.203779 0
M  V30 2387 O 223.39 -1.74188 0.020782 0
M  V30 2388 C 220.522 -3.40556 0.153116 0
M  V30 2389 H 221.715 -2.47021 1.70061 0
M  V30 2390 H 219.268 -1.26577 0.916952 0
M  V30 2391 H 220.003 -3.14767 -0.780536 0
M  V30 2392 H 219.788 -3.8257 0.859238 0
M  V30 2393 H 221.278 -4.17546 -0.0671044 0
M  V30 2394 N 221.715 -0.905404 -1.28997 0
M  V30 2395 C 223.131 -0.60233 -1.47798 0
M  V30 2396 C 223.331 0.854645 -1.82478 0
M  V30 2397 O 222.387 1.63439 -1.92468 0
M  V30 2398 C 223.7 -1.53306 -2.58685 0
M  V30 2399 C 225.248 -1.53887 -2.72558 0
M  V30 2400 C 225.723 -2.45602 -3.86579 0
M  V30 2401 N 227.214 -2.43681 -3.93921 0
M  V30 2402 C 227.949 -3.11347 -4.81509 0
M  V30 2403 N 227.445 -3.88313 -5.73746 0
M  V30 2404 N 229.238 -3.00476 -4.75048 0
M  V30 2405 H 221.389 -1.84765 -1.04764 0
M  V30 2406 H 223.652 -0.792025 -0.520961 0
M  V30 2407 H 223.358 -2.57141 -2.39941 0
M  V30 2408 H 223.232 -1.25787 -3.55609 0
M  V30 2409 H 225.619 -0.507941 -2.90696 0
M  V30 2410 H 225.7 -1.85447 -1.76191 0
M  V30 2411 H 225.344 -3.48792 -3.69197 0
M  V30 2412 H 225.274 -2.11349 -4.82327 0
M  V30 2413 H 227.765 -1.87767 -3.27951 0
M  V30 2414 H 228.078 -4.36985 -6.37389 0
M  V30 2415 H 226.423 -3.92419 -5.73614 0
M  V30 2416 H 229.614 -2.39858 -4.01977 0
M  V30 2417 H 229.787 -3.53485 -5.43095 0
M  V30 2418 N 223.193 1.4272 -0.668489 0
M  V30 2419 C 224.123 2.335 -0.000100175 0
M  V30 2420 C 225.104 1.50328 0.795964 0
M  V30 2421 O 226.289 1.78949 0.754385 0
M  V30 2422 C 223.419 3.33874 0.956302 0
M  V30 2423 C 222.373 4.27152 0.269278 0
M  V30 2424 C 221.699 5.17684 1.33818 0
M  V30 2425 C 222.999 5.15373 -0.847805 0
M  V30 2426 H 224.693 2.89639 -0.758244 0
M  V30 2427 H 222.239 1.39269 -0.366079 0
M  V30 2428 H 224.192 3.9629 1.43292 0
M  V30 2429 H 222.916 2.76025 1.74579 0
M  V30 2430 H 221.575 3.66123 -0.187042 0
M  V30 2431 H 221.223 4.56165 2.1195 0
M  V30 2432 H 220.923 5.80918 0.883659 0
M  V30 2433 H 222.447 5.82974 1.81586 0
M  V30 2434 H 223.861 5.7151 -0.452681 0
M  V30 2435 H 222.258 5.87407 -1.22773 0
M  V30 2436 H 223.328 4.5415 -1.69929 0
M  V30 2437 N 224.671 0.411399 1.52136 0
M  V30 2438 C 225.899 -0.163076 2.06256 0
M  V30 2439 C 226.314 -1.3867 1.28125 0
M  V30 2440 O 225.671 -1.79423 0.333721 0
M  V30 2441 C 225.722 -0.511252 3.57867 0
M  V30 2442 O 225.443 0.66378 4.33042 0
M  V30 2443 C 226.944 -1.13921 4.28412 0
M  V30 2444 H 224.164 -0.0193897 0.67072 0
M  V30 2445 H 226.708 0.583007 1.96013 0
M  V30 2446 H 224.863 -1.20723 3.6811 0
M  V30 2447 H 225.277 0.372601 5.23175 0
M  V30 2448 H 226.751 -1.33302 5.35663 0
M  V30 2449 H 227.228 -2.11296 3.85033 0
M  V30 2450 H 227.834 -0.483373 4.22544 0
M  V30 2451 N 226.149 -1.5696 0.141893 0
M  V30 2452 C 227.398 -1.95135 -0.510427 0
M  V30 2453 C 227.711 -1.02896 -1.66348 0
M  V30 2454 O 228.917 -1.30629 -2.38009 0
M  V30 2455 C 227.373 -3.46876 -0.959427 0
M  V30 2456 C 226.981 -4.47691 0.166419 0
M  V30 2457 C 228.725 -3.93927 -1.58183 0
M  V30 2458 C 226.632 -5.90636 -0.300565 0
M  V30 2459 H 225.562 -0.728494 -0.194454 0
M  V30 2460 H 228.213 -1.8211 0.22542 0
M  V30 2461 H 226.595 -3.55215 -1.75038 0
M  V30 2462 H 227.769 -4.51043 0.94325 0
M  V30 2463 H 226.084 -4.10527 0.696905 0
M  V30 2464 H 228.681 -4.98158 -1.94275 0
M  V30 2465 H 229.024 -3.3519 -2.46888 0
M  V30 2466 H 229.557 -3.88484 -0.855863 0
M  V30 2467 H 226.296 -6.5318 0.550989 0
M  V30 2468 H 225.816 -5.90655 -1.04338 0
M  V30 2469 H 227.495 -6.42588 -0.754265 0
M  V30 2470 N 227.627 0.131896 -1.57047 0
M  V30 2471 C 228.852 0.860418 -1.8871 0
M  V30 2472 C 229.277 1.73251 -0.73251 0
M  V30 2473 O 228.635 1.785 0.317429 0
M  V30 2474 C 228.683 1.68047 -3.19049 0
M  V30 2475 O 227.787 2.7862 -3.04047 0
M  V30 2476 H 227.128 0.238743 -0.619595 0
M  V30 2477 H 229.658 0.118169 -2.04258 0
M  V30 2478 H 229.668 2.07238 -3.51449 0
M  V30 2479 H 228.343 1.04018 -4.02682 0
M  V30 2480 H 226.92 2.42726 -2.83088 0
M  V30 2481 N 229.106 1.52395 0.401703 0
M  V30 2482 C 230.331 1.70972 1.17403 0
M  V30 2483 C 230.756 0.421615 1.83314 0
M  V30 2484 O 230.114 -0.621564 1.70312 0
M  V30 2485 C 230.162 2.85151 2.20728 0
M  V30 2486 O 229.266 2.51238 3.27037 0
M  V30 2487 H 228.607 0.568927 0.342372 0
M  V30 2488 H 231.137 1.99131 0.469891 0
M  V30 2489 H 231.147 3.10279 2.64936 0
M  V30 2490 H 229.822 3.78603 1.7214 0
M  V30 2491 H 228.399 2.36808 2.88057 0
M  V30 2492 N 230.584 -0.659388 1.43143 0
M  V30 2493 C 231.995 -1.24041 1.39537 0
M  V30 2494 C 232.346 -1.95963 0.0963364 0
M  V30 2495 O 231.471 -2.00892 -0.804438 0
M  V30 2496 C 232.066 -2.25601 2.52764 0
M  V30 2497 C 230.625 -2.79195 2.52443 0
M  V30 2498 C 229.772 -1.53743 2.30778 0
M  V30 2499 H 232.723 -0.451792 1.52133 0
M  V30 2500 H 232.744 -3.07651 2.23899 0
M  V30 2501 H 232.256 -1.73226 3.47296 0
M  V30 2502 H 230.357 -3.35649 1.61773 0
M  V30 2503 H 230.47 -3.2716 3.50004 0
M  V30 2504 H 228.834 -1.80869 1.79328 0
M  V30 2505 H 229.617 -1.03312 3.27386 0
M  V30 2506 N 232.062 -1.29571 -0.897171 0
M  V30 2507 C 232.992 -1.17473 -2.01798 0
M  V30 2508 C 233.973 -0.068323 -1.69963 0
M  V30 2509 O 235.158 -0.248239 -1.92607 0
M  V30 2510 C 232.288 -0.853099 -3.36659 0
M  V30 2511 C 231.242 -1.9161 -3.82713 0
M  V30 2512 C 230.568 -1.44773 -5.14728 0
M  V30 2513 C 231.868 -3.32535 -4.02763 0
M  V30 2514 H 233.562 -2.11237 -2.12177 0
M  V30 2515 H 231.108 -1.01699 -1.01948 0
M  V30 2516 H 233.061 -0.755165 -4.14578 0
M  V30 2517 H 231.785 0.120236 -3.26379 0
M  V30 2518 H 230.444 -2.00346 -3.07013 0
M  V30 2519 H 230.092 -0.462995 -5.00865 0
M  V30 2520 H 229.792 -2.15865 -5.46513 0
M  V30 2521 H 231.316 -1.36334 -5.95185 0
M  V30 2522 H 232.73 -3.26626 -4.71156 0
M  V30 2523 H 231.127 -4.01607 -4.45905 0
M  V30 2524 H 232.197 -3.75326 -3.07016 0
M  V30 2525 N 233.54 1.10788 -1.12088 0
M  V30 2526 C 234.45 2.20599 -0.798338 0
M  V30 2527 C 235.466 1.72712 0.21135 0
M  V30 2528 O 236.642 2.01348 0.0458477 0
M  V30 2529 C 233.707 3.45771 -0.253674 0
M  V30 2530 C 232.768 4.08411 -1.32283 0
M  V30 2531 C 232.001 5.27608 -0.80406 0
M  V30 2532 O 232.224 5.69241 0.363478 0
M  V30 2533 O 231.158 5.8101 -1.57198 0
M  V30 2534 H 234.984 2.50614 -1.7154 0
M  V30 2535 H 232.569 1.19454 -0.897275 0
M  V30 2536 H 234.451 4.21376 0.0453691 0
M  V30 2537 H 233.126 3.1739 0.636005 0
M  V30 2538 H 232.033 3.34507 -1.67499 0
M  V30 2539 H 233.366 4.40986 -2.18614 0
M  V30 2540 N 235.018 0.912232 1.28515 0
M  V30 2541 C 235.981 0.404223 2.25607 0
M  V30 2542 C 236.981 -0.468602 1.53821 0
M  V30 2543 O 238.171 -0.271873 1.72065 0
M  V30 2544 C 235.303 -0.420653 3.38295 0
M  V30 2545 H 236.496 1.26188 2.7206 0
M  V30 2546 H 234.049 0.691495 1.40171 0
M  V30 2547 H 234.784 -1.29777 2.97201 0
M  V30 2548 H 234.569 0.204935 3.91564 0
M  V30 2549 H 236.059 -0.766971 4.10496 0
M  V30 2550 N 236.496 -1.42363 0.676048 0
M  V30 2551 C 237.446 -2.27987 -0.0242903 0
M  V30 2552 C 238.43 -1.41153 -0.772319 0
M  V30 2553 O 239.622 -1.64592 -0.651025 0
M  V30 2554 C 236.751 -3.29195 -0.973953 0
M  V30 2555 C 235.837 -4.23512 -0.223202 0
M  V30 2556 N 236.228 -4.99865 0.772589 0
M  V30 2557 C 234.526 -4.43606 -0.461469 0
M  V30 2558 C 235.227 -5.68757 1.22027 0
M  V30 2559 N 234.203 -5.40811 0.549975 0
M  V30 2560 H 238.005 -2.84445 0.73949 0
M  V30 2561 H 235.519 -1.54341 0.50522 0
M  V30 2562 H 237.516 -3.89339 -1.49067 0
M  V30 2563 H 236.176 -2.74298 -1.73755 0
M  V30 2564 H 237.187 -5.04921 1.15217 0
M  V30 2565 H 233.864 -3.99749 -1.20446 0
M  V30 2566 H 235.254 -6.40007 2.0455 0
M  V30 2567 N 237.974 -0.419461 -1.51915 0
M  V30 2568 C 238.921 0.400927 -2.27291 0
M  V30 2569 C 239.891 1.03224 -1.30131 0
M  V30 2570 O 241.076 1.05455 -1.59009 0
M  V30 2571 C 238.216 1.50603 -3.10504 0
M  V30 2572 C 237.329 0.89462 -4.22635 0
M  V30 2573 C 236.464 1.97328 -4.93189 0
M  V30 2574 C 235.503 1.33935 -5.97267 0
M  V30 2575 N 234.64 2.3586 -6.61298 0
M  V30 2576 H 239.48 -0.248251 -2.96964 0
M  V30 2577 H 237.017 -0.134266 -1.46486 0
M  V30 2578 H 238.975 2.15783 -3.57062 0
M  V30 2579 H 237.605 2.12509 -2.42981 0
M  V30 2580 H 236.657 0.131583 -3.80172 0
M  V30 2581 H 237.969 0.391641 -4.9726 0
M  V30 2582 H 237.123 2.70211 -5.43204 0
M  V30 2583 H 235.862 2.50994 -4.18155 0
M  V30 2584 H 234.867 0.595896 -5.46561 0
M  V30 2585 H 236.092 0.810252 -6.74249 0
M  V30 2586 H 234.038 2.88639 -5.89087 0
M  V30 2587 H 233.955 1.90403 -7.3163 0
M  V30 2588 H 235.223 3.08282 -7.15949 0
M  V30 2589 N 239.452 1.56882 -0.150215 0
M  V30 2590 C 240.415 2.1573 0.774157 0
M  V30 2591 C 241.415 1.0999 1.17298 0
M  V30 2592 O 242.605 1.35613 1.09338 0
M  V30 2593 C 239.737 2.72302 2.05096 0
M  V30 2594 H 240.93 2.98752 0.262201 0
M  V30 2595 H 238.483 1.55985 0.099248 0
M  V30 2596 H 239.218 1.92956 2.6065 0
M  V30 2597 H 239.003 3.49665 1.77416 0
M  V30 2598 H 240.493 3.17632 2.71109 0
M  V30 2599 N 240.93 -0.123565 1.57115 0
M  V30 2600 C 241.878 -1.17082 2.00984 0
M  V30 2601 C 242.872 -1.43136 0.906009 0
M  V30 2602 O 244.078 -1.43152 1.09121 0
M  V30 2603 H 240.453 -0.394653 0.64012 0
M  V30 2604 H 242.424 -0.774292 2.88179 0
M  V30 2605 C 241.173 -2.49057 2.42623 0
M  V30 2606 H 240.496 -2.29846 3.27125 0
M  V30 2607 H 241.936 -3.20906 2.7712 0
M  V30 2608 C 240.395 -3.11305 1.28805 0
M  V30 2609 O 240.925 -3.97171 0.60153 0
M  V30 2610 N 239.131 -2.71111 1.04628 0
M  V30 2611 H 238.678 -2.01382 1.60634 0
M  V30 2612 H 238.636 -3.1309 0.286685 0
M  V30 2613 N 242.408 -1.52605 -0.393616 0
M  V30 2614 C 243.636 -1.71294 -1.16043 0
M  V30 2615 C 244.051 -0.429259 -1.83855 0
M  V30 2616 O 243.408 0.595921 -1.72496 0
M  V30 2617 C 243.459 -2.8593 -2.21193 0
M  V30 2618 O 243.18 -4.09329 -1.56146 0
M  V30 2619 C 244.681 -3.16259 -3.10636 0
M  V30 2620 H 241.901 -0.573641 -0.348104 0
M  V30 2621 H 244.445 -1.99234 -0.461092 0
M  V30 2622 H 242.6 -2.60465 -2.86769 0
M  V30 2623 H 243.014 -4.73323 -2.25978 0
M  V30 2624 H 244.488 -3.99946 -3.80456 0
M  V30 2625 H 244.965 -2.3045 -3.73884 0
M  V30 2626 H 245.571 -3.43547 -2.50711 0
M  V30 2627 N 243.887 0.651787 -1.4349 0
M  V30 2628 C 244.817 1.77621 -1.51569 0
M  V30 2629 C 245.798 1.66022 -0.370253 0
M  V30 2630 O 246.983 1.85095 -0.587658 0
M  V30 2631 C 244.113 3.16056 -1.43966 0
M  V30 2632 C 243.067 3.4242 -2.56774 0
M  V30 2633 C 242.393 4.8067 -2.34223 0
M  V30 2634 C 243.693 3.37023 -3.99015 0
M  V30 2635 H 245.387 1.71117 -2.45681 0
M  V30 2636 H 242.933 0.821825 -1.18246 0
M  V30 2637 H 244.886 3.94472 -1.48221 0
M  V30 2638 H 243.61 3.23293 -0.463586 0
M  V30 2639 H 242.269 2.66375 -2.51873 0
M  V30 2640 H 241.917 4.84585 -1.34856 0
M  V30 2641 H 241.617 4.9927 -3.09844 0
M  V30 2642 H 243.141 5.61342 -2.40265 0
M  V30 2643 H 244.555 4.05374 -4.05395 0
M  V30 2644 H 242.952 3.67159 -4.74673 0
M  V30 2645 H 244.022 2.3518 -4.2405 0
M  V30 2646 N 245.365 1.30045 0.890287 0
M  V30 2647 C 246.611 1.18737 1.64406 0
M  V30 2648 C 246.944 -0.258525 1.92472 0
M  V30 2649 O 246.219 -1.18562 1.54186 0
M  V30 2650 C 246.502 2.01087 2.98724 0
M  V30 2651 C 246.355 3.53867 2.77665 0
M  V30 2652 C 247.674 1.84457 3.9958 0
M  V30 2653 H 244.793 0.432698 0.596608 0
M  V30 2654 H 247.435 1.5962 1.0306 0
M  V30 2655 H 245.585 1.66349 3.51084 0
M  V30 2656 H 247.257 3.98637 2.32133 0
M  V30 2657 H 245.5 3.78318 2.12269 0
M  V30 2658 H 246.171 4.06772 3.7315 0
M  V30 2659 H 248.647 2.14817 3.56361 0
M  V30 2660 H 247.523 2.44411 4.91482 0
M  V30 2661 H 247.784 0.802276 4.3476 0
M  V30 2662 N 246.843 -1.10192 1.12674 0
M  V30 2663 C 248.073 -1.85713 0.905213 0
M  V30 2664 C 248.481 -1.81056 -0.549108 0
M  V30 2665 O 247.824 -1.19927 -1.39151 0
M  V30 2666 C 247.886 -3.34972 1.30516 0
M  V30 2667 C 247.55 -3.63385 2.77129 0
M  V30 2668 C 248.547 -3.59772 3.75313 0
M  V30 2669 C 246.232 -3.91981 3.14096 0
M  V30 2670 C 248.226 -3.84354 5.08479 0
M  V30 2671 C 245.913 -4.16218 4.47443 0
M  V30 2672 C 246.911 -4.12395 5.44444 0
M  V30 2673 O 246.599 -4.36014 6.75387 0
M  V30 2674 H 246.331 -0.593719 0.323223 0
M  V30 2675 H 248.885 -1.40198 1.50112 0
M  V30 2676 H 247.115 -3.81156 0.652463 0
M  V30 2677 H 248.804 -3.91886 1.05736 0
M  V30 2678 H 249.57 -3.37716 3.48099 0
M  V30 2679 H 245.449 -3.94085 2.39202 0
M  V30 2680 H 248.993 -3.81285 5.84181 0
M  V30 2681 H 244.89 -4.37754 4.74386 0
M  V30 2682 H 245.658 -4.53516 6.8137 0
M  V30 2683 N 248.321 -0.919034 -1.28029 0
M  V30 2684 C 249.271 -0.382574 -2.24767 0
M  V30 2685 C 250.255 0.508286 -1.52661 0
M  V30 2686 O 251.447 0.347145 -1.73562 0
M  V30 2687 C 248.576 0.371432 -3.41285 0
M  V30 2688 C 247.662 -0.535449 -4.20706 0
M  V30 2689 N 248.053 -1.65141 -4.78082 0
M  V30 2690 C 246.351 -0.336824 -4.44726 0
M  V30 2691 C 247.052 -2.21475 -5.37888 0
M  V30 2692 N 246.028 -1.50537 -5.22341 0
M  V30 2693 H 249.83 -1.23477 -2.66703 0
M  V30 2694 H 247.344 -0.772299 -1.42861 0
M  V30 2695 H 249.341 0.772638 -4.09678 0
M  V30 2696 H 248.001 1.22066 -3.00882 0
M  V30 2697 H 249.012 -2.03392 -4.7629 0
M  V30 2698 H 245.689 0.47246 -4.14818 0
M  V30 2699 H 247.079 -3.15379 -5.93284 0
M  V30 2700 N 249.799 1.42003 -0.683588 0
M  V30 2701 C 251.045 2.01712 -0.209825 0
M  V30 2702 C 251.378 1.53968 1.18353 0
M  V30 2703 O 250.653 0.745661 1.79639 0
M  V30 2704 C 250.936 3.59202 -0.254197 0
M  V30 2705 C 250.789 4.17102 -1.68363 0
M  V30 2706 C 252.108 4.38344 0.392709 0
M  V30 2707 H 249.227 0.732891 -0.0777189 0
M  V30 2708 H 251.869 1.68909 -0.87004 0
M  V30 2709 H 250.019 3.87278 0.307954 0
M  V30 2710 H 251.691 3.99946 -2.29871 0
M  V30 2711 H 249.934 3.72597 -2.22157 0
M  V30 2712 H 250.605 5.26249 -1.6663 0
M  V30 2713 H 253.081 4.16011 -0.0859162 0
M  V30 2714 H 251.957 5.47901 0.331063 0
M  V30 2715 H 252.218 4.16887 1.47164 0
M  V30 2716 N 251.277 0.427512 1.51691 0
M  V30 2717 C 252.523 -0.142439 2.02299 0
M  V30 2718 C 252.856 -1.43214 1.31162 0
M  V30 2719 O 252.131 -1.89833 0.423511 0
M  V30 2720 C 252.414 -0.371301 3.58181 0
M  V30 2721 C 252.267 0.936358 4.39946 0
M  V30 2722 C 253.586 -1.14542 4.24933 0
M  V30 2723 H 250.705 -0.0502937 0.735282 0
M  V30 2724 H 253.347 0.564584 1.81418 0
M  V30 2725 H 251.497 -0.973559 3.76104 0
M  V30 2726 H 253.169 1.57184 4.33694 0
M  V30 2727 H 251.412 1.5432 4.05423 0
M  V30 2728 H 252.083 0.730388 5.47147 0
M  V30 2729 H 254.559 -0.635362 4.11221 0
M  V30 2730 H 253.435 -1.27431 5.33903 0
M  V30 2731 H 253.696 -2.17093 3.85127 0
M  V30 2732 N 252.755 -1.56801 0.158532 0
M  V30 2733 C 254.003 -1.96102 -0.488712 0
M  V30 2734 C 254.324 -1.04498 -1.64636 0
M  V30 2735 O 253.594 -0.108783 -1.95598 0
M  V30 2736 H 252.174 -0.724102 -0.183535 0
M  V30 2737 H 254.836 -1.93457 0.236728 0
M  V30 2738 H 253.932 -3.00097 -0.857219 0
M  V30 2739 N 254.233 0.115231 -1.57178 0
M  V30 2740 C 255.479 0.82357 -1.85325 0
M  V30 2741 C 255.812 1.79349 -0.744814 0
M  V30 2742 O 255.087 1.92899 0.249024 0
M  V30 2743 C 255.37 1.57014 -3.24066 0
M  V30 2744 C 255.223 0.619565 -4.45513 0
M  V30 2745 C 256.542 2.52545 -3.60429 0
M  V30 2746 H 253.661 0.297948 -0.674089 0
M  V30 2747 H 256.303 0.0877138 -1.89797 0
M  V30 2748 H 254.453 2.19742 -3.20383 0
M  V30 2749 H 256.125 0.000837639 -4.613 0
M  V30 2750 H 254.368 -0.0686174 -4.33746 0
M  V30 2751 H 255.039 1.17866 -5.3927 0
M  V30 2752 H 257.515 1.9992 -3.64926 0
M  V30 2753 H 256.391 3.01811 -4.58477 0
M  V30 2754 H 256.652 3.35383 -2.88047 0
M  V30 2755 N 255.711 1.52812 0.385517 0
M  V30 2756 C 256.988 1.5861 1.14465 0
M  V30 2757 C 257.368 0.381402 2.07626 0
M  V30 2758 O 256.716 -0.629999 2.19643 0
M  V30 2759 C 256.926 2.92664 1.90128 0
M  V30 2760 C 258.274 3.46526 2.45367 0
M  V30 2761 O 259.298 2.94562 2.0028 0
M  V30 2762 O 258.157 4.37323 3.27736 0
M  V30 2763 H 255.251 0.639855 0.523941 0
M  V30 2764 H 257.797 1.65149 0.390389 0
M  V30 2765 H 256.569 3.71788 1.22022 0
M  V30 2766 H 256.192 2.89527 2.72507 0
M  V30 2767 N 257.189 -0.644168 1.43834 0
M  V30 2768 C 258.435 -1.40603 1.46146 0
M  V30 2769 C 258.768 -1.93997 0.0887717 0
M  V30 2770 O 258.043 -1.72854 -0.891724 0
M  V30 2771 C 258.326 -2.58086 2.51124 0
M  V30 2772 C 258.179 -2.10126 3.97702 0
M  V30 2773 C 259.498 -3.60291 2.52742 0
M  V30 2774 H 256.617 -0.509905 0.532134 0
M  V30 2775 H 259.259 -0.729502 1.75437 0
M  V30 2776 H 257.409 -3.15801 2.26278 0
M  V30 2777 H 259.081 -1.57342 4.33637 0
M  V30 2778 H 257.324 -1.41419 4.10101 0
M  V30 2779 H 257.995 -2.94649 4.66783 0
M  V30 2780 H 260.471 -3.12352 2.7491 0
M  V30 2781 H 259.347 -4.40032 3.28121 0
M  V30 2782 H 259.608 -4.1349 1.56455 0
M  V30 2783 N 258.668 -1.30515 -0.883378 0
M  V30 2784 C 259.916 -1.19194 -1.63209 0
M  V30 2785 C 260.237 0.253205 -1.93349 0
M  V30 2786 O 259.507 1.17025 -1.57105 0
M  V30 2787 H 258.087 -0.438148 -0.605009 0
M  V30 2788 H 260.749 -1.63663 -1.05832 0
M  V30 2789 H 259.845 -1.75396 -2.58153 0
M  V30 2790 N 260.146 1.09593 -1.13257 0
M  V30 2791 C 261.393 1.81734 -0.893257 0
M  V30 2792 C 261.721 1.8563 0.580656 0
M  V30 2793 O 260.976 1.31906 1.44566 0
M  V30 2794 C 261.275 3.27802 -1.42411 0
M  V30 2795 C 260.941 3.44041 -2.91456 0
M  V30 2796 C 259.603 3.48181 -3.3215 0
M  V30 2797 C 261.955 3.48719 -3.87356 0
M  V30 2798 C 259.283 3.54575 -4.67433 0
M  V30 2799 C 261.635 3.56648 -5.2248 0
M  V30 2800 C 260.299 3.59055 -5.62704 0
M  V30 2801 H 259.569 0.665011 -0.326866 0
M  V30 2802 H 262.216 1.2912 -1.41422 0
M  V30 2803 H 260.521 3.83042 -0.823795 0
M  V30 2804 H 262.218 3.82149 -1.21503 0
M  V30 2805 H 258.808 3.41502 -2.58987 0
M  V30 2806 H 262.992 3.44763 -3.57004 0
M  V30 2807 H 258.248 3.54725 -4.97976 0
M  V30 2808 H 262.422 3.59212 -5.96607 0
M  V30 2809 H 260.049 3.63763 -6.67518 0
M  V30 2810 N 261.624 0.925811 1.2754 0
M  V30 2811 C 262.534 0.428993 2.30644 0
M  V30 2812 C 263.55 -0.489387 1.66976 0
M  V30 2813 O 264.726 -0.372653 1.97922 0
M  V30 2814 C 261.791 -0.311967 3.45294 0
M  V30 2815 C 260.852 0.641098 4.24486 0
M  V30 2816 C 260.085 -0.0645955 5.33661 0
M  V30 2817 O 260.308 -1.28429 5.55754 0
M  V30 2818 O 259.242 0.606265 5.98839 0
M  V30 2819 H 263.068 1.28504 2.75173 0
M  V30 2820 H 260.653 0.691086 1.32455 0
M  V30 2821 H 262.535 -0.729972 4.15029 0
M  V30 2822 H 261.21 -1.14365 3.02824 0
M  V30 2823 H 260.117 1.10874 3.57292 0
M  V30 2824 H 261.45 1.43995 4.70666 0
M  V30 2825 N 263.102 -1.41638 0.69111 0
M  V30 2826 C 264.05 -2.32597 0.0115199 0
M  V30 2827 C 265.044 -1.5072 -0.773296 0
M  V30 2828 O 266.25 -1.66685 -0.67942 0
M  V30 2829 H 262.625 -0.751849 -0.0150746 0
M  V30 2830 H 264.596 -2.87593 0.795791 0
M  V30 2831 C 263.345 -3.35467 -0.914172 0
M  V30 2832 H 262.668 -3.9852 -0.319687 0
M  V30 2833 H 264.108 -4.01662 -1.35808 0
M  V30 2834 C 262.567 -2.69004 -2.02826 0
M  V30 2835 O 263.097 -2.53444 -3.11655 0
M  V30 2836 N 261.303 -2.2777 -1.80469 0
M  V30 2837 H 260.85 -2.40626 -0.919615 0
M  V30 2838 H 260.808 -1.83635 -2.55197 0
M  V30 2839 N 264.58 -0.43555 -1.51462 0
M  V30 2840 C 265.991 0.0279871 -1.86679 0
M  V30 2841 C 266.342 1.42104 -1.35281 0
M  V30 2842 O 265.467 2.04667 -0.702878 0
M  V30 2843 C 266.062 0.0575626 -3.38751 0
M  V30 2844 C 264.621 0.465507 -3.7351 0
M  V30 2845 C 263.768 -0.342996 -2.75171 0
M  V30 2846 H 266.719 -0.651473 -1.44712 0
M  V30 2847 H 266.74 0.867421 -3.70481 0
M  V30 2848 H 266.252 -0.956448 -3.7613 0
M  V30 2849 H 264.353 1.48519 -3.41721 0
M  V30 2850 H 264.466 0.191546 -4.78717 0
M  V30 2851 H 262.83 0.198442 -2.53926 0
M  V30 2852 H 263.613 -1.35585 -3.15391 0
M  V30 2853 N 266.058 1.56714 -0.166846 0
M  V30 2854 C 266.991 2.13577 0.80375 0
M  V30 2855 C 267.969 1.06464 1.22899 0
M  V30 2856 O 269.153 1.34413 1.32157 0
M  V30 2857 C 266.28 2.67168 2.0818 0
M  V30 2858 C 265.326 3.86612 1.80093 0
M  V30 2859 S 266.159 5.26565 0.97416 0
M  V30 2860 C 267.315 5.83558 2.26297 0
M  V30 2861 H 267.548 2.9557 0.320267 0
M  V30 2862 H 265.081 1.54326 0.0477555 0
M  V30 2863 H 267.039 2.98692 2.8159 0
M  V30 2864 H 265.7 1.85269 2.53642 0
M  V30 2865 H 264.893 4.22422 2.7491 0
M  V30 2866 H 264.495 3.55951 1.14781 0
M  V30 2867 H 266.787 5.962 3.21795 0
M  V30 2868 H 267.73 6.80731 1.94962 0
M  V30 2869 H 268.138 5.11944 2.37853 0
M  V30 2870 N 267.536 -0.106894 1.57237 0
M  V30 2871 C 268.783 -0.812526 1.85484 0
M  V30 2872 C 269.111 -1.79304 0.753687 0
M  V30 2873 O 268.366 -1.94047 -0.253853 0
M  V30 2874 C 268.665 -1.58628 3.20268 0
M  V30 2875 C 268.331 -0.748967 4.44636 0
M  V30 2876 C 266.993 -0.518104 4.78403 0
M  V30 2877 C 269.345 -0.166122 5.20935 0
M  V30 2878 C 266.673 0.305659 5.85903 0
M  V30 2879 C 269.025 0.644899 6.29304 0
M  V30 2880 C 267.689 0.885965 6.61594 0
M  V30 2881 H 266.959 -0.297324 0.678734 0
M  V30 2882 H 269.606 -0.0744332 1.91355 0
M  V30 2883 H 267.911 -2.39562 3.10028 0
M  V30 2884 H 269.608 -2.13643 3.39349 0
M  V30 2885 H 266.198 -0.939006 4.18187 0
M  V30 2886 H 270.382 -0.33167 4.95191 0
M  V30 2887 H 265.638 0.501528 6.0934 0
M  V30 2888 H 269.812 1.10345 6.87602 0
M  V30 2889 H 267.439 1.52609 7.44725 0
M  V30 2890 N 269.014 -1.53014 -0.377408 0
M  V30 2891 C 269.977 -1.77957 -1.44444 0
M  V30 2892 C 270.977 -0.649763 -1.47087 0
M  V30 2893 O 272.167 -0.917897 -1.48055 0
M  V30 2894 C 269.299 -1.89089 -2.83651 0
M  V30 2895 H 270.492 -2.73243 -1.23606 0
M  V30 2896 H 268.045 -1.43912 -0.609844 0
M  V30 2897 H 268.78 -0.958293 -3.09818 0
M  V30 2898 H 268.565 -2.71254 -2.83132 0
M  V30 2899 H 270.055 -2.1002 -3.60945 0
M  V30 2900 N 270.492 0.636531 -1.44174 0
M  V30 2901 C 271.732 1.40781 -1.48189 0
M  V30 2902 C 272.096 1.91688 -0.10944 0
M  V30 2903 O 273.297 2.68789 -0.0242741 0
M  V30 2904 C 271.568 2.54575 -2.50851 0
M  V30 2905 S 273.127 3.4284 -2.73873 0
M  V30 2906 H 269.945 0.480345 -0.524204 0
M  V30 2907 H 272.547 0.737416 -1.81059 0
M  V30 2908 H 271.251 2.15478 -3.49281 0
M  V30 2909 H 270.782 3.26447 -2.19536 0
M  V30 2910 H 272.797 4.51846 -2.05059 0
M  V30 2911 N 271.97 1.30982 0.876444 0
M  V30 2912 C 272.9 1.20668 1.99903 0
M  V30 2913 C 273.881 0.095354 1.69833 0
M  V30 2914 O 275.066 0.27885 1.92188 0
M  V30 2915 C 272.196 0.90655 3.3526 0
M  V30 2916 C 271.15 1.97675 3.79617 0
M  V30 2917 C 270.476 1.52943 5.1236 0
M  V30 2918 C 271.776 3.389 3.97422 0
M  V30 2919 H 273.47 2.14586 2.0879 0
M  V30 2920 H 271.016 1.03308 1.00317 0
M  V30 2921 H 272.969 0.821025 4.13324 0
M  V30 2922 H 271.693 -0.0682969 3.26529 0
M  V30 2923 H 270.352 2.05205 3.03787 0
M  V30 2924 H 270 0.54262 5.00065 0
M  V30 2925 H 269.7 2.24532 5.43009 0
M  V30 2926 H 271.224 1.45786 5.92941 0
M  V30 2927 H 272.638 3.34081 4.659 0
M  V30 2928 H 271.035 4.0865 4.3946 0
M  V30 2929 H 272.105 3.80163 3.01006 0
M  V30 2930 N 273.449 -1.08991 1.13837 0
M  V30 2931 C 274.359 -2.19301 0.833333 0
M  V30 2932 C 275.375 -1.73026 -0.183847 0
M  V30 2933 O 276.551 -2.01395 -0.0138092 0
M  V30 2934 C 273.616 -3.45323 0.308651 0
M  V30 2935 C 272.677 -4.06255 1.38764 0
M  V30 2936 C 271.91 -5.26262 0.887896 0
M  V30 2937 O 272.133 -5.69747 -0.27287 0
M  V30 2938 O 271.067 -5.78435 1.66421 0
M  V30 2939 H 274.893 -2.47854 1.75506 0
M  V30 2940 H 272.478 -1.18012 0.916166 0
M  V30 2941 H 274.36 -4.21394 0.0216739 0
M  V30 2942 H 273.035 -3.18362 -0.585431 0
M  V30 2943 H 271.942 -3.318 1.72799 0
M  V30 2944 H 273.275 -4.37452 2.25602 0
M  V30 2945 N 274.927 -0.932562 -1.27047 0
M  V30 2946 C 275.86 -0.379774 -2.25018 0
M  V30 2947 C 276.838 0.526587 -1.53837 0
M  V30 2948 O 278.022 0.465992 -1.82649 0
M  V30 2949 C 275.149 0.455187 -3.35627 0
M  V30 2950 C 274.195 -0.388428 -4.24728 0
M  V30 2951 S 275.028 -1.80701 -5.04091 0
M  V30 2952 C 276.184 -0.979865 -6.18182 0
M  V30 2953 H 276.417 -1.2101 -2.71558 0
M  V30 2954 H 273.95 -0.735078 -1.35779 0
M  V30 2955 H 275.908 0.931052 -3.99802 0
M  V30 2956 H 274.569 1.26009 -2.87716 0
M  V30 2957 H 273.762 0.25089 -5.03375 0
M  V30 2958 H 273.364 -0.798649 -3.65373 0
M  V30 2959 H 275.656 -0.218115 -6.77149 0
M  V30 2960 H 276.599 -1.73951 -6.86401 0
M  V30 2961 H 277.007 -0.51973 -5.62102 0
M  V30 2962 N 276.405 1.4127 -0.698611 0
M  V30 2963 C 277.682 1.94955 -0.158762 0
M  V30 2964 C 278.062 1.63781 1.33188 0
M  V30 2965 O 277.41 0.946423 2.07979 0
M  V30 2966 C 277.62 3.46044 -0.453309 0
M  V30 2967 C 278.968 4.22872 -0.382707 0
M  V30 2968 O 279.992 3.54076 -0.388396 0
M  V30 2969 O 278.851 5.45407 -0.345463 0
M  V30 2970 H 275.945 0.82683 -0.0167505 0
M  V30 2971 H 278.491 1.50971 -0.77498 0
M  V30 2972 H 277.263 3.62028 -1.48498 0
M  V30 2973 H 276.886 3.97128 0.19373 0
M  V30 2974 N 277.883 0.443576 1.51229 0
M  V30 2975 C 279.113 -0.119117 2.06256 0
M  V30 2976 C 279.521 -1.36471 1.31043 0
M  V30 2977 O 278.864 -1.80034 0.365151 0
M  V30 2978 C 278.926 -0.500546 3.55998 0
M  V30 2979 C 278.59 0.639125 4.52509 0
M  V30 2980 C 279.587 1.51311 4.97394 0
M  V30 2981 C 277.272 0.821632 4.95535 0
M  V30 2982 C 279.266 2.55425 5.83984 0
M  V30 2983 C 276.953 1.86603 5.81913 0
M  V30 2984 C 277.951 2.73072 6.26036 0
M  V30 2985 O 277.639 3.75718 7.10698 0
M  V30 2986 H 277.371 -0.00857665 0.675946 0
M  V30 2987 H 279.925 0.623288 1.95715 0
M  V30 2988 H 278.155 -1.29575 3.64345 0
M  V30 2989 H 279.844 -0.995116 3.93513 0
M  V30 2990 H 280.61 1.38367 4.64844 0
M  V30 2991 H 276.489 0.158149 4.60729 0
M  V30 2992 H 280.033 3.22949 6.18344 0
M  V30 2993 H 275.93 1.99564 6.13876 0
M  V30 2994 H 276.698 3.72374 7.2889 0
M  V30 2995 N 279.361 -1.56624 0.175154 0
M  V30 2996 C 280.271 -2.21741 -0.766042 0
M  V30 2997 C 281.287 -1.21023 -1.25018 0
M  V30 2998 O 282.463 -1.53697 -1.3015 0
M  V30 2999 C 279.528 -2.84839 -1.97655 0
M  V30 3000 C 278.589 -4.00769 -1.53892 0
M  V30 3001 C 277.822 -4.60849 -2.69173 0
M  V30 3002 O 278.045 -4.19823 -3.86141 0
M  V30 3003 O 276.979 -5.50655 -2.43028 0
M  V30 3004 H 280.805 -3.02738 -0.241585 0
M  V30 3005 H 278.39 -1.49305 -0.053222 0
M  V30 3006 H 280.272 -3.24834 -2.68442 0
M  V30 3007 H 278.947 -2.06836 -2.48999 0
M  V30 3008 H 277.854 -3.65436 -0.80044 0
M  V30 3009 H 279.187 -4.80376 -1.07236 0
M  V30 3010 N 280.839 0.0985539 -1.57292 0
M  V30 3011 C 281.749 1.13824 -2.05137 0
M  V30 3012 C 282.765 1.44076 -0.975604 0
M  V30 3013 O 283.941 1.54786 -1.28853 0
M  V30 3014 C 281.006 2.43969 -2.46333 0
M  V30 3015 C 280.067 2.2093 -3.68087 0
M  V30 3016 C 279.3 3.44869 -4.0731 0
M  V30 3017 O 279.523 4.52972 -3.46659 0
M  V30 3018 O 278.457 3.34661 -5.00285 0
M  V30 3019 H 282.283 0.761881 -2.93988 0
M  V30 3020 H 279.868 0.310818 -1.46131 0
M  V30 3021 H 281.75 3.20609 -2.73473 0
M  V30 3022 H 280.425 2.81038 -1.60621 0
M  V30 3023 H 279.332 1.42081 -3.46069 0
M  V30 3024 H 280.665 1.88755 -4.54568 0
M  V30 3025 N 282.317 1.53212 0.369288 0
M  V30 3026 C 283.28 1.7872 1.43498 0
M  V30 3027 C 284.28 0.657554 1.46741 0
M  V30 3028 O 285.47 0.925736 1.47566 0
M  V30 3029 C 282.602 1.90591 2.82645 0
M  V30 3030 H 283.795 2.73894 1.22156 0
M  V30 3031 H 281.348 1.44233 0.602203 0
M  V30 3032 H 282.083 0.974709 3.09306 0
M  V30 3033 H 281.868 2.72751 2.8169 0
M  V30 3034 H 283.358 2.11931 3.59826 0
M  V30 3035 N 283.795 -0.628877 1.44509 0
M  V30 3036 C 285.072 -1.38733 1.37886 0
M  V30 3037 C 285.452 -2.11065 0.0387008 0
M  V30 3038 O 284.8 -2.06476 -0.97878 0
M  V30 3039 C 285.01 -2.35188 2.57852 0
M  V30 3040 C 286.358 -2.9845 3.02014 0
M  V30 3041 O 287.382 -2.45513 2.58073 0
M  V30 3042 O 286.241 -3.94487 3.78209 0
M  V30 3043 H 283.335 -0.621015 0.54614 0
M  V30 3044 H 285.881 -0.653744 1.56602 0
M  V30 3045 H 284.653 -1.80855 3.46998 0
M  V30 3046 H 284.276 -3.1596 2.4136 0
M  V30 3047 N 285.273 -1.31445 -0.869486 0
M  V30 3048 C 286.221 -1.19067 -1.99814 0
M  V30 3049 C 287.215 -0.0988569 -1.69111 0
M  V30 3050 O 288.421 -0.260781 -1.78101 0
M  V30 3051 H 284.796 -0.368677 -0.655425 0
M  V30 3052 H 286.767 -2.14555 -2.07385 0
M  V30 3053 C 285.516 -0.915323 -3.35436 0
M  V30 3054 H 284.839 -1.74759 -3.59582 0
M  V30 3055 H 286.279 -0.868895 -4.15001 0
M  V30 3056 C 284.738 0.381928 -3.34728 0
M  V30 3057 O 285.268 1.39857 -3.76567 0
M  V30 3058 N 283.474 0.398633 -2.87853 0
M  V30 3059 H 283.021 -0.429186 -2.54 0
M  V30 3060 H 282.979 1.26651 -2.87762 0
M  V30 3061 N 286.751 1.08385 -1.14413 0
M  V30 3062 C 288.028 1.77429 -0.823297 0
M  V30 3063 C 288.408 1.9974 0.683163 0
M  V30 3064 O 287.756 1.60739 1.62405 0
M  V30 3065 C 287.966 3.09004 -1.62227 0
M  V30 3066 C 289.314 3.83532 -1.82177 0
M  V30 3067 O 290.338 3.18786 -1.58915 0
M  V30 3068 O 289.197 4.99792 -2.21067 0
M  V30 3069 H 286.291 0.769999 -0.301712 0
M  V30 3070 H 288.837 1.14846 -1.24934 0
M  V30 3071 H 287.609 2.88316 -2.64555 0
M  V30 3072 H 287.232 3.79316 -1.19187 0
M  V30 3073 N 288.23 0.939286 1.26551 0
M  V30 3074 C 289.641 0.628782 1.75793 0
M  V30 3075 C 289.992 -0.856046 1.7654 0
M  V30 3076 O 289.117 -1.66994 1.3763 0
M  V30 3077 C 289.712 1.13465 3.19235 0
M  V30 3078 C 288.271 0.874601 3.66098 0
M  V30 3079 C 287.418 1.28667 2.45642 0
M  V30 3080 H 290.369 1.1178 1.12654 0
M  V30 3081 H 290.39 0.487609 3.77363 0
M  V30 3082 H 289.902 2.21535 3.1866 0
M  V30 3083 H 288.003 -0.191793 3.72106 0
M  V30 3084 H 288.116 1.50028 4.55004 0
M  V30 3085 H 286.48 0.705109 2.44745 0
M  V30 3086 H 287.263 2.37625 2.47769 0
M  V30 3087 N 289.708 -1.40897 0.706093 0
M  V30 3088 C 290.936 -2.05373 0.250887 0
M  V30 3089 C 291.351 -1.53172 -1.10381 0
M  V30 3090 O 290.708 -0.684305 -1.69185 0
M  V30 3091 C 290.759 -3.6088 0.211571 0
M  V30 3092 O 290.48 -4.11153 1.51276 0
M  V30 3093 C 291.981 -4.42517 -0.263346 0
M  V30 3094 H 289.201 -0.66115 0.114552 0
M  V30 3095 H 291.745 -1.80479 0.961635 0
M  V30 3096 H 289.9 -3.84777 -0.450073 0
M  V30 3097 H 290.314 -5.05279 1.40689 0
M  V30 3098 H 291.788 -5.51479 -0.239718 0
M  V30 3099 H 292.265 -4.19396 -1.30397 0
M  V30 3100 H 292.871 -4.23708 0.367677 0
M  V30 3101 N 291.186 -0.45159 -1.50991 0
M  V30 3102 C 292.434 0.109857 -2.01801 0
M  V30 3103 C 292.755 1.41958 -1.3369 0
M  V30 3104 O 292.025 1.9003 -0.475951 0
M  V30 3105 H 290.605 0.0435884 -0.745727 0
M  V30 3106 H 293.267 -0.597557 -1.85514 0
M  V30 3107 H 292.363 0.275489 -3.10882 0
M  V30 3108 N 292.664 1.56529 -0.183458 0
M  V30 3109 C 293.574 2.22144 0.754272 0
M  V30 3110 C 294.59 1.21684 1.24374 0
M  V30 3111 O 295.766 1.54385 1.29333 0
M  V30 3112 C 292.831 2.85884 1.96141 0
M  V30 3113 C 291.892 4.01579 1.51765 0
M  V30 3114 C 291.125 4.6227 2.66725 0
M  V30 3115 O 291.348 4.21865 3.83909 0
M  V30 3116 O 290.282 5.51936 2.40104 0
M  V30 3117 H 294.108 3.02861 0.225527 0
M  V30 3118 H 291.693 1.49331 0.0453032 0
M  V30 3119 H 293.575 3.26253 2.66715 0
M  V30 3120 H 292.25 2.08154 2.47899 0
M  V30 3121 H 291.157 3.65856 0.781049 0
M  V30 3122 H 292.49 4.80938 1.04686 0
M  V30 3123 N 294.142 -0.090211 1.57342 0
M  V30 3124 C 295.105 -1.09335 2.01441 0
M  V30 3125 C 296.105 -1.32666 0.908641 0
M  V30 3126 O 297.295 -1.28697 1.174 0
M  V30 3127 C 294.427 -2.44136 2.3793 0
M  V30 3128 H 295.62 -0.713662 2.91285 0
M  V30 3129 H 293.173 -0.335404 1.52659 0
M  V30 3130 H 293.908 -2.86972 1.51055 0
M  V30 3131 H 293.693 -2.28548 3.18603 0
M  V30 3132 H 295.183 -3.16277 2.72688 0
M  V30 3133 N 295.62 -1.53406 -0.361157 0
M  V30 3134 C 296.583 -1.79479 -1.42548 0
M  V30 3135 C 297.583 -0.665327 -1.4639 0
M  V30 3136 O 298.773 -0.933549 -1.47073 0
M  V30 3137 C 295.905 -1.92087 -2.8163 0
M  V30 3138 H 297.098 -2.74538 -1.20701 0
M  V30 3139 H 294.651 -1.4455 -0.594546 0
M  V30 3140 H 295.386 -0.991099 -3.08784 0
M  V30 3141 H 295.171 -2.74241 -2.80239 0
M  V30 3142 H 296.661 -2.13836 -3.58697 0
M  V30 3143 N 297.098 0.621204 -1.44841 0
M  V30 3144 C 298.061 1.71459 -1.521 0
M  V30 3145 C 299.061 1.55696 -0.401933 0
M  V30 3146 O 300.251 1.61011 -0.664925 0
M  V30 3147 C 297.383 3.10624 -1.40447 0
M  V30 3148 H 298.576 1.66394 -2.49506 0
M  V30 3149 H 296.129 0.835745 -1.3208 0
M  V30 3150 H 296.864 3.21277 -0.441737 0
M  V30 3151 H 296.649 3.23473 -2.21602 0
M  V30 3152 H 298.139 3.90293 -1.4853 0
M  V30 3153 N 298.576 1.31904 0.862503 0
M  V30 3154 C 299.524 1.20125 1.9918 0
M  V30 3155 C 300.518 0.107824 1.69056 0
M  V30 3156 O 301.724 0.270223 1.7796 0
M  V30 3157 H 298.099 0.372148 0.65346 0
M  V30 3158 H 300.07 2.15652 2.06244 0
M  V30 3159 C 298.819 0.933099 3.34946 0
M  V30 3160 H 298.142 1.76664 3.5865 0
M  V30 3161 H 299.582 0.890892 4.14535 0
M  V30 3162 C 298.041 -0.364172 3.34926 0
M  V30 3163 O 298.571 -1.37858 3.77304 0
M  V30 3164 N 296.777 -0.383362 2.8806 0
M  V30 3165 H 296.324 0.442651 2.53768 0
M  V30 3166 H 296.282 -1.25123 2.8843 0
M  V30 3167 N 300.054 -1.07777 1.14986 0
M  V30 3168 C 301.282 -1.84018 0.945773 0
M  V30 3169 C 301.697 -1.81897 -0.505863 0
M  V30 3170 O 301.054 -1.22726 -1.35072 0
M  V30 3171 C 301.105 -3.31287 1.44677 0
M  V30 3172 O 300.826 -3.33449 2.84154 0
M  V30 3173 C 302.327 -4.24311 1.28355 0
M  V30 3174 H 299.547 -0.580716 0.336169 0
M  V30 3175 H 302.091 -1.36077 1.52654 0
M  V30 3176 H 300.246 -3.76594 0.908625 0
M  V30 3177 H 300.66 -4.25427 3.06777 0
M  V30 3178 H 302.134 -5.2573 1.68261 0
M  V30 3179 H 302.611 -4.38612 0.227184 0
M  V30 3180 H 303.217 -3.84836 1.81056 0
M  V30 3181 N 301.532 -0.945985 -1.26051 0
M  V30 3182 C 302.464 -0.416662 -2.25381 0
M  V30 3183 C 303.477 0.462712 -1.56086 0
M  V30 3184 O 304.666 0.272383 -1.7641 0
M  V30 3185 C 301.766 0.419812 -3.3629 0
M  V30 3186 C 300.939 -0.444531 -4.35135 0
M  V30 3187 C 299.998 0.332305 -5.2515 0
M  V30 3188 O 299.024 -0.266324 -5.68577 0
M  V30 3189 N 300.226 1.62763 -5.57215 0
M  V30 3190 H 302.991 -1.27059 -2.71433 0
M  V30 3191 H 300.552 -0.815392 -1.39868 0
M  V30 3192 H 302.544 0.947013 -3.93464 0
M  V30 3193 H 301.114 1.17456 -2.89694 0
M  V30 3194 H 300.334 -1.15291 -3.76964 0
M  V30 3195 H 301.622 -1.03478 -4.98166 0
M  V30 3196 H 301.02 2.13603 -5.23823 0
M  V30 3197 H 299.577 2.10097 -6.17011 0
M  V30 3198 N 303.011 1.40521 -0.713556 0
M  V30 3199 C 303.943 2.29191 -0.0203126 0
M  V30 3200 C 304.956 1.45723 0.725864 0
M  V30 3201 O 306.145 1.69033 0.573581 0
M  V30 3202 C 303.245 3.2395 0.995486 0
M  V30 3203 C 302.418 4.36262 0.315256 0
M  V30 3204 C 301.477 5.11474 1.23616 0
M  V30 3205 O 300.503 5.64606 0.721719 0
M  V30 3206 N 301.705 5.20638 2.56743 0
M  V30 3207 H 304.47 2.89327 -0.781652 0
M  V30 3208 H 302.031 1.51869 -0.561022 0
M  V30 3209 H 304.023 3.71137 1.61368 0
M  V30 3210 H 302.593 2.64995 1.6582 0
M  V30 3211 H 301.813 3.91228 -0.483106 0
M  V30 3212 H 303.101 5.08558 -0.157004 0
M  V30 3213 H 302.499 4.7895 3.01037 0
M  V30 3214 H 301.056 5.71339 3.13712 0
M  V30 3215 N 304.489 0.459591 1.5075 0
M  V30 3216 C 305.717 -0.0973749 2.06671 0
M  V30 3217 C 306.132 -1.34524 1.32472 0
M  V30 3218 O 305.489 -1.7827 0.390634 0
M  V30 3219 C 305.54 -0.39714 3.59312 0
M  V30 3220 O 305.261 0.801214 4.30711 0
M  V30 3221 C 306.762 -1.00234 4.31819 0
M  V30 3222 H 303.982 0.00195854 0.670997 0
M  V30 3223 H 306.526 0.645072 1.94059 0
M  V30 3224 H 304.681 -1.08951 3.71764 0
M  V30 3225 H 305.095 0.538857 5.21725 0
M  V30 3226 H 306.569 -1.16193 5.39632 0
M  V30 3227 H 307.046 -1.98939 3.91561 0
M  V30 3228 H 307.652 -0.348699 4.23868 0
M  V30 3229 N 305.967 -1.56429 0.191757 0
M  V30 3230 C 306.897 -2.21937 -0.725696 0
M  V30 3231 C 307.878 -1.1814 -1.2238 0
M  V30 3232 O 309.063 -1.46636 -1.27325 0
M  V30 3233 C 306.193 -2.87611 -1.94672 0
M  V30 3234 C 305.147 -3.97623 -1.58366 0
M  V30 3235 C 304.473 -4.50446 -2.88102 0
M  V30 3236 C 305.773 -5.16197 -0.796133 0
M  V30 3237 H 307.467 -2.98861 -0.179606 0
M  V30 3238 H 305.013 -1.43749 -0.0849464 0
M  V30 3239 H 306.966 -3.3212 -2.59373 0
M  V30 3240 H 305.69 -2.08087 -2.51728 0
M  V30 3241 H 304.349 -3.53801 -0.960247 0
M  V30 3242 H 303.997 -3.67688 -3.43241 0
M  V30 3243 H 303.697 -5.24675 -2.64556 0
M  V30 3244 H 305.221 -4.97654 -3.53798 0
M  V30 3245 H 306.635 -5.57271 -1.34618 0
M  V30 3246 H 305.032 -5.96471 -0.658928 0
M  V30 3247 H 306.102 -4.84473 0.203478 0
M  V30 3248 N 307.445 0.0818655 -1.57387 0
M  V30 3249 C 308.673 0.796108 -1.9097 0
M  V30 3250 C 309.088 1.71626 -0.786757 0
M  V30 3251 O 308.445 1.80908 0.240513 0
M  V30 3252 C 308.496 1.59829 -3.24248 0
M  V30 3253 O 308.217 0.715131 -4.32224 0
M  V30 3254 C 309.718 2.41442 -3.7178 0
M  V30 3255 H 306.938 0.22691 -0.631469 0
M  V30 3256 H 309.482 0.0551439 -2.04426 0
M  V30 3257 H 307.637 2.29163 -3.12351 0
M  V30 3258 H 308.051 1.27205 -5.08841 0
M  V30 3259 H 309.525 2.932 -4.67694 0
M  V30 3260 H 310.002 3.2051 -3.00283 0
M  V30 3261 H 310.608 1.77283 -3.86589 0
M  V30 3262 N 308.923 1.53595 0.353017 0
M  V30 3263 C 310.17 1.70385 1.09431 0
M  V30 3264 C 310.498 0.462113 1.88931 0
M  V30 3265 O 309.753 -0.556074 1.87633 0
M  V30 3266 C 310.052 2.91313 2.07054 0
M  V30 3267 C 309.718 4.27308 1.43939 0
M  V30 3268 C 308.38 4.64287 1.26454 0
M  V30 3269 C 310.732 5.11829 0.983883 0
M  V30 3270 C 308.06 5.83412 0.620226 0
M  V30 3271 C 310.412 6.31611 0.353516 0
M  V30 3272 C 309.076 6.67293 0.166272 0
M  V30 3273 H 308.346 0.623484 0.400436 0
M  V30 3274 H 310.993 1.87799 0.374655 0
M  V30 3275 H 309.298 2.68463 2.85368 0
M  V30 3276 H 310.995 3.01497 2.64387 0
M  V30 3277 H 307.585 3.98198 1.58543 0
M  V30 3278 H 311.769 4.838 1.10685 0
M  V30 3279 H 307.025 6.09639 0.463681 0
M  V30 3280 H 311.199 6.964 -0.00757555 0
M  V30 3281 H 308.826 7.59461 -0.335047 0
M  V30 3282 N 310.401 -0.613514 1.45168 0
M  V30 3283 C 311.631 -1.39743 1.52169 0
M  V30 3284 C 312.039 -1.88596 0.151086 0
M  V30 3285 O 311.382 -1.6251 -0.856521 0
M  V30 3286 C 311.444 -2.64035 2.43979 0
M  V30 3287 C 311.108 -2.36861 3.90827 0
M  V30 3288 C 312.105 -1.97591 4.80889 0
M  V30 3289 C 309.79 -2.49956 4.35692 0
M  V30 3290 C 311.784 -1.71768 6.1382 0
M  V30 3291 C 309.471 -2.23747 5.68665 0
M  V30 3292 C 310.469 -1.84714 6.57548 0
M  V30 3293 O 310.157 -1.58809 7.88058 0
M  V30 3294 H 309.889 -0.434382 0.517966 0
M  V30 3295 H 312.443 -0.75587 1.90986 0
M  V30 3296 H 310.673 -3.3089 2.00122 0
M  V30 3297 H 312.362 -3.26069 2.41731 0
M  V30 3298 H 313.128 -1.87015 4.47493 0
M  V30 3299 H 309.007 -2.79305 3.66756 0
M  V30 3300 H 312.551 -1.41227 6.83155 0
M  V30 3301 H 308.448 -2.33938 6.01617 0
M  V30 3302 H 309.216 -1.7291 8.00028 0
M  V30 3303 N 311.879 -1.3236 -0.855495 0
M  V30 3304 C 312.789 -1.23221 -1.99634 0
M  V30 3305 C 313.805 -0.145983 -1.73387 0
M  V30 3306 O 314.981 -0.366502 -1.98037 0
M  V30 3307 C 312.046 -0.954782 -3.33294 0
M  V30 3308 C 311.107 -2.12937 -3.72769 0
M  V30 3309 C 310.34 -1.86508 -5.00051 0
M  V30 3310 O 310.563 -0.807231 -5.64659 0
M  V30 3311 O 309.497 -2.72591 -5.36636 0
M  V30 3312 H 313.323 -2.19126 -2.1028 0
M  V30 3313 H 310.908 -1.12241 -0.986018 0
M  V30 3314 H 312.79 -0.816519 -4.13414 0
M  V30 3315 H 311.465 -0.0258854 -3.2369 0
M  V30 3316 H 310.372 -2.3231 -2.93228 0
M  V30 3317 H 311.705 -3.04102 -3.87018 0
M  V30 3318 N 313.357 1.07166 -1.15556 0
M  V30 3319 C 314.287 2.16403 -0.877046 0
M  V30 3320 C 315.268 1.69217 0.173111 0
M  V30 3321 O 316.453 1.94181 0.027084 0
M  V30 3322 C 313.583 3.45349 -0.367632 0
M  V30 3323 C 312.537 4.05995 -1.35468 0
M  V30 3324 C 311.863 5.30045 -0.704038 0
M  V30 3325 C 313.163 4.45804 -2.72132 0
M  V30 3326 H 314.857 2.39959 -1.79053 0
M  V30 3327 H 312.403 1.15325 -0.862331 0
M  V30 3328 H 314.356 4.21095 -0.160317 0
M  V30 3329 H 313.08 3.21385 0.581326 0
M  V30 3330 H 311.739 3.32296 -1.54839 0
M  V30 3331 H 311.387 5.02373 0.251128 0
M  V30 3332 H 311.087 5.71579 -1.36277 0
M  V30 3333 H 312.611 6.08495 -0.50654 0
M  V30 3334 H 314.025 5.12671 -2.56595 0
M  V30 3335 H 312.422 4.98296 -3.34397 0
M  V30 3336 H 313.492 3.57083 -3.28054 0
M  V30 3337 N 314.835 0.952656 1.25548 0
M  V30 3338 C 316.112 0.523818 1.88456 0
M  V30 3339 C 316.492 -0.998871 1.85973 0
M  V30 3340 O 315.84 -1.86381 1.3219 0
M  V30 3341 C 316.05 1.0982 3.31271 0
M  V30 3342 C 317.398 1.17385 4.08051 0
M  V30 3343 O 318.422 1.04961 3.40384 0
M  V30 3344 O 317.281 1.36852 5.29088 0
M  V30 3345 H 314.375 0.172485 0.808813 0
M  V30 3346 H 316.921 1.04596 1.33633 0
M  V30 3347 H 315.693 2.1415 3.27499 0
M  V30 3348 H 315.316 0.559191 3.93648 0
M  V30 3349 N 316.313 -1.40141 0.720998 0
M  V30 3350 C 317.243 -2.33339 0.0867621 0
M  V30 3351 C 318.224 -1.53178 -0.739622 0
M  V30 3352 O 319.409 -1.81625 -0.687449 0
M  V30 3353 C 316.539 -3.37194 -0.831728 0
M  V30 3354 C 315.493 -4.27857 -0.110558 0
M  V30 3355 C 314.819 -5.22294 -1.14513 0
M  V30 3356 C 316.119 -5.11872 1.0385 0
M  V30 3357 H 317.813 -2.86626 0.865219 0
M  V30 3358 H 315.359 -1.37814 0.417516 0
M  V30 3359 H 317.312 -4.01335 -1.28485 0
M  V30 3360 H 316.036 -2.82314 -1.64214 0
M  V30 3361 H 314.695 -3.65176 0.322797 0
M  V30 3362 H 314.343 -4.63717 -1.94874 0
M  V30 3363 H 314.043 -5.83797 -0.667446 0
M  V30 3364 H 315.567 -5.89312 -1.59824 0
M  V30 3365 H 316.981 -5.69436 0.664482 0
M  V30 3366 H 315.378 -5.82445 1.4449 0
M  V30 3367 H 316.448 -4.4753 1.86668 0
M  V30 3368 N 317.792 -0.46758 -1.50504 0
M  V30 3369 C 319.04 0.0884469 -2.01906 0
M  V30 3370 C 319.361 1.40532 -1.35188 0
M  V30 3371 O 318.631 1.89515 -0.496079 0
M  V30 3372 H 317.211 0.0356765 -0.746148 0
M  V30 3373 H 319.873 -0.6172 -1.84869 0
M  V30 3374 H 318.969 0.2425 -3.11156 0
M  V30 3375 N 319.27 1.56325 -0.20005 0
M  V30 3376 C 320.2 2.22318 0.713916 0
M  V30 3377 C 321.181 1.18788 1.21752 0
M  V30 3378 O 322.366 1.47309 1.26545 0
M  V30 3379 C 319.496 2.88639 1.93144 0
M  V30 3380 C 318.45 3.98457 1.56255 0
M  V30 3381 C 317.776 4.51967 2.85709 0
M  V30 3382 C 319.076 5.16612 0.768747 0
M  V30 3383 H 320.77 2.98952 0.163755 0
M  V30 3384 H 318.316 1.43792 0.0773219 0
M  V30 3385 H 320.269 3.33491 2.57608 0
M  V30 3386 H 318.993 2.09419 2.50621 0
M  V30 3387 H 317.652 3.54305 0.941471 0
M  V30 3388 H 317.3 3.69503 3.41287 0
M  V30 3389 H 317 5.26071 2.6177 0
M  V30 3390 H 318.524 4.99523 3.51154 0
M  V30 3391 H 319.938 5.57977 1.3166 0
M  V30 3392 H 318.335 5.96812 0.627286 0
M  V30 3393 H 319.405 4.84358 -0.229168 0
M  V30 3394 N 320.748 -0.0735177 1.57428 0
M  V30 3395 C 321.696 -1.10628 2.04607 0
M  V30 3396 C 322.69 -1.40181 0.951088 0
M  V30 3397 O 323.896 -1.39608 1.1362 0
M  V30 3398 H 320.271 -0.374088 0.652351 0
M  V30 3399 H 322.242 -0.682218 2.90497 0
M  V30 3400 C 320.991 -2.41212 2.50423 0
M  V30 3401 H 320.314 -2.19322 3.34272 0
M  V30 3402 H 321.754 -3.11927 2.87189 0
M  V30 3403 C 320.213 -3.0705 1.38644 0
M  V30 3404 O 320.743 -3.95056 0.727582 0
M  V30 3405 N 318.949 -2.67645 1.132 0
M  V30 3406 H 318.496 -1.96169 1.66959 0
M  V30 3407 H 318.454 -3.1202 0.386147 0
M  V30 3408 N 322.226 -1.5378 -0.344866 0
M  V30 3409 C 323.176 -1.78057 -1.42407 0
M  V30 3410 C 324.16 -0.635732 -1.47808 0
M  V30 3411 O 325.352 -0.89508 -1.527 0
M  V30 3412 C 322.481 -1.99242 -2.79566 0
M  V30 3413 C 321.567 -3.19787 -2.78562 0
M  V30 3414 N 321.958 -4.41284 -2.47189 0
M  V30 3415 C 320.256 -3.2093 -3.0971 0
M  V30 3416 C 320.957 -5.23128 -2.54385 0
M  V30 3417 N 319.933 -4.59813 -2.89953 0
M  V30 3418 H 323.735 -2.69588 -1.17046 0
M  V30 3419 H 321.249 -1.52687 -0.553217 0
M  V30 3420 H 323.246 -2.14768 -3.57324 0
M  V30 3421 H 321.906 -1.08953 -3.05875 0
M  V30 3422 H 322.917 -4.68657 -2.20411 0
M  V30 3423 H 319.594 -2.40603 -3.41199 0
M  V30 3424 H 320.984 -6.30096 -2.333 0
M  V30 3425 N 323.704 0.605807 -1.45491 0
M  V30 3426 C 324.95 1.36679 -1.49823 0
M  V30 3427 C 325.283 1.93693 -0.140175 0
M  V30 3428 O 324.558 1.75158 0.845581 0
M  V30 3429 C 324.841 2.51337 -2.57879 0
M  V30 3430 C 324.694 1.99508 -4.03134 0
M  V30 3431 C 326.013 3.53463 -2.62205 0
M  V30 3432 H 323.132 0.495617 -0.545466 0
M  V30 3433 H 325.774 0.682732 -1.7731 0
M  V30 3434 H 323.924 3.09691 -2.34571 0
M  V30 3435 H 325.596 1.45789 -4.37656 0
M  V30 3436 H 323.839 1.30496 -4.13707 0
M  V30 3437 H 324.51 2.82169 -4.74431 0
M  V30 3438 H 326.986 3.04953 -2.83095 0
M  V30 3439 H 325.862 4.31178 -3.39672 0
M  V30 3440 H 326.123 4.09197 -1.67363 0
M  V30 3441 N 325.182 1.32811 0.848464 0
M  V30 3442 C 326.428 1.23907 1.60546 0
M  V30 3443 C 326.761 -0.197161 1.93197 0
M  V30 3444 O 326.036 -1.13596 1.5788 0
M  V30 3445 C 326.319 2.10489 2.92175 0
M  V30 3446 C 326.172 3.62522 2.66266 0
M  V30 3447 C 327.491 1.97075 3.93509 0
M  V30 3448 H 324.61 0.451459 0.58254 0
M  V30 3449 H 327.252 1.62818 0.979296 0
M  V30 3450 H 325.402 1.77434 3.45614 0
M  V30 3451 H 327.074 4.05821 2.19334 0
M  V30 3452 H 325.317 3.84879 2.00126 0
M  V30 3453 H 325.988 4.18437 3.6002 0
M  V30 3454 H 328.464 2.26045 3.49346 0
M  V30 3455 H 327.34 2.59923 4.83457 0
M  V30 3456 H 327.601 0.940186 4.31987 0
M  V30 3457 N 326.66 -1.06551 1.16123 0
M  V30 3458 C 328.076 -1.3142 0.905585 0
M  V30 3459 C 328.276 -1.96571 -0.442964 0
M  V30 3460 O 327.332 -2.23068 -1.18308 0
M  V30 3461 C 328.645 -2.19741 2.05267 0
M  V30 3462 C 330.193 -2.33165 2.08813 0
M  V30 3463 C 330.668 -3.24838 3.22868 0
M  V30 3464 N 332.159 -3.32421 3.22568 0
M  V30 3465 C 332.894 -4.0344 4.0746 0
M  V30 3466 N 332.39 -4.77003 5.02434 0
M  V30 3467 N 334.183 -3.99464 3.95456 0
M  V30 3468 H 326.334 -0.626548 2.02949 0
M  V30 3469 H 328.597 -0.338777 0.8854 0
M  V30 3470 H 328.303 -1.79142 3.02657 0
M  V30 3471 H 328.177 -3.20313 1.99198 0
M  V30 3472 H 330.564 -2.73013 1.12018 0
M  V30 3473 H 330.645 -1.3227 2.18948 0
M  V30 3474 H 330.289 -2.85708 4.19921 0
M  V30 3475 H 330.219 -4.25707 3.0997 0
M  V30 3476 H 332.71 -2.79994 2.53795 0
M  V30 3477 H 333.023 -5.28712 5.63634 0
M  V30 3478 H 331.368 -4.75992 5.06415 0
M  V30 3479 H 334.559 -3.4111 3.20564 0
M  V30 3480 H 334.732 -4.54544 4.61837 0
M  V30 3481 N 328.138 -0.959301 -1.25041 0
M  V30 3482 C 329.085 -0.482057 -2.2571 0
M  V30 3483 C 330.055 0.467939 -1.59372 0
M  V30 3484 O 331.24 0.380159 -1.86974 0
M  V30 3485 C 328.38 0.229623 -3.44335 0
M  V30 3486 C 327.493 -0.758156 -4.25295 0
M  V30 3487 C 326.628 -0.0234403 -5.31195 0
M  V30 3488 C 325.667 -1.00184 -6.03846 0
M  V30 3489 N 324.804 -0.29769 -7.01469 0
M  V30 3490 H 329.644 -1.34538 -2.65901 0
M  V30 3491 H 327.181 -0.674592 -1.3072 0
M  V30 3492 H 329.139 0.658856 -4.11965 0
M  V30 3493 H 327.769 1.05696 -3.05005 0
M  V30 3494 H 326.821 -1.30586 -3.57284 0
M  V30 3495 H 328.133 -1.50458 -4.75567 0
M  V30 3496 H 327.287 0.464201 -6.04922 0
M  V30 3497 H 326.026 0.755741 -4.81809 0
M  V30 3498 H 325.031 -1.50044 -5.2893 0
M  V30 3499 H 326.256 -1.78133 -6.55321 0
M  V30 3500 H 324.202 0.462668 -6.54366 0
M  V30 3501 H 324.119 -0.983128 -7.4958 0
M  V30 3502 H 325.387 0.16826 -7.79318 0
M  V30 3503 N 329.616 1.39756 -0.72842 0
M  V30 3504 C 330.846 2.04651 -0.283117 0
M  V30 3505 C 331.254 1.5502 1.08469 0
M  V30 3506 O 330.597 0.707343 1.69536 0
M  V30 3507 C 330.659 3.58947 -0.199309 0
M  V30 3508 C 330.323 4.31525 -1.5045 0
M  V30 3509 C 331.32 4.5861 -2.44894 0
M  V30 3510 C 329.005 4.70195 -1.76698 0
M  V30 3511 C 330.999 5.23366 -3.63822 0
M  V30 3512 C 328.686 5.3468 -2.95906 0
M  V30 3513 C 329.684 5.61198 -3.89289 0
M  V30 3514 O 329.372 6.24347 -5.06404 0
M  V30 3515 H 329.104 0.664777 -0.122666 0
M  V30 3516 H 331.658 1.79913 -0.990987 0
M  V30 3517 H 329.888 3.82556 0.56461 0
M  V30 3518 H 331.577 4.0534 0.213125 0
M  V30 3519 H 332.343 4.29187 -2.25883 0
M  V30 3520 H 328.222 4.48916 -1.04859 0
M  V30 3521 H 331.766 5.4398 -4.36728 0
M  V30 3522 H 327.663 5.63524 -3.14819 0
M  V30 3523 H 328.431 6.42842 -5.06652 0
M  V30 3524 N 331.094 0.475555 1.50254 0
M  V30 3525 C 332.319 -0.0777042 2.07254 0
M  V30 3526 C 332.744 -1.3235 1.3366 0
M  V30 3527 O 332.102 -1.77152 0.385597 0
M  V30 3528 C 332.15 -0.340169 3.58992 0
M  V30 3529 O 331.254 -1.41982 3.87188 0
M  V30 3530 H 330.595 0.0149556 0.663832 0
M  V30 3531 H 333.125 0.667878 1.93392 0
M  V30 3532 H 333.135 -0.579332 4.03866 0
M  V30 3533 H 331.81 0.570167 4.11973 0
M  V30 3534 H 330.387 -1.16762 3.54148 0
M  V30 3535 N 332.573 -1.56217 0.208337 0
M  V30 3536 C 333.483 -2.23316 -0.718836 0
M  V30 3537 C 334.499 -1.23648 -1.22422 0
M  V30 3538 O 335.675 -1.56423 -1.26861 0
M  V30 3539 C 332.74 -2.88968 -1.91568 0
M  V30 3540 C 331.801 -4.03943 -1.45357 0
M  V30 3541 C 331.034 -4.66455 -2.59337 0
M  V30 3542 O 331.257 -4.27919 -3.77149 0
M  V30 3543 O 330.191 -5.55686 -2.31293 0
M  V30 3544 H 334.017 -3.03182 -0.177315 0
M  V30 3545 H 331.602 -1.49384 -0.0215402 0
M  V30 3546 H 333.484 -3.30455 -2.61491 0
M  V30 3547 H 332.159 -2.12071 -2.44556 0
M  V30 3548 H 331.066 -3.67052 -0.722746 0
M  V30 3549 H 332.399 -4.82543 -0.970219 0
M  V30 3550 N 334.051 0.0651679 -1.57465 0
M  V30 3551 C 335.462 0.616213 -1.76238 0
M  V30 3552 C 335.813 1.7756 -0.834689 0
M  V30 3553 O 334.938 2.1639 -0.0204156 0
M  V30 3554 C 335.533 1.12462 -3.1959 0
M  V30 3555 C 334.092 1.62147 -3.39684 0
M  V30 3556 C 333.239 0.543739 -2.71917 0
M  V30 3557 H 336.19 -0.161022 -1.57881 0
M  V30 3558 H 336.211 1.99324 -3.24114 0
M  V30 3559 H 335.723 0.280592 -3.87084 0
M  V30 3560 H 333.824 2.48854 -2.77313 0
M  V30 3561 H 333.937 1.69385 -4.48158 0
M  V30 3562 H 332.301 0.990352 -2.34657 0
M  V30 3563 H 333.084 -0.290216 -3.42071 0
M  V30 3564 N 335.529 1.53961 0.336706 0
M  V30 3565 C 336.459 1.85417 1.41925 0
M  V30 3566 C 337.44 0.709856 1.5458 0
M  V30 3567 O 338.625 0.962396 1.68676 0
M  V30 3568 C 335.755 2.06985 2.78881 0
M  V30 3569 C 334.709 3.22813 2.81026 0
M  V30 3570 C 334.035 3.29727 4.20932 0
M  V30 3571 C 335.335 4.60767 2.45949 0
M  V30 3572 H 337.029 2.76079 1.15848 0
M  V30 3573 H 334.575 1.32839 0.555859 0
M  V30 3574 H 336.528 2.27575 3.54665 0
M  V30 3575 H 335.252 1.13061 3.06406 0
M  V30 3576 H 333.911 3.0209 2.07695 0
M  V30 3577 H 333.559 2.33385 4.45579 0
M  V30 3578 H 333.259 4.07566 4.23277 0
M  V30 3579 H 334.783 3.52536 4.98549 0
M  V30 3580 H 336.197 4.81325 3.11446 0
M  V30 3581 H 334.594 5.4106 2.59566 0
M  V30 3582 H 335.664 4.6391 1.41122 0
M  V30 3583 N 337.007 -0.598083 1.45811 0
M  V30 3584 C 337.917 -1.73632 1.57763 0
M  V30 3585 C 338.933 -1.67763 0.461676 0
M  V30 3586 O 340.109 -1.87949 0.723685 0
M  V30 3587 C 337.174 -3.10114 1.55018 0
M  V30 3588 C 336.235 -3.27364 2.77726 0
M  V30 3589 C 335.468 -4.57334 2.75102 0
M  V30 3590 O 335.691 -5.40258 1.8297 0
M  V30 3591 O 334.625 -4.77502 3.66437 0
M  V30 3592 H 338.451 -1.66498 2.53992 0
M  V30 3593 H 336.036 -0.763308 1.28429 0
M  V30 3594 H 337.918 -3.9141 1.56129 0
M  V30 3595 H 336.593 -3.17718 0.619431 0
M  V30 3596 H 335.5 -2.45619 2.82174 0
M  V30 3597 H 336.833 -3.24641 3.69958 0
M  V30 3598 N 338.485 -1.33259 -0.841409 0
M  V30 3599 C 339.395 -1.25332 -1.98316 0
M  V30 3600 C 340.411 -0.164364 -1.73222 0
M  V30 3601 O 341.587 -0.387486 -1.97637 0
M  V30 3602 C 338.652 -0.990078 -3.32262 0
M  V30 3603 C 337.713 -2.16879 -3.70489 0
M  V30 3604 C 336.946 -1.91801 -4.98044 0
M  V30 3605 O 337.169 -0.867075 -5.63771 0
M  V30 3606 O 336.103 -2.78267 -5.33714 0
M  V30 3607 H 339.929 -2.21344 -2.07944 0
M  V30 3608 H 337.514 -1.1328 -0.974058 0
M  V30 3609 H 339.396 -0.860321 -4.12524 0
M  V30 3610 H 338.071 -0.0602155 -3.23644 0
M  V30 3611 H 336.978 -2.35407 -2.90748 0
M  V30 3612 H 338.311 -3.0819 -3.8377 0
M  V30 3613 N 339.963 1.05934 -1.16686 0
M  V30 3614 C 340.913 2.11764 -0.844978 0
M  V30 3615 C 341.897 1.59922 0.177178 0
M  V30 3616 O 343.089 1.76983 -0.0241768 0
M  V30 3617 C 340.218 3.41493 -0.351812 0
M  V30 3618 C 339.304 4.00152 -1.40496 0
M  V30 3619 N 339.695 4.32874 -2.61636 0
M  V30 3620 C 337.993 4.278 -1.26106 0
M  V30 3621 C 338.694 4.79552 -3.29249 0
M  V30 3622 N 337.67 4.79211 -2.56628 0
M  V30 3623 H 341.472 2.34916 -1.76612 0
M  V30 3624 H 338.986 1.23511 -1.05446 0
M  V30 3625 H 340.983 4.16773 -0.102796 0
M  V30 3626 H 339.643 3.19778 0.56322 0
M  V30 3627 H 340.654 4.23109 -2.98663 0
M  V30 3628 H 337.331 4.15511 -0.407081 0
M  V30 3629 H 338.721 5.14045 -4.32675 0
M  V30 3630 N 341.441 0.965919 1.2453 0
M  V30 3631 C 342.689 0.625593 1.92174 0
M  V30 3632 C 343.01 -0.841652 1.75901 0
M  V30 3633 O 342.28 -1.60061 1.12948 0
M  V30 3634 H 340.86 0.228388 0.71123 0
M  V30 3635 H 343.522 1.2266 1.51461 0
M  V30 3636 H 342.618 0.864653 2.99884 0
M  V30 3637 N 342.919 -1.39368 0.735821 0
M  V30 3638 C 343.867 -2.32443 0.0855131 0
M  V30 3639 C 344.861 -1.53104 -0.724954 0
M  V30 3640 O 346.067 -1.68762 -0.626047 0
M  V30 3641 H 342.442 -0.751948 0.00885257 0
M  V30 3642 H 344.413 -2.84916 0.886883 0
M  V30 3643 C 343.162 -3.38206 -0.806983 0
M  V30 3644 H 342.485 -3.99335 -0.19274 0
M  V30 3645 H 343.925 -4.05779 -1.2296 0
M  V30 3646 C 342.384 -2.75321 -1.94165 0
M  V30 3647 O 342.914 -2.63231 -3.03435 0
M  V30 3648 N 341.12 -2.33396 -1.73132 0
M  V30 3649 H 340.667 -2.4343 -0.842596 0
M  V30 3650 H 340.625 -1.91661 -2.49225 0
M  V30 3651 N 344.397 -0.483516 -1.5 0
M  V30 3652 C 345.644 0.0671597 -2.02389 0
M  V30 3653 C 345.972 1.38597 -1.36459 0
M  V30 3654 O 345.227 1.89634 -0.483458 0
M  V30 3655 C 345.526 0.286226 -3.56252 0
M  V30 3656 C 345.192 -0.952416 -4.40726 0
M  V30 3657 C 343.854 -1.29199 -4.63531 0
M  V30 3658 C 346.206 -1.77655 -4.89988 0
M  V30 3659 C 343.534 -2.45553 -5.32842 0
M  V30 3660 C 345.886 -2.93147 -5.60578 0
M  V30 3661 C 344.55 -3.27505 -5.81633 0
M  V30 3662 H 343.82 0.0245755 -0.740592 0
M  V30 3663 H 346.467 -0.640124 -1.80485 0
M  V30 3664 H 344.772 1.07587 -3.76739 0
M  V30 3665 H 346.469 0.726473 -3.94365 0
M  V30 3666 H 343.059 -0.677881 -4.23205 0
M  V30 3667 H 347.243 -1.52737 -4.72213 0
M  V30 3668 H 342.499 -2.72431 -5.47349 0
M  V30 3669 H 346.673 -3.57344 -5.97727 0
M  V30 3670 H 344.3 -4.1777 -6.35116 0
M  V30 3671 N 345.875 1.56104 -0.216619 0
M  V30 3672 C 346.805 2.23063 0.690296 0
M  V30 3673 C 347.786 1.20072 1.20485 0
M  V30 3674 O 348.971 1.48643 1.24976 0
M  V30 3675 C 346.101 2.90672 1.90072 0
M  V30 3676 C 345.055 4.00092 1.5202 0
M  V30 3677 C 344.381 4.54972 2.80899 0
M  V30 3678 C 345.681 5.17398 0.71391 0
M  V30 3679 H 347.375 2.99109 0.132038 0
M  V30 3680 H 344.921 1.43866 0.0620664 0
M  V30 3681 H 346.874 3.36204 2.54057 0
M  V30 3682 H 345.598 2.12066 2.48386 0
M  V30 3683 H 344.257 3.55283 0.903839 0
M  V30 3684 H 343.905 3.73102 3.37348 0
M  V30 3685 H 343.605 5.28817 2.56176 0
M  V30 3686 H 345.129 5.0322 3.45836 0
M  V30 3687 H 346.543 5.59342 1.25735 0
M  V30 3688 H 344.94 5.97444 0.563951 0
M  V30 3689 H 346.01 4.84088 -0.280527 0
M  V30 3690 N 347.353 -0.0568162 1.57498 0
M  V30 3691 C 348.602 -0.752001 1.87157 0
M  V30 3692 C 348.915 -1.77978 0.811375 0
M  V30 3693 O 350.121 -2.52559 0.996293 0
M  V30 3694 C 348.577 -1.38844 3.3204 0
M  V30 3695 C 348.185 -0.398456 4.46225 0
M  V30 3696 C 349.929 -2.06512 3.70882 0
M  V30 3697 C 347.836 -1.04166 5.82154 0
M  V30 3698 H 346.766 -0.28461 0.698222 0
M  V30 3699 H 349.417 -0.00561272 1.83499 0
M  V30 3700 H 347.799 -2.1836 3.30356 0
M  V30 3701 H 348.973 0.367977 4.59328 0
M  V30 3702 H 347.288 0.174592 4.16034 0
M  V30 3703 H 349.885 -2.55437 4.6974 0
M  V30 3704 H 350.228 -2.87117 3.01445 0
M  V30 3705 H 350.761 -1.33808 3.7462 0
M  V30 3706 H 347.5 -0.275614 6.5492 0
M  V30 3707 H 347.02 -1.7786 5.72823 0
M  V30 3708 H 348.699 -1.55715 6.27982 0
M  V30 3709 N 348.832 -1.54138 -0.328536 0
M  V30 3710 C 350.06 -1.76062 -1.08673 0
M  V30 3711 C 350.475 -0.506852 -1.81869 0
M  V30 3712 O 349.832 0.522223 -1.74869 0
M  V30 3713 C 349.883 -2.95054 -2.08866 0
M  V30 3714 O 349.604 -4.15583 -1.38644 0
M  V30 3715 C 351.105 -3.2915 -2.96943 0
M  V30 3716 H 348.325 -0.587889 -0.323461 0
M  V30 3717 H 350.869 -2.0101 -0.376175 0
M  V30 3718 H 349.024 -2.72394 -2.75464 0
M  V30 3719 H 349.438 -4.82481 -2.05699 0
M  V30 3720 H 350.912 -4.15723 -3.63151 0
M  V30 3721 H 351.389 -2.461 -3.63774 0
M  V30 3722 H 351.995 -3.53871 -2.35914 0
M  V30 3723 N 350.31 0.590341 -1.46126 0
M  V30 3724 C 351.556 1.35082 -1.51264 0
M  V30 3725 C 351.889 1.93534 -0.160711 0
M  V30 3726 O 351.164 1.76045 0.826956 0
M  V30 3727 C 351.447 2.48588 -2.6053 0
M  V30 3728 C 351.3 1.95221 -4.05227 0
M  V30 3729 C 352.619 3.50662 -2.6594 0
M  V30 3730 H 349.738 0.489803 -0.550692 0
M  V30 3731 H 352.38 0.663887 -1.78024 0
M  V30 3732 H 350.53 3.07186 -2.37843 0
M  V30 3733 H 352.202 1.41139 -4.39178 0
M  V30 3734 H 350.445 1.26101 -4.15068 0
M  V30 3735 H 351.116 2.77121 -4.77397 0
M  V30 3736 H 353.592 3.01934 -2.86313 0
M  V30 3737 H 352.468 4.27551 -3.44226 0
M  V30 3738 H 352.729 4.07399 -1.71694 0
M  V30 3739 N 351.788 1.33704 0.83433 0
M  V30 3740 C 353.199 1.22813 1.4062 0
M  V30 3741 C 353.55 -0.151107 1.95617 0
M  V30 3742 O 352.675 -1.05092 1.89168 0
M  V30 3743 C 353.27 2.22355 2.55624 0
M  V30 3744 C 351.829 2.1529 3.08751 0
M  V30 3745 C 350.976 2.09589 1.8157 0
M  V30 3746 H 353.927 1.45236 0.639702 0
M  V30 3747 H 353.948 1.83391 3.33389 0
M  V30 3748 H 353.46 3.22728 2.15566 0
M  V30 3749 H 351.561 1.18235 3.53343 0
M  V30 3750 H 351.674 3.06038 3.68616 0
M  V30 3751 H 350.038 1.55134 2.02004 0
M  V30 3752 H 350.821 3.11777 1.43701 0
M  V30 3753 N 353.266 -1.05314 1.17247 0
M  V30 3754 C 354.514 -1.77941 0.958194 0
M  V30 3755 C 354.835 -1.88089 -0.514556 0
M  V30 3756 O 354.105 -1.39676 -1.37359 0
M  V30 3757 H 352.685 -0.659116 0.351533 0
M  V30 3758 H 355.347 -1.27166 1.47699 0
M  V30 3759 H 354.443 -2.79663 1.38546 0
M  V30 3760 N 354.744 -0.972509 -1.24016 0
M  V30 3761 C 355.992 -0.635776 -1.91839 0
M  V30 3762 C 356.313 0.832312 -1.76345 0
M  V30 3763 O 355.583 1.5946 -1.13795 0
M  V30 3764 H 354.163 -0.232157 -0.710009 0
M  V30 3765 H 356.825 -1.23462 -1.50809 0
M  V30 3766 H 355.921 -0.880545 -2.99421 0
M  V30 3767 N 356.222 1.38976 -0.743202 0
M  V30 3768 C 357.447 2.05161 -0.303936 0
M  V30 3769 C 357.872 1.55677 1.05576 0
M  V30 3770 O 357.23 0.704131 1.67068 0
M  V30 3771 C 357.278 3.59138 -0.324373 0
M  V30 3772 O 356.382 4.06668 0.685204 0
M  V30 3773 H 355.723 0.649815 -0.136518 0
M  V30 3774 H 358.253 1.77852 -1.01142 0
M  V30 3775 H 358.263 4.07639 -0.171618 0
M  V30 3776 H 356.938 3.94515 -1.31647 0
M  V30 3777 H 355.515 3.69561 0.497913 0
M  V30 3778 N 357.7 0.491464 1.49741 0
M  V30 3779 C 358.977 -0.118984 1.95238 0
M  V30 3780 C 359.357 -1.55044 1.43264 0
M  V30 3781 O 358.705 -2.19287 0.642287 0
M  V30 3782 C 358.915 -0.0414187 3.48975 0
M  V30 3783 C 360.263 -0.220133 4.24029 0
M  V30 3784 O 361.287 -0.117055 3.56008 0
M  V30 3785 O 360.146 -0.430567 5.44801 0
M  V30 3786 H 357.24 -0.100536 0.820866 0
M  V30 3787 H 359.786 0.553322 1.60426 0
M  V30 3788 H 358.558 0.957214 3.79412 0
M  V30 3789 H 358.181 -0.754292 3.9038 0
M  V30 3790 N 359.178 -1.55987 0.224894 0
M  V30 3791 C 360.426 -1.97998 -0.405099 0
M  V30 3792 C 360.747 -1.11387 -1.60056 0
M  V30 3793 O 360.017 -0.191645 -1.9496 0
M  V30 3794 H 358.597 -0.731235 -0.152658 0
M  V30 3795 H 361.259 -1.92279 0.318567 0
M  V30 3796 H 360.355 -3.03463 -0.729167 0
M  V30 3797 N 360.656 0.0484629 -1.57525 0
M  V30 3798 C 362.067 0.597486 -1.76881 0
M  V30 3799 C 362.418 1.76664 -0.853475 0
M  V30 3800 O 361.543 2.16357 -0.0433656 0
M  V30 3801 C 362.138 1.09066 -3.20765 0
M  V30 3802 C 360.697 1.58535 -3.41385 0
M  V30 3803 C 359.844 0.514868 -2.72478 0
M  V30 3804 H 362.795 -0.177758 -1.57701 0
M  V30 3805 H 362.816 1.95875 -3.2621 0
M  V30 3806 H 362.328 0.239521 -3.8736 0
M  V30 3807 H 360.429 2.45898 -2.79937 0
M  V30 3808 H 360.542 1.64622 -4.49929 0
M  V30 3809 H 358.906 0.965407 -2.35695 0
M  V30 3810 H 359.689 -0.32648 -3.41744 0
M  V30 3811 N 362.134 1.5431 0.320358 0
M  V30 3812 C 363.359 1.76954 1.08175 0
M  V30 3813 C 363.784 0.518193 1.80821 0
M  V30 3814 O 363.142 -0.530411 1.73368 0
M  V30 3815 C 363.19 2.96451 2.05303 0
M  V30 3816 O 362.294 2.68221 3.13259 0
M  V30 3817 H 361.635 0.586275 0.311733 0
M  V30 3818 H 364.165 2.01342 0.363676 0
M  V30 3819 H 364.175 3.23887 2.48116 0
M  V30 3820 H 362.85 3.87196 1.51829 0
M  V30 3821 H 361.427 2.51744 2.75099 0
M  V30 3822 N 363.613 -0.582584 1.46437 0
M  V30 3823 C 364.861 -1.33814 1.51453 0
M  V30 3824 C 365.182 -1.94277 0.167792 0
M  V30 3825 O 364.452 -1.78566 -0.805677 0
M  V30 3826 H 363.032 -0.496838 0.557818 0
M  V30 3827 H 365.694 -0.682281 1.82568 0
M  V30 3828 H 364.79 -2.14479 2.26728 0
M  V30 3829 N 365.091 -1.34144 -0.827227 0
M  V30 3830 C 366.337 -1.26446 -1.58554 0
M  V30 3831 C 366.67 0.1664 -1.93486 0
M  V30 3832 O 365.945 1.1107 -1.59667 0
M  V30 3833 C 366.228 -2.15111 -2.8879 0
M  V30 3834 C 366.081 -3.66712 -2.60465 0
M  V30 3835 C 367.4 -2.03311 -3.90324 0
M  V30 3836 H 364.519 -0.46067 -0.575284 0
M  V30 3837 H 367.161 -1.64356 -0.953269 0
M  V30 3838 H 365.311 -1.8291 -3.42748 0
M  V30 3839 H 366.983 -4.09259 -2.1285 0
M  V30 3840 H 365.226 -3.88014 -1.93978 0
M  V30 3841 H 365.897 -4.24112 -3.53317 0
M  V30 3842 H 368.373 -2.31574 -3.45706 0
M  V30 3843 H 367.249 -2.67582 -4.79261 0
M  V30 3844 H 367.51 -1.00879 -4.30437 0
M  V30 3845 N 366.569 1.04691 -1.17803 0
M  V30 3846 C 367.499 2.14494 -0.92275 0
M  V30 3847 C 368.48 1.69546 0.137179 0
M  V30 3848 O 369.665 1.94195 -0.0141108 0
M  V30 3849 C 366.795 3.44491 -0.440803 0
M  V30 3850 C 365.749 4.03031 -1.4405 0
M  V30 3851 C 365.075 5.28432 -0.81631 0
M  V30 3852 C 366.375 4.39932 -2.81527 0
M  V30 3853 H 368.069 2.36107 -1.84103 0
M  V30 3854 H 365.615 1.1347 -0.886599 0
M  V30 3855 H 367.568 4.2066 -0.249602 0
M  V30 3856 H 366.292 3.22546 0.513025 0
M  V30 3857 H 364.951 3.28937 -1.61853 0
M  V30 3858 H 364.599 5.02792 0.144511 0
M  V30 3859 H 364.299 5.68559 -1.48371 0
M  V30 3860 H 365.823 6.07284 -0.635496 0
M  V30 3861 H 367.237 5.07113 -2.67412 0
M  V30 3862 H 365.634 4.9109 -3.44892 0
M  V30 3863 H 366.704 3.50045 -3.35554 0
M  V30 3864 N 368.047 0.979072 1.23499 0
M  V30 3865 C 369.296 0.642751 1.91185 0
M  V30 3866 C 369.609 -0.827253 1.77245 0
M  V30 3867 O 370.815 -1.27458 2.39722 0
M  V30 3868 C 369.271 1.09901 3.42709 0
M  V30 3869 C 368.879 2.59327 3.65313 0
M  V30 3870 C 370.623 0.836371 4.16179 0
M  V30 3871 C 368.53 2.98627 5.10467 0
M  V30 3872 H 367.46 0.236698 0.715884 0
M  V30 3873 H 370.111 1.1868 1.39955 0
M  V30 3874 H 368.493 0.48319 3.93041 0
M  V30 3875 H 369.667 3.26136 3.25533 0
M  V30 3876 H 367.982 2.83323 3.05151 0
M  V30 3877 H 370.579 1.10586 5.23139 0
M  V30 3878 H 370.922 -0.227509 4.15678 0
M  V30 3879 H 371.455 1.41371 3.71832 0
M  V30 3880 H 368.194 4.04133 5.16098 0
M  V30 3881 H 367.714 2.3651 5.51201 0
M  V30 3882 H 369.393 2.89159 5.78788 0
M  V30 3883 N 369.525 -1.3858 0.750561 0
M  V30 3884 C 370.765 -2.02032 0.310258 0
M  V30 3885 C 371.129 -1.58288 -1.08668 0
M  V30 3886 O 372.33 -2.14049 -1.62593 0
M  V30 3887 C 370.601 -3.54856 0.425647 0
M  V30 3888 S 372.16 -4.38748 0.0674797 0
M  V30 3889 H 368.978 -0.700705 0.120554 0
M  V30 3890 H 371.58 -1.69134 0.980512 0
M  V30 3891 H 370.284 -3.84182 1.44335 0
M  V30 3892 H 369.815 -3.92527 -0.261894 0
M  V30 3893 H 371.83 -4.82835 -1.14388 0
M  V30 3894 N 371.003 -0.499398 -1.49478 0
M  V30 3895 C 372.228 0.044722 -2.07352 0
M  V30 3896 C 372.653 1.30207 -1.35749 0
M  V30 3897 O 372.011 1.76516 -0.413732 0
M  V30 3898 C 372.059 0.283013 -3.59488 0
M  V30 3899 O 371.163 1.35804 -3.89398 0
M  V30 3900 H 370.504 -0.0255147 -0.66351 0
M  V30 3901 H 373.034 -0.698561 -1.92305 0
M  V30 3902 H 373.044 0.515007 -4.04737 0
M  V30 3903 H 371.719 -0.635636 -4.11014 0
M  V30 3904 H 370.296 1.11113 -3.55961 0
M  V30 3905 N 372.481 1.55866 -0.233164 0
M  V30 3906 C 373.391 2.24431 0.683217 0
M  V30 3907 C 374.407 1.2558 1.2044 0
M  V30 3908 O 375.583 1.58422 1.24356 0
M  V30 3909 C 372.648 2.91979 1.86947 0
M  V30 3910 C 371.709 4.06204 1.38912 0
M  V30 3911 C 370.942 4.70522 2.51883 0
M  V30 3912 O 371.165 4.33865 3.70293 0
M  V30 3913 O 370.099 5.59296 2.22423 0
M  V30 3914 H 373.925 3.03426 0.129059 0
M  V30 3915 H 371.51 1.494 -0.0022283 0
M  V30 3916 H 373.392 3.34573 2.56201 0
M  V30 3917 H 372.067 2.15935 2.41151 0
M  V30 3918 H 370.974 3.68155 0.664259 0
M  V30 3919 H 372.307 4.84025 0.893328 0
M  V30 3920 N 373.959 -0.0401083 1.57549 0
M  V30 3921 C 374.907 -1.06264 2.06908 0
M  V30 3922 C 375.901 -1.38132 0.980608 0
M  V30 3923 O 377.107 -1.37167 1.16556 0
M  V30 3924 H 373.482 -0.360166 0.660139 0
M  V30 3925 H 375.453 -0.620445 2.91878 0
M  V30 3926 C 374.202 -2.35846 2.55483 0
M  V30 3927 H 373.525 -2.12183 3.38849 0
M  V30 3928 H 374.965 -3.05765 2.93741 0
M  V30 3929 C 373.424 -3.0404 1.45126 0
M  V30 3930 O 373.954 -3.93424 0.811216 0
M  V30 3931 N 372.16 -2.65184 1.18852 0
M  V30 3932 H 371.707 -1.92584 1.71083 0
M  V30 3933 H 371.665 -3.1113 0.452244 0
M  V30 3934 N 375.437 -1.54477 -0.31217 0
M  V30 3935 C 376.667 -1.76948 -1.06645 0
M  V30 3936 C 377.075 -0.523593 -1.81811 0
M  V30 3937 O 376.418 0.51578 -1.76311 0
M  V30 3938 C 376.48 -2.91668 -2.10166 0
M  V30 3939 C 376.144 -4.30165 -1.54296 0
M  V30 3940 C 377.141 -5.10603 -0.978793 0
M  V30 3941 C 374.826 -4.76738 -1.58196 0
M  V30 3942 C 376.82 -6.3573 -0.461048 0
M  V30 3943 C 374.507 -6.01831 -1.06034 0
M  V30 3944 C 375.505 -6.81161 -0.500844 0
M  V30 3945 O 375.193 -8.03899 0.0128958 0
M  V30 3946 H 374.925 -0.594088 -0.322546 0
M  V30 3947 H 377.479 -2.02213 -0.360441 0
M  V30 3948 H 375.709 -2.62001 -2.84416 0
M  V30 3949 H 377.398 -3.01817 -2.71406 0
M  V30 3950 H 378.164 -4.75771 -0.941651 0
M  V30 3951 H 374.043 -4.15027 -2.00683 0
M  V30 3952 H 377.587 -6.97596 -0.0236894 0
M  V30 3953 H 373.484 -6.36152 -1.09459 0
M  V30 3954 H 374.252 -8.18437 -0.101457 0
M  V30 3955 N 376.915 0.57481 -1.46744 0
M  V30 3956 C 378.164 1.32898 -1.51727 0
M  V30 3957 C 378.477 1.948 -0.176692 0
M  V30 3958 O 379.683 2.71299 -0.104385 0
M  V30 3959 C 378.139 2.40901 -2.67385 0
M  V30 3960 C 377.747 1.85266 -4.07898 0
M  V30 3961 C 379.491 3.17609 -2.81646 0
M  V30 3962 C 377.398 2.90945 -5.14883 0
M  V30 3963 H 376.328 0.499631 -0.564699 0
M  V30 3964 H 378.979 0.612536 -1.72975 0
M  V30 3965 H 377.361 3.15379 -2.39483 0
M  V30 3966 H 378.535 1.17278 -4.45626 0
M  V30 3967 H 376.85 1.21199 -3.98371 0
M  V30 3968 H 379.447 3.96493 -3.58744 0
M  V30 3969 H 379.79 3.70696 -1.89448 0
M  V30 3970 H 380.323 2.50239 -3.09233 0
M  V30 3971 H 377.062 2.42736 -6.089 0
M  V30 3972 H 376.582 3.57398 -4.81691 0
M  V30 3973 H 378.261 3.54755 -5.41071 0
M  V30 3974 N 378.394 1.34581 0.820102 0
M  V30 3975 C 379.622 1.3018 1.60813 0
M  V30 3976 C 380.037 -0.123551 1.88395 0
M  V30 3977 O 379.394 -1.07148 1.47735 0
M  V30 3978 C 379.445 2.09312 2.94739 0
M  V30 3979 O 379.166 3.46288 2.68358 0
M  V30 3980 C 380.667 2.1234 3.89136 0
M  V30 3981 H 377.887 0.447726 0.499782 0
M  V30 3982 H 380.431 1.77237 1.02017 0
M  V30 3983 H 378.586 1.65889 3.50085 0
M  V30 3984 H 379 3.87227 3.53774 0
M  V30 3985 H 380.474 2.72126 4.80262 0
M  V30 3986 H 380.951 1.11854 4.24718 0
M  V30 3987 H 381.557 2.55864 3.39726 0
M  V30 3988 N 379.872 -1.04064 1.18357 0
M  V30 3989 C 381.102 -1.80654 1.00238 0
M  V30 3990 C 381.51 -1.83713 -0.452362 0
M  V30 3991 O 380.853 -1.27135 -1.32599 0
M  V30 3992 C 380.915 -3.27582 1.48088 0
M  V30 3993 C 380.579 -3.48184 2.96002 0
M  V30 3994 C 381.576 -3.39372 3.93856 0
M  V30 3995 C 379.261 -3.7478 3.34433 0
M  V30 3996 C 381.255 -3.5686 5.28138 0
M  V30 3997 C 378.942 -3.91915 4.68877 0
M  V30 3998 C 379.94 -3.82956 5.65539 0
M  V30 3999 O 379.628 -3.996 6.97549 0
M  V30 4000 H 379.36 -0.575751 0.354241 0
M  V30 4001 H 381.914 -1.32044 1.57333 0
M  V30 4002 H 380.144 -3.77161 0.853588 0
M  V30 4003 H 381.833 -3.8573 1.2636 0
M  V30 4004 H 382.599 -3.18789 3.65511 0
M  V30 4005 H 378.478 -3.80852 2.59756 0
M  V30 4006 H 382.022 -3.49783 6.03571 0
M  V30 4007 H 377.919 -4.11992 4.96923 0
M  V30 4008 H 378.687 -4.1676 7.04452 0
M  V30 4009 N 381.35 -0.985608 -1.22978 0
M  V30 4010 C 382.297 -0.529825 -2.24636 0
M  V30 4011 C 383.267 0.434028 -1.60329 0
M  V30 4012 O 384.452 0.340414 -1.87739 0
M  V30 4013 C 381.592 0.156533 -3.44745 0
M  V30 4014 C 380.705 -0.848197 -4.23591 0
M  V30 4015 C 379.84 -0.136109 -5.31026 0
M  V30 4016 C 378.879 -1.1297 -6.01585 0
M  V30 4017 N 378.016 -0.446415 -7.00679 0
M  V30 4018 H 382.856 -1.40148 -2.62988 0
M  V30 4019 H 380.393 -0.702168 -1.29259 0
M  V30 4020 H 382.351 0.571324 -4.1327 0
M  V30 4021 H 380.981 0.992025 -3.07179 0
M  V30 4022 H 380.033 -1.38135 -3.54433 0
M  V30 4023 H 381.345 -1.60512 -4.72268 0
M  V30 4024 H 380.499 0.335784 -6.0577 0
M  V30 4025 H 379.238 0.653373 -4.83304 0
M  V30 4026 H 378.243 -1.6123 -5.25628 0
M  V30 4027 H 379.468 -1.91993 -6.51395 0
M  V30 4028 H 377.414 0.323763 -6.55201 0
M  V30 4029 H 377.331 -1.1419 -7.47326 0
M  V30 4030 H 378.599 0.00291697 -7.795 0
M  V30 4031 N 382.828 1.3818 -0.7579 0
M  V30 4032 C 383.776 2.32277 -0.122482 0
M  V30 4033 C 384.77 1.54238 0.700505 0
M  V30 4034 O 385.976 1.69737 0.599119 0
M  V30 4035 H 382.351 0.751712 -0.0208143 0
M  V30 4036 H 384.322 2.83469 -0.932099 0
M  V30 4037 C 383.071 3.39447 0.753076 0
M  V30 4038 H 382.394 3.99591 0.129184 0
M  V30 4039 H 383.834 4.07684 1.16489 0
M  V30 4040 C 382.293 2.78375 1.8976 0
M  V30 4041 O 382.823 2.68025 2.99208 0
M  V30 4042 N 381.029 2.36121 1.69397 0
M  V30 4043 H 380.576 2.4474 0.803762 0
M  V30 4044 H 380.534 1.95602 2.46145 0
M  V30 4045 N 384.306 0.507319 1.49211 0
M  V30 4046 C 385.553 -0.0349529 2.0247 0
M  V30 4047 C 385.881 -1.36409 1.38647 0
M  V30 4048 O 385.136 -1.88841 0.513566 0
M  V30 4049 C 385.435 -0.229513 3.56662 0
M  V30 4050 C 385.101 1.02241 4.39156 0
M  V30 4051 C 383.763 1.36557 4.61417 0
M  V30 4052 C 386.115 1.85428 4.871 0
M  V30 4053 C 383.443 2.53999 5.28868 0
M  V30 4054 C 385.795 3.02028 5.55843 0
M  V30 4055 C 384.459 3.36717 5.76349 0
M  V30 4056 H 383.729 -0.0127902 0.74089 0
M  V30 4057 H 386.376 0.668756 1.79443 0
M  V30 4058 H 384.681 -1.0158 3.78403 0
M  V30 4059 H 386.378 -0.663641 3.9547 0
M  V30 4060 H 382.968 0.745124 4.22073 0
M  V30 4061 H 387.152 1.6023 4.69723 0
M  V30 4062 H 382.408 2.81105 5.42946 0
M  V30 4063 H 386.582 3.66808 5.91967 0
M  V30 4064 H 384.209 4.27821 6.28389 0
M  V30 4065 N 385.784 -1.5574 0.241426 0
M  V30 4066 C 387.032 -1.98417 -0.384075 0
M  V30 4067 C 387.353 -1.13078 -1.58866 0
M  V30 4068 O 386.623 -0.212312 -1.94746 0
M  V30 4069 H 385.203 -0.732813 -0.144894 0
M  V30 4070 H 387.865 -1.9193 0.338943 0
M  V30 4071 H 386.961 -3.04219 -0.696939 0
M  V30 4072 N 387.262 0.0317525 -1.57568 0
M  V30 4073 C 388.539 0.758366 -1.803 0
M  V30 4074 C 388.919 1.93718 -0.838845 0
M  V30 4075 O 388.267 2.28187 0.119571 0
M  V30 4076 C 388.477 1.19392 -3.27943 0
M  V30 4077 C 389.825 1.61094 -3.92854 0
M  V30 4078 O 390.849 1.28857 -3.32076 0
M  V30 4079 O 389.708 2.20918 -4.99858 0
M  V30 4080 H 386.802 0.366514 -0.741348 0
M  V30 4081 H 389.348 0.00873765 -1.69698 0
M  V30 4082 H 388.12 0.352275 -3.89711 0
M  V30 4083 H 387.743 2.00365 -3.43424 0
M  V30 4084 N 388.74 1.54641 0.303973 0
M  V30 4085 C 389.672 1.81754 1.39636 0
M  V30 4086 C 390.685 0.70035 1.46966 0
M  V30 4087 O 391.874 0.97778 1.49338 0
M  V30 4088 C 388.974 1.93785 2.7803 0
M  V30 4089 C 388.147 3.24156 2.93669 0
M  V30 4090 C 387.206 3.26641 4.12544 0
M  V30 4091 O 386.232 4.00187 4.04771 0
M  V30 4092 N 387.434 2.5182 5.23036 0
M  V30 4093 H 390.199 2.76031 1.16734 0
M  V30 4094 H 387.76 1.54178 0.494033 0
M  V30 4095 H 389.752 1.92852 3.55795 0
M  V30 4096 H 388.322 1.06515 2.93893 0
M  V30 4097 H 387.542 3.37887 2.03042 0
M  V30 4098 H 388.83 4.10195 3.01027 0
M  V30 4099 H 388.228 1.91692 5.32232 0
M  V30 4100 H 386.785 2.56644 5.99147 0
M  V30 4101 N 390.218 -0.567019 1.47046 0
M  V30 4102 C 391.629 -1.14916 1.47143 0
M  V30 4103 C 391.98 -1.94954 0.220767 0
M  V30 4104 O 391.105 -2.05602 -0.67505 0
M  V30 4105 C 391.7 -2.09069 2.666 0
M  V30 4106 C 390.259 -2.62575 2.69687 0
M  V30 4107 C 389.406 -1.38755 2.40088 0
M  V30 4108 H 392.357 -0.354126 1.54699 0
M  V30 4109 H 392.378 -2.92789 2.43011 0
M  V30 4110 H 391.89 -1.50789 3.57609 0
M  V30 4111 H 389.991 -3.24681 1.82792 0
M  V30 4112 H 390.104 -3.04239 3.70102 0
M  V30 4113 H 388.468 -1.69098 1.90468 0
M  V30 4114 H 389.251 -0.822822 3.33293 0
M  V30 4115 N 391.696 -1.35014 -0.812953 0
M  V30 4116 C 392.973 -1.18502 -1.55617 0
M  V30 4117 C 393.353 0.238421 -2.09749 0
M  V30 4118 O 392.701 1.2411 -1.91857 0
M  V30 4119 C 392.911 -2.24783 -2.66971 0
M  V30 4120 C 394.259 -2.60268 -3.35478 0
M  V30 4121 O 395.283 -2.23648 -2.77236 0
M  V30 4122 O 394.142 -3.2321 -4.40678 0
M  V30 4123 H 391.236 -0.459984 -0.687272 0
M  V30 4124 H 393.782 -1.46677 -0.853464 0
M  V30 4125 H 392.554 -3.20284 -2.24798 0
M  V30 4126 H 392.177 -1.97841 -3.44884 0
M  V30 4127 N 393.175 1.03435 -1.18907 0
M  V30 4128 C 394.424 1.76143 -0.982669 0
M  V30 4129 C 394.737 1.89416 0.487953 0
M  V30 4130 O 395.943 2.59041 0.813036 0
M  V30 4131 C 394.399 3.16722 -1.70924 0
M  V30 4132 C 394.007 3.11522 -3.21959 0
M  V30 4133 C 395.751 3.93764 -1.58588 0
M  V30 4134 C 393.658 4.46999 -3.87228 0
M  V30 4135 H 392.588 0.660292 -0.364047 0
M  V30 4136 H 395.239 1.158 -1.42347 0
M  V30 4137 H 393.621 3.775 -1.19623 0
M  V30 4138 H 394.795 2.60158 -3.80335 0
M  V30 4139 H 393.11 2.47978 -3.34508 0
M  V30 4140 H 395.707 4.93963 -2.04707 0
M  V30 4141 H 396.05 4.12794 -0.539142 0
M  V30 4142 H 396.583 3.39576 -2.07203 0
M  V30 4143 H 393.322 4.33174 -4.91976 0
M  V30 4144 H 392.842 4.98441 -3.33642 0
M  V30 4145 H 394.521 5.15898 -3.90459 0
M  V30 4146 N 394.653 0.992116 1.22453 0
M  V30 4147 C 396.069 0.702713 1.43297 0
M  V30 4148 C 396.269 -0.726909 1.87932 0
M  V30 4149 O 395.325 -1.49792 2.0327 0
M  V30 4150 C 396.638 1.70762 2.47509 0
M  V30 4151 C 398.186 1.72298 2.61309 0
M  V30 4152 C 398.661 2.71649 3.68742 0
M  V30 4153 N 400.152 2.70239 3.76199 0
M  V30 4154 C 400.887 3.43778 4.58917 0
M  V30 4155 N 400.383 4.26914 5.45633 0
M  V30 4156 N 402.176 3.32487 4.5322 0
M  V30 4157 H 394.327 1.91543 0.917871 0
M  V30 4158 H 396.59 0.826031 0.465162 0
M  V30 4159 H 396.296 2.73059 2.21657 0
M  V30 4160 H 396.17 1.49985 3.46099 0
M  V30 4161 H 398.557 0.706989 2.86506 0
M  V30 4162 H 398.638 1.97143 1.62997 0
M  V30 4163 H 398.282 3.73397 3.44292 0
M  V30 4164 H 398.212 2.44074 4.66622 0
M  V30 4165 H 400.703 2.09912 3.14237 0
M  V30 4166 H 401.016 4.79855 6.05771 0
M  V30 4167 H 399.361 4.31002 5.45218 0
M  V30 4168 H 402.552 2.6698 3.84499 0
M  V30 4169 H 402.725 3.90058 5.17454 0
M  V30 4170 N 396.131 -1.37776 0.765217 0
M  V30 4171 C 397.371 -2.01691 0.331669 0
M  V30 4172 C 397.735 -1.59432 -1.06983 0
M  V30 4173 O 398.936 -2.15761 -1.60314 0
M  V30 4174 C 397.207 -3.54385 0.463261 0
M  V30 4175 S 398.766 -4.38652 0.114011 0
M  V30 4176 H 395.584 -0.699387 0.127979 0
M  V30 4177 H 398.186 -1.68084 0.998396 0
M  V30 4178 H 396.89 -3.82629 1.48401 0
M  V30 4179 H 396.421 -3.92783 -0.220246 0
M  V30 4180 H 398.436 -4.84021 -1.09261 0
M  V30 4181 N 397.609 -0.515225 -1.4894 0
M  V30 4182 C 399.02 -0.0710067 -1.86565 0
M  V30 4183 C 399.371 1.34733 -1.42623 0
M  V30 4184 O 398.496 2.00653 -0.810379 0
M  V30 4185 C 399.091 -0.122083 -3.3858 0
M  V30 4186 C 397.65 0.266863 -3.75453 0
M  V30 4187 C 396.797 -0.488376 -2.72966 0
M  V30 4188 H 399.748 -0.727266 -1.41055 0
M  V30 4189 H 399.769 0.669818 -3.74558 0
M  V30 4190 H 399.281 -1.15448 -3.70531 0
M  V30 4191 H 397.382 1.30196 -3.49113 0
M  V30 4192 H 397.495 -0.0624811 -4.79059 0
M  V30 4193 H 395.859 0.0635622 -2.54621 0
M  V30 4194 H 396.642 -1.52113 -3.07761 0
M  V30 4195 N 399.087 1.5561 -0.249682 0
M  V30 4196 C 400.336 1.98187 0.37479 0
M  V30 4197 C 400.649 1.14111 1.58865 0
M  V30 4198 O 401.855 1.46714 2.28445 0
M  V30 4199 C 400.311 3.52661 0.718192 0
M  V30 4200 C 399.919 4.45481 -0.474428 0
M  V30 4201 C 401.663 4.03888 1.3067 0
M  V30 4202 C 399.57 5.91303 -0.107026 0
M  V30 4203 H 398.5 0.740159 0.143808 0
M  V30 4204 H 401.151 1.80125 -0.350336 0
M  V30 4205 H 399.533 3.66429 1.50152 0
M  V30 4206 H 400.707 4.43473 -1.25172 0
M  V30 4207 H 399.022 4.04751 -0.978052 0
M  V30 4208 H 401.619 5.10358 1.59496 0
M  V30 4209 H 401.962 3.51401 2.23211 0
M  V30 4210 H 402.495 3.93457 0.586211 0
M  V30 4211 H 399.234 6.47833 -0.999642 0
M  V30 4212 H 398.754 5.9644 0.634013 0
M  V30 4213 H 400.433 6.46258 0.309807 0
M  V30 4214 N 400.565 -0.0233959 1.57583 0
M  V30 4215 C 401.976 -0.56927 1.77809 0
M  V30 4216 C 402.327 -1.75284 0.881472 0
M  V30 4217 O 401.452 -2.1626 0.0777805 0
M  V30 4218 C 402.047 -1.03949 3.22459 0
M  V30 4219 C 400.606 -1.53084 3.43864 0
M  V30 4220 C 399.753 -0.471454 2.73263 0
M  V30 4221 H 402.704 0.202825 1.57399 0
M  V30 4222 H 402.725 -1.90661 3.29285 0
M  V30 4223 H 402.237 -0.177865 3.87692 0
M  V30 4224 H 400.338 -2.41414 2.83814 0
M  V30 4225 H 400.451 -1.57443 4.52491 0
M  V30 4226 H 398.815 -0.927788 2.37201 0
M  V30 4227 H 399.598 0.380808 3.41181 0
M  V30 4228 N 402.043 -1.548 -0.295768 0
M  V30 4229 C 403.459 -1.4613 -0.641722 0
M  V30 4230 C 403.659 -0.656771 -1.90496 0
M  V30 4231 O 402.715 -0.166547 -2.5195 0
M  V30 4232 C 404.028 -2.90141 -0.789852 0
M  V30 4233 C 405.576 -3.00216 -0.885396 0
M  V30 4234 C 406.051 -4.45434 -1.06548 0
M  V30 4235 N 407.542 -4.49166 -1.13156 0
M  V30 4236 C 408.277 -5.58717 -1.28929 0
M  V30 4237 N 407.773 -6.78182 -1.41567 0
M  V30 4238 N 409.566 -5.46415 -1.31859 0
M  V30 4239 H 401.717 -2.05574 0.534147 0
M  V30 4240 H 403.98 -0.931259 0.177372 0
M  V30 4241 H 403.686 -3.51635 0.0675598 0
M  V30 4242 H 403.56 -3.37859 -1.67724 0
M  V30 4243 H 405.947 -2.38833 -1.73329 0
M  V30 4244 H 406.028 -2.55787 0.0261185 0
M  V30 4245 H 405.672 -5.07413 -0.222335 0
M  V30 4246 H 405.602 -4.87499 -1.9913 0
M  V30 4247 H 408.093 -3.631 -1.04721 0
M  V30 4248 H 408.406 -7.57428 -1.53372 0
M  V30 4249 H 406.751 -6.81037 -1.38613 0
M  V30 4250 H 409.942 -4.5203 -1.21601 0
M  V30 4251 H 410.115 -6.31841 -1.43808 0
M  V30 4252 N 403.521 0.559213 -1.47345 0
M  V30 4253 C 404.937 0.884943 -1.32819 0
M  V30 4254 C 405.137 1.98988 -0.317173 0
M  V30 4255 O 404.193 2.51031 0.272011 0
M  V30 4256 C 405.506 1.28007 -2.72093 0
M  V30 4257 C 407.054 1.39161 -2.80363 0
M  V30 4258 C 407.529 1.82031 -4.20272 0
M  V30 4259 N 409.02 1.89185 -4.22804 0
M  V30 4260 C 409.755 2.2368 -5.27973 0
M  V30 4261 N 409.251 2.56802 -6.43447 0
M  V30 4262 N 411.044 2.24436 -5.15349 0
M  V30 4263 H 403.195 -0.170304 -2.11716 0
M  V30 4264 H 405.458 -0.0135247 -0.947904 0
M  V30 4265 H 405.164 0.542027 -3.47498 0
M  V30 4266 H 405.038 2.23665 -3.03733 0
M  V30 4267 H 407.425 2.12048 -2.05231 0
M  V30 4268 H 407.506 0.41696 -2.52379 0
M  V30 4269 H 407.15 1.09715 -4.95908 0
M  V30 4270 H 407.08 2.80495 -4.45679 0
M  V30 4271 H 409.571 1.65982 -3.39497 0
M  V30 4272 H 409.884 2.82144 -7.19454 0
M  V30 4273 H 408.229 2.54387 -6.46771 0
M  V30 4274 H 411.42 1.97998 -4.24163 0
M  V30 4275 H 411.593 2.50989 -5.97418 0
M  V30 4276 N 404.999 1.35443 0.805782 0
M  V30 4277 C 406.415 1.15499 1.10146 0
M  V30 4278 C 406.615 -0.0319975 2.01475 0
M  V30 4279 O 405.671 -0.70236 2.42535 0
M  V30 4280 C 406.984 2.45833 1.73166 0
M  V30 4281 C 408.532 2.52047 1.85583 0
M  V30 4282 C 409.007 3.82427 2.52019 0
M  V30 4283 N 410.498 3.83682 2.59504 0
M  V30 4284 C 411.233 4.81294 3.11679 0
M  V30 4285 N 410.729 5.89294 3.64287 0
M  V30 4286 N 412.522 4.6873 3.1024 0
M  V30 4287 H 404.673 2.11469 0.198678 0
M  V30 4288 H 406.936 0.93594 0.150731 0
M  V30 4289 H 406.642 3.32874 1.13526 0
M  V30 4290 H 406.516 2.6044 2.72857 0
M  V30 4291 H 408.903 1.65435 2.44367 0
M  V30 4292 H 408.984 2.41354 0.847455 0
M  V30 4293 H 408.628 4.69437 1.93885 0
M  V30 4294 H 408.558 3.90409 3.53395 0
M  V30 4295 H 411.049 3.05648 2.22234 0
M  V30 4296 H 411.362 6.59768 4.02401 0
M  V30 4297 H 409.707 5.92985 3.62483 0
M  V30 4298 H 412.898 3.83496 2.68419 0
M  V30 4299 H 413.071 5.44965 3.50596 0
M  V30 4300 N 406.477 -1.02803 1.19454 0
M  V30 4301 C 407.425 -2.13213 0.929673 0
M  V30 4302 C 408.419 -1.69011 -0.114806 0
M  V30 4303 O 409.625 -1.79967 0.0345147 0
M  V30 4304 H 406 -0.69662 0.28324 0
M  V30 4305 H 407.971 -2.32744 1.86743 0
M  V30 4306 C 406.72 -3.4429 0.485797 0
M  V30 4307 H 406.043 -3.7872 1.28105 0
M  V30 4308 H 407.483 -4.22638 0.339582 0
M  V30 4309 C 405.942 -3.27258 -0.800244 0
M  V30 4310 O 406.472 -3.55967 -1.86146 0
M  V30 4311 N 404.678 -2.80545 -0.75781 0
M  V30 4312 H 404.225 -2.57382 0.106039 0
M  V30 4313 H 404.183 -2.6953 -1.61867 0
M  V30 4314 N 407.956 -0.998596 -1.21925 0
M  V30 4315 C 409.233 -0.593401 -1.86382 0
M  V30 4316 C 409.613 0.92916 -1.89552 0
M  V30 4317 O 408.961 1.81347 -1.39017 0
M  V30 4318 C 409.171 -1.22039 -3.26967 0
M  V30 4319 C 410.519 -1.32449 -4.03413 0
M  V30 4320 O 411.543 -1.17522 -3.36254 0
M  V30 4321 O 410.402 -1.56395 -5.23644 0
M  V30 4322 H 407.496 -0.202385 -0.801854 0
M  V30 4323 H 410.042 -1.09484 -1.29659 0
M  V30 4324 H 408.814 -2.26158 -3.19325 0
M  V30 4325 H 408.437 -0.704906 -3.91301 0
M  V30 4326 N 409.434 1.37368 -0.772513 0
M  V30 4327 C 410.364 2.32856 -0.173304 0
M  V30 4328 C 411.345 1.55818 0.682262 0
M  V30 4329 O 412.53 1.84052 0.619566 0
M  V30 4330 C 409.66 3.40048 0.706007 0
M  V30 4331 C 408.614 4.27973 -0.0483144 0
M  V30 4332 C 407.94 5.26184 0.950491 0
M  V30 4333 C 409.24 5.07665 -1.22776 0
M  V30 4334 H 410.934 2.83217 -0.971002 0
M  V30 4335 H 408.48 1.3617 -0.468377 0
M  V30 4336 H 410.433 4.05827 1.13501 0
M  V30 4337 H 409.157 2.88214 1.53623 0
M  V30 4338 H 407.816 3.63726 -0.458107 0
M  V30 4339 H 407.464 4.7063 1.77529 0
M  V30 4340 H 407.164 5.85872 0.450314 0
M  V30 4341 H 408.688 5.94838 1.37842 0
M  V30 4342 H 410.102 5.66578 -0.875366 0
M  V30 4343 H 408.499 5.76681 -1.66007 0
M  V30 4344 H 409.569 4.40294 -2.03149 0
M  V30 4345 N 410.912 0.523116 1.48665 0
M  V30 4346 C 412.189 -0.0775449 1.95446 0
M  V30 4347 C 412.569 -1.5197 1.4652 0
M  V30 4348 O 411.917 -2.17876 0.688657 0
M  V30 4349 C 412.127 0.0326135 3.48985 0
M  V30 4350 C 413.475 -0.130141 4.24401 0
M  V30 4351 O 414.499 -0.0415142 3.56176 0
M  V30 4352 O 413.358 -0.31491 5.45592 0
M  V30 4353 H 410.452 -0.0831012 0.822814 0
M  V30 4354 H 412.998 0.587227 1.59216 0
M  V30 4355 H 411.77 1.03748 3.77296 0
M  V30 4356 H 411.393 -0.671317 3.91892 0
M  V30 4357 N 412.39 -1.55475 0.257931 0
M  V30 4358 C 413.667 -1.91155 -0.414629 0
M  V30 4359 C 414.047 -1.18008 -1.75035 0
M  V30 4360 O 413.395 -0.301193 -2.26506 0
M  V30 4361 C 413.605 -3.44283 -0.571859 0
M  V30 4362 C 414.953 -4.15744 -0.862678 0
M  V30 4363 O 415.977 -3.50083 -0.657314 0
M  V30 4364 O 414.836 -5.31909 -1.2544 0
M  V30 4365 H 411.93 -0.796016 -0.22425 0
M  V30 4366 H 414.476 -1.66976 0.302814 0
M  V30 4367 H 413.248 -3.89558 0.368844 0
M  V30 4368 H 412.871 -3.7436 -1.33943 0
M  V30 4369 N 413.868 0.0150385 -1.57593 0
M  V30 4370 C 415.279 0.559832 -1.78109 0
M  V30 4371 C 415.63 1.74814 -0.890756 0
M  V30 4372 O 414.755 2.16216 -0.0892482 0
M  V30 4373 C 415.35 1.02238 -3.23006 0
M  V30 4374 C 413.909 1.51258 -3.44671 0
M  V30 4375 C 413.056 0.456955 -2.73509 0
M  V30 4376 H 416.007 -0.211169 -1.57289 0
M  V30 4377 H 416.028 1.88912 -3.30292 0
M  V30 4378 H 415.54 0.157302 -3.87781 0
M  V30 4379 H 413.641 2.39905 -2.8509 0
M  V30 4380 H 413.754 1.55042 -4.5332 0
M  V30 4381 H 412.118 0.915196 -2.37689 0
M  V30 4382 H 412.901 -0.398896 -3.40975 0
M  V30 4383 N 415.346 1.54954 0.287554 0
M  V30 4384 C 416.256 1.8991 1.37736 0
M  V30 4385 C 417.272 0.794701 1.54792 0
M  V30 4386 O 418.448 1.09243 1.69198 0
M  V30 4387 C 415.513 2.15108 2.71899 0
M  V30 4388 C 414.574 3.38752 2.63715 0
M  V30 4389 C 413.807 3.62739 3.91479 0
M  V30 4390 O 414.03 2.89492 4.91478 0
M  V30 4391 O 412.964 4.56267 3.92561 0
M  V30 4392 H 416.79 2.82652 1.11092 0
M  V30 4393 H 414.375 1.41315 0.484807 0
M  V30 4394 H 416.257 2.32806 3.51254 0
M  V30 4395 H 414.932 1.25551 2.9836 0
M  V30 4396 H 413.839 3.26405 1.82786 0
M  V30 4397 H 415.172 4.28483 2.42205 0
M  V30 4398 N 416.824 -0.551391 1.4764 0
M  V30 4399 C 418.24 -0.877887 1.33287 0
M  V30 4400 C 418.44 -1.98817 0.327721 0
M  V30 4401 O 417.496 -2.51171 -0.258695 0
M  V30 4402 C 418.809 -1.26563 2.72768 0
M  V30 4403 C 420.357 -1.37673 2.81097 0
M  V30 4404 C 420.832 -1.79799 4.21232 0
M  V30 4405 N 422.323 -1.8694 4.23802 0
M  V30 4406 C 423.058 -2.20876 5.29151 0
M  V30 4407 N 422.554 -2.53386 6.448 0
M  V30 4408 N 424.347 -2.217 5.16532 0
M  V30 4409 H 416.498 0.18153 2.11623 0
M  V30 4410 H 418.761 0.0185514 0.947818 0
M  V30 4411 H 418.467 -0.523591 3.47781 0
M  V30 4412 H 418.341 -2.22052 3.04915 0
M  V30 4413 H 420.728 -2.10956 2.06353 0
M  V30 4414 H 420.809 -0.40357 2.52596 0
M  V30 4415 H 420.453 -1.07083 4.96483 0
M  V30 4416 H 420.383 -2.78128 4.4716 0
M  V30 4417 H 422.874 -1.64179 3.40373 0
M  V30 4418 H 423.187 -2.78325 7.20941 0
M  V30 4419 H 421.532 -2.50953 6.48111 0
M  V30 4420 H 424.723 -1.95745 4.25207 0
M  V30 4421 H 424.896 -2.47818 5.98741 0
M  V30 4422 N 418.302 -1.35869 -0.798587 0
M  V30 4423 C 419.55 -1.29332 -1.55298 0
M  V30 4424 C 419.871 0.129729 -1.94568 0
M  V30 4425 O 419.141 1.06796 -1.6423 0
M  V30 4426 H 417.721 -0.475737 -0.57592 0
M  V30 4427 H 420.383 -1.70062 -0.952093 0
M  V30 4428 H 419.479 -1.91458 -2.46476 0
M  V30 4429 N 419.78 1.02168 -1.19998 0
M  V30 4430 C 420.713 2.10232 -0.887558 0
M  V30 4431 C 421.691 1.61827 0.158317 0
M  V30 4432 O 422.875 1.88471 0.0330249 0
M  V30 4433 C 420.002 3.37092 -0.32964 0
M  V30 4434 C 419.048 4.0438 -1.3557 0
M  V30 4435 S 419.881 4.48956 -2.91888 0
M  V30 4436 C 421.037 5.79024 -2.37658 0
M  V30 4437 H 421.27 2.36409 -1.80272 0
M  V30 4438 H 418.803 1.15211 -1.0279 0
M  V30 4439 H 420.761 4.10498 -0.0142824 0
M  V30 4440 H 419.422 3.08996 0.563941 0
M  V30 4441 H 418.615 4.95632 -0.9146 0
M  V30 4442 H 418.217 3.37176 -1.61828 0
M  V30 4443 H 420.509 6.53942 -1.77103 0
M  V30 4444 H 421.452 6.27924 -3.27287 0
M  V30 4445 H 421.86 5.35043 -1.79971 0
M  V30 4446 N 421.258 1.00505 1.21394 0
M  V30 4447 C 422.507 0.683159 1.89778 0
M  V30 4448 C 422.82 -0.789471 1.7896 0
M  V30 4449 O 424.026 -1.22344 2.42372 0
M  V30 4450 C 422.482 1.17146 3.40301 0
M  V30 4451 C 422.09 2.67017 3.5973 0
M  V30 4452 C 423.834 0.924461 4.14311 0
M  V30 4453 C 421.741 3.09387 5.04017 0
M  V30 4454 H 420.671 0.25183 0.710702 0
M  V30 4455 H 423.322 1.21622 1.37406 0
M  V30 4456 H 421.704 0.566451 3.91928 0
M  V30 4457 H 422.878 3.32968 3.18542 0
M  V30 4458 H 421.193 2.89732 2.99073 0
M  V30 4459 H 423.79 1.21658 5.20676 0
M  V30 4460 H 424.133 -0.139286 4.16067 0
M  V30 4461 H 424.666 1.49226 3.6875 0
M  V30 4462 H 421.405 4.14989 5.07409 0
M  V30 4463 H 420.925 2.48149 5.46061 0
M  V30 4464 H 422.604 3.01371 5.72525 0
M  V30 4465 N 422.737 -1.36956 0.779787 0
M  V30 4466 C 423.984 -1.99491 0.347766 0
M  V30 4467 C 424.312 -1.61898 -1.07793 0
M  V30 4468 O 423.567 -0.86071 -1.75756 0
M  V30 4469 C 423.866 -3.54585 0.447686 0
M  V30 4470 C 423.532 -4.1197 1.83279 0
M  V30 4471 C 422.194 -4.27356 2.2118 0
M  V30 4472 C 424.546 -4.43354 2.74019 0
M  V30 4473 C 421.874 -4.71432 3.4924 0
M  V30 4474 C 424.226 -4.88858 4.01497 0
M  V30 4475 C 422.89 -5.0245 4.39432 0
M  V30 4476 H 422.16 -0.729991 0.127257 0
M  V30 4477 H 424.807 -1.63599 0.995376 0
M  V30 4478 H 423.112 -3.90773 -0.283447 0
M  V30 4479 H 424.809 -4.00888 0.0945948 0
M  V30 4480 H 421.399 -4.00428 1.52825 0
M  V30 4481 H 425.583 -4.31045 2.45995 0
M  V30 4482 H 420.839 -4.80141 3.78516 0
M  V30 4483 H 425.013 -5.12108 4.71931 0
M  V30 4484 H 422.64 -5.36362 5.38721 0
M  V30 4485 N 424.215 -0.530993 -1.48385 0
M  V30 4486 C 425.461 0.00274135 -2.028 0
M  V30 4487 C 425.794 1.33838 -1.40716 0
M  V30 4488 O 425.069 1.86465 -0.553277 0
M  V30 4489 C 425.352 0.123676 -3.59888 0
M  V30 4490 C 425.205 -1.2372 -4.3245 0
M  V30 4491 C 426.524 0.849967 -4.31814 0
M  V30 4492 H 423.643 -0.000477758 -0.737 0
M  V30 4493 H 426.285 -0.688217 -1.77098 0
M  V30 4494 H 424.435 0.712157 -3.81917 0
M  V30 4495 H 426.107 -1.86687 -4.21836 0
M  V30 4496 H 424.35 -1.81882 -3.93829 0
M  V30 4497 H 425.021 -1.10557 -5.40815 0
M  V30 4498 H 427.497 0.350572 -4.14621 0
M  V30 4499 H 426.373 0.903486 -5.41413 0
M  V30 4500 H 426.634 1.90047 -3.99167 0
M  V30 4501 N 425.693 1.55336 -0.266172 0
M  V30 4502 C 426.933 2.01303 0.354459 0
M  V30 4503 C 427.297 1.15046 1.53715 0
M  V30 4504 O 428.498 1.50554 2.22681 0
M  V30 4505 C 426.769 3.49748 0.735579 0
M  V30 4506 S 428.328 4.1771 1.34401 0
M  V30 4507 H 425.146 0.702333 0.110674 0
M  V30 4508 H 427.748 1.91653 -0.385916 0
M  V30 4509 H 426.452 4.10181 -0.134196 0
M  V30 4510 H 425.983 3.63364 1.50764 0
M  V30 4511 H 427.998 4.20594 2.63278 0
M  V30 4512 N 427.171 -0.0066808 1.57599 0
M  V30 4513 C 428.396 -0.707738 1.94951 0
M  V30 4514 C 428.821 -1.66882 0.867868 0
M  V30 4515 O 428.179 -1.80457 -0.17458 0
M  V30 4516 C 428.227 -1.42162 3.31394 0
M  V30 4517 O 427.331 -2.53578 3.25226 0
M  V30 4518 H 426.672 -0.188752 0.636607 0
M  V30 4519 H 429.202 0.0445193 2.04552 0
M  V30 4520 H 429.212 -1.78655 3.66806 0
M  V30 4521 H 427.887 -0.716903 4.09675 0
M  V30 4522 H 426.464 -2.19463 3.01481 0
M  V30 4523 N 428.649 -1.55105 -0.279332 0
M  V30 4524 C 429.612 -1.86783 -1.32834 0
M  V30 4525 C 430.612 -0.74199 -1.42657 0
M  V30 4526 O 431.802 -1.0102 -1.41918 0
M  V30 4527 C 428.934 -2.06746 -2.71052 0
M  V30 4528 H 430.127 -2.8055 -1.05979 0
M  V30 4529 H 427.68 -1.47499 -0.517087 0
M  V30 4530 H 428.415 -1.15339 -3.03097 0
M  V30 4531 H 428.2 -2.88711 -2.65309 0
M  V30 4532 H 429.69 -2.32549 -3.46858 0
M  V30 4533 N 430.127 0.543554 -1.4793 0
M  V30 4534 C 431.355 1.32516 -1.58894 0
M  V30 4535 C 431.77 1.87215 -0.244131 0
M  V30 4536 O 431.127 1.65709 0.764652 0
M  V30 4537 C 431.178 2.48554 -2.62494 0
M  V30 4538 O 430.899 1.96112 -3.91755 0
M  V30 4539 C 432.4 3.40572 -2.8377 0
M  V30 4540 H 429.62 0.403472 -0.536145 0
M  V30 4541 H 432.164 0.657106 -1.93655 0
M  V30 4542 H 430.319 3.1127 -2.30629 0
M  V30 4543 H 430.733 2.71967 -4.4848 0
M  V30 4544 H 432.207 4.18375 -3.60093 0
M  V30 4545 H 432.684 3.94965 -1.92092 0
M  V30 4546 H 433.29 2.8366 -3.16887 0
M  V30 4547 N 431.605 1.3629 0.791371 0
M  V30 4548 C 432.555 1.26988 1.89362 0
M  V30 4549 C 433.539 0.161795 1.60084 0
M  V30 4550 O 434.731 0.394426 1.72549 0
M  V30 4551 C 431.86 1.05944 3.26544 0
M  V30 4552 C 430.946 2.21211 3.61838 0
M  V30 4553 N 431.337 3.46518 3.68455 0
M  V30 4554 C 429.635 2.12933 3.91887 0
M  V30 4555 C 430.336 4.2241 3.99931 0
M  V30 4556 N 429.312 3.51329 4.14812 0
M  V30 4557 H 433.114 2.21908 1.92702 0
M  V30 4558 H 430.628 1.28982 0.986787 0
M  V30 4559 H 432.625 0.973666 4.05371 0
M  V30 4560 H 431.285 0.119223 3.24481 0
M  V30 4561 H 432.296 3.80677 3.51148 0
M  V30 4562 H 428.973 1.26855 3.97761 0
M  V30 4563 H 430.363 5.30767 4.1199 0
M  V30 4564 N 433.083 -1.0153 1.20538 0
M  V30 4565 C 434.03 -2.10098 0.955383 0
M  V30 4566 C 435 -1.65702 -0.114878 0
M  V30 4567 O 436.185 -1.90776 0.0301118 0
M  V30 4568 C 433.325 -3.41236 0.514969 0
M  V30 4569 C 432.438 -3.99102 1.65353 0
M  V30 4570 C 431.573 -5.18306 1.16329 0
M  V30 4571 C 430.612 -5.68258 2.27485 0
M  V30 4572 N 429.749 -6.78722 1.7967 0
M  V30 4573 H 434.589 -2.30818 1.88486 0
M  V30 4574 H 432.126 -1.13189 0.939499 0
M  V30 4575 H 434.084 -4.16504 0.240935 0
M  V30 4576 H 432.714 -3.20585 -0.377512 0
M  V30 4577 H 431.766 -3.20918 2.04245 0
M  V30 4578 H 433.078 -4.32177 2.49047 0
M  V30 4579 H 432.232 -6.00782 0.845302 0
M  V30 4580 H 430.971 -4.86799 0.296254 0
M  V30 4581 H 429.976 -4.84385 2.60099 0
M  V30 4582 H 431.201 -6.01798 3.14667 0
M  V30 4583 H 429.147 -6.49042 0.95295 0
M  V30 4584 H 429.064 -7.10996 2.56944 0
M  V30 4585 H 430.332 -7.64759 1.50875 0
M  V30 4586 N 434.561 -1.01147 -1.20859 0
M  V30 4587 C 435.789 -0.716911 -1.94082 0
M  V30 4588 C 436.204 0.721568 -1.74467 0
M  V30 4589 O 435.561 1.48889 -1.05539 0
M  V30 4590 C 435.612 -1.03662 -3.46318 0
M  V30 4591 O 435.333 -2.4186 -3.65288 0
M  V30 4592 C 436.834 -0.762386 -4.36695 0
M  V30 4593 H 434.054 -0.26367 -0.617024 0
M  V30 4594 H 436.598 -1.35127 -1.53496 0
M  V30 4595 H 434.753 -0.447757 -3.84804 0
M  V30 4596 H 435.167 -2.53224 -4.59323 0
M  V30 4597 H 436.641 -1.03621 -5.42187 0
M  V30 4598 H 437.118 0.303514 -4.3815 0
M  V30 4599 H 437.724 -1.33316 -4.03865 0
M  V30 4600 N 436.039 1.36541 -0.78704 0
M  V30 4601 C 436.986 2.30082 -0.181901 0
M  V30 4602 C 437.956 1.5186 0.672896 0
M  V30 4603 O 439.141 1.80374 0.622072 0
M  V30 4604 C 436.281 3.3835 0.679197 0
M  V30 4605 C 435.394 4.31565 -0.193882 0
M  V30 4606 C 434.529 5.26915 0.673364 0
M  V30 4607 C 433.568 6.11769 -0.201315 0
M  V30 4608 N 432.705 6.99315 0.624777 0
M  V30 4609 H 437.545 2.81248 -0.985064 0
M  V30 4610 H 435.082 1.38437 -0.497342 0
M  V30 4611 H 437.04 3.99767 1.19341 0
M  V30 4612 H 435.67 2.8851 1.44781 0
M  V30 4613 H 434.722 3.71323 -0.826044 0
M  V30 4614 H 436.034 4.91191 -0.867937 0
M  V30 4615 H 435.188 5.9361 1.25348 0
M  V30 4616 H 433.927 4.67737 1.38105 0
M  V30 4617 H 432.932 5.44039 -0.793849 0
M  V30 4618 H 434.157 6.73022 -0.906568 0
M  V30 4619 H 432.103 6.42648 1.3168 0
M  V30 4620 H 432.02 7.56 0.00835237 0
M  V30 4621 H 433.288 7.70382 1.18879 0
M  V30 4622 N 437.518 0.538854 1.48102 0
M  V30 4623 C 438.743 0.0102694 2.07397 0
M  V30 4624 C 439.168 -1.26562 1.39153 0
M  V30 4625 O 438.526 -1.75357 0.460387 0
M  V30 4626 C 438.574 -0.187602 3.60112 0
M  V30 4627 O 437.678 -1.25432 3.92862 0
M  V30 4628 H 437.019 0.0430975 0.6626 0
M  V30 4629 H 439.549 0.749301 1.90385 0
M  V30 4630 H 439.559 -0.407517 4.0596 0
M  V30 4631 H 438.234 0.744386 4.09184 0
M  V30 4632 H 436.811 -1.01636 3.58782 0
M  V30 4633 N 438.996 -1.55193 0.274407 0
M  V30 4634 C 439.929 -2.18606 -0.654712 0
M  V30 4635 C 440.907 -1.14677 -1.15273 0
M  V30 4636 O 442.091 -1.43198 -1.22583 0
M  V30 4637 C 439.218 -2.80875 -1.89281 0
M  V30 4638 C 438.264 -3.981 -1.53032 0
M  V30 4639 S 439.097 -5.32025 -0.609107 0
M  V30 4640 C 440.253 -5.97761 -1.85559 0
M  V30 4641 H 440.486 -2.97074 -0.115894 0
M  V30 4642 H 438.019 -1.54288 0.05867 0
M  V30 4643 H 439.977 -3.17381 -2.60345 0
M  V30 4644 H 438.638 -2.02302 -2.40277 0
M  V30 4645 H 437.831 -4.40356 -2.45158 0
M  V30 4646 H 437.433 -3.63013 -0.899874 0
M  V30 4647 H 439.725 -6.16951 -2.7996 0
M  V30 4648 H 440.668 -6.92545 -1.47605 0
M  V30 4649 H 441.076 -5.27113 -2.02021 0
M  V30 4650 N 440.474 -0.00167713 -1.576 0
M  V30 4651 C 441.721 0.68282 -1.90641 0
M  V30 4652 C 442.049 1.73686 -0.875415 0
M  V30 4653 O 441.304 1.95334 0.119575 0
M  V30 4654 C 441.603 1.36189 -3.30435 0
M  V30 4655 C 441.269 0.440887 -4.48739 0
M  V30 4656 C 439.931 0.187312 -4.80835 0
M  V30 4657 C 442.283 -0.193134 -5.20842 0
M  V30 4658 C 439.611 -0.70855 -5.82406 0
M  V30 4659 C 441.963 -1.07688 -6.23367 0
M  V30 4660 C 440.627 -1.33962 -6.53919 0
M  V30 4661 H 439.897 0.249862 -0.697603 0
M  V30 4662 H 442.544 -0.0575642 -1.91413 0
M  V30 4663 H 440.849 2.17636 -3.25794 0
M  V30 4664 H 442.546 1.89759 -3.5326 0
M  V30 4665 H 439.136 0.648694 -4.23663 0
M  V30 4666 H 443.32 -0.0102445 -4.96299 0
M  V30 4667 H 438.576 -0.920097 -6.04437 0
M  V30 4668 H 442.75 -1.57451 -6.78367 0
M  V30 4669 H 440.377 -2.03549 -7.32442 0
M  V30 4670 N 441.952 1.55251 0.271103 0
M  V30 4671 C 443.199 1.75946 1.00245 0
M  V30 4672 C 443.527 0.561611 1.86215 0
M  V30 4673 O 442.782 -0.455832 1.90317 0
M  V30 4674 C 443.081 3.01879 1.91321 0
M  V30 4675 C 442.747 4.34337 1.21086 0
M  V30 4676 C 441.409 4.70338 1.01666 0
M  V30 4677 C 443.761 5.16325 0.71119 0
M  V30 4678 C 441.089 5.8588 0.310099 0
M  V30 4679 C 443.441 6.32597 0.0182157 0
M  V30 4680 C 442.105 6.67236 -0.18768 0
M  V30 4681 H 441.375 0.643833 0.366824 0
M  V30 4682 H 444.022 1.89521 0.27458 0
M  V30 4683 H 442.327 2.83212 2.70736 0
M  V30 4684 H 444.024 3.15088 2.48033 0
M  V30 4685 H 440.614 4.06043 1.37213 0
M  V30 4686 H 444.798 4.88987 0.848844 0
M  V30 4687 H 440.054 6.1124 0.139873 0
M  V30 4688 H 444.228 6.9538 -0.376711 0
M  V30 4689 H 441.855 7.56618 -0.73715 0
M  V30 4690 N 443.43 -0.535701 1.48216 0
M  V30 4691 C 444.677 -1.29183 1.55942 0
M  V30 4692 C 445.005 -1.93125 0.230857 0
M  V30 4693 O 444.26 -1.79556 -0.778331 0
M  V30 4694 C 444.559 -2.4068 2.64212 0
M  V30 4695 C 444.225 -1.94428 4.06827 0
M  V30 4696 C 442.887 -1.81532 4.45645 0
M  V30 4697 C 445.239 -1.59405 4.96225 0
M  V30 4698 C 442.567 -1.31939 5.71672 0
M  V30 4699 C 444.919 -1.11276 6.22736 0
M  V30 4700 C 443.583 -0.969924 6.60416 0
M  V30 4701 H 442.853 -0.472715 0.570632 0
M  V30 4702 H 445.5 -0.598437 1.81909 0
M  V30 4703 H 443.805 -3.15666 2.32083 0
M  V30 4704 H 445.502 -2.98822 2.67407 0
M  V30 4705 H 442.092 -2.05415 3.76168 0
M  V30 4706 H 446.276 -1.68231 4.66917 0
M  V30 4707 H 441.532 -1.19562 5.99596 0
M  V30 4708 H 445.706 -0.832453 6.91407 0
M  V30 4709 H 443.333 -0.583436 7.57958 0
M  V30 4710 N 444.908 -1.36708 -0.784132 0
M  V30 4711 C 445.838 -1.34153 -1.91116 0
M  V30 4712 C 446.819 -0.212121 -1.68772 0
M  V30 4713 O 448.004 -0.410581 -1.8981 0
M  V30 4714 C 445.134 -1.13535 -3.28218 0
M  V30 4715 C 444.088 -2.23356 -3.65097 0
M  V30 4716 C 443.414 -1.87875 -5.00607 0
M  V30 4717 C 444.714 -3.65473 -3.73131 0
M  V30 4718 H 446.408 -2.28459 -1.93512 0
M  V30 4719 H 443.954 -1.09973 -0.929618 0
M  V30 4720 H 445.907 -1.10381 -4.06687 0
M  V30 4721 H 444.631 -0.156804 -3.26223 0
M  V30 4722 H 443.29 -2.25645 -2.88929 0
M  V30 4723 H 442.938 -0.885814 -4.95139 0
M  V30 4724 H 442.638 -2.61406 -5.26252 0
M  V30 4725 H 444.162 -1.86286 -5.81489 0
M  V30 4726 H 445.576 -3.65382 -4.41779 0
M  V30 4727 H 443.973 -4.37953 -4.10265 0
M  V30 4728 H 445.043 -3.99995 -2.74102 0
M  V30 4729 N 446.386 1.0089 -1.21074 0
M  V30 4730 C 447.349 2.0775 -0.968129 0
M  V30 4731 C 448.349 1.6069 0.0593445 0
M  V30 4732 O 449.539 1.73293 -0.177525 0
M  V30 4733 C 446.671 3.37794 -0.459108 0
M  V30 4734 H 447.864 2.30707 -1.9161 0
M  V30 4735 H 445.417 1.17807 -1.02719 0
M  V30 4736 H 446.152 3.20516 0.49397 0
M  V30 4737 H 445.937 3.7328 -1.20019 0
M  V30 4738 H 447.427 4.16454 -0.309099 0
M  V30 4739 N 447.864 1.01787 1.20321 0
M  V30 4740 C 448.796 0.547357 2.22568 0
M  V30 4741 C 449.809 -0.370922 1.58518 0
M  V30 4742 O 450.998 -0.169067 1.77698 0
M  V30 4743 C 448.098 -0.223031 3.38165 0
M  V30 4744 C 447.271 0.697472 4.31803 0
M  V30 4745 C 446.33 -0.025562 5.26194 0
M  V30 4746 O 445.356 0.597367 5.66057 0
M  V30 4747 N 446.558 -1.29999 5.65757 0
M  V30 4748 H 449.323 1.42668 2.63564 0
M  V30 4749 H 446.884 0.895552 1.34876 0
M  V30 4750 H 448.876 -0.716002 3.98316 0
M  V30 4751 H 447.446 -1.00366 2.9605 0
M  V30 4752 H 446.666 1.37073 3.69601 0
M  V30 4753 H 447.954 1.32347 4.91286 0
M  V30 4754 H 447.352 -1.827 5.35385 0
M  V30 4755 H 445.909 -1.73766 6.28211 0
M  V30 4756 N 449.342 -1.36122 0.79427 0
M  V30 4757 C 450.57 -2.03362 0.380989 0
M  V30 4758 C 450.985 -1.59881 -1.00416 0
M  V30 4759 O 450.342 -0.790515 -1.6449 0
M  V30 4760 C 450.393 -3.58804 0.440649 0
M  V30 4761 O 450.114 -4.007 1.77118 0
M  V30 4762 C 451.615 -4.43296 0.0186117 0
M  V30 4763 H 448.835 -0.652526 0.156367 0
M  V30 4764 H 451.379 -1.73998 1.07447 0
M  V30 4765 H 449.534 -3.8686 -0.204458 0
M  V30 4766 H 449.948 -4.95309 1.72538 0
M  V30 4767 H 451.422 -5.51887 0.111488 0
M  V30 4768 H 451.899 -4.2684 -1.03461 0
M  V30 4769 H 452.505 -4.20512 0.636395 0
M  V30 4770 N 450.82 -0.546701 -1.47814 0
M  V30 4771 C 451.73 0.21026 -2.33656 0
M  V30 4772 C 452.746 0.922413 -1.47538 0
M  V30 4773 O 453.922 0.893652 -1.80488 0
M  V30 4774 C 450.987 1.23348 -3.24016 0
M  V30 4775 C 450.048 0.529883 -4.26017 0
M  V30 4776 C 449.281 1.50435 -5.12059 0
M  V30 4777 O 449.504 2.73837 -5.00369 0
M  V30 4778 O 448.438 1.03459 -5.92942 0
M  V30 4779 H 452.264 -0.493605 -2.99662 0
M  V30 4780 H 449.849 -0.307427 -1.46203 0
M  V30 4781 H 451.731 1.82438 -3.79861 0
M  V30 4782 H 450.406 1.91945 -2.60651 0
M  V30 4783 H 449.313 -0.101948 -3.73961 0
M  V30 4784 H 450.646 -0.11445 -4.92067 0
M  V30 4785 N 452.299 1.55045 -0.282633 0
M  V30 4786 C 453.231 2.2023 0.634924 0
M  V30 4787 C 454.244 1.18931 1.11172 0
M  V30 4788 O 455.433 1.4562 1.03233 0
M  V30 4789 C 452.533 2.82041 1.87899 0
M  V30 4790 C 451.706 4.091 1.54776 0
M  V30 4791 C 450.765 4.54887 2.64507 0
M  V30 4792 O 449.791 5.20496 2.30375 0
M  V30 4793 N 450.993 4.25659 3.94709 0
M  V30 4794 H 453.758 2.99601 0.0769811 0
M  V30 4795 H 451.319 1.61565 -0.104048 0
M  V30 4796 H 453.311 3.09613 2.60619 0
M  V30 4797 H 451.881 2.06618 2.3458 0
M  V30 4798 H 451.101 3.88736 0.654049 0
M  V30 4799 H 452.389 4.9187 1.30158 0
M  V30 4800 H 451.787 3.7306 4.25256 0
M  V30 4801 H 450.344 4.57984 4.63782 0
M  V30 4802 N 453.777 0.010035 1.57597 0
M  V30 4803 C 455.025 -0.671371 1.90623 0
M  V30 4804 C 455.346 -1.73753 0.885151 0
M  V30 4805 O 454.616 -1.95752 -0.0760611 0
M  V30 4806 H 453.196 -0.250968 0.703579 0
M  V30 4807 H 455.858 0.0533325 1.94827 0
M  V30 4808 H 454.954 -1.13626 2.90681 0
M  V30 4809 N 455.255 -1.55392 -0.262866 0
M  V30 4810 C 456.532 -1.67204 -1.01499 0
M  V30 4811 C 456.912 -0.545186 -2.03939 0
M  V30 4812 O 456.26 0.453467 -2.23955 0
M  V30 4813 C 456.47 -3.06847 -1.6627 0
M  V30 4814 C 457.818 -3.64928 -2.17054 0
M  V30 4815 O 458.842 -3.09545 -1.76239 0
M  V30 4816 O 457.701 -4.61984 -2.91947 0
M  V30 4817 H 454.795 -0.679467 -0.471438 0
M  V30 4818 H 457.341 -1.67729 -0.257918 0
M  V30 4819 H 456.113 -3.80309 -0.920915 0
M  V30 4820 H 455.736 -3.10266 -2.48638 0
M  V30 4821 N 456.733 0.527833 -1.48498 0
M  V30 4822 C 457.982 1.28003 -1.55878 0
M  V30 4823 C 458.295 1.9414 -0.238577 0
M  V30 4824 O 459.501 2.7083 -0.190643 0
M  V30 4825 C 457.957 2.32272 -2.74914 0
M  V30 4826 C 457.565 1.72196 -4.13585 0
M  V30 4827 C 459.309 3.08488 -2.91608 0
M  V30 4828 C 457.216 2.74417 -5.23879 0
M  V30 4829 H 456.146 0.481413 -0.580308 0
M  V30 4830 H 458.797 0.557195 -1.74836 0
M  V30 4831 H 457.179 3.07601 -2.49395 0
M  V30 4832 H 458.353 1.03041 -4.49132 0
M  V30 4833 H 456.668 1.08464 -4.02025 0
M  V30 4834 H 459.265 3.84879 -3.71177 0
M  V30 4835 H 459.608 3.64481 -2.01145 0
M  V30 4836 H 460.141 2.40274 -3.17038 0
M  V30 4837 H 456.88 2.23242 -6.16314 0
M  V30 4838 H 456.4 3.41893 -4.92818 0
M  V30 4839 H 458.079 3.37362 -5.52083 0
M  V30 4840 N 458.211 1.37122 0.776871 0
M  V30 4841 C 459.458 1.32047 1.53524 0
M  V30 4842 C 459.786 -0.0965631 1.9426 0
M  V30 4843 O 459.041 -1.06866 1.63945 0
M  V30 4844 C 459.34 2.20068 2.81611 0
M  V30 4845 C 459.006 3.68423 2.59953 0
M  V30 4846 C 457.668 4.08854 2.53755 0
M  V30 4847 C 460.02 4.62431 2.40431 0
M  V30 4848 C 457.348 5.41417 2.26018 0
M  V30 4849 C 459.7 5.95225 2.14219 0
M  V30 4850 C 458.364 6.34767 2.06462 0
M  V30 4851 H 457.634 0.483196 0.561785 0
M  V30 4852 H 460.281 1.69284 0.895268 0
M  V30 4853 H 458.586 1.75809 3.50141 0
M  V30 4854 H 460.283 2.13458 3.39465 0
M  V30 4855 H 456.873 3.36354 2.65638 0
M  V30 4856 H 461.057 4.32057 2.44213 0
M  V30 4857 H 456.313 5.71022 2.18504 0
M  V30 4858 H 460.487 6.67626 1.98112 0
M  V30 4859 H 458.114 7.37413 1.84733 0
M  V30 4860 N 459.689 -1.00246 1.21608 0
M  V30 4861 C 460.636 -2.09073 0.977613 0
M  V30 4862 C 461.606 -1.65815 -0.097297 0
M  V30 4863 O 462.791 -1.90734 0.0503445 0
M  V30 4864 C 459.931 -3.40671 0.551133 0
M  V30 4865 C 459.044 -3.97326 1.69576 0
M  V30 4866 C 458.179 -5.17043 1.2182 0
M  V30 4867 C 457.218 -5.65813 2.335 0
M  V30 4868 N 456.355 -6.76778 1.86859 0
M  V30 4869 H 461.195 -2.28806 1.90924 0
M  V30 4870 H 458.732 -1.12186 0.951452 0
M  V30 4871 H 460.69 -4.16225 0.285097 0
M  V30 4872 H 459.32 -3.20967 -0.343489 0
M  V30 4873 H 458.372 -3.18734 2.07637 0
M  V30 4874 H 459.684 -4.29511 2.53617 0
M  V30 4875 H 458.838 -5.99852 0.908975 0
M  V30 4876 H 457.577 -4.86458 0.347869 0
M  V30 4877 H 456.582 -4.81599 2.65222 0
M  V30 4878 H 457.807 -5.98427 3.21033 0
M  V30 4879 H 455.753 -6.47994 1.02174 0
M  V30 4880 H 455.67 -7.08231 2.64471 0
M  V30 4881 H 456.938 -7.63116 1.58978 0
M  V30 4882 N 461.167 -1.02423 -1.1978 0
M  V30 4883 C 462.416 -0.713265 -1.88667 0
M  V30 4884 C 462.729 0.7609 -1.80193 0
M  V30 4885 O 463.935 1.18473 -2.44288 0
M  V30 4886 C 462.391 -1.22545 -3.38394 0
M  V30 4887 C 461.999 -2.72706 -3.55437 0
M  V30 4888 C 463.743 -0.990257 -4.12788 0
M  V30 4889 C 461.65 -3.17367 -4.99031 0
M  V30 4890 H 460.58 -0.263105 -0.706606 0
M  V30 4891 H 463.231 -1.23792 -1.35454 0
M  V30 4892 H 461.613 -0.628732 -3.90977 0
M  V30 4893 H 462.787 -3.37993 -3.13205 0
M  V30 4894 H 461.102 -2.94453 -2.94425 0
M  V30 4895 H 463.699 -1.29926 -5.18675 0
M  V30 4896 H 464.042 0.0730761 -4.16236 0
M  V30 4897 H 464.575 -1.55074 -3.66329 0
M  V30 4898 H 461.314 -4.23009 -5.00743 0
M  V30 4899 H 460.834 -2.56805 -5.42044 0
M  V30 4900 H 462.513 -3.10441 -5.67658 0
M  V30 4901 N 462.645 1.35699 -0.801477 0
M  V30 4902 C 463.873 2.03157 -0.391768 0
M  V30 4903 C 464.288 1.60412 0.995668 0
M  V30 4904 O 463.645 0.799228 1.64069 0
M  V30 4905 C 463.696 3.58566 -0.459671 0
M  V30 4906 O 463.417 3.99756 -1.7924 0
M  V30 4907 C 464.918 4.4328 -0.0421205 0
M  V30 4908 H 462.138 0.651688 -0.159825 0
M  V30 4909 H 464.682 1.73426 -1.08368 0
M  V30 4910 H 462.837 3.86963 0.183939 0
M  V30 4911 H 463.251 4.94387 -1.75162 0
M  V30 4912 H 464.725 5.51821 -0.140754 0
M  V30 4913 H 465.202 4.27383 1.01196 0
M  V30 4914 H 465.808 4.20168 -0.658687 0
M  V30 4915 N 464.123 0.554532 1.47522 0
M  V30 4916 C 465.053 -0.182974 2.32782 0
M  V30 4917 C 466.034 -0.911377 1.43624 0
M  V30 4918 O 467.219 -0.892366 1.72483 0
M  V30 4919 C 464.349 -1.21513 3.25349 0
M  V30 4920 C 463.303 -0.603355 4.23726 0
M  V30 4921 C 462.629 -1.73995 5.05598 0
M  V30 4922 C 463.929 0.441121 5.20434 0
M  V30 4923 H 465.623 0.52882 2.94693 0
M  V30 4924 H 463.169 0.255759 1.41711 0
M  V30 4925 H 465.122 -1.73922 3.83835 0
M  V30 4926 H 463.846 -1.95683 2.61487 0
M  V30 4927 H 462.505 -0.10059 3.66462 0
M  V30 4928 H 462.153 -2.47063 4.38143 0
M  V30 4929 H 461.853 -1.3364 5.72201 0
M  V30 4930 H 463.377 -2.26735 5.66942 0
M  V30 4931 H 464.791 0.00319931 5.733 0
M  V30 4932 H 463.188 0.763402 5.95224 0
M  V30 4933 H 464.258 1.33799 4.66075 0
M  V30 4934 N 465.601 -1.54893 0.290851 0
M  V30 4935 C 466.511 -2.26812 -0.59945 0
M  V30 4936 C 467.527 -1.29963 -1.15696 0
M  V30 4937 O 468.703 -1.62928 -1.18391 0
M  V30 4938 C 465.768 -2.98716 -1.75982 0
M  V30 4939 C 464.829 -4.1108 -1.2374 0
M  V30 4940 C 464.062 -4.79546 -2.34246 0
M  V30 4941 O 464.285 -4.47309 -3.53936 0
M  V30 4942 O 463.219 -5.67165 -2.01512 0
M  V30 4943 H 467.045 -3.03696 -0.0163561 0
M  V30 4944 H 464.63 -1.49289 0.0576755 0
M  V30 4945 H 466.512 -3.43851 -2.43607 0
M  V30 4946 H 465.187 -2.24737 -2.3297 0
M  V30 4947 H 464.094 -3.70367 -0.527163 0
M  V30 4948 H 465.427 -4.87007 -0.71307 0
M  V30 4949 N 467.08 -0.0183926 -1.57589 0
M  V30 4950 C 468.308 0.673046 -1.95647 0
M  V30 4951 C 468.723 1.66275 -0.894312 0
M  V30 4952 O 468.08 1.82072 0.124975 0
M  V30 4953 C 468.131 1.38884 -3.33756 0
M  V30 4954 O 467.852 0.438806 -4.35897 0
M  V30 4955 C 469.353 2.1731 -3.86383 0
M  V30 4956 H 466.573 0.186292 -0.644621 0
M  V30 4957 H 469.117 -0.0749748 -2.04363 0
M  V30 4958 H 467.272 2.08835 -3.26293 0
M  V30 4959 H 467.686 0.945869 -5.15901 0
M  V30 4960 H 469.16 2.62863 -4.85394 0
M  V30 4961 H 469.637 3.00764 -3.20059 0
M  V30 4962 H 470.243 1.52339 -3.97081 0
M  V30 4963 N 468.558 1.5553 0.254621 0
M  V30 4964 C 469.835 1.6774 1.00611 0
M  V30 4965 C 470.215 0.555993 2.03647 0
M  V30 4966 O 469.563 -0.441583 2.24193 0
M  V30 4967 C 469.773 3.07725 1.6464 0
M  V30 4968 C 471.121 3.66074 2.15116 0
M  V30 4969 O 472.145 3.10476 1.74595 0
M  V30 4970 O 471.004 4.63526 2.89493 0
M  V30 4971 H 468.098 0.681958 0.467828 0
M  V30 4972 H 470.644 1.67863 0.24902 0
M  V30 4973 H 469.416 3.80792 0.900734 0
M  V30 4974 H 469.039 3.1158 2.46989 0
M  V30 4975 N 470.036 -0.519951 1.48776 0
M  V30 4976 C 470.946 -1.65025 1.66745 0
M  V30 4977 C 471.962 -1.6508 0.549954 0
M  V30 4978 O 473.138 -1.83848 0.822295 0
M  V30 4979 C 470.203 -3.0146 1.71238 0
M  V30 4980 C 469.264 -3.12182 2.94688 0
M  V30 4981 C 468.497 -4.42109 2.98958 0
M  V30 4982 O 468.72 -5.29799 2.1135 0
M  V30 4983 O 467.654 -4.57406 3.91233 0
M  V30 4984 H 471.48 -1.52801 2.62461 0
M  V30 4985 H 469.065 -0.694157 1.32294 0
M  V30 4986 H 470.947 -3.82584 1.76657 0
M  V30 4987 H 469.622 -3.13988 0.786975 0
M  V30 4988 H 468.529 -2.30316 2.94797 0
M  V30 4989 H 469.862 -3.04574 3.86646 0
M  V30 4990 N 471.514 -1.37532 -0.769588 0
M  V30 4991 C 472.791 -1.23392 -1.51768 0
M  V30 4992 C 473.171 0.17157 -2.10402 0
M  V30 4993 O 472.519 1.17943 -1.95708 0
M  V30 4994 C 472.729 -2.33163 -2.59685 0
M  V30 4995 C 474.077 -2.70809 -3.27028 0
M  V30 4996 O 475.101 -2.32355 -2.69981 0
M  V30 4997 O 473.96 -3.37066 -4.30173 0
M  V30 4998 H 471.054 -0.481617 -0.67229 0
M  V30 4999 H 473.6 -1.49318 -0.806368 0
M  V30 5000 H 472.372 -3.27273 -2.14494 0
M  V30 5001 H 471.995 -2.08713 -3.38415 0
M  V30 5002 N 472.992 0.995999 -1.22138 0
M  V30 5003 C 473.925 2.08302 -0.931952 0
M  V30 5004 C 474.903 1.62127 0.123956 0
M  V30 5005 O 476.087 1.88499 -0.00696004 0
M  V30 5006 C 473.214 3.36317 -0.401068 0
M  V30 5007 C 472.26 4.01413 -1.44117 0
M  V30 5008 S 473.093 4.42664 -3.01345 0
M  V30 5009 C 474.249 5.73853 -2.49887 0
M  V30 5010 H 474.482 2.32532 -1.85246 0
M  V30 5011 H 472.015 1.13005 -1.0521 0
M  V30 5012 H 473.973 4.10375 -0.101352 0
M  V30 5013 H 472.634 3.10123 0.498272 0
M  V30 5014 H 471.827 4.9358 -1.01952 0
M  V30 5015 H 471.429 3.33668 -1.68943 0
M  V30 5016 H 473.721 6.50039 -1.90934 0
M  V30 5017 H 474.664 6.20841 -3.40532 0
M  V30 5018 H 475.072 5.31105 -1.9128 0
M  V30 5019 N 474.47 1.03057 1.19235 0
M  V30 5020 C 475.716 0.729098 1.89241 0
M  V30 5021 C 476.049 -0.740573 1.79525 0
M  V30 5022 O 475.324 -1.53946 1.18874 0
M  V30 5023 C 475.607 1.18304 3.40112 0
M  V30 5024 C 475.46 2.71406 3.5869 0
M  V30 5025 C 476.779 0.765161 4.33397 0
M  V30 5026 H 473.898 0.266338 0.687192 0
M  V30 5027 H 476.54 1.28079 1.40341 0
M  V30 5028 H 474.69 0.713672 3.81889 0
M  V30 5029 H 476.362 3.26303 3.26074 0
M  V30 5030 H 474.605 3.11717 3.01687 0
M  V30 5031 H 475.276 2.98225 4.64506 0
M  V30 5032 H 477.752 1.16889 3.99345 0
M  V30 5033 H 476.628 1.11065 5.37546 0
M  V30 5034 H 476.889 -0.332372 4.40849 0
M  V30 5035 N 475.948 -1.35272 0.808662 0
M  V30 5036 C 477.176 -2.02946 0.402537 0
M  V30 5037 C 477.591 -1.60937 -0.987147 0
M  V30 5038 O 476.948 -0.807917 -1.63643 0
M  V30 5039 C 476.999 -3.58317 0.47868 0
M  V30 5040 O 476.72 -3.98799 1.81358 0
M  V30 5041 C 478.221 -4.43251 0.0656281 0
M  V30 5042 H 475.441 -0.650831 0.163279 0
M  V30 5043 H 477.985 -1.72849 1.09286 0
M  V30 5044 H 476.14 -3.87055 -0.163415 0
M  V30 5045 H 476.554 -4.93451 1.77781 0
M  V30 5046 H 478.028 -5.51738 0.170017 0
M  V30 5047 H 478.505 -4.27913 -0.989278 0
M  V30 5048 H 479.111 -4.19813 0.68096 0
M  V30 5049 N 477.426 -0.562348 -1.47226 0
M  V30 5050 C 478.336 0.185466 -2.33866 0
M  V30 5051 C 479.352 0.906713 -1.48508 0
M  V30 5052 O 480.528 0.874458 -1.81425 0
M  V30 5053 C 477.593 1.19904 -3.25306 0
M  V30 5054 C 476.654 0.484669 -4.26555 0
M  V30 5055 C 475.887 1.44996 -5.13626 0
M  V30 5056 O 476.11 2.68515 -5.03245 0
M  V30 5057 O 475.044 0.971642 -5.94006 0
M  V30 5058 H 478.87 -0.525361 -2.99121 0
M  V30 5059 H 476.455 -0.322916 -1.45868 0
M  V30 5060 H 478.337 1.78399 -3.81774 0
M  V30 5061 H 477.012 1.8917 -2.62672 0
M  V30 5062 H 475.919 -0.141605 -3.73832 0
M  V30 5063 H 477.252 -0.166634 -4.91918 0
M  V30 5064 N 478.904 1.54736 -0.299062 0
M  V30 5065 C 480.153 1.99279 0.311549 0
M  V30 5066 C 480.466 1.19107 1.55154 0
M  V30 5067 O 481.672 1.53908 2.23662 0
M  V30 5068 C 480.128 3.54768 0.605632 0
M  V30 5069 C 479.736 4.43746 -0.615914 0
M  V30 5070 C 481.48 4.07841 1.17754 0
M  V30 5071 C 479.387 5.90663 -0.29509 0
M  V30 5072 H 478.317 0.744359 0.120187 0
M  V30 5073 H 480.968 1.78919 -0.407464 0
M  V30 5074 H 479.35 3.71021 1.38419 0
M  V30 5075 H 480.524 4.39267 -1.39218 0
M  V30 5076 H 478.839 4.01434 -1.10633 0
M  V30 5077 H 481.436 5.15174 1.43179 0
M  V30 5078 H 481.779 3.58324 2.11918 0
M  V30 5079 H 482.312 3.95123 0.460739 0
M  V30 5080 H 479.051 6.44325 -1.20524 0
M  V30 5081 H 478.571 5.98155 0.44394 0
M  V30 5082 H 480.25 6.46916 0.104048 0
M  V30 5083 N 480.382 0.0267497 1.57577 0
M  V30 5084 C 481.798 -0.32962 1.56159 0
M  V30 5085 C 481.998 -1.73059 1.03213 0
M  V30 5086 O 481.054 -2.43233 0.677804 0
M  V30 5087 C 482.367 -0.18039 3.00158 0
M  V30 5088 C 483.915 -0.253334 3.11973 0
M  V30 5089 C 484.39 -0.132921 4.57807 0
M  V30 5090 N 485.881 -0.189979 4.6281 0
M  V30 5091 C 486.616 -0.120554 5.73273 0
M  V30 5092 N 486.112 -0.000180315 6.928 0
M  V30 5093 N 487.905 -0.174369 5.61829 0
M  V30 5094 H 480.056 0.942896 1.90324 0
M  V30 5095 H 482.319 0.3639 0.875375 0
M  V30 5096 H 482.025 0.784576 3.42837 0
M  V30 5097 H 481.899 -0.951565 3.65 0
M  V30 5098 H 484.286 -1.20876 2.69208 0
M  V30 5099 H 484.367 0.548177 2.49857 0
M  V30 5100 H 484.011 0.819073 5.01252 0
M  V30 5101 H 483.941 -0.953264 5.179 0
M  V30 5102 H 486.432 -0.283257 3.76837 0
M  V30 5103 H 486.745 0.0461666 7.72786 0
M  V30 5104 H 485.09 0.034569 6.94991 0
M  V30 5105 H 488.281 -0.266794 4.67339 0
M  V30 5106 H 488.454 -0.116802 6.47895 0
M  V30 5107 N 481.861 -1.55662 -0.24637 0
M  V30 5108 C 482.791 -1.93377 -1.30873 0
M  V30 5109 C 483.772 -0.798773 -1.50179 0
M  V30 5110 O 484.957 -1.0591 -1.62778 0
M  V30 5111 C 482.087 -2.22893 -2.66338 0
M  V30 5112 C 481.041 -3.38649 -2.61727 0
M  V30 5113 C 480.367 -3.53708 -4.00992 0
M  V30 5114 C 481.667 -4.74323 -2.18666 0
M  V30 5115 H 483.361 -2.82363 -0.995552 0
M  V30 5116 H 480.907 -1.35854 -0.477464 0
M  V30 5117 H 482.86 -2.47866 -3.40794 0
M  V30 5118 H 481.584 -1.30733 -2.99293 0
M  V30 5119 H 480.243 -3.13685 -1.89729 0
M  V30 5120 H 479.891 -2.58967 -4.31214 0
M  V30 5121 H 479.591 -4.31551 -3.98795 0
M  V30 5122 H 481.115 -3.81003 -4.77147 0
M  V30 5123 H 482.529 -4.98665 -2.82854 0
M  V30 5124 H 480.926 -5.55273 -2.27579 0
M  V30 5125 H 481.996 -4.71349 -1.13834 0
M  V30 5126 N 483.339 0.512053 -1.4905 0
M  V30 5127 C 484.286 1.6148 -1.64902 0
M  V30 5128 C 485.256 1.58687 -0.490673 0
M  V30 5129 O 486.441 1.76842 -0.71636 0
M  V30 5130 C 483.581 2.99676 -1.71139 0
M  V30 5131 C 482.694 3.12568 -2.98203 0
M  V30 5132 C 481.829 4.4143 -2.95487 0
M  V30 5133 C 480.868 4.47916 -4.17179 0
M  V30 5134 N 480.005 5.68191 -4.12437 0
M  V30 5135 H 484.845 1.47271 -2.59066 0
M  V30 5136 H 482.382 0.716713 -1.28459 0
M  V30 5137 H 484.34 3.79761 -1.72736 0
M  V30 5138 H 482.97 3.12614 -0.804508 0
M  V30 5139 H 482.022 2.25618 -3.06269 0
M  V30 5140 H 483.334 3.1322 -3.88194 0
M  V30 5141 H 482.488 5.29825 -2.95585 0
M  V30 5142 H 481.227 4.43326 -2.03256 0
M  V30 5143 H 480.232 3.57925 -4.17337 0
M  V30 5144 H 481.457 4.47744 -5.1059 0
M  V30 5145 H 479.403 5.7095 -3.23036 0
M  V30 5146 H 479.32 5.70413 -4.96151 0
M  V30 5147 H 480.588 6.58823 -4.16621 0
M  V30 5148 N 484.817 1.37938 0.762283 0
M  V30 5149 C 486.047 1.36685 1.54922 0
M  V30 5150 C 486.455 -0.0474099 1.89141 0
M  V30 5151 O 485.798 -1.02213 1.52638 0
M  V30 5152 C 485.86 2.14963 2.88152 0
M  V30 5153 C 485.524 3.6385 2.76518 0
M  V30 5154 C 486.521 4.57531 2.46904 0
M  V30 5155 C 484.206 4.07095 2.94243 0
M  V30 5156 C 486.2 5.92436 2.35156 0
M  V30 5157 C 483.887 5.42083 2.82116 0
M  V30 5158 C 484.885 6.34567 2.52614 0
M  V30 5159 O 484.573 7.67073 2.40529 0
M  V30 5160 H 484.305 0.469586 0.486276 0
M  V30 5161 H 486.859 1.82012 0.951876 0
M  V30 5162 H 485.089 1.6434 3.50042 0
M  V30 5163 H 486.778 2.06224 3.49609 0
M  V30 5164 H 487.544 4.25428 2.32886 0
M  V30 5165 H 483.423 3.35462 3.16206 0
M  V30 5166 H 486.967 6.64591 2.12049 0
M  V30 5167 H 482.864 5.73785 2.95704 0
M  V30 5168 H 483.632 7.77499 2.55807 0
M  V30 5169 N 486.295 -0.989507 1.22664 0
M  V30 5170 C 487.542 -1.72953 1.05325 0
M  V30 5171 C 487.87 -1.90104 -0.411168 0
M  V30 5172 O 487.125 -1.44386 -1.32103 0
M  V30 5173 C 487.424 -3.13649 1.71345 0
M  V30 5174 C 487.09 -3.16403 3.21248 0
M  V30 5175 C 485.752 -3.16862 3.62149 0
M  V30 5176 C 488.104 -3.12428 4.17179 0
M  V30 5177 C 485.432 -3.11051 4.97458 0
M  V30 5178 C 487.784 -3.08159 5.52468 0
M  V30 5179 C 486.448 -3.06935 5.92746 0
M  V30 5180 H 485.718 -0.632881 0.385412 0
M  V30 5181 H 488.365 -1.15863 1.52473 0
M  V30 5182 H 486.67 -3.74069 1.16532 0
M  V30 5183 H 488.367 -3.69658 1.55416 0
M  V30 5184 H 484.957 -3.16798 2.88682 0
M  V30 5185 H 489.141 -3.11221 3.86595 0
M  V30 5186 H 484.397 -3.0845 5.27891 0
M  V30 5187 H 488.571 -3.04039 6.26525 0
M  V30 5188 H 486.198 -3.02186 6.97558 0
M  V30 5189 N 487.773 -1.03688 -1.18687 0
M  V30 5190 C 489.05 -0.652397 -1.84399 0
M  V30 5191 C 489.43 0.868386 -1.92412 0
M  V30 5192 O 488.778 1.76832 -1.44716 0
M  V30 5193 C 488.988 -1.3238 -3.22919 0
M  V30 5194 C 490.336 -1.45216 -3.98996 0
M  V30 5195 O 491.36 -1.2816 -3.32345 0
M  V30 5196 O 490.219 -1.72975 -5.18403 0
M  V30 5197 H 487.313 -0.227793 -0.795009 0
M  V30 5198 H 489.859 -1.13553 -1.2611 0
M  V30 5199 H 488.631 -2.36202 -3.11968 0
M  V30 5200 H 488.254 -0.829039 -3.88861 0
M  V30 5201 N 489.251 1.34841 -0.815825 0
M  V30 5202 C 490.479 2.0273 -0.413294 0
M  V30 5203 C 490.894 1.61459 0.978599 0
M  V30 5204 O 490.251 0.816584 1.63212 0
M  V30 5205 C 490.302 3.58058 -0.497676 0
M  V30 5206 O 490.023 3.97832 -1.8347 0
M  V30 5207 C 491.524 4.4321 -0.0891339 0
M  V30 5208 H 488.744 0.649956 -0.166728 0
M  V30 5209 H 491.288 1.72267 -1.10201 0
M  V30 5210 H 489.443 3.87136 0.142886 0
M  V30 5211 H 489.857 4.92501 -1.80396 0
M  V30 5212 H 491.331 5.5164 -0.199274 0
M  V30 5213 H 491.808 4.28432 0.966571 0
M  V30 5214 H 492.414 4.19446 -0.703214 0
M  V30 5215 N 490.729 0.570148 1.46925 0
M  V30 5216 C 491.975 0.0510284 2.02736 0
M  V30 5217 C 492.308 -1.3006 1.44215 0
M  V30 5218 O 491.583 -1.84932 0.602521 0
M  V30 5219 C 491.866 -0.028215 3.60089 0
M  V30 5220 C 491.719 1.35142 4.29018 0
M  V30 5221 C 493.038 -0.735181 4.33916 0
M  V30 5222 H 490.157 0.0200178 0.736728 0
M  V30 5223 H 492.799 0.73493 1.75211 0
M  V30 5224 H 490.949 -0.610648 3.83671 0
M  V30 5225 H 492.621 1.97806 4.16738 0
M  V30 5226 H 490.864 1.9226 3.88868 0
M  V30 5227 H 491.535 1.24857 5.37694 0
M  V30 5228 H 494.011 -0.240519 4.15404 0
M  V30 5229 H 492.887 -0.759622 5.43618 0
M  V30 5230 H 493.148 -1.79397 4.04066 0
M  V30 5231 N 492.207 -1.54576 0.307264 0
M  V30 5232 C 493.618 -1.8579 -0.184121 0
M  V30 5233 C 493.969 -1.22914 -1.52927 0
M  V30 5234 O 493.094 -0.529126 -2.09831 0
M  V30 5235 C 493.689 -3.37081 -0.340862 0
M  V30 5236 C 492.248 -3.68304 -0.776465 0
M  V30 5237 C 491.395 -2.77076 0.111503 0
M  V30 5238 H 494.346 -1.49656 0.528078 0
M  V30 5239 H 494.367 -3.61922 -1.17443 0
M  V30 5240 H 493.879 -3.82815 0.638309 0
M  V30 5241 H 491.98 -3.28092 -1.76596 0
M  V30 5242 H 492.093 -4.75434 -0.591512 0
M  V30 5243 H 490.457 -2.51374 -0.410256 0
M  V30 5244 H 491.24 -3.25632 1.08714 0
M  V30 5245 N 493.685 -0.035106 -1.57561 0
M  V30 5246 C 494.931 0.64318 -1.92331 0
M  V30 5247 C 495.264 1.71434 -0.912368 0
M  V30 5248 O 494.539 1.94395 0.0640303 0
M  V30 5249 C 494.822 1.25411 -3.37556 0
M  V30 5250 C 494.675 0.192109 -4.4939 0
M  V30 5251 C 495.994 2.17041 -3.82859 0
M  V30 5252 H 493.113 0.232341 -0.699419 0
M  V30 5253 H 495.755 -0.0935889 -1.89769 0
M  V30 5254 H 493.905 1.88205 -3.39869 0
M  V30 5255 H 495.577 -0.438849 -4.59208 0
M  V30 5256 H 493.82 -0.481725 -4.31117 0
M  V30 5257 H 494.491 0.659292 -5.48049 0
M  V30 5258 H 496.967 1.64228 -3.8232 0
M  V30 5259 H 495.843 2.56738 -4.85157 0
M  V30 5260 H 496.104 3.06401 -3.18702 0
M  V30 5261 N 495.163 1.55791 0.238111 0
M  V30 5262 C 496.126 1.90239 1.27835 0
M  V30 5263 C 497.126 0.779552 1.4064 0
M  V30 5264 O 498.316 1.04747 1.3919 0
M  V30 5265 C 495.448 2.13859 2.65475 0
M  V30 5266 H 496.641 2.83262 0.985034 0
M  V30 5267 H 494.194 1.48818 0.477799 0
M  V30 5268 H 494.929 1.23334 2.99932 0
M  V30 5269 H 494.714 2.95643 2.57561 0
M  V30 5270 H 496.204 2.41664 3.40571 0
M  V30 5271 N 496.642 -0.504142 1.49319 0
M  V30 5272 C 497.605 -1.5883 1.65244 0
M  V30 5273 C 498.605 -1.52009 0.524386 0
M  V30 5274 O 499.795 -1.55218 0.79077 0
M  V30 5275 C 496.927 -2.98481 1.64687 0
M  V30 5276 H 498.12 -1.4604 2.61939 0
M  V30 5277 H 495.673 -0.728144 1.38303 0
M  V30 5278 H 496.408 -3.16751 0.695644 0
M  V30 5279 H 496.193 -3.0484 2.46607 0
M  V30 5280 H 497.683 -3.77256 1.79075 0
M  V30 5281 N 498.12 -1.38341 -0.754957 0
M  V30 5282 C 499.083 -1.35262 -1.85032 0
M  V30 5283 C 500.083 -0.253393 -1.58791 0
M  V30 5284 O 501.273 -0.510205 -1.66561 0
M  V30 5285 C 498.405 -1.10544 -3.22479 0
M  V30 5286 H 499.598 -2.32712 -1.8917 0
M  V30 5287 H 497.151 -1.23614 -0.956515 0
M  V30 5288 H 497.886 -0.136952 -3.24011 0
M  V30 5289 H 497.671 -1.90127 -3.4292 0
M  V30 5290 H 499.161 -1.11082 -4.02555 0
M  V30 5291 N 499.598 0.982988 -1.23187 0
M  V30 5292 C 500.531 2.07302 -0.953993 0
M  V30 5293 C 501.509 1.62249 0.106753 0
M  V30 5294 O 502.693 1.88481 -0.0269525 0
M  V30 5295 C 499.82 3.35873 -0.436716 0
M  V30 5296 C 498.866 3.99862 -1.48367 0
M  V30 5297 S 499.699 4.39443 -3.06023 0
M  V30 5298 C 500.855 5.7117 -2.55959 0
M  V30 5299 H 501.088 2.30554 -1.87702 0
M  V30 5300 H 498.621 1.11883 -1.06403 0
M  V30 5301 H 500.579 4.10244 -0.144872 0
M  V30 5302 H 499.24 3.10634 0.465351 0
M  V30 5303 H 498.433 4.92471 -1.07182 0
M  V30 5304 H 498.035 3.31857 -1.72473 0
M  V30 5305 H 500.327 6.47977 -1.97818 0
M  V30 5306 H 501.27 6.17194 -3.47098 0
M  V30 5307 H 501.678 5.29046 -1.96902 0
M  V30 5308 N 501.076 1.04316 1.18135 0
M  V30 5309 C 502.316 0.756937 1.89868 0
M  V30 5310 C 502.68 -0.702609 1.78682 0
M  V30 5311 O 503.881 -1.10255 2.45148 0
M  V30 5312 C 502.152 1.21327 3.36176 0
M  V30 5313 S 503.711 1.05307 4.25976 0
M  V30 5314 H 500.529 0.275143 0.655604 0
M  V30 5315 H 503.131 1.33597 1.42731 0
M  V30 5316 H 501.835 2.27086 3.41848 0
M  V30 5317 H 501.366 0.628137 3.88353 0
M  V30 5318 H 503.381 -0.0280093 4.96192 0
M  V30 5319 N 502.554 -1.34406 0.822964 0
M  V30 5320 C 503.8 -1.98578 0.411666 0
M  V30 5321 C 504.133 -1.65093 -1.02264 0
M  V30 5322 O 503.408 -0.92258 -1.71227 0
M  V30 5323 C 503.691 -3.54823 0.614235 0
M  V30 5324 C 503.544 -3.9805 2.09466 0
M  V30 5325 C 504.863 -4.40071 0.050221 0
M  V30 5326 H 501.982 -0.721355 0.151047 0
M  V30 5327 H 504.624 -1.59301 1.03554 0
M  V30 5328 H 502.774 -3.88411 0.0831774 0
M  V30 5329 H 504.446 -3.74795 2.68936 0
M  V30 5330 H 502.689 -3.4836 2.5851 0
M  V30 5331 H 503.36 -5.06819 2.18721 0
M  V30 5332 H 505.836 -4.13037 0.503953 0
M  V30 5333 H 504.712 -5.48452 0.221759 0
M  V30 5334 H 504.973 -4.29576 -1.04482 0
M  V30 5335 N 504.032 -0.577932 -1.46621 0
M  V30 5336 C 504.962 0.145917 -2.33044 0
M  V30 5337 C 505.943 0.888412 -1.45056 0
M  V30 5338 O 507.128 0.864812 -1.73881 0
M  V30 5339 C 504.258 1.16322 -3.27241 0
M  V30 5340 C 503.212 0.535868 -4.24632 0
M  V30 5341 C 502.538 1.65929 -5.08303 0
M  V30 5342 C 503.838 -0.523861 -5.19666 0
M  V30 5343 H 505.532 -0.575636 -2.93814 0
M  V30 5344 H 503.078 -0.278272 -1.41286 0
M  V30 5345 H 505.031 1.67793 -3.86553 0
M  V30 5346 H 503.755 1.91498 -2.64567 0
M  V30 5347 H 502.414 0.0422759 -3.66576 0
M  V30 5348 H 502.062 2.40061 -4.42018 0
M  V30 5349 H 501.762 1.2452 -5.74255 0
M  V30 5350 H 503.286 2.17686 -5.70478 0
M  V30 5351 H 504.7 -0.0944059 -5.73222 0
M  V30 5352 H 503.097 -0.858 -5.93935 0
M  V30 5353 H 504.167 -1.41197 -4.63887 0
M  V30 5354 N 505.51 1.54411 -0.315457 0
M  V30 5355 C 506.457 2.24048 0.554166 0
M  V30 5356 C 507.427 1.2283 1.11812 0
M  V30 5357 O 508.612 1.51491 1.15997 0
M  V30 5358 C 505.752 2.99574 1.71316 0
M  V30 5359 C 504.865 4.15594 1.17922 0
M  V30 5360 C 504 4.78669 2.30324 0
M  V30 5361 C 503.039 5.86807 1.74137 0
M  V30 5362 N 502.176 6.43777 2.8017 0
M  V30 5363 H 507.016 2.97964 -0.0462602 0
M  V30 5364 H 504.553 1.47059 -0.0346009 0
M  V30 5365 H 506.511 3.41604 2.39505 0
M  V30 5366 H 505.141 2.28008 2.285 0
M  V30 5367 H 504.193 3.78404 0.389136 0
M  V30 5368 H 505.505 4.93459 0.728012 0
M  V30 5369 H 504.659 5.23626 3.06433 0
M  V30 5370 H 503.398 4.00168 2.78778 0
M  V30 5371 H 502.403 5.41261 0.965236 0
M  V30 5372 H 503.628 6.67201 1.2657 0
M  V30 5373 H 501.574 5.68153 3.2793 0
M  V30 5374 H 501.491 7.17031 2.39588 0
M  V30 5375 H 502.759 6.9339 3.56132 0
M  V30 5376 N 506.988 0.0434614 1.5754 0
M  V30 5377 C 508.216 -0.641835 1.96693 0
M  V30 5378 C 508.631 -1.64832 0.920652 0
M  V30 5379 O 507.988 -1.82247 -0.095993 0
M  V30 5380 C 508.039 -1.33557 3.35924 0
M  V30 5381 O 507.76 -0.369403 4.3654 0
M  V30 5382 C 509.261 -2.11135 3.89791 0
M  V30 5383 H 506.481 -0.176013 0.647503 0
M  V30 5384 H 509.025 0.107478 2.04217 0
M  V30 5385 H 507.18 -2.03617 3.29574 0
M  V30 5386 H 507.594 -0.863674 5.1734 0
M  V30 5387 H 509.068 -2.55107 4.89514 0
M  V30 5388 H 509.545 -2.95634 3.24803 0
M  V30 5389 H 510.151 -1.46002 3.99454 0
M  V30 5390 N 508.466 -1.55915 -0.229846 0
M  V30 5391 C 509.714 -1.7819 -0.953565 0
M  V30 5392 C 510.035 -0.610504 -1.85197 0
M  V30 5393 O 509.305 0.372988 -1.92316 0
M  V30 5394 H 507.885 -0.657208 -0.355087 0
M  V30 5395 H 510.547 -1.9337 -0.243693 0
M  V30 5396 H 509.643 -2.70011 -1.56527 0
M  V30 5397 N 509.944 0.496216 -1.49584 0
M  V30 5398 C 511.191 1.25003 -1.59312 0
M  V30 5399 C 511.519 1.92445 -0.28198 0
M  V30 5400 O 510.774 1.81557 0.730452 0
M  V30 5401 C 511.073 2.3359 -2.705 0
M  V30 5402 C 510.739 1.83574 -4.11839 0
M  V30 5403 C 509.401 1.69653 -4.50302 0
M  V30 5404 C 511.753 1.46193 -5.00277 0
M  V30 5405 C 509.081 1.16736 -5.74969 0
M  V30 5406 C 511.433 0.947265 -6.25468 0
M  V30 5407 C 510.097 0.794485 -6.62755 0
M  V30 5408 H 509.367 0.45742 -0.582965 0
M  V30 5409 H 512.014 0.549996 -1.83432 0
M  V30 5410 H 510.319 3.09401 -2.40371 0
M  V30 5411 H 512.016 2.91627 -2.75235 0
M  V30 5412 H 508.606 1.9537 -3.81482 0
M  V30 5413 H 512.79 1.55793 -4.71214 0
M  V30 5414 H 508.046 1.03623 -6.02555 0
M  V30 5415 H 512.22 0.648846 -6.93371 0
M  V30 5416 H 509.847 0.382271 -7.59238 0
M  V30 5417 N 511.423 1.38739 0.74761 0
M  V30 5418 C 512.353 1.39173 1.87492 0
M  V30 5419 C 513.334 0.256794 1.6815 0
M  V30 5420 O 514.519 0.460762 1.88655 0
M  V30 5421 C 511.649 1.22197 3.25093 0
M  V30 5422 C 510.603 2.32957 3.59047 0
M  V30 5423 C 509.929 2.01082 4.95449 0
M  V30 5424 C 511.229 3.75237 3.6331 0
M  V30 5425 H 512.923 2.3351 1.87386 0
M  V30 5426 H 510.469 1.12399 0.900134 0
M  V30 5427 H 512.422 1.21124 4.03617 0
M  V30 5428 H 511.146 0.243241 3.25693 0
M  V30 5429 H 509.805 2.33226 2.82845 0
M  V30 5430 H 509.453 1.01678 4.92616 0
M  V30 5431 H 509.153 2.75267 5.19136 0
M  V30 5432 H 510.677 2.01638 5.76346 0
M  V30 5433 H 512.091 3.76966 4.31937 0
M  V30 5434 H 510.488 4.48677 3.98509 0
M  V30 5435 H 511.558 4.07122 2.634 0
M  V30 5436 N 512.901 -0.976442 1.23707 0
M  V30 5437 C 514.148 -1.71827 1.07153 0
M  V30 5438 C 514.476 -1.9053 -0.390982 0
M  V30 5439 O 513.731 -1.45779 -1.30564 0
M  V30 5440 C 514.03 -3.11814 1.74662 0
M  V30 5441 C 513.696 -3.12978 3.24585 0
M  V30 5442 C 512.358 -3.13003 3.6549 0
M  V30 5443 C 514.71 -3.07986 4.20469 0
M  V30 5444 C 512.038 -3.05757 5.00729 0
M  V30 5445 C 514.39 -3.02282 5.55705 0
M  V30 5446 C 513.054 -3.00631 5.95968 0
M  V30 5447 H 512.324 -0.628758 0.392102 0
M  V30 5448 H 514.971 -1.14239 1.53693 0
M  V30 5449 H 513.276 -3.72812 1.20492 0
M  V30 5450 H 514.973 -3.67989 1.59328 0
M  V30 5451 H 511.563 -3.13718 2.92026 0
M  V30 5452 H 515.747 -3.07103 3.89874 0
M  V30 5453 H 511.003 -3.02834 5.31132 0
M  V30 5454 H 515.177 -2.97376 6.29714 0
M  V30 5455 H 512.804 -2.94771 7.00724 0
M  V30 5456 N 514.379 -1.04941 -1.1758 0
M  V30 5457 C 515.625 -0.759112 -1.88057 0
M  V30 5458 C 515.958 0.711918 -1.8068 0
M  V30 5459 O 515.233 1.52035 -1.21308 0
M  V30 5460 C 515.516 -1.237 -3.38187 0
M  V30 5461 C 515.369 -2.77078 -3.54327 0
M  V30 5462 C 516.688 -0.834014 -4.32125 0
M  V30 5463 H 513.807 -0.277237 -0.682868 0
M  V30 5464 H 516.449 -1.30296 -1.38286 0
M  V30 5465 H 514.599 -0.774337 -3.80705 0
M  V30 5466 H 516.271 -3.31449 -3.20842 0
M  V30 5467 H 514.514 -3.16477 -2.96689 0
M  V30 5468 H 515.185 -3.05577 -4.59703 0
M  V30 5469 H 517.661 -1.23228 -3.97434 0
M  V30 5470 H 516.537 -1.19603 -5.35711 0
M  V30 5471 H 516.798 0.262195 -4.41322 0
M  V30 5472 N 515.857 1.33968 -0.830081 0
M  V30 5473 C 516.82 2.27694 -0.26235 0
M  V30 5474 C 517.82 1.50589 0.563876 0
M  V30 5475 O 519.01 1.70028 0.378941 0
M  V30 5476 C 516.142 3.35002 0.63138 0
M  V30 5477 H 517.335 2.79419 -1.08928 0
M  V30 5478 H 514.888 1.44221 -0.602486 0
M  V30 5479 H 515.623 2.88504 1.48109 0
M  V30 5480 H 515.408 3.92079 0.0403276 0
M  V30 5481 H 516.898 4.04897 1.02217 0
M  V30 5482 N 517.335 0.585699 1.46312 0
M  V30 5483 C 518.56 0.0762461 2.0726 0
M  V30 5484 C 518.985 -1.22071 1.43109 0
M  V30 5485 O 518.343 -1.73804 0.515942 0
M  V30 5486 C 518.391 -0.0729404 3.60526 0
M  V30 5487 O 517.495 -1.1287 3.96654 0
M  V30 5488 H 516.836 0.0641558 0.660893 0
M  V30 5489 H 519.366 0.809492 1.87905 0
M  V30 5490 H 519.376 -0.278158 4.07051 0
M  V30 5491 H 518.051 0.874188 4.06609 0
M  V30 5492 H 516.628 -0.901703 3.61834 0
M  V30 5493 N 518.813 -1.54241 0.323641 0
M  V30 5494 C 519.723 -2.28033 -0.551205 0
M  V30 5495 C 520.739 -1.32388 -1.12913 0
M  V30 5496 O 521.915 -1.65403 -1.14908 0
M  V30 5497 C 518.98 -3.02382 -1.69606 0
M  V30 5498 C 518.041 -4.13612 -1.14993 0
M  V30 5499 C 517.274 -4.84407 -2.24022 0
M  V30 5500 O 517.497 -4.54716 -3.44368 0
M  V30 5501 O 516.431 -5.71312 -1.89436 0
M  V30 5502 H 520.257 -3.03662 0.048066 0
M  V30 5503 H 517.842 -1.49133 0.0893289 0
M  V30 5504 H 519.724 -3.48941 -2.36259 0
M  V30 5505 H 518.399 -2.29628 -2.28151 0
M  V30 5506 H 517.306 -3.71402 -0.448484 0
M  V30 5507 H 518.639 -4.8841 -0.609608 0
M  V30 5508 N 520.291 -0.0518155 -1.57515 0
M  V30 5509 C 521.538 0.621823 -1.92716 0
M  V30 5510 C 521.866 1.70813 -0.930229 0
M  V30 5511 O 521.121 1.95616 0.0573708 0
M  V30 5512 C 521.42 1.25607 -3.34601 0
M  V30 5513 C 521.086 0.297901 -4.49915 0
M  V30 5514 C 519.748 0.034243 -4.81188 0
M  V30 5515 C 522.1 -0.358738 -5.19964 0
M  V30 5516 C 519.428 -0.893479 -5.79857 0
M  V30 5517 C 521.78 -1.27466 -6.19625 0
M  V30 5518 C 520.444 -1.54698 -6.49326 0
M  V30 5519 H 519.714 0.227541 -0.705199 0
M  V30 5520 H 522.361 -0.118432 -1.91133 0
M  V30 5521 H 520.666 2.07161 -3.32553 0
M  V30 5522 H 522.363 1.78424 -3.59118 0
M  V30 5523 H 518.953 0.513581 -4.25512 0
M  V30 5524 H 523.137 -0.168133 -4.96015 0
M  V30 5525 H 518.393 -1.11193 -6.01204 0
M  V30 5526 H 522.567 -1.78953 -6.73015 0
M  V30 5527 H 520.194 -2.26748 -7.25596 0
M  V30 5528 N 521.769 1.56035 0.221574 0
M  V30 5529 C 523.017 1.78693 0.944102 0
M  V30 5530 C 523.338 0.620317 1.8487 0
M  V30 5531 O 522.608 -0.362784 1.92512 0
M  V30 5532 H 521.188 0.659082 0.351597 0
M  V30 5533 H 523.85 1.93497 0.233435 0
M  V30 5534 H 522.946 2.70837 1.55093 0
M  V30 5535 N 523.247 -0.488276 1.49845 0
M  V30 5536 C 524.195 -1.60917 1.67954 0
M  V30 5537 C 525.189 -1.6038 0.54539 0
M  V30 5538 O 526.395 -1.64736 0.7254 0
M  V30 5539 H 522.77 -0.533658 0.529824 0
M  V30 5540 H 524.741 -1.428 2.62013 0
M  V30 5541 C 523.49 -2.98975 1.77509 0
M  V30 5542 H 522.813 -3.00099 2.6416 0
M  V30 5543 H 524.253 -3.76906 1.9421 0
M  V30 5544 C 522.712 -3.3282 0.522745 0
M  V30 5545 O 523.242 -4.00208 -0.345866 0
M  V30 5546 N 521.448 -2.8808 0.381882 0
M  V30 5547 H 520.995 -2.33415 1.08974 0
M  V30 5548 H 520.953 -3.11091 -0.454929 0
M  V30 5549 N 524.725 -1.39134 -0.740242 0
M  V30 5550 C 525.675 -1.33928 -1.84519 0
M  V30 5551 C 526.659 -0.221097 -1.59374 0
M  V30 5552 O 527.851 -0.458195 -1.70967 0
M  V30 5553 C 524.98 -1.17991 -3.22387 0
M  V30 5554 C 524.066 -2.34488 -3.53378 0
M  V30 5555 N 524.457 -3.59954 -3.5534 0
M  V30 5556 C 522.755 -2.27331 -3.83714 0
M  V30 5557 C 523.456 -4.36962 -3.83978 0
M  V30 5558 N 522.432 -3.66482 -4.01487 0
M  V30 5559 H 526.234 -2.28907 -1.84333 0
M  V30 5560 H 523.748 -1.32555 -0.938237 0
M  V30 5561 H 525.745 -1.12345 -4.01478 0
M  V30 5562 H 524.405 -0.23957 -3.23815 0
M  V30 5563 H 525.416 -3.93448 -3.36778 0
M  V30 5564 H 522.093 -1.41531 -3.92779 0
M  V30 5565 H 523.483 -5.45692 -3.92008 0
M  V30 5566 N 526.204 0.969867 -1.24223 0
M  V30 5567 C 527.434 1.74502 -1.106 0
M  V30 5568 C 527.842 1.86038 0.344483 0
M  V30 5569 O 527.185 1.3465 1.24961 0
M  V30 5570 C 527.247 3.18391 -1.66935 0
M  V30 5571 C 526.911 3.30334 -3.15798 0
M  V30 5572 C 527.908 3.15832 -4.12973 0
M  V30 5573 C 525.593 3.54644 -3.55715 0
M  V30 5574 C 527.587 3.25461 -5.48045 0
M  V30 5575 C 525.274 3.63912 -4.90929 0
M  V30 5576 C 526.272 3.49332 -5.86904 0
M  V30 5577 O 525.96 3.58251 -7.1966 0
M  V30 5578 H 525.692 0.554119 -0.387206 0
M  V30 5579 H 528.246 1.22646 -1.64764 0
M  V30 5580 H 526.476 3.71543 -1.07203 0
M  V30 5581 H 528.165 3.77707 -1.48634 0
M  V30 5582 H 528.931 2.96937 -3.83476 0
M  V30 5583 H 524.81 3.65059 -2.81519 0
M  V30 5584 H 528.354 3.13998 -6.22937 0
M  V30 5585 H 524.251 3.82319 -5.20098 0
M  V30 5586 H 525.019 3.7498 -7.27552 0
M  V30 5587 N 527.682 1.05563 1.17022 0
M  V30 5588 C 528.612 0.681026 2.23348 0
M  V30 5589 C 529.593 -0.322983 1.67005 0
M  V30 5590 O 530.778 -0.199746 1.9317 0
M  V30 5591 C 527.908 0.0589053 3.4725 0
M  V30 5592 C 526.862 0.988082 4.16438 0
M  V30 5593 C 526.188 0.229646 5.34207 0
M  V30 5594 C 527.488 2.31388 4.68249 0
M  V30 5595 H 529.182 1.56993 2.54938 0
M  V30 5596 H 526.728 0.756302 1.2254 0
M  V30 5597 H 528.681 -0.214982 4.20851 0
M  V30 5598 H 527.405 -0.864968 3.14938 0
M  V30 5599 H 526.064 1.24659 3.44754 0
M  V30 5600 H 525.712 -0.697111 4.98146 0
M  V30 5601 H 525.412 0.848815 5.81437 0
M  V30 5602 H 526.936 -0.0368694 6.10589 0
M  V30 5603 H 528.35 2.09964 5.33468 0
M  V30 5604 H 526.747 2.88736 5.26072 0
M  V30 5605 H 527.817 2.94982 3.84855 0
M  V30 5606 N 529.16 -1.33526 0.837174 0
M  V30 5607 C 530.39 -2.01754 0.444848 0
M  V30 5608 C 530.798 -1.63149 -0.958072 0
M  V30 5609 O 530.141 -0.839827 -1.63379 0
M  V30 5610 C 530.203 -3.56228 0.483917 0
M  V30 5611 C 529.867 -4.18205 1.84265 0
M  V30 5612 C 530.864 -4.37699 2.80563 0
M  V30 5613 C 528.549 -4.54667 2.13503 0
M  V30 5614 C 530.543 -4.928 4.04261 0
M  V30 5615 C 528.23 -5.09475 3.37458 0
M  V30 5616 C 529.228 -5.28488 4.32654 0
M  V30 5617 O 528.916 -5.82132 5.54417 0
M  V30 5618 H 528.648 -0.652928 0.175104 0
M  V30 5619 H 531.202 -1.71469 1.13082 0
M  V30 5620 H 529.432 -3.85833 -0.258826 0
M  V30 5621 H 531.121 -4.05752 0.109653 0
M  V30 5622 H 531.887 -4.0988 2.59274 0
M  V30 5623 H 527.766 -4.39164 1.40201 0
M  V30 5624 H 531.31 -5.07555 4.78574 0
M  V30 5625 H 527.207 -5.36725 3.58604 0
M  V30 5626 H 527.975 -6.00548 5.56133 0
M  V30 5627 N 530.638 -0.59345 -1.46 0
M  V30 5628 C 531.57 0.171569 -2.28557 0
M  V30 5629 C 532.583 0.845273 -1.39137 0
M  V30 5630 O 533.772 0.713033 -1.6364 0
M  V30 5631 C 530.872 1.26311 -3.14482 0
M  V30 5632 C 530.045 0.679258 -4.32094 0
M  V30 5633 C 529.104 1.65987 -4.99334 0
M  V30 5634 O 528.13 1.19171 -5.56585 0
M  V30 5635 N 529.332 2.99414 -4.97324 0
M  V30 5636 H 532.097 -0.536771 -2.94854 0
M  V30 5637 H 529.658 -0.431954 -1.56031 0
M  V30 5638 H 531.65 1.91863 -3.5633 0
M  V30 5639 H 530.22 1.87416 -2.50188 0
M  V30 5640 H 529.44 -0.153992 -3.93899 0
M  V30 5641 H 530.728 0.26916 -5.08088 0
M  V30 5642 H 530.126 3.40064 -4.52076 0
M  V30 5643 H 528.683 3.60426 -5.4308 0
M  V30 5644 N 532.116 1.54067 -0.331816 0
M  V30 5645 C 533.365 1.99895 0.269209 0
M  V30 5646 C 533.678 1.22371 1.52593 0
M  V30 5647 O 534.884 1.58618 2.20347 0
M  V30 5648 C 533.34 3.55972 0.530244 0
M  V30 5649 C 532.948 4.4234 -0.709901 0
M  V30 5650 C 534.692 4.10247 1.09077 0
M  V30 5651 C 532.599 5.89905 -0.420312 0
M  V30 5652 H 531.529 0.746741 0.104371 0
M  V30 5653 H 534.18 1.78014 -0.445324 0
M  V30 5654 H 532.562 3.73873 1.30518 0
M  V30 5655 H 533.736 4.36215 -1.48504 0
M  V30 5656 H 532.051 3.98997 -1.19123 0
M  V30 5657 H 534.648 5.18095 1.32219 0
M  V30 5658 H 534.991 3.62739 2.0427 0
M  V30 5659 H 535.524 3.96011 0.376824 0
M  V30 5660 H 532.263 6.41623 -1.34164 0
M  V30 5661 H 531.783 5.98962 0.316962 0
M  V30 5662 H 533.462 6.46991 -0.0331956 0
M  V30 5663 N 533.594 0.0601682 1.57485 0
M  V30 5664 C 534.557 -0.896373 2.10945 0
M  V30 5665 C 535.557 -1.23402 1.03095 0
M  V30 5666 O 536.747 -1.16921 1.29132 0
M  V30 5667 C 533.879 -2.20346 2.60116 0
M  V30 5668 H 535.072 -0.432778 2.96761 0
M  V30 5669 H 532.625 -0.188372 1.55161 0
M  V30 5670 H 533.36 -2.71268 1.7772 0
M  V30 5671 H 533.145 -1.9714 3.38937 0
M  V30 5672 H 534.635 -2.88846 3.01592 0
M  V30 5673 N 535.072 -1.5615 -0.213296 0
M  V30 5674 C 536.022 -1.89485 -1.26804 0
M  V30 5675 C 537.006 -0.758713 -1.41889 0
M  V30 5676 O 538.198 -1.02127 -1.44565 0
M  V30 5677 C 535.327 -2.22219 -2.61675 0
M  V30 5678 C 534.413 -3.42245 -2.50458 0
M  V30 5679 N 534.804 -4.60645 -2.089 0
M  V30 5680 C 533.102 -3.46023 -2.81397 0
M  V30 5681 C 533.803 -5.42805 -2.09135 0
M  V30 5682 N 532.779 -4.82732 -2.49941 0
M  V30 5683 H 536.581 -2.78537 -0.937771 0
M  V30 5684 H 534.095 -1.56826 -0.421824 0
M  V30 5685 H 536.092 -2.44278 -3.37837 0
M  V30 5686 H 534.752 -1.34484 -2.95541 0
M  V30 5687 H 535.763 -4.85651 -1.79899 0
M  V30 5688 H 532.44 -2.68654 -3.1958 0
M  V30 5689 H 533.83 -6.47601 -1.79059 0
M  V30 5690 N 536.55 0.480323 -1.50102 0
M  V30 5691 C 537.48 1.58769 -1.71215 0
M  V30 5692 C 538.461 1.60583 -0.560997 0
M  V30 5693 O 539.646 1.76996 -0.799127 0
M  V30 5694 C 536.776 2.97148 -1.79778 0
M  V30 5695 C 535.73 3.10201 -2.94888 0
M  V30 5696 C 535.056 4.50137 -2.88584 0
M  V30 5697 C 536.356 2.88283 -4.35534 0
M  V30 5698 H 538.05 1.41354 -2.6393 0
M  V30 5699 H 535.596 0.678591 -1.27008 0
M  V30 5700 H 537.549 3.74536 -1.93133 0
M  V30 5701 H 536.273 3.15699 -0.836772 0
M  V30 5702 H 534.932 2.35244 -2.81169 0
M  V30 5703 H 534.58 4.65593 -1.90349 0
M  V30 5704 H 534.28 4.59808 -3.65856 0
M  V30 5705 H 535.804 5.29558 -3.03976 0
M  V30 5706 H 537.218 3.55427 -4.49827 0
M  V30 5707 H 535.615 3.09408 -5.14186 0
M  V30 5708 H 536.685 1.84219 -4.48544 0
M  V30 5709 N 538.028 1.39524 0.732853 0
M  V30 5710 C 539.276 1.36594 1.48951 0
M  V30 5711 C 539.597 -0.0367507 1.94965 0
M  V30 5712 O 538.867 -0.988391 1.69138 0
M  V30 5713 H 537.447 0.502673 0.552566 0
M  V30 5714 H 540.109 1.74411 0.869869 0
M  V30 5715 H 539.205 2.03 2.3706 0
M  V30 5716 N 539.506 -0.963266 1.24736 0
M  V30 5717 C 540.783 -1.68248 0.9976 0
M  V30 5718 C 541.163 -2.05599 -0.478776 0
M  V30 5719 O 540.511 -1.7626 -1.45412 0
M  V30 5720 C 540.721 -2.91118 1.92487 0
M  V30 5721 C 542.069 -3.63261 2.19833 0
M  V30 5722 O 543.093 -3.01184 1.90176 0
M  V30 5723 O 541.952 -4.75019 2.7022 0
M  V30 5724 H 539.046 -0.735744 0.377637 0
M  V30 5725 H 541.592 -1.01696 1.35853 0
M  V30 5726 H 540.364 -2.60242 2.92215 0
M  V30 5727 H 539.987 -3.65402 1.56738 0
M  V30 5728 N 540.985 -1.06182 -1.16461 0
M  V30 5729 C 542.262 -0.691364 -1.82974 0
M  V30 5730 C 542.642 0.827377 -1.9421 0
M  V30 5731 O 541.99 1.73723 -1.48434 0
M  V30 5732 C 542.2 -1.39199 -3.20038 0
M  V30 5733 C 543.548 -1.53647 -3.95825 0
M  V30 5734 O 544.572 -1.35181 -3.29552 0
M  V30 5735 O 543.431 -1.83932 -5.14618 0
M  V30 5736 H 540.525 -0.244605 -0.789998 0
M  V30 5737 H 543.071 -1.16203 -1.23673 0
M  V30 5738 H 541.843 -2.42766 -3.06888 0
M  V30 5739 H 541.466 -0.911335 -3.87015 0
M  V30 5740 N 542.463 1.3308 -0.844243 0
M  V30 5741 C 543.74 1.92178 -0.364261 0
M  V30 5742 C 544.12 1.76961 1.15101 0
M  V30 5743 O 543.468 1.16128 1.9679 0
M  V30 5744 C 543.678 3.393 -0.817106 0
M  V30 5745 C 545.026 4.16444 -0.828236 0
M  V30 5746 O 546.05 3.47975 -0.761062 0
M  V30 5747 O 544.909 5.38685 -0.920926 0
M  V30 5748 H 542.003 0.820411 -0.10419 0
M  V30 5749 H 544.549 1.41918 -0.930453 0
M  V30 5750 H 543.321 3.44272 -1.85991 0
M  V30 5751 H 542.944 3.96947 -0.227785 0
M  V30 5752 N 543.941 0.601185 1.45683 0
M  V30 5753 C 544.851 -0.123395 2.34275 0
M  V30 5754 C 545.867 -0.86702 1.5086 0
M  V30 5755 O 547.043 -0.826049 1.8368 0
M  V30 5756 C 544.108 -1.11237 3.2837 0
M  V30 5757 C 543.169 -0.371405 4.2769 0
M  V30 5758 C 542.402 -1.31327 5.1729 0
M  V30 5759 O 542.625 -2.55078 5.10188 0
M  V30 5760 O 541.559 -0.813811 5.96373 0
M  V30 5761 H 545.385 0.604483 2.97623 0
M  V30 5762 H 542.97 0.361477 1.44961 0
M  V30 5763 H 544.852 -1.68214 3.8637 0
M  V30 5764 H 543.527 -1.82139 2.67595 0
M  V30 5765 H 542.434 0.24067 3.73325 0
M  V30 5766 H 543.767 0.296998 4.91303 0
M  V30 5767 N 545.419 -1.53889 0.339982 0
M  V30 5768 C 546.329 -2.28604 -0.526988 0
M  V30 5769 C 547.345 -1.33578 -1.11503 0
M  V30 5770 O 548.521 -1.66612 -1.13148 0
M  V30 5771 C 545.586 -3.04164 -1.66389 0
M  V30 5772 C 544.647 -4.14809 -1.10599 0
M  V30 5773 C 543.88 -4.86756 -2.18871 0
M  V30 5774 O 544.103 -4.58343 -3.39526 0
M  V30 5775 O 543.037 -5.73289 -1.83366 0
M  V30 5776 H 546.863 -3.03594 0.0802707 0
M  V30 5777 H 544.448 -1.4903 0.105141 0
M  V30 5778 H 546.33 -3.51427 -2.32544 0
M  V30 5779 H 545.005 -2.32035 -2.25703 0
M  V30 5780 H 543.912 -3.71857 -0.409067 0
M  V30 5781 H 545.245 -4.89029 -0.557771 0
M  V30 5782 N 546.897 -0.0685191 -1.57451 0
M  V30 5783 C 548.308 0.464634 -1.80826 0
M  V30 5784 C 548.659 1.69847 -0.982169 0
M  V30 5785 O 547.784 2.15439 -0.203734 0
M  V30 5786 C 548.379 0.849721 -3.27971 0
M  V30 5787 C 546.938 1.32776 -3.52204 0
M  V30 5788 C 546.085 0.311332 -2.75547 0
M  V30 5789 H 549.036 -0.294248 -1.55948 0
M  V30 5790 H 549.057 1.71138 -3.39841 0
M  V30 5791 H 548.569 -0.0484736 -3.8807 0
M  V30 5792 H 546.67 2.24456 -2.97406 0
M  V30 5793 H 546.783 1.30794 -4.60901 0
M  V30 5794 H 545.147 0.787915 -2.42206 0
M  V30 5795 H 545.93 -0.579078 -3.38381 0
M  V30 5796 N 548.375 1.56261 0.205012 0
M  V30 5797 C 549.285 1.96944 1.27476 0
M  V30 5798 C 550.301 0.875636 1.50362 0
M  V30 5799 O 551.477 1.18058 1.6317 0
M  V30 5800 C 548.542 2.29219 2.60115 0
M  V30 5801 C 547.603 3.52255 2.45387 0
M  V30 5802 C 546.836 3.8298 3.71701 0
M  V30 5803 O 547.059 3.15138 4.75441 0
M  V30 5804 O 545.993 4.76435 3.67823 0
M  V30 5805 H 549.819 2.88144 0.959527 0
M  V30 5806 H 547.404 1.43686 0.409217 0
M  V30 5807 H 549.286 2.51098 3.3842 0
M  V30 5808 H 547.961 1.4119 2.91285 0
M  V30 5809 H 546.868 3.35635 1.65227 0
M  V30 5810 H 548.201 4.40719 2.19152 0
M  V30 5811 N 549.853 -0.472356 1.50355 0
M  V30 5812 C 551.1 -1.22453 1.61281 0
M  V30 5813 C 551.428 -1.91972 0.31256 0
M  V30 5814 O 550.683 -1.82696 -0.701475 0
M  V30 5815 C 550.982 -2.29257 2.74182 0
M  V30 5816 C 550.648 -1.76999 4.14708 0
M  V30 5817 C 549.31 -1.62467 4.52944 0
M  V30 5818 C 551.662 -1.38215 5.0254 0
M  V30 5819 C 548.99 -1.07574 5.76754 0
M  V30 5820 C 551.342 -0.847638 6.26895 0
M  V30 5821 C 550.006 -0.688946 6.63935 0
M  V30 5822 H 549.276 -0.448087 0.590168 0
M  V30 5823 H 551.923 -0.520744 1.84284 0
M  V30 5824 H 550.228 -3.05538 2.45263 0
M  V30 5825 H 551.925 -2.87212 2.7984 0
M  V30 5826 H 548.515 -1.89276 3.84542 0
M  V30 5827 H 552.699 -1.48276 4.73633 0
M  V30 5828 H 547.955 -0.940237 6.04127 0
M  V30 5829 H 552.129 -0.538455 6.94315 0
M  V30 5830 H 549.756 -0.261435 7.5975 0
M  V30 5831 N 551.331 -1.39911 -0.725443 0
M  V30 5832 C 552.556 -1.41137 -1.5197 0
M  V30 5833 C 552.981 -0.010262 -1.88097 0
M  V30 5834 O 552.339 0.979184 -1.52583 0
M  V30 5835 C 552.387 -2.2994 -2.77777 0
M  V30 5836 O 551.491 -1.73586 -3.74088 0
M  V30 5837 H 550.832 -0.480219 -0.458569 0
M  V30 5838 H 553.362 -1.84023 -0.894249 0
M  V30 5839 H 553.372 -2.44785 -3.26411 0
M  V30 5840 H 552.047 -3.31759 -2.50816 0
M  V30 5841 H 550.624 -1.68035 -3.32894 0
M  V30 5842 N 552.809 0.956637 -1.25245 0
M  V30 5843 C 554.034 1.74104 -1.12706 0
M  V30 5844 C 554.459 1.85436 0.315429 0
M  V30 5845 O 553.817 1.33334 1.22848 0
M  V30 5846 C 553.865 3.1338 -1.78396 0
M  V30 5847 O 552.969 3.98485 -1.06224 0
M  V30 5848 H 552.31 0.53476 -0.393609 0
M  V30 5849 H 554.84 1.19924 -1.65769 0
M  V30 5850 H 554.85 3.6385 -1.846 0
M  V30 5851 H 553.525 3.04448 -2.83345 0
M  V30 5852 H 552.102 3.56952 -1.07886 0
M  V30 5853 N 554.287 1.06798 1.15896 0
M  V30 5854 C 555.25 0.687328 2.18651 0
M  V30 5855 C 556.25 -0.269559 1.58524 0
M  V30 5856 O 557.44 -0.0512627 1.74125 0
M  V30 5857 C 554.572 0.0121642 3.40898 0
M  V30 5858 H 555.765 1.59701 2.53842 0
M  V30 5859 H 553.318 0.863828 1.3026 0
M  V30 5860 H 554.053 -0.910025 3.1127 0
M  V30 5861 H 553.838 0.700309 3.85795 0
M  V30 5862 H 555.328 -0.239703 4.16911 0
M  V30 5863 N 555.766 -1.3263 0.851289 0
M  V30 5864 C 556.699 -2.26952 0.238318 0
M  V30 5865 C 557.677 -1.50243 -0.621757 0
M  V30 5866 O 558.861 -1.79378 -0.579298 0
M  V30 5867 C 555.988 -3.32124 -0.664178 0
M  V30 5868 C 555.034 -4.26325 0.122067 0
M  V30 5869 S 555.867 -5.14404 1.48824 0
M  V30 5870 C 557.023 -6.231 0.591372 0
M  V30 5871 H 557.256 -2.78594 1.03791 0
M  V30 5872 H 554.789 -1.4011 0.648731 0
M  V30 5873 H 556.747 -3.93197 -1.17924 0
M  V30 5874 H 555.408 -2.79273 -1.43755 0
M  V30 5875 H 554.601 -5.00821 -0.565181 0
M  V30 5876 H 554.203 -3.69652 0.568602 0
M  V30 5877 H 556.495 -6.77187 -0.205762 0
M  V30 5878 H 557.438 -6.95936 1.30687 0
M  V30 5879 H 557.846 -5.64252 0.167206 0
M  V30 5880 N 557.244 -0.608902 -1.45362 0
M  V30 5881 C 558.655 -0.189511 -1.85736 0
M  V30 5882 C 559.006 1.2539 -1.50903 0
M  V30 5883 O 558.131 1.95094 -0.936347 0
M  V30 5884 C 558.726 -0.33716 -3.37118 0
M  V30 5885 C 557.285 0.0275487 -3.7639 0
M  V30 5886 C 556.432 -0.660983 -2.69307 0
M  V30 5887 H 559.383 -0.815499 -1.36144 0
M  V30 5888 H 559.404 0.430257 -3.7806 0
M  V30 5889 H 558.916 -1.38779 -3.62439 0
M  V30 5890 H 557.017 1.0773 -3.56686 0
M  V30 5891 H 557.13 -0.367018 -4.77692 0
M  V30 5892 H 555.494 -0.0984958 -2.54509 0
M  V30 5893 H 556.277 -1.71377 -2.97464 0
M  V30 5894 N 558.722 1.53707 -0.348139 0
M  V30 5895 C 559.652 2.28111 0.498766 0
M  V30 5896 C 560.633 1.29851 1.09876 0
M  V30 5897 O 561.818 1.587 1.11928 0
M  V30 5898 C 558.948 3.05735 1.64753 0
M  V30 5899 C 557.902 4.11537 1.17565 0
M  V30 5900 C 557.228 4.77142 2.4133 0
M  V30 5901 C 558.528 5.21587 0.272844 0
M  V30 5902 H 560.222 2.99152 -0.121934 0
M  V30 5903 H 557.768 1.43875 -0.0600842 0
M  V30 5904 H 559.721 3.56526 2.24649 0
M  V30 5905 H 558.445 2.32354 2.2952 0
M  V30 5906 H 557.104 3.61665 0.599483 0
M  V30 5907 H 556.752 4.0035 3.04514 0
M  V30 5908 H 556.452 5.48626 2.10436 0
M  V30 5909 H 557.976 5.30719 3.01943 0
M  V30 5910 H 559.39 5.67986 0.778779 0
M  V30 5911 H 557.787 6.00074 0.0555849 0
M  V30 5912 H 558.857 4.79969 -0.689785 0
M  V30 5913 N 560.2 0.0768682 1.57412 0
M  V30 5914 C 561.11 -0.903207 2.16516 0
M  V30 5915 C 562.126 -1.32341 1.12968 0
M  V30 5916 O 563.302 -1.39507 1.45258 0
M  V30 5917 C 560.367 -2.1508 2.71922 0
M  V30 5918 C 559.428 -1.78653 3.90361 0
M  V30 5919 C 558.661 -2.97465 4.43114 0
M  V30 5920 O 558.884 -4.11638 3.94854 0
M  V30 5921 O 557.818 -2.76987 5.3438 0
M  V30 5922 H 561.644 -0.430427 3.00634 0
M  V30 5923 H 559.229 -0.146485 1.4868 0
M  V30 5924 H 561.111 -2.8823 3.07411 0
M  V30 5925 H 559.786 -2.61446 1.9086 0
M  V30 5926 H 558.693 -1.0274 3.59716 0
M  V30 5927 H 560.026 -1.37066 4.7273 0
M  V30 5928 N 561.678 -1.56367 -0.196722 0
M  V30 5929 C 562.588 -1.97617 -1.2643 0
M  V30 5930 C 563.604 -0.883598 -1.49895 0
M  V30 5931 O 564.78 -1.18921 -1.62541 0
M  V30 5932 C 561.845 -2.30595 -2.58895 0
M  V30 5933 C 560.906 -3.53551 -2.43516 0
M  V30 5934 C 560.139 -3.84946 -3.69665 0
M  V30 5935 O 560.362 -3.17655 -4.73763 0
M  V30 5936 O 559.296 -4.78379 -3.65291 0
M  V30 5937 H 563.122 -2.88648 -0.944233 0
M  V30 5938 H 560.707 -1.43901 -0.401592 0
M  V30 5939 H 562.589 -2.52889 -3.37083 0
M  V30 5940 H 561.264 -1.42732 -2.90533 0
M  V30 5941 H 560.171 -3.36507 -1.63445 0
M  V30 5942 H 561.504 -4.41875 -2.16812 0
M  V30 5943 N 563.156 0.464375 -1.50603 0
M  V30 5944 C 564.404 1.21356 -1.61608 0
M  V30 5945 C 564.725 1.92329 -0.321643 0
M  V30 5946 O 563.995 1.84403 0.661232 0
M  V30 5947 H 562.575 0.45094 -0.595535 0
M  V30 5948 H 565.237 0.535046 -1.87412 0
M  V30 5949 H 564.333 1.95783 -2.43054 0
M  V30 5950 N 564.634 1.40294 0.718013 0
M  V30 5951 C 565.911 1.2894 1.47084 0
M  V30 5952 C 566.291 -0.0933625 2.10893 0
M  V30 5953 O 565.639 -1.10598 1.99951 0
M  V30 5954 C 565.849 2.4264 2.50852 0
M  V30 5955 C 567.197 2.8276 3.16752 0
M  V30 5956 O 568.221 2.42215 2.61171 0
M  V30 5957 O 567.08 3.528 4.17366 0
M  V30 5958 H 564.174 0.506236 0.653952 0
M  V30 5959 H 566.72 1.52208 0.750394 0
M  V30 5960 H 565.492 3.35009 2.022 0
M  V30 5961 H 565.115 2.21129 3.30435 0
M  V30 5962 N 566.112 -0.949982 1.2575 0
M  V30 5963 C 567.34 -1.72972 1.13527 0
M  V30 5964 C 567.755 -1.8623 -0.310453 0
M  V30 5965 O 567.112 -1.36336 -1.2132 0
M  V30 5966 C 567.163 -3.14108 1.78936 0
M  V30 5967 O 566.884 -3.01493 3.17858 0
M  V30 5968 C 568.385 -4.08338 1.72554 0
M  V30 5969 H 565.605 -0.541864 0.395758 0
M  V30 5970 H 568.149 -1.19151 1.66202 0
M  V30 5971 H 566.304 -3.64858 1.30221 0
M  V30 5972 H 566.718 -3.90559 3.50092 0
M  V30 5973 H 568.192 -5.04963 2.22973 0
M  V30 5974 H 568.669 -4.33742 0.690251 0
M  V30 5975 H 569.275 -3.63506 2.2078 0
M  V30 5976 N 567.59 -1.07411 -1.15328 0
M  V30 5977 C 568.837 -0.797649 -1.86128 0
M  V30 5978 C 569.165 0.676298 -1.82364 0
M  V30 5979 O 568.42 1.51223 -1.24218 0
M  V30 5980 C 568.719 -1.25191 -3.34757 0
M  V30 5981 C 568.385 -2.73191 -3.58716 0
M  V30 5982 C 567.047 -3.13616 -3.64964 0
M  V30 5983 C 569.399 -3.68718 -3.6837 0
M  V30 5984 C 566.727 -4.48383 -3.78377 0
M  V30 5985 C 569.079 -5.03248 -3.83306 0
M  V30 5986 C 567.743 -5.43293 -3.878 0
M  V30 5987 H 567.013 -0.29188 -0.681092 0
M  V30 5988 H 569.66 -1.34524 -1.36292 0
M  V30 5989 H 567.965 -0.623712 -3.86804 0
M  V30 5990 H 569.662 -1.01489 -3.87945 0
M  V30 5991 H 566.252 -2.40898 -3.54494 0
M  V30 5992 H 570.436 -3.38614 -3.62842 0
M  V30 5993 H 565.692 -4.78877 -3.80114 0
M  V30 5994 H 569.866 -5.77142 -3.89718 0
M  V30 5995 H 567.493 -6.47721 -3.97946 0
M  V30 5996 N 569.068 1.32177 -0.85831 0
M  V30 5997 C 570.315 1.97125 -0.463484 0
M  V30 5998 C 570.643 1.67907 0.981705 0
M  V30 5999 O 569.898 0.961717 1.70439 0
M  V30 6000 C 570.197 3.51372 -0.653658 0
M  V30 6001 C 569.863 4.00584 -2.06987 0
M  V30 6002 C 568.525 4.13733 -2.4572 0
M  V30 6003 C 570.877 4.26624 -2.99402 0
M  V30 6004 C 568.205 4.50268 -3.76132 0
M  V30 6005 C 570.557 4.64618 -4.29316 0
M  V30 6006 C 569.221 4.75975 -4.67979 0
M  V30 6007 H 568.491 0.72133 -0.169601 0
M  V30 6008 H 571.138 1.57517 -1.08907 0
M  V30 6009 H 569.443 3.91761 0.0551328 0
M  V30 6010 H 571.14 3.99655 -0.328163 0
M  V30 6011 H 567.73 3.90837 -1.75911 0
M  V30 6012 H 571.914 4.1597 -2.70708 0
M  V30 6013 H 567.17 4.57256 -4.05865 0
M  V30 6014 H 571.344 4.83722 -5.00985 0
M  V30 6015 H 568.971 5.04041 -5.69076 0
M  V30 6016 N 570.547 0.616602 1.45037 0
M  V30 6017 C 571.794 0.115331 2.02171 0
M  V30 6018 C 572.122 -1.25748 1.48383 0
M  V30 6019 O 571.377 -1.84511 0.652229 0
M  V30 6020 C 571.676 0.0356829 3.57382 0
M  V30 6021 C 571.342 1.34535 4.30362 0
M  V30 6022 C 570.004 1.70408 4.50016 0
M  V30 6023 C 572.356 2.21049 4.72003 0
M  V30 6024 C 569.684 2.92529 5.0857 0
M  V30 6025 C 572.036 3.42427 5.31908 0
M  V30 6026 C 570.7 3.78541 5.49784 0
M  V30 6027 H 569.97 0.0422024 0.739797 0
M  V30 6028 H 572.617 0.80002 1.73988 0
M  V30 6029 H 570.922 -0.732314 3.84895 0
M  V30 6030 H 572.619 -0.368463 3.99304 0
M  V30 6031 H 569.209 1.05615 4.15383 0
M  V30 6032 H 573.393 1.94632 4.56544 0
M  V30 6033 H 568.649 3.20605 5.20598 0
M  V30 6034 H 572.823 4.09709 5.63127 0
M  V30 6035 H 570.45 4.73255 5.94923 0
M  V30 6036 N 572.025 -1.5352 0.356285 0
M  V30 6037 C 572.957 -2.23009 -0.529127 0
M  V30 6038 C 573.97 -1.241 -1.05371 0
M  V30 6039 O 575.159 -1.50379 -0.961679 0
M  V30 6040 C 572.259 -2.90685 -1.74229 0
M  V30 6041 C 571.432 -4.16019 -1.35081 0
M  V30 6042 C 570.491 -4.66989 -2.42502 0
M  V30 6043 O 569.517 -5.30895 -2.05279 0
M  V30 6044 N 570.719 -4.44006 -3.7395 0
M  V30 6045 H 573.484 -2.99627 0.0660501 0
M  V30 6046 H 571.045 -1.60885 0.181014 0
M  V30 6047 H 573.037 -3.21695 -2.4555 0
M  V30 6048 H 571.607 -2.17575 -2.24454 0
M  V30 6049 H 570.827 -3.91414 -0.467833 0
M  V30 6050 H 572.115 -4.9752 -1.06542 0
M  V30 6051 H 571.513 -3.92924 -4.06973 0
M  V30 6052 H 570.07 -4.7959 -4.41403 0
M  V30 6053 N 573.503 -0.0852151 -1.57369 0
M  V30 6054 C 574.914 0.445428 -1.81309 0
M  V30 6055 C 575.265 1.68795 -1.00013 0
M  V30 6056 O 574.39 2.15211 -0.226573 0
M  V30 6057 C 574.985 0.814887 -3.28854 0
M  V30 6058 C 573.544 1.29032 -3.53592 0
M  V30 6059 C 572.691 0.282089 -2.75861 0
M  V30 6060 H 575.642 -0.310771 -1.55627 0
M  V30 6061 H 575.663 1.67524 -3.41637 0
M  V30 6062 H 575.175 -0.0896309 -3.87996 0
M  V30 6063 H 573.276 2.21289 -2.9977 0
M  V30 6064 H 573.389 1.25898 -4.62262 0
M  V30 6065 H 571.753 0.762182 -2.43029 0
M  V30 6066 H 572.536 -0.614936 -3.37748 0
M  V30 6067 N 574.981 1.5647 0.188427 0
M  V30 6068 C 576.397 1.50204 0.539532 0
M  V30 6069 C 576.597 0.78644 1.85519 0
M  V30 6070 O 575.653 0.339714 2.50204 0
M  V30 6071 C 576.966 2.94893 0.588103 0
M  V30 6072 C 578.514 3.05602 0.67648 0
M  V30 6073 C 578.989 4.51716 0.756101 0
M  V30 6074 N 580.48 4.55894 0.819451 0
M  V30 6075 C 581.215 5.66272 0.90134 0
M  V30 6076 N 580.711 6.86323 0.945118 0
M  V30 6077 N 582.504 5.54201 0.939043 0
M  V30 6078 H 574.655 2.01406 -0.674493 0
M  V30 6079 H 576.918 0.916828 -0.241103 0
M  V30 6080 H 576.624 3.50334 -0.309633 0
M  V30 6081 H 576.498 3.4861 1.44051 0
M  V30 6082 H 578.885 2.50206 1.56465 0
M  V30 6083 H 578.966 2.54999 -0.202262 0
M  V30 6084 H 578.61 5.07739 -0.12774 0
M  V30 6085 H 578.54 5.00058 1.65074 0
M  V30 6086 H 581.031 3.69452 0.794594 0
M  V30 6087 H 581.344 7.66194 1.0083 0
M  V30 6088 H 579.689 6.88968 0.913683 0
M  V30 6089 H 582.88 4.59333 0.901725 0
M  V30 6090 H 583.053 6.40247 0.999402 0
M  V30 6091 N 576.459 -0.456382 1.50847 0
M  V30 6092 C 577.87 -1.03685 1.55262 0
M  V30 6093 C 578.221 -1.92779 0.364771 0
M  V30 6094 O 577.346 -2.10043 -0.52068 0
M  V30 6095 C 577.941 -1.88718 2.81374 0
M  V30 6096 C 576.5 -2.41847 2.88422 0
M  V30 6097 C 575.647 -1.20564 2.49719 0
M  V30 6098 H 578.598 -0.238399 1.56899 0
M  V30 6099 H 578.619 -2.73957 2.6406 0
M  V30 6100 H 578.131 -1.23847 3.67809 0
M  V30 6101 H 576.232 -3.10228 2.06372 0
M  V30 6102 H 576.345 -2.75947 3.9165 0
M  V30 6103 H 574.709 -1.54504 2.02486 0
M  V30 6104 H 575.492 -0.573326 3.38479 0
M  V30 6105 N 577.937 -1.40673 -0.710563 0
M  V30 6106 C 578.867 -1.44095 -1.83736 0
M  V30 6107 C 579.848 -0.301286 -1.67411 0
M  V30 6108 O 581.033 -0.510618 -1.87367 0
M  V30 6109 C 578.163 -1.30773 -3.21738 0
M  V30 6110 C 577.117 -2.42395 -3.52745 0
M  V30 6111 C 576.443 -2.14147 -4.89944 0
M  V30 6112 C 577.743 -3.84738 -3.53234 0
M  V30 6113 H 579.437 -2.38396 -1.81129 0
M  V30 6114 H 576.983 -1.14746 -0.870017 0
M  V30 6115 H 578.936 -1.31783 -4.00264 0
M  V30 6116 H 577.66 -0.329507 -3.24934 0
M  V30 6117 H 576.319 -2.40643 -2.76562 0
M  V30 6118 H 575.967 -1.14703 -4.89747 0
M  V30 6119 H 575.667 -2.88934 -5.11655 0
M  V30 6120 H 577.191 -2.16848 -5.70797 0
M  V30 6121 H 578.605 -3.88286 -4.2179 0
M  V30 6122 H 577.002 -4.59085 -3.86473 0
M  V30 6123 H 578.072 -4.13962 -2.52514 0
M  V30 6124 N 579.415 0.9433 -1.26252 0
M  V30 6125 C 580.362 2.0417 -1.07625 0
M  V30 6126 C 581.332 1.6609 0.0180738 0
M  V30 6127 O 582.517 1.90276 -0.141289 0
M  V30 6128 C 579.657 3.37653 -0.713043 0
M  V30 6129 C 578.77 3.88783 -1.8834 0
M  V30 6130 C 577.905 5.10642 -1.4635 0
M  V30 6131 C 576.944 5.54028 -2.60229 0
M  V30 6132 N 576.081 6.67092 -2.18936 0
M  V30 6133 H 580.921 2.19436 -2.01623 0
M  V30 6134 H 578.458 1.07519 -1.00389 0
M  V30 6135 H 580.416 4.14391 -0.483358 0
M  V30 6136 H 579.046 3.22241 0.18996 0
M  V30 6137 H 578.098 3.08464 -2.22608 0
M  V30 6138 H 579.41 4.16922 -2.73821 0
M  V30 6139 H 578.564 5.94832 -1.19414 0
M  V30 6140 H 577.303 4.84244 -0.579568 0
M  V30 6141 H 576.308 4.68396 -2.87898 0
M  V30 6142 H 577.533 5.82429 -3.49219 0
M  V30 6143 H 575.479 6.42381 -1.32974 0
M  V30 6144 H 575.396 6.94806 -2.97961 0
M  V30 6145 H 576.664 7.54662 -1.95206 0
M  V30 6146 N 580.893 1.08022 1.14757 0
M  V30 6147 C 581.841 0.701088 2.21783 0
M  V30 6148 C 582.835 -0.291311 1.66876 0
M  V30 6149 O 584.041 -0.154296 1.79337 0
M  V30 6150 H 580.416 0.208668 0.722469 0
M  V30 6151 H 582.387 1.61321 2.51034 0
M  V30 6152 C 581.136 0.122278 3.47485 0
M  V30 6153 H 580.459 0.877065 3.90061 0
M  V30 6154 H 581.899 -0.105248 4.23869 0
M  V30 6155 C 580.358 -1.13883 3.17068 0
M  V30 6156 O 580.888 -2.22429 3.34497 0
M  V30 6157 N 579.094 -1.04767 2.71058 0
M  V30 6158 H 578.641 -0.164302 2.57075 0
M  V30 6159 H 578.599 -1.89224 2.51081 0
M  V30 6160 N 582.371 -1.3172 0.865308 0
M  V30 6161 C 583.301 -2.31109 0.333302 0
M  V30 6162 C 584.282 -1.60148 -0.573301 0
M  V30 6163 O 585.467 -1.87882 -0.491305 0
M  V30 6164 C 582.597 -3.44104 -0.470078 0
M  V30 6165 C 581.551 -4.26623 0.343021 0
M  V30 6166 C 580.877 -5.31482 -0.585756 0
M  V30 6167 C 582.177 -4.98001 1.57456 0
M  V30 6168 H 583.871 -2.75855 1.1638 0
M  V30 6169 H 581.417 -1.3262 0.561069 0
M  V30 6170 H 583.37 -4.12682 -0.852752 0
M  V30 6171 H 582.094 -2.98112 -1.33404 0
M  V30 6172 H 580.753 -3.59707 0.707583 0
M  V30 6173 H 580.401 -4.81741 -1.44686 0
M  V30 6174 H 580.101 -5.87582 -0.0456494 0
M  V30 6175 H 581.625 -6.0292 -0.965375 0
M  V30 6176 H 583.039 -5.59201 1.26359 0
M  V30 6177 H 581.436 -5.63876 2.05339 0
M  V30 6178 H 582.506 -4.25253 2.32997 0
M  V30 6179 N 583.85 -0.624285 -1.44708 0
M  V30 6180 C 585.096 -0.126237 -2.02407 0
M  V30 6181 C 585.428 1.24618 -1.48943 0
M  V30 6182 O 584.704 1.82569 -0.670742 0
M  V30 6183 C 584.986 -0.105449 -3.59946 0
M  V30 6184 C 584.84 -1.50972 -4.23707 0
M  V30 6185 C 586.159 0.573629 -4.36346 0
M  V30 6186 H 583.278 -0.0473472 -0.735478 0
M  V30 6187 H 585.92 -0.799452 -1.72362 0
M  V30 6188 H 584.07 0.46783 -3.85673 0
M  V30 6189 H 585.742 -2.13136 -4.0911 0
M  V30 6190 H 583.985 -2.0656 -3.81465 0
M  V30 6191 H 584.656 -1.44727 -5.32689 0
M  V30 6192 H 587.132 0.0861787 -4.16011 0
M  V30 6193 H 586.008 0.557338 -5.46063 0
M  V30 6194 H 586.269 1.64276 -4.10446 0
M  V30 6195 N 585.328 1.53329 -0.364422 0
M  V30 6196 C 586.258 2.28627 0.474543 0
M  V30 6197 C 587.239 1.31009 1.08492 0
M  V30 6198 O 588.424 1.59878 1.10239 0
M  V30 6199 C 585.554 3.07465 1.61501 0
M  V30 6200 C 584.508 4.1276 1.13194 0
M  V30 6201 C 583.834 4.79674 2.36255 0
M  V30 6202 C 585.134 5.21847 0.217507 0
M  V30 6203 H 586.828 2.99005 -0.153656 0
M  V30 6204 H 584.374 1.43803 -0.0753406 0
M  V30 6205 H 586.327 3.58889 2.20855 0
M  V30 6206 H 585.051 2.34775 2.27042 0
M  V30 6207 H 583.71 3.62281 0.56109 0
M  V30 6208 H 583.358 4.03557 3.00251 0
M  V30 6209 H 583.058 5.50827 2.04606 0
M  V30 6210 H 584.582 5.33892 2.96297 0
M  V30 6211 H 585.996 5.6878 0.718493 0
M  V30 6212 H 584.393 6.00099 -0.00806408 0
M  V30 6213 H 585.463 4.7921 -0.740653 0
M  V30 6214 N 586.806 0.0935595 1.57322 0
M  V30 6215 C 588.052 -0.571355 1.94585 0
M  V30 6216 C 588.385 -1.67929 0.975366 0
M  V30 6217 O 587.66 -1.94498 0.00816206 0
M  V30 6218 C 587.943 -1.12797 3.41978 0
M  V30 6219 C 587.796 -0.0251881 4.49793 0
M  V30 6220 C 589.115 -2.02682 3.90651 0
M  V30 6221 H 586.234 -0.206223 0.70756 0
M  V30 6222 H 588.876 0.163956 1.89291 0
M  V30 6223 H 587.026 -1.75461 3.4662 0
M  V30 6224 H 588.698 0.608979 4.57263 0
M  V30 6225 H 586.941 0.641399 4.29032 0
M  V30 6226 H 587.612 -0.455433 5.50118 0
M  V30 6227 H 590.088 -1.49925 3.88152 0
M  V30 6228 H 588.964 -2.38555 4.94351 0
M  V30 6229 H 589.225 -2.94362 3.29854 0
M  V30 6230 N 588.284 -1.56567 -0.180126 0
M  V30 6231 C 589.561 -1.7235 -0.924931 0
M  V30 6232 C 589.941 -0.652523 -2.00762 0
M  V30 6233 O 589.289 0.334115 -2.26044 0
M  V30 6234 C 589.499 -3.1523 -1.49771 0
M  V30 6235 C 590.847 -3.75921 -1.97405 0
M  V30 6236 O 591.871 -3.18452 -1.59583 0
M  V30 6237 O 590.73 -4.7681 -2.67048 0
M  V30 6238 H 587.824 -0.703502 -0.434758 0
M  V30 6239 H 590.37 -1.6886 -0.168647 0
M  V30 6240 H 589.142 -3.84656 -0.718027 0
M  V30 6241 H 588.765 -3.23009 -2.31842 0
M  V30 6242 N 589.762 0.448376 -1.51087 0
M  V30 6243 C 590.672 1.56882 -1.74428 0
M  V30 6244 C 591.688 1.62268 -0.62809 0
M  V30 6245 O 592.864 1.79716 -0.909075 0
M  V30 6246 C 589.929 2.92947 -1.85426 0
M  V30 6247 C 588.99 2.97766 -3.09247 0
M  V30 6248 C 588.223 4.27341 -3.19711 0
M  V30 6249 O 588.446 5.19112 -2.36387 0
M  V30 6250 O 587.38 4.38219 -4.12611 0
M  V30 6251 H 591.206 1.40104 -2.69452 0
M  V30 6252 H 588.791 0.630247 -1.35456 0
M  V30 6253 H 590.673 3.73719 -1.94709 0
M  V30 6254 H 589.348 3.09876 -0.935887 0
M  V30 6255 H 588.255 2.15989 -3.0545 0
M  V30 6256 H 589.588 2.8578 -4.00738 0
M  V30 6257 N 591.24 1.41047 0.703093 0
M  V30 6258 C 592.17 1.45067 1.82969 0
M  V30 6259 C 593.151 0.31016 1.67248 0
M  V30 6260 O 594.336 0.520548 1.87093 0
M  V30 6261 C 591.466 1.32478 3.2104 0
M  V30 6262 C 590.42 2.44262 3.51454 0
M  V30 6263 C 589.746 2.16742 4.88801 0
M  V30 6264 C 591.046 3.86606 3.51189 0
M  V30 6265 H 592.74 2.39353 1.79863 0
M  V30 6266 H 590.286 1.15206 0.863919 0
M  V30 6267 H 592.239 1.33904 3.99559 0
M  V30 6268 H 590.963 0.346735 3.24754 0
M  V30 6269 H 589.622 2.42107 2.75282 0
M  V30 6270 H 589.27 1.17299 4.89132 0
M  V30 6271 H 588.97 2.91643 5.10116 0
M  V30 6272 H 590.494 2.19872 5.69639 0
M  V30 6273 H 591.908 3.90517 4.19725 0
M  V30 6274 H 590.305 4.61128 3.84033 0
M  V30 6275 H 591.375 4.15296 2.50315 0
M  V30 6276 N 592.718 -0.936591 1.26751 0
M  V30 6277 C 593.995 -1.66094 1.03306 0
M  V30 6278 C 594.375 -2.06568 -0.435058 0
M  V30 6279 O 593.723 -1.79305 -1.41641 0
M  V30 6280 C 593.933 -2.86969 1.98619 0
M  V30 6281 C 595.281 -3.58516 2.27489 0
M  V30 6282 O 596.305 -2.97082 1.96522 0
M  V30 6283 O 595.164 -4.69181 2.80235 0
M  V30 6284 H 592.258 -0.727568 0.393158 0
M  V30 6285 H 594.804 -0.987914 1.3798 0
M  V30 6286 H 593.576 -2.53985 2.9767 0
M  V30 6287 H 593.199 -3.61996 1.64454 0
M  V30 6288 N 594.196 -1.08629 -1.14182 0
M  V30 6289 C 595.421 -0.83902 -1.89671 0
M  V30 6290 C 595.846 0.603332 -1.78161 0
M  V30 6291 O 595.204 1.42301 -1.12339 0
M  V30 6292 C 595.252 -1.26854 -3.37551 0
M  V30 6293 O 594.356 -0.42188 -4.10236 0
M  V30 6294 H 593.697 -0.304545 -0.590041 0
M  V30 6295 H 596.227 -1.4483 -1.44518 0
M  V30 6296 H 596.237 -1.25038 -3.88368 0
M  V30 6297 H 594.912 -2.31901 -3.45246 0
M  V30 6298 H 593.489 -0.503654 -3.69483 0
M  V30 6299 N 595.674 1.31259 -0.872281 0
M  V30 6300 C 596.604 2.30929 -0.345554 0
M  V30 6301 C 597.585 1.60449 0.5648 0
M  V30 6302 O 598.77 1.8814 0.481335 0
M  V30 6303 C 595.9 3.44348 0.451823 0
M  V30 6304 C 594.854 4.26435 -0.365641 0
M  V30 6305 C 594.18 5.31785 0.557562 0
M  V30 6306 C 595.48 4.97159 -1.60095 0
M  V30 6307 H 597.174 2.75234 -1.17841 0
M  V30 6308 H 594.72 1.3232 -0.568094 0
M  V30 6309 H 596.673 4.13128 0.830854 0
M  V30 6310 H 595.397 2.98816 1.31821 0
M  V30 6311 H 594.056 3.59326 -0.726649 0
M  V30 6312 H 593.704 4.82502 1.4213 0
M  V30 6313 H 593.404 5.87598 0.0144878 0
M  V30 6314 H 594.928 6.03424 0.933387 0
M  V30 6315 H 596.342 5.58523 -1.29323 0
M  V30 6316 H 594.739 5.62779 -2.08327 0
M  V30 6317 H 595.809 4.24012 -2.35249 0
M  V30 6318 N 597.152 0.631951 1.44375 0
M  V30 6319 C 598.377 0.142146 2.06912 0
M  V30 6320 C 598.802 -1.17456 1.4692 0
M  V30 6321 O 598.16 -1.72074 0.570975 0
M  V30 6322 C 598.208 0.0417952 3.60576 0
M  V30 6323 O 597.312 -1.00194 4.00044 0
M  V30 6324 H 596.653 0.0851491 0.658518 0
M  V30 6325 H 599.183 0.868863 1.85235 0
M  V30 6326 H 599.193 -0.148517 4.0773 0
M  V30 6327 H 597.868 1.0031 4.03622 0
M  V30 6328 H 596.445 -0.786131 3.64519 0
M  V30 6329 N 598.631 -1.53133 0.372548 0
M  V30 6330 C 600.042 -1.86404 -0.105155 0
M  V30 6331 C 600.393 -1.29289 -1.47576 0
M  V30 6332 O 599.518 -0.617646 -2.07398 0
M  V30 6333 C 600.113 -3.38223 -0.197588 0
M  V30 6334 C 598.672 -3.71266 -0.619556 0
M  V30 6335 C 597.819 -2.76353 0.228919 0
M  V30 6336 H 600.77 -1.47282 0.591077 0
M  V30 6337 H 600.791 -3.66577 -1.01987 0
M  V30 6338 H 600.303 -3.79763 0.800099 0
M  V30 6339 H 598.404 -3.35287 -1.62522 0
M  V30 6340 H 598.517 -4.77515 -0.389332 0
M  V30 6341 H 596.881 -2.52888 -0.303271 0
M  V30 6342 H 597.664 -3.20728 1.22428 0
M  V30 6343 N 600.109 -0.101901 -1.5727 0
M  V30 6344 C 601.358 0.559922 -1.93772 0
M  V30 6345 C 601.671 1.68913 -0.98629 0
M  V30 6346 O 602.877 2.41256 -1.24529 0
M  V30 6347 C 601.333 1.04739 -3.44322 0
M  V30 6348 C 600.941 -0.05243 -4.47969 0
M  V30 6349 C 602.685 1.68157 -3.89774 0
M  V30 6350 C 600.592 0.450781 -5.8968 0
M  V30 6351 H 599.522 0.212931 -0.723309 0
M  V30 6352 H 602.173 -0.179001 -1.82625 0
M  V30 6353 H 600.555 1.84021 -3.50645 0
M  V30 6354 H 601.729 -0.828157 -4.53297 0
M  V30 6355 H 600.044 -0.592202 -4.12167 0
M  V30 6356 H 602.641 2.0689 -4.93052 0
M  V30 6357 H 602.984 2.55338 -3.28798 0
M  V30 6358 H 603.517 0.954453 -3.8618 0
M  V30 6359 H 600.256 -0.38458 -6.54371 0
M  V30 6360 H 599.776 1.19336 -5.87809 0
M  V30 6361 H 601.455 0.917555 -6.40461 0
M  V30 6362 N 601.587 1.56661 0.17182 0
M  V30 6363 C 602.517 1.99401 1.21498 0
M  V30 6364 C 603.498 0.869516 1.46197 0
M  V30 6365 O 604.683 1.13556 1.57539 0
M  V30 6366 C 601.813 2.35346 2.55401 0
M  V30 6367 C 600.767 3.5075 2.45272 0
M  V30 6368 C 600.093 3.72437 3.8366 0
M  V30 6369 C 601.393 4.84216 1.95787 0
M  V30 6370 H 603.087 2.86792 0.859699 0
M  V30 6371 H 600.633 1.37977 0.412103 0
M  V30 6372 H 602.586 2.63843 3.2858 0
M  V30 6373 H 601.31 1.44864 2.92715 0
M  V30 6374 H 599.969 3.2238 1.74547 0
M  V30 6375 H 599.617 2.79246 4.18367 0
M  V30 6376 H 599.317 4.50087 3.77751 0
M  V30 6377 H 600.841 4.03334 4.58426 0
M  V30 6378 H 602.255 5.11592 2.5874 0
M  V30 6379 H 600.652 5.65498 2.00827 0
M  V30 6380 H 601.722 4.76243 0.912159 0
M  V30 6381 N 603.065 -0.440357 1.51323 0
M  V30 6382 C 604.312 -1.19004 1.63842 0
M  V30 6383 C 604.64 -1.91266 0.35321 0
M  V30 6384 O 603.895 -1.84143 -0.662565 0
M  V30 6385 C 604.194 -2.2339 2.78984 0
M  V30 6386 C 603.86 -1.68162 4.18369 0
M  V30 6387 C 602.522 -1.52823 4.56288 0
M  V30 6388 C 604.874 -1.27524 5.05358 0
M  V30 6389 C 602.202 -0.953157 5.78906 0
M  V30 6390 C 604.554 -0.714474 6.28552 0
M  V30 6391 C 603.218 -0.547961 6.65247 0
M  V30 6392 H 602.488 -0.435468 0.59954 0
M  V30 6393 H 605.135 -0.481538 1.85347 0
M  V30 6394 H 603.44 -3.00267 2.51688 0
M  V30 6395 H 605.137 -2.81211 2.85869 0
M  V30 6396 H 601.727 -1.81077 3.8847 0
M  V30 6397 H 605.911 -1.38197 4.76671 0
M  V30 6398 H 601.167 -0.811882 6.05986 0
M  V30 6399 H 605.341 -0.391059 6.95301 0
M  V30 6400 H 602.968 -0.100222 7.60134 0
M  V30 6401 N 604.543 -1.41418 -0.695603 0
M  V30 6402 C 605.783 -1.42241 -1.46788 0
M  V30 6403 C 606.147 -0.0300827 -1.91976 0
M  V30 6404 O 607.348 0.0868914 -2.6866 0
M  V30 6405 C 605.619 -2.4011 -2.6473 0
M  V30 6406 S 607.178 -2.59462 -3.53871 0
M  V30 6407 H 603.996 -0.503893 -0.50161 0
M  V30 6408 H 606.598 -1.77855 -0.811654 0
M  V30 6409 H 605.302 -3.40073 -2.29736 0
M  V30 6410 H 604.833 -2.05849 -3.35246 0
M  V30 6411 H 606.848 -1.862 -4.59939 0
M  V30 6412 N 606.021 0.929856 -1.27246 0
M  V30 6413 C 606.953 2.03434 -1.0558 0
M  V30 6414 C 607.966 1.62795 -0.0125762 0
M  V30 6415 O 609.155 1.76685 -0.2539 0
M  V30 6416 C 606.255 3.33915 -0.57912 0
M  V30 6417 C 605.428 4.03259 -1.69415 0
M  V30 6418 C 604.487 5.12014 -1.21357 0
M  V30 6419 O 603.513 5.36097 -1.91282 0
M  V30 6420 N 604.715 5.8046 -0.0680622 0
M  V30 6421 H 607.48 2.22583 -2.00691 0
M  V30 6422 H 605.041 1.1001 -1.18783 0
M  V30 6423 H 607.033 4.03978 -0.241563 0
M  V30 6424 H 605.603 3.11355 0.278703 0
M  V30 6425 H 604.823 3.26958 -2.20209 0
M  V30 6426 H 606.111 4.46337 -2.44255 0
M  V30 6427 H 605.509 5.63345 0.515626 0
M  V30 6428 H 604.066 6.51461 0.210332 0
M  V30 6429 N 607.499 1.09233 1.13605 0
M  V30 6430 C 608.748 0.82205 1.84188 0
M  V30 6431 C 609.061 -0.654548 1.84323 0
M  V30 6432 O 610.267 -1.04029 2.50779 0
M  V30 6433 C 608.723 1.42066 3.30674 0
M  V30 6434 C 608.331 2.92965 3.38933 0
M  V30 6435 C 610.075 1.22924 4.06313 0
M  V30 6436 C 607.982 3.45922 4.79679 0
M  V30 6437 H 606.912 0.303854 0.690064 0
M  V30 6438 H 609.563 1.31479 1.28006 0
M  V30 6439 H 607.945 0.855613 3.86646 0
M  V30 6440 H 609.119 3.55679 2.92966 0
M  V30 6441 H 607.434 3.11118 2.76757 0
M  V30 6442 H 610.031 1.59945 5.10217 0
M  V30 6443 H 610.374 0.169726 4.15954 0
M  V30 6444 H 610.907 1.76168 3.56665 0
M  V30 6445 H 607.646 4.51484 4.75229 0
M  V30 6446 H 607.166 2.87971 5.26149 0
M  V30 6447 H 608.845 3.43009 5.48592 0
M  V30 6448 N 608.977 -1.30795 0.87923 0
M  V30 6449 C 609.94 -2.26563 0.346676 0
M  V30 6450 C 610.94 -1.52578 -0.507597 0
M  V30 6451 O 612.13 -1.71318 -0.315575 0
M  V30 6452 C 609.262 -3.37115 -0.506611 0
M  V30 6453 H 610.455 -2.75183 1.19223 0
M  V30 6454 H 608.008 -1.41886 0.655598 0
M  V30 6455 H 608.743 -2.93802 -1.37299 0
M  V30 6456 H 608.528 -3.91959 0.105218 0
M  V30 6457 H 610.018 -4.08412 -0.871192 0
M  V30 6458 N 610.455 -0.639598 -1.44038 0
M  V30 6459 C 611.732 -0.078012 -1.95444 0
M  V30 6460 C 612.112 1.39847 -1.58133 0
M  V30 6461 O 611.46 2.11714 -0.859614 0
M  V30 6462 C 611.67 -0.309832 -3.47622 0
M  V30 6463 C 613.018 -0.207521 -4.24093 0
M  V30 6464 O 614.042 -0.241653 -3.55379 0
M  V30 6465 O 612.901 -0.119641 -5.46369 0
M  V30 6466 H 609.995 0.0174534 -0.826816 0
M  V30 6467 H 612.541 -0.711891 -1.54046 0
M  V30 6468 H 611.313 -1.33401 -3.67858 0
M  V30 6469 H 610.936 0.357777 -3.95987 0
M  V30 6470 N 611.933 1.52934 -0.380664 0
M  V30 6471 C 612.863 2.29118 0.450268 0
M  V30 6472 C 613.844 1.32153 1.07096 0
M  V30 6473 O 615.029 1.61038 1.08537 0
M  V30 6474 C 612.159 3.09161 1.58231 0
M  V30 6475 C 611.113 4.13938 1.0881 0
M  V30 6476 C 610.439 4.82153 2.31155 0
M  V30 6477 C 611.739 5.22048 0.162146 0
M  V30 6478 H 613.433 2.98826 -0.185361 0
M  V30 6479 H 610.979 1.43715 -0.0905886 0
M  V30 6480 H 612.932 3.61211 2.17036 0
M  V30 6481 H 611.656 2.3717 2.2454 0
M  V30 6482 H 610.315 3.62855 0.522633 0
M  V30 6483 H 609.963 4.06719 2.95953 0
M  V30 6484 H 609.663 5.52966 1.98752 0
M  V30 6485 H 611.187 5.37004 2.90618 0
M  V30 6486 H 612.601 5.6951 0.658126 0
M  V30 6487 H 610.998 6.00057 -0.0717122 0
M  V30 6488 H 612.068 4.78398 -0.791438 0
M  V30 6489 N 613.412 0.11024 1.57214 0
M  V30 6490 C 614.375 -0.828808 2.1369 0
M  V30 6491 C 615.375 -1.20059 1.06969 0
M  V30 6492 O 616.565 -1.12754 1.32786 0
M  V30 6493 C 613.697 -2.11959 2.66994 0
M  V30 6494 H 614.89 -0.338146 2.97988 0
M  V30 6495 H 612.443 -0.138913 1.55681 0
M  V30 6496 H 613.178 -2.65476 1.8626 0
M  V30 6497 H 612.963 -1.86258 3.45037 0
M  V30 6498 H 614.453 -2.79105 3.10629 0
M  V30 6499 N 614.89 -1.56749 -0.16351 0
M  V30 6500 C 615.838 -1.97939 -1.22159 0
M  V30 6501 C 616.832 -0.869288 -1.45395 0
M  V30 6502 O 618.038 -1.05443 -1.45883 0
M  V30 6503 H 614.413 -0.629869 -0.410815 0
M  V30 6504 H 616.384 -2.86115 -0.847381 0
M  V30 6505 C 615.133 -2.36206 -2.55151 0
M  V30 6506 H 614.456 -3.2117 -2.38097 0
M  V30 6507 H 615.896 -2.68863 -3.27854 0
M  V30 6508 C 614.355 -1.20841 -3.14482 0
M  V30 6509 O 614.885 -0.500258 -3.98573 0
M  V30 6510 N 613.091 -0.976943 -2.73686 0
M  V30 6511 H 612.638 -1.55457 -2.05404 0
M  V30 6512 H 612.596 -0.206912 -3.13718 0
M  V30 6513 N 616.368 0.432326 -1.51554 0
M  V30 6514 C 617.278 1.55023 -1.76082 0
M  V30 6515 C 618.294 1.61593 -0.645265 0
M  V30 6516 O 619.47 1.78742 -0.928086 0
M  V30 6517 C 616.535 2.90964 -1.88523 0
M  V30 6518 C 615.596 2.9447 -3.12388 0
M  V30 6519 C 614.829 4.23926 -3.24225 0
M  V30 6520 O 615.052 5.16576 -2.4188 0
M  V30 6521 O 613.986 4.33818 -4.17235 0
M  V30 6522 H 617.812 1.37238 -2.70923 0
M  V30 6523 H 615.397 0.615845 -1.36117 0
M  V30 6524 H 617.279 3.71633 -1.98662 0
M  V30 6525 H 615.954 3.08865 -0.9687 0
M  V30 6526 H 614.861 2.12737 -3.07723 0
M  V30 6527 H 616.194 2.81514 -4.03746 0
M  V30 6528 N 617.846 1.41785 0.688094 0
M  V30 6529 C 619.123 1.32031 1.44316 0
M  V30 6530 C 619.503 -0.0486079 2.11044 0
M  V30 6531 O 618.851 -1.06332 2.02252 0
M  V30 6532 C 619.061 2.47906 2.45649 0
M  V30 6533 C 620.409 2.89415 3.10683 0
M  V30 6534 O 621.433 2.477 2.55975 0
M  V30 6535 O 620.292 3.61573 4.09789 0
M  V30 6536 H 617.386 0.519994 0.643067 0
M  V30 6537 H 619.932 1.53765 0.71794 0
M  V30 6538 H 618.704 3.39222 1.95048 0
M  V30 6539 H 618.327 2.28089 3.25671 0
M  V30 6540 N 619.324 -0.923095 1.27737 0
M  V30 6541 C 620.552 -1.70525 1.17171 0
M  V30 6542 C 620.967 -1.86847 -0.270881 0
M  V30 6543 O 620.324 -1.38879 -1.18401 0
M  V30 6544 C 620.375 -3.10242 1.85559 0
M  V30 6545 O 620.096 -2.94683 3.24182 0
M  V30 6546 C 621.597 -4.04586 1.81176 0
M  V30 6547 H 618.817 -0.533347 0.407163 0
M  V30 6548 H 621.361 -1.15599 1.68692 0
M  V30 6549 H 619.516 -3.62014 1.3793 0
M  V30 6550 H 619.93 -3.83045 3.58297 0
M  V30 6551 H 621.404 -5.00119 2.33633 0
M  V30 6552 H 621.881 -4.3218 0.782099 0
M  V30 6553 H 622.487 -3.58741 2.2844 0
M  V30 6554 N 620.802 -1.09834 -1.13024 0
M  V30 6555 C 622.213 -0.855651 -1.65938 0
M  V30 6556 C 622.564 0.615159 -1.86307 0
M  V30 6557 O 621.689 1.47335 -1.58497 0
M  V30 6558 C 622.284 -1.5467 -3.01434 0
M  V30 6559 C 620.843 -1.35088 -3.51323 0
M  V30 6560 C 619.99 -1.6001 -2.26478 0
M  V30 6561 H 622.941 -1.25691 -0.968889 0
M  V30 6562 H 622.962 -0.982179 -3.67605 0
M  V30 6563 H 622.474 -2.61715 -2.86578 0
M  V30 6564 H 620.575 -0.30179 -3.71376 0
M  V30 6565 H 620.688 -2.0886 -4.31178 0
M  V30 6566 H 619.052 -1.02246 -2.33276 0
M  V30 6567 H 619.835 -2.68293 -2.14182 0
M  V30 6568 N 622.28 1.30327 -0.886154 0
M  V30 6569 C 623.212 2.27079 -0.311072 0
M  V30 6570 C 624.225 1.53758 0.53502 0
M  V30 6571 O 625.414 1.74947 0.354378 0
M  V30 6572 C 622.514 3.33965 0.576228 0
M  V30 6573 C 621.687 4.36735 -0.241064 0
M  V30 6574 C 620.746 5.23028 0.576916 0
M  V30 6575 O 619.772 5.692 -0.000802231 0
M  V30 6576 N 620.974 5.49016 1.88579 0
M  V30 6577 H 623.739 2.77065 -1.14259 0
M  V30 6578 H 621.3 1.43519 -0.749258 0
M  V30 6579 H 623.292 3.88618 1.12953 0
M  V30 6580 H 621.862 2.839 1.30842 0
M  V30 6581 H 621.082 3.81932 -0.975805 0
M  V30 6582 H 622.37 5.02451 -0.801272 0
M  V30 6583 H 621.768 5.13288 2.37806 0
M  V30 6584 H 620.325 6.06539 2.38651 0
M  V30 6585 N 623.758 0.647228 1.43697 0
M  V30 6586 C 624.688 -0.0345631 2.33474 0
M  V30 6587 C 625.669 -0.818193 1.4913 0
M  V30 6588 O 626.854 -0.780867 1.77809 0
M  V30 6589 C 623.984 -1.00576 3.32418 0
M  V30 6590 C 622.938 -0.33266 4.26705 0
M  V30 6591 C 622.264 -1.41489 5.1564 0
M  V30 6592 C 623.564 0.771204 5.16575 0
M  V30 6593 H 625.258 0.715163 2.90733 0
M  V30 6594 H 622.804 0.345364 1.39797 0
M  V30 6595 H 624.757 -1.49159 3.94119 0
M  V30 6596 H 623.481 -1.78657 2.73403 0
M  V30 6597 H 622.14 0.13267 3.6636 0
M  V30 6598 H 621.788 -2.18698 4.52968 0
M  V30 6599 H 621.488 -0.969799 5.79542 0
M  V30 6600 H 623.012 -1.9022 5.80214 0
M  V30 6601 H 624.426 0.36779 5.72119 0
M  V30 6602 H 622.823 1.1404 5.89165 0
M  V30 6603 H 623.893 1.63169 4.56622 0
M  V30 6604 N 625.236 -1.5273 0.388769 0
M  V30 6605 C 626.466 -2.05693 -0.193397 0
M  V30 6606 C 626.874 -1.26038 -1.41107 0
M  V30 6607 O 626.217 -0.30001 -1.81234 0
M  V30 6608 C 626.279 -3.53962 -0.628561 0
M  V30 6609 C 625.943 -4.54519 0.475576 0
M  V30 6610 C 626.94 -5.02526 1.33281 0
M  V30 6611 C 624.625 -4.98174 0.642453 0
M  V30 6612 C 626.619 -5.92812 2.34205 0
M  V30 6613 C 624.306 -5.88262 1.65503 0
M  V30 6614 C 625.304 -6.35473 2.50325 0
M  V30 6615 O 624.992 -7.23781 3.49852 0
M  V30 6616 H 624.724 -0.675197 -0.0329395 0
M  V30 6617 H 627.278 -1.97835 0.552326 0
M  V30 6618 H 625.508 -3.59437 -1.42625 0
M  V30 6619 H 627.197 -3.89669 -1.13633 0
M  V30 6620 H 627.963 -4.6953 1.21519 0
M  V30 6621 H 623.842 -4.60999 -0.00805093 0
M  V30 6622 H 627.386 -6.29585 3.00447 0
M  V30 6623 H 623.283 -6.20672 1.77304 0
M  V30 6624 H 624.051 -7.4184 3.45855 0
M  V30 6625 N 626.714 -0.118576 -1.57153 0
M  V30 6626 C 627.96 0.540326 -1.95469 0
M  V30 6627 C 628.293 1.66356 -1.00196 0
M  V30 6628 O 627.568 1.94461 -0.039104 0
M  V30 6629 C 627.851 1.07342 -3.43729 0
M  V30 6630 C 627.704 -0.0463732 -4.49776 0
M  V30 6631 C 629.023 1.96442 -3.93826 0
M  V30 6632 H 626.142 0.19494 -0.710751 0
M  V30 6633 H 628.784 -0.19405 -1.89006 0
M  V30 6634 H 626.934 1.69925 -3.49368 0
M  V30 6635 H 628.606 -0.681648 -4.56236 0
M  V30 6636 H 626.849 -0.709574 -4.27957 0
M  V30 6637 H 627.52 0.367856 -5.50773 0
M  V30 6638 H 629.996 1.43731 -3.90488 0
M  V30 6639 H 628.872 2.3066 -4.98084 0
M  V30 6640 H 629.133 2.89077 -3.34495 0
M  V30 6641 N 628.193 1.56834 0.155195 0
M  V30 6642 C 629.156 1.96748 1.17571 0
M  V30 6643 C 630.156 0.853006 1.3631 0
M  V30 6644 O 631.346 1.11978 1.33441 0
M  V30 6645 C 628.478 2.27631 2.53765 0
M  V30 6646 H 629.671 2.88085 0.833498 0
M  V30 6647 H 627.224 1.51141 0.398242 0
M  V30 6648 H 627.959 1.39059 2.92973 0
M  V30 6649 H 627.744 3.0888 2.41527 0
M  V30 6650 H 629.234 2.59377 3.27282 0
M  V30 6651 N 629.671 -0.424282 1.51781 0
M  V30 6652 C 630.911 -1.18194 1.66762 0
M  V30 6653 C 631.275 -1.88164 0.381857 0
M  V30 6654 O 632.476 -2.65692 0.407586 0
M  V30 6655 C 630.747 -2.16173 2.84612 0
M  V30 6656 S 632.306 -3.0025 3.19993 0
M  V30 6657 H 629.124 -0.400626 0.587384 0
M  V30 6658 H 631.726 -0.471499 1.89729 0
M  V30 6659 H 630.43 -1.6343 3.76455 0
M  V30 6660 H 629.961 -2.91778 2.63873 0
M  V30 6661 H 631.976 -4.1796 2.67439 0
M  V30 6662 N 631.149 -1.42148 -0.680565 0
M  V30 6663 C 632.397 -1.42029 -1.43779 0
M  V30 6664 C 632.718 -0.0356347 -1.94967 0
M  V30 6665 O 631.988 0.924936 -1.7269 0
M  V30 6666 H 630.568 -0.522835 -0.533529 0
M  V30 6667 H 633.23 -1.7752 -0.804538 0
M  V30 6668 H 632.326 -2.11658 -2.29363 0
M  V30 6669 N 632.627 0.916307 -1.28225 0
M  V30 6670 C 634.043 1.19425 -1.05876 0
M  V30 6671 C 634.243 2.005 0.2005 0
M  V30 6672 O 633.299 2.35806 0.902873 0
M  V30 6673 C 634.612 1.93133 -2.30478 0
M  V30 6674 C 636.16 2.06026 -2.35632 0
M  V30 6675 C 636.635 2.83141 -3.59994 0
M  V30 6676 N 638.126 2.90704 -3.60618 0
M  V30 6677 C 638.861 3.50865 -4.53521 0
M  V30 6678 N 638.357 4.12327 -5.56739 0
M  V30 6679 N 640.15 3.48379 -4.41122 0
M  V30 6680 H 632.301 0.37496 -2.09064 0
M  V30 6681 H 634.564 0.228531 -0.920042 0
M  V30 6682 H 634.27 1.40985 -3.22205 0
M  V30 6683 H 634.144 2.93696 -2.36691 0
M  V30 6684 H 636.531 2.57355 -1.44404 0
M  V30 6685 H 636.612 1.04647 -2.33415 0
M  V30 6686 H 636.256 2.32492 -4.51564 0
M  V30 6687 H 636.186 3.84829 -3.59464 0
M  V30 6688 H 638.677 2.47034 -2.85977 0
M  V30 6689 H 638.99 4.56205 -6.23776 0
M  V30 6690 H 637.335 4.10839 -5.60568 0
M  V30 6691 H 640.526 2.99572 -3.59686 0
M  V30 6692 H 640.699 3.94974 -5.13712 0
M  V30 6693 N 634.105 1.10431 1.1244 0
M  V30 6694 C 635.353 0.845045 1.83585 0
M  V30 6695 C 635.674 -0.631168 1.84503 0
M  V30 6696 O 634.944 -1.45825 1.30813 0
M  V30 6697 H 633.524 0.309628 0.679809 0
M  V30 6698 H 636.186 1.39458 1.36153 0
M  V30 6699 H 635.282 1.20786 2.8778 0
M  V30 6700 N 635.583 -1.29855 0.893053 0
M  V30 6701 C 636.994 -1.77946 0.564998 0
M  V30 6702 C 637.345 -1.73339 -0.919134 0
M  V30 6703 O 636.47 -1.3152 -1.71847 0
M  V30 6704 C 637.065 -3.23118 1.01883 0
M  V30 6705 C 635.624 -3.69013 0.742051 0
M  V30 6706 C 634.771 -2.50121 1.19727 0
M  V30 6707 H 637.722 -1.16611 1.07646 0
M  V30 6708 H 637.743 -3.78875 0.351249 0
M  V30 6709 H 637.255 -3.26439 2.09903 0
M  V30 6710 H 635.356 -3.71173 -0.325816 0
M  V30 6711 H 635.469 -4.60117 1.33527 0
M  V30 6712 H 633.833 -2.47128 0.616418 0
M  V30 6713 H 634.616 -2.56174 2.28538 0
M  V30 6714 N 637.061 -0.65484 -1.43351 0
M  V30 6715 C 638.477 -0.32255 -1.56307 0
M  V30 6716 C 638.677 1.17324 -1.63821 0
M  V30 6717 O 637.733 1.95813 -1.59417 0
M  V30 6718 C 639.046 -1.03533 -2.82314 0
M  V30 6719 C 640.594 -1.01574 -2.9606 0
M  V30 6720 C 641.069 -1.70945 -4.24902 0
M  V30 6721 N 642.56 -1.67716 -4.3177 0
M  V30 6722 C 643.295 -2.18265 -5.30234 0
M  V30 6723 N 642.791 -2.7711 -6.34966 0
M  V30 6724 N 644.584 -2.08756 -5.21898 0
M  V30 6725 H 636.735 -1.62549 -1.36717 0
M  V30 6726 H 638.998 -0.683676 -0.656727 0
M  V30 6727 H 638.704 -2.09045 -2.8283 0
M  V30 6728 H 638.578 -0.587913 -3.7259 0
M  V30 6729 H 640.965 0.0309834 -2.95084 0
M  V30 6730 H 641.046 -1.50186 -2.07069 0
M  V30 6731 H 640.69 -2.75574 -4.26639 0
M  V30 6732 H 640.62 -1.19797 -5.12793 0
M  V30 6733 H 643.111 -1.24777 -3.56706 0
M  V30 6734 H 643.424 -3.13353 -7.06421 0
M  V30 6735 H 641.769 -2.81171 -6.35585 0
M  V30 6736 H 644.96 -1.62488 -4.38994 0
M  V30 6737 H 645.133 -2.48459 -5.98475 0
M  V30 6738 N 638.539 1.52521 -0.396863 0
M  V30 6739 C 639.764 2.06571 0.185258 0
M  V30 6740 C 640.189 1.26605 1.39115 0
M  V30 6741 O 639.547 0.293055 1.78916 0
M  V30 6742 C 639.595 3.5674 0.526189 0
M  V30 6743 O 638.699 3.7929 1.61903 0
M  V30 6744 H 638.04 0.663712 0.0195474 0
M  V30 6745 H 640.57 1.966 -0.566519 0
M  V30 6746 H 640.58 4.00311 0.788338 0
M  V30 6747 H 639.255 4.14379 -0.355397 0
M  V30 6748 H 637.832 3.47605 1.35 0
M  V30 6749 N 640.017 0.126909 1.57088 0
M  V30 6750 C 641.242 -0.53997 2.00248 0
M  V30 6751 C 641.667 -1.58927 1.00618 0
M  V30 6752 O 641.025 -1.81288 -0.0210131 0
M  V30 6753 C 641.073 -1.13565 3.4225 0
M  V30 6754 O 640.177 -2.25103 3.45547 0
M  V30 6755 H 639.518 -0.13412 0.650314 0
M  V30 6756 H 642.048 0.217718 2.03438 0
M  V30 6757 H 642.058 -1.46925 3.80627 0
M  V30 6758 H 640.733 -0.367122 4.14277 0
M  V30 6759 H 639.31 -1.93123 3.18995 0
M  V30 6760 N 641.495 -1.56914 -0.146875 0
M  V30 6761 C 642.425 -2.01308 -1.1831 0
M  V30 6762 C 643.406 -0.892664 -1.44795 0
M  V30 6763 O 644.591 -1.16048 -1.55713 0
M  V30 6764 C 641.721 -2.3938 -2.51624 0
M  V30 6765 C 640.675 -3.54608 -2.3966 0
M  V30 6766 C 640.001 -3.78493 -3.77686 0
M  V30 6767 C 641.301 -4.87269 -1.88058 0
M  V30 6768 H 642.995 -2.88123 -0.813964 0
M  V30 6769 H 640.541 -1.38615 -0.3901 0
M  V30 6770 H 642.494 -2.69037 -3.24341 0
M  V30 6771 H 641.218 -1.49502 -2.90373 0
M  V30 6772 H 639.877 -3.25116 -1.69396 0
M  V30 6773 H 639.525 -2.85866 -4.13871 0
M  V30 6774 H 639.225 -4.56039 -3.70543 0
M  V30 6775 H 640.749 -4.10576 -4.51951 0
M  V30 6776 H 642.163 -5.15644 -2.50568 0
M  V30 6777 H 640.56 -5.68622 -1.91805 0
M  V30 6778 H 641.63 -4.77634 -0.836277 0
M  V30 6779 N 642.974 0.416227 -1.52004 0
M  V30 6780 C 644.39 0.754319 -1.40649 0
M  V30 6781 C 644.59 1.95059 -0.505392 0
M  V30 6782 O 643.646 2.5248 0.0315057 0
M  V30 6783 C 644.959 1.0149 -2.83055 0
M  V30 6784 C 646.507 1.11805 -2.9235 0
M  V30 6785 C 646.982 1.41144 -4.35709 0
M  V30 6786 N 648.473 1.48024 -4.38911 0
M  V30 6787 C 649.208 1.72338 -5.46889 0
M  V30 6788 N 648.704 1.94303 -6.64995 0
M  V30 6789 N 650.497 1.74294 -5.34395 0
M  V30 6790 H 642.648 -0.371324 -2.09129 0
M  V30 6791 H 644.911 -0.103811 -0.942299 0
M  V30 6792 H 644.617 0.208345 -3.51082 0
M  V30 6793 H 644.491 1.93697 -3.23668 0
M  V30 6794 H 646.878 1.91521 -2.24508 0
M  V30 6795 H 646.959 0.17451 -2.55204 0
M  V30 6796 H 646.603 0.619484 -5.04108 0
M  V30 6797 H 646.533 2.36739 -4.70385 0
M  V30 6798 H 649.024 1.32868 -3.53772 0
M  V30 6799 H 649.337 2.12286 -7.43071 0
M  V30 6800 H 647.682 1.91582 -6.68073 0
M  V30 6801 H 650.873 1.56667 -4.41104 0
M  V30 6802 H 651.046 1.92904 -6.18621 0
M  V30 6803 N 644.452 1.42507 0.673017 0
M  V30 6804 C 645.698 1.43284 1.43519 0
M  V30 6805 C 646.031 0.049668 1.94136 0
M  V30 6806 O 645.306 -0.926369 1.71022 0
M  V30 6807 C 645.589 2.45874 2.63093 0
M  V30 6808 C 645.442 3.93388 2.18096 0
M  V30 6809 C 646.761 2.45431 3.6531 0
M  V30 6810 H 643.88 0.521752 0.520522 0
M  V30 6811 H 646.522 1.73932 0.764701 0
M  V30 6812 H 644.672 2.19869 3.20296 0
M  V30 6813 H 646.344 4.30379 1.66046 0
M  V30 6814 H 644.587 4.07169 1.49652 0
M  V30 6815 H 645.258 4.60752 3.03993 0
M  V30 6816 H 647.734 2.68561 3.17827 0
M  V30 6817 H 646.61 3.19189 4.46553 0
M  V30 6818 H 646.871 1.48092 4.16559 0
M  V30 6819 N 645.93 -0.909495 1.28709 0
M  V30 6820 C 646.86 -2.0291 1.15542 0
M  V30 6821 C 647.841 -1.7002 0.0521017 0
M  V30 6822 O 649.026 -1.92835 0.229849 0
M  V30 6823 C 646.156 -3.37458 0.820935 0
M  V30 6824 C 645.11 -3.84524 1.87949 0
M  V30 6825 C 644.436 -5.16086 1.39854 0
M  V30 6826 C 645.736 -4.05918 3.28676 0
M  V30 6827 H 647.43 -2.14183 2.09203 0
M  V30 6828 H 644.976 -1.02913 1.00722 0
M  V30 6829 H 646.929 -4.1528 0.715571 0
M  V30 6830 H 645.653 -3.26249 -0.151374 0
M  V30 6831 H 644.312 -3.08911 1.97408 0
M  V30 6832 H 643.96 -5.01284 0.41518 0
M  V30 6833 H 643.66 -5.48547 2.1064 0
M  V30 6834 H 645.184 -5.96459 1.30649 0
M  V30 6835 H 646.598 -4.74252 3.22115 0
M  V30 6836 H 644.995 -4.49717 3.97334 0
M  V30 6837 H 646.065 -3.10583 3.72379 0
M  V30 6838 N 647.408 -1.11026 -1.11852 0
M  V30 6839 C 648.824 -0.843294 -1.35502 0
M  V30 6840 C 649.024 0.534179 -1.9429 0
M  V30 6841 O 648.08 1.28585 -2.17307 0
M  V30 6842 C 649.393 -1.94793 -2.29077 0
M  V30 6843 C 650.941 -1.97709 -2.42652 0
M  V30 6844 C 651.416 -3.07364 -3.39546 0
M  V30 6845 N 652.907 -3.0671 -3.47107 0
M  V30 6846 C 653.642 -3.88197 -4.22008 0
M  V30 6847 N 653.138 -4.79635 -4.99922 0
M  V30 6848 N 654.931 -3.76391 -4.17476 0
M  V30 6849 H 647.082 -1.99805 -0.720538 0
M  V30 6850 H 649.345 -0.868633 -0.379711 0
M  V30 6851 H 649.051 -2.93971 -1.93065 0
M  V30 6852 H 648.925 -1.84039 -3.29256 0
M  V30 6853 H 651.312 -0.991604 -2.77941 0
M  V30 6854 H 651.393 -2.1254 -1.4234 0
M  V30 6855 H 651.037 -4.06136 -3.04985 0
M  V30 6856 H 650.967 -2.89774 -4.39703 0
M  V30 6857 H 653.458 -2.40457 -2.91528 0
M  V30 6858 H 653.771 -5.38357 -5.54429 0
M  V30 6859 H 652.116 -4.8366 -4.99097 0
M  V30 6860 H 655.307 -3.04303 -3.55693 0
M  V30 6861 H 655.48 -4.40131 -4.75593 0
M  V30 6862 N 648.886 1.2938 -0.899927 0
M  V30 6863 C 649.836 2.25311 -0.349165 0
M  V30 6864 C 650.82 1.51889 0.530892 0
M  V30 6865 O 652.012 1.73028 0.372872 0
M  V30 6866 C 649.141 3.40696 0.422055 0
M  V30 6867 C 648.227 4.21455 -0.472935 0
M  V30 6868 N 648.618 4.8048 -1.58026 0
M  V30 6869 C 646.916 4.45177 -0.270767 0
M  V30 6870 C 647.617 5.41117 -2.13465 0
M  V30 6871 N 646.593 5.24518 -1.42766 0
M  V30 6872 H 650.395 2.68507 -1.19505 0
M  V30 6873 H 647.909 1.43992 -0.751006 0
M  V30 6874 H 649.906 4.08486 0.833369 0
M  V30 6875 H 648.566 2.99037 1.2652 0
M  V30 6876 H 649.577 4.79257 -1.96299 0
M  V30 6877 H 646.254 4.14071 0.533988 0
M  V30 6878 H 647.644 5.979 -3.06537 0
M  V30 6879 N 650.364 0.662433 1.43002 0
M  V30 6880 C 651.612 0.179237 2.01304 0
M  V30 6881 C 651.933 -1.21428 1.52579 0
M  V30 6882 O 651.203 -1.81294 0.742252 0
M  V30 6883 H 649.783 0.0632725 0.744316 0
M  V30 6884 H 652.445 0.856169 1.75088 0
M  V30 6885 H 651.541 0.170957 3.11631 0
M  V30 6886 N 651.842 -1.52309 0.404946 0
M  V30 6887 C 652.772 -2.29805 -0.41376 0
M  V30 6888 C 653.753 -1.3384 -1.0498 0
M  V30 6889 O 654.938 -1.62745 -1.05961 0
M  V30 6890 C 652.068 -3.11639 -1.53292 0
M  V30 6891 C 651.022 -4.15616 -1.02211 0
M  V30 6892 C 650.348 -4.8577 -2.23455 0
M  V30 6893 C 651.648 -5.2224 -0.0790725 0
M  V30 6894 H 653.342 -2.98493 0.232878 0
M  V30 6895 H 650.888 -1.43552 0.113441 0
M  V30 6896 H 652.841 -3.64618 -2.11262 0
M  V30 6897 H 651.565 -2.40712 -2.20738 0
M  V30 6898 H 650.224 -3.63641 -0.46484 0
M  V30 6899 H 649.872 -4.11376 -2.89445 0
M  V30 6900 H 649.572 -5.56058 -1.89929 0
M  V30 6901 H 651.096 -5.4156 -2.82038 0
M  V30 6902 H 652.51 -5.70485 -0.567438 0
M  V30 6903 H 650.907 -5.99867 0.167167 0
M  V30 6904 H 651.977 -4.77078 0.867447 0
M  V30 6905 N 653.32 -0.135238 -1.57019 0
M  V30 6906 C 654.23 0.822226 -2.19719 0
M  V30 6907 C 655.246 1.28057 -1.17802 0
M  V30 6908 O 656.422 1.3402 -1.50335 0
M  V30 6909 C 653.487 2.0484 -2.79717 0
M  V30 6910 C 652.548 1.64042 -3.96723 0
M  V30 6911 C 651.781 2.80814 -4.53849 0
M  V30 6912 O 652.004 3.967 -4.0986 0
M  V30 6913 O 650.938 2.56963 -5.44292 0
M  V30 6914 H 654.764 0.318552 -3.02025 0
M  V30 6915 H 652.349 0.0912021 -1.49121 0
M  V30 6916 H 654.231 2.76622 -3.17897 0
M  V30 6917 H 652.906 2.54182 -2.00432 0
M  V30 6918 H 651.813 0.893182 -3.63281 0
M  V30 6919 H 653.146 1.19426 -4.77492 0
M  V30 6920 N 654.798 1.5699 0.138552 0
M  V30 6921 C 656.044 1.84081 0.85099 0
M  V30 6922 C 656.377 0.718107 1.80435 0
M  V30 6923 O 655.652 -0.277633 1.92508 0
M  V30 6924 C 655.935 3.21699 1.61808 0
M  V30 6925 C 655.788 4.44544 0.685633 0
M  V30 6926 C 657.107 3.5664 2.57868 0
M  V30 6927 H 654.226 0.669592 0.307922 0
M  V30 6928 H 656.868 1.89646 0.11588 0
M  V30 6929 H 655.018 3.17086 2.24474 0
M  V30 6930 H 656.69 4.61248 0.0693179 0
M  V30 6931 H 654.933 4.338 -0.00421993 0
M  V30 6932 H 655.604 5.3746 1.25858 0
M  V30 6933 H 658.08 3.61918 2.05316 0
M  V30 6934 H 656.956 4.53946 3.08584 0
M  V30 6935 H 657.217 2.83036 3.39622 0
M  V30 6936 N 656.276 -0.40816 1.52223 0
M  V30 6937 C 657.501 -1.18127 1.70472 0
M  V30 6938 C 657.926 -1.83491 0.41384 0
M  V30 6939 O 657.284 -1.70047 -0.628778 0
M  V30 6940 C 657.332 -2.21935 2.84213 0
M  V30 6941 O 656.436 -3.28099 2.4985 0
M  V30 6942 H 655.777 -0.344781 0.56747 0
M  V30 6943 H 658.307 -0.478328 1.9893 0
M  V30 6944 H 658.317 -2.66248 3.09153 0
M  V30 6945 H 656.992 -1.73744 3.7787 0
M  V30 6946 H 655.569 -2.89058 2.35584 0
M  V30 6947 N 657.755 -1.42862 -0.66545 0
M  V30 6948 C 658.665 -1.49491 -1.80803 0
M  V30 6949 C 659.681 -0.382914 -1.69734 0
M  V30 6950 O 660.857 -0.635223 -1.9112 0
M  V30 6951 C 657.922 -1.40383 -3.17007 0
M  V30 6952 C 656.983 -2.62152 -3.39963 0
M  V30 6953 C 656.216 -2.53469 -4.69669 0
M  V30 6954 O 656.439 -1.57568 -5.48205 0
M  V30 6955 O 655.373 -3.43763 -4.94075 0
M  V30 6956 H 659.199 -2.45949 -1.78165 0
M  V30 6957 H 656.784 -1.24728 -0.822387 0
M  V30 6958 H 658.666 -1.377 -3.98267 0
M  V30 6959 H 657.341 -0.470546 -3.20262 0
M  V30 6960 H 656.248 -2.70409 -2.58515 0
M  V30 6961 H 657.581 -3.54411 -3.41546 0
M  V30 6962 N 659.233 0.902656 -1.29189 0
M  V30 6963 C 660.166 2.00816 -1.0839 0
M  V30 6964 C 661.144 1.626 0.00335266 0
M  V30 6965 O 662.328 1.87928 -0.146765 0
M  V30 6966 C 659.455 3.32415 -0.649435 0
M  V30 6967 C 658.501 3.89617 -1.73496 0
M  V30 6968 S 659.334 4.19091 -3.33351 0
M  V30 6969 C 660.49 5.53736 -2.91766 0
M  V30 6970 H 660.723 2.18151 -2.01984 0
M  V30 6971 H 658.256 1.0489 -1.13303 0
M  V30 6972 H 660.214 4.08492 -0.405479 0
M  V30 6973 H 658.875 3.12964 0.266857 0
M  V30 6974 H 658.068 4.84658 -1.38284 0
M  V30 6975 H 657.67 3.20217 -1.93229 0
M  V30 6976 H 659.962 6.34085 -2.38627 0
M  V30 6977 H 660.905 5.93871 -3.85647 0
M  V30 6978 H 661.313 5.15453 -2.30149 0
M  V30 6979 N 660.711 1.11618 1.11262 0
M  V30 6980 C 661.674 0.779447 2.15539 0
M  V30 6981 C 662.674 -0.202081 1.59525 0
M  V30 6982 O 663.864 0.0226356 1.74185 0
M  V30 6983 C 660.996 0.15674 3.40539 0
M  V30 6984 H 662.189 1.70324 2.4684 0
M  V30 6985 H 659.742 0.918298 1.26479 0
M  V30 6986 H 660.477 -0.777186 3.1485 0
M  V30 6987 H 660.262 0.863308 3.82478 0
M  V30 6988 H 661.752 -0.062661 4.17553 0
M  V30 6989 N 662.189 -1.289 0.906776 0
M  V30 6990 C 663.435 -1.95558 0.53712 0
M  V30 6991 C 663.768 -1.71262 -0.915582 0
M  V30 6992 O 663.043 -1.02961 -1.65013 0
M  V30 6993 C 663.326 -3.50198 0.838645 0
M  V30 6994 C 663.179 -3.83923 2.34357 0
M  V30 6995 C 664.498 -4.38861 0.329988 0
M  V30 6996 H 661.617 -0.710289 0.196617 0
M  V30 6997 H 664.259 -1.52392 1.13475 0
M  V30 6998 H 662.409 -3.87096 0.330024 0
M  V30 6999 H 664.081 -3.56933 2.92227 0
M  V30 7000 H 662.324 -3.31215 2.80141 0
M  V30 7001 H 662.995 -4.91883 2.5051 0
M  V30 7002 H 665.471 -4.08996 0.765609 0
M  V30 7003 H 664.347 -5.45931 0.570105 0
M  V30 7004 H 664.608 -4.35352 -0.769511 0
M  V30 7005 N 663.667 -0.670007 -1.42649 0
M  V30 7006 C 664.892 -0.196955 -2.06463 0
M  V30 7007 C 665.317 1.1352 -1.49983 0
M  V30 7008 O 664.675 1.705 -0.616397 0
M  V30 7009 C 664.723 -0.137381 -3.60338 0
M  V30 7010 O 663.827 0.895523 -4.02559 0
M  V30 7011 H 663.168 -0.102579 -0.656029 0
M  V30 7012 H 665.698 -0.917669 -1.82866 0
M  V30 7013 H 665.708 0.0403625 -4.0798 0
M  V30 7014 H 664.383 -1.10977 -4.0082 0
M  V30 7015 H 662.96 0.689209 -3.66476 0
M  V30 7016 N 665.145 1.52092 -0.413018 0
M  V30 7017 C 666.055 2.30858 0.417318 0
M  V30 7018 C 667.071 1.38746 1.05003 0
M  V30 7019 O 668.247 1.71821 1.05069 0
M  V30 7020 C 665.312 3.11756 1.51687 0
M  V30 7021 C 664.373 4.19613 0.906825 0
M  V30 7022 C 663.606 4.96644 1.95399 0
M  V30 7023 O 663.829 4.7402 3.17271 0
M  V30 7024 O 662.763 5.81385 1.55805 0
M  V30 7025 H 666.589 3.02865 -0.225028 0
M  V30 7026 H 664.174 1.48358 -0.176126 0
M  V30 7027 H 666.056 3.62122 2.15512 0
M  V30 7028 H 664.731 2.42539 2.14375 0
M  V30 7029 H 663.638 3.73385 0.231183 0
M  V30 7030 H 664.971 4.91134 0.323814 0
M  V30 7031 N 666.623 0.143563 1.56945 0
M  V30 7032 C 667.553 -0.7936 2.196 0
M  V30 7033 C 668.534 -1.25955 1.14321 0
M  V30 7034 O 669.719 -1.31773 1.42651 0
M  V30 7035 C 666.849 -2.03424 2.81489 0
M  V30 7036 C 665.803 -1.70519 3.92565 0
M  V30 7037 C 665.129 -3.01817 4.41373 0
M  V30 7038 C 666.429 -0.95449 5.13504 0
M  V30 7039 H 668.123 -0.271423 2.98167 0
M  V30 7040 H 665.669 -0.12911 1.4342 0
M  V30 7041 H 667.622 -2.69463 3.23987 0
M  V30 7042 H 666.346 -2.58008 2.00248 0
M  V30 7043 H 665.005 -1.06859 3.5068 0
M  V30 7044 H 664.653 -3.54386 3.56959 0
M  V30 7045 H 664.353 -2.80565 5.16292 0
M  V30 7046 H 665.877 -3.68934 4.86539 0
M  V30 7047 H 667.291 -1.5169 5.52868 0
M  V30 7048 H 665.688 -0.842035 5.94163 0
M  V30 7049 H 666.758 0.0544033 4.84869 0
M  V30 7050 N 668.101 -1.57061 -0.130224 0
M  V30 7051 C 669.512 -1.73539 -0.68856 0
M  V30 7052 C 669.863 -0.760554 -1.80859 0
M  V30 7053 O 668.988 0.0690796 -2.1629 0
M  V30 7054 C 669.583 -3.14666 -1.25581 0
M  V30 7055 C 668.142 -3.32689 -1.76055 0
M  V30 7056 C 667.289 -2.69436 -0.655712 0
M  V30 7057 H 670.24 -1.58412 0.0956002 0
M  V30 7058 H 670.261 -3.15595 -2.12556 0
M  V30 7059 H 669.773 -3.85593 -0.440412 0
M  V30 7060 H 667.874 -2.66786 -2.60108 0
M  V30 7061 H 667.987 -4.4077 -1.87772 0
M  V30 7062 H 666.351 -2.30362 -1.08654 0
M  V30 7063 H 667.134 -3.42979 0.14852 0
M  V30 7064 N 669.579 0.400081 -1.52437 0
M  V30 7065 C 670.827 1.14392 -1.6661 0
M  V30 7066 C 671.148 1.90792 -0.402927 0
M  V30 7067 O 670.418 1.87042 0.582425 0
M  V30 7068 H 668.998 0.425275 -0.614125 0
M  V30 7069 H 671.66 0.455076 -1.89513 0
M  V30 7070 H 670.756 1.85298 -2.51139 0
M  V30 7071 N 671.057 1.43213 0.657864 0
M  V30 7072 C 672.005 1.48271 1.79216 0
M  V30 7073 C 672.999 0.35675 1.65601 0
M  V30 7074 O 674.205 0.530535 1.72004 0
M  V30 7075 H 670.58 0.464729 0.591211 0
M  V30 7076 H 672.551 2.43792 1.7207 0
M  V30 7077 C 671.3 1.41837 3.17455 0
M  V30 7078 H 670.623 2.27781 3.28567 0
M  V30 7079 H 672.063 1.49438 3.96793 0
M  V30 7080 C 670.522 0.135347 3.36628 0
M  V30 7081 O 671.052 -0.805199 3.93547 0
M  V30 7082 N 669.258 0.0470316 2.90562 0
M  V30 7083 H 668.805 0.813221 2.44427 0
M  V30 7084 H 668.763 -0.810737 3.03767 0
M  V30 7085 N 672.536 -0.895792 1.29666 0
M  V30 7086 C 673.947 -1.46195 1.1612 0
M  V30 7087 C 674.298 -1.94699 -0.242195 0
M  V30 7088 O 673.423 -1.8406 -1.13802 0
M  V30 7089 C 674.018 -2.65718 2.10189 0
M  V30 7090 C 672.577 -3.18458 2.00653 0
M  V30 7091 C 671.724 -1.91149 2.00891 0
M  V30 7092 H 674.675 -0.706756 1.42094 0
M  V30 7093 H 674.696 -3.4158 1.6764 0
M  V30 7094 H 674.208 -2.30386 3.12321 0
M  V30 7095 H 672.309 -3.58474 1.01623 0
M  V30 7096 H 672.422 -3.82491 2.88509 0
M  V30 7097 H 670.786 -2.09021 1.45542 0
M  V30 7098 H 671.569 -1.58089 3.04734 0
M  V30 7099 N 674.014 -1.12206 -1.10668 0
M  V30 7100 C 674.962 -0.782918 -2.19028 0
M  V30 7101 C 675.956 0.229175 -1.67843 0
M  V30 7102 O 677.162 0.0876295 -1.79787 0
M  V30 7103 H 673.537 -0.235339 -0.714227 0
M  V30 7104 H 675.508 -1.70527 -2.44874 0
M  V30 7105 C 674.257 -0.25116 -3.46792 0
M  V30 7106 H 673.58 -1.02123 -3.86537 0
M  V30 7107 H 675.02 -0.0521409 -4.23968 0
M  V30 7108 C 673.479 1.02037 -3.21076 0
M  V30 7109 O 674.009 2.09862 -3.42522 0
M  V30 7110 N 672.215 0.946348 -2.74759 0
M  V30 7111 H 671.762 0.068777 -2.57508 0
M  V30 7112 H 671.72 1.79775 -2.57931 0
M  V30 7113 N 675.492 1.28418 -0.913599 0
M  V30 7114 C 676.455 2.25564 -0.406624 0
M  V30 7115 C 677.455 1.5387 0.466965 0
M  V30 7116 O 678.645 1.72094 0.270042 0
M  V30 7117 C 675.777 3.38339 0.417053 0
M  V30 7118 H 676.97 2.71926 -1.26477 0
M  V30 7119 H 674.523 1.40098 -0.692986 0
M  V30 7120 H 675.258 2.97339 1.29461 0
M  V30 7121 H 675.043 3.91542 -0.209102 0
M  V30 7122 H 676.533 4.10578 0.762602 0
M  V30 7123 N 676.97 0.677563 1.42291 0
M  V30 7124 C 678.216 0.201272 2.01799 0
M  V30 7125 C 678.549 -1.19004 1.53465 0
M  V30 7126 O 677.824 -1.79953 0.738039 0
M  V30 7127 C 678.107 0.238968 3.59306 0
M  V30 7128 C 677.96 1.66594 4.17812 0
M  V30 7129 C 679.279 -0.411287 4.38174 0
M  V30 7130 H 676.398 0.0746114 0.733214 0
M  V30 7131 H 679.04 0.862872 1.69276 0
M  V30 7132 H 677.19 -0.324368 3.87144 0
M  V30 7133 H 678.862 2.28173 4.00917 0
M  V30 7134 H 677.105 2.20576 3.73536 0
M  V30 7135 H 677.776 1.64398 5.26951 0
M  V30 7136 H 680.252 0.0682804 4.16044 0
M  V30 7137 H 679.128 -0.354286 5.47755 0
M  V30 7138 H 679.389 -1.4893 4.1626 0
M  V30 7139 N 678.448 -1.51871 0.421078 0
M  V30 7140 C 679.694 -2.02894 -0.143346 0
M  V30 7141 C 680.049 -1.30054 -1.41787 0
M  V30 7142 O 679.342 -0.401776 -1.8734 0
M  V30 7143 C 679.536 -3.54764 -0.433292 0
M  V30 7144 C 679.365 -4.42316 0.811584 0
M  V30 7145 C 678.135 -4.872 1.34033 0
M  V30 7146 C 680.333 -4.85631 1.69313 0
M  V30 7147 N 678.315 -5.58915 2.53944 0
M  V30 7148 C 679.686 -5.56248 2.7384 0
M  V30 7149 C 681.741 -4.67634 1.70947 0
M  V30 7150 C 680.444 -6.10777 3.79927 0
M  V30 7151 C 682.47 -5.23068 2.7596 0
M  V30 7152 C 681.832 -5.93617 3.79207 0
M  V30 7153 H 677.931 -0.78188 -0.0137104 0
M  V30 7154 H 680.515 -1.85919 0.578105 0
M  V30 7155 H 678.686 -3.71787 -1.12378 0
M  V30 7156 H 680.418 -3.92464 -0.987644 0
M  V30 7157 H 677.173 -4.65035 0.896606 0
M  V30 7158 H 677.597 -5.99408 3.14704 0
M  V30 7159 H 682.239 -4.12566 0.9246 0
M  V30 7160 H 679.957 -6.64909 4.59262 0
M  V30 7161 H 683.543 -5.11005 2.78147 0
M  V30 7162 H 682.423 -6.35743 4.5913 0
M  V30 7163 N 679.926 -0.151884 -1.56866 0
M  V30 7164 C 681.154 0.504813 -2.00647 0
M  V30 7165 C 681.569 1.58098 -1.03201 0
M  V30 7166 O 680.926 1.82476 -0.0297814 0
M  V30 7167 C 680.977 1.10099 -3.44326 0
M  V30 7168 O 680.698 0.0678021 -4.38048 0
M  V30 7169 C 682.199 1.83782 -4.03409 0
M  V30 7170 H 679.419 0.130989 -0.65809 0
M  V30 7171 H 681.963 -0.247903 -2.02992 0
M  V30 7172 H 680.118 1.8043 -3.42817 0
M  V30 7173 H 680.532 0.505237 -5.22061 0
M  V30 7174 H 682.006 2.2078 -5.05925 0
M  V30 7175 H 682.483 2.72557 -3.44397 0
M  V30 7176 H 683.089 1.18138 -4.08563 0
M  V30 7177 N 681.404 1.57128 0.121893 0
M  V30 7178 C 682.65 1.84974 0.831418 0
M  V30 7179 C 682.983 0.737204 1.79663 0
M  V30 7180 O 682.258 -0.257199 1.92792 0
M  V30 7181 C 682.541 3.23397 1.58386 0
M  V30 7182 C 682.394 4.45246 0.638445 0
M  V30 7183 C 683.713 3.59355 2.54071 0
M  V30 7184 H 680.832 0.67282 0.300803 0
M  V30 7185 H 683.474 1.89759 0.0957587 0
M  V30 7186 H 681.624 3.19449 2.21098 0
M  V30 7187 H 683.296 4.61295 0.0203925 0
M  V30 7188 H 681.539 4.33771 -0.05023 0
M  V30 7189 H 682.21 5.38765 1.20151 0
M  V30 7190 H 684.686 3.64075 2.01465 0
M  V30 7191 H 683.562 4.57193 3.03752 0
M  V30 7192 H 683.823 2.86622 3.36601 0
M  V30 7193 N 682.882 -0.391992 1.52647 0
M  V30 7194 C 684.298 -0.731848 1.41831 0
M  V30 7195 C 684.498 -1.9423 0.536361 0
M  V30 7196 O 683.554 -2.52499 0.00866571 0
M  V30 7197 C 684.867 -0.969743 2.84634 0
M  V30 7198 C 686.415 -1.0714 2.94092 0
M  V30 7199 C 686.89 -1.34195 4.37899 0
M  V30 7200 N 688.381 -1.41023 4.41211 0
M  V30 7201 C 689.116 -1.63616 5.49561 0
M  V30 7202 N 688.612 -1.83699 6.68002 0
M  V30 7203 N 690.405 -1.65771 5.371 0
M  V30 7204 H 682.556 0.404547 2.08512 0
M  V30 7205 H 684.819 0.11879 0.940528 0
M  V30 7206 H 684.525 -0.152465 3.51369 0
M  V30 7207 H 684.399 -1.88523 3.26709 0
M  V30 7208 H 686.786 -1.87925 2.27526 0
M  V30 7209 H 686.867 -0.133887 2.55449 0
M  V30 7210 H 686.511 -0.539207 5.0503 0
M  V30 7211 H 686.441 -2.29226 4.74092 0
M  V30 7212 H 688.932 -1.27223 3.55841 0
M  V30 7213 H 689.245 -2.00437 7.46354 0
M  V30 7214 H 687.59 -1.8093 6.71036 0
M  V30 7215 H 690.781 -1.4963 4.43541 0
M  V30 7216 H 690.954 -1.83038 6.21612 0
M  V30 7217 N 684.36 -1.4356 -0.65026 0
M  V30 7218 C 685.776 -1.27025 -0.966269 0
M  V30 7219 C 685.976 -0.192117 -2.00582 0
M  V30 7220 O 685.032 0.428459 -2.48838 0
M  V30 7221 C 686.345 -2.63556 -1.44772 0
M  V30 7222 C 687.893 -2.71111 -1.56421 0
M  V30 7223 C 688.368 -4.08067 -2.07956 0
M  V30 7224 N 689.859 -4.10146 -2.15254 0
M  V30 7225 C 690.594 -5.12952 -2.56258 0
M  V30 7226 N 690.09 -6.26129 -2.96537 0
M  V30 7227 N 691.883 -5.00306 -2.56224 0
M  V30 7228 H 684.034 -2.12367 0.0375758 0
M  V30 7229 H 686.297 -0.946894 -0.0457782 0
M  V30 7230 H 686.003 -3.43429 -0.758271 0
M  V30 7231 H 685.877 -2.89152 -2.42221 0
M  V30 7232 H 688.264 -1.91569 -2.24467 0
M  V30 7233 H 688.345 -2.49277 -0.573967 0
M  V30 7234 H 687.989 -4.88077 -1.40511 0
M  V30 7235 H 687.919 -4.27266 -3.07817 0
M  V30 7236 H 690.41 -3.28453 -1.86887 0
M  V30 7237 H 690.723 -7.00403 -3.26582 0
M  V30 7238 H 689.068 -6.29597 -2.94334 0
M  V30 7239 H 692.259 -4.10952 -2.24135 0
M  V30 7240 H 692.432 -5.80553 -2.87857 0
M  V30 7241 N 685.838 0.888903 -1.30139 0
M  V30 7242 C 686.788 1.9814 -1.12803 0
M  V30 7243 C 687.772 1.60839 -0.0443137 0
M  V30 7244 O 688.964 1.74971 -0.267208 0
M  V30 7245 C 686.093 3.33416 -0.817849 0
M  V30 7246 C 685.179 3.77043 -1.94163 0
M  V30 7247 N 685.57 3.92805 -3.18651 0
M  V30 7248 C 683.868 4.06407 -1.8371 0
M  V30 7249 C 684.569 4.29746 -3.92038 0
M  V30 7250 N 683.545 4.3939 -3.20059 0
M  V30 7251 H 687.347 2.08411 -2.07225 0
M  V30 7252 H 684.861 1.07845 -1.21421 0
M  V30 7253 H 686.858 4.11405 -0.674668 0
M  V30 7254 H 685.518 3.24484 0.118344 0
M  V30 7255 H 686.529 3.78042 -3.53984 0
M  V30 7256 H 683.206 4.05972 -0.974331 0
M  V30 7257 H 684.596 4.49695 -4.99223 0
M  V30 7258 N 687.317 1.12792 1.10072 0
M  V30 7259 C 688.566 0.880232 1.81479 0
M  V30 7260 C 688.879 -0.595575 1.86312 0
M  V30 7261 O 690.085 -0.959979 2.53962 0
M  V30 7262 C 688.541 1.52514 3.25987 0
M  V30 7263 C 688.149 3.036 3.29441 0
M  V30 7264 C 689.893 1.35788 4.02196 0
M  V30 7265 C 687.8 3.61007 4.68431 0
M  V30 7266 H 686.73 0.325654 0.680048 0
M  V30 7267 H 689.381 1.35485 1.23758 0
M  V30 7268 H 687.763 0.978188 3.83728 0
M  V30 7269 H 688.937 3.64819 2.81502 0
M  V30 7270 H 687.252 3.19765 2.66719 0
M  V30 7271 H 689.849 1.76096 5.0487 0
M  V30 7272 H 690.192 0.301972 4.15203 0
M  V30 7273 H 690.725 1.87426 3.50879 0
M  V30 7274 H 687.464 4.66375 4.60625 0
M  V30 7275 H 686.984 3.04564 5.16721 0
M  V30 7276 H 688.663 3.60289 5.37402 0
M  V30 7277 N 688.795 -1.27931 0.920396 0
M  V30 7278 C 689.705 -2.30824 0.419212 0
M  V30 7279 C 690.721 -1.66767 -0.496461 0
M  V30 7280 O 691.897 -1.97763 -0.38104 0
M  V30 7281 C 688.962 -3.45158 -0.326601 0
M  V30 7282 C 688.023 -4.24754 0.623098 0
M  V30 7283 C 687.256 -5.33629 -0.0872172 0
M  V30 7284 O 687.479 -5.55204 -1.30784 0
M  V30 7285 O 686.413 -5.99091 0.580875 0
M  V30 7286 H 690.239 -2.75716 1.27337 0
M  V30 7287 H 687.824 -1.32747 0.685465 0
M  V30 7288 H 689.706 -4.14716 -0.747559 0
M  V30 7289 H 688.381 -3.02336 -1.15648 0
M  V30 7290 H 687.288 -3.57759 1.09359 0
M  V30 7291 H 688.621 -4.71272 1.41998 0
M  V30 7292 N 690.273 -0.685099 -1.4193 0
M  V30 7293 C 691.55 -0.140152 -1.95097 0
M  V30 7294 C 691.93 1.34745 -1.62502 0
M  V30 7295 O 691.278 2.08872 -0.926534 0
M  V30 7296 C 691.488 -0.420268 -3.4646 0
M  V30 7297 C 692.836 -0.342338 -4.23218 0
M  V30 7298 O 693.86 -0.354592 -3.54431 0
M  V30 7299 O 692.719 -0.293404 -5.45712 0
M  V30 7300 H 689.813 -0.00885998 -0.826953 0
M  V30 7301 H 692.359 -0.760539 -1.51703 0
M  V30 7302 H 691.131 -1.45037 -3.63428 0
M  V30 7303 H 690.754 0.231616 -3.96925 0
M  V30 7304 N 691.751 1.51645 -0.429126 0
M  V30 7305 C 692.661 2.31288 0.392809 0
M  V30 7306 C 693.677 1.39852 1.03525 0
M  V30 7307 O 694.853 1.72926 1.03241 0
M  V30 7308 C 691.918 3.13347 1.48372 0
M  V30 7309 C 690.979 4.20551 0.862268 0
M  V30 7310 C 690.212 4.98688 1.9012 0
M  V30 7311 O 690.435 4.77359 3.12225 0
M  V30 7312 O 689.369 5.83005 1.4963 0
M  V30 7313 H 693.195 3.02609 -0.257138 0
M  V30 7314 H 690.78 1.48163 -0.191851 0
M  V30 7315 H 692.662 3.64387 2.1166 0
M  V30 7316 H 691.337 2.44799 2.1179 0
M  V30 7317 H 690.244 3.73609 0.191568 0
M  V30 7318 H 691.577 4.91449 0.271704 0
M  V30 7319 N 693.229 0.160201 1.56784 0
M  V30 7320 C 694.476 -0.487588 1.96542 0
M  V30 7321 C 694.804 -1.63999 1.04569 0
M  V30 7322 O 694.059 -1.95546 0.0775211 0
M  V30 7323 C 694.358 -1.02259 3.42459 0
M  V30 7324 C 694.024 0.0127436 4.50898 0
M  V30 7325 C 692.686 0.297318 4.80281 0
M  V30 7326 C 695.038 0.716078 5.16257 0
M  V30 7327 C 692.366 1.29081 5.72324 0
M  V30 7328 C 694.718 1.69847 6.09372 0
M  V30 7329 C 693.382 1.99061 6.37127 0
M  V30 7330 H 692.652 -0.178421 0.719199 0
M  V30 7331 H 695.299 0.249818 1.89864 0
M  V30 7332 H 693.604 -1.8376 3.46034 0
M  V30 7333 H 695.301 -1.53261 3.70556 0
M  V30 7334 H 691.891 -0.219235 4.28039 0
M  V30 7335 H 696.075 0.509428 4.93679 0
M  V30 7336 H 691.331 1.52344 5.92116 0
M  V30 7337 H 695.505 2.2489 6.59088 0
M  V30 7338 H 693.132 2.76194 7.08252 0
M  V30 7339 N 694.707 -1.5719 -0.113559 0
M  V30 7340 C 695.984 -1.76117 -0.850999 0
M  V30 7341 C 696.364 -0.737085 -1.97814 0
M  V30 7342 O 695.712 0.237942 -2.27258 0
M  V30 7343 C 695.922 -3.21298 -1.36266 0
M  V30 7344 C 697.27 -3.83955 -1.81283 0
M  V30 7345 O 698.294 -3.24934 -1.45933 0
M  V30 7346 O 697.153 -4.87707 -2.46585 0
M  V30 7347 H 694.247 -0.721308 -0.404529 0
M  V30 7348 H 696.793 -1.69423 -0.0968756 0
M  V30 7349 H 695.565 -3.87355 -0.554235 0
M  V30 7350 H 695.188 -3.32552 -2.17933 0
M  V30 7351 N 696.185 0.383891 -1.52853 0
M  V30 7352 C 697.148 1.45197 -1.77343 0
M  V30 7353 C 698.148 1.47362 -0.643522 0
M  V30 7354 O 699.338 1.48443 -0.911613 0
M  V30 7355 C 696.47 2.8445 -1.87885 0
M  V30 7356 H 697.663 1.24764 -2.72716 0
M  V30 7357 H 695.216 0.615939 -1.43652 0
M  V30 7358 H 695.951 3.10222 -0.94515 0
M  V30 7359 H 695.736 2.8428 -2.70051 0
M  V30 7360 H 697.226 3.61832 -2.08488 0
M  V30 7361 N 697.663 1.43903 0.642637 0
M  V30 7362 C 698.893 1.49323 1.4278 0
M  V30 7363 C 699.301 0.113058 1.88862 0
M  V30 7364 O 698.644 -0.889089 1.60751 0
M  V30 7365 C 698.706 2.3861 2.68897 0
M  V30 7366 C 698.37 3.85976 2.44687 0
M  V30 7367 C 699.367 4.7681 2.07239 0
M  V30 7368 C 697.052 4.30567 2.58683 0
M  V30 7369 C 699.046 6.10234 1.841 0
M  V30 7370 C 696.733 5.64042 2.35159 0
M  V30 7371 C 697.731 6.53693 1.97925 0
M  V30 7372 O 697.419 7.84698 1.74654 0
M  V30 7373 H 697.151 0.509109 0.444729 0
M  V30 7374 H 699.705 1.89425 0.794195 0
M  V30 7375 H 697.935 1.93415 3.34855 0
M  V30 7376 H 699.624 2.35112 3.30873 0
M  V30 7377 H 700.39 4.43635 1.95993 0
M  V30 7378 H 696.269 3.61054 2.86637 0
M  V30 7379 H 699.813 6.80171 1.54962 0
M  V30 7380 H 695.71 5.96782 2.46011 0
M  V30 7381 H 696.478 7.96382 1.88993 0
M  V30 7382 N 699.141 -0.881989 1.30609 0
M  V30 7383 C 700.39 -1.62878 1.18969 0
M  V30 7384 C 700.703 -1.93946 -0.253859 0
M  V30 7385 O 701.909 -2.67008 -0.491813 0
M  V30 7386 C 700.365 -2.93573 2.0819 0
M  V30 7387 C 699.973 -2.70034 3.57471 0
M  V30 7388 C 701.717 -3.71543 2.0532 0
M  V30 7389 C 699.624 -3.96563 4.38739 0
M  V30 7390 H 698.554 -0.611092 0.441682 0
M  V30 7391 H 701.205 -0.976201 1.55379 0
M  V30 7392 H 699.587 -3.6014 1.64666 0
M  V30 7393 H 700.761 -2.11949 4.09163 0
M  V30 7394 H 699.076 -2.05435 3.62195 0
M  V30 7395 H 701.673 -4.65386 2.63288 0
M  V30 7396 H 702.016 -4.03167 1.03739 0
M  V30 7397 H 702.549 -3.11842 2.46981 0
M  V30 7398 H 699.288 -3.70095 5.41027 0
M  V30 7399 H 698.808 -4.54142 3.9181 0
M  V30 7400 H 700.487 -4.64557 4.50329 0
M  V30 7401 N 700.619 -1.13374 -1.09472 0
M  V30 7402 C 701.868 -0.889844 -1.8101 0
M  V30 7403 C 702.181 0.585686 -1.86625 0
M  V30 7404 O 703.387 0.946497 -2.54467 0
M  V30 7405 C 701.843 -1.54241 -3.25174 0
M  V30 7406 C 701.451 -3.05343 -3.27826 0
M  V30 7407 C 703.195 -1.37919 -4.0147 0
M  V30 7408 C 701.102 -3.63486 -4.6651 0
M  V30 7409 H 700.032 -0.329256 -0.678311 0
M  V30 7410 H 702.683 -1.36139 -1.23038 0
M  V30 7411 H 701.065 -0.998525 -3.83204 0
M  V30 7412 H 702.239 -3.66307 -2.79563 0
M  V30 7413 H 700.554 -3.21175 -2.65019 0
M  V30 7414 H 703.151 -1.78771 -5.03929 0
M  V30 7415 H 703.494 -0.323987 -4.15037 0
M  V30 7416 H 704.027 -1.89284 -3.49881 0
M  V30 7417 H 700.766 -4.68811 -4.58145 0
M  V30 7418 H 700.286 -3.073 -5.15099 0
M  V30 7419 H 701.965 -3.63134 -5.35484 0
M  V30 7420 N 702.098 1.27442 -0.927168 0
M  V30 7421 C 703.344 1.94679 -0.568164 0
M  V30 7422 C 703.677 1.72697 0.888219 0
M  V30 7423 O 702.952 1.05573 1.63354 0
M  V30 7424 C 703.235 3.4882 -0.894253 0
M  V30 7425 C 703.088 3.80146 -2.40435 0
M  V30 7426 C 704.407 4.38281 -0.399766 0
M  V30 7427 H 701.526 0.707071 -0.207892 0
M  V30 7428 H 704.168 1.50568 -1.15885 0
M  V30 7429 H 702.318 3.86522 -0.391566 0
M  V30 7430 H 703.99 3.52238 -2.97869 0
M  V30 7431 H 702.233 3.26716 -2.85375 0
M  V30 7432 H 702.904 4.87835 -2.58304 0
M  V30 7433 H 705.38 4.07726 -0.83058 0
M  V30 7434 H 704.256 5.44955 -0.656885 0
M  V30 7435 H 704.517 4.36521 0.700153 0
M  V30 7436 N 703.576 0.692616 1.41565 0
M  V30 7437 C 704.801 0.229776 2.06123 0
M  V30 7438 C 705.226 -1.11119 1.5177 0
M  V30 7439 O 704.584 -1.69498 0.643444 0
M  V30 7440 C 704.632 0.19469 3.60074 0
M  V30 7441 O 703.736 -0.831366 4.03933 0
M  V30 7442 H 703.077 0.113002 0.654314 0
M  V30 7443 H 705.607 0.946645 1.81383 0
M  V30 7444 H 705.617 0.0245487 4.07993 0
M  V30 7445 H 704.292 1.17339 3.99004 0
M  V30 7446 H 702.869 -0.630819 3.67526 0
M  V30 7447 N 705.054 -1.51416 0.437162 0
M  V30 7448 C 706.301 -2.02086 -0.129364 0
M  V30 7449 C 706.629 -1.32133 -1.42728 0
M  V30 7450 O 705.884 -0.424916 -1.91031 0
M  V30 7451 C 706.183 -3.55203 -0.39564 0
M  V30 7452 C 705.849 -4.43447 0.81644 0
M  V30 7453 C 704.511 -4.67285 1.14884 0
M  V30 7454 C 706.863 -4.95219 1.62503 0
M  V30 7455 C 704.191 -5.40141 2.29052 0
M  V30 7456 C 706.543 -5.69327 2.7577 0
M  V30 7457 C 705.207 -5.91429 3.09464 0
M  V30 7458 H 704.477 -0.739486 -0.0473375 0
M  V30 7459 H 707.124 -1.82368 0.584321 0
M  V30 7460 H 705.429 -3.73252 -1.19121 0
M  V30 7461 H 707.126 -3.91944 -0.847399 0
M  V30 7462 H 703.716 -4.2509 0.547422 0
M  V30 7463 H 707.9 -4.76686 1.38144 0
M  V30 7464 H 703.156 -5.55468 2.55471 0
M  V30 7465 H 707.33 -6.08433 3.38795 0
M  V30 7466 H 704.957 -6.47662 3.98042 0
M  V30 7467 N 706.532 -0.168513 -1.56696 0
M  V30 7468 C 707.778 0.477865 -1.9709 0
M  V30 7469 C 708.111 1.63084 -1.05438 0
M  V30 7470 O 707.386 1.94238 -0.10095 0
M  V30 7471 C 707.669 0.963521 -3.4697 0
M  V30 7472 C 707.522 -0.189443 -4.49401 0
M  V30 7473 C 708.841 1.83813 -3.99876 0
M  V30 7474 H 705.96 0.172229 -0.716593 0
M  V30 7475 H 708.602 -0.254083 -1.88293 0
M  V30 7476 H 706.752 1.58724 -3.54597 0
M  V30 7477 H 708.424 -0.826451 -4.53836 0
M  V30 7478 H 706.667 -0.845366 -4.25483 0
M  V30 7479 H 707.338 0.192446 -5.51664 0
M  V30 7480 H 709.814 1.31235 -3.94863 0
M  V30 7481 H 708.69 2.14697 -5.0517 0
M  V30 7482 H 708.951 2.78289 -3.43523 0
M  V30 7483 N 708.01 1.57248 0.105221 0
M  V30 7484 C 708.958 2.02337 1.14728 0
M  V30 7485 C 709.952 0.922652 1.42069 0
M  V30 7486 O 711.158 1.10785 1.41869 0
M  V30 7487 H 707.533 0.644682 0.387155 0
M  V30 7488 H 709.504 2.89063 0.740607 0
M  V30 7489 C 708.253 2.45513 2.46209 0
M  V30 7490 H 707.576 3.29785 2.26013 0
M  V30 7491 H 709.016 2.80846 3.1765 0
M  V30 7492 C 707.475 1.3243 3.09781 0
M  V30 7493 O 708.005 0.647841 3.96442 0
M  V30 7494 N 706.211 1.07785 2.69872 0
M  V30 7495 H 705.758 1.62973 1.99493 0
M  V30 7496 H 705.716 0.323204 3.12734 0
M  V30 7497 N 709.488 -0.375779 1.53054 0
M  V30 7498 C 710.451 -1.44254 1.7811 0
M  V30 7499 C 711.451 -1.47018 0.651328 0
M  V30 7500 O 712.641 -1.47957 0.919472 0
M  V30 7501 C 709.773 -2.8345 1.89391 0
M  V30 7502 H 710.966 -1.23316 2.73374 0
M  V30 7503 H 708.519 -0.608312 1.43977 0
M  V30 7504 H 709.254 -3.09716 0.961589 0
M  V30 7505 H 709.039 -2.82844 2.71555 0
M  V30 7506 H 710.529 -3.60722 2.10404 0
M  V30 7507 N 710.966 -1.44241 -0.634997 0
M  V30 7508 C 712.194 -1.50296 -1.42193 0
M  V30 7509 C 712.609 -0.12658 -1.88375 0
M  V30 7510 O 711.966 0.86678 -1.60603 0
M  V30 7511 C 712.017 -2.46437 -2.64482 0
M  V30 7512 O 711.738 -3.78724 -2.20226 0
M  V30 7513 C 713.239 -2.61918 -3.57651 0
M  V30 7514 H 710.459 -0.509865 -0.43621 0
M  V30 7515 H 713.003 -1.89167 -0.776921 0
M  V30 7516 H 711.158 -2.10712 -3.25083 0
M  V30 7517 H 711.572 -4.30595 -2.9948 0
M  V30 7518 H 713.046 -3.33225 -4.40074 0
M  V30 7519 H 713.523 -1.67017 -4.06204 0
M  V30 7520 H 714.129 -2.98528 -3.02921 0
M  V30 7521 N 712.444 0.87505 -1.31075 0
M  V30 7522 C 713.374 1.99775 -1.20881 0
M  V30 7523 C 714.355 1.69822 -0.0971612 0
M  V30 7524 O 715.54 1.92158 -0.280895 0
M  V30 7525 C 712.67 3.35163 -0.910118 0
M  V30 7526 C 711.624 3.79406 -1.98078 0
M  V30 7527 C 710.95 5.12197 -1.53488 0
M  V30 7528 C 712.25 3.97061 -3.39323 0
M  V30 7529 H 713.944 2.08562 -2.14808 0
M  V30 7530 H 711.49 1.00207 -1.03415 0
M  V30 7531 H 713.443 4.13237 -0.825423 0
M  V30 7532 H 712.167 3.26536 0.064822 0
M  V30 7533 H 710.826 3.03568 -2.05528 0
M  V30 7534 H 710.474 5.00007 -0.547941 0
M  V30 7535 H 710.174 5.4277 -2.2511 0
M  V30 7536 H 711.698 5.92785 -1.46417 0
M  V30 7537 H 713.112 4.65545 -3.34576 0
M  V30 7538 H 711.509 4.39025 -4.09118 0
M  V30 7539 H 712.579 3.00601 -3.80483 0
M  V30 7540 N 713.922 1.13953 1.08869 0
M  V30 7541 C 715.168 0.906151 1.8143 0
M  V30 7542 C 715.501 -0.566089 1.85766 0
M  V30 7543 O 714.776 -1.41915 1.33006 0
M  V30 7544 C 715.059 1.50183 3.27287 0
M  V30 7545 C 714.912 3.04359 3.31189 0
M  V30 7546 C 716.231 1.17477 4.24131 0
M  V30 7547 H 713.35 0.330624 0.658678 0
M  V30 7548 H 715.992 1.40873 1.27495 0
M  V30 7549 H 714.142 1.07442 3.73348 0
M  V30 7550 H 715.814 3.55896 2.93488 0
M  V30 7551 H 714.057 3.39053 2.70602 0
M  V30 7552 H 714.728 3.41141 4.33966 0
M  V30 7553 H 717.204 1.5442 3.86385 0
M  V30 7554 H 716.08 1.61795 5.24513 0
M  V30 7555 H 716.341 0.0893312 4.4201 0
M  V30 7556 N 715.4 -1.26948 0.933913 0
M  V30 7557 C 716.33 -2.29017 0.45534 0
M  V30 7558 C 717.311 -1.62961 -0.487605 0
M  V30 7559 O 718.496 -1.90223 -0.391022 0
M  V30 7560 C 715.626 -3.46112 -0.287015 0
M  V30 7561 C 714.58 -4.24205 0.568682 0
M  V30 7562 C 713.906 -5.3384 -0.303206 0
M  V30 7563 C 715.206 -4.88954 1.83633 0
M  V30 7564 H 716.9 -2.69298 1.30839 0
M  V30 7565 H 714.446 -1.29459 0.630579 0
M  V30 7566 H 716.399 -4.16622 -0.6328 0
M  V30 7567 H 715.123 -3.04765 -1.17414 0
M  V30 7568 H 713.782 -3.5545 0.897261 0
M  V30 7569 H 713.43 -4.88734 -1.18947 0
M  V30 7570 H 713.13 -5.86998 0.265879 0
M  V30 7571 H 714.654 -6.0719 -0.644423 0
M  V30 7572 H 716.068 -5.51717 1.55823 0
M  V30 7573 H 714.465 -5.52198 2.34941 0
M  V30 7574 H 715.535 -4.12305 2.55211 0
M  V30 7575 N 716.879 -0.700114 -1.41195 0
M  V30 7576 C 718.104 -0.240704 -2.05998 0
M  V30 7577 C 718.529 1.10313 -1.52357 0
M  V30 7578 O 717.887 1.69154 -0.652424 0
M  V30 7579 C 717.935 -0.213783 -3.59966 0
M  V30 7580 O 717.039 0.809933 -4.04368 0
M  V30 7581 H 716.38 -0.116471 -0.653705 0
M  V30 7582 H 718.91 -0.956251 -1.80878 0
M  V30 7583 H 718.92 -0.0461852 -4.07974 0
M  V30 7584 H 717.595 -1.19454 -3.98376 0
M  V30 7585 H 716.172 0.611319 -3.67855 0
M  V30 7586 N 718.357 1.51182 -0.445186 0
M  V30 7587 C 719.606 2.01342 0.120189 0
M  V30 7588 C 719.919 1.33353 1.43095 0
M  V30 7589 O 721.125 1.74525 2.07974 0
M  V30 7590 C 719.581 3.58925 0.264732 0
M  V30 7591 C 719.189 4.35855 -1.03606 0
M  V30 7592 C 720.933 4.17208 0.783455 0
M  V30 7593 C 718.84 5.85162 -0.856731 0
M  V30 7594 H 717.77 0.752426 0.0486922 0
M  V30 7595 H 720.421 1.74221 -0.576143 0
M  V30 7596 H 718.803 3.82525 1.02425 0
M  V30 7597 H 719.977 4.23997 -1.80452 0
M  V30 7598 H 718.292 3.89062 -1.48391 0
M  V30 7599 H 720.889 5.26475 0.934239 0
M  V30 7600 H 721.232 3.76892 1.768 0
M  V30 7601 H 721.765 3.97715 0.0820346 0
M  V30 7602 H 718.504 6.29904 -1.81388 0
M  V30 7603 H 718.024 5.99663 -0.128206 0
M  V30 7604 H 719.703 6.44963 -0.513027 0
M  V30 7605 N 719.835 0.176821 1.56605 0
M  V30 7606 C 721.083 -0.465793 1.96659 0
M  V30 7607 C 721.404 -1.63406 1.06412 0
M  V30 7608 O 720.674 -1.95457 0.131603 0
M  V30 7609 H 719.254 -0.175072 0.726195 0
M  V30 7610 H 721.916 0.25929 1.93168 0
M  V30 7611 H 721.012 -0.822138 3.01077 0
M  V30 7612 N 721.313 -1.57302 -0.09688 0
M  V30 7613 C 722.223 -2.05258 -1.13606 0
M  V30 7614 C 723.239 -0.977137 -1.43972 0
M  V30 7615 O 724.415 -1.29018 -1.54649 0
M  V30 7616 C 721.48 -2.46593 -2.43706 0
M  V30 7617 C 720.541 -3.68322 -2.20538 0
M  V30 7618 C 719.774 -4.07676 -3.44435 0
M  V30 7619 O 719.997 -3.47141 -4.52603 0
M  V30 7620 O 718.931 -5.00641 -3.34129 0
M  V30 7621 H 722.757 -2.94069 -0.758752 0
M  V30 7622 H 720.342 -1.46164 -0.309263 0
M  V30 7623 H 722.224 -2.73814 -3.20318 0
M  V30 7624 H 720.899 -1.6092 -2.80867 0
M  V30 7625 H 719.806 -3.4622 -1.41713 0
M  V30 7626 H 721.139 -4.54769 -1.88271 0
M  V30 7627 N 722.791 0.367657 -1.53252 0
M  V30 7628 C 724.019 1.13119 -1.73239 0
M  V30 7629 C 724.434 1.831 -0.460404 0
M  V30 7630 O 723.791 1.73483 0.566557 0
M  V30 7631 C 723.842 2.16308 -2.89643 0
M  V30 7632 O 723.563 1.49175 -4.1192 0
M  V30 7633 C 725.064 3.05224 -3.21486 0
M  V30 7634 H 722.284 0.338318 -0.579467 0
M  V30 7635 H 724.828 0.42721 -1.99988 0
M  V30 7636 H 722.983 2.82307 -2.65295 0
M  V30 7637 H 723.397 2.17912 -4.7709 0
M  V30 7638 H 724.871 3.73613 -4.06346 0
M  V30 7639 H 725.348 3.69919 -2.36763 0
M  V30 7640 H 725.954 2.44843 -3.47753 0
M  V30 7641 N 724.269 1.44576 0.627338 0
M  V30 7642 C 725.515 1.47777 1.38888 0
M  V30 7643 C 725.848 0.111406 1.9388 0
M  V30 7644 O 725.123 -0.87149 1.73883 0
M  V30 7645 C 725.406 2.54119 2.55138 0
M  V30 7646 C 725.259 4.00128 2.0547 0
M  V30 7647 C 726.578 2.56929 3.57317 0
M  V30 7648 H 723.697 0.538048 0.50366 0
M  V30 7649 H 726.339 1.76277 0.708978 0
M  V30 7650 H 724.489 2.29948 3.13139 0
M  V30 7651 H 726.161 4.35444 1.5227 0
M  V30 7652 H 724.404 4.11724 1.36623 0
M  V30 7653 H 725.075 4.7019 2.89181 0
M  V30 7654 H 727.551 2.78536 3.09122 0
M  V30 7655 H 726.427 3.33234 4.36173 0
M  V30 7656 H 726.688 1.6127 4.11636 0
M  V30 7657 N 725.747 -0.868086 1.31537 0
M  V30 7658 C 726.657 -2.00801 1.21311 0
M  V30 7659 C 727.673 -1.73518 0.129431 0
M  V30 7660 O 728.849 -1.98378 0.347588 0
M  V30 7661 C 725.914 -3.3419 0.922935 0
M  V30 7662 C 724.975 -3.74783 2.0937 0
M  V30 7663 C 724.208 -5.01807 1.81728 0
M  V30 7664 O 724.431 -5.65404 0.753313 0
M  V30 7665 O 723.365 -5.39213 2.67457 0
M  V30 7666 H 727.191 -2.12361 2.17109 0
M  V30 7667 H 724.776 -0.996684 1.11295 0
M  V30 7668 H 726.658 -4.14174 0.777033 0
M  V30 7669 H 725.333 -3.237 -0.00500301 0
M  V30 7670 H 724.24 -2.95432 2.29501 0
M  V30 7671 H 725.573 -3.89902 3.00396 0
M  V30 7672 N 727.225 -1.14528 -1.08264 0
M  V30 7673 C 728.135 -0.84728 -2.18765 0
M  V30 7674 C 729.151 0.172826 -1.7314 0
M  V30 7675 O 730.327 0.000985336 -2.014 0
M  V30 7676 C 727.392 -0.330633 -3.4512 0
M  V30 7677 C 726.453 -1.41348 -4.05363 0
M  V30 7678 C 725.686 -0.921387 -5.25686 0
M  V30 7679 O 725.909 0.236587 -5.69909 0
M  V30 7680 O 724.843 -1.70101 -5.77364 0
M  V30 7681 H 728.669 -1.7708 -2.46731 0
M  V30 7682 H 726.254 -0.923661 -1.17426 0
M  V30 7683 H 728.136 -0.0485053 -4.21372 0
M  V30 7684 H 726.811 0.565147 -3.18728 0
M  V30 7685 H 725.718 -1.74908 -3.30693 0
M  V30 7686 H 727.051 -2.28383 -4.36007 0
M  V30 7687 N 728.703 1.26451 -0.940633 0
M  V30 7688 C 729.949 1.94065 -0.58878 0
M  V30 7689 C 730.282 1.7363 0.869853 0
M  V30 7690 O 729.557 1.073 1.62225 0
M  V30 7691 C 729.84 3.47852 -0.931199 0
M  V30 7692 C 729.693 3.77575 -2.44453 0
M  V30 7693 C 731.012 4.37832 -0.446229 0
M  V30 7694 H 728.131 0.704827 -0.21538 0
M  V30 7695 H 730.773 1.4933 -1.17475 0
M  V30 7696 H 728.923 3.86085 -0.432539 0
M  V30 7697 H 730.595 3.49059 -3.01588 0
M  V30 7698 H 728.838 3.23671 -2.88825 0
M  V30 7699 H 729.509 4.85068 -2.63464 0
M  V30 7700 H 731.985 4.06822 -0.873778 0
M  V30 7701 H 730.861 5.44228 -0.714648 0
M  V30 7702 H 731.122 4.37239 0.653815 0
M  V30 7703 N 730.181 0.707592 1.40822 0
M  V30 7704 C 731.409 0.253073 2.05346 0
M  V30 7705 C 731.824 -1.10218 1.53289 0
M  V30 7706 O 731.181 -1.69112 0.686105 0
M  V30 7707 C 731.232 0.215411 3.60858 0
M  V30 7708 O 730.953 1.51714 4.10992 0
M  V30 7709 C 732.454 -0.258636 4.42545 0
M  V30 7710 H 729.674 0.115256 0.661027 0
M  V30 7711 H 732.218 0.963555 1.80377 0
M  V30 7712 H 730.373 -0.445978 3.84824 0
M  V30 7713 H 730.787 1.41226 5.05129 0
M  V30 7714 H 732.261 -0.233849 5.51504 0
M  V30 7715 H 732.738 -1.2995 4.19535 0
M  V30 7716 H 733.344 0.372186 4.23668 0
M  V30 7717 N 731.66 -1.50943 0.453197 0
M  V30 7718 C 732.937 -1.94872 -0.168633 0
M  V30 7719 C 733.317 -1.39272 -1.5864 0
M  V30 7720 O 732.665 -0.586272 -2.20851 0
M  V30 7721 C 732.875 -3.48757 -0.130217 0
M  V30 7722 C 734.223 -4.23331 -0.327975 0
M  V30 7723 O 735.247 -3.55594 -0.207619 0
M  V30 7724 O 734.106 -5.43529 -0.569077 0
M  V30 7725 H 731.2 -0.818042 -0.121394 0
M  V30 7726 H 733.746 -1.61782 0.512316 0
M  V30 7727 H 732.518 -3.81725 0.860346 0
M  V30 7728 H 732.141 -3.88333 -0.853397 0
M  V30 7729 N 733.138 -0.185124 -1.56509 0
M  V30 7730 C 734.363 0.465278 -2.02114 0
M  V30 7731 C 734.788 1.55083 -1.06447 0
M  V30 7732 O 734.146 1.81241 -0.0462852 0
M  V30 7733 C 734.194 1.00784 -3.46229 0
M  V30 7734 O 733.298 2.12123 -3.53663 0
M  V30 7735 H 732.639 0.109891 -0.654843 0
M  V30 7736 H 735.169 -0.293072 -2.0249 0
M  V30 7737 H 735.179 1.32697 -3.85818 0
M  V30 7738 H 733.854 0.213113 -4.15354 0
M  V30 7739 H 732.431 1.8115 -3.25943 0
M  V30 7740 N 734.616 1.57351 0.0885366 0
M  V30 7741 C 735.864 1.86051 0.789262 0
M  V30 7742 C 736.185 0.774763 1.78948 0
M  V30 7743 O 735.455 -0.198324 1.94894 0
M  V30 7744 H 734.035 0.686508 0.294475 0
M  V30 7745 H 736.697 1.94779 0.0686055 0
M  V30 7746 H 735.793 2.83007 1.31581 0
M  V30 7747 N 736.094 -0.359525 1.53444 0
M  V30 7748 C 737.341 -1.10152 1.6992 0
M  V30 7749 C 737.669 -1.89125 0.4541 0
M  V30 7750 O 736.924 -1.87396 -0.564023 0
M  V30 7751 C 737.223 -2.08287 2.90433 0
M  V30 7752 C 736.889 -1.45749 4.26694 0
M  V30 7753 C 735.551 -1.28421 4.63747 0
M  V30 7754 C 737.903 -1.00557 5.11408 0
M  V30 7755 C 735.231 -0.644951 5.83144 0
M  V30 7756 C 737.583 -0.380288 6.31456 0
M  V30 7757 C 736.247 -0.194557 6.67216 0
M  V30 7758 H 735.517 -0.403076 0.621781 0
M  V30 7759 H 738.164 -0.382612 1.87639 0
M  V30 7760 H 736.469 -2.86503 2.67251 0
M  V30 7761 H 738.166 -2.65662 3.00374 0
M  V30 7762 H 734.756 -1.6023 3.97523 0
M  V30 7763 H 738.94 -1.12735 4.83326 0
M  V30 7764 H 734.196 -0.48952 6.09437 0
M  V30 7765 H 738.37 -0.0219455 6.96397 0
M  V30 7766 H 735.997 0.30285 7.59597 0
M  V30 7767 N 737.572 -1.44907 -0.619662 0
M  V30 7768 C 738.502 -1.55488 -1.742 0
M  V30 7769 C 739.483 -0.407143 -1.65156 0
M  V30 7770 O 740.668 -0.628743 -1.8374 0
M  V30 7771 C 737.798 -1.5097 -3.1277 0
M  V30 7772 C 736.752 -2.64337 -3.36615 0
M  V30 7773 C 736.078 -2.44872 -4.75333 0
M  V30 7774 C 737.378 -4.06423 -3.28051 0
M  V30 7775 H 739.072 -2.49432 -1.65602 0
M  V30 7776 H 736.618 -1.20047 -0.795281 0
M  V30 7777 H 738.571 -1.56971 -3.91073 0
M  V30 7778 H 737.295 -0.535486 -3.2218 0
M  V30 7779 H 735.954 -2.57744 -2.60698 0
M  V30 7780 H 735.602 -1.45617 -4.81461 0
M  V30 7781 H 735.302 -3.20888 -4.92244 0
M  V30 7782 H 736.826 -2.52709 -5.55851 0
M  V30 7783 H 738.24 -4.14324 -3.96243 0
M  V30 7784 H 736.637 -4.82733 -3.56495 0
M  V30 7785 H 737.707 -4.29183 -2.25676 0
M  V30 7786 N 739.05 0.861098 -1.31996 0
M  V30 7787 C 740.298 1.61162 -1.21947 0
M  V30 7788 C 740.619 1.93751 0.220351 0
M  V30 7789 O 739.889 1.59069 1.14341 0
M  V30 7790 H 738.469 0.597485 -0.448353 0
M  V30 7791 H 741.131 1.03039 -1.65436 0
M  V30 7792 H 740.227 2.55138 -1.79752 0
M  V30 7793 N 740.528 1.15101 1.07655 0
M  V30 7794 C 741.756 0.947731 1.83918 0
M  V30 7795 C 742.171 -0.503927 1.81951 0
M  V30 7796 O 741.528 -1.34941 1.2287 0
M  V30 7797 C 741.579 1.4503 3.31132 0
M  V30 7798 O 741.3 2.84508 3.33146 0
M  V30 7799 C 742.801 1.28806 4.24174 0
M  V30 7800 H 740.021 0.336786 0.580358 0
M  V30 7801 H 742.565 1.52799 1.35914 0
M  V30 7802 H 740.72 0.912632 3.76497 0
M  V30 7803 H 741.134 3.0723 4.251 0
M  V30 7804 H 742.608 1.6882 5.25551 0
M  V30 7805 H 743.085 0.231851 4.38588 0
M  V30 7806 H 743.691 1.81465 3.84643 0
M  V30 7807 N 742.006 -1.2595 0.947325 0
M  V30 7808 C 743.234 -1.97544 0.615127 0
M  V30 7809 C 743.649 -1.70484 -0.811221 0
M  V30 7810 O 743.006 -0.97662 -1.5417 0
M  V30 7811 C 743.057 -3.51236 0.855328 0
M  V30 7812 O 742.778 -3.77359 2.22558 0
M  V30 7813 C 744.279 -4.40066 0.534515 0
M  V30 7814 H 741.499 -0.629888 0.231263 0
M  V30 7815 H 744.043 -1.60308 1.26971 0
M  V30 7816 H 742.198 -3.8661 0.247266 0
M  V30 7817 H 742.612 -4.71857 2.29022 0
M  V30 7818 H 744.086 -5.46838 0.753168 0
M  V30 7819 H 744.563 -4.35982 -0.530701 0
M  V30 7820 H 745.169 -4.10245 1.12158 0
M  V30 7821 N 743.484 -0.715051 -1.40445 0
M  V30 7822 C 744.895 -0.326763 -1.83818 0
M  V30 7823 C 745.246 1.13851 -1.59789 0
M  V30 7824 O 744.371 1.87611 -1.07848 0
M  V30 7825 C 744.966 -0.586297 -3.33688 0
M  V30 7826 C 743.525 -0.251724 -3.75557 0
M  V30 7827 C 742.672 -0.858928 -2.63662 0
M  V30 7828 H 745.623 -0.914241 -1.2972 0
M  V30 7829 H 745.644 0.148636 -3.8021 0
M  V30 7830 H 745.156 -1.65281 -3.51146 0
M  V30 7831 H 743.257 0.809754 -3.63695 0
M  V30 7832 H 743.37 -0.720348 -4.73654 0
M  V30 7833 H 741.734 -0.287013 -2.53078 0
M  V30 7834 H 742.517 -1.9297 -2.83932 0
M  V30 7835 N 744.962 1.50701 -0.461195 0
M  V30 7836 C 746.19 2.06681 0.0951756 0
M  V30 7837 C 746.605 1.32615 1.34382 0
M  V30 7838 O 745.962 0.392531 1.78229 0
M  V30 7839 C 746.013 3.59354 0.393316 0
M  V30 7840 O 745.734 4.30626 -0.805797 0
M  V30 7841 C 747.235 4.31926 0.997744 0
M  V30 7842 H 744.455 0.670995 -0.00267259 0
M  V30 7843 H 746.999 1.93991 -0.647137 0
M  V30 7844 H 745.154 3.7188 1.08555 0
M  V30 7845 H 745.568 5.21667 -0.544409 0
M  V30 7846 H 747.042 5.39756 1.15619 0
M  V30 7847 H 747.519 3.91772 1.98523 0
M  V30 7848 H 748.125 4.23905 0.344188 0
M  V30 7849 N 746.441 0.193421 1.56409 0
M  V30 7850 C 747.371 -0.723334 2.22014 0
M  V30 7851 C 748.352 -1.22254 1.1827 0
M  V30 7852 O 749.537 -1.27168 1.46771 0
M  V30 7853 C 746.667 -1.94366 2.87818 0
M  V30 7854 C 745.621 -1.57943 3.97791 0
M  V30 7855 C 744.947 -2.87623 4.50752 0
M  V30 7856 C 746.247 -0.790639 5.16281 0
M  V30 7857 H 747.941 -0.176426 2.9888 0
M  V30 7858 H 745.487 -0.0834166 1.43758 0
M  V30 7859 H 747.44 -2.5902 3.32396 0
M  V30 7860 H 746.164 -2.51507 2.08355 0
M  V30 7861 H 744.823 -0.956482 3.53903 0
M  V30 7862 H 744.471 -3.4285 3.68053 0
M  V30 7863 H 744.171 -2.63998 5.24956 0
M  V30 7864 H 745.695 -3.53268 4.9803 0
M  V30 7865 H 747.109 -1.34024 5.57414 0
M  V30 7866 H 745.506 -0.65258 5.96541 0
M  V30 7867 H 746.576 0.208633 4.84451 0
M  V30 7868 N 747.919 -1.57396 -0.0801906 0
M  V30 7869 C 749.144 -1.91437 -0.797909 0
M  V30 7870 C 749.569 -0.789075 -1.70749 0
M  V30 7871 O 748.927 0.25857 -1.79447 0
M  V30 7872 C 748.975 -3.24402 -1.57467 0
M  V30 7873 O 748.079 -3.13043 -2.68473 0
M  V30 7874 H 747.42 -0.627109 -0.218243 0
M  V30 7875 H 749.95 -2.04537 -0.050949 0
M  V30 7876 H 749.96 -3.58072 -1.95571 0
M  V30 7877 H 748.635 -4.05884 -0.907229 0
M  V30 7878 H 747.212 -2.90915 -2.33287 0
M  V30 7879 N 749.397 0.351382 -1.53633 0
M  V30 7880 C 750.637 1.10102 -1.72212 0
M  V30 7881 C 751.001 1.86128 -0.471198 0
M  V30 7882 O 752.202 2.63445 -0.533887 0
M  V30 7883 C 750.473 2.02348 -2.94602 0
M  V30 7884 S 752.032 2.84641 -3.33954 0
M  V30 7885 H 748.85 0.372145 -0.60583 0
M  V30 7886 H 751.452 0.38044 -1.91763 0
M  V30 7887 H 750.156 1.45283 -3.83824 0
M  V30 7888 H 749.687 2.78856 -2.77493 0
M  V30 7889 H 751.702 4.04724 -2.87076 0
M  V30 7890 N 750.875 1.45233 0.611969 0
M  V30 7891 C 752.1 1.52767 1.40274 0
M  V30 7892 C 752.525 0.159701 1.87421 0
M  V30 7893 O 751.883 -0.854837 1.59882 0
M  V30 7894 C 751.931 2.51286 2.58626 0
M  V30 7895 O 751.035 2.02764 3.59111 0
M  V30 7896 H 750.376 0.515141 0.418958 0
M  V30 7897 H 752.906 1.90547 0.745188 0
M  V30 7898 H 752.916 2.69949 3.05927 0
M  V30 7899 H 751.591 3.50641 2.23659 0
M  V30 7900 H 750.168 1.93957 3.18489 0
M  V30 7901 N 752.353 -0.854086 1.3245 0
M  V30 7902 C 753.283 -1.97827 1.24044 0
M  V30 7903 C 754.264 -1.69646 0.124166 0
M  V30 7904 O 755.449 -1.91687 0.31143 0
M  V30 7905 C 752.579 -3.33673 0.963324 0
M  V30 7906 C 751.533 -3.76207 2.04089 0
M  V30 7907 C 750.859 -5.0969 1.61618 0
M  V30 7908 C 752.159 -3.91612 3.45597 0
M  V30 7909 H 753.853 -2.05118 2.18099 0
M  V30 7910 H 751.399 -0.985489 1.04996 0
M  V30 7911 H 753.352 -4.11871 0.891061 0
M  V30 7912 H 752.076 -3.26597 -0.0128649 0
M  V30 7913 H 750.735 -3.0026 2.10332 0
M  V30 7914 H 750.383 -4.99072 0.627418 0
M  V30 7915 H 750.083 -5.3912 2.33717 0
M  V30 7916 H 751.607 -5.90381 1.55829 0
M  V30 7917 H 753.021 -4.60163 3.4194 0
M  V30 7918 H 751.418 -4.3246 4.16051 0
M  V30 7919 H 752.488 -2.9451 3.85217 0
M  V30 7920 N 753.831 -1.1567 -1.07043 0
M  V30 7921 C 754.761 -0.879348 -2.16309 0
M  V30 7922 C 755.742 0.171311 -1.69235 0
M  V30 7923 O 756.927 0.0250175 -1.94184 0
M  V30 7924 C 754.057 -0.371307 -3.45309 0
M  V30 7925 C 753.011 -1.359 -4.05851 0
M  V30 7926 C 752.337 -0.709678 -5.29969 0
M  V30 7927 C 753.637 -2.72606 -4.45514 0
M  V30 7928 H 755.331 -1.79308 -2.39768 0
M  V30 7929 H 752.877 -0.863558 -1.15233 0
M  V30 7930 H 754.83 -0.164798 -4.21078 0
M  V30 7931 H 753.554 0.577906 -3.21446 0
M  V30 7932 H 752.213 -1.55193 -3.32131 0
M  V30 7933 H 751.861 0.245782 -5.02399 0
M  V30 7934 H 751.561 -1.36886 -5.71433 0
M  V30 7935 H 753.085 -0.513015 -6.08441 0
M  V30 7936 H 754.499 -2.57141 -5.12398 0
M  V30 7937 H 752.896 -3.34927 -4.97939 0
M  V30 7938 H 753.966 -3.28434 -3.56734 0
M  V30 7939 N 755.309 1.25446 -0.953992 0
M  V30 7940 C 756.557 1.92762 -0.607227 0
M  V30 7941 C 756.878 1.7509 0.858399 0
M  V30 7942 O 756.148 1.11416 1.61132 0
M  V30 7943 H 754.728 0.713377 -0.221591 0
M  V30 7944 H 757.39 1.52625 -1.21209 0
M  V30 7945 H 756.486 3.00695 -0.835998 0
M  V30 7946 N 756.787 0.722489 1.40064 0
M  V30 7947 C 758.064 0.191829 1.94657 0
M  V30 7948 C 758.444 -1.30389 1.66018 0
M  V30 7949 O 757.792 -2.06342 0.981588 0
M  V30 7950 C 758.002 0.511978 3.45224 0
M  V30 7951 C 759.35 0.454426 4.22161 0
M  V30 7952 O 760.374 0.448438 3.53366 0
M  V30 7953 O 759.233 0.437986 5.44742 0
M  V30 7954 H 756.327 0.0307821 0.826427 0
M  V30 7955 H 758.873 0.800493 1.49634 0
M  V30 7956 H 757.645 1.54622 3.59455 0
M  V30 7957 H 757.268 -0.126296 3.97399 0
M  V30 7958 N 758.265 -1.50454 0.469181 0
M  V30 7959 C 759.542 -1.9504 -0.147955 0
M  V30 7960 C 759.922 -1.40946 -1.57154 0
M  V30 7961 O 759.27 -0.609663 -2.20217 0
M  V30 7962 C 759.48 -3.48875 -0.0932198 0
M  V30 7963 C 760.828 -4.23655 -0.283056 0
M  V30 7964 O 761.852 -3.55795 -0.169892 0
M  V30 7965 O 760.711 -5.44102 -0.511396 0
M  V30 7966 H 757.805 -0.819283 -0.11271 0
M  V30 7967 H 760.351 -1.6123 0.529446 0
M  V30 7968 H 759.123 -3.80791 0.900784 0
M  V30 7969 H 758.746 -3.89217 -0.812161 0
M  V30 7970 N 759.743 -0.201713 -1.56304 0
M  V30 7971 C 760.706 0.702811 -2.18159 0
M  V30 7972 C 761.706 1.13619 -1.13787 0
M  V30 7973 O 762.896 1.0482 -1.39134 0
M  V30 7974 C 760.028 1.96032 -2.78898 0
M  V30 7975 H 761.221 0.163836 -2.99452 0
M  V30 7976 H 758.774 0.04791 -1.56227 0
M  V30 7977 H 759.509 2.54165 -2.01421 0
M  V30 7978 H 759.294 1.65824 -3.55309 0
M  V30 7979 H 760.784 2.60519 -3.26373 0
M  V30 7980 N 761.222 1.57436 0.0718424 0
M  V30 7981 C 762.152 2.06724 1.08571 0
M  V30 7982 C 763.133 0.960731 1.40371 0
M  V30 7983 O 764.318 1.23345 1.49999 0
M  V30 7984 C 761.448 2.51112 2.39916 0
M  V30 7985 C 760.402 3.65639 2.22469 0
M  V30 7986 C 759.728 3.96082 3.59198 0
M  V30 7987 C 761.028 4.95687 1.64596 0
M  V30 7988 H 762.722 2.91679 0.675569 0
M  V30 7989 H 760.268 1.40319 0.32352 0
M  V30 7990 H 762.221 2.84206 3.11135 0
M  V30 7991 H 760.945 1.63186 2.8291 0
M  V30 7992 H 759.604 3.32828 1.53691 0
M  V30 7993 H 759.252 3.05287 3.99761 0
M  V30 7994 H 758.952 4.73199 3.48362 0
M  V30 7995 H 760.476 4.31672 4.31847 0
M  V30 7996 H 761.89 5.27011 2.25681 0
M  V30 7997 H 760.287 5.77126 1.64457 0
M  V30 7998 H 761.357 4.8108 0.60744 0
M  V30 7999 N 762.7 -0.34323 1.53817 0
M  V30 8000 C 763.946 -1.08504 1.71332 0
M  V30 8001 C 764.279 -1.88294 0.475285 0
M  V30 8002 O 763.554 -1.87205 -0.527688 0
M  V30 8003 C 763.837 -2.02597 2.97702 0
M  V30 8004 C 763.69 -1.26268 4.31713 0
M  V30 8005 C 765.009 -3.0241 3.19744 0
M  V30 8006 H 762.128 -0.393072 0.623429 0
M  V30 8007 H 764.77 -0.363579 1.86489 0
M  V30 8008 H 762.92 -2.64118 2.8491 0
M  V30 8009 H 764.592 -0.673594 4.56356 0
M  V30 8010 H 762.835 -0.564696 4.30109 0
M  V30 8011 H 763.506 -1.95253 5.16314 0
M  V30 8012 H 765.982 -2.51004 3.31868 0
M  V30 8013 H 764.858 -3.65449 4.09558 0
M  V30 8014 H 765.119 -3.73806 2.36054 0
M  V30 8015 N 764.178 -1.45556 -0.604258 0
M  V30 8016 C 765.11 -1.50494 -1.72871 0
M  V30 8017 C 766.123 -0.395368 -1.57926 0
M  V30 8018 O 767.312 -0.662603 -1.65746 0
M  V30 8019 C 764.412 -1.34874 -3.10906 0
M  V30 8020 C 763.585 -2.59564 -3.52058 0
M  V30 8021 C 762.644 -2.38453 -4.6907 0
M  V30 8022 O 761.67 -3.12082 -4.76018 0
M  V30 8023 N 762.872 -1.43229 -5.62553 0
M  V30 8024 H 765.637 -2.4744 -1.69097 0
M  V30 8025 H 763.198 -1.41338 -0.789636 0
M  V30 8026 H 765.19 -1.18556 -3.86945 0
M  V30 8027 H 763.76 -0.461913 -3.09168 0
M  V30 8028 H 762.98 -2.90974 -2.65946 0
M  V30 8029 H 764.268 -3.42441 -3.76313 0
M  V30 8030 H 763.666 -0.824714 -5.59656 0
M  V30 8031 H 762.223 -1.32882 -6.38111 0
M  V30 8032 N 765.656 0.84705 -1.32902 0
M  V30 8033 C 766.902 1.60414 -1.24078 0
M  V30 8034 C 767.235 1.93217 0.195105 0
M  V30 8035 O 766.51 1.58001 1.13428 0
M  V30 8036 C 766.793 2.91951 -2.108 0
M  V30 8037 C 766.646 2.6588 -3.62805 0
M  V30 8038 C 767.965 3.93299 -1.97494 0
M  V30 8039 H 765.084 0.58206 -0.452079 0
M  V30 8040 H 767.726 0.977562 -1.62922 0
M  V30 8041 H 765.876 3.45425 -1.77802 0
M  V30 8042 H 767.548 2.18902 -4.06054 0
M  V30 8043 H 765.791 1.99716 -3.85092 0
M  V30 8044 H 766.462 3.59574 -4.1882 0
M  V30 8045 H 768.938 3.49105 -2.26417 0
M  V30 8046 H 767.814 4.8318 -2.60438 0
M  V30 8047 H 768.075 4.31887 -0.944782 0
M  V30 8048 N 767.134 1.16236 1.06428 0
M  V30 8049 C 768.364 0.965782 1.82637 0
M  V30 8050 C 768.772 -0.489284 1.82764 0
M  V30 8051 O 768.115 -1.35133 1.24438 0
M  V30 8052 C 768.177 1.41458 3.30499 0
M  V30 8053 C 767.841 2.88926 3.54077 0
M  V30 8054 C 768.838 3.86939 3.47238 0
M  V30 8055 C 766.523 3.26814 3.81442 0
M  V30 8056 C 768.517 5.20841 3.67428 0
M  V30 8057 C 766.204 4.60886 4.01282 0
M  V30 8058 C 767.202 5.57708 3.94272 0
M  V30 8059 O 766.89 6.89357 4.13573 0
M  V30 8060 H 766.622 0.342569 0.582772 0
M  V30 8061 H 769.176 1.54641 1.35187 0
M  V30 8062 H 767.406 0.777426 3.78805 0
M  V30 8063 H 769.095 1.18563 3.88198 0
M  V30 8064 H 769.861 3.59014 3.26089 0
M  V30 8065 H 765.74 2.5203 3.86008 0
M  V30 8066 H 769.284 5.96401 3.61873 0
M  V30 8067 H 765.181 4.88522 4.21921 0
M  V30 8068 H 765.949 6.95913 4.30869 0
M  V30 8069 N 768.612 -1.24939 0.960631 0
M  V30 8070 C 770.023 -1.74701 0.658529 0
M  V30 8071 C 770.374 -1.77967 -0.825959 0
M  V30 8072 O 769.499 -1.40444 -1.64634 0
M  V30 8073 C 770.094 -3.17263 1.18867 0
M  V30 8074 C 768.653 -3.64561 0.936614 0
M  V30 8075 C 767.8 -2.43423 1.32817 0
M  V30 8076 H 770.751 -1.10741 1.13676 0
M  V30 8077 H 770.772 -3.76481 0.551589 0
M  V30 8078 H 770.284 -3.14854 2.26912 0
M  V30 8079 H 768.385 -3.72378 -0.128608 0
M  V30 8080 H 768.498 -4.52392 1.57729 0
M  V30 8081 H 766.862 -2.43513 0.746548 0
M  V30 8082 H 767.645 -2.437 2.41796 0
M  V30 8083 N 770.09 -0.729906 -1.39679 0
M  V30 8084 C 771.367 -0.202149 -1.94553 0
M  V30 8085 C 771.747 1.29507 -1.66707 0
M  V30 8086 O 771.095 2.05819 -0.992517 0
M  V30 8087 C 771.305 -0.530279 -3.44948 0
M  V30 8088 C 772.653 -0.476808 -4.21914 0
M  V30 8089 O 773.677 -0.467171 -3.53123 0
M  V30 8090 O 772.536 -0.466869 -5.44502 0
M  V30 8091 H 769.63 -0.0351644 -0.826252 0
M  V30 8092 H 772.176 -0.808417 -1.49207 0
M  V30 8093 H 770.948 -1.56526 -3.5863 0
M  V30 8094 H 770.571 0.10522 -3.97461 0
M  V30 8095 N 771.568 1.50203 -0.477153 0
M  V30 8096 C 772.816 2.01959 0.0755889 0
M  V30 8097 C 773.137 1.3608 1.39668 0
M  V30 8098 O 772.407 0.508136 1.89195 0
M  V30 8099 H 770.987 0.74636 0.0309248 0
M  V30 8100 H 773.649 1.84473 -0.628959 0
M  V30 8101 H 772.745 3.11305 0.222683 0
M  V30 8102 N 773.046 0.209999 1.56195 0
M  V30 8103 C 774.295 -0.425106 1.97169 0
M  V30 8104 C 774.608 -1.61718 1.10031 0
M  V30 8105 O 775.814 -2.32105 1.40853 0
M  V30 8106 C 774.27 -0.80771 3.50719 0
M  V30 8107 C 773.878 0.360902 4.46544 0
M  V30 8108 C 775.622 -1.40906 4.00432 0
M  V30 8109 C 773.529 -0.0434919 5.91384 0
M  V30 8110 H 772.459 -0.162598 0.736259 0
M  V30 8111 H 775.11 0.304382 1.80958 0
M  V30 8112 H 773.492 -1.59429 3.62489 0
M  V30 8113 H 774.666 1.13846 4.46515 0
M  V30 8114 H 772.981 0.874729 4.07109 0
M  V30 8115 H 775.578 -1.72433 5.06133 0
M  V30 8116 H 775.921 -2.32081 3.45607 0
M  V30 8117 H 776.454 -0.686154 3.91838 0
M  V30 8118 H 773.193 0.834448 6.50167 0
M  V30 8119 H 772.713 -0.785598 5.94633 0
M  V30 8120 H 774.392 -0.474176 6.4526 0
M  V30 8121 N 774.524 -1.57472 -0.0634922 0
M  V30 8122 C 775.94 -1.54016 -0.418466 0
M  V30 8123 C 776.14 -0.931376 -1.78683 0
M  V30 8124 O 775.196 -0.537465 -2.46714 0
M  V30 8125 C 776.509 -2.98634 -0.351906 0
M  V30 8126 C 778.057 -3.10012 -0.431494 0
M  V30 8127 C 778.532 -4.56296 -0.394754 0
M  V30 8128 N 780.023 -4.60964 -0.454583 0
M  V30 8129 C 780.758 -5.71643 -0.448501 0
M  V30 8130 N 780.254 -6.91663 -0.396742 0
M  V30 8131 N 782.047 -5.5991 -0.495677 0
M  V30 8132 H 774.198 -1.95409 0.832408 0
M  V30 8133 H 776.461 -0.894769 0.313197 0
M  V30 8134 H 776.167 -3.46766 0.587048 0
M  V30 8135 H 776.041 -3.58955 -1.15893 0
M  V30 8136 H 778.428 -2.61848 -1.36087 0
M  V30 8137 H 778.509 -2.52585 0.404258 0
M  V30 8138 H 778.153 -5.05119 0.530811 0
M  V30 8139 H 778.083 -5.11594 -1.24815 0
M  V30 8140 H 780.574 -3.74598 -0.498496 0
M  V30 8141 H 780.887 -7.71783 -0.396256 0
M  V30 8142 H 779.232 -6.9405 -0.363304 0
M  V30 8143 H 782.423 -4.65046 -0.533864 0
M  V30 8144 H 782.596 -6.46164 -0.487469 0
M  V30 8145 N 776.003 0.335068 -1.53997 0
M  V30 8146 C 776.953 1.4127 -1.7896 0
M  V30 8147 C 777.937 1.474 -0.64513 0
M  V30 8148 O 779.129 1.52127 -0.904785 0
M  V30 8149 C 776.258 2.78292 -2.01018 0
M  V30 8150 C 775.344 2.7652 -3.21555 0
M  V30 8151 N 775.735 2.44374 -4.42849 0
M  V30 8152 C 774.033 3.0766 -3.22895 0
M  V30 8153 C 774.734 2.51049 -5.24737 0
M  V30 8154 N 773.71 2.8702 -4.6165 0
M  V30 8155 H 777.512 1.15327 -2.70327 0
M  V30 8156 H 775.026 0.543483 -1.53036 0
M  V30 8157 H 777.023 3.55949 -2.17039 0
M  V30 8158 H 775.683 3.05175 -1.10898 0
M  V30 8159 H 776.694 2.17422 -4.70051 0
M  V30 8160 H 773.371 3.3966 -2.42771 0
M  V30 8161 H 774.761 2.29283 -6.31569 0
M  V30 8162 N 777.481 1.45874 0.596531 0
M  V30 8163 C 778.73 1.49737 1.35135 0
M  V30 8164 C 779.043 0.147755 1.95041 0
M  V30 8165 O 780.249 0.0640984 2.71424 0
M  V30 8166 C 778.705 2.6378 2.44843 0
M  V30 8167 C 778.313 4.05102 1.91301 0
M  V30 8168 C 780.057 2.769 3.21755 0
M  V30 8169 C 777.964 5.10508 2.98557 0
M  V30 8170 H 776.894 0.557219 0.507959 0
M  V30 8171 H 779.545 1.72046 0.638147 0
M  V30 8172 H 777.927 2.34774 3.189 0
M  V30 8173 H 779.101 4.43836 1.2388 0
M  V30 8174 H 777.416 3.96528 1.271 0
M  V30 8175 H 780.013 3.52819 4.01775 0
M  V30 8176 H 780.356 1.83924 3.73467 0
M  V30 8177 H 780.889 3.05485 2.54802 0
M  V30 8178 H 777.628 6.0523 2.51749 0
M  V30 8179 H 777.148 4.76332 3.6451 0
M  V30 8180 H 778.827 5.35745 3.62748 0
M  V30 8181 N 778.959 -0.83999 1.33349 0
M  V30 8182 C 780.375 -1.13049 1.12659 0
M  V30 8183 C 780.575 -2.01328 -0.0832613 0
M  V30 8184 O 779.631 -2.40669 -0.763856 0
M  V30 8185 C 780.944 -1.79366 2.41347 0
M  V30 8186 C 782.492 -1.91937 2.47243 0
M  V30 8187 C 782.967 -2.6167 3.75889 0
M  V30 8188 N 784.458 -2.69184 3.76954 0
M  V30 8189 C 785.193 -3.23827 4.73206 0
M  V30 8190 N 784.689 -3.79166 5.79832 0
M  V30 8191 N 786.482 -3.22068 4.60683 0
M  V30 8192 H 778.633 -0.252432 2.10895 0
M  V30 8193 H 780.896 -0.174501 0.931801 0
M  V30 8194 H 780.602 -1.2196 3.29877 0
M  V30 8195 H 780.476 -2.79396 2.53412 0
M  V30 8196 H 782.863 -2.48498 1.59163 0
M  V30 8197 H 782.944 -0.908604 2.39119 0
M  V30 8198 H 782.588 -2.05769 4.64351 0
M  V30 8199 H 782.518 -3.63217 3.81289 0
M  V30 8200 H 785.009 -2.2994 2.99893 0
M  V30 8201 H 785.322 -4.19061 6.49313 0
M  V30 8202 H 783.667 -3.77457 5.83568 0
M  V30 8203 H 786.858 -2.78092 3.7654 0
M  V30 8204 H 787.031 -3.64351 5.35866 0
M  V30 8205 N 780.437 -1.16799 -1.0581 0
M  V30 8206 C 781.4 -0.881396 -2.11575 0
M  V30 8207 C 782.4 0.12574 -1.60308 0
M  V30 8208 O 783.59 -0.105716 -1.73879 0
M  V30 8209 C 780.722 -0.319037 -3.39404 0
M  V30 8210 H 781.915 -1.81907 -2.38432 0
M  V30 8211 H 779.468 -0.977597 -1.21954 0
M  V30 8212 H 780.203 0.626082 -3.18199 0
M  V30 8213 H 779.988 -1.04481 -3.77923 0
M  V30 8214 H 781.478 -0.13663 -4.17376 0
M  V30 8215 N 781.915 1.24427 -0.967243 0
M  V30 8216 C 783.192 1.87831 -0.545776 0
M  V30 8217 C 783.572 1.87126 0.977099 0
M  V30 8218 O 782.92 1.34357 1.84826 0
M  V30 8219 C 783.13 3.29967 -1.13679 0
M  V30 8220 C 784.478 4.06654 -1.22139 0
M  V30 8221 O 785.502 3.39136 -1.08926 0
M  V30 8222 O 784.361 5.27455 -1.43017 0
M  V30 8223 H 781.455 0.806745 -0.181912 0
M  V30 8224 H 784.001 1.32403 -1.06148 0
M  V30 8225 H 782.773 3.24977 -2.17958 0
M  V30 8226 H 782.396 3.92969 -0.605093 0
M  V30 8227 N 783.393 0.737304 1.3929 0
M  V30 8228 C 784.34 0.0988364 2.30588 0
M  V30 8229 C 785.31 -0.727206 1.49335 0
M  V30 8230 O 786.495 -0.686694 1.78014 0
M  V30 8231 C 783.635 -0.800734 3.35682 0
M  V30 8232 C 782.748 0.0381731 4.31983 0
M  V30 8233 C 781.883 -0.862884 5.24145 0
M  V30 8234 C 780.922 -0.0193639 6.12097 0
M  V30 8235 N 780.059 -0.87648 6.96608 0
M  V30 8236 H 784.899 0.883031 2.84617 0
M  V30 8237 H 782.436 0.447111 1.4014 0
M  V30 8238 H 784.394 -1.33676 3.95205 0
M  V30 8239 H 783.024 -1.55088 2.83103 0
M  V30 8240 H 782.076 0.691641 3.74059 0
M  V30 8241 H 783.388 0.690294 4.94 0
M  V30 8242 H 782.542 -1.46667 5.88705 0
M  V30 8243 H 781.281 -1.54878 4.62454 0
M  V30 8244 H 780.286 0.597202 5.46547 0
M  V30 8245 H 781.511 0.663348 6.75852 0
M  V30 8246 H 779.457 -1.54762 6.37483 0
M  V30 8247 H 779.374 -0.280892 7.55478 0
M  V30 8248 H 780.642 -1.46575 7.65595 0
M  V30 8249 N 784.871 -1.49948 0.485112 0
M  V30 8250 C 786.287 -1.58984 0.140096 0
M  V30 8251 C 786.487 -1.49194 -1.35438 0
M  V30 8252 O 785.543 -1.35765 -2.12894 0
M  V30 8253 C 786.856 -2.92372 0.702769 0
M  V30 8254 C 788.404 -3.05801 0.66745 0
M  V30 8255 C 788.879 -4.41785 1.20791 0
M  V30 8256 N 790.37 -4.48234 1.16792 0
M  V30 8257 C 791.105 -5.51871 1.55646 0
M  V30 8258 N 790.601 -6.62692 2.02016 0
M  V30 8259 N 792.394 -5.42494 1.47161 0
M  V30 8260 H 784.545 -1.54555 1.45693 0
M  V30 8261 H 786.808 -0.731206 0.603359 0
M  V30 8262 H 786.514 -3.05056 1.75025 0
M  V30 8263 H 786.388 -3.76885 0.154205 0
M  V30 8264 H 788.775 -2.92757 -0.371157 0
M  V30 8265 H 788.856 -2.23011 1.25298 0
M  V30 8266 H 788.5 -4.55579 2.24522 0
M  V30 8267 H 788.43 -5.23188 0.598464 0
M  V30 8268 H 790.921 -3.68718 0.827982 0
M  V30 8269 H 791.234 -7.3785 2.29775 0
M  V30 8270 H 789.579 -6.63775 2.05979 0
M  V30 8271 H 792.77 -4.54806 1.10765 0
M  V30 8272 H 792.943 -6.2314 1.77766 0
M  V30 8273 N 786.349 -0.21828 -1.56081 0
M  V30 8274 C 787.595 0.414921 -1.9851 0
M  V30 8275 C 787.928 1.59648 -1.10573 0
M  V30 8276 O 787.203 1.93818 -0.162695 0
M  V30 8277 C 787.486 0.852647 -3.4986 0
M  V30 8278 C 787.339 -0.33232 -4.48571 0
M  V30 8279 C 788.658 1.70998 -4.05521 0
M  V30 8280 H 785.777 0.149344 -0.72171 0
M  V30 8281 H 788.419 -0.313858 -1.8739 0
M  V30 8282 H 786.569 1.47362 -3.59467 0
M  V30 8283 H 788.241 -0.970418 -4.50977 0
M  V30 8284 H 786.484 -0.980302 -4.22578 0
M  V30 8285 H 787.155 0.0168407 -5.51997 0
M  V30 8286 H 789.631 1.18606 -3.98838 0
M  V30 8287 H 788.507 1.98517 -5.11744 0
M  V30 8288 H 788.768 2.67219 -3.52202 0
M  V30 8289 N 787.827 1.57504 0.0551401 0
M  V30 8290 C 788.775 2.05884 1.08233 0
M  V30 8291 C 789.769 0.967383 1.39061 0
M  V30 8292 O 790.975 1.15242 1.38273 0
M  V30 8293 H 787.35 0.656673 0.366449 0
M  V30 8294 H 789.321 2.91273 0.648269 0
M  V30 8295 C 788.07 2.53221 2.38273 0
M  V30 8296 H 787.393 3.36809 2.15406 0
M  V30 8297 H 788.833 2.9081 3.08554 0
M  V30 8298 C 787.292 1.42218 3.05411 0
M  V30 8299 O 787.822 0.773638 3.9418 0
M  V30 8300 N 786.028 1.16316 2.66306 0
M  V30 8301 H 785.575 1.69237 1.94207 0
M  V30 8302 H 785.533 0.422534 3.11548 0
M  V30 8303 N 789.305 -0.326896 1.54172 0
M  V30 8304 C 790.215 -1.42525 1.86343 0
M  V30 8305 C 791.231 -1.56764 0.75505 0
M  V30 8306 O 792.407 -1.71924 1.04901 0
M  V30 8307 C 789.472 -2.77286 2.08119 0
M  V30 8308 C 788.533 -2.7225 3.31931 0
M  V30 8309 C 787.766 -4.00584 3.52659 0
M  V30 8310 O 787.989 -4.98686 2.76891 0
M  V30 8311 O 786.923 -4.04045 4.46129 0
M  V30 8312 H 790.749 -1.18249 2.79734 0
M  V30 8313 H 788.334 -0.520614 1.40036 0
M  V30 8314 H 790.216 -3.57065 2.23791 0
M  V30 8315 H 788.891 -3.01459 1.17917 0
M  V30 8316 H 787.798 -1.91033 3.21647 0
M  V30 8317 H 789.131 -2.53032 4.2218 0
M  V30 8318 N 790.784 -1.46188 -0.588786 0
M  V30 8319 C 792.03 -1.52396 -1.34711 0
M  V30 8320 C 792.385 -0.170846 -1.9164 0
M  V30 8321 O 791.678 0.819714 -1.7318 0
M  V30 8322 C 791.872 -2.55364 -2.50048 0
M  V30 8323 C 791.701 -4.00554 -2.04417 0
M  V30 8324 C 790.471 -4.68334 -1.89715 0
M  V30 8325 C 792.669 -4.88533 -1.60747 0
M  V30 8326 N 790.651 -5.98167 -1.38091 0
M  V30 8327 C 792.022 -6.08143 -1.20672 0
M  V30 8328 C 794.077 -4.75236 -1.4851 0
M  V30 8329 C 792.78 -7.15927 -0.695782 0
M  V30 8330 C 794.806 -5.83085 -0.988196 0
M  V30 8331 C 794.168 -7.01864 -0.59719 0
M  V30 8332 H 790.267 -0.61252 -0.486151 0
M  V30 8333 H 792.851 -1.8277 -0.671063 0
M  V30 8334 H 791.022 -2.2691 -3.15225 0
M  V30 8335 H 792.754 -2.51603 -3.16983 0
M  V30 8336 H 789.509 -4.23763 -2.11476 0
M  V30 8337 H 789.933 -6.67254 -1.14458 0
M  V30 8338 H 794.575 -3.83801 -1.7736 0
M  V30 8339 H 792.293 -8.07135 -0.394857 0
M  V30 8340 H 795.879 -5.74836 -0.897504 0
M  V30 8341 H 794.759 -7.83895 -0.218621 0
M  V30 8342 N 792.262 0.832906 -1.33792 0
M  V30 8343 C 793.209 1.94314 -1.24541 0
M  V30 8344 C 794.179 1.65646 -0.122753 0
M  V30 8345 O 795.364 1.88394 -0.30204 0
M  V30 8346 C 792.504 3.30395 -0.996641 0
M  V30 8347 C 791.617 3.71422 -2.20612 0
M  V30 8348 C 790.752 4.96401 -1.89101 0
M  V30 8349 C 789.791 5.2998 -3.06247 0
M  V30 8350 N 788.928 6.46137 -2.74685 0
M  V30 8351 H 793.768 2.01559 -2.19495 0
M  V30 8352 H 791.305 0.986243 -1.09141 0
M  V30 8353 H 793.263 4.08803 -0.832817 0
M  V30 8354 H 791.893 3.22691 -0.0838242 0
M  V30 8355 H 790.945 2.88488 -2.47949 0
M  V30 8356 H 792.257 3.92215 -3.0817 0
M  V30 8357 H 791.411 5.82572 -1.69396 0
M  V30 8358 H 790.15 4.7759 -0.987882 0
M  V30 8359 H 789.155 4.42312 -3.26559 0
M  V30 8360 H 790.38 5.50737 -3.97323 0
M  V30 8361 H 788.326 6.28801 -1.86938 0
M  V30 8362 H 788.243 6.67054 -3.55774 0
M  V30 8363 H 789.511 7.35403 -2.58461 0
M  V30 8364 N 793.74 1.17359 1.05189 0
M  V30 8365 C 794.968 0.986529 1.81866 0
M  V30 8366 C 795.383 -0.46522 1.82979 0
M  V30 8367 O 794.74 -1.32305 1.25705 0
M  V30 8368 C 794.791 1.52021 3.27982 0
M  V30 8369 O 794.512 2.91511 3.27037 0
M  V30 8370 C 796.013 1.37774 4.21347 0
M  V30 8371 H 793.233 0.349021 0.573084 0
M  V30 8372 H 795.777 1.55648 1.32643 0
M  V30 8373 H 793.932 0.992287 3.74476 0
M  V30 8374 H 794.346 3.16178 4.18488 0
M  V30 8375 H 795.82 1.7993 5.21852 0
M  V30 8376 H 796.297 0.32483 4.37997 0
M  V30 8377 H 796.903 1.89583 3.80708 0
M  V30 8378 N 795.218 -1.23913 0.973828 0
M  V30 8379 C 796.629 -1.73992 0.677021 0
M  V30 8380 C 796.98 -1.78833 -0.807036 0
M  V30 8381 O 796.105 -1.42183 -1.63135 0
M  V30 8382 C 796.7 -3.15985 1.22226 0
M  V30 8383 C 795.259 -3.63547 0.975228 0
M  V30 8384 C 794.406 -2.42001 1.35392 0
M  V30 8385 H 797.357 -1.09529 1.14844 0
M  V30 8386 H 797.378 -3.75875 0.591489 0
M  V30 8387 H 796.89 -3.12429 2.30238 0
M  V30 8388 H 794.991 -3.72493 -0.0891047 0
M  V30 8389 H 795.104 -4.50693 1.62518 0
M  V30 8390 H 793.468 -2.42708 0.772334 0
M  V30 8391 H 794.251 -2.41122 2.44367 0
M  V30 8392 N 796.696 -0.74468 -1.38897 0
M  V30 8393 C 797.944 -0.296298 -1.99916 0
M  V30 8394 C 798.265 1.12325 -1.59399 0
M  V30 8395 O 797.535 1.76658 -0.846689 0
M  V30 8396 H 796.115 -0.106561 -0.73936 0
M  V30 8397 H 798.777 -0.956793 -1.69798 0
M  V30 8398 H 797.873 -0.352356 -3.10105 0
M  V30 8399 N 798.174 1.49689 -0.493057 0
M  V30 8400 C 799.121 2.28976 0.28959 0
M  V30 8401 C 800.091 1.35011 0.967536 0
M  V30 8402 O 801.276 1.63964 0.975736 0
M  V30 8403 C 798.416 3.1748 1.35279 0
M  V30 8404 C 797.529 4.26496 0.687418 0
M  V30 8405 C 796.664 5.02226 1.73038 0
M  V30 8406 C 795.703 6.03089 1.04645 0
M  V30 8407 N 794.84 6.72014 2.03325 0
M  V30 8408 H 799.68 2.954 -0.392798 0
M  V30 8409 H 797.217 1.45657 -0.205554 0
M  V30 8410 H 799.175 3.67162 1.98111 0
M  V30 8411 H 797.805 2.53057 2.00405 0
M  V30 8412 H 796.857 3.80362 -0.0540001 0
M  V30 8413 H 798.169 4.98578 0.14864 0
M  V30 8414 H 797.323 5.55737 2.43395 0
M  V30 8415 H 796.062 4.29899 2.303 0
M  V30 8416 H 795.067 5.48817 0.328606 0
M  V30 8417 H 796.292 6.77398 0.480428 0
M  V30 8418 H 794.238 6.02464 2.59564 0
M  V30 8419 H 794.155 7.40046 1.54492 0
M  V30 8420 H 795.423 7.30133 2.72995 0
M  V30 8421 N 799.652 0.226554 1.55963 0
M  V30 8422 C 800.599 -0.681504 2.20509 0
M  V30 8423 C 801.569 -1.1866 1.16229 0
M  V30 8424 O 802.754 -1.24478 1.44602 0
M  V30 8425 C 799.894 -1.88183 2.89277 0
M  V30 8426 C 799.007 -1.41517 4.08163 0
M  V30 8427 C 798.142 -2.57346 4.647 0
M  V30 8428 C 797.181 -2.07441 5.75877 0
M  V30 8429 N 796.318 -3.16561 6.26685 0
M  V30 8430 H 801.158 -0.124372 2.9774 0
M  V30 8431 H 798.695 -0.0496333 1.47016 0
M  V30 8432 H 800.653 -2.58666 3.27335 0
M  V30 8433 H 799.283 -2.41177 2.14555 0
M  V30 8434 H 798.335 -0.605099 3.75557 0
M  V30 8435 H 799.647 -1.00928 4.88482 0
M  V30 8436 H 798.801 -3.35903 5.05227 0
M  V30 8437 H 797.54 -3.01227 3.83554 0
M  V30 8438 H 796.545 -1.27347 5.34848 0
M  V30 8439 H 797.77 -1.64554 6.58862 0
M  V30 8440 H 795.716 -3.59914 5.48451 0
M  V30 8441 H 795.633 -2.80239 7.02141 0
M  V30 8442 H 796.901 -3.95238 6.71868 0
M  V30 8443 N 801.13 -1.57531 -0.0467866 0
M  V30 8444 C 802.358 -1.92696 -0.753371 0
M  V30 8445 C 802.773 -0.824792 -1.69831 0
M  V30 8446 O 802.13 0.200155 -1.81399 0
M  V30 8447 C 802.181 -3.27728 -1.52566 0
M  V30 8448 O 801.902 -4.3371 -0.618674 0
M  V30 8449 C 803.403 -3.77066 -2.33101 0
M  V30 8450 H 800.623 -0.636367 -0.212788 0
M  V30 8451 H 803.167 -2.04498 -0.00959361 0
M  V30 8452 H 801.322 -3.17378 -2.22148 0
M  V30 8453 H 801.736 -5.11548 -1.15839 0
M  V30 8454 H 803.21 -4.74109 -2.82709 0
M  V30 8455 H 803.687 -3.07348 -3.13741 0
M  V30 8456 H 804.293 -3.90442 -1.68628 0
M  V30 8457 N 802.608 0.318715 -1.54344 0
M  V30 8458 C 803.857 1.05363 -1.71993 0
M  V30 8459 C 804.17 1.89018 -0.503155 0
M  V30 8460 O 805.376 2.65639 -0.561085 0
M  V30 8461 C 803.832 1.92281 -3.0423 0
M  V30 8462 C 803.44 1.13715 -4.33328 0
M  V30 8463 C 805.184 2.65479 -3.31242 0
M  V30 8464 C 803.091 1.99806 -5.56625 0
M  V30 8465 H 802.021 0.397081 -0.64097 0
M  V30 8466 H 804.672 0.311598 -1.80835 0
M  V30 8467 H 803.054 2.70402 -2.89307 0
M  V30 8468 H 804.228 0.403305 -4.59032 0
M  V30 8469 H 802.543 0.521769 -4.13118 0
M  V30 8470 H 805.14 3.30209 -4.20555 0
M  V30 8471 H 805.483 3.33374 -2.49334 0
M  V30 8472 H 806.016 1.94417 -3.47054 0
M  V30 8473 H 802.755 1.36411 -6.41149 0
M  V30 8474 H 802.275 2.70911 -5.35133 0
M  V30 8475 H 803.954 2.58277 -5.93213 0
M  V30 8476 N 804.086 1.46499 0.581025 0
M  V30 8477 C 805.332 1.52121 1.34116 0
M  V30 8478 C 805.665 0.173031 1.93428 0
M  V30 8479 O 804.94 -0.815729 1.76568 0
M  V30 8480 C 805.223 2.62108 2.46924 0
M  V30 8481 C 805.076 4.06462 1.92636 0
M  V30 8482 C 806.395 2.68167 3.48962 0
M  V30 8483 H 803.514 0.5538 0.486287 0
M  V30 8484 H 806.156 1.78443 0.652538 0
M  V30 8485 H 804.306 2.39794 3.05665 0
M  V30 8486 H 805.978 4.40068 1.3834 0
M  V30 8487 H 804.221 4.15862 1.23455 0
M  V30 8488 H 804.892 4.79152 2.74076 0
M  V30 8489 H 807.368 2.8823 3.00104 0
M  V30 8490 H 806.244 3.46942 4.2535 0
M  V30 8491 H 806.505 1.74284 4.06297 0
M  V30 8492 N 805.565 -0.825799 1.34232 0
M  V30 8493 C 806.512 -1.93651 1.2557 0
M  V30 8494 C 807.482 -1.65578 0.131536 0
M  V30 8495 O 808.667 -1.88231 0.312027 0
M  V30 8496 C 805.807 -3.29862 1.01415 0
M  V30 8497 C 804.92 -3.70247 2.22579 0
M  V30 8498 C 804.055 -4.95392 1.91731 0
M  V30 8499 C 803.094 -5.28349 3.09053 0
M  V30 8500 N 802.231 -6.44671 2.78107 0
M  V30 8501 H 807.071 -2.00392 2.20561 0
M  V30 8502 H 804.608 -0.980441 1.09662 0
M  V30 8503 H 806.566 -4.08356 0.854485 0
M  V30 8504 H 805.196 -3.22642 0.100936 0
M  V30 8505 H 804.248 -2.87169 2.49476 0
M  V30 8506 H 805.56 -3.90575 3.10246 0
M  V30 8507 H 804.714 -5.81665 1.72484 0
M  V30 8508 H 803.453 -4.77059 1.0132 0
M  V30 8509 H 802.458 -4.40574 3.289 0
M  V30 8510 H 803.683 -5.48622 4.00239 0
M  V30 8511 H 801.629 -6.278 1.9027 0
M  V30 8512 H 801.546 -6.65158 3.59306 0
M  V30 8513 H 802.814 -7.34022 2.62358 0
M  V30 8514 N 807.043 -1.17915 -1.04565 0
M  V30 8515 C 808.283 -0.982331 -1.79247 0
M  V30 8516 C 808.647 0.47998 -1.85904 0
M  V30 8517 O 809.848 0.796078 -2.56741 0
M  V30 8518 C 808.119 -1.61329 -3.18916 0
M  V30 8519 S 809.678 -1.56355 -4.09998 0
M  V30 8520 H 806.496 -0.352869 -0.617256 0
M  V30 8521 H 809.098 -1.49971 -1.25415 0
M  V30 8522 H 807.802 -2.66993 -3.11678 0
M  V30 8523 H 807.333 -1.09599 -3.77825 0
M  V30 8524 H 809.348 -0.57593 -4.92846 0
M  V30 8525 N 808.521 1.23394 -0.980386 0
M  V30 8526 C 809.484 2.23092 -0.525619 0
M  V30 8527 C 810.484 1.56129 0.384745 0
M  V30 8528 O 811.674 1.73284 0.178439 0
M  V30 8529 C 808.806 3.40074 0.23712 0
M  V30 8530 H 809.999 2.64839 -1.40714 0
M  V30 8531 H 807.552 1.36227 -0.766275 0
M  V30 8532 H 808.287 3.03783 1.13518 0
M  V30 8533 H 808.072 3.89883 -0.416356 0
M  V30 8534 H 809.562 4.14043 0.543892 0
M  V30 8535 N 809.999 0.752036 1.385 0
M  V30 8536 C 811.245 0.307958 2.00448 0
M  V30 8537 C 811.578 -1.10702 1.59558 0
M  V30 8538 O 810.853 -1.75788 0.832391 0
M  V30 8539 C 811.136 0.429092 3.57534 0
M  V30 8540 C 810.989 1.88507 4.08393 0
M  V30 8541 C 812.308 -0.178442 4.39738 0
M  V30 8542 H 809.427 0.113373 0.728228 0
M  V30 8543 H 812.069 0.951389 1.64465 0
M  V30 8544 H 810.219 -0.118695 3.88319 0
M  V30 8545 H 811.891 2.49104 3.88259 0
M  V30 8546 H 810.134 2.40066 3.61318 0
M  V30 8547 H 810.805 1.92099 5.17496 0
M  V30 8548 H 813.281 0.28872 4.15097 0
M  V30 8549 H 812.157 -0.0634349 5.48863 0
M  V30 8550 H 812.418 -1.26655 4.23569 0
M  V30 8551 N 811.477 -1.49425 0.500989 0
M  V30 8552 C 812.425 -2.30771 -0.291149 0
M  V30 8553 C 813.419 -1.3938 -0.962787 0
M  V30 8554 O 814.625 -1.56431 -0.890477 0
M  V30 8555 H 811 -0.743499 -0.11275 0
M  V30 8556 H 812.971 -2.95501 0.414917 0
M  V30 8557 C 811.72 -3.20725 -1.34279 0
M  V30 8558 H 811.043 -3.90975 -0.83538 0
M  V30 8559 H 812.483 -3.80583 -1.86903 0
M  V30 8560 C 810.942 -2.40334 -2.36095 0
M  V30 8561 O 811.472 -2.10749 -3.41976 0
M  V30 8562 N 809.678 -2.02359 -2.08565 0
M  V30 8563 H 809.225 -2.26619 -1.22482 0
M  V30 8564 H 809.183 -1.48878 -2.76916 0
M  V30 8565 N 812.955 -0.234822 -1.55841 0
M  V30 8566 C 813.887 0.702346 -2.18174 0
M  V30 8567 C 814.9 1.14776 -1.15457 0
M  V30 8568 O 816.089 1.07662 -1.42377 0
M  V30 8569 C 813.189 1.96483 -2.76129 0
M  V30 8570 C 812.362 1.67283 -4.04148 0
M  V30 8571 C 811.421 2.7837 -4.46539 0
M  V30 8572 O 810.447 2.46272 -5.13166 0
M  V30 8573 N 811.649 4.07611 -4.1332 0
M  V30 8574 H 814.414 0.169074 -2.99223 0
M  V30 8575 H 811.975 -0.0543164 -1.61809 0
M  V30 8576 H 813.967 2.70016 -3.01452 0
M  V30 8577 H 812.537 2.40822 -1.99307 0
M  V30 8578 H 811.757 0.773278 -3.86541 0
M  V30 8579 H 813.045 1.45222 -4.87635 0
M  V30 8580 H 812.443 4.36527 -3.59806 0
M  V30 8581 H 811 4.77646 -4.43506 0
M  V30 8582 N 814.433 1.57553 0.0384317 0
M  V30 8583 C 815.849 1.54663 0.39391 0
M  V30 8584 C 816.049 0.959685 1.77179 0
M  V30 8585 O 815.105 0.576647 2.45827 0
M  V30 8586 C 816.418 2.99156 0.304352 0
M  V30 8587 C 817.966 3.10659 0.382119 0
M  V30 8588 C 818.441 4.56866 0.322111 0
M  V30 8589 N 819.932 4.61629 0.38119 0
M  V30 8590 C 820.667 5.72284 0.357501 0
M  V30 8591 N 820.163 6.92207 0.286654 0
M  V30 8592 N 821.956 5.60628 0.406538 0
M  V30 8593 H 814.107 1.9406 -0.86339 0
M  V30 8594 H 816.37 0.889673 -0.327392 0
M  V30 8595 H 816.076 3.45788 -0.642141 0
M  V30 8596 H 815.95 3.60753 1.10168 0
M  V30 8597 H 818.337 2.6398 1.31904 0
M  V30 8598 H 818.418 2.5191 -0.444391 0
M  V30 8599 H 818.062 5.0421 -0.611104 0
M  V30 8600 H 817.992 5.13515 1.1666 0
M  V30 8601 H 820.483 3.75343 0.438838 0
M  V30 8602 H 820.796 7.72316 0.273421 0
M  V30 8603 H 819.141 6.9454 0.252841 0
M  V30 8604 H 822.332 4.65836 0.459812 0
M  V30 8605 H 822.505 6.46858 0.384608 0
M  V30 8606 N 815.911 -0.310526 1.54511 0
M  V30 8607 C 816.843 -1.40405 1.8116 0
M  V30 8608 C 817.856 -1.47261 0.694114 0
M  V30 8609 O 819.045 -1.49751 0.971441 0
M  V30 8610 C 816.145 -2.78849 1.92604 0
M  V30 8611 C 815.318 -2.95041 3.22908 0
M  V30 8612 C 814.377 -4.13925 3.24889 0
M  V30 8613 O 813.403 -4.06463 3.98467 0
M  V30 8614 N 814.605 -5.24099 2.496 0
M  V30 8615 H 817.37 -1.17903 2.75534 0
M  V30 8616 H 814.931 -0.500564 1.53967 0
M  V30 8617 H 816.923 -3.5661 1.91342 0
M  V30 8618 H 815.493 -2.94342 1.05268 0
M  V30 8619 H 814.713 -2.04472 3.37023 0
M  V30 8620 H 816.001 -3.02763 4.08916 0
M  V30 8621 H 815.399 -5.33039 1.89435 0
M  V30 8622 H 813.956 -6.0023 2.54102 0
M  V30 8623 N 817.389 -1.46805 -0.573248 0
M  V30 8624 C 818.635 -1.5283 -1.33307 0
M  V30 8625 C 818.968 -0.183287 -1.93333 0
M  V30 8626 O 818.243 0.806354 -1.76998 0
M  V30 8627 C 818.526 -2.63414 -2.45531 0
M  V30 8628 C 818.379 -4.07478 -1.90478 0
M  V30 8629 C 819.698 -2.70014 -3.47535 0
M  V30 8630 H 816.817 -0.556371 -0.483343 0
M  V30 8631 H 819.459 -1.78787 -0.643066 0
M  V30 8632 H 817.609 -2.41412 -3.04389 0
M  V30 8633 H 819.281 -4.40795 -1.36004 0
M  V30 8634 H 817.524 -4.16511 -1.21248 0
M  V30 8635 H 818.195 -4.80598 -2.71531 0
M  V30 8636 H 820.671 -2.89817 -2.98572 0
M  V30 8637 H 819.547 -3.49192 -4.23504 0
M  V30 8638 H 819.808 -1.76436 -4.05367 0
M  V30 8639 N 818.867 0.818669 -1.34668 0
M  V30 8640 C 820.113 1.57746 -1.27453 0
M  V30 8641 C 820.446 1.93588 0.154077 0
M  V30 8642 O 819.721 1.60371 1.10051 0
M  V30 8643 C 820.004 2.87414 -2.16945 0
M  V30 8644 C 819.857 2.58125 -3.68363 0
M  V30 8645 C 821.176 3.89021 -2.05792 0
M  V30 8646 H 818.295 0.572339 -0.464324 0
M  V30 8647 H 820.937 0.942784 -1.64959 0
M  V30 8648 H 819.087 3.41576 -1.85089 0
M  V30 8649 H 820.759 2.10239 -4.10606 0
M  V30 8650 H 819.002 1.91503 -3.89242 0
M  V30 8651 H 819.673 3.5061 -4.26353 0
M  V30 8652 H 822.149 3.44224 -2.33771 0
M  V30 8653 H 821.025 4.77548 -2.70628 0
M  V30 8654 H 821.286 4.29786 -1.03618 0
M  V30 8655 N 820.346 1.18468 1.03938 0
M  V30 8656 C 821.595 0.975193 1.76558 0
M  V30 8657 C 821.908 -0.495978 1.89207 0
M  V30 8658 O 823.114 -0.824009 2.58694 0
M  V30 8659 C 821.57 1.69579 3.17444 0
M  V30 8660 C 821.178 3.20636 3.12884 0
M  V30 8661 C 822.922 1.56917 3.94433 0
M  V30 8662 C 820.829 3.8533 4.48636 0
M  V30 8663 H 819.759 0.361244 0.66183 0
M  V30 8664 H 822.41 1.41854 1.16403 0
M  V30 8665 H 820.792 1.18022 3.78004 0
M  V30 8666 H 821.966 3.79228 2.61768 0
M  V30 8667 H 820.281 3.33454 2.49394 0
M  V30 8668 H 822.878 2.02611 4.94826 0
M  V30 8669 H 823.221 0.521638 4.13019 0
M  V30 8670 H 823.754 2.05762 3.40451 0
M  V30 8671 H 820.493 4.90136 4.35255 0
M  V30 8672 H 820.013 3.31526 4.99851 0
M  V30 8673 H 821.692 3.88269 5.17549 0
M  V30 8674 N 821.824 -1.22873 0.986916 0
M  V30 8675 C 822.787 -2.2281 0.537442 0
M  V30 8676 C 823.787 -1.56331 -0.37646 0
M  V30 8677 O 824.977 -1.73376 -0.169247 0
M  V30 8678 C 822.109 -3.40195 -0.219082 0
M  V30 8679 H 823.302 -2.64089 1.42116 0
M  V30 8680 H 820.855 -1.35819 0.773488 0
M  V30 8681 H 821.59 -3.04381 -1.11905 0
M  V30 8682 H 821.375 -3.89657 0.437026 0
M  V30 8683 H 822.865 -4.14326 -0.521926 0
M  V30 8684 N 823.302 -0.75937 -1.38099 0
M  V30 8685 C 824.232 -0.151077 -2.33011 0
M  V30 8686 C 825.213 0.697099 -1.5516 0
M  V30 8687 O 826.398 0.637101 -1.83452 0
M  V30 8688 C 823.528 0.738423 -3.39359 0
M  V30 8689 C 822.482 -0.0074741 -4.27999 0
M  V30 8690 C 821.808 1.00066 -5.25253 0
M  V30 8691 C 823.108 -1.17926 -5.08813 0
M  V30 8692 H 824.802 -0.943933 -2.84131 0
M  V30 8693 H 822.348 -0.455362 -1.36611 0
M  V30 8694 H 824.301 1.17369 -4.04725 0
M  V30 8695 H 823.025 1.56366 -2.86735 0
M  V30 8696 H 821.684 -0.423379 -3.64147 0
M  V30 8697 H 821.332 1.82012 -4.68914 0
M  V30 8698 H 821.032 0.506199 -5.85416 0
M  V30 8699 H 822.556 1.43512 -5.93495 0
M  V30 8700 H 823.97 -0.821262 -5.67387 0
M  V30 8701 H 822.367 -1.60497 -5.78239 0
M  V30 8702 H 823.437 -1.98938 -4.42212 0
M  V30 8703 N 824.78 1.49157 -0.508906 0
M  V30 8704 C 826.008 2.06879 0.0293734 0
M  V30 8705 C 826.423 1.36823 1.30095 0
M  V30 8706 O 825.78 0.449034 1.7689 0
M  V30 8707 C 825.831 3.60423 0.278791 0
M  V30 8708 O 825.552 4.27844 -0.942389 0
M  V30 8709 C 827.053 4.34881 0.859825 0
M  V30 8710 H 824.273 0.67057 -0.0240184 0
M  V30 8711 H 826.817 1.91834 -0.708526 0
M  V30 8712 H 824.972 3.75145 0.966689 0
M  V30 8713 H 825.386 5.19671 -0.710097 0
M  V30 8714 H 826.86 5.43161 0.983884 0
M  V30 8715 H 827.337 3.9789 1.85958 0
M  V30 8716 H 827.943 4.24785 0.209152 0
M  V30 8717 N 826.258 0.243083 1.55714 0
M  V30 8718 C 827.506 -0.381964 1.98458 0
M  V30 8719 C 827.827 -1.58745 1.13247 0
M  V30 8720 O 827.097 -1.94723 0.214384 0
M  V30 8721 H 825.677 -0.144114 0.732967 0
M  V30 8722 H 828.339 0.340985 1.91894 0
M  V30 8723 H 827.435 -0.693702 3.04293 0
M  V30 8724 N 827.736 -1.57571 -0.0300757 0
M  V30 8725 C 828.984 -1.88852 -0.719666 0
M  V30 8726 C 829.305 -0.840645 -1.75949 0
M  V30 8727 O 828.575 0.125854 -1.95495 0
M  V30 8728 H 827.155 -0.696965 -0.268792 0
M  V30 8729 H 829.817 -1.949 0.00373285 0
M  V30 8730 H 828.913 -2.87695 -1.20987 0
M  V30 8731 N 829.214 0.302327 -1.54673 0
M  V30 8732 C 830.124 1.39542 -1.88587 0
M  V30 8733 C 831.14 1.55543 -0.779895 0
M  V30 8734 O 832.316 1.70233 -1.07623 0
M  V30 8735 C 829.381 2.7394 -2.12504 0
M  V30 8736 C 828.442 2.66935 -3.3622 0
M  V30 8737 C 827.675 3.94923 -3.58987 0
M  V30 8738 O 827.898 4.94218 -2.84789 0
M  V30 8739 O 826.832 3.96896 -4.52501 0
M  V30 8740 H 830.658 1.13784 -2.81579 0
M  V30 8741 H 828.243 0.49827 -1.40846 0
M  V30 8742 H 830.125 3.5346 -2.29443 0
M  V30 8743 H 828.8 2.99544 -1.22698 0
M  V30 8744 H 827.707 1.85892 -3.24646 0
M  V30 8745 H 829.04 2.46283 -4.26152 0
M  V30 8746 N 830.692 1.47107 0.565454 0
M  V30 8747 C 831.622 1.61846 1.68309 0
M  V30 8748 C 832.603 0.468159 1.63531 0
M  V30 8749 O 833.788 0.696504 1.8128 0
M  V30 8750 C 830.918 1.62474 3.06952 0
M  V30 8751 C 829.872 2.76649 3.26572 0
M  V30 8752 C 829.198 2.62345 4.65917 0
M  V30 8753 C 830.498 4.18319 3.12741 0
M  V30 8754 H 832.192 2.55407 1.5623 0
M  V30 8755 H 829.738 1.22916 0.750179 0
M  V30 8756 H 831.691 1.71378 3.84977 0
M  V30 8757 H 830.415 0.654692 3.19971 0
M  V30 8758 H 829.074 2.67242 2.50952 0
M  V30 8759 H 828.722 1.63386 4.75725 0
M  V30 8760 H 828.422 3.38936 4.79996 0
M  V30 8761 H 829.946 2.73165 5.46089 0
M  V30 8762 H 831.36 4.28745 3.80593 0
M  V30 8763 H 829.757 4.95632 3.38333 0
M  V30 8764 H 830.827 4.37263 2.09592 0
M  V30 8765 N 832.17 -0.811516 1.35101 0
M  V30 8766 C 833.416 -1.57068 1.28287 0
M  V30 8767 C 833.749 -1.93667 -0.143808 0
M  V30 8768 O 833.024 -1.60953 -1.09199 0
M  V30 8769 C 833.307 -2.86259 2.18466 0
M  V30 8770 C 833.16 -2.56168 3.69727 0
M  V30 8771 C 834.479 -3.87924 2.07852 0
M  V30 8772 H 831.598 -0.569869 0.467353 0
M  V30 8773 H 834.24 -0.934023 1.65457 0
M  V30 8774 H 832.39 -3.4059 1.86898 0
M  V30 8775 H 834.062 -2.08059 4.11715 0
M  V30 8776 H 832.305 -1.89436 3.90252 0
M  V30 8777 H 832.976 -3.48344 4.28206 0
M  V30 8778 H 835.452 -3.4298 2.35593 0
M  V30 8779 H 834.328 -4.76106 2.73157 0
M  V30 8780 H 834.589 -4.2923 1.05896 0
M  V30 8781 N 833.648 -1.19017 -1.03309 0
M  V30 8782 C 834.878 -1.01387 -1.80012 0
M  V30 8783 C 835.286 0.440655 -1.83997 0
M  V30 8784 O 834.629 1.31786 -1.27977 0
M  V30 8785 C 834.691 -1.50171 -3.26633 0
M  V30 8786 C 834.355 -2.98213 -3.46292 0
M  V30 8787 C 835.352 -3.96009 -3.36857 0
M  V30 8788 C 833.037 -3.36812 -3.72643 0
M  V30 8789 C 835.031 -5.30399 -3.5349 0
M  V30 8790 C 832.718 -4.71363 -3.88922 0
M  V30 8791 C 833.716 -5.67966 -3.79347 0
M  V30 8792 O 833.404 -7.00079 -3.95151 0
M  V30 8793 H 833.136 -0.357899 -0.573484 0
M  V30 8794 H 835.69 -1.58171 -1.31039 0
M  V30 8795 H 833.92 -0.877586 -3.7661 0
M  V30 8796 H 835.609 -1.28814 -3.84918 0
M  V30 8797 H 836.375 -3.67534 -3.16455 0
M  V30 8798 H 832.254 -2.62175 -3.7919 0
M  V30 8799 H 835.798 -6.05786 -3.45933 0
M  V30 8800 H 831.695 -4.99536 -4.0882 0
M  V30 8801 H 832.463 -7.07092 -4.12266 0
M  V30 8802 N 835.127 1.22348 -0.993418 0
M  V30 8803 C 836.374 1.9111 -0.669568 0
M  V30 8804 C 836.702 1.77357 0.79843 0
M  V30 8805 O 835.957 1.13675 1.593 0
M  V30 8806 C 836.256 3.42477 -1.02197 0
M  V30 8807 C 835.922 3.7642 -2.48232 0
M  V30 8808 C 834.584 3.85395 -2.88139 0
M  V30 8809 C 836.936 3.9253 -3.42884 0
M  V30 8810 C 834.264 4.07918 -4.21687 0
M  V30 8811 C 836.616 4.16557 -4.76091 0
M  V30 8812 C 835.28 4.23757 -5.15739 0
M  V30 8813 H 834.55 0.699321 -0.245012 0
M  V30 8814 H 837.197 1.45102 -1.2497 0
M  V30 8815 H 835.502 3.90143 -0.359921 0
M  V30 8816 H 837.199 3.93935 -0.74942 0
M  V30 8817 H 833.789 3.70017 -2.16299 0
M  V30 8818 H 837.973 3.84974 -3.13224 0
M  V30 8819 H 833.229 4.11719 -4.51993 0
M  V30 8820 H 837.403 4.27966 -5.4938 0
M  V30 8821 H 835.03 4.40962 -6.19239 0
M  V30 8822 N 836.605 0.766683 1.37694 0
M  V30 8823 C 837.515 0.150158 2.34119 0
M  V30 8824 C 838.531 -0.685513 1.59927 0
M  V30 8825 O 839.707 -0.606616 1.92047 0
M  V30 8826 C 836.772 -0.722562 3.39087 0
M  V30 8827 C 835.833 0.128983 4.29106 0
M  V30 8828 C 835.066 -0.702178 5.29061 0
M  V30 8829 O 835.289 -1.93954 5.36412 0
M  V30 8830 O 834.223 -0.114056 6.01792 0
M  V30 8831 H 838.049 0.946829 2.88563 0
M  V30 8832 H 835.634 0.527765 1.39768 0
M  V30 8833 H 837.516 -1.22095 4.03325 0
M  V30 8834 H 836.191 -1.49751 2.86978 0
M  V30 8835 H 835.098 0.673612 3.67985 0
M  V30 8836 H 836.431 0.866892 4.84506 0
M  V30 8837 N 838.083 -1.48885 0.516809 0
M  V30 8838 C 839.016 -2.26218 -0.30011 0
M  V30 8839 C 839.994 -1.31491 -0.956496 0
M  V30 8840 O 841.178 -1.6081 -0.983488 0
M  V30 8841 C 838.305 -3.07315 -1.42392 0
M  V30 8842 C 837.351 -4.17316 -0.880295 0
M  V30 8843 S 838.184 -5.34955 0.24146 0
M  V30 8844 C 839.34 -6.1961 -0.885138 0
M  V30 8845 H 839.573 -2.95158 0.356217 0
M  V30 8846 H 837.106 -1.5141 0.302365 0
M  V30 8847 H 839.064 -3.54619 -2.06775 0
M  V30 8848 H 837.725 -2.37813 -2.05192 0
M  V30 8849 H 836.918 -4.73635 -1.72297 0
M  V30 8850 H 836.52 -3.72685 -0.313396 0
M  V30 8851 H 838.812 -6.53513 -1.78682 0
M  V30 8852 H 839.755 -7.07183 -0.360226 0
M  V30 8853 H 840.163 -5.52461 -1.1596 0
M  V30 8854 N 839.561 -0.251338 -1.55583 0
M  V30 8855 C 840.838 0.422729 -1.90977 0
M  V30 8856 C 841.218 1.75534 -1.17265 0
M  V30 8857 O 840.566 2.26632 -0.291588 0
M  V30 8858 C 840.776 0.586448 -3.44037 0
M  V30 8859 C 842.124 0.880294 -4.15375 0
M  V30 8860 O 843.148 0.672148 -3.49801 0
M  V30 8861 O 842.007 1.27694 -5.31372 0
M  V30 8862 H 839.101 0.227622 -0.795058 0
M  V30 8863 H 841.647 -0.295733 -1.67103 0
M  V30 8864 H 840.419 -0.352327 -3.89711 0
M  V30 8865 H 840.042 1.35528 -3.73789 0
M  V30 8866 N 841.039 1.57585 0.0217189 0
M  V30 8867 C 842.45 1.7787 0.567377 0
M  V30 8868 C 842.801 0.883337 1.7519 0
M  V30 8869 O 841.926 0.0800819 2.16252 0
M  V30 8870 C 842.521 3.2257 1.03606 0
M  V30 8871 C 841.08 3.44026 1.52718 0
M  V30 8872 C 840.227 2.73313 0.468545 0
M  V30 8873 H 843.178 1.57377 -0.2045 0
M  V30 8874 H 843.199 3.29488 1.9031 0
M  V30 8875 H 842.711 3.87711 0.173739 0
M  V30 8876 H 840.812 2.8407 2.41111 0
M  V30 8877 H 840.925 4.52659 1.56962 0
M  V30 8878 H 839.289 2.37299 0.925263 0
M  V30 8879 H 840.072 3.41141 -0.384438 0
M  V30 8880 N 842.517 -0.29412 1.54831 0
M  V30 8881 C 843.742 -1.05156 1.78765 0
M  V30 8882 C 844.167 -1.79916 0.548809 0
M  V30 8883 O 843.525 -1.74243 -0.500909 0
M  V30 8884 C 843.573 -2.00242 2.99893 0
M  V30 8885 O 842.677 -3.08662 2.73499 0
M  V30 8886 H 842.018 -0.301737 0.591482 0
M  V30 8887 H 844.548 -0.329449 2.0193 0
M  V30 8888 H 844.558 -2.42583 3.28051 0
M  V30 8889 H 843.233 -1.45235 3.89717 0
M  V30 8890 H 841.81 -2.70786 2.56377 0
M  V30 8891 N 843.995 -1.47404 -0.557645 0
M  V30 8892 C 845.243 -1.53703 -1.31224 0
M  V30 8893 C 845.564 -0.200742 -1.93964 0
M  V30 8894 O 844.834 0.775253 -1.79907 0
M  V30 8895 H 843.414 -0.566171 -0.487299 0
M  V30 8896 H 846.076 -1.83699 -0.651195 0
M  V30 8897 H 845.172 -2.30335 -2.10599 0
M  V30 8898 N 845.473 0.80434 -1.35529 0
M  V30 8899 C 846.405 1.92445 -1.2449 0
M  V30 8900 C 847.418 1.61934 -0.167685 0
M  V30 8901 O 848.607 1.73461 -0.42115 0
M  V30 8902 C 845.707 3.26875 -0.894751 0
M  V30 8903 C 844.88 3.85275 -2.07079 0
M  V30 8904 C 843.939 4.98116 -1.69607 0
M  V30 8905 O 842.965 5.15424 -2.41509 0
M  V30 8906 N 844.167 5.77169 -0.621012 0
M  V30 8907 H 846.932 2.02441 -2.20993 0
M  V30 8908 H 844.493 0.981874 -1.28728 0
M  V30 8909 H 846.485 3.99837 -0.625511 0
M  V30 8910 H 845.055 3.12594 -0.0193306 0
M  V30 8911 H 844.275 3.0448 -2.5037 0
M  V30 8912 H 845.563 4.21024 -2.85685 0
M  V30 8913 H 844.961 5.65695 -0.0236679 0
M  V30 8914 H 843.518 6.50499 -0.411558 0
M  V30 8915 N 846.951 1.19563 1.02676 0
M  V30 8916 C 847.881 0.959024 2.12897 0
M  V30 8917 C 848.862 -0.108382 1.69754 0
M  V30 8918 O 850.047 0.0470698 1.94143 0
M  V30 8919 C 847.177 0.499211 3.43693 0
M  V30 8920 C 846.131 1.5087 4.00528 0
M  V30 8921 C 845.457 0.905884 5.2697 0
M  V30 8922 C 846.757 2.88954 4.3509 0
M  V30 8923 H 848.451 1.88084 2.32948 0
M  V30 8924 H 845.997 0.905731 1.11949 0
M  V30 8925 H 847.95 0.320965 4.20176 0
M  V30 8926 H 846.674 -0.458205 3.2337 0
M  V30 8927 H 845.333 1.67413 3.26142 0
M  V30 8928 H 844.981 -0.0591506 5.02965 0
M  V30 8929 H 844.681 1.58 5.65959 0
M  V30 8930 H 846.205 0.73848 6.06118 0
M  V30 8931 H 847.619 2.75981 5.02501 0
M  V30 8932 H 846.016 3.53177 4.85166 0
M  V30 8933 H 847.086 3.41447 3.44299 0
M  V30 8934 N 848.429 -1.21819 0.999893 0
M  V30 8935 C 849.377 -2.26027 0.549047 0
M  V30 8936 C 850.371 -1.64516 -0.403826 0
M  V30 8937 O 851.577 -1.77878 -0.275578 0
M  V30 8938 H 847.952 -0.734958 0.159185 0
M  V30 8939 H 849.923 -2.61398 1.43923 0
M  V30 8940 C 848.672 -3.47514 -0.11369 0
M  V30 8941 H 847.995 -3.95112 0.610482 0
M  V30 8942 H 849.435 -4.22179 -0.3925 0
M  V30 8943 C 847.894 -3.08614 -1.35126 0
M  V30 8944 O 848.424 -3.1864 -2.44605 0
M  V30 8945 N 846.63 -2.63327 -1.22911 0
M  V30 8946 H 846.177 -2.55369 -0.338288 0
M  V30 8947 H 846.135 -2.37668 -2.05818 0
M  V30 8948 N 849.908 -0.773975 -1.37286 0
M  V30 8949 C 850.818 -0.162571 -2.34036 0
M  V30 8950 C 851.834 0.677022 -1.60289 0
M  V30 8951 O 853.01 0.596423 -1.92366 0
M  V30 8952 C 850.075 0.70457 -3.39465 0
M  V30 8953 C 849.136 -0.151738 -4.29032 0
M  V30 8954 C 848.369 0.674111 -5.29426 0
M  V30 8955 O 848.592 1.91107 -5.37433 0
M  V30 8956 O 847.526 0.0821398 -6.01844 0
M  V30 8957 H 851.352 -0.962119 -2.88057 0
M  V30 8958 H 848.937 -0.53517 -1.39486 0
M  V30 8959 H 850.819 1.19954 -4.03967 0
M  V30 8960 H 849.494 1.48227 -2.87768 0
M  V30 8961 H 848.401 -0.693118 -3.67623 0
M  V30 8962 H 849.734 -0.892575 -4.84039 0
M  V30 8963 N 851.386 1.48609 -0.524698 0
M  V30 8964 C 852.616 2.06599 0.00741868 0
M  V30 8965 C 853.024 1.3823 1.29186 0
M  V30 8966 O 852.367 0.461962 1.77797 0
M  V30 8967 C 852.429 3.58184 0.307324 0
M  V30 8968 C 852.093 4.48391 -0.882864 0
M  V30 8969 C 853.09 4.88485 -1.77984 0
M  V30 8970 C 850.775 4.90367 -1.08837 0
M  V30 8971 C 852.769 5.69319 -2.86627 0
M  V30 8972 C 850.456 5.70972 -2.17794 0
M  V30 8973 C 851.454 6.10355 -3.06523 0
M  V30 8974 O 851.142 6.89343 -4.13596 0
M  V30 8975 H 850.874 0.675421 -0.0279846 0
M  V30 8976 H 853.428 1.92058 -0.7282 0
M  V30 8977 H 851.658 3.70818 1.09685 0
M  V30 8978 H 853.347 3.98318 0.780886 0
M  V30 8979 H 854.113 4.56682 -1.63299 0
M  V30 8980 H 849.992 4.592 -0.407035 0
M  V30 8981 H 853.536 5.99978 -3.55911 0
M  V30 8982 H 849.433 6.02188 -2.32465 0
M  V30 8983 H 850.201 7.07689 -4.1124 0
M  V30 8984 N 852.864 0.259585 1.55447 0
M  V30 8985 C 854.092 -0.365392 2.03648 0
M  V30 8986 C 854.507 -1.50613 1.13847 0
M  V30 8987 O 853.864 -1.81837 0.155414 0
M  V30 8988 C 853.915 -0.861172 3.51093 0
M  V30 8989 O 853.636 0.234121 4.37474 0
M  V30 8990 C 855.137 -1.55555 4.15111 0
M  V30 8991 H 852.357 -0.0853439 0.66555 0
M  V30 8992 H 854.901 0.387151 2.00802 0
M  V30 8993 H 853.056 -1.56385 3.54433 0
M  V30 8994 H 853.47 -0.1444 5.24301 0
M  V30 8995 H 854.944 -1.85403 5.19932 0
M  V30 8996 H 855.421 -2.48185 3.62355 0
M  V30 8997 H 856.027 -0.89712 4.15731 0
M  V30 8998 N 854.342 -1.57594 -0.0133615 0
M  V30 8999 C 855.252 -2.10991 -1.02566 0
M  V30 9000 C 856.268 -1.05208 -1.3859 0
M  V30 9001 O 857.444 -1.37034 -1.47593 0
M  V30 9002 C 854.509 -2.59165 -2.30292 0
M  V30 9003 C 853.57 -3.79495 -2.00704 0
M  V30 9004 C 852.803 -4.25361 -3.22341 0
M  V30 9005 O 853.026 -3.70645 -4.33565 0
M  V30 9006 O 851.96 -5.17649 -3.07121 0
M  V30 9007 H 855.786 -2.97678 -0.601806 0
M  V30 9008 H 853.371 -1.47598 -0.23135 0
M  V30 9009 H 855.253 -2.90409 -3.05354 0
M  V30 9010 H 853.928 -1.75582 -2.71942 0
M  V30 9011 H 852.835 -3.53245 -1.23161 0
M  V30 9012 H 854.168 -4.64109 -1.639 0
M  V30 9013 N 855.82 0.285905 -1.54985 0
M  V30 9014 C 857.236 0.632405 -1.46536 0
M  V30 9015 C 857.436 1.90074 -0.668888 0
M  V30 9016 O 856.492 2.51839 -0.182586 0
M  V30 9017 C 857.805 0.771361 -2.90638 0
M  V30 9018 C 859.353 0.866262 -3.00774 0
M  V30 9019 C 859.828 1.0371 -4.46103 0
M  V30 9020 N 861.319 1.10294 -4.49877 0
M  V30 9021 C 862.054 1.25369 -5.59527 0
M  V30 9022 N 861.55 1.37246 -6.7907 0
M  V30 9023 N 863.343 1.28377 -5.47244 0
M  V30 9024 H 855.494 -0.547226 -2.0523 0
M  V30 9025 H 857.757 -0.183298 -0.930111 0
M  V30 9026 H 857.463 -0.0899485 -3.51585 0
M  V30 9027 H 857.337 1.65569 -3.3892 0
M  V30 9028 H 859.724 1.71805 -2.39931 0
M  V30 9029 H 859.805 -0.0424049 -2.55765 0
M  V30 9030 H 859.449 0.190021 -5.07544 0
M  V30 9031 H 859.379 1.96022 -4.88757 0
M  V30 9032 H 861.87 1.02407 -3.6376 0
M  V30 9033 H 862.183 1.48546 -7.58389 0
M  V30 9034 H 860.528 1.34274 -6.81906 0
M  V30 9035 H 863.719 1.1872 -4.52795 0
M  V30 9036 H 863.892 1.39782 -6.32744 0
M  V30 9037 N 857.298 1.47698 0.54982 0
M  V30 9038 C 858.245 1.60739 1.65625 0
M  V30 9039 C 859.215 0.450129 1.59884 0
M  V30 9040 O 860.4 0.671123 1.78607 0
M  V30 9041 C 857.54 1.63457 3.03934 0
M  V30 9042 C 856.653 2.90152 3.20056 0
M  V30 9043 C 855.788 2.84157 4.48807 0
M  V30 9044 C 854.827 4.05644 4.58387 0
M  V30 9045 N 853.964 3.97843 5.78503 0
M  V30 9046 H 858.804 2.55234 1.53817 0
M  V30 9047 H 856.341 1.26593 0.749173 0
M  V30 9048 H 858.299 1.63015 3.84034 0
M  V30 9049 H 856.929 0.724689 3.1456 0
M  V30 9050 H 855.981 3.00428 2.33339 0
M  V30 9051 H 857.293 3.80097 3.22998 0
M  V30 9052 H 856.447 2.82006 5.37175 0
M  V30 9053 H 855.186 1.91908 4.48356 0
M  V30 9054 H 854.191 4.08092 3.6843 0
M  V30 9055 H 855.416 4.9903 4.60593 0
M  V30 9056 H 853.362 3.08401 5.78986 0
M  V30 9057 H 853.279 4.81473 5.82855 0
M  V30 9058 H 854.547 3.99719 6.69212 0
M  V30 9059 N 858.776 -0.797141 1.35954 0
M  V30 9060 C 859.686 -1.94088 1.31784 0
M  V30 9061 C 860.702 -1.72588 0.221227 0
M  V30 9062 O 861.878 -1.96256 0.452255 0
M  V30 9063 C 858.943 -3.28828 1.09878 0
M  V30 9064 C 858.004 -3.63158 2.28942 0
M  V30 9065 C 857.237 -4.91469 2.08072 0
M  V30 9066 O 857.46 -5.60616 1.05196 0
M  V30 9067 O 856.394 -5.24277 2.95664 0
M  V30 9068 H 860.22 -2.00554 2.28061 0
M  V30 9069 H 857.805 -0.936288 1.16422 0
M  V30 9070 H 859.687 -4.09473 0.995485 0
M  V30 9071 H 858.362 -3.23271 0.16659 0
M  V30 9072 H 857.269 -2.82851 2.44839 0
M  V30 9073 H 858.602 -3.7343 3.20641 0
M  V30 9074 N 860.254 -1.20106 -1.0204 0
M  V30 9075 C 861.187 -0.889795 -2.10138 0
M  V30 9076 C 862.165 0.156595 -1.61844 0
M  V30 9077 O 863.349 0.0310192 -1.88474 0
M  V30 9078 C 860.476 -0.333227 -3.37057 0
M  V30 9079 C 859.522 -1.36001 -4.04235 0
M  V30 9080 S 860.355 -2.92366 -4.48645 0
M  V30 9081 C 861.511 -2.38274 -5.78771 0
M  V30 9082 H 861.744 -1.80523 -2.36217 0
M  V30 9083 H 859.277 -1.02912 -1.15102 0
M  V30 9084 H 861.235 -0.0186507 -4.10496 0
M  V30 9085 H 859.896 0.560652 -3.09056 0
M  V30 9086 H 859.089 -0.919874 -4.95534 0
M  V30 9087 H 858.691 -1.62186 -3.37004 0
M  V30 9088 H 860.983 -1.77799 -6.53754 0
M  V30 9089 H 861.926 -3.27955 -6.27576 0
M  V30 9090 H 862.334 -1.8054 -5.34851 0
M  V30 9091 N 861.732 1.21287 -1.00634 0
M  V30 9092 C 862.957 1.94925 -0.708441 0
M  V30 9093 C 863.382 1.73659 0.722783 0
M  V30 9094 O 862.74 1.02429 1.49593 0
M  V30 9095 C 862.788 3.45377 -1.03667 0
M  V30 9096 O 861.892 4.12153 -0.142661 0
M  V30 9097 H 861.233 0.609338 -0.263824 0
M  V30 9098 H 863.763 1.54008 -1.34695 0
M  V30 9099 H 863.773 3.95954 -0.984086 0
M  V30 9100 H 862.448 3.6018 -2.0795 0
M  V30 9101 H 861.025 3.72048 -0.251888 0
M  V30 9102 N 863.21 0.781244 1.36873 0
M  V30 9103 C 864.173 0.180094 2.28491 0
M  V30 9104 C 865.173 -0.617798 1.48458 0
M  V30 9105 O 866.363 -0.439991 1.68552 0
M  V30 9106 C 863.495 -0.751741 3.32508 0
M  V30 9107 H 864.688 0.987837 2.83164 0
M  V30 9108 H 862.241 0.550102 1.463 0
M  V30 9109 H 862.976 -1.58413 2.82977 0
M  V30 9110 H 862.761 -0.181649 3.91679 0
M  V30 9111 H 864.251 -1.16748 4.00949 0
M  V30 9112 N 864.689 -1.48329 0.532571 0
M  V30 9113 C 865.966 -1.95492 -0.0650985 0
M  V30 9114 C 866.346 -1.47485 -1.51034 0
M  V30 9115 O 865.694 -0.702516 -2.17433 0
M  V30 9116 C 865.904 -3.48957 0.0548341 0
M  V30 9117 C 867.252 -4.24475 -0.103115 0
M  V30 9118 O 868.276 -3.56195 -0.0188343 0
M  V30 9119 O 867.135 -5.45781 -0.280164 0
M  V30 9120 H 864.229 -0.823327 -0.0778603 0
M  V30 9121 H 866.775 -1.58839 0.597353 0
M  V30 9122 H 865.547 -3.76628 1.06148 0
M  V30 9123 H 865.17 -3.92311 -0.64635 0
M  V30 9124 N 866.167 -0.267825 -1.55308 0
M  V30 9125 C 867.413 0.351556 -1.9973 0
M  V30 9126 C 867.746 1.56049 -1.15596 0
M  V30 9127 O 867.021 1.93203 -0.224274 0
M  V30 9128 C 867.304 0.74091 -3.52395 0
M  V30 9129 C 867.157 -0.474861 -4.47286 0
M  V30 9130 C 868.476 1.5801 -4.10756 0
M  V30 9131 H 865.595 0.126308 -0.726096 0
M  V30 9132 H 868.237 -0.373316 -1.86296 0
M  V30 9133 H 866.387 1.35851 -3.63973 0
M  V30 9134 H 868.059 -1.1134 -4.47662 0
M  V30 9135 H 866.302 -1.11425 -4.19246 0
M  V30 9136 H 866.973 -0.158782 -5.51772 0
M  V30 9137 H 869.449 1.05857 -4.0241 0
M  V30 9138 H 868.325 1.82135 -5.17801 0
M  V30 9139 H 868.586 2.55878 -3.60526 0
M  V30 9140 N 867.645 1.57599 0.00500368 0
M  V30 9141 C 868.891 1.90631 0.691919 0
M  V30 9142 C 869.224 0.868443 1.737 0
M  V30 9143 O 868.499 -0.113482 1.94169 0
M  V30 9144 C 868.782 3.34255 1.33961 0
M  V30 9145 C 868.635 4.48755 0.306413 0
M  V30 9146 C 869.954 3.77211 2.26715 0
M  V30 9147 H 867.073 0.693279 0.250066 0
M  V30 9148 H 869.715 1.89946 -0.0452634 0
M  V30 9149 H 867.865 3.3497 1.96793 0
M  V30 9150 H 869.537 4.60176 -0.321841 0
M  V30 9151 H 867.78 4.32203 -0.371852 0
M  V30 9152 H 868.451 5.46193 0.798554 0
M  V30 9153 H 870.927 3.78017 1.73904 0
M  V30 9154 H 869.803 4.78466 2.69002 0
M  V30 9155 H 870.064 3.10801 3.14413 0
M  V30 9156 N 869.123 -0.277682 1.55134 0
M  V30 9157 C 870.363 -1.01761 1.77269 0
M  V30 9158 C 870.727 -1.83668 0.559465 0
M  V30 9159 O 871.928 -2.60597 0.658972 0
M  V30 9160 C 870.199 -1.88062 3.0392 0
M  V30 9161 S 871.758 -2.68383 3.47154 0
M  V30 9162 H 868.576 -0.342816 0.622895 0
M  V30 9163 H 871.178 -0.288514 1.93359 0
M  V30 9164 H 869.882 -1.26805 3.90319 0
M  V30 9165 H 869.413 -2.65299 2.90482 0
M  V30 9166 H 871.428 -3.90567 3.06059 0
M  V30 9167 N 870.601 -1.47988 -0.541979 0
M  V30 9168 C 871.534 -1.56172 -1.66389 0
M  V30 9169 C 872.512 -0.412879 -1.57271 0
M  V30 9170 O 873.696 -0.622816 -1.77914 0
M  V30 9171 C 870.823 -1.47851 -3.04726 0
M  V30 9172 C 869.869 -2.67428 -3.32242 0
M  V30 9173 S 870.702 -4.29502 -3.19825 0
M  V30 9174 C 871.858 -4.2376 -4.60628 0
M  V30 9175 H 872.091 -2.51086 -1.59195 0
M  V30 9176 H 869.624 -1.36373 -0.724005 0
M  V30 9177 H 871.582 -1.43738 -3.84512 0
M  V30 9178 H 870.243 -0.542958 -3.09372 0
M  V30 9179 H 869.436 -2.57711 -4.33129 0
M  V30 9180 H 869.038 -2.68743 -2.60103 0
M  V30 9181 H 871.33 -3.92953 -5.51901 0
M  V30 9182 H 872.273 -5.24786 -4.75401 0
M  V30 9183 H 872.681 -3.54398 -4.39389 0
M  V30 9184 N 872.079 0.78992 -1.36375 0
M  V30 9185 C 873.304 1.58389 -1.33895 0
M  V30 9186 C 873.729 1.8794 0.0774934 0
M  V30 9187 O 873.087 1.4785 1.0493 0
M  V30 9188 C 873.135 2.88201 -2.16732 0
M  V30 9189 O 872.239 3.81778 -1.55946 0
M  V30 9190 H 871.58 0.480471 -0.458305 0
M  V30 9191 H 874.11 0.979119 -1.79651 0
M  V30 9192 H 874.12 3.37475 -2.29292 0
M  V30 9193 H 872.795 2.66019 -3.19698 0
M  V30 9194 H 871.372 3.40371 -1.52323 0
M  V30 9195 N 873.557 1.20646 1.01402 0
M  V30 9196 C 874.487 0.98155 2.11867 0
M  V30 9197 C 875.468 -0.0903712 1.6986 0
M  V30 9198 O 876.653 0.0676586 1.94082 0
M  V30 9199 C 873.783 0.535636 3.43145 0
M  V30 9200 C 872.737 1.55109 3.98905 0
M  V30 9201 C 872.063 0.961725 5.2598 0
M  V30 9202 C 873.363 2.93552 4.32001 0
M  V30 9203 H 875.057 1.90544 2.3094 0
M  V30 9204 H 872.603 0.917554 1.10982 0
M  V30 9205 H 874.556 0.365512 4.19812 0
M  V30 9206 H 873.28 -0.423882 3.23838 0
M  V30 9207 H 871.939 1.70862 3.24348 0
M  V30 9208 H 871.587 -0.00580108 5.03 0
M  V30 9209 H 871.287 1.63993 5.64252 0
M  V30 9210 H 872.811 0.802726 6.053 0
M  V30 9211 H 874.225 2.81295 4.99546 0
M  V30 9212 H 872.622 3.58303 4.81393 0
M  V30 9213 H 873.692 3.4508 3.40658 0
M  V30 9214 N 875.035 -1.20752 1.01276 0
M  V30 9215 C 875.998 -2.2162 0.584583 0
M  V30 9216 C 876.998 -1.57094 -0.343215 0
M  V30 9217 O 878.188 -1.73696 -0.132433 0
M  V30 9218 C 875.32 -3.40583 -0.146872 0
M  V30 9219 H 876.513 -2.61015 1.47686 0
M  V30 9220 H 874.066 -1.34148 0.802123 0
M  V30 9221 H 874.801 -3.06686 -1.05424 0
M  V30 9222 H 874.586 -3.88642 0.51958 0
M  V30 9223 H 876.076 -4.15339 -0.433924 0
M  V30 9224 N 876.513 -0.788492 -1.36457 0
M  V30 9225 C 877.461 -0.174192 -2.31947 0
M  V30 9226 C 878.455 0.665974 -1.5576 0
M  V30 9227 O 879.661 0.561161 -1.71029 0
M  V30 9228 H 876.036 -0.0375538 -0.751062 0
M  V30 9229 H 878.007 -0.995011 -2.81322 0
M  V30 9230 C 876.756 0.677276 -3.4104 0
M  V30 9231 H 876.079 0.0401418 -3.9978 0
M  V30 9232 H 877.519 1.07379 -4.10178 0
M  V30 9233 C 875.978 1.83512 -2.82533 0
M  V30 9234 O 876.508 2.93164 -2.74623 0
M  V30 9235 N 874.714 1.64095 -2.39836 0
M  V30 9236 H 874.261 0.749046 -2.46469 0
M  V30 9237 H 874.219 2.41726 -2.01037 0
M  V30 9238 N 877.991 1.48044 -0.54043 0
M  V30 9239 C 879.237 2.02797 -0.0101718 0
M  V30 9240 C 879.57 1.41565 1.32939 0
M  V30 9241 O 878.845 0.565139 1.86109 0
M  V30 9242 C 879.128 3.59959 0.100758 0
M  V30 9243 C 878.981 4.31654 -1.26471 0
M  V30 9244 C 880.3 4.32347 0.822455 0
M  V30 9245 H 877.419 0.736982 -0.00517052 0
M  V30 9246 H 880.061 1.76656 -0.69948 0
M  V30 9247 H 878.211 3.82363 0.687824 0
M  V30 9248 H 879.883 4.20639 -1.89369 0
M  V30 9249 H 878.126 3.92663 -1.84386 0
M  V30 9250 H 878.797 5.401 -1.13998 0
M  V30 9251 H 881.273 4.14835 0.324164 0
M  V30 9252 H 880.149 5.41978 0.868993 0
M  V30 9253 H 880.41 4.00369 1.87501 0
M  V30 9254 N 879.47 0.276058 1.55163 0
M  V30 9255 C 880.881 -0.221516 1.85381 0
M  V30 9256 C 881.232 -1.55372 1.19808 0
M  V30 9257 O 880.357 -2.10855 0.486742 0
M  V30 9258 C 880.952 -0.408706 3.36326 0
M  V30 9259 C 879.511 -0.850512 3.66665 0
M  V30 9260 C 878.658 0.055656 2.77244 0
M  V30 9261 H 881.609 0.497819 1.5069 0
M  V30 9262 H 881.63 -1.24711 3.59482 0
M  V30 9263 H 881.142 0.561052 3.84023 0
M  V30 9264 H 879.243 -1.83171 3.24468 0
M  V30 9265 H 879.356 -0.687181 4.74146 0
M  V30 9266 H 877.72 -0.460819 2.50497 0
M  V30 9267 H 878.503 1.02131 3.27756 0
M  V30 9268 N 880.948 -1.576 0.00335426 0
M  V30 9269 C 882.359 -1.7875 -0.539008 0
M  V30 9270 C 882.71 -0.911097 -1.73763 0
M  V30 9271 O 881.835 -0.114476 -2.16097 0
M  V30 9272 C 882.43 -3.24177 -0.984611 0
M  V30 9273 C 880.989 -3.46412 -1.47226 0
M  V30 9274 C 880.136 -2.74024 -0.425004 0
M  V30 9275 H 883.087 -1.57032 0.229511 0
M  V30 9276 H 883.108 -3.32474 -1.85044 0
M  V30 9277 H 882.62 -3.87938 -0.112035 0
M  V30 9278 H 880.721 -2.8787 -2.36562 0
M  V30 9279 H 880.834 -4.55098 -1.49741 0
M  V30 9280 H 879.198 -2.38741 -0.887394 0
M  V30 9281 H 879.981 -3.40486 0.438662 0
M  V30 9282 N 882.426 0.269451 -1.5528 0
M  V30 9283 C 883.674 0.998604 -1.75705 0
M  V30 9284 C 883.995 1.86691 -0.563175 0
M  V30 9285 O 883.265 1.91305 0.421811 0
M  V30 9286 H 881.845 0.371698 -0.647958 0
M  V30 9287 H 884.507 0.292826 -1.92688 0
M  V30 9288 H 883.603 1.63348 -2.6594 0
M  V30 9289 N 883.904 1.48273 0.534124 0
M  V30 9290 C 884.814 1.65162 1.66609 0
M  V30 9291 C 885.83 0.534177 1.65598 0
M  V30 9292 O 887.006 0.804715 1.84625 0
M  V30 9293 C 884.071 1.68354 3.03081 0
M  V30 9294 C 883.132 2.91696 3.1498 0
M  V30 9295 C 882.365 2.94725 4.44941 0
M  V30 9296 O 882.588 2.06285 5.31792 0
M  V30 9297 O 881.522 3.8685 4.61119 0
M  V30 9298 H 885.348 2.60991 1.55298 0
M  V30 9299 H 882.933 1.31626 0.706749 0
M  V30 9300 H 884.815 1.72998 3.84252 0
M  V30 9301 H 883.49 0.756978 3.14725 0
M  V30 9302 H 882.397 2.92586 2.33119 0
M  V30 9303 H 883.73 3.83722 3.0825 0
M  V30 9304 N 885.382 -0.782676 1.36792 0
M  V30 9305 C 886.314 -1.9044 1.27536 0
M  V30 9306 C 887.327 -1.61647 0.193426 0
M  V30 9307 O 888.516 -1.72769 0.448692 0
M  V30 9308 C 885.616 -3.2541 0.946641 0
M  V30 9309 C 884.789 -3.81932 2.13183 0
M  V30 9310 C 883.848 -4.95355 1.7751 0
M  V30 9311 O 882.874 -5.11517 2.49678 0
M  V30 9312 N 884.076 -5.76108 0.712755 0
M  V30 9313 H 886.841 -1.98899 2.24186 0
M  V30 9314 H 884.402 -0.96127 1.30274 0
M  V30 9315 H 886.394 -3.98791 0.689043 0
M  V30 9316 H 884.964 -3.12524 0.0690591 0
M  V30 9317 H 884.184 -3.00459 2.55183 0
M  V30 9318 H 885.472 -4.16426 2.92347 0
M  V30 9319 H 884.87 -5.65586 0.113662 0
M  V30 9320 H 883.427 -6.49762 0.514995 0
M  V30 9321 N 886.86 -1.21182 -1.00761 0
M  V30 9322 C 888.276 -0.968607 -1.26847 0
M  V30 9323 C 888.476 0.346561 -1.98497 0
M  V30 9324 O 887.532 1.07287 -2.28573 0
M  V30 9325 C 888.845 -2.1574 -2.09467 0
M  V30 9326 C 890.393 -2.19937 -2.22703 0
M  V30 9327 C 890.868 -3.38328 -3.08704 0
M  V30 9328 N 892.359 -3.38398 -3.16293 0
M  V30 9329 C 893.094 -4.26653 -3.83086 0
M  V30 9330 N 892.59 -5.25101 -4.5193 0
M  V30 9331 N 894.383 -4.14469 -3.797 0
M  V30 9332 H 886.534 -2.05763 -0.526816 0
M  V30 9333 H 888.797 -0.90087 -0.29519 0
M  V30 9334 H 888.503 -3.11034 -1.64167 0
M  V30 9335 H 888.377 -2.14584 -3.10216 0
M  V30 9336 H 890.764 -1.25201 -2.67224 0
M  V30 9337 H 890.845 -2.25139 -1.21433 0
M  V30 9338 H 890.489 -4.33356 -2.64886 0
M  V30 9339 H 890.419 -3.30364 -4.10082 0
M  V30 9340 H 892.91 -2.67149 -2.67282 0
M  V30 9341 H 893.223 -5.8875 -5.00592 0
M  V30 9342 H 891.568 -5.29029 -4.50726 0
M  V30 9343 H 894.759 -3.3682 -3.25069 0
M  V30 9344 H 894.932 -4.83458 -4.31477 0
M  V30 9345 N 888.338 1.20213 -1.01915 0
M  V30 9346 C 889.563 1.94163 -0.729076 0
M  V30 9347 C 889.988 1.74416 0.704323 0
M  V30 9348 O 889.346 1.0401 1.48498 0
M  V30 9349 C 889.394 3.44258 -1.07324 0
M  V30 9350 O 888.498 4.11979 -0.186367 0
M  V30 9351 H 887.839 0.606506 -0.270272 0
M  V30 9352 H 890.369 1.52571 -1.3632 0
M  V30 9353 H 890.379 3.94888 -1.02603 0
M  V30 9354 H 889.054 3.57954 -2.11759 0
M  V30 9355 H 887.631 3.7176 -0.291334 0
M  V30 9356 N 889.816 0.795718 1.36037 0
M  V30 9357 C 891.232 0.478145 1.52269 0
M  V30 9358 C 891.432 -1.0025 1.74792 0
M  V30 9359 O 890.488 -1.78783 1.78305 0
M  V30 9360 C 891.801 1.31406 2.70468 0
M  V30 9361 C 893.349 1.3084 2.84341 0
M  V30 9362 C 893.824 2.12819 4.05551 0
M  V30 9363 N 895.315 2.10298 4.12709 0
M  V30 9364 C 896.05 2.70495 5.05589 0
M  V30 9365 N 895.546 3.39576 6.03871 0
M  V30 9366 N 897.339 2.60195 4.98252 0
M  V30 9367 H 889.49 1.75477 1.19673 0
M  V30 9368 H 891.753 0.74627 0.584624 0
M  V30 9369 H 891.459 2.36435 2.60368 0
M  V30 9370 H 891.333 0.959726 3.64786 0
M  V30 9371 H 893.72 0.266003 2.93899 0
M  V30 9372 H 893.801 1.70254 1.90912 0
M  V30 9373 H 893.445 3.17093 3.96755 0
M  V30 9374 H 893.375 1.70772 4.98141 0
M  V30 9375 H 895.866 1.60026 3.42345 0
M  V30 9376 H 896.179 3.82823 6.71317 0
M  V30 9377 H 894.524 3.43679 6.04077 0
M  V30 9378 H 897.715 2.05823 4.20422 0
M  V30 9379 H 897.888 3.074 5.70447 0
M  V30 9380 N 891.294 -1.47756 0.548274 0
M  V30 9381 C 892.541 -2.02489 0.0208955 0
M  V30 9382 C 892.869 -1.42356 -1.32533 0
M  V30 9383 O 892.124 -0.565448 -1.87353 0
M  V30 9384 C 892.423 -3.5716 -0.131069 0
M  V30 9385 C 892.089 -4.36169 1.14313 0
M  V30 9386 C 890.751 -4.57476 1.4923 0
M  V30 9387 C 893.103 -4.81801 1.9879 0
M  V30 9388 C 890.431 -5.21662 2.68487 0
M  V30 9389 C 892.783 -5.47303 3.17242 0
M  V30 9390 C 891.447 -5.66844 3.52483 0
M  V30 9391 H 890.717 -0.740961 0.00764621 0
M  V30 9392 H 893.364 -1.77531 0.717987 0
M  V30 9393 H 891.669 -3.8106 -0.911063 0
M  V30 9394 H 893.366 -3.9715 -0.55433 0
M  V30 9395 H 889.956 -4.19858 0.861235 0
M  V30 9396 H 894.14 -4.65126 1.73123 0
M  V30 9397 H 889.396 -5.34987 2.95971 0
M  V30 9398 H 893.57 -5.81626 3.82994 0
M  V30 9399 H 891.197 -6.16352 4.44988 0
M  V30 9400 N 892.772 -0.284283 -1.55015 0
M  V30 9401 C 893.702 0.592663 -2.25853 0
M  V30 9402 C 894.683 1.15151 -1.25197 0
M  V30 9403 O 895.868 1.18395 -1.53936 0
M  V30 9404 C 892.998 1.77254 -2.98661 0
M  V30 9405 C 891.952 1.34482 -4.06323 0
M  V30 9406 C 891.278 2.60853 -4.66754 0
M  V30 9407 C 892.578 0.488288 -5.20013 0
M  V30 9408 H 894.272 0.00187041 -2.994 0
M  V30 9409 H 891.818 -0.000540402 -1.44 0
M  V30 9410 H 893.771 2.39199 -3.46932 0
M  V30 9411 H 892.495 2.38931 -2.22664 0
M  V30 9412 H 891.154 0.748519 -3.58877 0
M  V30 9413 H 890.802 3.20808 -3.87416 0
M  V30 9414 H 890.502 2.32942 -5.39455 0
M  V30 9415 H 892.026 3.23631 -5.1778 0
M  V30 9416 H 893.44 1.01298 -5.6428 0
M  V30 9417 H 891.837 0.303669 -5.99331 0
M  V30 9418 H 892.907 -0.490727 -4.8241 0
M  V30 9419 N 894.251 1.57596 -0.0117121 0
M  V30 9420 C 895.214 2.08089 0.960816 0
M  V30 9421 C 896.214 0.992519 1.26514 0
M  V30 9422 O 897.404 1.25475 1.20837 0
M  V30 9423 C 894.536 2.53217 2.28241 0
M  V30 9424 H 895.729 2.9529 0.523829 0
M  V30 9425 H 893.282 1.54508 0.235995 0
M  V30 9426 H 894.017 1.69294 2.76604 0
M  V30 9427 H 893.802 3.32714 2.0747 0
M  V30 9428 H 895.292 2.92568 2.97983 0
M  V30 9429 N 895.729 -0.261212 1.5542 0
M  V30 9430 C 896.975 -0.992699 1.76843 0
M  V30 9431 C 897.308 -1.8551 0.574428 0
M  V30 9432 O 896.583 -1.89739 -0.427713 0
M  V30 9433 C 896.866 -1.86532 3.08022 0
M  V30 9434 C 896.719 -1.03206 4.378 0
M  V30 9435 C 898.038 -2.85036 3.35324 0
M  V30 9436 H 895.157 -0.359473 0.643388 0
M  V30 9437 H 897.799 -0.264214 1.88154 0
M  V30 9438 H 895.949 -2.48644 2.9851 0
M  V30 9439 H 897.621 -0.430743 4.59285 0
M  V30 9440 H 895.864 -0.335911 4.32497 0
M  V30 9441 H 896.535 -1.6761 5.25938 0
M  V30 9442 H 899.011 -2.3306 3.44706 0
M  V30 9443 H 897.887 -3.43226 4.28354 0
M  V30 9444 H 898.148 -3.60768 2.55537 0
M  V30 9445 N 897.207 -1.48554 -0.526253 0
M  V30 9446 C 898.455 -1.56452 -1.27935 0
M  V30 9447 C 898.776 -0.24184 -1.93495 0
M  V30 9448 O 898.046 0.736917 -1.81511 0
M  V30 9449 H 896.626 -0.576379 -0.47518 0
M  V30 9450 H 899.288 -1.85039 -0.612083 0
M  V30 9451 H 898.384 -2.34751 -2.05666 0
M  V30 9452 N 898.685 0.775411 -1.37205 0
M  V30 9453 C 899.615 1.90258 -1.35367 0
M  V30 9454 C 900.596 1.68634 -0.222864 0
M  V30 9455 O 901.781 1.89545 -0.422659 0
M  V30 9456 C 898.911 3.27488 -1.15623 0
M  V30 9457 C 897.865 3.63668 -2.25676 0
M  V30 9458 C 897.191 4.994 -1.91059 0
M  V30 9459 C 898.491 3.70797 -3.67841 0
M  V30 9460 H 900.185 1.92053 -2.29687 0
M  V30 9461 H 897.731 0.922597 -1.10563 0
M  V30 9462 H 899.684 4.05976 -1.12968 0
M  V30 9463 H 898.408 3.26117 -0.177573 0
M  V30 9464 H 897.067 2.87486 -2.2748 0
M  V30 9465 H 896.715 4.94565 -0.917324 0
M  V30 9466 H 896.415 5.24576 -2.64751 0
M  V30 9467 H 897.939 5.80291 -1.89985 0
M  V30 9468 H 899.353 4.39444 -3.68187 0
M  V30 9469 H 897.75 4.07468 -4.40556 0
M  V30 9470 H 898.82 2.71549 -4.01732 0
M  V30 9471 N 900.163 1.21714 1.00117 0
M  V30 9472 C 901.409 1.03823 1.74208 0
M  V30 9473 C 901.742 -0.426733 1.89454 0
M  V30 9474 O 901.017 -1.31658 1.43166 0
M  V30 9475 C 901.3 1.74047 3.15246 0
M  V30 9476 C 901.153 3.28087 3.077 0
M  V30 9477 C 902.472 1.48614 4.14249 0
M  V30 9478 H 899.591 0.378573 0.632338 0
M  V30 9479 H 902.233 1.49942 1.16694 0
M  V30 9480 H 900.383 1.3484 3.64349 0
M  V30 9481 H 902.055 3.76686 2.6628 0
M  V30 9482 H 900.298 3.58191 2.44707 0
M  V30 9483 H 900.969 3.72392 4.07466 0
M  V30 9484 H 903.445 1.82656 3.73866 0
M  V30 9485 H 902.321 2.00257 5.11066 0
M  V30 9486 H 902.582 0.416957 4.40129 0
M  V30 9487 N 901.641 -1.19671 1.02551 0
M  V30 9488 C 902.918 -1.85014 0.634771 0
M  V30 9489 C 903.298 -1.91574 -0.886706 0
M  V30 9490 O 902.646 -1.43022 -1.78205 0
M  V30 9491 C 902.856 -3.24167 1.29292 0
M  V30 9492 C 904.204 -4.00363 1.41402 0
M  V30 9493 O 905.228 -3.33553 1.24983 0
M  V30 9494 O 904.087 -5.2003 1.6802 0
M  V30 9495 H 901.181 -0.797147 0.220196 0
M  V30 9496 H 903.727 -1.27188 1.12345 0
M  V30 9497 H 902.499 -3.14208 2.33215 0
M  V30 9498 H 902.122 -3.89634 0.791895 0
M  V30 9499 N 903.119 -0.802921 -1.35613 0
M  V30 9500 C 904.067 -0.198783 -2.31749 0
M  V30 9501 C 905.061 0.649416 -1.56458 0
M  V30 9502 O 906.267 0.542989 -1.71615 0
M  V30 9503 H 902.642 -0.0455177 -0.750621 0
M  V30 9504 H 904.613 -1.02479 -2.80251 0
M  V30 9505 C 903.362 0.641066 -3.41739 0
M  V30 9506 H 902.685 -0.00226244 -3.998 0
M  V30 9507 H 904.125 1.03022 -4.11294 0
M  V30 9508 C 902.584 1.80505 -2.84464 0
M  V30 9509 O 903.114 2.90235 -2.77717 0
M  V30 9510 N 901.32 1.61542 -2.41563 0
M  V30 9511 H 900.867 0.722863 -2.4725 0
M  V30 9512 H 900.825 2.39581 -2.03589 0
M  V30 9513 N 904.597 1.47463 -0.556102 0
M  V30 9514 C 905.825 2.06868 -0.0364585 0
M  V30 9515 C 906.24 1.40893 1.25677 0
M  V30 9516 O 905.597 0.505083 1.75371 0
M  V30 9517 C 905.648 3.61128 0.163984 0
M  V30 9518 O 905.369 4.24629 -1.07803 0
M  V30 9519 C 906.87 4.37397 0.721036 0
M  V30 9520 H 904.09 0.669466 -0.0453399 0
M  V30 9521 H 906.634 1.89482 -0.769198 0
M  V30 9522 H 904.789 3.78031 0.84685 0
M  V30 9523 H 905.203 5.17149 -0.875067 0
M  V30 9524 H 906.677 5.46016 0.810584 0
M  V30 9525 H 907.154 4.03604 1.73206 0
M  V30 9526 H 907.76 4.25236 0.073904 0
M  V30 9527 N 906.075 0.2925 1.54862 0
M  V30 9528 C 907.321 -0.319736 2.00264 0
M  V30 9529 C 907.654 -1.5419 1.18064 0
M  V30 9530 O 906.929 -1.92821 0.254983 0
M  V30 9531 C 907.212 -0.684753 3.5353 0
M  V30 9532 C 907.065 0.545961 4.46474 0
M  V30 9533 C 908.384 -1.51456 4.13218 0
M  V30 9534 H 905.503 -0.11474 0.728014 0
M  V30 9535 H 908.145 0.402907 1.85679 0
M  V30 9536 H 906.295 -1.30044 3.66089 0
M  V30 9537 H 907.967 1.18448 4.45834 0
M  V30 9538 H 906.21 1.1808 4.1742 0
M  V30 9539 H 906.881 0.246544 5.51449 0
M  V30 9540 H 909.357 -0.994421 4.04043 0
M  V30 9541 H 908.233 -1.73875 5.20633 0
M  V30 9542 H 908.494 -2.5011 3.64551 0
M  V30 9543 N 907.553 -1.57587 0.0200696 0
M  V30 9544 C 908.969 -1.56018 -0.336237 0
M  V30 9545 C 909.169 -1.02478 -1.73495 0
M  V30 9546 O 908.225 -0.667487 -2.43518 0
M  V30 9547 C 909.538 -3.00079 -0.193112 0
M  V30 9548 C 911.086 -3.11863 -0.266557 0
M  V30 9549 C 911.561 -4.57747 -0.152326 0
M  V30 9550 N 913.052 -4.62726 -0.209596 0
M  V30 9551 C 913.787 -5.73217 -0.144855 0
M  V30 9552 N 913.283 -6.92794 -0.0295487 0
M  V30 9553 N 915.076 -5.61751 -0.198184 0
M  V30 9554 H 907.227 -1.90722 0.93482 0
M  V30 9555 H 909.49 -0.876909 0.360186 0
M  V30 9556 H 909.196 -3.43167 0.770036 0
M  V30 9557 H 909.07 -3.64593 -0.967029 0
M  V30 9558 H 911.457 -2.68693 -1.22016 0
M  V30 9559 H 911.538 -2.50087 0.53758 0
M  V30 9560 H 911.182 -5.01595 0.797817 0
M  V30 9561 H 911.112 -5.17491 -0.97521 0
M  V30 9562 H 913.603 -3.76713 -0.299229 0
M  V30 9563 H 913.916 -7.72799 0.0134071 0
M  V30 9564 H 912.261 -6.95 0.00510737 0
M  V30 9565 H 915.452 -4.67222 -0.286603 0
M  V30 9566 H 915.625 -6.47839 -0.144266 0
M  V30 9567 N 909.032 0.252966 -1.55557 0
M  V30 9568 C 910.281 0.979736 -1.76307 0
M  V30 9569 C 910.594 1.86714 -0.582871 0
M  V30 9570 O 911.8 2.6302 -0.673247 0
M  V30 9571 C 910.256 1.79205 -3.12112 0
M  V30 9572 C 909.864 0.952333 -4.37761 0
M  V30 9573 C 911.608 2.51191 -3.42203 0
M  V30 9574 C 909.515 1.76018 -5.64599 0
M  V30 9575 H 908.445 0.369538 -0.657235 0
M  V30 9576 H 911.096 0.234619 -1.81994 0
M  V30 9577 H 909.478 2.57888 -3.00515 0
M  V30 9578 H 910.652 0.208251 -4.60329 0
M  V30 9579 H 908.967 0.346082 -4.14959 0
M  V30 9580 H 911.564 3.12074 -4.34182 0
M  V30 9581 H 911.907 3.22499 -2.63249 0
M  V30 9582 H 912.44 1.79523 -3.54988 0
M  V30 9583 H 909.179 1.09095 -6.46358 0
M  V30 9584 H 908.699 2.4797 -5.46142 0
M  V30 9585 H 910.378 2.32884 -6.03634 0
M  V30 9586 N 910.51 1.48831 0.518367 0
M  V30 9587 C 911.759 1.5669 1.27008 0
M  V30 9588 C 912.072 0.250934 1.93984 0
M  V30 9589 O 913.278 0.207884 2.70703 0
M  V30 9590 C 911.734 2.76387 2.30517 0
M  V30 9591 C 911.342 4.14673 1.69559 0
M  V30 9592 C 913.086 2.93566 3.06625 0
M  V30 9593 C 910.993 5.25616 2.71076 0
M  V30 9594 H 909.923 0.583362 0.477708 0
M  V30 9595 H 912.574 1.75187 0.546052 0
M  V30 9596 H 910.956 2.51348 3.06006 0
M  V30 9597 H 912.13 4.49779 1.00179 0
M  V30 9598 H 910.445 4.02708 1.05902 0
M  V30 9599 H 913.042 3.7362 3.82508 0
M  V30 9600 H 913.385 2.03462 3.63193 0
M  V30 9601 H 913.918 3.18562 2.38251 0
M  V30 9602 H 910.657 6.17723 2.19313 0
M  V30 9603 H 910.177 4.94985 3.38748 0
M  V30 9604 H 911.856 5.5422 3.3384 0
M  V30 9605 N 911.988 -0.768124 1.37614 0
M  V30 9606 C 913.213 -1.56239 1.36397 0
M  V30 9607 C 913.638 -1.8804 -0.0475839 0
M  V30 9608 O 912.996 -1.495 -1.02564 0
M  V30 9609 C 913.044 -2.84716 2.21289 0
M  V30 9610 O 912.148 -3.79249 1.62001 0
M  V30 9611 H 911.489 -0.473119 0.465891 0
M  V30 9612 H 914.019 -0.950415 1.81186 0
M  V30 9613 H 914.029 -3.33784 2.34632 0
M  V30 9614 H 912.704 -2.60899 3.2389 0
M  V30 9615 H 911.281 -3.37904 1.57719 0
M  V30 9616 N 913.466 -1.22244 -0.994698 0
M  V30 9617 C 914.396 -1.01513 -2.10279 0
M  V30 9618 C 915.377 0.0633365 -1.69982 0
M  V30 9619 O 916.562 -0.0985268 -1.9395 0
M  V30 9620 C 913.692 -0.59016 -3.42249 0
M  V30 9621 C 912.646 -1.61436 -3.96387 0
M  V30 9622 C 911.972 -1.04528 -5.24383 0
M  V30 9623 C 913.272 -3.00388 -4.27276 0
M  V30 9624 H 914.966 -1.94194 -2.2788 0
M  V30 9625 H 912.512 -0.935094 -1.09508 0
M  V30 9626 H 914.465 -0.432254 -4.19177 0
M  V30 9627 H 913.189 0.372308 -3.24471 0
M  V30 9628 H 911.848 -1.76001 -3.21589 0
M  V30 9629 H 911.496 -0.0742225 -5.02945 0
M  V30 9630 H 911.196 -1.72949 -5.61571 0
M  V30 9631 H 912.72 -0.898922 -6.03947 0
M  V30 9632 H 914.134 -2.89207 -4.95007 0
M  V30 9633 H 912.531 -3.65916 -4.75631 0
M  V30 9634 H 913.601 -3.50456 -3.35125 0
M  V30 9635 N 914.944 1.19125 -1.03184 0
M  V30 9636 C 916.221 1.84674 -0.644574 0
M  V30 9637 C 916.601 1.92042 0.876534 0
M  V30 9638 O 915.949 1.43965 1.77444 0
M  V30 9639 C 916.159 3.23477 -1.3101 0
M  V30 9640 C 917.507 3.99608 -1.43524 0
M  V30 9641 O 918.531 3.32886 -1.2675 0
M  V30 9642 O 917.39 5.19132 -1.70776 0
M  V30 9643 H 914.484 0.795968 -0.22442 0
M  V30 9644 H 917.03 1.2659 -1.13018 0
M  V30 9645 H 915.802 3.12967 -2.34878 0
M  V30 9646 H 915.425 3.89209 -0.812547 0
M  V30 9647 N 916.422 0.810101 1.35185 0
M  V30 9648 C 917.833 0.452616 1.81131 0
M  V30 9649 C 918.184 -1.02573 1.67252 0
M  V30 9650 O 917.309 -1.79735 1.20516 0
M  V30 9651 C 917.904 0.814775 3.28857 0
M  V30 9652 C 916.463 0.509839 3.72931 0
M  V30 9653 C 915.61 1.03852 2.57119 0
M  V30 9654 H 918.561 1.00143 1.23114 0
M  V30 9655 H 918.582 0.113635 3.8033 0
M  V30 9656 H 918.094 1.89078 3.38926 0
M  V30 9657 H 916.195 -0.557289 3.68409 0
M  V30 9658 H 916.308 1.04493 4.67566 0
M  V30 9659 H 914.672 0.460671 2.50499 0
M  V30 9660 H 915.455 2.12071 2.69964 0
M  V30 9661 N 917.9 -1.47166 0.563914 0
M  V30 9662 C 919.125 -2.0735 0.0454698 0
M  V30 9663 C 919.55 -1.41281 -1.24182 0
M  V30 9664 O 918.908 -0.490084 -1.7455 0
M  V30 9665 C 918.956 -3.60378 -0.126453 0
M  V30 9666 O 918.06 -3.94934 -1.18746 0
M  V30 9667 H 917.401 -0.661773 0.0543377 0
M  V30 9668 H 919.931 -1.89086 0.781508 0
M  V30 9669 H 919.941 -4.06593 -0.338554 0
M  V30 9670 H 918.616 -4.07862 0.81373 0
M  V30 9671 H 917.193 -3.60455 -0.955318 0
M  V30 9672 N 919.378 -0.300708 -1.54705 0
M  V30 9673 C 920.655 0.361757 -1.92226 0
M  V30 9674 C 921.035 1.71714 -1.2279 0
M  V30 9675 O 920.383 2.2559 -0.363542 0
M  V30 9676 C 920.593 0.476699 -3.45729 0
M  V30 9677 C 921.941 0.7477 -4.17965 0
M  V30 9678 O 922.965 0.560521 -3.51762 0
M  V30 9679 O 921.824 1.10724 -5.35166 0
M  V30 9680 H 918.918 0.202213 -0.801897 0
M  V30 9681 H 921.464 -0.348746 -1.66078 0
M  V30 9682 H 920.236 -0.476132 -3.88392 0
M  V30 9683 H 919.859 1.23568 -3.77911 0
M  V30 9684 N 920.856 1.57574 -0.0284266 0
M  V30 9685 C 922.096 1.93637 0.65453 0
M  V30 9686 C 922.46 0.905015 1.69332 0
M  V30 9687 O 923.661 1.15181 2.42872 0
M  V30 9688 C 921.932 3.3462 1.25555 0
M  V30 9689 S 923.491 3.92609 1.95968 0
M  V30 9690 H 920.309 0.67755 0.215516 0
M  V30 9691 H 922.911 1.95284 -0.0919257 0
M  V30 9692 H 921.615 4.07499 0.487069 0
M  V30 9693 H 921.146 3.36415 2.03933 0
M  V30 9694 H 923.161 3.75988 3.23802 0
M  V30 9695 N 922.334 -0.244713 1.55689 0
M  V30 9696 C 923.264 -1.30667 1.93516 0
M  V30 9697 C 924.245 -1.50094 0.800371 0
M  V30 9698 O 925.43 -1.62665 1.06083 0
M  V30 9699 C 922.56 -2.66101 2.23176 0
M  V30 9700 C 921.514 -2.61366 3.38927 0
M  V30 9701 C 920.84 -4.00616 3.54134 0
M  V30 9702 C 922.14 -2.18161 4.74555 0
M  V30 9703 H 923.834 -0.992546 2.82469 0
M  V30 9704 H 921.38 -0.476018 1.35905 0
M  V30 9705 H 923.333 -3.4053 2.48228 0
M  V30 9706 H 922.057 -2.99154 1.31051 0
M  V30 9707 H 920.716 -1.89395 3.13887 0
M  V30 9708 H 920.364 -4.30938 2.59426 0
M  V30 9709 H 920.064 -3.98335 4.31975 0
M  V30 9710 H 921.588 -4.76741 3.8151 0
M  V30 9711 H 923.002 -2.82323 4.98965 0
M  V30 9712 H 921.399 -2.26988 5.55515 0
M  V30 9713 H 922.469 -1.13333 4.7147 0
M  V30 9714 N 923.813 -1.49104 -0.510467 0
M  V30 9715 C 924.745 -1.61183 -1.6295 0
M  V30 9716 C 925.758 -0.495003 -1.55092 0
M  V30 9717 O 926.947 -0.766671 -1.61197 0
M  V30 9718 C 924.047 -1.54373 -3.01699 0
M  V30 9719 C 923.22 -2.81428 -3.34838 0
M  V30 9720 C 922.279 -2.67802 -4.52956 0
M  V30 9721 O 921.305 -3.41723 -4.55208 0
M  V30 9722 N 922.507 -1.78715 -5.52305 0
M  V30 9723 H 925.272 -2.57693 -1.53018 0
M  V30 9724 H 922.833 -1.46073 -0.698152 0
M  V30 9725 H 924.825 -1.42924 -3.78622 0
M  V30 9726 H 923.395 -0.657597 -3.05605 0
M  V30 9727 H 922.615 -3.07299 -2.46903 0
M  V30 9728 H 923.903 -3.6568 -3.53773 0
M  V30 9729 H 923.301 -1.17897 -5.53278 0
M  V30 9730 H 921.858 -1.73194 -6.28369 0
M  V30 9731 N 925.291 0.760815 -1.38019 0
M  V30 9732 C 926.702 1.33773 -1.30237 0
M  V30 9733 C 927.053 1.96148 0.0451153 0
M  V30 9734 O 926.178 1.94574 0.9471 0
M  V30 9735 C 926.773 2.43227 -2.35851 0
M  V30 9736 C 925.332 2.96659 -2.31669 0
M  V30 9737 C 924.479 1.69972 -2.191 0
M  V30 9738 H 927.43 0.560237 -1.48482 0
M  V30 9739 H 927.451 3.22985 -2.01149 0
M  V30 9740 H 926.963 1.978 -3.33911 0
M  V30 9741 H 925.064 3.46433 -1.37167 0
M  V30 9742 H 925.177 3.51529 -3.25521 0
M  V30 9743 H 923.541 1.9332 -1.65829 0
M  V30 9744 H 924.324 1.26633 -3.19091 0
M  V30 9745 N 926.769 1.22769 0.988202 0
M  V30 9746 C 927.699 1.02627 2.09738 0
M  V30 9747 C 928.68 -0.0543211 1.70013 0
M  V30 9748 O 929.865 0.108811 1.93895 0
M  V30 9749 C 926.995 0.608302 3.41931 0
M  V30 9750 C 925.949 1.63536 3.95525 0
M  V30 9751 C 925.275 1.07308 5.23822 0
M  V30 9752 C 926.575 3.02649 4.25677 0
M  V30 9753 H 928.269 1.954 2.26847 0
M  V30 9754 H 925.815 0.940888 1.09011 0
M  V30 9755 H 927.768 0.454478 4.18942 0
M  V30 9756 H 926.492 -0.355095 3.24664 0
M  V30 9757 H 925.151 1.77704 3.20651 0
M  V30 9758 H 924.799 0.100894 5.02899 0
M  V30 9759 H 924.499 1.75925 5.60646 0
M  V30 9760 H 926.023 0.930938 6.03462 0
M  V30 9761 H 927.437 2.91828 4.93467 0
M  V30 9762 H 925.834 3.68434 4.73684 0
M  V30 9763 H 926.904 3.52228 3.33262 0
M  V30 9764 N 928.247 -1.18576 1.03814 0
M  V30 9765 C 929.472 -1.92978 0.759873 0
M  V30 9766 C 929.897 -1.75514 -0.676486 0
M  V30 9767 O 929.255 -1.06359 -1.46824 0
M  V30 9768 C 929.303 -3.42507 1.12788 0
M  V30 9769 O 928.407 -4.1163 0.251886 0
M  V30 9770 H 927.748 -0.602129 0.279886 0
M  V30 9771 H 930.278 -1.50383 1.3873 0
M  V30 9772 H 930.288 -3.93206 1.08872 0
M  V30 9773 H 928.963 -3.5454 2.17427 0
M  V30 9774 H 927.54 -3.7125 0.350441 0
M  V30 9775 N 929.725 -0.817259 -1.34754 0
M  V30 9776 C 930.658 -0.180483 -2.27485 0
M  V30 9777 C 931.636 0.659792 -1.48612 0
M  V30 9778 O 932.82 0.624761 -1.77845 0
M  V30 9779 C 929.947 0.748487 -3.30326 0
M  V30 9780 C 928.993 -0.0135304 -4.26498 0
M  V30 9781 S 929.826 -1.35685 -5.18025 0
M  V30 9782 C 930.982 -0.432605 -6.24403 0
M  V30 9783 H 931.215 -0.966677 -2.81145 0
M  V30 9784 H 928.748 -0.612864 -1.41716 0
M  V30 9785 H 930.706 1.27893 -3.90069 0
M  V30 9786 H 929.367 1.50816 -2.75524 0
M  V30 9787 H 928.56 0.692454 -4.9922 0
M  V30 9788 H 928.162 -0.474344 -3.7098 0
M  V30 9789 H 930.454 0.378035 -6.76444 0
M  V30 9790 H 931.397 -1.12934 -6.99036 0
M  V30 9791 H 931.805 -0.0235533 -5.64495 0
M  V30 9792 N 931.203 1.46865 -0.571711 0
M  V30 9793 C 932.135 2.28277 0.205479 0
M  V30 9794 C 933.148 1.37866 0.865835 0
M  V30 9795 O 934.337 1.62564 0.737247 0
M  V30 9796 C 931.437 3.12572 1.30965 0
M  V30 9797 C 930.61 4.31038 0.743328 0
M  V30 9798 C 929.669 4.96815 1.73382 0
M  V30 9799 O 928.695 5.54755 1.2742 0
M  V30 9800 N 929.897 4.92825 3.06764 0
M  V30 9801 H 932.662 2.95618 -0.49294 0
M  V30 9802 H 930.223 1.56655 -0.408744 0
M  V30 9803 H 932.215 3.53442 1.97131 0
M  V30 9804 H 930.785 2.47378 1.91109 0
M  V30 9805 H 930.005 3.94084 -0.0955004 0
M  V30 9806 H 931.293 5.07632 0.344556 0
M  V30 9807 H 930.691 4.46978 3.46738 0
M  V30 9808 H 929.248 5.3767 3.68449 0
M  V30 9809 N 932.681 0.308908 1.54543 0
M  V30 9810 C 933.644 -0.550857 2.22482 0
M  V30 9811 C 934.644 -1.0551 1.21344 0
M  V30 9812 O 935.834 -0.949866 1.46025 0
M  V30 9813 C 932.966 -1.76354 2.9174 0
M  V30 9814 H 934.159 0.0428395 2.99869 0
M  V30 9815 H 931.712 0.059825 1.56185 0
M  V30 9816 H 932.447 -2.39686 2.18451 0
M  V30 9817 H 932.232 -1.40954 3.65889 0
M  V30 9818 H 933.722 -2.37417 3.43545 0
M  V30 9819 N 934.159 -1.57557 0.0367827 0
M  V30 9820 C 935.089 -2.13712 -0.940719 0
M  V30 9821 C 936.07 -1.05515 -1.33419 0
M  V30 9822 O 937.255 -1.33385 -1.41146 0
M  V30 9823 C 934.385 -2.67043 -2.22048 0
M  V30 9824 C 933.339 -3.80096 -1.96752 0
M  V30 9825 C 932.665 -4.19886 -3.31059 0
M  V30 9826 C 933.965 -5.05848 -1.30058 0
M  V30 9827 H 935.659 -2.9564 -0.473033 0
M  V30 9828 H 933.205 -1.42214 -0.226089 0
M  V30 9829 H 935.158 -3.04964 -2.90818 0
M  V30 9830 H 933.882 -1.82287 -2.70996 0
M  V30 9831 H 932.541 -3.42625 -1.30398 0
M  V30 9832 H 932.189 -3.32101 -3.77781 0
M  V30 9833 H 931.889 -4.96073 -3.14937 0
M  V30 9834 H 933.413 -4.60395 -4.01084 0
M  V30 9835 H 934.827 -5.41306 -1.8884 0
M  V30 9836 H 933.224 -5.87084 -1.24309 0
M  V30 9837 H 934.294 -4.84122 -0.274591 0
M  V30 9838 N 935.637 0.236453 -1.55816 0
M  V30 9839 C 937.048 0.80468 -1.68469 0
M  V30 9840 C 937.399 1.85601 -0.636133 0
M  V30 9841 O 936.524 2.15323 0.215622 0
M  V30 9842 C 937.119 1.46634 -3.05424 0
M  V30 9843 C 935.678 1.98214 -3.19981 0
M  V30 9844 C 934.825 0.83695 -2.64368 0
M  V30 9845 H 937.776 0.0120647 -1.58695 0
M  V30 9846 H 937.797 2.33472 -3.00451 0
M  V30 9847 H 937.309 0.700931 -3.81718 0
M  V30 9848 H 935.41 2.77604 -2.4853 0
M  V30 9849 H 935.523 2.17235 -4.2702 0
M  V30 9850 H 933.887 1.24028 -2.22462 0
M  V30 9851 H 934.67 0.084451 -3.43196 0
M  V30 9852 N 937.115 1.49373 0.502552 0
M  V30 9853 C 938.078 1.65413 1.58654 0
M  V30 9854 C 939.078 0.526003 1.51953 0
M  V30 9855 O 940.268 0.792421 1.55133 0
M  V30 9856 C 937.4 1.65005 2.98306 0
M  V30 9857 H 938.593 2.62095 1.45762 0
M  V30 9858 H 936.146 1.38381 0.726672 0
M  V30 9859 H 936.881 0.699014 3.16677 0
M  V30 9860 H 936.666 2.46931 3.04578 0
M  V30 9861 H 938.156 1.79477 3.77065 0
M  V30 9862 N 938.594 -0.753485 1.38421 0
M  V30 9863 C 939.526 -1.87692 1.31547 0
M  V30 9864 C 940.539 -1.612 0.227671 0
M  V30 9865 O 941.728 -1.71778 0.485238 0
M  V30 9866 C 938.828 -3.23329 1.01545 0
M  V30 9867 C 938.001 -3.77324 2.21236 0
M  V30 9868 C 937.06 -4.91478 1.87977 0
M  V30 9869 O 936.086 -5.06106 2.60472 0
M  V30 9870 N 937.288 -5.74466 0.834796 0
M  V30 9871 H 940.053 -1.94099 2.28354 0
M  V30 9872 H 937.614 -0.933421 1.32283 0
M  V30 9873 H 939.606 -3.9724 0.773477 0
M  V30 9874 H 938.176 -3.12307 0.135334 0
M  V30 9875 H 937.396 -2.94978 2.61498 0
M  V30 9876 H 938.684 -4.10131 3.01115 0
M  V30 9877 H 938.082 -5.65217 0.233606 0
M  V30 9878 H 936.639 -6.48524 0.652703 0
M  V30 9879 N 940.072 -1.23292 -0.981677 0
M  V30 9880 C 941.483 -1.05936 -1.53735 0
M  V30 9881 C 941.834 0.373695 -1.92608 0
M  V30 9882 O 940.959 1.26024 -1.75917 0
M  V30 9883 C 941.554 -1.91682 -2.79363 0
M  V30 9884 C 940.113 -1.78591 -3.31334 0
M  V30 9885 C 939.26 -1.87463 -2.04335 0
M  V30 9886 H 942.211 -1.36973 -0.801505 0
M  V30 9887 H 942.232 -1.44085 -3.52164 0
M  V30 9888 H 941.744 -2.95975 -2.51039 0
M  V30 9889 H 939.845 -0.770755 -3.64541 0
M  V30 9890 H 939.958 -2.61902 -4.01179 0
M  V30 9891 H 938.322 -1.3103 -2.18411 0
M  V30 9892 H 939.105 -2.9331 -1.78394 0
M  V30 9893 N 941.55 1.18024 -1.04442 0
M  V30 9894 C 942.46 2.25436 -0.649276 0
M  V30 9895 C 943.476 1.70915 0.326189 0
M  V30 9896 O 944.652 2.00592 0.180174 0
M  V30 9897 C 941.717 3.46693 -0.0222558 0
M  V30 9898 C 940.778 4.16332 -1.0472 0
M  V30 9899 C 940.011 5.31799 -0.450011 0
M  V30 9900 O 940.234 5.65544 0.742717 0
M  V30 9901 O 939.168 5.90209 -1.18056 0
M  V30 9902 H 942.994 2.61508 -1.54426 0
M  V30 9903 H 940.579 1.25178 -0.81552 0
M  V30 9904 H 942.461 4.20132 0.326597 0
M  V30 9905 H 941.136 3.12436 0.84649 0
M  V30 9906 H 940.043 3.44944 -1.44792 0
M  V30 9907 H 941.376 4.54598 -1.88684 0
M  V30 9908 N 943.028 0.824394 1.34319 0
M  V30 9909 C 944.253 0.425194 2.02995 0
M  V30 9910 C 944.678 -0.961476 1.6167 0
M  V30 9911 O 944.036 -1.62593 0.80207 0
M  V30 9912 C 944.084 0.537004 3.56579 0
M  V30 9913 O 943.188 -0.442576 4.10018 0
M  V30 9914 H 942.529 0.174853 0.640564 0
M  V30 9915 H 945.059 1.11522 1.71534 0
M  V30 9916 H 945.069 0.413311 4.05901 0
M  V30 9917 H 943.744 1.54836 3.86004 0
M  V30 9918 H 942.321 -0.277644 3.71865 0
M  V30 9919 N 944.506 -1.46559 0.579492 0
M  V30 9920 C 945.436 -2.33059 -0.143437 0
M  V30 9921 C 946.417 -1.4515 -0.886868 0
M  V30 9922 O 947.602 -1.73973 -0.862961 0
M  V30 9923 C 944.732 -3.27364 -1.15973 0
M  V30 9924 C 943.686 -4.24689 -0.531348 0
M  V30 9925 C 943.012 -5.08479 -1.65388 0
M  V30 9926 C 944.312 -5.1961 0.529391 0
M  V30 9927 H 946.006 -2.93753 0.578762 0
M  V30 9928 H 943.552 -1.41256 0.279775 0
M  V30 9929 H 945.505 -3.86732 -1.67382 0
M  V30 9930 H 944.229 -2.64771 -1.91217 0
M  V30 9931 H 942.888 -3.6658 -0.0383749 0
M  V30 9932 H 942.536 -4.42273 -2.3959 0
M  V30 9933 H 942.236 -5.74387 -1.23909 0
M  V30 9934 H 943.76 -5.70709 -2.17079 0
M  V30 9935 H 945.174 -5.73212 0.100506 0
M  V30 9936 H 943.571 -5.93843 0.86432 0
M  V30 9937 H 944.641 -4.63737 1.4169 0
M  V30 9938 N 945.984 -0.3171 -1.54377 0
M  V30 9939 C 947.224 0.288083 -2.0236 0
M  V30 9940 C 947.588 1.4985 -1.20038 0
M  V30 9941 O 948.789 2.17611 -1.57794 0
M  V30 9942 C 947.06 0.620192 -3.51978 0
M  V30 9943 S 948.619 1.20595 -4.21903 0
M  V30 9944 H 945.437 0.0875231 -0.705592 0
M  V30 9945 H 948.039 -0.448719 -1.90281 0
M  V30 9946 H 946.743 -0.268982 -4.09518 0
M  V30 9947 H 946.274 1.38736 -3.68125 0
M  V30 9948 H 948.289 2.49308 -4.29022 0
M  V30 9949 N 947.462 1.57535 -0.0451378 0
M  V30 9950 C 948.711 1.91628 0.629415 0
M  V30 9951 C 949.024 0.924754 1.72359 0
M  V30 9952 O 950.23 1.15751 2.45589 0
M  V30 9953 C 948.686 3.40322 1.17084 0
M  V30 9954 C 948.294 4.47867 0.109101 0
M  V30 9955 C 950.038 3.83458 1.82099 0
M  V30 9956 C 947.945 5.87671 0.663072 0
M  V30 9957 H 946.875 0.715163 0.238868 0
M  V30 9958 H 949.526 1.83151 -0.113046 0
M  V30 9959 H 947.908 3.43783 1.96543 0
M  V30 9960 H 949.082 4.55988 -0.664201 0
M  V30 9961 H 947.397 4.14034 -0.443227 0
M  V30 9962 H 949.994 4.85273 2.2453 0
M  V30 9963 H 950.337 3.19379 2.67026 0
M  V30 9964 H 950.87 3.82488 1.09305 0
M  V30 9965 H 947.609 6.55332 -0.148423 0
M  V30 9966 H 947.129 5.83124 1.4045 0
M  V30 9967 H 948.808 6.36737 1.14785 0
M  V30 9968 N 948.94 -0.228186 1.55939 0
M  V30 9969 C 950.186 -0.954964 1.78909 0
M  V30 9970 C 950.519 -1.8425 0.613648 0
M  V30 9971 O 949.794 -1.90604 -0.38737 0
M  V30 9972 C 950.077 -1.79957 3.1191 0
M  V30 9973 C 949.93 -0.938968 4.3989 0
M  V30 9974 C 951.249 -2.77859 3.41295 0
M  V30 9975 H 948.368 -0.345745 0.650868 0
M  V30 9976 H 951.01 -0.224244 1.88672 0
M  V30 9977 H 949.16 -2.42256 3.03717 0
M  V30 9978 H 950.832 -0.333225 4.60095 0
M  V30 9979 H 949.075 -0.244096 4.33113 0
M  V30 9980 H 949.746 -1.56416 5.29375 0
M  V30 9981 H 952.222 -2.25695 3.49572 0
M  V30 9982 H 951.098 -3.34062 4.35538 0
M  V30 9983 H 951.359 -3.55266 2.63132 0
M  V30 9984 N 950.418 -1.49637 -0.494624 0
M  V30 9985 C 951.328 -1.69522 -1.62172 0
M  V30 9986 C 952.344 -0.577894 -1.64123 0
M  V30 9987 O 953.52 -0.853382 -1.82426 0
M  V30 9988 C 950.585 -1.7633 -2.9851 0
M  V30 9989 C 949.646 -2.99944 -3.07135 0
M  V30 9990 C 948.879 -3.06419 -4.36971 0
M  V30 9991 O 949.102 -2.20312 -5.26136 0
M  V30 9992 O 948.036 -3.9894 -4.507 0
M  V30 9993 H 951.862 -2.65017 -1.48324 0
M  V30 9994 H 949.447 -1.33454 -0.671603 0
M  V30 9995 H 951.329 -1.83125 -3.7953 0
M  V30 9996 H 950.004 -0.840155 -3.12607 0
M  V30 9997 H 948.911 -2.98664 -2.2528 0
M  V30 9998 H 950.244 -3.9176 -2.97968 0
M  V30 9999 N 951.896 0.746133 -1.38819 0
M  V30 10000 C 952.829 1.86833 -1.31029 0
M  V30 10001 C 953.807 1.61533 -0.185948 0
M  V30 10002 O 954.991 1.84942 -0.364529 0
M  V30 10003 C 952.118 3.22596 -1.03198 0
M  V30 10004 C 951.164 3.66772 -2.17671 0
M  V30 10005 S 951.997 3.77438 -3.7987 0
M  V30 10006 C 953.153 5.16008 -3.54241 0
M  V30 10007 H 953.386 1.93155 -2.26005 0
M  V30 10008 H 950.919 0.909872 -1.24742 0
M  V30 10009 H 952.877 4.00995 -0.878237 0
M  V30 10010 H 951.538 3.13943 -0.0992704 0
M  V30 10011 H 950.731 4.65266 -1.93762 0
M  V30 10012 H 950.333 2.95547 -2.2919 0
M  V30 10013 H 952.625 6.01996 -3.10816 0
M  V30 10014 H 953.568 5.44941 -4.52156 0
M  V30 10015 H 953.976 4.85158 -2.88587 0
M  V30 10016 N 953.375 1.23811 0.975125 0
M  V30 10017 C 954.623 1.07124 1.71373 0
M  V30 10018 C 954.944 -0.391864 1.91022 0
M  V30 10019 O 954.214 -1.28041 1.48265 0
M  V30 10020 H 952.794 0.393415 0.635007 0
M  V30 10021 H 955.456 1.55612 1.17349 0
M  V30 10022 H 954.552 1.56338 2.7012 0
M  V30 10023 N 954.853 -1.17469 1.05066 0
M  V30 10024 C 956.101 -1.87327 0.758485 0
M  V30 10025 C 956.422 -1.81358 -0.716549 0
M  V30 10026 O 955.692 -1.23868 -1.51768 0
M  V30 10027 H 954.272 -0.693512 0.277579 0
M  V30 10028 H 956.934 -1.4251 1.32954 0
M  V30 10029 H 956.03 -2.93101 1.0723 0
M  V30 10030 N 956.331 -0.831506 -1.3388 0
M  V30 10031 C 957.559 -0.436925 -2.02234 0
M  V30 10032 C 957.974 0.959689 -1.6259 0
M  V30 10033 O 957.331 1.62248 -0.835576 0
M  V30 10034 C 957.382 -0.539429 -3.57453 0
M  V30 10035 O 957.103 -1.88101 -3.95664 0
M  V30 10036 C 958.604 -0.140852 -4.43076 0
M  V30 10037 H 955.824 -0.174302 -0.647966 0
M  V30 10038 H 958.368 -1.12204 -1.70969 0
M  V30 10039 H 956.523 0.0976959 -3.87277 0
M  V30 10040 H 956.937 -1.86131 -4.90363 0
M  V30 10041 H 958.411 -0.26364 -5.5137 0
M  V30 10042 H 958.888 0.916505 -4.29531 0
M  V30 10043 H 959.494 -0.752117 -4.18597 0
M  V30 10044 N 957.809 1.4625 -0.587256 0
M  V30 10045 C 958.719 2.34147 0.145744 0
M  V30 10046 C 959.735 1.50026 0.881376 0
M  V30 10047 O 960.911 1.82884 0.843539 0
M  V30 10048 C 957.976 3.27294 1.14366 0
M  V30 10049 C 957.037 4.27317 0.412199 0
M  V30 10050 C 956.27 5.16013 1.36257 0
M  V30 10051 O 956.493 5.0773 2.59934 0
M  V30 10052 O 955.427 5.95569 0.870681 0
M  V30 10053 H 959.253 2.98187 -0.576055 0
M  V30 10054 H 956.838 1.45299 -0.347628 0
M  V30 10055 H 958.72 3.84747 1.71894 0
M  V30 10056 H 957.395 2.65845 1.84684 0
M  V30 10057 H 956.302 3.73538 -0.205036 0
M  V30 10058 H 957.635 4.91564 -0.250104 0
M  V30 10059 N 959.287 0.325282 1.54207 0
M  V30 10060 C 960.234 -0.539889 2.24397 0
M  V30 10061 C 961.204 -1.11028 1.2354 0
M  V30 10062 O 962.389 -1.1503 1.52226 0
M  V30 10063 C 959.529 -1.69405 3.00659 0
M  V30 10064 C 958.642 -1.15273 4.16337 0
M  V30 10065 C 957.777 -2.27272 4.80126 0
M  V30 10066 C 956.816 -1.70397 5.87904 0
M  V30 10067 N 955.953 -2.76065 6.45548 0
M  V30 10068 H 960.793 0.0652318 2.97929 0
M  V30 10069 H 958.33 0.043964 1.47034 0
M  V30 10070 H 960.288 -2.37325 3.43122 0
M  V30 10071 H 958.918 -2.27043 2.29458 0
M  V30 10072 H 957.97 -0.365034 3.78645 0
M  V30 10073 H 959.282 -0.696576 4.93912 0
M  V30 10074 H 958.436 -3.03092 5.25566 0
M  V30 10075 H 957.175 -2.76224 4.01935 0
M  V30 10076 H 956.18 -0.930752 5.41864 0
M  V30 10077 H 957.405 -1.22319 6.67993 0
M  V30 10078 H 955.351 -3.24306 5.7023 0
M  V30 10079 H 955.268 -2.35018 7.18542 0
M  V30 10080 H 956.536 -3.5171 6.95644 0
M  V30 10081 N 960.765 -1.57509 0.0534917 0
M  V30 10082 C 961.697 -2.08616 -0.949322 0
M  V30 10083 C 962.71 -1.01446 -1.27328 0
M  V30 10084 O 963.899 -1.29007 -1.23367 0
M  V30 10085 C 960.999 -2.51622 -2.27024 0
M  V30 10086 C 960.172 -3.82154 -2.12785 0
M  V30 10087 C 959.231 -4.11448 -3.2802 0
M  V30 10088 O 958.257 -4.81333 -3.03822 0
M  V30 10089 N 959.459 -3.63543 -4.52567 0
M  V30 10090 H 962.224 -2.95275 -0.5131 0
M  V30 10091 H 959.785 -1.61355 -0.132693 0
M  V30 10092 H 961.777 -2.68293 -3.02986 0
M  V30 10093 H 960.347 -1.70198 -2.62205 0
M  V30 10094 H 959.567 -3.75041 -1.21399 0
M  V30 10095 H 960.855 -4.67629 -2.00501 0
M  V30 10096 H 960.253 -3.07051 -4.75117 0
M  V30 10097 H 958.81 -3.85448 -5.25617 0
M  V30 10098 N 962.243 0.219913 -1.56058 0
M  V30 10099 C 963.52 0.968493 -1.6994 0
M  V30 10100 C 963.9 2.02358 -0.601219 0
M  V30 10101 O 963.248 2.25121 0.391534 0
M  V30 10102 C 963.458 1.57745 -3.11316 0
M  V30 10103 C 964.806 2.06908 -3.70775 0
M  V30 10104 O 965.83 1.67636 -3.14288 0
M  V30 10105 O 964.689 2.79096 -4.69859 0
M  V30 10106 H 961.783 0.452521 -0.692209 0
M  V30 10107 H 964.329 0.211566 -1.68376 0
M  V30 10108 H 963.101 0.815687 -3.82704 0
M  V30 10109 H 962.724 2.39987 -3.17005 0
M  V30 10110 N 963.721 1.49897 0.486681 0
M  V30 10111 C 964.631 1.70379 1.6127 0
M  V30 10112 C 965.647 0.58659 1.63814 0
M  V30 10113 O 966.823 0.863044 1.81971 0
M  V30 10114 C 963.888 1.77911 2.97571 0
M  V30 10115 C 962.949 3.01569 3.0554 0
M  V30 10116 C 962.182 3.08732 4.35339 0
M  V30 10117 O 962.405 2.23099 5.2496 0
M  V30 10118 O 961.339 4.01325 4.48578 0
M  V30 10119 H 965.165 2.65799 1.46916 0
M  V30 10120 H 962.75 1.33808 0.664516 0
M  V30 10121 H 964.632 1.85135 3.78554 0
M  V30 10122 H 963.307 0.856722 3.12157 0
M  V30 10123 H 962.214 2.99854 2.23693 0
M  V30 10124 H 963.547 3.93335 2.95886 0
M  V30 10125 N 965.199 -0.738761 1.39212 0
M  V30 10126 C 966.129 -1.86602 1.40364 0
M  V30 10127 C 967.11 -1.67984 0.267495 0
M  V30 10128 O 968.295 -1.88358 0.472765 0
M  V30 10129 C 965.425 -3.24308 1.24265 0
M  V30 10130 C 964.379 -3.57557 2.35239 0
M  V30 10131 C 963.705 -4.94159 2.04233 0
M  V30 10132 C 965.005 -3.60914 3.77543 0
M  V30 10133 H 966.699 -1.85896 2.34698 0
M  V30 10134 H 964.245 -0.892959 1.1297 0
M  V30 10135 H 966.198 -4.02838 1.23692 0
M  V30 10136 H 964.922 -3.25531 0.263974 0
M  V30 10137 H 963.581 -2.81354 2.35022 0
M  V30 10138 H 963.229 -4.91959 1.04813 0
M  V30 10139 H 962.929 -5.17373 2.78567 0
M  V30 10140 H 964.453 -5.7505 2.05303 0
M  V30 10141 H 965.867 -4.29528 3.79709 0
M  V30 10142 H 964.264 -3.95644 4.51205 0
M  V30 10143 H 965.334 -2.60803 4.08791 0
M  V30 10144 N 966.677 -1.24326 -0.968545 0
M  V30 10145 C 967.925 -1.08032 -1.70803 0
M  V30 10146 C 968.246 0.381728 -1.91227 0
M  V30 10147 O 967.516 1.27253 -1.48942 0
M  V30 10148 H 966.096 -0.396777 -0.632912 0
M  V30 10149 H 968.758 -1.56232 -1.16523 0
M  V30 10150 H 967.854 -1.57769 -2.69287 0
M  V30 10151 N 968.156 1.1691 -1.05688 0
M  V30 10152 C 969.066 2.24735 -0.67315 0
M  V30 10153 C 970.082 1.71252 0.308043 0
M  V30 10154 O 971.258 2.00772 0.158889 0
M  V30 10155 C 968.323 3.4665 -0.059026 0
M  V30 10156 C 967.384 4.15198 -1.0913 0
M  V30 10157 C 966.617 5.31292 -0.50639 0
M  V30 10158 O 966.84 5.663 0.682692 0
M  V30 10159 O 965.774 5.88923 -1.2431 0
M  V30 10160 H 969.6 2.59855 -1.57191 0
M  V30 10161 H 967.185 1.24306 -0.828751 0
M  V30 10162 H 969.067 4.20455 0.282018 0
M  V30 10163 H 967.742 3.13316 0.813304 0
M  V30 10164 H 966.649 3.43389 -1.48442 0
M  V30 10165 H 967.982 4.52571 -1.93495 0
M  V30 10166 N 969.634 0.838594 1.33437 0
M  V30 10167 C 971.05 0.526347 1.50671 0
M  V30 10168 C 971.25 -0.946387 1.77893 0
M  V30 10169 O 970.306 -1.7302 1.83903 0
M  V30 10170 C 971.619 1.39945 2.6615 0
M  V30 10171 C 973.167 1.3982 2.80035 0
M  V30 10172 C 973.642 2.25614 3.98576 0
M  V30 10173 N 975.133 2.23322 4.0581 0
M  V30 10174 C 975.868 2.86443 4.96727 0
M  V30 10175 N 975.364 3.58616 5.92762 0
M  V30 10176 N 977.157 2.75915 4.89722 0
M  V30 10177 H 969.308 1.79195 1.1403 0
M  V30 10178 H 971.571 0.764491 0.560586 0
M  V30 10179 H 971.277 2.44599 2.52714 0
M  V30 10180 H 971.151 1.07529 3.61548 0
M  V30 10181 H 973.538 0.35937 2.92904 0
M  V30 10182 H 973.619 1.76241 1.85399 0
M  V30 10183 H 973.263 3.29555 3.86466 0
M  V30 10184 H 973.193 1.86533 4.92456 0
M  V30 10185 H 975.684 1.70836 3.37081 0
M  V30 10186 H 975.997 4.03987 6.58798 0
M  V30 10187 H 974.342 3.62724 5.92838 0
M  V30 10188 H 977.533 2.19094 4.13661 0
M  V30 10189 H 977.706 3.25393 5.60378 0
M  V30 10190 N 971.112 -1.45937 0.595003 0
M  V30 10191 C 972.36 -2.01921 0.0851368 0
M  V30 10192 C 972.681 -1.46748 -1.28413 0
M  V30 10193 O 971.951 -0.656873 -1.84559 0
M  V30 10194 H 970.531 -0.746457 0.0284826 0
M  V30 10195 H 973.193 -1.78891 0.773561 0
M  V30 10196 H 972.289 -3.1209 0.0254002 0
M  V30 10197 N 972.59 -0.333456 -1.54032 0
M  V30 10198 C 973.815 0.270517 -2.05628 0
M  V30 10199 C 974.24 1.44231 -1.20744 0
M  V30 10200 O 973.598 1.79975 -0.218822 0
M  V30 10201 C 973.646 0.673251 -3.54259 0
M  V30 10202 O 972.75 1.77448 -3.72271 0
M  V30 10203 H 972.091 0.0469753 -0.662336 0
M  V30 10204 H 974.621 -0.484739 -1.98775 0
M  V30 10205 H 974.631 0.953194 -3.96709 0
M  V30 10206 H 973.306 -0.183747 -4.15494 0
M  V30 10207 H 971.883 1.49259 -3.41725 0
M  V30 10208 N 974.068 1.57479 -0.061844 0
M  V30 10209 C 975.317 1.92285 0.609055 0
M  V30 10210 C 975.63 0.942983 1.71369 0
M  V30 10211 O 976.836 1.18349 2.44348 0
M  V30 10212 C 975.292 3.41545 1.13468 0
M  V30 10213 C 974.9 4.47958 0.0615926 0
M  V30 10214 C 976.644 3.85368 1.78022 0
M  V30 10215 C 974.551 5.88341 0.600705 0
M  V30 10216 H 973.481 0.717656 0.23127 0
M  V30 10217 H 976.132 1.83021 -0.132466 0
M  V30 10218 H 974.514 3.45848 1.92886 0
M  V30 10219 H 975.688 4.55258 -0.712527 0
M  V30 10220 H 974.003 4.13541 -0.487116 0
M  V30 10221 H 976.6 4.87627 2.19371 0
M  V30 10222 H 976.943 3.22193 2.63623 0
M  V30 10223 H 977.476 3.83626 1.05242 0
M  V30 10224 H 974.215 6.55138 -0.217922 0
M  V30 10225 H 973.735 5.84581 1.34257 0
M  V30 10226 H 975.414 6.37918 1.08025 0
M  V30 10227 N 975.546 -0.211634 1.56173 0
M  V30 10228 C 976.794 -0.932704 1.7929 0
M  V30 10229 C 977.115 -1.84472 0.632076 0
M  V30 10230 O 976.385 -1.92739 -0.350519 0
M  V30 10231 H 974.965 -0.347393 0.661307 0
M  V30 10232 H 977.627 -0.22111 1.93642 0
M  V30 10233 H 976.723 -1.53365 2.71819 0
M  V30 10234 N 977.024 -1.50153 -0.478725 0
M  V30 10235 C 978.271 -1.6076 -1.23136 0
M  V30 10236 C 978.599 -0.30442 -1.92103 0
M  V30 10237 O 977.854 0.709213 -1.82397 0
M  V30 10238 C 978.153 -2.73208 -2.30417 0
M  V30 10239 C 977.819 -4.13953 -1.78755 0
M  V30 10240 C 976.481 -4.52251 -1.64386 0
M  V30 10241 C 978.833 -5.01949 -1.40344 0
M  V30 10242 C 976.161 -5.76292 -1.10018 0
M  V30 10243 C 978.513 -6.2653 -0.874206 0
M  V30 10244 C 977.177 -6.63637 -0.717085 0
M  V30 10245 H 976.447 -0.588264 -0.450585 0
M  V30 10246 H 979.094 -1.84061 -0.528551 0
M  V30 10247 H 977.399 -2.43965 -3.06575 0
M  V30 10248 H 979.096 -2.7862 -2.88395 0
M  V30 10249 H 975.686 -3.83736 -1.90904 0
M  V30 10250 H 979.87 -4.73 -1.50283 0
M  V30 10251 H 975.126 -6.03723 -0.965838 0
M  V30 10252 H 979.3 -6.94081 -0.567883 0
M  V30 10253 H 976.927 -7.59633 -0.293639 0
M  V30 10254 N 978.502 0.731368 -1.39602 0
M  V30 10255 C 979.432 1.85855 -1.41351 0
M  V30 10256 C 980.413 1.67839 -0.2764 0
M  V30 10257 O 981.598 1.88104 -0.482747 0
M  V30 10258 C 978.728 3.23644 -1.25983 0
M  V30 10259 C 977.682 3.56304 -2.37132 0
M  V30 10260 C 977.008 4.93069 -2.0685 0
M  V30 10261 C 978.308 3.58906 -3.79452 0
M  V30 10262 H 980.002 1.84648 -2.3568 0
M  V30 10263 H 977.548 0.886955 -1.13442 0
M  V30 10264 H 979.501 4.02176 -1.25826 0
M  V30 10265 H 978.225 3.25387 -0.281234 0
M  V30 10266 H 976.884 2.80104 -2.36511 0
M  V30 10267 H 976.532 4.91396 -1.0742 0
M  V30 10268 H 976.232 5.15888 -2.81306 0
M  V30 10269 H 977.756 5.73953 -2.0835 0
M  V30 10270 H 979.17 4.27508 -3.81982 0
M  V30 10271 H 977.567 3.93246 -4.53297 0
M  V30 10272 H 978.637 2.58631 -4.10168 0
M  V30 10273 N 979.98 1.24838 0.961938 0
M  V30 10274 C 981.21 1.11709 1.73795 0
M  V30 10275 C 981.618 -0.33263 1.86253 0
M  V30 10276 O 980.961 -1.24101 1.35443 0
M  V30 10277 C 981.023 1.68959 3.17322 0
M  V30 10278 C 980.687 3.17895 3.28316 0
M  V30 10279 C 981.684 4.14975 3.13196 0
M  V30 10280 C 979.369 3.57966 3.52372 0
M  V30 10281 C 981.363 5.50107 3.21965 0
M  V30 10282 C 979.05 4.93237 3.60778 0
M  V30 10283 C 980.048 5.89116 3.45588 0
M  V30 10284 O 979.736 7.21927 3.53662 0
M  V30 10285 H 979.468 0.390726 0.551642 0
M  V30 10286 H 982.022 1.65541 1.21594 0
M  V30 10287 H 980.252 1.09567 3.70853 0
M  V30 10288 H 981.941 1.51036 3.76753 0
M  V30 10289 H 982.707 3.85359 2.94489 0
M  V30 10290 H 978.586 2.83837 3.63259 0
M  V30 10291 H 982.13 6.24924 3.10025 0
M  V30 10292 H 978.027 5.22522 3.79 0
M  V30 10293 H 978.795 7.29925 3.7034 0
M  V30 10294 N 981.458 -1.16348 1.06306 0
M  V30 10295 C 982.388 -2.2291 0.695234 0
M  V30 10296 C 983.369 -1.67208 -0.312343 0
M  V30 10297 O 984.554 -1.93293 -0.187442 0
M  V30 10298 C 981.684 -3.47205 0.0810149 0
M  V30 10299 C 980.638 -4.15801 1.01458 0
M  V30 10300 C 979.964 -5.3405 0.263656 0
M  V30 10301 C 981.264 -4.66766 2.34365 0
M  V30 10302 H 982.958 -2.53934 1.58613 0
M  V30 10303 H 980.504 -1.22056 0.76409 0
M  V30 10304 H 982.457 -4.2098 -0.18818 0
M  V30 10305 H 981.181 -3.15482 -0.844897 0
M  V30 10306 H 979.84 -3.43954 1.26852 0
M  V30 10307 H 979.488 -4.9858 -0.665378 0
M  V30 10308 H 979.188 -5.80885 0.88582 0
M  V30 10309 H 980.712 -6.106 0.00200994 0
M  V30 10310 H 982.126 -5.3212 2.13356 0
M  V30 10311 H 980.523 -5.24223 2.9208 0
M  V30 10312 H 981.593 -3.82969 2.97426 0
M  V30 10313 N 982.937 -0.845659 -1.3299 0
M  V30 10314 C 983.885 -0.272412 -2.30999 0
M  V30 10315 C 984.879 0.599311 -1.58444 0
M  V30 10316 O 986.085 0.488117 -1.73255 0
M  V30 10317 H 982.46 -0.0693751 -0.748793 0
M  V30 10318 H 984.431 -1.11343 -2.76849 0
M  V30 10319 C 983.18 0.532019 -3.43606 0
M  V30 10320 H 982.503 -0.129455 -3.9959 0
M  V30 10321 H 983.943 0.898853 -4.14363 0
M  V30 10322 C 982.402 1.71364 -2.90062 0
M  V30 10323 O 982.932 2.81252 -2.8681 0
M  V30 10324 N 981.138 1.53775 -2.4658 0
M  V30 10325 H 980.685 0.643836 -2.49424 0
M  V30 10326 H 980.643 2.32982 -2.11108 0
M  V30 10327 N 984.415 1.45619 -0.602734 0
M  V30 10328 C 985.664 2.01483 -0.0936395 0
M  V30 10329 C 985.977 1.47753 1.28173 0
M  V30 10330 O 987.183 1.95562 1.88329 0
M  V30 10331 C 985.639 3.59711 -0.116738 0
M  V30 10332 C 985.247 4.22437 -1.49166 0
M  V30 10333 C 986.991 4.23157 0.337368 0
M  V30 10334 C 984.898 5.72803 -1.47141 0
M  V30 10335 H 983.828 0.753353 -0.0312382 0
M  V30 10336 H 986.479 1.67142 -0.757347 0
M  V30 10337 H 984.861 3.91218 0.613529 0
M  V30 10338 H 986.035 4.02511 -2.24325 0
M  V30 10339 H 984.35 3.71166 -1.88746 0
M  V30 10340 H 986.947 5.33407 0.371628 0
M  V30 10341 H 987.29 3.93491 1.35906 0
M  V30 10342 H 987.823 3.96349 -0.339474 0
M  V30 10343 H 984.562 6.07161 -2.47055 0
M  V30 10344 H 984.082 5.94936 -0.762329 0
M  V30 10345 H 985.761 6.35907 -1.19294 0
M  V30 10346 N 985.893 0.34162 1.53853 0
M  V30 10347 C 987.141 -0.254979 2.00485 0
M  V30 10348 C 987.462 -1.51222 1.23114 0
M  V30 10349 O 986.732 -1.92966 0.337787 0
M  V30 10350 H 985.312 -0.0972084 0.740648 0
M  V30 10351 H 987.974 0.462332 1.89337 0
M  V30 10352 H 987.07 -0.498778 3.08089 0
M  V30 10353 N 987.371 -1.57444 0.0701946 0
M  V30 10354 C 988.301 -2.15659 -0.895176 0
M  V30 10355 C 989.282 -1.08321 -1.31151 0
M  V30 10356 O 990.467 -1.36349 -1.38284 0
M  V30 10357 C 987.597 -2.71693 -2.16334 0
M  V30 10358 C 986.551 -3.84183 -1.88645 0
M  V30 10359 C 985.877 -4.26814 -3.22078 0
M  V30 10360 C 987.177 -5.08493 -1.19299 0
M  V30 10361 H 988.871 -2.96576 -0.410217 0
M  V30 10362 H 986.417 -1.42662 -0.195872 0
M  V30 10363 H 988.37 -3.11064 -2.84284 0
M  V30 10364 H 987.094 -1.87994 -2.67069 0
M  V30 10365 H 985.753 -3.45314 -1.23101 0
M  V30 10366 H 985.401 -3.40039 -3.70651 0
M  V30 10367 H 985.101 -5.02642 -3.04344 0
M  V30 10368 H 986.625 -4.68799 -3.91228 0
M  V30 10369 H 988.039 -5.4519 -1.77316 0
M  V30 10370 H 986.436 -5.89588 -1.11828 0
M  V30 10371 H 987.506 -4.84595 -0.171839 0
M  V30 10372 N 988.849 0.203349 -1.56283 0
M  V30 10373 C 989.781 1.27592 -1.90402 0
M  V30 10374 C 990.794 1.4213 -0.79391 0
M  V30 10375 O 991.983 1.42703 -1.07229 0
M  V30 10376 C 989.083 2.64919 -2.11356 0
M  V30 10377 C 988.256 2.72095 -3.42466 0
M  V30 10378 C 987.315 3.9056 -3.52631 0
M  V30 10379 O 986.341 3.78048 -4.25521 0
M  V30 10380 N 987.543 5.0566 -2.85111 0
M  V30 10381 H 990.308 0.986423 -2.83001 0
M  V30 10382 H 987.869 0.39331 -1.5705 0
M  V30 10383 H 989.861 3.42581 -2.15453 0
M  V30 10384 H 988.431 2.86391 -1.25295 0
M  V30 10385 H 987.651 1.8077 -3.50308 0
M  V30 10386 H 988.939 2.73874 -4.28801 0
M  V30 10387 H 988.337 5.18723 -2.25705 0
M  V30 10388 H 986.894 5.81299 -2.94847 0
M  V30 10389 N 990.327 1.50405 0.470755 0
M  V30 10390 C 991.275 1.6982 1.58946 0
M  V30 10391 C 992.269 0.56407 1.59733 0
M  V30 10392 O 993.475 0.744576 1.63878 0
M  V30 10393 H 989.85 0.536016 0.527438 0
M  V30 10394 H 991.821 2.63662 1.39732 0
M  V30 10395 C 990.57 1.80986 2.96883 0
M  V30 10396 H 989.893 2.67645 2.96996 0
M  V30 10397 H 991.333 1.98596 3.74614 0
M  V30 10398 C 989.792 0.561551 3.32187 0
M  V30 10399 O 990.322 -0.299136 4.00585 0
M  V30 10400 N 988.528 0.415476 2.87615 0
M  V30 10401 H 988.075 1.11691 2.32127 0
M  V30 10402 H 988.033 -0.418592 3.11601 0
M  V30 10403 N 991.805 -0.723954 1.39988 0
M  V30 10404 C 993.053 -1.48078 1.3754 0
M  V30 10405 C 993.374 -1.94985 -0.0243358 0
M  V30 10406 O 992.644 -1.69764 -0.977602 0
M  V30 10407 H 991.224 -0.549354 0.506181 0
M  V30 10408 H 993.886 -0.858746 1.74962 0
M  V30 10409 H 992.982 -2.35763 2.04505 0
M  V30 10410 N 993.283 -1.25346 -0.955304 0
M  V30 10411 C 994.529 -1.10218 -1.70235 0
M  V30 10412 C 994.862 0.356124 -1.90907 0
M  V30 10413 O 994.137 1.26253 -1.47954 0
M  V30 10414 C 994.42 -1.85627 -3.08569 0
M  V30 10415 C 994.273 -3.39281 -2.95311 0
M  V30 10416 C 995.592 -1.63886 -4.08448 0
M  V30 10417 H 992.711 -0.401781 -0.617852 0
M  V30 10418 H 995.353 -1.5417 -1.11048 0
M  V30 10419 H 993.503 -1.48269 -3.59094 0
M  V30 10420 H 995.175 -3.8631 -2.52116 0
M  V30 10421 H 993.418 -3.67027 -2.31244 0
M  V30 10422 H 994.089 -3.87258 -3.93364 0
M  V30 10423 H 996.565 -1.96406 -3.6683 0
M  V30 10424 H 995.441 -2.19087 -5.03281 0
M  V30 10425 H 995.702 -0.580021 -4.38279 0
M  V30 10426 N 994.761 1.15782 -1.06922 0
M  V30 10427 C 995.691 2.22538 -0.707045 0
M  V30 10428 C 996.672 1.67371 0.303471 0
M  V30 10429 O 997.857 1.9339 0.177189 0
M  V30 10430 C 994.987 3.47158 -0.0994269 0
M  V30 10431 C 993.941 4.15257 -1.03661 0
M  V30 10432 C 993.267 5.33902 -0.291974 0
M  V30 10433 C 994.567 4.65516 -2.36837 0
M  V30 10434 H 996.261 2.53089 -1.59958 0
M  V30 10435 H 993.807 1.21649 -0.770552 0
M  V30 10436 H 995.76 4.21073 0.165852 0
M  V30 10437 H 994.484 3.15926 0.828155 0
M  V30 10438 H 993.143 3.43276 -1.28674 0
M  V30 10439 H 992.791 4.98926 0.638928 0
M  V30 10440 H 992.491 5.80407 -0.916613 0
M  V30 10441 H 994.015 6.1059 -0.0343915 0
M  V30 10442 H 995.429 5.30981 -2.16175 0
M  V30 10443 H 993.826 5.22666 -2.94856 0
M  V30 10444 H 994.896 3.81387 -2.99453 0
M  V30 10445 N 996.239 0.8527 1.3254 0
M  V30 10446 C 997.169 0.311234 2.31416 0
M  V30 10447 C 998.15 -0.588557 1.59593 0
M  V30 10448 O 999.335 -0.509211 1.87405 0
M  V30 10449 C 996.465 -0.502892 3.4364 0
M  V30 10450 C 995.419 0.302296 4.26931 0
M  V30 10451 C 994.745 -0.636445 5.30899 0
M  V30 10452 C 996.045 1.52697 4.99481 0
M  V30 10453 H 997.739 1.13742 2.76953 0
M  V30 10454 H 995.285 0.548389 1.33149 0
M  V30 10455 H 997.238 -0.892092 4.11849 0
M  V30 10456 H 995.962 -1.36242 2.96826 0
M  V30 10457 H 994.621 0.673226 3.60365 0
M  V30 10458 H 994.269 -1.49277 4.80339 0
M  V30 10459 H 993.969 -0.101716 5.87512 0
M  V30 10460 H 995.493 -1.02286 6.01972 0
M  V30 10461 H 996.907 1.21017 5.60382 0
M  V30 10462 H 995.304 1.9995 5.65809 0
M  V30 10463 H 996.374 2.28929 4.27457 0
M  V30 10464 N 997.718 -1.45297 0.610449 0
M  V30 10465 C 999.134 -1.57225 0.274332 0
M  V30 10466 C 999.334 -1.60136 -1.22306 0
M  V30 10467 O 998.39 -1.5332 -2.00622 0
M  V30 10468 C 999.703 -2.85365 0.948028 0
M  V30 10469 C 1001.25 -2.99044 0.924216 0
M  V30 10470 C 1001.73 -4.29958 1.57798 0
M  V30 10471 N 1003.22 -4.36723 1.5436 0
M  V30 10472 C 1003.95 -5.36695 2.01857 0
M  V30 10473 N 1003.45 -6.43187 2.57453 0
M  V30 10474 N 1005.24 -5.28071 1.92608 0
M  V30 10475 H 997.392 -1.41651 1.58268 0
M  V30 10476 H 999.655 -0.67744 0.663158 0
M  V30 10477 H 999.361 -2.89125 2.00249 0
M  V30 10478 H 999.235 -3.74222 0.473062 0
M  V30 10479 H 1001.62 -2.94849 -0.121709 0
M  V30 10480 H 1001.7 -2.1159 1.43748 0
M  V30 10481 H 1001.35 -4.34912 2.62325 0
M  V30 10482 H 1001.28 -5.16234 1.03972 0
M  V30 10483 H 1003.77 -3.60374 1.13749 0
M  V30 10484 H 1004.08 -7.15722 2.91482 0
M  V30 10485 H 1002.43 -6.4393 2.61493 0
M  V30 10486 H 1005.62 -4.43783 1.48912 0
M  V30 10487 H 1005.79 -6.05832 2.29938 0
M  V30 10488 N 999.196 -0.349774 -1.5367 0
M  V30 10489 C 1000.42 0.246038 -2.05432 0
M  V30 10490 C 1000.84 1.43719 -1.22435 0
M  V30 10491 O 1000.2 1.80622 -0.261166 0
M  V30 10492 C 1000.25 0.65501 -3.55516 0
M  V30 10493 O 999.968 -0.488782 -4.35365 0
M  V30 10494 C 1001.47 1.31088 -4.23475 0
M  V30 10495 H 998.689 0.0463952 -0.669394 0
M  V30 10496 H 1001.23 -0.503566 -1.98203 0
M  V30 10497 H 999.388 1.35455 -3.62947 0
M  V30 10498 H 999.802 -0.161528 -5.24251 0
M  V30 10499 H 1001.28 1.54774 -5.29857 0
M  V30 10500 H 1001.75 2.26636 -3.76208 0
M  V30 10501 H 1002.36 0.653211 -4.20254 0
M  V30 10502 N 1000.67 1.57404 -0.0785433 0
M  V30 10503 C 1001.92 1.94031 0.589896 0
M  V30 10504 C 1002.25 0.959297 1.68852 0
M  V30 10505 O 1001.53 -0.0103978 1.94497 0
M  V30 10506 C 1001.81 3.40886 1.16055 0
M  V30 10507 C 1001.66 4.49748 0.0681072 0
M  V30 10508 C 1002.98 3.88699 2.06401 0
M  V30 10509 H 1000.1 0.70556 0.212965 0
M  V30 10510 H 1002.74 1.89439 -0.145886 0
M  V30 10511 H 1000.89 3.4493 1.78761 0
M  V30 10512 H 1002.57 4.57823 -0.565318 0
M  V30 10513 H 1000.81 4.29625 -0.600431 0
M  V30 10514 H 1001.48 5.49658 0.507906 0
M  V30 10515 H 1003.96 3.86703 1.53622 0
M  V30 10516 H 1002.83 4.92052 2.43261 0
M  V30 10517 H 1003.09 3.2703 2.97496 0
M  V30 10518 N 1002.15 -0.195058 1.56388 0
M  V30 10519 C 1003.08 -1.24444 1.97575 0
M  V30 10520 C 1004.06 -1.47471 0.847717 0
M  V30 10521 O 1005.25 -1.59208 1.11205 0
M  V30 10522 C 1002.38 -2.58866 2.31529 0
M  V30 10523 C 1001.33 -2.50451 3.47071 0
M  V30 10524 C 1000.66 -3.89146 3.667 0
M  V30 10525 C 1001.96 -2.02953 4.81256 0
M  V30 10526 H 1003.65 -0.902178 2.85484 0
M  V30 10527 H 1001.2 -0.43254 1.3735 0
M  V30 10528 H 1003.15 -3.3246 2.58936 0
M  V30 10529 H 1001.87 -2.94833 1.40502 0
M  V30 10530 H 1000.53 -1.79313 3.19754 0
M  V30 10531 H 1000.18 -4.22466 2.73004 0
M  V30 10532 H 999.882 -3.84391 4.44429 0
M  V30 10533 H 1001.41 -4.64363 3.96484 0
M  V30 10534 H 1002.82 -2.66306 5.07695 0
M  V30 10535 H 1001.22 -2.092 5.62455 0
M  V30 10536 H 1002.29 -0.982757 4.74837 0
M  V30 10537 N 1003.63 -1.50653 -0.462772 0
M  V30 10538 C 1004.91 -1.5258 -1.22387 0
M  V30 10539 C 1005.29 -0.275263 -2.09298 0
M  V30 10540 O 1004.63 0.740943 -2.16153 0
M  V30 10541 C 1004.84 -2.82611 -2.04773 0
M  V30 10542 C 1006.19 -3.33592 -2.62681 0
M  V30 10543 O 1007.22 -2.83989 -2.15008 0
M  V30 10544 O 1006.08 -4.20081 -3.49563 0
M  V30 10545 H 1003.17 -0.612367 -0.55582 0
M  V30 10546 H 1005.72 -1.62948 -0.473914 0
M  V30 10547 H 1004.49 -3.65098 -1.40781 0
M  V30 10548 H 1004.11 -2.75286 -2.86886 0
M  V30 10549 N 1005.11 0.71652 -1.4037 0
M  V30 10550 C 1006.52 1.29562 -1.34427 0
M  V30 10551 C 1006.87 1.96192 -0.0173106 0
M  V30 10552 O 1006 1.97488 0.884719 0
M  V30 10553 C 1006.59 2.35601 -2.4347 0
M  V30 10554 C 1005.15 2.89138 -2.4099 0
M  V30 10555 C 1004.3 1.62915 -2.24397 0
M  V30 10556 H 1007.25 0.512715 -1.5019 0
M  V30 10557 H 1007.27 3.16422 -2.11323 0
M  V30 10558 H 1006.78 1.87077 -3.40035 0
M  V30 10559 H 1004.88 3.41894 -1.4812 0
M  V30 10560 H 1004.99 3.40995 -3.3654 0
M  V30 10561 H 1003.36 1.87947 -1.71896 0
M  V30 10562 H 1004.14 1.16417 -3.22958 0
M  V30 10563 N 1006.59 1.25851 0.948643 0
M  V30 10564 C 1007.83 1.11119 1.69648 0
M  V30 10565 C 1008.17 -0.345995 1.91093 0
M  V30 10566 O 1007.44 -1.25467 1.48621 0
M  V30 10567 C 1007.72 1.87261 3.0758 0
M  V30 10568 C 1007.58 3.40842 2.93507 0
M  V30 10569 C 1008.9 1.6605 4.07573 0
M  V30 10570 H 1006.01 0.405052 0.615713 0
M  V30 10571 H 1008.66 1.54756 1.10229 0
M  V30 10572 H 1006.81 1.50172 3.58303 0
M  V30 10573 H 1008.48 3.87641 2.50064 0
M  V30 10574 H 1006.72 3.68248 2.29294 0
M  V30 10575 H 1007.39 3.89339 3.91305 0
M  V30 10576 H 1009.87 1.98348 3.65783 0
M  V30 10577 H 1008.74 2.21753 5.02113 0
M  V30 10578 H 1009.01 0.603256 4.37965 0
M  V30 10579 N 1008.06 -1.15214 1.07534 0
M  V30 10580 C 1009.29 -1.89922 0.820804 0
M  V30 10581 C 1009.71 -1.78114 -0.626177 0
M  V30 10582 O 1009.06 -1.13435 -1.42964 0
M  V30 10583 C 1009.12 -3.40207 1.22236 0
M  V30 10584 O 1008.84 -3.51676 2.61257 0
M  V30 10585 C 1010.34 -4.31934 0.997393 0
M  V30 10586 H 1007.56 -0.601865 0.296647 0
M  V30 10587 H 1010.1 -1.45965 1.43229 0
M  V30 10588 H 1008.26 -3.8182 0.655167 0
M  V30 10589 H 1008.67 -4.44959 2.77689 0
M  V30 10590 H 1010.14 -5.35791 1.32785 0
M  V30 10591 H 1010.62 -4.3915 -0.0661599 0
M  V30 10592 H 1011.23 -3.96066 1.54958 0
M  V30 10593 N 1009.54 -0.859717 -1.32086 0
M  V30 10594 C 1010.79 -0.464662 -1.96686 0
M  V30 10595 C 1011.11 0.98412 -1.68345 0
M  V30 10596 O 1010.38 1.68847 -0.993361 0
M  V30 10597 H 1008.96 -0.168838 -0.727669 0
M  V30 10598 H 1011.62 -1.09726 -1.61079 0
M  V30 10599 H 1010.72 -0.613904 -3.06003 0
M  V30 10600 N 1011.02 1.44971 -0.618145 0
M  V30 10601 C 1012.3 1.95539 -0.0489895 0
M  V30 10602 C 1012.68 1.5604 1.42179 0
M  V30 10603 O 1012.03 0.82809 2.12967 0
M  V30 10604 C 1012.24 3.48044 -0.258193 0
M  V30 10605 C 1013.58 4.24354 -0.144541 0
M  V30 10606 O 1014.61 3.55699 -0.18887 0
M  V30 10607 O 1013.47 5.46486 -0.038519 0
M  V30 10608 H 1010.56 0.826466 0.0297256 0
M  V30 10609 H 1013.11 1.55086 -0.688944 0
M  V30 10610 H 1011.88 3.69798 -1.27926 0
M  V30 10611 H 1011.5 3.95412 0.416522 0
M  V30 10612 N 1012.5 0.357919 1.53482 0
M  V30 10613 C 1013.43 -0.484231 2.28424 0
M  V30 10614 C 1014.41 -1.09046 1.30548 0
M  V30 10615 O 1015.59 -1.10916 1.59409 0
M  V30 10616 C 1012.72 -1.62803 3.06778 0
M  V30 10617 C 1011.68 -1.14943 4.12277 0
M  V30 10618 C 1011 -2.38287 4.78669 0
M  V30 10619 C 1012.3 -0.239627 5.2175 0
M  V30 10620 H 1014 0.140979 2.99068 0
M  V30 10621 H 1011.54 0.069244 1.43833 0
M  V30 10622 H 1013.5 -2.22374 3.57949 0
M  V30 10623 H 1012.22 -2.28036 2.3381 0
M  V30 10624 H 1010.88 -0.576442 3.6204 0
M  V30 10625 H 1010.53 -3.01959 4.02281 0
M  V30 10626 H 1010.23 -2.06939 5.49955 0
M  V30 10627 H 1011.75 -2.98558 5.32631 0
M  V30 10628 H 1013.17 -0.742597 5.6847 0
M  V30 10629 H 1011.56 -0.0173747 6.00097 0
M  V30 10630 H 1012.63 0.720333 4.7952 0
M  V30 10631 N 1013.98 -1.5736 0.0868897 0
M  V30 10632 C 1015.2 -1.98809 -0.590757 0
M  V30 10633 C 1015.63 -0.965407 -1.61436 0
M  V30 10634 O 1014.98 0.067143 -1.81176 0
M  V30 10635 C 1015.03 -3.39249 -1.22238 0
M  V30 10636 O 1014.14 -3.39706 -2.33824 0
M  V30 10637 H 1013.48 -0.64669 -0.150626 0
M  V30 10638 H 1016.01 -2.03927 0.165873 0
M  V30 10639 H 1016.02 -3.76765 -1.56564 0
M  V30 10640 H 1014.69 -4.13208 -0.472434 0
M  V30 10641 H 1013.27 -3.13977 -2.01178 0
M  V30 10642 N 1015.45 0.186762 -1.56489 0
M  V30 10643 C 1016.73 0.932229 -1.71956 0
M  V30 10644 C 1017.11 2.01037 -0.644006 0
M  V30 10645 O 1016.46 2.259 0.343694 0
M  V30 10646 C 1016.67 1.51106 -3.14592 0
M  V30 10647 C 1018.02 1.98997 -3.75081 0
M  V30 10648 O 1019.04 1.60931 -3.17773 0
M  V30 10649 O 1017.9 2.69067 -4.75673 0
M  V30 10650 H 1014.99 0.437736 -0.701652 0
M  V30 10651 H 1017.54 0.175803 -1.68787 0
M  V30 10652 H 1016.31 0.734327 -3.84348 0
M  V30 10653 H 1015.94 2.33209 -3.22024 0
M  V30 10654 N 1016.93 1.50896 0.454776 0
M  V30 10655 C 1018.16 1.6648 1.22849 0
M  V30 10656 C 1018.58 0.354841 1.85435 0
M  V30 10657 O 1017.93 -0.664931 1.69956 0
M  V30 10658 C 1017.98 2.76787 2.32532 0
M  V30 10659 O 1017.7 4.02706 1.72509 0
M  V30 10660 C 1019.21 3.03488 3.23125 0
M  V30 10661 H 1016.43 0.559152 0.370932 0
M  V30 10662 H 1018.97 1.97215 0.540983 0
M  V30 10663 H 1017.12 2.48701 2.9703 0
M  V30 10664 H 1017.54 4.63834 2.44863 0
M  V30 10665 H 1019.01 3.84294 3.9626 0
M  V30 10666 H 1019.49 2.152 3.82865 0
M  V30 10667 H 1020.1 3.33167 2.64347 0
M  V30 10668 N 1018.41 -0.709066 1.40748 0
M  V30 10669 C 1019.83 -1.01797 1.22921 0
M  V30 10670 C 1020.03 -2.01205 0.109011 0
M  V30 10671 O 1019.08 -2.46854 -0.530987 0
M  V30 10672 C 1020.4 -1.55546 2.57344 0
M  V30 10673 C 1021.94 -1.67498 2.64412 0
M  V30 10674 C 1022.42 -2.24652 3.99119 0
M  V30 10675 N 1023.91 -2.3203 4.00895 0
M  V30 10676 C 1024.64 -2.7725 5.01917 0
M  V30 10677 N 1024.14 -3.22174 6.13332 0
M  V30 10678 N 1025.93 -2.76692 4.89283 0
M  V30 10679 H 1018.08 -0.0502704 2.12341 0
M  V30 10680 H 1020.35 -0.0848933 0.944191 0
M  V30 10681 H 1020.05 -0.899631 3.39999 0
M  V30 10682 H 1019.93 -2.53971 2.78888 0
M  V30 10683 H 1022.31 -2.32196 1.82123 0
M  V30 10684 H 1022.4 -0.676553 2.46691 0
M  V30 10685 H 1022.04 -1.60573 4.81849 0
M  V30 10686 H 1021.97 -3.25221 4.14173 0
M  V30 10687 H 1024.46 -2.00309 3.20444 0
M  V30 10688 H 1024.77 -3.55265 6.86299 0
M  V30 10689 H 1023.12 -3.20116 6.16888 0
M  V30 10690 H 1026.31 -2.40936 4.01332 0
M  V30 10691 H 1026.48 -3.11617 5.68154 0
M  V30 10692 N 1019.89 -1.26353 -0.941956 0
M  V30 10693 C 1021.12 -1.14626 -1.72245 0
M  V30 10694 C 1021.53 0.298588 -1.86424 0
M  V30 10695 O 1020.89 1.2045 -1.37106 0
M  V30 10696 C 1020.94 -1.80933 -3.12963 0
M  V30 10697 O 1020.66 -3.19771 -2.99463 0
M  V30 10698 C 1022.16 -1.7515 -4.07231 0
M  V30 10699 H 1019.38 -0.3992 -0.539333 0
M  V30 10700 H 1021.93 -1.66958 -1.1809 0
M  V30 10701 H 1020.08 -1.32541 -3.64021 0
M  V30 10702 H 1020.5 -3.52571 -3.88322 0
M  V30 10703 H 1021.97 -2.26183 -5.03533 0
M  V30 10704 H 1022.45 -0.717855 -4.33294 0
M  V30 10705 H 1023.05 -2.2309 -3.62093 0
M  V30 10706 N 1021.37 1.14642 -1.08144 0
M  V30 10707 C 1022.78 1.37604 -0.808537 0
M  V30 10708 C 1022.98 1.92868 0.583452 0
M  V30 10709 O 1022.04 2.13964 1.34073 0
M  V30 10710 C 1023.35 2.3396 -1.889 0
M  V30 10711 C 1024.9 2.47605 -1.9147 0
M  V30 10712 C 1025.38 3.47258 -2.98623 0
M  V30 10713 N 1026.87 3.548 -2.97777 0
M  V30 10714 C 1027.6 4.31751 -3.77331 0
M  V30 10715 N 1027.1 5.11966 -4.66757 0
M  V30 10716 N 1028.89 4.2692 -3.65645 0
M  V30 10717 H 1021.04 0.771154 -1.97906 0
M  V30 10718 H 1023.3 0.401694 -0.858688 0
M  V30 10719 H 1023.01 2.00484 -2.88962 0
M  V30 10720 H 1022.88 3.33833 -1.756 0
M  V30 10721 H 1025.27 2.80375 -0.920548 0
M  V30 10722 H 1025.35 1.47702 -2.08848 0
M  V30 10723 H 1025 3.15223 -3.98243 0
M  V30 10724 H 1024.93 4.46935 -2.7849 0
M  V30 10725 H 1027.42 2.97553 -2.3296 0
M  V30 10726 H 1027.73 5.67951 -5.24072 0
M  V30 10727 H 1026.08 5.11245 -4.70801 0
M  V30 10728 H 1029.27 3.63322 -2.95152 0
M  V30 10729 H 1029.44 4.8664 -4.27885 0
M  V30 10730 N 1022.85 0.866709 1.31628 0
M  V30 10731 C 1024.08 0.489679 2.00713 0
M  V30 10732 C 1024.48 -0.921492 1.65243 0
M  V30 10733 O 1023.83 -1.61467 0.876012 0
M  V30 10734 C 1023.89 0.563148 3.55062 0
M  V30 10735 C 1023.55 1.93535 4.13996 0
M  V30 10736 C 1024.55 2.90243 4.31341 0
M  V30 10737 C 1022.23 2.23578 4.49798 0
M  V30 10738 C 1024.23 4.15138 4.83673 0
M  V30 10739 C 1021.92 3.48723 5.01832 0
M  V30 10740 C 1022.91 4.44319 5.18719 0
M  V30 10741 O 1022.6 5.67247 5.69637 0
M  V30 10742 H 1022.33 0.189605 0.648865 0
M  V30 10743 H 1024.89 1.16874 1.68907 0
M  V30 10744 H 1023.12 -0.172815 3.86314 0
M  V30 10745 H 1024.81 0.200009 4.05407 0
M  V30 10746 H 1025.57 2.6834 4.04003 0
M  V30 10747 H 1021.45 1.49949 4.35932 0
M  V30 10748 H 1025 4.89762 4.96769 0
M  V30 10749 H 1020.89 3.70471 5.28603 0
M  V30 10750 H 1021.66 5.69372 5.88011 0
M  V30 10751 N 1024.32 -1.44642 0.625825 0
M  V30 10752 C 1025.25 -2.33397 -0.0692188 0
M  V30 10753 C 1026.23 -1.47898 -0.840241 0
M  V30 10754 O 1027.42 -1.7663 -0.807176 0
M  V30 10755 C 1024.55 -3.30888 -1.055 0
M  V30 10756 C 1023.5 -4.26164 -0.395968 0
M  V30 10757 C 1022.83 -5.13483 -1.49128 0
M  V30 10758 C 1024.13 -5.17663 0.694433 0
M  V30 10759 H 1025.82 -2.91763 0.671925 0
M  V30 10760 H 1023.37 -1.40294 0.324573 0
M  V30 10761 H 1025.32 -3.91861 -1.54993 0
M  V30 10762 H 1024.05 -2.7072 -1.82696 0
M  V30 10763 H 1022.71 -3.66516 0.0782691 0
M  V30 10764 H 1022.35 -4.49672 -2.25399 0
M  V30 10765 H 1022.05 -5.78038 -1.05573 0
M  V30 10766 H 1023.58 -5.77327 -1.98813 0
M  V30 10767 H 1024.99 -5.72602 0.282818 0
M  V30 10768 H 1023.39 -5.90793 1.05281 0
M  V30 10769 H 1024.46 -4.58994 1.56372 0
M  V30 10770 N 1025.8 -0.366053 -1.5329 0
M  V30 10771 C 1027.05 0.223051 -2.00865 0
M  V30 10772 C 1027.37 1.49244 -1.25504 0
M  V30 10773 O 1026.64 1.92404 -0.368444 0
M  V30 10774 H 1025.22 0.085413 -0.742101 0
M  V30 10775 H 1027.88 -0.492396 -1.88578 0
M  V30 10776 H 1026.98 0.449701 -3.08843 0
M  V30 10777 N 1027.28 1.57312 -0.0952337 0
M  V30 10778 C 1028.5 1.99119 0.580206 0
M  V30 10779 C 1028.93 0.973955 1.60922 0
M  V30 10780 O 1028.29 -0.0575338 1.81209 0
M  V30 10781 C 1028.34 3.39893 1.20438 0
M  V30 10782 O 1027.44 3.40941 2.32019 0
M  V30 10783 H 1026.78 0.64748 0.147195 0
M  V30 10784 H 1029.31 2.03836 -0.176686 0
M  V30 10785 H 1029.32 3.7759 1.54564 0
M  V30 10786 H 1028 4.13453 0.450514 0
M  V30 10787 H 1026.57 3.1504 1.9951 0
M  V30 10788 N 1028.76 -0.17846 1.56586 0
M  V30 10789 C 1030.17 -0.529957 1.50544 0
M  V30 10790 C 1030.37 -1.85015 0.798237 0
M  V30 10791 O 1029.43 -2.49983 0.355639 0
M  V30 10792 C 1030.74 -0.569314 2.95261 0
M  V30 10793 C 1032.29 -0.657008 3.06027 0
M  V30 10794 C 1032.77 -0.727323 4.52188 0
M  V30 10795 N 1034.26 -0.790406 4.56406 0
M  V30 10796 C 1034.99 -0.865265 5.66834 0
M  V30 10797 N 1034.49 -0.901398 6.86911 0
M  V30 10798 N 1036.28 -0.903736 5.54787 0
M  V30 10799 H 1028.43 0.687304 2.00972 0
M  V30 10800 H 1030.69 0.246936 0.915274 0
M  V30 10801 H 1030.4 0.331934 3.5013 0
M  V30 10802 H 1030.27 -1.41828 3.4952 0
M  V30 10803 H 1032.66 -1.54868 2.51197 0
M  V30 10804 H 1032.74 0.218495 2.54865 0
M  V30 10805 H 1032.39 0.160067 5.07648 0
M  V30 10806 H 1032.32 -1.61887 5.01099 0
M  V30 10807 H 1034.81 -0.771054 3.6995 0
M  V30 10808 H 1035.12 -0.959494 7.6682 0
M  V30 10809 H 1033.47 -0.869795 6.89536 0
M  V30 10810 H 1036.66 -0.872459 4.59898 0
M  V30 10811 H 1036.83 -0.958615 6.4087 0
M  V30 10812 N 1030.24 -1.51135 -0.446768 0
M  V30 10813 C 1031.65 -1.55919 -1.02694 0
M  V30 10814 C 1032 -0.377038 -1.92543 0
M  V30 10815 O 1031.12 0.507295 -2.1037 0
M  V30 10816 C 1031.72 -2.8257 -1.86922 0
M  V30 10817 C 1030.28 -2.89956 -2.40005 0
M  V30 10818 C 1029.42 -2.50482 -1.18971 0
M  V30 10819 H 1032.37 -1.57048 -0.228403 0
M  V30 10820 H 1032.4 -2.65799 -2.7227 0
M  V30 10821 H 1031.91 -3.6859 -1.21502 0
M  V30 10822 H 1030.01 -2.08343 -3.08907 0
M  V30 10823 H 1030.12 -3.93399 -2.73448 0
M  V30 10824 H 1028.49 -2.03466 -1.53211 0
M  V30 10825 H 1029.27 -3.38837 -0.551762 0
M  V30 10826 N 1031.71 0.701592 -1.41122 0
M  V30 10827 C 1032.96 1.46376 -1.40363 0
M  V30 10828 C 1033.29 1.94197 -0.0105442 0
M  V30 10829 O 1032.57 1.69121 0.960637 0
M  V30 10830 C 1032.85 2.67994 -2.40523 0
M  V30 10831 C 1032.7 2.25977 -3.88914 0
M  V30 10832 C 1034.02 3.70181 -2.38022 0
M  V30 10833 H 1031.14 0.530929 -0.511159 0
M  V30 10834 H 1033.78 0.799588 -1.72356 0
M  V30 10835 H 1031.93 3.24661 -2.13372 0
M  V30 10836 H 1033.61 1.74684 -4.26946 0
M  V30 10837 H 1031.85 1.57826 -4.04071 0
M  V30 10838 H 1032.52 3.13215 -4.54533 0
M  V30 10839 H 1035 3.23174 -2.62103 0
M  V30 10840 H 1033.87 4.52894 -3.10127 0
M  V30 10841 H 1034.13 4.19458 -1.3967 0
M  V30 10842 N 1033.19 1.2685 0.935242 0
M  V30 10843 C 1034.14 1.08923 2.03481 0
M  V30 10844 C 1035.11 -0.00749786 1.66098 0
M  V30 10845 O 1036.29 0.153401 1.90182 0
M  V30 10846 C 1033.43 0.734529 3.37192 0
M  V30 10847 C 1032.55 1.90812 3.87576 0
M  V30 10848 C 1031.68 1.49599 5.097 0
M  V30 10849 C 1030.72 2.63752 5.5236 0
M  V30 10850 N 1029.86 2.23179 6.65684 0
M  V30 10851 H 1034.7 2.03016 2.18148 0
M  V30 10852 H 1032.23 1.01072 1.06878 0
M  V30 10853 H 1034.19 0.509734 4.14074 0
M  V30 10854 H 1032.82 -0.169438 3.22355 0
M  V30 10855 H 1031.87 2.24567 3.0704 0
M  V30 10856 H 1033.19 2.7647 4.1517 0
M  V30 10857 H 1032.34 1.23199 5.9406 0
M  V30 10858 H 1031.08 0.61039 4.83865 0
M  V30 10859 H 1030.08 2.90874 4.66554 0
M  V30 10860 H 1031.31 3.5292 5.80193 0
M  V30 10861 H 1029.26 1.37061 6.41522 0
M  V30 10862 H 1029.17 3.02379 6.92895 0
M  V30 10863 H 1030.44 2.00007 7.53404 0
M  V30 10864 N 1034.67 -1.14067 1.0875 0
M  V30 10865 C 1035.6 -2.21385 0.74236 0
M  V30 10866 C 1036.58 -1.67833 -0.276805 0
M  V30 10867 O 1037.77 -1.93647 -0.1464 0
M  V30 10868 C 1034.9 -3.46956 0.154644 0
M  V30 10869 C 1033.85 -4.13555 1.10255 0
M  V30 10870 C 1033.18 -5.3337 0.376877 0
M  V30 10871 C 1034.48 -4.6169 2.44213 0
M  V30 10872 H 1036.17 -2.50512 1.63964 0
M  V30 10873 H 1033.72 -1.20408 0.789807 0
M  V30 10874 H 1035.67 -4.21284 -0.0988419 0
M  V30 10875 H 1034.39 -3.17203 -0.777789 0
M  V30 10876 H 1033.05 -3.41186 1.34119 0
M  V30 10877 H 1032.7 -4.99879 -0.559472 0
M  V30 10878 H 1032.4 -5.78875 1.00884 0
M  V30 10879 H 1033.92 -6.10458 0.131527 0
M  V30 10880 H 1035.34 -5.27475 2.24595 0
M  V30 10881 H 1033.74 -5.17909 3.03134 0
M  V30 10882 H 1034.81 -3.76574 3.05483 0
M  V30 10883 N 1036.15 -0.873678 -1.31166 0
M  V30 10884 C 1037.4 -0.486457 -1.9657 0
M  V30 10885 C 1037.72 0.962042 -1.69041 0
M  V30 10886 O 1036.98 1.69305 -0.981543 0
M  V30 10887 C 1037.28 -0.69462 -3.50585 0
M  V30 10888 C 1036.94 -2.11647 -3.98141 0
M  V30 10889 C 1035.61 -2.50531 -4.10838 0
M  V30 10890 C 1037.96 -3.0436 -4.23101 0
M  V30 10891 C 1035.29 -3.81361 -4.45848 0
M  V30 10892 C 1037.64 -4.34709 -4.59577 0
M  V30 10893 C 1036.3 -4.73502 -4.70481 0
M  V30 10894 H 1035.57 -0.178007 -0.719301 0
M  V30 10895 H 1038.22 -1.10737 -1.56235 0
M  V30 10896 H 1036.52 0.00940878 -3.91799 0
M  V30 10897 H 1038.22 -0.374782 -3.99245 0
M  V30 10898 H 1034.81 -1.8046 -3.88757 0
M  V30 10899 H 1038.99 -2.75544 -4.12782 0
M  V30 10900 H 1034.25 -4.11174 -4.52488 0
M  V30 10901 H 1038.42 -5.06596 -4.77842 0
M  V30 10902 H 1036.05 -5.74919 -4.97365 0
M  V30 10903 N 1037.63 1.44308 -0.633487 0
M  V30 10904 C 1039.04 1.56768 -0.29931 0
M  V30 10905 C 1039.24 1.62061 1.19743 0
M  V30 10906 O 1038.3 1.56492 1.98158 0
M  V30 10907 C 1039.61 2.8382 -0.993307 0
M  V30 10908 C 1041.16 2.97536 -0.971674 0
M  V30 10909 C 1041.63 4.27393 -1.64618 0
M  V30 10910 N 1043.13 4.34212 -1.61288 0
M  V30 10911 C 1043.86 5.33415 -2.1037 0
M  V30 10912 N 1043.36 6.3901 -2.67653 0
M  V30 10913 N 1045.15 5.24939 -2.00985 0
M  V30 10914 H 1037.3 1.39115 -1.60501 0
M  V30 10915 H 1039.56 0.666804 -0.673852 0
M  V30 10916 H 1039.27 2.85902 -2.04823 0
M  V30 10917 H 1039.14 3.73422 -0.532537 0
M  V30 10918 H 1041.53 2.95005 0.0747854 0
M  V30 10919 H 1041.61 2.09276 -1.47096 0
M  V30 10920 H 1041.26 4.30683 -2.6921 0
M  V30 10921 H 1041.19 5.14515 -1.12171 0
M  V30 10922 H 1043.68 3.58519 -1.19468 0
M  V30 10923 H 1043.99 7.10994 -3.02831 0
M  V30 10924 H 1042.33 6.39689 -2.71705 0
M  V30 10925 H 1045.53 4.41357 -1.55953 0
M  V30 10926 H 1045.7 6.02097 -2.39547 0
M  V30 10927 N 1039.1 0.374177 1.53094 0
M  V30 10928 C 1040.35 -0.213131 2.01677 0
M  V30 10929 C 1040.68 -1.47715 1.26071 0
M  V30 10930 O 1039.96 -1.91199 0.356834 0
M  V30 10931 C 1040.24 -0.496392 3.56662 0
M  V30 10932 C 1040.09 0.781859 4.42953 0
M  V30 10933 C 1041.41 -1.29339 4.20666 0
M  V30 10934 H 1038.53 -0.0759885 0.733072 0
M  V30 10935 H 1041.17 0.500765 1.83282 0
M  V30 10936 H 1039.32 -1.10455 3.72467 0
M  V30 10937 H 1041 1.41914 4.38928 0
M  V30 10938 H 1039.24 1.40041 4.10574 0
M  V30 10939 H 1039.91 0.538508 5.49367 0
M  V30 10940 H 1042.39 -0.778848 4.08746 0
M  V30 10941 H 1041.26 -1.46033 5.29118 0
M  V30 10942 H 1041.52 -2.30435 3.77296 0
M  V30 10943 N 1040.58 -1.57259 0.103575 0
M  V30 10944 C 1042 -1.57581 -0.253062 0
M  V30 10945 C 1042.2 -1.11531 -1.67819 0
M  V30 10946 O 1041.25 -0.795632 -2.39637 0
M  V30 10947 C 1042.57 -3.00681 -0.0337753 0
M  V30 10948 C 1044.12 -3.12837 -0.10087 0
M  V30 10949 C 1044.59 -4.57911 0.0905295 0
M  V30 10950 N 1046.08 -4.63186 0.0359789 0
M  V30 10951 C 1046.82 -5.73179 0.159199 0
M  V30 10952 N 1046.31 -6.91976 0.337728 0
M  V30 10953 N 1048.11 -5.62011 0.0998662 0
M  V30 10954 H 1040.26 -1.85499 1.0346 0
M  V30 10955 H 1042.52 -0.856584 0.406163 0
M  V30 10956 H 1042.23 -3.38602 0.950858 0
M  V30 10957 H 1042.1 -3.69207 -0.772406 0
M  V30 10958 H 1044.49 -2.74783 -1.07601 0
M  V30 10959 H 1044.57 -2.46886 0.66939 0
M  V30 10960 H 1044.21 -4.9666 1.06258 0
M  V30 10961 H 1044.14 -5.21933 -0.699528 0
M  V30 10962 H 1046.63 -3.7777 -0.099121 0
M  V30 10963 H 1046.95 -7.71641 0.423032 0
M  V30 10964 H 1045.29 -6.93996 0.373504 0
M  V30 10965 H 1048.48 -4.68084 -0.0385356 0
M  V30 10966 H 1048.65 -6.47693 0.199342 0
M  V30 10967 N 1042.06 0.170153 -1.56679 0
M  V30 10968 C 1042.99 1.23945 -1.91606 0
M  V30 10969 C 1043.97 1.42725 -0.779004 0
M  V30 10970 O 1045.16 1.57712 -1.03243 0
M  V30 10971 C 1042.28 2.60222 -2.168 0
M  V30 10972 C 1041.33 2.58172 -3.39484 0
M  V30 10973 S 1042.16 2.0714 -4.93815 0
M  V30 10974 C 1043.32 3.45192 -5.22105 0
M  V30 10975 H 1043.55 0.941345 -2.82004 0
M  V30 10976 H 1041.08 0.374771 -1.49783 0
M  V30 10977 H 1043.04 3.38656 -2.31996 0
M  V30 10978 H 1041.7 2.87232 -1.27107 0
M  V30 10979 H 1040.9 3.58435 -3.54317 0
M  V30 10980 H 1040.5 1.87834 -3.2341 0
M  V30 10981 H 1042.79 4.41194 -5.14154 0
M  V30 10982 H 1043.73 3.35233 -6.23718 0
M  V30 10983 H 1044.14 3.41257 -4.49671 0
M  V30 10984 N 1043.54 1.5137 0.438746 0
M  V30 10985 C 1044.47 1.68774 1.55074 0
M  V30 10986 C 1045.48 0.568436 1.52554 0
M  V30 10987 O 1046.67 0.842707 1.57355 0
M  V30 10988 C 1043.77 1.68592 2.9399 0
M  V30 10989 C 1042.95 2.97084 3.2103 0
M  V30 10990 C 1042 2.89108 4.39663 0
M  V30 10991 O 1041.03 3.63052 4.38385 0
M  V30 10992 N 1042.23 2.04863 5.4315 0
M  V30 10993 H 1045 2.647 1.40549 0
M  V30 10994 H 1042.56 1.49238 0.627663 0
M  V30 10995 H 1044.55 1.60826 3.71372 0
M  V30 10996 H 1043.12 0.802657 3.02119 0
M  V30 10997 H 1042.34 3.18729 2.3196 0
M  V30 10998 H 1043.63 3.82143 3.35923 0
M  V30 10999 H 1043.03 1.4416 5.47023 0
M  V30 11000 H 1041.58 2.02977 6.1939 0
M  V30 11001 N 1045.02 -0.694098 1.41492 0
M  V30 11002 C 1046.26 -1.45127 1.4065 0
M  V30 11003 C 1046.59 -1.94993 0.0170289 0
M  V30 11004 O 1045.86 -1.71799 -0.941372 0
M  V30 11005 H 1044.44 -0.538493 0.51772 0
M  V30 11006 H 1047.1 -0.821441 1.76744 0
M  V30 11007 H 1046.19 -2.31372 2.0946 0
M  V30 11008 N 1046.49 -1.27344 -0.928501 0
M  V30 11009 C 1047.43 -1.05797 -2.03322 0
M  V30 11010 C 1048.44 -0.0143086 -1.62794 0
M  V30 11011 O 1049.63 -0.25578 -1.76658 0
M  V30 11012 C 1046.73 -0.582673 -3.33853 0
M  V30 11013 C 1045.9 -1.69844 -4.03078 0
M  V30 11014 C 1044.96 -1.21902 -5.11885 0
M  V30 11015 O 1043.99 -1.91853 -5.35893 0
M  V30 11016 N 1045.19 -0.0742392 -5.80453 0
M  V30 11017 H 1047.95 -2.00928 -2.22369 0
M  V30 11018 H 1045.51 -1.189 -1.09883 0
M  V30 11019 H 1047.51 -0.245862 -4.03952 0
M  V30 11020 H 1046.08 0.27539 -3.11385 0
M  V30 11021 H 1045.3 -2.20557 -3.26723 0
M  V30 11022 H 1046.58 -2.4473 -4.46077 0
M  V30 11023 H 1045.98 0.509631 -5.634 0
M  V30 11024 H 1044.54 0.203399 -6.51483 0
M  V30 11025 N 1047.97 1.13488 -1.09353 0
M  V30 11026 C 1048.88 2.2248 -0.744307 0
M  V30 11027 C 1049.9 1.72145 0.253404 0
M  V30 11028 O 1051.07 2.01176 0.0949339 0
M  V30 11029 C 1048.14 3.46286 -0.16928 0
M  V30 11030 C 1047.2 4.11516 -1.22284 0
M  V30 11031 C 1046.43 5.29412 -0.675161 0
M  V30 11032 O 1046.66 5.68185 0.502182 0
M  V30 11033 O 1045.59 5.8467 -1.42983 0
M  V30 11034 H 1049.42 2.54723 -1.65378 0
M  V30 11035 H 1047 1.21607 -0.867879 0
M  V30 11036 H 1048.88 4.2114 0.14811 0
M  V30 11037 H 1047.56 3.15745 0.713214 0
M  V30 11038 H 1046.47 3.38492 -1.59292 0
M  V30 11039 H 1047.8 4.46186 -2.07796 0
M  V30 11040 N 1049.45 0.880621 1.30701 0
M  V30 11041 C 1050.41 0.349087 2.26526 0
M  V30 11042 C 1051.41 -0.505973 1.52632 0
M  V30 11043 O 1052.6 -0.313751 1.71351 0
M  V30 11044 C 1049.74 -0.503023 3.37168 0
M  V30 11045 H 1050.93 1.19516 2.75056 0
M  V30 11046 H 1048.48 0.657107 1.41816 0
M  V30 11047 H 1049.22 -1.36986 2.93948 0
M  V30 11048 H 1049 0.109389 3.91947 0
M  V30 11049 H 1050.49 -0.866845 4.08504 0
M  V30 11050 N 1050.93 -1.4397 0.641131 0
M  V30 11051 C 1052.18 -2.02246 0.14985 0
M  V30 11052 C 1052.51 -1.50387 -1.22871 0
M  V30 11053 O 1051.78 -0.692003 -1.81773 0
M  V30 11054 C 1052.07 -3.59798 0.147449 0
M  V30 11055 C 1051.92 -4.21916 1.55907 0
M  V30 11056 C 1053.24 -4.36985 -0.522667 0
M  V30 11057 H 1050.36 -0.734875 0.0559274 0
M  V30 11058 H 1053 -1.71418 0.819513 0
M  V30 11059 H 1051.15 -3.86193 -0.422789 0
M  V30 11060 H 1052.82 -4.06594 2.17896 0
M  V30 11061 H 1051.06 -3.79028 2.10998 0
M  V30 11062 H 1051.74 -5.30964 1.50934 0
M  V30 11063 H 1054.21 -4.16083 -0.0376226 0
M  V30 11064 H 1053.09 -5.46676 -0.493572 0
M  V30 11065 H 1053.35 -4.12335 -1.59475 0
M  V30 11066 N 1052.41 -0.382291 -1.52893 0
M  V30 11067 C 1053.34 0.447829 -2.29165 0
M  V30 11068 C 1054.32 1.06956 -1.32267 0
M  V30 11069 O 1055.5 1.08365 -1.61154 0
M  V30 11070 C 1052.63 1.57902 -3.09329 0
M  V30 11071 C 1051.59 1.08369 -4.14053 0
M  V30 11072 C 1050.91 2.30641 -4.82399 0
M  V30 11073 C 1052.21 0.156591 -5.22065 0
M  V30 11074 H 1053.91 -0.188541 -2.98806 0
M  V30 11075 H 1051.45 -0.0921179 -1.43705 0
M  V30 11076 H 1053.41 2.16652 -3.61442 0
M  V30 11077 H 1052.13 2.24287 -2.37409 0
M  V30 11078 H 1050.79 0.518772 -3.62911 0
M  V30 11079 H 1050.44 2.9552 -4.07034 0
M  V30 11080 H 1050.14 1.98163 -5.53177 0
M  V30 11081 H 1051.66 2.90047 -5.37313 0
M  V30 11082 H 1053.08 0.652065 -5.6958 0
M  V30 11083 H 1051.47 -0.0780978 -6.00049 0
M  V30 11084 H 1052.54 -0.796529 -4.78313 0
M  V30 11085 N 1053.89 1.57202 -0.111913 0
M  V30 11086 C 1054.85 2.13778 0.826534 0
M  V30 11087 C 1055.85 1.07097 1.19945 0
M  V30 11088 O 1057.04 1.32906 1.12613 0
M  V30 11089 C 1054.17 2.6722 2.11675 0
M  V30 11090 H 1055.36 2.98023 0.334975 0
M  V30 11091 H 1052.92 1.55696 0.137256 0
M  V30 11092 H 1053.65 1.86542 2.65278 0
M  V30 11093 H 1053.44 3.45235 1.8589 0
M  V30 11094 H 1054.93 3.10926 2.78774 0
M  V30 11095 N 1055.36 -0.161842 1.56767 0
M  V30 11096 C 1056.3 -1.22927 1.9226 0
M  V30 11097 C 1057.27 -1.42309 0.786562 0
M  V30 11098 O 1058.46 -1.57163 1.04078 0
M  V30 11099 C 1055.59 -2.59069 2.18177 0
M  V30 11100 C 1054.63 -2.56368 3.40849 0
M  V30 11101 S 1055.46 -2.04518 4.94907 0
M  V30 11102 C 1056.62 -3.42418 5.23928 0
M  V30 11103 H 1056.85 -0.926377 2.82499 0
M  V30 11104 H 1054.39 -0.366822 1.49979 0
M  V30 11105 H 1056.34 -3.37421 2.33789 0
M  V30 11106 H 1055.01 -2.86554 1.28629 0
M  V30 11107 H 1054.2 -3.56551 3.56213 0
M  V30 11108 H 1053.8 -1.86116 3.24402 0
M  V30 11109 H 1056.09 -4.38461 5.16486 0
M  V30 11110 H 1057.04 -3.3192 6.25487 0
M  V30 11111 H 1057.44 -3.38868 4.51474 0
M  V30 11112 N 1056.84 -1.516 -0.430713 0
M  V30 11113 C 1058.07 -1.687 -1.20644 0
M  V30 11114 C 1058.49 -0.386555 -1.84085 0
M  V30 11115 O 1057.85 0.653952 -1.69095 0
M  V30 11116 C 1057.9 -2.80887 -2.2613 0
M  V30 11117 O 1057 -2.44952 -3.31772 0
M  V30 11118 H 1056.34 -0.562289 -0.353167 0
M  V30 11119 H 1058.87 -1.98198 -0.507807 0
M  V30 11120 H 1058.88 -3.05167 -2.70809 0
M  V30 11121 H 1057.56 -3.75249 -1.79334 0
M  V30 11122 H 1056.13 -2.31267 -2.92523 0
M  V30 11123 N 1058.32 0.686584 -1.41858 0
M  V30 11124 C 1059.54 1.4802 -1.45275 0
M  V30 11125 C 1059.97 1.87997 -0.0621297 0
M  V30 11126 O 1059.33 1.55226 0.936733 0
M  V30 11127 C 1059.38 2.7133 -2.37513 0
M  V30 11128 O 1058.48 3.69159 -1.83836 0
M  V30 11129 H 1057.82 0.445152 -0.492682 0
M  V30 11130 H 1060.35 0.843161 -1.86419 0
M  V30 11131 H 1060.36 3.19537 -2.53693 0
M  V30 11132 H 1059.04 2.41571 -3.3855 0
M  V30 11133 H 1057.61 3.28134 -1.77151 0
M  V30 11134 N 1059.8 1.27835 0.921735 0
M  V30 11135 C 1061.21 1.05369 1.19873 0
M  V30 11136 C 1061.41 -0.208997 2.00413 0
M  V30 11137 O 1060.47 -0.912861 2.35421 0
M  V30 11138 C 1061.78 2.29658 1.94108 0
M  V30 11139 C 1063.33 2.34756 2.07023 0
M  V30 11140 C 1063.81 3.5879 2.84664 0
M  V30 11141 N 1065.3 3.59383 2.9223 0
M  V30 11142 C 1066.03 4.52029 3.52785 0
M  V30 11143 N 1065.53 5.54986 4.14683 0
M  V30 11144 N 1067.32 4.39641 3.50246 0
M  V30 11145 H 1059.47 2.08903 0.383819 0
M  V30 11146 H 1061.73 0.919065 0.232429 0
M  V30 11147 H 1061.44 3.21604 1.4235 0
M  V30 11148 H 1061.31 2.35444 2.94696 0
M  V30 11149 H 1063.7 1.43312 2.57965 0
M  V30 11150 H 1063.78 2.32969 1.05636 0
M  V30 11151 H 1063.43 4.50574 2.34404 0
M  V30 11152 H 1063.36 3.57829 3.86349 0
M  V30 11153 H 1065.85 2.84927 2.48244 0
M  V30 11154 H 1066.16 6.21837 4.58845 0
M  V30 11155 H 1064.51 5.58822 4.13211 0
M  V30 11156 H 1067.7 3.58413 3.01094 0
M  V30 11157 H 1067.87 5.12033 3.97148 0
M  V30 11158 N 1061.28 -1.12907 1.09954 0
M  V30 11159 C 1062.5 -1.88679 0.861099 0
M  V30 11160 C 1062.93 -1.78853 -0.582499 0
M  V30 11161 O 1062.28 -1.13992 -1.4098 0
M  V30 11162 C 1062.33 -3.36047 1.30785 0
M  V30 11163 O 1061.44 -4.09716 0.469728 0
M  V30 11164 H 1060.78 -0.586447 0.31141 0
M  V30 11165 H 1063.31 -1.42818 1.46507 0
M  V30 11166 H 1063.32 -3.86882 1.29562 0
M  V30 11167 H 1061.99 -3.42516 2.35914 0
M  V30 11168 H 1060.57 -3.6887 0.54674 0
M  V30 11169 N 1062.75 -0.88754 -1.30232 0
M  V30 11170 C 1064 -0.517406 -1.96709 0
M  V30 11171 C 1064.35 0.923757 -1.68774 0
M  V30 11172 O 1063.65 1.64435 -0.983443 0
M  V30 11173 C 1063.84 -0.731765 -3.49828 0
M  V30 11174 C 1063.67 -2.19221 -3.92648 0
M  V30 11175 C 1062.44 -2.83729 -4.18122 0
M  V30 11176 C 1064.64 -3.16627 -4.0528 0
M  V30 11177 N 1062.62 -4.20343 -4.4742 0
M  V30 11178 C 1063.99 -4.38322 -4.38491 0
M  V30 11179 C 1066.05 -3.12381 -3.87715 0
M  V30 11180 C 1064.75 -5.56315 -4.55967 0
M  V30 11181 C 1066.78 -4.29648 -4.06394 0
M  V30 11182 C 1066.14 -5.5011 -4.39953 0
M  V30 11183 H 1062.24 -0.238709 -0.744676 0
M  V30 11184 H 1064.82 -1.14581 -1.57414 0
M  V30 11185 H 1062.99 -0.132827 -3.88173 0
M  V30 11186 H 1064.72 -0.328276 -4.03366 0
M  V30 11187 H 1061.48 -2.34584 -4.11421 0
M  V30 11188 H 1061.9 -4.90905 -4.66199 0
M  V30 11189 H 1066.54 -2.20345 -3.60843 0
M  V30 11190 H 1064.26 -6.48853 -4.8168 0
M  V30 11191 H 1067.85 -4.27835 -3.94269 0
M  V30 11192 H 1066.73 -6.39339 -4.54109 0
M  V30 11193 N 1064.23 1.43628 -0.648757 0
M  V30 11194 C 1065.16 2.33478 0.0320785 0
M  V30 11195 C 1066.14 1.49217 0.816605 0
M  V30 11196 O 1067.33 1.77892 0.778974 0
M  V30 11197 C 1064.46 3.32525 1.00222 0
M  V30 11198 C 1063.41 4.2674 0.328119 0
M  V30 11199 C 1062.74 5.15791 1.4094 0
M  V30 11200 C 1064.04 5.16493 -0.776701 0
M  V30 11201 H 1065.73 2.90657 -0.718257 0
M  V30 11202 H 1063.28 1.3976 -0.346852 0
M  V30 11203 H 1065.23 3.94277 1.4874 0
M  V30 11204 H 1063.96 2.73593 1.78366 0
M  V30 11205 H 1062.61 3.66346 -0.136569 0
M  V30 11206 H 1062.26 4.53201 2.18216 0
M  V30 11207 H 1061.96 5.79645 0.963631 0
M  V30 11208 H 1063.49 5.80416 1.89603 0
M  V30 11209 H 1064.9 5.7208 -0.373878 0
M  V30 11210 H 1063.3 5.89043 -1.14667 0
M  V30 11211 H 1064.37 4.56448 -1.63654 0
M  V30 11212 N 1065.71 0.390394 1.52688 0
M  V30 11213 C 1066.94 -0.194013 2.06491 0
M  V30 11214 C 1067.36 -1.3965 1.26014 0
M  V30 11215 O 1066.72 -1.79038 0.285468 0
M  V30 11216 C 1066.77 -0.541306 3.56514 0
M  V30 11217 O 1065.87 -1.63509 3.78601 0
M  V30 11218 H 1065.21 -0.0223608 0.663623 0
M  V30 11219 H 1067.74 0.558179 1.96839 0
M  V30 11220 H 1067.75 -0.805301 3.99974 0
M  V30 11221 H 1066.43 0.337828 4.14526 0
M  V30 11222 H 1065 -1.36473 3.4703 0
M  V30 11223 N 1067.19 -1.57141 0.120249 0
M  V30 11224 C 1068.42 -1.993 -0.544346 0
M  V30 11225 C 1068.83 -0.998858 -1.60684 0
M  V30 11226 O 1068.17 0.0162197 -1.83693 0
M  V30 11227 C 1068.23 -3.37874 -1.22808 0
M  V30 11228 C 1067.9 -4.55924 -0.313374 0
M  V30 11229 C 1068.89 -5.17962 0.448501 0
M  V30 11230 C 1066.58 -5.018 -0.224082 0
M  V30 11231 C 1068.57 -6.24264 1.28739 0
M  V30 11232 C 1066.26 -6.07963 0.618437 0
M  V30 11233 C 1067.26 -6.69061 1.3728 0
M  V30 11234 O 1066.94 -7.73173 2.20133 0
M  V30 11235 H 1066.68 -0.659466 -0.148596 0
M  V30 11236 H 1069.23 -2.04387 0.203779 0
M  V30 11237 H 1067.46 -3.29545 -2.02329 0
M  V30 11238 H 1069.15 -3.64314 -1.7897 0
M  V30 11239 H 1069.92 -4.83434 0.389395 0
M  V30 11240 H 1065.79 -4.53989 -0.80094 0
M  V30 11241 H 1069.34 -6.71883 1.87667 0
M  V30 11242 H 1065.24 -6.4192 0.678932 0
M  V30 11243 H 1066 -7.90276 2.13088 0
M  V30 11244 N 1068.67 0.153526 -1.5685 0
M  V30 11245 C 1069.89 0.886343 -1.87507 0
M  V30 11246 C 1070.32 1.74244 -0.708565 0
M  V30 11247 O 1069.67 1.78045 0.341997 0
M  V30 11248 C 1069.72 1.72428 -3.16703 0
M  V30 11249 O 1068.83 2.82784 -3.00178 0
M  V30 11250 H 1068.17 0.247259 -0.616246 0
M  V30 11251 H 1070.7 0.146306 -2.04076 0
M  V30 11252 H 1070.71 2.12062 -3.4856 0
M  V30 11253 H 1069.38 1.09558 -4.01211 0
M  V30 11254 H 1067.96 2.46604 -2.79716 0
M  V30 11255 N 1070.14 1.51827 0.422667 0
M  V30 11256 C 1071.37 1.68803 1.19117 0
M  V30 11257 C 1071.78 0.391228 1.85111 0
M  V30 11258 O 1071.13 -0.64148 1.72136 0
M  V30 11259 C 1071.19 2.75767 2.30636 0
M  V30 11260 C 1070.85 4.17929 1.8489 0
M  V30 11261 C 1071.85 5.02223 1.34416 0
M  V30 11262 C 1069.53 4.641 1.92136 0
M  V30 11263 C 1071.53 6.30756 0.917925 0
M  V30 11264 C 1069.21 5.92626 1.49123 0
M  V30 11265 C 1070.21 6.75782 0.990352 0
M  V30 11266 O 1069.9 8.01902 0.566386 0
M  V30 11267 H 1069.63 0.569303 0.364514 0
M  V30 11268 H 1072.19 1.9909 0.505208 0
M  V30 11269 H 1070.42 2.40827 3.02555 0
M  V30 11270 H 1072.11 2.81476 2.92448 0
M  V30 11271 H 1072.87 4.67749 1.28202 0
M  V30 11272 H 1068.75 3.99488 2.30066 0
M  V30 11273 H 1072.29 6.95612 0.52628 0
M  V30 11274 H 1068.19 6.26611 1.55012 0
M  V30 11275 H 1068.96 8.15579 0.690918 0
M  V30 11276 N 1071.62 -0.679052 1.4222 0
M  V30 11277 C 1072.55 -1.80455 1.41311 0
M  V30 11278 C 1073.57 -1.59767 0.312799 0
M  V30 11279 O 1074.76 -1.68964 0.575612 0
M  V30 11280 C 1071.86 -3.17492 1.18541 0
M  V30 11281 C 1071.03 -3.65066 2.40926 0
M  V30 11282 C 1070.09 -4.80823 2.13765 0
M  V30 11283 O 1069.11 -4.91587 2.86934 0
M  V30 11284 N 1070.32 -5.69233 1.13813 0
M  V30 11285 H 1073.08 -1.81722 2.38322 0
M  V30 11286 H 1070.64 -0.861988 1.37045 0
M  V30 11287 H 1072.63 -3.92581 0.982958 0
M  V30 11288 H 1071.2 -3.1115 0.300691 0
M  V30 11289 H 1070.42 -2.80702 2.76767 0
M  V30 11290 H 1071.71 -3.93593 3.22431 0
M  V30 11291 H 1071.11 -5.63185 0.532887 0
M  V30 11292 H 1069.67 -6.44152 0.995554 0
M  V30 11293 N 1073.1 -1.28322 -0.914942 0
M  V30 11294 C 1074.33 -1.1837 -1.70304 0
M  V30 11295 C 1074.75 0.254291 -1.86373 0
M  V30 11296 O 1074.11 1.18398 -1.37301 0
M  V30 11297 C 1074.16 -1.88603 -3.07346 0
M  V30 11298 O 1073.26 -1.19268 -3.94777 0
M  V30 11299 H 1072.6 -0.410978 -0.52153 0
M  V30 11300 H 1075.13 -1.69622 -1.14409 0
M  V30 11301 H 1075.14 -1.96463 -3.57584 0
M  V30 11302 H 1073.82 -2.93201 -2.94967 0
M  V30 11303 H 1072.39 -1.19563 -3.53212 0
M  V30 11304 N 1074.58 1.12322 -1.10551 0
M  V30 11305 C 1075.99 1.35858 -0.837543 0
M  V30 11306 C 1076.19 1.94062 0.54241 0
M  V30 11307 O 1075.25 2.1676 1.29505 0
M  V30 11308 C 1076.56 2.299 -1.9382 0
M  V30 11309 C 1078.11 2.43488 -1.96679 0
M  V30 11310 C 1078.59 3.40846 -3.05922 0
M  V30 11311 N 1080.08 3.48404 -3.05236 0
M  V30 11312 C 1080.81 4.2365 -3.86405 0
M  V30 11313 N 1080.31 5.01951 -4.77512 0
M  V30 11314 N 1082.1 4.19068 -3.74618 0
M  V30 11315 H 1074.25 0.729002 -1.99498 0
M  V30 11316 H 1076.52 0.38339 -0.867016 0
M  V30 11317 H 1076.22 1.94309 -2.9315 0
M  V30 11318 H 1076.1 3.30033 -1.82641 0
M  V30 11319 H 1078.48 2.78359 -0.979813 0
M  V30 11320 H 1078.56 1.43239 -2.11934 0
M  V30 11321 H 1078.21 3.06704 -4.04839 0
M  V30 11322 H 1078.14 4.40927 -2.87907 0
M  V30 11323 H 1080.63 2.92545 -2.39219 0
M  V30 11324 H 1080.94 5.56707 -5.36002 0
M  V30 11325 H 1079.29 5.01143 -4.8154 0
M  V30 11326 H 1082.48 3.5698 -3.02792 0
M  V30 11327 H 1082.65 4.77455 -4.38111 0
M  V30 11328 N 1076.06 0.894434 1.2976 0
M  V30 11329 C 1077.3 0.517669 1.95771 0
M  V30 11330 C 1077.63 -0.935028 1.70551 0
M  V30 11331 O 1076.89 -1.67722 1.00835 0
M  V30 11332 C 1077.19 0.750307 3.49435 0
M  V30 11333 C 1076.85 2.17955 3.94723 0
M  V30 11334 C 1075.51 2.57036 4.068 0
M  V30 11335 C 1077.87 3.11053 4.18205 0
M  V30 11336 C 1075.19 3.88406 4.39724 0
M  V30 11337 C 1077.55 4.41966 4.52602 0
M  V30 11338 C 1076.21 4.80927 4.62888 0
M  V30 11339 H 1075.48 0.189428 0.716378 0
M  V30 11340 H 1078.13 1.13209 1.54454 0
M  V30 11341 H 1076.43 0.0529242 3.91764 0
M  V30 11342 H 1078.13 0.438251 3.98598 0
M  V30 11343 H 1074.72 1.86622 3.85837 0
M  V30 11344 H 1078.9 2.82076 4.08347 0
M  V30 11345 H 1074.16 4.18321 4.4589 0
M  V30 11346 H 1078.33 5.14134 4.69722 0
M  V30 11347 H 1075.96 5.82759 4.88156 0
M  V30 11348 N 1077.53 -1.43282 0.656365 0
M  V30 11349 C 1078.48 -2.27932 -0.0557069 0
M  V30 11350 C 1079.47 -1.40075 -0.791698 0
M  V30 11351 O 1080.66 -1.6368 -0.673646 0
M  V30 11352 C 1077.79 -3.27821 -1.01923 0
M  V30 11353 C 1076.88 -4.23164 -0.281545 0
M  V30 11354 N 1077.27 -5.00882 0.703629 0
M  V30 11355 C 1075.56 -4.42928 -0.522558 0
M  V30 11356 C 1076.27 -5.70384 1.14177 0
M  V30 11357 N 1075.24 -5.41517 0.475394 0
M  V30 11358 H 1079.04 -2.85437 0.70022 0
M  V30 11359 H 1076.56 -1.55023 0.483902 0
M  V30 11360 H 1078.55 -3.87248 -1.54418 0
M  V30 11361 H 1077.21 -2.71878 -1.77518 0
M  V30 11362 H 1078.23 -5.06461 1.08247 0
M  V30 11363 H 1074.9 -3.98051 -1.25944 0
M  V30 11364 H 1076.29 -6.42765 1.95711 0
M  V30 11365 N 1079.01 -0.398486 -1.52479 0
M  V30 11366 C 1079.94 0.423498 -2.29627 0
M  V30 11367 C 1080.92 1.05547 -1.33394 0
M  V30 11368 O 1082.11 1.0665 -1.62294 0
M  V30 11369 C 1079.24 1.54612 -3.10986 0
M  V30 11370 C 1078.19 1.03971 -4.15179 0
M  V30 11371 C 1077.52 2.25512 -4.84818 0
M  V30 11372 C 1078.82 0.10121 -5.22202 0
M  V30 11373 H 1080.51 -0.220222 -2.98589 0
M  V30 11374 H 1078.06 -0.107355 -1.43599 0
M  V30 11375 H 1080.01 2.12806 -3.63719 0
M  V30 11376 H 1078.74 2.21756 -2.39774 0
M  V30 11377 H 1077.4 0.480251 -3.63441 0
M  V30 11378 H 1077.04 2.91187 -4.10145 0
M  V30 11379 H 1076.74 1.92285 -5.55248 0
M  V30 11380 H 1078.27 2.84331 -5.40359 0
M  V30 11381 H 1079.68 0.591617 -5.70239 0
M  V30 11382 H 1078.08 -0.141737 -5.99933 0
M  V30 11383 H 1079.15 -0.847216 -4.77441 0
M  V30 11384 N 1080.49 1.57075 -0.12858 0
M  V30 11385 C 1081.72 1.99876 0.534544 0
M  V30 11386 C 1082.13 1.00843 1.59612 0
M  V30 11387 O 1081.49 0.00268947 1.825 0
M  V30 11388 C 1081.54 3.42654 1.15198 0
M  V30 11389 O 1081.26 4.37899 0.132823 0
M  V30 11390 C 1082.76 4.00637 1.8975 0
M  V30 11391 H 1079.98 0.656073 0.140744 0
M  V30 11392 H 1082.53 2.03337 -0.217742 0
M  V30 11393 H 1080.68 3.40101 1.85499 0
M  V30 11394 H 1081.1 5.21253 0.582682 0
M  V30 11395 H 1082.57 5.02592 2.28266 0
M  V30 11396 H 1083.05 3.40313 2.7764 0
M  V30 11397 H 1083.65 4.06764 1.2419 0
M  V30 11398 N 1081.97 -0.145205 1.5693 0
M  V30 11399 C 1083.38 -0.705089 1.72874 0
M  V30 11400 C 1083.73 -1.81577 0.743261 0
M  V30 11401 O 1082.86 -2.16214 -0.0897153 0
M  V30 11402 C 1083.45 -1.28578 3.13454 0
M  V30 11403 C 1082.01 -1.79221 3.30994 0
M  V30 11404 C 1081.16 -0.681392 2.68798 0
M  V30 11405 H 1084.11 0.0804798 1.58496 0
M  V30 11406 H 1084.13 -2.15558 3.13552 0
M  V30 11407 H 1083.64 -0.477186 3.85155 0
M  V30 11408 H 1081.74 -2.62642 2.64292 0
M  V30 11409 H 1081.86 -1.91969 4.38959 0
M  V30 11410 H 1080.22 -1.10847 2.29314 0
M  V30 11411 H 1081 0.115786 3.43105 0
M  V30 11412 N 1083.45 -1.52049 -0.414609 0
M  V30 11413 C 1084.38 -1.77956 -1.51175 0
M  V30 11414 C 1085.36 -0.630282 -1.57992 0
M  V30 11415 O 1086.54 -0.875324 -1.73354 0
M  V30 11416 C 1083.67 -1.92527 -2.89051 0
M  V30 11417 C 1082.63 -3.08096 -2.97087 0
M  V30 11418 C 1081.95 -3.07882 -4.37164 0
M  V30 11419 C 1083.25 -4.47656 -2.69075 0
M  V30 11420 H 1084.95 -2.69827 -1.29746 0
M  V30 11421 H 1082.49 -1.29839 -0.62273 0
M  V30 11422 H 1084.45 -2.09234 -3.65786 0
M  V30 11423 H 1083.17 -0.973235 -3.11762 0
M  V30 11424 H 1081.83 -2.91131 -2.22797 0
M  V30 11425 H 1081.48 -2.10411 -4.56877 0
M  V30 11426 H 1081.18 -3.85501 -4.43467 0
M  V30 11427 H 1082.7 -3.26712 -5.15841 0
M  V30 11428 H 1084.12 -4.64855 -3.35534 0
M  V30 11429 H 1082.51 -5.27151 -2.8676 0
M  V30 11430 H 1083.58 -4.56129 -1.64544 0
M  V30 11431 N 1084.93 0.6715 -1.42579 0
M  V30 11432 C 1086.15 1.46471 -1.46836 0
M  V30 11433 C 1086.58 1.87921 -0.0820658 0
M  V30 11434 O 1085.93 1.5621 0.920217 0
M  V30 11435 C 1085.98 2.68796 -2.40377 0
M  V30 11436 O 1085.09 3.67188 -1.87741 0
M  V30 11437 H 1084.43 0.439901 -0.497376 0
M  V30 11438 H 1086.96 0.823342 -1.87303 0
M  V30 11439 H 1086.97 3.16828 -2.57068 0
M  V30 11440 H 1085.64 2.37967 -3.41093 0
M  V30 11441 H 1084.22 3.26237 -1.80621 0
M  V30 11442 N 1086.4 1.28806 0.908124 0
M  V30 11443 C 1087.63 1.1898 1.689 0
M  V30 11444 C 1088.04 -0.253334 1.87496 0
M  V30 11445 O 1087.38 -1.18245 1.40584 0
M  V30 11446 C 1087.45 1.82266 3.0987 0
M  V30 11447 C 1087.11 3.31534 3.14538 0
M  V30 11448 C 1088.11 4.27886 2.95313 0
M  V30 11449 C 1085.79 3.72589 3.36872 0
M  V30 11450 C 1087.79 5.63267 2.98343 0
M  V30 11451 C 1085.47 5.08095 3.39534 0
M  V30 11452 C 1086.47 6.03244 3.2029 0
M  V30 11453 O 1086.16 7.36277 3.22724 0
M  V30 11454 H 1085.89 0.413772 0.534574 0
M  V30 11455 H 1088.45 1.7055 1.14464 0
M  V30 11456 H 1086.68 1.25197 3.65872 0
M  V30 11457 H 1088.36 1.6688 3.70008 0
M  V30 11458 H 1089.13 3.97502 2.77879 0
M  V30 11459 H 1085.01 2.98989 3.50894 0
M  V30 11460 H 1088.55 6.37511 2.83241 0
M  V30 11461 H 1084.45 5.38126 3.56497 0
M  V30 11462 H 1085.22 7.44976 3.39048 0
M  V30 11463 N 1087.88 -1.11734 1.11145 0
M  V30 11464 C 1088.79 -2.21267 0.779607 0
M  V30 11465 C 1089.81 -1.72526 -0.225986 0
M  V30 11466 O 1090.98 -2.01302 -0.0629166 0
M  V30 11467 C 1088.05 -3.45973 0.22435 0
M  V30 11468 C 1087.11 -4.09518 1.28816 0
M  V30 11469 C 1086.34 -5.28271 0.7593 0
M  V30 11470 O 1086.57 -5.68912 -0.411725 0
M  V30 11471 O 1085.5 -5.82322 1.52266 0
M  V30 11472 H 1089.33 -2.5206 1.6941 0
M  V30 11473 H 1086.91 -1.20211 0.887115 0
M  V30 11474 H 1088.79 -4.21322 -0.0810921 0
M  V30 11475 H 1087.47 -3.1684 -0.662891 0
M  V30 11476 H 1086.37 -3.35915 1.64657 0
M  V30 11477 H 1087.71 -4.42824 2.14868 0
M  V30 11478 N 1089.36 -0.901303 -1.29284 0
M  V30 11479 C 1090.59 -0.543511 -1.99634 0
M  V30 11480 C 1091 0.872154 -1.67448 0
M  V30 11481 O 1090.36 1.57591 -0.920406 0
M  V30 11482 C 1090.41 -0.728148 -3.54091 0
M  V30 11483 O 1090.13 -2.08809 -3.85137 0
M  V30 11484 C 1091.63 -0.375519 -4.41707 0
M  V30 11485 H 1088.85 -0.208405 -0.637815 0
M  V30 11486 H 1091.4 -1.21109 -1.64781 0
M  V30 11487 H 1089.55 -0.107728 -3.8725 0
M  V30 11488 H 1089.97 -2.11863 -4.79807 0
M  V30 11489 H 1091.44 -0.555538 -5.49197 0
M  V30 11490 H 1091.92 0.687532 -4.33785 0
M  V30 11491 H 1092.52 -0.972949 -4.14021 0
M  V30 11492 N 1090.84 1.42931 -0.663954 0
M  V30 11493 C 1091.77 2.33499 0.00731327 0
M  V30 11494 C 1092.75 1.50074 0.800733 0
M  V30 11495 O 1093.93 1.78708 0.760062 0
M  V30 11496 C 1091.06 3.33569 0.966897 0
M  V30 11497 C 1090.02 4.27064 0.282839 0
M  V30 11498 C 1089.34 5.17257 1.35461 0
M  V30 11499 C 1090.64 5.1564 -0.831438 0
M  V30 11500 H 1092.34 2.89879 -0.749044 0
M  V30 11501 H 1089.88 1.39385 -0.361656 0
M  V30 11502 H 1091.84 3.95833 1.44549 0
M  V30 11503 H 1090.56 2.75469 1.75455 0
M  V30 11504 H 1089.22 3.6618 -0.175417 0
M  V30 11505 H 1088.87 4.5549 2.13397 0
M  V30 11506 H 1088.57 5.80634 0.902098 0
M  V30 11507 H 1090.09 5.82395 1.83436 0
M  V30 11508 H 1091.51 5.71651 -0.434534 0
M  V30 11509 H 1089.9 5.87794 -1.20908 0
M  V30 11510 H 1090.97 4.54687 -1.68487 0
M  V30 11511 N 1092.32 0.406567 1.52266 0
M  V30 11512 C 1093.23 -0.4271 2.30679 0
M  V30 11513 C 1094.24 -1.0559 1.383 0
M  V30 11514 O 1095.42 -1.05797 1.71374 0
M  V30 11515 C 1092.48 -1.53008 3.1111 0
M  V30 11516 C 1091.54 -0.924604 4.19225 0
M  V30 11517 C 1090.78 -1.97502 4.95811 0
M  V30 11518 O 1091 -3.19277 4.72671 0
M  V30 11519 O 1089.93 -1.58268 5.80719 0
M  V30 11520 H 1093.76 0.212187 3.02958 0
M  V30 11521 H 1091.34 0.169835 1.48432 0
M  V30 11522 H 1093.23 -2.17046 3.61205 0
M  V30 11523 H 1091.9 -2.15401 2.41628 0
M  V30 11524 H 1090.81 -0.247009 3.73284 0
M  V30 11525 H 1092.14 -0.34463 4.90992 0
M  V30 11526 N 1093.79 -1.57004 0.136909 0
M  V30 11527 C 1095.04 -1.95797 -0.516711 0
M  V30 11528 C 1095.37 -1.02123 -1.65533 0
M  V30 11529 O 1094.62 -0.0484835 -1.9564 0
M  V30 11530 C 1094.92 -3.40903 -1.07331 0
M  V30 11531 C 1094.59 -4.50867 -0.0541941 0
M  V30 11532 C 1093.25 -4.80669 0.225988 0
M  V30 11533 C 1095.6 -5.17264 0.639361 0
M  V30 11534 C 1092.93 -5.74177 1.2057 0
M  V30 11535 C 1095.28 -6.11827 1.60783 0
M  V30 11536 C 1093.95 -6.40012 1.89581 0
M  V30 11537 H 1093.22 -0.716471 -0.189078 0
M  V30 11538 H 1095.86 -1.90213 0.221605 0
M  V30 11539 H 1094.17 -3.43268 -1.88876 0
M  V30 11540 H 1095.87 -3.6824 -1.58745 0
M  V30 11541 H 1092.46 -4.27666 -0.282754 0
M  V30 11542 H 1096.64 -4.9438 0.436085 0
M  V30 11543 H 1091.9 -5.94312 1.43538 0
M  V30 11544 H 1096.07 -6.62354 2.15081 0
M  V30 11545 H 1093.7 -7.12274 2.65649 0
M  V30 11546 N 1095.27 0.136881 -1.57004 0
M  V30 11547 C 1096.24 1.15267 -1.98106 0
M  V30 11548 C 1097.24 1.35305 -0.868856 0
M  V30 11549 O 1098.43 1.32126 -1.13527 0
M  V30 11550 C 1095.56 2.51092 -2.30577 0
M  V30 11551 H 1096.75 0.799821 -2.89038 0
M  V30 11552 H 1094.3 0.380576 -1.51596 0
M  V30 11553 H 1095.04 2.9133 -1.42469 0
M  V30 11554 H 1094.82 2.37906 -3.11678 0
M  V30 11555 H 1096.31 3.24232 -2.63179 0
M  V30 11556 N 1096.75 1.52266 0.40654 0
M  V30 11557 C 1097.98 1.70598 1.17945 0
M  V30 11558 C 1098.4 0.415793 1.83447 0
M  V30 11559 O 1097.76 -0.626968 1.70114 0
M  V30 11560 C 1097.81 2.84449 2.21633 0
M  V30 11561 O 1096.91 2.50199 3.27833 0
M  V30 11562 H 1096.25 0.567837 0.344177 0
M  V30 11563 H 1098.78 1.98981 0.476211 0
M  V30 11564 H 1098.79 3.09436 2.65919 0
M  V30 11565 H 1097.47 3.78055 1.73341 0
M  V30 11566 H 1096.04 2.35892 2.88807 0
M  V30 11567 N 1098.23 -0.663929 1.42933 0
M  V30 11568 C 1099.48 -1.42111 1.43697 0
M  V30 11569 C 1099.8 -1.94913 0.0583858 0
M  V30 11570 O 1099.07 -1.73757 -0.904719 0
M  V30 11571 H 1097.65 -0.527391 0.529026 0
M  V30 11572 H 1100.31 -0.783766 1.78446 0
M  V30 11573 H 1099.41 -2.26877 2.1432 0
M  V30 11574 N 1099.71 -1.29285 -0.901281 0
M  V30 11575 C 1100.95 -1.17165 -1.65162 0
M  V30 11576 C 1101.28 0.277184 -1.92515 0
M  V30 11577 O 1100.54 1.2168 -1.53273 0
M  V30 11578 C 1100.84 -1.92865 -3.00895 0
M  V30 11579 C 1100.5 -3.42593 -2.93157 0
M  V30 11580 C 1099.16 -3.83426 -2.90754 0
M  V30 11581 C 1101.52 -4.38011 -2.82481 0
M  V30 11582 C 1098.84 -5.17997 -2.75492 0
M  V30 11583 C 1101.2 -5.7267 -2.68759 0
M  V30 11584 C 1099.86 -6.12764 -2.64721 0
M  V30 11585 H 1099.13 -0.428737 -0.604372 0
M  V30 11586 H 1101.78 -1.60204 -1.04914 0
M  V30 11587 H 1100.08 -1.42412 -3.65001 0
M  V30 11588 H 1101.78 -1.80893 -3.57881 0
M  V30 11589 H 1098.37 -3.10134 -2.95829 0
M  V30 11590 H 1102.55 -4.07417 -2.83416 0
M  V30 11591 H 1097.81 -5.48173 -2.70769 0
M  V30 11592 H 1101.98 -6.46258 -2.59469 0
M  V30 11593 H 1099.61 -7.16987 -2.52652 0
M  V30 11594 N 1101.18 1.11143 -1.11736 0
M  V30 11595 C 1102.15 2.15456 -0.78174 0
M  V30 11596 C 1103.15 1.59547 0.200383 0
M  V30 11597 O 1104.34 1.74183 -0.0244893 0
M  V30 11598 C 1101.47 3.40523 -0.160364 0
M  V30 11599 H 1102.66 2.46658 -1.70586 0
M  V30 11600 H 1100.22 1.26381 -0.919644 0
M  V30 11601 H 1100.95 3.14932 0.773835 0
M  V30 11602 H 1100.74 3.82386 -0.867378 0
M  V30 11603 H 1102.23 4.17559 0.0582175 0
M  V30 11604 N 1102.66 0.908147 1.28804 0
M  V30 11605 C 1103.89 0.553431 1.9988 0
M  V30 11606 C 1104.31 -0.856714 1.67458 0
M  V30 11607 O 1103.67 -1.57163 0.903849 0
M  V30 11608 C 1103.72 0.762688 3.52442 0
M  V30 11609 O 1102.82 -0.180924 4.12003 0
M  V30 11610 H 1102.16 0.215237 0.628147 0
M  V30 11611 H 1104.69 1.22205 1.64095 0
M  V30 11612 H 1104.7 0.670612 4.02451 0
M  V30 11613 H 1103.38 1.79071 3.75375 0
M  V30 11614 H 1101.96 -0.0405897 3.72878 0
M  V30 11615 N 1104.14 -1.42577 0.671525 0
M  V30 11616 C 1105.05 -2.34598 -0.00898225 0
M  V30 11617 C 1106.07 -1.54909 -0.792407 0
M  V30 11618 O 1107.24 -1.87491 -0.735477 0
M  V30 11619 C 1104.31 -3.33405 -0.950888 0
M  V30 11620 C 1103.37 -4.28993 -0.16236 0
M  V30 11621 C 1102.6 -5.2308 -1.0594 0
M  V30 11622 O 1102.82 -5.22022 -2.2989 0
M  V30 11623 O 1101.76 -5.99632 -0.521966 0
M  V30 11624 H 1105.58 -2.94321 0.748927 0
M  V30 11625 H 1103.17 -1.43025 0.43175 0
M  V30 11626 H 1105.05 -3.94115 -1.49169 0
M  V30 11627 H 1103.73 -2.7616 -1.68871 0
M  V30 11628 H 1102.63 -3.71707 0.42247 0
M  V30 11629 H 1103.97 -4.8927 0.536274 0
M  V30 11630 N 1105.62 -0.414636 -1.52048 0
M  V30 11631 C 1106.55 0.443601 -2.24866 0
M  V30 11632 C 1107.56 1.00556 -1.28032 0
M  V30 11633 O 1108.75 0.903566 -1.53941 0
M  V30 11634 C 1105.85 1.63004 -2.97124 0
M  V30 11635 C 1105.03 1.191 -4.20873 0
M  V30 11636 C 1104.08 2.24497 -4.75907 0
M  V30 11637 O 1103.11 1.84861 -5.38345 0
M  V30 11638 N 1104.31 3.56727 -4.57959 0
M  V30 11639 H 1107.08 -0.180393 -2.99157 0
M  V30 11640 H 1104.64 -0.242305 -1.60077 0
M  V30 11641 H 1106.63 2.33089 -3.30835 0
M  V30 11642 H 1105.2 2.15984 -2.25986 0
M  V30 11643 H 1104.42 0.318059 -3.92915 0
M  V30 11644 H 1105.71 0.874699 -5.01225 0
M  V30 11645 H 1105.11 3.91675 -4.08175 0
M  V30 11646 H 1103.66 4.22772 -4.96092 0
M  V30 11647 N 1107.1 1.56929 -0.145233 0
M  V30 11648 C 1108.34 1.97959 0.509092 0
M  V30 11649 C 1108.7 1.02813 1.62153 0
M  V30 11650 O 1109.9 1.3288 2.33659 0
M  V30 11651 C 1108.17 3.43012 1.00388 0
M  V30 11652 S 1109.73 4.06064 1.66305 0
M  V30 11653 H 1106.55 0.69167 0.164663 0
M  V30 11654 H 1109.15 1.94064 -0.236529 0
M  V30 11655 H 1107.86 4.0999 0.183454 0
M  V30 11656 H 1107.39 3.50615 1.78417 0
M  V30 11657 H 1109.4 3.98971 2.9502 0
M  V30 11658 N 1108.58 -0.128553 1.57075 0
M  V30 11659 C 1109.99 -0.686713 1.73612 0
M  V30 11660 C 1110.34 -1.80778 0.762478 0
M  V30 11661 O 1109.46 -2.16297 -0.0667779 0
M  V30 11662 C 1110.06 -1.25246 3.148 0
M  V30 11663 C 1108.62 -1.757 3.32876 0
M  V30 11664 C 1107.76 -0.652844 2.69506 0
M  V30 11665 H 1110.71 0.0972859 1.58402 0
M  V30 11666 H 1110.74 -2.1222 3.15821 0
M  V30 11667 H 1110.25 -0.436308 3.8564 0
M  V30 11668 H 1108.35 -2.59824 2.67063 0
M  V30 11669 H 1108.46 -1.87302 4.4097 0
M  V30 11670 H 1106.83 -1.08408 2.30477 0
M  V30 11671 H 1107.61 0.15217 3.42963 0
M  V30 11672 N 1110.05 -1.5248 -0.398459 0
M  V30 11673 C 1110.96 -1.79492 -1.51062 0
M  V30 11674 C 1111.98 -0.681101 -1.60116 0
M  V30 11675 O 1113.16 -0.967671 -1.7663 0
M  V30 11676 C 1110.22 -1.94958 -2.86692 0
M  V30 11677 C 1109.28 -3.1887 -2.87438 0
M  V30 11678 C 1108.51 -3.33588 -4.16599 0
M  V30 11679 O 1108.74 -2.53327 -5.11059 0
M  V30 11680 O 1107.67 -4.26795 -4.24416 0
M  V30 11681 H 1111.5 -2.73913 -1.31169 0
M  V30 11682 H 1109.08 -1.37455 -0.585372 0
M  V30 11683 H 1110.96 -2.06891 -3.67116 0
M  V30 11684 H 1109.64 -1.03726 -3.06631 0
M  V30 11685 H 1108.55 -3.12386 -2.0583 0
M  V30 11686 H 1109.88 -4.09917 -2.7245 0
M  V30 11687 N 1111.53 0.65634 -1.43283 0
M  V30 11688 C 1112.78 1.41347 -1.44449 0
M  V30 11689 C 1113.1 1.94879 -0.0687217 0
M  V30 11690 O 1112.37 1.74235 0.895492 0
M  V30 11691 H 1110.95 0.524578 -0.531815 0
M  V30 11692 H 1113.61 0.774292 -1.7886 0
M  V30 11693 H 1112.71 2.25737 -2.15521 0
M  V30 11694 N 1113.01 1.29761 0.894412 0
M  V30 11695 C 1114.26 1.17409 1.64006 0
M  V30 11696 C 1114.57 -0.272355 1.93695 0
M  V30 11697 O 1115.78 -0.517269 2.66527 0
M  V30 11698 C 1114.23 2.05379 2.95546 0
M  V30 11699 C 1113.84 3.54878 2.73433 0
M  V30 11700 C 1115.59 2.01765 3.73485 0
M  V30 11701 C 1113.49 4.34935 4.00731 0
M  V30 11702 H 1112.42 0.43583 0.615279 0
M  V30 11703 H 1115.07 1.5444 0.990983 0
M  V30 11704 H 1113.46 1.61222 3.61695 0
M  V30 11705 H 1114.63 4.07122 2.15844 0
M  V30 11706 H 1112.94 3.60218 2.08882 0
M  V30 11707 H 1115.54 2.58835 4.67877 0
M  V30 11708 H 1115.88 0.998876 4.04139 0
M  V30 11709 H 1116.42 2.43994 3.14184 0
M  V30 11710 H 1113.16 5.3747 3.75241 0
M  V30 11711 H 1112.68 3.87458 4.5786 0
M  V30 11712 H 1114.36 4.45875 4.68833 0
M  V30 11713 N 1114.49 -1.10549 1.12324 0
M  V30 11714 C 1115.73 -1.82755 0.879117 0
M  V30 11715 C 1116.07 -1.84905 -0.593604 0
M  V30 11716 O 1115.34 -1.30884 -1.43873 0
M  V30 11717 C 1115.62 -3.29481 1.45308 0
M  V30 11718 C 1115.48 -3.3567 2.99408 0
M  V30 11719 C 1116.8 -4.25828 1.11167 0
M  V30 11720 H 1113.92 -0.663513 0.32081 0
M  V30 11721 H 1116.56 -1.29572 1.38965 0
M  V30 11722 H 1114.71 -3.74902 1.01887 0
M  V30 11723 H 1116.38 -2.98739 3.515 0
M  V30 11724 H 1114.62 -2.75606 3.34998 0
M  V30 11725 H 1115.29 -4.38983 3.34661 0
M  V30 11726 H 1117.77 -3.88635 1.48667 0
M  V30 11727 H 1116.65 -5.26857 1.53991 0
M  V30 11728 H 1116.91 -4.42094 0.0237046 0
M  V30 11729 N 1115.97 -0.914965 -1.28321 0
M  V30 11730 C 1116.93 -0.409024 -2.25521 0
M  V30 11731 C 1117.93 0.465327 -1.5392 0
M  V30 11732 O 1119.12 0.26821 -1.72123 0
M  V30 11733 C 1116.25 0.413452 -3.38383 0
M  V30 11734 H 1117.44 -1.26767 -2.71791 0
M  V30 11735 H 1115 -0.694477 -1.40024 0
M  V30 11736 H 1115.73 1.29145 -2.97476 0
M  V30 11737 H 1115.52 -0.213268 -3.9152 0
M  V30 11738 H 1117.01 0.758232 -4.10659 0
M  V30 11739 N 1117.44 1.42219 -0.679077 0
M  V30 11740 C 1118.69 2.00703 -0.200309 0
M  V30 11741 C 1119.01 1.54339 1.20161 0
M  V30 11742 O 1120.21 2.0527 1.77698 0
M  V30 11743 C 1118.67 3.58586 -0.307248 0
M  V30 11744 C 1118.28 4.13937 -1.71349 0
M  V30 11745 C 1120.02 4.24351 0.112588 0
M  V30 11746 C 1117.93 5.64198 -1.77297 0
M  V30 11747 H 1116.86 0.750638 -0.0711279 0
M  V30 11748 H 1119.51 1.62893 -0.844881 0
M  V30 11749 H 1117.89 3.93921 0.40529 0
M  V30 11750 H 1119.06 3.90054 -2.45346 0
M  V30 11751 H 1117.38 3.60639 -2.08155 0
M  V30 11752 H 1119.98 5.34627 0.0883578 0
M  V30 11753 H 1120.32 4.00142 1.14857 0
M  V30 11754 H 1120.85 3.93992 -0.549093 0
M  V30 11755 H 1117.59 5.93211 -2.78892 0
M  V30 11756 H 1117.11 5.90058 -1.07662 0
M  V30 11757 H 1118.79 6.2869 -1.52835 0
M  V30 11758 N 1118.92 0.422693 1.51826 0
M  V30 11759 C 1120.15 -0.15017 2.06856 0
M  V30 11760 C 1120.57 -1.36946 1.28948 0
M  V30 11761 O 1119.93 -1.78393 0.32338 0
M  V30 11762 C 1119.98 -0.465563 3.57582 0
M  V30 11763 O 1119.08 -1.55442 3.81984 0
M  V30 11764 H 1118.42 -0.00827931 0.663948 0
M  V30 11765 H 1120.95 0.599806 1.95611 0
M  V30 11766 H 1120.96 -0.720279 4.01592 0
M  V30 11767 H 1119.64 0.425679 4.13716 0
M  V30 11768 H 1118.21 -1.29081 3.49846 0
M  V30 11769 N 1120.4 -1.5685 0.153553 0
M  V30 11770 C 1121.63 -2.00701 -0.502678 0
M  V30 11771 C 1122.04 -1.0337 -1.57988 0
M  V30 11772 O 1121.4 -0.0317233 -1.82472 0
M  V30 11773 C 1121.45 -3.44443 -1.09732 0
M  V30 11774 O 1121.17 -4.38054 -0.0631405 0
M  V30 11775 C 1122.67 -4.03605 -1.83352 0
M  V30 11776 H 1119.89 -0.658229 -0.130289 0
M  V30 11777 H 1122.44 -2.02965 0.250063 0
M  V30 11778 H 1120.59 -3.43009 -1.80065 0
M  V30 11779 H 1121.01 -5.22114 -0.499681 0
M  V30 11780 H 1122.48 -5.0616 -2.20241 0
M  V30 11781 H 1122.96 -3.44687 -2.7219 0
M  V30 11782 H 1123.56 -4.08688 -1.17703 0
M  V30 11783 N 1121.88 0.120221 -1.57141 0
M  V30 11784 C 1122.83 1.16654 -2.01233 0
M  V30 11785 C 1123.82 1.42943 -0.909053 0
M  V30 11786 O 1125.03 1.4292 -1.09426 0
M  V30 11787 H 1121.4 0.393289 -0.640958 0
M  V30 11788 H 1123.37 0.768156 -2.88343 0
M  V30 11789 C 1122.12 2.4854 -2.43152 0
M  V30 11790 H 1121.44 2.29149 -3.27614 0
M  V30 11791 H 1122.88 3.20315 -2.77802 0
M  V30 11792 C 1121.34 3.1103 -1.29468 0
M  V30 11793 O 1121.87 3.97042 -0.609982 0
M  V30 11794 N 1120.08 2.70888 -1.05205 0
M  V30 11795 H 1119.63 2.01039 -1.61062 0
M  V30 11796 H 1119.58 3.13028 -0.293347 0
M  V30 11797 N 1123.36 1.52689 0.390367 0
M  V30 11798 C 1124.58 1.71541 1.15678 0
M  V30 11799 C 1125 0.433171 1.83764 0
M  V30 11800 O 1124.36 -0.592248 1.72623 0
M  V30 11801 C 1124.41 2.864 2.20584 0
M  V30 11802 O 1124.13 4.0966 1.55274 0
M  V30 11803 C 1125.63 3.1692 3.09962 0
M  V30 11804 H 1122.85 0.574381 0.346883 0
M  V30 11805 H 1125.39 1.99332 0.456851 0
M  V30 11806 H 1123.55 2.61075 2.86214 0
M  V30 11807 H 1123.96 4.73802 2.2497 0
M  V30 11808 H 1125.44 4.00755 3.79604 0
M  V30 11809 H 1125.91 2.31245 3.73393 0
M  V30 11810 H 1126.52 3.4408 2.49979 0
M  V30 11811 N 1124.83 -0.648732 1.43629 0
M  V30 11812 C 1125.76 -1.77298 1.51947 0
M  V30 11813 C 1126.75 -1.65942 0.373785 0
M  V30 11814 O 1127.93 -1.8497 0.591596 0
M  V30 11815 C 1125.06 -3.15749 1.44638 0
M  V30 11816 C 1124.01 -3.41872 2.57502 0
M  V30 11817 C 1123.34 -4.8017 2.35246 0
M  V30 11818 C 1124.64 -3.36173 3.99731 0
M  V30 11819 H 1126.33 -1.70594 2.46045 0
M  V30 11820 H 1123.88 -0.819306 1.1842 0
M  V30 11821 H 1125.83 -3.94156 1.4906 0
M  V30 11822 H 1124.56 -3.23194 0.470466 0
M  V30 11823 H 1123.22 -2.65838 2.5244 0
M  V30 11824 H 1122.86 -4.84297 1.35887 0
M  V30 11825 H 1122.56 -4.9861 3.10906 0
M  V30 11826 H 1124.09 -5.6083 2.41459 0
M  V30 11827 H 1125.5 -4.0451 4.06257 0
M  V30 11828 H 1123.9 -3.66148 4.75453 0
M  V30 11829 H 1124.97 -2.34277 4.24549 0
M  V30 11830 N 1126.31 -1.30234 -0.887518 0
M  V30 11831 C 1127.73 -1.0851 -1.17037 0
M  V30 11832 C 1127.93 0.155788 -2.00897 0
M  V30 11833 O 1126.98 0.850123 -2.37759 0
M  V30 11834 C 1128.3 -2.34723 -1.87951 0
M  V30 11835 C 1129.85 -2.40163 -2.00726 0
M  V30 11836 C 1130.32 -3.66211 -2.75051 0
M  V30 11837 N 1131.81 -3.67004 -2.82599 0
M  V30 11838 C 1132.55 -4.61224 -3.40676 0
M  V30 11839 N 1132.04 -5.65786 -3.99823 0
M  V30 11840 N 1133.84 -4.48772 -3.38467 0
M  V30 11841 H 1125.99 -2.09847 -0.328297 0
M  V30 11842 H 1128.25 -0.924904 -0.20798 0
M  V30 11843 H 1127.96 -3.25265 -1.33773 0
M  V30 11844 H 1127.83 -2.43175 -2.8835 0
M  V30 11845 H 1130.22 -1.50101 -2.54074 0
M  V30 11846 H 1130.3 -2.35688 -0.994218 0
M  V30 11847 H 1129.94 -4.56631 -2.22376 0
M  V30 11848 H 1129.87 -3.67947 -3.76726 0
M  V30 11849 H 1132.36 -2.91409 -2.40602 0
M  V30 11850 H 1132.68 -6.33783 -4.42197 0
M  V30 11851 H 1131.02 -5.69581 -3.9825 0
M  V30 11852 H 1134.21 -3.6627 -2.91485 0
M  V30 11853 H 1134.38 -5.22382 -3.83433 0
M  V30 11854 N 1127.79 1.09952 -1.12909 0
M  V30 11855 C 1129.04 1.81386 -0.882163 0
M  V30 11856 C 1129.35 1.86376 0.593592 0
M  V30 11857 O 1130.56 2.54064 0.957275 0
M  V30 11858 C 1129.01 3.25824 -1.52861 0
M  V30 11859 C 1128.62 3.29117 -3.0395 0
M  V30 11860 C 1130.37 4.02051 -1.36216 0
M  V30 11861 C 1128.27 4.68047 -3.61505 0
M  V30 11862 H 1127.2 0.679701 -0.326378 0
M  V30 11863 H 1129.85 1.23614 -1.35616 0
M  V30 11864 H 1128.24 3.83624 -0.982271 0
M  V30 11865 H 1129.41 2.81114 -3.65119 0
M  V30 11866 H 1127.73 2.66379 -3.20049 0
M  V30 11867 H 1130.32 5.04683 -1.76633 0
M  V30 11868 H 1130.67 4.15171 -0.306391 0
M  V30 11869 H 1131.2 3.5068 -1.87799 0
M  V30 11870 H 1127.94 4.60128 -4.66865 0
M  V30 11871 H 1127.46 5.16397 -3.05114 0
M  V30 11872 H 1129.14 5.37018 -3.6086 0
M  V30 11873 N 1129.27 0.921757 1.27833 0
M  V30 11874 C 1130.2 0.433466 2.29441 0
M  V30 11875 C 1131.18 -0.503133 1.62489 0
M  V30 11876 O 1132.36 -0.409156 1.89841 0
M  V30 11877 C 1129.49 -0.320029 3.45822 0
M  V30 11878 C 1128.45 0.528178 4.24728 0
M  V30 11879 C 1127.77 -0.354132 5.33526 0
M  V30 11880 C 1129.07 1.78959 4.90684 0
M  V30 11881 H 1130.77 1.28263 2.70535 0
M  V30 11882 H 1128.31 0.618197 1.30055 0
M  V30 11883 H 1130.27 -0.672526 4.15999 0
M  V30 11884 H 1128.99 -1.20317 3.0363 0
M  V30 11885 H 1127.65 0.863302 3.5629 0
M  V30 11886 H 1127.3 -1.23605 4.87576 0
M  V30 11887 H 1127 0.209855 5.87225 0
M  V30 11888 H 1128.52 -0.702333 6.06547 0
M  V30 11889 H 1129.94 1.50552 5.53179 0
M  V30 11890 H 1128.33 2.29661 5.54415 0
M  V30 11891 H 1129.4 2.51265 4.14721 0
M  V30 11892 N 1130.75 -1.41857 0.686609 0
M  V30 11893 C 1131.71 -2.29187 0.0247022 0
M  V30 11894 C 1132.71 -1.43926 -0.717069 0
M  V30 11895 O 1133.9 -1.65179 -0.5533 0
M  V30 11896 C 1131.03 -3.26644 -0.975537 0
M  V30 11897 H 1132.22 -2.89212 0.793503 0
M  V30 11898 H 1129.78 -1.49694 0.449605 0
M  V30 11899 H 1130.51 -2.7158 -1.77242 0
M  V30 11900 H 1130.3 -3.89545 -0.446892 0
M  V30 11901 H 1131.79 -3.92107 -1.43673 0
M  V30 11902 N 1132.22 -0.430739 -1.51599 0
M  V30 11903 C 1133.15 0.374695 -2.30474 0
M  V30 11904 C 1134.14 1.02694 -1.35602 0
M  V30 11905 O 1135.32 1.03184 -1.6452 0
M  V30 11906 C 1132.45 1.47981 -3.14196 0
M  V30 11907 C 1131.4 0.951415 -4.17291 0
M  V30 11908 C 1130.73 2.15177 -4.89492 0
M  V30 11909 C 1132.03 -0.00957951 -5.22299 0
M  V30 11910 H 1133.72 -0.283508 -2.98055 0
M  V30 11911 H 1131.27 -0.13779 -1.43339 0
M  V30 11912 H 1133.22 2.05043 -3.68151 0
M  V30 11913 H 1131.95 2.16621 -2.44424 0
M  V30 11914 H 1130.61 0.403052 -3.64378 0
M  V30 11915 H 1130.25 2.82421 -4.1623 0
M  V30 11916 H 1129.95 1.80464 -5.59202 0
M  V30 11917 H 1131.48 2.72806 -5.46269 0
M  V30 11918 H 1132.89 0.470527 -5.71366 0
M  V30 11919 H 1131.29 -0.268959 -5.99497 0
M  V30 11920 H 1132.36 -0.948297 -4.75537 0
M  V30 11921 N 1133.7 1.56767 -0.161869 0
M  V30 11922 C 1134.61 2.21083 0.784814 0
M  V30 11923 C 1135.63 1.19959 1.26039 0
M  V30 11924 O 1136.8 1.52588 1.31449 0
M  V30 11925 C 1133.87 2.83153 2.00063 0
M  V30 11926 C 1132.93 3.9945 1.57285 0
M  V30 11927 C 1132.16 4.5855 2.7307 0
M  V30 11928 O 1132.39 4.16534 3.89686 0
M  V30 11929 O 1131.32 5.48575 2.47688 0
M  V30 11930 H 1135.15 3.02522 0.267243 0
M  V30 11931 H 1132.73 1.49255 0.0658783 0
M  V30 11932 H 1134.61 3.22546 2.71186 0
M  V30 11933 H 1133.29 2.04718 2.50744 0
M  V30 11934 H 1132.2 3.64745 0.831393 0
M  V30 11935 H 1133.53 4.7945 1.11304 0
M  V30 11936 N 1135.18 -0.111886 1.57202 0
M  V30 11937 C 1136.13 -1.13688 2.00858 0
M  V30 11938 C 1137.1 -1.40752 0.881939 0
M  V30 11939 O 1138.28 -1.52498 1.14669 0
M  V30 11940 C 1135.42 -2.45641 2.42393 0
M  V30 11941 C 1134.54 -2.25452 3.68504 0
M  V30 11942 C 1133.67 -3.50686 3.9899 0
M  V30 11943 C 1132.71 -3.25685 5.18262 0
M  V30 11944 N 1131.85 -4.4314 5.44583 0
M  V30 11945 H 1136.69 -0.757611 2.88209 0
M  V30 11946 H 1134.22 -0.362582 1.42561 0
M  V30 11947 H 1136.18 -3.22627 2.64514 0
M  V30 11948 H 1134.81 -2.81447 1.58074 0
M  V30 11949 H 1133.86 -1.39349 3.53958 0
M  V30 11950 H 1135.18 -2.0296 4.55641 0
M  V30 11951 H 1134.33 -4.36087 4.21797 0
M  V30 11952 H 1133.07 -3.76216 3.10343 0
M  V30 11953 H 1132.07 -2.38675 4.95292 0
M  V30 11954 H 1133.3 -3.01518 6.08493 0
M  V30 11955 H 1131.24 -4.68778 4.58893 0
M  V30 11956 H 1131.16 -4.23778 6.26058 0
M  V30 11957 H 1132.43 -5.29654 5.71915 0
M  V30 11958 N 1136.66 -1.52894 -0.382264 0
M  V30 11959 C 1137.59 -1.81122 -1.47367 0
M  V30 11960 C 1138.57 -0.663653 -1.56619 0
M  V30 11961 O 1139.75 -0.911898 -1.71459 0
M  V30 11962 C 1136.88 -1.98615 -2.84902 0
M  V30 11963 C 1135.84 -3.14328 -2.90485 0
M  V30 11964 C 1135.16 -3.17086 -4.30535 0
M  V30 11965 C 1136.46 -4.53263 -2.59519 0
M  V30 11966 H 1138.16 -2.72518 -1.23993 0
M  V30 11967 H 1135.7 -1.3113 -0.595049 0
M  V30 11968 H 1137.66 -2.16946 -3.61265 0
M  V30 11969 H 1136.38 -1.03915 -3.09628 0
M  V30 11970 H 1135.04 -2.95791 -2.16572 0
M  V30 11971 H 1134.69 -2.20055 -4.52311 0
M  V30 11972 H 1134.39 -3.94821 -4.3519 0
M  V30 11973 H 1135.91 -3.3758 -5.08795 0
M  V30 11974 H 1137.33 -4.71867 -3.25598 0
M  V30 11975 H 1135.72 -5.33115 -2.75514 0
M  V30 11976 H 1136.79 -4.59516 -1.54831 0
M  V30 11977 N 1138.14 0.641106 -1.43971 0
M  V30 11978 C 1139.39 1.39807 -1.4594 0
M  V30 11979 C 1139.71 1.94795 -0.0893874 0
M  V30 11980 O 1138.98 1.75175 0.876962 0
M  V30 11981 H 1137.56 0.518908 -0.537349 0
M  V30 11982 H 1140.22 0.755278 -1.79671 0
M  V30 11983 H 1139.31 2.23439 -2.17903 0
M  V30 11984 N 1139.62 1.30703 0.880598 0
M  V30 11985 C 1140.58 1.17429 1.96832 0
M  V30 11986 C 1141.58 0.104305 1.60461 0
M  V30 11987 O 1142.77 0.352758 1.70591 0
M  V30 11988 C 1139.9 0.800099 3.31378 0
M  V30 11989 H 1141.09 2.14069 2.10034 0
M  V30 11990 H 1138.65 1.14162 1.06755 0
M  V30 11991 H 1139.38 -0.165606 3.23877 0
M  V30 11992 H 1139.17 1.57341 3.59146 0
M  V30 11993 H 1140.66 0.730826 4.11155 0
M  V30 11994 N 1141.09 -1.09351 1.1349 0
M  V30 11995 C 1142.34 -1.81812 0.898452 0
M  V30 11996 C 1142.67 -1.85525 -0.573959 0
M  V30 11997 O 1141.95 -1.32403 -1.42477 0
M  V30 11998 C 1142.23 -3.27921 1.48794 0
M  V30 11999 C 1142.08 -3.32476 3.02952 0
M  V30 12000 C 1143.4 -4.24625 1.15678 0
M  V30 12001 H 1140.52 -0.660074 0.327829 0
M  V30 12002 H 1143.16 -1.28091 1.40331 0
M  V30 12003 H 1141.31 -3.738 1.05858 0
M  V30 12004 H 1142.99 -2.94994 3.54649 0
M  V30 12005 H 1141.23 -2.72037 3.37903 0
M  V30 12006 H 1141.9 -4.35409 3.39298 0
M  V30 12007 H 1144.38 -3.87036 1.52781 0
M  V30 12008 H 1143.25 -5.25194 1.59571 0
M  V30 12009 H 1143.51 -4.42044 0.0705933 0
M  V30 12010 N 1142.57 -0.928524 -1.27343 0
M  V30 12011 C 1143.82 -0.569392 -1.9433 0
M  V30 12012 C 1144.15 0.889481 -1.7297 0
M  V30 12013 O 1143.4 1.6499 -1.05247 0
M  V30 12014 C 1143.7 -0.84269 -3.47323 0
M  V30 12015 C 1143.37 -2.28344 -3.88806 0
M  V30 12016 C 1142.03 -2.67731 -3.99842 0
M  V30 12017 C 1144.38 -3.22031 -4.09811 0
M  V30 12018 C 1141.71 -3.99928 -4.29272 0
M  V30 12019 C 1144.06 -4.5381 -4.40725 0
M  V30 12020 C 1142.72 -4.93031 -4.49975 0
M  V30 12021 H 1141.99 -0.208355 -0.711104 0
M  V30 12022 H 1144.64 -1.17264 -1.51398 0
M  V30 12023 H 1142.95 -0.156775 -3.91486 0
M  V30 12024 H 1144.64 -0.543779 -3.97296 0
M  V30 12025 H 1141.23 -1.96787 -3.80753 0
M  V30 12026 H 1145.42 -2.92803 -4.00724 0
M  V30 12027 H 1140.67 -4.29996 -4.34642 0
M  V30 12028 H 1144.85 -5.26407 -4.55926 0
M  V30 12029 H 1142.47 -5.95497 -4.72533 0
M  V30 12030 N 1144.05 1.41491 -0.694123 0
M  V30 12031 C 1145 2.32594 -0.0164704 0
M  V30 12032 C 1145.99 1.50884 0.770086 0
M  V30 12033 O 1147.2 1.66829 0.675871 0
M  V30 12034 H 1143.57 0.751879 0.0134743 0
M  V30 12035 H 1145.54 2.87423 -0.80191 0
M  V30 12036 C 1144.29 3.35661 0.90703 0
M  V30 12037 H 1143.62 3.98587 0.311205 0
M  V30 12038 H 1145.06 4.0195 1.34952 0
M  V30 12039 C 1143.51 2.69436 2.02253 0
M  V30 12040 O 1144.04 2.54107 3.11115 0
M  V30 12041 N 1142.25 2.28154 1.79984 0
M  V30 12042 H 1141.8 2.40821 0.914492 0
M  V30 12043 H 1141.76 1.84178 2.54805 0
M  V30 12044 N 1145.53 0.438773 1.51369 0
M  V30 12045 C 1146.46 -0.407771 2.25543 0
M  V30 12046 C 1147.47 -0.985065 1.29616 0
M  V30 12047 O 1148.66 -0.878961 1.55359 0
M  V30 12048 C 1145.76 -1.58257 2.9968 0
M  V30 12049 C 1144.93 -1.12389 4.22714 0
M  V30 12050 C 1143.99 -2.16897 4.79418 0
M  V30 12051 O 1143.02 -1.76273 5.41218 0
M  V30 12052 N 1144.22 -3.49396 4.63576 0
M  V30 12053 H 1146.99 0.227963 2.98832 0
M  V30 12054 H 1144.55 0.267741 1.59671 0
M  V30 12055 H 1146.54 -2.27796 3.34501 0
M  V30 12056 H 1145.11 -2.12362 2.29393 0
M  V30 12057 H 1144.33 -0.255509 3.93371 0
M  V30 12058 H 1145.62 -0.794848 5.02553 0
M  V30 12059 H 1145.02 -3.85132 4.14355 0
M  V30 12060 H 1143.57 -4.14826 5.02755 0
M  V30 12061 N 1147.01 -1.56678 0.170181 0
M  V30 12062 C 1148.25 -1.9714 -0.475767 0
M  V30 12063 C 1148.58 -1.05611 -1.62972 0
M  V30 12064 O 1147.86 -0.103017 -1.94227 0
M  V30 12065 C 1148.14 -3.47072 -0.959828 0
M  V30 12066 C 1148 -4.4938 0.194225 0
M  V30 12067 C 1149.31 -4.00071 -1.83387 0
M  V30 12068 H 1146.43 -0.716776 -0.171466 0
M  V30 12069 H 1149.08 -1.88266 0.256086 0
M  V30 12070 H 1147.23 -3.54766 -1.58346 0
M  V30 12071 H 1148.9 -4.53748 0.83128 0
M  V30 12072 H 1147.14 -4.25393 0.849893 0
M  V30 12073 H 1147.81 -5.51685 -0.186575 0
M  V30 12074 H 1150.29 -3.95002 -1.30815 0
M  V30 12075 H 1149.16 -5.05398 -2.14159 0
M  V30 12076 H 1149.42 -3.43819 -2.77923 0
M  V30 12077 N 1148.48 0.103547 -1.57259 0
M  V30 12078 C 1149.45 1.11039 -2.00507 0
M  V30 12079 C 1150.45 1.33432 -0.897361 0
M  V30 12080 O 1151.64 1.29688 -1.16304 0
M  V30 12081 C 1148.77 2.46144 -2.35851 0
M  V30 12082 H 1149.96 0.738332 -2.90669 0
M  V30 12083 H 1147.51 0.348334 -1.52369 0
M  V30 12084 H 1148.25 2.88242 -1.48617 0
M  V30 12085 H 1148.03 2.31241 -3.16654 0
M  V30 12086 H 1149.52 3.18577 -2.69997 0
M  V30 12087 N 1149.96 1.53094 0.37415 0
M  V30 12088 C 1151.21 1.68861 1.11769 0
M  V30 12089 C 1151.54 0.436032 1.89549 0
M  V30 12090 O 1150.79 -0.581879 1.86849 0
M  V30 12091 C 1151.09 2.88432 2.11049 0
M  V30 12092 C 1150.76 4.25284 1.49814 0
M  V30 12093 C 1149.42 4.62501 1.32841 0
M  V30 12094 C 1151.77 5.10425 1.05433 0
M  V30 12095 C 1149.1 5.82502 0.700567 0
M  V30 12096 C 1151.45 6.31064 0.440525 0
M  V30 12097 C 1150.11 6.67 0.258216 0
M  V30 12098 H 1149.38 0.617906 0.40899 0
M  V30 12099 H 1152.03 1.87265 0.4005 0
M  V30 12100 H 1150.34 2.64505 2.8904 0
M  V30 12101 H 1152.03 2.97825 2.68517 0
M  V30 12102 H 1148.62 3.95976 1.64016 0
M  V30 12103 H 1152.81 4.82229 1.17342 0
M  V30 12104 H 1148.06 6.08942 0.547652 0
M  V30 12105 H 1152.24 6.96344 0.0883962 0
M  V30 12106 H 1149.86 7.59851 -0.230354 0
M  V30 12107 N 1151.44 -0.633461 1.44309 0
M  V30 12108 C 1152.85 -1.21504 1.41752 0
M  V30 12109 C 1153.2 -1.95758 0.131667 0
M  V30 12110 O 1152.33 -2.02311 -0.768072 0
M  V30 12111 C 1152.92 -2.21005 2.56792 0
M  V30 12112 C 1151.48 -2.74596 2.57438 0
M  V30 12113 C 1150.63 -1.49555 2.33513 0
M  V30 12114 H 1153.58 -0.424277 1.52923 0
M  V30 12115 H 1153.6 -3.03563 2.29412 0
M  V30 12116 H 1153.11 -1.66934 3.50364 0
M  V30 12117 H 1151.21 -3.32676 1.67801 0
M  V30 12118 H 1151.33 -3.20794 3.55849 0
M  V30 12119 H 1149.69 -1.77605 1.82561 0
M  V30 12120 H 1150.47 -0.973899 3.29196 0
M  V30 12121 N 1152.92 -1.31168 -0.873655 0
M  V30 12122 C 1153.85 -1.21094 -1.99646 0
M  V30 12123 C 1154.83 -0.0989684 -1.69812 0
M  V30 12124 O 1156.01 -0.282939 -1.92128 0
M  V30 12125 C 1153.14 -0.913684 -3.35066 0
M  V30 12126 C 1152.1 -1.98482 -3.79195 0
M  V30 12127 C 1151.42 -1.54033 -5.12033 0
M  V30 12128 C 1152.72 -3.39745 -3.96699 0
M  V30 12129 H 1154.42 -2.1503 -2.08333 0
M  V30 12130 H 1151.96 -1.03521 -1.00097 0
M  V30 12131 H 1153.92 -0.829821 -4.13149 0
M  V30 12132 H 1152.64 0.0613471 -3.26542 0
M  V30 12133 H 1151.3 -2.05851 -3.03349 0
M  V30 12134 H 1150.95 -0.553261 -4.99948 0
M  V30 12135 H 1150.65 -2.25688 -5.4253 0
M  V30 12136 H 1152.17 -1.47047 -5.92629 0
M  V30 12137 H 1153.59 -3.35071 -4.65188 0
M  V30 12138 H 1151.98 -4.09585 -4.38589 0
M  V30 12139 H 1153.05 -3.80802 -3.00196 0
M  V30 12140 N 1154.4 1.08748 -1.14068 0
M  V30 12141 C 1155.33 2.1544 -0.782199 0
M  V30 12142 C 1156.34 1.61575 0.199301 0
M  V30 12143 O 1157.53 1.78487 -0.0219044 0
M  V30 12144 C 1154.63 3.38611 -0.13983 0
M  V30 12145 C 1153.8 4.2187 -1.15518 0
M  V30 12146 C 1152.86 5.23451 -0.537216 0
M  V30 12147 O 1151.89 5.56424 -1.1992 0
M  V30 12148 N 1153.09 5.76413 0.6876 0
M  V30 12149 H 1155.86 2.46798 -1.70032 0
M  V30 12150 H 1153.42 1.24527 -1.03463 0
M  V30 12151 H 1155.41 4.03688 0.285999 0
M  V30 12152 H 1153.98 3.05084 0.681357 0
M  V30 12153 H 1153.2 3.52825 -1.75806 0
M  V30 12154 H 1154.49 4.74318 -1.84119 0
M  V30 12155 H 1153.88 5.51851 1.24406 0
M  V30 12156 H 1152.44 6.43189 1.05599 0
M  V30 12157 N 1155.87 0.935264 1.26849 0
M  V30 12158 C 1157.1 0.595384 1.97835 0
M  V30 12159 C 1157.51 -0.832605 1.69895 0
M  V30 12160 O 1156.86 -1.56597 0.960371 0
M  V30 12161 C 1156.92 0.750567 3.51578 0
M  V30 12162 C 1156.58 2.15208 4.03156 0
M  V30 12163 C 1157.58 3.12699 4.15349 0
M  V30 12164 C 1155.26 2.47106 4.37314 0
M  V30 12165 C 1157.26 4.40193 4.60987 0
M  V30 12166 C 1154.94 3.74834 4.82641 0
M  V30 12167 C 1155.94 4.7119 4.94438 0
M  V30 12168 O 1155.63 5.96644 5.38768 0
M  V30 12169 H 1155.36 0.223734 0.637902 0
M  V30 12170 H 1157.92 1.25663 1.62475 0
M  V30 12171 H 1156.15 0.0322039 3.86687 0
M  V30 12172 H 1157.84 0.414625 4.03777 0
M  V30 12173 H 1158.6 2.89378 3.89211 0
M  V30 12174 H 1154.48 1.72846 4.2737 0
M  V30 12175 H 1158.02 5.15406 4.70109 0
M  V30 12176 H 1153.92 3.9797 5.08222 0
M  V30 12177 H 1154.69 5.99741 5.57003 0
M  V30 12178 N 1157.35 -1.41121 0.701616 0
M  V30 12179 C 1158.58 -2.05452 0.244365 0
M  V30 12180 C 1159 -1.5282 -1.10866 0
M  V30 12181 O 1158.35 -0.67893 -1.69401 0
M  V30 12182 C 1158.4 -3.60946 0.200112 0
M  V30 12183 O 1158.12 -4.11632 1.4997 0
M  V30 12184 C 1159.63 -4.42431 -0.277394 0
M  V30 12185 H 1156.85 -0.66151 0.112453 0
M  V30 12186 H 1159.39 -1.80784 0.9559 0
M  V30 12187 H 1157.54 -3.84632 -0.462287 0
M  V30 12188 H 1157.96 -5.05723 1.39084 0
M  V30 12189 H 1159.43 -5.514 -0.257225 0
M  V30 12190 H 1159.91 -4.1898 -1.31728 0
M  V30 12191 H 1160.52 -4.23822 0.354223 0
M  V30 12192 N 1158.83 -0.446794 -1.51134 0
M  V30 12193 C 1160.24 0.0141132 -1.86695 0
M  V30 12194 C 1160.59 1.41095 -1.36333 0
M  V30 12195 O 1159.72 2.04139 -0.718068 0
M  V30 12196 C 1160.31 0.0323866 -3.38785 0
M  V30 12197 C 1158.87 0.437737 -3.73846 0
M  V30 12198 C 1158.02 -0.363436 -2.74908 0
M  V30 12199 H 1160.97 -0.66221 -1.44224 0
M  V30 12200 H 1160.99 0.839865 -3.71115 0
M  V30 12201 H 1160.5 -0.984374 -3.75409 0
M  V30 12202 H 1158.6 1.45975 -3.42815 0
M  V30 12203 H 1158.72 0.155964 -4.78846 0
M  V30 12204 H 1157.08 0.179566 -2.54066 0
M  V30 12205 H 1157.86 -1.37925 -3.14375 0
M  V30 12206 N 1160.31 1.56586 -0.178487 0
M  V30 12207 C 1161.72 1.58609 0.17759 0
M  V30 12208 C 1161.92 1.19411 1.62306 0
M  V30 12209 O 1160.98 0.90906 2.35568 0
M  V30 12210 C 1162.29 3.005 -0.109722 0
M  V30 12211 C 1163.84 3.12962 -0.0485036 0
M  V30 12212 C 1164.32 4.56957 -0.308901 0
M  V30 12213 N 1165.81 4.62487 -0.25693 0
M  V30 12214 C 1166.54 5.71767 -0.432488 0
M  V30 12215 N 1166.04 6.89577 -0.667494 0
M  V30 12216 N 1167.83 5.60895 -0.367895 0
M  V30 12217 H 1159.98 1.80351 -1.12193 0
M  V30 12218 H 1162.25 0.83623 -0.446569 0
M  V30 12219 H 1161.95 3.3368 -1.11133 0
M  V30 12220 H 1161.83 3.72472 0.595373 0
M  V30 12221 H 1164.21 2.79604 0.943687 0
M  V30 12222 H 1164.29 2.43411 -0.78642 0
M  V30 12223 H 1163.94 4.91025 -1.29833 0
M  V30 12224 H 1163.87 5.24676 0.449711 0
M  V30 12225 H 1166.36 3.77813 -0.0812308 0
M  V30 12226 H 1166.67 7.68744 -0.79071 0
M  V30 12227 H 1165.02 6.91423 -0.704193 0
M  V30 12228 H 1168.21 4.67735 -0.184837 0
M  V30 12229 H 1168.38 6.46005 -0.508138 0
M  V30 12230 N 1161.79 -0.095206 1.57312 0
M  V30 12231 C 1162.73 -1.11551 2.02052 0
M  V30 12232 C 1163.7 -1.39808 0.896818 0
M  V30 12233 O 1164.89 -1.51273 1.1628 0
M  V30 12234 C 1162.03 -2.43056 2.44985 0
M  V30 12235 C 1161.14 -2.21531 3.70875 0
M  V30 12236 C 1160.28 -3.46434 4.02687 0
M  V30 12237 C 1159.32 -3.2017 5.21687 0
M  V30 12238 N 1158.45 -4.37339 5.49253 0
M  V30 12239 H 1163.29 -0.727 2.88996 0
M  V30 12240 H 1160.83 -0.347441 1.42938 0
M  V30 12241 H 1162.79 -3.19803 2.67921 0
M  V30 12242 H 1161.42 -2.79754 1.61051 0
M  V30 12243 H 1160.47 -1.35587 3.55416 0
M  V30 12244 H 1161.78 -1.98116 4.57768 0
M  V30 12245 H 1160.94 -4.31589 4.26399 0
M  V30 12246 H 1159.67 -3.72904 3.14315 0
M  V30 12247 H 1158.68 -2.33409 4.97796 0
M  V30 12248 H 1159.9 -2.95047 6.11657 0
M  V30 12249 H 1157.85 -4.63885 4.6384 0
M  V30 12250 H 1157.77 -4.17114 6.30517 0
M  V30 12251 H 1159.04 -5.23559 5.775 0
M  V30 12252 N 1163.26 -1.53291 -0.366026 0
M  V30 12253 C 1164.51 -1.69451 -1.10872 0
M  V30 12254 C 1164.84 -0.446078 -1.89316 0
M  V30 12255 O 1164.09 0.571962 -1.87155 0
M  V30 12256 C 1164.39 -2.89547 -2.09517 0
M  V30 12257 C 1164.06 -4.26073 -1.47556 0
M  V30 12258 C 1162.72 -4.63199 -1.30386 0
M  V30 12259 C 1165.07 -5.10977 -1.02724 0
M  V30 12260 C 1162.4 -5.82866 -0.669666 0
M  V30 12261 C 1164.75 -6.31289 -0.407052 0
M  V30 12262 C 1163.42 -6.67128 -0.222839 0
M  V30 12263 H 1162.69 -0.620066 -0.405708 0
M  V30 12264 H 1165.33 -1.87475 -0.390563 0
M  V30 12265 H 1163.64 -2.66034 -2.87634 0
M  V30 12266 H 1165.34 -2.99245 -2.66933 0
M  V30 12267 H 1161.93 -3.9684 -1.61914 0
M  V30 12268 H 1166.11 -4.82844 -1.14783 0
M  V30 12269 H 1161.37 -6.09224 -0.515351 0
M  V30 12270 H 1165.54 -6.96381 -0.0514661 0
M  V30 12271 H 1163.17 -7.59718 0.270647 0
M  V30 12272 N 1164.74 0.6258 -1.44643 0
M  V30 12273 C 1165.99 1.3873 -1.47925 0
M  V30 12274 C 1166.32 1.93868 -0.113469 0
M  V30 12275 O 1165.6 1.73976 0.869639 0
M  V30 12276 C 1165.88 2.54867 -2.54391 0
M  V30 12277 C 1165.73 2.05044 -4.00346 0
M  V30 12278 C 1167.05 3.57043 -2.57309 0
M  V30 12279 H 1164.17 0.503087 -0.538584 0
M  V30 12280 H 1166.81 0.707102 -1.76352 0
M  V30 12281 H 1164.96 3.12894 -2.30281 0
M  V30 12282 H 1166.63 1.51807 -4.35606 0
M  V30 12283 H 1164.88 1.36185 -4.11869 0
M  V30 12284 H 1165.55 2.88681 -4.70497 0
M  V30 12285 H 1168.02 3.08826 -2.78865 0
M  V30 12286 H 1166.9 4.35818 -3.33698 0
M  V30 12287 H 1167.16 4.11464 -1.61708 0
M  V30 12288 N 1166.22 1.31629 0.866686 0
M  V30 12289 C 1167.47 1.20861 1.61479 0
M  V30 12290 C 1167.78 -0.231208 1.94229 0
M  V30 12291 O 1168.99 -0.460618 2.67564 0
M  V30 12292 C 1167.44 2.11602 2.91123 0
M  V30 12293 C 1167.05 3.60598 2.65844 0
M  V30 12294 C 1168.8 2.09642 3.69121 0
M  V30 12295 C 1166.7 4.43337 3.91415 0
M  V30 12296 H 1165.63 0.448783 0.605896 0
M  V30 12297 H 1168.28 1.56507 0.958001 0
M  V30 12298 H 1166.67 1.68858 3.58194 0
M  V30 12299 H 1167.84 4.11609 2.07159 0
M  V30 12300 H 1166.16 3.64568 2.01194 0
M  V30 12301 H 1168.75 2.68701 4.62281 0
M  V30 12302 H 1169.1 1.08438 4.01929 0
M  V30 12303 H 1169.63 2.50603 3.08938 0
M  V30 12304 H 1166.37 5.45309 3.63756 0
M  V30 12305 H 1165.89 3.97083 4.49539 0
M  V30 12306 H 1167.57 4.5572 4.5927 0
M  V30 12307 N 1167.7 -1.08142 1.14644 0
M  V30 12308 C 1168.65 -2.13338 0.804412 0
M  V30 12309 C 1169.63 -1.59554 -0.207664 0
M  V30 12310 O 1170.83 -1.76997 -0.00960233 0
M  V30 12311 C 1167.95 -3.42102 0.286579 0
M  V30 12312 C 1167.04 -4.0276 1.32834 0
M  V30 12313 N 1167.43 -4.37789 2.53327 0
M  V30 12314 C 1165.73 -4.30129 1.17919 0
M  V30 12315 C 1166.43 -4.85748 3.20037 0
M  V30 12316 N 1165.41 -4.84021 2.47436 0
M  V30 12317 H 1169.21 -2.38243 1.72097 0
M  V30 12318 H 1166.72 -1.25501 1.0307 0
M  V30 12319 H 1168.72 -4.16894 0.0232417 0
M  V30 12320 H 1167.38 -3.18645 -0.624142 0
M  V30 12321 H 1168.39 -4.28731 2.90534 0
M  V30 12322 H 1165.07 -4.16212 0.327713 0
M  V30 12323 H 1166.46 -5.22208 4.22786 0
M  V30 12324 N 1169.18 -0.941978 -1.26351 0
M  V30 12325 C 1170.59 -0.632522 -1.75659 0
M  V30 12326 C 1170.94 0.852287 -1.76722 0
M  V30 12327 O 1170.06 1.66701 -1.37985 0
M  V30 12328 C 1170.66 -1.14145 -3.18993 0
M  V30 12329 C 1169.22 -0.882391 -3.65911 0
M  V30 12330 C 1168.37 -1.29189 -2.45368 0
M  V30 12331 H 1171.32 -1.12019 -1.12416 0
M  V30 12332 H 1171.34 -0.495639 -3.77258 0
M  V30 12333 H 1170.85 -2.22213 -3.18187 0
M  V30 12334 H 1168.95 0.183873 -3.72146 0
M  V30 12335 H 1169.06 -1.50996 -4.54683 0
M  V30 12336 H 1167.43 -0.710316 -2.44595 0
M  V30 12337 H 1168.21 -2.38152 -2.47262 0
M  V30 12338 N 1170.66 1.40747 -0.709091 0
M  V30 12339 C 1171.57 2.3454 -0.0532205 0
M  V30 12340 C 1172.58 1.56956 0.751057 0
M  V30 12341 O 1173.76 1.89375 0.685509 0
M  V30 12342 C 1170.82 3.35809 0.862157 0
M  V30 12343 C 1169.88 4.29273 0.0485632 0
M  V30 12344 C 1169.12 5.25705 0.920345 0
M  V30 12345 O 1169.34 5.27933 2.15969 0
M  V30 12346 O 1168.27 6.00806 0.3628 0
M  V30 12347 H 1172.1 2.92232 -0.826698 0
M  V30 12348 H 1169.68 1.4183 -0.469519 0
M  V30 12349 H 1171.57 3.97931 1.38668 0
M  V30 12350 H 1170.24 2.8054 1.61489 0
M  V30 12351 H 1169.15 3.70456 -0.520873 0
M  V30 12352 H 1170.48 4.87676 -0.665807 0
M  V30 12353 N 1172.13 0.454803 1.50895 0
M  V30 12354 C 1173.36 -0.106259 2.07128 0
M  V30 12355 C 1173.78 -1.3418 1.31823 0
M  V30 12356 O 1173.14 -1.77667 0.361147 0
M  V30 12357 C 1173.19 -0.389609 3.58489 0
M  V30 12358 O 1172.29 -1.47305 3.85195 0
M  V30 12359 H 1171.63 0.00580588 0.663975 0
M  V30 12360 H 1174.16 0.641163 1.94294 0
M  V30 12361 H 1174.17 -0.634934 4.03029 0
M  V30 12362 H 1172.85 0.513338 4.1272 0
M  V30 12363 H 1171.43 -1.21631 3.52506 0
M  V30 12364 N 1173.61 -1.56489 0.186789 0
M  V30 12365 C 1174.56 -2.20034 -0.754164 0
M  V30 12366 C 1175.55 -1.16899 -1.22601 0
M  V30 12367 O 1176.76 -1.35064 -1.18987 0
M  V30 12368 H 1173.13 -0.705058 -0.261529 0
M  V30 12369 H 1175.11 -2.97766 -0.194418 0
M  V30 12370 C 1173.85 -2.86733 -1.9667 0
M  V30 12371 H 1173.18 -3.65831 -1.61268 0
M  V30 12372 H 1174.62 -3.34645 -2.60363 0
M  V30 12373 C 1173.08 -1.87325 -2.8002 0
M  V30 12374 O 1173.61 -1.36835 -3.77676 0
M  V30 12375 N 1171.81 -1.55738 -2.45345 0
M  V30 12376 H 1171.36 -1.9699 -1.6599 0
M  V30 12377 H 1171.32 -0.894805 -3.01398 0
M  V30 12378 N 1175.09 0.086862 -1.5736 0
M  V30 12379 C 1176.04 1.12359 -2.03662 0
M  V30 12380 C 1177.03 1.40982 -0.939169 0
M  V30 12381 O 1178.24 1.40566 -1.12433 0
M  V30 12382 H 1174.61 0.379605 -0.649156 0
M  V30 12383 H 1176.58 0.706822 -2.89908 0
M  V30 12384 C 1175.33 2.43327 -2.48369 0
M  V30 12385 H 1174.66 2.22148 -3.324 0
M  V30 12386 H 1176.1 3.14351 -2.84534 0
M  V30 12387 C 1174.55 3.08214 -1.36036 0
M  V30 12388 O 1175.08 3.95659 -0.694063 0
M  V30 12389 N 1173.29 2.68596 -1.10927 0
M  V30 12390 H 1172.84 1.97578 -1.6529 0
M  V30 12391 H 1172.8 3.12336 -0.359679 0
M  V30 12392 N 1176.57 1.53483 0.357892 0
M  V30 12393 C 1177.5 1.83444 1.44466 0
M  V30 12394 C 1178.48 0.688486 1.55544 0
M  V30 12395 O 1179.66 0.93906 1.69986 0
M  V30 12396 C 1176.79 2.03122 2.81707 0
M  V30 12397 C 1175.75 3.1891 2.85448 0
M  V30 12398 C 1175.07 3.23895 4.25436 0
M  V30 12399 C 1176.37 4.57334 2.52275 0
M  V30 12400 H 1178.07 2.74456 1.19642 0
M  V30 12401 H 1175.61 1.3206 0.574112 0
M  V30 12402 H 1177.57 2.22666 3.57768 0
M  V30 12403 H 1176.29 1.08827 3.07935 0
M  V30 12404 H 1174.95 2.99199 2.11838 0
M  V30 12405 H 1174.6 2.27223 4.48753 0
M  V30 12406 H 1174.3 4.01694 4.28854 0
M  V30 12407 H 1175.82 3.45632 5.0336 0
M  V30 12408 H 1177.24 4.76988 3.1805 0
M  V30 12409 H 1175.63 5.37431 2.66998 0
M  V30 12410 H 1176.7 4.61921 1.47501 0
M  V30 12411 N 1178.05 -0.61812 1.44973 0
M  V30 12412 C 1179.29 -1.37343 1.47715 0
M  V30 12413 C 1179.61 -1.95239 0.118784 0
M  V30 12414 O 1180.81 -2.7149 0.0237981 0
M  V30 12415 C 1179.27 -2.48732 2.60116 0
M  V30 12416 C 1178.88 -1.97294 4.02218 0
M  V30 12417 C 1180.62 -3.25831 2.72093 0
M  V30 12418 C 1178.53 -3.06102 5.06019 0
M  V30 12419 H 1177.46 -0.516175 0.549617 0
M  V30 12420 H 1180.11 -0.663617 1.7108 0
M  V30 12421 H 1178.49 -3.2235 2.30014 0
M  V30 12422 H 1179.67 -1.30455 4.41948 0
M  V30 12423 H 1177.98 -1.32972 3.94598 0
M  V30 12424 H 1180.58 -4.06968 3.46815 0
M  V30 12425 H 1180.92 -3.76156 1.7836 0
M  V30 12426 H 1181.45 -2.59309 3.01668 0
M  V30 12427 H 1178.19 -2.60706 6.01426 0
M  V30 12428 H 1177.71 -3.71541 4.70869 0
M  V30 12429 H 1179.39 -3.70662 5.30301 0
M  V30 12430 N 1179.52 -1.32087 -0.859693 0
M  V30 12431 C 1180.77 -1.21716 -1.60836 0
M  V30 12432 C 1181.09 0.220904 -1.94349 0
M  V30 12433 O 1182.29 0.446422 -2.67805 0
M  V30 12434 C 1180.75 -2.13143 -2.89997 0
M  V30 12435 C 1180.36 -3.62003 -2.63928 0
M  V30 12436 C 1182.1 -2.11596 -3.68004 0
M  V30 12437 C 1180.01 -4.45407 -3.89059 0
M  V30 12438 H 1178.94 -0.45199 -0.603507 0
M  V30 12439 H 1181.59 -1.57013 -0.949687 0
M  V30 12440 H 1179.97 -1.70755 -3.57294 0
M  V30 12441 H 1181.14 -4.12701 -2.04974 0
M  V30 12442 H 1179.46 -3.6563 -1.99258 0
M  V30 12443 H 1182.06 -2.71149 -4.6085 0
M  V30 12444 H 1182.4 -1.10568 -4.01348 0
M  V30 12445 H 1182.93 -2.52238 -3.07605 0
M  V30 12446 H 1179.67 -5.4723 -3.60859 0
M  V30 12447 H 1179.19 -3.99462 -4.47427 0
M  V30 12448 H 1180.87 -4.58149 -4.56846 0
M  V30 12449 N 1181 1.07532 -1.15215 0
M  V30 12450 C 1182.25 1.79474 -0.920439 0
M  V30 12451 C 1182.56 1.87593 0.553926 0
M  V30 12452 O 1183.77 2.56037 0.903169 0
M  V30 12453 C 1182.23 3.22509 -1.59738 0
M  V30 12454 C 1181.83 3.22596 -3.10863 0
M  V30 12455 C 1183.58 3.99072 -1.44714 0
M  V30 12456 C 1181.48 4.60273 -3.71352 0
M  V30 12457 H 1180.41 0.672625 -0.340722 0
M  V30 12458 H 1183.07 1.2071 -1.38208 0
M  V30 12459 H 1181.45 3.81454 -1.06342 0
M  V30 12460 H 1182.62 2.73306 -3.70999 0
M  V30 12461 H 1180.94 2.5953 -3.25627 0
M  V30 12462 H 1183.53 5.00823 -1.87299 0
M  V30 12463 H 1183.88 4.14428 -0.394386 0
M  V30 12464 H 1184.41 3.46617 -1.95195 0
M  V30 12465 H 1181.15 4.50122 -4.76519 0
M  V30 12466 H 1180.67 5.09809 -3.15998 0
M  V30 12467 H 1182.35 5.29243 -3.7217 0
M  V30 12468 N 1182.48 0.948665 1.2585 0
M  V30 12469 C 1183.39 0.470525 2.29833 0
M  V30 12470 C 1184.41 -0.45919 1.67832 0
M  V30 12471 O 1185.58 -0.336893 1.98562 0
M  V30 12472 C 1182.65 -0.249635 3.458 0
M  V30 12473 C 1181.71 0.717559 4.23261 0
M  V30 12474 C 1180.94 0.0316724 5.33691 0
M  V30 12475 O 1181.16 -1.18384 5.5798 0
M  V30 12476 O 1180.1 0.71418 5.97648 0
M  V30 12477 H 1183.92 1.33447 2.72811 0
M  V30 12478 H 1181.51 0.714864 1.31187 0
M  V30 12479 H 1183.39 -0.654993 4.16279 0
M  V30 12480 H 1182.07 -1.08885 3.04837 0
M  V30 12481 H 1180.97 1.17301 3.55234 0
M  V30 12482 H 1182.31 1.52461 4.67992 0
M  V30 12483 N 1183.96 -1.40369 0.716545 0
M  V30 12484 C 1185.19 -2.05181 0.266143 0
M  V30 12485 C 1185.6 -1.53988 -1.09239 0
M  V30 12486 O 1184.96 -0.696859 -1.68672 0
M  V30 12487 C 1185.01 -3.60713 0.238384 0
M  V30 12488 O 1184.73 -4.10018 1.54328 0
M  V30 12489 C 1186.23 -4.42701 -0.230453 0
M  V30 12490 H 1183.45 -0.66028 0.119463 0
M  V30 12491 H 1186 -1.7976 0.97502 0
M  V30 12492 H 1184.15 -3.85101 -0.421466 0
M  V30 12493 H 1184.56 -5.0422 1.4444 0
M  V30 12494 H 1186.04 -5.51642 -0.198728 0
M  V30 12495 H 1186.52 -4.20354 -1.27276 0
M  V30 12496 H 1187.12 -4.23423 0.399155 0
M  V30 12497 N 1185.44 -0.462799 -1.50652 0
M  V30 12498 C 1186.71 0.156221 -1.94975 0
M  V30 12499 C 1187.09 1.5775 -1.40279 0
M  V30 12500 O 1186.44 2.20473 -0.600323 0
M  V30 12501 C 1186.65 0.108008 -3.48833 0
M  V30 12502 C 1188 0.301013 -4.23532 0
M  V30 12503 O 1189.02 0.184973 -3.55719 0
M  V30 12504 O 1187.88 0.534457 -5.4388 0
M  V30 12505 H 1184.98 0.116182 -0.818798 0
M  V30 12506 H 1187.52 -0.522607 -1.61453 0
M  V30 12507 H 1186.29 -0.884634 -3.81169 0
M  V30 12508 H 1185.92 0.828653 -3.88869 0
M  V30 12509 N 1186.91 1.56388 -0.195085 0
M  V30 12510 C 1187.86 2.15705 0.738595 0
M  V30 12511 C 1188.85 1.09782 1.1763 0
M  V30 12512 O 1190.04 1.35844 1.1347 0
M  V30 12513 C 1187.17 2.81994 1.95791 0
M  V30 12514 C 1186.26 3.95108 1.54111 0
M  V30 12515 N 1186.65 4.98856 0.835261 0
M  V30 12516 C 1184.94 4.06709 1.8304 0
M  V30 12517 C 1185.65 5.78317 0.626417 0
M  V30 12518 N 1184.62 5.30746 1.17513 0
M  V30 12519 H 1188.42 2.93281 0.190597 0
M  V30 12520 H 1185.94 1.62399 0.00470391 0
M  V30 12521 H 1187.93 3.22883 2.63728 0
M  V30 12522 H 1186.59 2.05906 2.51063 0
M  V30 12523 H 1187.61 5.1557 0.490732 0
M  V30 12524 H 1184.28 3.41749 2.39821 0
M  V30 12525 H 1185.67 6.71867 0.0664935 0
M  V30 12526 N 1188.39 -0.0785156 1.57404 0
M  V30 12527 C 1189.34 -1.11278 2.04255 0
M  V30 12528 C 1190.33 -1.40482 0.946633 0
M  V30 12529 O 1191.54 -1.39968 1.13177 0
M  V30 12530 H 1187.92 -0.376157 0.65116 0
M  V30 12531 H 1189.89 -0.691437 2.90279 0
M  V30 12532 C 1188.64 -2.42006 2.49656 0
M  V30 12533 H 1187.96 -2.20383 3.33574 0
M  V30 12534 H 1189.4 -3.12837 2.86197 0
M  V30 12535 C 1187.86 -3.07488 1.37669 0
M  V30 12536 O 1188.39 -3.95285 0.715036 0
M  V30 12537 N 1186.59 -2.68004 1.1235 0
M  V30 12538 H 1186.14 -1.96698 1.66336 0
M  V30 12539 H 1186.1 -3.12141 0.376238 0
M  V30 12540 N 1189.87 -1.5367 -0.349747 0
M  V30 12541 C 1190.83 -1.80533 -1.41211 0
M  V30 12542 C 1191.83 -0.676188 -1.45892 0
M  V30 12543 O 1193.02 -0.944453 -1.46375 0
M  V30 12544 C 1190.16 -1.94175 -2.80195 0
M  V30 12545 H 1191.35 -2.75428 -1.18658 0
M  V30 12546 H 1188.9 -1.44988 -0.583787 0
M  V30 12547 H 1189.64 -1.01402 -3.08039 0
M  V30 12548 H 1189.42 -2.76316 -2.78194 0
M  V30 12549 H 1190.91 -2.16496 -3.57098 0
M  V30 12550 N 1191.35 0.610423 -1.45298 0
M  V30 12551 C 1192.58 1.39419 -1.52466 0
M  V30 12552 C 1192.99 1.88563 -0.1551 0
M  V30 12553 O 1192.33 1.62692 0.853061 0
M  V30 12554 C 1192.39 2.63515 -2.44541 0
M  V30 12555 C 1192.06 2.36028 -3.91331 0
M  V30 12556 C 1193.05 1.96567 -4.81308 0
M  V30 12557 C 1190.74 2.49028 -4.36223 0
M  V30 12558 C 1192.73 1.70461 -6.14184 0
M  V30 12559 C 1190.42 2.22536 -5.6914 0
M  V30 12560 C 1191.42 1.83314 -6.5794 0
M  V30 12561 O 1191.1 1.57131 -7.88394 0
M  V30 12562 H 1190.84 0.433278 -0.518889 0
M  V30 12563 H 1193.39 0.751803 -1.91147 0
M  V30 12564 H 1191.62 3.30463 -2.00826 0
M  V30 12565 H 1193.31 3.25554 -2.42424 0
M  V30 12566 H 1194.08 1.86062 -4.4789 0
M  V30 12567 H 1189.95 2.78524 -3.67349 0
M  V30 12568 H 1193.5 1.39773 -6.83454 0
M  V30 12569 H 1189.4 2.32657 -6.02114 0
M  V30 12570 H 1190.16 1.71207 -8.00394 0
M  V30 12571 N 1192.83 1.32541 0.852676 0
M  V30 12572 C 1194.05 1.2622 1.6394 0
M  V30 12573 C 1194.47 -0.169455 1.88038 0
M  V30 12574 O 1193.83 -1.10719 1.45078 0
M  V30 12575 C 1193.88 2.02062 2.99755 0
M  V30 12576 O 1193.6 3.39641 2.76723 0
M  V30 12577 C 1195.1 2.02787 3.94198 0
M  V30 12578 H 1192.32 0.435405 0.510552 0
M  V30 12579 H 1194.86 1.74696 1.06309 0
M  V30 12580 H 1193.02 1.57303 3.54026 0
M  V30 12581 H 1193.43 3.78484 3.63111 0
M  V30 12582 H 1194.91 2.60333 4.86755 0
M  V30 12583 H 1195.38 1.01464 4.27319 0
M  V30 12584 H 1195.99 2.47504 3.45864 0
M  V30 12585 N 1194.3 -1.0692 1.15784 0
M  V30 12586 C 1195.21 -2.17762 0.872753 0
M  V30 12587 C 1196.23 -1.73329 -0.152608 0
M  V30 12588 O 1197.41 -2.01387 0.022519 0
M  V30 12589 C 1194.47 -3.4471 0.370887 0
M  V30 12590 C 1193.53 -4.03686 1.46069 0
M  V30 12591 C 1192.77 -5.24575 0.982675 0
M  V30 12592 O 1192.99 -5.70146 -0.17006 0
M  V30 12593 O 1191.92 -5.7534 1.76828 0
M  V30 12594 H 1195.75 -2.44648 1.79948 0
M  V30 12595 H 1193.33 -1.1634 0.937303 0
M  V30 12596 H 1195.22 -4.21287 0.0976779 0
M  V30 12597 H 1193.89 -3.19366 -0.527912 0
M  V30 12598 H 1192.8 -3.28629 1.78756 0
M  V30 12599 H 1194.13 -4.33312 2.33456 0
M  V30 12600 N 1195.78 -0.955326 -1.25345 0
M  V30 12601 C 1196.75 -0.480564 -2.24105 0
M  V30 12602 C 1197.75 0.416123 -1.55322 0
M  V30 12603 O 1198.94 0.213315 -1.72889 0
M  V30 12604 C 1196.07 0.305589 -3.39528 0
M  V30 12605 H 1197.26 -1.35349 -2.6762 0
M  V30 12606 H 1194.81 -0.738673 -1.37744 0
M  V30 12607 H 1195.55 1.19615 -3.01434 0
M  V30 12608 H 1195.33 -0.337719 -3.90643 0
M  V30 12609 H 1196.82 0.627201 -4.12863 0
M  V30 12610 N 1197.26 1.39987 -0.723979 0
M  V30 12611 C 1198.49 2.05037 -0.27702 0
M  V30 12612 C 1198.9 1.54565 1.08421 0
M  V30 12613 O 1198.26 0.705795 1.683 0
M  V30 12614 C 1198.31 3.60582 -0.25751 0
M  V30 12615 O 1198.03 4.09194 -1.565 0
M  V30 12616 C 1199.53 4.42817 0.206972 0
M  V30 12617 H 1196.75 0.659637 -0.122963 0
M  V30 12618 H 1199.3 1.7924 -0.98454 0
M  V30 12619 H 1197.45 3.85319 0.401037 0
M  V30 12620 H 1197.87 5.03447 -1.47112 0
M  V30 12621 H 1199.34 5.5174 0.16947 0
M  V30 12622 H 1199.82 4.21023 1.25045 0
M  V30 12623 H 1200.42 4.23205 -0.421604 0
M  V30 12624 N 1198.74 0.470782 1.50404 0
M  V30 12625 C 1199.69 -0.32355 2.28521 0
M  V30 12626 C 1200.66 -0.987472 1.3356 0
M  V30 12627 O 1201.84 -0.999969 1.62497 0
M  V30 12628 C 1198.98 -1.39977 3.15437 0
M  V30 12629 C 1198.09 -0.750656 4.25428 0
M  V30 12630 C 1197.23 -1.80474 4.99602 0
M  V30 12631 C 1196.27 -1.13586 6.01469 0
M  V30 12632 N 1195.41 -2.13279 6.68922 0
M  V30 12633 H 1200.25 0.348902 2.9595 0
M  V30 12634 H 1197.78 0.183908 1.45946 0
M  V30 12635 H 1199.74 -2.0354 3.6418 0
M  V30 12636 H 1198.37 -2.04139 2.50054 0
M  V30 12637 H 1197.42 -0.00247092 3.804 0
M  V30 12638 H 1198.73 -0.222638 4.98303 0
M  V30 12639 H 1197.89 -2.51619 5.52062 0
M  V30 12640 H 1196.63 -2.36657 4.26433 0
M  V30 12641 H 1195.63 -0.410042 5.48269 0
M  V30 12642 H 1196.86 -0.580935 6.76611 0
M  V30 12643 H 1194.8 -2.68479 5.98544 0
M  V30 12644 H 1194.72 -1.65461 7.37671 0
M  V30 12645 H 1195.99 -2.83804 7.26 0
M  V30 12646 N 1200.22 -1.56282 0.203376 0
M  V30 12647 C 1201.18 -2.18233 -0.700489 0
M  V30 12648 C 1202.18 -1.13908 -1.13497 0
M  V30 12649 O 1203.37 -1.39246 -1.04672 0
M  V30 12650 C 1200.5 -2.79107 -1.95735 0
M  V30 12651 H 1201.7 -2.99469 -0.160649 0
M  V30 12652 H 1199.25 -1.56232 -0.0462475 0
M  V30 12653 H 1199.98 -2.01691 -2.53951 0
M  V30 12654 H 1199.77 -3.55486 -1.65446 0
M  V30 12655 H 1201.26 -3.2665 -2.60172 0
M  V30 12656 N 1201.7 0.070167 -1.57444 0
M  V30 12657 C 1202.63 1.10996 -2.0053 0
M  V30 12658 C 1203.64 1.3489 -0.91151 0
M  V30 12659 O 1204.83 1.33102 -1.18938 0
M  V30 12660 C 1201.93 2.46053 -2.33048 0
M  V30 12661 C 1201.1 2.42092 -3.64294 0
M  V30 12662 C 1200.16 3.5927 -3.84463 0
M  V30 12663 O 1199.19 3.40625 -4.5603 0
M  V30 12664 N 1200.39 4.79677 -3.26941 0
M  V30 12665 H 1203.15 0.743029 -2.90343 0
M  V30 12666 H 1200.72 0.258794 -1.59818 0
M  V30 12667 H 1202.71 3.23089 -2.43712 0
M  V30 12668 H 1201.28 2.74742 -1.49116 0
M  V30 12669 H 1200.5 1.5043 -3.64368 0
M  V30 12670 H 1201.79 2.36548 -4.50469 0
M  V30 12671 H 1201.18 4.97729 -2.68855 0
M  V30 12672 H 1199.74 5.54219 -3.43051 0
M  V30 12673 N 1203.17 1.53854 0.341593 0
M  V30 12674 C 1204.59 1.44161 0.684821 0
M  V30 12675 C 1204.79 0.599929 1.92362 0
M  V30 12676 O 1203.85 0.0916771 2.52334 0
M  V30 12677 C 1205.16 2.87668 0.875637 0
M  V30 12678 C 1206.71 2.97455 0.974131 0
M  V30 12679 C 1207.18 4.42075 1.19725 0
M  V30 12680 N 1208.67 4.45609 1.2644 0
M  V30 12681 C 1209.41 5.54643 1.45459 0
M  V30 12682 N 1208.9 6.7368 1.61637 0
M  V30 12683 N 1210.7 5.4226 1.48022 0
M  V30 12684 H 1202.85 2.07069 -0.472883 0
M  V30 12685 H 1205.11 0.936114 -0.149648 0
M  V30 12686 H 1204.82 3.51681 0.0368595 0
M  V30 12687 H 1204.69 3.32731 1.7768 0
M  V30 12688 H 1207.08 2.33582 1.80343 0
M  V30 12689 H 1207.16 2.55751 0.0498282 0
M  V30 12690 H 1206.8 5.06529 0.372872 0
M  V30 12691 H 1206.73 4.81372 2.13515 0
M  V30 12692 H 1209.22 3.59831 1.15455 0
M  V30 12693 H 1209.54 7.52541 1.7579 0
M  V30 12694 H 1207.88 6.76622 1.5877 0
M  V30 12695 H 1211.07 4.48221 1.34966 0
M  V30 12696 H 1211.25 6.27293 1.62502 0
M  V30 12697 N 1204.65 -0.602709 1.4562 0
M  V30 12698 C 1205.6 -1.71312 1.54664 0
M  V30 12699 C 1206.57 -1.61403 0.392197 0
M  V30 12700 O 1207.75 -1.80911 0.606297 0
M  V30 12701 C 1204.89 -3.09629 1.52393 0
M  V30 12702 C 1204.01 -3.30308 2.78425 0
M  V30 12703 C 1203.14 -4.5876 2.67793 0
M  V30 12704 C 1202.18 -4.72713 3.88855 0
M  V30 12705 N 1201.32 -5.92469 3.76729 0
M  V30 12706 H 1206.16 -1.62918 2.49523 0
M  V30 12707 H 1203.69 -0.794324 1.2381 0
M  V30 12708 H 1205.65 -3.89661 1.49064 0
M  V30 12709 H 1204.28 -3.16968 0.610816 0
M  V30 12710 H 1203.33 -2.44018 2.9182 0
M  V30 12711 H 1204.65 -3.36491 3.68205 0
M  V30 12712 H 1203.8 -5.46993 2.62457 0
M  V30 12713 H 1202.54 -4.54983 1.75619 0
M  V30 12714 H 1201.54 -3.82903 3.94545 0
M  V30 12715 H 1202.77 -4.78284 4.82101 0
M  V30 12716 H 1200.72 -5.89728 2.87328 0
M  V30 12717 H 1200.63 -5.99833 4.60148 0
M  V30 12718 H 1201.9 -6.83187 3.75334 0
M  V30 12719 N 1206.13 -1.32992 -0.845635 0
M  V30 12720 C 1207.06 -1.18513 -1.96182 0
M  V30 12721 C 1208.07 -0.11781 -1.62373 0
M  V30 12722 O 1209.26 -0.36761 -1.74674 0
M  V30 12723 C 1206.36 -0.793812 -3.29472 0
M  V30 12724 C 1205.54 -1.95134 -3.91461 0
M  V30 12725 C 1204.6 -1.54209 -5.03096 0
M  V30 12726 O 1203.62 -2.25545 -5.22607 0
M  V30 12727 N 1204.82 -0.443235 -5.78805 0
M  V30 12728 H 1207.59 -2.14663 -2.09141 0
M  V30 12729 H 1205.15 -1.25648 -1.02099 0
M  V30 12730 H 1207.14 -0.502263 -4.01571 0
M  V30 12731 H 1205.71 0.0768031 -3.12506 0
M  V30 12732 H 1204.93 -2.40889 -3.12035 0
M  V30 12733 H 1206.22 -2.72604 -4.2961 0
M  V30 12734 H 1205.62 0.150298 -5.655 0
M  V30 12735 H 1204.17 -0.211331 -6.51457 0
M  V30 12736 N 1207.61 1.06304 -1.1635 0
M  V30 12737 C 1208.54 2.13732 -0.827721 0
M  V30 12738 C 1209.55 1.61962 0.164983 0
M  V30 12739 O 1210.74 1.784 -0.0597591 0
M  V30 12740 C 1207.84 3.38239 -0.211623 0
M  V30 12741 C 1207.01 4.19325 -1.2444 0
M  V30 12742 C 1206.07 5.22193 -0.648127 0
M  V30 12743 O 1205.1 5.53755 -1.31695 0
M  V30 12744 N 1206.3 5.77742 0.565179 0
M  V30 12745 H 1209.07 2.43136 -1.75228 0
M  V30 12746 H 1206.63 1.22304 -1.06081 0
M  V30 12747 H 1208.62 4.04204 0.200306 0
M  V30 12748 H 1207.19 3.06461 0.616491 0
M  V30 12749 H 1206.41 3.49017 -1.83251 0
M  V30 12750 H 1207.7 4.70306 -1.94138 0
M  V30 12751 H 1207.1 5.54366 1.12673 0
M  V30 12752 H 1205.65 6.45284 0.919321 0
M  V30 12753 N 1209.09 0.96196 1.24836 0
M  V30 12754 C 1210.02 0.432188 2.2407 0
M  V30 12755 C 1211 -0.490539 1.55024 0
M  V30 12756 O 1212.18 -0.423236 1.83687 0
M  V30 12757 C 1209.31 -0.37673 3.36598 0
M  V30 12758 C 1208.35 0.48745 4.23705 0
M  V30 12759 S 1209.19 1.92417 4.99736 0
M  V30 12760 C 1210.34 1.12388 6.15727 0
M  V30 12761 H 1210.58 1.27315 2.6866 0
M  V30 12762 H 1208.11 0.766568 1.34026 0
M  V30 12763 H 1210.07 -0.837488 4.01866 0
M  V30 12764 H 1208.73 -1.1926 2.90579 0
M  V30 12765 H 1207.92 -0.133338 5.03824 0
M  V30 12766 H 1207.52 0.883707 3.6341 0
M  V30 12767 H 1209.81 0.376097 6.76455 0
M  V30 12768 H 1210.76 1.89924 6.82154 0
M  V30 12769 H 1211.17 0.650779 5.60736 0
M  V30 12770 N 1210.56 -1.39601 0.731392 0
M  V30 12771 C 1211.53 -2.28992 0.0976037 0
M  V30 12772 C 1212.53 -1.46135 -0.670917 0
M  V30 12773 O 1213.72 -1.66856 -0.50047 0
M  V30 12774 C 1210.85 -3.29582 -0.871124 0
M  V30 12775 H 1212.04 -2.86541 0.885112 0
M  V30 12776 H 1209.59 -1.48188 0.497002 0
M  V30 12777 H 1210.33 -2.77082 -1.68512 0
M  V30 12778 H 1210.11 -3.9077 -0.322735 0
M  V30 12779 H 1211.6 -3.96479 -1.31126 0
M  V30 12780 N 1212.04 -0.478751 -1.50152 0
M  V30 12781 C 1212.95 0.316554 -2.32455 0
M  V30 12782 C 1213.97 0.98871 -1.4318 0
M  V30 12783 O 1215.14 0.974998 -1.76226 0
M  V30 12784 C 1212.21 1.3799 -3.18056 0
M  V30 12785 C 1211.27 0.723534 -4.23159 0
M  V30 12786 C 1210.5 1.73621 -5.0467 0
M  V30 12787 O 1210.73 2.96362 -4.87366 0
M  V30 12788 O 1209.66 1.30381 -5.87609 0
M  V30 12789 H 1213.49 -0.356491 -3.016 0
M  V30 12790 H 1211.07 -0.24046 -1.47452 0
M  V30 12791 H 1212.95 1.99565 -3.71149 0
M  V30 12792 H 1211.63 2.03627 -2.5163 0
M  V30 12793 H 1210.54 0.0686296 -3.74037 0
M  V30 12794 H 1211.87 0.109979 -4.92077 0
M  V30 12795 N 1213.52 1.56172 -0.211661 0
M  V30 12796 C 1214.43 2.23468 0.714081 0
M  V30 12797 C 1215.45 1.23908 1.22159 0
M  V30 12798 O 1216.62 1.56693 1.26528 0
M  V30 12799 C 1213.69 2.89375 1.90953 0
M  V30 12800 C 1212.75 4.04251 1.44497 0
M  V30 12801 C 1211.98 4.67006 2.58343 0
M  V30 12802 O 1212.2 4.28721 3.76237 0
M  V30 12803 O 1211.14 5.56177 2.3011 0
M  V30 12804 H 1214.96 3.03219 0.170862 0
M  V30 12805 H 1212.55 1.49389 0.0183607 0
M  V30 12806 H 1214.43 3.3101 2.60787 0
M  V30 12807 H 1213.11 2.12591 2.44104 0
M  V30 12808 H 1212.01 3.67205 0.714932 0
M  V30 12809 H 1213.35 4.82748 0.959947 0
M  V30 12810 N 1215 -0.0618163 1.57479 0
M  V30 12811 C 1215.93 -1.10452 1.99689 0
M  V30 12812 C 1216.91 -1.37019 0.875473 0
M  V30 12813 O 1218.09 -1.50226 1.13862 0
M  V30 12814 C 1215.22 -2.44669 2.34211 0
M  V30 12815 C 1214.27 -2.34172 3.56463 0
M  V30 12816 S 1215.1 -1.7263 5.06911 0
M  V30 12817 C 1216.26 -3.08405 5.44644 0
M  V30 12818 H 1216.49 -0.744843 2.87818 0
M  V30 12819 H 1214.02 -0.270698 1.52008 0
M  V30 12820 H 1215.98 -3.2187 2.54774 0
M  V30 12821 H 1214.64 -2.77794 1.46592 0
M  V30 12822 H 1213.83 -3.33175 3.78167 0
M  V30 12823 H 1213.44 -1.65109 3.35582 0
M  V30 12824 H 1215.73 -4.04727 5.43325 0
M  V30 12825 H 1216.67 -2.9147 6.4533 0
M  V30 12826 H 1217.08 -3.0947 4.72111 0
M  V30 12827 N 1216.48 -1.54033 -0.333429 0
M  V30 12828 C 1217.72 -1.72019 -1.07411 0
M  V30 12829 C 1218.06 -0.487265 -1.87988 0
M  V30 12830 O 1217.33 0.515757 -1.87537 0
M  V30 12831 C 1217.61 -2.98986 -2.00698 0
M  V30 12832 C 1217.47 -4.32509 -1.23517 0
M  V30 12833 C 1218.79 -3.21663 -3.00368 0
M  V30 12834 H 1215.9 -0.625919 -0.389094 0
M  V30 12835 H 1218.55 -1.86717 -0.351697 0
M  V30 12836 H 1216.7 -2.86586 -2.62298 0
M  V30 12837 H 1218.37 -4.56775 -0.644522 0
M  V30 12838 H 1216.61 -4.3046 -0.537298 0
M  V30 12839 H 1217.28 -5.17547 -1.91962 0
M  V30 12840 H 1219.76 -3.33459 -2.48886 0
M  V30 12841 H 1218.63 -4.11877 -3.62834 0
M  V30 12842 H 1218.9 -2.3843 -3.72295 0
M  V30 12843 N 1217.95 0.594978 -1.45938 0
M  V30 12844 C 1218.86 1.73296 -1.58132 0
M  V30 12845 C 1219.88 1.67665 -0.465245 0
M  V30 12846 O 1221.06 1.87794 -0.727684 0
M  V30 12847 C 1218.12 3.09783 -1.55677 0
M  V30 12848 C 1217.18 3.26772 -2.78422 0
M  V30 12849 C 1216.42 4.56748 -2.76075 0
M  V30 12850 O 1216.64 5.39867 -1.84119 0
M  V30 12851 O 1215.57 4.76721 -3.67452 0
M  V30 12852 H 1219.4 1.65957 -2.54346 0
M  V30 12853 H 1216.98 0.760572 -1.28591 0
M  V30 12854 H 1218.87 3.91077 -1.56961 0
M  V30 12855 H 1217.54 3.17585 -0.626191 0
M  V30 12856 H 1216.45 2.45018 -2.82696 0
M  V30 12857 H 1217.78 3.23853 -3.70648 0
M  V30 12858 N 1219.43 1.33438 0.838571 0
M  V30 12859 C 1220.4 1.23632 1.92997 0
M  V30 12860 C 1221.4 0.155302 1.60048 0
M  V30 12861 O 1222.59 0.406852 1.69382 0
M  V30 12862 C 1219.72 0.90512 3.28665 0
M  V30 12863 H 1220.91 2.20643 2.03117 0
M  V30 12864 H 1218.46 1.17501 1.03069 0
M  V30 12865 H 1219.2 -0.0624833 3.2424 0
M  V30 12866 H 1218.98 1.68688 3.53959 0
M  V30 12867 H 1220.47 0.861262 4.08622 0
M  V30 12868 N 1220.91 -1.05686 1.16912 0
M  V30 12869 C 1221.87 -2.11481 0.883647 0
M  V30 12870 C 1222.87 -1.60321 -0.124034 0
M  V30 12871 O 1224.06 -1.73868 0.107566 0
M  V30 12872 C 1221.2 -3.3937 0.322649 0
M  V30 12873 H 1222.39 -2.38239 1.8216 0
M  V30 12874 H 1219.94 -1.2185 0.978895 0
M  V30 12875 H 1220.68 -3.18266 -0.622695 0
M  V30 12876 H 1220.46 -3.77812 1.04883 0
M  V30 12877 H 1221.95 -4.17362 0.141072 0
M  V30 12878 N 1222.39 -0.968567 -1.24324 0
M  V30 12879 C 1223.64 -0.629682 -1.9204 0
M  V30 12880 C 1223.96 0.837906 -1.7608 0
M  V30 12881 O 1223.23 1.5982 -1.13289 0
M  V30 12882 H 1221.81 -0.229901 -0.710742 0
M  V30 12883 H 1224.47 -1.22982 -1.512 0
M  V30 12884 H 1223.57 -0.871034 -2.99699 0
M  V30 12885 N 1223.87 1.39211 -0.738786 0
M  V30 12886 C 1224.78 2.34374 -0.102958 0
M  V30 12887 C 1225.79 1.58514 0.717596 0
M  V30 12888 O 1226.97 1.90786 0.645186 0
M  V30 12889 C 1224.03 3.37562 0.790733 0
M  V30 12890 C 1223.09 4.29279 -0.0425028 0
M  V30 12891 C 1222.33 5.27539 0.808628 0
M  V30 12892 O 1222.55 5.32396 2.04722 0
M  V30 12893 O 1221.48 6.0144 0.235279 0
M  V30 12894 H 1225.31 2.90412 -0.888498 0
M  V30 12895 H 1222.9 1.40803 -0.499498 0
M  V30 12896 H 1224.78 4.00783 1.30196 0
M  V30 12897 H 1223.45 2.83903 1.55502 0
M  V30 12898 H 1222.36 3.69268 -0.599335 0
M  V30 12899 H 1223.69 4.86154 -0.7691 0
M  V30 12900 N 1225.34 0.486708 1.49896 0
M  V30 12901 C 1226.62 -0.125183 1.95199 0
M  V30 12902 C 1227 -1.55498 1.42771 0
M  V30 12903 O 1226.35 -2.1949 0.635322 0
M  V30 12904 C 1226.56 -0.0524982 3.48961 0
M  V30 12905 C 1227.91 -0.233595 4.23957 0
M  V30 12906 O 1228.93 -0.128357 3.55969 0
M  V30 12907 O 1227.79 -0.447862 5.44662 0
M  V30 12908 H 1224.88 -0.103141 0.820543 0
M  V30 12909 H 1227.43 0.548226 1.60601 0
M  V30 12910 H 1226.2 0.945163 3.79714 0
M  V30 12911 H 1225.83 -0.766683 3.90138 0
M  V30 12912 N 1226.82 -1.56058 0.219941 0
M  V30 12913 C 1227.73 -2.23844 -0.70222 0
M  V30 12914 C 1228.75 -1.24554 -1.215 0
M  V30 12915 O 1229.93 -1.57362 -1.25695 0
M  V30 12916 C 1226.99 -2.90384 -1.89416 0
M  V30 12917 C 1226.05 -4.05012 -1.42351 0
M  V30 12918 C 1225.28 -4.68369 -2.55863 0
M  V30 12919 O 1225.51 -4.3071 -3.73958 0
M  V30 12920 O 1224.44 -5.5739 -2.27157 0
M  V30 12921 H 1228.27 -3.03305 -0.15478 0
M  V30 12922 H 1225.85 -1.49396 -0.010438 0
M  V30 12923 H 1227.73 -3.32389 -2.59028 0
M  V30 12924 H 1226.41 -2.13883 -2.42973 0
M  V30 12925 H 1225.32 -3.67579 -0.695448 0
M  V30 12926 H 1226.65 -4.83251 -0.934332 0
M  V30 12927 N 1228.3 0.053464 -1.57509 0
M  V30 12928 C 1229.72 0.408651 -1.5428 0
M  V30 12929 C 1229.92 1.78086 -0.942735 0
M  V30 12930 O 1228.97 2.46366 -0.553163 0
M  V30 12931 C 1230.29 0.332884 -2.98852 0
M  V30 12932 C 1231.83 0.411745 -3.1028 0
M  V30 12933 C 1232.31 0.365691 -4.56538 0
M  V30 12934 N 1233.8 0.425222 -4.61244 0
M  V30 12935 C 1234.54 0.412093 -5.71917 0
M  V30 12936 N 1234.03 0.352693 -6.91902 0
M  V30 12937 N 1235.82 0.460016 -5.60214 0
M  V30 12938 H 1227.98 -0.844834 -1.94875 0
M  V30 12939 H 1230.24 -0.318888 -0.892757 0
M  V30 12940 H 1229.94 -0.609116 -3.46385 0
M  V30 12941 H 1229.82 1.13605 -3.59686 0
M  V30 12942 H 1232.21 1.34417 -2.62709 0
M  V30 12943 H 1232.29 -0.420333 -2.52323 0
M  V30 12944 H 1231.93 -0.562963 -5.0477 0
M  V30 12945 H 1231.86 1.21555 -5.12379 0
M  V30 12946 H 1234.35 0.474634 -3.74908 0
M  V30 12947 H 1234.66 0.347105 -7.7202 0
M  V30 12948 H 1233.01 0.319104 -6.94267 0
M  V30 12949 H 1236.2 0.504242 -4.65376 0
M  V30 12950 H 1236.37 0.446315 -6.46461 0
M  V30 12951 N 1229.78 1.54207 0.325255 0
M  V30 12952 C 1230.69 1.86495 1.42326 0
M  V30 12953 C 1231.71 0.756718 1.56684 0
M  V30 12954 O 1232.88 1.05084 1.71812 0
M  V30 12955 C 1229.95 2.08414 2.77064 0
M  V30 12956 C 1229.01 3.32221 2.71897 0
M  V30 12957 C 1228.24 3.53085 4.00209 0
M  V30 12958 O 1228.46 2.77421 4.98391 0
M  V30 12959 O 1227.4 4.46559 4.0357 0
M  V30 12960 H 1231.22 2.79859 1.17951 0
M  V30 12961 H 1228.81 1.40091 0.519124 0
M  V30 12962 H 1230.69 2.24171 3.56827 0
M  V30 12963 H 1229.37 1.18238 3.01333 0
M  V30 12964 H 1228.27 3.21851 1.90691 0
M  V30 12965 H 1229.61 4.22449 2.52582 0
M  V30 12966 N 1231.26 -0.58723 1.46251 0
M  V30 12967 C 1232.19 -1.70694 1.5933 0
M  V30 12968 C 1233.17 -1.64208 0.443831 0
M  V30 12969 O 1234.35 -1.82294 0.669516 0
M  V30 12970 C 1231.48 -3.0933 1.579 0
M  V30 12971 C 1230.44 -3.30643 2.7177 0
M  V30 12972 C 1229.76 -4.69761 2.554 0
M  V30 12973 C 1231.06 -3.18916 4.1363 0
M  V30 12974 H 1232.76 -1.60004 2.53059 0
M  V30 12975 H 1230.3 -0.768343 1.21789 0
M  V30 12976 H 1232.26 -3.87479 1.65644 0
M  V30 12977 H 1230.98 -3.20907 0.60712 0
M  V30 12978 H 1229.64 -2.54892 2.63488 0
M  V30 12979 H 1229.29 -4.78098 1.56306 0
M  V30 12980 H 1228.99 -4.84974 3.31774 0
M  V30 12981 H 1230.51 -5.50084 2.65028 0
M  V30 12982 H 1231.93 -3.86915 4.23048 0
M  V30 12983 H 1230.32 -3.45653 4.90555 0
M  V30 12984 H 1231.39 -2.1606 4.34104 0
M  V30 12985 N 1232.74 -1.33881 -0.831482 0
M  V30 12986 C 1233.7 -1.24654 -1.92339 0
M  V30 12987 C 1234.7 -0.163788 -1.59964 0
M  V30 12988 O 1235.89 -0.415829 -1.69164 0
M  V30 12989 C 1233.02 -0.922537 -3.2818 0
M  V30 12990 H 1234.21 -2.21717 -2.01944 0
M  V30 12991 H 1231.77 -1.18046 -1.02445 0
M  V30 12992 H 1232.5 0.0452872 -3.24268 0
M  V30 12993 H 1232.29 -1.70562 -3.53059 0
M  V30 12994 H 1233.78 -0.88292 -4.0816 0
M  V30 12995 N 1234.21 1.05064 -1.1747 0
M  V30 12996 C 1235.18 2.1101 -0.89485 0
M  V30 12997 C 1236.18 1.60384 0.11553 0
M  V30 12998 O 1237.37 1.73808 -0.116785 0
M  V30 12999 C 1234.5 3.39194 -0.340642 0
M  V30 13000 H 1235.69 2.37269 -1.83421 0
M  V30 13001 H 1233.24 1.21329 -0.985343 0
M  V30 13002 H 1233.98 3.18591 0.605808 0
M  V30 13003 H 1233.76 3.77251 -1.06885 0
M  V30 13004 H 1235.25 4.17281 -0.163204 0
M  V30 13005 N 1235.69 0.975146 1.23809 0
M  V30 13006 C 1236.6 0.51917 2.28783 0
M  V30 13007 C 1237.62 -0.423487 1.68768 0
M  V30 13008 O 1238.79 -0.294699 1.99232 0
M  V30 13009 C 1235.86 -0.176229 3.46252 0
M  V30 13010 C 1234.92 0.807177 4.21643 0
M  V30 13011 C 1234.15 0.144869 5.33503 0
M  V30 13012 O 1234.38 -1.06522 5.60365 0
M  V30 13013 O 1233.31 0.84079 5.95999 0
M  V30 13014 H 1237.14 1.39204 2.69919 0
M  V30 13015 H 1234.72 0.74253 1.29641 0
M  V30 13016 H 1236.6 -0.566547 4.17574 0
M  V30 13017 H 1235.28 -1.02394 3.07078 0
M  V30 13018 H 1234.18 1.2481 3.52666 0
M  V30 13019 H 1235.52 1.62354 4.64653 0
M  V30 13020 N 1237.17 -1.38817 0.746158 0
M  V30 13021 C 1238.1 -2.28116 0.0620717 0
M  V30 13022 C 1239.08 -1.44984 -0.736097 0
M  V30 13023 O 1240.26 -1.7436 -0.7163 0
M  V30 13024 C 1237.39 -3.25992 -0.919065 0
M  V30 13025 C 1236.44 -4.25992 -0.208033 0
M  V30 13026 S 1237.27 -5.24374 1.08593 0
M  V30 13027 C 1238.43 -6.25807 0.107674 0
M  V30 13028 H 1238.66 -2.85787 0.819331 0
M  V30 13029 H 1236.19 -1.44708 0.538422 0
M  V30 13030 H 1238.15 -3.82899 -1.47982 0
M  V30 13031 H 1236.81 -2.67318 -1.64924 0
M  V30 13032 H 1236 -4.9495 -0.95084 0
M  V30 13033 H 1235.61 -3.72943 0.280998 0
M  V30 13034 H 1237.9 -6.73568 -0.728905 0
M  V30 13035 H 1238.84 -7.03959 0.764698 0
M  V30 13036 H 1239.25 -5.63855 -0.269706 0
M  V30 13037 N 1238.65 -0.49465 -1.49636 0
M  V30 13038 C 1239.61 0.276064 -2.27531 0
M  V30 13039 C 1240.61 0.899619 -1.3328 0
M  V30 13040 O 1241.8 0.765136 -1.56497 0
M  V30 13041 C 1238.93 1.39547 -3.1103 0
M  V30 13042 H 1240.13 -0.407381 -2.9712 0
M  V30 13043 H 1237.68 -0.249416 -1.54297 0
M  V30 13044 H 1238.41 2.11326 -2.45992 0
M  V30 13045 H 1238.2 0.953877 -3.8032 0
M  V30 13046 H 1239.69 1.93853 -3.69879 0
M  V30 13047 N 1240.13 1.55939 -0.228214 0
M  V30 13048 C 1241.09 2.1932 0.665681 0
M  V30 13049 C 1242.09 1.15699 1.11671 0
M  V30 13050 O 1243.28 1.40893 1.02444 0
M  V30 13051 C 1240.41 2.82185 1.9127 0
M  V30 13052 H 1241.6 2.99687 0.112986 0
M  V30 13053 H 1239.16 1.56285 0.0213865 0
M  V30 13054 H 1239.89 2.05706 2.5071 0
M  V30 13055 H 1239.68 3.58073 1.5977 0
M  V30 13056 H 1241.17 3.30748 2.54942 0
M  V30 13057 N 1241.6 -0.0451101 1.57535 0
M  V30 13058 C 1242.57 -1.03521 2.0449 0
M  V30 13059 C 1243.57 -1.30009 0.946265 0
M  V30 13060 O 1244.76 -1.25282 1.21038 0
M  V30 13061 C 1241.89 -2.37221 2.44824 0
M  V30 13062 H 1243.08 -0.629943 2.93209 0
M  V30 13063 H 1240.64 -0.291544 1.53557 0
M  V30 13064 H 1241.37 -2.82528 1.59212 0
M  V30 13065 H 1241.16 -2.19329 3.25018 0
M  V30 13066 H 1242.65 -3.08337 2.81635 0
M  V30 13067 N 1243.08 -1.54377 -0.317073 0
M  V30 13068 C 1244.33 -1.72893 -1.05424 0
M  V30 13069 C 1244.66 -0.506082 -1.87801 0
M  V30 13070 O 1243.91 0.51213 -1.8888 0
M  V30 13071 C 1244.21 -2.96066 -2.00199 0
M  V30 13072 C 1243.88 -4.30551 -1.33927 0
M  V30 13073 C 1242.54 -4.67112 -1.15584 0
M  V30 13074 C 1244.89 -5.13986 -0.864158 0
M  V30 13075 C 1242.22 -5.84701 -0.483892 0
M  V30 13076 C 1244.57 -6.32264 -0.206006 0
M  V30 13077 C 1243.24 -6.67499 -0.0104849 0
M  V30 13078 H 1242.51 -0.63266 -0.385776 0
M  V30 13079 H 1245.15 -1.88623 -0.330722 0
M  V30 13080 H 1243.46 -2.7505 -2.79024 0
M  V30 13081 H 1245.15 -3.07586 -2.57278 0
M  V30 13082 H 1241.74 -4.0179 -1.49207 0
M  V30 13083 H 1245.93 -4.86252 -0.993635 0
M  V30 13084 H 1241.18 -6.10555 -0.32127 0
M  V30 13085 H 1245.36 -6.96192 0.170108 0
M  V30 13086 H 1242.99 -7.58472 0.512209 0
M  V30 13087 N 1244.56 0.579466 -1.4656 0
M  V30 13088 C 1245.49 1.69846 -1.60233 0
M  V30 13089 C 1246.47 1.6397 -0.452533 0
M  V30 13090 O 1247.66 1.81936 -0.679174 0
M  V30 13091 C 1244.79 3.08488 -1.59538 0
M  V30 13092 C 1243.74 3.29197 -2.7352 0
M  V30 13093 C 1243.07 4.684 -2.57887 0
M  V30 13094 C 1244.37 3.16718 -4.15315 0
M  V30 13095 H 1246.06 1.5866 -2.53904 0
M  V30 13096 H 1243.61 0.761873 -1.22194 0
M  V30 13097 H 1245.56 3.86595 -1.67696 0
M  V30 13098 H 1244.28 3.20581 -0.62413 0
M  V30 13099 H 1242.94 2.53491 -2.64836 0
M  V30 13100 H 1242.59 4.77262 -1.58839 0
M  V30 13101 H 1242.29 4.83208 -3.34341 0
M  V30 13102 H 1243.81 5.48671 -2.67942 0
M  V30 13103 H 1245.23 3.84666 -4.25094 0
M  V30 13104 H 1243.63 3.43047 -4.92381 0
M  V30 13105 H 1244.7 2.13755 -4.35244 0
M  V30 13106 N 1246.04 1.3432 0.824371 0
M  V30 13107 C 1246.99 1.2578 1.95658 0
M  V30 13108 C 1247.98 0.156199 1.68678 0
M  V30 13109 O 1249.19 0.321081 1.77113 0
M  V30 13110 H 1245.56 0.390711 0.642533 0
M  V30 13111 H 1247.53 2.21471 1.99983 0
M  V30 13112 C 1246.28 1.02865 3.32136 0
M  V30 13113 H 1245.6 1.86863 3.53443 0
M  V30 13114 H 1247.04 1.00925 4.11813 0
M  V30 13115 C 1245.5 -0.268097 3.35832 0
M  V30 13116 O 1246.03 -1.26995 3.81097 0
M  V30 13117 N 1244.24 -0.300702 2.8904 0
M  V30 13118 H 1243.79 0.51515 2.52396 0
M  V30 13119 H 1243.74 -1.16811 2.91895 0
M  V30 13120 N 1247.52 -1.0444 1.18026 0
M  V30 13121 C 1248.43 -2.15862 0.918747 0
M  V30 13122 C 1249.44 -1.73614 -0.115808 0
M  V30 13123 O 1250.62 -2.01294 0.0652312 0
M  V30 13124 C 1247.68 -3.43846 0.443922 0
M  V30 13125 C 1246.74 -4.00497 1.54599 0
M  V30 13126 C 1245.98 -5.22373 1.09372 0
M  V30 13127 O 1246.2 -5.70379 -0.049085 0
M  V30 13128 O 1245.13 -5.71459 1.88992 0
M  V30 13129 H 1248.96 -2.40776 1.85097 0
M  V30 13130 H 1246.55 -1.14326 0.961769 0
M  V30 13131 H 1248.43 -4.20985 0.187017 0
M  V30 13132 H 1247.1 -3.20414 -0.460051 0
M  V30 13133 H 1246.01 -3.24764 1.85686 0
M  V30 13134 H 1247.34 -4.28262 2.42595 0
M  V30 13135 N 1248.99 -0.981699 -1.2329 0
M  V30 13136 C 1249.94 -0.515432 -2.26817 0
M  V30 13137 C 1250.94 0.428204 -1.63899 0
M  V30 13138 O 1252.14 0.301954 -1.77449 0
M  V30 13139 H 1248.52 -0.148257 -0.737241 0
M  V30 13140 H 1250.49 -1.40027 -2.63505 0
M  V30 13141 C 1249.24 0.165266 -3.47307 0
M  V30 13142 H 1248.56 -0.55176 -3.95974 0
M  V30 13143 H 1250 0.45513 -4.2155 0
M  V30 13144 C 1248.46 1.39693 -3.06574 0
M  V30 13145 O 1248.99 2.49308 -3.14974 0
M  V30 13146 N 1247.2 1.26806 -2.61474 0
M  V30 13147 H 1246.74 0.376161 -2.54839 0
M  V30 13148 H 1246.7 2.09324 -2.34587 0
M  V30 13149 N 1250.47 1.3842 -0.753509 0
M  V30 13150 C 1251.4 2.33073 -0.141198 0
M  V30 13151 C 1252.38 1.54863 0.70367 0
M  V30 13152 O 1253.57 1.8318 0.644872 0
M  V30 13153 C 1250.7 3.39043 0.752802 0
M  V30 13154 C 1249.65 4.27999 0.0106692 0
M  V30 13155 C 1248.98 5.24824 1.02291 0
M  V30 13156 C 1250.28 5.09308 -1.15768 0
M  V30 13157 H 1251.97 2.84528 -0.93188 0
M  V30 13158 H 1249.52 1.36802 -0.449567 0
M  V30 13159 H 1251.47 4.04224 1.19083 0
M  V30 13160 H 1250.2 2.8607 1.57581 0
M  V30 13161 H 1248.85 3.64323 -0.407939 0
M  V30 13162 H 1248.5 4.68139 1.83998 0
M  V30 13163 H 1248.2 5.85196 0.53101 0
M  V30 13164 H 1249.73 5.92882 1.46026 0
M  V30 13165 H 1251.14 5.6773 -0.797203 0
M  V30 13166 H 1249.54 5.78914 -1.58044 0
M  V30 13167 H 1250.61 4.43051 -1.97062 0
M  V30 13168 N 1251.95 0.502579 1.49372 0
M  V30 13169 C 1253.36 0.055187 1.86618 0
M  V30 13170 C 1253.71 -1.35938 1.41476 0
M  V30 13171 O 1252.84 -2.01333 0.793338 0
M  V30 13172 C 1253.43 0.0933734 3.38671 0
M  V30 13173 C 1251.99 -0.298685 3.75213 0
M  V30 13174 C 1251.14 0.465216 2.7337 0
M  V30 13175 H 1254.09 0.715281 1.41667 0
M  V30 13176 H 1254.11 -0.701549 3.73977 0
M  V30 13177 H 1253.62 1.12303 3.71497 0
M  V30 13178 H 1251.72 -1.33151 3.47996 0
M  V30 13179 H 1251.84 0.0218637 4.79095 0
M  V30 13180 H 1250.2 -0.0851469 2.54558 0
M  V30 13181 H 1250.98 1.49498 3.09039 0
M  V30 13182 N 1253.43 -1.55816 0.23648 0
M  V30 13183 C 1254.34 -2.24576 -0.678439 0
M  V30 13184 C 1255.35 -1.25836 -1.20172 0
M  V30 13185 O 1256.53 -1.58686 -1.24019 0
M  V30 13186 C 1253.6 -2.92376 -1.86325 0
M  V30 13187 C 1252.66 -4.06499 -1.38047 0
M  V30 13188 C 1251.89 -4.71057 -2.50881 0
M  V30 13189 O 1252.11 -4.34652 -3.69369 0
M  V30 13190 O 1251.05 -5.59768 -2.21232 0
M  V30 13191 H 1254.87 -3.03452 -0.122601 0
M  V30 13192 H 1252.46 -1.49399 0.00540803 0
M  V30 13193 H 1254.34 -3.35117 -2.55488 0
M  V30 13194 H 1253.01 -2.16448 -2.40691 0
M  V30 13195 H 1251.92 -3.68296 -0.656422 0
M  V30 13196 H 1253.25 -4.84214 -0.883024 0
M  V30 13197 N 1254.91 0.036755 -1.57557 0
M  V30 13198 C 1256.13 0.744813 -1.93565 0
M  V30 13199 C 1256.56 1.68508 -0.835863 0
M  V30 13200 O 1255.91 1.80091 0.208986 0
M  V30 13201 C 1255.96 1.48461 -3.28621 0
M  V30 13202 O 1255.07 2.59739 -3.20327 0
M  V30 13203 H 1254.41 0.200866 -0.632889 0
M  V30 13204 H 1256.94 -0.00547543 -2.04599 0
M  V30 13205 H 1256.95 1.85622 -3.63329 0
M  V30 13206 H 1255.62 0.794953 -4.08232 0
M  V30 13207 H 1254.2 2.25176 -2.97237 0
M  V30 13208 N 1256.39 1.54543 0.308881 0
M  V30 13209 C 1257.63 1.7266 1.04266 0
M  V30 13210 C 1257.95 0.51518 1.88694 0
M  V30 13211 O 1259.15 0.577988 2.65276 0
M  V30 13212 C 1257.61 3.05448 1.9034 0
M  V30 13213 C 1257.22 4.34043 1.10953 0
M  V30 13214 C 1258.96 3.32925 2.63365 0
M  V30 13215 C 1256.87 5.57886 1.96258 0
M  V30 13216 H 1255.8 0.643485 0.392992 0
M  V30 13217 H 1258.45 1.8103 0.300077 0
M  V30 13218 H 1256.83 2.91023 2.68555 0
M  V30 13219 H 1258.01 4.59279 0.374069 0
M  V30 13220 H 1256.32 4.13442 0.495453 0
M  V30 13221 H 1258.92 4.22649 3.27524 0
M  V30 13222 H 1259.26 2.51451 3.3178 0
M  V30 13223 H 1259.79 3.48285 1.92204 0
M  V30 13224 H 1256.53 6.42005 1.32326 0
M  V30 13225 H 1256.05 5.36847 2.67498 0
M  V30 13226 H 1257.73 5.94846 2.54494 0
M  V30 13227 N 1257.86 -0.571685 1.46866 0
M  V30 13228 C 1259.11 -1.32948 1.52745 0
M  V30 13229 C 1259.44 -1.93631 0.183694 0
M  V30 13230 O 1258.69 -1.77605 -0.821886 0
M  V30 13231 C 1258.99 -2.47051 2.58264 0
M  V30 13232 C 1258.66 -2.04291 4.01965 0
M  V30 13233 C 1257.32 -1.92345 4.41086 0
M  V30 13234 C 1259.67 -1.71458 4.9219 0
M  V30 13235 C 1257 -1.4584 5.68285 0
M  V30 13236 C 1259.35 -1.26429 6.19837 0
M  V30 13237 C 1258.02 -1.13068 6.57854 0
M  V30 13238 H 1257.29 -0.48649 0.558935 0
M  V30 13239 H 1259.93 -0.642618 1.80396 0
M  V30 13240 H 1258.24 -3.21231 2.24316 0
M  V30 13241 H 1259.94 -3.05254 2.6004 0
M  V30 13242 H 1256.53 -2.14527 3.71047 0
M  V30 13243 H 1260.71 -1.79567 4.62676 0
M  V30 13244 H 1255.97 -1.34148 5.96502 0
M  V30 13245 H 1260.14 -1.00081 6.89171 0
M  V30 13246 H 1257.77 -0.768094 7.5631 0
M  V30 13247 N 1259.34 -1.34755 -0.817236 0
M  V30 13248 C 1260.59 -1.2718 -1.57066 0
M  V30 13249 C 1260.91 0.156531 -1.94371 0
M  V30 13250 O 1260.18 1.09049 -1.62742 0
M  V30 13251 H 1258.76 -0.467755 -0.582421 0
M  V30 13252 H 1261.42 -1.68734 -0.975438 0
M  V30 13253 H 1260.52 -1.88043 -2.49091 0
M  V30 13254 N 1260.82 1.03812 -1.18578 0
M  V30 13255 C 1261.78 2.10049 -0.91718 0
M  V30 13256 C 1262.78 1.60498 0.0985122 0
M  V30 13257 O 1263.97 1.73674 -0.135213 0
M  V30 13258 C 1261.1 3.38813 -0.376599 0
M  V30 13259 H 1262.3 2.3531 -1.85927 0
M  V30 13260 H 1259.85 1.20277 -0.998156 0
M  V30 13261 H 1260.59 3.19216 0.571983 0
M  V30 13262 H 1260.37 3.76096 -1.10881 0
M  V30 13263 H 1261.86 4.17084 -0.207453 0
M  V30 13264 N 1262.3 0.988223 1.22768 0
M  V30 13265 C 1263.71 0.697281 1.7319 0
M  V30 13266 C 1264.06 -0.786111 1.79763 0
M  V30 13267 O 1263.18 -1.61465 1.44077 0
M  V30 13268 C 1263.78 1.25905 3.14537 0
M  V30 13269 C 1262.34 1.01759 3.62384 0
M  V30 13270 C 1261.49 1.38207 2.40404 0
M  V30 13271 H 1264.44 1.16114 1.08181 0
M  V30 13272 H 1264.46 0.635315 3.75159 0
M  V30 13273 H 1263.97 2.33869 3.09721 0
M  V30 13274 H 1262.07 -0.045627 3.72572 0
M  V30 13275 H 1262.18 1.67767 4.48766 0
M  V30 13276 H 1260.55 0.800607 2.4179 0
M  V30 13277 H 1261.33 2.47165 2.38253 0
M  V30 13278 N 1263.78 -1.38018 0.760839 0
M  V30 13279 C 1264.72 -2.30387 0.13796 0
M  V30 13280 C 1265.69 -1.50548 -0.701754 0
M  V30 13281 O 1266.88 -1.79154 -0.656381 0
M  V30 13282 C 1264.02 -3.36993 -0.743642 0
M  V30 13283 C 1263.13 -4.31856 0.111489 0
M  V30 13284 C 1262.27 -5.25534 -0.773796 0
M  V30 13285 C 1261.3 -6.12042 0.0845311 0
M  V30 13286 N 1260.44 -6.97995 -0.758118 0
M  V30 13287 H 1265.28 -2.83077 0.931212 0
M  V30 13288 H 1262.82 -1.39361 0.470833 0
M  V30 13289 H 1264.78 -3.97417 -1.26948 0
M  V30 13290 H 1263.41 -2.85695 -1.50261 0
M  V30 13291 H 1262.46 -3.72832 0.755031 0
M  V30 13292 H 1263.77 -4.92758 0.774042 0
M  V30 13293 H 1262.92 -5.9111 -1.36653 0
M  V30 13294 H 1261.66 -4.65017 -1.47006 0
M  V30 13295 H 1260.67 -5.45455 0.689883 0
M  V30 13296 H 1261.89 -6.74629 0.777966 0
M  V30 13297 H 1259.84 -6.40018 -1.4392 0
M  V30 13298 H 1259.76 -7.55846 -0.152623 0
M  V30 13299 H 1261.02 -7.67973 -1.33559 0
M  V30 13300 N 1265.25 -0.510493 -1.49103 0
M  V30 13301 C 1266.22 0.251915 -2.27811 0
M  V30 13302 C 1267.22 0.885432 -1.34226 0
M  V30 13303 O 1268.41 0.748494 -1.573 0
M  V30 13304 C 1265.54 1.3624 -3.12492 0
M  V30 13305 H 1266.73 -0.438872 -2.96671 0
M  V30 13306 H 1264.28 -0.265767 -1.54024 0
M  V30 13307 H 1265.02 2.08705 -2.48219 0
M  V30 13308 H 1264.8 0.913485 -3.81311 0
M  V30 13309 H 1266.29 1.89919 -3.71915 0
M  V30 13310 N 1266.73 1.55688 -0.24474 0
M  V30 13311 C 1267.98 1.98498 0.379852 0
M  V30 13312 C 1268.3 1.13416 1.58625 0
M  V30 13313 O 1267.57 0.216456 1.947 0
M  V30 13314 H 1266.15 0.73312 0.143334 0
M  V30 13315 H 1268.81 1.91858 -0.343027 0
M  V30 13316 H 1267.91 3.04367 0.690463 0
M  V30 13317 N 1268.21 -0.0283989 1.57574 0
M  V30 13318 C 1269.16 -1.04723 2.07692 0
M  V30 13319 C 1270.15 -1.37399 0.990847 0
M  V30 13320 O 1271.36 -1.36297 1.17572 0
M  V30 13321 H 1267.73 -0.355251 0.662798 0
M  V30 13322 H 1269.7 -0.598737 2.92331 0
M  V30 13323 C 1268.45 -2.33941 2.57229 0
M  V30 13324 H 1267.78 -2.09659 3.40416 0
M  V30 13325 H 1269.22 -3.03574 2.96005 0
M  V30 13326 C 1267.67 -3.02953 1.47381 0
M  V30 13327 O 1268.2 -3.9281 0.840431 0
M  V30 13328 N 1266.41 -2.64294 1.20819 0
M  V30 13329 H 1265.96 -1.91307 1.72509 0
M  V30 13330 H 1265.92 -3.10786 0.475353 0
M  V30 13331 N 1269.69 -1.54705 -0.300681 0
M  V30 13332 C 1270.94 -1.73658 -1.0338 0
M  V30 13333 C 1271.26 -0.525447 -1.87787 0
M  V30 13334 O 1270.53 0.460269 -1.90416 0
M  V30 13335 H 1269.11 -0.640338 -0.384677 0
M  V30 13336 H 1271.77 -1.92059 -0.331588 0
M  V30 13337 H 1270.86 -2.62595 -1.68672 0
M  V30 13338 N 1271.17 0.563888 -1.47167 0
M  V30 13339 C 1272.1 1.68655 -1.55204 0
M  V30 13340 C 1273.11 1.56776 -0.438769 0
M  V30 13341 O 1274.3 1.63856 -0.708059 0
M  V30 13342 C 1271.4 3.07068 -1.43396 0
M  V30 13343 C 1270.57 3.44767 -2.69174 0
M  V30 13344 C 1269.63 4.62316 -2.51298 0
M  V30 13345 O 1268.66 4.67231 -3.2509 0
M  V30 13346 N 1269.86 5.58389 -1.58688 0
M  V30 13347 H 1272.63 1.62209 -2.52009 0
M  V30 13348 H 1270.19 0.750359 -1.43462 0
M  V30 13349 H 1272.18 3.83529 -1.29181 0
M  V30 13350 H 1270.75 3.07777 -0.546997 0
M  V30 13351 H 1269.97 2.57821 -2.98198 0
M  V30 13352 H 1271.26 3.66726 -3.52689 0
M  V30 13353 H 1270.65 5.57169 -0.978737 0
M  V30 13354 H 1269.21 6.34204 -1.50428 0
M  V30 13355 N 1272.64 1.35187 0.810078 0
M  V30 13356 C 1273.89 1.29463 1.56879 0
M  V30 13357 C 1274.25 -0.130837 1.91955 0
M  V30 13358 O 1273.54 -1.08036 1.58236 0
M  V30 13359 C 1273.73 2.13135 2.86894 0
M  V30 13360 C 1273.56 3.63674 2.64521 0
M  V30 13361 C 1272.33 4.32918 2.60595 0
M  V30 13362 C 1274.53 4.57398 2.35141 0
M  V30 13363 N 1272.51 5.69226 2.29902 0
M  V30 13364 C 1273.88 5.81802 2.14257 0
M  V30 13365 C 1275.94 4.46177 2.20976 0
M  V30 13366 C 1274.64 6.96248 1.80641 0
M  V30 13367 C 1276.67 5.60469 1.88756 0
M  V30 13368 C 1276.03 6.83899 1.68704 0
M  V30 13369 H 1272.13 0.528991 0.575927 0
M  V30 13370 H 1274.71 1.70032 0.948529 0
M  V30 13371 H 1272.88 1.74842 3.46821 0
M  V30 13372 H 1274.61 1.98957 3.52418 0
M  V30 13373 H 1271.37 3.85494 2.75121 0
M  V30 13374 H 1271.79 6.41158 2.1736 0
M  V30 13375 H 1276.44 3.51357 2.35177 0
M  V30 13376 H 1274.15 7.91039 1.65176 0
M  V30 13377 H 1277.74 5.53738 1.78509 0
M  V30 13378 H 1276.62 7.7084 1.44136 0
M  V30 13379 N 1274.12 -1.03182 1.19127 0
M  V30 13380 C 1275.09 -2.09559 0.928307 0
M  V30 13381 C 1276.09 -1.60548 -0.0899992 0
M  V30 13382 O 1277.28 -1.736 0.144422 0
M  V30 13383 C 1274.41 -3.38609 0.394561 0
M  V30 13384 H 1275.6 -2.34321 1.87173 0
M  V30 13385 H 1273.15 -1.19746 1.00452 0
M  V30 13386 H 1273.89 -3.19515 -0.555046 0
M  V30 13387 H 1273.67 -3.75502 1.12873 0
M  V30 13388 H 1275.16 -4.16969 0.229569 0
M  V30 13389 N 1275.6 -0.99472 -1.22242 0
M  V30 13390 C 1276.83 -0.689809 -1.95592 0
M  V30 13391 C 1277.25 0.739321 -1.72961 0
M  V30 13392 O 1276.61 1.50563 -1.00997 0
M  V30 13393 C 1276.66 -1.00367 -3.46351 0
M  V30 13394 O 1275.76 -0.103326 -4.12271 0
M  V30 13395 H 1275.1 -0.257997 -0.611828 0
M  V30 13396 H 1277.63 -1.33219 -1.55286 0
M  V30 13397 H 1277.64 -0.946259 -3.96875 0
M  V30 13398 H 1276.32 -2.04504 -3.62148 0
M  V30 13399 H 1274.89 -0.216374 -3.72272 0
M  V30 13400 N 1277.08 1.37613 -0.768148 0
M  V30 13401 C 1278.32 2.00075 -0.331331 0
M  V30 13402 C 1278.66 1.60839 1.08833 0
M  V30 13403 O 1277.93 0.852849 1.74805 0
M  V30 13404 C 1278.22 3.57009 -0.470789 0
M  V30 13405 C 1278.07 4.06166 -1.9326 0
M  V30 13406 C 1279.39 4.39916 0.127111 0
M  V30 13407 H 1276.51 0.726855 -0.121864 0
M  V30 13408 H 1279.15 1.63343 -0.970518 0
M  V30 13409 H 1277.3 3.88431 0.0733688 0
M  V30 13410 H 1278.97 3.85325 -2.53618 0
M  V30 13411 H 1277.21 3.58492 -2.44266 0
M  V30 13412 H 1277.88 5.15219 -1.98125 0
M  V30 13413 H 1280.36 4.14732 -0.337144 0
M  V30 13414 H 1279.24 5.489 -0.000624226 0
M  V30 13415 H 1279.5 4.25018 1.21704 0
M  V30 13416 N 1278.56 0.518393 1.4883 0
M  V30 13417 C 1279.81 -0.0218436 2.01688 0
M  V30 13418 C 1280.12 -1.36421 1.40174 0
M  V30 13419 O 1281.32 -1.99214 1.84461 0
M  V30 13420 C 1279.78 -0.0893538 3.59789 0
M  V30 13421 C 1279.39 1.24741 4.30283 0
M  V30 13422 C 1281.13 -0.579032 4.20532 0
M  V30 13423 C 1279.04 1.14112 5.80286 0
M  V30 13424 H 1277.97 -0.0119353 0.753906 0
M  V30 13425 H 1280.62 0.660432 1.71203 0
M  V30 13426 H 1279 -0.836458 3.87065 0
M  V30 13427 H 1280.18 2.00917 4.14691 0
M  V30 13428 H 1278.49 1.67191 3.81361 0
M  V30 13429 H 1281.09 -0.676343 5.30405 0
M  V30 13430 H 1281.43 -1.58207 3.85067 0
M  V30 13431 H 1281.96 0.112046 3.97642 0
M  V30 13432 H 1278.7 2.11895 6.20307 0
M  V30 13433 H 1278.22 0.420535 5.98324 0
M  V30 13434 H 1279.9 0.826992 6.41693 0
M  V30 13435 N 1280.03 -1.55556 0.252993 0
M  V30 13436 C 1281.45 -1.59276 -0.101714 0
M  V30 13437 C 1281.65 -1.27018 -1.56424 0
M  V30 13438 O 1280.71 -1.02042 -2.30963 0
M  V30 13439 C 1282.02 -2.99634 0.252969 0
M  V30 13440 C 1283.57 -3.12375 0.197767 0
M  V30 13441 C 1284.04 -4.54963 0.52657 0
M  V30 13442 N 1285.53 -4.60734 0.477296 0
M  V30 13443 C 1286.27 -5.69052 0.704793 0
M  V30 13444 N 1285.76 -6.85607 0.99574 0
M  V30 13445 N 1287.56 -5.58501 0.635086 0
M  V30 13446 H 1279.71 -1.74793 1.2067 0
M  V30 13447 H 1281.97 -0.813971 0.485958 0
M  V30 13448 H 1281.68 -3.27998 1.26926 0
M  V30 13449 H 1281.55 -3.74888 -0.416984 0
M  V30 13450 H 1283.94 -2.83788 -0.809209 0
M  V30 13451 H 1284.02 -2.39382 0.901659 0
M  V30 13452 H 1283.66 -4.84271 1.53113 0
M  V30 13453 H 1283.59 -5.26224 -0.198869 0
M  V30 13454 H 1286.08 -3.76995 0.261398 0
M  V30 13455 H 1286.4 -7.64096 1.15659 0
M  V30 13456 H 1284.74 -6.87276 1.03328 0
M  V30 13457 H 1287.93 -4.6632 0.407789 0
M  V30 13458 H 1288.11 -6.42845 0.815777 0
M  V30 13459 N 1281.51 0.0200419 -1.57587 0
M  V30 13460 C 1282.76 0.710078 -1.89962 0
M  V30 13461 C 1283.09 1.74521 -0.851829 0
M  V30 13462 O 1282.37 1.94052 0.132005 0
M  V30 13463 C 1282.65 1.37145 -3.32961 0
M  V30 13464 C 1282.5 0.349221 -4.48442 0
M  V30 13465 C 1283.82 2.30304 -3.75031 0
M  V30 13466 H 1280.94 0.25667 -0.690862 0
M  V30 13467 H 1283.58 -0.0271362 -1.89981 0
M  V30 13468 H 1281.73 1.99981 -3.33076 0
M  V30 13469 H 1283.4 -0.277916 -4.60462 0
M  V30 13470 H 1281.65 -0.330594 -4.32538 0
M  V30 13471 H 1282.32 0.850636 -5.45406 0
M  V30 13472 H 1284.79 1.77503 -3.7634 0
M  V30 13473 H 1283.67 2.73555 -4.75877 0
M  V30 13474 H 1283.93 3.17364 -3.07786 0
M  V30 13475 N 1282.99 1.54862 0.292472 0
M  V30 13476 C 1283.92 1.81298 1.38586 0
M  V30 13477 C 1284.9 0.664704 1.48393 0
M  V30 13478 O 1286.09 0.905595 1.65322 0
M  V30 13479 C 1283.21 1.9573 2.76419 0
M  V30 13480 C 1282.26 3.18197 2.83994 0
M  V30 13481 S 1283.09 4.76054 2.45219 0
M  V30 13482 C 1284.25 4.93433 3.85064 0
M  V30 13483 H 1284.48 2.73755 1.15955 0
M  V30 13484 H 1282.01 1.46383 0.491053 0
M  V30 13485 H 1283.97 2.0473 3.55803 0
M  V30 13486 H 1282.63 1.04196 2.96314 0
M  V30 13487 H 1281.83 3.25123 3.85112 0
M  V30 13488 H 1281.43 3.07688 2.12613 0
M  V30 13489 H 1283.72 4.7798 4.80148 0
M  V30 13490 H 1284.66 5.95515 3.83103 0
M  V30 13491 H 1285.07 4.2153 3.75463 0
M  V30 13492 N 1284.47 -0.556076 1.47464 0
M  V30 13493 C 1285.42 -1.68406 1.60444 0
M  V30 13494 C 1286.41 -1.627 0.471713 0
M  V30 13495 O 1287.62 -1.67871 0.649551 0
M  V30 13496 H 1283.99 -0.557255 0.504946 0
M  V30 13497 H 1285.96 -1.54595 2.55231 0
M  V30 13498 C 1284.71 -3.06756 1.63695 0
M  V30 13499 H 1284.03 -3.11829 2.50206 0
M  V30 13500 H 1285.47 -3.85368 1.76827 0
M  V30 13501 C 1283.93 -3.34857 0.370485 0
M  V30 13502 O 1284.46 -3.98216 -0.527942 0
M  V30 13503 N 1282.67 -2.89521 0.250163 0
M  V30 13504 H 1282.22 -2.3814 0.982204 0
M  V30 13505 H 1282.17 -3.08694 -0.596268 0
M  V30 13506 N 1285.95 -1.35615 -0.802897 0
M  V30 13507 C 1287.36 -1.26062 -1.37715 0
M  V30 13508 C 1287.71 0.105411 -1.95917 0
M  V30 13509 O 1286.83 1.00648 -1.91569 0
M  V30 13510 C 1287.43 -2.28261 -2.50365 0
M  V30 13511 C 1285.99 -2.22437 -3.03642 0
M  V30 13512 C 1285.14 -2.1377 -1.76629 0
M  V30 13513 H 1288.09 -1.46689 -0.605631 0
M  V30 13514 H 1288.11 -1.91122 -3.29017 0
M  V30 13515 H 1287.62 -3.27671 -2.07975 0
M  V30 13516 H 1285.72 -1.2645 -3.50487 0
M  V30 13517 H 1285.83 -3.14558 -3.61373 0
M  V30 13518 H 1284.2 -1.59806 -1.98328 0
M  V30 13519 H 1284.98 -3.15046 -1.36385 0
M  V30 13520 N 1287.43 1.02549 -1.19673 0
M  V30 13521 C 1288.67 1.75408 -0.995732 0
M  V30 13522 C 1288.99 1.89773 0.473863 0
M  V30 13523 O 1290.19 2.59638 0.793762 0
M  V30 13524 C 1288.65 3.15444 -1.73273 0
M  V30 13525 C 1288.26 3.09121 -3.24266 0
M  V30 13526 C 1290 3.92575 -1.61509 0
M  V30 13527 C 1287.91 4.44109 -3.9054 0
M  V30 13528 H 1286.84 0.657569 -0.368944 0
M  V30 13529 H 1289.49 1.14739 -1.43203 0
M  V30 13530 H 1287.87 3.76601 -1.22425 0
M  V30 13531 H 1289.05 2.57325 -3.82257 0
M  V30 13532 H 1287.36 2.45485 -3.36342 0
M  V30 13533 H 1289.96 4.92428 -2.08372 0
M  V30 13534 H 1290.3 4.12382 -0.569804 0
M  V30 13535 H 1290.83 3.38027 -2.09721 0
M  V30 13536 H 1287.57 4.29506 -4.95182 0
M  V30 13537 H 1287.09 4.95947 -3.37337 0
M  V30 13538 H 1288.77 5.12982 -3.94282 0
M  V30 13539 N 1288.9 1.00119 1.21713 0
M  V30 13540 C 1289.84 0.516633 2.23301 0
M  V30 13541 C 1290.85 -0.392732 1.57992 0
M  V30 13542 O 1292.04 -0.19354 1.77448 0
M  V30 13543 C 1289.14 -0.269612 3.37826 0
M  V30 13544 C 1288.31 0.637898 4.32723 0
M  V30 13545 C 1287.37 -0.0980745 5.26109 0
M  V30 13546 O 1286.4 0.519302 5.66826 0
M  V30 13547 N 1287.6 -1.37783 5.63911 0
M  V30 13548 H 1290.36 1.39022 2.65505 0
M  V30 13549 H 1287.92 0.87688 1.36097 0
M  V30 13550 H 1289.92 -0.770826 3.97291 0
M  V30 13551 H 1288.49 -1.04436 2.94638 0
M  V30 13552 H 1287.71 1.31966 3.71455 0
M  V30 13553 H 1288.99 1.25564 4.93063 0
M  V30 13554 H 1288.39 -1.90061 5.32817 0
M  V30 13555 H 1286.95 -1.82407 6.25756 0
M  V30 13556 N 1290.38 -1.37203 0.775435 0
M  V30 13557 C 1291.63 -1.99207 0.340756 0
M  V30 13558 C 1291.95 -1.61861 -1.08747 0
M  V30 13559 O 1291.22 -0.88583 -1.74728 0
M  V30 13560 H 1289.8 -0.736803 0.123004 0
M  V30 13561 H 1292.46 -1.67625 0.994379 0
M  V30 13562 H 1291.56 -3.09243 0.421346 0
M  V30 13563 N 1291.86 -0.526279 -1.48553 0
M  V30 13564 C 1292.81 0.251938 -2.31232 0
M  V30 13565 C 1293.8 0.938991 -1.40994 0
M  V30 13566 O 1295.01 0.863798 -1.57919 0
M  V30 13567 H 1291.38 0.100114 -0.745306 0
M  V30 13568 H 1293.35 -0.465013 -2.94754 0
M  V30 13569 C 1292.1 1.28816 -3.22958 0
M  V30 13570 H 1291.43 0.768899 -3.92337 0
M  V30 13571 H 1292.87 1.80417 -3.837 0
M  V30 13572 C 1291.32 2.31982 -2.44307 0
M  V30 13573 O 1291.85 3.3835 -2.16523 0
M  V30 13574 N 1290.06 2.051 -2.05869 0
M  V30 13575 H 1289.61 1.18618 -2.28665 0
M  V30 13576 H 1289.57 2.74349 -1.53557 0
M  V30 13577 N 1293.34 1.5542 -0.261239 0
M  V30 13578 C 1294.57 2.03687 0.363225 0
M  V30 13579 C 1294.98 1.14007 1.50492 0
M  V30 13580 O 1294.34 0.157349 1.8182 0
M  V30 13581 C 1294.39 3.51184 0.857435 0
M  V30 13582 O 1294.11 4.37449 -0.238776 0
M  V30 13583 C 1295.61 4.15277 1.55113 0
M  V30 13584 H 1292.83 0.665641 0.0846356 0
M  V30 13585 H 1295.37 2.00761 -0.389288 0
M  V30 13586 H 1293.53 3.54599 1.56008 0
M  V30 13587 H 1293.94 5.24316 0.138821 0
M  V30 13588 H 1295.42 5.20129 1.8485 0
M  V30 13589 H 1295.89 3.62619 2.47799 0
M  V30 13590 H 1296.5 4.15826 0.892695 0
M  V30 13591 N 1294.82 -0.0116844 1.57596 0
M  V30 13592 C 1295.75 -1.00599 2.10718 0
M  V30 13593 C 1296.73 -1.36601 1.01362 0
M  V30 13594 O 1297.91 -1.4518 1.28982 0
M  V30 13595 C 1295.04 -2.30155 2.60089 0
M  V30 13596 C 1294 -2.08347 3.73866 0
M  V30 13597 C 1293.32 -3.43814 4.09507 0
M  V30 13598 C 1294.62 -1.45552 5.01609 0
M  V30 13599 H 1296.32 -0.563721 2.94045 0
M  V30 13600 H 1293.86 -0.269714 1.41452 0
M  V30 13601 H 1295.81 -3.00058 2.95877 0
M  V30 13602 H 1294.54 -2.76473 1.73868 0
M  V30 13603 H 1293.2 -1.40872 3.38453 0
M  V30 13604 H 1292.85 -3.87814 3.20326 0
M  V30 13605 H 1292.55 -3.30043 4.86154 0
M  V30 13606 H 1294.07 -4.15052 4.47844 0
M  V30 13607 H 1295.48 -2.05396 5.35243 0
M  V30 13608 H 1293.88 -1.42304 5.82983 0
M  V30 13609 H 1294.95 -0.423331 4.83049 0
M  V30 13610 N 1296.29 -1.55015 -0.284256 0
M  V30 13611 C 1297.57 -1.6579 -1.03794 0
M  V30 13612 C 1297.95 -0.517029 -2.04671 0
M  V30 13613 O 1297.3 0.484287 -2.23309 0
M  V30 13614 C 1297.51 -3.04527 -1.70483 0
M  V30 13615 C 1298.86 -3.61903 -2.22062 0
M  V30 13616 O 1299.88 -3.07087 -1.80488 0
M  V30 13617 O 1298.74 -4.57917 -2.98286 0
M  V30 13618 H 1295.83 -0.672906 -0.480757 0
M  V30 13619 H 1298.38 -1.67357 -0.281009 0
M  V30 13620 H 1297.15 -3.79004 -0.973238 0
M  V30 13621 H 1296.77 -3.0681 -2.5289 0
M  V30 13622 N 1297.77 0.548248 -1.47757 0
M  V30 13623 C 1298.7 1.66409 -1.63799 0
M  V30 13624 C 1299.68 1.62973 -0.487211 0
M  V30 13625 O 1300.87 1.80455 -0.717612 0
M  V30 13626 C 1298 3.05035 -1.66046 0
M  V30 13627 C 1296.95 3.23322 -2.80441 0
M  V30 13628 C 1296.28 4.62824 -2.67765 0
M  V30 13629 C 1297.58 3.07837 -4.2194 0
M  V30 13630 H 1299.27 1.53239 -2.57212 0
M  V30 13631 H 1296.82 0.735783 -1.23783 0
M  V30 13632 H 1298.77 3.82951 -1.75859 0
M  V30 13633 H 1297.49 3.19185 -0.69199 0
M  V30 13634 H 1296.15 2.47816 -2.70153 0
M  V30 13635 H 1295.8 4.73786 -1.68927 0
M  V30 13636 H 1295.5 4.76007 -3.44515 0
M  V30 13637 H 1297.03 5.42864 -2.7952 0
M  V30 13638 H 1298.44 3.75563 -4.33157 0
M  V30 13639 H 1296.84 3.32525 -4.99547 0
M  V30 13640 H 1297.91 2.04474 -4.3968 0
M  V30 13641 N 1299.25 1.36039 0.795694 0
M  V30 13642 C 1300.5 1.30112 1.5556 0
M  V30 13643 C 1300.83 -0.121197 1.93821 0
M  V30 13644 O 1300.1 -1.07313 1.62216 0
M  V30 13645 C 1300.39 2.21792 2.8369 0
M  V30 13646 C 1300.24 3.72691 2.51836 0
M  V30 13647 C 1301.56 2.12365 3.85472 0
M  V30 13648 H 1298.68 0.473971 0.564376 0
M  V30 13649 H 1301.32 1.66536 0.91465 0
M  V30 13650 H 1299.47 1.9086 3.38386 0
M  V30 13651 H 1301.14 4.14115 2.0324 0
M  V30 13652 H 1299.38 3.92436 1.84869 0
M  V30 13653 H 1300.06 4.32242 3.43323 0
M  V30 13654 H 1302.53 2.3958 3.40207 0
M  V30 13655 H 1301.41 2.78695 4.72885 0
M  V30 13656 H 1301.67 1.10898 4.27965 0
M  V30 13657 N 1300.73 -1.01913 1.20215 0
M  V30 13658 C 1301.66 -2.10513 0.906476 0
M  V30 13659 C 1302.67 -1.62463 -0.104758 0
M  V30 13660 O 1303.86 -1.78055 0.12593 0
M  V30 13661 C 1300.96 -3.3722 0.337012 0
M  V30 13662 C 1300.14 -4.14417 1.39917 0
M  V30 13663 C 1299.19 -5.19428 0.841489 0
M  V30 13664 O 1298.22 -5.48486 1.52157 0
M  V30 13665 N 1299.42 -5.79442 -0.350365 0
M  V30 13666 H 1302.19 -2.36465 1.84132 0
M  V30 13667 H 1299.75 -1.18283 1.10548 0
M  V30 13668 H 1301.74 -4.04669 -0.0501507 0
M  V30 13669 H 1300.31 -3.08538 -0.502325 0
M  V30 13670 H 1299.53 -3.41975 1.96078 0
M  V30 13671 H 1300.82 -4.62777 2.1146 0
M  V30 13672 H 1300.22 -5.58166 -0.920204 0
M  V30 13673 H 1298.77 -6.48252 -0.679194 0
M  V30 13674 N 1302.21 -1.00763 -1.2118 0
M  V30 13675 C 1303.14 -0.590493 -2.2591 0
M  V30 13676 C 1304.12 0.390002 -1.65569 0
M  V30 13677 O 1305.3 0.277406 -1.92208 0
M  V30 13678 C 1302.43 0.0810388 -3.47205 0
M  V30 13679 C 1301.39 -0.81951 -4.20081 0
M  V30 13680 C 1300.71 -0.014244 -5.34698 0
M  V30 13681 C 1302.01 -2.12336 -4.7719 0
M  V30 13682 H 1303.71 -1.46595 -2.61056 0
M  V30 13683 H 1301.25 -0.706321 -1.25487 0
M  V30 13684 H 1303.21 0.384355 -4.19644 0
M  V30 13685 H 1301.93 0.991145 -3.11197 0
M  V30 13686 H 1300.59 -1.10669 -3.49497 0
M  V30 13687 H 1300.24 0.897233 -4.94933 0
M  V30 13688 H 1299.94 -0.613883 -5.84384 0
M  V30 13689 H 1301.46 0.282827 -6.09945 0
M  V30 13690 H 1302.87 -1.88301 -5.41494 0
M  V30 13691 H 1301.27 -2.67308 -5.37277 0
M  V30 13692 H 1302.34 -2.79238 -3.96427 0
M  V30 13693 N 1303.68 1.3679 -0.7827 0
M  V30 13694 C 1304.59 2.33928 -0.17747 0
M  V30 13695 C 1305.61 1.60716 0.666802 0
M  V30 13696 O 1306.79 1.92742 0.584162 0
M  V30 13697 C 1303.85 3.39907 0.68294 0
M  V30 13698 C 1302.91 4.28926 -0.179053 0
M  V30 13699 C 1302.15 5.29844 0.640386 0
M  V30 13700 O 1302.37 5.38639 1.87681 0
M  V30 13701 O 1301.3 6.01884 0.0438164 0
M  V30 13702 H 1305.13 2.87439 -0.980441 0
M  V30 13703 H 1302.71 1.39142 -0.54404 0
M  V30 13704 H 1304.6 4.04722 1.17379 0
M  V30 13705 H 1303.27 2.88706 1.46391 0
M  V30 13706 H 1302.18 3.67174 -0.716512 0
M  V30 13707 H 1303.51 4.83461 -0.923377 0
M  V30 13708 N 1305.16 0.53415 1.48272 0
M  V30 13709 C 1306.09 -0.263508 2.2768 0
M  V30 13710 C 1307.11 -0.90064 1.35618 0
M  V30 13711 O 1308.3 -0.778379 1.60635 0
M  V30 13712 C 1305.4 -1.38878 3.09138 0
M  V30 13713 C 1304.57 -0.852784 4.29006 0
M  V30 13714 C 1303.63 -1.85969 4.92242 0
M  V30 13715 O 1302.65 -1.41497 5.51332 0
M  V30 13716 N 1303.86 -3.19207 4.84858 0
M  V30 13717 H 1306.62 0.417548 2.96777 0
M  V30 13718 H 1304.18 0.368743 1.57645 0
M  V30 13719 H 1306.17 -2.06062 3.48311 0
M  V30 13720 H 1304.74 -1.97343 2.42434 0
M  V30 13721 H 1303.96 -0.0048227 3.942 0
M  V30 13722 H 1305.25 -0.473634 5.06591 0
M  V30 13723 H 1304.65 -3.58001 4.38009 0
M  V30 13724 H 1303.21 -3.82013 5.28119 0
M  V30 13725 N 1306.64 -1.55279 0.269478 0
M  V30 13726 C 1307.59 -2.23723 -0.636468 0
M  V30 13727 C 1308.58 -1.23234 -1.16232 0
M  V30 13728 O 1309.79 -1.41181 -1.1166 0
M  V30 13729 H 1306.16 -0.71793 -0.223788 0
M  V30 13730 H 1308.13 -2.98378 -0.0363057 0
M  V30 13731 C 1306.88 -2.96755 -1.81195 0
M  V30 13732 H 1306.21 -3.73865 -1.4165 0
M  V30 13733 H 1307.65 -3.47975 -2.42258 0
M  V30 13734 C 1306.11 -2.01905 -2.69696 0
M  V30 13735 O 1306.64 -1.56662 -3.69892 0
M  V30 13736 N 1304.84 -1.68524 -2.36744 0
M  V30 13737 H 1304.39 -2.05512 -1.55314 0
M  V30 13738 H 1304.35 -1.05331 -2.96231 0
M  V30 13739 N 1308.12 0.00332656 -1.576 0
M  V30 13740 C 1309.03 1.01221 -2.1164 0
M  V30 13741 C 1310.04 1.37918 -1.06088 0
M  V30 13742 O 1311.22 1.46717 -1.37971 0
M  V30 13743 C 1308.29 2.28638 -2.60626 0
M  V30 13744 C 1307.35 1.98284 -3.80765 0
M  V30 13745 C 1306.58 3.19626 -4.27405 0
M  V30 13746 O 1306.8 4.31196 -3.73398 0
M  V30 13747 O 1305.74 3.03819 -5.19594 0
M  V30 13748 H 1309.56 0.582839 -2.98055 0
M  V30 13749 H 1307.15 0.221947 -1.47742 0
M  V30 13750 H 1309.03 3.03498 -2.92347 0
M  V30 13751 H 1307.7 2.70819 -1.7731 0
M  V30 13752 H 1306.61 1.2091 -3.54022 0
M  V30 13753 H 1307.94 1.60942 -4.65144 0
M  V30 13754 N 1309.6 1.55164 0.276031 0
M  V30 13755 C 1310.56 1.87065 1.32436 0
M  V30 13756 C 1311.56 0.745024 1.42499 0
M  V30 13757 O 1312.75 1.01321 1.41702 0
M  V30 13758 C 1309.88 2.07322 2.70611 0
M  V30 13759 H 1311.07 2.80775 1.05382 0
M  V30 13760 H 1308.63 1.47609 0.513947 0
M  V30 13761 H 1309.36 1.15983 3.0285 0
M  V30 13762 H 1309.15 2.89275 2.64693 0
M  V30 13763 H 1310.64 2.33287 3.46362 0
M  V30 13764 N 1311.07 -0.540404 1.48045 0
M  V30 13765 C 1312.04 -1.62813 1.61322 0
M  V30 13766 C 1313.04 -1.53243 0.487161 0
M  V30 13767 O 1314.23 -1.571 0.752684 0
M  V30 13768 C 1311.36 -3.02408 1.5736 0
M  V30 13769 H 1312.55 -1.52385 2.583 0
M  V30 13770 H 1310.11 -0.761654 1.36486 0
M  V30 13771 H 1310.84 -3.18353 0.618195 0
M  V30 13772 H 1310.63 -3.10763 2.39099 0
M  V30 13773 H 1312.12 -3.8151 1.69822 0
M  V30 13774 N 1312.55 -1.36459 -0.788468 0
M  V30 13775 C 1313.8 -1.30741 -1.54638 0
M  V30 13776 C 1314.13 0.113029 -1.94171 0
M  V30 13777 O 1313.38 1.08252 -1.63034 0
M  V30 13778 C 1313.68 -2.17672 -2.83467 0
M  V30 13779 C 1313.35 -3.66205 -2.63067 0
M  V30 13780 C 1312.01 -4.06688 -2.57212 0
M  V30 13781 C 1314.36 -4.60376 -2.44343 0
M  V30 13782 C 1311.69 -5.39482 -2.306 0
M  V30 13783 C 1314.04 -5.93388 -2.19258 0
M  V30 13784 C 1312.71 -6.32994 -2.11836 0
M  V30 13785 H 1311.98 -0.478416 -0.565862 0
M  V30 13786 H 1314.62 -1.68519 -0.909588 0
M  V30 13787 H 1312.93 -1.72834 -3.51619 0
M  V30 13788 H 1314.62 -2.10573 -3.41263 0
M  V30 13789 H 1311.21 -3.3409 -2.6848 0
M  V30 13790 H 1315.4 -4.29971 -2.47868 0
M  V30 13791 H 1310.65 -5.69149 -2.23337 0
M  V30 13792 H 1314.83 -6.65923 -2.03765 0
M  V30 13793 H 1312.46 -7.3582 -1.90978 0
M  V30 13794 N 1314.03 1.01274 -1.20754 0
M  V30 13795 C 1315.26 1.7906 -1.04653 0
M  V30 13796 C 1315.68 1.83806 0.399632 0
M  V30 13797 O 1315.04 1.27596 1.28798 0
M  V30 13798 C 1315.09 3.21187 -1.63925 0
M  V30 13799 O 1314.19 4.02913 -0.879486 0
M  V30 13800 H 1313.53 0.552147 -0.368823 0
M  V30 13801 H 1316.06 1.27356 -1.6013 0
M  V30 13802 H 1316.07 3.71887 -1.67822 0
M  V30 13803 H 1314.75 3.17048 -2.69172 0
M  V30 13804 H 1313.32 3.61499 -0.915019 0
M  V30 13805 N 1315.51 1.01404 1.20644 0
M  V30 13806 C 1316.76 0.702949 1.90227 0
M  V30 13807 C 1317.09 -0.765243 1.78487 0
M  V30 13808 O 1316.36 -1.55569 1.16741 0
M  V30 13809 C 1316.65 1.13606 3.4171 0
M  V30 13810 C 1316.5 2.66437 3.62397 0
M  V30 13811 C 1317.82 0.705361 4.34411 0
M  V30 13812 H 1314.94 0.256842 0.690797 0
M  V30 13813 H 1317.58 1.26133 1.42093 0
M  V30 13814 H 1315.73 0.660977 3.82836 0
M  V30 13815 H 1317.4 3.21778 3.3054 0
M  V30 13816 H 1315.64 3.0753 3.05954 0
M  V30 13817 H 1316.32 2.91795 4.68572 0
M  V30 13818 H 1318.79 1.11375 4.00918 0
M  V30 13819 H 1317.67 1.03647 5.39026 0
M  V30 13820 H 1317.93 -0.393094 4.40349 0
M  V30 13821 N 1316.99 -1.36373 0.789944 0
M  V30 13822 C 1317.95 -2.28372 0.194639 0
M  V30 13823 C 1318.95 -1.48849 -0.608332 0
M  V30 13824 O 1320.14 -1.68829 -0.42925 0
M  V30 13825 C 1317.27 -3.3298 -0.730553 0
M  V30 13826 H 1318.47 -2.82529 1.00585 0
M  V30 13827 H 1316.02 -1.45946 0.559406 0
M  V30 13828 H 1316.75 -2.8398 -1.56608 0
M  V30 13829 H 1316.54 -3.91787 -0.156706 0
M  V30 13830 H 1318.03 -4.01684 -1.14192 0
M  V30 13831 N 1318.47 -0.542005 -1.47987 0
M  V30 13832 C 1319.71 -0.0123299 -2.02796 0
M  V30 13833 C 1320.04 1.32789 -1.41707 0
M  V30 13834 O 1319.32 1.86048 -0.567119 0
M  V30 13835 C 1319.6 0.0969277 -3.5997 0
M  V30 13836 C 1319.46 -1.26931 -4.31519 0
M  V30 13837 C 1320.77 0.817854 -4.32434 0
M  V30 13838 H 1317.89 -0.00595479 -0.736976 0
M  V30 13839 H 1320.54 -0.70136 -1.76581 0
M  V30 13840 H 1318.69 0.683755 -3.82436 0
M  V30 13841 H 1320.36 -1.89817 -4.20437 0
M  V30 13842 H 1318.6 -1.84804 -3.92467 0
M  V30 13843 H 1319.27 -1.14573 -5.39979 0
M  V30 13844 H 1321.75 0.319749 -4.1487 0
M  V30 13845 H 1320.62 0.863225 -5.4207 0
M  V30 13846 H 1320.88 1.87075 -4.00569 0
M  V30 13847 N 1319.94 1.55134 -0.277709 0
M  V30 13848 C 1321.18 2.01561 0.339489 0
M  V30 13849 C 1321.55 1.16185 1.52856 0
M  V30 13850 O 1322.75 1.52204 2.21556 0
M  V30 13851 C 1321.02 3.50285 0.709567 0
M  V30 13852 S 1322.58 4.18697 1.31293 0
M  V30 13853 H 1319.4 0.703137 0.105452 0
M  V30 13854 H 1322 1.91361 -0.400148 0
M  V30 13855 H 1320.7 4.10069 -0.164675 0
M  V30 13856 H 1320.23 3.64475 1.4806 0
M  V30 13857 H 1322.25 4.22539 2.60145 0
M  V30 13858 N 1321.42 0.00503138 1.57599 0
M  V30 13859 C 1322.84 -0.351109 1.5569 0
M  V30 13860 C 1323.04 -1.74465 1.00818 0
M  V30 13861 O 1322.09 -2.44144 0.64422 0
M  V30 13862 C 1323.41 -0.221738 2.99881 0
M  V30 13863 C 1324.95 -0.296303 3.11594 0
M  V30 13864 C 1325.43 -0.195998 4.5758 0
M  V30 13865 N 1326.92 -0.253741 4.62504 0
M  V30 13866 C 1327.66 -0.199546 5.73053 0
M  V30 13867 N 1327.15 -0.0956553 6.92734 0
M  V30 13868 N 1328.94 -0.251779 5.61536 0
M  V30 13869 H 1321.1 0.916578 1.91605 0
M  V30 13870 H 1323.36 0.351802 0.880306 0
M  V30 13871 H 1323.06 0.737255 3.43886 0
M  V30 13872 H 1322.94 -1.00178 3.63654 0
M  V30 13873 H 1325.33 -1.24574 2.67517 0
M  V30 13874 H 1325.41 0.513692 2.50589 0
M  V30 13875 H 1325.05 0.749918 5.02333 0
M  V30 13876 H 1324.98 -1.02455 5.16537 0
M  V30 13877 H 1327.47 -0.335163 3.76411 0
M  V30 13878 H 1327.78 -0.0603357 7.72776 0
M  V30 13879 H 1326.13 -0.0612113 6.94973 0
M  V30 13880 H 1329.32 -0.331173 4.66927 0
M  V30 13881 H 1329.49 -0.206078 6.47672 0
M  V30 13882 N 1322.9 -1.55308 -0.267798 0
M  V30 13883 C 1324.15 -1.76159 -0.998707 0
M  V30 13884 C 1324.47 -0.565573 -1.86095 0
M  V30 13885 O 1323.73 0.45178 -1.90414 0
M  V30 13886 C 1324.03 -3.02286 -1.90678 0
M  V30 13887 C 1323.69 -4.34594 -1.20161 0
M  V30 13888 C 1322.36 -4.70553 -1.00664 0
M  V30 13889 C 1324.71 -5.16475 -0.7002 0
M  V30 13890 C 1322.04 -5.85945 -0.297629 0
M  V30 13891 C 1324.39 -6.326 -0.00475187 0
M  V30 13892 C 1323.05 -6.67195 0.20188 0
M  V30 13893 H 1322.32 -0.644613 -0.365453 0
M  V30 13894 H 1324.97 -1.89579 -0.270545 0
M  V30 13895 H 1323.27 -2.83788 -2.70133 0
M  V30 13896 H 1324.97 -3.15615 -2.47362 0
M  V30 13897 H 1321.56 -4.06334 -1.36348 0
M  V30 13898 H 1325.75 -4.89167 -0.838435 0
M  V30 13899 H 1321 -6.11268 -0.126864 0
M  V30 13900 H 1325.18 -6.95299 0.39151 0
M  V30 13901 H 1322.8 -7.56459 0.753252 0
M  V30 13902 N 1324.38 0.532545 -1.4833 0
M  V30 13903 C 1325.6 1.31809 -1.60129 0
M  V30 13904 C 1326.03 1.86283 -0.260807 0
M  V30 13905 O 1325.39 1.6427 0.767137 0
M  V30 13906 C 1325.43 2.44661 -2.64903 0
M  V30 13907 O 1324.54 3.47622 -2.21885 0
M  V30 13908 H 1323.88 0.390492 -0.53704 0
M  V30 13909 H 1326.41 0.641068 -1.94297 0
M  V30 13910 H 1326.42 2.90883 -2.86096 0
M  V30 13911 H 1325.09 2.04373 -3.62222 0
M  V30 13912 H 1323.67 3.07536 -2.10894 0
M  V30 13913 N 1325.86 1.36875 0.78122 0
M  V30 13914 C 1326.8 1.31941 1.91557 0
M  V30 13915 C 1327.8 0.209783 1.68096 0
M  V30 13916 O 1329 0.377266 1.76002 0
M  V30 13917 H 1325.38 0.410955 0.629778 0
M  V30 13918 H 1327.35 2.27721 1.92836 0
M  V30 13919 C 1326.1 1.13379 3.28695 0
M  V30 13920 H 1325.42 1.98013 3.47319 0
M  V30 13921 H 1326.86 1.13976 4.08394 0
M  V30 13922 C 1325.32 -0.161119 3.36515 0
M  V30 13923 O 1325.85 -1.14806 3.84945 0
M  V30 13924 N 1324.06 -0.208594 2.8985 0
M  V30 13925 H 1323.6 0.595187 2.5063 0
M  V30 13926 H 1323.56 -1.07465 2.95463 0
M  V30 13927 N 1327.33 -1.00632 1.21289 0
M  V30 13928 C 1328.56 -1.77967 1.05524 0
M  V30 13929 C 1328.98 -1.84621 -0.395023 0
M  V30 13930 O 1328.33 -1.30664 -1.27409 0
M  V30 13931 C 1328.38 -3.21939 1.64432 0
M  V30 13932 O 1328.11 -3.15669 3.03784 0
M  V30 13933 C 1329.61 -4.1578 1.5376 0
M  V30 13934 H 1326.83 -0.559341 0.370646 0
M  V30 13935 H 1329.37 -1.26604 1.60598 0
M  V30 13936 H 1327.53 -3.70415 1.13453 0
M  V30 13937 H 1327.94 -4.06112 3.31924 0
M  V30 13938 H 1329.41 -5.14602 1.99722 0
M  V30 13939 H 1329.89 -4.36438 0.491811 0
M  V30 13940 H 1330.5 -3.73192 2.0398 0
M  V30 13941 N 1328.81 -1.02043 -1.20104 0
M  V30 13942 C 1330.06 -0.710566 -1.89197 0
M  V30 13943 C 1330.38 0.762471 -1.79475 0
M  V30 13944 O 1329.65 1.54871 -1.19965 0
M  V30 13945 H 1328.23 -0.259839 -0.700352 0
M  V30 13946 H 1330.89 -1.29285 -1.45848 0
M  V30 13947 H 1329.99 -0.997363 -2.95735 0
M  V30 13948 N 1330.29 1.35952 -0.797165 0
M  V30 13949 C 1331.2 2.33726 -0.202271 0
M  V30 13950 C 1332.22 1.61415 0.649719 0
M  V30 13951 O 1333.39 1.93351 0.563686 0
M  V30 13952 C 1330.46 3.40612 0.64685 0
M  V30 13953 C 1329.52 4.28712 -0.224536 0
M  V30 13954 C 1328.75 5.30493 0.584153 0
M  V30 13955 O 1328.97 5.40599 1.81957 0
M  V30 13956 O 1327.91 6.01897 -0.0200239 0
M  V30 13957 H 1331.73 2.86383 -1.01087 0
M  V30 13958 H 1329.32 1.38557 -0.558768 0
M  V30 13959 H 1331.2 4.05944 1.1308 0
M  V30 13960 H 1329.88 2.90243 1.43321 0
M  V30 13961 H 1328.78 3.66394 -0.755415 0
M  V30 13962 H 1330.12 4.82454 -0.974603 0
M  V30 13963 N 1331.77 0.549846 1.47697 0
M  V30 13964 C 1333.05 -0.0422793 1.95554 0
M  V30 13965 C 1333.43 -1.49303 1.49238 0
M  V30 13966 O 1332.77 -2.16598 0.727844 0
M  V30 13967 C 1332.98 0.0955552 3.48869 0
M  V30 13968 C 1334.33 -0.0535698 4.24566 0
M  V30 13969 O 1335.36 0.0227365 3.56193 0
M  V30 13970 O 1334.21 -0.21645 5.46071 0
M  V30 13971 H 1331.31 -0.0682465 0.824179 0
M  V30 13972 H 1333.85 0.615849 1.58131 0
M  V30 13973 H 1332.63 1.10536 3.75363 0
M  V30 13974 H 1332.25 -0.600522 3.93039 0
M  V30 13975 N 1333.25 -1.54984 0.285932 0
M  V30 13976 C 1334.49 -2.00848 -0.321162 0
M  V30 13977 C 1334.85 -1.17086 -1.52672 0
M  V30 13978 O 1334.14 -0.235523 -1.90147 0
M  V30 13979 C 1334.33 -3.49581 -0.7435 0
M  V30 13980 C 1334.16 -4.47738 0.419586 0
M  V30 13981 C 1332.93 -4.97096 0.906821 0
M  V30 13982 C 1335.13 -4.98636 1.25963 0
M  V30 13983 N 1333.11 -5.79076 2.03824 0
M  V30 13984 C 1334.48 -5.78169 2.23878 0
M  V30 13985 C 1336.54 -4.80852 1.29174 0
M  V30 13986 C 1335.24 -6.41813 3.2476 0
M  V30 13987 C 1337.27 -5.45303 2.28906 0
M  V30 13988 C 1336.63 -6.24656 3.25552 0
M  V30 13989 H 1332.73 -0.777647 -0.0823951 0
M  V30 13990 H 1335.31 -1.90282 0.412418 0
M  V30 13991 H 1333.48 -3.60468 -1.44628 0
M  V30 13992 H 1335.22 -3.82261 -1.32885 0
M  V30 13993 H 1331.97 -4.71117 0.484305 0
M  V30 13994 H 1332.4 -6.24754 2.6079 0
M  V30 13995 H 1337.04 -4.19097 0.558318 0
M  V30 13996 H 1334.76 -7.0271 3.99029 0
M  V30 13997 H 1338.34 -5.33479 2.32145 0
M  V30 13998 H 1337.22 -6.73645 4.01462 0
M  V30 13999 N 1334.72 -0.0133892 -1.57594 0
M  V30 14000 C 1335.95 0.67827 -1.95149 0
M  V30 14001 C 1336.36 1.67089 -0.887572 0
M  V30 14002 O 1335.71 1.8316 0.140774 0
M  V30 14003 C 1335.77 1.45441 -3.28766 0
M  V30 14004 C 1335.43 0.621889 -4.52749 0
M  V30 14005 C 1336.43 -0.0961541 -5.19811 0
M  V30 14006 C 1334.11 0.563917 -4.99124 0
M  V30 14007 C 1336.11 -0.86101 -6.31558 0
M  V30 14008 C 1333.79 -0.204654 -6.10757 0
M  V30 14009 C 1334.79 -0.915839 -6.76832 0
M  V30 14010 O 1334.48 -1.67184 -7.86323 0
M  V30 14011 H 1334.21 0.192983 -0.647869 0
M  V30 14012 H 1336.77 -0.0646816 -2.05298 0
M  V30 14013 H 1335 2.24215 -3.15063 0
M  V30 14014 H 1336.69 2.03268 -3.51336 0
M  V30 14015 H 1337.45 -0.0606029 -4.84962 0
M  V30 14016 H 1333.33 1.10702 -4.47511 0
M  V30 14017 H 1336.87 -1.41664 -6.83064 0
M  V30 14018 H 1332.77 -0.241979 -6.45046 0
M  V30 14019 H 1333.54 -1.58996 -8.02909 0
M  V30 14020 N 1336.2 1.55448 0.259558 0
M  V30 14021 C 1337.45 1.76948 0.990816 0
M  V30 14022 C 1337.78 0.576401 1.85449 0
M  V30 14023 O 1337.06 -0.425693 1.89784 0
M  V30 14024 C 1337.34 3.08221 1.86204 0
M  V30 14025 C 1337.19 4.37909 1.0274 0
M  V30 14026 C 1338.51 3.35627 2.84679 0
M  V30 14027 H 1335.63 0.64377 0.358788 0
M  V30 14028 H 1338.27 1.88182 0.262211 0
M  V30 14029 H 1336.42 2.98775 2.48326 0
M  V30 14030 H 1338.09 4.5933 0.425855 0
M  V30 14031 H 1336.34 4.32533 0.331308 0
M  V30 14032 H 1337.01 5.26116 1.6705 0
M  V30 14033 H 1339.48 3.44954 2.32693 0
M  V30 14034 H 1338.36 4.28719 3.42769 0
M  V30 14035 H 1338.62 2.55921 3.60496 0
M  V30 14036 N 1337.68 -0.524672 1.4861 0
M  V30 14037 C 1338.61 -1.63782 1.66426 0
M  V30 14038 C 1339.59 -1.62177 0.513077 0
M  V30 14039 O 1340.78 -1.7929 0.74623 0
M  V30 14040 C 1337.91 -3.02354 1.70877 0
M  V30 14041 C 1336.86 -3.18819 2.85549 0
M  V30 14042 C 1336.19 -4.58506 2.75094 0
M  V30 14043 C 1337.49 -3.01086 4.26784 0
M  V30 14044 H 1339.18 -1.49127 2.59618 0
M  V30 14045 H 1336.73 -0.715997 1.24938 0
M  V30 14046 H 1338.68 -3.80105 1.81929 0
M  V30 14047 H 1337.4 -3.18044 0.742682 0
M  V30 14048 H 1336.06 -2.43487 2.74061 0
M  V30 14049 H 1335.71 -4.71038 1.76443 0
M  V30 14050 H 1335.41 -4.70466 3.52044 0
M  V30 14051 H 1336.93 -5.38348 2.88121 0
M  V30 14052 H 1338.35 -3.68624 4.39077 0
M  V30 14053 H 1336.75 -3.24536 5.04774 0
M  V30 14054 H 1337.82 -1.97454 4.42877 0
M  V30 14055 N 1339.16 -1.37287 -0.77395 0
M  V30 14056 C 1340.4 -1.3257 -1.5347 0
M  V30 14057 C 1340.74 0.090346 -1.9399 0
M  V30 14058 O 1340.01 1.04719 -1.63903 0
M  V30 14059 C 1340.3 -2.26277 -2.80126 0
M  V30 14060 C 1340.15 -3.76651 -2.45874 0
M  V30 14061 C 1341.47 -2.18471 -3.82045 0
M  V30 14062 H 1338.59 -0.48289 -0.556764 0
M  V30 14063 H 1341.23 -1.6797 -0.888039 0
M  V30 14064 H 1339.38 -1.96219 -3.35306 0
M  V30 14065 H 1341.05 -4.17296 -1.96626 0
M  V30 14066 H 1339.29 -3.95327 -1.78602 0
M  V30 14067 H 1339.96 -4.3765 -3.36403 0
M  V30 14068 H 1342.44 -2.44962 -3.36352 0
M  V30 14069 H 1341.32 -2.86183 -4.68392 0
M  V30 14070 H 1341.58 -1.17692 -4.26147 0
M  V30 14071 N 1340.64 0.999871 -1.21821 0
M  V30 14072 C 1341.88 1.73497 -1.0365 0
M  V30 14073 C 1342.21 1.90194 0.430271 0
M  V30 14074 O 1341.48 1.45655 1.31002 0
M  V30 14075 H 1340.06 0.642804 -0.380541 0
M  V30 14076 H 1342.72 1.20461 -1.53216 0
M  V30 14077 H 1341.81 2.73215 -1.50864 0
M  V30 14078 N 1342.11 1.02678 1.19562 0
M  V30 14079 C 1343.36 0.723086 1.89471 0
M  V30 14080 C 1343.69 -0.746269 1.79289 0
M  V30 14081 O 1342.97 -1.54322 1.18384 0
M  V30 14082 C 1343.25 1.17224 3.40486 0
M  V30 14083 C 1343.1 2.70266 3.5955 0
M  V30 14084 C 1344.42 0.751397 4.33638 0
M  V30 14085 H 1341.54 0.264155 0.688034 0
M  V30 14086 H 1344.18 1.27633 1.40747 0
M  V30 14087 H 1342.33 0.701544 3.82113 0
M  V30 14088 H 1344.01 3.25266 3.27108 0
M  V30 14089 H 1342.25 3.10758 3.02675 0
M  V30 14090 H 1342.92 2.96748 4.65451 0
M  V30 14091 H 1345.4 1.15621 3.99714 0
M  V30 14092 H 1344.27 1.09358 5.37896 0
M  V30 14093 H 1344.53 -0.346367 4.40741 0
M  V30 14094 N 1343.59 -1.35528 0.804364 0
M  V30 14095 C 1344.56 -2.28153 0.21885 0
M  V30 14096 C 1345.56 -1.49486 -0.592511 0
M  V30 14097 O 1346.75 -1.69274 -0.411319 0
M  V30 14098 C 1343.88 -3.33736 -0.695195 0
M  V30 14099 H 1345.07 -2.81446 1.03576 0
M  V30 14100 H 1342.62 -1.45345 0.574854 0
M  V30 14101 H 1343.36 -2.85625 -1.53587 0
M  V30 14102 H 1343.14 -3.91931 -0.115143 0
M  V30 14103 H 1344.63 -4.02872 -1.09925 0
M  V30 14104 N 1345.07 -0.557671 -1.47404 0
M  V30 14105 C 1346.02 0.189765 -2.30019 0
M  V30 14106 C 1346.99 0.907923 -1.3909 0
M  V30 14107 O 1348.17 0.903528 -1.68051 0
M  V30 14108 C 1345.31 1.21348 -3.23061 0
M  V30 14109 C 1344.43 0.501343 -4.29081 0
M  V30 14110 C 1343.56 1.51039 -5.09275 0
M  V30 14111 C 1342.6 0.783254 -6.07068 0
M  V30 14112 N 1341.74 1.73916 -6.80219 0
M  V30 14113 H 1346.58 -0.520856 -2.93413 0
M  V30 14114 H 1344.11 -0.268686 -1.44625 0
M  V30 14115 H 1346.07 1.81961 -3.75428 0
M  V30 14116 H 1344.7 1.89213 -2.61531 0
M  V30 14117 H 1343.75 -0.219317 -3.79767 0
M  V30 14118 H 1345.07 -0.0682656 -4.98753 0
M  V30 14119 H 1344.22 2.19004 -5.65793 0
M  V30 14120 H 1342.96 2.11392 -4.39505 0
M  V30 14121 H 1341.96 0.0896883 -5.49727 0
M  V30 14122 H 1343.19 0.185464 -6.78847 0
M  V30 14123 H 1341.14 2.33125 -6.13179 0
M  V30 14124 H 1341.05 1.22171 -7.46063 0
M  V30 14125 H 1342.32 2.40993 -7.41311 0
M  V30 14126 N 1346.55 1.54831 -0.294147 0
M  V30 14127 C 1347.83 1.92071 0.369902 0
M  V30 14128 C 1348.21 1.22061 1.72233 0
M  V30 14129 O 1347.55 0.353975 2.25742 0
M  V30 14130 C 1347.76 3.45524 0.49135 0
M  V30 14131 C 1349.11 4.17644 0.765411 0
M  V30 14132 O 1350.14 3.51521 0.575428 0
M  V30 14133 O 1349 5.34692 1.12992 0
M  V30 14134 H 1346.09 0.801033 0.20561 0
M  V30 14135 H 1348.64 1.66224 -0.341702 0
M  V30 14136 H 1347.41 3.88591 -0.459663 0
M  V30 14137 H 1347.03 3.77384 1.25169 0
M  V30 14138 N 1348.03 0.0217466 1.57585 0
M  V30 14139 C 1348.96 -0.961069 2.12804 0
M  V30 14140 C 1349.94 -1.3442 1.04237 0
M  V30 14141 O 1351.12 -1.42412 1.32032 0
M  V30 14142 C 1348.25 -2.24586 2.64912 0
M  V30 14143 C 1347.21 -2.0037 3.78201 0
M  V30 14144 C 1346.53 -3.35051 4.16708 0
M  V30 14145 C 1347.83 -1.34879 5.04584 0
M  V30 14146 H 1349.53 -0.501222 2.95175 0
M  V30 14147 H 1347.07 -0.239649 1.41992 0
M  V30 14148 H 1349.03 -2.93715 3.02175 0
M  V30 14149 H 1347.75 -2.72723 1.79693 0
M  V30 14150 H 1346.41 -1.33662 3.41365 0
M  V30 14151 H 1346.06 -3.80932 3.28481 0
M  V30 14152 H 1345.76 -3.19656 4.93045 0
M  V30 14153 H 1347.28 -4.05459 4.56547 0
M  V30 14154 H 1348.7 -1.93997 5.3948 0
M  V30 14155 H 1347.09 -1.29906 5.85871 0
M  V30 14156 H 1348.16 -0.320774 4.83838 0
M  V30 14157 N 1349.51 -1.55583 -0.251311 0
M  V30 14158 C 1350.75 -1.76411 -0.977859 0
M  V30 14159 C 1351.07 -0.584857 -1.86651 0
M  V30 14160 O 1352.27 -0.676046 -2.62948 0
M  V30 14161 C 1350.73 -3.12302 -1.78872 0
M  V30 14162 C 1350.34 -4.37862 -0.947674 0
M  V30 14163 C 1352.08 -3.42471 -2.50827 0
M  V30 14164 C 1349.99 -5.64786 -1.75417 0
M  V30 14165 H 1348.92 -0.657628 -0.368839 0
M  V30 14166 H 1351.57 -1.82019 -0.232682 0
M  V30 14167 H 1349.95 -3.0079 -2.57569 0
M  V30 14168 H 1351.13 -4.60351 -0.203352 0
M  V30 14169 H 1349.44 -4.14996 -0.341666 0
M  V30 14170 H 1352.04 -4.34514 -3.11612 0
M  V30 14171 H 1352.38 -2.63592 -3.22219 0
M  V30 14172 H 1352.91 -3.55179 -1.79145 0
M  V30 14173 H 1349.65 -6.46474 -1.08407 0
M  V30 14174 H 1349.17 -5.46405 -2.47389 0
M  V30 14175 H 1350.85 -6.03881 -2.32242 0
M  V30 14176 N 1350.98 0.516783 -1.48886 0
M  V30 14177 C 1351.91 1.62897 -1.67292 0
M  V30 14178 C 1352.89 1.61903 -0.521671 0
M  V30 14179 O 1354.08 1.78892 -0.755728 0
M  V30 14180 C 1351.21 3.01444 -1.72478 0
M  V30 14181 C 1350.16 3.173 -2.87236 0
M  V30 14182 C 1349.49 4.5704 -2.77522 0
M  V30 14183 C 1350.79 2.98818 -4.28375 0
M  V30 14184 H 1352.48 1.47748 -2.60405 0
M  V30 14185 H 1350.03 0.709361 -1.25316 0
M  V30 14186 H 1351.98 3.79135 -1.83942 0
M  V30 14187 H 1350.71 3.17645 -0.759538 0
M  V30 14188 H 1349.37 2.4203 -2.75349 0
M  V30 14189 H 1349.01 4.70096 -1.78938 0
M  V30 14190 H 1348.71 4.68593 -3.54534 0
M  V30 14191 H 1350.24 5.36813 -2.90972 0
M  V30 14192 H 1351.65 3.66291 -4.41026 0
M  V30 14193 H 1350.05 3.21854 -5.06488 0
M  V30 14194 H 1351.12 1.95102 -4.43918 0
M  V30 14195 N 1352.46 1.37696 0.766659 0
M  V30 14196 C 1353.41 1.33966 1.90147 0
M  V30 14197 C 1354.4 0.2276 1.67864 0
M  V30 14198 O 1355.61 0.395912 1.75592 0
M  V30 14199 H 1351.98 0.417611 0.625384 0
M  V30 14200 H 1353.96 2.29753 1.9041 0
M  V30 14201 C 1352.7 1.16859 3.27474 0
M  V30 14202 H 1352.03 2.01686 3.452 0
M  V30 14203 H 1353.47 1.18301 4.07162 0
M  V30 14204 C 1351.93 -0.125418 3.36666 0
M  V30 14205 O 1352.46 -1.10717 3.86141 0
M  V30 14206 N 1350.66 -0.17784 2.90055 0
M  V30 14207 H 1350.21 0.621737 2.49984 0
M  V30 14208 H 1350.17 -1.04325 2.96587 0
M  V30 14209 N 1353.94 -0.993397 1.22349 0
M  V30 14210 C 1355.35 -1.54739 1.04465 0
M  V30 14211 C 1355.7 -1.92243 -0.392057 0
M  V30 14212 O 1354.83 -1.74707 -1.27697 0
M  V30 14213 C 1355.42 -2.81179 1.89007 0
M  V30 14214 C 1353.98 -3.33023 1.75421 0
M  V30 14215 C 1353.13 -2.06114 1.85505 0
M  V30 14216 H 1356.08 -0.814539 1.36202 0
M  V30 14217 H 1356.1 -3.53523 1.40718 0
M  V30 14218 H 1355.61 -2.53851 2.93566 0
M  V30 14219 H 1353.71 -3.6526 0.735935 0
M  V30 14220 H 1353.83 -4.03659 2.58062 0
M  V30 14221 H 1352.19 -2.19651 1.2894 0
M  V30 14222 H 1352.97 -1.81184 2.91594 0
M  V30 14223 N 1355.42 -1.03311 -1.19015 0
M  V30 14224 C 1356.83 -0.750946 -1.4083 0
M  V30 14225 C 1357.03 0.662704 -1.90291 0
M  V30 14226 O 1356.09 1.42806 -2.08237 0
M  V30 14227 C 1357.4 -1.79064 -2.41571 0
M  V30 14228 C 1358.95 -1.81068 -2.55311 0
M  V30 14229 C 1359.43 -2.84008 -3.59309 0
M  V30 14230 N 1360.92 -2.82852 -3.6681 0
M  V30 14231 C 1361.65 -3.59156 -4.46984 0
M  V30 14232 N 1361.15 -4.45188 -5.30829 0
M  V30 14233 N 1362.94 -3.47679 -4.41674 0
M  V30 14234 H 1355.09 -1.94548 -0.852329 0
M  V30 14235 H 1357.35 -0.841344 -0.436858 0
M  V30 14236 H 1357.06 -2.80425 -2.12261 0
M  V30 14237 H 1356.93 -1.61646 -3.40809 0
M  V30 14238 H 1359.32 -0.803825 -2.83941 0
M  V30 14239 H 1359.4 -2.02562 -1.56212 0
M  V30 14240 H 1359.05 -3.84867 -3.3142 0
M  V30 14241 H 1358.98 -2.59771 -4.58069 0
M  V30 14242 H 1361.47 -2.20457 -3.06932 0
M  V30 14243 H 1361.78 -5.00139 -5.89135 0
M  V30 14244 H 1360.13 -4.49259 -5.30275 0
M  V30 14245 H 1363.32 -2.79876 -3.75216 0
M  V30 14246 H 1363.49 -4.07396 -5.03917 0
M  V30 14247 N 1356.9 1.35099 -0.81154 0
M  V30 14248 C 1358.12 2.03391 -0.405805 0
M  V30 14249 C 1358.55 1.60745 0.97686 0
M  V30 14250 O 1357.9 0.786518 1.63351 0
M  V30 14251 C 1357.95 3.57075 -0.502954 0
M  V30 14252 O 1357.06 4.09577 0.481681 0
M  V30 14253 H 1356.4 0.642203 -0.168733 0
M  V30 14254 H 1358.93 1.72591 -1.0988 0
M  V30 14255 H 1358.94 4.06277 -0.37456 0
M  V30 14256 H 1357.61 3.87463 -1.51145 0
M  V30 14257 H 1356.19 3.71583 0.313115 0
M  V30 14258 N 1358.37 0.56548 1.47106 0
M  V30 14259 C 1359.62 0.0445914 2.02751 0
M  V30 14260 C 1359.95 -1.30517 1.43801 0
M  V30 14261 O 1359.23 -1.85123 0.596646 0
M  V30 14262 C 1359.51 -0.0396474 3.60078 0
M  V30 14263 C 1359.36 1.3378 4.29445 0
M  V30 14264 C 1360.68 -0.748954 4.3368 0
M  V30 14265 H 1357.8 0.0176787 0.736788 0
M  V30 14266 H 1360.44 0.729363 1.75443 0
M  V30 14267 H 1358.59 -0.622826 3.83475 0
M  V30 14268 H 1360.27 1.96482 4.17364 0
M  V30 14269 H 1358.51 1.91024 3.89477 0
M  V30 14270 H 1359.18 1.23149 5.38088 0
M  V30 14271 H 1361.66 -0.253707 4.15326 0
M  V30 14272 H 1360.53 -0.776877 5.43374 0
M  V30 14273 H 1360.79 -1.80679 4.03494 0
M  V30 14274 N 1359.85 -1.54672 0.302354 0
M  V30 14275 C 1360.82 -2.22246 -0.560283 0
M  V30 14276 C 1361.82 -1.20895 -1.06023 0
M  V30 14277 O 1363.01 -1.45621 -0.956047 0
M  V30 14278 C 1360.14 -2.9099 -1.77589 0
M  V30 14279 H 1361.33 -2.99885 0.0301274 0
M  V30 14280 H 1358.88 -1.56209 0.0532036 0
M  V30 14281 H 1359.62 -2.17433 -2.4061 0
M  V30 14282 H 1359.4 -3.65288 -1.42503 0
M  V30 14283 H 1360.89 -3.42535 -2.38871 0
M  V30 14284 N 1361.33 -0.0301034 -1.57571 0
M  V30 14285 C 1362.58 0.647042 -1.91462 0
M  V30 14286 C 1362.9 1.72612 -0.907206 0
M  V30 14287 O 1362.17 1.95833 0.0511268 0
M  V30 14288 H 1360.75 0.241988 -0.706718 0
M  V30 14289 H 1363.41 -0.0781385 -1.94743 0
M  V30 14290 H 1362.51 1.09915 -2.92105 0
M  V30 14291 N 1362.81 1.55714 0.243056 0
M  V30 14292 C 1364.06 1.77375 0.968638 0
M  V30 14293 C 1364.38 0.594781 1.85708 0
M  V30 14294 O 1363.65 -0.38928 1.91993 0
M  V30 14295 H 1362.23 0.654174 0.360646 0
M  V30 14296 H 1364.89 1.93157 0.260079 0
M  V30 14297 H 1363.99 2.68674 1.5881 0
M  V30 14298 N 1364.29 -0.50888 1.49158 0
M  V30 14299 C 1365.53 -1.2635 1.58247 0
M  V30 14300 C 1365.86 -1.92677 0.265654 0
M  V30 14301 O 1365.12 -1.80931 -0.745818 0
M  V30 14302 C 1365.42 -2.35875 2.6851 0
M  V30 14303 C 1365.08 -1.87059 4.10268 0
M  V30 14304 C 1363.74 -1.73464 4.48847 0
M  V30 14305 C 1366.1 -1.50429 4.9902 0
M  V30 14306 C 1363.42 -1.21606 5.73959 0
M  V30 14307 C 1365.78 -1.00026 6.24642 0
M  V30 14308 C 1364.44 -0.850646 6.62058 0
M  V30 14309 H 1363.71 -0.462346 0.579066 0
M  V30 14310 H 1366.36 -0.565528 1.82959 0
M  V30 14311 H 1364.66 -3.11428 2.37739 0
M  V30 14312 H 1366.36 -2.9395 2.72753 0
M  V30 14313 H 1362.95 -1.98597 3.79812 0
M  V30 14314 H 1367.13 -1.59782 4.69876 0
M  V30 14315 H 1362.39 -1.08728 6.01655 0
M  V30 14316 H 1366.56 -0.707608 6.92796 0
M  V30 14317 H 1364.19 -0.446627 7.58887 0
M  V30 14318 N 1365.76 -1.381 -0.759346 0
M  V30 14319 C 1367.01 -1.3419 -1.52055 0
M  V30 14320 C 1367.34 0.0697657 -1.94075 0
M  V30 14321 O 1366.62 1.02975 -1.65004 0
M  V30 14322 C 1366.9 -2.29236 -2.7771 0
M  V30 14323 C 1366.75 -3.79237 -2.41866 0
M  V30 14324 C 1368.07 -2.22511 -3.79706 0
M  V30 14325 H 1365.19 -0.488768 -0.551611 0
M  V30 14326 H 1367.83 -1.68902 -0.870174 0
M  V30 14327 H 1365.98 -1.99764 -3.33206 0
M  V30 14328 H 1367.66 -4.19358 -1.92189 0
M  V30 14329 H 1365.9 -3.97199 -1.74399 0
M  V30 14330 H 1366.57 -4.41193 -3.31742 0
M  V30 14331 H 1369.05 -2.48516 -3.33735 0
M  V30 14332 H 1367.92 -2.91134 -4.6533 0
M  V30 14333 H 1368.18 -1.22206 -4.24874 0
M  V30 14334 N 1367.24 0.986894 -1.22875 0
M  V30 14335 C 1368.47 1.7601 -1.08185 0
M  V30 14336 C 1368.88 1.85545 0.370088 0
M  V30 14337 O 1368.22 1.32915 1.26804 0
M  V30 14338 C 1368.29 3.20661 -1.62532 0
M  V30 14339 C 1367.95 3.34655 -3.11216 0
M  V30 14340 C 1368.95 3.21493 -4.08581 0
M  V30 14341 C 1366.63 3.59512 -3.50794 0
M  V30 14342 C 1368.63 3.32983 -5.43508 0
M  V30 14343 C 1366.31 3.70642 -4.85868 0
M  V30 14344 C 1367.31 3.57387 -5.82034 0
M  V30 14345 O 1367 3.68135 -7.14655 0
M  V30 14346 H 1366.73 0.559402 -0.379533 0
M  V30 14347 H 1369.28 1.24905 -1.63058 0
M  V30 14348 H 1367.51 3.72985 -1.02073 0
M  V30 14349 H 1369.2 3.7972 -1.43415 0
M  V30 14350 H 1369.97 3.02193 -3.79347 0
M  V30 14351 H 1365.85 3.68904 -2.76461 0
M  V30 14352 H 1369.39 3.22553 -6.18551 0
M  V30 14353 H 1365.29 3.89451 -5.1478 0
M  V30 14354 H 1366.06 3.84971 -7.22316 0
M  V30 14355 N 1368.72 1.0394 1.18466 0
M  V30 14356 C 1369.95 0.762014 1.92356 0
M  V30 14357 C 1370.36 -0.680652 1.76104 0
M  V30 14358 O 1369.72 -1.46385 1.08985 0
M  V30 14359 C 1369.77 1.11717 3.43805 0
M  V30 14360 O 1369.49 2.50319 3.59544 0
M  V30 14361 C 1370.99 0.864099 4.34797 0
M  V30 14362 H 1368.21 0.277999 0.610702 0
M  V30 14363 H 1370.76 1.38672 1.503 0
M  V30 14364 H 1368.91 0.537445 3.83654 0
M  V30 14365 H 1369.33 2.63875 4.53288 0
M  V30 14366 H 1370.8 1.16247 5.39621 0
M  V30 14367 H 1371.28 -0.20117 4.38739 0
M  V30 14368 H 1371.88 1.42706 4.00643 0
M  V30 14369 N 1370.2 -1.34667 0.818693 0
M  V30 14370 C 1371.43 -2.02348 0.417002 0
M  V30 14371 C 1371.84 -1.61813 -0.980464 0
M  V30 14372 O 1371.18 -0.817232 -1.64521 0
M  V30 14373 C 1371.24 -3.56861 0.434779 0
M  V30 14374 C 1370.91 -4.20704 1.78485 0
M  V30 14375 C 1371.9 -4.41524 2.74504 0
M  V30 14376 C 1369.59 -4.57566 2.07217 0
M  V30 14377 C 1371.58 -4.98324 3.97431 0
M  V30 14378 C 1369.27 -5.14078 3.30405 0
M  V30 14379 C 1370.27 -5.344 4.2533 0
M  V30 14380 O 1369.95 -5.89717 5.46342 0
M  V30 14381 H 1369.69 -0.655279 0.16609 0
M  V30 14382 H 1372.24 -1.73011 1.10708 0
M  V30 14383 H 1370.47 -3.8544 -0.311973 0
M  V30 14384 H 1372.16 -4.05864 0.0537258 0
M  V30 14385 H 1372.93 -4.13414 2.53601 0
M  V30 14386 H 1368.8 -4.41054 1.34135 0
M  V30 14387 H 1372.35 -5.14102 4.71534 0
M  V30 14388 H 1368.25 -5.41616 3.51174 0
M  V30 14389 H 1369.01 -6.08155 5.47804 0
M  V30 14390 N 1371.68 -0.573274 -1.46804 0
M  V30 14391 C 1372.62 0.165358 -2.30207 0
M  V30 14392 C 1373.59 0.89312 -1.40045 0
M  V30 14393 O 1374.78 0.885653 -1.68999 0
M  V30 14394 C 1371.92 1.17915 -3.2433 0
M  V30 14395 C 1371.03 0.455805 -4.29589 0
M  V30 14396 C 1370.17 1.45629 -5.10848 0
M  V30 14397 C 1369.21 0.718822 -6.07865 0
M  V30 14398 N 1368.34 1.66691 -6.82025 0
M  V30 14399 H 1373.18 -0.551947 -2.92844 0
M  V30 14400 H 1370.72 -0.28401 -1.44332 0
M  V30 14401 H 1372.68 1.77969 -3.77337 0
M  V30 14402 H 1371.31 1.86429 -2.63523 0
M  V30 14403 H 1370.36 -0.259584 -3.79513 0
M  V30 14404 H 1371.67 -0.121161 -4.98653 0
M  V30 14405 H 1370.83 2.1299 -5.68084 0
M  V30 14406 H 1369.56 2.06718 -4.41723 0
M  V30 14407 H 1368.57 0.0313773 -5.49791 0
M  V30 14408 H 1369.79 0.113452 -6.79005 0
M  V30 14409 H 1367.74 2.26608 -6.15617 0
M  V30 14410 H 1367.66 1.14251 -7.47317 0
M  V30 14411 H 1368.93 2.33117 -7.43826 0
M  V30 14412 N 1373.15 1.5451 -0.310553 0
M  V30 14413 C 1374.08 2.26827 0.554243 0
M  V30 14414 C 1375.07 1.27133 1.13009 0
M  V30 14415 O 1376.25 1.55923 1.15765 0
M  V30 14416 C 1373.38 3.01626 1.7216 0
M  V30 14417 C 1372.33 4.08547 1.27566 0
M  V30 14418 C 1371.66 4.71115 2.52893 0
M  V30 14419 C 1372.96 5.20766 0.399955 0
M  V30 14420 H 1374.65 2.9936 -0.0489475 0
M  V30 14421 H 1372.2 1.43978 -0.0249817 0
M  V30 14422 H 1374.15 3.50942 2.33276 0
M  V30 14423 H 1372.88 2.26688 2.35118 0
M  V30 14424 H 1371.54 3.60096 0.687499 0
M  V30 14425 H 1371.18 3.92805 3.14186 0
M  V30 14426 H 1370.88 5.43331 2.23752 0
M  V30 14427 H 1372.41 5.23198 3.14796 0
M  V30 14428 H 1373.82 5.65918 0.917054 0
M  V30 14429 H 1372.22 5.9976 0.2019 0
M  V30 14430 H 1373.29 4.81508 -0.572537 0
M  V30 14431 N 1374.63 0.0384594 1.57553 0
M  V30 14432 C 1375.88 -0.639085 1.92467 0
M  V30 14433 C 1376.21 -1.71239 0.916014 0
M  V30 14434 O 1375.49 -1.94408 -0.0598928 0
M  V30 14435 C 1375.77 -1.24693 3.37822 0
M  V30 14436 C 1375.62 -0.182544 4.49429 0
M  V30 14437 C 1376.94 -2.16226 3.8332 0
M  V30 14438 H 1374.06 -0.230852 0.699912 0
M  V30 14439 H 1376.7 0.0976276 1.89749 0
M  V30 14440 H 1374.85 -1.87481 3.40269 0
M  V30 14441 H 1376.53 0.448622 4.59113 0
M  V30 14442 H 1374.77 0.4909 4.31013 0
M  V30 14443 H 1375.44 -0.647626 5.48188 0
M  V30 14444 H 1377.92 -1.63413 3.82669 0
M  V30 14445 H 1376.79 -2.55705 4.85702 0
M  V30 14446 H 1377.05 -3.05722 3.19353 0
M  V30 14447 N 1376.11 -1.55841 -0.234795 0
M  V30 14448 C 1377.06 -1.92165 -1.31055 0
M  V30 14449 C 1378.05 -0.802106 -1.49207 0
M  V30 14450 O 1379.26 -0.986832 -1.50538 0
M  V30 14451 H 1375.63 -0.610487 -0.439101 0
M  V30 14452 H 1377.61 -2.81955 -0.976926 0
M  V30 14453 C 1376.35 -2.24329 -2.65654 0
M  V30 14454 H 1375.68 -3.09982 -2.5249 0
M  V30 14455 H 1377.12 -2.53639 -3.3977 0
M  V30 14456 C 1375.58 -1.0638 -3.19664 0
M  V30 14457 O 1376.11 -0.318047 -4.00439 0
M  V30 14458 N 1374.31 -0.851167 -2.77855 0
M  V30 14459 H 1373.86 -1.45932 -2.12277 0
M  V30 14460 H 1373.82 -0.0636875 -3.14335 0
M  V30 14461 N 1377.59 0.500963 -1.49426 0
M  V30 14462 C 1378.54 1.62335 -1.66584 0
M  V30 14463 C 1379.53 1.60837 -0.531773 0
M  V30 14464 O 1380.74 1.65345 -0.711408 0
M  V30 14465 H 1377.11 0.538131 -0.52528 0
M  V30 14466 H 1379.08 1.45016 -2.60793 0
M  V30 14467 C 1377.83 3.00469 -1.74968 0
M  V30 14468 H 1377.16 3.02328 -2.61607 0
M  V30 14469 H 1378.6 3.78539 -1.91008 0
M  V30 14470 C 1377.05 3.33251 -0.49451 0
M  V30 14471 O 1377.58 3.99901 0.379783 0
M  V30 14472 N 1375.79 2.88393 -0.357445 0
M  V30 14473 H 1375.34 2.3433 -1.06991 0
M  V30 14474 H 1375.3 3.10694 0.481287 0
M  V30 14475 N 1379.07 1.38501 0.752011 0
M  V30 14476 C 1380.32 1.34529 1.50819 0
M  V30 14477 C 1380.64 -0.0636155 1.94896 0
M  V30 14478 O 1379.91 -1.01161 1.6776 0
M  V30 14479 H 1378.49 0.49501 0.559441 0
M  V30 14480 H 1381.15 1.73196 0.893822 0
M  V30 14481 H 1380.24 1.99713 2.39835 0
M  V30 14482 N 1380.55 -0.980364 1.23396 0
M  V30 14483 C 1381.46 -2.10688 1.03188 0
M  V30 14484 C 1382.47 -1.73984 -0.0236159 0
M  V30 14485 O 1383.65 -2.00666 0.171841 0
M  V30 14486 C 1380.71 -3.4101 0.625563 0
M  V30 14487 C 1379.77 -3.91739 1.75611 0
M  V30 14488 C 1379.01 -5.15841 1.36908 0
M  V30 14489 O 1379.23 -5.69837 0.253329 0
M  V30 14490 O 1378.16 -5.60638 2.19018 0
M  V30 14491 H 1381.99 -2.30626 1.97599 0
M  V30 14492 H 1379.57 -1.09067 1.02102 0
M  V30 14493 H 1381.46 -4.19402 0.409909 0
M  V30 14494 H 1380.13 -3.22402 -0.28956 0
M  V30 14495 H 1379.04 -3.14464 2.0264 0
M  V30 14496 H 1380.37 -4.14801 2.64955 0
M  V30 14497 N 1382.02 -1.04567 -1.17913 0
M  V30 14498 C 1382.97 -0.641119 -2.21717 0
M  V30 14499 C 1383.94 0.353585 -1.62293 0
M  V30 14500 O 1385.13 0.246427 -1.89202 0
M  V30 14501 C 1382.27 -0.0154726 -3.45097 0
M  V30 14502 C 1381.38 -1.05825 -4.18838 0
M  V30 14503 C 1380.51 -0.400588 -5.29687 0
M  V30 14504 C 1379.55 -1.42811 -5.95207 0
M  V30 14505 N 1378.69 -0.795059 -6.97584 0
M  V30 14506 H 1383.53 -1.5308 -2.55676 0
M  V30 14507 H 1381.07 -0.765715 -1.25599 0
M  V30 14508 H 1383.02 0.364653 -4.15603 0
M  V30 14509 H 1381.65 0.837704 -3.11741 0
M  V30 14510 H 1380.71 -1.55627 -3.47109 0
M  V30 14511 H 1382.02 -1.83849 -4.63682 0
M  V30 14512 H 1381.17 0.0334682 -6.06691 0
M  V30 14513 H 1379.91 0.411696 -4.85959 0
M  V30 14514 H 1378.92 -1.87225 -5.1694 0
M  V30 14515 H 1380.14 -2.24218 -6.41017 0
M  V30 14516 H 1378.09 -0.00317202 -6.56 0
M  V30 14517 H 1378 -1.51293 -7.40707 0
M  V30 14518 H 1379.27 -0.385567 -7.78546 0
M  V30 14519 N 1383.5 1.34231 -0.825823 0
M  V30 14520 C 1384.43 2.31997 -0.264546 0
M  V30 14521 C 1385.41 1.58375 0.620592 0
M  V30 14522 O 1386.6 1.86341 0.546865 0
M  V30 14523 C 1383.73 3.42557 0.572025 0
M  V30 14524 C 1382.68 4.27454 -0.216219 0
M  V30 14525 C 1382.01 5.29509 0.743279 0
M  V30 14526 C 1383.31 5.02456 -1.42603 0
M  V30 14527 H 1385 2.79189 -1.08139 0
M  V30 14528 H 1382.55 1.34227 -0.521451 0
M  V30 14529 H 1384.5 4.09968 0.974889 0
M  V30 14530 H 1383.22 2.94021 1.42195 0
M  V30 14531 H 1381.88 3.61649 -0.600485 0
M  V30 14532 H 1381.53 4.77234 1.58924 0
M  V30 14533 H 1381.23 5.87188 0.220064 0
M  V30 14534 H 1382.76 5.99789 1.14394 0
M  V30 14535 H 1384.17 5.62706 -1.09702 0
M  V30 14536 H 1382.57 5.69723 -1.88509 0
M  V30 14537 H 1383.64 4.31983 -2.2027 0
M  V30 14538 N 1384.98 0.581051 1.46498 0
M  V30 14539 C 1385.89 -0.155669 2.34083 0
M  V30 14540 C 1386.91 -0.887728 1.49651 0
M  V30 14541 O 1388.08 -0.851284 1.82524 0
M  V30 14542 C 1385.15 -1.15752 3.26806 0
M  V30 14543 C 1384.21 -0.43031 4.27138 0
M  V30 14544 C 1383.44 -1.38443 5.15431 0
M  V30 14545 O 1383.66 -2.62084 5.06624 0
M  V30 14546 O 1382.6 -0.89592 5.95195 0
M  V30 14547 H 1386.42 0.56341 2.98428 0
M  V30 14548 H 1384.01 0.341466 1.45445 0
M  V30 14549 H 1385.89 -1.73523 3.84015 0
M  V30 14550 H 1384.57 -1.85809 2.65059 0
M  V30 14551 H 1383.47 0.1892 3.73621 0
M  V30 14552 H 1384.81 0.229263 4.91666 0
M  V30 14553 N 1386.46 -1.54343 0.318742 0
M  V30 14554 C 1387.7 -2.0048 -0.285276 0
M  V30 14555 C 1388.03 -1.20698 -1.5252 0
M  V30 14556 O 1387.29 -0.275893 -1.93746 0
M  V30 14557 C 1387.59 -3.51079 -0.669181 0
M  V30 14558 C 1387.25 -4.48433 0.471017 0
M  V30 14559 C 1385.91 -4.74771 0.783985 0
M  V30 14560 C 1388.27 -5.06304 1.23715 0
M  V30 14561 C 1385.59 -5.56239 1.86589 0
M  V30 14562 C 1387.95 -5.88951 2.30911 0
M  V30 14563 C 1386.61 -6.13592 2.62794 0
M  V30 14564 H 1385.88 -0.73361 -0.10439 0
M  V30 14565 H 1388.53 -1.86341 0.441521 0
M  V30 14566 H 1386.83 -3.62921 -1.47633 0
M  V30 14567 H 1388.53 -3.84216 -1.148 0
M  V30 14568 H 1385.12 -4.2805 0.217004 0
M  V30 14569 H 1389.3 -4.85943 1.00862 0
M  V30 14570 H 1384.56 -5.73563 2.11744 0
M  V30 14571 H 1388.73 -6.32814 2.90722 0
M  V30 14572 H 1386.36 -6.76508 3.46757 0
M  V30 14573 N 1387.94 -0.0468143 -1.5753 0
M  V30 14574 C 1388.87 0.927092 -2.14306 0
M  V30 14575 C 1389.85 1.32745 -1.06362 0
M  V30 14576 O 1391.03 1.40293 -1.34281 0
M  V30 14577 C 1388.16 2.20343 -2.68452 0
M  V30 14578 C 1387.12 1.94328 -3.81341 0
M  V30 14579 C 1386.44 3.28379 -4.21985 0
M  V30 14580 C 1387.74 1.26835 -5.06666 0
M  V30 14581 H 1389.44 0.454199 -2.95935 0
M  V30 14582 H 1386.98 0.217029 -1.42355 0
M  V30 14583 H 1388.93 2.8887 -3.0681 0
M  V30 14584 H 1387.66 2.6983 -1.84009 0
M  V30 14585 H 1386.32 1.28214 -3.43448 0
M  V30 14586 H 1385.97 3.75658 -3.34499 0
M  V30 14587 H 1385.67 3.11772 -4.98068 0
M  V30 14588 H 1387.19 3.98145 -4.6294 0
M  V30 14589 H 1388.6 1.85389 -5.42498 0
M  V30 14590 H 1387 1.20569 -5.87863 0
M  V30 14591 H 1388.07 0.243759 -4.84287 0
M  V30 14592 N 1389.41 1.55964 0.226527 0
M  V30 14593 C 1390.36 1.88403 1.28406 0
M  V30 14594 C 1391.35 0.746656 1.42527 0
M  V30 14595 O 1392.54 1.00898 1.45425 0
M  V30 14596 C 1389.67 2.19992 2.63549 0
M  V30 14597 C 1388.76 3.40109 2.5335 0
M  V30 14598 N 1389.15 4.58858 2.12798 0
M  V30 14599 C 1387.44 3.43625 2.8432 0
M  V30 14600 C 1388.15 5.41013 2.13729 0
M  V30 14601 N 1387.12 4.80596 2.54025 0
M  V30 14602 H 1390.92 2.77732 0.961352 0
M  V30 14603 H 1388.44 1.56463 0.435104 0
M  V30 14604 H 1390.43 2.41405 3.39896 0
M  V30 14605 H 1389.09 1.31973 2.9667 0
M  V30 14606 H 1390.11 4.84108 1.8401 0
M  V30 14607 H 1386.78 2.65935 3.21846 0
M  V30 14608 H 1388.17 6.4606 1.84543 0
M  V30 14609 N 1390.89 -0.493031 1.4969 0
M  V30 14610 C 1391.84 -1.59367 1.66945 0
M  V30 14611 C 1392.81 -1.58049 0.510842 0
M  V30 14612 O 1393.99 -1.75915 0.738822 0
M  V30 14613 C 1391.13 -2.97472 1.74941 0
M  V30 14614 C 1390.25 -3.08745 3.02159 0
M  V30 14615 C 1389.38 -4.37632 3.01085 0
M  V30 14616 C 1388.42 -4.42567 4.22849 0
M  V30 14617 N 1387.56 -5.62892 4.19639 0
M  V30 14618 H 1392.4 -1.4396 2.6092 0
M  V30 14619 H 1389.94 -0.700297 1.29361 0
M  V30 14620 H 1391.89 -3.7753 1.77558 0
M  V30 14621 H 1390.52 -3.11564 0.844252 0
M  V30 14622 H 1389.58 -2.217 3.09117 0
M  V30 14623 H 1390.89 -3.08251 3.92151 0
M  V30 14624 H 1390.04 -5.26018 3.02309 0
M  V30 14625 H 1388.78 -4.40702 2.08885 0
M  V30 14626 H 1387.79 -3.52581 4.21861 0
M  V30 14627 H 1389.01 -4.41205 5.1625 0
M  V30 14628 H 1386.96 -5.6679 3.30281 0
M  V30 14629 H 1386.87 -5.64048 5.03374 0
M  V30 14630 H 1388.14 -6.53464 4.24977 0
M  V30 14631 N 1392.37 -1.38898 -0.744656 0
M  V30 14632 C 1393.6 -1.38848 -1.53391 0
M  V30 14633 C 1394.01 0.0194949 -1.8879 0
M  V30 14634 O 1393.37 0.988399 -1.53417 0
M  V30 14635 C 1393.42 -2.25243 -2.8275 0
M  V30 14636 O 1393.14 -3.60557 -2.48858 0
M  V30 14637 C 1394.64 -2.33471 -3.76837 0
M  V30 14638 H 1391.86 -0.4746 -0.474338 0
M  V30 14639 H 1394.41 -1.82591 -0.920902 0
M  V30 14640 H 1392.56 -1.84938 -3.40407 0
M  V30 14641 H 1392.98 -4.06142 -3.31887 0
M  V30 14642 H 1394.45 -2.9819 -4.64528 0
M  V30 14643 H 1394.93 -1.351 -4.17905 0
M  V30 14644 H 1395.53 -2.74205 -3.25103 0
M  V30 14645 N 1393.85 0.973806 -1.23914 0
M  V30 14646 C 1395.26 1.53057 -1.06913 0
M  V30 14647 C 1395.61 1.92842 0.361423 0
M  V30 14648 O 1394.74 1.76716 1.24901 0
M  V30 14649 C 1395.33 2.78137 -1.93457 0
M  V30 14650 C 1393.89 3.3019 -1.80697 0
M  V30 14651 C 1393.04 2.03137 -1.88761 0
M  V30 14652 H 1395.99 0.792767 -1.37481 0
M  V30 14653 H 1396.01 3.5124 -1.46325 0
M  V30 14654 H 1395.52 2.49149 -2.97568 0
M  V30 14655 H 1393.62 3.64043 -0.793951 0
M  V30 14656 H 1393.73 3.99503 -2.64451 0
M  V30 14657 H 1392.1 2.17572 -1.32418 0
M  V30 14658 H 1392.88 1.76522 -2.9444 0
M  V30 14659 N 1395.33 1.05191 1.17357 0
M  V30 14660 C 1396.57 0.763113 1.87895 0
M  V30 14661 C 1396.91 -0.708071 1.80831 0
M  V30 14662 O 1396.18 -1.51777 1.21631 0
M  V30 14663 C 1396.46 1.2442 3.37923 0
M  V30 14664 C 1396.32 2.77832 3.53737 0
M  V30 14665 C 1397.64 0.843209 4.31947 0
M  V30 14666 H 1394.75 0.27869 0.682276 0
M  V30 14667 H 1397.4 1.3059 1.38008 0
M  V30 14668 H 1395.55 0.782438 3.80539 0
M  V30 14669 H 1397.22 3.32131 3.20135 0
M  V30 14670 H 1395.46 3.17108 2.96015 0
M  V30 14671 H 1396.13 3.06555 4.59052 0
M  V30 14672 H 1398.61 1.24073 3.97171 0
M  V30 14673 H 1397.48 1.20743 5.35455 0
M  V30 14674 H 1397.75 -0.252802 4.41377 0
M  V30 14675 N 1396.8 -1.33791 0.83293 0
M  V30 14676 C 1397.71 -2.33108 0.264169 0
M  V30 14677 C 1398.73 -1.6308 -0.606694 0
M  V30 14678 O 1399.91 -1.94777 -0.512225 0
M  V30 14679 C 1396.97 -3.42208 -0.556315 0
M  V30 14680 C 1396.03 -4.27966 0.338123 0
M  V30 14681 C 1395.27 -5.31856 -0.443297 0
M  V30 14682 O 1395.49 -5.45234 -1.6756 0
M  V30 14683 O 1394.42 -6.01632 0.179599 0
M  V30 14684 H 1398.25 -2.83602 1.08645 0
M  V30 14685 H 1395.83 -1.37027 0.595307 0
M  V30 14686 H 1397.72 -4.088 -1.02277 0
M  V30 14687 H 1396.39 -2.9394 -1.35575 0
M  V30 14688 H 1395.3 -3.64262 0.852293 0
M  V30 14689 H 1396.63 -4.79701 1.10217 0
M  V30 14690 N 1398.28 -0.588812 -1.46187 0
M  V30 14691 C 1399.19 0.143253 -2.34162 0
M  V30 14692 C 1400.21 0.879779 -1.5012 0
M  V30 14693 O 1401.38 0.841592 -1.82973 0
M  V30 14694 C 1398.45 1.14017 -3.27416 0
M  V30 14695 C 1397.51 0.407651 -4.2736 0
M  V30 14696 C 1396.74 1.35708 -5.16158 0
M  V30 14697 O 1396.97 2.59394 -5.08007 0
M  V30 14698 O 1395.9 0.864343 -5.95662 0
M  V30 14699 H 1399.73 -0.579228 -2.98125 0
M  V30 14700 H 1397.31 -0.349174 -1.45262 0
M  V30 14701 H 1399.19 1.71484 -3.8493 0
M  V30 14702 H 1397.87 1.84401 -2.66041 0
M  V30 14703 H 1396.78 -0.209011 -3.73516 0
M  V30 14704 H 1398.11 -0.255334 -4.91537 0
M  V30 14705 N 1399.76 1.54172 -0.326923 0
M  V30 14706 C 1401.01 2.00926 0.275047 0
M  V30 14707 C 1401.34 1.21469 1.51522 0
M  V30 14708 O 1400.61 0.297871 1.92206 0
M  V30 14709 C 1400.9 3.54967 0.605833 0
M  V30 14710 C 1400.75 4.45147 -0.645279 0
M  V30 14711 C 1402.07 4.16489 1.42213 0
M  V30 14712 H 1399.19 0.730389 0.098495 0
M  V30 14713 H 1401.83 1.84735 -0.444168 0
M  V30 14714 H 1399.98 3.68895 1.21857 0
M  V30 14715 H 1401.65 4.43085 -1.2835 0
M  V30 14716 H 1399.9 4.14686 -1.27349 0
M  V30 14717 H 1400.57 5.50763 -0.36932 0
M  V30 14718 H 1403.04 4.06158 0.904172 0
M  V30 14719 H 1401.92 5.24377 1.62234 0
M  V30 14720 H 1402.18 3.70032 2.41928 0
M  V30 14721 N 1401.24 0.0551678 1.57503 0
M  V30 14722 C 1402.65 -0.479948 1.80426 0
M  V30 14723 C 1403 -1.70673 0.967733 0
M  V30 14724 O 1402.13 -2.15604 0.185462 0
M  V30 14725 C 1402.72 -0.877496 3.27239 0
M  V30 14726 C 1401.28 -1.35757 3.51066 0
M  V30 14727 C 1400.43 -0.334681 2.75273 0
M  V30 14728 H 1403.38 0.281016 1.56192 0
M  V30 14729 H 1403.4 -1.74013 3.38378 0
M  V30 14730 H 1402.91 0.015571 3.88097 0
M  V30 14731 H 1401.01 -2.26969 2.95492 0
M  V30 14732 H 1401.12 -1.34697 4.59776 0
M  V30 14733 H 1399.49 -0.808421 2.4153 0
M  V30 14734 H 1400.27 0.550369 3.3886 0
M  V30 14735 N 1402.72 -1.56081 -0.218252 0
M  V30 14736 C 1403.68 -1.91851 -1.25402 0
M  V30 14737 C 1404.68 -0.797399 -1.39636 0
M  V30 14738 O 1405.87 -1.06511 -1.37844 0
M  V30 14739 C 1403 -2.17223 -2.6273 0
M  V30 14740 H 1404.19 -2.84493 -0.948882 0
M  V30 14741 H 1401.75 -1.49414 -0.458809 0
M  V30 14742 H 1402.48 -1.27144 -2.98337 0
M  V30 14743 H 1402.27 -2.98899 -2.53775 0
M  V30 14744 H 1403.76 -2.45981 -3.37466 0
M  V30 14745 N 1404.2 0.485086 -1.49949 0
M  V30 14746 C 1405.16 1.56713 -1.67253 0
M  V30 14747 C 1406.16 1.51329 -0.543701 0
M  V30 14748 O 1407.35 1.54198 -0.810472 0
M  V30 14749 C 1404.48 2.9636 -1.68475 0
M  V30 14750 H 1405.67 1.42693 -2.63778 0
M  V30 14751 H 1403.23 0.710473 -1.39219 0
M  V30 14752 H 1403.96 3.1584 -0.735924 0
M  V30 14753 H 1403.75 3.01675 -2.50469 0
M  V30 14754 H 1405.24 3.74945 -1.83865 0
M  V30 14755 N 1405.67 1.39291 0.737279 0
M  V30 14756 C 1406.92 1.35702 1.49224 0
M  V30 14757 C 1407.24 -0.0450282 1.95548 0
M  V30 14758 O 1408.44 -0.203495 2.70736 0
M  V30 14759 C 1406.9 2.38387 2.69629 0
M  V30 14760 C 1406.51 3.84295 2.30263 0
M  V30 14761 C 1408.25 2.4387 3.47459 0
M  V30 14762 C 1406.16 4.78626 3.47377 0
M  V30 14763 H 1405.09 0.50449 0.560362 0
M  V30 14764 H 1407.74 1.64926 0.804466 0
M  V30 14765 H 1406.12 2.0223 3.40469 0
M  V30 14766 H 1407.29 4.2948 1.66984 0
M  V30 14767 H 1405.61 3.82085 1.6553 0
M  V30 14768 H 1408.21 3.11539 4.34566 0
M  V30 14769 H 1408.55 1.46253 3.89764 0
M  V30 14770 H 1409.08 2.78908 2.83646 0
M  V30 14771 H 1405.82 5.77497 3.10124 0
M  V30 14772 H 1405.34 4.38123 4.09645 0
M  V30 14773 H 1407.02 4.9742 4.13742 0
M  V30 14774 N 1407.15 -0.967221 1.24429 0
M  V30 14775 C 1408.11 -2.04344 1.03808 0
M  V30 14776 C 1409.11 -1.60799 -0.00476972 0
M  V30 14777 O 1410.3 -1.72591 0.236241 0
M  V30 14778 C 1407.44 -3.36041 0.573496 0
M  V30 14779 H 1408.63 -2.2407 1.9933 0
M  V30 14780 H 1406.18 -1.14253 1.06658 0
M  V30 14781 H 1406.92 -3.22008 -0.384898 0
M  V30 14782 H 1406.7 -3.68991 1.32619 0
M  V30 14783 H 1408.19 -4.15165 0.450272 0
M  V30 14784 N 1408.63 -1.05812 -1.16797 0
M  V30 14785 C 1410.04 -0.79707 -1.6883 0
M  V30 14786 C 1410.39 0.679967 -1.8404 0
M  V30 14787 O 1409.52 1.5279 -1.53245 0
M  V30 14788 C 1410.11 -1.44029 -3.06661 0
M  V30 14789 C 1408.67 -1.22714 -3.55835 0
M  V30 14790 C 1407.82 -1.51988 -2.31937 0
M  V30 14791 H 1410.77 -1.22224 -1.01227 0
M  V30 14792 H 1410.79 -0.852962 -3.70816 0
M  V30 14793 H 1410.3 -2.51529 -2.95559 0
M  V30 14794 H 1408.4 -0.171671 -3.72204 0
M  V30 14795 H 1408.52 -1.93646 -4.38221 0
M  V30 14796 H 1406.88 -0.940215 -2.36711 0
M  V30 14797 H 1407.66 -2.60635 -2.23438 0
M  V30 14798 N 1410.11 1.33347 -0.840014 0
M  V30 14799 C 1411.35 1.97745 -0.436274 0
M  V30 14800 C 1411.68 1.66538 1.00475 0
M  V30 14801 O 1410.94 0.938137 1.71748 0
M  V30 14802 C 1411.24 3.52239 -0.605173 0
M  V30 14803 C 1410.9 4.03398 -2.01446 0
M  V30 14804 C 1409.56 4.1708 -2.39994 0
M  V30 14805 C 1411.92 4.3071 -2.93494 0
M  V30 14806 C 1409.24 4.55409 -3.69891 0
M  V30 14807 C 1411.6 4.70491 -4.22873 0
M  V30 14808 C 1410.26 4.82379 -4.61375 0
M  V30 14809 H 1409.53 0.723599 -0.159644 0
M  V30 14810 H 1412.18 1.59003 -1.06725 0
M  V30 14811 H 1410.48 3.91648 0.109116 0
M  V30 14812 H 1412.18 4.00069 -0.273056 0
M  V30 14813 H 1408.77 3.93224 -1.70508 0
M  V30 14814 H 1412.95 4.19661 -2.64949 0
M  V30 14815 H 1408.21 4.62806 -3.99525 0
M  V30 14816 H 1412.38 4.9058 -4.94271 0
M  V30 14817 H 1410.01 5.11835 -5.62075 0
M  V30 14818 N 1411.59 0.596556 1.45873 0
M  V30 14819 C 1412.52 -0.166704 2.28593 0
M  V30 14820 C 1413.53 -0.84231 1.39316 0
M  V30 14821 O 1414.72 -0.709548 1.63792 0
M  V30 14822 C 1411.82 -1.25641 3.1475 0
M  V30 14823 C 1410.99 -0.67006 4.32237 0
M  V30 14824 C 1410.05 -1.64924 4.99686 0
M  V30 14825 O 1409.08 -1.17986 5.56838 0
M  V30 14826 N 1410.28 -2.98355 4.9796 0
M  V30 14827 H 1413.04 0.543045 2.94739 0
M  V30 14828 H 1410.61 0.435274 1.55939 0
M  V30 14829 H 1412.6 -1.91104 3.56737 0
M  V30 14830 H 1411.17 -1.86883 2.50586 0
M  V30 14831 H 1410.39 0.162375 3.93865 0
M  V30 14832 H 1411.68 -0.258345 5.08144 0
M  V30 14833 H 1411.07 -3.39101 4.52799 0
M  V30 14834 H 1409.63 -3.5927 5.43846 0
M  V30 14835 N 1413.06 -1.53996 0.335095 0
M  V30 14836 C 1414.31 -2.00375 -0.263475 0
M  V30 14837 C 1414.63 -1.22471 -1.51742 0
M  V30 14838 O 1413.9 -0.329604 -1.93107 0
M  V30 14839 H 1412.48 -0.740229 -0.100347 0
M  V30 14840 H 1415.14 -1.89531 0.454302 0
M  V30 14841 H 1414.24 -3.07874 -0.511834 0
M  V30 14842 N 1414.54 -0.0635198 -1.57472 0
M  V30 14843 C 1415.96 0.293084 -1.56886 0
M  V30 14844 C 1416.16 1.70603 -1.07224 0
M  V30 14845 O 1415.21 2.41584 -0.734388 0
M  V30 14846 C 1416.53 0.110286 -3.00498 0
M  V30 14847 C 1418.07 0.180453 -3.12479 0
M  V30 14848 C 1418.55 0.0260354 -4.57993 0
M  V30 14849 N 1420.04 0.0819109 -4.63128 0
M  V30 14850 C 1420.78 -0.0132764 -5.73398 0
M  V30 14851 N 1420.27 -0.161514 -6.92612 0
M  V30 14852 N 1422.06 0.0431948 -5.62083 0
M  V30 14853 H 1414.22 -0.98706 -1.88072 0
M  V30 14854 H 1416.48 -0.384232 -0.866643 0
M  V30 14855 H 1416.18 -0.864378 -3.40913 0
M  V30 14856 H 1416.06 0.866117 -3.67122 0
M  V30 14857 H 1418.45 1.1456 -2.71956 0
M  V30 14858 H 1418.53 -0.606342 -2.4851 0
M  V30 14859 H 1418.17 -0.935839 -4.99204 0
M  V30 14860 H 1418.1 0.832131 -5.19984 0
M  V30 14861 H 1420.59 0.195229 -3.77395 0
M  V30 14862 H 1420.9 -0.226517 -7.72468 0
M  V30 14863 H 1419.25 -0.196766 -6.94721 0
M  V30 14864 H 1422.44 0.157648 -4.67834 0
M  V30 14865 H 1422.61 -0.0344435 -6.47991 0
M  V30 14866 N 1416.02 1.56195 0.209972 0
M  V30 14867 C 1417.27 1.80011 0.93402 0
M  V30 14868 C 1417.6 0.635109 1.83521 0
M  V30 14869 O 1416.87 -0.365099 1.91043 0
M  V30 14870 C 1417.16 3.13989 1.76304 0
M  V30 14871 C 1417.01 4.40956 0.887567 0
M  V30 14872 C 1418.33 3.44514 2.73857 0
M  V30 14873 H 1415.45 0.654859 0.338125 0
M  V30 14874 H 1418.09 1.88921 0.20221 0
M  V30 14875 H 1416.24 3.06524 2.38695 0
M  V30 14876 H 1417.91 4.60452 0.279507 0
M  V30 14877 H 1416.15 4.33368 0.193533 0
M  V30 14878 H 1416.83 5.31164 1.50228 0
M  V30 14879 H 1419.3 3.52182 2.216 0
M  V30 14880 H 1418.18 4.39407 3.28957 0
M  V30 14881 H 1418.44 2.6726 3.52171 0
M  V30 14882 N 1417.5 -0.477127 1.50204 0
M  V30 14883 C 1418.43 -1.58405 1.71552 0
M  V30 14884 C 1419.41 -1.60463 0.564413 0
M  V30 14885 O 1420.59 -1.76826 0.802893 0
M  V30 14886 C 1417.72 -2.96765 1.8041 0
M  V30 14887 C 1416.68 -3.09573 2.95548 0
M  V30 14888 C 1416 -4.49522 2.89542 0
M  V30 14889 C 1417.3 -2.87356 4.36147 0
M  V30 14890 H 1419 -1.40792 2.64231 0
M  V30 14891 H 1416.54 -0.675886 1.27153 0
M  V30 14892 H 1418.5 -3.74125 1.9393 0
M  V30 14893 H 1417.22 -3.1552 0.843489 0
M  V30 14894 H 1415.88 -2.34645 2.81669 0
M  V30 14895 H 1415.53 -4.65186 1.91339 0
M  V30 14896 H 1415.23 -4.59028 3.66834 0
M  V30 14897 H 1416.75 -5.28909 3.05102 0
M  V30 14898 H 1418.17 -3.54469 4.50583 0
M  V30 14899 H 1416.56 -3.08313 5.14843 0
M  V30 14900 H 1417.63 -1.83264 4.48935 0
M  V30 14901 N 1418.98 -1.3968 -0.729882 0
M  V30 14902 C 1420.23 -1.36492 -1.48502 0
M  V30 14903 C 1420.54 0.0346572 -1.95569 0
M  V30 14904 O 1421.74 0.189135 -2.7084 0
M  V30 14905 C 1420.2 -2.39813 -2.68361 0
M  V30 14906 C 1419.81 -3.85511 -2.28222 0
M  V30 14907 C 1421.55 -2.45709 -3.46161 0
M  V30 14908 C 1419.46 -4.80462 -3.44834 0
M  V30 14909 H 1418.39 -0.507455 -0.557679 0
M  V30 14910 H 1421.04 -1.6535 -0.795708 0
M  V30 14911 H 1419.42 -2.04033 -3.39392 0
M  V30 14912 H 1420.6 -4.30359 -1.64704 0
M  V30 14913 H 1418.91 -3.82957 -1.63501 0
M  V30 14914 H 1421.51 -3.1384 -4.32907 0
M  V30 14915 H 1421.85 -1.48318 -3.88983 0
M  V30 14916 H 1422.38 -2.80409 -2.82163 0
M  V30 14917 H 1419.12 -5.79134 -3.07057 0
M  V30 14918 H 1418.64 -4.40289 -4.07315 0
M  V30 14919 H 1420.32 -4.99607 -4.11098 0
M  V30 14920 N 1420.45 0.960609 -1.2494 0
M  V30 14921 C 1421.7 1.70111 -1.09117 0
M  V30 14922 C 1422.02 1.91466 0.369544 0
M  V30 14923 O 1421.29 1.49749 1.26302 0
M  V30 14924 H 1419.87 0.630372 -0.400799 0
M  V30 14925 H 1422.54 1.15525 -1.56971 0
M  V30 14926 H 1421.63 2.68277 -1.5948 0
M  V30 14927 N 1421.93 1.0643 1.16234 0
M  V30 14928 C 1423.18 0.782998 1.87075 0
M  V30 14929 C 1423.51 -0.688852 1.81572 0
M  V30 14930 O 1422.79 -1.50478 1.23234 0
M  V30 14931 C 1423.07 1.27997 3.36584 0
M  V30 14932 C 1422.92 2.81568 3.5077 0
M  V30 14933 C 1424.24 0.888975 4.31028 0
M  V30 14934 H 1421.36 0.28591 0.679282 0
M  V30 14935 H 1424 1.32046 1.36615 0
M  V30 14936 H 1422.15 0.822756 3.79688 0
M  V30 14937 H 1423.82 3.35508 3.16595 0
M  V30 14938 H 1422.07 3.2023 2.92635 0
M  V30 14939 H 1422.74 3.11406 4.55774 0
M  V30 14940 H 1425.21 1.28279 3.95833 0
M  V30 14941 H 1424.09 1.26416 5.34144 0
M  V30 14942 H 1424.35 -0.205973 4.4162 0
M  V30 14943 N 1423.41 -1.329 0.847073 0
M  V30 14944 C 1424.66 -1.9712 0.445872 0
M  V30 14945 C 1424.98 -1.67398 -1.00014 0
M  V30 14946 O 1424.25 -0.977204 -1.69787 0
M  V30 14947 H 1422.83 -0.729247 0.161887 0
M  V30 14948 H 1425.49 -1.62118 1.08184 0
M  V30 14949 H 1424.59 -3.06575 0.584676 0
M  V30 14950 N 1424.89 -0.604284 -1.45555 0
M  V30 14951 C 1425.84 0.116491 -2.30506 0
M  V30 14952 C 1426.81 0.863214 -1.41908 0
M  V30 14953 O 1427.99 0.849606 -1.7084 0
M  V30 14954 C 1425.13 1.11009 -3.26758 0
M  V30 14955 C 1424.24 0.36458 -4.30459 0
M  V30 14956 C 1423.38 1.34761 -5.13822 0
M  V30 14957 C 1422.42 0.589724 -6.09253 0
M  V30 14958 N 1421.55 1.52187 -6.85408 0
M  V30 14959 H 1426.39 -0.61394 -2.91607 0
M  V30 14960 H 1423.93 -0.314561 -1.43697 0
M  V30 14961 H 1425.89 1.69925 -3.81027 0
M  V30 14962 H 1424.52 1.80797 -2.67418 0
M  V30 14963 H 1423.57 -0.340026 -3.78877 0
M  V30 14964 H 1424.88 -0.226906 -4.98284 0
M  V30 14965 H 1424.04 2.00893 -5.72474 0
M  V30 14966 H 1422.78 1.97302 -4.46008 0
M  V30 14967 H 1421.78 -0.0852486 -5.49734 0
M  V30 14968 H 1423.01 -0.0306001 -6.79093 0
M  V30 14969 H 1420.95 2.13499 -6.20286 0
M  V30 14970 H 1420.87 0.983737 -7.49572 0
M  V30 14971 H 1422.14 2.17287 -7.48603 0
M  V30 14972 N 1426.37 1.53816 -0.343257 0
M  V30 14973 C 1427.3 2.27951 0.506005 0
M  V30 14974 C 1428.28 1.29502 1.10287 0
M  V30 14975 O 1429.46 1.58344 1.12432 0
M  V30 14976 C 1426.59 3.0521 1.65723 0
M  V30 14977 C 1425.55 4.11161 1.18871 0
M  V30 14978 C 1424.87 4.76373 2.42843 0
M  V30 14979 C 1426.17 5.21498 0.289403 0
M  V30 14980 H 1427.87 2.99189 -0.112435 0
M  V30 14981 H 1425.41 1.43893 -0.055516 0
M  V30 14982 H 1427.37 3.55811 2.2578 0
M  V30 14983 H 1426.09 2.31624 2.30256 0
M  V30 14984 H 1424.75 3.61473 0.610962 0
M  V30 14985 H 1424.4 3.99381 3.05784 0
M  V30 14986 H 1424.1 5.47955 2.12177 0
M  V30 14987 H 1425.62 5.29758 3.03627 0
M  V30 14988 H 1427.03 5.67736 0.796808 0
M  V30 14989 H 1425.43 6.00054 0.0746366 0
M  V30 14990 H 1426.5 4.80185 -0.674543 0
M  V30 14991 N 1427.84 0.0718701 1.57436 0
M  V30 14992 C 1428.77 -0.89288 2.15754 0
M  V30 14993 C 1429.76 -1.31036 1.0846 0
M  V30 14994 O 1430.94 -1.38139 1.36496 0
M  V30 14995 C 1428.07 -2.16044 2.71923 0
M  V30 14996 C 1427.02 -1.88236 3.84384 0
M  V30 14997 C 1426.35 -3.21624 4.27156 0
M  V30 14998 C 1427.65 -1.18758 5.0862 0
M  V30 14999 H 1429.34 -0.407061 2.9662 0
M  V30 15000 H 1426.89 -0.194354 1.42682 0
M  V30 15001 H 1428.84 -2.83952 3.11366 0
M  V30 15002 H 1427.57 -2.66868 1.88279 0
M  V30 15003 H 1426.23 -1.22734 3.45445 0
M  V30 15004 H 1425.87 -3.70289 3.40433 0
M  V30 15005 H 1425.57 -3.03809 5.02965 0
M  V30 15006 H 1427.1 -3.90729 4.69215 0
M  V30 15007 H 1428.51 -1.76735 5.45378 0
M  V30 15008 H 1426.91 -1.11201 5.89707 0
M  V30 15009 H 1427.98 -0.166682 4.84613 0
M  V30 15010 N 1429.32 -1.56304 -0.201686 0
M  V30 15011 C 1430.74 -1.49741 -0.552247 0
M  V30 15012 C 1430.94 -0.770683 -1.86179 0
M  V30 15013 O 1429.99 -0.318489 -2.50483 0
M  V30 15014 C 1431.31 -2.94384 -0.613083 0
M  V30 15015 C 1432.86 -3.05018 -0.702365 0
M  V30 15016 C 1433.33 -4.51058 -0.794371 0
M  V30 15017 N 1434.82 -4.55183 -0.858072 0
M  V30 15018 C 1435.56 -5.65487 -0.949317 0
M  V30 15019 N 1435.05 -6.85497 -1.00327 0
M  V30 15020 N 1436.85 -5.53385 -0.985995 0
M  V30 15021 H 1429 -2.01971 0.657394 0
M  V30 15022 H 1431.26 -0.918839 0.233322 0
M  V30 15023 H 1430.97 -3.50584 0.279921 0
M  V30 15024 H 1430.84 -3.47376 -1.47002 0
M  V30 15025 H 1433.23 -2.4887 -1.5858 0
M  V30 15026 H 1433.31 -2.55161 0.180636 0
M  V30 15027 H 1432.95 -5.07829 0.0846883 0
M  V30 15028 H 1432.88 -4.98641 -1.69308 0
M  V30 15029 H 1435.37 -3.68765 -0.825888 0
M  V30 15030 H 1435.69 -7.65312 -1.07322 0
M  V30 15031 H 1434.03 -6.88169 -0.972061 0
M  V30 15032 H 1437.22 -4.58552 -0.940635 0
M  V30 15033 H 1437.39 -6.39376 -1.05365 0
M  V30 15034 N 1430.8 0.469154 -1.50455 0
M  V30 15035 C 1432.05 1.2229 -1.6178 0
M  V30 15036 C 1432.38 1.91577 -0.318073 0
M  V30 15037 O 1431.65 1.82205 0.68057 0
M  V30 15038 C 1431.94 2.26504 -2.79943 0
M  V30 15039 C 1431.79 1.61509 -4.19804 0
M  V30 15040 C 1433.11 3.27796 -2.93662 0
M  V30 15041 H 1430.23 0.443241 -0.588817 0
M  V30 15042 H 1432.87 0.516431 -1.82847 0
M  V30 15043 H 1431.02 2.86757 -2.62112 0
M  V30 15044 H 1432.69 1.04838 -4.49229 0
M  V30 15045 H 1430.94 0.918162 -4.23972 0
M  V30 15046 H 1431.61 2.37248 -4.98415 0
M  V30 15047 H 1434.08 2.77568 -3.09992 0
M  V30 15048 H 1432.96 3.98041 -3.77961 0
M  V30 15049 H 1433.22 3.92033 -2.04359 0
M  V30 15050 N 1432.28 1.40065 0.722464 0
M  V30 15051 C 1433.51 1.41066 1.50944 0
M  V30 15052 C 1433.92 0.00678083 1.89199 0
M  V30 15053 O 1433.26 -0.977992 1.55502 0
M  V30 15054 C 1433.32 2.23127 2.81877 0
M  V30 15055 C 1432.99 3.7162 2.65984 0
M  V30 15056 C 1433.98 4.64415 2.33698 0
M  V30 15057 C 1431.67 4.15355 2.82463 0
M  V30 15058 C 1433.66 5.98928 2.18091 0
M  V30 15059 C 1431.35 5.49941 2.66474 0
M  V30 15060 C 1432.35 6.41542 2.34335 0
M  V30 15061 O 1432.03 7.73647 2.18461 0
M  V30 15062 H 1431.77 0.483321 0.472628 0
M  V30 15063 H 1434.32 1.84664 0.899356 0
M  V30 15064 H 1432.55 1.74298 3.45192 0
M  V30 15065 H 1434.24 2.16153 3.43559 0
M  V30 15066 H 1435.01 4.31924 2.20606 0
M  V30 15067 H 1430.88 3.44381 3.06468 0
M  V30 15068 H 1434.43 6.70391 1.92928 0
M  V30 15069 H 1430.33 5.82019 2.79149 0
M  V30 15070 H 1431.09 7.84507 2.33434 0
M  V30 15071 N 1433.76 -0.95397 1.25448 0
M  V30 15072 C 1435.03 -1.67502 1.01008 0
M  V30 15073 C 1435.41 -2.05949 -0.463483 0
M  V30 15074 O 1434.76 -1.77336 -1.44098 0
M  V30 15075 C 1434.97 -2.89679 1.94645 0
M  V30 15076 C 1436.32 -3.61617 2.22526 0
M  V30 15077 O 1437.34 -2.99762 1.92409 0
M  V30 15078 O 1436.2 -4.72998 2.73743 0
M  V30 15079 H 1433.3 -0.732917 0.383094 0
M  V30 15080 H 1435.84 -1.00684 1.36605 0
M  V30 15081 H 1434.62 -2.58063 2.94141 0
M  V30 15082 H 1434.24 -3.64228 1.59449 0
M  V30 15083 N 1435.24 -1.07045 -1.15668 0
M  V30 15084 C 1436.17 -0.709413 -2.22463 0
M  V30 15085 C 1437.15 0.30169 -1.67403 0
M  V30 15086 O 1438.33 0.175131 -1.93409 0
M  V30 15087 C 1435.46 -0.103121 -3.47147 0
M  V30 15088 C 1434.42 -1.04103 -4.15146 0
M  V30 15089 C 1433.74 -0.297656 -5.33871 0
M  V30 15090 C 1435.04 -2.37332 -4.65264 0
M  V30 15091 H 1436.74 -1.60227 -2.52918 0
M  V30 15092 H 1434.28 -0.771846 -1.21567 0
M  V30 15093 H 1436.23 0.161371 -4.21091 0
M  V30 15094 H 1434.96 0.824792 -3.16014 0
M  V30 15095 H 1433.62 -1.2904 -3.43139 0
M  V30 15096 H 1433.27 0.633618 -4.98993 0
M  V30 15097 H 1432.97 -0.922789 -5.80309 0
M  V30 15098 H 1434.49 -0.0408892 -6.10586 0
M  V30 15099 H 1435.9 -2.1674 -5.30751 0
M  V30 15100 H 1434.3 -2.95412 -5.22352 0
M  V30 15101 H 1435.37 -2.99859 -3.81068 0
M  V30 15102 N 1436.71 1.32449 -0.85411 0
M  V30 15103 C 1437.96 1.96881 -0.45632 0
M  V30 15104 C 1438.28 1.67926 0.991248 0
M  V30 15105 O 1437.55 0.986195 1.69266 0
M  V30 15106 H 1436.13 0.728378 -0.165752 0
M  V30 15107 H 1438.79 1.61542 -1.09042 0
M  V30 15108 H 1437.89 3.0626 -0.600927 0
M  V30 15109 N 1438.19 0.611994 1.45232 0
M  V30 15110 C 1439.14 -0.104265 2.30564 0
M  V30 15111 C 1440.11 -0.855676 1.42364 0
M  V30 15112 O 1441.29 -0.840534 1.71288 0
M  V30 15113 C 1438.43 -1.09274 3.27343 0
M  V30 15114 C 1437.55 -0.341747 4.30646 0
M  V30 15115 C 1436.68 -1.32034 5.14529 0
M  V30 15116 C 1435.72 -0.557405 6.09557 0
M  V30 15117 N 1434.86 -1.4855 6.86205 0
M  V30 15118 H 1439.7 0.629396 2.91278 0
M  V30 15119 H 1437.23 0.322177 1.43528 0
M  V30 15120 H 1439.19 -1.67902 3.81923 0
M  V30 15121 H 1437.82 -1.79376 2.68373 0
M  V30 15122 H 1436.87 0.360114 3.78692 0
M  V30 15123 H 1438.19 0.253328 4.98156 0
M  V30 15124 H 1437.34 -1.97854 5.73532 0
M  V30 15125 H 1436.08 -1.94934 4.47048 0
M  V30 15126 H 1435.08 0.114401 5.49681 0
M  V30 15127 H 1436.31 0.0666137 6.79067 0
M  V30 15128 H 1434.26 -2.10207 6.21409 0
M  V30 15129 H 1434.17 -0.943972 7.50083 0
M  V30 15130 H 1435.44 -2.13314 7.49745 0
M  V30 15131 N 1439.67 -1.53632 0.351409 0
M  V30 15132 C 1440.62 -2.25281 -0.501724 0
M  V30 15133 C 1441.59 -1.25406 -1.08915 0
M  V30 15134 O 1442.77 -1.54157 -1.1243 0
M  V30 15135 C 1439.91 -3.03491 -1.64278 0
M  V30 15136 C 1439.02 -4.18233 -1.0819 0
M  V30 15137 C 1438.16 -4.83914 -2.1909 0
M  V30 15138 C 1437.2 -5.90712 -1.60394 0
M  V30 15139 N 1436.34 -6.50141 -2.65068 0
M  V30 15140 H 1441.18 -2.97775 0.11579 0
M  V30 15141 H 1438.71 -1.46938 0.0689141 0
M  V30 15142 H 1440.67 -3.47101 -2.31467 0
M  V30 15143 H 1439.3 -2.33279 -2.23116 0
M  V30 15144 H 1438.35 -3.7921 -0.300713 0
M  V30 15145 H 1439.66 -4.95023 -0.612644 0
M  V30 15146 H 1438.82 -5.30635 -2.94128 0
M  V30 15147 H 1437.56 -4.06565 -2.69362 0
M  V30 15148 H 1436.56 -5.43366 -0.838646 0
M  V30 15149 H 1437.79 -6.69973 -1.10964 0
M  V30 15150 H 1435.73 -5.75652 -3.14581 0
M  V30 15151 H 1435.65 -7.22427 -2.22788 0
M  V30 15152 H 1436.92 -7.01513 -3.39852 0
M  V30 15153 N 1441.15 -0.0802183 -1.57396 0
M  V30 15154 C 1442.09 0.884041 -2.13198 0
M  V30 15155 C 1443.06 1.28975 -1.04664 0
M  V30 15156 O 1444.25 1.37413 -1.32372 0
M  V30 15157 C 1441.39 2.14323 -2.7048 0
M  V30 15158 C 1440.5 1.7894 -3.93198 0
M  V30 15159 C 1439.64 2.99534 -4.38695 0
M  V30 15160 C 1438.68 2.60207 -5.54039 0
M  V30 15161 N 1437.81 3.73587 -5.94455 0
M  V30 15162 H 1442.65 0.40131 -2.95285 0
M  V30 15163 H 1440.19 0.186429 -1.45914 0
M  V30 15164 H 1442.15 2.88046 -3.01804 0
M  V30 15165 H 1440.78 2.60122 -1.91144 0
M  V30 15166 H 1439.83 0.952465 -3.68283 0
M  V30 15167 H 1441.14 1.46012 -4.76951 0
M  V30 15168 H 1440.3 3.81526 -4.71724 0
M  V30 15169 H 1439.04 3.35661 -3.53812 0
M  V30 15170 H 1438.04 1.76638 -5.20652 0
M  V30 15171 H 1439.27 2.2524 -6.40659 0
M  V30 15172 H 1437.21 4.0946 -5.12521 0
M  V30 15173 H 1437.13 3.44455 -6.72969 0
M  V30 15174 H 1438.4 4.56133 -6.3211 0
M  V30 15175 N 1442.63 1.56409 0.193394 0
M  V30 15176 C 1443.56 1.97707 1.24234 0
M  V30 15177 C 1444.54 0.849286 1.47381 0
M  V30 15178 O 1445.72 1.11374 1.59089 0
M  V30 15179 C 1442.85 2.31804 2.5862 0
M  V30 15180 C 1441.81 3.47337 2.50082 0
M  V30 15181 C 1441.13 3.67114 3.88756 0
M  V30 15182 C 1442.43 4.81472 2.02441 0
M  V30 15183 H 1444.13 2.8558 0.89914 0
M  V30 15184 H 1441.67 1.37396 0.431078 0
M  V30 15185 H 1443.62 2.5929 3.32185 0
M  V30 15186 H 1442.35 1.40816 2.94684 0
M  V30 15187 H 1441.01 3.19944 1.78973 0
M  V30 15188 H 1440.66 2.73454 4.22175 0
M  V30 15189 H 1440.36 4.44838 3.83918 0
M  V30 15190 H 1441.88 3.96978 4.6394 0
M  V30 15191 H 1443.29 5.07978 2.65766 0
M  V30 15192 H 1441.69 5.62677 2.08601 0
M  V30 15193 H 1442.76 4.74941 0.977704 0
M  V30 15194 N 1444.1 -0.461169 1.50702 0
M  V30 15195 C 1445.03 -1.56576 1.73223 0
M  V30 15196 C 1446.01 -1.59855 0.581401 0
M  V30 15197 O 1447.2 -1.75964 0.821602 0
M  V30 15198 C 1444.33 -2.94835 1.83548 0
M  V30 15199 C 1443.28 -3.06421 2.98815 0
M  V30 15200 C 1442.61 -4.46425 2.94293 0
M  V30 15201 C 1443.91 -2.82714 4.3917 0
M  V30 15202 H 1445.6 -1.37982 2.65709 0
M  V30 15203 H 1443.15 -0.662362 1.27862 0
M  V30 15204 H 1445.1 -3.72047 1.97887 0
M  V30 15205 H 1443.83 -3.14608 0.876906 0
M  V30 15206 H 1442.49 -2.31644 2.84142 0
M  V30 15207 H 1442.13 -4.63131 1.96262 0
M  V30 15208 H 1441.83 -4.55111 3.71682 0
M  V30 15209 H 1443.36 -5.25644 3.10695 0
M  V30 15210 H 1444.77 -3.4967 4.54317 0
M  V30 15211 H 1443.17 -3.02835 5.18084 0
M  V30 15212 H 1444.24 -1.78492 4.50853 0
M  V30 15213 N 1445.58 -1.40446 -0.715026 0
M  V30 15214 C 1447 -1.22488 -1.02317 0
M  V30 15215 C 1447.2 -0.100481 -2.01249 0
M  V30 15216 O 1446.25 0.541447 -2.46626 0
M  V30 15217 C 1447.57 -2.56682 -1.56636 0
M  V30 15218 C 1449.11 -2.63699 -1.68617 0
M  V30 15219 C 1449.59 -3.98163 -2.26342 0
M  V30 15220 N 1451.08 -3.99907 -2.33727 0
M  V30 15221 C 1451.82 -5.00737 -2.79375 0
M  V30 15222 N 1451.31 -6.11961 -3.24771 0
M  V30 15223 N 1453.1 -4.88106 -2.78764 0
M  V30 15224 H 1445.26 -2.12317 -0.0592712 0
M  V30 15225 H 1447.52 -0.943823 -0.088895 0
M  V30 15226 H 1447.22 -3.39615 -0.914036 0
M  V30 15227 H 1447.1 -2.77809 -2.55151 0
M  V30 15228 H 1449.49 -1.81138 -2.32966 0
M  V30 15229 H 1449.57 -2.46402 -0.687004 0
M  V30 15230 H 1449.21 -4.81164 -1.62614 0
M  V30 15231 H 1449.14 -4.1279 -3.26974 0
M  V30 15232 H 1451.63 -3.19592 -2.01666 0
M  V30 15233 H 1451.94 -6.84787 -3.58171 0
M  V30 15234 H 1450.29 -6.15525 -3.22729 0
M  V30 15235 H 1453.48 -4.00307 -2.42635 0
M  V30 15236 H 1453.65 -5.66828 -3.14023 0
M  V30 15237 N 1447.06 0.947303 -1.25952 0
M  V30 15238 C 1448.01 2.04511 -1.06976 0
M  V30 15239 C 1448.98 1.66084 0.023347 0
M  V30 15240 O 1450.16 1.9032 -0.135247 0
M  V30 15241 C 1447.3 3.37878 -0.70232 0
M  V30 15242 C 1446.41 3.89379 -1.87105 0
M  V30 15243 C 1445.55 5.11104 -1.44728 0
M  V30 15244 C 1444.59 5.54852 -2.58469 0
M  V30 15245 N 1443.73 6.67784 -2.16817 0
M  V30 15246 H 1448.57 2.20075 -2.00925 0
M  V30 15247 H 1446.1 1.07837 -1.00048 0
M  V30 15248 H 1448.06 4.14542 -0.470199 0
M  V30 15249 H 1446.69 3.22179 0.20019 0
M  V30 15250 H 1445.74 3.09169 -2.21627 0
M  V30 15251 H 1447.05 4.17789 -2.72496 0
M  V30 15252 H 1446.21 5.95208 -1.17525 0
M  V30 15253 H 1444.95 4.84426 -0.564191 0
M  V30 15254 H 1443.95 4.69308 -2.86409 0
M  V30 15255 H 1445.18 5.83534 -3.47368 0
M  V30 15256 H 1443.12 6.428 -1.30934 0
M  V30 15257 H 1443.04 6.95749 -2.95753 0
M  V30 15258 H 1444.31 7.55278 -1.92809 0
M  V30 15259 N 1448.54 1.07657 1.15099 0
M  V30 15260 C 1449.78 0.811006 1.87622 0
M  V30 15261 C 1450.14 -0.651144 1.80621 0
M  V30 15262 O 1451.34 -1.03188 2.48205 0
M  V30 15263 C 1449.61 1.30906 3.32563 0
M  V30 15264 S 1451.17 1.17465 4.22785 0
M  V30 15265 H 1447.99 0.293808 0.647455 0
M  V30 15266 H 1450.59 1.3763 1.38846 0
M  V30 15267 H 1449.3 2.36784 3.35204 0
M  V30 15268 H 1448.83 0.739107 3.86395 0
M  V30 15269 H 1450.84 0.114115 4.96069 0
M  V30 15270 N 1450.02 -1.31994 0.861122 0
M  V30 15271 C 1450.93 -2.32495 0.313555 0
M  V30 15272 C 1451.94 -1.64331 -0.571966 0
M  V30 15273 O 1453.12 -1.9582 -0.470794 0
M  V30 15274 C 1450.18 -3.43311 -0.483603 0
M  V30 15275 C 1449.24 -4.27153 0.428825 0
M  V30 15276 C 1448.48 -5.32676 -0.330383 0
M  V30 15277 O 1448.7 -5.48665 -1.55957 0
M  V30 15278 O 1447.63 -6.01116 0.307174 0
M  V30 15279 H 1451.46 -2.81234 1.14636 0
M  V30 15280 H 1449.05 -1.35734 0.624239 0
M  V30 15281 H 1450.93 -4.10877 -0.935831 0
M  V30 15282 H 1449.6 -2.9675 -1.2931 0
M  V30 15283 H 1448.51 -3.62372 0.929366 0
M  V30 15284 H 1449.84 -4.77255 1.20368 0
M  V30 15285 N 1451.49 -0.619688 -1.44906 0
M  V30 15286 C 1452.44 0.104373 -2.32366 0
M  V30 15287 C 1453.44 0.847423 -1.4668 0
M  V30 15288 O 1454.64 0.761618 -1.63093 0
M  V30 15289 H 1451.02 0.0525126 -0.750164 0
M  V30 15290 H 1452.99 -0.651525 -2.912 0
M  V30 15291 C 1451.74 1.08017 -3.30496 0
M  V30 15292 H 1451.06 0.517831 -3.96432 0
M  V30 15293 H 1452.5 1.5565 -3.94397 0
M  V30 15294 C 1450.96 2.15975 -2.58566 0
M  V30 15295 O 1451.49 3.23895 -2.37603 0
M  V30 15296 N 1449.7 1.91593 -2.18496 0
M  V30 15297 H 1449.24 1.03835 -2.35746 0
M  V30 15298 H 1449.2 2.64028 -1.70694 0
M  V30 15299 N 1452.97 1.53444 -0.359552 0
M  V30 15300 C 1453.92 2.25544 0.48977 0
M  V30 15301 C 1454.89 1.25982 1.08248 0
M  V30 15302 O 1456.07 1.54751 1.1161 0
M  V30 15303 C 1453.21 3.04358 1.62666 0
M  V30 15304 C 1452.33 4.18801 1.0597 0
M  V30 15305 C 1451.46 4.85069 2.1652 0
M  V30 15306 C 1450.5 5.91554 1.57259 0
M  V30 15307 N 1449.64 6.51537 2.61617 0
M  V30 15308 H 1454.48 2.97709 -0.13158 0
M  V30 15309 H 1452.02 1.469 -0.0767056 0
M  V30 15310 H 1453.97 3.48324 2.29623 0
M  V30 15311 H 1452.6 2.34459 2.21876 0
M  V30 15312 H 1451.66 3.79364 0.280599 0
M  V30 15313 H 1452.97 4.95341 0.586383 0
M  V30 15314 H 1452.12 5.32187 2.9131 0
M  V30 15315 H 1450.86 4.07988 2.67202 0
M  V30 15316 H 1449.87 5.43803 0.809818 0
M  V30 15317 H 1451.09 6.70552 1.07409 0
M  V30 15318 H 1449.04 5.77312 3.11523 0
M  V30 15319 H 1448.95 7.23599 2.18954 0
M  V30 15320 H 1450.22 7.03306 3.36127 0
M  V30 15321 N 1454.45 0.0885642 1.57351 0
M  V30 15322 C 1455.4 -0.883199 2.10199 0
M  V30 15323 C 1456.38 -1.24805 1.0155 0
M  V30 15324 O 1457.58 -1.22423 1.27835 0
M  V30 15325 C 1454.71 -2.14467 2.68065 0
M  V30 15326 C 1453.79 -1.80555 3.83746 0
M  V30 15327 N 1454.18 -1.17169 4.92042 0
M  V30 15328 C 1452.48 -2.10204 3.93358 0
M  V30 15329 C 1453.18 -1.01722 5.72737 0
M  V30 15330 N 1452.16 -1.53241 5.21553 0
M  V30 15331 H 1455.96 -0.38908 2.91313 0
M  V30 15332 H 1453.47 -0.114842 1.61993 0
M  V30 15333 H 1455.47 -2.85021 3.04251 0
M  V30 15334 H 1454.13 -2.64451 1.88403 0
M  V30 15335 H 1455.14 -0.839293 5.11054 0
M  V30 15336 H 1451.82 -2.62448 3.24696 0
M  V30 15337 H 1453.21 -0.522042 6.69869 0
M  V30 15338 N 1455.93 -1.56509 -0.185096 0
M  V30 15339 C 1457.18 -1.804 -0.902158 0
M  V30 15340 C 1457.49 -0.663496 -1.84003 0
M  V30 15341 O 1458.7 -0.786963 -2.59844 0
M  V30 15342 C 1457.15 -3.19608 -1.65466 0
M  V30 15343 C 1456.76 -4.41487 -0.761109 0
M  V30 15344 C 1458.5 -3.52801 -2.36076 0
M  V30 15345 C 1456.41 -5.71717 -1.51305 0
M  V30 15346 H 1455.34 -0.67268 -0.340614 0
M  V30 15347 H 1457.99 -1.82842 -0.155273 0
M  V30 15348 H 1456.37 -3.11443 -2.44579 0
M  V30 15349 H 1457.55 -4.60799 -0.00791878 0
M  V30 15350 H 1455.86 -4.16072 -0.165344 0
M  V30 15351 H 1458.46 -4.47339 -2.92902 0
M  V30 15352 H 1458.8 -2.77021 -3.10749 0
M  V30 15353 H 1459.34 -3.62457 -1.63919 0
M  V30 15354 H 1456.08 -6.5049 -0.808907 0
M  V30 15355 H 1455.6 -5.56406 -2.23992 0
M  V30 15356 H 1457.27 -6.13188 -2.0642 0
M  V30 15357 N 1457.41 0.45317 -1.50944 0
M  V30 15358 C 1458.37 1.5313 -1.7054 0
M  V30 15359 C 1459.37 1.50142 -0.575678 0
M  V30 15360 O 1460.56 1.52444 -0.842997 0
M  V30 15361 C 1457.69 2.92719 -1.74723 0
M  V30 15362 H 1458.88 1.37066 -2.66745 0
M  V30 15363 H 1456.44 0.680783 -1.40695 0
M  V30 15364 H 1457.17 3.14208 -0.802753 0
M  V30 15365 H 1456.96 2.96295 -2.56811 0
M  V30 15366 H 1458.45 3.7096 -1.91777 0
M  V30 15367 N 1458.88 1.40823 0.707568 0
M  V30 15368 C 1459.83 1.4191 1.84294 0
M  V30 15369 C 1460.83 0.298592 1.66748 0
M  V30 15370 O 1462.03 0.47003 1.73755 0
M  V30 15371 H 1458.41 0.44376 0.607109 0
M  V30 15372 H 1460.38 2.37623 1.80494 0
M  V30 15373 C 1459.13 1.30643 3.22223 0
M  V30 15374 H 1458.45 2.16145 3.36335 0
M  V30 15375 H 1459.89 1.35463 4.01778 0
M  V30 15376 C 1458.35 0.0174867 3.36895 0
M  V30 15377 O 1458.88 -0.942398 3.90489 0
M  V30 15378 N 1457.09 -0.0546572 2.90549 0
M  V30 15379 H 1456.63 0.727204 2.47122 0
M  V30 15380 H 1456.59 -0.916521 3.00744 0
M  V30 15381 N 1460.36 -0.94061 1.26453 0
M  V30 15382 C 1461.59 -1.71874 1.14643 0
M  V30 15383 C 1462 -1.86791 -0.300969 0
M  V30 15384 O 1461.34 -1.37529 -1.21784 0
M  V30 15385 C 1461.41 -3.14408 1.74321 0
M  V30 15386 C 1461.07 -3.22873 3.23422 0
M  V30 15387 C 1462.07 -3.06107 4.20231 0
M  V30 15388 C 1459.75 -3.46245 3.63895 0
M  V30 15389 C 1461.75 -3.12581 5.55492 0
M  V30 15390 C 1459.43 -3.52354 4.99289 0
M  V30 15391 C 1460.43 -3.35539 5.94897 0
M  V30 15392 O 1460.12 -3.41357 7.27826 0
M  V30 15393 H 1459.85 -0.544931 0.400033 0
M  V30 15394 H 1462.4 -1.18767 1.67581 0
M  V30 15395 H 1460.63 -3.6894 1.15846 0
M  V30 15396 H 1462.32 -3.74135 1.57409 0
M  V30 15397 H 1463.09 -2.87906 3.90302 0
M  V30 15398 H 1458.97 -3.58389 2.89962 0
M  V30 15399 H 1462.51 -2.99374 6.30096 0
M  V30 15400 H 1458.41 -3.70077 5.2888 0
M  V30 15401 H 1459.18 -3.57897 7.36106 0
M  V30 15402 N 1461.84 -1.08266 -1.14527 0
M  V30 15403 C 1463.09 -0.806405 -1.84878 0
M  V30 15404 C 1463.4 0.670151 -1.83762 0
M  V30 15405 O 1464.61 1.06151 -2.49888 0
M  V30 15406 C 1463.06 -1.39257 -3.31867 0
M  V30 15407 C 1462.67 -2.90081 -3.41404 0
M  V30 15408 C 1464.42 -1.19475 -4.0734 0
M  V30 15409 C 1462.32 -3.41842 -4.82595 0
M  V30 15410 H 1461.25 -0.297993 -0.692615 0
M  V30 15411 H 1463.9 -1.30389 -1.29116 0
M  V30 15412 H 1462.29 -0.822802 -3.87358 0
M  V30 15413 H 1463.46 -3.53182 -2.95971 0
M  V30 15414 H 1461.78 -3.08761 -2.79385 0
M  V30 15415 H 1464.37 -1.55614 -5.11555 0
M  V30 15416 H 1464.72 -0.134455 -4.16083 0
M  V30 15417 H 1465.25 -1.73138 -3.58145 0
M  V30 15418 H 1461.99 -4.47439 -4.79039 0
M  V30 15419 H 1461.51 -2.835 -5.28572 0
M  V30 15420 H 1463.19 -3.38346 -5.51481 0
M  V30 15421 N 1463.32 1.31536 -0.86811 0
M  V30 15422 C 1464.54 2.01487 -0.491705 0
M  V30 15423 C 1464.97 1.64744 0.907803 0
M  V30 15424 O 1464.33 0.855093 1.59868 0
M  V30 15425 C 1464.38 3.54621 -0.65395 0
M  V30 15426 O 1463.48 4.11252 0.307532 0
M  V30 15427 H 1462.82 0.634469 -0.195819 0
M  V30 15428 H 1465.35 1.67775 -1.17101 0
M  V30 15429 H 1465.36 4.04323 -0.546539 0
M  V30 15430 H 1464.04 3.80704 -1.67443 0
M  V30 15431 H 1462.61 3.72577 0.155233 0
M  V30 15432 N 1464.8 0.627364 1.44575 0
M  V30 15433 C 1466.05 0.130094 2.01681 0
M  V30 15434 C 1466.37 -1.25112 1.49572 0
M  V30 15435 O 1465.64 -1.8305 0.697822 0
M  V30 15436 H 1464.22 0.0451032 0.745637 0
M  V30 15437 H 1466.88 0.813218 1.77124 0
M  V30 15438 H 1465.97 0.0949131 3.11956 0
M  V30 15439 N 1466.28 -1.53251 0.367684 0
M  V30 15440 C 1467.52 -2.00469 -0.222481 0
M  V30 15441 C 1467.84 -1.259 -1.49695 0
M  V30 15442 O 1469.04 -1.63717 -2.16585 0
M  V30 15443 C 1467.5 -3.57113 -0.447018 0
M  V30 15444 C 1467.11 -4.40562 0.812946 0
M  V30 15445 C 1468.85 -4.12681 -0.994725 0
M  V30 15446 C 1466.76 -5.88763 0.557877 0
M  V30 15447 H 1465.69 -0.748974 -0.0869144 0
M  V30 15448 H 1468.34 -1.76927 0.48675 0
M  V30 15449 H 1466.72 -3.76818 -1.21756 0
M  V30 15450 H 1467.9 -4.3263 1.58644 0
M  V30 15451 H 1466.21 -3.96108 1.28403 0
M  V30 15452 H 1468.81 -5.2104 -1.20091 0
M  V30 15453 H 1469.15 -3.67408 -1.95748 0
M  V30 15454 H 1469.68 -3.96783 -0.284295 0
M  V30 15455 H 1466.42 -6.38317 1.49102 0
M  V30 15456 H 1465.94 -5.99539 -0.177082 0
M  V30 15457 H 1467.62 -6.46738 0.18419 0
M  V30 15458 N 1467.75 -0.0969077 -1.57302 0
M  V30 15459 C 1468.69 0.891431 -2.11154 0
M  V30 15460 C 1469.7 1.24482 -1.04919 0
M  V30 15461 O 1470.89 1.19762 -1.3236 0
M  V30 15462 C 1467.99 2.19998 -2.57787 0
M  V30 15463 C 1467.16 2.02165 -3.87876 0
M  V30 15464 C 1466.22 3.16549 -4.20337 0
M  V30 15465 O 1465.25 2.90432 -4.89528 0
M  V30 15466 N 1466.45 4.42369 -3.75885 0
M  V30 15467 H 1469.21 0.431477 -2.96578 0
M  V30 15468 H 1466.77 0.0881458 -1.6166 0
M  V30 15469 H 1468.77 2.95472 -2.76547 0
M  V30 15470 H 1467.34 2.57412 -1.77364 0
M  V30 15471 H 1466.56 1.11011 -3.78246 0
M  V30 15472 H 1467.84 1.87529 -4.7298 0
M  V30 15473 H 1467.24 4.66469 -3.20036 0
M  V30 15474 H 1465.8 5.14787 -3.99797 0
M  V30 15475 N 1469.23 1.56605 0.176793 0
M  V30 15476 C 1470.46 1.85812 0.910019 0
M  V30 15477 C 1470.87 0.68164 1.76066 0
M  V30 15478 O 1470.23 -0.34936 1.79125 0
M  V30 15479 C 1470.28 3.14001 1.79125 0
M  V30 15480 O 1470 4.27114 0.974931 0
M  V30 15481 C 1471.5 3.56516 2.6346 0
M  V30 15482 H 1468.72 0.616608 0.264643 0
M  V30 15483 H 1471.27 2.03719 0.178537 0
M  V30 15484 H 1469.42 2.97937 2.47613 0
M  V30 15485 H 1469.84 5.00227 1.57711 0
M  V30 15486 H 1471.31 4.49128 3.20918 0
M  V30 15487 H 1471.79 2.80373 3.38065 0
M  V30 15488 H 1472.39 3.75173 2.00313 0
M  V30 15489 N 1470.71 -0.445159 1.51182 0
M  V30 15490 C 1471.96 -1.19215 1.62698 0
M  V30 15491 C 1472.27 -1.92529 0.345249 0
M  V30 15492 O 1473.48 -2.69367 0.33967 0
M  V30 15493 C 1471.93 -2.16762 2.87302 0
M  V30 15494 C 1471.54 -1.49131 4.2245 0
M  V30 15495 C 1473.29 -2.91942 3.08172 0
M  V30 15496 C 1471.19 -2.45117 5.38212 0
M  V30 15497 H 1470.12 -0.448687 0.605967 0
M  V30 15498 H 1472.77 -0.459956 1.77642 0
M  V30 15499 H 1471.16 -2.93383 2.65975 0
M  V30 15500 H 1472.33 -0.781222 4.54129 0
M  V30 15501 H 1470.64 -0.861342 4.07394 0
M  V30 15502 H 1473.24 -3.6383 3.91832 0
M  V30 15503 H 1473.58 -3.52837 2.20934 0
M  V30 15504 H 1474.12 -2.22429 3.29803 0
M  V30 15505 H 1470.86 -1.88923 6.27685 0
M  V30 15506 H 1470.38 -3.14202 5.10918 0
M  V30 15507 H 1472.06 -3.06411 5.69843 0
M  V30 15508 N 1472.19 -1.41197 -0.700089 0
M  V30 15509 C 1473.44 -1.40034 -1.45722 0
M  V30 15510 C 1473.76 -0.00876281 -1.94998 0
M  V30 15511 O 1473.03 0.948647 -1.71399 0
M  V30 15512 H 1471.61 -0.515433 -0.540683 0
M  V30 15513 H 1474.27 -1.76394 -0.828926 0
M  V30 15514 H 1473.36 -2.08477 -2.32258 0
M  V30 15515 N 1473.67 0.933891 -1.2695 0
M  V30 15516 C 1474.62 2.01966 -1.05801 0
M  V30 15517 C 1475.6 1.60896 0.0119868 0
M  V30 15518 O 1476.79 1.75799 -0.205827 0
M  V30 15519 C 1473.92 3.36073 -0.700695 0
M  V30 15520 C 1473.01 3.83606 -1.80852 0
M  V30 15521 N 1473.4 4.03713 -3.04712 0
M  V30 15522 C 1471.7 4.12586 -1.69378 0
M  V30 15523 C 1472.4 4.43199 -3.76762 0
M  V30 15524 N 1471.37 4.50319 -3.0449 0
M  V30 15525 H 1475.17 2.15534 -1.99806 0
M  V30 15526 H 1472.69 1.12027 -1.17574 0
M  V30 15527 H 1474.69 4.13513 -0.530316 0
M  V30 15528 H 1473.35 3.23872 0.231801 0
M  V30 15529 H 1474.36 3.90196 -3.4054 0
M  V30 15530 H 1471.03 4.09132 -0.831695 0
M  V30 15531 H 1472.42 4.66887 -4.83184 0
M  V30 15532 N 1475.14 1.08871 1.13951 0
M  V30 15533 C 1476.56 0.817282 1.37086 0
M  V30 15534 C 1476.76 -0.571159 1.93236 0
M  V30 15535 O 1475.82 -1.32708 2.14813 0
M  V30 15536 C 1477.13 1.90386 2.32752 0
M  V30 15537 C 1478.68 1.93043 2.46381 0
M  V30 15538 C 1479.15 3.00828 3.4535 0
M  V30 15539 N 1480.64 3.0003 3.52897 0
M  V30 15540 C 1481.38 3.80073 4.29339 0
M  V30 15541 N 1480.87 4.70008 5.08984 0
M  V30 15542 N 1482.67 3.68355 4.24583 0
M  V30 15543 H 1474.82 1.98393 0.758537 0
M  V30 15544 H 1477.08 0.861229 0.396219 0
M  V30 15545 H 1476.79 2.90233 1.9864 0
M  V30 15546 H 1476.66 1.77722 3.32708 0
M  V30 15547 H 1479.05 0.938382 2.79783 0
M  V30 15548 H 1479.13 2.09785 1.4637 0
M  V30 15549 H 1478.77 4.00242 3.1268 0
M  V30 15550 H 1478.7 2.8133 4.45153 0
M  V30 15551 H 1481.19 2.3485 2.96064 0
M  V30 15552 H 1481.51 5.27678 5.64602 0
M  V30 15553 H 1479.85 4.74047 5.08236 0
M  V30 15554 H 1483.04 2.9746 3.61435 0
M  V30 15555 H 1483.22 4.30974 4.83906 0
M  V30 15556 N 1476.62 -1.31073 0.875073 0
M  V30 15557 C 1477.87 -1.96809 0.489273 0
M  V30 15558 C 1478.2 -1.68979 -0.957073 0
M  V30 15559 O 1477.48 -0.989061 -1.67475 0
M  V30 15560 C 1477.76 -3.52139 0.752998 0
M  V30 15561 C 1477.61 -3.89524 2.24925 0
M  V30 15562 C 1478.93 -4.39535 0.222871 0
M  V30 15563 H 1476.05 -0.714873 0.179238 0
M  V30 15564 H 1478.69 -1.55114 1.09725 0
M  V30 15565 H 1476.84 -3.87785 0.23553 0
M  V30 15566 H 1478.51 -3.63953 2.83436 0
M  V30 15567 H 1476.76 -3.37948 2.71981 0
M  V30 15568 H 1477.43 -4.97845 2.38441 0
M  V30 15569 H 1479.9 -4.10741 0.665645 0
M  V30 15570 H 1478.78 -5.47159 0.436806 0
M  V30 15571 H 1479.04 -4.33346 -0.875445 0
M  V30 15572 N 1478.1 -0.635022 -1.4424 0
M  V30 15573 C 1479.35 -0.138497 -2.01224 0
M  V30 15574 C 1479.66 1.2485 -1.50571 0
M  V30 15575 O 1480.87 1.83926 -1.99709 0
M  V30 15576 C 1479.32 -0.196836 -3.59361 0
M  V30 15577 C 1478.93 -1.58539 -4.1901 0
M  V30 15578 C 1480.68 0.243025 -4.23804 0
M  V30 15579 C 1478.58 -1.59864 -5.69384 0
M  V30 15580 H 1477.51 -0.0480117 -0.75247 0
M  V30 15581 H 1480.16 -0.794391 -1.65414 0
M  V30 15582 H 1478.55 0.526231 -3.92488 0
M  V30 15583 H 1479.72 -2.33236 -3.97414 0
M  V30 15584 H 1478.04 -1.96967 -3.66869 0
M  V30 15585 H 1480.63 0.252717 -5.34102 0
M  V30 15586 H 1480.98 1.27107 -3.96421 0
M  V30 15587 H 1481.51 -0.427678 -3.95494 0
M  V30 15588 H 1478.25 -2.60518 -6.01507 0
M  V30 15589 H 1477.77 -0.894664 -5.9309 0
M  V30 15590 H 1479.45 -1.3343 -6.33092 0
M  V30 15591 N 1479.58 1.53054 -0.375806 0
M  V30 15592 C 1480.82 2.017 0.210985 0
M  V30 15593 C 1481.16 1.26228 1.47581 0
M  V30 15594 O 1480.43 0.358869 1.91161 0
M  V30 15595 C 1480.72 3.56715 0.492596 0
M  V30 15596 C 1480.57 4.42869 -0.786573 0
M  V30 15597 C 1481.89 4.20803 1.28891 0
M  V30 15598 H 1479.01 0.733153 0.0752084 0
M  V30 15599 H 1481.65 1.83229 -0.502715 0
M  V30 15600 H 1479.8 3.72585 1.10059 0
M  V30 15601 H 1481.47 4.38777 -1.42381 0
M  V30 15602 H 1479.71 4.10425 -1.40478 0
M  V30 15603 H 1480.38 5.49309 -0.544354 0
M  V30 15604 H 1482.86 4.08828 0.774498 0
M  V30 15605 H 1481.74 5.29273 1.45469 0
M  V30 15606 H 1482 3.77541 2.30033 0
M  V30 15607 N 1481.06 0.105248 1.57248 0
M  V30 15608 C 1482.28 -0.567515 1.99484 0
M  V30 15609 C 1482.71 -1.60298 0.984182 0
M  V30 15610 O 1482.06 -1.81242 -0.0459944 0
M  V30 15611 C 1482.11 -1.18271 3.40653 0
M  V30 15612 O 1481.22 -2.29843 3.42412 0
M  V30 15613 H 1480.56 -0.143069 0.648404 0
M  V30 15614 H 1483.09 0.189661 2.03719 0
M  V30 15615 H 1483.1 -1.52157 3.78566 0
M  V30 15616 H 1481.77 -0.424179 4.13731 0
M  V30 15617 H 1480.35 -1.975 3.16304 0
M  V30 15618 N 1482.53 -1.56697 -0.168486 0
M  V30 15619 C 1483.81 -1.73032 -0.912097 0
M  V30 15620 C 1484.19 -0.667424 -2.00271 0
M  V30 15621 O 1483.54 0.317307 -2.26286 0
M  V30 15622 C 1483.75 -3.16334 -1.47424 0
M  V30 15623 C 1485.1 -3.77378 -1.94606 0
M  V30 15624 O 1486.12 -3.19629 -1.57212 0
M  V30 15625 O 1484.98 -4.78781 -2.63497 0
M  V30 15626 H 1482.07 -0.706713 -0.429518 0
M  V30 15627 H 1484.62 -1.68981 -0.156093 0
M  V30 15628 H 1483.39 -3.85179 -0.689421 0
M  V30 15629 H 1483.02 -3.24723 -2.29435 0
M  V30 15630 N 1484.01 0.437135 -1.51416 0
M  V30 15631 C 1485.26 1.18831 -1.64338 0
M  V30 15632 C 1485.59 1.9086 -0.358638 0
M  V30 15633 O 1484.87 1.83607 0.641769 0
M  V30 15634 C 1485.15 2.20515 -2.84685 0
M  V30 15635 C 1485 1.52568 -4.23135 0
M  V30 15636 C 1486.32 3.21494 -3.00549 0
M  V30 15637 H 1483.44 0.430652 -0.598087 0
M  V30 15638 H 1486.08 0.47753 -1.83901 0
M  V30 15639 H 1484.23 2.81132 -2.68136 0
M  V30 15640 H 1485.9 0.952851 -4.51352 0
M  V30 15641 H 1484.15 0.828025 -4.25824 0
M  V30 15642 H 1484.82 2.26623 -5.03335 0
M  V30 15643 H 1487.29 2.7093 -3.1581 0
M  V30 15644 H 1486.17 3.89934 -3.86319 0
M  V30 15645 H 1486.43 3.8761 -2.12629 0
M  V30 15646 N 1485.49 1.41566 0.692592 0
M  V30 15647 C 1486.42 1.39582 1.81795 0
M  V30 15648 C 1487.44 0.29754 1.60058 0
M  V30 15649 O 1488.62 0.559463 1.69506 0
M  V30 15650 C 1485.72 1.15506 3.18609 0
M  V30 15651 C 1484.9 2.37432 3.67349 0
M  V30 15652 C 1483.96 2.09168 4.82841 0
M  V30 15653 O 1482.98 2.8223 4.94303 0
M  V30 15654 N 1484.18 1.08377 5.70294 0
M  V30 15655 H 1486.95 2.36577 1.83988 0
M  V30 15656 H 1484.51 1.36216 0.875026 0
M  V30 15657 H 1486.5 0.945452 3.93501 0
M  V30 15658 H 1485.07 0.270987 3.11423 0
M  V30 15659 H 1484.29 2.74076 2.8333 0
M  V30 15660 H 1485.58 3.18661 3.96652 0
M  V30 15661 H 1484.98 0.479122 5.63667 0
M  V30 15662 H 1483.54 0.934042 6.45073 0
M  V30 15663 N 1486.97 -0.927146 1.27443 0
M  V30 15664 C 1487.88 -2.06122 1.12031 0
M  V30 15665 C 1488.89 -1.73928 0.0501979 0
M  V30 15666 O 1490.07 -1.99756 0.256796 0
M  V30 15667 C 1487.14 -3.3805 0.769634 0
M  V30 15668 C 1486.2 -3.83938 1.92068 0
M  V30 15669 C 1485.43 -5.0957 1.58664 0
M  V30 15670 O 1485.65 -5.6825 0.494789 0
M  V30 15671 O 1484.59 -5.50844 2.42599 0
M  V30 15672 H 1488.41 -2.22037 2.07203 0
M  V30 15673 H 1486 -1.04638 1.06636 0
M  V30 15674 H 1487.88 -4.17286 0.587423 0
M  V30 15675 H 1486.55 -3.2334 -0.152557 0
M  V30 15676 H 1485.46 -3.05587 2.15795 0
M  V30 15677 H 1486.79 -4.0319 2.8231 0
M  V30 15678 N 1488.45 -1.09474 -1.13372 0
M  V30 15679 C 1489.67 -0.853093 -1.89043 0
M  V30 15680 C 1490.1 0.590075 -1.78605 0
M  V30 15681 O 1489.45 1.41462 -1.13394 0
M  V30 15682 C 1489.5 -1.29359 -3.36599 0
M  V30 15683 O 1488.61 -0.452355 -4.09912 0
M  V30 15684 H 1487.95 -0.308922 -0.587761 0
M  V30 15685 H 1490.48 -1.459 -1.43437 0
M  V30 15686 H 1490.49 -1.27921 -3.87428 0
M  V30 15687 H 1489.16 -2.3446 -3.43513 0
M  V30 15688 H 1487.74 -0.531098 -3.69099 0
M  V30 15689 N 1489.92 1.30607 -0.882012 0
M  V30 15690 C 1491.17 1.96256 -0.498964 0
M  V30 15691 C 1491.5 1.69651 0.951259 0
M  V30 15692 O 1490.75 0.992303 1.68677 0
M  V30 15693 C 1491.05 3.50136 -0.716929 0
M  V30 15694 C 1490.72 3.96785 -2.14178 0
M  V30 15695 C 1489.38 4.09234 -2.53142 0
M  V30 15696 C 1491.73 4.21154 -3.07048 0
M  V30 15697 C 1489.06 4.43411 -3.84192 0
M  V30 15698 C 1491.41 4.56799 -4.37627 0
M  V30 15699 C 1490.08 4.67456 -4.76488 0
M  V30 15700 H 1489.35 0.718153 -0.182584 0
M  V30 15701 H 1491.99 1.55527 -1.1173 0
M  V30 15702 H 1490.3 3.91797 -0.0155388 0
M  V30 15703 H 1492 3.98998 -0.400196 0
M  V30 15704 H 1488.59 3.876 -1.82932 0
M  V30 15705 H 1492.77 4.1102 -2.78167 0
M  V30 15706 H 1488.03 4.49861 -4.14047 0
M  V30 15707 H 1492.2 4.74607 -5.09629 0
M  V30 15708 H 1489.83 4.93694 -5.78074 0
M  V30 15709 N 1491.4 0.642663 1.43901 0
M  V30 15710 C 1492.65 0.149167 2.01148 0
M  V30 15711 C 1492.96 -1.2405 1.51231 0
M  V30 15712 O 1494.17 -1.82864 2.00681 0
M  V30 15713 C 1492.63 0.215891 3.59252 0
M  V30 15714 C 1492.23 1.60759 4.18163 0
M  V30 15715 C 1493.98 -0.220546 4.23927 0
M  V30 15716 C 1491.89 1.62881 5.68528 0
M  V30 15717 H 1490.82 0.0520015 0.752205 0
M  V30 15718 H 1493.47 0.803152 1.6499 0
M  V30 15719 H 1491.85 -0.505409 3.92762 0
M  V30 15720 H 1493.02 2.3534 3.96171 0
M  V30 15721 H 1491.34 1.9891 3.65819 0
M  V30 15722 H 1493.93 -0.224389 5.34229 0
M  V30 15723 H 1494.28 -1.25003 3.97089 0
M  V30 15724 H 1494.81 0.448646 3.95262 0
M  V30 15725 H 1491.55 2.63704 6.00117 0
M  V30 15726 H 1491.07 0.926104 5.92607 0
M  V30 15727 H 1492.75 1.36785 6.32375 0
M  V30 15728 N 1492.88 -1.52852 0.383918 0
M  V30 15729 C 1494.13 -2.02484 -0.19278 0
M  V30 15730 C 1494.48 -1.26558 -1.44917 0
M  V30 15731 O 1493.78 -0.355972 -1.88264 0
M  V30 15732 C 1493.97 -3.53602 -0.519674 0
M  V30 15733 C 1493.8 -4.44164 0.703481 0
M  V30 15734 C 1492.57 -4.90323 1.22112 0
M  V30 15735 C 1494.77 -4.89616 1.5742 0
M  V30 15736 N 1492.75 -5.64941 2.40239 0
M  V30 15737 C 1494.12 -5.6276 2.60194 0
M  V30 15738 C 1496.17 -4.71664 1.59493 0
M  V30 15739 C 1494.88 -6.1986 3.64919 0
M  V30 15740 C 1496.9 -5.29642 2.63122 0
M  V30 15741 C 1496.27 -6.02688 3.64619 0
M  V30 15742 H 1492.36 -0.781313 -0.0327729 0
M  V30 15743 H 1494.95 -1.87274 0.532596 0
M  V30 15744 H 1493.12 -3.68936 -1.21411 0
M  V30 15745 H 1494.85 -3.89938 -1.08306 0
M  V30 15746 H 1491.61 -4.67084 0.782938 0
M  V30 15747 H 1492.03 -6.06904 2.99994 0
M  V30 15748 H 1496.67 -4.14698 0.823719 0
M  V30 15749 H 1494.39 -6.75911 4.42911 0
M  V30 15750 H 1497.98 -5.17635 2.65603 0
M  V30 15751 H 1496.86 -6.4675 4.43491 0
M  V30 15752 N 1494.36 -0.113586 -1.5719 0
M  V30 15753 C 1495.61 0.546529 -1.95297 0
M  V30 15754 C 1495.94 1.66674 -0.996671 0
M  V30 15755 O 1495.21 1.94472 -0.0329298 0
M  V30 15756 C 1495.5 1.08433 -3.43387 0
M  V30 15757 C 1495.35 -0.0320929 -4.49789 0
M  V30 15758 C 1496.67 1.97691 -3.932 0
M  V30 15759 H 1493.79 0.197195 -0.710129 0
M  V30 15760 H 1496.43 -0.188048 -1.89067 0
M  V30 15761 H 1494.58 1.71033 -3.48827 0
M  V30 15762 H 1496.25 -0.66716 -4.5645 0
M  V30 15763 H 1494.49 -0.695983 -4.2818 0
M  V30 15764 H 1495.17 0.385341 -5.50653 0
M  V30 15765 H 1497.64 1.4497 -3.90029 0
M  V30 15766 H 1496.52 2.3224 -4.97349 0
M  V30 15767 H 1496.78 2.90137 -3.33576 0
M  V30 15768 N 1495.84 1.56784 0.160173 0
M  V30 15769 C 1497.25 1.51153 0.512352 0
M  V30 15770 C 1497.45 0.819774 1.84071 0
M  V30 15771 O 1496.51 0.384789 2.49551 0
M  V30 15772 C 1497.82 2.95906 0.534817 0
M  V30 15773 C 1499.37 3.06773 0.621248 0
M  V30 15774 C 1499.85 4.53006 0.674501 0
M  V30 15775 N 1501.34 4.57298 0.737087 0
M  V30 15776 C 1502.07 5.67805 0.799054 0
M  V30 15777 N 1501.57 6.87916 0.821171 0
M  V30 15778 N 1503.36 5.55804 0.838928 0
M  V30 15779 H 1495.51 2.00157 -0.710712 0
M  V30 15780 H 1497.77 0.91233 -0.257601 0
M  V30 15781 H 1497.48 3.49719 -0.372773 0
M  V30 15782 H 1497.35 3.51152 1.3774 0
M  V30 15783 H 1499.74 2.52987 1.51926 0
M  V30 15784 H 1499.82 2.54593 -0.248224 0
M  V30 15785 H 1499.47 5.07426 -0.219301 0
M  V30 15786 H 1499.4 5.02954 1.56028 0
M  V30 15787 H 1501.89 3.70825 0.727827 0
M  V30 15788 H 1502.2 7.67888 0.869938 0
M  V30 15789 H 1500.55 6.90504 0.789264 0
M  V30 15790 H 1503.74 4.60884 0.818728 0
M  V30 15791 H 1503.91 6.41945 0.883757 0
M  V30 15792 N 1497.32 -0.429099 1.51646 0
M  V30 15793 C 1498.55 -1.19832 1.68297 0
M  V30 15794 C 1498.95 -1.85275 0.383378 0
M  V30 15795 O 1498.3 -1.71862 -0.648771 0
M  V30 15796 C 1498.36 -2.31803 2.74786 0
M  V30 15797 C 1498.02 -1.8666 4.17141 0
M  V30 15798 C 1499.02 -1.36544 5.01649 0
M  V30 15799 C 1496.7 -1.94101 4.63282 0
M  V30 15800 C 1498.7 -0.944655 6.30361 0
M  V30 15801 C 1496.39 -1.51634 5.91988 0
M  V30 15802 C 1497.38 -1.01899 6.75356 0
M  V30 15803 O 1497.07 -0.600375 8.01655 0
M  V30 15804 H 1496.8 -0.366924 0.567752 0
M  V30 15805 H 1499.36 -0.513643 1.98874 0
M  V30 15806 H 1497.59 -3.03573 2.39542 0
M  V30 15807 H 1499.28 -2.93639 2.80234 0
M  V30 15808 H 1500.04 -1.30184 4.67201 0
M  V30 15809 H 1495.92 -2.31758 3.98509 0
M  V30 15810 H 1499.47 -0.555763 6.95383 0
M  V30 15811 H 1495.36 -1.57667 6.25948 0
M  V30 15812 H 1496.13 -0.725485 8.15278 0
M  V30 15813 N 1498.79 -1.41931 -0.685074 0
M  V30 15814 C 1499.74 -1.44604 -1.79884 0
M  V30 15815 C 1500.71 -0.299166 -1.63384 0
M  V30 15816 O 1501.9 -0.501749 -1.84085 0
M  V30 15817 C 1499.04 -1.3442 -3.17845 0
M  V30 15818 C 1498.15 -2.59061 -3.45704 0
M  V30 15819 C 1497.28 -2.41094 -4.73336 0
M  V30 15820 C 1496.32 -3.61159 -4.94197 0
M  V30 15821 N 1495.46 -3.42198 -6.13062 0
M  V30 15822 H 1500.3 -2.39788 -1.76934 0
M  V30 15823 H 1497.84 -1.1906 -0.863891 0
M  V30 15824 H 1499.79 -1.26515 -3.97555 0
M  V30 15825 H 1498.42 -0.42838 -3.19945 0
M  V30 15826 H 1497.48 -2.77374 -2.60322 0
M  V30 15827 H 1498.79 -3.48341 -3.57016 0
M  V30 15828 H 1497.94 -2.30717 -5.61119 0
M  V30 15829 H 1496.68 -1.49288 -4.64289 0
M  V30 15830 H 1495.69 -3.7198 -4.04859 0
M  V30 15831 H 1496.91 -4.53933 -5.05096 0
M  V30 15832 H 1494.86 -2.531 -6.05208 0
M  V30 15833 H 1494.77 -4.25059 -6.25189 0
M  V30 15834 H 1496.04 -3.35612 -7.03551 0
M  V30 15835 N 1500.27 0.920374 -1.27933 0
M  V30 15836 C 1501.69 1.19761 -1.05496 0
M  V30 15837 C 1501.89 2.00435 0.206864 0
M  V30 15838 O 1500.94 2.35518 0.910356 0
M  V30 15839 C 1502.26 1.93863 -2.29864 0
M  V30 15840 C 1503.8 2.06773 -2.34976 0
M  V30 15841 C 1504.28 2.84282 -3.59093 0
M  V30 15842 N 1505.77 2.91847 -3.59694 0
M  V30 15843 C 1506.51 3.52303 -4.52404 0
M  V30 15844 N 1506 4.14092 -5.55427 0
M  V30 15845 N 1507.79 3.49778 -4.40013 0
M  V30 15846 H 1499.95 0.381596 -2.08944 0
M  V30 15847 H 1502.21 0.231451 -0.919312 0
M  V30 15848 H 1501.91 1.42008 -3.21756 0
M  V30 15849 H 1501.79 2.94446 -2.35757 0
M  V30 15850 H 1504.18 2.57812 -1.43586 0
M  V30 15851 H 1504.26 1.05388 -2.33082 0
M  V30 15852 H 1503.9 2.33925 -4.50823 0
M  V30 15853 H 1503.83 3.85968 -3.5824 0
M  V30 15854 H 1506.32 2.4794 -2.85191 0
M  V30 15855 H 1506.63 4.58183 -6.22325 0
M  V30 15856 H 1504.98 4.12616 -5.59261 0
M  V30 15857 H 1508.17 3.00712 -3.58733 0
M  V30 15858 H 1508.34 3.96603 -5.12455 0
M  V30 15859 N 1501.75 1.10074 1.1279 0
M  V30 15860 C 1502.7 0.740977 2.20482 0
M  V30 15861 C 1503.69 -0.261163 1.67375 0
M  V30 15862 O 1504.9 -0.121923 1.79587 0
M  V30 15863 H 1501.27 0.221666 0.718588 0
M  V30 15864 H 1503.24 1.65823 2.48083 0
M  V30 15865 C 1501.99 0.184934 3.47208 0
M  V30 15866 H 1501.32 0.947278 3.88416 0
M  V30 15867 H 1502.76 -0.0287769 4.2399 0
M  V30 15868 C 1501.21 -1.08145 3.19071 0
M  V30 15869 O 1501.74 -2.1636 3.38454 0
M  V30 15870 N 1499.95 -0.998609 2.72903 0
M  V30 15871 H 1499.5 -0.117906 2.5733 0
M  V30 15872 H 1499.46 -1.84664 2.54453 0
M  V30 15873 N 1503.23 -1.30138 0.888926 0
M  V30 15874 C 1504.14 -2.31778 0.3628 0
M  V30 15875 C 1505.15 -1.65507 -0.53698 0
M  V30 15876 O 1506.33 -1.96775 -0.429152 0
M  V30 15877 C 1503.39 -3.44259 -0.410673 0
M  V30 15878 C 1502.46 -4.26147 0.519334 0
M  V30 15879 C 1501.69 -5.33257 -0.21732 0
M  V30 15880 O 1501.91 -5.5185 -1.44284 0
M  V30 15881 O 1500.85 -6.00329 0.43461 0
M  V30 15882 H 1504.67 -2.78739 1.20575 0
M  V30 15883 H 1502.26 -1.34379 0.65289 0
M  V30 15884 H 1504.14 -4.1277 -0.848467 0
M  V30 15885 H 1502.81 -2.99426 -1.22986 0
M  V30 15886 H 1501.72 -3.60319 1.00602 0
M  V30 15887 H 1503.05 -4.74595 1.30464 0
M  V30 15888 N 1504.71 -0.650285 -1.43559 0
M  V30 15889 C 1505.65 0.0550615 -2.32535 0
M  V30 15890 C 1506.65 0.81612 -1.48445 0
M  V30 15891 O 1507.85 0.726853 -1.64672 0
M  V30 15892 H 1504.23 0.0365887 -0.751109 0
M  V30 15893 H 1506.2 -0.713146 -2.89753 0
M  V30 15894 C 1504.95 1.00982 -3.32713 0
M  V30 15895 H 1504.27 0.433626 -3.97441 0
M  V30 15896 H 1505.71 1.47249 -3.9761 0
M  V30 15897 C 1504.17 2.10442 -2.63089 0
M  V30 15898 O 1504.7 3.18782 -2.44419 0
M  V30 15899 N 1502.91 1.86915 -2.22511 0
M  V30 15900 H 1502.45 0.988113 -2.37895 0
M  V30 15901 H 1502.41 2.60348 -1.76256 0
M  V30 15902 N 1506.18 1.52647 -0.392018 0
M  V30 15903 C 1507.12 2.24183 0.476934 0
M  V30 15904 C 1508.13 1.26526 1.02446 0
M  V30 15905 O 1509.32 1.52583 0.92632 0
M  V30 15906 C 1506.42 2.94672 1.67397 0
M  V30 15907 C 1505.59 4.19058 1.25335 0
M  V30 15908 C 1504.65 4.72522 2.31537 0
M  V30 15909 O 1503.68 5.35541 1.92833 0
M  V30 15910 N 1504.88 4.52613 3.63486 0
M  V30 15911 H 1507.64 2.99391 -0.135963 0
M  V30 15912 H 1505.2 1.60419 -0.218514 0
M  V30 15913 H 1507.2 3.27338 2.37975 0
M  V30 15914 H 1505.77 2.22755 2.19315 0
M  V30 15915 H 1504.99 3.92399 0.376352 0
M  V30 15916 H 1506.27 4.99871 0.94901 0
M  V30 15917 H 1505.67 4.02316 3.97692 0
M  V30 15918 H 1504.23 4.89761 4.3009 0
M  V30 15919 N 1507.66 0.121921 1.57128 0
M  V30 15920 C 1508.59 -0.823788 2.18486 0
M  V30 15921 C 1509.57 -1.27519 1.12574 0
M  V30 15922 O 1510.76 -1.33727 1.40822 0
M  V30 15923 C 1507.89 -2.07284 2.78659 0
M  V30 15924 C 1506.84 -1.75912 3.90178 0
M  V30 15925 C 1506.17 -3.07871 4.37172 0
M  V30 15926 C 1507.47 -1.02517 5.1214 0
M  V30 15927 H 1509.16 -0.312488 2.97765 0
M  V30 15928 H 1506.71 -0.148862 1.43228 0
M  V30 15929 H 1508.66 -2.73903 3.20242 0
M  V30 15930 H 1507.39 -2.60743 1.96673 0
M  V30 15931 H 1506.04 -1.11681 3.49174 0
M  V30 15932 H 1505.69 -3.59271 3.52041 0
M  V30 15933 H 1505.39 -2.87653 5.12376 0
M  V30 15934 H 1506.92 -3.75604 4.81409 0
M  V30 15935 H 1508.33 -1.59295 5.50725 0
M  V30 15936 H 1506.73 -0.923836 5.92946 0
M  V30 15937 H 1507.8 -0.0124219 4.84898 0
M  V30 15938 N 1509.14 -1.56867 -0.151857 0
M  V30 15939 C 1510.39 -1.82273 -0.863689 0
M  V30 15940 C 1510.7 -0.702377 -1.82554 0
M  V30 15941 O 1511.91 -0.841903 -2.58117 0
M  V30 15942 C 1510.36 -3.23046 -1.58649 0
M  V30 15943 C 1509.97 -4.43003 -0.667292 0
M  V30 15944 C 1511.72 -3.57729 -2.28539 0
M  V30 15945 C 1509.62 -5.74798 -1.39144 0
M  V30 15946 H 1508.55 -0.679753 -0.326269 0
M  V30 15947 H 1511.2 -1.8313 -0.116454 0
M  V30 15948 H 1509.59 -3.16561 -2.37918 0
M  V30 15949 H 1510.76 -4.60712 0.0898254 0
M  V30 15950 H 1509.08 -4.16329 -0.0770521 0
M  V30 15951 H 1511.67 -4.53451 -2.83348 0
M  V30 15952 H 1512.02 -2.8355 -3.04803 0
M  V30 15953 H 1512.55 -3.65853 -1.56194 0
M  V30 15954 H 1509.29 -6.52059 -0.670747 0
M  V30 15955 H 1508.81 -5.61032 -2.12139 0
M  V30 15956 H 1510.49 -6.17429 -1.93367 0
M  V30 15957 N 1510.62 0.421051 -1.51871 0
M  V30 15958 C 1511.87 1.16611 -1.64574 0
M  V30 15959 C 1512.18 1.91955 -0.375835 0
M  V30 15960 O 1513.39 2.68792 -0.382481 0
M  V30 15961 C 1511.84 2.12164 -2.90714 0
M  V30 15962 C 1511.45 1.42392 -4.24769 0
M  V30 15963 C 1513.19 2.87002 -3.12778 0
M  V30 15964 C 1511.1 2.36523 -5.42043 0
M  V30 15965 H 1510.03 0.438989 -0.613029 0
M  V30 15966 H 1512.68 0.431636 -1.78351 0
M  V30 15967 H 1511.06 2.89114 -2.70608 0
M  V30 15968 H 1512.24 0.708875 -4.55315 0
M  V30 15969 H 1510.55 0.796421 -4.08713 0
M  V30 15970 H 1513.15 3.5755 -3.9757 0
M  V30 15971 H 1513.49 3.49277 -2.2652 0
M  V30 15972 H 1514.03 2.17154 -3.333 0
M  V30 15973 H 1510.77 1.78913 -6.30611 0
M  V30 15974 H 1510.29 3.06034 -5.15852 0
M  V30 15975 H 1511.96 2.97306 -5.74646 0
M  V30 15976 N 1512.1 1.42293 0.677538 0
M  V30 15977 C 1513.34 1.42616 1.4376 0
M  V30 15978 C 1513.67 0.0416268 1.94455 0
M  V30 15979 O 1512.93 -0.949544 1.7112 0
M  V30 15980 C 1513.23 2.3951 2.65273 0
M  V30 15981 C 1512.89 3.85952 2.33135 0
M  V30 15982 C 1511.55 4.25842 2.24081 0
M  V30 15983 C 1513.91 4.78337 2.06987 0
M  V30 15984 C 1511.23 5.561 1.87001 0
M  V30 15985 C 1513.59 6.08934 1.71411 0
M  V30 15986 C 1512.25 6.47826 1.60865 0
M  V30 15987 H 1511.52 0.521869 0.526055 0
M  V30 15988 H 1514.17 1.75214 0.772797 0
M  V30 15989 H 1512.47 2.00229 3.36773 0
M  V30 15990 H 1514.17 2.37025 3.2345 0
M  V30 15991 H 1510.76 3.54369 2.41083 0
M  V30 15992 H 1514.94 4.48308 2.12916 0
M  V30 15993 H 1510.2 5.85097 1.77403 0
M  V30 15994 H 1514.37 6.80009 1.50203 0
M  V30 15995 H 1512 7.48669 1.31902 0
M  V30 15996 N 1513.57 -0.913576 1.28419 0
M  V30 15997 C 1514.54 -1.99757 1.12382 0
M  V30 15998 C 1515.54 -1.60675 0.063435 0
M  V30 15999 O 1516.73 -1.71433 0.30923 0
M  V30 16000 C 1513.86 -3.33307 0.715506 0
M  V30 16001 H 1515.05 -2.15414 2.08655 0
M  V30 16002 H 1512.61 -1.09626 1.11408 0
M  V30 16003 H 1513.34 -3.23351 -0.247977 0
M  V30 16004 H 1513.13 -3.63034 1.4815 0
M  V30 16005 H 1514.62 -4.12882 0.625953 0
M  V30 16006 N 1515.05 -1.1067 -1.12204 0
M  V30 16007 C 1516.33 -0.762632 -1.8012 0
M  V30 16008 C 1516.71 0.750529 -1.97308 0
M  V30 16009 O 1516.06 1.67764 -1.55137 0
M  V30 16010 C 1516.27 -1.51651 -3.14329 0
M  V30 16011 C 1517.62 -1.69061 -3.89491 0
M  V30 16012 O 1518.64 -1.48009 -3.23994 0
M  V30 16013 O 1517.5 -2.03984 -5.07004 0
M  V30 16014 H 1514.59 -0.275417 -0.779791 0
M  V30 16015 H 1517.14 -1.20966 -1.19018 0
M  V30 16016 H 1515.91 -2.54622 -2.97125 0
M  V30 16017 H 1515.53 -1.0625 -3.83141 0
M  V30 16018 N 1516.53 1.29665 -0.895815 0
M  V30 16019 C 1517.81 1.90601 -0.439394 0
M  V30 16020 C 1518.19 1.81341 1.08068 0
M  V30 16021 O 1517.54 1.23761 1.92082 0
M  V30 16022 C 1517.75 3.35832 -0.949622 0
M  V30 16023 C 1519.09 4.12873 -0.991015 0
M  V30 16024 O 1520.12 3.4472 -0.897025 0
M  V30 16025 O 1518.98 5.34656 -1.1316 0
M  V30 16026 H 1516.07 0.81569 -0.136304 0
M  V30 16027 H 1518.62 1.38157 -0.985426 0
M  V30 16028 H 1517.39 3.36708 -1.99357 0
M  V30 16029 H 1517.01 3.95747 -0.383376 0
M  V30 16030 N 1518.01 0.657889 1.43212 0
M  V30 16031 C 1519.24 0.181072 2.06106 0
M  V30 16032 C 1519.65 -1.15513 1.49339 0
M  V30 16033 O 1519.01 -1.71409 0.626517 0
M  V30 16034 C 1519.06 0.0890244 3.6139 0
M  V30 16035 O 1518.78 1.37241 4.16049 0
M  V30 16036 C 1520.28 -0.413313 4.41369 0
M  V30 16037 H 1517.5 0.0920577 0.664655 0
M  V30 16038 H 1520.05 0.899855 1.83638 0
M  V30 16039 H 1518.2 -0.580345 3.83028 0
M  V30 16040 H 1518.61 1.23467 5.09761 0
M  V30 16041 H 1520.09 -0.426663 5.50349 0
M  V30 16042 H 1520.57 -1.44549 4.14731 0
M  V30 16043 H 1521.17 0.223727 4.24711 0
M  V30 16044 N 1519.49 -1.52437 0.400108 0
M  V30 16045 C 1520.72 -2.05831 -0.178105 0
M  V30 16046 C 1521.12 -1.27083 -1.40166 0
M  V30 16047 O 1520.47 -0.31347 -1.81006 0
M  V30 16048 C 1520.53 -3.5442 -0.602239 0
M  V30 16049 C 1520.19 -4.54153 0.509341 0
M  V30 16050 C 1521.19 -5.01521 1.37012 0
M  V30 16051 C 1518.88 -4.97683 0.679457 0
M  V30 16052 C 1520.87 -5.91056 2.38604 0
M  V30 16053 C 1518.56 -5.87016 1.6987 0
M  V30 16054 C 1519.55 -6.33595 2.55041 0
M  V30 16055 O 1519.24 -7.21161 3.55221 0
M  V30 16056 H 1518.97 -0.675423 -0.0279209 0
M  V30 16057 H 1521.53 -1.97419 0.567013 0
M  V30 16058 H 1519.76 -3.60487 -1.3995 0
M  V30 16059 H 1521.45 -3.90503 -1.10734 0
M  V30 16060 H 1522.21 -4.68614 1.25005 0
M  V30 16061 H 1518.09 -4.60993 0.0262086 0
M  V30 16062 H 1521.64 -6.27335 3.05118 0
M  V30 16063 H 1517.53 -6.19337 1.81912 0
M  V30 16064 H 1518.3 -7.39249 3.51358 0
M  V30 16065 N 1520.96 -0.130252 -1.57061 0
M  V30 16066 C 1522.38 0.393318 -1.8251 0
M  V30 16067 C 1522.73 1.65862 -1.04806 0
M  V30 16068 O 1521.85 2.14473 -0.288118 0
M  V30 16069 C 1522.45 0.720366 -3.31053 0
M  V30 16070 C 1521.01 1.18852 -3.57143 0
M  V30 16071 C 1520.15 0.202964 -2.76556 0
M  V30 16072 H 1523.1 -0.355217 -1.54674 0
M  V30 16073 H 1523.12 1.57671 -3.46295 0
M  V30 16074 H 1522.64 -0.200719 -3.87581 0
M  V30 16075 H 1520.74 2.12612 -3.05985 0
M  V30 16076 H 1520.85 1.12607 -4.65678 0
M  V30 16077 H 1519.21 0.692264 -2.45112 0
M  V30 16078 H 1520 -0.711417 -3.35848 0
M  V30 16079 N 1522.44 1.56945 0.143535 0
M  V30 16080 C 1523.86 1.51688 0.496291 0
M  V30 16081 C 1524.06 0.839251 1.83191 0
M  V30 16082 O 1523.12 0.411235 2.49129 0
M  V30 16083 C 1524.43 2.96456 0.503402 0
M  V30 16084 C 1525.98 3.07414 0.588676 0
M  V30 16085 C 1526.45 4.53696 0.626416 0
M  V30 16086 N 1527.94 4.58054 0.688543 0
M  V30 16087 C 1528.68 5.68621 0.738786 0
M  V30 16088 N 1528.17 6.88748 0.748163 0
M  V30 16089 N 1529.97 5.56663 0.779931 0
M  V30 16090 H 1522.12 1.99392 -0.731901 0
M  V30 16091 H 1524.38 0.909546 -0.267263 0
M  V30 16092 H 1524.09 3.49304 -0.409845 0
M  V30 16093 H 1523.96 3.52593 1.34008 0
M  V30 16094 H 1526.35 2.54584 1.49234 0
M  V30 16095 H 1526.43 2.54315 -0.275213 0
M  V30 16096 H 1526.07 5.07165 -0.273108 0
M  V30 16097 H 1526 5.04581 1.50684 0
M  V30 16098 H 1528.49 3.71576 0.688455 0
M  V30 16099 H 1528.81 7.68767 0.788444 0
M  V30 16100 H 1527.15 6.91302 0.715982 0
M  V30 16101 H 1530.34 4.61727 0.769799 0
M  V30 16102 H 1530.52 6.42847 0.815621 0
M  V30 16103 N 1523.92 -0.412991 1.52093 0
M  V30 16104 C 1525.17 -1.15878 1.67164 0
M  V30 16105 C 1525.52 -1.88306 0.394772 0
M  V30 16106 O 1524.82 -1.8161 -0.610614 0
M  V30 16107 C 1525.01 -2.18321 2.82968 0
M  V30 16108 C 1524.84 -1.55951 4.21793 0
M  V30 16109 C 1523.61 -1.33389 4.87376 0
M  V30 16110 C 1525.81 -1.02249 5.04033 0
M  V30 16111 N 1523.79 -0.668717 6.10247 0
M  V30 16112 C 1525.16 -0.484011 6.18108 0
M  V30 16113 C 1527.21 -0.916583 4.89391 0
M  V30 16114 C 1525.92 0.149993 7.19144 0
M  V30 16115 C 1527.94 -0.296438 5.90657 0
M  V30 16116 C 1527.31 0.231383 7.0402 0
M  V30 16117 H 1523.4 -0.410837 0.665385 0
M  V30 16118 H 1525.99 -0.451728 1.89387 0
M  V30 16119 H 1524.16 -2.86389 2.62366 0
M  V30 16120 H 1525.89 -2.85234 2.87095 0
M  V30 16121 H 1522.65 -1.60235 4.4567 0
M  V30 16122 H 1523.07 -0.352867 6.7608 0
M  V30 16123 H 1527.71 -1.31049 4.01978 0
M  V30 16124 H 1525.43 0.555971 8.06185 0
M  V30 16125 H 1529.02 -0.216065 5.81399 0
M  V30 16126 H 1527.9 0.703689 7.81036 0
M  V30 16127 N 1525.4 -1.4265 -0.669982 0
M  V30 16128 C 1526.65 -1.43589 -1.43213 0
M  V30 16129 C 1526.98 -0.0537998 -1.94125 0
M  V30 16130 O 1526.25 0.922727 -1.71219 0
M  V30 16131 C 1526.54 -2.46433 -2.62569 0
M  V30 16132 C 1526.39 -3.93851 -2.17258 0
M  V30 16133 C 1527.71 -2.46208 -3.64787 0
M  V30 16134 H 1524.83 -0.522859 -0.519411 0
M  V30 16135 H 1527.47 -1.74094 -0.760997 0
M  V30 16136 H 1525.62 -2.20551 -3.19828 0
M  V30 16137 H 1527.29 -4.30732 -1.6513 0
M  V30 16138 H 1525.53 -4.07487 -1.48786 0
M  V30 16139 H 1526.21 -4.61398 -3.03012 0
M  V30 16140 H 1528.68 -2.69237 -3.17255 0
M  V30 16141 H 1527.56 -3.20138 -4.45873 0
M  V30 16142 H 1527.82 -1.48979 -4.16242 0
M  V30 16143 N 1526.88 0.906753 -1.28902 0
M  V30 16144 C 1528.11 1.69019 -1.19333 0
M  V30 16145 C 1528.52 1.87176 0.247065 0
M  V30 16146 O 1527.88 1.40376 1.16623 0
M  V30 16147 C 1527.93 3.07854 -1.89495 0
M  V30 16148 O 1527.65 2.90531 -3.27908 0
M  V30 16149 C 1529.15 4.02246 -1.86314 0
M  V30 16150 H 1526.37 0.528119 -0.413922 0
M  V30 16151 H 1528.91 1.13441 -1.70151 0
M  V30 16152 H 1527.07 3.60228 -1.42529 0
M  V30 16153 H 1527.48 3.78451 -3.63146 0
M  V30 16154 H 1528.96 4.97104 -2.39983 0
M  V30 16155 H 1529.43 4.31149 -0.837071 0
M  V30 16156 H 1530.04 3.55803 -2.3299 0
M  V30 16157 N 1528.36 1.11264 1.11616 0
M  V30 16158 C 1529.58 0.882802 1.87121 0
M  V30 16159 C 1530 -0.567279 1.80076 0
M  V30 16160 O 1529.36 -1.39158 1.18074 0
M  V30 16161 C 1529.41 1.33355 3.36004 0
M  V30 16162 O 1529.13 2.72678 3.42897 0
M  V30 16163 C 1530.63 1.13886 4.28421 0
M  V30 16164 H 1527.85 0.316275 0.591786 0
M  V30 16165 H 1530.39 1.4795 1.41177 0
M  V30 16166 H 1528.55 0.780347 3.79459 0
M  V30 16167 H 1528.96 2.92168 4.35589 0
M  V30 16168 H 1530.44 1.50329 5.31136 0
M  V30 16169 H 1530.91 0.078259 4.3913 0
M  V30 16170 H 1531.52 1.67896 3.90757 0
M  V30 16171 N 1529.83 -1.29188 0.902679 0
M  V30 16172 C 1530.8 -2.25901 0.387485 0
M  V30 16173 C 1531.8 -1.53469 -0.479993 0
M  V30 16174 O 1532.99 -1.71859 -0.284623 0
M  V30 16175 C 1530.12 -3.37974 -0.445723 0
M  V30 16176 H 1531.31 -2.72988 1.24167 0
M  V30 16177 H 1528.86 -1.4068 0.681083 0
M  V30 16178 H 1529.6 -2.9623 -1.31977 0
M  V30 16179 H 1529.38 -3.91705 0.175899 0
M  V30 16180 H 1530.87 -4.09917 -0.797384 0
M  V30 16181 N 1531.31 -0.665475 -1.42861 0
M  V30 16182 C 1532.54 -0.190399 -2.06524 0
M  V30 16183 C 1532.96 1.13995 -1.49622 0
M  V30 16184 O 1532.32 1.70695 -0.610981 0
M  V30 16185 C 1532.37 -0.12594 -3.6038 0
M  V30 16186 O 1531.47 0.908299 -4.02273 0
M  V30 16187 H 1530.81 -0.100495 -0.656351 0
M  V30 16188 H 1533.34 -0.911858 -1.83156 0
M  V30 16189 H 1533.35 0.0533153 -4.07965 0
M  V30 16190 H 1532.03 -1.09703 -4.01171 0
M  V30 16191 H 1530.6 0.700841 -3.66255 0
M  V30 16192 N 1532.79 1.52222 -0.408187 0
M  V30 16193 C 1533.72 2.29892 0.408868 0
M  V30 16194 C 1534.7 1.34063 1.04695 0
M  V30 16195 O 1535.89 1.6297 1.05615 0
M  V30 16196 C 1533.02 3.11964 1.52629 0
M  V30 16197 C 1531.97 4.15833 1.01326 0
M  V30 16198 C 1531.3 4.86244 2.2242 0
M  V30 16199 C 1532.6 5.22256 0.0679573 0
M  V30 16200 H 1534.29 2.98443 -0.23923 0
M  V30 16201 H 1531.84 1.43528 -0.116496 0
M  V30 16202 H 1533.79 3.65067 2.10486 0
M  V30 16203 H 1532.51 2.41181 2.20225 0
M  V30 16204 H 1531.17 3.63739 0.4571 0
M  V30 16205 H 1530.82 4.11991 2.88569 0
M  V30 16206 H 1530.52 5.56461 1.88746 0
M  V30 16207 H 1532.04 5.42159 2.80885 0
M  V30 16208 H 1533.46 5.70604 0.555295 0
M  V30 16209 H 1531.85 5.9983 -0.179934 0
M  V30 16210 H 1532.92 4.76892 -0.877599 0
M  V30 16211 N 1534.27 0.138579 1.5699 0
M  V30 16212 C 1535.2 -0.800568 2.19347 0
M  V30 16213 C 1536.18 -1.26318 1.13921 0
M  V30 16214 O 1537.36 -1.32226 1.42232 0
M  V30 16215 C 1534.49 -2.04317 2.80842 0
M  V30 16216 C 1533.45 -1.71764 3.92022 0
M  V30 16217 C 1532.77 -3.03217 4.40413 0
M  V30 16218 C 1534.07 -0.970789 5.13199 0
M  V30 16219 H 1535.77 -0.280888 2.98079 0
M  V30 16220 H 1533.31 -0.133663 1.43378 0
M  V30 16221 H 1535.27 -2.70491 3.2313 0
M  V30 16222 H 1533.99 -2.58643 1.99428 0
M  V30 16223 H 1532.65 -1.07972 3.50339 0
M  V30 16224 H 1532.3 -3.55517 3.55832 0
M  V30 16225 H 1532 -2.82203 5.15398 0
M  V30 16226 H 1533.52 -3.70477 4.85365 0
M  V30 16227 H 1534.94 -1.53445 5.52384 0
M  V30 16228 H 1533.33 -0.860895 5.93893 0
M  V30 16229 H 1534.4 0.0390088 4.84884 0
M  V30 16230 N 1535.75 -1.57019 -0.13521 0
M  V30 16231 C 1537.02 -1.74928 -0.875189 0
M  V30 16232 C 1537.4 -0.709755 -1.98811 0
M  V30 16233 O 1536.75 0.269237 -2.26908 0
M  V30 16234 C 1536.96 -3.1939 -1.40681 0
M  V30 16235 C 1538.31 -3.8142 -1.86557 0
M  V30 16236 O 1539.33 -3.22892 -1.50397 0
M  V30 16237 O 1538.19 -4.84263 -2.53282 0
M  V30 16238 H 1535.29 -0.715665 -0.414431 0
M  V30 16239 H 1537.83 -1.69274 -0.120215 0
M  V30 16240 H 1536.6 -3.86554 -0.607564 0
M  V30 16241 H 1536.23 -3.29517 -2.22496 0
M  V30 16242 N 1537.22 0.404919 -1.52309 0
M  V30 16243 C 1538.45 1.17139 -1.70182 0
M  V30 16244 C 1538.86 1.84642 -0.412805 0
M  V30 16245 O 1538.21 1.72873 0.621347 0
M  V30 16246 C 1538.27 2.27402 -2.78439 0
M  V30 16247 C 1537.93 1.8 -4.20058 0
M  V30 16248 C 1538.93 1.28546 -5.03758 0
M  V30 16249 C 1536.61 1.86706 -4.66311 0
M  V30 16250 C 1538.61 0.84425 -6.31784 0
M  V30 16251 C 1536.29 1.42197 -5.94326 0
M  V30 16252 C 1537.29 0.911418 -6.76892 0
M  V30 16253 O 1536.98 0.472762 -8.02509 0
M  V30 16254 H 1536.71 0.357845 -0.573518 0
M  V30 16255 H 1539.27 0.481939 -1.99666 0
M  V30 16256 H 1537.5 2.99724 -2.44341 0
M  V30 16257 H 1539.19 2.89143 -2.8487 0
M  V30 16258 H 1539.95 1.22734 -4.69213 0
M  V30 16259 H 1535.83 2.25389 -4.02145 0
M  V30 16260 H 1539.37 0.445063 -6.96179 0
M  V30 16261 H 1535.27 1.47689 -6.28377 0
M  V30 16262 H 1536.04 0.595689 -8.16329 0
M  V30 16263 N 1538.7 1.43003 0.662408 0
M  V30 16264 C 1539.98 1.34613 1.41911 0
M  V30 16265 C 1540.36 -0.0105336 2.11097 0
M  V30 16266 O 1539.71 -1.02667 2.04137 0
M  V30 16267 C 1539.92 2.52297 2.41137 0
M  V30 16268 C 1541.27 2.94972 3.05412 0
M  V30 16269 O 1542.29 2.52277 2.51465 0
M  V30 16270 O 1541.15 3.68906 4.03201 0
M  V30 16271 H 1538.24 0.531508 0.633583 0
M  V30 16272 H 1540.79 1.55035 0.690088 0
M  V30 16273 H 1539.56 3.42685 1.88898 0
M  V30 16274 H 1539.18 2.33926 3.21503 0
M  V30 16275 N 1540.18 -0.899904 1.29381 0
M  V30 16276 C 1541.41 -1.68383 1.20227 0
M  V30 16277 C 1541.82 -1.87305 -0.237135 0
M  V30 16278 O 1541.18 -1.40992 -1.15877 0
M  V30 16279 C 1541.23 -3.06845 1.91124 0
M  V30 16280 O 1540.95 -2.88787 3.29444 0
M  V30 16281 C 1542.45 -4.01253 1.88444 0
M  V30 16282 H 1539.67 -0.525917 0.416717 0
M  V30 16283 H 1542.22 -1.12537 1.7075 0
M  V30 16284 H 1540.37 -3.59467 1.44438 0
M  V30 16285 H 1540.79 -3.7652 3.65148 0
M  V30 16286 H 1542.26 -4.95824 2.42616 0
M  V30 16287 H 1542.74 -4.30699 0.859925 0
M  V30 16288 H 1543.34 -3.54562 2.34874 0
M  V30 16289 N 1541.66 -1.11854 -1.11024 0
M  V30 16290 C 1542.9 -0.871362 -1.83126 0
M  V30 16291 C 1543.24 0.601437 -1.84652 0
M  V30 16292 O 1542.51 1.44427 -1.30273 0
M  V30 16293 C 1542.8 -1.4391 -3.30094 0
M  V30 16294 C 1542.65 -2.97983 -3.36937 0
M  V30 16295 C 1543.97 -1.09361 -4.26296 0
M  V30 16296 H 1541.09 -0.317994 -0.664867 0
M  V30 16297 H 1543.73 -1.38414 -1.3016 0
M  V30 16298 H 1541.88 -1.00297 -3.7533 0
M  V30 16299 H 1543.55 -3.50231 -3.00227 0
M  V30 16300 H 1541.79 -3.33827 -2.77023 0
M  V30 16301 H 1542.46 -3.32797 -4.40398 0
M  V30 16302 H 1544.94 -1.47018 -3.89262 0
M  V30 16303 H 1543.82 -1.51756 -5.27505 0
M  V30 16304 H 1544.08 -0.0049637 -4.421 0
M  V30 16305 N 1543.14 1.28707 -0.909517 0
M  V30 16306 C 1544.1 2.25692 -0.39946 0
M  V30 16307 C 1545.1 1.53721 0.471848 0
M  V30 16308 O 1546.29 1.72008 0.275504 0
M  V30 16309 C 1543.42 3.38205 0.427793 0
M  V30 16310 H 1544.61 2.72326 -1.25613 0
M  V30 16311 H 1542.17 1.40317 -0.688535 0
M  V30 16312 H 1542.9 2.96926 1.30404 0
M  V30 16313 H 1542.69 3.91606 -0.19667 0
M  V30 16314 H 1544.18 4.10334 0.775634 0
M  V30 16315 N 1544.61 0.673042 1.42506 0
M  V30 16316 C 1545.86 0.194192 2.01165 0
M  V30 16317 C 1546.18 -1.2029 1.53477 0
M  V30 16318 O 1545.45 -1.80737 0.755704 0
M  V30 16319 H 1544.03 0.0688022 0.743825 0
M  V30 16320 H 1546.7 0.869157 1.74447 0
M  V30 16321 H 1545.79 0.194111 3.11496 0
M  V30 16322 N 1546.09 -1.52004 0.416254 0
M  V30 16323 C 1547.06 -2.2579 -0.393882 0
M  V30 16324 C 1548.06 -1.28427 -0.967637 0
M  V30 16325 O 1549.25 -1.52311 -0.845396 0
M  V30 16326 C 1546.38 -3.03361 -1.55515 0
M  V30 16327 H 1547.57 -2.98835 0.252492 0
M  V30 16328 H 1545.12 -1.55384 0.168929 0
M  V30 16329 H 1545.86 -2.34682 -2.23818 0
M  V30 16330 H 1545.64 -3.74852 -1.15015 0
M  V30 16331 H 1547.13 -3.5931 -2.12805 0
M  V30 16332 N 1547.57 -0.146903 -1.56914 0
M  V30 16333 C 1548.85 0.549291 -1.87729 0
M  V30 16334 C 1549.23 1.82971 -1.05284 0
M  V30 16335 O 1548.58 2.28073 -0.139628 0
M  V30 16336 C 1548.79 0.814835 -3.39354 0
M  V30 16337 C 1550.13 1.15565 -4.0857 0
M  V30 16338 O 1551.16 0.904191 -3.44533 0
M  V30 16339 O 1550.02 1.62886 -5.21661 0
M  V30 16340 H 1547.11 0.280196 -0.778087 0
M  V30 16341 H 1549.66 -0.183507 -1.68705 0
M  V30 16342 H 1548.43 -0.0913527 -3.91193 0
M  V30 16343 H 1548.05 1.60182 -3.63906 0
M  V30 16344 N 1549.05 1.57088 0.126881 0
M  V30 16345 C 1550 1.99764 1.15599 0
M  V30 16346 C 1550.97 0.868468 1.41587 0
M  V30 16347 O 1552.15 1.13209 1.53585 0
M  V30 16348 C 1549.29 2.40038 2.47943 0
M  V30 16349 C 1548.4 3.66336 2.28958 0
M  V30 16350 C 1547.54 3.95626 3.54477 0
M  V30 16351 C 1546.58 5.15131 3.30616 0
M  V30 16352 N 1545.71 5.4033 4.48317 0
M  V30 16353 H 1550.55 2.87473 0.785078 0
M  V30 16354 H 1548.09 1.42209 0.376169 0
M  V30 16355 H 1550.05 2.61423 3.25136 0
M  V30 16356 H 1548.68 1.55382 2.82942 0
M  V30 16357 H 1547.73 3.52612 1.4272 0
M  V30 16358 H 1549.04 4.53684 2.07298 0
M  V30 16359 H 1548.2 4.17617 4.40092 0
M  V30 16360 H 1546.94 3.06738 3.79161 0
M  V30 16361 H 1545.94 4.92992 2.43391 0
M  V30 16362 H 1547.17 6.05588 3.0731 0
M  V30 16363 H 1545.11 4.54399 4.73136 0
M  V30 16364 H 1545.03 6.21985 4.29733 0
M  V30 16365 H 1546.3 5.66835 5.35088 0
M  V30 16366 N 1550.53 -0.396836 1.52522 0
M  V30 16367 C 1551.77 -1.14263 1.67183 0
M  V30 16368 C 1552.1 -1.90176 0.407845 0
M  V30 16369 O 1551.36 -1.85965 -0.609553 0
M  V30 16370 C 1551.66 -2.15308 2.85267 0
M  V30 16371 C 1551.32 -1.56111 4.23013 0
M  V30 16372 C 1549.98 -1.39692 4.60478 0
M  V30 16373 C 1552.34 -1.12998 5.08803 0
M  V30 16374 C 1549.66 -0.786963 5.81398 0
M  V30 16375 C 1552.02 -0.534159 6.30341 0
M  V30 16376 C 1550.68 -0.357204 6.66544 0
M  V30 16377 H 1549.95 -0.418118 0.611766 0
M  V30 16378 H 1552.6 -0.428255 1.8665 0
M  V30 16379 H 1550.9 -2.92935 2.60185 0
M  V30 16380 H 1552.6 -2.72908 2.93806 0
M  V30 16381 H 1549.19 -1.69876 3.93497 0
M  V30 16382 H 1553.37 -1.24488 4.80434 0
M  V30 16383 H 1548.63 -0.63799 6.08062 0
M  V30 16384 H 1552.8 -0.191759 6.96136 0
M  V30 16385 H 1550.43 0.117528 7.60109 0
M  V30 16386 N 1552.01 -1.43353 -0.654814 0
M  V30 16387 C 1553.25 -1.44599 -1.41193 0
M  V30 16388 C 1553.57 -0.0707955 -1.94871 0
M  V30 16389 O 1552.84 0.893637 -1.7433 0
M  V30 16390 H 1551.42 -0.532373 -0.524011 0
M  V30 16391 H 1554.09 -1.78942 -0.772388 0
M  V30 16392 H 1553.18 -2.15761 -2.25508 0
M  V30 16393 N 1553.48 0.89303 -1.29857 0
M  V30 16394 C 1554.43 2.01928 -1.15447 0
M  V30 16395 C 1555.43 1.69262 -0.0683677 0
M  V30 16396 O 1556.63 1.78542 -0.228646 0
M  V30 16397 H 1553.01 0.661961 -0.356807 0
M  V30 16398 H 1554.98 2.11218 -2.10784 0
M  V30 16399 C 1553.73 3.37031 -0.85473 0
M  V30 16400 H 1553.05 3.62673 -1.68251 0
M  V30 16401 H 1554.49 4.165 -0.793973 0
M  V30 16402 C 1552.95 3.33986 0.442183 0
M  V30 16403 O 1553.48 3.73986 1.4662 0
M  V30 16404 N 1551.68 2.87088 0.450438 0
M  V30 16405 H 1551.23 2.54732 -0.383347 0
M  V30 16406 H 1551.19 2.85433 1.31815 0
M  V30 16407 N 1554.96 1.12442 1.10429 0
M  V30 16408 C 1556.21 0.874466 1.81758 0
M  V30 16409 C 1556.52 -0.601487 1.86122 0
M  V30 16410 O 1557.73 -0.968037 2.53656 0
M  V30 16411 C 1556.19 1.51478 3.2647 0
M  V30 16412 C 1555.79 3.02552 3.30403 0
M  V30 16413 C 1557.54 1.34511 4.02625 0
M  V30 16414 C 1555.44 3.59518 4.69575 0
M  V30 16415 H 1554.37 0.323494 0.681078 0
M  V30 16416 H 1557.03 1.35091 1.24188 0
M  V30 16417 H 1555.41 0.966 3.84037 0
M  V30 16418 H 1556.58 3.63924 2.82659 0
M  V30 16419 H 1554.9 3.18917 2.67733 0
M  V30 16420 H 1557.49 1.74492 5.05427 0
M  V30 16421 H 1557.84 0.288788 4.15297 0
M  V30 16422 H 1558.37 1.86311 3.51473 0
M  V30 16423 H 1555.11 4.6491 4.62103 0
M  V30 16424 H 1554.63 3.02922 5.17686 0
M  V30 16425 H 1556.31 3.58581 5.38543 0
M  V30 16426 N 1556.44 -1.28223 0.91633 0
M  V30 16427 C 1557.68 -1.96637 0.557957 0
M  V30 16428 C 1558.04 -1.70523 -0.882386 0
M  V30 16429 O 1559.24 -2.32529 -1.34846 0
M  V30 16430 C 1557.52 -3.46858 0.861633 0
M  V30 16431 S 1559.07 -4.34538 0.610066 0
M  V30 16432 H 1555.89 -0.680393 0.206364 0
M  V30 16433 H 1558.49 -1.55696 1.18233 0
M  V30 16434 H 1557.2 -3.63361 1.90781 0
M  V30 16435 H 1556.73 -3.9275 0.226011 0
M  V30 16436 H 1558.74 -4.93281 -0.537408 0
M  V30 16437 N 1557.92 -0.68059 -1.42147 0
M  V30 16438 C 1559.16 -0.205567 -2.01755 0
M  V30 16439 C 1559.5 1.18677 -1.53718 0
M  V30 16440 O 1558.77 1.79796 -0.741867 0
M  V30 16441 C 1559.05 -0.246615 -3.59255 0
M  V30 16442 C 1558.91 -1.67483 -4.17456 0
M  V30 16443 C 1560.23 0.40196 -4.38261 0
M  V30 16444 H 1557.35 -0.0761717 -0.733053 0
M  V30 16445 H 1559.99 -0.866473 -1.69092 0
M  V30 16446 H 1558.14 0.316127 -3.87212 0
M  V30 16447 H 1559.81 -2.29026 -4.00431 0
M  V30 16448 H 1558.05 -2.2137 -3.73065 0
M  V30 16449 H 1558.72 -1.65519 -5.266 0
M  V30 16450 H 1561.2 -0.077135 -4.16028 0
M  V30 16451 H 1560.08 0.342627 -5.4783 0
M  V30 16452 H 1560.34 1.48044 -4.16576 0
M  V30 16453 N 1559.4 1.51781 -0.424309 0
M  V30 16454 C 1560.64 2.02269 0.146709 0
M  V30 16455 C 1560.97 1.30859 1.4349 0
M  V30 16456 O 1560.25 0.419504 1.89922 0
M  V30 16457 C 1560.53 3.58101 0.378861 0
M  V30 16458 C 1560.39 4.40143 -0.92707 0
M  V30 16459 C 1561.7 4.2469 1.15438 0
M  V30 16460 H 1558.82 0.735174 0.0518456 0
M  V30 16461 H 1561.47 1.81537 -0.560753 0
M  V30 16462 H 1559.62 3.75897 0.981496 0
M  V30 16463 H 1561.29 4.34025 -1.56268 0
M  V30 16464 H 1559.53 4.05748 -1.53464 0
M  V30 16465 H 1560.2 5.47299 -0.718837 0
M  V30 16466 H 1562.68 4.11086 0.644041 0
M  V30 16467 H 1561.55 5.33633 1.28557 0
M  V30 16468 H 1561.81 3.84668 2.17905 0
M  V30 16469 N 1560.87 0.155222 1.56834 0
M  V30 16470 C 1562.29 -0.201116 1.58328 0
M  V30 16471 C 1562.49 -1.64061 1.16988 0
M  V30 16472 O 1561.55 -2.36892 0.873989 0
M  V30 16473 C 1562.86 0.0651005 3.0063 0
M  V30 16474 C 1564.41 0.00203866 3.13 0
M  V30 16475 C 1564.88 0.241032 4.57365 0
M  V30 16476 N 1566.37 0.188245 4.62817 0
M  V30 16477 C 1567.11 0.347562 5.72346 0
M  V30 16478 N 1566.6 0.565052 6.90492 0
M  V30 16479 N 1568.4 0.284589 5.61379 0
M  V30 16480 H 1560.55 1.09503 1.81997 0
M  V30 16481 H 1562.81 0.434106 0.842767 0
M  V30 16482 H 1562.52 1.06167 3.35293 0
M  V30 16483 H 1562.39 -0.650601 3.71547 0
M  V30 16484 H 1564.78 -0.98509 2.78173 0
M  V30 16485 H 1564.86 0.750199 2.44552 0
M  V30 16486 H 1564.5 1.2253 4.92898 0
M  V30 16487 H 1564.43 -0.52755 5.23951 0
M  V30 16488 H 1566.92 0.0251352 3.77892 0
M  V30 16489 H 1567.24 0.676502 7.69833 0
M  V30 16490 H 1565.58 0.601473 6.92392 0
M  V30 16491 H 1568.77 0.115381 4.67958 0
M  V30 16492 H 1568.95 0.412182 6.46688 0
M  V30 16493 N 1562.35 -1.57153 -0.118549 0
M  V30 16494 C 1563.28 -2.03409 -1.1466 0
M  V30 16495 C 1564.26 -0.918636 -1.43161 0
M  V30 16496 O 1565.45 -1.18838 -1.53594 0
M  V30 16497 C 1562.58 -2.43879 -2.47265 0
M  V30 16498 C 1561.53 -3.58873 -2.33225 0
M  V30 16499 C 1560.86 -3.85244 -3.70798 0
M  V30 16500 C 1562.16 -4.90582 -1.79239 0
M  V30 16501 H 1563.85 -2.89545 -0.761862 0
M  V30 16502 H 1561.4 -1.39296 -0.365034 0
M  V30 16503 H 1563.35 -2.74844 -3.19435 0
M  V30 16504 H 1562.07 -1.54715 -2.8763 0
M  V30 16505 H 1560.73 -3.28119 -1.63504 0
M  V30 16506 H 1560.38 -2.93285 -4.08648 0
M  V30 16507 H 1560.08 -4.62649 -3.62257 0
M  V30 16508 H 1561.61 -4.18661 -4.44472 0
M  V30 16509 H 1563.02 -5.20079 -2.41227 0
M  V30 16510 H 1561.42 -5.71989 -1.81518 0
M  V30 16511 H 1562.49 -4.79065 -0.74999 0
M  V30 16512 N 1563.83 0.388742 -1.5273 0
M  V30 16513 C 1565.24 0.966667 -1.59726 0
M  V30 16514 C 1565.59 1.90963 -0.450272 0
M  V30 16515 O 1564.72 2.12153 0.426611 0
M  V30 16516 C 1565.31 1.75998 -2.895 0
M  V30 16517 C 1563.87 2.28761 -2.98907 0
M  V30 16518 C 1563.02 1.09322 -2.54841 0
M  V30 16519 H 1565.97 0.16828 -1.57805 0
M  V30 16520 H 1565.99 2.61924 -2.76 0
M  V30 16521 H 1565.5 1.07342 -3.7296 0
M  V30 16522 H 1563.6 3.00728 -2.19985 0
M  V30 16523 H 1563.72 2.58229 -4.03552 0
M  V30 16524 H 1562.08 1.45332 -2.09167 0
M  V30 16525 H 1562.86 0.421999 -3.40696 0
M  V30 16526 N 1565.31 1.43698 0.647203 0
M  V30 16527 C 1566.72 1.40586 1.22851 0
M  V30 16528 C 1567.07 0.112981 1.95874 0
M  V30 16529 O 1566.19 -0.787342 2.01569 0
M  V30 16530 C 1566.79 2.54672 2.23445 0
M  V30 16531 C 1565.35 2.54806 2.7704 0
M  V30 16532 C 1564.5 2.32076 1.51777 0
M  V30 16533 H 1567.45 1.52512 0.43885 0
M  V30 16534 H 1567.47 2.26505 3.05738 0
M  V30 16535 H 1566.98 3.48755 1.70269 0
M  V30 16536 H 1565.08 1.64619 3.34262 0
M  V30 16537 H 1565.19 3.52771 3.24175 0
M  V30 16538 H 1563.56 1.80858 1.79339 0
M  V30 16539 H 1564.34 3.28252 1.00527 0
M  V30 16540 N 1566.79 -0.886131 1.30328 0
M  V30 16541 C 1567.73 -2.01312 1.16516 0
M  V30 16542 C 1568.73 -1.69223 0.0773431 0
M  V30 16543 O 1569.93 -1.78418 0.238111 0
M  V30 16544 H 1566.31 -0.66006 0.360312 0
M  V30 16545 H 1568.28 -2.10097 2.11901 0
M  V30 16546 C 1567.03 -3.36573 0.872592 0
M  V30 16547 H 1566.35 -3.61775 1.70172 0
M  V30 16548 H 1567.79 -4.16073 0.816049 0
M  V30 16549 C 1566.25 -3.34215 -0.424465 0
M  V30 16550 O 1566.78 -3.74758 -1.44634 0
M  V30 16551 N 1564.99 -2.87323 -0.435207 0
M  V30 16552 H 1564.53 -2.54525 0.396851 0
M  V30 16553 H 1564.49 -2.86128 -1.303 0
M  V30 16554 N 1568.26 -1.13026 -1.09832 0
M  V30 16555 C 1569.49 -0.91246 -1.85693 0
M  V30 16556 C 1569.91 0.538558 -1.80956 0
M  V30 16557 O 1569.26 1.37262 -1.20273 0
M  V30 16558 C 1569.32 -1.38684 -3.3384 0
M  V30 16559 O 1569.04 -2.78099 -3.38515 0
M  V30 16560 C 1570.54 -1.20688 -4.26555 0
M  V30 16561 H 1567.76 -0.32565 -0.58668 0
M  V30 16562 H 1570.3 -1.50177 -1.38806 0
M  V30 16563 H 1568.46 -0.840617 -3.7817 0
M  V30 16564 H 1568.87 -2.99061 -4.30886 0
M  V30 16565 H 1570.34 -1.5876 -5.28677 0
M  V30 16566 H 1570.82 -0.148111 -4.3895 0
M  V30 16567 H 1571.43 -1.74092 -3.88036 0
M  V30 16568 N 1569.74 1.27735 -0.923117 0
M  V30 16569 C 1570.69 2.28975 -0.409065 0
M  V30 16570 C 1571.68 1.61723 0.504194 0
M  V30 16571 O 1572.89 1.75848 0.384402 0
M  V30 16572 H 1569.27 0.743354 -0.113705 0
M  V30 16573 H 1571.24 2.69751 -1.27582 0
M  V30 16574 C 1569.99 3.46158 0.327099 0
M  V30 16575 H 1569.31 3.98117 -0.366444 0
M  V30 16576 H 1570.75 4.18968 0.65128 0
M  V30 16577 C 1569.21 2.99724 1.53842 0
M  V30 16578 O 1569.74 3.03001 2.6373 0
M  V30 16579 N 1567.94 2.55274 1.38865 0
M  V30 16580 H 1567.49 2.52807 0.494629 0
M  V30 16581 H 1567.45 2.24567 2.20039 0
M  V30 16582 N 1571.22 0.688118 1.41784 0
M  V30 16583 C 1572.5 0.144304 1.95067 0
M  V30 16584 C 1572.88 -1.34399 1.62789 0
M  V30 16585 O 1572.23 -2.08675 0.930978 0
M  V30 16586 C 1572.44 0.427641 3.4637 0
M  V30 16587 C 1573.78 0.351345 4.23144 0
M  V30 16588 O 1574.81 0.362134 3.54354 0
M  V30 16589 O 1573.67 0.305018 5.45648 0
M  V30 16590 H 1570.76 0.01062 0.826932 0
M  V30 16591 H 1573.31 0.763766 1.51541 0
M  V30 16592 H 1572.08 1.4581 3.63119 0
M  V30 16593 H 1571.7 -0.223167 3.96973 0
M  V30 16594 N 1572.7 -1.51554 0.432352 0
M  V30 16595 C 1573.61 -2.31371 -0.387885 0
M  V30 16596 C 1574.62 -1.40072 -1.03227 0
M  V30 16597 O 1575.8 -1.73145 -1.02873 0
M  V30 16598 C 1572.87 -3.13662 -1.47705 0
M  V30 16599 C 1571.93 -4.20734 -0.853315 0
M  V30 16600 C 1571.16 -4.99092 -1.89058 0
M  V30 16601 O 1571.38 -4.78022 -3.11209 0
M  V30 16602 O 1570.32 -5.83322 -1.48389 0
M  V30 16603 H 1574.14 -3.02554 0.263578 0
M  V30 16604 H 1571.73 -1.48122 0.195004 0
M  V30 16605 H 1573.61 -3.64837 -2.10884 0
M  V30 16606 H 1572.28 -2.45249 -2.11269 0
M  V30 16607 H 1571.19 -3.73649 -0.183616 0
M  V30 16608 H 1572.52 -4.91506 -0.261244 0
M  V30 16609 N 1574.18 -0.163538 -1.56749 0
M  V30 16610 C 1575.42 0.48412 -1.96937 0
M  V30 16611 C 1575.76 1.63418 -1.04919 0
M  V30 16612 O 1575.03 1.94269 -0.094783 0
M  V30 16613 C 1575.31 0.974532 -3.46663 0
M  V30 16614 C 1575.17 -0.175173 -4.49459 0
M  V30 16615 C 1576.49 1.85082 -3.9929 0
M  V30 16616 H 1573.6 0.174503 -0.716043 0
M  V30 16617 H 1576.25 -0.248103 -1.88373 0
M  V30 16618 H 1574.4 1.59849 -3.54091 0
M  V30 16619 H 1576.07 -0.812038 -4.54096 0
M  V30 16620 H 1574.31 -0.831853 -4.2575 0
M  V30 16621 H 1574.98 0.20996 -5.51601 0
M  V30 16622 H 1577.46 1.32488 -3.94444 0
M  V30 16623 H 1576.33 2.163 -5.04485 0
M  V30 16624 H 1576.6 2.79378 -3.42638 0
M  V30 16625 N 1575.65 1.57214 0.110213 0
M  V30 16626 C 1576.93 1.76298 0.847249 0
M  V30 16627 C 1577.31 0.741294 1.97656 0
M  V30 16628 O 1576.66 -0.233104 2.27308 0
M  V30 16629 C 1576.87 3.21588 1.35582 0
M  V30 16630 C 1578.22 3.8434 1.80465 0
M  V30 16631 O 1579.24 3.25244 1.45241 0
M  V30 16632 O 1578.1 4.88231 2.45546 0
M  V30 16633 H 1575.19 0.722167 0.402993 0
M  V30 16634 H 1577.74 1.69443 0.0932694 0
M  V30 16635 H 1576.51 3.87472 0.54599 0
M  V30 16636 H 1576.14 3.33015 2.17225 0
M  V30 16637 N 1577.13 -0.380637 1.52934 0
M  V30 16638 C 1578.04 -1.48957 1.81243 0
M  V30 16639 C 1579.06 -1.5931 0.69974 0
M  V30 16640 O 1580.23 -1.75488 0.988218 0
M  V30 16641 C 1577.3 -2.84397 1.9829 0
M  V30 16642 C 1576.36 -2.83697 3.22202 0
M  V30 16643 C 1575.59 -4.12677 3.38427 0
M  V30 16644 O 1575.82 -5.08068 2.59274 0
M  V30 16645 O 1574.75 -4.19407 4.31719 0
M  V30 16646 H 1578.58 -1.27964 2.75425 0
M  V30 16647 H 1576.16 -0.56929 1.38128 0
M  V30 16648 H 1578.04 -3.64676 2.11161 0
M  V30 16649 H 1576.72 -3.054 1.07298 0
M  V30 16650 H 1575.63 -2.0217 3.14767 0
M  V30 16651 H 1576.96 -2.67648 4.13068 0
M  V30 16652 N 1578.61 -1.44039 -0.639573 0
M  V30 16653 C 1579.89 -1.36853 -1.39752 0
M  V30 16654 C 1580.27 -0.0230515 -2.11087 0
M  V30 16655 O 1579.62 0.994061 -2.05744 0
M  V30 16656 C 1579.83 -2.56101 -2.37093 0
M  V30 16657 C 1581.17 -2.99793 -3.00681 0
M  V30 16658 O 1582.2 -2.56246 -2.4742 0
M  V30 16659 O 1581.06 -3.75274 -3.97281 0
M  V30 16660 H 1578.15 -0.541521 -0.625047 0
M  V30 16661 H 1580.7 -1.56113 -0.665336 0
M  V30 16662 H 1579.47 -3.45647 -1.83422 0
M  V30 16663 H 1579.09 -2.39011 -3.17741 0
M  V30 16664 N 1580.09 0.879207 -1.30796 0
M  V30 16665 C 1581.5 1.44705 -1.17972 0
M  V30 16666 C 1581.85 1.94992 0.217381 0
M  V30 16667 O 1580.98 1.85494 1.11449 0
M  V30 16668 C 1581.57 2.6302 -2.13555 0
M  V30 16669 C 1580.13 3.15877 -2.04692 0
M  V30 16670 C 1579.28 1.88576 -2.03309 0
M  V30 16671 H 1582.23 0.688604 -1.42982 0
M  V30 16672 H 1582.25 3.39418 -1.71976 0
M  V30 16673 H 1581.76 2.2639 -3.15229 0
M  V30 16674 H 1579.86 3.57151 -1.0618 0
M  V30 16675 H 1579.97 3.78786 -2.93357 0
M  V30 16676 H 1578.34 2.0715 -1.48192 0
M  V30 16677 H 1579.12 1.54195 -3.06723 0
M  V30 16678 N 1581.57 1.13606 1.09231 0
M  V30 16679 C 1582.8 0.922295 1.85206 0
M  V30 16680 C 1583.21 -0.528954 1.81239 0
M  V30 16681 O 1582.57 -1.36622 1.20999 0
M  V30 16682 C 1582.62 1.40453 3.331 0
M  V30 16683 O 1582.34 2.7989 3.37036 0
M  V30 16684 C 1583.84 1.22948 4.25909 0
M  V30 16685 H 1581.06 0.328757 0.584945 0
M  V30 16686 H 1583.6 1.50911 1.38007 0
M  V30 16687 H 1581.76 0.86066 3.77719 0
M  V30 16688 H 1582.17 3.01342 4.29294 0
M  V30 16689 H 1583.65 1.61562 5.27827 0
M  V30 16690 H 1584.12 0.171387 4.38865 0
M  V30 16691 H 1584.73 1.76147 3.87108 0
M  V30 16692 N 1583.05 -1.27244 0.929878 0
M  V30 16693 C 1584.29 -1.93886 0.570331 0
M  V30 16694 C 1584.61 -1.7342 -0.891656 0
M  V30 16695 O 1583.88 -1.0832 -1.63228 0
M  V30 16696 H 1582.46 -0.717476 0.207937 0
M  V30 16697 H 1585.13 -1.5491 1.18275 0
M  V30 16698 H 1584.22 -3.02236 0.778463 0
M  V30 16699 N 1584.52 -0.695628 -1.41417 0
M  V30 16700 C 1585.47 -0.0189456 -2.32592 0
M  V30 16701 C 1586.47 0.76848 -1.50966 0
M  V30 16702 O 1587.67 0.674096 -1.66901 0
M  V30 16703 H 1584.05 0.0126742 -0.751893 0
M  V30 16704 H 1586.02 -0.804968 -2.87337 0
M  V30 16705 C 1584.77 0.903458 -3.35757 0
M  V30 16706 H 1584.09 0.306963 -3.9862 0
M  V30 16707 H 1585.53 1.34525 -4.02093 0
M  V30 16708 C 1583.99 2.01966 -2.69651 0
M  V30 16709 O 1584.52 3.10845 -2.54438 0
M  V30 16710 N 1582.72 1.79741 -2.28345 0
M  V30 16711 H 1582.27 0.911929 -2.40918 0
M  V30 16712 H 1582.23 2.54609 -1.84449 0
M  V30 16713 N 1586 1.51322 -0.440383 0
M  V30 16714 C 1586.95 2.27823 0.369526 0
M  V30 16715 C 1587.92 1.31543 1.01418 0
M  V30 16716 O 1589.1 1.60449 1.03251 0
M  V30 16717 C 1586.24 3.12553 1.46304 0
M  V30 16718 C 1585.36 4.23829 0.836217 0
M  V30 16719 C 1584.49 4.95865 1.90504 0
M  V30 16720 C 1583.53 5.99058 1.25681 0
M  V30 16721 N 1582.67 6.64489 2.26712 0
M  V30 16722 H 1587.51 2.96593 -0.289205 0
M  V30 16723 H 1585.04 1.46287 -0.154466 0
M  V30 16724 H 1587 3.60006 2.10836 0
M  V30 16725 H 1585.63 2.4589 2.09136 0
M  V30 16726 H 1584.68 3.80318 0.0791116 0
M  V30 16727 H 1586 4.97753 0.322989 0
M  V30 16728 H 1585.15 5.46881 2.6269 0
M  V30 16729 H 1583.89 4.21578 2.452 0
M  V30 16730 H 1582.89 5.47331 0.520422 0
M  V30 16731 H 1584.12 6.75303 0.717138 0
M  V30 16732 H 1582.07 5.93014 2.80483 0
M  V30 16733 H 1581.98 7.34188 1.80289 0
M  V30 16734 H 1583.25 7.20134 2.98373 0
M  V30 16735 N 1587.48 0.171848 1.5666 0
M  V30 16736 C 1588.44 -0.744316 2.16778 0
M  V30 16737 C 1589.44 -1.15769 1.11598 0
M  V30 16738 O 1590.63 -1.07456 1.37109 0
M  V30 16739 C 1587.76 -2.01319 2.75106 0
M  V30 16740 H 1588.96 -0.220952 2.99085 0
M  V30 16741 H 1586.51 -0.0777149 1.56107 0
M  V30 16742 H 1587.25 -2.57963 1.96534 0
M  V30 16743 H 1587.03 -1.72575 3.5208 0
M  V30 16744 H 1588.52 -2.667 3.21342 0
M  V30 16745 N 1588.96 -1.5727 -0.101874 0
M  V30 16746 C 1589.89 -2.04614 -1.12496 0
M  V30 16747 C 1590.87 -0.933768 -1.42179 0
M  V30 16748 O 1592.05 -1.2046 -1.52325 0
M  V30 16749 C 1589.18 -2.46488 -2.44665 0
M  V30 16750 C 1588.14 -3.61327 -2.29406 0
M  V30 16751 C 1587.46 -3.89155 -3.66691 0
M  V30 16752 C 1588.76 -4.92455 -1.74026 0
M  V30 16753 H 1590.46 -2.90336 -0.731109 0
M  V30 16754 H 1588 -1.39676 -0.350239 0
M  V30 16755 H 1589.96 -2.78216 -3.16502 0
M  V30 16756 H 1588.68 -1.57757 -2.85972 0
M  V30 16757 H 1587.34 -3.29835 -1.60015 0
M  V30 16758 H 1586.99 -2.97603 -4.05514 0
M  V30 16759 H 1586.69 -4.66465 -3.57329 0
M  V30 16760 H 1588.21 -4.23352 -4.40006 0
M  V30 16761 H 1589.63 -5.22609 -2.35697 0
M  V30 16762 H 1588.02 -5.73882 -1.75441 0
M  V30 16763 H 1589.09 -4.79833 -0.699136 0
M  V30 16764 N 1590.44 0.372521 -1.53134 0
M  V30 16765 C 1591.68 1.11405 -1.70178 0
M  V30 16766 C 1592.04 1.87194 -0.444559 0
M  V30 16767 O 1591.33 1.83165 0.562249 0
M  V30 16768 C 1591.52 2.10742 -2.88656 0
M  V30 16769 C 1591.35 1.44713 -4.25779 0
M  V30 16770 C 1590.12 1.2042 -4.90741 0
M  V30 16771 C 1592.32 0.888496 -5.06567 0
M  V30 16772 N 1590.3 0.506685 -6.11805 0
M  V30 16773 C 1591.67 0.319961 -6.19174 0
M  V30 16774 C 1593.73 0.786508 -4.91649 0
M  V30 16775 C 1592.43 -0.340609 -7.18493 0
M  V30 16776 C 1594.46 0.139732 -5.91235 0
M  V30 16777 C 1593.82 -0.41796 -7.03159 0
M  V30 16778 H 1589.92 0.393051 -0.676044 0
M  V30 16779 H 1592.5 0.401356 -1.90518 0
M  V30 16780 H 1590.67 2.79332 -2.69867 0
M  V30 16781 H 1592.41 2.77522 -2.94557 0
M  V30 16782 H 1589.16 1.48362 -4.49762 0
M  V30 16783 H 1589.58 0.173493 -6.76778 0
M  V30 16784 H 1594.23 1.20345 -4.05311 0
M  V30 16785 H 1591.94 -0.769521 -8.04428 0
M  V30 16786 H 1595.53 0.0618412 -5.81767 0
M  V30 16787 H 1594.41 -0.910519 -7.78896 0
M  V30 16788 N 1591.91 1.44376 0.631925 0
M  V30 16789 C 1593.19 1.37592 1.39024 0
M  V30 16790 C 1593.57 0.0342456 2.11072 0
M  V30 16791 O 1592.92 -0.983136 2.06268 0
M  V30 16792 C 1593.13 2.57355 2.35732 0
M  V30 16793 C 1594.48 3.01384 2.99087 0
M  V30 16794 O 1595.5 2.57554 2.46057 0
M  V30 16795 O 1594.36 3.77375 3.95285 0
M  V30 16796 H 1591.45 0.544828 0.622167 0
M  V30 16797 H 1594 1.56464 0.657048 0
M  V30 16798 H 1592.77 3.46615 1.81587 0
M  V30 16799 H 1592.39 2.40693 3.16469 0
M  V30 16800 N 1593.39 -0.872258 1.31261 0
M  V30 16801 C 1594.81 -1.15763 1.09868 0
M  V30 16802 C 1595.01 -2.01065 -0.132331 0
M  V30 16803 O 1594.06 -2.38735 -0.822317 0
M  V30 16804 C 1595.38 -1.85199 2.36901 0
M  V30 16805 C 1596.92 -1.9791 2.42489 0
M  V30 16806 C 1597.4 -2.70759 3.69396 0
M  V30 16807 N 1598.89 -2.78296 3.70278 0
M  V30 16808 C 1599.63 -3.3527 4.65168 0
M  V30 16809 N 1599.12 -3.93193 5.70413 0
M  V30 16810 N 1600.91 -3.33206 4.52692 0
M  V30 16811 H 1593.07 -0.303784 2.10216 0
M  V30 16812 H 1595.33 -0.197172 0.927269 0
M  V30 16813 H 1595.03 -1.29968 3.26804 0
M  V30 16814 H 1594.91 -2.85493 2.46523 0
M  V30 16815 H 1597.3 -2.52305 1.53056 0
M  V30 16816 H 1597.38 -0.966644 2.36833 0
M  V30 16817 H 1597.02 -2.17031 4.59195 0
M  V30 16818 H 1596.95 -3.72407 3.72318 0
M  V30 16819 H 1599.44 -2.37185 2.94197 0
M  V30 16820 H 1599.75 -4.34771 6.38901 0
M  V30 16821 H 1598.1 -3.91575 5.7419 0
M  V30 16822 H 1601.29 -2.87191 3.69647 0
M  V30 16823 H 1601.46 -3.7731 5.26822 0
M  V30 16824 N 1594.87 -1.14184 -1.08627 0
M  V30 16825 C 1596.12 -0.906869 -1.80611 0
M  V30 16826 C 1596.44 0.568182 -1.86539 0
M  V30 16827 O 1595.71 1.41301 -1.35687 0
M  V30 16828 H 1594.29 -0.332523 -0.668908 0
M  V30 16829 H 1596.95 -1.43998 -1.31341 0
M  V30 16830 H 1596.05 -1.30484 -2.83514 0
M  V30 16831 N 1596.35 1.26749 -0.936613 0
M  V30 16832 C 1597.28 2.2892 -0.460213 0
M  V30 16833 C 1598.26 1.63065 0.484135 0
M  V30 16834 O 1599.44 1.90305 0.386973 0
M  V30 16835 C 1596.57 3.46172 0.279648 0
M  V30 16836 C 1595.53 4.24083 -0.57771 0
M  V30 16837 C 1594.85 5.33903 0.291843 0
M  V30 16838 C 1596.15 4.88562 -1.84673 0
M  V30 16839 H 1597.85 2.69019 -1.31412 0
M  V30 16840 H 1595.39 1.29325 -0.633333 0
M  V30 16841 H 1597.35 4.16755 0.623931 0
M  V30 16842 H 1596.07 3.05014 1.16765 0
M  V30 16843 H 1594.73 3.55258 -0.904824 0
M  V30 16844 H 1594.38 4.88986 1.17906 0
M  V30 16845 H 1594.08 5.8694 -0.278372 0
M  V30 16846 H 1595.6 6.07326 0.631498 0
M  V30 16847 H 1597.02 5.51384 -1.56997 0
M  V30 16848 H 1595.41 5.51697 -2.36115 0
M  V30 16849 H 1596.48 4.11761 -2.56088 0
M  V30 16850 N 1597.83 0.703118 1.41046 0
M  V30 16851 C 1598.76 0.0570815 2.3343 0
M  V30 16852 C 1599.74 -0.759042 1.52225 0
M  V30 16853 O 1600.92 -0.710491 1.80736 0
M  V30 16854 C 1598.05 -0.874541 3.36109 0
M  V30 16855 C 1597.01 -0.16496 4.27682 0
M  V30 16856 C 1596.33 -1.21145 5.20795 0
M  V30 16857 C 1597.63 0.97332 5.13151 0
M  V30 16858 H 1599.33 0.828699 2.87703 0
M  V30 16859 H 1596.87 0.399956 1.38334 0
M  V30 16860 H 1598.83 -1.33579 3.99668 0
M  V30 16861 H 1597.55 -1.67791 2.80203 0
M  V30 16862 H 1596.21 0.276332 3.65557 0
M  V30 16863 H 1595.86 -2.00755 4.61201 0
M  V30 16864 H 1595.56 -0.741633 5.82901 0
M  V30 16865 H 1597.08 -1.67305 5.87232 0
M  V30 16866 H 1598.49 0.592013 5.70235 0
M  V30 16867 H 1596.89 1.37071 5.84236 0
M  V30 16868 H 1597.96 1.80961 4.49868 0
M  V30 16869 N 1599.3 -1.51086 0.448402 0
M  V30 16870 C 1600.25 -2.29611 -0.371711 0
M  V30 16871 C 1601.25 -1.35926 -1.01096 0
M  V30 16872 O 1602.45 -1.53219 -0.944663 0
M  V30 16873 H 1598.83 -0.739099 -0.138694 0
M  V30 16874 H 1600.8 -2.96772 0.311275 0
M  V30 16875 C 1599.55 -3.1583 -1.45418 0
M  V30 16876 H 1598.87 -3.87813 -0.971661 0
M  V30 16877 H 1600.31 -3.7381 -2.00105 0
M  V30 16878 C 1598.77 -2.31927 -2.44359 0
M  V30 16879 O 1599.3 -1.98655 -3.4914 0
M  V30 16880 N 1597.51 -1.94938 -2.15517 0
M  V30 16881 H 1597.05 -2.22195 -1.30335 0
M  V30 16882 H 1597.01 -1.39098 -2.81956 0
M  V30 16883 N 1600.78 -0.180154 -1.56567 0
M  V30 16884 C 1602.03 0.461606 -1.96758 0
M  V30 16885 C 1602.35 1.63179 -1.0676 0
M  V30 16886 O 1601.62 1.95429 -0.135762 0
M  V30 16887 H 1600.2 0.173526 -0.726566 0
M  V30 16888 H 1602.86 -0.2634 -1.93112 0
M  V30 16889 H 1601.96 0.815729 -3.01251 0
M  V30 16890 N 1602.26 1.57322 0.0935319 0
M  V30 16891 C 1603.22 2.0121 1.0976 0
M  V30 16892 C 1604.22 0.905839 1.32858 0
M  V30 16893 O 1605.41 1.17128 1.28945 0
M  V30 16894 C 1602.55 2.37414 2.44638 0
M  V30 16895 H 1603.74 2.91134 0.719809 0
M  V30 16896 H 1601.29 1.52588 0.338625 0
M  V30 16897 H 1602.03 1.50449 2.8729 0
M  V30 16898 H 1601.81 3.1812 2.2922 0
M  V30 16899 H 1603.3 2.7202 3.16851 0
M  V30 16900 N 1603.74 -0.364395 1.53329 0
M  V30 16901 C 1604.96 -1.13196 1.73786 0
M  V30 16902 C 1605.39 -1.82231 0.466224 0
M  V30 16903 O 1604.75 -1.71778 -0.579817 0
M  V30 16904 C 1604.79 -2.13704 2.90453 0
M  V30 16905 O 1603.9 -3.20808 2.59144 0
M  V30 16906 H 1603.24 -0.328387 0.577112 0
M  V30 16907 H 1605.77 -0.421157 2.00218 0
M  V30 16908 H 1605.78 -2.57285 3.16652 0
M  V30 16909 H 1604.45 -1.6285 3.82691 0
M  V30 16910 H 1603.03 -2.82192 2.43767 0
M  V30 16911 N 1605.22 -1.44709 -0.62426 0
M  V30 16912 C 1606.15 -1.48097 -1.74928 0
M  V30 16913 C 1607.16 -0.373567 -1.58456 0
M  V30 16914 O 1608.35 -0.639699 -1.66644 0
M  V30 16915 C 1605.45 -1.30576 -3.12735 0
M  V30 16916 C 1604.62 -2.54688 -3.55602 0
M  V30 16917 C 1603.68 -2.31966 -4.72311 0
M  V30 16918 O 1602.71 -3.05492 -4.80274 0
M  V30 16919 N 1603.91 -1.35463 -5.64473 0
M  V30 16920 H 1606.68 -2.45086 -1.72491 0
M  V30 16921 H 1604.24 -1.40236 -0.809039 0
M  V30 16922 H 1606.23 -1.13212 -3.88542 0
M  V30 16923 H 1604.8 -0.419262 -3.09776 0
M  V30 16924 H 1604.02 -2.87282 -2.69931 0
M  V30 16925 H 1605.31 -3.37223 -3.80996 0
M  V30 16926 H 1604.7 -0.747509 -5.60739 0
M  V30 16927 H 1603.26 -1.24075 -6.39882 0
M  V30 16928 N 1606.69 0.865285 -1.31722 0
M  V30 16929 C 1607.64 1.97294 -1.19766 0
M  V30 16930 C 1608.61 1.65896 -0.0823232 0
M  V30 16931 O 1609.8 1.89075 -0.256009 0
M  V30 16932 C 1606.94 3.32727 -0.915776 0
M  V30 16933 C 1606.05 3.76691 -2.11489 0
M  V30 16934 C 1605.18 5.00865 -1.76939 0
M  V30 16935 C 1604.22 5.37291 -2.93232 0
M  V30 16936 N 1603.36 6.52643 -2.58846 0
M  V30 16937 H 1608.2 2.06851 -2.14515 0
M  V30 16938 H 1605.74 1.01256 -1.06703 0
M  V30 16939 H 1607.7 4.10712 -0.732881 0
M  V30 16940 H 1606.33 3.228 -0.00510917 0
M  V30 16941 H 1605.38 2.94449 -2.4084 0
M  V30 16942 H 1606.69 3.99613 -2.98514 0
M  V30 16943 H 1605.84 5.86529 -1.5514 0
M  V30 16944 H 1604.58 4.79857 -0.871125 0
M  V30 16945 H 1603.59 4.50143 -3.15675 0
M  V30 16946 H 1604.81 5.60262 -3.83775 0
M  V30 16947 H 1602.76 6.33172 -1.71548 0
M  V30 16948 H 1602.68 6.75531 -3.39401 0
M  V30 16949 H 1603.94 7.41487 -2.40451 0
M  V30 16950 N 1608.17 1.14759 1.0802 0
M  V30 16951 C 1609.14 0.840859 2.13219 0
M  V30 16952 C 1610.14 -0.156309 1.60038 0
M  V30 16953 O 1611.33 0.0725143 1.74049 0
M  V30 16954 C 1608.46 0.254208 3.39951 0
M  V30 16955 H 1609.65 1.77323 2.4186 0
M  V30 16956 H 1607.2 0.954146 1.23797 0
M  V30 16957 H 1607.94 -0.686692 3.16946 0
M  V30 16958 H 1607.72 0.972499 3.79848 0
M  V30 16959 H 1609.21 0.0569551 4.17561 0
M  V30 16960 N 1609.65 -1.26251 0.943322 0
M  V30 16961 C 1610.56 -2.3003 0.460778 0
M  V30 16962 C 1611.58 -1.67635 -0.4663 0
M  V30 16963 O 1612.75 -1.98418 -0.345307 0
M  V30 16964 C 1609.82 -3.45691 -0.264291 0
M  V30 16965 C 1608.88 -4.23561 0.69961 0
M  V30 16966 C 1608.11 -5.33699 0.00904846 0
M  V30 16967 O 1608.33 -5.57473 -1.20748 0
M  V30 16968 O 1607.27 -5.97945 0.688839 0
M  V30 16969 H 1611.09 -2.73374 1.32289 0
M  V30 16970 H 1608.68 -1.31489 0.709297 0
M  V30 16971 H 1610.56 -4.15997 -0.672634 0
M  V30 16972 H 1609.24 -3.04373 -1.10176 0
M  V30 16973 H 1608.14 -3.55728 1.15794 0
M  V30 16974 H 1609.48 -4.68634 1.50476 0
M  V30 16975 N 1611.13 -0.710588 -1.40671 0
M  V30 16976 C 1612.38 -0.248316 -2.01274 0
M  V30 16977 C 1612.71 1.1539 -1.56201 0
M  V30 16978 O 1611.98 1.78182 -0.779838 0
M  V30 16979 C 1612.27 -0.322762 -3.58651 0
M  V30 16980 C 1612.12 -1.763 -4.1381 0
M  V30 16981 C 1613.44 0.308908 -4.39015 0
M  V30 16982 H 1610.56 -0.0917037 -0.731272 0
M  V30 16983 H 1613.2 -0.902145 -1.67216 0
M  V30 16984 H 1611.35 0.233923 -3.87795 0
M  V30 16985 H 1613.02 -2.37468 -3.95483 0
M  V30 16986 H 1611.26 -2.29233 -3.68286 0
M  V30 16987 H 1611.94 -1.76652 -5.22971 0
M  V30 16988 H 1614.41 -0.165363 -4.15771 0
M  V30 16989 H 1613.29 0.226347 -5.48433 0
M  V30 16990 H 1613.55 1.39174 -4.19622 0
M  V30 16991 N 1612.61 1.50847 -0.456408 0
M  V30 16992 C 1613.86 2.01425 0.105223 0
M  V30 16993 C 1614.17 1.34413 1.421 0
M  V30 16994 O 1615.38 1.76066 2.06671 0
M  V30 16995 C 1613.83 3.59112 0.238051 0
M  V30 16996 C 1613.44 4.35073 -1.06842 0
M  V30 16997 C 1615.18 4.17778 0.752428 0
M  V30 16998 C 1613.09 5.84509 -0.900194 0
M  V30 16999 H 1612.02 0.752767 0.0430992 0
M  V30 17000 H 1614.67 1.73788 -0.589075 0
M  V30 17001 H 1613.05 3.83275 0.995795 0
M  V30 17002 H 1614.23 4.22645 -1.83598 0
M  V30 17003 H 1612.54 3.87948 -1.51278 0
M  V30 17004 H 1615.14 5.27155 0.895088 0
M  V30 17005 H 1615.48 3.78195 1.73994 0
M  V30 17006 H 1616.02 3.97765 0.052476 0
M  V30 17007 H 1612.75 6.28538 -1.86064 0
M  V30 17008 H 1612.27 5.99551 -0.172767 0
M  V30 17009 H 1613.95 6.44564 -0.560943 0
M  V30 17010 N 1614.09 0.188454 1.56469 0
M  V30 17011 C 1615.02 -0.774203 2.14666 0
M  V30 17012 C 1616 -1.21419 1.08149 0
M  V30 17013 O 1617.18 -1.30289 1.36224 0
M  V30 17014 C 1614.31 -2.04474 2.70015 0
M  V30 17015 C 1613.35 -1.74741 3.8906 0
M  V30 17016 S 1614.19 -0.901409 5.27859 0
M  V30 17017 C 1615.34 -2.18223 5.86626 0
M  V30 17018 H 1615.58 -0.279452 2.95984 0
M  V30 17019 H 1613.11 -0.0264561 1.54377 0
M  V30 17020 H 1615.07 -2.77442 3.0255 0
M  V30 17021 H 1613.73 -2.51061 1.88751 0
M  V30 17022 H 1612.92 -2.69055 4.26175 0
M  V30 17023 H 1612.52 -1.09858 3.57501 0
M  V30 17024 H 1614.81 -3.13538 6.00583 0
M  V30 17025 H 1615.76 -1.85551 6.83357 0
M  V30 17026 H 1616.17 -2.30766 5.15177 0
M  V30 17027 N 1615.56 -1.5737 -0.0851874 0
M  V30 17028 C 1616.51 -2.03781 -1.12142 0
M  V30 17029 C 1617.51 -0.940669 -1.40882 0
M  V30 17030 O 1618.71 -1.12582 -1.40447 0
M  V30 17031 H 1615.09 -0.64956 -0.378914 0
M  V30 17032 H 1617.06 -2.89983 -0.703736 0
M  V30 17033 C 1615.81 -2.48628 -2.43062 0
M  V30 17034 H 1615.13 -3.32637 -2.21795 0
M  V30 17035 H 1616.57 -2.84869 -3.14048 0
M  V30 17036 C 1615.03 -1.36364 -3.08069 0
M  V30 17037 O 1615.56 -0.698273 -3.95584 0
M  V30 17038 N 1613.76 -1.11213 -2.68477 0
M  V30 17039 H 1613.31 -1.655 -1.97402 0
M  V30 17040 H 1613.27 -0.363003 -3.12297 0
M  V30 17041 N 1617.04 0.356258 -1.53521 0
M  V30 17042 C 1618.27 1.11666 -1.73823 0
M  V30 17043 C 1618.68 1.83235 -0.471338 0
M  V30 17044 O 1618.02 1.74762 0.566035 0
M  V30 17045 C 1618.08 2.18429 -2.85533 0
M  V30 17046 C 1617.75 1.66545 -4.25572 0
M  V30 17047 C 1618.75 1.12454 -5.07592 0
M  V30 17048 C 1616.43 1.71776 -4.72015 0
M  V30 17049 C 1618.42 0.642826 -6.3415 0
M  V30 17050 C 1616.11 1.23217 -5.98549 0
M  V30 17051 C 1617.11 0.695609 -6.79449 0
M  V30 17052 O 1616.8 0.217211 -8.03606 0
M  V30 17053 H 1616.53 0.339418 -0.584612 0
M  V30 17054 H 1619.08 0.418173 -2.01098 0
M  V30 17055 H 1617.31 2.91798 -2.53753 0
M  V30 17056 H 1619 2.79934 -2.93925 0
M  V30 17057 H 1619.77 1.07745 -4.72881 0
M  V30 17058 H 1615.65 2.12481 -4.09112 0
M  V30 17059 H 1619.19 0.223354 -6.97242 0
M  V30 17060 H 1615.09 1.27623 -6.32758 0
M  V30 17061 H 1615.86 0.335679 -8.17811 0
M  V30 17062 N 1618.52 1.45038 0.616577 0
M  V30 17063 C 1619.47 1.49451 1.72187 0
M  V30 17064 C 1620.45 0.358711 1.5685 0
M  V30 17065 O 1621.65 0.604983 1.6634 0
M  V30 17066 C 1618.77 1.45551 3.10918 0
M  V30 17067 C 1617.86 2.643 3.31672 0
M  V30 17068 N 1618.25 3.89462 3.22727 0
M  V30 17069 C 1616.55 2.59805 3.62515 0
M  V30 17070 C 1617.25 4.68667 3.44567 0
M  V30 17071 N 1616.23 3.99974 3.68132 0
M  V30 17072 H 1620.03 2.44055 1.6375 0
M  V30 17073 H 1617.54 1.40205 0.819538 0
M  V30 17074 H 1619.54 1.46797 3.902 0
M  V30 17075 H 1618.2 0.519966 3.2051 0
M  V30 17076 H 1619.21 4.21217 3.01325 0
M  V30 17077 H 1615.89 1.75117 3.78999 0
M  V30 17078 H 1617.28 5.77683 3.43121 0
M  V30 17079 N 1620 -0.858287 1.32179 0
M  V30 17080 C 1621.24 -1.6146 1.22713 0
M  V30 17081 C 1621.58 -1.93045 -0.211479 0
M  V30 17082 O 1620.85 -1.57034 -1.14764 0
M  V30 17083 C 1621.13 -2.93728 2.08317 0
M  V30 17084 C 1620.99 -2.68947 3.60538 0
M  V30 17085 C 1622.31 -3.94959 1.94153 0
M  V30 17086 H 1619.43 -0.585872 0.447128 0
M  V30 17087 H 1622.07 -0.99134 1.62088 0
M  V30 17088 H 1620.22 -3.4692 1.74867 0
M  V30 17089 H 1621.89 -2.22336 4.04183 0
M  V30 17090 H 1620.13 -2.02974 3.83385 0
M  V30 17091 H 1620.8 -3.63112 4.15756 0
M  V30 17092 H 1623.28 -3.51013 2.23449 0
M  V30 17093 H 1622.16 -4.85371 2.56332 0
M  V30 17094 H 1622.42 -4.32672 0.908132 0
M  V30 17095 N 1621.48 -1.1533 -1.07409 0
M  V30 17096 C 1622.72 -0.925974 -1.79639 0
M  V30 17097 C 1623.04 0.548365 -1.87131 0
M  V30 17098 O 1622.31 1.39854 -1.37178 0
M  V30 17099 H 1620.89 -0.339599 -0.665343 0
M  V30 17100 H 1623.56 -1.45383 -1.29806 0
M  V30 17101 H 1622.65 -1.33484 -2.82114 0
M  V30 17102 N 1622.95 1.25748 -0.950004 0
M  V30 17103 C 1623.86 2.29783 -0.472971 0
M  V30 17104 C 1624.88 1.6788 0.457403 0
M  V30 17105 O 1626.06 1.98598 0.334779 0
M  V30 17106 C 1623.12 3.45826 0.245955 0
M  V30 17107 C 1622.18 4.23184 -0.722063 0
M  V30 17108 C 1621.41 5.33687 -0.0373517 0
M  V30 17109 O 1621.64 5.58105 1.1779 0
M  V30 17110 O 1620.57 5.97572 -0.72054 0
M  V30 17111 H 1624.4 2.72668 -1.33737 0
M  V30 17112 H 1621.98 1.31111 -0.71626 0
M  V30 17113 H 1623.86 4.16348 0.650563 0
M  V30 17114 H 1622.54 3.04953 1.0856 0
M  V30 17115 H 1621.45 3.55109 -1.17679 0
M  V30 17116 H 1622.78 4.67829 -1.52959 0
M  V30 17117 N 1624.43 0.718038 1.40292 0
M  V30 17118 C 1625.66 0.268326 2.05153 0
M  V30 17119 C 1626.07 -1.09075 1.54104 0
M  V30 17120 O 1625.43 -1.68597 0.698654 0
M  V30 17121 C 1625.48 0.242222 3.60688 0
M  V30 17122 O 1625.2 1.54764 4.09853 0
M  V30 17123 C 1626.7 -0.225741 4.42725 0
M  V30 17124 H 1623.92 0.120165 0.660153 0
M  V30 17125 H 1626.47 0.976933 1.79656 0
M  V30 17126 H 1624.62 -0.417367 3.85145 0
M  V30 17127 H 1625.04 1.44976 5.04066 0
M  V30 17128 H 1626.51 -0.192857 5.51663 0
M  V30 17129 H 1626.99 -1.26829 4.20489 0
M  V30 17130 H 1627.59 0.40366 4.2338 0
M  V30 17131 N 1625.91 -1.50602 0.464402 0
M  V30 17132 C 1627.16 -2.02587 -0.0930295 0
M  V30 17133 C 1627.49 -1.34618 -1.3997 0
M  V30 17134 O 1626.76 -0.469711 -1.88743 0
M  V30 17135 C 1627.05 -3.5898 -0.283783 0
M  V30 17136 C 1626.9 -4.3753 1.04344 0
M  V30 17137 C 1628.22 -4.27602 -1.04138 0
M  V30 17138 H 1625.34 -0.73629 -0.0323356 0
M  V30 17139 H 1627.98 -1.79986 0.608687 0
M  V30 17140 H 1626.13 -3.78368 -0.881488 0
M  V30 17141 H 1627.8 -4.29729 1.67721 0
M  V30 17142 H 1626.05 -4.01536 1.64168 0
M  V30 17143 H 1626.72 -5.45201 0.863691 0
M  V30 17144 H 1629.19 -4.12649 -0.534822 0
M  V30 17145 H 1628.07 -5.36854 -1.14364 0
M  V30 17146 H 1628.33 -3.9031 -2.0763 0
M  V30 17147 N 1627.39 -0.19675 -1.56367 0
M  V30 17148 C 1628.32 0.718607 -2.22167 0
M  V30 17149 C 1629.3 1.22002 -1.1853 0
M  V30 17150 O 1630.48 1.26856 -1.47042 0
M  V30 17151 C 1627.61 1.93753 -2.88231 0
M  V30 17152 C 1626.57 1.57096 -3.98127 0
M  V30 17153 C 1625.89 2.86663 -4.51363 0
M  V30 17154 C 1627.19 0.779649 -5.16448 0
M  V30 17155 H 1628.89 0.170064 -2.98917 0
M  V30 17156 H 1626.43 0.0803568 -1.43776 0
M  V30 17157 H 1628.39 2.58312 -3.32946 0
M  V30 17158 H 1627.11 2.51063 -2.0889 0
M  V30 17159 H 1625.77 0.948947 -3.54105 0
M  V30 17160 H 1625.42 3.42066 -3.68782 0
M  V30 17161 H 1625.12 2.6288 -5.25517 0
M  V30 17162 H 1626.64 3.52207 -4.98781 0
M  V30 17163 H 1628.06 1.32838 -5.57698 0
M  V30 17164 H 1626.45 0.639882 -5.96679 0
M  V30 17165 H 1627.52 -0.218944 -4.84405 0
M  V30 17166 N 1628.87 1.57413 0.0768405 0
M  V30 17167 C 1630.09 1.91607 0.793833 0
M  V30 17168 C 1630.52 0.792708 1.70581 0
M  V30 17169 O 1629.87 -0.25475 1.79501 0
M  V30 17170 C 1629.92 3.24736 1.56776 0
M  V30 17171 O 1629.03 3.13613 2.67807 0
M  V30 17172 H 1628.37 0.627572 0.216908 0
M  V30 17173 H 1630.9 2.04547 0.0465957 0
M  V30 17174 H 1630.91 3.58488 1.94809 0
M  V30 17175 H 1629.58 4.06077 0.898588 0
M  V30 17176 H 1628.16 2.91411 2.32668 0
M  V30 17177 N 1630.34 -0.348112 1.53707 0
M  V30 17178 C 1631.27 -1.43296 1.8436 0
M  V30 17179 C 1632.26 -1.55102 0.698376 0
M  V30 17180 O 1633.44 -1.69385 0.949864 0
M  V30 17181 C 1630.57 -2.80407 2.04912 0
M  V30 17182 C 1629.52 -2.83412 3.20721 0
M  V30 17183 C 1628.85 -4.23365 3.26597 0
M  V30 17184 C 1630.15 -2.49358 4.58931 0
M  V30 17185 H 1631.84 -1.17892 2.75212 0
M  V30 17186 H 1629.39 -0.565692 1.32423 0
M  V30 17187 H 1631.34 -3.56343 2.24939 0
M  V30 17188 H 1630.07 -3.07236 1.10786 0
M  V30 17189 H 1628.73 -2.09929 3.00542 0
M  V30 17190 H 1628.37 -4.47297 2.30076 0
M  V30 17191 H 1628.07 -4.26287 4.04417 0
M  V30 17192 H 1629.6 -5.01149 3.4883 0
M  V30 17193 H 1631.01 -3.15006 4.79003 0
M  V30 17194 H 1629.41 -2.6357 5.3912 0
M  V30 17195 H 1630.48 -1.44557 4.62851 0
M  V30 17196 N 1631.82 -1.45363 -0.608876 0
M  V30 17197 C 1632.75 -1.49944 -1.73348 0
M  V30 17198 C 1633.77 -0.390352 -1.58051 0
M  V30 17199 O 1634.96 -0.657338 -1.65956 0
M  V30 17200 C 1632.06 -1.33886 -3.11332 0
M  V30 17201 C 1631.23 -2.58445 -3.52881 0
M  V30 17202 C 1630.29 -2.36963 -4.69825 0
M  V30 17203 O 1629.31 -3.10569 -4.77007 0
M  V30 17204 N 1630.52 -1.41442 -5.63005 0
M  V30 17205 H 1633.28 -2.46902 -1.69882 0
M  V30 17206 H 1630.84 -1.41086 -0.794119 0
M  V30 17207 H 1632.83 -1.17327 -3.8732 0
M  V30 17208 H 1631.4 -0.452095 -3.09314 0
M  V30 17209 H 1630.62 -2.90129 -2.66869 0
M  V30 17210 H 1631.91 -3.41245 -3.77398 0
M  V30 17211 H 1631.31 -0.806941 -5.59915 0
M  V30 17212 H 1629.87 -1.30855 -6.3853 0
M  V30 17213 N 1633.3 0.851265 -1.32632 0
M  V30 17214 C 1634.25 1.96012 -1.21852 0
M  V30 17215 C 1635.22 1.65799 -0.0999141 0
M  V30 17216 O 1636.4 1.88793 -0.276049 0
M  V30 17217 C 1633.54 3.31737 -0.951014 0
M  V30 17218 C 1632.66 3.74427 -2.15472 0
M  V30 17219 C 1631.79 4.9896 -1.82242 0
M  V30 17220 C 1630.83 5.3415 -2.98914 0
M  V30 17221 N 1629.97 6.49861 -2.65754 0
M  V30 17222 H 1634.81 2.04565 -2.16696 0
M  V30 17223 H 1632.34 1.00119 -1.07771 0
M  V30 17224 H 1634.3 4.09912 -0.776401 0
M  V30 17225 H 1632.93 3.22776 -0.0393461 0
M  V30 17226 H 1631.98 2.91878 -2.4395 0
M  V30 17227 H 1633.3 3.96425 -3.02736 0
M  V30 17228 H 1632.45 5.84851 -1.61352 0
M  V30 17229 H 1631.19 4.78906 -0.921971 0
M  V30 17230 H 1630.19 4.4677 -3.20432 0
M  V30 17231 H 1631.42 5.5616 -3.89696 0
M  V30 17232 H 1629.36 6.31317 -1.78254 0
M  V30 17233 H 1629.28 6.71894 -3.46547 0
M  V30 17234 H 1630.55 7.38895 -2.48302 0
M  V30 17235 N 1634.78 1.15898 1.06796 0
M  V30 17236 C 1636.01 0.961372 1.83208 0
M  V30 17237 C 1636.42 -0.490392 1.8232 0
M  V30 17238 O 1635.78 -1.34025 1.2387 0
M  V30 17239 C 1635.83 1.47486 3.30045 0
M  V30 17240 O 1635.55 2.86976 3.31023 0
M  V30 17241 C 1637.05 1.31955 4.23205 0
M  V30 17242 H 1634.27 0.34109 0.57784 0
M  V30 17243 H 1636.82 1.53805 1.34775 0
M  V30 17244 H 1634.97 0.940586 3.75808 0
M  V30 17245 H 1635.38 3.1038 4.22805 0
M  V30 17246 H 1636.86 1.72721 5.24282 0
M  V30 17247 H 1637.34 0.264439 4.38403 0
M  V30 17248 H 1637.94 1.84319 3.83284 0
M  V30 17249 N 1636.26 -1.25243 0.956659 0
M  V30 17250 C 1637.48 -1.97082 0.629791 0
M  V30 17251 C 1637.9 -1.71082 -0.798529 0
M  V30 17252 O 1637.26 -0.98805 -1.5344 0
M  V30 17253 C 1637.31 -3.5059 0.881406 0
M  V30 17254 O 1637.03 -3.75694 2.25356 0
M  V30 17255 C 1638.53 -4.39656 0.567203 0
M  V30 17256 H 1635.75 -0.628152 0.235938 0
M  V30 17257 H 1638.29 -1.5936 1.28159 0
M  V30 17258 H 1636.45 -3.86416 0.27599 0
M  V30 17259 H 1636.86 -4.70142 2.32523 0
M  V30 17260 H 1638.34 -5.46263 0.793785 0
M  V30 17261 H 1638.81 -4.36364 -0.498287 0
M  V30 17262 H 1639.42 -4.094 1.15203 0
M  V30 17263 N 1637.73 -0.725468 -1.3991 0
M  V30 17264 C 1638.66 -0.094211 -2.3331 0
M  V30 17265 C 1639.65 0.734728 -1.53414 0
M  V30 17266 O 1640.83 0.681647 -1.81844 0
M  V30 17267 C 1637.96 0.820958 -3.37457 0
M  V30 17268 C 1636.91 0.0968983 -4.2789 0
M  V30 17269 C 1636.24 1.12845 -5.22657 0
M  V30 17270 C 1637.54 -1.05483 -5.11537 0
M  V30 17271 H 1639.23 -0.874365 -2.86348 0
M  V30 17272 H 1636.78 -0.421913 -1.3768 0
M  V30 17273 H 1638.73 1.27203 -4.01743 0
M  V30 17274 H 1637.46 1.63312 -2.82837 0
M  V30 17275 H 1636.12 -0.334454 -3.65071 0
M  V30 17276 H 1635.76 1.93392 -4.64337 0
M  V30 17277 H 1635.46 0.648805 -5.84007 0
M  V30 17278 H 1636.99 1.57942 -5.89819 0
M  V30 17279 H 1638.4 -0.682657 -5.69221 0
M  V30 17280 H 1636.8 -1.46349 -5.81981 0
M  V30 17281 H 1637.87 -1.88095 -4.46932 0
M  V30 17282 N 1639.21 1.50354 -0.472382 0
M  V30 17283 C 1640.46 2.01526 0.0838536 0
M  V30 17284 C 1640.77 1.35913 1.40667 0
M  V30 17285 O 1641.98 1.78248 2.04792 0
M  V30 17286 C 1640.44 3.59344 0.199949 0
M  V30 17287 C 1640.04 4.33916 -1.11451 0
M  V30 17288 C 1641.79 4.18553 0.708075 0
M  V30 17289 C 1639.7 5.83521 -0.962138 0
M  V30 17290 H 1638.63 0.753182 0.0351127 0
M  V30 17291 H 1641.28 1.73153 -0.607474 0
M  V30 17292 H 1639.66 3.8431 0.955088 0
M  V30 17293 H 1640.83 4.20673 -1.8807 0
M  V30 17294 H 1639.15 3.86322 -1.55385 0
M  V30 17295 H 1641.74 5.28075 0.839126 0
M  V30 17296 H 1642.09 3.80019 1.69973 0
M  V30 17297 H 1642.62 3.97799 0.0102847 0
M  V30 17298 H 1639.36 6.26529 -1.9272 0
M  V30 17299 H 1638.88 5.99334 -0.236348 0
M  V30 17300 H 1640.56 6.43933 -0.629276 0
M  V30 17301 N 1640.69 0.205039 1.56261 0
M  V30 17302 C 1642.1 -0.305792 1.84179 0
M  V30 17303 C 1642.45 -1.60672 1.126 0
M  V30 17304 O 1641.58 -2.12855 0.390118 0
M  V30 17305 C 1642.17 -0.561596 3.34113 0
M  V30 17306 C 1640.73 -1.01677 3.62407 0
M  V30 17307 C 1639.88 -0.0707844 2.7721 0
M  V30 17308 H 1642.83 0.428609 1.52803 0
M  V30 17309 H 1642.85 -1.40969 3.53423 0
M  V30 17310 H 1642.36 0.38541 3.86182 0
M  V30 17311 H 1640.46 -1.97771 3.1578 0
M  V30 17312 H 1640.58 -0.902607 4.70521 0
M  V30 17313 H 1638.94 -0.574529 2.48136 0
M  V30 17314 H 1639.72 0.870844 3.32071 0
M  V30 17315 N 1642.17 -1.57451 -0.0684915 0
M  V30 17316 C 1643.42 -1.87041 -0.765505 0
M  V30 17317 C 1643.74 -0.797489 -1.77947 0
M  V30 17318 O 1643.01 0.17349 -1.9513 0
M  V30 17319 H 1641.59 -0.690203 -0.285708 0
M  V30 17320 H 1644.25 -1.94851 -0.0437957 0
M  V30 17321 H 1643.35 -2.8466 -1.27966 0
M  V30 17322 N 1643.65 0.339955 -1.5389 0
M  V30 17323 C 1644.9 1.07766 -1.7097 0
M  V30 17324 C 1645.22 1.89064 -0.477486 0
M  V30 17325 O 1644.49 1.89183 0.508579 0
M  V30 17326 H 1643.07 0.400849 -0.630341 0
M  V30 17327 H 1645.73 0.380359 -1.91153 0
M  V30 17328 H 1644.82 1.75301 -2.58217 0
M  V30 17329 N 1645.13 1.45684 0.601159 0
M  V30 17330 C 1646.35 1.53806 1.39135 0
M  V30 17331 C 1646.78 0.173625 1.87297 0
M  V30 17332 O 1646.13 -0.842931 1.60513 0
M  V30 17333 C 1646.18 2.53201 2.56752 0
M  V30 17334 O 1645.29 2.05427 3.57594 0
M  V30 17335 H 1644.63 0.51824 0.415118 0
M  V30 17336 H 1647.16 1.91095 0.731006 0
M  V30 17337 H 1647.17 2.72215 3.03912 0
M  V30 17338 H 1645.84 3.52294 2.21047 0
M  V30 17339 H 1644.42 1.96318 3.17039 0
M  V30 17340 N 1646.6 -0.84422 1.33082 0
M  V30 17341 C 1647.51 -1.9858 1.24913 0
M  V30 17342 C 1648.53 -1.73256 0.160708 0
M  V30 17343 O 1649.71 -1.97719 0.383313 0
M  V30 17344 C 1646.77 -3.32471 0.983063 0
M  V30 17345 C 1645.83 -3.70946 2.16096 0
M  V30 17346 C 1645.06 -4.98448 1.90749 0
M  V30 17347 O 1645.29 -5.63953 0.855173 0
M  V30 17348 O 1644.22 -5.34301 2.7714 0
M  V30 17349 H 1648.05 -2.0841 2.20905 0
M  V30 17350 H 1645.63 -0.976447 1.13075 0
M  V30 17351 H 1647.51 -4.12705 0.851612 0
M  V30 17352 H 1646.19 -3.23656 0.053384 0
M  V30 17353 H 1645.1 -2.91244 2.34793 0
M  V30 17354 H 1646.43 -3.8442 3.07379 0
M  V30 17355 N 1648.08 -1.16463 -1.0618 0
M  V30 17356 C 1649.31 -0.97159 -1.83235 0
M  V30 17357 C 1649.73 0.475295 -1.81996 0
M  V30 17358 O 1649.09 1.33964 -1.22161 0
M  V30 17359 C 1649.14 -1.50504 -3.2769 0
M  V30 17360 O 1648.24 -0.712128 -4.06205 0
M  V30 17361 H 1647.58 -0.345676 -0.566925 0
M  V30 17362 H 1650.11 -1.54727 -1.33868 0
M  V30 17363 H 1650.12 -1.52301 -3.78508 0
M  V30 17364 H 1648.8 -2.55832 -3.27907 0
M  V30 17365 H 1647.37 -0.764756 -3.64974 0
M  V30 17366 N 1649.56 1.24734 -0.963288 0
M  V30 17367 C 1650.49 2.27892 -0.508667 0
M  V30 17368 C 1651.47 1.64055 0.449438 0
M  V30 17369 O 1652.66 1.91083 0.346519 0
M  V30 17370 C 1649.79 3.46688 0.206157 0
M  V30 17371 C 1648.74 4.22762 -0.667534 0
M  V30 17372 C 1648.07 5.34402 0.178529 0
M  V30 17373 C 1649.37 4.84535 -1.94995 0
M  V30 17374 H 1651.06 2.66171 -1.37088 0
M  V30 17375 H 1648.61 1.27952 -0.660622 0
M  V30 17376 H 1650.56 4.17985 0.535391 0
M  V30 17377 H 1649.28 3.07422 1.10269 0
M  V30 17378 H 1647.94 3.53259 -0.979976 0
M  V30 17379 H 1647.59 4.91377 1.07508 0
M  V30 17380 H 1647.29 5.86218 -0.402808 0
M  V30 17381 H 1648.81 6.08529 0.502533 0
M  V30 17382 H 1650.23 5.4793 -1.68658 0
M  V30 17383 H 1648.62 5.46564 -2.47765 0
M  V30 17384 H 1649.69 4.06236 -2.64765 0
M  V30 17385 N 1651.04 0.732878 1.39523 0
M  V30 17386 C 1652.28 0.280305 2.00854 0
M  V30 17387 C 1652.62 -1.12891 1.58017 0
M  V30 17388 O 1651.89 -1.76919 0.808086 0
M  V30 17389 C 1652.17 0.37978 3.58092 0
M  V30 17390 C 1652.03 1.82861 4.10953 0
M  V30 17391 C 1653.35 -0.239026 4.3945 0
M  V30 17392 H 1650.47 0.103326 0.729721 0
M  V30 17393 H 1653.11 0.928634 1.6576 0
M  V30 17394 H 1651.26 -0.172198 3.88118 0
M  V30 17395 H 1652.93 2.4373 3.91655 0
M  V30 17396 H 1651.17 2.35064 3.64592 0
M  V30 17397 H 1651.84 1.84949 5.20094 0
M  V30 17398 H 1654.32 0.231488 4.15456 0
M  V30 17399 H 1653.2 -0.139068 5.48724 0
M  V30 17400 H 1653.46 -1.32481 4.21783 0
M  V30 17401 N 1652.52 -1.50101 0.480349 0
M  V30 17402 C 1653.75 -2.06486 -0.0687482 0
M  V30 17403 C 1654.15 -1.34334 -1.33233 0
M  V30 17404 O 1653.5 -0.408976 -1.7909 0
M  V30 17405 C 1653.56 -3.57114 -0.413522 0
M  V30 17406 C 1653.22 -4.50814 0.749361 0
M  V30 17407 C 1654.22 -4.93554 1.63404 0
M  V30 17408 C 1651.9 -4.93382 0.942313 0
M  V30 17409 C 1653.9 -5.77577 2.696 0
M  V30 17410 C 1651.59 -5.77186 2.00748 0
M  V30 17411 C 1652.58 -6.19185 2.88268 0
M  V30 17412 O 1652.27 -7.01317 3.92949 0
M  V30 17413 H 1652 -0.675954 0.00792111 0
M  V30 17414 H 1654.56 -1.94135 0.670863 0
M  V30 17415 H 1652.79 -3.67399 -1.20645 0
M  V30 17416 H 1654.48 -3.95824 -0.89879 0
M  V30 17417 H 1655.24 -4.61329 1.4967 0
M  V30 17418 H 1651.12 -4.60206 0.270534 0
M  V30 17419 H 1654.67 -6.10279 3.37942 0
M  V30 17420 H 1650.56 -6.08824 2.14486 0
M  V30 17421 H 1651.33 -7.19585 3.9005 0
M  V30 17422 N 1653.99 -0.213323 -1.5615 0
M  V30 17423 C 1655.22 0.425688 -2.02473 0
M  V30 17424 C 1655.64 1.53926 -1.09326 0
M  V30 17425 O 1654.99 1.82218 -0.101364 0
M  V30 17426 C 1655.04 0.965021 -3.48381 0
M  V30 17427 O 1654.77 -0.104145 -4.37976 0
M  V30 17428 C 1656.27 1.6781 -4.10311 0
M  V30 17429 H 1653.49 0.105064 -0.662724 0
M  V30 17430 H 1656.03 -0.327369 -2.01863 0
M  V30 17431 H 1654.19 1.66838 -3.49634 0
M  V30 17432 H 1654.6 0.299985 -5.23641 0
M  V30 17433 H 1656.07 2.00757 -5.14199 0
M  V30 17434 H 1656.55 2.58833 -3.54827 0
M  V30 17435 H 1657.16 1.02014 -4.12884 0
M  V30 17436 N 1655.47 1.57485 0.0601405 0
M  V30 17437 C 1656.7 1.92051 0.769681 0
M  V30 17438 C 1657.12 0.810364 1.70524 0
M  V30 17439 O 1656.47 -0.215527 1.81223 0
M  V30 17440 C 1656.52 3.26423 1.55339 0
M  V30 17441 O 1656.24 4.3317 0.655423 0
M  V30 17442 C 1657.75 3.75076 2.36289 0
M  V30 17443 H 1654.97 0.63454 0.218175 0
M  V30 17444 H 1657.51 2.04482 0.0269308 0
M  V30 17445 H 1655.66 3.15483 2.24831 0
M  V30 17446 H 1656.08 5.10548 1.20171 0
M  V30 17447 H 1657.55 4.71695 2.86719 0
M  V30 17448 H 1658.03 3.04677 3.16336 0
M  V30 17449 H 1658.64 3.88998 1.71932 0
M  V30 17450 N 1656.95 -0.331789 1.54068 0
M  V30 17451 C 1657.88 -1.41332 1.8587 0
M  V30 17452 C 1658.86 -1.54353 0.714787 0
M  V30 17453 O 1660.05 -1.68368 0.967777 0
M  V30 17454 C 1657.18 -2.78218 2.07875 0
M  V30 17455 C 1656.13 -2.79994 3.23709 0
M  V30 17456 C 1655.46 -4.19878 3.31069 0
M  V30 17457 C 1656.76 -2.44476 4.6155 0
M  V30 17458 H 1658.45 -1.14966 2.76447 0
M  V30 17459 H 1656 -0.551615 1.33016 0
M  V30 17460 H 1657.95 -3.53937 2.28706 0
M  V30 17461 H 1656.67 -3.06044 1.14038 0
M  V30 17462 H 1655.33 -2.0673 3.02751 0
M  V30 17463 H 1654.98 -4.44831 2.34807 0
M  V30 17464 H 1654.68 -4.21974 4.08915 0
M  V30 17465 H 1656.2 -4.97421 3.54125 0
M  V30 17466 H 1657.62 -3.09908 4.82317 0
M  V30 17467 H 1656.02 -2.57837 5.41886 0
M  V30 17468 H 1657.09 -1.3964 4.64358 0
M  V30 17469 N 1658.43 -1.46001 -0.593424 0
M  V30 17470 C 1659.65 -1.54541 -1.38318 0
M  V30 17471 C 1660.08 -0.183555 -1.87202 0
M  V30 17472 O 1659.44 0.834407 -1.60958 0
M  V30 17473 C 1659.48 -2.54559 -2.55405 0
M  V30 17474 O 1658.59 -2.07321 -3.56499 0
M  V30 17475 H 1657.93 -0.520434 -0.412364 0
M  V30 17476 H 1660.46 -1.9148 -0.720862 0
M  V30 17477 H 1660.47 -2.73823 -3.02465 0
M  V30 17478 H 1659.14 -3.53461 -2.19176 0
M  V30 17479 H 1657.72 -1.97997 -3.15993 0
M  V30 17480 N 1659.91 0.83715 -1.33527 0
M  V30 17481 C 1661.15 1.58937 -1.24834 0
M  V30 17482 C 1661.48 1.94117 0.185368 0
M  V30 17483 O 1660.75 1.61105 1.11453 0
M  V30 17484 H 1659.33 0.589301 -0.459057 0
M  V30 17485 H 1661.99 1.00038 -1.67267 0
M  V30 17486 H 1661.08 2.51855 -1.84325 0
M  V30 17487 N 1661.38 1.17024 1.05561 0
M  V30 17488 C 1662.63 0.954436 1.78143 0
M  V30 17489 C 1662.95 -0.518525 1.8798 0
M  V30 17490 O 1662.22 -1.37654 1.39385 0
M  V30 17491 H 1660.8 0.350141 0.659856 0
M  V30 17492 H 1663.47 1.4743 1.27477 0
M  V30 17493 H 1662.56 1.37955 2.79955 0
M  V30 17494 N 1662.86 -1.24221 0.969889 0
M  V30 17495 C 1664.11 -1.91656 0.628559 0
M  V30 17496 C 1664.42 -1.76627 -0.840371 0
M  V30 17497 O 1665.63 -2.38771 -1.29232 0
M  V30 17498 C 1664.09 -3.43515 1.07357 0
M  V30 17499 C 1663.69 -3.67226 2.56611 0
M  V30 17500 C 1665.44 -4.16788 0.805493 0
M  V30 17501 C 1663.35 -5.12667 2.94834 0
M  V30 17502 H 1662.28 -0.717619 0.231384 0
M  V30 17503 H 1664.93 -1.40831 1.17639 0
M  V30 17504 H 1663.31 -3.93388 0.454037 0
M  V30 17505 H 1664.48 -3.27942 3.23713 0
M  V30 17506 H 1662.8 -3.07243 2.81053 0
M  V30 17507 H 1665.39 -5.23945 1.06705 0
M  V30 17508 H 1665.74 -4.15498 -0.258321 0
M  V30 17509 H 1666.27 -3.7287 1.3861 0
M  V30 17510 H 1663.01 -5.1908 4.00295 0
M  V30 17511 H 1662.53 -5.5294 2.32417 0
M  V30 17512 H 1664.21 -5.80916 2.8486 0
M  V30 17513 N 1664.34 -0.740267 -1.39132 0
M  V30 17514 C 1665.59 -0.289949 -2.00009 0
M  V30 17515 C 1665.91 1.12831 -1.59042 0
M  V30 17516 O 1665.18 1.76926 -0.841076 0
M  V30 17517 H 1663.76 -0.104213 -0.739695 0
M  V30 17518 H 1666.42 -0.951398 -1.70101 0
M  V30 17519 H 1665.52 -0.342509 -3.10215 0
M  V30 17520 N 1665.82 1.49844 -0.488302 0
M  V30 17521 C 1667.07 2.01603 0.0624744 0
M  V30 17522 C 1667.38 1.37397 1.39217 0
M  V30 17523 O 1668.59 1.8041 2.0289 0
M  V30 17524 C 1667.04 3.59536 0.161824 0
M  V30 17525 C 1666.65 4.32709 -1.16047 0
M  V30 17526 C 1668.39 4.1928 0.663642 0
M  V30 17527 C 1666.3 5.82468 -1.02397 0
M  V30 17528 H 1665.23 0.753512 0.0271222 0
M  V30 17529 H 1667.88 1.72499 -0.625805 0
M  V30 17530 H 1666.26 3.85301 0.914273 0
M  V30 17531 H 1667.44 4.18655 -1.92522 0
M  V30 17532 H 1665.75 3.84652 -1.59473 0
M  V30 17533 H 1668.35 5.28935 0.783069 0
M  V30 17534 H 1668.69 3.81801 1.65933 0
M  V30 17535 H 1669.23 3.97787 -0.0319078 0
M  V30 17536 H 1665.97 6.2445 -1.99355 0
M  V30 17537 H 1665.49 5.9905 -0.299902 0
M  V30 17538 H 1667.16 6.43229 -0.697538 0
M  V30 17539 N 1667.3 0.221601 1.56034 0
M  V30 17540 C 1668.23 -0.683171 2.23282 0
M  V30 17541 C 1669.21 -1.20101 1.20456 0
M  V30 17542 O 1670.39 -1.245 1.49041 0
M  V30 17543 C 1667.52 -1.89143 2.91277 0
M  V30 17544 C 1666.48 -1.50742 4.00576 0
M  V30 17545 C 1665.8 -2.79446 4.55867 0
M  V30 17546 C 1667.1 -0.697388 5.17623 0
M  V30 17547 H 1668.8 -0.122488 2.99149 0
M  V30 17548 H 1666.34 -0.0574732 1.43885 0
M  V30 17549 H 1668.3 -2.52982 3.37013 0
M  V30 17550 H 1667.02 -2.47708 2.12858 0
M  V30 17551 H 1665.68 -0.892492 3.5557 0
M  V30 17552 H 1665.33 -3.36155 3.74177 0
M  V30 17553 H 1665.03 -2.54486 5.29633 0
M  V30 17554 H 1666.55 -3.44228 5.04321 0
M  V30 17555 H 1667.96 -1.23948 5.59741 0
M  V30 17556 H 1666.36 -0.544875 5.97621 0
M  V30 17557 H 1667.43 0.295981 4.83996 0
M  V30 17558 N 1668.77 -1.57515 -0.0517878 0
M  V30 17559 C 1670.02 -1.88493 -0.748206 0
M  V30 17560 C 1670.35 -0.816494 -1.76202 0
M  V30 17561 O 1669.63 0.171075 -1.93746 0
M  V30 17562 C 1669.91 -3.30131 -1.43825 0
M  V30 17563 C 1669.76 -4.47648 -0.4395 0
M  V30 17564 C 1671.08 -3.70315 -2.37813 0
M  V30 17565 H 1668.2 -0.68555 -0.270537 0
M  V30 17566 H 1670.84 -1.89997 -0.0111457 0
M  V30 17567 H 1668.99 -3.2898 -2.06651 0
M  V30 17568 H 1670.67 -4.60929 0.185088 0
M  V30 17569 H 1668.91 -4.33117 0.243381 0
M  V30 17570 H 1669.58 -5.43582 -0.96035 0
M  V30 17571 H 1672.06 -3.72687 -1.8505 0
M  V30 17572 H 1670.93 -4.70269 -2.83087 0
M  V30 17573 H 1671.19 -3.0133 -3.23501 0
M  V30 17574 N 1670.25 0.323614 -1.54242 0
M  V30 17575 C 1671.66 0.898051 -1.63682 0
M  V30 17576 C 1672.02 1.88882 -0.530861 0
M  V30 17577 O 1671.14 2.13772 0.336245 0
M  V30 17578 C 1671.74 1.63561 -2.96704 0
M  V30 17579 C 1670.29 2.15877 -3.08341 0
M  V30 17580 C 1669.44 0.984145 -2.59249 0
M  V30 17581 H 1672.39 0.101198 -1.58377 0
M  V30 17582 H 1672.41 2.49982 -2.86861 0
M  V30 17583 H 1671.93 0.914265 -3.77177 0
M  V30 17584 H 1670.03 2.91127 -2.32542 0
M  V30 17585 H 1670.14 2.40881 -4.14141 0
M  V30 17586 H 1668.5 1.3633 -2.15143 0
M  V30 17587 H 1669.29 0.277118 -3.4218 0
M  V30 17588 N 1671.73 1.46313 0.585673 0
M  V30 17589 C 1672.98 1.5147 1.34399 0
M  V30 17590 C 1673.31 0.165209 1.93797 0
M  V30 17591 O 1672.56 -0.838796 1.76813 0
M  V30 17592 C 1672.86 2.55895 2.49504 0
M  V30 17593 C 1672.53 3.99997 2.08118 0
M  V30 17594 C 1671.19 4.3923 1.96545 0
M  V30 17595 C 1673.54 4.90532 1.76147 0
M  V30 17596 C 1670.87 5.66867 1.51256 0
M  V30 17597 C 1673.22 6.18603 1.32338 0
M  V30 17598 C 1671.88 6.56745 1.1934 0
M  V30 17599 H 1671.15 0.554268 0.491801 0
M  V30 17600 H 1673.8 1.79774 0.659803 0
M  V30 17601 H 1672.11 2.21241 3.23357 0
M  V30 17602 H 1673.8 2.57116 3.07722 0
M  V30 17603 H 1670.39 3.68983 2.18058 0
M  V30 17604 H 1674.58 4.60942 1.83974 0
M  V30 17605 H 1669.83 5.95194 1.39834 0
M  V30 17606 H 1674.01 6.88185 1.06653 0
M  V30 17607 H 1671.63 7.55542 0.840228 0
M  V30 17608 N 1673.21 -0.830057 1.33969 0
M  V30 17609 C 1674.44 -1.61774 1.28984 0
M  V30 17610 C 1674.85 -1.88299 -0.137515 0
M  V30 17611 O 1674.21 -1.46936 -1.0824 0
M  V30 17612 C 1674.26 -2.96282 2.07121 0
M  V30 17613 O 1673.98 -2.70918 3.44289 0
M  V30 17614 C 1675.48 -3.90699 2.09449 0
M  V30 17615 H 1672.7 -0.503088 0.444008 0
M  V30 17616 H 1675.25 -1.03328 1.76475 0
M  V30 17617 H 1673.4 -3.51305 1.63289 0
M  V30 17618 H 1673.82 -3.56635 3.84593 0
M  V30 17619 H 1675.29 -4.82266 2.68558 0
M  V30 17620 H 1675.77 -4.25536 1.08702 0
M  V30 17621 H 1676.37 -3.41614 2.53338 0
M  V30 17622 N 1674.69 -1.17582 -1.04939 0
M  V30 17623 C 1675.91 -0.99097 -1.82194 0
M  V30 17624 C 1676.34 0.455965 -1.8249 0
M  V30 17625 O 1675.7 1.32661 -1.23575 0
M  V30 17626 C 1675.74 -1.53971 -3.26076 0
M  V30 17627 O 1674.85 -0.755172 -4.05427 0
M  V30 17628 H 1674.19 -0.351669 -0.563227 0
M  V30 17629 H 1676.72 -1.56138 -1.3222 0
M  V30 17630 H 1676.73 -1.56307 -3.76872 0
M  V30 17631 H 1675.4 -2.59295 -3.25175 0
M  V30 17632 H 1673.98 -0.803423 -3.64142 0
M  V30 17633 N 1676.17 1.23705 -0.976463 0
M  V30 17634 C 1677.12 2.22789 -0.484676 0
M  V30 17635 C 1678.1 1.5482 0.43814 0
M  V30 17636 O 1679.29 1.74965 0.267635 0
M  V30 17637 C 1676.42 3.42624 0.21541 0
M  V30 17638 C 1675.51 4.17827 -0.726745 0
M  V30 17639 N 1675.9 4.70053 -1.86771 0
M  V30 17640 C 1674.2 4.42728 -0.539282 0
M  V30 17641 C 1674.9 5.27229 -2.45773 0
M  V30 17642 N 1673.87 5.14932 -1.742 0
M  V30 17643 H 1677.67 2.60795 -1.35511 0
M  V30 17644 H 1675.19 1.39191 -0.836644 0
M  V30 17645 H 1677.19 4.12775 0.585009 0
M  V30 17646 H 1675.85 3.06135 1.08218 0
M  V30 17647 H 1676.86 4.66519 -2.24901 0
M  V30 17648 H 1673.53 4.16541 0.282799 0
M  V30 17649 H 1674.92 5.78284 -3.42106 0
M  V30 17650 N 1677.64 0.747635 1.38738 0
M  V30 17651 C 1678.55 0.117879 2.34304 0
M  V30 17652 C 1679.57 -0.707488 1.58967 0
M  V30 17653 O 1680.75 -0.633025 1.91193 0
M  V30 17654 C 1677.81 -0.769223 3.38059 0
M  V30 17655 C 1676.87 0.0698358 4.29243 0
M  V30 17656 C 1676.1 -0.775021 5.28043 0
M  V30 17657 O 1676.33 -2.01328 5.33688 0
M  V30 17658 O 1675.26 -0.196978 6.01578 0
M  V30 17659 H 1679.09 0.906972 2.89841 0
M  V30 17660 H 1676.67 0.508453 1.40482 0
M  V30 17661 H 1678.55 -1.27641 4.01604 0
M  V30 17662 H 1677.23 -1.53691 2.84887 0
M  V30 17663 H 1676.14 0.622836 3.68879 0
M  V30 17664 H 1677.47 0.80004 4.85654 0
M  V30 17665 N 1679.12 -1.49583 0.496242 0
M  V30 17666 C 1680.4 -1.95275 -0.112751 0
M  V30 17667 C 1680.78 -1.43758 -1.54586 0
M  V30 17668 O 1680.13 -0.649285 -2.19081 0
M  V30 17669 C 1680.34 -3.48987 -0.0302774 0
M  V30 17670 C 1681.68 -4.24097 -0.206595 0
M  V30 17671 O 1682.71 -3.56043 -0.105689 0
M  V30 17672 O 1681.57 -5.44936 -0.413172 0
M  V30 17673 H 1678.66 -0.821183 -0.0979145 0
M  V30 17674 H 1681.21 -1.60248 0.558441 0
M  V30 17675 H 1679.98 -3.79104 0.969322 0
M  V30 17676 H 1679.6 -3.90618 -0.741825 0
M  V30 17677 N 1680.6 -0.229873 -1.55915 0
M  V30 17678 C 1681.55 0.690362 -2.17297 0
M  V30 17679 C 1682.53 1.15155 -1.12375 0
M  V30 17680 O 1683.73 1.10416 -1.38338 0
M  V30 17681 C 1680.85 1.89461 -2.86286 0
M  V30 17682 C 1679.94 1.45271 -3.98443 0
M  V30 17683 N 1680.33 0.723932 -5.00593 0
M  V30 17684 C 1678.63 1.73935 -4.10686 0
M  V30 17685 C 1679.33 0.497439 -5.79569 0
M  V30 17686 N 1678.31 1.05662 -5.33232 0
M  V30 17687 H 1682.11 0.12522 -2.93633 0
M  V30 17688 H 1679.62 -0.0314724 -1.6237 0
M  V30 17689 H 1681.62 2.5647 -3.28677 0
M  V30 17690 H 1680.28 2.46414 -2.11448 0
M  V30 17691 H 1681.29 0.375765 -5.16535 0
M  V30 17692 H 1677.97 2.32149 -3.47006 0
M  V30 17693 H 1679.36 -0.0831841 -6.71849 0
M  V30 17694 N 1682.08 1.5754 0.0434337 0
M  V30 17695 C 1683.35 1.79733 0.771713 0
M  V30 17696 C 1683.73 0.82446 1.94334 0
M  V30 17697 O 1683.08 -0.136485 2.28092 0
M  V30 17698 C 1683.29 3.27049 1.2182 0
M  V30 17699 C 1684.64 3.91648 1.64002 0
M  V30 17700 O 1685.66 3.31111 1.31315 0
M  V30 17701 O 1684.52 4.98206 2.24618 0
M  V30 17702 H 1681.62 0.73861 0.372001 0
M  V30 17703 H 1684.16 1.69687 0.0213187 0
M  V30 17704 H 1682.94 3.89439 0.381158 0
M  V30 17705 H 1682.56 3.41929 2.02905 0
M  V30 17706 N 1683.56 -0.31543 1.54411 0
M  V30 17707 C 1684.8 -1.0524 1.73005 0
M  V30 17708 C 1685.13 -1.87747 0.50808 0
M  V30 17709 O 1684.39 -1.88935 -0.51012 0
M  V30 17710 C 1684.68 -1.99884 2.96279 0
M  V30 17711 C 1684.35 -1.33468 4.30694 0
M  V30 17712 C 1683.01 -1.15087 4.67235 0
M  V30 17713 C 1685.36 -0.858688 5.14078 0
M  V30 17714 C 1682.69 -0.47767 5.84752 0
M  V30 17715 C 1685.04 -0.199278 6.32286 0
M  V30 17716 C 1683.71 -0.00338158 6.675 0
M  V30 17717 H 1682.98 -0.385102 0.63307 0
M  V30 17718 H 1685.63 -0.328714 1.88658 0
M  V30 17719 H 1683.93 -2.78732 2.75347 0
M  V30 17720 H 1685.63 -2.56951 3.07859 0
M  V30 17721 H 1682.22 -1.48779 4.01949 0
M  V30 17722 H 1686.4 -0.98846 4.86357 0
M  V30 17723 H 1681.66 -0.314772 6.10589 0
M  V30 17724 H 1685.83 0.177517 6.96174 0
M  V30 17725 H 1683.46 0.52028 7.58418 0
M  V30 17726 N 1685.03 -1.46622 -0.577906 0
M  V30 17727 C 1686.28 -1.52181 -1.33594 0
M  V30 17728 C 1686.61 -0.175484 -1.93707 0
M  V30 17729 O 1685.86 0.829407 -1.77255 0
M  V30 17730 C 1686.16 -2.57215 -2.48144 0
M  V30 17731 C 1685.83 -4.01095 -2.05993 0
M  V30 17732 C 1684.49 -4.40267 -1.94213 0
M  V30 17733 C 1686.84 -4.91459 -1.73543 0
M  V30 17734 C 1684.17 -5.67661 -1.48248 0
M  V30 17735 C 1686.52 -6.19296 -1.29055 0
M  V30 17736 C 1685.19 -6.57369 -1.15856 0
M  V30 17737 H 1684.46 -0.556868 -0.488855 0
M  V30 17738 H 1687.1 -1.80122 -0.65026 0
M  V30 17739 H 1685.41 -2.22952 -3.22179 0
M  V30 17740 H 1687.11 -2.58744 -3.06354 0
M  V30 17741 H 1683.7 -3.70134 -2.16098 0
M  V30 17742 H 1687.88 -4.61911 -1.81527 0
M  V30 17743 H 1683.14 -5.95928 -1.36676 0
M  V30 17744 H 1687.31 -6.88741 -1.03001 0
M  V30 17745 H 1684.94 -7.55977 -0.800148 0
M  V30 17746 N 1686.51 0.822941 -1.34408 0
M  V30 17747 C 1687.44 1.94142 -1.21826 0
M  V30 17748 C 1688.46 1.6215 -0.145353 0
M  V30 17749 O 1689.65 1.74025 -0.397205 0
M  V30 17750 C 1686.75 3.28077 -0.849619 0
M  V30 17751 C 1685.92 3.88092 -2.0175 0
M  V30 17752 C 1684.98 5.00406 -1.62726 0
M  V30 17753 O 1684 5.18703 -2.34383 0
M  V30 17754 N 1685.21 5.7797 -0.541413 0
M  V30 17755 H 1687.97 2.05467 -2.18182 0
M  V30 17756 H 1685.53 0.999521 -1.27362 0
M  V30 17757 H 1687.52 4.00661 -0.57035 0
M  V30 17758 H 1686.09 3.12591 0.0237499 0
M  V30 17759 H 1685.31 3.07902 -2.46151 0
M  V30 17760 H 1686.6 4.24921 -2.79856 0
M  V30 17761 H 1686 5.65674 0.0542929 0
M  V30 17762 H 1684.56 6.51005 -0.321874 0
M  V30 17763 N 1687.99 1.18137 1.04314 0
M  V30 17764 C 1688.94 0.874118 2.10578 0
M  V30 17765 C 1689.92 -0.155094 1.60151 0
M  V30 17766 O 1691.12 0.0485958 1.76933 0
M  V30 17767 C 1688.25 0.3989 3.40975 0
M  V30 17768 C 1687.33 1.46004 3.98175 0
M  V30 17769 N 1687.72 2.67584 4.29223 0
M  V30 17770 C 1686.02 1.31997 4.2602 0
M  V30 17771 C 1686.72 3.35835 4.74963 0
M  V30 17772 N 1685.7 2.63216 4.75624 0
M  V30 17773 H 1689.5 1.79837 2.32456 0
M  V30 17774 H 1687.01 1.0714 1.22044 0
M  V30 17775 H 1689.01 0.160295 4.16592 0
M  V30 17776 H 1687.67 -0.519041 3.20525 0
M  V30 17777 H 1688.68 3.04473 4.18947 0
M  V30 17778 H 1685.36 0.464377 4.14909 0
M  V30 17779 H 1686.75 4.39727 5.08026 0
M  V30 17780 N 1689.47 -1.23186 0.98301 0
M  V30 17781 C 1690.71 -1.91955 0.65431 0
M  V30 17782 C 1691.05 -1.76482 -0.810419 0
M  V30 17783 O 1690.32 -1.12744 -1.5849 0
M  V30 17784 C 1690.61 -3.4449 1.04873 0
M  V30 17785 C 1690.46 -3.6906 2.57128 0
M  V30 17786 C 1691.78 -4.36065 0.594578 0
M  V30 17787 H 1688.9 -0.69711 0.239179 0
M  V30 17788 H 1691.54 -1.45257 1.22476 0
M  V30 17789 H 1689.69 -3.84394 0.563333 0
M  V30 17790 H 1691.36 -3.38622 3.13262 0
M  V30 17791 H 1689.6 -3.13681 2.99644 0
M  V30 17792 H 1690.27 -4.75846 2.79776 0
M  V30 17793 H 1692.75 -4.03622 1.01136 0
M  V30 17794 H 1691.63 -5.41489 0.898955 0
M  V30 17795 H 1691.89 -4.39206 -0.505033 0
M  V30 17796 N 1690.95 -0.754982 -1.38339 0
M  V30 17797 C 1691.86 -0.130303 -2.34238 0
M  V30 17798 C 1692.87 0.699048 -1.5934 0
M  V30 17799 O 1694.05 0.622876 -1.91526 0
M  V30 17800 C 1691.11 0.751285 -3.38462 0
M  V30 17801 C 1690.17 -0.0925987 -4.292 0
M  V30 17802 C 1689.41 0.747007 -5.28446 0
M  V30 17803 O 1689.63 1.98495 -5.34749 0
M  V30 17804 O 1688.56 0.165072 -6.01674 0
M  V30 17805 H 1692.39 -0.92233 -2.89356 0
M  V30 17806 H 1689.98 -0.515896 -1.4021 0
M  V30 17807 H 1691.86 1.2551 -4.02275 0
M  V30 17808 H 1690.53 1.52178 -2.85698 0
M  V30 17809 H 1689.44 -0.64239 -3.68543 0
M  V30 17810 H 1690.77 -0.825784 -4.85223 0
M  V30 17811 N 1692.42 1.49318 -0.504168 0
M  V30 17812 C 1693.36 2.25955 0.319279 0
M  V30 17813 C 1694.34 1.30675 0.967609 0
M  V30 17814 O 1695.52 1.5997 0.997086 0
M  V30 17815 C 1692.65 3.06096 1.44992 0
M  V30 17816 C 1691.69 4.16555 0.915644 0
M  V30 17817 S 1692.53 5.35141 -0.196097 0
M  V30 17818 C 1693.68 6.18837 0.937637 0
M  V30 17819 H 1693.91 2.9545 -0.33118 0
M  V30 17820 H 1691.45 1.51661 -0.289517 0
M  V30 17821 H 1693.41 3.52853 2.09774 0
M  V30 17822 H 1692.07 2.36065 2.07201 0
M  V30 17823 H 1691.26 4.72157 1.76306 0
M  V30 17824 H 1690.86 3.72406 0.344981 0
M  V30 17825 H 1693.15 6.51975 1.84216 0
M  V30 17826 H 1694.1 7.06852 0.420168 0
M  V30 17827 H 1694.5 5.51458 1.2064 0
M  V30 17828 N 1693.9 0.238138 1.5579 0
M  V30 17829 C 1694.85 -0.678829 2.1766 0
M  V30 17830 C 1695.84 -1.14558 1.12984 0
M  V30 17831 O 1697.03 -1.09681 1.38921 0
M  V30 17832 C 1694.16 -1.8794 2.87286 0
M  V30 17833 C 1693.24 -1.43156 3.99208 0
M  V30 17834 N 1693.63 -0.697374 5.00969 0
M  V30 17835 C 1691.93 -1.71755 4.11602 0
M  V30 17836 C 1692.63 -0.466696 5.79825 0
M  V30 17837 N 1691.61 -1.02832 5.33785 0
M  V30 17838 H 1695.41 -0.109646 2.93695 0
M  V30 17839 H 1692.93 0.0400828 1.62351 0
M  V30 17840 H 1694.92 -2.54724 3.30033 0
M  V30 17841 H 1693.58 -2.45289 2.12752 0
M  V30 17842 H 1694.59 -0.348366 5.16727 0
M  V30 17843 H 1691.27 -2.30305 3.48232 0
M  V30 17844 H 1692.66 0.118813 6.71795 0
M  V30 17845 N 1695.38 -1.57561 -0.0350783 0
M  V30 17846 C 1696.31 -2.09201 -1.03716 0
M  V30 17847 C 1697.29 -0.993231 -1.3809 0
M  V30 17848 O 1698.48 -1.26812 -1.47079 0
M  V30 17849 C 1695.61 -2.56643 -2.3399 0
M  V30 17850 C 1694.56 -3.70731 -2.13874 0
M  V30 17851 C 1693.89 -4.04358 -3.49855 0
M  V30 17852 C 1695.19 -4.99393 -1.52982 0
M  V30 17853 H 1696.88 -2.93176 -0.60731 0
M  V30 17854 H 1694.43 -1.41036 -0.290683 0
M  V30 17855 H 1696.38 -2.9139 -3.04417 0
M  V30 17856 H 1695.1 -1.69744 -2.79024 0
M  V30 17857 H 1693.76 -3.36325 -1.45881 0
M  V30 17858 H 1693.41 -3.14534 -3.92527 0
M  V30 17859 H 1693.11 -4.81201 -3.37223 0
M  V30 17860 H 1694.63 -4.41633 -4.21654 0
M  V30 17861 H 1696.05 -5.32135 -2.13319 0
M  V30 17862 H 1694.45 -5.80807 -1.50943 0
M  V30 17863 H 1695.52 -4.82367 -0.494993 0
M  V30 17864 N 1696.86 0.307236 -1.54576 0
M  V30 17865 C 1698.27 0.652539 -1.45651 0
M  V30 17866 C 1698.47 1.90978 -0.64263 0
M  V30 17867 O 1697.53 2.52067 -0.147863 0
M  V30 17868 C 1698.84 0.811341 -2.89547 0
M  V30 17869 C 1700.39 0.90763 -2.99551 0
M  V30 17870 C 1700.87 1.09848 -4.44632 0
M  V30 17871 N 1702.36 1.16483 -4.48315 0
M  V30 17872 C 1703.09 1.33068 -5.57746 0
M  V30 17873 N 1702.59 1.46591 -6.77114 0
M  V30 17874 N 1704.38 1.35906 -5.45423 0
M  V30 17875 H 1696.53 -0.518891 -2.05964 0
M  V30 17876 H 1698.8 -0.170463 -0.932548 0
M  V30 17877 H 1698.5 -0.0414879 -3.51676 0
M  V30 17878 H 1698.38 1.70224 -3.36606 0
M  V30 17879 H 1700.76 1.75095 -2.37541 0
M  V30 17880 H 1700.84 -0.00715386 -2.55799 0
M  V30 17881 H 1700.49 0.259948 -5.07234 0
M  V30 17882 H 1700.42 2.02739 -4.86009 0
M  V30 17883 H 1702.91 1.07411 -3.62314 0
M  V30 17884 H 1703.22 1.58983 -7.5627 0
M  V30 17885 H 1701.57 1.43658 -6.79991 0
M  V30 17886 H 1704.76 1.24949 -4.51116 0
M  V30 17887 H 1704.93 1.48489 -6.30758 0
M  V30 17888 N 1698.34 1.46926 0.570122 0
M  V30 17889 C 1699.56 1.56722 1.35841 0
M  V30 17890 C 1699.99 0.213314 1.86887 0
M  V30 17891 O 1699.34 -0.808694 1.62265 0
M  V30 17892 C 1699.39 2.5859 2.51323 0
M  V30 17893 O 1698.5 2.12966 3.53156 0
M  V30 17894 H 1697.84 0.526929 0.404032 0
M  V30 17895 H 1700.37 1.92603 0.690308 0
M  V30 17896 H 1700.38 2.78601 2.9807 0
M  V30 17897 H 1699.05 3.56903 2.13525 0
M  V30 17898 H 1697.63 2.02999 3.12803 0
M  V30 17899 N 1699.82 -0.815801 1.34842 0
M  V30 17900 C 1700.73 -1.95886 1.29097 0
M  V30 17901 C 1701.74 -1.72876 0.197422 0
M  V30 17902 O 1702.92 -1.96861 0.425166 0
M  V30 17903 C 1699.98 -3.30311 1.05336 0
M  V30 17904 C 1699.04 -3.66279 2.23916 0
M  V30 17905 C 1698.28 -4.9429 2.01279 0
M  V30 17906 O 1698.5 -5.62012 0.974603 0
M  V30 17907 O 1697.43 -5.28302 2.88411 0
M  V30 17908 H 1701.26 -2.03678 2.25276 0
M  V30 17909 H 1698.84 -0.952243 1.1512 0
M  V30 17910 H 1700.73 -4.10806 0.938961 0
M  V30 17911 H 1699.4 -3.2347 0.122024 0
M  V30 17912 H 1698.31 -2.86198 2.40918 0
M  V30 17913 H 1699.64 -3.77814 3.15464 0
M  V30 17914 N 1701.29 -1.18689 -1.03686 0
M  V30 17915 C 1702.24 -0.885273 -2.10112 0
M  V30 17916 C 1703.23 0.146598 -1.60231 0
M  V30 17917 O 1704.42 -0.0579783 -1.76905 0
M  V30 17918 C 1701.55 -0.416977 -3.40758 0
M  V30 17919 C 1700.63 -1.48114 -3.97396 0
M  V30 17920 N 1701.03 -2.69857 -4.27798 0
M  V30 17921 C 1699.32 -1.34255 -4.25314 0
M  V30 17922 C 1700.02 -3.38349 -4.73175 0
M  V30 17923 N 1699 -2.65735 -4.74222 0
M  V30 17924 H 1702.8 -1.81067 -2.31499 0
M  V30 17925 H 1700.32 -1.07786 -1.21474 0
M  V30 17926 H 1702.31 -0.182385 -4.16501 0
M  V30 17927 H 1700.97 0.502036 -3.20795 0
M  V30 17928 H 1701.98 -3.0669 -4.17327 0
M  V30 17929 H 1698.66 -0.486374 -4.14657 0
M  V30 17930 H 1700.05 -4.42415 -5.05686 0
M  V30 17931 N 1702.77 1.22662 -0.989529 0
M  V30 17932 C 1704.18 1.73116 -0.699124 0
M  V30 17933 C 1704.53 1.79847 0.784197 0
M  V30 17934 O 1703.66 1.44248 1.61311 0
M  V30 17935 C 1704.25 3.14403 -1.2624 0
M  V30 17936 C 1702.81 3.62275 -1.02144 0
M  V30 17937 C 1701.96 2.40257 -1.38463 0
M  V30 17938 H 1704.91 1.08057 -1.1623 0
M  V30 17939 H 1704.93 3.75091 -0.639307 0
M  V30 17940 H 1704.44 3.09472 -2.34198 0
M  V30 17941 H 1702.54 3.72577 0.0416622 0
M  V30 17942 H 1702.66 4.48587 -1.68245 0
M  V30 17943 H 1701.02 2.41705 -0.803179 0
M  V30 17944 H 1701.8 2.3799 -2.47418 0
M  V30 17945 N 1704.25 0.762308 1.37937 0
M  V30 17946 C 1705.66 0.388966 1.82603 0
M  V30 17947 C 1706.01 -1.08362 1.63561 0
M  V30 17948 O 1705.14 -1.83842 1.14154 0
M  V30 17949 C 1705.73 0.699218 3.31506 0
M  V30 17950 C 1704.29 0.379048 3.74487 0
M  V30 17951 C 1703.44 0.947924 2.60595 0
M  V30 17952 H 1706.39 0.957743 1.26542 0
M  V30 17953 H 1706.41 -0.019502 3.80495 0
M  V30 17954 H 1705.92 1.77105 3.45334 0
M  V30 17955 H 1704.02 -0.685844 3.66233 0
M  V30 17956 H 1704.14 0.880697 4.70936 0
M  V30 17957 H 1702.5 0.372746 2.51958 0
M  V30 17958 H 1703.28 2.02496 2.77219 0
M  V30 17959 N 1705.73 -1.49049 0.51208 0
M  V30 17960 C 1706.66 -2.32163 -0.249529 0
M  V30 17961 C 1707.64 -1.40957 -0.952114 0
M  V30 17962 O 1708.82 -1.69858 -0.94137 0
M  V30 17963 C 1705.95 -3.21737 -1.30776 0
M  V30 17964 C 1704.91 -4.21825 -0.724392 0
M  V30 17965 C 1704.23 -5.00411 -1.88396 0
M  V30 17966 C 1705.53 -5.21483 0.291975 0
M  V30 17967 H 1707.23 -2.96086 0.444253 0
M  V30 17968 H 1704.77 -1.42385 0.215093 0
M  V30 17969 H 1706.73 -3.78699 -1.84837 0
M  V30 17970 H 1705.45 -2.55779 -2.03088 0
M  V30 17971 H 1704.11 -3.66024 -0.205441 0
M  V30 17972 H 1703.76 -4.30891 -2.59502 0
M  V30 17973 H 1703.46 -5.68141 -1.49964 0
M  V30 17974 H 1704.98 -5.6022 -2.42869 0
M  V30 17975 H 1706.4 -5.73074 -0.160899 0
M  V30 17976 H 1704.79 -5.97166 0.592717 0
M  V30 17977 H 1705.86 -4.69714 1.20404 0
M  V30 17978 N 1707.21 -0.246397 -1.55662 0
M  V30 17979 C 1708.45 0.38003 -2.00836 0
M  V30 17980 C 1708.81 1.55166 -1.13082 0
M  V30 17981 O 1710.01 2.24578 -1.4771 0
M  V30 17982 C 1708.28 0.779997 -3.48785 0
M  V30 17983 S 1709.84 1.39702 -4.15967 0
M  V30 17984 H 1706.66 0.119597 -0.700869 0
M  V30 17985 H 1709.26 -0.361512 -1.92128 0
M  V30 17986 H 1707.96 -0.0820223 -4.10318 0
M  V30 17987 H 1707.5 1.55373 -3.61418 0
M  V30 17988 H 1709.51 2.68606 -4.17211 0
M  V30 17989 N 1708.68 1.57577 0.026722 0
M  V30 17990 C 1709.93 1.89005 0.715645 0
M  V30 17991 C 1710.25 0.844388 1.7577 0
M  V30 17992 O 1709.52 -0.121693 1.95522 0
M  V30 17993 H 1708.1 0.697535 0.267308 0
M  V30 17994 H 1710.76 1.94898 -0.00788096 0
M  V30 17995 H 1709.86 2.87952 1.20374 0
M  V30 17996 N 1710.16 -0.299034 1.54737 0
M  V30 17997 C 1711.58 -0.644805 1.45995 0
M  V30 17998 C 1711.78 -1.90634 0.652749 0
M  V30 17999 O 1710.83 -2.51985 0.161228 0
M  V30 18000 C 1712.15 -0.795974 2.89974 0
M  V30 18001 C 1713.69 -0.891731 3.00029 0
M  V30 18002 C 1714.17 -1.07488 4.45208 0
M  V30 18003 N 1715.66 -1.14104 4.48926 0
M  V30 18004 C 1716.4 -1.30108 5.58444 0
M  V30 18005 N 1715.89 -1.42998 6.77882 0
M  V30 18006 N 1717.68 -1.33012 5.46136 0
M  V30 18007 H 1709.84 0.529806 2.05686 0
M  V30 18008 H 1712.1 0.175406 0.931631 0
M  V30 18009 H 1711.8 0.0601375 3.51649 0
M  V30 18010 H 1711.68 -1.68437 3.37504 0
M  V30 18011 H 1714.07 -1.73833 2.38466 0
M  V30 18012 H 1714.15 0.0207194 2.55792 0
M  V30 18013 H 1713.79 -0.233045 5.07365 0
M  V30 18014 H 1713.72 -2.00159 4.87077 0
M  V30 18015 H 1716.21 -1.05488 3.62878 0
M  V30 18016 H 1716.52 -1.5497 7.57102 0
M  V30 18017 H 1714.87 -1.4005 6.80743 0
M  V30 18018 H 1718.06 -1.22555 4.51772 0
M  V30 18019 H 1718.23 -1.45141 6.31536 0
M  V30 18020 N 1711.64 -1.47227 -0.562322 0
M  V30 18021 C 1712.92 -1.44069 -1.32301 0
M  V30 18022 C 1713.3 -0.134912 -2.10668 0
M  V30 18023 O 1712.64 0.883603 -2.10724 0
M  V30 18024 C 1712.85 -2.68309 -2.23184 0
M  V30 18025 C 1714.2 -3.1531 -2.84367 0
M  V30 18026 O 1715.23 -2.69001 -2.33489 0
M  V30 18027 O 1714.09 -3.95805 -3.7683 0
M  V30 18028 H 1711.18 -0.573892 -0.595464 0
M  V30 18029 H 1713.73 -1.59421 -0.581648 0
M  V30 18030 H 1712.5 -3.54884 -1.64842 0
M  V30 18031 H 1712.12 -2.55518 -3.04625 0
M  V30 18032 N 1713.12 0.808639 -1.35273 0
M  V30 18033 C 1714.07 1.90962 -1.24569 0
M  V30 18034 C 1715.05 1.60277 -0.141424 0
M  V30 18035 O 1716.24 1.73037 -0.372451 0
M  V30 18036 C 1713.37 3.27864 -1.01783 0
M  V30 18037 C 1712.46 3.64622 -2.16592 0
M  V30 18038 N 1712.85 3.72831 -3.41805 0
M  V30 18039 C 1711.15 3.94563 -2.07932 0
M  V30 18040 C 1711.85 4.05271 -4.1729 0
M  V30 18041 N 1710.82 4.19246 -3.46025 0
M  V30 18042 H 1714.63 1.95508 -2.1944 0
M  V30 18043 H 1712.14 1.00311 -1.27716 0
M  V30 18044 H 1714.14 4.06576 -0.922037 0
M  V30 18045 H 1712.8 3.24606 -0.0779494 0
M  V30 18046 H 1713.81 3.55961 -3.76181 0
M  V30 18047 H 1710.49 3.99342 -1.21787 0
M  V30 18048 H 1711.88 4.18707 -5.25485 0
M  V30 18049 N 1714.6 1.19237 1.03055 0
M  V30 18050 C 1715.53 0.95226 2.132 0
M  V30 18051 C 1716.51 -0.113771 1.69719 0
M  V30 18052 O 1717.69 0.0409057 1.94157 0
M  V30 18053 C 1714.82 0.488296 3.4385 0
M  V30 18054 C 1713.78 1.49597 4.01005 0
M  V30 18055 C 1713.1 0.889148 5.27255 0
M  V30 18056 C 1714.4 2.87571 4.36005 0
M  V30 18057 H 1716.1 1.87343 2.33544 0
M  V30 18058 H 1713.64 0.902172 1.12236 0
M  V30 18059 H 1715.6 0.307623 4.20276 0
M  V30 18060 H 1714.32 -0.468469 3.23223 0
M  V30 18061 H 1712.98 1.66376 3.26672 0
M  V30 18062 H 1712.63 -0.0751191 5.02944 0
M  V30 18063 H 1712.33 1.56202 5.66458 0
M  V30 18064 H 1713.85 0.719233 6.06349 0
M  V30 18065 H 1715.26 2.74384 5.03375 0
M  V30 18066 H 1713.66 3.51635 4.86285 0
M  V30 18067 H 1714.73 3.40353 3.45381 0
M  V30 18068 N 1716.07 -1.22136 0.99602 0
M  V30 18069 C 1717.3 -1.95519 0.69189 0
M  V30 18070 C 1717.72 -1.7304 -0.73748 0
M  V30 18071 O 1717.08 -1.01157 -1.50456 0
M  V30 18072 C 1717.13 -3.46244 1.00735 0
M  V30 18073 O 1716.23 -4.12259 0.107713 0
M  V30 18074 H 1715.58 -0.611553 0.258648 0
M  V30 18075 H 1718.11 -1.55145 1.33384 0
M  V30 18076 H 1718.12 -3.96774 0.950482 0
M  V30 18077 H 1716.79 -3.6193 2.04889 0
M  V30 18078 H 1715.37 -3.72248 0.220336 0
M  V30 18079 N 1717.55 -0.769612 -1.37531 0
M  V30 18080 C 1718.8 -0.332966 -1.99744 0
M  V30 18081 C 1719.13 1.0899 -1.61094 0
M  V30 18082 O 1718.38 1.7639 -0.847656 0
M  V30 18083 C 1718.68 -0.421385 -3.54907 0
M  V30 18084 C 1718.35 -1.8022 -4.13318 0
M  V30 18085 C 1717.01 -2.18005 -4.28984 0
M  V30 18086 C 1719.36 -2.70724 -4.45374 0
M  V30 18087 C 1716.69 -3.45736 -4.74008 0
M  V30 18088 C 1719.04 -3.97862 -4.91822 0
M  V30 18089 C 1717.71 -4.35695 -5.05694 0
M  V30 18090 H 1716.98 -0.121841 -0.730914 0
M  V30 18091 H 1719.62 -0.98322 -1.64332 0
M  V30 18092 H 1717.93 0.312411 -3.90552 0
M  V30 18093 H 1719.62 -0.0648705 -4.00948 0
M  V30 18094 H 1716.21 -1.49852 -4.0155 0
M  V30 18095 H 1720.4 -2.42792 -4.32857 0
M  V30 18096 H 1715.65 -3.74946 -4.82935 0
M  V30 18097 H 1719.83 -4.68121 -5.15593 0
M  V30 18098 H 1717.46 -5.34729 -5.40341 0
M  V30 18099 N 1719.03 1.48775 -0.519977 0
M  V30 18100 C 1720.45 1.58614 -0.177164 0
M  V30 18101 C 1720.65 1.52314 1.31919 0
M  V30 18102 O 1719.7 1.40697 2.09668 0
M  V30 18103 C 1721.02 2.90653 -0.770816 0
M  V30 18104 C 1722.56 3.0416 -0.73864 0
M  V30 18105 C 1723.04 4.38845 -1.31069 0
M  V30 18106 N 1724.53 4.45386 -1.27222 0
M  V30 18107 C 1725.26 5.48088 -1.68484 0
M  V30 18108 N 1724.76 6.57797 -2.17428 0
M  V30 18109 N 1726.55 5.38912 -1.59782 0
M  V30 18110 H 1718.7 1.51112 -1.49261 0
M  V30 18111 H 1720.97 0.716925 -0.62026 0
M  V30 18112 H 1720.67 3.00888 -1.82097 0
M  V30 18113 H 1720.55 3.76422 -0.242125 0
M  V30 18114 H 1722.93 2.93543 0.302728 0
M  V30 18115 H 1723.02 2.20026 -1.30469 0
M  V30 18116 H 1722.66 4.50215 -2.35093 0
M  V30 18117 H 1722.59 5.21649 -0.720409 0
M  V30 18118 H 1725.08 3.66685 -0.913813 0
M  V30 18119 H 1725.39 7.32287 -2.46933 0
M  V30 18120 H 1723.74 6.58787 -2.21415 0
M  V30 18121 H 1726.93 4.52097 -1.2135 0
M  V30 18122 H 1727.1 6.18821 -1.92261 0
M  V30 18123 N 1720.51 0.254649 1.55529 0
M  V30 18124 C 1721.73 -0.374795 2.03985 0
M  V30 18125 C 1722.16 -1.50188 1.13249 0
M  V30 18126 O 1721.52 -1.80855 0.126963 0
M  V30 18127 C 1721.56 -0.852635 3.50375 0
M  V30 18128 O 1720.67 -1.9616 3.6276 0
M  V30 18129 H 1720.01 -0.0806157 0.659088 0
M  V30 18130 H 1722.54 0.38297 2.00984 0
M  V30 18131 H 1722.55 -1.15381 3.91345 0
M  V30 18132 H 1721.22 -0.0279044 4.15891 0
M  V30 18133 H 1719.8 -1.66453 3.33688 0
M  V30 18134 N 1721.99 -1.57589 -0.0183649 0
M  V30 18135 C 1723.22 -1.93743 -0.71745 0
M  V30 18136 C 1723.62 -0.853727 -1.68844 0
M  V30 18137 O 1722.97 0.177648 -1.82839 0
M  V30 18138 C 1723.03 -3.25769 -1.52036 0
M  V30 18139 C 1722.69 -4.51404 -0.71298 0
M  V30 18140 C 1723.69 -5.19899 -0.00859461 0
M  V30 18141 C 1721.38 -4.97887 -0.664364 0
M  V30 18142 C 1723.37 -6.33164 0.733592 0
M  V30 18143 C 1721.06 -6.11046 0.0815603 0
M  V30 18144 C 1722.05 -6.7854 0.779288 0
M  V30 18145 O 1721.74 -7.89532 1.51308 0
M  V30 18146 H 1721.47 -0.643849 -0.205996 0
M  V30 18147 H 1724.03 -2.05387 0.023306 0
M  V30 18148 H 1722.26 -3.10481 -2.30518 0
M  V30 18149 H 1723.95 -3.47169 -2.10305 0
M  V30 18150 H 1724.71 -4.84986 -0.0371173 0
M  V30 18151 H 1720.59 -4.4519 -1.19696 0
M  V30 18152 H 1724.14 -6.8578 1.27873 0
M  V30 18153 H 1720.03 -6.45403 0.111968 0
M  V30 18154 H 1720.8 -8.05949 1.42787 0
M  V30 18155 N 1723.46 0.290824 -1.54893 0
M  V30 18156 C 1724.69 1.04193 -1.78402 0
M  V30 18157 C 1725.1 1.81071 -0.548631 0
M  V30 18158 O 1724.45 1.77005 0.491403 0
M  V30 18159 C 1724.51 2.06122 -2.94541 0
M  V30 18160 C 1724.17 1.48346 -4.32253 0
M  V30 18161 C 1725.17 0.908243 -5.11905 0
M  V30 18162 C 1722.85 1.51602 -4.78876 0
M  V30 18163 C 1724.85 0.373282 -6.36306 0
M  V30 18164 C 1722.53 0.977194 -6.03236 0
M  V30 18165 C 1723.53 0.406805 -6.81787 0
M  V30 18166 O 1723.22 -0.123821 -8.03805 0
M  V30 18167 H 1722.95 0.314317 -0.598482 0
M  V30 18168 H 1725.51 0.332504 -2.02691 0
M  V30 18169 H 1723.74 2.80773 -2.65901 0
M  V30 18170 H 1725.43 2.67216 -3.05533 0
M  V30 18171 H 1726.19 0.875912 -4.77025 0
M  V30 18172 H 1722.07 1.94938 -4.17756 0
M  V30 18173 H 1725.61 -0.0725714 -6.97562 0
M  V30 18174 H 1721.51 1.00671 -6.37602 0
M  V30 18175 H 1722.28 -0.0114852 -8.18499 0
M  V30 18176 N 1724.94 1.47523 0.554506 0
M  V30 18177 C 1726.19 1.54287 1.31156 0
M  V30 18178 C 1726.52 0.206279 1.93403 0
M  V30 18179 O 1725.77 -0.801103 1.78552 0
M  V30 18180 C 1726.07 2.6113 2.4402 0
M  V30 18181 C 1725.74 4.04322 1.99586 0
M  V30 18182 C 1724.4 4.43301 1.87184 0
M  V30 18183 C 1726.75 4.94158 1.65703 0
M  V30 18184 C 1724.08 5.69948 1.39198 0
M  V30 18185 C 1726.43 6.21271 1.19187 0
M  V30 18186 C 1725.1 6.59129 1.05383 0
M  V30 18187 H 1724.37 0.564575 0.479934 0
M  V30 18188 H 1727.01 1.81134 0.621521 0
M  V30 18189 H 1725.32 2.2805 3.18591 0
M  V30 18190 H 1727.01 2.63585 3.02199 0
M  V30 18191 H 1723.6 3.73526 2.10182 0
M  V30 18192 H 1727.79 4.6474 1.74156 0
M  V30 18193 H 1723.04 5.98027 1.27178 0
M  V30 18194 H 1727.22 6.90292 0.920312 0
M  V30 18195 H 1724.85 7.57155 0.679777 0
M  V30 18196 N 1726.42 -0.801453 1.357 0
M  V30 18197 C 1727.83 -1.37581 1.26208 0
M  V30 18198 C 1728.18 -1.95928 -0.103326 0
M  V30 18199 O 1727.31 -1.91676 -1.00445 0
M  V30 18200 C 1727.9 -2.50122 2.28527 0
M  V30 18201 C 1726.46 -3.03405 2.2276 0
M  V30 18202 C 1725.61 -1.76401 2.13958 0
M  V30 18203 H 1728.56 -0.60407 1.46754 0
M  V30 18204 H 1728.58 -3.28814 1.91472 0
M  V30 18205 H 1728.09 -2.07626 3.27892 0
M  V30 18206 H 1726.19 -3.50352 1.26822 0
M  V30 18207 H 1726.31 -3.61038 3.14942 0
M  V30 18208 H 1724.67 -1.98158 1.60017 0
M  V30 18209 H 1725.45 -1.3605 3.15191 0
M  V30 18210 N 1727.9 -1.19782 -1.02421 0
M  V30 18211 C 1729.14 -1.0048 -1.76158 0
M  V30 18212 C 1729.48 0.46281 -1.88605 0
M  V30 18213 O 1728.75 1.34366 -1.40628 0
M  V30 18214 C 1729.04 -1.67999 -3.1851 0
M  V30 18215 C 1728.89 -3.22155 -3.13905 0
M  V30 18216 C 1730.21 -1.40681 -4.17009 0
M  V30 18217 H 1727.33 -0.366436 -0.639448 0
M  V30 18218 H 1729.97 -1.47688 -1.19534 0
M  V30 18219 H 1728.12 -1.27862 -3.66856 0
M  V30 18220 H 1729.79 -3.71536 -2.7342 0
M  V30 18221 H 1728.03 -3.53456 -2.51498 0
M  V30 18222 H 1728.7 -3.64548 -4.14498 0
M  V30 18223 H 1731.18 -1.75488 -3.77284 0
M  V30 18224 H 1730.06 -1.90467 -5.14795 0
M  V30 18225 H 1730.32 -0.332889 -4.40845 0
M  V30 18226 N 1729.38 1.21606 -1.00248 0
M  V30 18227 C 1730.32 2.23884 -0.560771 0
M  V30 18228 C 1731.29 1.60913 0.411864 0
M  V30 18229 O 1732.48 1.88191 0.314476 0
M  V30 18230 C 1729.62 3.44928 0.108948 0
M  V30 18231 C 1728.73 4.22381 -0.906566 0
M  V30 18232 C 1727.87 5.30787 -0.20937 0
M  V30 18233 C 1726.91 5.99969 -1.2126 0
M  V30 18234 N 1726.04 6.99997 -0.543057 0
M  V30 18235 H 1730.88 2.61029 -1.43764 0
M  V30 18236 H 1728.42 1.28278 -0.719937 0
M  V30 18237 H 1730.38 4.14019 0.514244 0
M  V30 18238 H 1729.01 3.08518 0.949544 0
M  V30 18239 H 1728.06 3.52493 -1.43012 0
M  V30 18240 H 1729.37 4.70009 -1.67013 0
M  V30 18241 H 1728.53 6.06176 0.252164 0
M  V30 18242 H 1727.27 4.84159 0.586621 0
M  V30 18243 H 1726.27 5.23353 -1.68467 0
M  V30 18244 H 1727.5 6.48684 -2.00963 0
M  V30 18245 H 1725.44 6.55585 0.233324 0
M  V30 18246 H 1725.36 7.45679 -1.24492 0
M  V30 18247 H 1726.63 7.7943 -0.104643 0
M  V30 18248 N 1730.86 0.776895 1.37121 0
M  V30 18249 C 1731.8 0.154521 2.32086 0
M  V30 18250 C 1732.8 -0.679155 1.5519 0
M  V30 18251 O 1734 -0.575641 1.70547 0
M  V30 18252 H 1730.38 0.0311849 0.751353 0
M  V30 18253 H 1732.35 0.971125 2.82156 0
M  V30 18254 C 1731.1 -0.706165 3.40454 0
M  V30 18255 H 1730.42 -0.0740341 3.99731 0
M  V30 18256 H 1731.86 -1.10853 4.09253 0
M  V30 18257 C 1730.32 -1.85901 2.80967 0
M  V30 18258 O 1730.85 -2.95482 2.72128 0
M  V30 18259 N 1729.06 -1.66122 2.38436 0
M  V30 18260 H 1728.6 -0.769915 2.45825 0
M  V30 18261 H 1728.56 -2.43422 1.9898 0
M  V30 18262 N 1732.33 -1.48497 0.527859 0
M  V30 18263 C 1733.58 -2.02799 -0.00702196 0
M  V30 18264 C 1733.91 -1.40433 -1.34135 0
M  V30 18265 O 1733.19 -0.54934 -1.86581 0
M  V30 18266 C 1733.47 -3.59861 -0.131272 0
M  V30 18267 C 1733.32 -4.32711 1.22807 0
M  V30 18268 C 1734.64 -4.31634 -0.85908 0
M  V30 18269 H 1731.76 -0.736999 -0.00107787 0
M  V30 18270 H 1734.4 -1.77242 0.684478 0
M  V30 18271 H 1732.55 -3.81766 -0.720216 0
M  V30 18272 H 1734.23 -4.22229 1.85796 0
M  V30 18273 H 1732.47 -3.94212 1.8105 0
M  V30 18274 H 1733.14 -5.41047 1.09415 0
M  V30 18275 H 1735.62 -4.14546 -0.359322 0
M  V30 18276 H 1734.49 -5.41221 -0.914911 0
M  V30 18277 H 1734.75 -3.98765 -1.90889 0
M  V30 18278 N 1733.81 -0.262893 -1.55392 0
M  V30 18279 C 1735.06 0.357939 -1.98499 0
M  V30 18280 C 1735.37 1.5789 -1.15456 0
M  V30 18281 O 1736.58 2.2719 -1.4865 0
M  V30 18282 C 1735.04 0.688205 -3.53259 0
M  V30 18283 C 1734.64 -0.512257 -4.45062 0
M  V30 18284 C 1736.39 1.27234 -4.04984 0
M  V30 18285 C 1734.29 -0.157257 -5.91191 0
M  V30 18286 H 1733.22 0.137514 -0.741354 0
M  V30 18287 H 1735.88 -0.365626 -1.79821 0
M  V30 18288 H 1734.26 1.47034 -3.67692 0
M  V30 18289 H 1735.43 -1.28935 -4.42394 0
M  V30 18290 H 1733.75 -1.0124 -4.03905 0
M  V30 18291 H 1736.34 1.55155 -5.11694 0
M  V30 18292 H 1736.69 2.20217 -3.53285 0
M  V30 18293 H 1737.22 0.552763 -3.93941 0
M  V30 18294 H 1733.96 -1.05464 -6.4696 0
M  V30 18295 H 1733.48 0.583319 -5.96957 0
M  V30 18296 H 1735.16 0.254892 -6.46498 0
M  V30 18297 N 1735.29 1.57597 0.0100073 0
M  V30 18298 C 1736.57 1.81329 0.733415 0
M  V30 18299 C 1736.95 0.865495 1.92542 0
M  V30 18300 O 1736.29 -0.088073 2.2833 0
M  V30 18301 C 1736.5 3.29559 1.14856 0
M  V30 18302 C 1737.85 3.95039 1.55658 0
M  V30 18303 O 1738.88 3.33822 1.24262 0
M  V30 18304 O 1737.74 5.02858 2.13999 0
M  V30 18305 H 1734.83 0.746334 0.35625 0
M  V30 18306 H 1737.38 1.69694 -0.0146791 0
M  V30 18307 H 1736.15 3.9016 0.298467 0
M  V30 18308 H 1735.77 3.46156 1.95607 0
M  V30 18309 N 1736.77 -0.282606 1.55045 0
M  V30 18310 C 1738.02 -1.01346 1.74852 0
M  V30 18311 C 1738.34 -1.87161 0.547327 0
M  V30 18312 O 1737.61 -1.9094 -0.438015 0
M  V30 18313 H 1736.19 -0.377178 0.644784 0
M  V30 18314 H 1738.85 -0.309152 1.92432 0
M  V30 18315 H 1737.94 -1.65596 2.64545 0
M  V30 18316 N 1738.25 -1.47815 -0.546675 0
M  V30 18317 C 1739.52 -1.45464 -1.30765 0
M  V30 18318 C 1739.9 -0.157249 -2.10514 0
M  V30 18319 O 1739.25 0.861203 -2.1165 0
M  V30 18320 C 1739.46 -2.70661 -2.20326 0
M  V30 18321 C 1740.81 -3.18309 -2.81007 0
M  V30 18322 O 1741.83 -2.71462 -2.30623 0
M  V30 18323 O 1740.69 -3.9978 -3.7261 0
M  V30 18324 H 1737.79 -0.580175 -0.589343 0
M  V30 18325 H 1740.33 -1.60029 -0.564707 0
M  V30 18326 H 1739.1 -3.56612 -1.61069 0
M  V30 18327 H 1738.73 -2.58734 -3.01898 0
M  V30 18328 N 1739.72 0.794246 -1.36123 0
M  V30 18329 C 1740.65 1.92105 -1.32732 0
M  V30 18330 C 1741.63 1.68925 -0.199603 0
M  V30 18331 O 1742.82 1.90109 -0.396498 0
M  V30 18332 C 1739.95 3.29051 -1.11098 0
M  V30 18333 C 1738.9 3.66743 -2.20643 0
M  V30 18334 C 1738.23 5.01986 -1.84159 0
M  V30 18335 C 1739.53 3.75831 -3.62696 0
M  V30 18336 H 1741.22 1.952 -2.27018 0
M  V30 18337 H 1738.77 0.937746 -1.09281 0
M  V30 18338 H 1740.72 4.07494 -1.07362 0
M  V30 18339 H 1739.45 3.26331 -0.132614 0
M  V30 18340 H 1738.11 2.90594 -2.23497 0
M  V30 18341 H 1737.75 4.95782 -0.849081 0
M  V30 18342 H 1737.45 5.28175 -2.57497 0
M  V30 18343 H 1738.98 5.82855 -1.8197 0
M  V30 18344 H 1740.39 4.44476 -3.62096 0
M  V30 18345 H 1738.79 4.135 -4.34899 0
M  V30 18346 H 1739.86 2.7706 -3.97952 0
M  V30 18347 N 1741.2 1.20323 1.01785 0
M  V30 18348 C 1742.44 1.0239 1.76906 0
M  V30 18349 C 1742.81 -0.436461 1.86973 0
M  V30 18350 O 1744.01 -0.735939 2.58529 0
M  V30 18351 C 1742.28 1.68729 3.15064 0
M  V30 18352 S 1743.84 1.65881 4.06237 0
M  V30 18353 H 1740.65 0.367179 0.608852 0
M  V30 18354 H 1743.26 1.52857 1.21881 0
M  V30 18355 H 1741.96 2.74194 3.05362 0
M  V30 18356 H 1741.49 1.18387 3.75164 0
M  V30 18357 H 1743.51 0.6908 4.91368 0
M  V30 18358 N 1742.68 -1.21073 1.00892 0
M  V30 18359 C 1743.59 -2.27265 0.582065 0
M  V30 18360 C 1744.61 -1.69872 -0.376785 0
M  V30 18361 O 1745.78 -1.99969 -0.239644 0
M  V30 18362 C 1742.85 -3.46606 -0.0806764 0
M  V30 18363 C 1741.91 -4.19257 0.923147 0
M  V30 18364 C 1741.14 -5.32901 0.291938 0
M  V30 18365 O 1741.36 -5.6309 -0.910282 0
M  V30 18366 O 1740.3 -5.93453 1.00483 0
M  V30 18367 H 1744.12 -2.65977 1.46594 0
M  V30 18368 H 1741.71 -1.27544 0.777999 0
M  V30 18369 H 1743.59 -4.18978 -0.451177 0
M  V30 18370 H 1742.27 -3.09785 -0.93887 0
M  V30 18371 H 1741.17 -3.4909 1.34488 0
M  V30 18372 H 1742.51 -4.59999 1.75106 0
M  V30 18373 N 1744.16 -0.784156 -1.36707 0
M  V30 18374 C 1745.09 -0.136944 -2.28791 0
M  V30 18375 C 1746.1 0.65075 -1.49228 0
M  V30 18376 O 1747.29 0.486799 -1.71734 0
M  V30 18377 C 1744.39 0.829306 -3.28597 0
M  V30 18378 C 1743.57 0.09279 -4.37302 0
M  V30 18379 C 1742.62 0.974213 -5.17103 0
M  V30 18380 O 1741.65 0.433399 -5.67548 0
M  V30 18381 N 1742.85 2.29909 -5.33031 0
M  V30 18382 H 1745.62 -0.927906 -2.84974 0
M  V30 18383 H 1743.18 -0.637596 -1.48816 0
M  V30 18384 H 1745.17 1.42268 -3.78869 0
M  V30 18385 H 1743.74 1.52117 -2.73092 0
M  V30 18386 H 1742.96 -0.681615 -3.88262 0
M  V30 18387 H 1744.25 -0.415655 -5.07099 0
M  V30 18388 H 1743.65 2.76268 -4.93652 0
M  V30 18389 H 1742.2 2.84224 -5.86566 0
M  V30 18390 N 1745.64 1.48215 -0.535727 0
M  V30 18391 C 1746.88 2.025 -0.00372753 0
M  V30 18392 C 1747.21 1.41227 1.33735 0
M  V30 18393 O 1746.47 0.549544 1.87826 0
M  V30 18394 C 1746.77 3.57036 0.161344 0
M  V30 18395 C 1746.43 4.37122 -1.10611 0
M  V30 18396 C 1745.09 4.58724 -1.45346 0
M  V30 18397 C 1747.45 4.83469 -1.94698 0
M  V30 18398 C 1744.77 5.2392 -2.64055 0
M  V30 18399 C 1747.13 5.49973 -3.1259 0
M  V30 18400 C 1745.79 5.69812 -3.47664 0
M  V30 18401 H 1745.06 0.740999 -0.001364 0
M  V30 18402 H 1747.71 1.78133 -0.70291 0
M  V30 18403 H 1746.01 3.80274 0.943337 0
M  V30 18404 H 1747.71 3.96666 0.587981 0
M  V30 18405 H 1744.3 4.20573 -0.825608 0
M  V30 18406 H 1748.48 4.66577 -1.69173 0
M  V30 18407 H 1743.74 5.37477 -2.91424 0
M  V30 18408 H 1747.91 5.84852 -3.78049 0
M  V30 18409 H 1745.54 6.20103 -4.39746 0
M  V30 18410 N 1747.11 0.27113 1.5525 0
M  V30 18411 C 1748.06 -0.634087 2.2379 0
M  V30 18412 C 1749.06 -1.16101 1.23357 0
M  V30 18413 O 1750.26 -1.1151 1.413 0
M  V30 18414 H 1746.64 -0.223023 0.718168 0
M  V30 18415 H 1748.61 -0.0331304 2.98382 0
M  V30 18416 C 1747.36 -1.80879 2.96948 0
M  V30 18417 H 1746.68 -1.41252 3.74016 0
M  V30 18418 H 1748.12 -2.41888 3.48233 0
M  V30 18419 C 1746.58 -2.69481 2.02192 0
M  V30 18420 O 1747.11 -3.69725 1.57056 0
M  V30 18421 N 1745.32 -2.36565 1.68776 0
M  V30 18422 H 1744.86 -1.55096 2.05677 0
M  V30 18423 H 1744.82 -2.96119 1.05646 0
M  V30 18424 N 1748.59 -1.576 -0.00164943 0
M  V30 18425 C 1749.82 -1.95176 -0.701511 0
M  V30 18426 C 1750.24 -0.873191 -1.66604 0
M  V30 18427 O 1749.6 0.168818 -1.80512 0
M  V30 18428 C 1749.65 -3.31847 -1.41104 0
M  V30 18429 O 1748.75 -3.26034 -2.52539 0
M  V30 18430 H 1748.09 -0.637207 -0.186718 0
M  V30 18431 H 1750.62 -2.04536 0.0510494 0
M  V30 18432 H 1750.63 -3.67374 -1.77483 0
M  V30 18433 H 1749.31 -4.09901 -0.70382 0
M  V30 18434 H 1747.89 -3.0218 -2.18499 0
M  V30 18435 N 1750.07 0.274379 -1.55193 0
M  V30 18436 C 1751 1.36461 -1.82903 0
M  V30 18437 C 1751.98 1.47607 -0.681977 0
M  V30 18438 O 1753.17 1.64253 -0.924827 0
M  V30 18439 C 1750.29 2.74116 -1.98942 0
M  V30 18440 C 1749.34 2.80261 -3.2149 0
M  V30 18441 S 1750.17 2.39647 -4.78884 0
M  V30 18442 C 1751.33 3.79279 -4.97894 0
M  V30 18443 H 1751.56 1.12752 -2.75089 0
M  V30 18444 H 1749.09 0.473936 -1.46946 0
M  V30 18445 H 1751.05 3.5339 -2.08868 0
M  V30 18446 H 1749.71 2.95078 -1.07647 0
M  V30 18447 H 1748.91 3.81291 -3.29595 0
M  V30 18448 H 1748.51 2.09007 -3.10148 0
M  V30 18449 H 1750.8 4.74537 -4.83551 0
M  V30 18450 H 1751.74 3.76127 -5.99945 0
M  V30 18451 H 1752.15 3.70518 -4.25883 0
M  V30 18452 N 1751.55 1.48103 0.538828 0
M  V30 18453 C 1752.46 1.64632 1.67133 0
M  V30 18454 C 1753.47 0.528917 1.65766 0
M  V30 18455 O 1754.65 0.798849 1.84879 0
M  V30 18456 C 1751.72 1.67391 3.03614 0
M  V30 18457 C 1750.78 2.90694 3.15904 0
M  V30 18458 C 1750.01 2.93311 4.45875 0
M  V30 18459 O 1750.23 2.04596 5.32444 0
M  V30 18460 O 1749.17 3.85384 4.62345 0
M  V30 18461 H 1752.99 2.60496 1.56126 0
M  V30 18462 H 1750.58 1.31401 0.710925 0
M  V30 18463 H 1752.46 1.71777 3.84799 0
M  V30 18464 H 1751.13 0.746982 3.14963 0
M  V30 18465 H 1750.04 2.91844 2.34047 0
M  V30 18466 H 1751.37 3.82742 3.09467 0
M  V30 18467 N 1753.03 -0.787016 1.36542 0
M  V30 18468 C 1754.44 -1.36234 1.2766 0
M  V30 18469 C 1754.79 -1.96026 -0.0825391 0
M  V30 18470 O 1753.91 -1.92731 -0.984059 0
M  V30 18471 C 1754.51 -2.47684 2.31167 0
M  V30 18472 C 1753.07 -3.01026 2.25966 0
M  V30 18473 C 1752.21 -1.74122 2.15816 0
M  V30 18474 H 1755.17 -0.58847 1.47386 0
M  V30 18475 H 1755.19 -3.26765 1.94949 0
M  V30 18476 H 1754.7 -2.04136 3.30076 0
M  V30 18477 H 1752.8 -3.48988 1.30531 0
M  V30 18478 H 1752.91 -3.57677 3.18754 0
M  V30 18479 H 1751.28 -1.9645 1.6211 0
M  V30 18480 H 1752.06 -1.32699 3.16616 0
M  V30 18481 N 1754.5 -1.20861 -1.01145 0
M  V30 18482 C 1755.45 -0.959005 -2.1191 0
M  V30 18483 C 1756.45 0.0914738 -1.69153 0
M  V30 18484 O 1757.65 -0.0593443 -1.79902 0
M  V30 18485 H 1754.03 -0.292825 -0.692645 0
M  V30 18486 H 1756 -1.89937 -2.30145 0
M  V30 18487 C 1754.75 -0.533258 -3.43586 0
M  V30 18488 H 1754.07 -1.33319 -3.76917 0
M  V30 18489 H 1755.51 -0.397868 -4.22129 0
M  V30 18490 C 1753.97 0.755011 -3.28331 0
M  V30 18491 O 1754.5 1.81217 -3.58502 0
M  V30 18492 N 1752.71 0.719026 -2.81564 0
M  V30 18493 H 1752.25 -0.141544 -2.57211 0
M  V30 18494 H 1752.21 1.58132 -2.71738 0
M  V30 18495 N 1755.98 1.20536 -1.01532 0
M  V30 18496 C 1756.93 2.23277 -0.584486 0
M  V30 18497 C 1757.9 1.6134 0.394773 0
M  V30 18498 O 1759.08 1.88514 0.294498 0
M  V30 18499 C 1756.22 3.45024 0.0723574 0
M  V30 18500 C 1755.34 4.21395 -0.951314 0
M  V30 18501 C 1754.47 5.30535 -0.265656 0
M  V30 18502 C 1753.51 5.98649 -1.27617 0
M  V30 18503 N 1752.65 6.99381 -0.61727 0
M  V30 18504 H 1757.49 2.59489 -1.46524 0
M  V30 18505 H 1755.03 1.27507 -0.733502 0
M  V30 18506 H 1756.98 4.14541 0.470303 0
M  V30 18507 H 1755.61 3.09508 0.916768 0
M  V30 18508 H 1754.67 3.50957 -1.46743 0
M  V30 18509 H 1755.98 4.68211 -1.71989 0
M  V30 18510 H 1755.13 6.06409 0.187857 0
M  V30 18511 H 1753.87 4.84754 0.535237 0
M  V30 18512 H 1752.88 5.21537 -1.74008 0
M  V30 18513 H 1754.1 6.46516 -2.07832 0
M  V30 18514 H 1752.05 6.55796 0.163777 0
M  V30 18515 H 1751.96 7.44317 -1.32393 0
M  V30 18516 H 1753.23 7.79275 -0.187306 0
M  V30 18517 N 1757.46 0.791395 1.36289 0
M  V30 18518 C 1758.39 0.149076 2.28715 0
M  V30 18519 C 1759.41 -0.642827 1.49571 0
M  V30 18520 O 1760.59 -0.477685 1.7199 0
M  V30 18521 C 1757.69 -0.811868 3.29032 0
M  V30 18522 C 1756.87 -0.0695975 4.37345 0
M  V30 18523 C 1755.93 -0.946776 5.17612 0
M  V30 18524 O 1754.95 -0.403295 5.67769 0
M  V30 18525 N 1756.15 -2.27079 5.34243 0
M  V30 18526 H 1758.92 0.943005 2.84478 0
M  V30 18527 H 1756.48 0.645479 1.48476 0
M  V30 18528 H 1758.47 -1.40257 3.79618 0
M  V30 18529 H 1757.04 -1.50667 2.73895 0
M  V30 18530 H 1756.26 0.702196 3.87895 0
M  V30 18531 H 1757.55 0.442542 5.06872 0
M  V30 18532 H 1756.95 -2.73646 4.9511 0
M  V30 18533 H 1755.51 -2.81109 5.88065 0
M  V30 18534 N 1758.94 -1.47929 0.54358 0
M  V30 18535 C 1759.89 -2.29827 -0.211706 0
M  V30 18536 C 1760.86 -1.38217 -0.921154 0
M  V30 18537 O 1762.04 -1.67181 -0.919522 0
M  V30 18538 C 1759.18 -3.21889 -1.24425 0
M  V30 18539 C 1758.29 -4.28583 -0.542264 0
M  V30 18540 C 1757.43 -5.0781 -1.55892 0
M  V30 18541 C 1756.47 -6.06293 -0.841146 0
M  V30 18542 N 1755.61 -6.78528 -1.80399 0
M  V30 18543 H 1760.45 -2.93896 0.492835 0
M  V30 18544 H 1757.98 -1.44875 0.254873 0
M  V30 18545 H 1759.94 -3.73674 -1.85535 0
M  V30 18546 H 1758.57 -2.59713 -1.917 0
M  V30 18547 H 1757.62 -3.79959 0.183069 0
M  V30 18548 H 1758.93 -4.98796 0.0206703 0
M  V30 18549 H 1758.09 -5.63678 -2.24393 0
M  V30 18550 H 1756.83 -4.37468 -2.15576 0
M  V30 18551 H 1755.83 -5.49616 -0.14214 0
M  V30 18552 H 1757.06 -6.78639 -0.250232 0
M  V30 18553 H 1755 -6.10927 -2.38965 0
M  V30 18554 H 1754.92 -7.44863 -1.29285 0
M  V30 18555 H 1756.19 -7.38978 -2.48056 0
M  V30 18556 N 1760.42 -0.27936 -1.55104 0
M  V30 18557 C 1761.37 0.62221 -2.24123 0
M  V30 18558 C 1762.36 1.15445 -1.23971 0
M  V30 18559 O 1763.57 1.10759 -1.41889 0
M  V30 18560 H 1759.94 0.219212 -0.71934 0
M  V30 18561 H 1761.91 0.0173061 -2.98395 0
M  V30 18562 C 1760.66 1.79301 -2.97903 0
M  V30 18563 H 1759.98 1.39266 -3.7476 0
M  V30 18564 H 1761.42 2.40038 -3.49511 0
M  V30 18565 C 1759.88 2.68405 -2.03618 0
M  V30 18566 O 1760.41 3.68887 -1.59014 0
M  V30 18567 N 1758.62 2.35666 -1.70028 0
M  V30 18568 H 1758.17 1.54003 -2.06497 0
M  V30 18569 H 1758.12 2.95554 -1.07215 0
M  V30 18570 N 1761.9 1.57599 -0.0067085 0
M  V30 18571 C 1763.14 1.9114 0.677733 0
M  V30 18572 C 1763.47 0.881328 1.7305 0
M  V30 18573 O 1762.75 -0.099049 1.94248 0
M  V30 18574 C 1763.03 3.35241 1.31474 0
M  V30 18575 C 1762.89 4.4897 0.273055 0
M  V30 18576 C 1764.2 3.78886 2.23905 0
M  V30 18577 H 1761.32 0.695119 0.244907 0
M  V30 18578 H 1763.97 1.89907 -0.059378 0
M  V30 18579 H 1762.12 3.36423 1.94299 0
M  V30 18580 H 1763.79 4.59924 -0.356031 0
M  V30 18581 H 1762.03 4.31915 -0.403961 0
M  V30 18582 H 1762.7 5.46772 0.757941 0
M  V30 18583 H 1765.18 3.79299 1.7109 0
M  V30 18584 H 1764.05 4.80451 2.65439 0
M  V30 18585 H 1764.31 3.13129 3.12094 0
M  V30 18586 N 1763.37 -0.266145 1.55336 0
M  V30 18587 C 1764.6 -1.01915 1.80633 0
M  V30 18588 C 1765.02 -1.78897 0.581172 0
M  V30 18589 O 1764.38 -1.75118 -0.469399 0
M  V30 18590 C 1764.43 -1.948 3.03456 0
M  V30 18591 O 1763.53 -3.03678 2.79022 0
M  V30 18592 H 1762.87 -0.29102 0.596828 0
M  V30 18593 H 1765.4 -0.292973 2.02492 0
M  V30 18594 H 1765.41 -2.36626 3.32373 0
M  V30 18595 H 1764.09 -1.38182 3.92273 0
M  V30 18596 H 1762.67 -2.66118 2.61219 0
M  V30 18597 N 1764.85 -1.48386 -0.530967 0
M  V30 18598 C 1765.76 -1.65516 -1.66257 0
M  V30 18599 C 1766.78 -0.5377 -1.65483 0
M  V30 18600 O 1767.95 -0.808642 -1.84453 0
M  V30 18601 C 1765.02 -1.68999 -3.02722 0
M  V30 18602 C 1764.08 -2.92365 -3.14358 0
M  V30 18603 C 1763.31 -2.95672 -4.44313 0
M  V30 18604 O 1763.54 -2.07417 -5.31352 0
M  V30 18605 O 1762.47 -3.87831 -4.60294 0
M  V30 18606 H 1766.3 -2.61321 -1.54742 0
M  V30 18607 H 1763.88 -1.31776 -0.703946 0
M  V30 18608 H 1765.76 -1.73816 -3.83883 0
M  V30 18609 H 1764.44 -0.763675 -3.14563 0
M  V30 18610 H 1763.34 -2.93081 -2.32496 0
M  V30 18611 H 1764.68 -3.84378 -3.07433 0
M  V30 18612 N 1766.33 0.779763 -1.36958 0
M  V30 18613 C 1767.24 1.92394 -1.34245 0
M  V30 18614 C 1768.26 1.72292 -0.243187 0
M  V30 18615 O 1769.43 1.95665 -0.477211 0
M  V30 18616 C 1766.5 3.27402 -1.14057 0
M  V30 18617 C 1765.56 3.60213 -2.33548 0
M  V30 18618 C 1764.79 4.88779 -2.14314 0
M  V30 18619 O 1765.01 5.59231 -1.12327 0
M  V30 18620 O 1763.95 5.20469 -3.02316 0
M  V30 18621 H 1767.77 1.97633 -2.30596 0
M  V30 18622 H 1765.36 0.921386 -1.17605 0
M  V30 18623 H 1767.24 4.08172 -1.04755 0
M  V30 18624 H 1765.92 3.23033 -0.207744 0
M  V30 18625 H 1764.82 2.7971 -2.48421 0
M  V30 18626 H 1766.16 3.69317 -3.25371 0
M  V30 18627 N 1767.81 1.21396 1.00503 0
M  V30 18628 C 1768.74 0.997268 2.11132 0
M  V30 18629 C 1769.72 -0.0777455 1.69922 0
M  V30 18630 O 1770.9 0.08208 1.94026 0
M  V30 18631 C 1768.03 0.561122 3.42737 0
M  V30 18632 C 1766.99 1.58069 3.97741 0
M  V30 18633 C 1766.31 1.00079 5.25251 0
M  V30 18634 C 1767.61 2.96754 4.29807 0
M  V30 18635 H 1769.31 1.92255 2.29518 0
M  V30 18636 H 1766.85 0.925776 1.10297 0
M  V30 18637 H 1768.81 0.396701 4.19529 0
M  V30 18638 H 1767.53 -0.399804 3.24144 0
M  V30 18639 H 1766.19 1.73268 3.23069 0
M  V30 18640 H 1765.84 0.0315797 5.0299 0
M  V30 18641 H 1765.54 1.68182 5.63017 0
M  V30 18642 H 1767.06 0.847687 6.04687 0
M  V30 18643 H 1768.48 2.85 4.97441 0
M  V30 18644 H 1766.87 3.61871 4.78717 0
M  V30 18645 H 1767.94 3.47602 3.38084 0
M  V30 18646 N 1769.29 -1.19996 1.0217 0
M  V30 18647 C 1770.56 -1.85214 0.628894 0
M  V30 18648 C 1770.94 -1.91292 -0.892784 0
M  V30 18649 O 1770.29 -1.42455 -1.78658 0
M  V30 18650 C 1770.5 -3.24576 1.28262 0
M  V30 18651 C 1771.85 -4.0081 1.4013 0
M  V30 18652 O 1772.87 -3.33948 1.23923 0
M  V30 18653 O 1771.73 -5.20561 1.66368 0
M  V30 18654 H 1768.83 -0.797842 0.217664 0
M  V30 18655 H 1771.37 -1.27544 1.1194 0
M  V30 18656 H 1770.14 -3.14947 2.32216 0
M  V30 18657 H 1769.77 -3.89884 0.77952 0
M  V30 18658 N 1770.76 -0.798611 -1.35867 0
M  V30 18659 C 1772.18 -0.481385 -1.52167 0
M  V30 18660 C 1772.38 0.99878 -1.75005 0
M  V30 18661 O 1771.44 1.78404 -1.78685 0
M  V30 18662 C 1772.75 -1.31982 -2.70188 0
M  V30 18663 C 1774.3 -1.31445 -2.84062 0
M  V30 18664 C 1774.77 -2.13682 -4.05098 0
M  V30 18665 N 1776.26 -2.11176 -4.12261 0
M  V30 18666 C 1777 -2.71571 -5.05012 0
M  V30 18667 N 1776.49 -3.40861 -6.03147 0
M  V30 18668 N 1778.29 -2.61255 -4.97697 0
M  V30 18669 H 1770.44 -1.75731 -1.19299 0
M  V30 18670 H 1772.7 -0.747512 -0.583034 0
M  V30 18671 H 1772.41 -2.36989 -2.59864 0
M  V30 18672 H 1772.28 -0.967488 -3.64581 0
M  V30 18673 H 1774.67 -0.272258 -2.93841 0
M  V30 18674 H 1774.75 -1.7066 -1.90549 0
M  V30 18675 H 1774.39 -3.17937 -3.96079 0
M  V30 18676 H 1774.32 -1.71832 -4.97776 0
M  V30 18677 H 1776.81 -1.60754 -3.42004 0
M  V30 18678 H 1777.13 -3.84251 -6.705 0
M  V30 18679 H 1775.47 -3.44964 -6.03345 0
M  V30 18680 H 1778.66 -2.06717 -4.19983 0
M  V30 18681 H 1778.84 -3.08613 -5.69791 0
M  V30 18682 N 1772.24 1.47639 -0.551417 0
M  V30 18683 C 1773.47 2.06878 -0.0298904 0
M  V30 18684 C 1773.88 1.40493 1.26123 0
M  V30 18685 O 1773.24 0.499513 1.75531 0
M  V30 18686 C 1773.29 3.61074 0.175449 0
M  V30 18687 O 1773.01 4.2497 -1.06454 0
M  V30 18688 C 1774.51 4.37166 0.734919 0
M  V30 18689 H 1771.73 0.669607 -0.0432142 0
M  V30 18690 H 1774.28 1.89726 -0.763178 0
M  V30 18691 H 1772.43 3.7776 0.858848 0
M  V30 18692 H 1772.85 5.17424 -0.858644 0
M  V30 18693 H 1774.32 5.45756 0.827915 0
M  V30 18694 H 1774.8 4.03052 1.74486 0
M  V30 18695 H 1775.4 4.2521 0.0874045 0
M  V30 18696 N 1773.72 0.287581 1.54954 0
M  V30 18697 C 1775.13 -0.207733 1.85541 0
M  V30 18698 C 1775.48 -1.54478 1.20959 0
M  V30 18699 O 1774.61 -2.10487 0.502399 0
M  V30 18700 C 1775.2 -0.383701 3.3662 0
M  V30 18701 C 1773.76 -0.82324 3.67287 0
M  V30 18702 C 1772.91 0.0762579 2.77195 0
M  V30 18703 H 1775.86 0.509004 1.50316 0
M  V30 18704 H 1775.88 -1.22036 3.60399 0
M  V30 18705 H 1775.39 0.589575 3.83596 0
M  V30 18706 H 1773.49 -1.80754 3.2582 0
M  V30 18707 H 1773.61 -0.651925 4.74644 0
M  V30 18708 H 1771.97 -0.44219 2.50832 0
M  V30 18709 H 1772.75 1.04564 3.26988 0
M  V30 18710 N 1775.2 -1.57593 0.0150662 0
M  V30 18711 C 1776.61 -1.79146 -0.525709 0
M  V30 18712 C 1776.96 -0.923985 -1.73081 0
M  V30 18713 O 1776.09 -0.130532 -2.16006 0
M  V30 18714 C 1776.68 -3.249 -0.960492 0
M  V30 18715 C 1775.24 -3.47497 -1.44647 0
M  V30 18716 C 1774.39 -2.74332 -0.404628 0
M  V30 18717 H 1777.34 -1.56857 0.241175 0
M  V30 18718 H 1777.36 -3.3384 -1.82568 0
M  V30 18719 H 1776.87 -3.88011 -0.0832025 0
M  V30 18720 H 1774.97 -2.8962 -2.34416 0
M  V30 18721 H 1775.08 -4.56199 -1.46354 0
M  V30 18722 H 1773.45 -2.39394 -0.869627 0
M  V30 18723 H 1774.23 -3.40151 0.463953 0
M  V30 18724 N 1776.68 0.257904 -1.55475 0
M  V30 18725 C 1777.59 1.34084 -1.92506 0
M  V30 18726 C 1778.6 1.53246 -0.824123 0
M  V30 18727 O 1779.78 1.67081 -1.12455 0
M  V30 18728 C 1776.84 2.67741 -2.20263 0
M  V30 18729 C 1775.9 2.57196 -3.43728 0
M  V30 18730 C 1775.14 3.84479 -3.7015 0
M  V30 18731 O 1775.36 4.85858 -2.98827 0
M  V30 18732 O 1774.29 3.83774 -4.63682 0
M  V30 18733 H 1778.12 1.05672 -2.84723 0
M  V30 18734 H 1775.71 0.457726 -1.42215 0
M  V30 18735 H 1777.59 3.46743 -2.39473 0
M  V30 18736 H 1776.26 2.95907 -1.31227 0
M  V30 18737 H 1775.17 1.76518 -3.29837 0
M  V30 18738 H 1776.5 2.33977 -4.33031 0
M  V30 18739 N 1778.15 1.48666 0.52309 0
M  V30 18740 C 1779.4 1.57267 1.28043 0
M  V30 18741 C 1779.73 0.248801 1.926 0
M  V30 18742 O 1779.01 -0.745814 1.79633 0
M  V30 18743 C 1779.29 2.71595 2.36449 0
M  V30 18744 C 1779.14 4.13708 1.76538 0
M  V30 18745 C 1780.46 2.81654 3.3817 0
M  V30 18746 H 1777.58 0.572455 0.464181 0
M  V30 18747 H 1780.22 1.80866 0.582013 0
M  V30 18748 H 1778.37 2.51604 2.9602 0
M  V30 18749 H 1780.05 4.45158 1.20964 0
M  V30 18750 H 1778.29 4.20386 1.07041 0
M  V30 18751 H 1778.96 4.89538 2.55062 0
M  V30 18752 H 1781.44 2.99784 2.88563 0
M  V30 18753 H 1780.31 3.63366 4.11408 0
M  V30 18754 H 1780.57 1.90093 3.99145 0
M  V30 18755 N 1779.63 -0.772489 1.37369 0
M  V30 18756 C 1780.86 -1.56671 1.35901 0
M  V30 18757 C 1781.28 -1.88024 -0.0535538 0
M  V30 18758 O 1780.64 -1.49174 -1.03038 0
M  V30 18759 C 1780.69 -2.85417 2.20384 0
M  V30 18760 O 1779.79 -3.79761 1.60796 0
M  V30 18761 H 1779.13 -0.474596 0.464386 0
M  V30 18762 H 1781.66 -0.956162 1.80883 0
M  V30 18763 H 1781.67 -3.34527 2.33571 0
M  V30 18764 H 1780.35 -2.61926 3.2306 0
M  V30 18765 H 1778.93 -3.38403 1.56645 0
M  V30 18766 N 1781.11 -1.21927 -0.998575 0
M  V30 18767 C 1782.06 -0.984283 -2.08759 0
M  V30 18768 C 1783.03 0.0920029 -1.65845 0
M  V30 18769 O 1784.21 -0.0564334 -1.90717 0
M  V30 18770 C 1781.35 -0.562006 -3.40493 0
M  V30 18771 C 1780.47 -1.70844 -3.96783 0
M  V30 18772 C 1779.6 -1.2347 -5.16651 0
M  V30 18773 C 1778.64 -2.35305 -5.65065 0
M  V30 18774 N 1777.78 -1.89018 -6.76178 0
M  V30 18775 H 1782.62 -1.91653 -2.28195 0
M  V30 18776 H 1780.15 -0.955028 -1.11882 0
M  V30 18777 H 1782.11 -0.298383 -4.16132 0
M  V30 18778 H 1780.74 0.33324 -3.21075 0
M  V30 18779 H 1779.79 -2.08653 -3.18069 0
M  V30 18780 H 1781.11 -2.54987 -4.28699 0
M  V30 18781 H 1780.26 -0.928121 -5.99559 0
M  V30 18782 H 1779 -0.363397 -4.86344 0
M  V30 18783 H 1778 -2.66758 -4.8075 0
M  V30 18784 H 1779.23 -3.22941 -5.97399 0
M  V30 18785 H 1777.17 -1.04242 -6.47665 0
M  V30 18786 H 1777.09 -2.66731 -7.07383 0
M  V30 18787 H 1778.36 -1.61413 -7.62605 0
M  V30 18788 N 1782.59 1.19452 -1.02805 0
M  V30 18789 C 1783.54 2.22644 -0.608134 0
M  V30 18790 C 1784.51 1.6175 0.377639 0
M  V30 18791 O 1785.69 1.88815 0.274487 0
M  V30 18792 C 1782.83 3.45081 0.0357589 0
M  V30 18793 C 1781.94 4.20363 -0.995955 0
M  V30 18794 C 1781.08 5.30224 -0.321911 0
M  V30 18795 C 1780.12 5.97261 -1.33959 0
M  V30 18796 N 1779.25 6.98687 -0.691414 0
M  V30 18797 H 1784.09 2.57921 -1.49268 0
M  V30 18798 H 1781.63 1.26722 -0.746985 0
M  V30 18799 H 1783.59 4.15016 0.426309 0
M  V30 18800 H 1782.22 3.10463 0.883889 0
M  V30 18801 H 1781.27 3.49381 -1.50457 0
M  V30 18802 H 1782.58 4.6636 -1.76945 0
M  V30 18803 H 1781.74 6.06574 0.123528 0
M  V30 18804 H 1780.48 4.85294 0.483792 0
M  V30 18805 H 1779.48 5.19662 -1.7953 0
M  V30 18806 H 1780.71 6.44275 -2.14678 0
M  V30 18807 H 1778.65 6.55932 0.0942121 0
M  V30 18808 H 1778.57 7.42871 -1.40281 0
M  V30 18809 H 1779.84 7.79032 -0.269948 0
M  V30 18810 N 1784.07 0.805805 1.35442 0
M  V30 18811 C 1785 0.230077 2.32364 0
M  V30 18812 C 1785.98 -0.644034 1.57436 0
M  V30 18813 O 1787.16 -0.574467 1.85509 0
M  V30 18814 C 1784.29 -0.622814 3.4167 0
M  V30 18815 C 1783.25 0.152739 4.27727 0
M  V30 18816 C 1782.57 -0.821803 5.28347 0
M  V30 18817 C 1783.87 1.35128 5.04517 0
M  V30 18818 H 1785.57 1.03983 2.80763 0
M  V30 18819 H 1783.11 0.501467 1.34986 0
M  V30 18820 H 1785.07 -1.03564 4.08476 0
M  V30 18821 H 1783.79 -1.46544 2.91877 0
M  V30 18822 H 1782.45 0.546732 3.625 0
M  V30 18823 H 1782.1 -1.65991 4.74822 0
M  V30 18824 H 1781.8 -0.307209 5.86796 0
M  V30 18825 H 1783.32 -1.23285 5.98024 0
M  V30 18826 H 1784.73 1.01337 5.64273 0
M  V30 18827 H 1783.13 1.80031 5.72459 0
M  V30 18828 H 1784.2 2.13833 4.35205 0
M  V30 18829 N 1785.54 -1.47344 0.559239 0
M  V30 18830 C 1786.45 -2.33826 -0.190402 0
M  V30 18831 C 1787.47 -1.48317 -0.909846 0
M  V30 18832 O 1788.65 -1.8124 -0.878286 0
M  V30 18833 C 1785.71 -3.25052 -1.20591 0
M  V30 18834 C 1784.77 -4.26452 -0.493671 0
M  V30 18835 C 1784.01 -5.13319 -1.4608 0
M  V30 18836 O 1784.23 -5.02678 -2.69576 0
M  V30 18837 O 1783.16 -5.93799 -0.984178 0
M  V30 18838 H 1786.99 -2.99232 0.519046 0
M  V30 18839 H 1784.57 -1.45936 0.319836 0
M  V30 18840 H 1786.46 -3.81397 -1.79205 0
M  V30 18841 H 1785.13 -2.62272 -1.89724 0
M  V30 18842 H 1784.04 -3.73861 0.133714 0
M  V30 18843 H 1785.37 -4.91952 0.15625 0
M  V30 18844 N 1787.02 -0.295795 -1.54799 0
M  V30 18845 C 1788.3 0.367858 -1.9211 0
M  V30 18846 C 1788.68 1.72103 -1.22244 0
M  V30 18847 O 1788.03 2.25704 -0.356377 0
M  V30 18848 C 1788.24 0.487673 -3.45576 0
M  V30 18849 C 1789.59 0.760966 -4.17725 0
M  V30 18850 O 1790.61 0.571687 -3.51582 0
M  V30 18851 O 1789.47 1.12423 -5.34812 0
M  V30 18852 H 1786.56 0.204758 -0.801251 0
M  V30 18853 H 1789.11 -0.343471 -1.66188 0
M  V30 18854 H 1787.88 -0.463798 -3.88542 0
M  V30 18855 H 1787.5 1.24767 -3.77517 0
M  V30 18856 N 1788.5 1.57583 -0.0234236 0
M  V30 18857 C 1789.75 1.90742 0.655764 0
M  V30 18858 C 1790.06 0.900914 1.73617 0
M  V30 18859 O 1791.27 1.12355 2.47161 0
M  V30 18860 C 1789.73 3.38676 1.21763 0
M  V30 18861 C 1789.33 4.47674 0.170811 0
M  V30 18862 C 1791.08 3.80912 1.87366 0
M  V30 18863 C 1788.98 5.86702 0.743996 0
M  V30 18864 H 1787.91 0.711803 0.248701 0
M  V30 18865 H 1790.57 1.8329 -0.0877955 0
M  V30 18866 H 1788.95 3.41042 2.01262 0
M  V30 18867 H 1790.12 4.5686 -0.601298 0
M  V30 18868 H 1788.44 4.14606 -0.386127 0
M  V30 18869 H 1791.03 4.82133 2.31197 0
M  V30 18870 H 1791.38 3.15669 2.71402 0
M  V30 18871 H 1791.91 3.80945 1.14566 0
M  V30 18872 H 1788.65 6.55474 -0.0580976 0
M  V30 18873 H 1788.17 5.81133 1.48472 0
M  V30 18874 H 1789.85 6.35094 1.23549 0
M  V30 18875 N 1789.98 -0.249655 1.5561 0
M  V30 18876 C 1791.4 -0.598032 1.47972 0
M  V30 18877 C 1791.6 -1.88461 0.713067 0
M  V30 18878 O 1790.65 -2.51344 0.241314 0
M  V30 18879 C 1791.96 -0.703318 2.92359 0
M  V30 18880 C 1793.51 -0.795828 3.02714 0
M  V30 18881 C 1793.99 -0.932698 4.48402 0
M  V30 18882 N 1795.48 -0.997638 4.52329 0
M  V30 18883 C 1796.21 -1.12276 5.623 0
M  V30 18884 N 1795.71 -1.21359 6.82088 0
M  V30 18885 N 1797.5 -1.1557 5.50091 0
M  V30 18886 H 1789.65 0.594976 2.03897 0
M  V30 18887 H 1791.92 0.204956 0.925579 0
M  V30 18888 H 1791.62 0.171981 3.51279 0
M  V30 18889 H 1791.5 -1.57614 3.42692 0
M  V30 18890 H 1793.88 -1.66158 2.43876 0
M  V30 18891 H 1793.96 0.102087 2.55596 0
M  V30 18892 H 1793.61 -0.0715123 5.0785 0
M  V30 18893 H 1793.54 -1.84561 4.93198 0
M  V30 18894 H 1796.03 -0.938895 3.66051 0
M  V30 18895 H 1796.34 -1.30805 7.61649 0
M  V30 18896 H 1794.69 -1.18322 6.84854 0
M  V30 18897 H 1797.88 -1.0812 4.55442 0
M  V30 18898 H 1798.05 -1.24976 6.35834 0
M  V30 18899 N 1791.46 -1.48941 -0.515198 0
M  V30 18900 C 1792.69 -1.61396 -1.29457 0
M  V30 18901 C 1793.1 -0.279847 -1.86714 0
M  V30 18902 O 1792.46 0.732861 -1.67139 0
M  V30 18903 C 1792.51 -2.67194 -2.43494 0
M  V30 18904 O 1792.23 -3.95429 -1.88593 0
M  V30 18905 C 1793.73 -2.90224 -3.35089 0
M  V30 18906 H 1790.95 -0.543754 -0.393157 0
M  V30 18907 H 1793.49 -1.94875 -0.619996 0
M  V30 18908 H 1791.65 -2.36532 -3.06808 0
M  V30 18909 H 1792.06 -4.53593 -2.63351 0
M  V30 18910 H 1793.54 -3.68018 -4.1142 0
M  V30 18911 H 1794.01 -1.99601 -3.91224 0
M  V30 18912 H 1794.62 -3.22247 -2.77555 0
M  V30 18913 N 1792.94 0.765193 -1.37777 0
M  V30 18914 C 1794.35 1.06666 -1.1872 0
M  V30 18915 C 1794.55 2.01481 -0.0278636 0
M  V30 18916 O 1793.61 2.44514 0.630006 0
M  V30 18917 C 1794.92 1.65787 -2.50868 0
M  V30 18918 C 1796.47 1.78014 -2.57449 0
M  V30 18919 C 1796.94 2.40548 -3.89744 0
M  V30 18920 N 1798.43 2.47992 -3.91221 0
M  V30 18921 C 1799.17 2.97245 -4.9034 0
M  V30 18922 N 1798.67 3.46621 -5.99855 0
M  V30 18923 N 1800.46 2.96179 -4.77739 0
M  V30 18924 H 1792.61 0.135775 -2.11966 0
M  V30 18925 H 1794.87 0.122863 -0.940005 0
M  V30 18926 H 1794.58 1.03588 -3.36099 0
M  V30 18927 H 1794.45 2.65 -2.6843 0
M  V30 18928 H 1796.84 2.39345 -1.72621 0
M  V30 18929 H 1796.92 0.775388 -2.43765 0
M  V30 18930 H 1796.56 1.79855 -4.74989 0
M  V30 18931 H 1796.49 3.41643 -4.00734 0
M  V30 18932 H 1798.99 2.13056 -3.12114 0
M  V30 18933 H 1799.3 3.82625 -6.7143 0
M  V30 18934 H 1797.64 3.44709 -6.0349 0
M  V30 18935 H 1800.83 2.56909 -3.913 0
M  V30 18936 H 1801.01 3.34253 -5.55139 0
M  V30 18937 N 1794.41 1.22455 0.992094 0
M  V30 18938 C 1795.64 1.07438 1.76467 0
M  V30 18939 C 1796.05 -0.37795 1.85387 0
M  V30 18940 O 1795.39 -1.27367 1.32376 0
M  V30 18941 C 1795.46 1.61171 3.21347 0
M  V30 18942 C 1795.12 3.09794 3.35971 0
M  V30 18943 C 1796.12 4.07214 3.23222 0
M  V30 18944 C 1793.8 3.49266 3.60996 0
M  V30 18945 C 1795.8 5.42092 3.35284 0
M  V30 18946 C 1793.48 4.84292 3.72699 0
M  V30 18947 C 1794.48 5.80514 3.59851 0
M  V30 18948 O 1794.17 7.13088 3.71161 0
M  V30 18949 H 1793.9 0.377158 0.561006 0
M  V30 18950 H 1796.46 1.62527 1.25595 0
M  V30 18951 H 1794.69 1.00491 3.73415 0
M  V30 18952 H 1796.37 1.41804 3.80324 0
M  V30 18953 H 1797.14 3.78063 3.03798 0
M  V30 18954 H 1793.02 2.74895 3.70073 0
M  V30 18955 H 1796.56 6.17178 3.25172 0
M  V30 18956 H 1792.46 5.13124 3.91629 0
M  V30 18957 H 1793.23 7.20677 3.88029 0
M  V30 18958 N 1795.89 -1.18905 1.03437 0
M  V30 18959 C 1796.85 -2.20529 0.624461 0
M  V30 18960 C 1797.85 -1.57688 -0.314824 0
M  V30 18961 O 1799.04 -1.73906 -0.101082 0
M  V30 18962 C 1796.18 -3.40793 -0.0854166 0
M  V30 18963 H 1797.37 -2.58309 1.5237 0
M  V30 18964 H 1794.92 -1.32679 0.826189 0
M  V30 18965 H 1795.66 -3.08538 -0.998747 0
M  V30 18966 H 1795.44 -3.87642 0.589596 0
M  V30 18967 H 1796.93 -4.16055 -0.358938 0
M  V30 18968 N 1797.37 -0.812977 -1.35013 0
M  V30 18969 C 1798.62 -0.396345 -1.98583 0
M  V30 18970 C 1798.94 1.0381 -1.6448 0
M  V30 18971 O 1798.2 1.73604 -0.903344 0
M  V30 18972 C 1798.5 -0.534083 -3.53387 0
M  V30 18973 C 1798.16 -1.93278 -4.07375 0
M  V30 18974 C 1796.83 -2.31543 -4.21831 0
M  V30 18975 C 1799.18 -2.84756 -4.36535 0
M  V30 18976 C 1796.51 -3.60641 -4.62769 0
M  V30 18977 C 1798.86 -4.13308 -4.78915 0
M  V30 18978 C 1797.52 -4.51563 -4.91576 0
M  V30 18979 H 1796.79 -0.145033 -0.726668 0
M  V30 18980 H 1799.44 -1.035 -1.61121 0
M  V30 18981 H 1797.74 0.188002 -3.91349 0
M  V30 18982 H 1799.44 -0.192396 -4.00538 0
M  V30 18983 H 1796.03 -1.62551 -3.96579 0
M  V30 18984 H 1800.22 -2.56441 -4.24914 0
M  V30 18985 H 1795.47 -3.9012 -4.70761 0
M  V30 18986 H 1799.65 -4.84287 -5.00439 0
M  V30 18987 H 1797.27 -5.51649 -5.23056 0
M  V30 18988 O 1798.89 1.45155 -0.707981 0
M  V30 18989 H 1799.58 1.92071 -0.250705 0
M  V30 END ATOM
M  V30 BEGIN BOND
M  V30 END BOND
M  V30 END CTAB
M  END
$$$$
