drugbank_target|Q15375 Ephrin type-A receptor 7 (DB07970; DB12010)
 OpenBabel12092120473D

  0  0  0     0  0            999 V3000
M  V30 BEGIN CTAB
M  V30 COUNTS 15585 15761 0 0 0
M  V30 BEGIN ATOM
M  V30 1 H -0.908 1.98254 -0.117106 0
M  V30 2 N 0 1.576 0 0
M  V30 3 C 0.933 2.03868 1.02534 0
M  V30 4 C 1.911 0.928543 1.3348 0
M  V30 5 O 3.095 1.19667 1.45644 0
M  V30 6 C 0.222 2.43627 2.35294 0
M  V30 7 C -0.732 3.65373 2.2001 0
M  V30 8 S 0.101 5.13292 1.52614 0
M  V30 9 C 1.257 5.56322 2.86805 0
M  V30 10 H 1.49 2.90518 0.631377 0
M  V30 11 H -0.977 1.52953 0.210867 0
M  V30 12 H 0.981 2.67203 3.11629 0
M  V30 13 H -0.358 1.57376 2.7183 0
M  V30 14 H -1.165 3.90944 3.18086 0
M  V30 15 H -1.563 3.418 1.51819 0
M  V30 16 H 0.729 5.58782 3.83104 0
M  V30 17 H 1.672 6.56266 2.65933 0
M  V30 18 H 2.08 4.83886 2.90714 0
M  V30 19 N 1.4781 -0.272755 1.55222 0
M  V30 20 C 2.7241 -1.00581 1.761 0
M  V30 21 C 3.0571 -1.85932 0.560625 0
M  V30 22 O 2.3321 -1.89416 -0.441801 0
M  V30 23 C 2.6151 -1.88816 3.06628 0
M  V30 24 C 2.4681 -1.06457 4.37021 0
M  V30 25 C 3.7871 -2.8752 3.33197 0
M  V30 26 H 0.9061 -0.364244 0.640699 0
M  V30 27 H 3.5481 -0.278189 1.87952 0
M  V30 28 H 1.6981 -2.50856 2.96654 0
M  V30 29 H 3.3701 -0.464863 4.58952 0
M  V30 30 H 1.6131 -0.368043 4.32236 0
M  V30 31 H 2.2841 -1.71514 5.24678 0
M  V30 32 H 4.7601 -2.35615 3.42965 0
M  V30 33 H 3.6361 -3.46399 4.25792 0
M  V30 34 H 3.8971 -3.62657 2.52849 0
M  V30 35 N 2.9562 -1.48159 -0.537278 0
M  V30 36 C 4.2032 -1.55804 -1.29349 0
M  V30 37 C 4.5312 -0.228802 -1.9315 0
M  V30 38 O 3.7862 0.780242 -1.79473 0
M  V30 39 C 4.0852 -2.63956 -2.40961 0
M  V30 40 C 3.7512 -4.0662 -1.94861 0
M  V30 41 C 2.4132 -4.45452 -1.82006 0
M  V30 42 C 4.7652 -4.96055 -1.59933 0
M  V30 43 C 2.0932 -5.71531 -1.32547 0
M  V30 44 C 4.4452 -6.22617 -1.11939 0
M  V30 45 C 3.1092 -6.60312 -0.976951 0
M  V30 46 H 2.3792 -0.570129 -0.473322 0
M  V30 47 H 5.0262 -1.81845 -0.600372 0
M  V30 48 H 3.3312 -2.31747 -3.15912 0
M  V30 49 H 5.0282 -2.67089 -2.99107 0
M  V30 50 H 1.6182 -3.75949 -2.05815 0
M  V30 51 H 5.8022 -4.66738 -1.68728 0
M  V30 52 H 1.0582 -5.99468 -1.202 0
M  V30 53 H 5.2322 -6.91318 -0.839811 0
M  V30 54 H 2.8592 -7.57895 -0.591501 0
M  V30 55 N 4.4343 0.785586 -1.36625 0
M  V30 56 C 5.3663 1.90711 -1.2713 0
M  V30 57 C 6.3793 1.61688 -0.189986 0
M  V30 58 O 7.5683 1.72864 -0.445014 0
M  V30 59 C 4.6683 3.25611 -0.939713 0
M  V30 60 C 3.8413 3.82385 -2.12369 0
M  V30 61 C 2.9003 4.95732 -1.76456 0
M  V30 62 O 1.9263 5.12047 -2.48589 0
M  V30 63 N 3.1283 5.76258 -0.700492 0
M  V30 64 H 5.8933 1.99376 -2.23762 0
M  V30 65 H 3.4543 0.964041 -1.30069 0
M  V30 66 H 5.4463 3.98937 -0.680554 0
M  V30 67 H 4.0163 3.12538 -0.0624074 0
M  V30 68 H 3.2363 3.01001 -2.54543 0
M  V30 69 H 4.5243 4.17047 -2.9146 0
M  V30 70 H 3.9223 5.65609 -0.101624 0
M  V30 71 H 2.4793 6.4987 -0.501165 0
M  V30 72 N 5.9124 1.20967 1.01018 0
M  V30 73 C 7.1404 1.04956 1.78303 0
M  V30 74 C 7.5554 -0.400915 1.84494 0
M  V30 75 O 6.9124 -1.27826 1.30257 0
M  V30 76 C 6.9634 1.63403 3.22462 0
M  V30 77 O 6.6844 3.02775 3.16637 0
M  V30 78 C 8.1854 1.52432 4.16268 0
M  V30 79 H 5.4054 0.368858 0.560522 0
M  V30 80 H 7.9494 1.60193 1.27116 0
M  V30 81 H 6.1044 1.1227 3.70775 0
M  V30 82 H 6.5184 3.30626 4.07169 0
M  V30 83 H 7.9924 1.98078 5.15237 0
M  V30 84 H 8.4694 0.477875 4.36592 0
M  V30 85 H 9.0754 2.02787 3.73841 0
M  V30 86 N 7.3905 -1.2043 1.01659 0
M  V30 87 C 8.8065 -1.41852 0.731442 0
M  V30 88 C 9.0065 -1.89358 -0.688898 0
M  V30 89 O 8.0625 -2.06247 -1.45666 0
M  V30 90 C 9.3755 -2.44019 1.75714 0
M  V30 91 C 10.9235 -2.57785 1.77527 0
M  V30 92 C 11.3985 -3.63194 2.79023 0
M  V30 93 N 12.8895 -3.70678 2.77763 0
M  V30 94 C 13.6245 -4.51897 3.52954 0
M  V30 95 N 13.1205 -5.36921 4.37821 0
M  V30 96 N 14.9135 -4.4643 3.41551 0
M  V30 97 H 7.0645 -0.879093 1.93354 0
M  V30 98 H 9.3275 -0.448425 0.835236 0
M  V30 99 H 9.0335 -2.1611 2.77469 0
M  V30 100 H 8.9075 -3.43007 1.56927 0
M  V30 101 H 11.2945 -2.85023 0.764569 0
M  V30 102 H 11.3755 -1.58992 2.00387 0
M  V30 103 H 11.0195 -3.36699 3.80258 0
M  V30 104 H 10.9495 -4.61609 2.53425 0
M  V30 105 H 13.4405 -3.09944 2.16201 0
M  V30 106 H 13.7535 -5.95981 4.91962 0
M  V30 107 H 12.0985 -5.36424 4.41899 0
M  V30 108 H 15.2895 -3.79042 2.74672 0
M  V30 109 H 15.4625 -5.09491 4.00404 0
M  V30 110 N 8.8686 -0.792821 -1.36206 0
M  V30 111 C 10.0986 -0.378275 -2.03107 0
M  V30 112 C 10.5066 1.01119 -1.59911 0
M  V30 113 O 9.8496 1.66052 -0.785658 0
M  V30 114 C 9.9116 -0.366535 -3.57627 0
M  V30 115 C 9.5756 -1.70416 -4.24037 0
M  V30 116 C 10.5726 -2.6602 -4.46687 0
M  V30 117 C 8.2576 -1.98439 -4.6144 0
M  V30 118 C 10.2516 -3.8784 -5.05825 0
M  V30 119 C 7.9386 -3.20525 -5.20295 0
M  V30 120 C 8.9366 -4.15044 -5.42427 0
M  V30 121 O 8.6246 -5.34978 -6.00045 0
M  V30 122 H 8.3566 -0.153543 -0.658332 0
M  V30 123 H 10.9106 -1.07383 -1.75094 0
M  V30 124 H 9.1406 0.385539 -3.84773 0
M  V30 125 H 10.8296 0.0238088 -4.05893 0
M  V30 126 H 11.5956 -2.45658 -4.18183 0
M  V30 127 H 7.4746 -1.25686 -4.43536 0
M  V30 128 H 11.0186 -4.61628 -5.23015 0
M  V30 129 H 6.9156 -3.40764 -5.48225 0
M  V30 130 H 7.6836 -5.36088 -6.18508 0
M  V30 131 N 10.3467 1.47872 -0.545128 0
M  V30 132 C 11.7577 1.86384 -0.108581 0
M  V30 133 C 12.1087 1.45309 1.31832 0
M  V30 134 O 11.2337 0.850641 1.9898 0
M  V30 135 C 11.8287 3.38265 -0.190274 0
M  V30 136 C 10.3877 3.75914 0.191164 0
M  V30 137 C 9.5347 2.71926 -0.543273 0
M  V30 138 H 12.4857 1.39561 -0.755537 0
M  V30 139 H 12.5067 3.75831 0.594217 0
M  V30 140 H 12.0187 3.6813 -1.2289 0
M  V30 141 H 10.1197 3.51665 1.23136 0
M  V30 142 H 10.2327 4.78836 -0.158987 0
M  V30 143 H 8.5967 2.54697 0.0122495 0
M  V30 144 H 9.3797 3.04634 -1.58282 0
M  V30 145 N 11.8248 0.280983 1.55075 0
M  V30 146 C 13.0498 -0.340154 2.04592 0
M  V30 147 C 13.4748 -1.48246 1.15779 0
M  V30 148 O 12.8328 -1.80614 0.15761 0
M  V30 149 C 12.8808 -0.793104 3.5177 0
M  V30 150 O 11.9848 -1.89981 3.66034 0
M  V30 151 H 11.3258 -0.0694289 0.66036 0
M  V30 152 H 13.8558 0.416993 2.00306 0
M  V30 153 H 13.8658 -1.08729 3.93245 0
M  V30 154 H 12.5408 0.0426163 4.15878 0
M  V30 155 H 11.1178 -1.60771 3.36463 0
M  V30 156 N 13.3029 -1.57598 0.00835791 0
M  V30 157 C 14.5489 -1.92046 -0.670055 0
M  V30 158 C 14.9039 -0.88351 -1.70915 0
M  V30 159 O 14.1969 0.103223 -1.91322 0
M  V30 160 C 14.3909 -3.3101 -1.34787 0
M  V30 161 C 14.2199 -4.48126 -0.375945 0
M  V30 162 C 12.9899 -5.05297 0.0166914 0
M  V30 163 C 15.1879 -5.1303 0.361272 0
M  V30 164 N 13.1699 -6.05931 0.985952 0
M  V30 165 C 14.5409 -6.08571 1.18495 0
M  V30 166 C 16.5959 -4.9609 0.42421 0
M  V30 167 C 15.2989 -6.88996 2.06584 0
M  V30 168 C 17.3249 -5.77107 1.29236 0
M  V30 169 C 16.6869 -6.72248 2.10386 0
M  V30 170 H 12.7859 -0.75096 -0.218136 0
M  V30 171 H 15.3699 -1.94572 0.0706669 0
M  V30 172 H 13.5409 -3.29342 -2.05884 0
M  V30 173 H 15.2729 -3.52864 -1.98164 0
M  V30 174 H 12.0279 -4.72279 -0.353435 0
M  V30 175 H 12.4519 -6.60932 1.4662 0
M  V30 176 H 17.0939 -4.22378 -0.188915 0
M  V30 177 H 14.8119 -7.62028 2.6896 0
M  V30 178 H 18.3979 -5.66038 1.34508 0
M  V30 179 H 17.2779 -7.33846 2.76476 0
M  V30 180 N 14.781 0.264519 -1.55364 0
M  V30 181 C 16.03 0.992812 -1.75574 0
M  V30 182 C 16.343 1.87142 -0.568979 0
M  V30 183 O 17.549 2.63513 -0.653682 0
M  V30 184 C 16.005 1.81519 -3.10771 0
M  V30 185 C 15.613 0.984839 -4.37041 0
M  V30 186 C 17.357 2.53727 -3.40327 0
M  V30 187 C 15.264 1.80209 -5.63275 0
M  V30 188 H 14.194 0.374412 -0.65447 0
M  V30 189 H 16.845 0.248138 -1.81815 0
M  V30 190 H 15.227 2.60115 -2.98591 0
M  V30 191 H 16.401 0.242455 -4.60162 0
M  V30 192 H 14.716 0.37691 -4.14691 0
M  V30 193 H 17.313 3.15292 -4.3185 0
M  V30 194 H 17.656 3.24447 -2.60845 0
M  V30 195 H 18.189 1.82156 -3.53644 0
M  V30 196 H 14.928 1.13896 -6.45529 0
M  V30 197 H 14.448 2.52022 -5.44284 0
M  V30 198 H 16.127 2.37364 -6.01887 0
M  V30 199 N 16.2591 1.48442 0.529413 0
M  V30 200 C 17.5081 1.55742 1.28169 0
M  V30 201 C 17.8211 0.236511 1.94165 0
M  V30 202 O 19.0271 0.187761 2.7085 0
M  V30 203 C 17.4831 2.74667 2.32564 0
M  V30 204 C 17.0911 4.13402 1.72636 0
M  V30 205 C 18.8351 2.9128 3.08798 0
M  V30 206 C 16.7421 5.23587 2.74975 0
M  V30 207 H 15.6721 0.579796 0.48203 0
M  V30 208 H 18.3231 1.74776 0.559056 0
M  V30 209 H 16.7051 2.49067 3.07866 0
M  V30 210 H 17.8791 4.49022 1.03519 0
M  V30 211 H 16.1941 4.0191 1.08892 0
M  V30 212 H 18.7911 3.70767 3.85274 0
M  V30 213 H 19.1341 2.00757 3.64695 0
M  V30 214 H 19.6671 3.16782 2.40611 0
M  V30 215 H 16.4061 6.16076 2.23897 0
M  V30 216 H 15.9261 4.92454 3.42417 0
M  V30 217 H 17.6051 5.51724 3.37949 0
M  V30 218 N 17.7372 -0.778329 1.37039 0
M  V30 219 C 18.6672 -1.90546 1.34962 0
M  V30 220 C 19.6482 -1.68681 0.219274 0
M  V30 221 O 20.8332 -1.89634 0.418624 0
M  V30 222 C 17.9632 -3.27734 1.14925 0
M  V30 223 C 16.9172 -3.64147 2.24902 0
M  V30 224 C 16.2432 -4.99806 1.89996 0
M  V30 225 C 17.5432 -3.71579 3.67051 0
M  V30 226 H 19.2372 -1.92541 2.29277 0
M  V30 227 H 16.7832 -0.924948 1.10366 0
M  V30 228 H 18.7362 -4.06215 1.12104 0
M  V30 229 H 17.4602 -3.26154 0.170631 0
M  V30 230 H 16.1192 -2.8797 2.26868 0
M  V30 231 H 15.7672 -4.94759 0.906796 0
M  V30 232 H 15.4672 -5.25139 2.63634 0
M  V30 233 H 16.9912 -5.80694 1.88749 0
M  V30 234 H 18.4052 -4.40227 3.67251 0
M  V30 235 H 16.8022 -4.08405 4.39688 0
M  V30 236 H 17.8722 -2.72404 4.01154 0
M  V30 237 N 19.2153 -1.21501 -1.00376 0
M  V30 238 C 20.4553 -1.04444 -1.75701 0
M  V30 239 C 20.8193 0.414644 -1.87469 0
M  V30 240 O 22.0203 0.705763 -2.59369 0
M  V30 241 C 20.2913 -1.72389 -3.13077 0
M  V30 242 S 21.8503 -1.70604 -4.04277 0
M  V30 243 H 18.6683 -0.374249 -0.604532 0
M  V30 244 H 21.2703 -1.54267 -1.20091 0
M  V30 245 H 19.9743 -2.77734 -3.02146 0
M  V30 246 H 19.5053 -1.22751 -3.73759 0
M  V30 247 H 21.5203 -0.748012 -4.9053 0
M  V30 248 N 20.6934 1.19889 -1.02296 0
M  V30 249 C 21.9234 1.93109 -0.734332 0
M  V30 250 C 22.3314 1.75377 0.709889 0
M  V30 251 O 21.6744 1.06912 1.49384 0
M  V30 252 C 21.7364 3.45362 -0.99827 0
M  V30 253 C 21.4004 3.8686 -2.43287 0
M  V30 254 C 22.3974 3.92102 -3.41397 0
M  V30 255 C 20.0824 4.18668 -2.77529 0
M  V30 256 C 22.0764 4.28573 -4.71809 0
M  V30 257 C 19.7634 4.54813 -4.08153 0
M  V30 258 C 20.7614 4.59739 -5.05103 0
M  V30 259 O 20.4494 4.95051 -6.33388 0
M  V30 260 H 20.1814 0.620409 -0.268456 0
M  V30 261 H 22.7354 1.53144 -1.3688 0
M  V30 262 H 20.9654 3.85482 -0.306645 0
M  V30 263 H 22.6544 3.99814 -0.700234 0
M  V30 264 H 23.4204 3.67685 -3.1628 0
M  V30 265 H 19.2994 4.14021 -2.0275 0
M  V30 266 H 22.8434 4.32333 -5.4748 0
M  V30 267 H 18.7404 4.78687 -4.33047 0
M  V30 268 H 19.5084 5.1302 -6.37772 0
M  V30 269 N 22.1715 0.800033 1.35784 0
M  V30 270 C 23.4205 0.37387 1.98205 0
M  V30 271 C 23.7335 -1.06302 1.64193 0
M  V30 272 O 24.9395 -1.59198 2.19928 0
M  V30 273 C 23.3955 0.617532 3.54562 0
M  V30 274 C 23.0035 2.06654 3.9749 0
M  V30 275 C 24.7475 0.256401 4.23725 0
M  V30 276 C 22.6545 2.2563 5.46667 0
M  V30 277 H 21.5845 0.136055 0.741623 0
M  V30 278 H 24.2355 0.983166 1.54939 0
M  V30 279 H 22.6175 -0.0616248 3.95952 0
M  V30 280 H 23.7915 2.78296 3.67271 0
M  V30 281 H 22.1065 2.38691 3.41197 0
M  V30 282 H 24.7035 0.376318 5.33374 0
M  V30 283 H 25.0465 -0.796692 4.08606 0
M  V30 284 H 25.5795 0.889214 3.87734 0
M  V30 285 H 22.3185 3.2936 5.66747 0
M  V30 286 H 21.8385 1.58504 5.78478 0
M  V30 287 H 23.5175 2.06861 6.1304 0
M  V30 288 N 23.6496 -1.47581 0.552962 0
M  V30 289 C 24.8956 -2.03369 0.0355807 0
M  V30 290 C 25.2506 -1.42016 -1.29805 0
M  V30 291 O 24.5436 -0.564917 -1.83083 0
M  V30 292 C 24.7376 -3.57199 -0.119728 0
M  V30 293 C 24.5666 -4.33468 1.1973 0
M  V30 294 C 23.3366 -4.7353 1.76345 0
M  V30 295 C 25.5346 -4.68866 2.11351 0
M  V30 296 N 23.5166 -5.34426 3.02097 0
M  V30 297 C 24.8876 -5.3002 3.21681 0
M  V30 298 C 26.9426 -4.50795 2.11397 0
M  V30 299 C 25.6456 -5.75011 4.32151 0
M  V30 300 C 27.6716 -4.96782 3.20876 0
M  V30 301 C 27.0336 -5.57981 4.29926 0
M  V30 302 H 23.1326 -0.780058 0.0550806 0
M  V30 303 H 25.7166 -1.80117 0.739315 0
M  V30 304 H 23.8876 -3.80227 -0.792579 0
M  V30 305 H 25.6196 -3.99627 -0.638792 0
M  V30 306 H 22.3746 -4.55352 1.30196 0
M  V30 307 H 22.7986 -5.69421 3.66182 0
M  V30 308 H 27.4406 -4.0284 1.28372 0
M  V30 309 H 25.1586 -6.21959 5.15938 0
M  V30 310 H 28.7446 -4.84573 3.21994 0
M  V30 311 H 27.6246 -5.92918 5.13243 0
M  V30 312 N 25.1277 -0.289203 -1.54924 0
M  V30 313 C 26.0577 0.58549 -2.2604 0
M  V30 314 C 27.0387 1.14753 -1.25562 0
M  V30 315 O 28.2237 1.17906 -1.54311 0
M  V30 316 C 25.3537 1.76305 -2.99222 0
M  V30 317 C 24.3077 1.33191 -4.06748 0
M  V30 318 C 23.6337 2.5937 -4.6758 0
M  V30 319 C 24.9337 0.471775 -5.20165 0
M  V30 320 H 26.6277 -0.00763532 -2.99399 0
M  V30 321 H 24.1737 -0.00511229 -1.43999 0
M  V30 322 H 26.1267 2.38097 -3.47689 0
M  V30 323 H 24.8507 2.38223 -2.23422 0
M  V30 324 H 23.5097 0.737121 -3.59113 0
M  V30 325 H 23.1577 3.19576 -3.88433 0
M  V30 326 H 22.8577 2.31228 -5.40192 0
M  V30 327 H 24.3817 3.21985 -5.18804 0
M  V30 328 H 25.7957 0.995056 -5.64599 0
M  V30 329 H 24.1927 0.284639 -5.99425 0
M  V30 330 H 25.2627 -0.506041 -4.82252 0
M  V30 331 N 26.6058 1.57591 -0.0167156 0
M  V30 332 C 27.5358 2.12496 0.967858 0
M  V30 333 C 28.5168 1.03807 1.34752 0
M  V30 334 O 29.7018 1.31577 1.42833 0
M  V30 335 C 26.8318 2.64194 2.25431 0
M  V30 336 C 25.7858 3.77559 2.01576 0
M  V30 337 C 25.1118 4.15636 3.36379 0
M  V30 338 C 26.4118 5.04151 1.36489 0
M  V30 339 H 28.1058 2.95013 0.510643 0
M  V30 340 H 25.6518 1.41915 0.244181 0
M  V30 341 H 27.6048 3.01236 2.94678 0
M  V30 342 H 26.3288 1.78821 2.73296 0
M  V30 343 H 24.9878 3.40937 1.34751 0
M  V30 344 H 24.6358 3.27263 3.81979 0
M  V30 345 H 24.3358 4.92022 3.21229 0
M  V30 346 H 25.8598 4.5525 4.06915 0
M  V30 347 H 27.2738 5.38857 1.95718 0
M  V30 348 H 25.6708 5.85453 1.31776 0
M  V30 349 H 26.7408 4.83733 0.336219 0
M  V30 350 N 28.0839 -0.256276 1.55502 0
M  V30 351 C 29.4999 -0.604325 1.47716 0
M  V30 352 C 29.6999 -1.88763 0.705039 0
M  V30 353 O 28.7559 -2.51445 0.230613 0
M  V30 354 C 30.0689 -0.715756 2.92057 0
M  V30 355 C 31.6169 -0.808706 3.02372 0
M  V30 356 C 32.0919 -0.951777 4.48001 0
M  V30 357 N 33.5829 -1.01688 4.519 0
M  V30 358 C 34.3179 -1.14668 5.61817 0
M  V30 359 N 33.8139 -1.24261 6.81565 0
M  V30 360 N 35.6069 -1.1791 5.49594 0
M  V30 361 H 27.7579 0.586291 2.04148 0
M  V30 362 H 30.0209 0.201015 0.926443 0
M  V30 363 H 29.7269 0.157027 3.51349 0
M  V30 364 H 29.6009 -1.59071 3.42018 0
M  V30 365 H 31.9879 -1.67195 2.43166 0
M  V30 366 H 32.0689 0.0912063 2.55637 0
M  V30 367 H 31.7129 -0.0931291 5.07815 0
M  V30 368 H 31.6429 -1.86659 4.92408 0
M  V30 369 H 34.1339 -0.954468 3.65648 0
M  V30 370 H 34.4469 -1.34046 7.61086 0
M  V30 371 H 32.7919 -1.21236 6.84344 0
M  V30 372 H 35.9829 -1.10057 4.54978 0
M  V30 373 H 36.1559 -1.27681 6.35296 0
M  V30 374 N 29.562 -1.4872 -0.521534 0
M  V30 375 C 30.809 -1.57168 -1.27689 0
M  V30 376 C 31.137 -0.249275 -1.92896 0
M  V30 377 O 30.392 0.761162 -1.80291 0
M  V30 378 C 30.691 -2.66497 -2.38148 0
M  V30 379 C 30.357 -4.08664 -1.90538 0
M  V30 380 C 29.019 -4.47357 -1.77271 0
M  V30 381 C 31.371 -4.97724 -1.54663 0
M  V30 382 C 28.699 -5.72905 -1.26478 0
M  V30 383 C 31.051 -6.2377 -1.05329 0
M  V30 384 C 29.715 -6.61311 -0.906861 0
M  V30 385 H 28.985 -0.575117 -0.467249 0
M  V30 386 H 31.632 -1.82472 -0.581051 0
M  V30 387 H 29.937 -2.35085 -3.13437 0
M  V30 388 H 31.634 -2.70246 -2.96257 0
M  V30 389 H 28.224 -3.78111 -2.01816 0
M  V30 390 H 32.408 -4.68501 -1.63768 0
M  V30 391 H 27.664 -6.00709 -1.13835 0
M  V30 392 H 31.838 -6.9217 -0.76644 0
M  V30 393 H 29.465 -7.5848 -0.511083 0
M  V30 394 N 31.0401 0.771051 -1.3745 0
M  V30 395 C 32.0031 1.86598 -1.33093 0
M  V30 396 C 33.0031 1.59076 -0.234845 0
M  V30 397 O 34.1931 1.67145 -0.490732 0
M  V30 398 C 31.3251 3.23747 -1.06773 0
M  V30 399 H 32.5181 1.91873 -2.30488 0
M  V30 400 H 30.0711 0.970876 -1.2249 0
M  V30 401 H 30.8061 3.24148 -0.099129 0
M  V30 402 H 30.5911 3.45115 -1.86112 0
M  V30 403 H 32.0811 4.03824 -1.06377 0
M  V30 404 N 32.5182 1.22032 0.997298 0
M  V30 405 C 33.4682 0.953838 2.07089 0
M  V30 406 C 34.4522 -0.0938669 1.60626 0
M  V30 407 O 35.6442 0.116078 1.76619 0
M  V30 408 C 32.7732 0.528726 3.39204 0
M  V30 409 C 31.8592 1.61092 3.92314 0
M  V30 410 N 32.2502 2.83768 4.18699 0
M  V30 411 C 30.5482 1.48158 4.20672 0
M  V30 412 C 31.2492 3.53715 4.61802 0
M  V30 413 N 30.2252 2.81174 4.65233 0
M  V30 414 H 34.0272 1.88577 2.25424 0
M  V30 415 H 31.5412 1.11719 1.17867 0
M  V30 416 H 33.5382 0.31915 4.15677 0
M  V30 417 H 32.1982 -0.39635 3.22272 0
M  V30 418 H 33.2092 3.20238 4.07023 0
M  V30 419 H 29.8862 0.622369 4.12835 0
M  V30 420 H 31.2762 4.58793 4.90875 0
M  V30 421 N 33.9963 -1.19345 1.0293 0
M  V30 422 C 35.2243 -1.92997 0.745644 0
M  V30 423 C 35.6393 -1.75519 -0.695589 0
M  V30 424 O 34.9963 -1.07737 -1.47306 0
M  V30 425 C 35.0473 -3.44741 1.08792 0
M  V30 426 O 34.7683 -3.61658 2.47256 0
M  V30 427 C 36.2693 -4.35515 0.827129 0
M  V30 428 H 33.4893 -0.613042 0.272801 0
M  V30 429 H 36.0333 -1.51473 1.3739 0
M  V30 430 H 34.1883 -3.84097 0.504832 0
M  V30 431 H 34.6023 -4.55514 2.60015 0
M  V30 432 H 36.0763 -5.40589 1.11658 0
M  V30 433 H 36.5533 -4.38552 -0.238436 0
M  V30 434 H 37.1593 -4.01841 1.39297 0
M  V30 435 N 35.4744 -0.807222 -1.35358 0
M  V30 436 C 36.7224 -0.387122 -1.98358 0
M  V30 437 C 37.0434 1.04942 -1.64354 0
M  V30 438 O 36.3134 1.72615 -0.926339 0
M  V30 439 H 34.8934 -0.140154 -0.733734 0
M  V30 440 H 37.5554 -1.0332 -1.6526 0
M  V30 441 H 36.6514 -0.493352 -3.08176 0
M  V30 442 N 36.9525 1.47285 -0.560781 0
M  V30 443 C 37.8625 2.33846 0.187954 0
M  V30 444 C 38.8785 1.48412 0.908293 0
M  V30 445 O 40.0545 1.81332 0.876388 0
M  V30 446 C 37.1195 3.25178 1.2025 0
M  V30 447 C 36.1805 4.26504 0.489208 0
M  V30 448 C 35.4135 5.13472 1.45542 0
M  V30 449 O 35.6365 5.02959 2.6905 0
M  V30 450 O 34.5705 5.93902 0.977963 0
M  V30 451 H 38.3965 2.99177 -0.522177 0
M  V30 452 H 35.9815 1.45903 -0.321364 0
M  V30 453 H 37.8635 3.81584 1.78805 0
M  V30 454 H 36.5385 2.6247 1.89449 0
M  V30 455 H 35.4455 3.73847 -0.137627 0
M  V30 456 H 36.7785 4.91935 -0.161399 0
M  V30 457 N 38.4306 0.297415 1.54768 0
M  V30 458 C 39.3936 -0.567375 2.22066 0
M  V30 459 C 40.3936 -1.06409 1.20556 0
M  V30 460 O 41.5836 -0.960691 1.45315 0
M  V30 461 C 38.7156 -1.78517 2.90421 0
M  V30 462 H 39.9086 0.0205534 2.99893 0
M  V30 463 H 37.4616 0.0482163 1.56226 0
M  V30 464 H 38.1966 -2.41303 2.16664 0
M  V30 465 H 37.9816 -1.43669 3.64831 0
M  V30 466 H 39.4716 -2.39964 3.41771 0
M  V30 467 N 39.9087 -1.5758 0.0250728 0
M  V30 468 C 40.8407 -2.06869 -0.986796 0
M  V30 469 C 41.8537 -0.991332 -1.29137 0
M  V30 470 O 43.0427 -1.26761 -1.25674 0
M  V30 471 C 40.1427 -2.47486 -2.31525 0
M  V30 472 C 39.3157 -3.78253 -2.19643 0
M  V30 473 C 38.3747 -4.05464 -3.35388 0
M  V30 474 O 37.4007 -4.75774 -3.12454 0
M  V30 475 N 38.6027 -3.55321 -4.59051 0
M  V30 476 H 41.3677 -2.94302 -0.566276 0
M  V30 477 H 38.9287 -1.6109 -0.161776 0
M  V30 478 H 40.9207 -2.62785 -3.07776 0
M  V30 479 H 39.4907 -1.65441 -2.65232 0
M  V30 480 H 38.7107 -3.7279 -1.28144 0
M  V30 481 H 39.9987 -4.63936 -2.08903 0
M  V30 482 H 39.3967 -2.98431 -4.80578 0
M  V30 483 H 37.9537 -3.75905 -5.32483 0
M  V30 484 N 41.3868 0.248026 -1.55636 0
M  V30 485 C 42.3498 1.29044 -1.89421 0
M  V30 486 C 43.3498 1.41134 -0.770581 0
M  V30 487 O 44.5398 1.39854 -1.03858 0
M  V30 488 C 41.6718 2.66831 -2.12165 0
M  V30 489 H 42.8648 1.00305 -2.82629 0
M  V30 490 H 40.4178 0.487265 -1.48511 0
M  V30 491 H 41.1528 3.00711 -1.21422 0
M  V30 492 H 40.9378 2.59438 -2.93997 0
M  V30 493 H 42.4278 3.42103 -2.3949 0
M  V30 494 N 42.8649 1.48995 0.513639 0
M  V30 495 C 43.8279 1.64229 1.59879 0
M  V30 496 C 44.8279 0.514696 1.5234 0
M  V30 497 O 46.0179 0.78087 1.55718 0
M  V30 498 C 43.1499 1.62783 2.99524 0
M  V30 499 H 44.3429 2.61004 1.47705 0
M  V30 500 H 41.8959 1.37837 0.736936 0
M  V30 501 H 42.6309 0.675461 3.17188 0
M  V30 502 H 42.4159 2.4466 3.06404 0
M  V30 503 H 43.9059 1.76669 3.78388 0
M  V30 504 N 44.343 -0.763751 1.37857 0
M  V30 505 C 45.29 -1.87726 1.34267 0
M  V30 506 C 46.26 -1.64807 0.206879 0
M  V30 507 O 47.445 -1.86613 0.397508 0
M  V30 508 C 44.585 -3.24896 1.16346 0
M  V30 509 C 43.698 -3.59716 2.39225 0
M  V30 510 C 42.833 -4.86137 2.14114 0
M  V30 511 C 41.872 -5.13711 3.32817 0
M  V30 512 N 41.009 -6.31323 3.07206 0
M  V30 513 H 45.849 -1.90129 2.29466 0
M  V30 514 H 43.386 -0.929433 1.14017 0
M  V30 515 H 45.344 -4.04036 1.03975 0
M  V30 516 H 43.974 -3.21847 0.247909 0
M  V30 517 H 43.026 -2.75498 2.62307 0
M  V30 518 H 44.338 -3.76027 3.27728 0
M  V30 519 H 43.492 -5.73198 1.9882 0
M  V30 520 H 42.231 -4.71945 1.22961 0
M  V30 521 H 41.236 -4.25123 3.48641 0
M  V30 522 H 42.461 -5.29807 4.24832 0
M  V30 523 H 40.407 -6.18474 2.1869 0
M  V30 524 H 40.324 -6.48087 3.89254 0
M  V30 525 H 41.592 -7.213 2.95546 0
M  V30 526 N 45.8211 -1.22559 -0.990812 0
M  V30 527 C 46.7311 -1.01394 -2.11557 0
M  V30 528 C 47.7471 0.0383962 -1.73958 0
M  V30 529 O 48.9231 -0.154787 -2.00804 0
M  V30 530 C 45.9881 -0.596569 -3.41529 0
M  V30 531 C 45.0491 -1.72276 -3.93217 0
M  V30 532 C 44.2821 -1.32521 -5.16985 0
M  V30 533 O 44.5051 -0.204909 -5.70032 0
M  V30 534 O 43.4391 -2.14247 -5.62478 0
M  V30 535 H 47.2651 -1.95633 -2.32296 0
M  V30 536 H 44.8501 -1.01172 -1.0993 0
M  V30 537 H 46.7321 -0.374263 -4.19735 0
M  V30 538 H 45.4071 0.316939 -3.22145 0
M  V30 539 H 44.3141 -1.99961 -3.16174 0
M  V30 540 H 45.6471 -2.61421 -4.17037 0
M  V30 541 N 47.2992 1.18797 -1.03562 0
M  V30 542 C 48.5452 1.8893 -0.737113 0
M  V30 543 C 48.8782 1.79837 0.732956 0
M  V30 544 O 48.1532 1.19525 1.5344 0
M  V30 545 C 48.4362 3.39607 -1.19745 0
M  V30 546 C 48.2892 3.57537 -2.72924 0
M  V30 547 C 49.6082 4.33069 -0.783526 0
M  V30 548 H 46.7272 0.686057 -0.269249 0
M  V30 549 H 49.3692 1.39797 -1.28673 0
M  V30 550 H 47.5192 3.81583 -0.729855 0
M  V30 551 H 49.1912 3.24688 -3.27682 0
M  V30 552 H 47.4342 3.00363 -3.12993 0
M  V30 553 H 48.1052 4.63238 -3.00191 0
M  V30 554 H 50.5812 3.98846 -1.18581 0
M  V30 555 H 49.4572 5.3707 -1.13343 0
M  V30 556 H 49.7182 4.40986 0.313681 0
M  V30 557 N 48.7773 0.814389 1.34928 0
M  V30 558 C 49.7073 0.244827 2.32213 0
M  V30 559 C 50.6883 -0.634024 1.57842 0
M  V30 560 O 51.8733 -0.562676 1.8587 0
M  V30 561 C 49.0033 -0.601106 3.42058 0
M  V30 562 C 47.9573 0.179896 4.27622 0
M  V30 563 C 47.2833 -0.788237 5.28858 0
M  V30 564 C 48.5833 1.38329 5.03649 0
M  V30 565 H 50.2773 1.05763 2.80097 0
M  V30 566 H 47.8233 0.510029 1.34665 0
M  V30 567 H 49.7763 -1.00968 4.09125 0
M  V30 568 H 48.5003 -1.44688 2.92802 0
M  V30 569 H 47.1593 0.569739 3.62146 0
M  V30 570 H 46.8073 -1.62973 4.75866 0
M  V30 571 H 46.5073 -0.269942 5.8698 0
M  V30 572 H 48.0313 -1.19485 5.98795 0
M  V30 573 H 49.4453 1.04918 5.63618 0
M  V30 574 H 47.8423 1.83662 5.71304 0
M  V30 575 H 48.9123 2.16592 4.33839 0
M  V30 576 N 50.2554 -1.46986 0.568584 0
M  V30 577 C 51.1854 -2.32946 -0.160753 0
M  V30 578 C 52.1664 -1.44487 -0.897631 0
M  V30 579 O 53.3514 -1.73327 -0.875867 0
M  V30 580 C 50.4814 -3.26494 -1.18403 0
M  V30 581 C 49.4354 -4.24282 -0.562895 0
M  V30 582 C 48.7614 -5.07236 -1.69163 0
M  V30 583 C 50.0614 -5.19989 0.490761 0
M  V30 584 H 51.7554 -2.94175 0.556916 0
M  V30 585 H 49.3014 -1.4146 0.26927 0
M  V30 586 H 51.2544 -3.85477 -1.70251 0
M  V30 587 H 49.9784 -2.63343 -1.93179 0
M  V30 588 H 48.6374 -3.66541 -0.0656164 0
M  V30 589 H 48.2854 -4.4048 -2.42871 0
M  V30 590 H 47.9854 -5.7345 -1.28174 0
M  V30 591 H 49.5094 -5.6908 -2.21314 0
M  V30 592 H 50.9234 -5.73271 0.0579047 0
M  V30 593 H 49.3204 -5.94469 0.820165 0
M  V30 594 H 50.3904 -4.64777 1.3824 0
M  V30 595 N 51.7335 -0.305618 -1.54608 0
M  V30 596 C 52.6635 0.561482 -2.26649 0
M  V30 597 C 53.6445 1.13415 -1.26772 0
M  V30 598 O 54.8295 1.16262 -1.55553 0
M  V30 599 C 51.9595 1.73122 -3.01075 0
M  V30 600 C 50.9135 1.2887 -4.08138 0
M  V30 601 C 50.2395 2.54396 -4.70305 0
M  V30 602 C 51.5395 0.416578 -5.20636 0
M  V30 603 H 53.2335 -0.0393902 -2.99374 0
M  V30 604 H 50.7795 -0.020385 -1.43986 0
M  V30 605 H 52.7325 2.34396 -3.50195 0
M  V30 606 H 51.4565 2.3584 -2.25936 0
M  V30 607 H 50.1155 0.698991 -3.59875 0
M  V30 608 H 49.7635 3.15439 -3.918 0
M  V30 609 H 49.4635 2.25486 -5.42614 0
M  V30 610 H 50.9875 3.16464 -5.2219 0
M  V30 611 H 52.4015 0.935116 -5.65622 0
M  V30 612 H 50.7985 0.221046 -5.99693 0
M  V30 613 H 51.8685 -0.557162 -4.81688 0
M  V30 614 N 53.2116 1.57565 -0.0334293 0
M  V30 615 C 54.4886 1.83282 0.683163 0
M  V30 616 C 54.8686 0.91823 1.90084 0
M  V30 617 O 54.2166 -0.025113 2.28486 0
M  V30 618 C 54.4266 3.32599 1.0573 0
M  V30 619 C 55.7746 3.99179 1.44711 0
M  V30 620 O 56.7986 3.3712 1.15015 0
M  V30 621 O 55.6576 5.08565 2.0006 0
M  V30 622 H 52.7516 0.755869 0.335546 0
M  V30 623 H 55.2976 1.69589 -0.0614402 0
M  V30 624 H 54.0696 3.90834 0.190828 0
M  V30 625 H 53.6926 3.51415 1.85993 0
M  V30 626 N 54.6897 -0.239769 1.55765 0
M  V30 627 C 55.9147 -0.988373 1.82335 0
M  V30 628 C 56.3397 -1.77886 0.611421 0
M  V30 629 O 55.6977 -1.75889 -0.439639 0
M  V30 630 C 55.7457 -1.89627 3.06715 0
M  V30 631 O 54.8497 -2.98904 2.84131 0
M  V30 632 H 54.1907 -0.280858 0.601677 0
M  V30 633 H 56.7207 -0.258597 2.02959 0
M  V30 634 H 56.7307 -2.30957 3.36338 0
M  V30 635 H 55.4057 -1.31511 3.9456 0
M  V30 636 H 53.9827 -2.61651 2.65694 0
M  V30 637 N 56.1678 -1.49265 -0.50573 0
M  V30 638 C 57.1148 -1.65585 -1.6078 0
M  V30 639 C 58.0848 -0.497396 -1.58478 0
M  V30 640 O 59.2698 -0.72385 -1.76536 0
M  V30 641 C 56.4098 -1.72408 -2.98948 0
M  V30 642 C 55.5228 -2.99525 -3.11301 0
M  V30 643 C 54.6578 -2.97356 -4.40174 0
M  V30 644 C 53.6968 -4.19074 -4.46143 0
M  V30 645 N 52.8338 -4.14841 -5.66437 0
M  V30 646 H 57.6738 -2.59688 -1.46172 0
M  V30 647 H 55.2108 -1.28761 -0.711261 0
M  V30 648 H 57.1688 -1.74344 -3.79025 0
M  V30 649 H 55.7988 -0.817753 -3.1227 0
M  V30 650 H 54.8508 -3.07222 -2.24318 0
M  V30 651 H 56.1628 -3.89518 -3.11572 0
M  V30 652 H 55.3168 -2.97829 -5.28567 0
M  V30 653 H 54.0558 -2.05133 -4.42461 0
M  V30 654 H 53.0608 -4.1885 -3.56153 0
M  V30 655 H 54.2858 -5.12483 -4.45575 0
M  V30 656 H 52.2318 -3.25453 -5.69575 0
M  V30 657 H 52.1488 -4.98564 -5.68304 0
M  V30 658 H 53.4168 -4.1941 -6.57051 0
M  V30 659 N 57.6459 0.756429 -1.3826 0
M  V30 660 C 58.6089 1.85176 -1.35065 0
M  V30 661 C 59.6089 1.58818 -0.251703 0
M  V30 662 O 60.7989 1.66615 -0.508433 0
M  V30 663 C 57.9309 3.22596 -1.10201 0
M  V30 664 H 59.1239 1.89417 -2.3251 0
M  V30 665 H 56.6769 0.95783 -1.23512 0
M  V30 666 H 57.4119 3.24025 -0.133504 0
M  V30 667 H 57.1969 3.43122 -1.89762 0
M  V30 668 H 58.6869 4.02673 -1.10654 0
M  V30 669 N 59.124 1.23083 0.984299 0
M  V30 670 C 60.056 0.96636 2.07832 0
M  V30 671 C 61.069 -0.0582135 1.62696 0
M  V30 672 O 62.258 0.176843 1.77622 0
M  V30 673 C 59.358 0.433397 3.36117 0
M  V30 674 C 58.531 1.51722 4.10243 0
M  V30 675 C 57.59 0.989821 5.16807 0
M  V30 676 O 56.616 1.67794 5.43906 0
M  V30 677 N 57.818 -0.184367 5.80207 0
M  V30 678 H 60.583 1.90824 2.31098 0
M  V30 679 H 58.144 1.13888 1.1507 0
M  V30 680 H 60.136 0.065699 4.04647 0
M  V30 681 H 58.706 -0.413806 3.09849 0
M  V30 682 H 57.926 2.05786 3.36223 0
M  V30 683 H 59.214 2.24619 4.56534 0
M  V30 684 H 58.612 -0.760062 5.60571 0
M  V30 685 H 57.169 -0.493366 6.4993 0
M  V30 686 N 60.6021 -1.18246 1.0419 0
M  V30 687 C 61.5341 -2.2142 0.592088 0
M  V30 688 C 62.5471 -1.59233 -0.338909 0
M  V30 689 O 63.7361 -1.78002 -0.133231 0
M  V30 690 C 60.8361 -3.38546 -0.154854 0
M  V30 691 C 60.0091 -4.3031 0.784328 0
M  V30 692 C 59.0681 -5.26138 0.0804583 0
M  V30 693 O 58.0941 -5.64738 0.711292 0
M  V30 694 N 59.2961 -5.68261 -1.18574 0
M  V30 695 H 62.0611 -2.60636 1.47949 0
M  V30 696 H 59.6221 -1.33044 0.922544 0
M  V30 697 H 61.6141 -3.99678 -0.635606 0
M  V30 698 H 60.1841 -2.98012 -0.943811 0
M  V30 699 H 59.4041 -3.66764 1.44491 0
M  V30 700 H 60.6921 -4.8852 1.42218 0
M  V30 701 H 60.0901 -5.38957 -1.71876 0
M  V30 702 H 58.6471 -6.31584 -1.61074 0
M  V30 703 N 62.0802 -0.821533 -1.34494 0
M  V30 704 C 63.3082 -0.421884 -2.02553 0
M  V30 705 C 63.7232 0.971745 -1.61872 0
M  V30 706 O 63.0802 1.62864 -0.823496 0
M  V30 707 C 63.1312 -0.51285 -3.57844 0
M  V30 708 O 62.8522 -1.85155 -3.97051 0
M  V30 709 C 64.3532 -0.107921 -4.43169 0
M  V30 710 H 61.5732 -0.169482 -0.649243 0
M  V30 711 H 64.1172 -1.1093 -1.71798 0
M  V30 712 H 62.2722 0.126474 -3.87193 0
M  V30 713 H 62.6862 -1.82482 -4.91732 0
M  V30 714 H 64.1602 -0.222657 -5.51551 0
M  V30 715 H 64.6372 0.948401 -4.28838 0
M  V30 716 H 65.2432 -0.720989 -4.19144 0
M  V30 717 N 63.5583 1.46682 -0.576371 0
M  V30 718 C 64.4683 2.34032 0.163141 0
M  V30 719 C 65.4843 1.49367 0.892501 0
M  V30 720 O 66.6603 1.82252 0.857106 0
M  V30 721 C 63.7253 3.26435 1.16795 0
M  V30 722 C 62.7863 4.26998 0.443944 0
M  V30 723 C 62.0193 5.14986 1.40088 0
M  V30 724 O 62.2423 5.05785 2.637 0
M  V30 725 O 61.1763 5.94906 0.914917 0
M  V30 726 H 65.0023 2.98607 -0.55388 0
M  V30 727 H 62.5873 1.45554 -0.336821 0
M  V30 728 H 64.4693 3.83459 1.74748 0
M  V30 729 H 63.1443 2.64465 1.86655 0
M  V30 730 H 62.0513 3.7368 -0.177271 0
M  V30 731 H 63.3843 4.91736 -0.213566 0
M  V30 732 N 65.0364 0.313813 1.54444 0
M  V30 733 C 65.9664 -0.549454 2.26943 0
M  V30 734 C 66.9474 -1.12741 1.27372 0
M  V30 735 O 68.1324 -1.15436 1.56167 0
M  V30 736 C 65.2624 -1.71523 3.01989 0
M  V30 737 C 64.2164 -1.26703 4.08816 0
M  V30 738 C 63.5424 -2.51898 4.71647 0
M  V30 739 C 64.8424 -0.388962 5.2085 0
M  V30 740 H 66.5364 0.0552661 2.99349 0
M  V30 741 H 64.0824 0.0280207 1.43973 0
M  V30 742 H 66.0354 -2.32535 3.51433 0
M  V30 743 H 64.7594 -2.34639 2.27183 0
M  V30 744 H 63.4184 -0.679896 3.6024 0
M  V30 745 H 63.0664 -3.13356 3.93468 0
M  V30 746 H 62.7664 -2.22605 5.43802 0
M  V30 747 H 64.2904 -3.1369 5.23861 0
M  V30 748 H 65.7044 -0.905107 5.6611 0
M  V30 749 H 64.1014 -0.18924 5.99802 0
M  V30 750 H 65.1714 0.582699 4.81386 0
M  V30 751 N 66.5145 -1.57545 0.0417849 0
M  V30 752 C 67.4245 -2.14451 -0.951213 0
M  V30 753 C 68.4405 -1.09992 -1.34825 0
M  V30 754 O 69.6165 -1.42114 -1.42708 0
M  V30 755 C 66.6815 -2.67063 -2.21084 0
M  V30 756 C 65.7425 -3.86284 -1.87304 0
M  V30 757 C 64.9755 -4.36378 -3.07261 0
M  V30 758 O 65.1985 -3.85587 -4.20332 0
M  V30 759 O 64.1325 -5.28077 -2.88822 0
M  V30 760 H 67.9585 -2.99601 -0.497287 0
M  V30 761 H 65.5435 -1.48317 -0.179567 0
M  V30 762 H 67.4255 -3.00914 -2.95006 0
M  V30 763 H 66.1005 -1.84989 -2.65633 0
M  V30 764 H 65.0075 -3.57338 -1.10727 0
M  V30 765 H 66.3405 -4.6956 -1.47562 0
M  V30 766 N 67.9926 0.231505 -1.5589 0
M  V30 767 C 69.2386 0.954429 -1.79617 0
M  V30 768 C 69.5936 1.82367 -0.613199 0
M  V30 769 O 68.8866 1.87524 0.393094 0
M  V30 770 C 69.0806 1.83577 -3.0665 0
M  V30 771 C 68.9096 1.05334 -4.3719 0
M  V30 772 C 67.6796 0.75225 -4.99669 0
M  V30 773 C 69.8776 0.423444 -5.12554 0
M  V30 774 N 67.8596 -0.052627 -6.13877 0
M  V30 775 C 69.2306 -0.245287 -6.19515 0
M  V30 776 C 71.2856 0.335466 -4.96769 0
M  V30 777 C 69.9886 -0.993566 -7.12405 0
M  V30 778 C 72.0146 -0.399321 -5.9005 0
M  V30 779 C 71.3766 -1.05663 -6.9643 0
M  V30 780 H 67.4756 0.329846 -0.709031 0
M  V30 781 H 70.0596 0.226172 -1.93382 0
M  V30 782 H 68.2306 2.53592 -2.94186 0
M  V30 783 H 69.9626 2.49541 -3.18608 0
M  V30 784 H 66.7176 1.06783 -4.61405 0
M  V30 785 H 67.1416 -0.443609 -6.75545 0
M  V30 786 H 71.7836 0.829311 -4.14587 0
M  V30 787 H 69.5016 -1.49896 -7.94076 0
M  V30 788 H 73.0876 -0.468265 -5.79913 0
M  V30 789 H 71.9676 -1.61612 -7.67366 0
M  V30 790 N 69.4707 1.49531 0.497807 0
M  V30 791 C 70.7197 1.58426 1.24837 0
M  V30 792 C 71.0327 0.277643 1.93619 0
M  V30 793 O 72.2387 0.24517 2.70391 0
M  V30 794 C 70.6947 2.79538 2.26686 0
M  V30 795 C 70.3027 4.16971 1.63828 0
M  V30 796 C 72.0467 2.97764 3.0255 0
M  V30 797 C 69.9537 5.29301 2.63807 0
M  V30 798 H 68.8837 0.58989 0.469623 0
M  V30 799 H 71.5347 1.75923 0.521857 0
M  V30 800 H 69.9167 2.55542 3.02514 0
M  V30 801 H 71.0907 4.51116 0.939711 0
M  V30 802 H 69.4057 4.04129 1.00342 0
M  V30 803 H 72.0027 3.78856 3.77323 0
M  V30 804 H 72.3457 2.08448 3.60354 0
M  V30 805 H 72.8787 3.21815 2.33838 0
M  V30 806 H 69.6177 6.20687 2.10779 0
M  V30 807 H 69.1377 4.99606 3.31894 0
M  V30 808 H 70.8167 5.58768 3.2617 0
M  V30 809 N 70.9488 -0.749086 1.3866 0
M  V30 810 C 72.1738 -1.54344 1.38538 0
M  V30 811 C 72.5988 -1.88088 -0.0216655 0
M  V30 812 O 71.9568 -1.50899 -1.00494 0
M  V30 813 C 72.0048 -2.8164 2.25192 0
M  V30 814 O 71.1088 -3.7698 1.67212 0
M  V30 815 H 70.4498 -0.466654 0.472367 0
M  V30 816 H 72.9798 -0.925355 1.82478 0
M  V30 817 H 72.9898 -3.30519 2.3921 0
M  V30 818 H 71.6648 -2.56411 3.27454 0
M  V30 819 H 70.2418 -3.35699 1.6236 0
M  V30 820 N 72.4269 -1.23603 -0.977757 0
M  V30 821 C 73.6519 -1.09735 -1.75991 0
M  V30 822 C 74.0769 0.346858 -1.84874 0
M  V30 823 O 73.4349 1.25093 -1.3123 0
M  V30 824 C 73.4829 -1.73051 -3.16363 0
M  V30 825 O 72.5869 -0.994452 -4.0023 0
M  V30 826 H 71.9279 -0.384476 -0.541364 0
M  V30 827 H 74.4579 -1.6371 -1.2272 0
M  V30 828 H 74.4679 -1.78398 -3.66931 0
M  V30 829 H 73.1429 -2.78137 -3.09213 0
M  V30 830 H 71.7199 -1.01812 -3.58732 0
M  V30 831 N 73.905 1.17692 -1.04816 0
M  V30 832 C 75.316 1.69501 -0.782698 0
M  V30 833 C 75.667 1.83456 0.695577 0
M  V30 834 O 74.792 1.51942 1.54086 0
M  V30 835 C 75.387 3.07874 -1.41419 0
M  V30 836 C 73.946 3.56864 -1.19686 0
M  V30 837 C 73.093 2.3322 -1.50012 0
M  V30 838 H 76.044 1.02262 -1.2136 0
M  V30 839 H 76.065 3.71528 -0.821428 0
M  V30 840 H 75.577 2.97685 -2.49009 0
M  V30 841 H 73.678 3.72337 -0.140043 0
M  V30 842 H 73.791 4.39851 -1.89916 0
M  V30 843 H 72.155 2.37501 -0.920071 0
M  V30 844 H 72.938 2.25644 -2.58727 0
M  V30 845 N 75.3831 0.828654 1.34056 0
M  V30 846 C 76.7941 0.477534 1.8049 0
M  V30 847 C 77.1451 -1.00258 1.6865 0
M  V30 848 O 76.2701 -1.78057 1.22982 0
M  V30 849 C 76.8651 0.860018 3.27703 0
M  V30 850 C 75.4241 0.561185 3.72193 0
M  V30 851 C 74.5711 1.07385 2.55663 0
M  V30 852 H 77.5221 1.0183 1.21722 0
M  V30 853 H 77.5431 0.166038 3.80138 0
M  V30 854 H 77.0551 1.93731 3.36288 0
M  V30 855 H 75.1561 -0.506465 3.69142 0
M  V30 856 H 75.2691 1.10926 4.66082 0
M  V30 857 H 73.6331 0.495149 2.49841 0
M  V30 858 H 74.4161 2.15771 2.67016 0
M  V30 859 N 76.8612 -1.46375 0.584142 0
M  V30 860 C 77.8092 -2.32042 -0.161047 0
M  V30 861 C 78.8032 -1.44569 -0.882966 0
M  V30 862 O 80.0092 -1.61186 -0.801191 0
M  V30 863 H 76.3842 -0.748659 -0.0708033 0
M  V30 864 H 78.3552 -2.92704 0.580269 0
M  V30 865 C 77.1042 -3.27762 -1.1605 0
M  V30 866 H 76.4272 -3.95051 -0.614419 0
M  V30 867 H 77.8672 -3.90481 -1.65228 0
M  V30 868 C 76.3262 -2.53218 -2.22221 0
M  V30 869 O 76.8562 -2.29628 -3.29597 0
M  V30 870 N 75.0622 -2.13756 -1.96868 0
M  V30 871 H 74.6092 -2.33142 -1.09557 0
M  V30 872 H 74.5672 -1.642 -2.68115 0
M  V30 873 N 78.3393 -0.321999 -1.54275 0
M  V30 874 C 79.5873 0.280489 -2.00144 0
M  V30 875 C 79.9083 1.52777 -1.21178 0
M  V30 876 O 79.1783 1.9338 -0.313187 0
M  V30 877 H 77.7583 0.106632 -0.73935 0
M  V30 878 H 80.4203 -0.438184 -1.8991 0
M  V30 879 H 79.5163 0.537972 -3.07428 0
M  V30 880 N 79.8174 1.5752 -0.0501392 0
M  V30 881 C 81.0634 1.93755 0.618901 0
M  V30 882 C 81.4184 0.928514 1.68512 0
M  V30 883 O 80.7114 -0.0524613 1.91528 0
M  V30 884 C 80.9054 3.34467 1.25963 0
M  V30 885 C 80.7344 4.48965 0.257 0
M  V30 886 C 79.5044 5.05075 -0.150656 0
M  V30 887 C 81.7024 5.11891 -0.497166 0
M  V30 888 N 79.6844 6.03104 -1.14626 0
M  V30 889 C 81.0554 6.05216 -1.34588 0
M  V30 890 C 83.1104 4.9479 -0.55559 0
M  V30 891 C 81.8134 6.83277 -2.24778 0
M  V30 892 C 83.8394 5.73477 -1.44492 0
M  V30 893 C 83.2014 6.66433 -2.28136 0
M  V30 894 H 79.3004 0.756479 0.198149 0
M  V30 895 H 81.8844 1.94316 -0.122229 0
M  V30 896 H 80.0554 3.34685 1.97079 0
M  V30 897 H 81.7874 3.57994 1.88739 0
M  V30 898 H 78.5424 4.7305 0.228094 0
M  V30 899 H 78.9664 6.56813 -1.64092 0
M  V30 900 H 83.6084 4.2273 0.0768625 0
M  V30 901 H 81.3264 7.54629 -2.89069 0
M  V30 902 H 84.9124 5.62273 -1.49468 0
M  V30 903 H 83.7924 7.26258 -2.95835 0
M  V30 904 N 81.2955 -0.223234 1.56011 0
M  V30 905 C 82.2055 -1.29766 1.95443 0
M  V30 906 C 83.2215 -1.51373 0.858028 0
M  V30 907 O 84.3975 -1.64536 1.16146 0
M  V30 908 C 81.4625 -2.62772 2.26167 0
M  V30 909 C 80.5235 -2.49482 3.49367 0
M  V30 910 C 79.7565 -3.76145 3.78616 0
M  V30 911 O 79.9795 -4.79087 3.09568 0
M  V30 912 O 78.9135 -3.73358 4.72109 0
M  V30 913 H 82.7395 -0.99309 2.87004 0
M  V30 914 H 80.3245 -0.425958 1.43199 0
M  V30 915 H 82.2065 -3.41327 2.47131 0
M  V30 916 H 80.8815 -2.92913 1.37781 0
M  V30 917 H 79.7885 -1.69133 3.33684 0
M  V30 918 H 81.1215 -2.2428 4.38131 0
M  V30 919 N 82.7736 -1.49793 -0.48987 0
M  V30 920 C 83.6836 -1.70036 -1.61632 0
M  V30 921 C 84.6996 -0.583102 -1.63939 0
M  V30 922 O 85.8756 -0.859169 -1.82154 0
M  V30 923 C 82.9406 -1.77277 -2.97949 0
M  V30 924 C 82.0016 -3.00918 -3.06181 0
M  V30 925 C 81.2346 -3.07804 -4.35996 0
M  V30 926 O 81.4576 -2.21982 -5.25433 0
M  V30 927 O 80.3916 -4.00369 -4.49431 0
M  V30 928 H 84.2176 -2.65486 -1.47482 0
M  V30 929 H 81.8026 -1.33666 -0.667362 0
M  V30 930 H 83.6846 -1.84329 -3.78947 0
M  V30 931 H 82.3596 -0.850076 -3.12339 0
M  V30 932 H 81.2666 -2.99377 -2.2433 0
M  V30 933 H 82.5996 -3.92704 -2.96723 0
M  V30 934 N 84.2517 0.741722 -1.39055 0
M  V30 935 C 85.5007 1.49656 -1.35225 0
M  V30 936 C 85.8137 1.95533 0.0512708 0
M  V30 937 O 87.0197 2.7067 0.212138 0
M  V30 938 C 85.4757 2.70389 -2.37525 0
M  V30 939 C 85.0837 2.31489 -3.83558 0
M  V30 940 C 86.8277 3.48236 -2.42759 0
M  V30 941 C 84.7347 3.48903 -4.77515 0
M  V30 942 H 83.6647 0.56197 -0.502699 0
M  V30 943 H 86.3157 0.809727 -1.64668 0
M  V30 944 H 84.6977 3.41113 -2.01142 0
M  V30 945 H 85.8717 1.68354 -4.28945 0
M  V30 946 H 84.1867 1.66749 -3.81554 0
M  V30 947 H 86.7837 4.35558 -3.1015 0
M  V30 948 H 87.1267 3.90229 -1.45008 0
M  V30 949 H 87.6597 2.84535 -2.78002 0
M  V30 950 H 84.3987 3.11966 -5.76504 0
M  V30 951 H 83.9187 4.11041 -4.36813 0
M  V30 952 H 85.5977 4.15328 -4.96096 0
M  V30 953 N 85.7298 1.2412 0.971189 0
M  V30 954 C 86.9548 1.10667 1.75407 0
M  V30 955 C 87.3798 -0.337048 1.85056 0
M  V30 956 O 86.7378 -1.24396 1.31892 0
M  V30 957 C 86.7858 1.74726 3.15441 0
M  V30 958 O 85.8898 1.01566 3.99697 0
M  V30 959 H 85.2308 0.387341 0.539317 0
M  V30 960 H 87.7608 1.64358 1.2185 0
M  V30 961 H 87.7708 1.80341 3.6598 0
M  V30 962 H 86.4458 2.79773 3.07734 0
M  V30 963 H 85.0228 1.03713 3.58187 0
M  V30 964 N 87.2079 -1.17134 1.05439 0
M  V30 965 C 88.4559 -1.87085 0.764429 0
M  V30 966 C 88.7769 -1.81584 -0.710787 0
M  V30 967 O 88.0469 -1.24349 -1.51374 0
M  V30 968 H 86.6269 -0.692627 0.279779 0
M  V30 969 H 89.2889 -1.42087 1.33406 0
M  V30 970 H 88.3849 -2.92759 1.0816 0
M  V30 971 N 88.686 -0.835752 -1.33615 0
M  V30 972 C 89.616 -0.281739 -2.31794 0
M  V30 973 C 90.597 0.608833 -1.58831 0
M  V30 974 O 91.782 0.533035 -1.86741 0
M  V30 975 C 88.912 0.546612 -3.42971 0
M  V30 976 C 87.866 -0.247904 -4.27281 0
M  V30 977 C 87.192 0.704001 -5.30045 0
M  V30 978 C 88.492 -1.46324 -5.01385 0
M  V30 979 H 90.186 -1.10206 -2.78379 0
M  V30 980 H 87.732 -0.531388 -1.33837 0
M  V30 981 H 89.685 0.944467 -4.1068 0
M  V30 982 H 88.409 1.40011 -2.95067 0
M  V30 983 H 87.068 -0.627281 -3.61194 0
M  V30 984 H 86.716 1.55381 -4.78399 0
M  V30 985 H 86.416 0.176524 -5.87335 0
M  V30 986 H 87.94 1.09944 -6.0062 0
M  V30 987 H 89.354 -1.13871 -5.61877 0
M  V30 988 H 87.751 -1.92728 -5.6831 0
M  V30 989 H 88.821 -2.23467 -4.30338 0
M  V30 990 N 90.1641 1.46063 -0.591896 0
M  V30 991 C 91.4411 1.95595 -0.0137119 0
M  V30 992 C 91.8211 1.5345 1.4497 0
M  V30 993 O 91.1691 0.789543 2.14426 0
M  V30 994 C 91.3791 3.48453 -0.195373 0
M  V30 995 C 92.7271 4.24546 -0.0679765 0
M  V30 996 O 93.7511 3.55982 -0.124681 0
M  V30 997 O 92.6101 5.46467 0.0600579 0
M  V30 998 H 89.7041 0.825795 0.0446279 0
M  V30 999 H 92.2501 1.56303 -0.660859 0
M  V30 1000 H 91.0221 3.72045 -1.21235 0
M  V30 1001 H 90.6451 3.94597 0.487775 0
M  V30 1002 N 91.6422 0.330177 1.54103 0
M  V30 1003 C 92.5522 -0.541534 2.28264 0
M  V30 1004 C 93.5682 -1.12351 1.32866 0
M  V30 1005 O 94.7442 -1.14206 1.65888 0
M  V30 1006 C 91.8092 -1.68322 3.03098 0
M  V30 1007 C 90.8702 -1.13238 4.14096 0
M  V30 1008 C 90.1032 -2.21966 4.85352 0
M  V30 1009 O 90.3262 -3.42437 4.56172 0
M  V30 1010 O 89.2602 -1.87013 5.7211 0
M  V30 1011 H 93.0862 0.060938 3.03639 0
M  V30 1012 H 90.6712 0.09565 1.49093 0
M  V30 1013 H 92.5532 -2.34777 3.49939 0
M  V30 1014 H 91.2282 -2.27176 2.30593 0
M  V30 1015 H 90.1352 -0.432736 3.71589 0
M  V30 1016 H 91.4682 -0.588898 4.88664 0
M  V30 1017 N 93.1203 -1.57491 0.0584922 0
M  V30 1018 C 94.0683 -2.13148 -0.931168 0
M  V30 1019 C 95.0623 -1.06507 -1.31729 0
M  V30 1020 O 96.2683 -1.24906 -1.29609 0
M  V30 1021 H 92.6433 -0.68137 -0.31818 0
M  V30 1022 H 94.6143 -2.95187 -0.436707 0
M  V30 1023 C 93.3633 -2.69732 -2.19408 0
M  V30 1024 H 92.6863 -3.51454 -1.90578 0
M  V30 1025 H 94.1263 -3.12287 -2.86798 0
M  V30 1026 C 92.5853 -1.63855 -2.94369 0
M  V30 1027 O 93.1153 -1.05565 -3.87581 0
M  V30 1028 N 91.3213 -1.35202 -2.57233 0
M  V30 1029 H 90.8683 -1.82791 -1.81508 0
M  V30 1030 H 90.8263 -0.645922 -3.07693 0
M  V30 1031 N 94.5984 0.214957 -1.56127 0
M  V30 1032 C 95.8284 0.953707 -1.8327 0
M  V30 1033 C 96.2364 1.78181 -0.636262 0
M  V30 1034 O 95.5794 1.79191 0.404516 0
M  V30 1035 C 95.6414 1.91516 -3.0424 0
M  V30 1036 C 95.3054 1.27094 -4.38972 0
M  V30 1037 C 96.3024 0.657575 -5.15725 0
M  V30 1038 C 93.9874 1.28073 -4.85698 0
M  V30 1039 C 95.9814 0.0625968 -6.37369 0
M  V30 1040 C 93.6684 0.681914 -6.07283 0
M  V30 1041 C 94.6664 0.0739046 -6.8296 0
M  V30 1042 O 94.3544 -0.515582 -8.02245 0
M  V30 1043 H 94.0864 0.284764 -0.613095 0
M  V30 1044 H 96.6404 0.233283 -2.04071 0
M  V30 1045 H 94.8704 2.67475 -2.79274 0
M  V30 1046 H 96.5594 2.52001 -3.18198 0
M  V30 1047 H 97.3254 0.642288 -4.80728 0
M  V30 1048 H 93.2044 1.74337 -4.26764 0
M  V30 1049 H 96.7484 -0.412593 -6.96379 0
M  V30 1050 H 92.6454 0.694636 -6.41752 0
M  V30 1051 H 93.4134 -0.410544 -8.1747 0
M  V30 1052 N 96.0765 1.50051 0.48192 0
M  V30 1053 C 97.3045 1.64237 1.25832 0
M  V30 1054 C 97.7195 0.321336 1.86045 0
M  V30 1055 O 97.0765 -0.695478 1.68729 0
M  V30 1056 C 97.1275 2.72548 2.37487 0
M  V30 1057 O 96.8485 3.99529 1.79745 0
M  V30 1058 C 98.3495 2.9761 3.28547 0
M  V30 1059 H 95.5695 0.55237 0.380957 0
M  V30 1060 H 98.1135 1.96207 0.576467 0
M  V30 1061 H 96.2685 2.43303 3.01467 0
M  V30 1062 H 96.6825 4.59342 2.5319 0
M  V30 1063 H 98.1565 3.77084 4.03127 0
M  V30 1064 H 98.6335 2.0826 3.86684 0
M  V30 1065 H 99.2395 3.28345 2.70314 0
M  V30 1066 N 97.5546 -0.734337 1.39446 0
M  V30 1067 C 98.9656 -1.31264 1.32766 0
M  V30 1068 C 99.3166 -1.96198 -0.00767497 0
M  V30 1069 O 98.4416 -1.96346 -0.909796 0
M  V30 1070 C 99.0366 -2.38682 2.4045 0
M  V30 1071 C 97.5956 -2.92184 2.37288 0
M  V30 1072 C 96.7426 -1.6576 2.22304 0
M  V30 1073 H 99.6936 -0.531799 1.49525 0
M  V30 1074 H 99.7146 -3.19087 2.07276 0
M  V30 1075 H 99.2266 -1.91392 3.37625 0
M  V30 1076 H 97.3276 -3.43752 1.43754 0
M  V30 1077 H 97.4406 -3.45253 3.3217 0
M  V30 1078 H 95.8046 -1.9012 1.69489 0
M  V30 1079 H 96.5876 -1.20521 3.21449 0
M  V30 1080 N 99.0327 -1.24633 -0.964593 0
M  V30 1081 C 100.282 -1.08188 -1.7023 0
M  V30 1082 C 100.595 0.37873 -1.91898 0
M  V30 1083 O 101.801 0.663427 -2.6327 0
M  V30 1084 C 100.257 -1.88773 -3.06419 0
M  V30 1085 C 99.8647 -3.39263 -2.92582 0
M  V30 1086 C 101.609 -1.80867 -3.84041 0
M  V30 1087 C 99.5157 -4.1218 -4.24101 0
M  V30 1088 H 98.4457 -0.401245 -0.638372 0
M  V30 1089 H 101.097 -1.48742 -1.07462 0
M  V30 1090 H 99.4787 -1.41035 -3.70034 0
M  V30 1091 H 100.653 -3.94603 -2.37961 0
M  V30 1092 H 98.9677 -3.48154 -2.28424 0
M  V30 1093 H 101.565 -2.32646 -4.81435 0
M  V30 1094 H 101.908 -0.774543 -4.09031 0
M  V30 1095 H 102.441 -2.26301 -3.27159 0
M  V30 1096 H 99.1797 -5.15965 -4.04303 0
M  V30 1097 H 98.6997 -3.61626 -4.78526 0
M  V30 1098 H 100.379 -4.19349 -4.92702 0
M  V30 1099 N 100.511 1.16574 -1.06058 0
M  V30 1100 C 101.927 1.3904 -0.783585 0
M  V30 1101 C 102.127 1.91784 0.618145 0
M  V30 1102 O 101.183 2.11511 1.37911 0
M  V30 1103 C 102.496 2.37329 -1.84649 0
M  V30 1104 C 104.044 2.51018 -1.86973 0
M  V30 1105 C 104.519 3.52588 -2.92311 0
M  V30 1106 N 106.01 3.60113 -2.91329 0
M  V30 1107 C 106.745 4.38486 -3.69482 0
M  V30 1108 N 106.241 5.20302 -4.57447 0
M  V30 1109 N 108.034 4.33446 -3.57885 0
M  V30 1110 H 100.185 0.806725 -1.96483 0
M  V30 1111 H 102.448 0.417117 -0.851303 0
M  V30 1112 H 102.154 2.05663 -2.85299 0
M  V30 1113 H 102.028 3.36946 -1.6955 0
M  V30 1114 H 104.415 2.81989 -0.869827 0
M  V30 1115 H 104.496 1.51445 -2.0615 0
M  V30 1116 H 104.14 3.22354 -3.92492 0
M  V30 1117 H 104.07 4.51886 -2.70383 0
M  V30 1118 H 106.561 3.01707 -2.27555 0
M  V30 1119 H 106.874 5.77311 -5.13743 0
M  V30 1120 H 105.219 5.19653 -4.61503 0
M  V30 1121 H 108.41 3.68586 -2.88551 0
M  V30 1122 H 108.583 4.94279 -4.19037 0
M  V30 1123 N 101.989 0.842826 1.3317 0
M  V30 1124 C 103.217 0.454055 2.01856 0
M  V30 1125 C 103.632 -0.94587 1.63397 0
M  V30 1126 O 102.989 -1.61534 0.849302 0
M  V30 1127 C 103.04 0.569715 3.56982 0
M  V30 1128 O 102.761 1.91448 3.94055 0
M  V30 1129 C 104.262 0.178412 4.42941 0
M  V30 1130 H 101.482 0.17979 0.646465 0
M  V30 1131 H 104.026 1.1365 1.70012 0
M  V30 1132 H 102.181 -0.0648587 3.87346 0
M  V30 1133 H 102.595 1.90282 4.88767 0
M  V30 1134 H 104.069 0.310376 5.51127 0
M  V30 1135 H 104.546 -0.880056 4.30293 0
M  V30 1136 H 105.152 0.787579 4.17944 0
M  V30 1137 N 103.467 -1.45747 0.599634 0
M  V30 1138 C 104.697 -2.06369 0.0977132 0
M  V30 1139 C 105.105 -1.44624 -1.21985 0
M  V30 1140 O 104.448 -0.551831 -1.75216 0
M  V30 1141 C 104.51 -3.59284 -0.124673 0
M  V30 1142 C 104.174 -4.43318 1.10987 0
M  V30 1143 C 105.171 -4.78796 2.02609 0
M  V30 1144 C 102.856 -4.84194 1.33647 0
M  V30 1145 C 104.85 -5.53997 3.15224 0
M  V30 1146 C 102.537 -5.5915 2.46565 0
M  V30 1147 C 103.535 -5.93968 3.37182 0
M  V30 1148 O 103.223 -6.67405 4.48136 0
M  V30 1149 H 102.955 -0.673122 0.0623153 0
M  V30 1150 H 105.509 -1.88104 0.824981 0
M  V30 1151 H 103.739 -3.75919 -0.906745 0
M  V30 1152 H 105.428 -4.01775 -0.577201 0
M  V30 1153 H 106.194 -4.47781 1.86325 0
M  V30 1154 H 102.073 -4.56534 0.64016 0
M  V30 1155 H 105.617 -5.81091 3.85978 0
M  V30 1156 H 101.514 -5.89579 2.62805 0
M  V30 1157 H 102.282 -6.85847 4.46717 0
M  V30 1158 N 104.945 -0.338344 -1.53925 0
M  V30 1159 C 105.877 0.555117 -2.22376 0
M  V30 1160 C 106.89 1.06812 -1.22862 0
M  V30 1161 O 108.079 0.979163 -1.49247 0
M  V30 1162 C 105.179 1.77609 -2.88631 0
M  V30 1163 C 104.352 1.39927 -4.14414 0
M  V30 1164 C 103.411 2.47936 -4.64127 0
M  V30 1165 O 102.437 2.11461 -5.28463 0
M  V30 1166 N 103.639 3.79107 -4.39612 0
M  V30 1167 H 106.404 -0.0310778 -2.99684 0
M  V30 1168 H 103.965 -0.162226 -1.61085 0
M  V30 1169 H 105.957 2.49287 -3.18807 0
M  V30 1170 H 104.527 2.26978 -2.14941 0
M  V30 1171 H 103.747 0.513481 -3.90841 0
M  V30 1172 H 105.035 1.12341 -4.96243 0
M  V30 1173 H 104.433 4.11531 -3.88148 0
M  V30 1174 H 102.99 4.4697 -4.74406 0
M  V30 1175 N 106.423 1.57458 -0.0668435 0
M  V30 1176 C 107.669 1.93587 0.6043 0
M  V30 1177 C 108.002 0.946722 1.69561 0
M  V30 1178 O 107.277 -0.0248516 1.94484 0
M  V30 1179 C 107.56 3.40014 1.18585 0
M  V30 1180 C 107.413 4.49685 0.101529 0
M  V30 1181 C 108.732 3.87154 2.09284 0
M  V30 1182 H 105.851 0.703958 0.218202 0
M  V30 1183 H 108.493 1.89542 -0.131804 0
M  V30 1184 H 106.643 3.43592 1.81319 0
M  V30 1185 H 108.315 4.5823 -0.531279 0
M  V30 1186 H 106.558 4.30059 -0.568487 0
M  V30 1187 H 107.229 5.49266 0.54874 0
M  V30 1188 H 109.705 3.85551 1.56491 0
M  V30 1189 H 108.581 4.90231 2.46911 0
M  V30 1190 H 108.842 3.2481 2.99918 0
M  V30 1191 N 107.901 -0.206675 1.56239 0
M  V30 1192 C 109.141 -0.93574 1.81723 0
M  V30 1193 C 109.505 -1.80927 0.642609 0
M  V30 1194 O 110.706 -2.57323 0.777081 0
M  V30 1195 C 108.977 -1.74012 3.12177 0
M  V30 1196 S 110.536 -2.52279 3.59028 0
M  V30 1197 H 107.354 -0.314065 0.637875 0
M  V30 1198 H 109.956 -0.200071 1.94474 0
M  V30 1199 H 108.66 -1.0888 3.95693 0
M  V30 1200 H 108.191 -2.51782 3.02274 0
M  V30 1201 H 110.206 -3.76209 3.23545 0
M  V30 1202 N 109.379 -1.50304 -0.473955 0
M  V30 1203 C 110.311 -1.65109 -1.58971 0
M  V30 1204 C 111.324 -0.532676 -1.53839 0
M  V30 1205 O 112.513 -0.805751 -1.59279 0
M  V30 1206 C 109.613 -1.61684 -2.97845 0
M  V30 1207 C 108.786 -2.8951 -3.27876 0
M  V30 1208 C 107.845 -2.78768 -4.4629 0
M  V30 1209 O 106.871 -3.52722 -4.46739 0
M  V30 1210 N 108.073 -1.9213 -5.47783 0
M  V30 1211 H 110.838 -2.61347 -1.46689 0
M  V30 1212 H 108.399 -1.47732 -0.662324 0
M  V30 1213 H 110.391 -1.52114 -3.75024 0
M  V30 1214 H 108.961 -0.731925 -3.03911 0
M  V30 1215 H 108.181 -3.13228 -2.39336 0
M  V30 1216 H 109.469 -3.74199 -3.4475 0
M  V30 1217 H 108.867 -1.31353 -5.50239 0
M  V30 1218 H 107.424 -1.88466 -6.23958 0
M  V30 1219 N 110.857 0.726932 -1.39834 0
M  V30 1220 C 112.103 1.48884 -1.377 0
M  V30 1221 C 112.436 1.94185 0.0244852 0
M  V30 1222 O 111.711 1.67361 0.990986 0
M  V30 1223 C 111.994 2.72288 -2.3565 0
M  V30 1224 C 111.847 2.32956 -3.84775 0
M  V30 1225 C 113.166 3.74414 -2.31306 0
M  V30 1226 H 110.285 0.540062 -0.5015 0
M  V30 1227 H 112.927 0.830547 -1.70886 0
M  V30 1228 H 111.077 3.28457 -2.07481 0
M  V30 1229 H 112.749 1.82356 -4.23726 0
M  V30 1230 H 110.992 1.65088 -4.01159 0
M  V30 1231 H 111.663 3.21362 -4.4881 0
M  V30 1232 H 114.139 3.27849 -2.56231 0
M  V30 1233 H 113.015 4.58414 -3.01907 0
M  V30 1234 H 113.276 4.21909 -1.32081 0
M  V30 1235 N 112.336 1.25143 0.95797 0
M  V30 1236 C 113.269 0.995565 2.05338 0
M  V30 1237 C 114.247 -0.0740423 1.62431 0
M  V30 1238 O 115.431 0.0649212 1.88388 0
M  V30 1239 C 112.558 0.504298 3.34925 0
M  V30 1240 C 111.604 1.56393 3.96792 0
M  V30 1241 S 112.437 3.14815 4.33188 0
M  V30 1242 C 113.593 2.67415 5.65898 0
M  V30 1243 H 113.826 1.92309 2.26726 0
M  V30 1244 H 111.359 1.08635 1.09716 0
M  V30 1245 H 113.317 0.227497 4.09869 0
M  V30 1246 H 111.978 -0.402671 3.11508 0
M  V30 1247 H 111.171 1.17082 4.90212 0
M  V30 1248 H 110.773 1.79124 3.28315 0
M  V30 1249 H 113.065 2.10833 6.4386 0
M  V30 1250 H 114.008 3.59463 6.10076 0
M  V30 1251 H 114.416 2.07521 5.24972 0
M  V30 1252 N 113.814 -1.1601 1.06675 0
M  V30 1253 C 114.724 -2.24156 0.692179 0
M  V30 1254 C 115.74 -1.71507 -0.293513 0
M  V30 1255 O 116.916 -2.009 -0.141861 0
M  V30 1256 C 113.981 -3.46587 0.0884131 0
M  V30 1257 C 113.042 -4.14257 1.12646 0
M  V30 1258 C 112.275 -5.30844 0.551416 0
M  V30 1259 O 112.498 -5.66858 -0.634656 0
M  V30 1260 O 111.432 -5.87848 1.29298 0
M  V30 1261 H 115.258 -2.58513 1.59388 0
M  V30 1262 H 112.843 -1.23599 0.83926 0
M  V30 1263 H 114.725 -4.20679 -0.246361 0
M  V30 1264 H 113.4 -3.13994 -0.786712 0
M  V30 1265 H 112.307 -3.42118 1.51348 0
M  V30 1266 H 113.64 -4.50914 1.97325 0
M  V30 1267 N 115.292 -0.849877 -1.32721 0
M  V30 1268 C 116.703 -0.506188 -1.79707 0
M  V30 1269 C 117.054 0.975627 -1.70223 0
M  V30 1270 O 116.179 1.76078 -1.25799 0
M  V30 1271 C 116.774 -0.912044 -3.26293 0
M  V30 1272 C 115.333 -0.620326 -3.71253 0
M  V30 1273 C 114.48 -1.11439 -2.53922 0
M  V30 1274 H 117.431 -1.03754 -1.20087 0
M  V30 1275 H 117.452 -0.226493 -3.79825 0
M  V30 1276 H 116.964 -1.99057 -3.33164 0
M  V30 1277 H 115.065 0.447674 -3.69901 0
M  V30 1278 H 115.178 -1.18327 -4.64258 0
M  V30 1279 H 113.542 -0.534834 -2.49021 0
M  V30 1280 H 114.325 -2.19992 -2.6355 0
M  V30 1281 N 116.77 1.45427 -0.607355 0
M  V30 1282 C 117.718 2.32269 0.12411 0
M  V30 1283 C 118.712 1.45955 0.859854 0
M  V30 1284 O 119.918 1.6244 0.775447 0
M  V30 1285 H 116.293 0.749691 0.0588839 0
M  V30 1286 H 118.264 2.91743 -0.626762 0
M  V30 1287 C 117.013 3.29567 1.1082 0
M  V30 1288 H 116.336 3.95978 0.551492 0
M  V30 1289 H 117.776 3.93061 1.58995 0
M  V30 1290 C 116.235 2.56722 2.18164 0
M  V30 1291 O 116.765 2.34842 3.25902 0
M  V30 1292 N 114.971 2.16861 1.93442 0
M  V30 1293 H 114.518 2.34855 1.05834 0
M  V30 1294 H 114.476 1.68444 2.65469 0
M  V30 1295 N 118.248 0.346503 1.53744 0
M  V30 1296 C 119.18 -0.543316 2.22667 0
M  V30 1297 C 120.193 -1.06159 1.23427 0
M  V30 1298 O 121.382 -0.971235 1.49764 0
M  V30 1299 C 118.482 -1.76076 2.89569 0
M  V30 1300 C 117.655 -1.37727 4.15151 0
M  V30 1301 C 116.714 -2.45471 4.65436 0
M  V30 1302 O 115.74 -2.08655 5.29577 0
M  V30 1303 N 116.942 -3.7677 4.41616 0
M  V30 1304 H 119.707 0.0469703 2.99663 0
M  V30 1305 H 117.268 0.170766 1.60997 0
M  V30 1306 H 119.26 -2.47593 3.20125 0
M  V30 1307 H 117.83 -2.25835 2.16142 0
M  V30 1308 H 117.05 -0.492746 3.91108 0
M  V30 1309 H 118.338 -1.09708 4.96832 0
M  V30 1310 H 117.736 -4.09467 3.90325 0
M  V30 1311 H 116.293 -4.44448 4.7677 0
M  V30 1312 N 119.726 -1.57421 0.075193 0
M  V30 1313 C 120.674 -2.14124 -0.908508 0
M  V30 1314 C 121.668 -1.07898 -1.30592 0
M  V30 1315 O 122.874 -1.26273 -1.28277 0
M  V30 1316 H 119.249 -0.684707 -0.310935 0
M  V30 1317 H 121.22 -2.95634 -0.405374 0
M  V30 1318 C 119.969 -2.72044 -2.16535 0
M  V30 1319 H 119.292 -3.53456 -1.86839 0
M  V30 1320 H 120.732 -3.15311 -2.83469 0
M  V30 1321 C 119.191 -1.66968 -2.92615 0
M  V30 1322 O 119.721 -1.0967 -3.86439 0
M  V30 1323 N 117.927 -1.37923 -2.55784 0
M  V30 1324 H 117.474 -1.84706 -1.79559 0
M  V30 1325 H 117.432 -0.67852 -3.06991 0
M  V30 1326 N 121.204 0.198386 -1.56346 0
M  V30 1327 C 122.152 1.26538 -1.95169 0
M  V30 1328 C 123.146 1.47295 -0.836685 0
M  V30 1329 O 124.352 1.48195 -1.02167 0
M  V30 1330 H 120.727 0.424744 -0.620561 0
M  V30 1331 H 122.698 0.910904 -2.84157 0
M  V30 1332 C 121.447 2.6035 -2.30463 0
M  V30 1333 H 120.77 2.45192 -3.15786 0
M  V30 1334 H 122.21 3.33762 -2.61494 0
M  V30 1335 C 120.669 3.17096 -1.13806 0
M  V30 1336 O 121.199 3.99588 -0.41135 0
M  V30 1337 N 119.405 2.75795 -0.915736 0
M  V30 1338 H 118.952 2.08816 -1.50843 0
M  V30 1339 H 118.91 3.14101 -0.136979 0
M  V30 1340 N 122.682 1.50554 0.465978 0
M  V30 1341 C 123.928 1.63006 1.21658 0
M  V30 1342 C 124.283 0.328613 1.89573 0
M  V30 1343 O 123.576 -0.673813 1.79361 0
M  V30 1344 C 123.77 2.75152 2.28093 0
M  V30 1345 C 123.599 4.16075 1.7062 0
M  V30 1346 C 122.369 4.82408 1.50368 0
M  V30 1347 C 124.567 5.00145 1.1983 0
M  V30 1348 N 122.549 6.07532 0.881924 0
M  V30 1349 C 123.92 6.16035 0.700083 0
M  V30 1350 C 125.975 4.85882 1.08733 0
M  V30 1351 C 124.678 7.19228 0.101835 0
M  V30 1352 C 126.704 5.89257 0.503016 0
M  V30 1353 C 126.066 7.04398 0.0152005 0
M  V30 1354 H 122.165 0.650596 0.433877 0
M  V30 1355 H 124.749 1.8769 0.517746 0
M  V30 1356 H 122.92 2.52181 2.95397 0
M  V30 1357 H 124.652 2.76935 2.95109 0
M  V30 1358 H 121.407 4.39788 1.75737 0
M  V30 1359 H 121.831 6.7443 0.589312 0
M  V30 1360 H 126.473 3.97144 1.4504 0
M  V30 1361 H 124.191 8.07637 -0.273426 0
M  V30 1362 H 127.777 5.80286 0.419451 0
M  V30 1363 H 126.657 7.83021 -0.429856 0
M  V30 1364 N 124.16 -0.719506 1.40217 0
M  V30 1365 C 125.09 -1.8465 1.42922 0
M  V30 1366 C 126.071 -1.67599 0.29062 0
M  V30 1367 O 127.256 -1.87688 0.498677 0
M  V30 1368 C 124.386 -3.22565 1.28722 0
M  V30 1369 C 123.34 -3.54281 2.40144 0
M  V30 1370 C 122.666 -4.91298 2.11023 0
M  V30 1371 C 123.966 -3.55676 3.82481 0
M  V30 1372 H 125.66 -1.82644 2.37237 0
M  V30 1373 H 123.206 -0.877305 1.1419 0
M  V30 1374 H 125.159 -4.01095 1.29232 0
M  V30 1375 H 123.883 -3.25137 0.308811 0
M  V30 1376 H 122.542 -2.78088 2.38877 0
M  V30 1377 H 122.19 -4.90468 1.11582 0
M  V30 1378 H 121.89 -5.13485 2.8567 0
M  V30 1379 H 123.414 -5.72166 2.13209 0
M  V30 1380 H 124.828 -4.24254 3.85592 0
M  V30 1381 H 123.225 -3.89388 4.56614 0
M  V30 1382 H 124.295 -2.55144 4.12346 0
M  V30 1383 N 125.638 -1.25649 -0.95132 0
M  V30 1384 C 127.054 -1.02542 -1.223 0
M  V30 1385 C 127.254 0.255715 -1.99871 0
M  V30 1386 O 126.31 0.967558 -2.33226 0
M  V30 1387 C 127.623 -2.25065 -1.99415 0
M  V30 1388 C 129.171 -2.29861 -2.12446 0
M  V30 1389 C 129.646 -3.52048 -2.92961 0
M  V30 1390 N 131.137 -3.52465 -3.00538 0
M  V30 1391 C 131.872 -4.43672 -3.63239 0
M  V30 1392 N 131.368 -5.45157 -4.27523 0
M  V30 1393 N 133.161 -4.31346 -3.60412 0
M  V30 1394 H 125.312 -2.07951 -0.432471 0
M  V30 1395 H 127.575 -0.91339 -0.253816 0
M  V30 1396 H 127.281 -3.18194 -1.49817 0
M  V30 1397 H 127.155 -2.28502 -3.00111 0
M  V30 1398 H 129.542 -1.37252 -2.61239 0
M  V30 1399 H 129.623 -2.3044 -1.11044 0
M  V30 1400 H 129.267 -4.44981 -2.44856 0
M  V30 1401 H 129.197 -3.48715 -3.94596 0
M  V30 1402 H 131.688 -2.79056 -2.54826 0
M  V30 1403 H 132.001 -6.10958 -4.73234 0
M  V30 1404 H 130.346 -5.49025 -4.26141 0
M  V30 1405 H 133.537 -3.51288 -3.09377 0
M  V30 1406 H 133.71 -5.02624 -4.0899 0
M  V30 1407 N 127.117 1.15442 -1.07289 0
M  V30 1408 C 128.345 1.90096 -0.81676 0
M  V30 1409 C 128.76 1.7798 0.629966 0
M  V30 1410 O 128.117 1.1313 1.43206 0
M  V30 1411 C 128.168 3.40466 -1.21512 0
M  V30 1412 O 127.889 3.52232 -2.60508 0
M  V30 1413 C 129.39 4.32145 -0.988198 0
M  V30 1414 H 126.61 0.602495 -0.295366 0
M  V30 1415 H 129.154 1.4627 -1.42918 0
M  V30 1416 H 127.309 3.81958 -0.647039 0
M  V30 1417 H 127.723 4.45549 -2.76742 0
M  V30 1418 H 129.197 5.36072 -1.31645 0
M  V30 1419 H 129.674 4.39135 0.0755063 0
M  V30 1420 H 130.28 3.96395 -1.54115 0
M  V30 1421 N 128.595 0.856903 1.32268 0
M  V30 1422 C 129.543 0.291987 2.3076 0
M  V30 1423 C 130.537 -0.585857 1.58947 0
M  V30 1424 O 131.743 -0.47341 1.73663 0
M  V30 1425 H 128.118 0.075721 0.748178 0
M  V30 1426 H 130.089 1.13687 2.75895 0
M  V30 1427 C 128.838 -0.502869 3.44044 0
M  V30 1428 H 128.161 0.163328 3.99466 0
M  V30 1429 H 129.601 -0.863691 4.1511 0
M  V30 1430 C 128.06 -1.68898 2.91505 0
M  V30 1431 O 128.59 -2.78811 2.89184 0
M  V30 1432 N 126.796 -1.51679 2.47875 0
M  V30 1433 H 126.343 -0.622666 2.49961 0
M  V30 1434 H 126.301 -2.31184 2.13076 0
M  V30 1435 N 130.073 -1.45103 0.615059 0
M  V30 1436 C 131.319 -2.03035 0.121804 0
M  V30 1437 C 131.674 -1.47393 -1.23665 0
M  V30 1438 O 130.967 -0.642061 -1.80522 0
M  V30 1439 C 131.161 -3.57386 0.0318797 0
M  V30 1440 C 130.99 -4.28 1.38007 0
M  V30 1441 C 129.76 -4.65624 1.9627 0
M  V30 1442 C 131.958 -4.5948 2.31047 0
M  V30 1443 N 129.94 -5.21132 3.24492 0
M  V30 1444 C 131.311 -5.159 3.43872 0
M  V30 1445 C 133.366 -4.41423 2.30326 0
M  V30 1446 C 132.069 -5.56165 4.5615 0
M  V30 1447 C 134.095 -4.82726 3.41658 0
M  V30 1448 C 133.457 -5.39245 4.53205 0
M  V30 1449 H 129.556 -0.77702 0.0881159 0
M  V30 1450 H 132.14 -1.76819 0.815044 0
M  V30 1451 H 130.311 -3.83247 -0.630599 0
M  V30 1452 H 132.043 -4.01976 -0.468721 0
M  V30 1453 H 128.798 -4.49421 1.49392 0
M  V30 1454 H 129.222 -5.53377 3.90004 0
M  V30 1455 H 133.864 -3.97033 1.45343 0
M  V30 1456 H 131.582 -5.99517 5.41854 0
M  V30 1457 H 135.168 -4.7048 3.42257 0
M  V30 1458 H 134.048 -5.70616 5.37929 0
M  V30 1459 N 131.551 -0.354651 -1.53558 0
M  V30 1460 C 132.8 0.239504 -2.00273 0
M  V30 1461 C 133.113 1.50759 -1.24623 0
M  V30 1462 O 134.319 2.17968 -1.61871 0
M  V30 1463 C 132.775 0.477341 -3.5672 0
M  V30 1464 C 132.383 -0.775488 -4.41237 0
M  V30 1465 C 134.127 1.02975 -4.11821 0
M  V30 1466 C 132.034 -0.507838 -5.89216 0
M  V30 1467 H 130.964 0.0932743 -0.748208 0
M  V30 1468 H 133.615 -0.471701 -1.77334 0
M  V30 1469 H 131.997 1.24953 -3.7577 0
M  V30 1470 H 133.171 -1.54963 -4.33962 0
M  V30 1471 H 131.486 -1.25033 -3.97185 0
M  V30 1472 H 134.083 1.24513 -5.2 0
M  V30 1473 H 134.426 1.98862 -3.65731 0
M  V30 1474 H 134.959 0.317994 -3.96527 0
M  V30 1475 H 131.698 -1.43674 -6.39561 0
M  V30 1476 H 131.218 0.228011 -5.99366 0
M  V30 1477 H 132.897 -0.129238 -6.46871 0
M  V30 1478 N 133.029 1.57378 -0.0835403 0
M  V30 1479 C 134.254 1.98682 0.594987 0
M  V30 1480 C 134.679 0.961969 1.61641 0
M  V30 1481 O 134.037 -0.0709989 1.81161 0
M  V30 1482 C 134.085 3.38988 1.2296 0
M  V30 1483 O 133.189 3.39208 2.34546 0
M  V30 1484 H 132.53 0.646368 0.152002 0
M  V30 1485 H 135.06 2.03961 -0.161533 0
M  V30 1486 H 135.07 3.76431 1.57366 0
M  V30 1487 H 133.745 4.13107 0.481228 0
M  V30 1488 H 132.322 3.13548 2.01846 0
M  V30 1489 N 134.507 -0.190092 1.56449 0
M  V30 1490 C 135.454 -1.23557 1.94942 0
M  V30 1491 C 136.424 -1.44972 0.810696 0
M  V30 1492 O 137.609 -1.58023 1.06927 0
M  V30 1493 C 134.749 -2.57416 2.2985 0
M  V30 1494 C 133.862 -2.43537 3.5681 0
M  V30 1495 C 132.997 -3.70134 3.81017 0
M  V30 1496 C 132.036 -3.51109 5.01387 0
M  V30 1497 N 131.173 -4.6973 5.21822 0
M  V30 1498 H 136.013 -0.900304 2.84075 0
M  V30 1499 H 133.55 -0.43318 1.40577 0
M  V30 1500 H 135.508 -3.35409 2.48106 0
M  V30 1501 H 134.138 -2.88975 1.43852 0
M  V30 1502 H 133.19 -1.56816 3.46573 0
M  V30 1503 H 134.502 -2.25415 4.4496 0
M  V30 1504 H 133.656 -4.56566 3.9954 0
M  V30 1505 H 132.395 -3.91215 2.91207 0
M  V30 1506 H 131.4 -2.63063 4.82782 0
M  V30 1507 H 132.625 -3.31468 5.9271 0
M  V30 1508 H 130.571 -4.91065 4.34961 0
M  V30 1509 H 130.488 -4.54452 6.0416 0
M  V30 1510 H 131.756 -5.57499 5.44808 0
M  V30 1511 N 135.985 -1.50799 -0.457987 0
M  V30 1512 C 137.233 -1.62121 -1.2067 0
M  V30 1513 C 137.554 -0.329793 -1.92191 0
M  V30 1514 O 136.824 0.653409 -1.84682 0
M  V30 1515 H 135.404 -0.597441 -0.448411 0
M  V30 1516 H 138.066 -1.87637 -0.527096 0
M  V30 1517 H 137.162 -2.43882 -1.94751 0
M  V30 1518 N 137.463 0.71206 -1.40597 0
M  V30 1519 C 138.411 1.84746 -1.41321 0
M  V30 1520 C 139.405 1.66842 -0.293268 0
M  V30 1521 O 140.611 1.73904 -0.464481 0
M  V30 1522 H 136.986 0.608522 -0.441819 0
M  V30 1523 H 138.957 1.81252 -2.37045 0
M  V30 1524 C 137.706 3.22638 -1.29614 0
M  V30 1525 H 137.029 3.37023 -2.15071 0
M  V30 1526 H 138.469 4.02209 -1.3418 0
M  V30 1527 C 136.928 3.36899 -0.00673121 0
M  V30 1528 O 137.458 3.90186 0.954859 0
M  V30 1529 N 135.664 2.9053 0.0639327 0
M  V30 1530 H 135.211 2.47353 -0.719311 0
M  V30 1531 H 135.169 3.0045 0.926118 0
M  V30 1532 N 138.941 1.26152 0.944643 0
M  V30 1533 C 139.904 1.07474 2.0244 0
M  V30 1534 C 140.904 0.0242064 1.60782 0
M  V30 1535 O 142.094 0.267302 1.72137 0
M  V30 1536 C 139.226 0.633956 3.34953 0
M  V30 1537 H 140.419 2.03336 2.20442 0
M  V30 1538 H 137.972 1.087 1.12312 0
M  V30 1539 H 138.707 -0.326811 3.22649 0
M  V30 1540 H 138.492 1.39247 3.66542 0
M  V30 1541 H 139.982 0.52501 4.14287 0
M  V30 1542 N 140.419 -1.14872 1.07899 0
M  V30 1543 C 141.351 -2.19425 0.662231 0
M  V30 1544 C 142.364 -1.60231 -0.288079 0
M  V30 1545 O 143.553 -1.78336 -0.076534 0
M  V30 1546 C 140.653 -3.38867 -0.0470695 0
M  V30 1547 C 139.826 -4.27597 0.920831 0
M  V30 1548 C 138.885 -5.25616 0.247805 0
M  V30 1549 O 137.911 -5.62189 0.890599 0
M  V30 1550 N 139.113 -5.71746 -1.00435 0
M  V30 1551 H 141.878 -2.55797 1.56166 0
M  V30 1552 H 139.439 -1.30042 0.964404 0
M  V30 1553 H 141.431 -4.01497 -0.50813 0
M  V30 1554 H 140.001 -3.00864 -0.848523 0
M  V30 1555 H 139.221 -3.61982 1.56087 0
M  V30 1556 H 140.509 -4.83748 1.57688 0
M  V30 1557 H 139.907 -5.44153 -1.54642 0
M  V30 1558 H 138.464 -6.36389 -1.40899 0
M  V30 1559 N 141.898 -0.863906 -1.31812 0
M  V30 1560 C 143.314 -0.555004 -1.49639 0
M  V30 1561 C 143.514 0.912266 -1.79666 0
M  V30 1562 O 142.57 1.69479 -1.87171 0
M  V30 1563 C 143.883 -1.44998 -2.63431 0
M  V30 1564 C 145.431 -1.45138 -2.77316 0
M  V30 1565 C 145.906 -2.33179 -3.94197 0
M  V30 1566 N 147.397 -2.31025 -4.01474 0
M  V30 1567 C 148.132 -2.95871 -4.9117 0
M  V30 1568 N 147.628 -3.69863 -5.8581 0
M  V30 1569 N 149.421 -2.85211 -4.84367 0
M  V30 1570 H 141.572 -1.81339 -1.10589 0
M  V30 1571 H 143.835 -0.77505 -0.545895 0
M  V30 1572 H 143.541 -2.49377 -2.48 0
M  V30 1573 H 143.415 -1.14409 -3.59431 0
M  V30 1574 H 145.802 -0.415201 -2.92164 0
M  V30 1575 H 145.883 -1.79747 -1.82001 0
M  V30 1576 H 145.527 -3.3687 -3.80107 0
M  V30 1577 H 145.457 -1.95897 -4.88807 0
M  V30 1578 H 147.948 -1.77238 -3.33759 0
M  V30 1579 H 148.261 -4.16486 -6.50968 0
M  V30 1580 H 146.606 -3.73971 -5.85808 0
M  V30 1581 H 149.797 -2.26948 -4.09405 0
M  V30 1582 H 149.97 -3.36027 -5.54066 0
M  V30 1583 N 143.376 1.44774 -0.622745 0
M  V30 1584 C 144.625 2.01334 -0.121397 0
M  V30 1585 C 144.938 1.49505 1.26125 0
M  V30 1586 O 146.144 1.98139 1.85616 0
M  V30 1587 C 144.6 3.59516 -0.166298 0
M  V30 1588 C 144.208 4.20342 -1.54974 0
M  V30 1589 C 145.952 4.23582 0.279021 0
M  V30 1590 C 143.859 5.70721 -1.55021 0
M  V30 1591 H 142.789 0.752851 -0.0416172 0
M  V30 1592 H 145.44 1.66083 -0.780309 0
M  V30 1593 H 143.822 3.92027 0.559557 0
M  V30 1594 H 144.996 3.99381 -2.29851 0
M  V30 1595 H 143.311 3.68529 -1.93843 0
M  V30 1596 H 145.908 5.33868 0.298083 0
M  V30 1597 H 146.251 3.95327 1.30471 0
M  V30 1598 H 146.784 3.95843 -0.394063 0
M  V30 1599 H 143.523 6.03698 -2.55399 0
M  V30 1600 H 143.043 5.93829 -0.844245 0
M  V30 1601 H 144.722 6.34203 -1.28047 0
M  V30 1602 N 144.854 0.36279 1.53368 0
M  V30 1603 C 146.101 -0.227776 2.01215 0
M  V30 1604 C 146.429 -1.49003 1.25014 0
M  V30 1605 O 145.684 -1.92876 0.331236 0
M  V30 1606 C 145.983 -0.568417 3.52851 0
M  V30 1607 C 145.649 0.59918 4.46901 0
M  V30 1608 C 144.311 0.919559 4.72332 0
M  V30 1609 C 146.663 1.38156 5.02556 0
M  V30 1610 C 143.991 2.02434 5.5067 0
M  V30 1611 C 146.343 2.47674 5.821 0
M  V30 1612 C 145.007 2.8025 6.05819 0
M  V30 1613 H 144.277 -0.083349 0.736297 0
M  V30 1614 H 146.924 0.494677 1.85001 0
M  V30 1615 H 145.229 -1.37185 3.66998 0
M  V30 1616 H 146.926 -1.03756 3.87344 0
M  V30 1617 H 143.516 0.339437 4.27254 0
M  V30 1618 H 147.7 1.14729 4.82857 0
M  V30 1619 H 142.956 2.28075 5.67267 0
M  V30 1620 H 147.13 3.08716 6.24234 0
M  V30 1621 H 144.757 3.65979 6.66306 0
M  V30 1622 N 146.332 -1.57332 0.0918853 0
M  V30 1623 C 147.578 -1.94524 -0.573425 0
M  V30 1624 C 147.911 -0.973578 -1.68033 0
M  V30 1625 O 147.186 -0.00609226 -1.94499 0
M  V30 1626 C 147.469 -3.41858 -1.13161 0
M  V30 1627 C 147.322 -4.4979 -0.0299747 0
M  V30 1628 C 148.641 -3.90435 -2.03098 0
M  V30 1629 H 145.76 -0.70734 -0.206975 0
M  V30 1630 H 148.402 -1.89309 0.161942 0
M  V30 1631 H 146.552 -3.46433 -1.7583 0
M  V30 1632 H 148.224 -4.57327 0.604112 0
M  V30 1633 H 146.467 -4.291 0.636833 0
M  V30 1634 H 147.138 -5.50069 -0.461287 0
M  V30 1635 H 149.614 -3.87992 -1.50338 0
M  V30 1636 H 148.49 -4.94097 -2.39081 0
M  V30 1637 H 148.751 -3.29541 -2.94712 0
M  V30 1638 N 147.81 0.181792 -1.56548 0
M  V30 1639 C 148.72 1.24538 -1.98815 0
M  V30 1640 C 149.736 1.49045 -0.897861 0
M  V30 1641 O 150.912 1.61399 -1.20467 0
M  V30 1642 C 147.977 2.56683 -2.33055 0
M  V30 1643 C 147.038 2.40131 -3.55859 0
M  V30 1644 C 146.271 3.65975 -3.88456 0
M  V30 1645 O 146.494 4.70711 -3.22161 0
M  V30 1646 O 145.428 3.6071 -4.81842 0
M  V30 1647 H 149.254 0.916647 -2.89536 0
M  V30 1648 H 146.839 0.387842 -1.44278 0
M  V30 1649 H 148.721 3.34655 -2.56094 0
M  V30 1650 H 147.396 2.89157 -1.45498 0
M  V30 1651 H 146.303 1.60226 -3.38051 0
M  V30 1652 H 147.636 2.12585 -4.43924 0
M  V30 1653 N 149.288 1.51039 0.449983 0
M  V30 1654 C 150.218 1.74379 1.55288 0
M  V30 1655 C 151.199 0.593236 1.5942 0
M  V30 1656 O 152.384 0.834625 1.7535 0
M  V30 1657 C 149.514 1.85728 2.93466 0
M  V30 1658 C 148.468 3.01078 3.04197 0
M  V30 1659 C 147.794 2.97595 4.44231 0
M  V30 1660 C 149.094 4.41254 2.7945 0
M  V30 1661 H 150.788 2.66725 1.36008 0
M  V30 1662 H 148.334 1.2835 0.652864 0
M  V30 1663 H 150.287 2.0064 3.70569 0
M  V30 1664 H 149.011 0.900207 3.13949 0
M  V30 1665 H 147.67 2.85851 2.29531 0
M  V30 1666 H 147.318 1.99691 4.61663 0
M  V30 1667 H 147.018 3.75046 4.52343 0
M  V30 1668 H 148.542 3.14583 5.23326 0
M  V30 1669 H 149.956 4.56897 3.46292 0
M  V30 1670 H 148.353 5.20315 2.98985 0
M  V30 1671 H 149.423 4.52164 1.75144 0
M  V30 1672 N 150.766 -0.704594 1.40972 0
M  V30 1673 C 151.713 -1.81862 1.42109 0
M  V30 1674 C 152.683 -1.63781 0.276593 0
M  V30 1675 O 153.868 -1.84759 0.4763 0
M  V30 1676 C 151.008 -3.19669 1.30022 0
M  V30 1677 C 150.121 -3.49246 2.54267 0
M  V30 1678 C 149.256 -4.76618 2.3454 0
M  V30 1679 C 148.295 -4.99133 3.54306 0
M  V30 1680 N 147.432 -6.17726 3.33706 0
M  V30 1681 H 152.272 -1.80226 2.37324 0
M  V30 1682 H 149.809 -0.880238 1.17857 0
M  V30 1683 H 151.767 -3.99263 1.21018 0
M  V30 1684 H 150.397 -3.20506 0.384192 0
M  V30 1685 H 149.449 -2.64125 2.73756 0
M  V30 1686 H 150.761 -3.61788 3.43381 0
M  V30 1687 H 149.915 -5.64249 2.22952 0
M  V30 1688 H 148.654 -4.66305 1.42867 0
M  V30 1689 H 147.659 -4.09953 3.66359 0
M  V30 1690 H 148.884 -5.11311 4.4692 0
M  V30 1691 H 146.83 -6.08642 2.44725 0
M  V30 1692 H 146.747 -6.30995 4.16391 0
M  V30 1693 H 148.015 -7.08115 3.25873 0
M  V30 1694 N 152.244 -1.26651 -0.937939 0
M  V30 1695 C 153.491 -1.12387 -1.6845 0
M  V30 1696 C 153.819 0.332208 -1.91642 0
M  V30 1697 O 153.074 1.2602 -1.49725 0
M  V30 1698 C 153.373 -1.84168 -3.06295 0
M  V30 1699 C 153.039 -3.34056 -3.02849 0
M  V30 1700 C 151.701 -3.74942 -3.01616 0
M  V30 1701 C 154.053 -4.29741 -2.9491 0
M  V30 1702 C 151.381 -5.09894 -2.90215 0
M  V30 1703 C 153.733 -5.64738 -2.8505 0
M  V30 1704 C 152.397 -6.0493 -2.82162 0
M  V30 1705 H 151.667 -0.411252 -0.616403 0
M  V30 1706 H 154.314 -1.57134 -1.09459 0
M  V30 1707 H 152.619 -1.319 -3.6893 0
M  V30 1708 H 154.316 -1.70569 -3.62915 0
M  V30 1709 H 150.906 -3.01534 -3.0459 0
M  V30 1710 H 155.09 -3.99133 -2.94969 0
M  V30 1711 H 150.346 -5.40194 -2.86358 0
M  V30 1712 H 154.52 -6.38561 -2.77872 0
M  V30 1713 H 152.147 -7.09457 -2.73084 0
M  V30 1714 N 153.722 1.14298 -1.08507 0
M  V30 1715 C 154.95 1.89219 -0.836876 0
M  V30 1716 C 155.365 1.78638 0.611054 0
M  V30 1717 O 154.722 1.14643 1.41998 0
M  V30 1718 C 154.773 3.39158 -1.25116 0
M  V30 1719 O 154.494 3.49449 -2.64229 0
M  V30 1720 C 155.995 4.31073 -1.03398 0
M  V30 1721 H 153.215 0.599328 -0.301739 0
M  V30 1722 H 155.759 1.44746 -1.44461 0
M  V30 1723 H 153.914 3.81251 -0.687514 0
M  V30 1724 H 154.328 4.42589 -2.81452 0
M  V30 1725 H 155.802 5.34646 -1.37323 0
M  V30 1726 H 156.279 4.3919 0.0289259 0
M  V30 1727 H 156.885 3.94738 -1.58311 0
M  V30 1728 N 155.201 0.870884 1.31352 0
M  V30 1729 C 156.131 0.343096 2.30966 0
M  V30 1730 C 157.112 -0.566507 1.60389 0
M  V30 1731 O 158.297 -0.483336 1.88089 0
M  V30 1732 C 155.427 -0.455487 3.443 0
M  V30 1733 C 154.381 0.361103 4.26474 0
M  V30 1734 C 153.707 -0.563221 5.31725 0
M  V30 1735 C 155.007 1.59566 4.97329 0
M  V30 1736 H 156.701 1.17548 2.75359 0
M  V30 1737 H 154.247 0.566686 1.32381 0
M  V30 1738 H 156.2 -0.83525 4.13039 0
M  V30 1739 H 154.924 -1.32139 2.98675 0
M  V30 1740 H 153.583 0.722825 3.59403 0
M  V30 1741 H 153.231 -1.42643 4.82351 0
M  V30 1742 H 152.931 -0.0207409 5.87596 0
M  V30 1743 H 154.455 -0.939808 6.03324 0
M  V30 1744 H 155.869 1.28728 5.58661 0
M  V30 1745 H 154.266 2.07728 5.63 0
M  V30 1746 H 155.336 2.34798 4.24262 0
M  V30 1747 N 156.679 -1.44442 0.630414 0
M  V30 1748 C 158.095 -1.56832 0.295973 0
M  V30 1749 C 158.295 -1.61806 -1.20088 0
M  V30 1750 O 157.351 -1.5607 -1.9849 0
M  V30 1751 C 158.664 -2.84031 0.987264 0
M  V30 1752 C 160.212 -2.97742 0.96534 0
M  V30 1753 C 160.687 -4.27743 1.63708 0
M  V30 1754 N 162.178 -4.34555 1.60364 0
M  V30 1755 C 162.913 -5.33862 2.09234 0
M  V30 1756 N 162.409 -6.39578 2.66292 0
M  V30 1757 N 164.202 -5.25366 1.99867 0
M  V30 1758 H 156.353 -1.39457 1.60205 0
M  V30 1759 H 158.616 -0.668237 0.672431 0
M  V30 1760 H 158.322 -2.86338 2.04215 0
M  V30 1761 H 158.196 -3.73534 0.524588 0
M  V30 1762 H 160.583 -2.94989 -0.0810639 0
M  V30 1763 H 160.664 -2.09589 1.4665 0
M  V30 1764 H 160.308 -4.31255 2.68293 0
M  V30 1765 H 160.238 -5.14752 1.11076 0
M  V30 1766 H 162.729 -3.58772 1.18705 0
M  V30 1767 H 163.042 -7.11637 3.01317 0
M  V30 1768 H 161.387 -6.40265 2.70343 0
M  V30 1769 H 164.578 -4.41688 1.55013 0
M  V30 1770 H 164.751 -6.02606 2.38265 0
M  V30 1771 N 158.157 -0.370918 -1.53173 0
M  V30 1772 C 159.434 0.273754 -1.93675 0
M  V30 1773 C 159.814 1.65938 -1.3049 0
M  V30 1774 O 159.162 2.23698 -0.465999 0
M  V30 1775 C 159.372 0.318602 -3.47543 0
M  V30 1776 C 160.72 0.556392 -4.20939 0
M  V30 1777 O 161.744 0.399587 -3.53952 0
M  V30 1778 O 160.603 0.862133 -5.39657 0
M  V30 1779 H 157.697 0.165448 -0.810281 0
M  V30 1780 H 160.243 -0.42409 -1.64315 0
M  V30 1781 H 159.015 -0.652687 -3.85818 0
M  V30 1782 H 158.638 1.06212 -3.83151 0
M  V30 1783 N 159.635 1.57281 -0.100228 0
M  V30 1784 C 160.875 1.96419 0.56558 0
M  V30 1785 C 161.239 0.981265 1.65031 0
M  V30 1786 O 162.44 1.26133 2.37369 0
M  V30 1787 C 160.711 3.39996 1.10171 0
M  V30 1788 S 162.27 4.01134 1.77867 0
M  V30 1789 H 159.088 0.68667 0.184406 0
M  V30 1790 H 161.69 1.94662 -0.180851 0
M  V30 1791 H 160.394 4.09296 0.300803 0
M  V30 1792 H 159.925 3.45361 1.88385 0
M  V30 1793 H 161.94 3.90358 3.06326 0
M  V30 1794 N 161.113 -0.173488 1.56642 0
M  V30 1795 C 162.061 -1.23417 1.97157 0
M  V30 1796 C 163.055 -1.45946 0.860013 0
M  V30 1797 O 164.261 -1.46551 1.04512 0
M  V30 1798 H 160.636 -0.414818 0.62724 0
M  V30 1799 H 162.607 -0.865582 2.8557 0
M  V30 1800 C 161.356 -2.5665 2.34576 0
M  V30 1801 H 160.679 -2.40137 3.19647 0
M  V30 1802 H 162.119 -3.2956 2.6677 0
M  V30 1803 C 160.578 -3.15245 1.18836 0
M  V30 1804 O 161.108 -3.98883 0.474869 0
M  V30 1805 N 159.314 -2.74303 0.959497 0
M  V30 1806 H 158.861 -2.0639 1.54146 0
M  V30 1807 H 158.819 -3.13844 0.186932 0
M  V30 1808 N 162.591 -1.51276 -0.441967 0
M  V30 1809 C 163.816 -1.67799 -1.21895 0
M  V30 1810 C 164.241 -0.372864 -1.84367 0
M  V30 1811 O 163.599 0.666501 -1.68604 0
M  V30 1812 C 163.647 -2.79199 -2.28211 0
M  V30 1813 O 162.751 -2.42479 -3.33583 0
M  V30 1814 H 162.092 -0.559649 -0.357336 0
M  V30 1815 H 164.622 -1.97815 -0.522522 0
M  V30 1816 H 164.632 -3.03146 -2.73069 0
M  V30 1817 H 163.307 -3.73906 -1.82118 0
M  V30 1818 H 161.884 -2.29087 -2.94234 0
M  V30 1819 N 164.069 0.697108 -1.41344 0
M  V30 1820 C 164.999 1.82353 -1.45841 0
M  V30 1821 C 165.98 1.67115 -0.317247 0
M  V30 1822 O 167.165 1.86871 -0.528474 0
M  V30 1823 C 164.295 3.20476 -1.33838 0
M  V30 1824 C 163.249 3.50415 -2.4575 0
M  V30 1825 C 162.575 4.87878 -2.18813 0
M  V30 1826 C 163.875 3.49546 -3.88091 0
M  V30 1827 H 165.569 1.78846 -2.40113 0
M  V30 1828 H 163.115 0.859028 -1.15571 0
M  V30 1829 H 165.068 3.98988 -1.35596 0
M  V30 1830 H 163.792 3.24604 -0.360498 0
M  V30 1831 H 162.451 2.74253 -2.43271 0
M  V30 1832 H 162.099 4.8863 -1.19371 0
M  V30 1833 H 161.799 5.08875 -2.93803 0
M  V30 1834 H 163.323 5.68702 -2.22284 0
M  V30 1835 H 164.737 4.18066 -3.92293 0
M  V30 1836 H 163.134 3.82075 -4.62751 0
M  V30 1837 H 164.204 2.48552 -4.16353 0
M  V30 1838 N 165.547 1.27147 0.931209 0
M  V30 1839 C 166.958 1.12044 1.49342 0
M  V30 1840 C 167.309 -0.295795 1.93957 0
M  V30 1841 O 166.434 -1.18835 1.80852 0
M  V30 1842 C 167.029 2.02781 2.71414 0
M  V30 1843 C 165.588 1.91794 3.2387 0
M  V30 1844 C 164.735 1.95543 1.96617 0
M  V30 1845 H 167.686 1.40091 0.745672 0
M  V30 1846 H 167.707 1.58156 3.46074 0
M  V30 1847 H 167.219 3.05848 2.38911 0
M  V30 1848 H 165.32 0.916992 3.6114 0
M  V30 1849 H 165.433 2.77852 3.90302 0
M  V30 1850 H 163.797 1.39722 2.12955 0
M  V30 1851 H 164.58 3.00259 1.66432 0
M  V30 1852 N 167.025 -1.13721 1.09112 0
M  V30 1853 C 168.273 -1.84559 0.823562 0
M  V30 1854 C 168.594 -1.83754 -0.652658 0
M  V30 1855 O 167.864 -1.29102 -1.47342 0
M  V30 1856 H 166.444 -0.683376 0.301673 0
M  V30 1857 H 169.106 -1.37771 1.37859 0
M  V30 1858 H 168.202 -2.8917 1.17419 0
M  V30 1859 N 168.503 -0.877838 -1.30888 0
M  V30 1860 C 169.749 -0.493426 -1.96706 0
M  V30 1861 C 170.082 0.953504 -1.6918 0
M  V30 1862 O 169.357 1.67266 -0.992594 0
M  V30 1863 C 169.64 -0.760429 -3.51979 0
M  V30 1864 C 169.493 -2.25747 -3.89048 0
M  V30 1865 C 170.812 -0.232148 -4.39487 0
M  V30 1866 H 167.931 -0.180746 -0.714493 0
M  V30 1867 H 170.573 -1.10052 -1.54882 0
M  V30 1868 H 168.723 -0.243715 -3.87735 0
M  V30 1869 H 170.395 -2.84204 -3.63354 0
M  V30 1870 H 168.638 -2.72694 -3.37373 0
M  V30 1871 H 169.309 -2.39491 -4.97341 0
M  V30 1872 H 171.785 -0.674314 -4.106 0
M  V30 1873 H 170.661 -0.448355 -5.47066 0
M  V30 1874 H 170.922 0.866297 -4.33529 0
M  V30 1875 N 169.982 1.44106 -0.638065 0
M  V30 1876 C 170.912 2.33448 0.0494287 0
M  V30 1877 C 171.893 1.48606 0.827672 0
M  V30 1878 O 173.078 1.77308 0.792173 0
M  V30 1879 C 170.208 3.31771 1.02691 0
M  V30 1880 C 169.162 4.26485 0.359823 0
M  V30 1881 C 168.488 5.14729 1.44769 0
M  V30 1882 C 169.788 5.17056 -0.738296 0
M  V30 1883 H 171.482 2.91183 -0.696636 0
M  V30 1884 H 169.028 1.40014 -0.336456 0
M  V30 1885 H 170.981 3.93161 1.51666 0
M  V30 1886 H 169.705 2.7226 1.80395 0
M  V30 1887 H 168.364 3.66437 -0.10934 0
M  V30 1888 H 168.012 4.51566 2.21578 0
M  V30 1889 H 167.712 5.78913 1.00668 0
M  V30 1890 H 169.236 5.78991 1.93911 0
M  V30 1891 H 170.65 5.72342 -0.331354 0
M  V30 1892 H 169.047 5.89879 -1.10286 0
M  V30 1893 H 170.117 4.57652 -1.60258 0
M  V30 1894 N 171.46 0.379036 1.52974 0
M  V30 1895 C 172.708 -0.206014 2.01047 0
M  V30 1896 C 173.029 -1.48175 1.26765 0
M  V30 1897 O 172.299 -1.92085 0.384743 0
M  V30 1898 H 170.879 -0.0791184 0.742798 0
M  V30 1899 H 173.541 0.508366 1.88153 0
M  V30 1900 H 172.637 -0.423501 3.09213 0
M  V30 1901 N 172.938 -1.57226 0.108567 0
M  V30 1902 C 174.166 -1.99179 -0.559954 0
M  V30 1903 C 174.581 -0.988022 -1.60884 0
M  V30 1904 O 173.938 0.0205512 -1.82488 0
M  V30 1905 C 173.989 -3.41159 -1.19552 0
M  V30 1906 O 173.71 -4.37694 -0.188577 0
M  V30 1907 C 175.211 -3.98188 -1.94837 0
M  V30 1908 H 172.431 -0.654228 -0.149088 0
M  V30 1909 H 174.975 -2.03598 0.19183 0
M  V30 1910 H 173.13 -3.37711 -1.89815 0
M  V30 1911 H 173.544 -5.20469 -0.649014 0
M  V30 1912 H 175.018 -4.99644 -2.34648 0
M  V30 1913 H 175.495 -3.3675 -2.81951 0
M  V30 1914 H 176.101 -4.0515 -1.2936 0
M  V30 1915 N 174.416 0.165178 -1.56732 0
M  V30 1916 C 175.656 0.887231 -1.8414 0
M  V30 1917 C 176.02 1.79159 -0.690353 0
M  V30 1918 O 177.221 2.55172 -0.845032 0
M  V30 1919 C 175.492 1.65674 -3.16681 0
M  V30 1920 S 177.051 2.42671 -3.6559 0
M  V30 1921 H 173.869 0.297042 -0.645978 0
M  V30 1922 H 176.471 0.148439 -1.94936 0
M  V30 1923 H 175.175 0.983507 -3.98441 0
M  V30 1924 H 174.706 2.43679 -3.08843 0
M  V30 1925 H 176.721 3.67499 -3.33406 0
M  V30 1926 N 175.894 1.51508 0.433938 0
M  V30 1927 C 176.841 1.73068 1.52696 0
M  V30 1928 C 177.811 0.572441 1.55924 0
M  V30 1929 O 178.996 0.807253 1.72882 0
M  V30 1930 C 176.136 1.86474 2.90381 0
M  V30 1931 C 175.249 3.14037 2.96656 0
M  V30 1932 C 174.384 3.18019 4.25485 0
M  V30 1933 C 173.423 4.39882 4.2564 0
M  V30 1934 N 172.56 4.41394 5.45999 0
M  V30 1935 H 177.4 2.66366 1.33615 0
M  V30 1936 H 174.937 1.32008 0.649018 0
M  V30 1937 H 176.895 1.92229 3.70275 0
M  V30 1938 H 175.525 0.965809 3.08013 0
M  V30 1939 H 174.577 3.17575 2.09404 0
M  V30 1940 H 175.889 4.0394 2.92633 0
M  V30 1941 H 175.043 3.22708 5.13755 0
M  V30 1942 H 173.782 2.2601 4.3217 0
M  V30 1943 H 172.787 4.35366 3.35763 0
M  V30 1944 H 174.012 5.33159 4.20617 0
M  V30 1945 H 171.958 3.52258 5.53399 0
M  V30 1946 H 171.875 5.25111 5.4387 0
M  V30 1947 H 173.143 4.50281 6.36292 0
M  V30 1948 N 177.372 -0.689602 1.41712 0
M  V30 1949 C 178.282 -1.83314 1.46401 0
M  V30 1950 C 179.298 -1.7036 0.35405 0
M  V30 1951 O 180.474 -1.92171 0.602692 0
M  V30 1952 C 177.539 -3.19344 1.34982 0
M  V30 1953 C 176.6 -3.44363 2.56344 0
M  V30 1954 C 175.833 -4.73904 2.45461 0
M  V30 1955 O 176.056 -5.508 1.48241 0
M  V30 1956 O 174.99 -4.99839 3.35328 0
M  V30 1957 H 178.816 -1.82314 2.42889 0
M  V30 1958 H 176.401 -0.843438 1.23315 0
M  V30 1959 H 178.283 -4.00547 1.3092 0
M  V30 1960 H 176.958 -3.21014 0.41612 0
M  V30 1961 H 175.865 -2.63067 2.65982 0
M  V30 1962 H 177.198 -3.47512 3.48563 0
M  V30 1963 N 178.85 -1.27639 -0.924453 0
M  V30 1964 C 180.078 -1.16989 -1.70649 0
M  V30 1965 C 180.493 0.272869 -1.86818 0
M  V30 1966 O 179.85 1.18549 -1.38753 0
M  V30 1967 C 179.901 -1.85229 -3.10439 0
M  V30 1968 O 179.622 -3.23868 -2.95028 0
M  V30 1969 C 181.123 -1.80746 -4.04779 0
M  V30 1970 H 178.343 -0.406595 -0.53378 0
M  V30 1971 H 180.887 -1.68569 -1.15778 0
M  V30 1972 H 179.042 -1.37545 -3.6216 0
M  V30 1973 H 179.456 -3.57889 -3.83426 0
M  V30 1974 H 180.93 -2.33101 -5.00368 0
M  V30 1975 H 181.407 -0.777499 -4.32263 0
M  V30 1976 H 182.013 -2.28059 -3.58984 0
M  V30 1977 N 180.328 1.1314 -1.09713 0
M  V30 1978 C 181.575 1.84484 -0.834987 0
M  V30 1979 C 181.903 1.83689 0.639418 0
M  V30 1980 O 181.158 1.2724 1.4869 0
M  V30 1981 C 181.457 3.32167 -1.3191 0
M  V30 1982 C 181.123 3.53139 -2.80363 0
M  V30 1983 C 179.785 3.58571 -3.20905 0
M  V30 1984 C 182.137 3.60866 -3.76065 0
M  V30 1985 C 179.465 3.69267 -4.55916 0
M  V30 1986 C 181.817 3.73089 -5.10869 0
M  V30 1987 C 180.481 3.76775 -5.50996 0
M  V30 1988 H 179.751 0.675073 -0.305544 0
M  V30 1989 H 182.398 1.33554 -1.37243 0
M  V30 1990 H 180.703 3.85469 -0.701517 0
M  V30 1991 H 182.4 3.85821 -1.09284 0
M  V30 1992 H 178.99 3.49569 -2.47991 0
M  V30 1993 H 183.174 3.55946 -3.45855 0
M  V30 1994 H 178.43 3.70388 -4.86438 0
M  V30 1995 H 182.604 3.78011 -5.84877 0
M  V30 1996 H 180.231 3.84815 -6.55608 0
M  V30 1997 N 181.806 0.884767 1.30421 0
M  V30 1998 C 182.754 0.340869 2.30089 0
M  V30 1999 C 183.748 -0.55201 1.60154 0
M  V30 2000 O 184.954 -0.436467 1.74628 0
M  V30 2001 H 181.329 0.0915739 0.746404 0
M  V30 2002 H 183.3 1.19513 2.73421 0
M  V30 2003 C 182.049 -0.429779 3.45034 0
M  V30 2004 H 181.372 0.248024 3.9903 0
M  V30 2005 H 182.812 -0.775445 4.16849 0
M  V30 2006 C 181.271 -1.62677 2.95022 0
M  V30 2007 O 181.801 -2.72614 2.95033 0
M  V30 2008 N 180.007 -1.46387 2.51036 0
M  V30 2009 H 179.554 -0.569506 2.51226 0
M  V30 2010 H 179.512 -2.26612 2.17932 0
M  V30 2011 N 183.284 -1.43765 0.645699 0
M  V30 2012 C 184.214 -2.33471 -0.0370477 0
M  V30 2013 C 185.195 -1.49042 -0.819779 0
M  V30 2014 O 186.38 -1.77726 -0.782758 0
M  V30 2015 C 183.51 -3.32311 -1.0093 0
M  V30 2016 C 182.464 -4.2667 -0.337201 0
M  V30 2017 C 181.79 -5.1549 -1.42037 0
M  V30 2018 C 183.09 -5.16657 0.765706 0
M  V30 2019 H 184.784 -2.90809 0.712069 0
M  V30 2020 H 182.33 -1.39834 0.343876 0
M  V30 2021 H 184.283 -3.9396 -1.49578 0
M  V30 2022 H 183.007 -2.73213 -1.78948 0
M  V30 2023 H 181.666 -3.66374 0.128771 0
M  V30 2024 H 181.314 -4.52735 -2.1918 0
M  V30 2025 H 181.014 -5.79438 -0.975966 0
M  V30 2026 H 182.538 -5.80012 -1.90838 0
M  V30 2027 H 183.952 -5.72158 0.361702 0
M  V30 2028 H 182.349 -5.89286 1.13413 0
M  V30 2029 H 183.419 -4.56796 1.62683 0
M  V30 2030 N 184.763 -0.387143 -1.52771 0
M  V30 2031 C 185.993 0.195585 -2.05672 0
M  V30 2032 C 186.401 1.41241 -1.25887 0
M  V30 2033 O 185.744 1.81265 -0.298081 0
M  V30 2034 C 185.806 0.632327 -3.53895 0
M  V30 2035 C 185.47 -0.470739 -4.54569 0
M  V30 2036 C 186.467 -1.32746 -5.02667 0
M  V30 2037 C 184.152 -0.637151 -4.98243 0
M  V30 2038 C 186.146 -2.33574 -5.93061 0
M  V30 2039 C 183.833 -1.64877 -5.88438 0
M  V30 2040 C 184.831 -2.49649 -6.35739 0
M  V30 2041 O 184.519 -3.49082 -7.24153 0
M  V30 2042 H 184.251 0.033658 -0.675162 0
M  V30 2043 H 186.805 -0.550221 -1.97893 0
M  V30 2044 H 185.035 1.43008 -3.59285 0
M  V30 2045 H 186.724 1.14048 -3.89548 0
M  V30 2046 H 187.49 -1.21019 -4.69659 0
M  V30 2047 H 183.369 0.0129567 -4.60998 0
M  V30 2048 H 186.913 -2.99777 -6.29904 0
M  V30 2049 H 182.81 -1.76643 -6.2086 0
M  V30 2050 H 183.578 -3.45065 -7.42208 0
M  V30 2051 N 186.241 1.57166 -0.116904 0
M  V30 2052 C 187.471 1.99184 0.548586 0
M  V30 2053 C 187.879 0.995436 1.60897 0
M  V30 2054 O 187.222 -0.0201293 1.83689 0
M  V30 2055 C 187.284 3.37611 1.23526 0
M  V30 2056 C 186.948 4.55857 0.323077 0
M  V30 2057 C 187.945 5.18056 -0.437476 0
M  V30 2058 C 185.63 5.01751 0.234761 0
M  V30 2059 C 187.624 6.24536 -1.2741 0
M  V30 2060 C 185.311 6.08093 -0.605496 0
M  V30 2061 C 186.309 6.69352 -1.35856 0
M  V30 2062 O 185.997 7.7364 -2.18487 0
M  V30 2063 H 185.729 0.659148 0.149999 0
M  V30 2064 H 188.283 2.0443 -0.199428 0
M  V30 2065 H 186.513 3.29113 2.0303 0
M  V30 2066 H 188.202 3.63932 1.79745 0
M  V30 2067 H 188.968 4.83516 -0.379105 0
M  V30 2068 H 184.847 4.53817 0.810601 0
M  V30 2069 H 188.391 6.72281 -1.86237 0
M  V30 2070 H 184.288 6.42063 -0.665268 0
M  V30 2071 H 185.056 7.90727 -2.11406 0
M  V30 2072 N 187.719 -0.156864 1.56817 0
M  V30 2073 C 188.949 -0.885031 1.86684 0
M  V30 2074 C 189.357 -1.75696 0.701954 0
M  V30 2075 O 188.7 -1.80569 -0.337732 0
M  V30 2076 C 188.762 -1.80092 3.11138 0
M  V30 2077 C 188.426 -1.10714 4.43386 0
M  V30 2078 C 189.423 -0.465714 5.1781 0
M  V30 2079 C 187.108 -1.09959 4.90117 0
M  V30 2080 C 189.102 0.174002 6.37162 0
M  V30 2081 C 186.789 -0.456055 6.09396 0
M  V30 2082 C 187.787 0.179622 6.82764 0
M  V30 2083 O 187.475 0.812975 7.99779 0
M  V30 2084 H 187.207 -0.261813 0.623242 0
M  V30 2085 H 189.761 -0.157383 2.04796 0
M  V30 2086 H 187.991 -2.56926 2.89009 0
M  V30 2087 H 189.68 -2.40018 3.27332 0
M  V30 2088 H 190.446 -0.463427 4.82781 0
M  V30 2089 H 186.325 -1.58378 4.3294 0
M  V30 2090 H 189.869 0.670765 6.94368 0
M  V30 2091 H 185.766 -0.455975 6.43888 0
M  V30 2092 H 186.534 0.71366 8.15383 0
M  V30 2093 N 189.197 -1.51736 -0.425897 0
M  V30 2094 C 190.107 -1.76738 -1.54275 0
M  V30 2095 C 191.123 -0.65211 -1.61318 0
M  V30 2096 O 192.299 -0.935654 -1.78346 0
M  V30 2097 C 189.364 -1.89755 -2.90162 0
M  V30 2098 C 188.425 -3.13633 -2.93143 0
M  V30 2099 C 187.658 -3.2602 -4.22548 0
M  V30 2100 O 187.881 -2.44067 -5.15546 0
M  V30 2101 O 186.815 -4.19071 -4.32046 0
M  V30 2102 H 190.641 -2.71502 -1.36089 0
M  V30 2103 H 188.226 -1.36376 -0.610069 0
M  V30 2104 H 190.108 -2.00236 -3.70788 0
M  V30 2105 H 188.783 -0.981785 -3.08452 0
M  V30 2106 H 187.69 -3.08622 -2.11431 0
M  V30 2107 H 189.023 -4.04936 -2.798 0
M  V30 2108 N 190.675 0.682077 -1.42076 0
M  V30 2109 C 191.903 1.47057 -1.4554 0
M  V30 2110 C 192.318 1.8869 -0.0645779 0
M  V30 2111 O 191.675 1.57666 0.919115 0
M  V30 2112 C 191.726 2.72442 -2.37609 0
M  V30 2113 O 191.447 2.32559 -3.71279 0
M  V30 2114 C 192.948 3.66069 -2.50017 0
M  V30 2115 H 190.168 0.452737 -0.495248 0
M  V30 2116 H 192.712 0.838695 -1.8651 0
M  V30 2117 H 190.867 3.31835 -1.9991 0
M  V30 2118 H 191.281 3.13475 -4.20516 0
M  V30 2119 H 192.755 4.50792 -3.18576 0
M  V30 2120 H 193.232 4.11476 -1.53572 0
M  V30 2121 H 193.838 3.12572 -2.88407 0
M  V30 2122 N 192.153 1.28127 0.917671 0
M  V30 2123 C 193.43 1.05761 1.64542 0
M  V30 2124 C 193.81 -0.404344 2.07191 0
M  V30 2125 O 193.158 -1.38963 1.81388 0
M  V30 2126 C 193.368 2.02857 2.83989 0
M  V30 2127 C 194.716 2.32786 3.551 0
M  V30 2128 O 195.74 2.0091 2.94132 0
M  V30 2129 O 194.599 2.87169 4.64969 0
M  V30 2130 H 191.693 0.403916 0.721652 0
M  V30 2131 H 194.239 1.39431 0.967322 0
M  V30 2132 H 193.011 3.01407 2.49538 0
M  V30 2133 H 192.634 1.69809 3.59514 0
M  V30 2134 N 193.631 -1.12557 1.10312 0
M  V30 2135 C 194.861 -1.87592 0.865617 0
M  V30 2136 C 195.269 -1.79851 -0.587389 0
M  V30 2137 O 194.612 -1.16949 -1.41664 0
M  V30 2138 C 194.674 -3.37665 1.23381 0
M  V30 2139 C 194.338 -3.69181 2.69359 0
M  V30 2140 C 195.335 -3.67652 3.67597 0
M  V30 2141 C 193.02 -3.98555 3.05711 0
M  V30 2142 C 195.014 -3.95053 5.00212 0
M  V30 2143 C 192.701 -4.25616 4.38514 0
M  V30 2144 C 193.699 -4.23851 5.35574 0
M  V30 2145 O 193.387 -4.50242 6.65986 0
M  V30 2146 H 193.119 -0.600442 0.310557 0
M  V30 2147 H 195.673 -1.4335 1.47105 0
M  V30 2148 H 193.903 -3.82454 0.571467 0
M  V30 2149 H 195.592 -3.94041 0.973994 0
M  V30 2150 H 196.358 -3.45024 3.40857 0
M  V30 2151 H 192.237 -3.99071 2.30789 0
M  V30 2152 H 195.781 -3.93591 5.75962 0
M  V30 2153 H 191.678 -4.47718 4.64994 0
M  V30 2154 H 192.446 -4.67867 6.71597 0
M  V30 2155 N 195.109 -0.891671 -1.2995 0
M  V30 2156 C 196.386 -0.433307 -1.9074 0
M  V30 2157 C 196.766 1.08646 -1.80995 0
M  V30 2158 O 196.114 1.92476 -1.23147 0
M  V30 2159 C 196.324 -0.938895 -3.36134 0
M  V30 2160 C 197.672 -0.977829 -4.13187 0
M  V30 2161 O 198.696 -0.886015 -3.45005 0
M  V30 2162 O 197.555 -1.11453 -5.35015 0
M  V30 2163 H 194.649 -0.133699 -0.816121 0
M  V30 2164 H 197.195 -0.981011 -1.38471 0
M  V30 2165 H 195.967 -1.98281 -3.37343 0
M  V30 2166 H 195.59 -0.37074 -3.95868 0
M  V30 2167 N 196.587 1.43421 -0.653314 0
M  V30 2168 C 197.815 2.06163 -0.174491 0
M  V30 2169 C 198.23 1.48969 1.1599 0
M  V30 2170 O 197.587 0.621042 1.71608 0
M  V30 2171 C 197.638 3.61417 -0.0774865 0
M  V30 2172 O 197.359 4.16485 -1.35912 0
M  V30 2173 C 198.86 4.41235 0.427402 0
M  V30 2174 H 196.08 0.664946 -0.0899353 0
M  V30 2175 H 198.624 1.83924 -0.893988 0
M  V30 2176 H 196.779 3.82841 0.59257 0
M  V30 2177 H 197.193 5.10153 -1.21839 0
M  V30 2178 H 198.667 5.5021 0.44423 0
M  V30 2179 H 199.144 4.14268 1.45873 0
M  V30 2180 H 199.75 4.2478 -0.210167 0
M  V30 2181 N 198.065 0.39524 1.52563 0
M  V30 2182 C 199.313 -0.184678 2.01254 0
M  V30 2183 C 199.634 -1.46822 1.28329 0
M  V30 2184 O 198.904 -1.91666 0.405094 0
M  V30 2185 H 197.484 -0.0712355 0.743596 0
M  V30 2186 H 200.146 0.528293 1.87603 0
M  V30 2187 H 199.242 -0.390681 3.09645 0
M  V30 2188 N 199.544 -1.57102 0.125237 0
M  V30 2189 C 200.96 -1.57915 -0.231322 0
M  V30 2190 C 201.16 -1.13833 -1.66266 0
M  V30 2191 O 200.216 -0.828581 -2.38518 0
M  V30 2192 C 201.529 -3.00699 0.00766489 0
M  V30 2193 C 203.077 -3.12947 -0.0577483 0
M  V30 2194 C 203.552 -4.57742 0.153626 0
M  V30 2195 N 205.043 -4.63092 0.0998073 0
M  V30 2196 C 205.778 -5.72905 0.238174 0
M  V30 2197 N 205.274 -6.91445 0.433057 0
M  V30 2198 N 207.067 -5.6182 0.177308 0
M  V30 2199 H 199.218 -1.84055 1.06007 0
M  V30 2200 H 201.481 -0.850905 0.417929 0
M  V30 2201 H 201.187 -3.3726 0.997431 0
M  V30 2202 H 201.061 -3.70236 -0.721452 0
M  V30 2203 H 203.448 -2.7624 -1.03804 0
M  V30 2204 H 203.529 -2.4594 0.70335 0
M  V30 2205 H 203.173 -4.95149 1.13092 0
M  V30 2206 H 203.103 -5.22848 -0.627534 0
M  V30 2207 H 205.594 -3.77871 -0.047051 0
M  V30 2208 H 205.907 -7.70985 0.529332 0
M  V30 2209 H 204.252 -6.93415 0.469109 0
M  V30 2210 H 207.443 -4.68093 0.0259748 0
M  V30 2211 H 207.616 -6.47357 0.288582 0
M  V30 2212 N 201.022 0.148545 -1.56898 0
M  V30 2213 C 201.97 1.20265 -1.99096 0
M  V30 2214 C 202.964 1.44559 -0.883123 0
M  V30 2215 O 204.17 1.4487 -1.0683 0
M  V30 2216 H 200.545 0.404786 -0.63376 0
M  V30 2217 H 202.516 0.82004 -2.86911 0
M  V30 2218 C 201.265 2.52886 -2.3863 0
M  V30 2219 H 200.588 2.35021 -3.23427 0
M  V30 2220 H 202.028 3.25274 -2.7198 0
M  V30 2221 C 200.487 3.13315 -1.23837 0
M  V30 2222 O 201.017 3.98077 -0.538268 0
M  V30 2223 N 199.223 2.72742 -1.00301 0
M  V30 2224 H 198.77 2.03912 -1.5741 0
M  V30 2225 H 198.728 3.13507 -0.236838 0
M  V30 2226 N 202.5 1.5196 0.417844 0
M  V30 2227 C 203.749 1.6482 1.16264 0
M  V30 2228 C 204.062 0.379886 1.91876 0
M  V30 2229 O 205.268 0.388154 2.68711 0
M  V30 2230 C 203.724 2.91161 2.1155 0
M  V30 2231 C 203.332 4.25068 1.41495 0
M  V30 2232 C 205.076 3.13383 2.86341 0
M  V30 2233 C 202.983 5.42541 2.35379 0
M  V30 2234 H 201.913 0.613954 0.437694 0
M  V30 2235 H 204.564 1.78442 0.427871 0
M  V30 2236 H 202.946 2.71218 2.88543 0
M  V30 2237 H 204.12 4.55463 0.699263 0
M  V30 2238 H 202.435 4.0888 0.787792 0
M  V30 2239 H 205.032 3.98324 3.5671 0
M  V30 2240 H 205.375 2.27256 3.48798 0
M  V30 2241 H 205.908 3.33757 2.1645 0
M  V30 2242 H 202.647 6.30987 1.77582 0
M  V30 2243 H 202.167 5.16497 3.04945 0
M  V30 2244 H 203.846 5.75272 2.96093 0
M  V30 2245 N 203.978 -0.674533 1.42435 0
M  V30 2246 C 205.394 -0.98769 1.25367 0
M  V30 2247 C 205.594 -2.00879 0.158044 0
M  V30 2248 O 204.65 -2.48075 -0.470633 0
M  V30 2249 C 205.963 -1.49224 2.6106 0
M  V30 2250 C 207.511 -1.61 2.68417 0
M  V30 2251 C 207.986 -2.14852 4.04478 0
M  V30 2252 N 209.477 -2.22185 4.06434 0
M  V30 2253 C 210.212 -2.64928 5.08528 0
M  V30 2254 N 209.708 -3.07121 6.21006 0
M  V30 2255 N 211.501 -2.64679 4.95885 0
M  V30 2256 H 203.652 0.00152503 2.124 0
M  V30 2257 H 205.915 -0.0618434 0.945981 0
M  V30 2258 H 205.621 -0.816453 3.42092 0
M  V30 2259 H 205.495 -2.47094 2.84999 0
M  V30 2260 H 207.882 -2.27686 1.87732 0
M  V30 2261 H 207.963 -0.616195 2.48267 0
M  V30 2262 H 207.607 -1.48775 4.85622 0
M  V30 2263 H 207.537 -3.15024 4.2198 0
M  V30 2264 H 210.028 -1.92435 3.25234 0
M  V30 2265 H 210.341 -3.38423 6.94759 0
M  V30 2266 H 208.686 -3.04978 6.24511 0
M  V30 2267 H 211.877 -2.31078 4.07088 0
M  V30 2268 H 212.05 -2.9767 5.75584 0
M  V30 2269 N 205.456 -1.28612 -0.910864 0
M  V30 2270 C 206.366 -1.14643 -2.0468 0
M  V30 2271 C 207.382 -0.0723121 -1.7385 0
M  V30 2272 O 208.558 -0.282178 -1.99413 0
M  V30 2273 C 205.623 -0.812561 -3.37044 0
M  V30 2274 C 204.684 -1.96935 -3.81465 0
M  V30 2275 C 203.917 -1.65131 -5.07511 0
M  V30 2276 O 204.14 -0.567013 -5.67575 0
M  V30 2277 O 203.074 -2.49585 -5.47714 0
M  V30 2278 H 206.9 -2.1001 -2.19384 0
M  V30 2279 H 204.485 -1.07958 -1.03274 0
M  V30 2280 H 206.367 -0.640441 -4.16505 0
M  V30 2281 H 205.042 0.111426 -3.23508 0
M  V30 2282 H 203.949 -2.19664 -3.02818 0
M  V30 2283 H 205.282 -2.87414 -3.99567 0
M  V30 2284 N 206.934 1.1197 -1.10907 0
M  V30 2285 C 207.882 2.19927 -0.757303 0
M  V30 2286 C 208.876 1.67564 0.248747 0
M  V30 2287 O 210.082 1.79672 0.108605 0
M  V30 2288 H 206.457 0.716925 -0.226987 0
M  V30 2289 H 208.428 2.46847 -1.67658 0
M  V30 2290 C 207.177 3.47061 -0.210671 0
M  V30 2291 H 206.5 3.87703 -0.976049 0
M  V30 2292 H 207.94 4.24 -0.0026584 0
M  V30 2293 C 206.399 3.19864 1.05777 0
M  V30 2294 O 206.929 3.40049 2.13845 0
M  V30 2295 N 205.135 2.73636 0.978349 0
M  V30 2296 H 204.682 2.5741 0.0988246 0
M  V30 2297 H 204.64 2.55815 1.82773 0
M  V30 2298 N 208.412 0.89855 1.29475 0
M  V30 2299 C 209.342 0.39201 2.30186 0
M  V30 2300 C 210.323 -0.532359 1.61555 0
M  V30 2301 O 211.508 -0.443331 1.89072 0
M  V30 2302 C 208.638 -0.382353 3.45189 0
M  V30 2303 C 207.592 0.451483 4.25612 0
M  V30 2304 C 206.918 -0.450307 5.328 0
M  V30 2305 C 208.218 1.70079 4.93832 0
M  V30 2306 H 209.912 1.23362 2.72804 0
M  V30 2307 H 207.458 0.594638 1.31149 0
M  V30 2308 H 209.411 -0.747451 4.14718 0
M  V30 2309 H 208.135 -1.25774 3.01411 0
M  V30 2310 H 206.794 0.798897 3.57789 0
M  V30 2311 H 206.442 -1.32379 4.85268 0
M  V30 2312 H 206.142 0.103902 5.87508 0
M  V30 2313 H 207.666 -0.811623 6.05182 0
M  V30 2314 H 209.08 1.40549 5.55805 0
M  V30 2315 H 207.477 2.19623 5.58467 0
M  V30 2316 H 208.547 2.43744 4.19186 0
M  V30 2317 N 209.89 -1.43072 0.660911 0
M  V30 2318 C 211.12 -2.05769 0.185153 0
M  V30 2319 C 211.528 -1.49668 -1.15742 0
M  V30 2320 O 210.871 -0.625649 -1.72717 0
M  V30 2321 C 210.933 -3.59489 0.0278237 0
M  V30 2322 C 210.597 -4.38212 1.2969 0
M  V30 2323 C 211.594 -4.69772 2.22734 0
M  V30 2324 C 209.279 -4.7809 1.54063 0
M  V30 2325 C 211.273 -5.40129 3.38437 0
M  V30 2326 C 208.96 -5.4819 2.70058 0
M  V30 2327 C 209.958 -5.79132 3.62071 0
M  V30 2328 O 209.646 -6.47798 4.76039 0
M  V30 2329 H 209.378 -0.669873 0.0908086 0
M  V30 2330 H 211.932 -1.84436 0.90402 0
M  V30 2331 H 210.162 -3.79426 -0.746489 0
M  V30 2332 H 211.851 -4.03862 -0.406275 0
M  V30 2333 H 212.617 -4.39476 2.05149 0
M  V30 2334 H 208.496 -4.53408 0.833215 0
M  V30 2335 H 212.04 -5.64198 4.10277 0
M  V30 2336 H 207.937 -5.77902 2.87574 0
M  V30 2337 H 208.705 -6.66283 4.75404 0
M  V30 2338 N 211.368 -0.403325 -1.52352 0
M  V30 2339 C 212.614 0.174605 -2.02047 0
M  V30 2340 C 212.947 1.45282 -1.28867 0
M  V30 2341 O 212.222 1.90483 -0.393257 0
M  V30 2342 C 212.505 0.428238 -3.57545 0
M  V30 2343 C 212.358 -0.866248 -4.4138 0
M  V30 2344 C 213.677 1.21287 -4.23057 0
M  V30 2345 H 210.796 0.0619851 -0.734389 0
M  V30 2346 H 213.438 -0.53565 -1.82293 0
M  V30 2347 H 211.588 1.03327 -3.74507 0
M  V30 2348 H 213.26 -1.50265 -4.3614 0
M  V30 2349 H 211.503 -1.47851 -4.07827 0
M  V30 2350 H 212.174 -0.643249 -5.48239 0
M  V30 2351 H 214.65 0.700703 -4.10158 0
M  V30 2352 H 213.526 1.35909 -5.31808 0
M  V30 2353 H 213.787 2.23193 -3.81625 0
M  V30 2354 N 212.846 1.57033 -0.133567 0
M  V30 2355 C 213.793 2.16074 0.811208 0
M  V30 2356 C 214.763 1.08979 1.2535 0
M  V30 2357 O 215.948 1.36958 1.32843 0
M  V30 2358 C 213.088 2.77595 2.05024 0
M  V30 2359 C 212.201 3.99042 1.65498 0
M  V30 2360 C 211.336 4.48603 2.84479 0
M  V30 2361 C 210.375 5.62547 2.41262 0
M  V30 2362 N 209.512 6.06787 3.53206 0
M  V30 2363 H 214.352 2.96477 0.300906 0
M  V30 2364 H 211.889 1.46462 0.136822 0
M  V30 2365 H 213.847 3.11402 2.77642 0
M  V30 2366 H 212.477 1.99859 2.53488 0
M  V30 2367 H 211.529 3.71302 0.826981 0
M  V30 2368 H 212.841 4.81629 1.29748 0
M  V30 2369 H 211.995 4.84395 3.65303 0
M  V30 2370 H 210.734 3.64995 3.23465 0
M  V30 2371 H 209.739 5.26345 1.58874 0
M  V30 2372 H 210.964 6.47931 2.03377 0
M  V30 2373 H 208.91 5.26117 3.91838 0
M  V30 2374 H 208.827 6.84266 3.21427 0
M  V30 2375 H 210.095 6.4722 4.34427 0
M  V30 2376 N 214.325 -0.140222 1.56975 0
M  V30 2377 C 215.574 -0.850152 1.82908 0
M  V30 2378 C 215.887 -1.82028 0.715892 0
M  V30 2379 O 217.093 -2.57485 0.861016 0
M  V30 2380 C 215.549 -1.5625 3.24213 0
M  V30 2381 C 215.157 -0.63443 4.43485 0
M  V30 2382 C 216.901 -2.25881 3.59413 0
M  V30 2383 C 214.808 -1.34879 5.75814 0
M  V30 2384 H 213.738 -0.321221 0.682153 0
M  V30 2385 H 216.389 -0.102874 1.83211 0
M  V30 2386 H 214.771 -2.35565 3.18316 0
M  V30 2387 H 215.945 0.12398 4.60633 0
M  V30 2388 H 214.26 -0.0461836 4.16374 0
M  V30 2389 H 216.857 -2.79978 4.5554 0
M  V30 2390 H 217.2 -3.02693 2.85802 0
M  V30 2391 H 217.733 -1.53477 3.67001 0
M  V30 2392 H 214.472 -0.622385 6.52539 0
M  V30 2393 H 213.992 -2.07974 5.6259 0
M  V30 2394 H 215.671 -1.88784 6.18845 0
M  V30 2395 N 215.803 -1.52179 -0.40978 0
M  V30 2396 C 217.08 -1.56769 -1.16974 0
M  V30 2397 C 217.46 -0.348322 -2.08206 0
M  V30 2398 O 216.808 0.664862 -2.18613 0
M  V30 2399 C 217.018 -2.89603 -1.9476 0
M  V30 2400 C 218.366 -3.42579 -2.50849 0
M  V30 2401 O 219.39 -2.91338 -2.04941 0
M  V30 2402 O 218.249 -4.32054 -3.34652 0
M  V30 2403 H 215.343 -0.631439 -0.534054 0
M  V30 2404 H 217.889 -1.64507 -0.416613 0
M  V30 2405 H 216.661 -3.698 -1.27921 0
M  V30 2406 H 216.284 -2.85155 -2.77079 0
M  V30 2407 N 217.281 0.66697 -1.42791 0
M  V30 2408 C 218.509 1.45505 -1.47091 0
M  V30 2409 C 218.924 1.8861 -0.0845873 0
M  V30 2410 O 218.281 1.58632 0.90234 0
M  V30 2411 C 218.332 2.69906 -2.40485 0
M  V30 2412 O 218.053 2.28608 -3.73725 0
M  V30 2413 C 219.554 3.63396 -2.53886 0
M  V30 2414 H 216.774 0.447459 -0.500022 0
M  V30 2415 H 219.318 0.818866 -1.8739 0
M  V30 2416 H 217.473 3.29696 -2.03419 0
M  V30 2417 H 217.887 3.08997 -4.23817 0
M  V30 2418 H 219.361 4.47387 -3.2334 0
M  V30 2419 H 219.838 4.09824 -1.57927 0
M  V30 2420 H 220.444 3.09495 -2.91706 0
M  V30 2421 N 218.759 1.29093 0.90403 0
M  V30 2422 C 220.008 1.16187 1.64874 0
M  V30 2423 C 220.321 -0.286742 1.93487 0
M  V30 2424 O 221.527 -0.537062 2.66135 0
M  V30 2425 C 219.983 2.03177 2.97064 0
M  V30 2426 C 219.591 3.52836 2.76062 0
M  V30 2427 C 221.335 1.98984 3.74974 0
M  V30 2428 C 219.242 4.31945 4.03952 0
M  V30 2429 H 218.172 0.431246 0.618501 0
M  V30 2430 H 220.823 1.53699 1.00243 0
M  V30 2431 H 219.205 1.5853 3.62883 0
M  V30 2432 H 220.379 4.05507 2.18863 0
M  V30 2433 H 218.694 3.58656 2.11553 0
M  V30 2434 H 221.291 2.55351 4.69787 0
M  V30 2435 H 221.634 0.968815 4.0487 0
M  V30 2436 H 222.167 2.41652 3.15989 0
M  V30 2437 H 218.906 5.34667 3.79225 0
M  V30 2438 H 218.426 3.84045 4.60727 0
M  V30 2439 H 220.105 4.42379 4.72133 0
M  V30 2440 N 220.237 -1.11381 1.11499 0
M  V30 2441 C 221.2 -2.15622 0.777153 0
M  V30 2442 C 222.2 -1.59504 -0.203779 0
M  V30 2443 O 223.39 -1.74188 0.020782 0
M  V30 2444 C 220.522 -3.40556 0.153116 0
M  V30 2445 H 221.715 -2.47021 1.70061 0
M  V30 2446 H 219.268 -1.26577 0.916952 0
M  V30 2447 H 220.003 -3.14767 -0.780536 0
M  V30 2448 H 219.788 -3.8257 0.859238 0
M  V30 2449 H 221.278 -4.17546 -0.0671044 0
M  V30 2450 N 221.715 -0.905404 -1.28997 0
M  V30 2451 C 222.678 -0.392253 -2.25819 0
M  V30 2452 C 223.678 0.476753 -1.5357 0
M  V30 2453 O 224.868 0.280994 -1.71919 0
M  V30 2454 C 222 0.438588 -3.38067 0
M  V30 2455 H 223.193 -1.24743 -2.72725 0
M  V30 2456 H 220.746 -0.684051 -1.40536 0
M  V30 2457 H 221.481 1.31352 -2.96508 0
M  V30 2458 H 221.266 -0.184167 -3.91667 0
M  V30 2459 H 222.756 0.78873 -4.10084 0
M  V30 2460 N 223.193 1.4272 -0.668489 0
M  V30 2461 C 224.47 1.95248 -0.117373 0
M  V30 2462 C 224.85 1.60919 1.36632 0
M  V30 2463 O 224.198 0.902095 2.09939 0
M  V30 2464 C 224.408 3.46927 -0.379806 0
M  V30 2465 C 225.756 4.23588 -0.292923 0
M  V30 2466 O 226.78 3.5482 -0.313204 0
M  V30 2467 O 225.639 5.46017 -0.229697 0
M  V30 2468 H 222.733 0.827 0.00079152 0
M  V30 2469 H 225.279 1.52581 -0.742783 0
M  V30 2470 H 224.051 3.65096 -1.40786 0
M  V30 2471 H 223.674 3.96627 0.277923 0
M  V30 2472 N 224.671 0.411399 1.52136 0
M  V30 2473 C 225.581 -0.419774 2.30814 0
M  V30 2474 C 226.597 -1.0515 1.38634 0
M  V30 2475 O 227.773 -1.05252 1.71709 0
M  V30 2476 C 224.838 -1.52019 3.11594 0
M  V30 2477 C 223.899 -0.91129 4.19516 0
M  V30 2478 C 223.132 -1.95927 4.96436 0
M  V30 2479 O 223.355 -3.17775 4.73683 0
M  V30 2480 O 222.289 -1.56423 5.81219 0
M  V30 2481 H 226.115 0.221805 3.02889 0
M  V30 2482 H 223.7 0.174547 1.48377 0
M  V30 2483 H 225.582 -2.15898 3.61892 0
M  V30 2484 H 224.257 -2.14633 2.42311 0
M  V30 2485 H 223.164 -0.235157 3.7336 0
M  V30 2486 H 224.497 -0.32904 4.91099 0
M  V30 2487 N 226.149 -1.5696 0.141893 0
M  V30 2488 C 227.374 -2.00754 -0.520838 0
M  V30 2489 C 227.799 -1.0213 -1.57959 0
M  V30 2490 O 227.157 0.00371324 -1.813 0
M  V30 2491 C 227.205 -3.43318 -1.10294 0
M  V30 2492 O 226.309 -3.47679 -2.21795 0
M  V30 2493 H 225.65 -0.651564 -0.127908 0
M  V30 2494 H 228.18 -2.03221 0.23712 0
M  V30 2495 H 228.19 -3.82012 -1.43287 0
M  V30 2496 H 226.865 -4.14608 -0.327574 0
M  V30 2497 H 225.442 -3.20824 -1.9007 0
M  V30 2498 N 227.627 0.131896 -1.57047 0
M  V30 2499 C 228.874 0.841932 -1.84168 0
M  V30 2500 C 229.202 1.8048 -0.725066 0
M  V30 2501 O 228.457 1.93618 0.284692 0
M  V30 2502 C 228.756 1.63703 -3.17704 0
M  V30 2503 C 228.422 0.81961 -4.43388 0
M  V30 2504 C 227.084 0.594148 -4.77518 0
M  V30 2505 C 229.436 0.248977 -5.20605 0
M  V30 2506 C 226.764 -0.212409 -5.86315 0
M  V30 2507 C 229.116 -0.544701 -6.30251 0
M  V30 2508 C 227.78 -0.780599 -6.6292 0
M  V30 2509 H 227.05 0.308085 -0.673917 0
M  V30 2510 H 229.697 0.104867 -1.91213 0
M  V30 2511 H 228.002 2.44464 -3.06177 0
M  V30 2512 H 229.699 2.19015 -3.35907 0
M  V30 2513 H 226.289 1.00542 -4.16641 0
M  V30 2514 H 230.473 0.410408 -4.946 0
M  V30 2515 H 225.729 -0.404524 -6.1006 0
M  V30 2516 H 229.903 -0.993922 -6.89271 0
M  V30 2517 H 227.53 -1.40742 -7.47058 0
M  V30 2518 N 229.106 1.52395 0.401703 0
M  V30 2519 C 230.334 1.70676 1.16949 0
M  V30 2520 C 230.749 0.419503 1.8408 0
M  V30 2521 O 230.106 -0.605061 1.72178 0
M  V30 2522 C 230.157 2.84753 2.22706 0
M  V30 2523 O 229.878 4.08495 1.58314 0
M  V30 2524 C 231.379 3.14608 3.12309 0
M  V30 2525 H 228.599 0.571787 0.351142 0
M  V30 2526 H 231.143 1.98987 0.471652 0
M  V30 2527 H 229.298 2.58941 2.88147 0
M  V30 2528 H 229.712 4.72117 2.28485 0
M  V30 2529 H 231.186 3.97923 3.82572 0
M  V30 2530 H 231.663 2.28464 3.75101 0
M  V30 2531 H 232.269 3.42212 2.52529 0
M  V30 2532 N 230.584 -0.659388 1.43143 0
M  V30 2533 C 231.516 -1.7849 1.43784 0
M  V30 2534 C 232.529 -1.5932 0.334787 0
M  V30 2535 O 233.718 -1.68155 0.598842 0
M  V30 2536 C 230.818 -3.15828 1.22906 0
M  V30 2537 C 229.991 -3.61711 2.45934 0
M  V30 2538 C 229.05 -4.77831 2.20371 0
M  V30 2539 O 228.076 -4.87586 2.93681 0
M  V30 2540 N 229.278 -5.67611 1.21647 0
M  V30 2541 H 232.043 -1.7842 2.40803 0
M  V30 2542 H 229.604 -0.84302 1.3822 0
M  V30 2543 H 231.596 -3.91189 1.03697 0
M  V30 2544 H 230.166 -3.10707 0.343542 0
M  V30 2545 H 229.386 -2.76861 2.80609 0
M  V30 2546 H 230.674 -3.89112 3.27825 0
M  V30 2547 H 230.072 -5.62397 0.610449 0
M  V30 2548 H 228.629 -6.42719 1.08423 0
M  V30 2549 N 232.062 -1.29571 -0.897171 0
M  V30 2550 C 233.31 -1.17456 -1.64464 0
M  V30 2551 C 233.631 0.273698 -1.9307 0
M  V30 2552 O 232.901 1.18684 -1.55855 0
M  V30 2553 H 231.481 -0.431706 -0.609622 0
M  V30 2554 H 234.143 -1.62531 -1.07562 0
M  V30 2555 H 233.239 -1.72648 -2.59998 0
M  V30 2556 N 233.54 1.10788 -1.12088 0
M  V30 2557 C 234.817 1.79136 -0.785476 0
M  V30 2558 C 235.197 1.98246 0.725377 0
M  V30 2559 O 234.545 1.57258 1.65778 0
M  V30 2560 C 234.755 3.12375 -1.55636 0
M  V30 2561 C 236.103 3.8731 -1.74001 0
M  V30 2562 O 237.127 3.22085 -1.52117 0
M  V30 2563 O 235.986 5.04369 -2.10415 0
M  V30 2564 H 233.08 0.776226 -0.285311 0
M  V30 2565 H 235.626 1.1747 -1.2247 0
M  V30 2566 H 234.398 2.93863 -2.5838 0
M  V30 2567 H 234.021 3.81758 -1.11114 0
M  V30 2568 N 235.018 0.912232 1.28515 0
M  V30 2569 C 235.948 0.416403 2.29757 0
M  V30 2570 C 236.929 -0.515194 1.6211 0
M  V30 2571 O 238.114 -0.423253 1.89532 0
M  V30 2572 C 235.244 -0.34572 3.45575 0
M  V30 2573 C 234.198 0.496599 4.25109 0
M  V30 2574 C 233.524 -0.393771 5.33248 0
M  V30 2575 C 234.824 1.75307 4.92001 0
M  V30 2576 H 236.518 1.26249 2.7148 0
M  V30 2577 H 234.064 0.608515 1.30511 0
M  V30 2578 H 236.017 -0.703422 4.15488 0
M  V30 2579 H 234.741 -1.2257 3.02728 0
M  V30 2580 H 233.4 0.8368 3.56922 0
M  V30 2581 H 233.048 -1.27225 4.86644 0
M  V30 2582 H 232.748 0.166209 5.87365 0
M  V30 2583 H 234.272 -0.747389 6.06009 0
M  V30 2584 H 235.686 1.46437 5.54283 0
M  V30 2585 H 234.083 2.25534 5.56106 0
M  V30 2586 H 235.153 2.48176 4.16577 0
M  V30 2587 N 236.496 -1.42363 0.676048 0
M  V30 2588 C 237.744 -2.01123 0.198437 0
M  V30 2589 C 238.065 -1.53731 -1.19966 0
M  V30 2590 O 237.335 -0.759518 -1.80577 0
M  V30 2591 H 235.915 -0.743678 0.0703721 0
M  V30 2592 H 238.577 -1.74263 0.872837 0
M  V30 2593 H 237.673 -3.11454 0.200686 0
M  V30 2594 N 237.974 -0.419461 -1.51915 0
M  V30 2595 C 238.884 0.407528 -2.31033 0
M  V30 2596 C 239.9 1.04413 -1.3919 0
M  V30 2597 O 241.076 1.0434 -1.72265 0
M  V30 2598 C 238.141 1.50365 -3.12396 0
M  V30 2599 C 237.202 0.889029 -4.19994 0
M  V30 2600 C 236.435 1.93291 -4.97468 0
M  V30 2601 O 236.658 3.15259 -4.75361 0
M  V30 2602 O 235.592 1.53339 -5.8204 0
M  V30 2603 H 239.418 -0.237865 -3.02767 0
M  V30 2604 H 237.003 -0.182413 -1.48282 0
M  V30 2605 H 238.885 2.13975 -3.63032 0
M  V30 2606 H 237.56 2.13345 -2.43445 0
M  V30 2607 H 236.467 0.215353 -3.7348 0
M  V30 2608 H 237.8 0.302991 -4.91267 0
M  V30 2609 N 239.452 1.56882 -0.150215 0
M  V30 2610 C 240.868 1.58263 0.20617 0
M  V30 2611 C 241.068 1.16464 1.64434 0
M  V30 2612 O 240.124 0.866422 2.3717 0
M  V30 2613 C 241.437 3.00649 -0.0555025 0
M  V30 2614 C 242.985 3.12999 0.00795388 0
M  V30 2615 C 243.46 4.5744 -0.226429 0
M  V30 2616 N 244.951 4.62875 -0.173469 0
M  V30 2617 C 245.686 5.72454 -0.329288 0
M  V30 2618 N 245.182 6.90669 -0.543005 0
M  V30 2619 N 246.975 5.61467 -0.266666 0
M  V30 2620 H 239.126 1.82345 -1.08922 0
M  V30 2621 H 241.389 0.844149 -0.431413 0
M  V30 2622 H 241.095 3.3563 -1.05096 0
M  V30 2623 H 240.969 3.71337 0.66246 0
M  V30 2624 H 243.356 2.77857 0.993966 0
M  V30 2625 H 243.437 2.4479 -0.742388 0
M  V30 2626 H 243.081 4.93287 -1.20956 0
M  V30 2627 H 243.011 5.2378 0.544274 0
M  V30 2628 H 245.502 3.77898 -0.0130709 0
M  V30 2629 H 245.815 7.70045 -0.651922 0
M  V30 2630 H 244.16 6.92581 -0.579366 0
M  V30 2631 H 247.351 4.67992 -0.100441 0
M  V30 2632 H 247.524 6.46816 -0.391535 0
M  V30 2633 N 240.93 -0.123565 1.57115 0
M  V30 2634 C 241.877 -1.15177 2.00007 0
M  V30 2635 C 242.847 -1.41403 0.871454 0
M  V30 2636 O 244.032 -1.53346 1.13533 0
M  V30 2637 C 241.172 -2.47436 2.40561 0
M  V30 2638 C 240.285 -2.28184 3.66819 0
M  V30 2639 C 239.42 -3.53641 3.96373 0
M  V30 2640 C 238.459 -3.29528 5.15827 0
M  V30 2641 N 237.596 -4.47175 5.41275 0
M  V30 2642 H 242.436 -0.779008 2.87638 0
M  V30 2643 H 239.973 -0.373166 1.42288 0
M  V30 2644 H 241.931 -3.24584 2.62109 0
M  V30 2645 H 240.561 -2.82614 1.55978 0
M  V30 2646 H 239.613 -1.41976 3.52912 0
M  V30 2647 H 240.925 -2.0634 4.5412 0
M  V30 2648 H 240.079 -4.39209 4.18545 0
M  V30 2649 H 238.818 -3.78512 3.07538 0
M  V30 2650 H 237.823 -2.42349 4.93505 0
M  V30 2651 H 239.048 -3.06031 6.06236 0
M  V30 2652 H 236.994 -4.72175 4.55397 0
M  V30 2653 H 236.911 -4.28419 6.22891 0
M  V30 2654 H 238.179 -5.3389 5.67963 0
M  V30 2655 N 242.408 -1.52605 -0.393616 0
M  V30 2656 C 243.341 -1.71798 -1.50202 0
M  V30 2657 C 244.319 -0.565743 -1.52441 0
M  V30 2658 O 245.503 -0.794987 -1.70916 0
M  V30 2659 C 242.63 -1.7714 -2.88685 0
M  V30 2660 C 241.676 -2.98845 -3.04292 0
M  V30 2661 S 242.509 -4.58909 -2.75976 0
M  V30 2662 C 243.665 -4.6706 -4.1666 0
M  V30 2663 H 243.898 -2.65542 -1.33696 0
M  V30 2664 H 241.431 -1.42839 -0.586195 0
M  V30 2665 H 243.389 -1.80903 -3.68489 0
M  V30 2666 H 242.05 -0.844969 -3.02521 0
M  V30 2667 H 241.243 -2.99111 -4.05646 0
M  V30 2668 H 240.845 -2.9305 -2.32374 0
M  V30 2669 H 243.137 -4.45391 -5.10523 0
M  V30 2670 H 244.08 -5.6905 -4.21412 0
M  V30 2671 H 244.488 -3.95944 -4.02354 0
M  V30 2672 N 243.887 0.651787 -1.4349 0
M  V30 2673 C 244.834 1.76462 -1.4876 0
M  V30 2674 C 245.804 1.62641 -0.337189 0
M  V30 2675 O 246.989 1.82864 -0.544544 0
M  V30 2676 C 244.129 3.14623 -1.41796 0
M  V30 2677 C 243.242 3.39568 -2.67053 0
M  V30 2678 C 242.377 4.67585 -2.52068 0
M  V30 2679 C 241.416 4.85639 -3.72587 0
M  V30 2680 N 240.553 6.04915 -3.56402 0
M  V30 2681 H 245.393 1.71293 -2.43849 0
M  V30 2682 H 242.93 0.835889 -1.21043 0
M  V30 2683 H 244.888 3.94496 -1.35753 0
M  V30 2684 H 243.518 3.18859 -0.50288 0
M  V30 2685 H 242.57 2.53783 -2.8337 0
M  V30 2686 H 243.882 3.48795 -3.56572 0
M  V30 2687 H 243.036 5.55586 -2.4374 0
M  V30 2688 H 241.775 4.60681 -1.60075 0
M  V30 2689 H 240.78 3.96073 -3.81321 0
M  V30 2690 H 242.005 4.94372 -4.65589 0
M  V30 2691 H 239.951 5.9914 -2.67146 0
M  V30 2692 H 239.868 6.15106 -4.39524 0
M  V30 2693 H 241.136 6.95533 -3.51929 0
M  V30 2694 N 245.365 1.30045 0.890287 0
M  V30 2695 C 246.295 1.18541 2.01172 0
M  V30 2696 C 247.276 0.0773356 1.69924 0
M  V30 2697 O 248.461 0.25845 1.92473 0
M  V30 2698 C 245.591 0.870941 3.36202 0
M  V30 2699 C 244.545 1.93637 3.81692 0
M  V30 2700 C 243.871 1.475 5.13953 0
M  V30 2701 C 245.171 3.34666 4.00994 0
M  V30 2702 H 246.865 2.12359 2.11054 0
M  V30 2703 H 244.411 1.02238 1.01407 0
M  V30 2704 H 246.364 0.777141 4.14172 0
M  V30 2705 H 245.088 -0.102926 3.26438 0
M  V30 2706 H 243.747 2.01972 3.05946 0
M  V30 2707 H 243.395 0.489551 5.00612 0
M  V30 2708 H 243.095 2.1876 5.4536 0
M  V30 2709 H 244.619 1.39489 5.94454 0
M  V30 2710 H 246.033 3.2912 4.69417 0
M  V30 2711 H 244.43 4.03966 4.43769 0
M  V30 2712 H 245.5 3.76949 3.05021 0
M  V30 2713 N 246.843 -1.10192 1.12674 0
M  V30 2714 C 247.791 -2.18694 0.792196 0
M  V30 2715 C 248.785 -1.67938 -0.222058 0
M  V30 2716 O 249.991 -1.79822 -0.0800074 0
M  V30 2717 H 246.366 -0.713223 0.238364 0
M  V30 2718 H 248.337 -2.44149 1.71564 0
M  V30 2719 C 247.086 -3.46682 0.265859 0
M  V30 2720 H 246.409 -3.86101 1.03761 0
M  V30 2721 H 247.849 -4.23942 0.0701128 0
M  V30 2722 C 246.308 -3.21506 -1.00675 0
M  V30 2723 O 246.838 -3.43408 -2.08408 0
M  V30 2724 N 245.044 -2.75158 -0.934692 0
M  V30 2725 H 244.591 -2.57535 -0.0578604 0
M  V30 2726 H 244.549 -2.58691 -1.7868 0
M  V30 2727 N 248.321 -0.919034 -1.28029 0
M  V30 2728 C 249.549 -0.570971 -1.98866 0
M  V30 2729 C 249.964 0.848996 -1.68634 0
M  V30 2730 O 249.321 1.56307 -0.942036 0
M  V30 2731 C 249.372 -0.776876 -3.53054 0
M  V30 2732 O 249.093 -2.14097 -3.82222 0
M  V30 2733 C 250.594 -0.436356 -4.41147 0
M  V30 2734 H 247.814 -0.217175 -0.634883 0
M  V30 2735 H 250.358 -1.23368 -1.63097 0
M  V30 2736 H 248.513 -0.161085 -3.87065 0
M  V30 2737 H 248.927 -2.18455 -4.76841 0
M  V30 2738 H 250.401 -0.63117 -5.4838 0
M  V30 2739 H 250.878 0.627686 -4.34692 0
M  V30 2740 H 251.484 -1.02991 -4.12641 0
M  V30 2741 N 249.799 1.42003 -0.683588 0
M  V30 2742 C 250.709 2.34597 -0.0109075 0
M  V30 2743 C 251.725 1.55576 0.779245 0
M  V30 2744 O 252.901 1.88107 0.719555 0
M  V30 2745 C 249.966 3.34199 0.922588 0
M  V30 2746 C 249.027 4.29115 0.125984 0
M  V30 2747 C 248.26 5.23959 1.01502 0
M  V30 2748 O 248.483 5.23952 2.25456 0
M  V30 2749 O 247.417 6.00053 0.47111 0
M  V30 2750 H 251.243 2.93675 -0.773853 0
M  V30 2751 H 248.828 1.42654 -0.443861 0
M  V30 2752 H 250.71 3.95365 1.45823 0
M  V30 2753 H 249.385 2.77582 1.66523 0
M  V30 2754 H 248.292 3.71335 -0.453969 0
M  V30 2755 H 249.625 4.88798 -0.577736 0
M  V30 2756 N 251.277 0.427512 1.51691 0
M  V30 2757 C 252.523 -0.142439 2.02299 0
M  V30 2758 C 252.856 -1.43214 1.31162 0
M  V30 2759 O 252.131 -1.89833 0.423511 0
M  V30 2760 C 252.414 -0.371301 3.58181 0
M  V30 2761 C 252.267 0.936358 4.39946 0
M  V30 2762 C 253.586 -1.14542 4.24933 0
M  V30 2763 H 250.705 -0.0502937 0.735282 0
M  V30 2764 H 253.347 0.564584 1.81418 0
M  V30 2765 H 251.497 -0.973559 3.76104 0
M  V30 2766 H 253.169 1.57184 4.33694 0
M  V30 2767 H 251.412 1.5432 4.05423 0
M  V30 2768 H 252.083 0.730388 5.47147 0
M  V30 2769 H 254.559 -0.635362 4.11221 0
M  V30 2770 H 253.435 -1.27431 5.33903 0
M  V30 2771 H 253.696 -2.17093 3.85127 0
M  V30 2772 N 252.755 -1.56801 0.158532 0
M  V30 2773 C 254.171 -1.5837 -0.197774 0
M  V30 2774 C 254.371 -1.17334 -1.63814 0
M  V30 2775 O 253.427 -0.878988 -2.36707 0
M  V30 2776 C 254.74 -3.00615 0.0714459 0
M  V30 2777 C 256.288 -3.12999 0.00864533 0
M  V30 2778 C 256.763 -4.57313 0.250685 0
M  V30 2779 N 258.254 -4.62777 0.198014 0
M  V30 2780 C 258.989 -5.72271 0.359642 0
M  V30 2781 N 258.485 -6.90371 0.579625 0
M  V30 2782 N 260.278 -5.61318 0.296438 0
M  V30 2783 H 252.429 -1.81765 1.09887 0
M  V30 2784 H 254.692 -0.841849 0.435884 0
M  V30 2785 H 254.398 -3.35068 1.06874 0
M  V30 2786 H 254.272 -3.71683 -0.642757 0
M  V30 2787 H 256.659 -2.7838 -0.979217 0
M  V30 2788 H 256.74 -2.44393 0.755359 0
M  V30 2789 H 256.384 -4.92639 1.2357 0
M  V30 2790 H 256.314 -5.24061 -0.516489 0
M  V30 2791 H 258.805 -3.77885 0.0331115 0
M  V30 2792 H 259.118 -7.69689 0.69275 0
M  V30 2793 H 257.463 -6.92264 0.616087 0
M  V30 2794 H 260.654 -4.67932 0.125258 0
M  V30 2795 H 260.827 -6.46599 0.425831 0
M  V30 2796 N 254.233 0.115231 -1.57178 0
M  V30 2797 C 255.143 1.15994 -2.03918 0
M  V30 2798 C 256.159 1.45103 -0.960268 0
M  V30 2799 O 257.335 1.56144 -1.27204 0
M  V30 2800 C 254.4 2.46568 -2.43732 0
M  V30 2801 C 253.461 2.24822 -3.65723 0
M  V30 2802 C 252.694 3.4917 -4.03629 0
M  V30 2803 O 252.917 4.56623 -3.41835 0
M  V30 2804 O 251.851 3.39949 -4.96708 0
M  V30 2805 H 255.677 0.793019 -2.93164 0
M  V30 2806 H 253.262 0.3263 -1.45793 0
M  V30 2807 H 255.144 3.23492 -2.70057 0
M  V30 2808 H 253.819 2.82726 -1.57631 0
M  V30 2809 H 252.726 1.45744 -3.44542 0
M  V30 2810 H 254.059 1.93566 -4.52541 0
M  V30 2811 N 255.711 1.52812 0.385517 0
M  V30 2812 C 256.96 1.67249 1.12741 0
M  V30 2813 C 257.273 0.4205 1.91027 0
M  V30 2814 O 258.479 0.445064 2.67827 0
M  V30 2815 C 256.935 2.95583 2.05326 0
M  V30 2816 C 256.543 4.27974 1.32447 0
M  V30 2817 C 258.287 3.19386 2.7963 0
M  V30 2818 C 256.194 5.47412 2.23818 0
M  V30 2819 H 255.124 0.6231 0.424573 0
M  V30 2820 H 257.775 1.79309 0.389924 0
M  V30 2821 H 256.157 2.77277 2.82725 0
M  V30 2822 H 257.331 4.56844 0.602495 0
M  V30 2823 H 255.646 4.10459 0.700885 0
M  V30 2824 H 258.243 4.05801 3.48181 0
M  V30 2825 H 258.586 2.34604 3.43899 0
M  V30 2826 H 259.119 3.38274 2.09322 0
M  V30 2827 H 255.858 6.34612 1.64157 0
M  V30 2828 H 255.378 5.22849 2.93921 0
M  V30 2829 H 257.057 5.81423 2.83824 0
M  V30 2830 N 257.189 -0.644168 1.43834 0
M  V30 2831 C 258.437 -1.40117 1.45642 0
M  V30 2832 C 258.758 -1.94814 0.0852413 0
M  V30 2833 O 258.028 -1.74988 -0.880688 0
M  V30 2834 H 256.608 -0.52005 0.536243 0
M  V30 2835 H 259.27 -0.7591 1.7951 0
M  V30 2836 H 258.366 -2.23902 2.17427 0
M  V30 2837 N 258.668 -1.30515 -0.883378 0
M  V30 2838 C 260.079 -1.17509 -1.45081 0
M  V30 2839 C 260.43 0.223605 -1.94922 0
M  V30 2840 O 259.555 1.12041 -1.85137 0
M  V30 2841 C 260.15 -2.12715 -2.63701 0
M  V30 2842 C 258.709 -2.03682 -3.16529 0
M  V30 2843 C 257.856 -2.02706 -1.89224 0
M  V30 2844 H 260.807 -1.42762 -0.693165 0
M  V30 2845 H 260.828 -1.70891 -3.39965 0
M  V30 2846 H 260.34 -3.14505 -2.27395 0
M  V30 2847 H 258.441 -1.05039 -3.57488 0
M  V30 2848 H 258.554 -2.92146 -3.7972 0
M  V30 2849 H 256.918 -1.4753 -2.07622 0
M  V30 2850 H 257.701 -3.06229 -1.55174 0
M  V30 2851 N 260.146 1.09593 -1.13257 0
M  V30 2852 C 261.076 2.18214 -0.830946 0
M  V30 2853 C 262.057 1.68812 0.208966 0
M  V30 2854 O 263.242 1.9408 0.0682666 0
M  V30 2855 C 260.372 3.46051 -0.294296 0
M  V30 2856 C 259.326 4.08778 -1.26826 0
M  V30 2857 C 258.652 5.31419 -0.591449 0
M  V30 2858 C 259.952 4.51476 -2.62615 0
M  V30 2859 H 261.646 2.43703 -1.73923 0
M  V30 2860 H 259.192 1.17128 -0.837675 0
M  V30 2861 H 261.145 4.2134 -0.0709606 0
M  V30 2862 H 259.869 3.20079 0.649366 0
M  V30 2863 H 258.528 3.35505 -1.47756 0
M  V30 2864 H 258.176 5.01727 0.357633 0
M  V30 2865 H 257.876 5.74341 -1.24123 0
M  V30 2866 H 259.4 6.09433 -0.377355 0
M  V30 2867 H 260.814 5.17999 -2.45663 0
M  V30 2868 H 259.211 5.05277 -3.23752 0
M  V30 2869 H 260.281 3.63962 -3.20406 0
M  V30 2870 N 261.624 0.925811 1.2754 0
M  V30 2871 C 262.849 0.580924 1.99098 0
M  V30 2872 C 263.274 -0.833555 1.68622 0
M  V30 2873 O 262.632 -1.55903 0.925422 0
M  V30 2874 C 262.68 0.811186 3.51358 0
M  V30 2875 O 261.784 -0.124129 4.12213 0
M  V30 2876 H 261.125 0.223873 0.625122 0
M  V30 2877 H 263.655 1.24455 1.62395 0
M  V30 2878 H 263.665 0.72601 4.01489 0
M  V30 2879 H 262.34 1.84227 3.72872 0
M  V30 2880 H 260.917 0.0108006 3.72898 0
M  V30 2881 N 263.102 -1.41638 0.69111 0
M  V30 2882 C 264.049 -2.30789 0.0229705 0
M  V30 2883 C 265.019 -1.46863 -0.775911 0
M  V30 2884 O 266.204 -1.75661 -0.74485 0
M  V30 2885 C 263.344 -3.32868 -0.910666 0
M  V30 2886 C 262.457 -4.31875 -0.103874 0
M  V30 2887 C 261.592 -5.21024 -1.03475 0
M  V30 2888 C 260.631 -6.11702 -0.220598 0
M  V30 2889 N 259.768 -6.93349 -1.10504 0
M  V30 2890 H 264.608 -2.87366 0.788978 0
M  V30 2891 H 262.145 -1.41535 0.400794 0
M  V30 2892 H 264.103 -3.90596 -1.46597 0
M  V30 2893 H 262.733 -2.77851 -1.64312 0
M  V30 2894 H 261.785 -3.76131 0.568285 0
M  V30 2895 H 263.097 -4.96003 0.527504 0
M  V30 2896 H 262.251 -5.83565 -1.65943 0
M  V30 2897 H 260.99 -4.57112 -1.69999 0
M  V30 2898 H 259.995 -5.48215 0.417187 0
M  V30 2899 H 261.22 -6.77668 0.440784 0
M  V30 2900 H 259.166 -6.3205 -1.75638 0
M  V30 2901 H 259.083 -7.54146 -0.529125 0
M  V30 2902 H 260.351 -7.60362 -1.71667 0
M  V30 2903 N 264.58 -0.43555 -1.51462 0
M  V30 2904 C 265.527 0.376797 -2.27703 0
M  V30 2905 C 266.497 1.01838 -1.31219 0
M  V30 2906 O 267.682 1.03762 -1.60119 0
M  V30 2907 C 264.822 1.47301 -3.12084 0
M  V30 2908 C 263.935 0.849744 -4.2356 0
M  V30 2909 C 263.07 1.92086 -4.95254 0
M  V30 2910 C 262.109 1.27593 -5.98654 0
M  V30 2911 N 261.246 2.28833 -6.63762 0
M  V30 2912 H 266.086 -0.279734 -2.96684 0
M  V30 2913 H 263.623 -0.149795 -1.46335 0
M  V30 2914 H 265.581 2.11984 -3.59331 0
M  V30 2915 H 264.211 2.0992 -2.45221 0
M  V30 2916 H 263.263 0.0912529 -3.80291 0
M  V30 2917 H 264.575 0.338878 -4.97648 0
M  V30 2918 H 263.729 2.64435 -5.46039 0
M  V30 2919 H 262.468 2.46545 -4.20793 0
M  V30 2920 H 261.473 0.537893 -5.47162 0
M  V30 2921 H 262.698 0.738693 -6.7507 0
M  V30 2922 H 260.644 2.82375 -5.92115 0
M  V30 2923 H 260.561 1.82632 -7.33608 0
M  V30 2924 H 261.829 3.00671 -7.19178 0
M  V30 2925 N 266.058 1.56714 -0.166846 0
M  V30 2926 C 267.306 1.96358 0.478305 0
M  V30 2927 C 267.627 1.0537 1.6408 0
M  V30 2928 O 266.897 0.119154 1.95537 0
M  V30 2929 H 265.477 0.725065 0.179692 0
M  V30 2930 H 268.139 1.93329 -0.246985 0
M  V30 2931 H 267.235 3.00547 0.841292 0
M  V30 2932 N 267.536 -0.106894 1.57237 0
M  V30 2933 C 268.783 -0.812526 1.85484 0
M  V30 2934 C 269.111 -1.79304 0.753687 0
M  V30 2935 O 268.366 -1.94047 -0.253853 0
M  V30 2936 C 268.665 -1.58628 3.20268 0
M  V30 2937 C 268.331 -0.748967 4.44636 0
M  V30 2938 C 266.993 -0.518104 4.78403 0
M  V30 2939 C 269.345 -0.166122 5.20935 0
M  V30 2940 C 266.673 0.305659 5.85903 0
M  V30 2941 C 269.025 0.644899 6.29304 0
M  V30 2942 C 267.689 0.885965 6.61594 0
M  V30 2943 H 266.959 -0.297324 0.678734 0
M  V30 2944 H 269.606 -0.0744332 1.91355 0
M  V30 2945 H 267.911 -2.39562 3.10028 0
M  V30 2946 H 269.608 -2.13643 3.39349 0
M  V30 2947 H 266.198 -0.939006 4.18187 0
M  V30 2948 H 270.382 -0.33167 4.95191 0
M  V30 2949 H 265.638 0.501528 6.0934 0
M  V30 2950 H 269.812 1.10345 6.87602 0
M  V30 2951 H 267.439 1.52609 7.44725 0
M  V30 2952 N 269.014 -1.53014 -0.377408 0
M  V30 2953 C 270.244 -1.72265 -1.14054 0
M  V30 2954 C 270.652 -0.44601 -1.83868 0
M  V30 2955 O 269.995 0.590095 -1.73964 0
M  V30 2956 C 270.057 -2.82492 -2.22348 0
M  V30 2957 C 269.721 -4.23233 -1.72402 0
M  V30 2958 C 270.718 -5.05992 -1.19448 0
M  V30 2959 C 268.403 -4.696 -1.78273 0
M  V30 2960 C 270.397 -6.33203 -0.730268 0
M  V30 2961 C 268.084 -5.96792 -1.31464 0
M  V30 2962 C 269.082 -6.78424 -0.789297 0
M  V30 2963 O 268.77 -8.0323 -0.328077 0
M  V30 2964 H 268.502 -0.579873 -0.347453 0
M  V30 2965 H 271.056 -2.00502 -0.445882 0
M  V30 2966 H 269.286 -2.49702 -2.95272 0
M  V30 2967 H 270.975 -2.90034 -2.83963 0
M  V30 2968 H 271.741 -4.71349 -1.14259 0
M  V30 2969 H 267.62 -4.06142 -2.18106 0
M  V30 2970 H 271.164 -6.96868 -0.319542 0
M  V30 2971 H 267.061 -6.30937 -1.36342 0
M  V30 2972 H 267.829 -8.1727 -0.448493 0
M  V30 2973 N 270.492 0.636531 -1.44174 0
M  V30 2974 C 271.422 1.76003 -1.53444 0
M  V30 2975 C 272.403 1.65619 -0.387841 0
M  V30 2976 O 273.588 1.84461 -0.607257 0
M  V30 2977 C 270.718 3.14511 -1.4731 0
M  V30 2978 C 269.672 3.39677 -2.60391 0
M  V30 2979 C 268.998 4.78159 -2.39308 0
M  V30 2980 C 270.298 3.32772 -4.02567 0
M  V30 2981 H 271.992 1.68501 -2.47483 0
M  V30 2982 H 269.538 0.809237 -1.19111 0
M  V30 2983 H 271.491 3.92878 -1.52397 0
M  V30 2984 H 270.215 3.22783 -0.49785 0
M  V30 2985 H 268.874 2.63688 -2.54684 0
M  V30 2986 H 268.522 4.83128 -1.39988 0
M  V30 2987 H 268.222 4.95956 -3.15122 0
M  V30 2988 H 269.746 5.58762 -2.46205 0
M  V30 2989 H 271.16 4.01051 -4.09672 0
M  V30 2990 H 269.557 3.62104 -4.7854 0
M  V30 2991 H 270.627 2.30669 -4.2652 0
M  V30 2992 N 271.97 1.30982 0.876444 0
M  V30 2993 C 272.933 1.18054 1.96459 0
M  V30 2994 C 273.933 0.109399 1.60427 0
M  V30 2995 O 275.123 0.358173 1.70478 0
M  V30 2996 C 272.255 0.810616 3.31122 0
M  V30 2997 H 273.448 2.14735 2.09354 0
M  V30 2998 H 271.001 1.145 1.06392 0
M  V30 2999 H 271.736 -0.155322 3.23928 0
M  V30 3000 H 271.521 1.58481 3.58645 0
M  V30 3001 H 273.011 0.743876 4.10921 0
M  V30 3002 N 273.449 -1.08991 1.13837 0
M  V30 3003 C 274.696 -1.81258 0.902882 0
M  V30 3004 C 275.024 -1.85936 -0.570803 0
M  V30 3005 O 274.279 -1.3267 -1.43865 0
M  V30 3006 C 274.578 -3.27042 1.44147 0
M  V30 3007 C 274.244 -3.4249 2.93276 0
M  V30 3008 C 272.906 -3.46414 3.33992 0
M  V30 3009 C 275.258 -3.4666 3.892 0
M  V30 3010 C 272.586 -3.52091 4.69307 0
M  V30 3011 C 274.938 -3.53872 5.24364 0
M  V30 3012 C 273.602 -3.56066 5.646 0
M  V30 3013 H 272.872 -0.663268 0.330388 0
M  V30 3014 H 275.519 -1.28368 1.42105 0
M  V30 3015 H 273.824 -3.82599 0.844097 0
M  V30 3016 H 275.521 -3.81499 1.23528 0
M  V30 3017 H 272.111 -3.40124 2.60794 0
M  V30 3018 H 276.295 -3.42865 3.58828 0
M  V30 3019 H 271.551 -3.52079 4.9985 0
M  V30 3020 H 275.725 -3.56043 5.98503 0
M  V30 3021 H 273.352 -3.60218 6.69438 0
M  V30 3022 N 274.927 -0.932562 -1.27047 0
M  V30 3023 C 275.859 -0.392734 -2.2581 0
M  V30 3024 C 276.872 0.479241 -1.55586 0
M  V30 3025 O 278.061 0.291078 -1.76111 0
M  V30 3026 C 275.161 0.455456 -3.35826 0
M  V30 3027 C 274.334 -0.398355 -4.35582 0
M  V30 3028 C 273.393 0.387985 -5.24768 0
M  V30 3029 O 272.419 -0.206003 -5.68827 0
M  V30 3030 N 273.621 1.68664 -5.55457 0
M  V30 3031 H 276.386 -1.24173 -2.72766 0
M  V30 3032 H 273.947 -0.800511 -1.40725 0
M  V30 3033 H 275.939 0.988692 -3.92437 0
M  V30 3034 H 274.509 1.20522 -2.88432 0
M  V30 3035 H 273.729 -1.11286 -3.78165 0
M  V30 3036 H 275.017 -0.981889 -4.99236 0
M  V30 3037 H 274.415 2.19147 -5.21528 0
M  V30 3038 H 272.972 2.1663 -6.14748 0
M  V30 3039 N 276.405 1.4127 -0.698611 0
M  V30 3040 C 277.682 1.94955 -0.158762 0
M  V30 3041 C 278.062 1.63781 1.33188 0
M  V30 3042 O 277.41 0.946423 2.07979 0
M  V30 3043 C 277.62 3.46044 -0.453309 0
M  V30 3044 C 278.968 4.22872 -0.382707 0
M  V30 3045 O 279.992 3.54076 -0.388396 0
M  V30 3046 O 278.851 5.45407 -0.345463 0
M  V30 3047 H 275.945 0.82683 -0.0167505 0
M  V30 3048 H 278.491 1.50971 -0.77498 0
M  V30 3049 H 277.263 3.62028 -1.48498 0
M  V30 3050 H 276.886 3.97128 0.19373 0
M  V30 3051 N 277.883 0.443576 1.51229 0
M  V30 3052 C 279.129 -0.120975 2.02439 0
M  V30 3053 C 279.462 -1.41815 1.32674 0
M  V30 3054 O 278.737 -1.89373 0.443622 0
M  V30 3055 C 279.02 -0.333291 3.58554 0
M  V30 3056 C 278.873 0.982968 4.38928 0
M  V30 3057 C 280.192 -1.10028 4.26124 0
M  V30 3058 H 277.311 -0.0424923 0.735774 0
M  V30 3059 H 279.953 0.583794 1.80809 0
M  V30 3060 H 278.103 -0.933614 3.77115 0
M  V30 3061 H 279.775 1.61775 4.32003 0
M  V30 3062 H 278.018 1.58611 4.03763 0
M  V30 3063 H 278.689 0.788379 5.46341 0
M  V30 3064 H 281.165 -0.591711 4.11871 0
M  V30 3065 H 280.041 -1.21761 5.35225 0
M  V30 3066 H 280.302 -2.12996 3.87408 0
M  V30 3067 N 279.361 -1.56624 0.175154 0
M  V30 3068 C 280.609 -1.96609 -0.467885 0
M  V30 3069 C 280.93 -1.06238 -1.63519 0
M  V30 3070 O 280.2 -0.129523 -1.95471 0
M  V30 3071 H 278.78 -0.726008 -0.175845 0
M  V30 3072 H 281.442 -1.93195 0.257234 0
M  V30 3073 H 280.538 -3.00989 -0.825342 0
M  V30 3074 N 280.839 0.0985539 -1.57292 0
M  V30 3075 C 281.802 1.10402 -2.00858 0
M  V30 3076 C 282.802 1.33146 -0.901593 0
M  V30 3077 O 283.992 1.29318 -1.16716 0
M  V30 3078 C 281.124 2.45394 -2.36632 0
M  V30 3079 H 282.317 0.729099 -2.90902 0
M  V30 3080 H 279.87 0.343495 -1.52479 0
M  V30 3081 H 280.605 2.87769 -1.49531 0
M  V30 3082 H 280.39 2.30235 -3.17387 0
M  V30 3083 H 281.88 3.17718 -2.71007 0
M  V30 3084 N 282.317 1.53212 0.369288 0
M  V30 3085 C 283.557 1.70915 1.12105 0
M  V30 3086 C 283.921 0.449444 1.86665 0
M  V30 3087 O 285.122 0.503105 2.6405 0
M  V30 3088 C 283.393 2.9222 2.05772 0
M  V30 3089 S 284.952 3.30609 2.88519 0
M  V30 3090 H 281.77 0.601445 0.379189 0
M  V30 3091 H 284.372 1.91306 0.402794 0
M  V30 3092 H 283.076 3.82103 1.49752 0
M  V30 3093 H 282.607 2.7422 2.82076 0
M  V30 3094 H 284.622 2.82333 4.08047 0
M  V30 3095 N 283.795 -0.628877 1.44509 0
M  V30 3096 C 285.044 -1.38437 1.4669 0
M  V30 3097 C 285.357 -1.95322 0.104272 0
M  V30 3098 O 286.563 -2.715 0.00362163 0
M  V30 3099 C 285.019 -2.50659 2.5826 0
M  V30 3100 C 284.627 -2.00277 4.0074 0
M  V30 3101 C 286.371 -3.27844 2.69664 0
M  V30 3102 C 284.278 -3.09854 5.0373 0
M  V30 3103 H 283.208 -0.520245 0.545766 0
M  V30 3104 H 285.859 -0.676313 1.70582 0
M  V30 3105 H 284.241 -3.2405 2.27612 0
M  V30 3106 H 285.415 -1.33736 4.40966 0
M  V30 3107 H 283.73 -1.35901 3.93599 0
M  V30 3108 H 286.327 -4.09534 3.43781 0
M  V30 3109 H 286.67 -3.77471 1.75559 0
M  V30 3110 H 287.203 -2.61543 2.99733 0
M  V30 3111 H 283.942 -2.65168 5.99472 0
M  V30 3112 H 283.462 -3.7503 4.68095 0
M  V30 3113 H 285.141 -3.74592 5.27532 0
M  V30 3114 N 285.273 -1.31445 -0.869486 0
M  V30 3115 C 286.236 -1.19094 -1.9583 0
M  V30 3116 C 287.236 -0.117906 -1.60367 0
M  V30 3117 O 288.426 -0.367208 -1.70286 0
M  V30 3118 C 285.558 -0.828165 -3.30688 0
M  V30 3119 H 286.751 -2.15842 -2.08212 0
M  V30 3120 H 284.304 -1.15063 -1.05784 0
M  V30 3121 H 285.039 0.138142 -3.24006 0
M  V30 3122 H 284.824 -1.6038 -3.578 0
M  V30 3123 H 286.314 -0.765658 -4.10521 0
M  V30 3124 N 286.751 1.08385 -1.14413 0
M  V30 3125 C 287.681 2.17321 -0.854044 0
M  V30 3126 C 288.662 1.69024 0.191049 0
M  V30 3127 O 289.847 1.94141 0.0476779 0
M  V30 3128 C 286.977 3.45719 -0.330983 0
M  V30 3129 C 285.931 4.07409 -1.31155 0
M  V30 3130 C 285.257 5.30762 -0.64778 0
M  V30 3131 C 286.557 4.48665 -2.67388 0
M  V30 3132 H 288.251 2.41845 -1.76498 0
M  V30 3133 H 285.797 1.16233 -0.850051 0
M  V30 3134 H 287.75 4.21241 -0.115645 0
M  V30 3135 H 286.474 3.2075 0.615381 0
M  V30 3136 H 285.133 3.33919 -1.51306 0
M  V30 3137 H 284.781 5.02078 0.304398 0
M  V30 3138 H 284.481 5.72992 -1.30207 0
M  V30 3139 H 286.005 6.08998 -0.441972 0
M  V30 3140 H 287.419 5.15364 -2.51143 0
M  V30 3141 H 285.816 5.01814 -3.29093 0
M  V30 3142 H 286.886 3.60543 -3.24248 0
M  V30 3143 N 288.23 0.939286 1.26551 0
M  V30 3144 C 289.476 0.586715 1.94128 0
M  V30 3145 C 289.809 -0.8717 1.73537 0
M  V30 3146 O 289.084 -1.62339 1.07127 0
M  V30 3147 C 289.367 0.927497 3.4795 0
M  V30 3148 C 289.22 2.44052 3.77834 0
M  V30 3149 C 290.539 0.441569 4.37879 0
M  V30 3150 H 287.658 0.21463 0.705055 0
M  V30 3151 H 290.3 1.17316 1.49455 0
M  V30 3152 H 288.45 0.428431 3.8613 0
M  V30 3153 H 290.122 3.01216 3.4938 0
M  V30 3154 H 288.365 2.8848 3.23978 0
M  V30 3155 H 289.036 2.62947 4.85348 0
M  V30 3156 H 291.512 0.869448 4.06915 0
M  V30 3157 H 290.388 0.708856 5.44304 0
M  V30 3158 H 290.649 -0.658467 4.37169 0
M  V30 3159 N 289.708 -1.40897 0.706093 0
M  V30 3160 C 290.933 -2.05895 0.249435 0
M  V30 3161 C 291.358 -1.52823 -1.09666 0
M  V30 3162 O 290.716 -0.659589 -1.68876 0
M  V30 3163 C 290.764 -3.59872 0.22904 0
M  V30 3164 O 289.868 -4.04708 -0.792784 0
M  V30 3165 H 289.209 -0.653206 0.119241 0
M  V30 3166 H 291.739 -1.80471 0.96391 0
M  V30 3167 H 291.749 -4.07951 0.0634791 0
M  V30 3168 H 290.424 -3.97866 1.21141 0
M  V30 3169 H 289.001 -3.68111 -0.59572 0
M  V30 3170 N 291.186 -0.45159 -1.50991 0
M  V30 3171 C 292.432 0.110237 -2.025 0
M  V30 3172 C 292.765 1.41109 -1.33424 0
M  V30 3173 O 292.04 1.89135 -0.453659 0
M  V30 3174 C 292.323 0.314271 -3.58726 0
M  V30 3175 C 292.176 -1.00623 -4.38401 0
M  V30 3176 C 293.495 1.07767 -4.26702 0
M  V30 3177 H 290.614 0.0385897 -0.735989 0
M  V30 3178 H 293.256 -0.593374 -1.80497 0
M  V30 3179 H 291.406 0.913601 -3.77605 0
M  V30 3180 H 293.078 -1.64064 -4.31139 0
M  V30 3181 H 291.321 -1.6075 -4.02917 0
M  V30 3182 H 291.992 -0.817341 -5.45915 0
M  V30 3183 H 294.468 0.56986 -4.12179 0
M  V30 3184 H 293.344 1.18921 -5.35863 0
M  V30 3185 H 293.605 2.10939 -3.88532 0
M  V30 3186 N 292.664 1.56529 -0.183458 0
M  V30 3187 C 293.611 2.18546 0.742055 0
M  V30 3188 C 294.581 1.12912 1.2182 0
M  V30 3189 O 295.766 1.41115 1.28418 0
M  V30 3190 C 292.906 2.83977 1.96089 0
M  V30 3191 C 292.019 4.04105 1.52719 0
M  V30 3192 C 291.154 4.57427 2.70063 0
M  V30 3193 C 290.193 5.69938 2.23243 0
M  V30 3194 N 289.33 6.17717 3.33722 0
M  V30 3195 H 294.17 2.97284 0.206432 0
M  V30 3196 H 291.707 1.46823 0.0901571 0
M  V30 3197 H 293.665 3.20077 2.67594 0
M  V30 3198 H 292.295 2.07822 2.47002 0
M  V30 3199 H 291.347 3.73745 0.708436 0
M  V30 3200 H 292.659 4.85513 1.1436 0
M  V30 3201 H 291.813 4.95772 3.49708 0
M  V30 3202 H 290.552 3.75101 3.11689 0
M  V30 3203 H 289.557 5.31133 1.42048 0
M  V30 3204 H 290.782 6.54073 1.82661 0
M  V30 3205 H 288.728 5.38317 3.74902 0
M  V30 3206 H 288.645 6.94146 2.99495 0
M  V30 3207 H 289.913 6.60713 4.13616 0
M  V30 3208 N 294.142 -0.090211 1.57342 0
M  V30 3209 C 295.388 -0.793982 1.86611 0
M  V30 3210 C 295.721 -1.78142 0.773252 0
M  V30 3211 O 294.996 -1.93271 -0.218304 0
M  V30 3212 C 295.279 -1.51839 3.26523 0
M  V30 3213 C 295.132 -0.548609 4.46442 0
M  V30 3214 C 296.451 -2.46779 3.64401 0
M  V30 3215 H 293.57 -0.287186 0.678744 0
M  V30 3216 H 296.212 -0.0575076 1.89913 0
M  V30 3217 H 294.362 -2.14617 3.23839 0
M  V30 3218 H 296.034 0.0725513 4.61243 0
M  V30 3219 H 294.277 0.137614 4.33582 0
M  V30 3220 H 294.948 -1.09271 5.41076 0
M  V30 3221 H 297.424 -1.94089 3.68061 0
M  V30 3222 H 296.3 -2.94479 4.63221 0
M  V30 3223 H 296.561 -3.30758 2.93346 0
M  V30 3224 N 295.62 -1.53406 -0.361157 0
M  V30 3225 C 296.85 -1.73465 -1.1222 0
M  V30 3226 C 297.258 -0.465486 -1.83384 0
M  V30 3227 O 296.601 0.571611 -1.7458 0
M  V30 3228 C 296.663 -2.84834 -2.19339 0
M  V30 3229 C 296.327 -4.25038 -1.67903 0
M  V30 3230 C 297.324 -5.07231 -1.14074 0
M  V30 3231 C 295.009 -4.71464 -1.73282 0
M  V30 3232 C 297.003 -6.33942 -0.663068 0
M  V30 3233 C 294.69 -5.98153 -1.25127 0
M  V30 3234 C 295.688 -6.79223 -0.717296 0
M  V30 3235 O 295.376 -8.03533 -0.242865 0
M  V30 3236 H 295.108 -0.583526 -0.341283 0
M  V30 3237 H 297.662 -2.00964 -0.424591 0
M  V30 3238 H 295.892 -2.5282 -2.92607 0
M  V30 3239 H 297.581 -2.9303 -2.80871 0
M  V30 3240 H 298.347 -4.72534 -1.09254 0
M  V30 3241 H 294.226 -4.08432 -2.13786 0
M  V30 3242 H 297.77 -6.97167 -0.245612 0
M  V30 3243 H 293.667 -6.32347 -1.29642 0
M  V30 3244 H 294.435 -8.177 -0.361786 0
M  V30 3245 N 297.098 0.621204 -1.44841 0
M  V30 3246 C 298.328 1.40548 -1.51426 0
M  V30 3247 C 298.736 1.88673 -0.141083 0
M  V30 3248 O 298.079 1.62053 0.865128 0
M  V30 3249 C 298.141 2.65325 -2.42576 0
M  V30 3250 C 297.805 2.3893 -3.89566 0
M  V30 3251 C 298.802 2.00138 -4.79834 0
M  V30 3252 C 296.487 2.52263 -4.3436 0
M  V30 3253 C 298.481 1.75021 -6.129 0
M  V30 3254 C 296.168 2.2676 -5.67471 0
M  V30 3255 C 297.166 1.88199 -6.56559 0
M  V30 3256 O 296.854 1.62986 -7.87204 0
M  V30 3257 H 296.586 0.437122 -0.515655 0
M  V30 3258 H 299.14 0.765987 -1.90583 0
M  V30 3259 H 297.37 3.31947 -1.98364 0
M  V30 3260 H 299.059 3.27347 -2.39998 0
M  V30 3261 H 299.825 1.89386 -4.46495 0
M  V30 3262 H 295.704 2.81246 -3.65269 0
M  V30 3263 H 299.248 1.44848 -6.82396 0
M  V30 3264 H 295.145 2.37125 -6.00368 0
M  V30 3265 H 295.913 1.7715 -7.991 0
M  V30 3266 N 298.576 1.31904 0.862503 0
M  V30 3267 C 299.523 1.20182 1.9704 0
M  V30 3268 C 300.493 0.0858247 1.65878 0
M  V30 3269 O 301.678 0.26 1.8902 0
M  V30 3270 C 298.818 0.922797 3.32533 0
M  V30 3271 C 297.931 2.12284 3.76244 0
M  V30 3272 C 297.066 1.77996 5.00491 0
M  V30 3273 C 296.105 2.94366 5.36671 0
M  V30 3274 N 295.242 2.60223 6.52095 0
M  V30 3275 H 300.082 2.14951 2.06398 0
M  V30 3276 H 297.619 1.06917 1.01031 0
M  V30 3277 H 299.577 0.741548 4.10557 0
M  V30 3278 H 298.207 0.0119227 3.22798 0
M  V30 3279 H 297.259 2.41461 2.9394 0
M  V30 3280 H 298.571 2.99357 3.98982 0
M  V30 3281 H 297.725 1.56377 5.862 0
M  V30 3282 H 296.464 0.881252 4.79672 0
M  V30 3283 H 295.469 3.16625 4.49476 0
M  V30 3284 H 296.694 3.84957 5.59451 0
M  V30 3285 H 294.64 1.72884 6.32809 0
M  V30 3286 H 294.557 3.40827 6.74814 0
M  V30 3287 H 295.825 2.42016 7.40978 0
M  V30 3288 N 300.054 -1.07777 1.14986 0
M  V30 3289 C 301.001 -2.14867 0.842672 0
M  V30 3290 C 301.971 -1.6486 -0.202552 0
M  V30 3291 O 303.156 -1.90668 -0.0710568 0
M  V30 3292 C 300.296 -3.43486 0.333363 0
M  V30 3293 C 299.409 -4.07306 1.43965 0
M  V30 3294 C 298.544 -5.23744 0.886914 0
M  V30 3295 C 297.583 -5.79517 1.97043 0
M  V30 3296 N 296.72 -6.87291 1.4344 0
M  V30 3297 H 301.56 -2.40485 1.75986 0
M  V30 3298 H 299.097 -1.1801 0.878179 0
M  V30 3299 H 301.055 -4.17195 0.0198163 0
M  V30 3300 H 299.685 -3.18133 -0.546916 0
M  V30 3301 H 298.737 -3.31293 1.86946 0
M  V30 3302 H 300.049 -4.44771 2.25788 0
M  V30 3303 H 299.203 -6.04419 0.525651 0
M  V30 3304 H 297.942 -4.87685 0.0377957 0
M  V30 3305 H 296.947 -4.97491 2.34057 0
M  V30 3306 H 298.172 -6.17632 2.82325 0
M  V30 3307 H 296.118 -6.5318 0.607567 0
M  V30 3308 H 296.035 -7.23617 2.18895 0
M  V30 3309 H 297.303 -7.71682 1.10124 0
M  V30 3310 N 301.532 -0.945985 -1.26051 0
M  V30 3311 C 302.772 -0.603665 -1.95282 0
M  V30 3312 C 303.136 0.842377 -1.72534 0
M  V30 3313 O 304.337 1.29387 -2.35611 0
M  V30 3314 C 302.608 -0.942292 -3.44754 0
M  V30 3315 S 304.167 -0.711242 -4.32997 0
M  V30 3316 H 300.985 -0.222176 -0.675395 0
M  V30 3317 H 303.587 -1.21832 -1.52896 0
M  V30 3318 H 302.291 -1.99203 -3.58812 0
M  V30 3319 H 301.822 -0.317546 -3.92116 0
M  V30 3320 H 303.837 0.422221 -4.944 0
M  V30 3321 N 303.011 1.40521 -0.713556 0
M  V30 3322 C 304.257 2.01714 -0.261382 0
M  V30 3323 C 304.612 1.55562 1.13217 0
M  V30 3324 O 303.905 0.764893 1.7567 0
M  V30 3325 C 304.099 3.56317 -0.278 0
M  V30 3326 C 303.928 4.17476 -1.67163 0
M  V30 3327 C 302.698 4.50998 -2.2788 0
M  V30 3328 C 304.896 4.42472 -2.6215 0
M  V30 3329 N 302.878 4.9754 -3.5962 0
M  V30 3330 C 304.249 4.90985 -3.78594 0
M  V30 3331 C 306.304 4.24508 -2.60188 0
M  V30 3332 C 305.007 5.2342 -4.9338 0
M  V30 3333 C 307.033 4.58043 -3.741 0
M  V30 3334 C 306.395 5.06743 -4.89276 0
M  V30 3335 H 302.494 0.769104 -0.141434 0
M  V30 3336 H 305.078 1.70785 -0.934915 0
M  V30 3337 H 303.249 3.8668 0.36509 0
M  V30 3338 H 304.981 4.0425 0.190695 0
M  V30 3339 H 301.736 4.38062 -1.79997 0
M  V30 3340 H 302.16 5.25196 -4.27198 0
M  V30 3341 H 306.802 3.86078 -1.72348 0
M  V30 3342 H 304.52 5.60765 -5.81866 0
M  V30 3343 H 308.106 4.45785 -3.73854 0
M  V30 3344 H 306.986 5.32204 -5.75959 0
M  V30 3345 N 304.489 0.459591 1.5075 0
M  V30 3346 C 305.714 -0.0996819 2.0716 0
M  V30 3347 C 306.139 -1.33761 1.32249 0
M  V30 3348 O 305.497 -1.77551 0.366786 0
M  V30 3349 C 305.545 -0.378226 3.58611 0
M  V30 3350 O 304.649 -1.46081 3.85661 0
M  V30 3351 H 303.99 0.00791392 0.663953 0
M  V30 3352 H 306.52 0.647329 1.9409 0
M  V30 3353 H 306.53 -0.622135 4.03229 0
M  V30 3354 H 305.205 0.526439 4.12555 0
M  V30 3355 H 303.782 -1.20511 3.5289 0
M  V30 3356 N 305.967 -1.56429 0.191757 0
M  V30 3357 C 307.216 -1.9666 -0.448088 0
M  V30 3358 C 307.529 -1.08136 -1.62991 0
M  V30 3359 O 308.735 -1.38135 -2.33733 0
M  V30 3360 C 307.191 -3.49753 -0.848585 0
M  V30 3361 C 306.799 -4.46935 0.308764 0
M  V30 3362 C 308.543 -3.9876 -1.4557 0
M  V30 3363 C 306.45 -5.91293 -0.112506 0
M  V30 3364 H 305.38 -0.734312 -0.171179 0
M  V30 3365 H 308.031 -1.81301 0.283242 0
M  V30 3366 H 306.413 -3.60604 -1.63649 0
M  V30 3367 H 307.587 -4.47813 1.08627 0
M  V30 3368 H 305.902 -4.08102 0.827158 0
M  V30 3369 H 308.499 -5.04086 -1.78328 0
M  V30 3370 H 308.842 -3.42875 -2.36099 0
M  V30 3371 H 309.375 -3.9101 -0.731836 0
M  V30 3372 H 306.114 -6.51097 0.758514 0
M  V30 3373 H 305.634 -5.93676 -0.854941 0
M  V30 3374 H 307.313 -6.44663 -0.549448 0
M  V30 3375 N 307.445 0.0818655 -1.57387 0
M  V30 3376 C 308.694 0.781681 -1.85937 0
M  V30 3377 C 309.007 1.79246 -0.782957 0
M  V30 3378 O 310.213 2.54112 -0.955987 0
M  V30 3379 C 308.669 1.44109 -3.29789 0
M  V30 3380 C 308.277 0.469396 -4.45534 0
M  V30 3381 C 310.021 2.12386 -3.67549 0
M  V30 3382 C 307.928 1.13415 -5.80423 0
M  V30 3383 H 306.858 0.295682 -0.693605 0
M  V30 3384 H 309.509 0.0348051 -1.83467 0
M  V30 3385 H 307.891 2.23588 -3.2684 0
M  V30 3386 H 309.065 -0.294856 -4.59856 0
M  V30 3387 H 307.38 -0.108383 -4.16259 0
M  V30 3388 H 309.977 2.62878 -4.65617 0
M  V30 3389 H 310.32 2.91877 -2.96839 0
M  V30 3390 H 310.853 1.39751 -3.72444 0
M  V30 3391 H 307.592 0.379771 -6.54399 0
M  V30 3392 H 307.112 1.8695 -5.69921 0
M  V30 3393 H 308.791 1.65686 -6.25426 0
M  V30 3394 N 308.923 1.53595 0.353017 0
M  V30 3395 C 309.833 1.83897 1.45667 0
M  V30 3396 C 310.849 0.728334 1.58023 0
M  V30 3397 O 312.025 1.01968 1.73679 0
M  V30 3398 C 309.09 2.03383 2.80778 0
M  V30 3399 C 308.151 3.27262 2.77845 0
M  V30 3400 C 307.384 3.45809 4.06512 0
M  V30 3401 O 307.607 2.68387 5.03314 0
M  V30 3402 O 306.541 4.39207 4.11559 0
M  V30 3403 H 310.367 2.77686 1.2298 0
M  V30 3404 H 307.952 1.39132 0.544308 0
M  V30 3405 H 309.834 2.17698 3.60812 0
M  V30 3406 H 308.509 1.12783 3.03417 0
M  V30 3407 H 307.416 3.18359 1.96465 0
M  V30 3408 H 308.749 4.17824 2.60161 0
M  V30 3409 N 310.401 -0.613514 1.45168 0
M  V30 3410 C 311.349 -1.74572 1.53712 0
M  V30 3411 C 312.343 -1.64426 0.407505 0
M  V30 3412 O 313.549 -1.70291 0.583176 0
M  V30 3413 H 309.924 -0.576641 0.48269 0
M  V30 3414 H 311.895 -1.64492 2.48968 0
M  V30 3415 C 310.644 -3.12943 1.51532 0
M  V30 3416 H 309.967 -3.21407 2.37776 0
M  V30 3417 H 311.407 -3.9201 1.61569 0
M  V30 3418 C 309.866 -3.36053 0.238798 0
M  V30 3419 O 310.396 -3.95837 -0.6838 0
M  V30 3420 N 308.602 -2.9028 0.136359 0
M  V30 3421 H 308.149 -2.41811 0.887999 0
M  V30 3422 H 308.107 -3.06116 -0.716944 0
M  V30 3423 N 311.879 -1.3236 -0.855495 0
M  V30 3424 C 312.809 -1.23833 -1.97958 0
M  V30 3425 C 313.79 -0.122361 -1.69659 0
M  V30 3426 O 314.975 -0.30939 -1.9172 0
M  V30 3427 C 312.105 -0.959772 -3.33775 0
M  V30 3428 C 311.059 -2.03689 -3.76424 0
M  V30 3429 C 310.385 -1.61075 -5.09862 0
M  V30 3430 C 311.685 -3.4518 -3.9198 0
M  V30 3431 H 313.379 -2.1788 -2.0535 0
M  V30 3432 H 310.925 -1.04891 -0.986605 0
M  V30 3433 H 312.878 -0.886678 -4.11966 0
M  V30 3434 H 311.602 0.0163404 -3.26596 0
M  V30 3435 H 310.261 -2.10012 -3.00484 0
M  V30 3436 H 309.909 -0.622107 -4.99138 0
M  V30 3437 H 309.609 -2.33143 -5.39368 0
M  V30 3438 H 311.133 -1.55201 -5.90546 0
M  V30 3439 H 312.547 -3.4145 -4.60526 0
M  V30 3440 H 310.944 -4.1559 -4.32903 0
M  V30 3441 H 312.014 -3.84903 -2.94919 0
M  V30 3442 N 313.357 1.07166 -1.15556 0
M  V30 3443 C 314.32 2.12589 -0.856644 0
M  V30 3444 C 315.32 1.6015 0.14444 0
M  V30 3445 O 316.51 1.7399 -0.0854163 0
M  V30 3446 C 313.642 3.39753 -0.279405 0
M  V30 3447 H 314.835 2.40539 -1.79112 0
M  V30 3448 H 312.388 1.23086 -0.963298 0
M  V30 3449 H 313.123 3.17447 0.663174 0
M  V30 3450 H 312.908 3.79117 -1.00063 0
M  V30 3451 H 314.398 4.17507 -0.0879113 0
M  V30 3452 N 314.835 0.952656 1.25548 0
M  V30 3453 C 316.084 0.602053 1.92505 0
M  V30 3454 C 316.397 -0.864663 1.75451 0
M  V30 3455 O 317.603 -1.32514 2.36965 0
M  V30 3456 C 316.059 1.02607 3.44963 0
M  V30 3457 C 315.667 2.51519 3.70732 0
M  V30 3458 C 317.411 0.747905 4.1786 0
M  V30 3459 C 315.318 2.87732 5.16686 0
M  V30 3460 H 314.248 0.22146 0.720744 0
M  V30 3461 H 316.899 1.15684 1.42441 0
M  V30 3462 H 315.281 0.399712 3.93978 0
M  V30 3463 H 316.455 3.19157 3.32378 0
M  V30 3464 H 314.77 2.76786 3.11092 0
M  V30 3465 H 317.367 0.994647 5.25367 0
M  V30 3466 H 317.71 -0.315629 4.15102 0
M  V30 3467 H 318.243 1.33452 3.74747 0
M  V30 3468 H 314.982 3.93095 5.24554 0
M  V30 3469 H 314.502 2.24765 5.56094 0
M  V30 3470 H 316.181 2.76817 5.84792 0
M  V30 3471 N 316.313 -1.40141 0.720998 0
M  V30 3472 C 317.56 -2.00787 0.262842 0
M  V30 3473 C 317.888 -1.5718 -1.14563 0
M  V30 3474 O 317.143 -0.785391 -1.79249 0
M  V30 3475 C 317.442 -3.56165 0.296892 0
M  V30 3476 C 317.108 -4.19373 1.65641 0
M  V30 3477 C 315.77 -4.36352 2.02855 0
M  V30 3478 C 318.122 -4.54578 2.54968 0
M  V30 3479 C 315.45 -4.8582 3.28931 0
M  V30 3480 C 317.802 -5.05447 3.80402 0
M  V30 3481 C 316.466 -5.20635 4.17726 0
M  V30 3482 H 315.736 -0.734731 0.0961807 0
M  V30 3483 H 318.383 -1.67673 0.925093 0
M  V30 3484 H 316.688 -3.8922 -0.448932 0
M  V30 3485 H 318.385 -4.00929 -0.0755208 0
M  V30 3486 H 314.975 -4.06549 1.35704 0
M  V30 3487 H 319.159 -4.41091 2.27491 0
M  V30 3488 H 314.415 -4.95764 3.57811 0
M  V30 3489 H 318.589 -5.31663 4.49786 0
M  V30 3490 H 316.216 -5.58728 5.15487 0
M  V30 3491 N 317.792 -0.46758 -1.50504 0
M  V30 3492 C 319.203 -0.0116166 -1.86696 0
M  V30 3493 C 319.554 1.39202 -1.38265 0
M  V30 3494 O 318.679 2.0313 -0.746132 0
M  V30 3495 C 319.274 -0.0143044 -3.38797 0
M  V30 3496 C 317.833 0.386175 -3.74414 0
M  V30 3497 C 316.98 -0.401287 -2.74381 0
M  V30 3498 H 319.931 -0.682022 -1.43297 0
M  V30 3499 H 319.952 0.788641 -3.72237 0
M  V30 3500 H 319.464 -1.03602 -3.74016 0
M  V30 3501 H 317.565 1.41237 -3.44794 0
M  V30 3502 H 317.678 0.0899596 -4.79016 0
M  V30 3503 H 316.042 0.144536 -2.5429 0
M  V30 3504 H 316.825 -1.42244 -3.12444 0
M  V30 3505 N 319.27 1.56325 -0.20005 0
M  V30 3506 C 320.547 1.89484 0.48529 0
M  V30 3507 C 320.927 1.1143 1.79294 0
M  V30 3508 O 320.275 0.216919 2.27468 0
M  V30 3509 C 320.485 3.41923 0.699243 0
M  V30 3510 C 321.833 4.12256 1.01638 0
M  V30 3511 O 322.857 3.47402 0.786792 0
M  V30 3512 O 321.716 5.26887 1.45095 0
M  V30 3513 H 318.81 0.787144 0.253639 0
M  V30 3514 H 321.356 1.67985 -0.240633 0
M  V30 3515 H 320.128 3.90658 -0.224008 0
M  V30 3516 H 319.751 3.69131 1.47744 0
M  V30 3517 N 320.748 -0.0735177 1.57428 0
M  V30 3518 C 321.976 -0.785969 1.9139 0
M  V30 3519 C 322.391 -1.71207 0.795847 0
M  V30 3520 O 321.748 -1.81033 -0.230915 0
M  V30 3521 C 321.799 -1.58107 3.25091 0
M  V30 3522 O 321.52 -0.6922 4.32597 0
M  V30 3523 C 323.021 -2.39467 3.73055 0
M  V30 3524 H 320.241 -0.223558 0.632663 0
M  V30 3525 H 322.785 -0.044302 2.04452 0
M  V30 3526 H 320.94 -2.27503 3.13562 0
M  V30 3527 H 321.354 -1.24504 5.09508 0
M  V30 3528 H 322.828 -2.90716 4.69242 0
M  V30 3529 H 323.305 -3.18913 3.01979 0
M  V30 3530 H 323.911 -1.7523 3.87523 0
M  V30 3531 N 322.226 -1.5378 -0.344866 0
M  V30 3532 C 323.472 -1.71216 -1.08687 0
M  V30 3533 C 323.805 -0.473281 -1.88345 0
M  V30 3534 O 323.08 0.52968 -1.87149 0
M  V30 3535 C 323.363 -2.97486 -2.02914 0
M  V30 3536 C 323.216 -4.31579 -1.26727 0
M  V30 3537 C 324.535 -3.19422 -3.0275 0
M  V30 3538 H 321.654 -0.62301 -0.393735 0
M  V30 3539 H 324.296 -1.8645 -0.365563 0
M  V30 3540 H 322.446 -2.84629 -2.64421 0
M  V30 3541 H 324.118 -4.56284 -0.67845 0
M  V30 3542 H 322.361 -4.30049 -0.569273 0
M  V30 3543 H 323.032 -5.16106 -1.95803 0
M  V30 3544 H 325.508 -3.316 -2.51357 0
M  V30 3545 H 324.384 -4.09169 -3.65885 0
M  V30 3546 H 324.645 -2.35656 -3.74057 0
M  V30 3547 N 323.704 0.605807 -1.45491 0
M  V30 3548 C 324.932 1.39136 -1.5313 0
M  V30 3549 C 325.347 1.88082 -0.164507 0
M  V30 3550 O 324.704 1.62316 0.834247 0
M  V30 3551 C 324.755 2.59463 -2.51716 0
M  V30 3552 O 324.476 2.12551 -3.83084 0
M  V30 3553 C 325.977 3.52301 -2.6907 0
M  V30 3554 H 323.197 0.425849 -0.51855 0
M  V30 3555 H 325.741 0.73865 -1.90694 0
M  V30 3556 H 323.896 3.20772 -2.17219 0
M  V30 3557 H 324.31 2.90744 -4.36541 0
M  V30 3558 H 325.784 4.33271 -3.42024 0
M  V30 3559 H 326.261 4.02757 -1.75167 0
M  V30 3560 H 326.867 2.96845 -3.04571 0
M  V30 3561 N 325.182 1.32811 0.848464 0
M  V30 3562 C 326.43 1.23479 1.59991 0
M  V30 3563 C 326.751 -0.201853 1.93952 0
M  V30 3564 O 326.021 -1.12818 1.60153 0
M  V30 3565 H 324.601 0.454034 0.593179 0
M  V30 3566 H 327.263 1.66412 1.01455 0
M  V30 3567 H 326.359 1.82178 2.53412 0
M  V30 3568 N 326.66 -1.06551 1.16123 0
M  V30 3569 C 327.885 -1.83544 0.965735 0
M  V30 3570 C 328.31 -1.81843 -0.481102 0
M  V30 3571 O 327.668 -1.21732 -1.34354 0
M  V30 3572 C 327.716 -3.28169 1.49457 0
M  V30 3573 O 326.82 -4.0643 0.699157 0
M  V30 3574 H 326.161 -0.568026 0.343864 0
M  V30 3575 H 328.691 -1.34362 1.54299 0
M  V30 3576 H 328.701 -3.78992 1.51092 0
M  V30 3577 H 327.376 -3.28722 2.54784 0
M  V30 3578 H 325.953 -3.65216 0.7531 0
M  V30 3579 N 328.138 -0.959301 -1.25041 0
M  V30 3580 C 329.048 -0.489994 -2.29426 0
M  V30 3581 C 330.064 0.444944 -1.68215 0
M  V30 3582 O 331.24 0.320046 -1.98841 0
M  V30 3583 C 328.305 0.220309 -3.45999 0
M  V30 3584 C 327.366 -0.753418 -4.22637 0
M  V30 3585 C 326.599 -0.076918 -5.33645 0
M  V30 3586 O 326.822 1.13649 -5.58963 0
M  V30 3587 O 325.756 -0.764824 -5.97021 0
M  V30 3588 H 329.582 -1.35755 -2.71669 0
M  V30 3589 H 327.167 -0.725961 -1.30576 0
M  V30 3590 H 329.049 0.619677 -4.16819 0
M  V30 3591 H 327.724 1.06296 -3.0575 0
M  V30 3592 H 326.631 -1.20308 -3.54227 0
M  V30 3593 H 327.964 -1.56423 -4.66683 0
M  V30 3594 N 329.616 1.39756 -0.72842 0
M  V30 3595 C 330.863 2.00645 -0.273487 0
M  V30 3596 C 331.191 1.57786 1.13727 0
M  V30 3597 O 330.446 0.794886 1.7883 0
M  V30 3598 C 330.745 3.56002 -0.315776 0
M  V30 3599 C 330.411 4.18489 -1.67863 0
M  V30 3600 C 329.073 4.3527 -2.05166 0
M  V30 3601 C 331.425 4.53219 -2.57375 0
M  V30 3602 C 328.753 4.84069 -3.31503 0
M  V30 3603 C 331.105 5.03423 -3.83077 0
M  V30 3604 C 329.769 5.18413 -4.20481 0
M  V30 3605 H 329.039 0.734211 -0.100076 0
M  V30 3606 H 331.686 1.6718 -0.933972 0
M  V30 3607 H 329.991 3.89452 0.428285 0
M  V30 3608 H 331.688 4.00963 0.0542575 0
M  V30 3609 H 328.278 4.05824 -1.37858 0
M  V30 3610 H 332.462 4.39878 -2.29827 0
M  V30 3611 H 327.718 4.93859 -3.60435 0
M  V30 3612 H 331.892 5.2927 -4.52599 0
M  V30 3613 H 329.519 5.55987 -5.18443 0
M  V30 3614 N 331.094 0.475555 1.50254 0
M  V30 3615 C 332.319 -0.0777042 2.07254 0
M  V30 3616 C 332.744 -1.3235 1.3366 0
M  V30 3617 O 332.102 -1.77152 0.385597 0
M  V30 3618 C 332.15 -0.340169 3.58992 0
M  V30 3619 O 331.254 -1.41982 3.87188 0
M  V30 3620 H 330.595 0.0149556 0.663832 0
M  V30 3621 H 333.125 0.667878 1.93392 0
M  V30 3622 H 333.135 -0.579332 4.03866 0
M  V30 3623 H 331.81 0.570167 4.11973 0
M  V30 3624 H 330.387 -1.16762 3.54148 0
M  V30 3625 N 332.573 -1.56217 0.208337 0
M  V30 3626 C 333.798 -2.02782 -0.435222 0
M  V30 3627 C 334.223 -1.08738 -1.53485 0
M  V30 3628 O 333.581 -0.0731855 -1.81152 0
M  V30 3629 C 333.629 -3.47687 -0.956335 0
M  V30 3630 O 332.733 -3.56773 -2.06849 0
M  V30 3631 H 332.074 -0.656403 -0.100158 0
M  V30 3632 H 334.604 -2.02033 0.3231 0
M  V30 3633 H 334.614 -3.87745 -1.26955 0
M  V30 3634 H 333.289 -4.15624 -0.15143 0
M  V30 3635 H 331.866 -3.28597 -1.76292 0
M  V30 3636 N 334.051 0.0651679 -1.57465 0
M  V30 3637 C 334.981 1.07693 -2.07182 0
M  V30 3638 C 335.962 1.39962 -0.966673 0
M  V30 3639 O 337.147 1.49475 -1.2398 0
M  V30 3640 C 334.277 2.3885 -2.52127 0
M  V30 3641 C 333.231 2.20917 -3.66579 0
M  V30 3642 C 332.557 3.57515 -3.97601 0
M  V30 3643 C 333.857 1.62493 -4.9638 0
M  V30 3644 H 335.551 0.663199 -2.91962 0
M  V30 3645 H 333.097 0.317569 -1.40455 0
M  V30 3646 H 335.05 3.09928 -2.85522 0
M  V30 3647 H 333.774 2.82215 -1.64384 0
M  V30 3648 H 332.433 1.52279 -3.33477 0
M  V30 3649 H 332.081 3.98463 -3.06979 0
M  V30 3650 H 331.781 3.46353 -4.74672 0
M  V30 3651 H 333.305 4.30013 -4.33499 0
M  V30 3652 H 334.719 2.23445 -5.27963 0
M  V30 3653 H 333.116 1.62009 -5.77818 0
M  V30 3654 H 334.186 0.587041 -4.81333 0
M  V30 3655 N 335.529 1.53961 0.336706 0
M  V30 3656 C 336.775 1.7179 1.07777 0
M  V30 3657 C 337.108 0.483263 1.88091 0
M  V30 3658 O 336.383 -0.519747 1.87427 0
M  V30 3659 C 336.666 2.98558 2.01334 0
M  V30 3660 C 336.519 4.32245 1.24437 0
M  V30 3661 C 337.838 3.21023 3.01052 0
M  V30 3662 H 334.957 0.625089 0.390426 0
M  V30 3663 H 337.599 1.86641 0.35567 0
M  V30 3664 H 335.749 2.86028 2.62908 0
M  V30 3665 H 337.421 4.56637 0.654243 0
M  V30 3666 H 335.664 4.30344 0.546458 0
M  V30 3667 H 336.335 5.17137 1.93063 0
M  V30 3668 H 338.811 3.32929 2.49595 0
M  V30 3669 H 337.687 4.11104 3.6371 0
M  V30 3670 H 337.948 2.37637 3.72802 0
M  V30 3671 N 337.007 -0.598083 1.45811 0
M  V30 3672 C 337.917 -1.73632 1.57763 0
M  V30 3673 C 338.933 -1.67763 0.461676 0
M  V30 3674 O 340.109 -1.87949 0.723685 0
M  V30 3675 C 337.174 -3.10114 1.55018 0
M  V30 3676 C 336.235 -3.27364 2.77726 0
M  V30 3677 C 335.468 -4.57334 2.75102 0
M  V30 3678 O 335.691 -5.40258 1.8297 0
M  V30 3679 O 334.625 -4.77502 3.66437 0
M  V30 3680 H 338.451 -1.66498 2.53992 0
M  V30 3681 H 336.036 -0.763308 1.28429 0
M  V30 3682 H 337.918 -3.9141 1.56129 0
M  V30 3683 H 336.593 -3.17718 0.619431 0
M  V30 3684 H 335.5 -2.45619 2.82174 0
M  V30 3685 H 336.833 -3.24641 3.69958 0
M  V30 3686 N 338.485 -1.33259 -0.841409 0
M  V30 3687 C 339.731 -1.24757 -1.59886 0
M  V30 3688 C 340.064 0.186913 -1.93298 0
M  V30 3689 O 339.339 1.12757 -1.5848 0
M  V30 3690 C 339.622 -2.12036 -2.91055 0
M  V30 3691 C 339.475 -3.63929 -2.6434 0
M  V30 3692 C 340.794 -1.9916 -3.92458 0
M  V30 3693 H 337.913 -0.454542 -0.580138 0
M  V30 3694 H 340.555 -1.63335 -0.970647 0
M  V30 3695 H 338.705 -1.79265 -3.44669 0
M  V30 3696 H 340.377 -4.06978 -2.17178 0
M  V30 3697 H 338.62 -3.85935 -1.98082 0
M  V30 3698 H 339.291 -4.20341 -3.57796 0
M  V30 3699 H 341.767 -2.27895 -3.48143 0
M  V30 3700 H 340.643 -2.62484 -4.82072 0
M  V30 3701 H 340.904 -0.963082 -4.31482 0
M  V30 3702 N 339.963 1.05934 -1.16686 0
M  V30 3703 C 341.379 1.30938 -0.912542 0
M  V30 3704 C 341.579 1.96803 0.432533 0
M  V30 3705 O 340.635 2.23693 1.17123 0
M  V30 3706 C 341.948 2.18649 -2.06429 0
M  V30 3707 C 343.496 2.32055 -2.10047 0
M  V30 3708 C 343.971 3.23122 -3.24586 0
M  V30 3709 N 345.462 3.30706 -3.24327 0
M  V30 3710 C 346.197 4.01273 -4.09594 0
M  V30 3711 N 345.693 4.74332 -5.04956 0
M  V30 3712 N 347.486 3.97361 -3.97569 0
M  V30 3713 H 339.637 0.615777 -2.03278 0
M  V30 3714 H 341.9 0.334077 -0.887185 0
M  V30 3715 H 341.606 1.77534 -3.03603 0
M  V30 3716 H 341.48 3.19252 -2.00894 0
M  V30 3717 H 343.867 2.72415 -1.13464 0
M  V30 3718 H 343.948 1.31107 -2.19647 0
M  V30 3719 H 343.592 2.83477 -4.2143 0
M  V30 3720 H 343.522 4.24057 -3.12223 0
M  V30 3721 H 346.013 2.78644 -2.55276 0
M  V30 3722 H 346.326 5.25716 -5.6643 0
M  V30 3723 H 344.671 4.733 -5.08933 0
M  V30 3724 H 347.862 3.39405 -3.22369 0
M  V30 3725 H 348.035 4.52089 -4.64241 0
M  V30 3726 N 341.441 0.965919 1.2453 0
M  V30 3727 C 342.689 0.625593 1.92174 0
M  V30 3728 C 343.01 -0.841652 1.75901 0
M  V30 3729 O 342.28 -1.60061 1.12948 0
M  V30 3730 H 340.86 0.228388 0.71123 0
M  V30 3731 H 343.522 1.2266 1.51461 0
M  V30 3732 H 342.618 0.864653 2.99884 0
M  V30 3733 N 342.919 -1.39368 0.735821 0
M  V30 3734 C 344.147 -2.04795 0.294393 0
M  V30 3735 C 344.562 -1.55478 -1.07107 0
M  V30 3736 O 343.919 -0.720038 -1.67695 0
M  V30 3737 C 343.97 -3.6035 0.288071 0
M  V30 3738 O 343.691 -4.07852 1.59963 0
M  V30 3739 C 345.192 -4.42976 -0.169422 0
M  V30 3740 H 342.412 -0.658571 0.128551 0
M  V30 3741 H 344.956 -1.78399 0.999701 0
M  V30 3742 H 343.111 -3.85645 -0.368355 0
M  V30 3743 H 343.525 -5.02181 1.51375 0
M  V30 3744 H 344.999 -5.51864 -0.122687 0
M  V30 3745 H 345.476 -4.22068 -1.21472 0
M  V30 3746 H 346.082 -4.22832 0.457469 0
M  V30 3747 N 344.397 -0.483516 -1.5 0
M  V30 3748 C 345.637 0.0657469 -2.04294 0
M  V30 3749 C 346.001 1.35869 -1.35659 0
M  V30 3750 O 347.202 1.99111 -1.80578 0
M  V30 3751 C 345.473 0.232758 -3.56641 0
M  V30 3752 S 347.032 0.738788 -4.32536 0
M  V30 3753 H 343.85 0.0100755 -0.710929 0
M  V30 3754 H 346.452 -0.653494 -1.84254 0
M  V30 3755 H 345.156 -0.713847 -4.04144 0
M  V30 3756 H 344.687 0.977751 -3.81056 0
M  V30 3757 H 346.702 2.01048 -4.53645 0
M  V30 3758 N 345.875 1.56104 -0.216619 0
M  V30 3759 C 347.121 1.98466 0.417033 0
M  V30 3760 C 347.454 1.10403 1.59765 0
M  V30 3761 O 346.729 0.160632 1.93836 0
M  V30 3762 C 347.012 3.49769 0.85637 0
M  V30 3763 C 346.865 4.48606 -0.327546 0
M  V30 3764 C 348.184 4.05339 1.7143 0
M  V30 3765 H 345.303 0.721551 0.150112 0
M  V30 3766 H 347.945 1.87423 -0.311864 0
M  V30 3767 H 346.095 3.5931 1.47745 0
M  V30 3768 H 347.767 4.5108 -0.965618 0
M  V30 3769 H 346.01 4.22682 -0.975805 0
M  V30 3770 H 346.681 5.51995 0.0227149 0
M  V30 3771 H 349.157 3.98712 1.19031 0
M  V30 3772 H 348.033 5.11533 1.99061 0
M  V30 3773 H 348.294 3.51918 2.67593 0
M  V30 3774 N 347.353 -0.0568162 1.57498 0
M  V30 3775 C 348.578 -0.769402 1.92601 0
M  V30 3776 C 349.003 -1.69559 0.814336 0
M  V30 3777 O 348.361 -1.79811 -0.231903 0
M  V30 3778 C 348.409 -1.52634 3.26704 0
M  V30 3779 O 347.513 -2.63797 3.16994 0
M  V30 3780 H 346.854 -0.208909 0.63028 0
M  V30 3781 H 349.384 -0.0205798 2.0459 0
M  V30 3782 H 349.394 -1.90234 3.60936 0
M  V30 3783 H 348.069 -0.846875 4.07186 0
M  V30 3784 H 346.646 -2.28943 2.94346 0
M  V30 3785 N 348.832 -1.54138 -0.328536 0
M  V30 3786 C 350.057 -1.76378 -1.09112 0
M  V30 3787 C 350.482 -0.508596 -1.81094 0
M  V30 3788 O 349.84 0.539598 -1.73084 0
M  V30 3789 C 349.888 -2.95358 -2.06872 0
M  V30 3790 O 348.992 -2.66556 -3.14677 0
M  V30 3791 H 348.333 -0.584614 -0.314838 0
M  V30 3792 H 350.863 -2.01146 -0.374348 0
M  V30 3793 H 350.873 -3.22566 -2.4983 0
M  V30 3794 H 349.548 -3.86385 -1.5388 0
M  V30 3795 H 348.125 -2.50282 -2.7643 0
M  V30 3796 N 350.31 0.590341 -1.46126 0
M  V30 3797 C 351.273 1.68194 -1.55703 0
M  V30 3798 C 352.273 1.54808 -0.434868 0
M  V30 3799 O 353.463 1.59564 -0.698928 0
M  V30 3800 C 350.595 3.07575 -1.47005 0
M  V30 3801 H 351.788 1.61064 -2.52979 0
M  V30 3802 H 349.341 0.807541 -1.33823 0
M  V30 3803 H 350.076 3.20268 -0.509785 0
M  V30 3804 H 349.861 3.187 -2.28414 0
M  V30 3805 H 351.351 3.87055 -1.56776 0
M  V30 3806 N 351.788 1.33704 0.83433 0
M  V30 3807 C 352.698 1.26382 1.97648 0
M  V30 3808 C 353.714 0.173548 1.73132 0
M  V30 3809 O 354.89 0.397962 1.97429 0
M  V30 3810 C 351.955 1.00769 3.31733 0
M  V30 3811 C 351.016 2.1884 3.69334 0
M  V30 3812 C 350.249 1.9444 4.9702 0
M  V30 3813 O 350.472 0.896961 5.63303 0
M  V30 3814 O 349.406 2.81093 5.32231 0
M  V30 3815 H 353.232 2.22444 2.06767 0
M  V30 3816 H 350.817 1.13795 0.968037 0
M  V30 3817 H 352.699 0.882186 4.12062 0
M  V30 3818 H 351.374 0.0773783 3.23608 0
M  V30 3819 H 350.281 2.36946 2.89495 0
M  V30 3820 H 351.614 3.10221 3.82131 0
M  V30 3821 N 353.266 -1.05314 1.17247 0
M  V30 3822 C 354.176 -2.16538 0.90268 0
M  V30 3823 C 355.192 -1.73523 -0.128707 0
M  V30 3824 O 356.368 -2.01337 0.0502701 0
M  V30 3825 C 353.433 -3.44167 0.418356 0
M  V30 3826 C 352.494 -4.01635 1.51618 0
M  V30 3827 C 351.727 -5.23171 1.05487 0
M  V30 3828 O 351.95 -5.70327 -0.0914715 0
M  V30 3829 O 350.884 -5.72848 1.8474 0
M  V30 3830 H 354.71 -2.42145 1.83302 0
M  V30 3831 H 352.295 -1.15037 0.953246 0
M  V30 3832 H 354.177 -4.21112 0.155726 0
M  V30 3833 H 352.852 -3.20063 -0.48385 0
M  V30 3834 H 351.759 -3.26135 1.83268 0
M  V30 3835 H 353.092 -4.30053 2.39405 0
M  V30 3836 N 354.744 -0.972509 -1.24016 0
M  V30 3837 C 355.654 -0.5143 -2.28893 0
M  V30 3838 C 356.67 0.427078 -1.68677 0
M  V30 3839 O 357.846 0.298939 -1.99169 0
M  V30 3840 C 354.911 0.183598 -3.46214 0
M  V30 3841 C 353.972 -0.798202 -4.21814 0
M  V30 3842 C 353.205 -0.133514 -5.33533 0
M  V30 3843 O 353.428 1.07714 -5.60137 0
M  V30 3844 O 352.362 -0.828103 -5.96176 0
M  V30 3845 H 356.188 -1.38629 -2.70214 0
M  V30 3846 H 353.773 -0.739769 -1.29799 0
M  V30 3847 H 355.655 0.575433 -4.17453 0
M  V30 3848 H 354.33 1.03048 -3.0686 0
M  V30 3849 H 353.237 -1.24059 -3.52931 0
M  V30 3850 H 354.57 -1.61364 -4.64997 0
M  V30 3851 N 356.222 1.38976 -0.743202 0
M  V30 3852 C 357.185 2.28901 -0.117014 0
M  V30 3853 C 358.185 1.46698 0.658503 0
M  V30 3854 O 359.375 1.67274 0.486305 0
M  V30 3855 C 356.507 3.30309 0.84315 0
M  V30 3856 H 357.7 2.8578 -0.909373 0
M  V30 3857 H 355.253 1.47761 -0.509547 0
M  V30 3858 H 355.988 2.785 1.66157 0
M  V30 3859 H 355.773 3.91029 0.289594 0
M  V30 3860 H 357.263 3.97577 1.2776 0
M  V30 3861 N 357.7 0.491464 1.49741 0
M  V30 3862 C 358.61 -0.296835 2.32715 0
M  V30 3863 C 359.626 -0.976536 1.44013 0
M  V30 3864 O 360.802 -0.960023 1.77047 0
M  V30 3865 C 357.867 -1.35288 3.19215 0
M  V30 3866 C 356.928 -0.687632 4.23757 0
M  V30 3867 C 356.161 -1.69336 5.06123 0
M  V30 3868 O 356.384 -2.92219 4.89861 0
M  V30 3869 O 355.318 -1.25394 5.88693 0
M  V30 3870 H 359.144 0.382048 3.01287 0
M  V30 3871 H 356.729 0.252953 1.47243 0
M  V30 3872 H 358.611 -1.96411 3.72828 0
M  V30 3873 H 357.286 -2.01487 2.53347 0
M  V30 3874 H 356.193 -0.0369159 3.74082 0
M  V30 3875 H 357.526 -0.0682566 4.92153 0
M  V30 3876 N 359.178 -1.55987 0.224894 0
M  V30 3877 C 360.126 -2.21808 -0.700283 0
M  V30 3878 C 361.12 -1.19854 -1.19714 0
M  V30 3879 O 362.326 -1.37925 -1.15658 0
M  V30 3880 H 358.701 -0.711226 -0.244258 0
M  V30 3881 H 360.672 -2.98152 -0.121749 0
M  V30 3882 C 359.421 -2.91444 -1.8962 0
M  V30 3883 H 358.744 -3.69655 -1.52299 0
M  V30 3884 H 360.184 -3.40894 -2.52125 0
M  V30 3885 C 358.643 -1.94098 -2.75368 0
M  V30 3886 O 359.173 -1.46004 -3.74227 0
M  V30 3887 N 357.379 -1.61675 -2.41474 0
M  V30 3888 H 356.926 -2.00979 -1.61137 0
M  V30 3889 H 356.884 -0.968036 -2.99126 0
M  V30 3890 N 360.656 0.0484629 -1.57525 0
M  V30 3891 C 361.619 1.03956 -2.04269 0
M  V30 3892 C 362.619 1.30211 -0.943496 0
M  V30 3893 O 363.809 1.25539 -1.20771 0
M  V30 3894 C 360.941 2.37742 -2.44319 0
M  V30 3895 H 362.134 0.636182 -2.93075 0
M  V30 3896 H 359.687 0.294811 -1.53494 0
M  V30 3897 H 360.422 2.82866 -1.5861 0
M  V30 3898 H 360.207 2.20021 -3.24551 0
M  V30 3899 H 361.697 3.08936 -2.80978 0
M  V30 3900 N 362.134 1.5431 0.320358 0
M  V30 3901 C 363.545 1.63872 0.894594 0
M  V30 3902 C 363.896 0.534847 1.88769 0
M  V30 3903 O 363.021 -0.331732 2.13842 0
M  V30 3904 C 363.616 2.97049 1.62934 0
M  V30 3905 C 362.175 3.08796 2.15226 0
M  V30 3906 C 361.322 2.59456 0.978671 0
M  V30 3907 H 364.273 1.58398 0.0978544 0
M  V30 3908 H 364.294 2.87388 2.49376 0
M  V30 3909 H 363.806 3.7737 0.906302 0
M  V30 3910 H 361.907 2.33156 2.90636 0
M  V30 3911 H 362.02 4.14649 2.40006 0
M  V30 3912 H 360.384 2.1543 1.35875 0
M  V30 3913 H 361.167 3.42237 0.269895 0
M  V30 3914 N 363.613 -0.582584 1.46437 0
M  V30 3915 C 365.029 -0.905962 1.31394 0
M  V30 3916 C 365.229 -1.99468 0.285476 0
M  V30 3917 O 364.285 -2.50566 -0.311914 0
M  V30 3918 C 365.598 -1.3232 2.70022 0
M  V30 3919 C 367.146 -1.43604 2.78113 0
M  V30 3920 C 367.621 -1.88694 4.17323 0
M  V30 3921 N 369.112 -1.95887 4.19741 0
M  V30 3922 C 369.847 -2.32051 5.24347 0
M  V30 3923 N 369.343 -2.67006 6.39281 0
M  V30 3924 N 371.136 -2.32606 5.11713 0
M  V30 3925 H 363.287 0.1366 2.1196 0
M  V30 3926 H 365.55 -0.00155736 0.947999 0
M  V30 3927 H 365.256 -0.597242 3.46592 0
M  V30 3928 H 365.13 -2.28469 3.00136 0
M  V30 3929 H 367.517 -2.15286 2.01832 0
M  V30 3930 H 367.598 -0.457059 2.51684 0
M  V30 3931 H 367.242 -1.1759 4.941 0
M  V30 3932 H 367.172 -2.8755 4.4116 0
M  V30 3933 H 369.663 -1.71362 3.36814 0
M  V30 3934 H 369.976 -2.93554 7.14875 0
M  V30 3935 H 368.321 -2.64644 6.42642 0
M  V30 3936 H 371.512 -2.04721 4.2096 0
M  V30 3937 H 371.685 -2.60462 5.93349 0
M  V30 3938 N 365.091 -1.34144 -0.827227 0
M  V30 3939 C 366.024 -1.19707 -1.94282 0
M  V30 3940 C 367.002 -0.0897256 -1.62352 0
M  V30 3941 O 368.186 -0.254095 -1.8678 0
M  V30 3942 C 365.313 -0.838646 -3.28153 0
M  V30 3943 C 364.359 -1.95514 -3.79047 0
M  V30 3944 S 365.192 -3.56793 -3.99323 0
M  V30 3945 C 366.348 -3.22983 -5.36127 0
M  V30 3946 H 366.581 -2.1414 -2.06231 0
M  V30 3947 H 364.114 -1.19121 -0.982321 0
M  V30 3948 H 366.072 -0.638637 -4.05502 0
M  V30 3949 H 364.733 0.0872776 -3.13979 0
M  V30 3950 H 363.926 -1.658 -4.75948 0
M  V30 3951 H 363.528 -2.11241 -3.08631 0
M  V30 3952 H 365.82 -2.74531 -6.19386 0
M  V30 3953 H 366.763 -4.19008 -5.70822 0
M  V30 3954 H 367.171 -2.59276 -5.01434 0
M  V30 3955 N 366.569 1.04691 -1.17803 0
M  V30 3956 C 367.519 2.10856 -0.867391 0
M  V30 3957 C 368.503 1.601 0.160206 0
M  V30 3958 O 369.695 1.76948 -0.042947 0
M  V30 3959 C 366.824 3.411 -0.388012 0
M  V30 3960 C 365.91 3.9864 -1.44732 0
M  V30 3961 N 366.301 4.30075 -2.66212 0
M  V30 3962 C 364.599 4.26439 -1.30637 0
M  V30 3963 C 365.3 4.76033 -3.34317 0
M  V30 3964 N 364.276 4.76462 -2.61696 0
M  V30 3965 H 368.078 2.33029 -1.79094 0
M  V30 3966 H 365.592 1.22386 -1.0675 0
M  V30 3967 H 367.589 4.16641 -0.146994 0
M  V30 3968 H 366.249 3.20357 0.529271 0
M  V30 3969 H 367.26 4.19917 -3.03134 0
M  V30 3970 H 363.937 4.15056 -0.451129 0
M  V30 3971 H 365.327 5.09427 -4.38103 0
M  V30 3972 N 368.047 0.979072 1.23499 0
M  V30 3973 C 369.287 0.655228 1.93613 0
M  V30 3974 C 369.651 -0.796336 1.74707 0
M  V30 3975 O 370.852 -1.23094 2.38959 0
M  V30 3976 C 369.123 1.03337 3.42135 0
M  V30 3977 S 370.682 0.825793 4.3096 0
M  V30 3978 H 367.5 0.240004 0.669267 0
M  V30 3979 H 370.102 1.25843 1.49612 0
M  V30 3980 H 368.806 2.08646 3.53405 0
M  V30 3981 H 368.337 0.421397 3.91137 0
M  V30 3982 H 370.352 -0.290991 4.95346 0
M  V30 3983 N 369.525 -1.3858 0.750561 0
M  V30 3984 C 370.75 -2.04997 0.314812 0
M  V30 3985 C 371.175 -1.56235 -1.04749 0
M  V30 3986 O 370.533 -0.712981 -1.66692 0
M  V30 3987 C 370.581 -3.58961 0.343415 0
M  V30 3988 O 369.685 -4.07025 -0.663628 0
M  V30 3989 H 369.026 -0.649081 0.139962 0
M  V30 3990 H 371.556 -1.77313 1.02084 0
M  V30 3991 H 371.566 -4.07542 0.193233 0
M  V30 3992 H 370.241 -3.93811 1.33738 0
M  V30 3993 H 368.818 -3.6982 -0.478307 0
M  V30 3994 N 371.003 -0.499398 -1.49478 0
M  V30 3995 C 371.966 0.268838 -2.27618 0
M  V30 3996 C 372.966 0.895383 -1.33565 0
M  V30 3997 O 374.156 0.760164 -1.56739 0
M  V30 3998 C 371.288 1.38559 -3.11471 0
M  V30 3999 H 372.481 -0.416812 -2.96989 0
M  V30 4000 H 370.034 -0.254313 -1.54217 0
M  V30 4001 H 370.769 2.10544 -2.46661 0
M  V30 4002 H 370.554 0.941797 -3.80621 0
M  V30 4003 H 372.044 1.92678 -3.70493 0
M  V30 4004 N 372.481 1.55866 -0.233164 0
M  V30 4005 C 373.391 2.24431 0.683217 0
M  V30 4006 C 374.407 1.2558 1.2044 0
M  V30 4007 O 375.583 1.58422 1.24356 0
M  V30 4008 C 372.648 2.91979 1.86947 0
M  V30 4009 C 371.709 4.06204 1.38912 0
M  V30 4010 C 370.942 4.70522 2.51883 0
M  V30 4011 O 371.165 4.33865 3.70293 0
M  V30 4012 O 370.099 5.59296 2.22423 0
M  V30 4013 H 373.925 3.03426 0.129059 0
M  V30 4014 H 371.51 1.494 -0.0022283 0
M  V30 4015 H 373.392 3.34573 2.56201 0
M  V30 4016 H 372.067 2.15935 2.41151 0
M  V30 4017 H 370.974 3.68155 0.664259 0
M  V30 4018 H 372.307 4.84025 0.893328 0
M  V30 4019 N 373.959 -0.0401083 1.57549 0
M  V30 4020 C 375.207 -0.731677 1.8839 0
M  V30 4021 C 375.528 -1.76481 0.829425 0
M  V30 4022 O 374.798 -1.95411 -0.1383 0
M  V30 4023 H 373.378 -0.273225 0.695239 0
M  V30 4024 H 376.04 -0.00867725 1.94898 0
M  V30 4025 H 375.136 -1.22816 2.86919 0
M  V30 4026 N 375.437 -1.54477 -0.31217 0
M  V30 4027 C 376.347 -1.87695 -1.4074 0
M  V30 4028 C 377.363 -0.769975 -1.56036 0
M  V30 4029 O 378.539 -1.06537 -1.70915 0
M  V30 4030 C 375.604 -2.10755 -2.75287 0
M  V30 4031 C 374.665 -3.34514 -2.69071 0
M  V30 4032 C 373.898 -3.56465 -3.97201 0
M  V30 4033 O 374.121 -2.81637 -4.96021 0
M  V30 4034 O 373.055 -4.49964 -3.9977 0
M  V30 4035 H 376.881 -2.80849 -1.15574 0
M  V30 4036 H 374.466 -1.40526 -0.507228 0
M  V30 4037 H 376.348 -2.27188 -3.54913 0
M  V30 4038 H 375.023 -1.20788 -3.0032 0
M  V30 4039 H 373.93 -3.23456 -1.87955 0
M  V30 4040 H 375.263 -4.24575 -2.48992 0
M  V30 4041 N 376.915 0.57481 -1.46744 0
M  V30 4042 C 378.161 1.33251 -1.53674 0
M  V30 4043 C 378.516 1.91468 -0.189125 0
M  V30 4044 O 377.809 1.73954 0.803151 0
M  V30 4045 C 378.003 2.476 -2.57738 0
M  V30 4046 C 377.832 2.00586 -4.02487 0
M  V30 4047 C 376.602 1.85237 -4.70123 0
M  V30 4048 C 378.8 1.56078 -4.90045 0
M  V30 4049 N 376.782 1.32377 -5.99458 0
M  V30 4050 C 378.153 1.14863 -6.09267 0
M  V30 4051 C 380.208 1.43968 -4.76632 0
M  V30 4052 C 378.911 0.627435 -7.16558 0
M  V30 4053 C 380.937 0.932512 -5.84002 0
M  V30 4054 C 380.299 0.53019 -7.02402 0
M  V30 4055 H 376.398 0.480284 -0.617131 0
M  V30 4056 H 378.982 0.653592 -1.83402 0
M  V30 4057 H 377.153 3.13045 -2.29907 0
M  V30 4058 H 378.885 3.14567 -2.54616 0
M  V30 4059 H 375.64 2.07423 -4.25761 0
M  V30 4060 H 376.064 1.08085 -6.68316 0
M  V30 4061 H 380.706 1.73689 -3.85476 0
M  V30 4062 H 378.424 0.317821 -8.07475 0
M  V30 4063 H 382.01 0.842611 -5.75666 0
M  V30 4064 H 380.89 0.14381 -7.84068 0
M  V30 4065 N 378.394 1.34581 0.820102 0
M  V30 4066 C 379.324 1.29038 1.94606 0
M  V30 4067 C 380.305 0.1673 1.69275 0
M  V30 4068 O 381.49 0.360112 1.90832 0
M  V30 4069 C 378.62 1.04793 3.31113 0
M  V30 4070 C 377.574 2.13597 3.70891 0
M  V30 4071 C 376.9 1.74537 5.05412 0
M  V30 4072 C 378.2 3.55451 3.8269 0
M  V30 4073 H 379.894 2.23248 1.99501 0
M  V30 4074 H 377.44 1.0747 0.958449 0
M  V30 4075 H 379.393 0.995592 4.0947 0
M  V30 4076 H 378.117 0.0702565 3.26524 0
M  V30 4077 H 376.776 2.17905 2.9481 0
M  V30 4078 H 376.424 0.754226 4.97313 0
M  V30 4079 H 376.124 2.47361 5.32997 0
M  V30 4080 H 377.648 1.70803 5.86224 0
M  V30 4081 H 379.062 3.5354 4.51312 0
M  V30 4082 H 377.459 4.26922 4.21732 0
M  V30 4083 H 378.529 3.92587 2.84611 0
M  V30 4084 N 379.872 -1.04064 1.18357 0
M  V30 4085 C 381.118 -1.77528 0.980397 0
M  V30 4086 C 381.451 -1.87948 -0.48879 0
M  V30 4087 O 380.726 -1.3876 -1.36293 0
M  V30 4088 C 381.009 -3.20797 1.63588 0
M  V30 4089 C 380.862 -3.1832 3.17793 0
M  V30 4090 C 382.181 -4.18911 1.34914 0
M  V30 4091 H 379.3 -0.644443 0.357578 0
M  V30 4092 H 381.942 -1.2156 1.46024 0
M  V30 4093 H 380.092 -3.68586 1.22788 0
M  V30 4094 H 381.764 -2.78521 3.67728 0
M  V30 4095 H 380.007 -2.56351 3.49952 0
M  V30 4096 H 380.678 -4.19489 3.58794 0
M  V30 4097 H 383.154 -3.7967 1.70265 0
M  V30 4098 H 382.03 -5.17374 1.83346 0
M  V30 4099 H 382.291 -4.41262 0.272027 0
M  V30 4100 N 381.35 -0.985608 -1.22978 0
M  V30 4101 C 382.761 -0.693593 -1.73338 0
M  V30 4102 C 383.112 0.789935 -1.79595 0
M  V30 4103 O 382.237 1.61771 -1.43733 0
M  V30 4104 C 382.832 -1.25235 -3.14804 0
M  V30 4105 C 381.391 -1.00987 -3.626 0
M  V30 4106 C 380.538 -1.37695 -2.40698 0
M  V30 4107 H 383.489 -1.15884 -1.08428 0
M  V30 4108 H 383.51 -0.627329 -3.75293 0
M  V30 4109 H 383.022 -2.33209 -3.10218 0
M  V30 4110 H 381.123 0.0535565 -3.72562 0
M  V30 4111 H 381.236 -1.66812 -4.49122 0
M  V30 4112 H 379.6 -0.795459 -2.4196 0
M  V30 4113 H 380.383 -2.46657 -2.38779 0
M  V30 4114 N 382.828 1.3818 -0.7579 0
M  V30 4115 C 384.077 1.99261 -0.312744 0
M  V30 4116 C 384.39 1.60846 1.11301 0
M  V30 4117 O 385.596 2.14929 1.65885 0
M  V30 4118 C 384.052 3.56294 -0.50821 0
M  V30 4119 C 383.66 4.03657 -1.94333 0
M  V30 4120 C 385.404 4.24313 -0.125982 0
M  V30 4121 C 383.311 5.53347 -2.08712 0
M  V30 4122 H 382.241 0.745456 -0.113185 0
M  V30 4123 H 384.892 1.57889 -0.935056 0
M  V30 4124 H 383.274 3.95575 0.183353 0
M  V30 4125 H 384.448 3.75655 -2.66871 0
M  V30 4126 H 382.763 3.48376 -2.28086 0
M  V30 4127 H 385.36 5.34279 -0.212125 0
M  V30 4128 H 385.703 4.05962 0.921964 0
M  V30 4129 H 386.236 3.90285 -0.769563 0
M  V30 4130 H 382.975 5.76607 -3.11777 0
M  V30 4131 H 382.495 5.83078 -1.4064 0
M  V30 4132 H 384.174 6.19111 -1.87912 0
M  V30 4133 N 384.306 0.507319 1.49211 0
M  V30 4134 C 385.554 -0.0348839 2.0207 0
M  V30 4135 C 385.875 -1.36898 1.38866 0
M  V30 4136 O 385.145 -1.88133 0.546151 0
M  V30 4137 H 383.725 -0.0158812 0.746831 0
M  V30 4138 H 386.387 0.665998 1.83168 0
M  V30 4139 H 385.483 -0.159917 3.1169 0
M  V30 4140 N 385.784 -1.5574 0.241426 0
M  V30 4141 C 386.731 -2.21149 -0.660432 0
M  V30 4142 C 387.701 -1.17356 -1.17545 0
M  V30 4143 O 388.886 -1.45784 -1.23093 0
M  V30 4144 C 386.026 -2.91059 -1.85414 0
M  V30 4145 C 385.139 -4.09495 -1.37616 0
M  V30 4146 C 384.274 -4.67135 -2.529 0
M  V30 4147 C 383.313 -5.77831 -2.01936 0
M  V30 4148 N 382.45 -6.29677 -3.10566 0
M  V30 4149 H 387.29 -2.97845 -0.095955 0
M  V30 4150 H 384.827 -1.47057 -0.0356024 0
M  V30 4151 H 386.785 -3.29788 -2.5553 0
M  V30 4152 H 385.415 -2.16846 -2.39118 0
M  V30 4153 H 384.467 -3.76117 -0.569235 0
M  V30 4154 H 385.779 -4.89423 -0.962618 0
M  V30 4155 H 384.933 -5.08409 -3.31067 0
M  V30 4156 H 383.672 -3.86411 -2.97553 0
M  V30 4157 H 382.677 -5.36039 -1.22238 0
M  V30 4158 H 383.902 -6.60402 -1.58259 0
M  V30 4159 H 381.848 -5.5186 -3.54664 0
M  V30 4160 H 381.765 -7.04783 -2.73526 0
M  V30 4161 H 383.033 -6.75609 -3.88809 0
M  V30 4162 N 387.262 0.0317525 -1.57568 0
M  V30 4163 C 388.502 0.727979 -1.90997 0
M  V30 4164 C 388.866 1.72664 -0.839708 0
M  V30 4165 O 390.067 2.47092 -1.05825 0
M  V30 4166 C 388.338 1.38239 -3.29583 0
M  V30 4167 S 389.897 2.10814 -3.84841 0
M  V30 4168 H 386.715 0.241226 -0.668828 0
M  V30 4169 H 389.317 -0.0173037 -1.95492 0
M  V30 4170 H 388.021 0.642288 -4.05343 0
M  V30 4171 H 387.552 2.16628 -3.28384 0
M  V30 4172 H 389.567 3.3792 -3.63352 0
M  V30 4173 N 388.74 1.54641 0.303973 0
M  V30 4174 C 389.989 1.7299 1.03717 0
M  V30 4175 C 390.302 0.521168 1.88529 0
M  V30 4176 O 391.508 0.586408 2.65092 0
M  V30 4177 C 389.964 3.06051 1.89369 0
M  V30 4178 C 389.572 4.34393 1.09574 0
M  V30 4179 C 391.316 3.3376 2.62306 0
M  V30 4180 C 389.223 5.58506 1.94486 0
M  V30 4181 H 388.153 0.64473 0.390947 0
M  V30 4182 H 390.804 1.81124 0.294328 0
M  V30 4183 H 389.186 2.91874 2.67629 0
M  V30 4184 H 390.36 4.59396 0.359485 0
M  V30 4185 H 388.675 4.13597 0.482324 0
M  V30 4186 H 391.272 4.23687 3.26181 0
M  V30 4187 H 391.615 2.52503 3.3098 0
M  V30 4188 H 392.148 3.48894 1.91097 0
M  V30 4189 H 388.887 6.42422 1.30287 0
M  V30 4190 H 388.407 5.37694 2.65792 0
M  V30 4191 H 390.086 5.95651 2.52605 0
M  V30 4192 N 390.218 -0.567019 1.47046 0
M  V30 4193 C 391.458 -1.3355 1.54738 0
M  V30 4194 C 391.822 -1.90947 0.200772 0
M  V30 4195 O 393.023 -2.68367 0.152489 0
M  V30 4196 C 391.294 -2.42317 2.62712 0
M  V30 4197 S 392.853 -3.29383 2.89918 0
M  V30 4198 H 389.671 -0.454788 0.546525 0
M  V30 4199 H 392.273 -0.650191 1.84371 0
M  V30 4200 H 390.977 -1.98568 3.59164 0
M  V30 4201 H 390.508 -3.15601 2.34861 0
M  V30 4202 H 392.523 -4.41548 2.26384 0
M  V30 4203 N 391.696 -1.35014 -0.812953 0
M  V30 4204 C 392.643 -1.27412 -1.92444 0
M  V30 4205 C 393.613 -0.14733 -1.65445 0
M  V30 4206 O 394.798 -0.329974 -1.87925 0
M  V30 4207 C 391.938 -1.04558 -3.28879 0
M  V30 4208 C 391.051 -2.26101 -3.68106 0
M  V30 4209 C 390.186 -1.96449 -4.9354 0
M  V30 4210 C 389.225 -3.14081 -5.25376 0
M  V30 4211 N 388.362 -2.84246 -6.41988 0
M  V30 4212 H 393.202 -2.22463 -1.98278 0
M  V30 4213 H 390.739 -1.10593 -0.969933 0
M  V30 4214 H 392.697 -0.893413 -4.07522 0
M  V30 4215 H 391.327 -0.131719 -3.22531 0
M  V30 4216 H 390.379 -2.52204 -2.84775 0
M  V30 4217 H 391.691 -3.13959 -3.87597 0
M  V30 4218 H 390.845 -1.78026 -5.79993 0
M  V30 4219 H 389.584 -1.05867 -4.76071 0
M  V30 4220 H 388.589 -3.33089 -4.37415 0
M  V30 4221 H 389.814 -4.05455 -5.44778 0
M  V30 4222 H 387.76 -1.96252 -6.25956 0
M  V30 4223 H 387.677 -3.65637 -6.61699 0
M  V30 4224 H 388.945 -2.6935 -7.31485 0
M  V30 4225 N 393.175 1.03435 -1.18907 0
M  V30 4226 C 394.138 2.09756 -0.923844 0
M  V30 4227 C 395.138 1.60528 0.093416 0
M  V30 4228 O 396.328 1.73631 -0.140727 0
M  V30 4229 C 393.46 3.38692 -0.387354 0
M  V30 4230 H 394.653 2.34719 -1.86674 0
M  V30 4231 H 392.206 1.19959 -1.00197 0
M  V30 4232 H 392.941 3.19396 0.561845 0
M  V30 4233 H 392.726 3.75742 -1.12074 0
M  V30 4234 H 394.216 4.17016 -0.220694 0
M  V30 4235 N 394.653 0.992116 1.22453 0
M  V30 4236 C 395.901 0.666215 1.90804 0
M  V30 4237 C 396.222 -0.804152 1.77647 0
M  V30 4238 O 395.492 -1.57629 1.16318 0
M  V30 4239 H 394.072 0.243423 0.706225 0
M  V30 4240 H 396.734 1.25845 1.48825 0
M  V30 4241 H 395.83 0.928069 2.97982 0
M  V30 4242 N 396.131 -1.37776 0.765217 0
M  V30 4243 C 397.361 -2.03828 0.337277 0
M  V30 4244 C 397.769 -1.57841 -1.04321 0
M  V30 4245 O 397.112 -0.752043 -1.67601 0
M  V30 4246 C 397.174 -3.58292 0.294407 0
M  V30 4247 C 396.838 -4.27384 1.61838 0
M  V30 4248 C 397.835 -4.51956 2.56967 0
M  V30 4249 C 395.52 -4.65345 1.89102 0
M  V30 4250 C 397.514 -5.13536 3.77571 0
M  V30 4251 C 395.201 -5.26647 3.09978 0
M  V30 4252 C 396.199 -5.50679 4.04032 0
M  V30 4253 O 395.887 -6.10702 5.2278 0
M  V30 4254 H 395.619 -0.661292 0.140248 0
M  V30 4255 H 398.173 -1.77222 1.03834 0
M  V30 4256 H 396.403 -3.83918 -0.462983 0
M  V30 4257 H 398.092 -4.05763 -0.105581 0
M  V30 4258 H 398.858 -4.23048 2.37183 0
M  V30 4259 H 394.737 -4.45978 1.16725 0
M  V30 4260 H 398.281 -5.3221 4.50997 0
M  V30 4261 H 394.178 -5.54979 3.29649 0
M  V30 4262 H 394.946 -6.29183 5.23517 0
M  V30 4263 N 397.609 -0.515225 -1.4894 0
M  V30 4264 C 398.541 0.292481 -2.27326 0
M  V30 4265 C 399.554 0.917838 -1.3446 0
M  V30 4266 O 400.743 0.798772 -1.5963 0
M  V30 4267 C 397.843 1.42803 -3.07344 0
M  V30 4268 C 397.016 0.907347 -4.27885 0
M  V30 4269 C 396.075 1.92222 -4.89834 0
M  V30 4270 O 395.101 1.48506 -5.49486 0
M  V30 4271 N 396.303 3.25355 -4.80754 0
M  V30 4272 H 399.068 -0.379721 -2.97285 0
M  V30 4273 H 396.629 -0.348638 -1.58102 0
M  V30 4274 H 398.621 2.10481 -3.45658 0
M  V30 4275 H 397.191 2.00414 -2.39902 0
M  V30 4276 H 396.411 0.0550218 -3.94162 0
M  V30 4277 H 397.699 0.538108 -5.05946 0
M  V30 4278 H 397.097 3.6355 -4.33414 0
M  V30 4279 H 395.654 3.88707 -5.23211 0
M  V30 4280 N 399.087 1.5561 -0.249682 0
M  V30 4281 C 400.019 2.18834 0.681496 0
M  V30 4282 C 401.032 1.16546 1.1367 0
M  V30 4283 O 402.221 1.43397 1.06299 0
M  V30 4284 C 399.321 2.77992 1.9384 0
M  V30 4285 C 398.494 4.05725 1.63419 0
M  V30 4286 C 397.553 4.49174 2.74096 0
M  V30 4287 O 396.579 5.15492 2.41364 0
M  V30 4288 N 397.781 4.17191 4.03649 0
M  V30 4289 H 400.546 2.9937 0.140514 0
M  V30 4290 H 398.107 1.6175 -0.0697541 0
M  V30 4291 H 400.099 3.04015 2.67127 0
M  V30 4292 H 398.669 2.01596 2.38909 0
M  V30 4293 H 397.889 3.87261 0.736358 0
M  V30 4294 H 399.177 4.88999 1.40562 0
M  V30 4295 H 398.575 3.63955 4.33074 0
M  V30 4296 H 397.132 4.48043 4.73393 0
M  V30 4297 N 400.565 -0.0233959 1.57583 0
M  V30 4298 C 401.512 -1.02224 2.06927 0
M  V30 4299 C 402.482 -1.35575 0.959617 0
M  V30 4300 O 403.667 -1.45815 1.23055 0
M  V30 4301 C 400.807 -2.31636 2.5581 0
M  V30 4302 C 399.92 -2.04394 3.80588 0
M  V30 4303 C 399.055 -3.27717 4.18061 0
M  V30 4304 C 398.094 -2.96056 5.3574 0
M  V30 4305 N 397.231 -4.11847 5.68618 0
M  V30 4306 H 402.071 -0.594504 2.9201 0
M  V30 4307 H 399.608 -0.281921 1.44373 0
M  V30 4308 H 401.566 -3.07258 2.82221 0
M  V30 4309 H 400.196 -2.72122 1.73636 0
M  V30 4310 H 399.248 -1.19244 3.61227 0
M  V30 4311 H 400.56 -1.77042 4.66323 0
M  V30 4312 H 399.714 -4.11702 4.4563 0
M  V30 4313 H 398.453 -3.58188 3.30988 0
M  V30 4314 H 397.458 -2.10474 5.07918 0
M  V30 4315 H 398.683 -2.66857 6.24471 0
M  V30 4316 H 396.629 -4.42258 4.84504 0
M  V30 4317 H 396.546 -3.87938 6.48876 0
M  V30 4318 H 397.814 -4.96689 6.00766 0
M  V30 4319 N 402.043 -1.548 -0.295768 0
M  V30 4320 C 403.291 -1.73985 -1.02828 0
M  V30 4321 C 403.612 -0.531406 -1.87619 0
M  V30 4322 O 402.882 0.454221 -1.90561 0
M  V30 4323 H 401.462 -0.641556 -0.382642 0
M  V30 4324 H 404.124 -1.92163 -0.325489 0
M  V30 4325 H 403.22 -2.63129 -1.67838 0
M  V30 4326 N 403.521 0.559213 -1.47345 0
M  V30 4327 C 404.798 1.31997 -1.44348 0
M  V30 4328 C 405.178 2.1064 -0.139358 0
M  V30 4329 O 404.526 2.1091 0.879153 0
M  V30 4330 C 404.736 2.22618 -2.68779 0
M  V30 4331 C 406.084 2.83701 -3.1591 0
M  V30 4332 O 407.108 2.32921 -2.69493 0
M  V30 4333 O 405.967 3.75993 -3.966 0
M  V30 4334 H 403.061 0.594251 -0.575147 0
M  V30 4335 H 405.607 0.578282 -1.59543 0
M  V30 4336 H 404.379 1.64093 -3.55231 0
M  V30 4337 H 404.002 3.04085 -2.5616 0
M  V30 4338 N 404.999 1.35443 0.805782 0
M  V30 4339 C 406.227 1.31878 1.59423 0
M  V30 4340 C 406.642 -0.103562 1.88516 0
M  V30 4341 O 405.999 -1.05575 1.48863 0
M  V30 4342 C 406.05 2.12426 2.92502 0
M  V30 4343 O 405.771 3.49115 2.6467 0
M  V30 4344 C 407.272 2.16455 3.86862 0
M  V30 4345 H 404.492 0.453002 0.495005 0
M  V30 4346 H 407.036 1.78309 1.00131 0
M  V30 4347 H 405.191 1.69593 3.48306 0
M  V30 4348 H 405.605 3.90957 3.49647 0
M  V30 4349 H 407.079 2.77204 4.77349 0
M  V30 4350 H 407.556 1.16352 4.23508 0
M  V30 4351 H 408.162 2.59453 3.36993 0
M  V30 4352 N 406.477 -1.02803 1.19454 0
M  V30 4353 C 407.717 -1.77769 1.00883 0
M  V30 4354 C 408.081 -1.86596 -0.45233 0
M  V30 4355 O 409.282 -2.57895 -0.757877 0
M  V30 4356 C 407.553 -3.16486 1.66046 0
M  V30 4357 S 409.112 -4.07632 1.62424 0
M  V30 4358 H 405.93 -0.611949 0.361993 0
M  V30 4359 H 408.532 -1.23175 1.51816 0
M  V30 4360 H 407.236 -3.0768 2.7159 0
M  V30 4361 H 406.767 -3.76156 1.15196 0
M  V30 4362 H 408.782 -4.91937 0.64903 0
M  V30 4363 N 407.956 -0.998596 -1.21925 0
M  V30 4364 C 408.866 -0.562736 -2.27751 0
M  V30 4365 C 409.882 0.391203 -1.69545 0
M  V30 4366 O 411.058 0.256625 -1.99758 0
M  V30 4367 C 408.123 0.11012 -3.46525 0
M  V30 4368 C 407.184 -0.887495 -4.20026 0
M  V30 4369 C 406.417 -0.246654 -5.3313 0
M  V30 4370 O 406.64 0.958088 -5.62296 0
M  V30 4371 O 405.574 -0.954374 -5.94286 0
M  V30 4372 H 409.4 -1.44329 -2.67213 0
M  V30 4373 H 406.985 -0.767135 -1.28201 0
M  V30 4374 H 408.867 0.486756 -4.18579 0
M  V30 4375 H 407.542 0.965154 -3.08976 0
M  V30 4376 H 406.449 -1.31517 -3.5022 0
M  V30 4377 H 407.782 -1.71191 -4.6147 0
M  V30 4378 N 409.434 1.37368 -0.772513 0
M  V30 4379 C 410.845 1.8231 -0.402493 0
M  V30 4380 C 411.196 1.6436 1.07146 0
M  V30 4381 O 410.321 1.15514 1.82991 0
M  V30 4382 C 410.916 3.30979 -0.723776 0
M  V30 4383 C 409.475 3.74195 -0.406802 0
M  V30 4384 C 408.622 2.59885 -0.967218 0
M  V30 4385 H 411.573 1.25829 -0.967099 0
M  V30 4386 H 411.594 3.80499 -0.00870832 0
M  V30 4387 H 411.106 3.44011 -1.7966 0
M  V30 4388 H 409.207 3.66732 0.658673 0
M  V30 4389 H 409.32 4.7027 -0.915588 0
M  V30 4390 H 407.684 2.51674 -0.391416 0
M  V30 4391 H 408.467 2.7571 -2.04546 0
M  V30 4392 N 410.912 0.523116 1.48665 0
M  V30 4393 C 412.152 -0.0115588 2.04397 0
M  V30 4394 C 412.516 -1.32225 1.39214 0
M  V30 4395 O 413.717 -1.94253 1.85793 0
M  V30 4396 C 411.988 -0.138119 3.57133 0
M  V30 4397 S 413.547 -0.623849 4.34343 0
M  V30 4398 H 410.365 0.00877706 0.710946 0
M  V30 4399 H 412.967 0.702116 1.82457 0
M  V30 4400 H 411.671 0.820748 4.02109 0
M  V30 4401 H 411.202 -0.876377 3.83514 0
M  V30 4402 H 413.217 -1.8895 4.58816 0
M  V30 4403 N 412.39 -1.55475 0.257931 0
M  V30 4404 C 413.638 -1.98813 -0.363009 0
M  V30 4405 C 413.959 -1.14757 -1.57657 0
M  V30 4406 O 413.229 -0.232956 -1.9451 0
M  V30 4407 H 411.809 -0.734308 -0.137113 0
M  V30 4408 H 414.471 -1.9156 0.359281 0
M  V30 4409 H 413.567 -3.04941 -0.664634 0
M  V30 4410 N 413.868 0.0150385 -1.57593 0
M  V30 4411 C 415.284 0.370907 -1.5523 0
M  V30 4412 C 415.484 1.75735 -0.985882 0
M  V30 4413 O 414.54 2.44944 -0.613077 0
M  V30 4414 C 415.853 0.259908 -2.99575 0
M  V30 4415 C 417.401 0.335959 -3.11192 0
M  V30 4416 C 417.876 0.254253 -4.57294 0
M  V30 4417 N 419.367 0.312618 -4.62144 0
M  V30 4418 C 420.102 0.272505 -5.72752 0
M  V30 4419 N 419.598 0.183864 -6.92556 0
M  V30 4420 N 421.391 0.323267 -5.6117 0
M  V30 4421 H 413.542 -0.892104 -1.92757 0
M  V30 4422 H 415.805 -0.340563 -0.884715 0
M  V30 4423 H 415.511 -0.693403 -3.44797 0
M  V30 4424 H 415.385 1.048 -3.62349 0
M  V30 4425 H 417.772 1.27971 -2.65909 0
M  V30 4426 H 417.853 -0.481739 -2.51223 0
M  V30 4427 H 417.497 -0.685887 -5.03247 0
M  V30 4428 H 417.427 1.09024 -5.15191 0
M  V30 4429 H 419.918 0.38307 -3.75953 0
M  V30 4430 H 420.231 0.15874 -7.72637 0
M  V30 4431 H 418.576 0.149708 -6.94839 0
M  V30 4432 H 421.767 0.390607 -4.66467 0
M  V30 4433 H 421.94 0.288539 -6.47357 0
M  V30 4434 N 415.346 1.54954 0.287554 0
M  V30 4435 C 416.594 1.74528 1.01904 0
M  V30 4436 C 416.915 0.541349 1.87335 0
M  V30 4437 O 416.185 -0.444108 1.908 0
M  V30 4438 H 414.765 0.643576 0.379235 0
M  V30 4439 H 417.427 1.92333 0.315294 0
M  V30 4440 H 416.523 2.64015 1.6644 0
M  V30 4441 N 416.824 -0.551391 1.4764 0
M  V30 4442 C 418.071 -1.3083 1.54563 0
M  V30 4443 C 418.399 -1.93359 0.210361 0
M  V30 4444 O 417.654 -1.78721 -0.797332 0
M  V30 4445 C 417.953 -2.43469 2.61644 0
M  V30 4446 C 417.619 -1.98732 4.04742 0
M  V30 4447 C 416.281 -1.86248 4.43695 0
M  V30 4448 C 418.633 -1.64659 4.94507 0
M  V30 4449 C 415.961 -1.37995 5.70241 0
M  V30 4450 C 418.313 -1.17875 6.21521 0
M  V30 4451 C 416.977 -1.03992 6.5935 0
M  V30 4452 H 416.247 -0.478741 0.565587 0
M  V30 4453 H 418.894 -0.617697 1.81264 0
M  V30 4454 H 417.199 -3.18109 2.28722 0
M  V30 4455 H 418.896 -3.01642 2.64222 0
M  V30 4456 H 415.486 -2.09393 3.73968 0
M  V30 4457 H 419.67 -1.73174 4.65107 0
M  V30 4458 H 414.926 -1.25915 5.98294 0
M  V30 4459 H 419.1 -0.905739 6.90485 0
M  V30 4460 H 416.727 -0.663794 7.57296 0
M  V30 4461 N 418.302 -1.35869 -0.798587 0
M  V30 4462 C 419.532 -1.32529 -1.58491 0
M  V30 4463 C 419.94 0.0975405 -1.88948 0
M  V30 4464 O 419.283 1.06224 -1.49874 0
M  V30 4465 C 419.345 -2.07247 -2.9375 0
M  V30 4466 C 419.009 -3.56391 -2.86068 0
M  V30 4467 C 420.006 -4.50824 -2.58947 0
M  V30 4468 C 417.691 -3.9915 -3.04933 0
M  V30 4469 C 419.685 -5.85993 -2.5078 0
M  V30 4470 C 417.372 -5.34413 -2.96389 0
M  V30 4471 C 418.37 -6.27646 -2.69349 0
M  V30 4472 O 418.058 -7.60426 -2.60782 0
M  V30 4473 H 417.79 -0.456529 -0.498556 0
M  V30 4474 H 420.344 -1.79425 -0.999799 0
M  V30 4475 H 418.574 -1.55001 -3.54276 0
M  V30 4476 H 420.263 -1.96883 -3.54954 0
M  V30 4477 H 421.029 -4.19104 -2.44084 0
M  V30 4478 H 416.908 -3.26961 -3.24989 0
M  V30 4479 H 420.452 -6.58735 -2.29595 0
M  V30 4480 H 416.349 -5.65743 -3.10813 0
M  V30 4481 H 417.117 -7.70444 -2.76331 0
M  V30 4482 N 419.78 1.02168 -1.19998 0
M  V30 4483 C 420.727 2.10601 -0.944228 0
M  V30 4484 C 421.697 1.65639 0.123664 0
M  V30 4485 O 422.882 1.9079 -0.0199941 0
M  V30 4486 C 420.022 3.41504 -0.496865 0
M  V30 4487 C 419.135 3.99973 -1.63234 0
M  V30 4488 C 418.27 5.18915 -1.13579 0
M  V30 4489 C 417.309 5.69456 -2.24468 0
M  V30 4490 N 416.446 6.79665 -1.76068 0
M  V30 4491 H 421.286 2.31814 -1.8726 0
M  V30 4492 H 418.823 1.13686 -0.933483 0
M  V30 4493 H 420.781 4.16626 -0.218843 0
M  V30 4494 H 419.411 3.2038 0.394508 0
M  V30 4495 H 418.463 3.21997 -2.0254 0
M  V30 4496 H 419.775 4.33492 -2.46752 0
M  V30 4497 H 418.929 6.01222 -0.813429 0
M  V30 4498 H 417.668 4.8695 -0.270434 0
M  V30 4499 H 416.673 4.85757 -2.57526 0
M  V30 4500 H 417.898 6.03459 -3.11472 0
M  V30 4501 H 415.844 6.49538 -0.918516 0
M  V30 4502 H 415.761 7.12349 -2.5317 0
M  V30 4503 H 417.029 7.65549 -1.46817 0
M  V30 4504 N 421.258 1.00505 1.21394 0
M  V30 4505 C 422.483 0.706367 1.95001 0
M  V30 4506 C 422.908 -0.72463 1.73582 0
M  V30 4507 O 422.266 -1.49702 1.0227 0
M  V30 4508 C 422.314 1.03299 3.45487 0
M  V30 4509 O 421.418 0.138275 4.12168 0
M  V30 4510 H 420.759 0.263175 0.609619 0
M  V30 4511 H 423.289 1.34531 1.54151 0
M  V30 4512 H 423.299 0.979872 3.96059 0
M  V30 4513 H 421.974 2.07567 3.60401 0
M  V30 4514 H 420.551 0.247928 3.72075 0
M  V30 4515 N 422.737 -1.36956 0.779787 0
M  V30 4516 C 423.962 -2.04283 0.358224 0
M  V30 4517 C 424.387 -1.58422 -1.01411 0
M  V30 4518 O 423.745 -0.748179 -1.65142 0
M  V30 4519 C 423.793 -3.58152 0.419479 0
M  V30 4520 O 422.897 -4.08342 -0.577142 0
M  V30 4521 H 422.238 -0.645967 0.153698 0
M  V30 4522 H 424.768 -1.75108 1.05822 0
M  V30 4523 H 424.778 -4.07041 0.279636 0
M  V30 4524 H 423.453 -3.90886 1.42061 0
M  V30 4525 H 422.03 -3.70751 -0.399755 0
M  V30 4526 N 424.215 -0.530993 -1.48385 0
M  V30 4527 C 425.44 0.000729535 -2.074 0
M  V30 4528 C 425.865 1.27298 -1.3848 0
M  V30 4529 O 425.223 1.75599 -0.451081 0
M  V30 4530 C 425.271 0.206697 -3.60007 0
M  V30 4531 O 424.375 1.27514 -3.92191 0
M  V30 4532 H 423.716 -0.039583 -0.662819 0
M  V30 4533 H 426.246 -0.739194 -1.9078 0
M  V30 4534 H 426.256 0.42904 -4.05738 0
M  V30 4535 H 424.931 -0.722675 -4.09573 0
M  V30 4536 H 423.508 1.03537 -3.58238 0
M  V30 4537 N 425.693 1.55336 -0.266172 0
M  V30 4538 C 426.625 2.19544 0.658247 0
M  V30 4539 C 427.638 1.17746 1.12427 0
M  V30 4540 O 428.827 1.44517 1.04772 0
M  V30 4541 C 425.927 2.80032 1.9088 0
M  V30 4542 C 425.1 4.07436 1.59106 0
M  V30 4543 C 424.159 4.52056 2.69317 0
M  V30 4544 O 423.185 5.18023 2.35883 0
M  V30 4545 N 424.387 4.21448 3.99201 0
M  V30 4546 H 427.152 2.99503 0.108754 0
M  V30 4547 H 424.713 1.61667 -0.0869059 0
M  V30 4548 H 426.705 3.06831 2.63888 0
M  V30 4549 H 425.275 2.04119 2.36758 0
M  V30 4550 H 424.495 3.88021 0.695243 0
M  V30 4551 H 425.783 4.90462 1.35367 0
M  V30 4552 H 425.181 3.68528 4.29189 0
M  V30 4553 H 423.738 4.53039 4.68614 0
M  V30 4554 N 427.171 -0.0066808 1.57599 0
M  V30 4555 C 428.448 -0.729586 1.81484 0
M  V30 4556 C 428.828 -1.92359 0.869558 0
M  V30 4557 O 428.176 -2.28348 -0.0832533 0
M  V30 4558 C 428.386 -1.1416 3.29801 0
M  V30 4559 C 429.734 -1.54823 3.95367 0
M  V30 4560 O 430.758 -1.23558 3.34084 0
M  V30 4561 O 429.617 -2.12937 5.03309 0
M  V30 4562 H 426.711 -0.354674 0.747085 0
M  V30 4563 H 429.257 0.0182609 1.6969 0
M  V30 4564 H 428.029 -0.290231 3.90222 0
M  V30 4565 H 427.652 -1.94876 3.46568 0
M  V30 4566 N 428.649 -1.55105 -0.279332 0
M  V30 4567 C 429.579 -1.90557 -1.34945 0
M  V30 4568 C 430.56 -0.766738 -1.51839 0
M  V30 4569 O 431.745 -1.02434 -1.64988 0
M  V30 4570 C 428.875 -2.17193 -2.71006 0
M  V30 4571 C 427.829 -3.33021 -2.68851 0
M  V30 4572 C 427.155 -3.45123 -4.08405 0
M  V30 4573 C 428.455 -4.69578 -2.28678 0
M  V30 4574 H 430.149 -2.80188 -1.05522 0
M  V30 4575 H 427.695 -1.34811 -0.506173 0
M  V30 4576 H 429.648 -2.40581 -3.45975 0
M  V30 4577 H 428.372 -1.24355 -3.01999 0
M  V30 4578 H 427.031 -3.0959 -1.9634 0
M  V30 4579 H 426.679 -2.49762 -4.3661 0
M  V30 4580 H 426.379 -4.22995 -4.07859 0
M  V30 4581 H 427.903 -3.70796 -4.85121 0
M  V30 4582 H 429.317 -4.92553 -2.93368 0
M  V30 4583 H 427.714 -5.5032 -2.39306 0
M  V30 4584 H 428.784 -4.68828 -1.23807 0
M  V30 4585 N 430.127 0.543554 -1.4793 0
M  V30 4586 C 431.059 1.665 -1.57513 0
M  V30 4587 C 432.072 1.56156 -0.460333 0
M  V30 4588 O 433.261 1.62865 -0.730573 0
M  V30 4589 C 430.361 3.05063 -1.47614 0
M  V30 4590 C 429.534 3.41024 -2.739 0
M  V30 4591 C 428.593 4.58809 -2.57645 0
M  V30 4592 O 427.619 4.62707 -3.31498 0
M  V30 4593 N 428.821 5.56149 -1.66368 0
M  V30 4594 H 431.586 1.5872 -2.5422 0
M  V30 4595 H 429.147 0.730517 -1.44482 0
M  V30 4596 H 431.139 3.81712 -1.34455 0
M  V30 4597 H 429.709 3.06994 -0.589359 0
M  V30 4598 H 428.929 2.53687 -3.01723 0
M  V30 4599 H 430.217 3.61831 -3.57709 0
M  V30 4600 H 429.615 5.55767 -1.05543 0
M  V30 4601 H 428.172 6.32071 -1.59154 0
M  V30 4602 N 431.605 1.3629 0.791371 0
M  V30 4603 C 432.845 1.31792 1.56238 0
M  V30 4604 C 433.209 -0.102237 1.91728 0
M  V30 4605 O 434.41 -0.271759 2.67423 0
M  V30 4606 C 432.681 2.21303 2.80642 0
M  V30 4607 S 434.24 2.34468 3.70904 0
M  V30 4608 H 431.058 0.468141 0.535131 0
M  V30 4609 H 433.66 1.71841 0.932246 0
M  V30 4610 H 432.364 3.23439 2.52617 0
M  V30 4611 H 431.895 1.82266 3.4863 0
M  V30 4612 H 433.91 1.54074 4.71673 0
M  V30 4613 N 433.083 -1.0153 1.20538 0
M  V30 4614 C 434.308 -1.79283 1.04271 0
M  V30 4615 C 434.733 -1.8372 -0.403544 0
M  V30 4616 O 434.091 -1.27321 -1.2907 0
M  V30 4617 C 434.139 -3.21535 1.63241 0
M  V30 4618 O 433.243 -4.03099 0.870908 0
M  V30 4619 H 432.584 -0.55293 0.367647 0
M  V30 4620 H 435.114 -1.27696 1.59859 0
M  V30 4621 H 435.124 -3.72243 1.6703 0
M  V30 4622 H 433.799 -3.1762 2.68497 0
M  V30 4623 H 432.376 -3.61693 0.907323 0
M  V30 4624 N 434.561 -1.01147 -1.20859 0
M  V30 4625 C 435.977 -0.725422 -1.42161 0
M  V30 4626 C 436.177 0.696919 -1.89064 0
M  V30 4627 O 435.233 1.46539 -2.05627 0
M  V30 4628 C 436.546 -1.74678 -2.44761 0
M  V30 4629 C 438.094 -1.76433 -2.58535 0
M  V30 4630 C 438.569 -2.77481 -3.64374 0
M  V30 4631 N 440.06 -2.76189 -3.71852 0
M  V30 4632 C 440.795 -3.51035 -4.53389 0
M  V30 4633 N 440.291 -4.35541 -5.38773 0
M  V30 4634 N 442.084 -3.39655 -4.47873 0
M  V30 4635 H 434.235 -1.92979 -0.887282 0
M  V30 4636 H 436.498 -0.833327 -0.451962 0
M  V30 4637 H 436.204 -2.76551 -2.17285 0
M  V30 4638 H 436.078 -1.55472 -3.43669 0
M  V30 4639 H 438.465 -0.75248 -2.85345 0
M  V30 4640 H 438.546 -1.99712 -1.5984 0
M  V30 4641 H 438.19 -3.78827 -3.38308 0
M  V30 4642 H 438.12 -2.51466 -4.6268 0
M  V30 4643 H 440.611 -2.14885 -3.10858 0
M  V30 4644 H 440.924 -4.89432 -5.98061 0
M  V30 4645 H 439.269 -4.39621 -5.38292 0
M  V30 4646 H 442.46 -2.73063 -3.80203 0
M  V30 4647 H 442.633 -3.9824 -5.11184 0
M  V30 4648 N 436.039 1.36541 -0.78704 0
M  V30 4649 C 437.279 2.01138 -0.363714 0
M  V30 4650 C 437.643 1.61114 1.04433 0
M  V30 4651 O 438.844 2.18285 1.56861 0
M  V30 4652 C 437.115 3.53603 -0.519582 0
M  V30 4653 S 438.674 4.38415 -0.183782 0
M  V30 4654 H 435.492 0.697263 -0.13909 0
M  V30 4655 H 438.094 1.66475 -1.02501 0
M  V30 4656 H 436.798 3.8022 -1.5447 0
M  V30 4657 H 436.329 3.93084 0.15773 0
M  V30 4658 H 438.344 4.85698 1.01547 0
M  V30 4659 N 437.518 0.538854 1.48102 0
M  V30 4660 C 438.929 0.100679 1.86428 0
M  V30 4661 C 439.28 -1.32447 1.44749 0
M  V30 4662 O 438.405 -1.99339 0.842199 0
M  V30 4663 C 439 0.175933 3.38343 0
M  V30 4664 C 437.559 -0.207098 3.7583 0
M  V30 4665 C 436.706 0.531741 2.72154 0
M  V30 4666 H 439.657 0.749614 1.3988 0
M  V30 4667 H 439.678 -0.610144 3.75576 0
M  V30 4668 H 439.19 1.21328 3.68648 0
M  V30 4669 H 437.291 -1.24626 3.5114 0
M  V30 4670 H 437.404 0.138687 4.78899 0
M  V30 4671 H 435.768 -0.0230462 2.5469 0
M  V30 4672 H 436.551 1.56989 3.05302 0
M  V30 4673 N 438.996 -1.55193 0.274407 0
M  V30 4674 C 440.224 -2.03987 -0.345943 0
M  V30 4675 C 440.639 -1.15279 -1.4952 0
M  V30 4676 O 439.996 -0.172759 -1.8168 0
M  V30 4677 C 440.047 -3.51898 -0.827631 0
M  V30 4678 O 439.768 -4.37231 0.275855 0
M  V30 4679 C 441.269 -4.16577 -1.51587 0
M  V30 4680 H 438.489 -0.666335 -0.0789892 0
M  V30 4681 H 441.033 -2.00423 0.406294 0
M  V30 4682 H 439.188 -3.55909 -1.52996 0
M  V30 4683 H 439.602 -5.24415 -0.0943638 0
M  V30 4684 H 441.076 -5.21678 -1.80433 0
M  V30 4685 H 441.553 -3.64707 -2.44716 0
M  V30 4686 H 442.159 -4.16568 -0.857409 0
M  V30 4687 N 440.474 -0.00167713 -1.576 0
M  V30 4688 C 441.424 0.997744 -2.0501 0
M  V30 4689 C 442.408 1.30214 -0.94515 0
M  V30 4690 O 443.6 1.29284 -1.20891 0
M  V30 4691 C 440.729 2.2892 -2.55833 0
M  V30 4692 C 439.815 2.01437 -3.73208 0
M  V30 4693 N 440.206 1.44119 -4.84833 0
M  V30 4694 C 438.504 2.31571 -3.8117 0
M  V30 4695 C 439.205 1.33145 -5.66257 0
M  V30 4696 N 438.181 1.81763 -5.12312 0
M  V30 4697 H 441.983 0.549098 -2.88725 0
M  V30 4698 H 439.497 0.20398 -1.61114 0
M  V30 4699 H 441.494 3.01361 -2.88075 0
M  V30 4700 H 440.154 2.74436 -1.73537 0
M  V30 4701 H 441.165 1.11978 -5.0565 0
M  V30 4702 H 437.842 2.7995 -3.09732 0
M  V30 4703 H 439.232 0.890567 -6.65972 0
M  V30 4704 N 441.952 1.55251 0.271103 0
M  V30 4705 C 443.177 1.80306 1.02491 0
M  V30 4706 C 443.602 0.575457 1.79081 0
M  V30 4707 O 442.96 -0.474987 1.74967 0
M  V30 4708 C 443.008 3.02832 1.95768 0
M  V30 4709 O 442.112 2.78051 3.04568 0
M  V30 4710 H 441.453 0.595896 0.292923 0
M  V30 4711 H 443.983 2.02397 0.299436 0
M  V30 4712 H 443.993 3.31616 2.37686 0
M  V30 4713 H 442.668 3.9183 1.39434 0
M  V30 4714 H 441.245 2.60369 2.66951 0
M  V30 4715 N 443.43 -0.535701 1.48216 0
M  V30 4716 C 444.677 -1.29183 1.55942 0
M  V30 4717 C 445.005 -1.93125 0.230857 0
M  V30 4718 O 444.26 -1.79556 -0.778331 0
M  V30 4719 C 444.559 -2.4068 2.64212 0
M  V30 4720 C 444.225 -1.94428 4.06827 0
M  V30 4721 C 442.887 -1.81532 4.45645 0
M  V30 4722 C 445.239 -1.59405 4.96225 0
M  V30 4723 C 442.567 -1.31939 5.71672 0
M  V30 4724 C 444.919 -1.11276 6.22736 0
M  V30 4725 C 443.583 -0.969924 6.60416 0
M  V30 4726 H 442.853 -0.472715 0.570632 0
M  V30 4727 H 445.5 -0.598437 1.81909 0
M  V30 4728 H 443.805 -3.15666 2.32083 0
M  V30 4729 H 445.502 -2.98822 2.67407 0
M  V30 4730 H 442.092 -2.05415 3.76168 0
M  V30 4731 H 446.276 -1.68231 4.66917 0
M  V30 4732 H 441.532 -1.19562 5.99596 0
M  V30 4733 H 445.706 -0.832453 6.91407 0
M  V30 4734 H 443.333 -0.583436 7.57958 0
M  V30 4735 N 444.908 -1.36708 -0.784132 0
M  V30 4736 C 446.133 -1.34565 -1.5782 0
M  V30 4737 C 446.558 0.0695257 -1.87971 0
M  V30 4738 O 445.916 1.04302 -1.48293 0
M  V30 4739 C 445.964 -2.17952 -2.87279 0
M  V30 4740 O 445.068 -1.57563 -3.81114 0
M  V30 4741 H 444.409 -0.460337 -0.478524 0
M  V30 4742 H 446.939 -1.80064 -0.971495 0
M  V30 4743 H 446.949 -2.30721 -3.365 0
M  V30 4744 H 445.624 -3.20823 -2.64661 0
M  V30 4745 H 444.201 -1.53764 -3.39722 0
M  V30 4746 N 446.386 1.0089 -1.21074 0
M  V30 4747 C 447.663 1.71834 -0.934469 0
M  V30 4748 C 448.043 2.0368 0.554753 0
M  V30 4749 O 447.391 1.70742 1.51854 0
M  V30 4750 C 447.601 2.98061 -1.8155 0
M  V30 4751 C 448.949 3.7117 -2.06199 0
M  V30 4752 O 449.973 3.08034 -1.78867 0
M  V30 4753 O 448.832 4.84721 -2.52404 0
M  V30 4754 H 445.926 0.749253 -0.35007 0
M  V30 4755 H 448.472 1.06668 -1.31985 0
M  V30 4756 H 447.244 2.70908 -2.82355 0
M  V30 4757 H 446.867 3.70968 -1.43068 0
M  V30 4758 N 447.864 1.01787 1.20321 0
M  V30 4759 C 448.811 0.589197 2.23153 0
M  V30 4760 C 449.781 -0.391367 1.61423 0
M  V30 4761 O 450.966 -0.290518 1.88575 0
M  V30 4762 C 448.106 -0.0650747 3.45039 0
M  V30 4763 C 447.219 0.960207 4.21194 0
M  V30 4764 C 446.354 0.276854 5.30478 0
M  V30 4765 C 445.393 1.2888 5.98378 0
M  V30 4766 N 444.53 0.632031 6.99249 0
M  V30 4767 H 449.37 1.47071 2.59179 0
M  V30 4768 H 446.907 0.736192 1.27352 0
M  V30 4769 H 448.865 -0.461552 4.14639 0
M  V30 4770 H 447.495 -0.910233 3.09701 0
M  V30 4771 H 446.547 1.47484 3.50646 0
M  V30 4772 H 447.859 1.72977 4.67847 0
M  V30 4773 H 447.013 -0.175056 6.06447 0
M  V30 4774 H 445.752 -0.525004 4.84866 0
M  V30 4775 H 444.757 1.75109 5.21169 0
M  V30 4776 H 445.982 2.09196 6.46076 0
M  V30 4777 H 443.928 -0.149935 6.55829 0
M  V30 4778 H 443.845 1.33964 7.44036 0
M  V30 4779 H 445.113 0.203755 7.79234 0
M  V30 4780 N 449.342 -1.36122 0.79427 0
M  V30 4781 C 450.252 -2.33769 0.197296 0
M  V30 4782 C 451.268 -1.61276 -0.653153 0
M  V30 4783 O 452.444 -1.9323 -0.5678 0
M  V30 4784 C 449.509 -3.40474 -0.654098 0
M  V30 4785 C 448.57 -4.28759 0.215411 0
M  V30 4786 C 447.803 -5.30368 -0.595443 0
M  V30 4787 O 448.026 -5.40211 -1.83107 0
M  V30 4788 O 446.96 -6.019 0.00721351 0
M  V30 4789 H 450.786 -2.86597 1.00478 0
M  V30 4790 H 448.371 -1.38676 0.555818 0
M  V30 4791 H 450.253 -4.05703 -1.13944 0
M  V30 4792 H 448.928 -2.89937 -1.43938 0
M  V30 4793 H 447.835 -3.66554 0.747615 0
M  V30 4794 H 449.168 -4.82661 0.964332 0
M  V30 4795 N 450.82 -0.546701 -1.47814 0
M  V30 4796 C 452.068 -0.0187037 -2.02091 0
M  V30 4797 C 452.389 1.33168 -1.42447 0
M  V30 4798 O 451.659 1.86619 -0.595839 0
M  V30 4799 H 450.239 -0.00392531 -0.74699 0
M  V30 4800 H 452.901 -0.714327 -1.81338 0
M  V30 4801 H 451.997 0.0772219 -3.12004 0
M  V30 4802 N 452.299 1.55045 -0.282633 0
M  V30 4803 C 453.524 2.04628 0.337977 0
M  V30 4804 C 453.949 1.15937 1.48123 0
M  V30 4805 O 453.307 0.159532 1.80597 0
M  V30 4806 C 453.355 3.51854 0.78936 0
M  V30 4807 O 452.459 3.66236 1.89592 0
M  V30 4808 H 451.8 0.660434 0.0687261 0
M  V30 4809 H 454.33 2.00261 -0.419124 0
M  V30 4810 H 454.34 3.93361 1.08311 0
M  V30 4811 H 453.015 4.15873 -0.0470419 0
M  V30 4812 H 451.592 3.36633 1.60413 0
M  V30 4813 N 453.777 0.010035 1.57597 0
M  V30 4814 C 455.002 -0.687021 1.95691 0
M  V30 4815 C 455.427 -1.65952 0.885519 0
M  V30 4816 O 454.785 -1.80633 -0.15543 0
M  V30 4817 C 454.833 -1.3864 3.32884 0
M  V30 4818 O 453.937 -2.50115 3.27897 0
M  V30 4819 H 453.278 -0.181989 0.638573 0
M  V30 4820 H 455.808 0.0662122 2.04493 0
M  V30 4821 H 455.818 -1.74754 3.6868 0
M  V30 4822 H 454.493 -0.673411 4.10412 0
M  V30 4823 H 453.07 -2.16253 3.03791 0
M  V30 4824 N 455.255 -1.55392 -0.262866 0
M  V30 4825 C 456.671 -1.47459 -0.610582 0
M  V30 4826 C 456.871 -0.697031 -1.8906 0
M  V30 4827 O 455.927 -0.219952 -2.5154 0
M  V30 4828 C 457.24 -2.91751 -0.728131 0
M  V30 4829 C 458.788 -3.02027 -0.821517 0
M  V30 4830 C 459.263 -4.47594 -0.97076 0
M  V30 4831 N 460.754 -4.51465 -1.03603 0
M  V30 4832 C 461.489 -5.61326 -1.17049 0
M  V30 4833 N 460.985 -6.81032 -1.2715 0
M  V30 4834 N 462.778 -5.49089 -1.20239 0
M  V30 4835 H 454.929 -2.04395 0.577632 0
M  V30 4836 H 457.192 -0.927287 0.197086 0
M  V30 4837 H 456.898 -3.51413 0.142132 0
M  V30 4838 H 456.772 -3.4134 -1.6052 0
M  V30 4839 H 459.159 -2.42456 -1.68224 0
M  V30 4840 H 459.24 -2.55674 0.0803688 0
M  V30 4841 H 458.884 -5.07771 -0.114655 0
M  V30 4842 H 458.814 -4.91613 -1.88745 0
M  V30 4843 H 461.305 -3.6524 -0.96996 0
M  V30 4844 H 461.618 -7.60511 -1.37271 0
M  V30 4845 H 459.963 -6.83824 -1.24136 0
M  V30 4846 H 463.154 -4.54507 -1.11985 0
M  V30 4847 H 463.327 -6.34749 -1.30373 0
M  V30 4848 N 456.733 0.527833 -1.48498 0
M  V30 4849 C 457.973 1.29401 -1.58224 0
M  V30 4850 C 458.337 1.90348 -0.251327 0
M  V30 4851 O 459.538 2.67868 -0.223588 0
M  V30 4852 C 457.809 2.35266 -2.69044 0
M  V30 4853 S 459.368 3.2158 -2.98549 0
M  V30 4854 H 456.186 0.440138 -0.558391 0
M  V30 4855 H 458.788 0.601079 -1.8603 0
M  V30 4856 H 457.492 1.88975 -3.64303 0
M  V30 4857 H 457.023 3.09263 -2.43146 0
M  V30 4858 H 459.038 4.35391 -2.38011 0
M  V30 4859 N 458.211 1.37122 0.776871 0
M  V30 4860 C 459.121 1.34651 1.9211 0
M  V30 4861 C 460.137 0.246824 1.7224 0
M  V30 4862 O 461.313 0.48134 1.95563 0
M  V30 4863 C 458.378 1.14748 3.2716 0
M  V30 4864 C 457.439 2.34308 3.5972 0
M  V30 4865 C 456.672 2.15345 4.88326 0
M  V30 4866 O 456.895 1.13507 5.58992 0
M  V30 4867 O 455.829 3.03414 5.1983 0
M  V30 4868 H 459.655 2.31013 1.97146 0
M  V30 4869 H 457.24 1.17799 0.918901 0
M  V30 4870 H 459.122 1.05616 4.0795 0
M  V30 4871 H 457.797 0.214562 3.22988 0
M  V30 4872 H 456.704 2.49011 2.79185 0
M  V30 4873 H 458.037 3.26149 3.68629 0
M  V30 4874 N 459.689 -1.00246 1.21608 0
M  V30 4875 C 460.929 -1.75589 1.04631 0
M  V30 4876 C 461.293 -1.87513 -0.412648 0
M  V30 4877 O 462.494 -2.59444 -0.703003 0
M  V30 4878 C 460.765 -3.12893 1.72722 0
M  V30 4879 S 462.324 -4.04095 1.71034 0
M  V30 4880 H 459.142 -0.604133 0.374892 0
M  V30 4881 H 461.744 -1.19927 1.54395 0
M  V30 4882 H 460.448 -3.0185 2.78055 0
M  V30 4883 H 459.979 -3.73628 1.23149 0
M  V30 4884 H 461.994 -4.9045 0.753231 0
M  V30 4885 N 461.167 -1.02423 -1.1978 0
M  V30 4886 C 462.077 -0.610919 -2.26506 0
M  V30 4887 C 463.093 0.355152 -1.70337 0
M  V30 4888 O 464.269 0.214195 -2.00258 0
M  V30 4889 C 461.334 0.0365921 -3.46681 0
M  V30 4890 C 460.395 -0.976389 -4.18049 0
M  V30 4891 C 459.628 -0.359683 -5.32487 0
M  V30 4892 O 459.851 0.838601 -5.64202 0
M  V30 4893 O 458.785 -1.08022 -5.92127 0
M  V30 4894 H 462.611 -1.49965 -2.64091 0
M  V30 4895 H 460.196 -0.794156 -1.26545 0
M  V30 4896 H 462.078 0.39786 -4.19518 0
M  V30 4897 H 460.753 0.899398 -3.10954 0
M  V30 4898 H 459.66 -1.38916 -3.47352 0
M  V30 4899 H 460.993 -1.80941 -4.57735 0
M  V30 4900 N 462.645 1.35699 -0.801477 0
M  V30 4901 C 463.922 1.9324 -0.302937 0
M  V30 4902 C 464.302 1.73209 1.20672 0
M  V30 4903 O 463.65 1.09809 2.00385 0
M  V30 4904 C 463.86 3.41728 -0.708747 0
M  V30 4905 C 465.208 4.18868 -0.695328 0
M  V30 4906 O 466.232 3.5022 -0.649971 0
M  V30 4907 O 465.091 5.41342 -0.749081 0
M  V30 4908 H 462.185 0.82331 -0.0780367 0
M  V30 4909 H 464.731 1.44806 -0.884832 0
M  V30 4910 H 463.503 3.50015 -1.74944 0
M  V30 4911 H 463.126 3.97471 -0.101384 0
M  V30 4912 N 464.123 0.554532 1.47522 0
M  V30 4913 C 465.371 0.0294208 2.02079 0
M  V30 4914 C 465.692 -1.32411 1.43151 0
M  V30 4915 O 464.962 -1.863 0.605728 0
M  V30 4916 H 463.542 0.00788672 0.746958 0
M  V30 4917 H 466.204 0.723934 1.80956 0
M  V30 4918 H 465.3 -0.0606745 3.12041 0
M  V30 4919 N 465.601 -1.54893 0.290851 0
M  V30 4920 C 466.831 -2.04047 -0.323818 0
M  V30 4921 C 467.239 -1.16809 -1.48837 0
M  V30 4922 O 466.582 -0.184145 -1.82775 0
M  V30 4923 C 466.644 -3.49248 -0.852395 0
M  V30 4924 C 466.308 -4.56623 0.185557 0
M  V30 4925 C 467.305 -5.09985 1.01053 0
M  V30 4926 C 464.99 -5.01252 0.324332 0
M  V30 4927 C 466.984 -6.06507 1.96031 0
M  V30 4928 C 464.671 -5.97596 1.27757 0
M  V30 4929 C 465.669 -6.50107 2.09405 0
M  V30 4930 O 465.357 -7.44565 3.03114 0
M  V30 4931 H 465.089 -0.671735 -0.0758129 0
M  V30 4932 H 467.643 -2.00947 0.425393 0
M  V30 4933 H 465.873 -3.49639 -1.65195 0
M  V30 4934 H 467.562 -3.81654 -1.38185 0
M  V30 4935 H 468.328 -4.76307 0.914129 0
M  V30 4936 H 464.207 -4.60015 -0.301213 0
M  V30 4937 H 467.751 -6.47418 2.598 0
M  V30 4938 H 463.648 -6.30691 1.37473 0
M  V30 4939 H 464.416 -7.62334 2.97976 0
M  V30 4940 N 467.08 -0.0183926 -1.57589 0
M  V30 4941 C 468.31 0.67207 -1.95363 0
M  V30 4942 C 468.718 1.66807 -0.892872 0
M  V30 4943 O 468.061 1.83204 0.134958 0
M  V30 4944 C 468.123 1.44397 -3.29226 0
M  V30 4945 C 467.787 0.607511 -4.52944 0
M  V30 4946 C 468.784 -0.112657 -5.19778 0
M  V30 4947 C 466.469 0.548068 -4.99301 0
M  V30 4948 C 468.463 -0.881057 -6.31281 0
M  V30 4949 C 466.15 -0.224044 -6.10689 0
M  V30 4950 C 467.148 -0.937323 -6.76538 0
M  V30 4951 O 466.836 -1.6968 -7.85789 0
M  V30 4952 H 466.568 0.190925 -0.648478 0
M  V30 4953 H 469.122 -0.0711994 -2.05277 0
M  V30 4954 H 467.352 2.23214 -3.15773 0
M  V30 4955 H 469.041 2.02152 -3.51979 0
M  V30 4956 H 469.807 -0.0759998 -4.8494 0
M  V30 4957 H 465.686 1.09281 -4.4786 0
M  V30 4958 H 469.23 -1.43832 -6.82611 0
M  V30 4959 H 465.127 -0.262457 -6.44966 0
M  V30 4960 H 465.895 -1.61544 -8.024 0
M  V30 4961 N 468.558 1.5553 0.254621 0
M  V30 4962 C 469.974 1.4778 0.602753 0
M  V30 4963 C 470.174 0.707047 1.88688 0
M  V30 4964 O 469.23 0.233288 2.5142 0
M  V30 4965 C 470.543 2.92133 0.712648 0
M  V30 4966 C 472.091 3.02458 0.805488 0
M  V30 4967 C 472.566 4.48102 0.947009 0
M  V30 4968 N 474.057 4.52008 1.01207 0
M  V30 4969 C 474.792 5.61939 1.1407 0
M  V30 4970 N 474.288 6.81697 1.23536 0
M  V30 4971 N 476.081 5.49719 1.17325 0
M  V30 4972 H 468.232 2.04085 -0.588463 0
M  V30 4973 H 470.495 0.926229 -0.202001 0
M  V30 4974 H 470.201 3.51332 -0.160766 0
M  V30 4975 H 470.075 3.42187 1.58707 0
M  V30 4976 H 472.462 2.43344 1.66936 0
M  V30 4977 H 472.543 2.55627 -0.0939266 0
M  V30 4978 H 472.187 5.07824 0.087725 0
M  V30 4979 H 472.117 4.92607 1.86135 0
M  V30 4980 H 474.608 3.65749 0.950577 0
M  V30 4981 H 474.921 7.61228 1.33236 0
M  V30 4982 H 473.266 6.84473 1.20508 0
M  V30 4983 H 476.457 4.55095 1.09573 0
M  V30 4984 H 476.63 6.35432 1.27005 0
M  V30 4985 N 470.036 -0.519951 1.48776 0
M  V30 4986 C 470.999 -1.60574 1.6355 0
M  V30 4987 C 471.999 -1.52557 0.508234 0
M  V30 4988 O 473.189 -1.56047 0.774262 0
M  V30 4989 C 470.321 -3.00211 1.61512 0
M  V30 4990 H 471.514 -1.4881 2.60376 0
M  V30 4991 H 469.067 -0.742772 1.37523 0
M  V30 4992 H 469.802 -3.17471 0.662009 0
M  V30 4993 H 469.587 -3.07439 2.43359 0
M  V30 4994 H 471.077 -3.79134 1.75064 0
M  V30 4995 N 471.514 -1.37532 -0.769588 0
M  V30 4996 C 472.925 -1.29382 -1.346 0
M  V30 4997 C 473.276 0.0576039 -1.96115 0
M  V30 4998 O 472.401 0.95947 -1.93967 0
M  V30 4999 C 472.996 -2.34298 -2.44724 0
M  V30 5000 C 471.555 -2.29776 -2.98128 0
M  V30 5001 C 470.702 -2.18013 -1.71364 0
M  V30 5002 H 473.653 -1.48123 -0.56968 0
M  V30 5003 H 473.674 -1.99089 -3.24259 0
M  V30 5004 H 473.186 -3.32645 -1.99922 0
M  V30 5005 H 471.287 -1.34959 -3.47299 0
M  V30 5006 H 471.4 -3.23276 -3.53595 0
M  V30 5007 H 469.764 -1.64595 -1.94372 0
M  V30 5008 H 470.547 -3.18278 -1.28662 0
M  V30 5009 N 472.992 0.995999 -1.22138 0
M  V30 5010 C 474.217 1.77601 -1.0711 0
M  V30 5011 C 474.642 1.84339 0.374264 0
M  V30 5012 O 474 1.29359 1.27028 0
M  V30 5013 C 474.048 3.18897 -1.68336 0
M  V30 5014 O 473.152 4.01663 -0.934928 0
M  V30 5015 H 472.493 0.547011 -0.376397 0
M  V30 5016 H 475.023 1.25137 -1.6187 0
M  V30 5017 H 475.033 3.69539 -1.72931 0
M  V30 5018 H 473.708 3.13308 -2.73516 0
M  V30 5019 H 472.285 3.60204 -0.964751 0
M  V30 5020 N 474.47 1.03057 1.19235 0
M  V30 5021 C 475.747 0.642608 1.84743 0
M  V30 5022 C 476.127 -0.878577 1.91948 0
M  V30 5023 O 475.475 -1.77597 1.43776 0
M  V30 5024 C 475.685 1.30665 3.23616 0
M  V30 5025 C 477.033 1.43098 3.9976 0
M  V30 5026 O 478.057 1.26396 3.3302 0
M  V30 5027 O 476.916 1.70223 5.19313 0
M  V30 5028 H 474.01 0.223573 0.796206 0
M  V30 5029 H 476.556 1.12883 1.26711 0
M  V30 5030 H 475.328 2.34544 3.13217 0
M  V30 5031 H 474.951 0.808405 3.89295 0
M  V30 5032 N 475.948 -1.35272 0.808662 0
M  V30 5033 C 477.359 -1.81179 0.450688 0
M  V30 5034 C 477.71 -1.67143 -1.02751 0
M  V30 5035 O 476.835 -1.20325 -1.79864 0
M  V30 5036 C 477.43 -3.28943 0.811275 0
M  V30 5037 C 475.989 -3.72985 0.505871 0
M  V30 5038 C 475.136 -2.57229 1.03578 0
M  V30 5039 H 478.087 -1.2322 1.00012 0
M  V30 5040 H 478.108 -3.80342 0.109588 0
M  V30 5041 H 477.62 -3.39127 1.88718 0
M  V30 5042 H 475.721 -3.68349 -0.561209 0
M  V30 5043 H 475.834 -4.67677 1.03995 0
M  V30 5044 H 474.198 -2.50548 0.458005 0
M  V30 5045 H 474.981 -2.7019 2.11784 0
M  V30 5046 N 477.426 -0.562348 -1.47226 0
M  V30 5047 C 478.837 -0.130325 -1.86245 0
M  V30 5048 C 479.188 1.30128 -1.46838 0
M  V30 5049 O 478.313 1.97974 -0.873805 0
M  V30 5050 C 478.908 -0.229738 -3.3802 0
M  V30 5051 C 477.467 0.14728 -3.76112 0
M  V30 5052 C 476.614 -0.574971 -2.71274 0
M  V30 5053 H 479.565 -0.771773 -1.3867 0
M  V30 5054 H 479.586 0.550316 -3.76499 0
M  V30 5055 H 479.098 -1.27178 -3.66671 0
M  V30 5056 H 477.199 1.19023 -3.53078 0
M  V30 5057 H 477.312 -0.214858 -4.78618 0
M  V30 5058 H 475.676 -0.0174756 -2.54694 0
M  V30 5059 H 476.459 -1.61827 -3.02766 0
M  V30 5060 N 478.904 1.54736 -0.299062 0
M  V30 5061 C 480.134 2.04215 0.312992 0
M  V30 5062 C 480.542 1.17596 1.48215 0
M  V30 5063 O 479.885 0.193835 1.82674 0
M  V30 5064 C 479.947 3.49696 0.833862 0
M  V30 5065 C 479.611 4.56518 -0.20977 0
M  V30 5066 C 480.608 5.09442 -1.03756 0
M  V30 5067 C 478.293 5.01073 -0.35091 0
M  V30 5068 C 480.287 6.05459 -1.99244 0
M  V30 5069 C 477.974 5.9691 -1.30924 0
M  V30 5070 C 478.972 6.48987 -2.1285 0
M  V30 5071 O 478.66 7.42947 -3.07059 0
M  V30 5072 H 478.392 0.672128 0.0722494 0
M  V30 5073 H 480.946 2.00718 -0.436043 0
M  V30 5074 H 479.176 3.5051 1.63339 0
M  V30 5075 H 480.865 3.82381 1.36159 0
M  V30 5076 H 481.631 4.75816 -0.939376 0
M  V30 5077 H 477.51 4.60168 0.276813 0
M  V30 5078 H 481.054 6.46031 -2.63229 0
M  V30 5079 H 476.951 6.29953 -1.40815 0
M  V30 5080 H 477.719 7.60743 -3.02015 0
M  V30 5081 N 480.382 0.0267497 1.57577 0
M  V30 5082 C 481.628 -0.653371 1.91987 0
M  V30 5083 C 481.961 -1.71915 0.903263 0
M  V30 5084 O 481.236 -1.94358 -0.0743387 0
M  V30 5085 C 481.519 -1.272 3.36886 0
M  V30 5086 C 481.372 -0.215938 4.49281 0
M  V30 5087 C 482.691 -2.19069 3.81703 0
M  V30 5088 H 479.81 -0.236047 0.698177 0
M  V30 5089 H 482.452 0.0835236 1.89816 0
M  V30 5090 H 480.602 -1.90005 3.38866 0
M  V30 5091 H 482.274 0.41449 4.59434 0
M  V30 5092 H 480.517 0.458855 4.31366 0
M  V30 5093 H 481.188 -0.688347 5.47691 0
M  V30 5094 H 483.664 -1.66253 3.81444 0
M  V30 5095 H 482.54 -2.59307 4.83788 0
M  V30 5096 H 482.801 -3.08087 3.17072 0
M  V30 5097 N 481.861 -1.55662 -0.24637 0
M  V30 5098 C 482.824 -1.89558 -1.28842 0
M  V30 5099 C 483.824 -0.772082 -1.41052 0
M  V30 5100 O 485.014 -1.04007 -1.39743 0
M  V30 5101 C 482.146 -2.12449 -2.66605 0
M  V30 5102 H 483.339 -2.82735 -1.00004 0
M  V30 5103 H 480.892 -1.48562 -0.485684 0
M  V30 5104 H 481.627 -1.21742 -3.00582 0
M  V30 5105 H 481.412 -2.94273 -2.59125 0
M  V30 5106 H 482.902 -2.39854 -3.41847 0
M  V30 5107 N 483.339 0.512053 -1.4905 0
M  V30 5108 C 484.579 1.27715 -1.59588 0
M  V30 5109 C 484.943 1.90071 -0.271502 0
M  V30 5110 O 486.144 2.67616 -0.251987 0
M  V30 5111 C 484.415 2.32399 -2.71524 0
M  V30 5112 S 485.974 3.18396 -3.01943 0
M  V30 5113 H 482.792 0.43419 -0.563027 0
M  V30 5114 H 485.394 0.581315 -1.86657 0
M  V30 5115 H 484.098 1.85101 -3.66287 0
M  V30 5116 H 483.629 3.06667 -2.46412 0
M  V30 5117 H 485.644 4.32842 -2.42616 0
M  V30 5118 N 484.817 1.37938 0.762283 0
M  V30 5119 C 486.045 1.36883 1.55147 0
M  V30 5120 C 486.46 -0.0435348 1.8875 0
M  V30 5121 O 485.817 -1.00786 1.52146 0
M  V30 5122 C 485.868 2.21624 2.85596 0
M  V30 5123 O 485.589 3.57358 2.5343 0
M  V30 5124 C 487.09 2.28653 3.7978 0
M  V30 5125 H 484.31 0.468521 0.480343 0
M  V30 5126 H 486.854 1.81404 0.944079 0
M  V30 5127 H 485.009 1.80588 3.42734 0
M  V30 5128 H 485.423 4.01883 3.37032 0
M  V30 5129 H 486.897 2.9225 4.68288 0
M  V30 5130 H 487.374 1.29767 4.19592 0
M  V30 5131 H 487.98 2.70043 3.28568 0
M  V30 5132 N 486.295 -0.989507 1.22664 0
M  V30 5133 C 487.711 -1.25395 0.987331 0
M  V30 5134 C 487.911 -1.9899 -0.317056 0
M  V30 5135 O 486.967 -2.30141 -1.03882 0
M  V30 5136 C 488.28 -2.06242 2.18826 0
M  V30 5137 C 489.828 -2.19413 2.23219 0
M  V30 5138 C 490.303 -3.03648 3.42873 0
M  V30 5139 N 491.794 -3.11234 3.43056 0
M  V30 5140 C 492.529 -3.7671 4.32293 0
M  V30 5141 N 492.025 -4.44085 5.31752 0
M  V30 5142 N 493.818 -3.73505 4.2006 0
M  V30 5143 H 485.969 -0.496212 2.06522 0
M  V30 5144 H 488.232 -0.281784 0.905153 0
M  V30 5145 H 487.938 -1.59531 3.13437 0
M  V30 5146 H 487.812 -3.06996 2.19165 0
M  V30 5147 H 490.199 -2.65336 1.29154 0
M  V30 5148 H 490.28 -1.18078 2.26917 0
M  V30 5149 H 489.924 -2.58424 4.37241 0
M  V30 5150 H 489.854 -4.05132 3.36416 0
M  V30 5151 H 492.345 -2.63287 2.71088 0
M  V30 5152 H 492.658 -4.91797 5.96117 0
M  V30 5153 H 491.003 -4.42822 5.35662 0
M  V30 5154 H 494.194 -3.20033 3.41609 0
M  V30 5155 H 494.367 -4.24253 4.8981 0
M  V30 5156 N 487.773 -1.03688 -1.18687 0
M  V30 5157 C 489.184 -0.766488 -1.70241 0
M  V30 5158 C 489.535 0.713052 -1.82784 0
M  V30 5159 O 488.66 1.55529 -1.50465 0
M  V30 5160 C 489.255 -1.38475 -3.09209 0
M  V30 5161 C 487.814 -1.16276 -3.5799 0
M  V30 5162 C 486.961 -1.4778 -2.34641 0
M  V30 5163 H 489.912 -1.20378 -1.03415 0
M  V30 5164 H 489.933 -0.785939 -3.72295 0
M  V30 5165 H 489.445 -2.46157 -3.00048 0
M  V30 5166 H 487.546 -0.104508 -3.72453 0
M  V30 5167 H 487.659 -1.8571 -4.41643 0
M  V30 5168 H 486.023 -0.897366 -2.38368 0
M  V30 5169 H 486.806 -2.56562 -2.28102 0
M  V30 5170 N 489.251 1.34841 -0.815825 0
M  V30 5171 C 490.662 1.80937 -0.46029 0
M  V30 5172 C 491.013 1.67685 1.01863 0
M  V30 5173 O 490.138 1.21277 1.79223 0
M  V30 5174 C 490.733 3.28509 -0.828708 0
M  V30 5175 C 489.292 3.72712 -0.525644 0
M  V30 5176 C 488.439 2.56676 -1.04941 0
M  V30 5177 H 491.39 1.22688 -1.00664 0
M  V30 5178 H 491.411 3.80279 -0.129757 0
M  V30 5179 H 490.923 3.38122 -1.90513 0
M  V30 5180 H 489.024 3.68642 0.541666 0
M  V30 5181 H 489.137 4.67119 -1.06474 0
M  V30 5182 H 487.501 2.50302 -0.471286 0
M  V30 5183 H 488.284 2.69063 -2.13214 0
M  V30 5184 N 490.729 0.570148 1.46925 0
M  V30 5185 C 491.954 0.0542592 2.07329 0
M  V30 5186 C 492.379 -1.23582 1.41806 0
M  V30 5187 O 491.737 -1.74341 0.497479 0
M  V30 5188 C 491.785 -0.111175 3.60429 0
M  V30 5189 O 490.889 -1.17071 3.95434 0
M  V30 5190 H 490.23 0.0571425 0.661537 0
M  V30 5191 H 492.76 0.789516 1.88753 0
M  V30 5192 H 492.77 -0.321315 4.06733 0
M  V30 5193 H 491.445 0.831012 4.07513 0
M  V30 5194 H 490.022 -0.940029 3.60857 0
M  V30 5195 N 492.207 -1.54576 0.307264 0
M  V30 5196 C 493.17 -2.22423 -0.553224 0
M  V30 5197 C 494.17 -1.21231 -1.05639 0
M  V30 5198 O 495.36 -1.45923 -0.951419 0
M  V30 5199 C 492.492 -2.91552 -1.76664 0
M  V30 5200 H 493.685 -2.99874 0.0396484 0
M  V30 5201 H 491.238 -1.56192 0.0581629 0
M  V30 5202 H 491.973 -2.18196 -2.39918 0
M  V30 5203 H 491.758 -3.65738 -1.41343 0
M  V30 5204 H 493.248 -3.43292 -2.37783 0
M  V30 5205 N 493.685 -0.035106 -1.57561 0
M  V30 5206 C 495.096 0.502885 -1.798 0
M  V30 5207 C 495.447 1.71892 -0.945921 0
M  V30 5208 O 494.572 2.15822 -0.157991 0
M  V30 5209 C 495.167 0.919097 -3.26095 0
M  V30 5210 C 493.726 1.40216 -3.49308 0
M  V30 5211 C 492.873 0.369709 -2.74824 0
M  V30 5212 H 495.824 -0.261102 -1.56537 0
M  V30 5213 H 495.845 1.78308 -3.36135 0
M  V30 5214 H 495.357 0.0338526 -3.88085 0
M  V30 5215 H 493.458 2.30714 -2.92578 0
M  V30 5216 H 493.571 1.40541 -4.58023 0
M  V30 5217 H 491.935 0.839113 -2.40481 0
M  V30 5218 H 492.718 -0.507173 -3.39533 0
M  V30 5219 N 495.163 1.55791 0.238111 0
M  V30 5220 C 496.095 1.87513 1.31802 0
M  V30 5221 C 497.108 0.762053 1.43863 0
M  V30 5222 O 498.297 1.04024 1.45056 0
M  V30 5223 C 495.397 2.05402 2.69561 0
M  V30 5224 C 494.57 3.3632 2.79656 0
M  V30 5225 C 493.629 3.43844 3.98319 0
M  V30 5226 O 492.655 4.16994 3.87433 0
M  V30 5227 N 493.857 2.73777 5.11885 0
M  V30 5228 H 496.622 2.80734 1.04922 0
M  V30 5229 H 494.183 1.56135 0.428196 0
M  V30 5230 H 496.175 2.07769 3.47296 0
M  V30 5231 H 494.745 1.18884 2.89111 0
M  V30 5232 H 493.965 3.46195 1.88528 0
M  V30 5233 H 495.253 4.22594 2.83358 0
M  V30 5234 H 494.651 2.14094 5.23622 0
M  V30 5235 H 493.208 2.81825 5.87723 0
M  V30 5236 N 496.642 -0.504142 1.49319 0
M  V30 5237 C 497.59 -1.62689 1.66238 0
M  V30 5238 C 498.584 -1.6095 0.528349 0
M  V30 5239 O 499.79 -1.65496 0.707887 0
M  V30 5240 H 496.165 -0.539247 0.524134 0
M  V30 5241 H 498.136 -1.45571 2.60484 0
M  V30 5242 C 496.885 -3.00841 1.74328 0
M  V30 5243 H 496.208 -3.02884 2.60963 0
M  V30 5244 H 497.648 -3.78945 1.90202 0
M  V30 5245 C 496.107 -3.33355 0.487416 0
M  V30 5246 O 496.637 -3.99819 -0.388294 0
M  V30 5247 N 494.843 -2.88469 0.351306 0
M  V30 5248 H 494.39 -2.34557 1.06492 0
M  V30 5249 H 494.348 -3.10591 -0.487899 0
M  V30 5250 N 498.12 -1.38341 -0.754957 0
M  V30 5251 C 499.05 -1.38176 -1.88227 0
M  V30 5252 C 500.031 -0.247873 -1.68284 0
M  V30 5253 O 501.216 -0.45075 -1.88896 0
M  V30 5254 C 498.346 -1.20471 -3.25736 0
M  V30 5255 C 497.3 -2.3105 -3.60278 0
M  V30 5256 C 496.626 -1.98452 -4.96509 0
M  V30 5257 C 497.926 -3.73305 -3.65295 0
M  V30 5258 H 499.62 -2.32512 -1.88622 0
M  V30 5259 H 497.166 -1.1192 -0.906082 0
M  V30 5260 H 499.119 -1.18982 -4.04254 0
M  V30 5261 H 497.843 -0.225965 -3.25817 0
M  V30 5262 H 496.502 -2.31723 -2.84078 0
M  V30 5263 H 496.15 -0.990641 -4.93148 0
M  V30 5264 H 495.85 -2.7251 -5.20588 0
M  V30 5265 H 497.374 -1.98578 -5.77407 0
M  V30 5266 H 498.788 -3.7467 -4.3393 0
M  V30 5267 H 497.185 -4.46557 -4.00883 0
M  V30 5268 H 498.255 -4.05719 -2.65556 0
M  V30 5269 N 499.598 0.982988 -1.23187 0
M  V30 5270 C 500.847 1.71817 -1.05649 0
M  V30 5271 C 501.16 1.91315 0.407176 0
M  V30 5272 O 502.366 2.62256 0.702436 0
M  V30 5273 C 500.822 3.09188 -1.84203 0
M  V30 5274 C 500.43 2.97586 -3.34882 0
M  V30 5275 C 502.174 3.86684 -1.75146 0
M  V30 5276 C 500.081 4.30173 -4.05839 0
M  V30 5277 H 499.011 0.644258 -0.391724 0
M  V30 5278 H 501.662 1.09659 -1.4713 0
M  V30 5279 H 500.044 3.72087 -1.35527 0
M  V30 5280 H 501.218 2.43793 -3.91026 0
M  V30 5281 H 499.533 2.33567 -3.44725 0
M  V30 5282 H 502.13 4.84836 -2.25473 0
M  V30 5283 H 502.473 4.10136 -0.713737 0
M  V30 5284 H 503.006 3.30482 -2.21419 0
M  V30 5285 H 499.745 4.11918 -5.09906 0
M  V30 5286 H 499.265 4.83841 -3.54482 0
M  V30 5287 H 500.944 4.98873 -4.11989 0
M  V30 5288 N 501.076 1.04316 1.18135 0
M  V30 5289 C 502.323 0.74802 1.88178 0
M  V30 5290 C 502.651 -0.72441 1.80506 0
M  V30 5291 O 501.906 -1.54463 1.20165 0
M  V30 5292 C 502.205 1.16271 3.37958 0
M  V30 5293 C 501.871 2.63585 3.65833 0
M  V30 5294 C 500.533 3.03829 3.73151 0
M  V30 5295 C 502.885 3.58822 3.78016 0
M  V30 5296 C 500.213 4.38194 3.90132 0
M  V30 5297 C 502.565 4.92909 3.96514 0
M  V30 5298 C 501.229 5.3282 4.02068 0
M  V30 5299 H 500.499 0.27372 0.688592 0
M  V30 5300 H 503.146 1.30863 1.39811 0
M  V30 5301 H 501.451 0.520938 3.88321 0
M  V30 5302 H 503.148 0.911672 3.90499 0
M  V30 5303 H 499.738 2.31414 3.60757 0
M  V30 5304 H 503.922 3.28875 3.71692 0
M  V30 5305 H 499.178 4.68631 3.92677 0
M  V30 5306 H 503.352 5.66606 4.04883 0
M  V30 5307 H 500.979 6.36943 4.14979 0
M  V30 5308 N 502.554 -1.34406 0.822964 0
M  V30 5309 C 503.502 -2.31428 0.233165 0
M  V30 5310 C 504.496 -1.57404 -0.626118 0
M  V30 5311 O 505.702 -1.72402 -0.517453 0
M  V30 5312 H 502.077 -0.749863 0.0566557 0
M  V30 5313 H 504.048 -2.78699 1.06628 0
M  V30 5314 C 502.797 -3.42653 -0.590264 0
M  V30 5315 H 502.12 -3.99753 0.0616129 0
M  V30 5316 H 503.56 -4.12778 -0.969054 0
M  V30 5317 C 502.019 -2.87112 -1.76262 0
M  V30 5318 O 502.549 -2.81995 -2.8608 0
M  V30 5319 N 500.755 -2.43934 -1.57938 0
M  V30 5320 H 500.302 -2.48296 -0.686078 0
M  V30 5321 H 500.26 -2.07123 -2.36532 0
M  V30 5322 N 504.032 -0.577932 -1.46621 0
M  V30 5323 C 505.281 -0.0594281 -2.01612 0
M  V30 5324 C 505.594 1.30663 -1.45556 0
M  V30 5325 O 506.8 1.91621 -1.92337 0
M  V30 5326 C 505.256 -0.0556666 -3.59857 0
M  V30 5327 C 504.864 -1.41975 -4.24908 0
M  V30 5328 C 506.608 0.409143 -4.22524 0
M  V30 5329 C 504.515 -1.37397 -5.75218 0
M  V30 5330 H 503.445 -0.0184469 -0.753774 0
M  V30 5331 H 506.096 -0.728869 -1.68404 0
M  V30 5332 H 504.478 0.679843 -3.90121 0
M  V30 5333 H 505.652 -2.17461 -4.0626 0
M  V30 5334 H 503.967 -1.82419 -3.74316 0
M  V30 5335 H 506.564 0.46211 -5.32699 0
M  V30 5336 H 506.907 1.42565 -3.91128 0
M  V30 5337 H 507.44 -0.272152 -3.96868 0
M  V30 5338 H 504.179 -2.36714 -6.11267 0
M  V30 5339 H 503.699 -0.661239 -5.96144 0
M  V30 5340 H 505.378 -1.08484 -6.3784 0
M  V30 5341 N 505.51 1.54411 -0.315457 0
M  V30 5342 C 506.458 2.25514 0.569771 0
M  V30 5343 C 507.452 1.2663 1.12522 0
M  V30 5344 O 508.658 1.44434 1.07419 0
M  V30 5345 H 505.033 0.724257 0.202376 0
M  V30 5346 H 507.004 2.98354 -0.0522895 0
M  V30 5347 C 505.753 3.02004 1.72305 0
M  V30 5348 H 505.076 3.77906 1.30488 0
M  V30 5349 H 506.516 3.55014 2.31821 0
M  V30 5350 C 504.975 2.09822 2.63583 0
M  V30 5351 O 505.505 1.67574 3.65078 0
M  V30 5352 N 503.711 1.75478 2.31637 0
M  V30 5353 H 503.258 2.10032 1.49145 0
M  V30 5354 H 503.216 1.14079 2.92973 0
M  V30 5355 N 506.988 0.0434614 1.5754 0
M  V30 5356 C 507.92 -0.962586 2.08007 0
M  V30 5357 C 508.933 -1.27972 1.00634 0
M  V30 5358 O 510.122 -1.24186 1.28219 0
M  V30 5359 C 507.222 -2.28621 2.50171 0
M  V30 5360 C 506.395 -2.15214 3.80791 0
M  V30 5361 C 505.454 -3.30633 4.09351 0
M  V30 5362 O 504.48 -3.0688 4.79388 0
M  V30 5363 N 505.682 -4.54873 3.60654 0
M  V30 5364 H 508.447 -0.531891 2.94942 0
M  V30 5365 H 506.008 -0.142965 1.61268 0
M  V30 5366 H 508 -3.04689 2.66359 0
M  V30 5367 H 506.57 -2.63283 1.68525 0
M  V30 5368 H 505.79 -1.23785 3.74261 0
M  V30 5369 H 507.078 -2.03475 4.66343 0
M  V30 5370 H 506.476 -4.77063 3.04019 0
M  V30 5371 H 505.033 -5.2806 3.82094 0
M  V30 5372 N 508.466 -1.55915 -0.229846 0
M  V30 5373 C 509.694 -1.82617 -0.972562 0
M  V30 5374 C 510.109 -0.621488 -1.78278 0
M  V30 5375 O 509.466 0.409956 -1.77836 0
M  V30 5376 C 509.517 -3.0774 -1.89679 0
M  V30 5377 O 509.238 -4.23559 -1.11934 0
M  V30 5378 C 510.739 -3.47368 -2.75409 0
M  V30 5379 H 507.959 -0.60727 -0.285419 0
M  V30 5380 H 510.503 -2.02996 -0.247579 0
M  V30 5381 H 508.658 -2.89361 -2.57583 0
M  V30 5382 H 509.072 -4.94586 -1.74599 0
M  V30 5383 H 510.546 -4.37977 -3.35977 0
M  V30 5384 H 511.023 -2.68737 -3.47386 0
M  V30 5385 H 511.629 -3.68158 -2.12931 0
M  V30 5386 N 509.944 0.496216 -1.49584 0
M  V30 5387 C 511.172 1.27394 -1.63029 0
M  V30 5388 C 511.587 1.86344 -0.303569 0
M  V30 5389 O 510.944 1.68057 0.711547 0
M  V30 5390 C 510.995 2.40077 -2.70269 0
M  V30 5391 O 510.716 1.83549 -3.97796 0
M  V30 5392 C 512.217 3.31372 -2.94462 0
M  V30 5393 H 509.437 0.386211 -0.54871 0
M  V30 5394 H 511.981 0.595163 -1.95648 0
M  V30 5395 H 510.136 3.03775 -2.40415 0
M  V30 5396 H 510.55 2.57561 -4.56905 0
M  V30 5397 H 512.024 4.06707 -3.73221 0
M  V30 5398 H 512.501 3.88654 -2.0456 0
M  V30 5399 H 513.107 2.73435 -3.25751 0
M  V30 5400 N 511.423 1.38739 0.74761 0
M  V30 5401 C 512.669 1.35475 1.50912 0
M  V30 5402 C 513.002 -0.0533093 1.94127 0
M  V30 5403 O 512.277 -1.01572 1.65871 0
M  V30 5404 C 512.56 2.31582 2.75757 0
M  V30 5405 C 512.413 3.81274 2.38642 0
M  V30 5406 C 513.732 2.25722 3.77806 0
M  V30 5407 H 510.851 0.493427 0.547447 0
M  V30 5408 H 513.493 1.69634 0.855823 0
M  V30 5409 H 511.643 2.02582 3.31501 0
M  V30 5410 H 513.315 4.20972 1.88626 0
M  V30 5411 H 511.558 3.98664 1.71025 0
M  V30 5412 H 512.229 4.4399 3.27989 0
M  V30 5413 H 514.705 2.51336 3.31616 0
M  V30 5414 H 513.581 2.95069 4.62845 0
M  V30 5415 H 513.842 1.25803 4.23823 0
M  V30 5416 N 512.901 -0.976442 1.23707 0
M  V30 5417 C 514.126 -1.75875 1.09922 0
M  V30 5418 C 514.551 -1.84911 -0.34489 0
M  V30 5419 O 513.909 -1.31363 -1.24954 0
M  V30 5420 C 513.957 -3.16179 1.73388 0
M  V30 5421 O 513.061 -4.00124 0.99871 0
M  V30 5422 H 512.402 -0.540954 0.385052 0
M  V30 5423 H 514.932 -1.22546 1.6384 0
M  V30 5424 H 514.942 -3.66741 1.78788 0
M  V30 5425 H 513.617 -3.08917 2.78466 0
M  V30 5426 H 512.194 -3.58624 1.02193 0
M  V30 5427 N 514.379 -1.04941 -1.1758 0
M  V30 5428 C 515.309 -0.669172 -2.23706 0
M  V30 5429 C 516.29 0.331835 -1.66832 0
M  V30 5430 O 517.475 0.209988 -1.93061 0
M  V30 5431 C 514.605 -0.0404889 -3.47276 0
M  V30 5432 C 513.559 -0.965983 -4.16957 0
M  V30 5433 C 512.885 -0.201312 -5.34321 0
M  V30 5434 C 514.185 -2.28902 -4.69469 0
M  V30 5435 H 515.879 -1.55639 -2.55767 0
M  V30 5436 H 513.425 -0.749793 -1.22939 0
M  V30 5437 H 515.378 0.237298 -4.20731 0
M  V30 5438 H 514.102 0.881658 -3.14475 0
M  V30 5439 H 512.761 -1.22829 -3.45411 0
M  V30 5440 H 512.409 0.723519 -4.97769 0
M  V30 5441 H 512.109 -0.817968 -5.81879 0
M  V30 5442 H 513.633 0.0692499 -6.10561 0
M  V30 5443 H 515.047 -2.07132 -5.34574 0
M  V30 5444 H 513.444 -2.85942 -5.27596 0
M  V30 5445 H 514.514 -2.92937 -3.86414 0
M  V30 5446 N 515.857 1.33968 -0.830081 0
M  V30 5447 C 516.767 2.33164 -0.259207 0
M  V30 5448 C 517.783 1.62951 0.610164 0
M  V30 5449 O 518.959 1.94668 0.516369 0
M  V30 5450 C 516.024 3.42088 0.563598 0
M  V30 5451 C 515.085 4.28037 -0.329014 0
M  V30 5452 C 514.318 5.3176 0.454616 0
M  V30 5453 O 514.541 5.44876 1.6872 0
M  V30 5454 O 513.475 6.01669 -0.166794 0
M  V30 5455 H 517.301 2.83832 -1.08041 0
M  V30 5456 H 514.886 1.37154 -0.59239 0
M  V30 5457 H 516.768 4.08581 1.03147 0
M  V30 5458 H 515.443 2.93651 1.36201 0
M  V30 5459 H 514.35 3.64443 -0.844538 0
M  V30 5460 H 515.683 4.79934 -1.09196 0
M  V30 5461 N 517.335 0.585699 1.46312 0
M  V30 5462 C 518.581 0.0808731 2.03239 0
M  V30 5463 C 518.936 -1.26609 1.44872 0
M  V30 5464 O 518.229 -1.81779 0.60556 0
M  V30 5465 C 518.423 -0.0401312 3.57377 0
M  V30 5466 C 518.252 1.29356 4.30694 0
M  V30 5467 C 517.022 1.86849 4.69484 0
M  V30 5468 C 519.22 2.21742 4.64042 0
M  V30 5469 N 517.202 3.13926 5.27564 0
M  V30 5470 C 518.573 3.33408 5.22723 0
M  V30 5471 C 520.628 2.21386 4.45974 0
M  V30 5472 C 519.331 4.44852 5.65242 0
M  V30 5473 C 521.357 3.31862 4.89511 0
M  V30 5474 C 520.719 4.42248 5.48266 0
M  V30 5475 H 516.818 0.072443 0.778637 0
M  V30 5476 H 519.402 0.779254 1.78426 0
M  V30 5477 H 517.573 -0.707686 3.81898 0
M  V30 5478 H 519.305 -0.549615 4.00951 0
M  V30 5479 H 516.06 1.40307 4.52339 0
M  V30 5480 H 516.484 3.78775 5.61122 0
M  V30 5481 H 521.126 1.37314 3.99881 0
M  V30 5482 H 518.844 5.29665 6.10312 0
M  V30 5483 H 522.43 3.32708 4.7728 0
M  V30 5484 H 521.31 5.26323 5.81338 0
M  V30 5485 N 518.813 -1.54241 0.323641 0
M  V30 5486 C 520.038 -2.05452 -0.283605 0
M  V30 5487 C 520.463 -1.19823 -1.44997 0
M  V30 5488 O 519.821 -0.207358 -1.8011 0
M  V30 5489 C 519.869 -3.53823 -0.695795 0
M  V30 5490 O 518.973 -3.71134 -1.79815 0
M  V30 5491 H 518.314 -0.662024 -0.0511917 0
M  V30 5492 H 520.844 -1.99079 0.472073 0
M  V30 5493 H 520.854 -3.96094 -0.978434 0
M  V30 5494 H 519.529 -4.15602 0.157287 0
M  V30 5495 H 518.106 -3.40768 -1.51431 0
M  V30 5496 N 520.291 -0.0518155 -1.57515 0
M  V30 5497 C 521.702 0.483787 -1.80323 0
M  V30 5498 C 522.053 1.70879 -0.964099 0
M  V30 5499 O 521.178 2.15643 -0.180872 0
M  V30 5500 C 521.773 0.884459 -3.27052 0
M  V30 5501 C 520.332 1.36504 -3.50776 0
M  V30 5502 C 519.479 0.340539 -2.75201 0
M  V30 5503 H 522.43 -0.277691 -1.56252 0
M  V30 5504 H 522.451 1.74733 -3.38007 0
M  V30 5505 H 521.963 -0.00731093 -3.88099 0
M  V30 5506 H 520.064 2.27598 -2.95009 0
M  V30 5507 H 520.177 1.35675 -4.59488 0
M  V30 5508 H 518.541 0.81356 -2.41357 0
M  V30 5509 H 519.324 -0.543156 -3.38976 0
M  V30 5510 N 521.769 1.56035 0.221574 0
M  V30 5511 C 523.18 1.69229 0.788567 0
M  V30 5512 C 523.531 0.653814 1.84986 0
M  V30 5513 O 522.656 -0.195065 2.15519 0
M  V30 5514 C 523.251 3.06809 1.43713 0
M  V30 5515 C 521.81 3.21858 1.95152 0
M  V30 5516 C 520.957 2.65155 0.811685 0
M  V30 5517 H 523.908 1.587 -0.00307894 0
M  V30 5518 H 523.929 3.02666 2.30594 0
M  V30 5519 H 523.441 3.82369 0.664475 0
M  V30 5520 H 521.542 2.51167 2.7522 0
M  V30 5521 H 521.655 4.29073 2.1315 0
M  V30 5522 H 520.019 2.23635 1.21899 0
M  V30 5523 H 520.802 3.43261 0.0516987 0
M  V30 5524 N 523.247 -0.488276 1.49845 0
M  V30 5525 C 524.21 -1.57069 1.66919 0
M  V30 5526 C 525.21 -1.51445 0.540479 0
M  V30 5527 O 526.4 -1.5437 0.807188 0
M  V30 5528 C 523.532 -2.96718 1.67844 0
M  V30 5529 H 524.725 -1.43254 2.63474 0
M  V30 5530 H 522.278 -0.713435 1.39068 0
M  V30 5531 H 523.013 -3.15996 0.7292 0
M  V30 5532 H 522.798 -3.02208 2.49826 0
M  V30 5533 H 524.288 -3.75335 1.83066 0
M  V30 5534 N 524.725 -1.39134 -0.740242 0
M  V30 5535 C 526.002 -1.26584 -1.49117 0
M  V30 5536 C 526.382 0.126902 -2.10718 0
M  V30 5537 O 525.73 1.13765 -1.98166 0
M  V30 5538 C 525.94 -2.38619 -2.54681 0
M  V30 5539 C 527.288 -2.77685 -3.21211 0
M  V30 5540 O 528.312 -2.38029 -2.64991 0
M  V30 5541 O 527.171 -3.46115 -4.22926 0
M  V30 5542 H 524.265 -0.495769 -0.661923 0
M  V30 5543 H 526.811 -1.50995 -0.774514 0
M  V30 5544 H 525.583 -3.3175 -2.07504 0
M  V30 5545 H 525.206 -2.15845 -3.33911 0
M  V30 5546 N 526.204 0.969867 -1.24223 0
M  V30 5547 C 527.152 2.08535 -1.03034 0
M  V30 5548 C 528.146 1.69366 0.0340379 0
M  V30 5549 O 529.352 1.79597 -0.12034 0
M  V30 5550 H 525.727 0.682313 -0.316154 0
M  V30 5551 H 527.698 2.23569 -1.97635 0
M  V30 5552 C 526.447 3.4158 -0.649509 0
M  V30 5553 H 525.77 3.72177 -1.46028 0
M  V30 5554 H 527.21 4.20536 -0.540841 0
M  V30 5555 C 525.669 3.30703 0.643194 0
M  V30 5556 O 526.199 3.64443 1.68951 0
M  V30 5557 N 524.405 2.83841 0.623095 0
M  V30 5558 H 523.952 2.56583 -0.228719 0
M  V30 5559 H 523.91 2.76946 1.48823 0
M  V30 5560 N 527.682 1.05563 1.17022 0
M  V30 5561 C 528.93 0.76642 1.87004 0
M  V30 5562 C 529.251 -0.708854 1.8166 0
M  V30 5563 O 528.521 -1.51242 1.2451 0
M  V30 5564 H 527.101 0.280516 0.692329 0
M  V30 5565 H 529.763 1.33557 1.41945 0
M  V30 5566 H 528.859 1.08472 2.92644 0
M  V30 5567 N 529.16 -1.33526 0.837174 0
M  V30 5568 C 530.408 -1.97446 0.431211 0
M  V30 5569 C 530.729 -1.6665 -1.01255 0
M  V30 5570 O 529.999 -0.964559 -1.70508 0
M  V30 5571 H 528.579 -0.73043 0.156463 0
M  V30 5572 H 531.241 -1.62918 1.06976 0
M  V30 5573 H 530.337 -3.07001 0.561877 0
M  V30 5574 N 530.638 -0.59345 -1.46 0
M  V30 5575 C 532.054 -0.255965 -1.57534 0
M  V30 5576 C 532.254 1.24167 -1.58697 0
M  V30 5577 O 531.31 2.02398 -1.50968 0
M  V30 5578 C 532.623 -0.91466 -2.86451 0
M  V30 5579 C 534.171 -0.889253 -3.00102 0
M  V30 5580 C 534.646 -1.52769 -4.3177 0
M  V30 5581 N 536.137 -1.49253 -4.38495 0
M  V30 5582 C 536.872 -1.9558 -5.39014 0
M  V30 5583 N 536.368 -2.49929 -6.46148 0
M  V30 5584 N 538.161 -1.86432 -5.30282 0
M  V30 5585 H 530.312 -1.56604 -1.43489 0
M  V30 5586 H 532.575 -0.655207 -0.685133 0
M  V30 5587 H 532.281 -1.96861 -2.91442 0
M  V30 5588 H 532.155 -0.429356 -3.74748 0
M  V30 5589 H 534.542 0.156111 -2.94687 0
M  V30 5590 H 534.623 -1.41268 -2.13253 0
M  V30 5591 H 534.267 -2.57231 -4.37944 0
M  V30 5592 H 534.197 -0.979398 -5.17412 0
M  V30 5593 H 536.688 -1.09536 -3.61677 0
M  V30 5594 H 537.001 -2.83109 -7.19075 0
M  V30 5595 H 535.346 -2.53961 -6.46938 0
M  V30 5596 H 538.537 -1.43722 -4.4549 0
M  V30 5597 H 538.71 -2.22852 -6.08474 0
M  V30 5598 N 532.116 1.54067 -0.331816 0
M  V30 5599 C 533.064 2.26105 0.54582 0
M  V30 5600 C 534.058 1.27816 1.11173 0
M  V30 5601 O 535.264 1.45565 1.05882 0
M  V30 5602 H 531.639 0.726363 0.194683 0
M  V30 5603 H 533.61 2.98282 -0.083931 0
M  V30 5604 C 532.359 3.03814 1.69092 0
M  V30 5605 H 531.682 3.79269 1.26473 0
M  V30 5606 H 533.122 3.57453 2.28043 0
M  V30 5607 C 531.581 2.12606 2.61343 0
M  V30 5608 O 532.111 1.71437 3.6328 0
M  V30 5609 N 530.317 1.77925 2.29763 0
M  V30 5610 H 529.864 2.11602 1.46909 0
M  V30 5611 H 529.822 1.1718 2.91747 0
M  V30 5612 N 533.594 0.0601682 1.57485 0
M  V30 5613 C 534.871 -0.651956 1.84415 0
M  V30 5614 C 535.251 -1.88498 0.950361 0
M  V30 5615 O 534.599 -2.28496 0.0136719 0
M  V30 5616 C 534.809 -1.00069 3.34346 0
M  V30 5617 C 536.157 -1.37915 4.01578 0
M  V30 5618 O 537.181 -1.09277 3.39024 0
M  V30 5619 O 536.04 -1.91399 5.11887 0
M  V30 5620 H 533.134 -0.322668 0.761455 0
M  V30 5621 H 535.68 0.0902159 1.6946 0
M  V30 5622 H 534.452 -0.124463 3.91102 0
M  V30 5623 H 534.075 -1.80001 3.54521 0
M  V30 5624 N 535.072 -1.5615 -0.213296 0
M  V30 5625 C 536.318 -1.79812 -0.937849 0
M  V30 5626 C 536.651 -0.631201 -1.83656 0
M  V30 5627 O 535.926 0.369165 -1.90964 0
M  V30 5628 C 536.209 -3.13613 -1.76972 0
M  V30 5629 C 536.062 -4.40766 -0.89695 0
M  V30 5630 C 537.381 -3.43931 -2.7459 0
M  V30 5631 H 534.5 -0.654138 -0.339518 0
M  V30 5632 H 537.142 -1.88877 -0.20623 0
M  V30 5633 H 535.292 -3.06015 -2.39347 0
M  V30 5634 H 536.964 -4.60392 -0.289306 0
M  V30 5635 H 535.207 -4.33326 -0.202756 0
M  V30 5636 H 535.878 -5.30843 -1.51358 0
M  V30 5637 H 538.354 -3.5171 -2.22349 0
M  V30 5638 H 537.23 -4.38706 -3.29891 0
M  V30 5639 H 537.491 -2.6651 -3.52739 0
M  V30 5640 N 536.55 0.480323 -1.50102 0
M  V30 5641 C 537.778 1.25657 -1.64371 0
M  V30 5642 C 538.193 1.86011 -0.323316 0
M  V30 5643 O 537.55 1.68803 0.693682 0
M  V30 5644 C 537.601 2.37197 -2.728 0
M  V30 5645 O 537.322 1.7932 -3.9972 0
M  V30 5646 C 538.823 3.2823 -2.9796 0
M  V30 5647 H 536.043 0.380369 -0.552775 0
M  V30 5648 H 538.587 0.574379 -1.96268 0
M  V30 5649 H 536.742 3.01208 -2.43623 0
M  V30 5650 H 537.156 2.52701 -4.59611 0
M  V30 5651 H 538.63 4.02725 -3.77513 0
M  V30 5652 H 539.107 3.86462 -2.08671 0
M  V30 5653 H 539.713 2.69964 -3.28633 0
M  V30 5654 N 538.028 1.39524 0.732853 0
M  V30 5655 C 539.258 1.3994 1.51988 0
M  V30 5656 C 539.666 -0.00727973 1.89199 0
M  V30 5657 O 539.009 -0.989521 1.54771 0
M  V30 5658 C 539.071 2.21026 2.83527 0
M  V30 5659 C 538.735 3.69633 2.68738 0
M  V30 5660 C 539.732 4.62665 2.37143 0
M  V30 5661 C 537.417 4.13244 2.85542 0
M  V30 5662 C 539.411 5.97291 2.22536 0
M  V30 5663 C 537.098 5.47945 2.70554 0
M  V30 5664 C 538.096 6.39783 2.39097 0
M  V30 5665 O 537.784 7.72002 2.24204 0
M  V30 5666 H 537.516 0.479795 0.476206 0
M  V30 5667 H 540.07 1.8399 0.913054 0
M  V30 5668 H 538.3 1.71728 3.46477 0
M  V30 5669 H 539.989 2.13594 3.45156 0
M  V30 5670 H 540.755 4.30272 2.2381 0
M  V30 5671 H 536.634 3.42094 3.09019 0
M  V30 5672 H 540.178 6.68939 1.97905 0
M  V30 5673 H 536.075 5.79928 2.83466 0
M  V30 5674 H 536.843 7.8275 2.39258 0
M  V30 5675 N 539.506 -0.963266 1.24736 0
M  V30 5676 C 540.922 -1.23273 1.01371 0
M  V30 5677 C 541.122 -1.99618 -0.274776 0
M  V30 5678 O 540.178 -2.32293 -0.989769 0
M  V30 5679 C 541.491 -2.01554 2.23152 0
M  V30 5680 C 543.039 -2.14629 2.27823 0
M  V30 5681 C 543.514 -2.96307 3.49237 0
M  V30 5682 N 545.005 -3.03887 3.49581 0
M  V30 5683 C 545.74 -3.67456 4.40186 0
M  V30 5684 N 545.236 -4.32706 5.41052 0
M  V30 5685 N 547.029 -3.64511 4.27888 0
M  V30 5686 H 539.18 -0.452294 2.07528 0
M  V30 5687 H 541.443 -0.262521 0.910926 0
M  V30 5688 H 541.149 -1.52847 3.1675 0
M  V30 5689 H 541.023 -3.02278 2.25628 0
M  V30 5690 H 543.41 -2.62537 1.34753 0
M  V30 5691 H 543.491 -1.13238 2.2937 0
M  V30 5692 H 543.135 -2.49091 4.42624 0
M  V30 5693 H 543.065 -3.97905 3.44933 0
M  V30 5694 H 545.556 -2.57477 2.76611 0
M  V30 5695 H 545.869 -4.79042 6.06415 0
M  V30 5696 H 544.214 -4.31361 5.44934 0
M  V30 5697 H 547.405 -3.12715 3.4832 0
M  V30 5698 H 547.578 -4.13768 4.98698 0
M  V30 5699 N 540.985 -1.06182 -1.16461 0
M  V30 5700 C 542.234 -0.772927 -1.86303 0
M  V30 5701 C 542.547 0.703187 -1.82523 0
M  V30 5702 O 543.753 1.10641 -2.47933 0
M  V30 5703 C 542.209 -1.33249 -3.34324 0
M  V30 5704 C 541.817 -2.83876 -3.46581 0
M  V30 5705 C 543.561 -1.12108 -4.09429 0
M  V30 5706 C 541.468 -3.33082 -4.88682 0
M  V30 5707 H 540.398 -0.285452 -0.697878 0
M  V30 5708 H 543.049 -1.28039 -1.31447 0
M  V30 5709 H 541.431 -0.7528 -3.88779 0
M  V30 5710 H 542.605 -3.47786 -3.02293 0
M  V30 5711 H 540.92 -3.03671 -2.84909 0
M  V30 5712 H 543.517 -1.46361 -5.14279 0
M  V30 5713 H 543.86 -0.0593832 -4.16258 0
M  V30 5714 H 544.393 -1.6665 -3.6121 0
M  V30 5715 H 541.132 -4.38726 -4.87032 0
M  V30 5716 H 540.652 -2.73919 -5.33599 0
M  V30 5717 H 542.331 -3.28344 -5.57494 0
M  V30 5718 N 542.463 1.3308 -0.844243 0
M  V30 5719 C 543.393 2.3161 -0.296493 0
M  V30 5720 C 544.374 1.59215 0.598707 0
M  V30 5721 O 545.559 1.87077 0.521134 0
M  V30 5722 C 542.689 3.43313 0.524762 0
M  V30 5723 C 541.643 4.27115 -0.275106 0
M  V30 5724 C 540.969 5.30483 0.670236 0
M  V30 5725 C 542.269 5.00443 -1.49514 0
M  V30 5726 H 543.963 2.77672 -1.11976 0
M  V30 5727 H 541.509 1.33496 -0.539899 0
M  V30 5728 H 543.462 4.11273 0.918298 0
M  V30 5729 H 542.186 2.95952 1.3813 0
M  V30 5730 H 540.845 3.60787 -0.650267 0
M  V30 5731 H 540.493 4.79379 1.52332 0
M  V30 5732 H 540.193 5.87435 0.139123 0
M  V30 5733 H 541.717 6.01308 1.06117 0
M  V30 5734 H 543.131 5.61141 -1.17447 0
M  V30 5735 H 541.528 5.67071 -1.96343 0
M  V30 5736 H 542.598 4.28906 -2.26202 0
M  V30 5737 N 543.941 0.601185 1.45683 0
M  V30 5738 C 545.181 0.0968037 2.04171 0
M  V30 5739 C 545.545 -1.2466 1.46027 0
M  V30 5740 O 546.746 -1.84132 1.95829 0
M  V30 5741 C 545.017 0.051384 3.57363 0
M  V30 5742 S 546.576 -0.392737 4.37039 0
M  V30 5743 H 543.394 0.0464504 0.709481 0
M  V30 5744 H 545.996 0.797846 1.78479 0
M  V30 5745 H 544.7 1.03274 3.97193 0
M  V30 5746 H 544.231 -0.671853 3.87621 0
M  V30 5747 H 546.246 -1.64364 4.68187 0
M  V30 5748 N 545.419 -1.53889 0.339982 0
M  V30 5749 C 546.366 -2.24902 -0.518452 0
M  V30 5750 C 547.336 -1.24593 -1.09844 0
M  V30 5751 O 548.521 -1.53317 -1.13572 0
M  V30 5752 C 545.661 -3.02262 -1.66529 0
M  V30 5753 C 544.774 -4.17418 -1.11295 0
M  V30 5754 C 543.909 -4.82273 -2.2268 0
M  V30 5755 C 542.948 -5.89503 -1.6478 0
M  V30 5756 N 542.085 -6.48153 -2.69893 0
M  V30 5757 H 546.925 -2.97853 0.0936579 0
M  V30 5758 H 544.462 -1.46986 0.0579924 0
M  V30 5759 H 546.42 -3.45371 -2.3404 0
M  V30 5760 H 545.05 -2.31614 -2.24844 0
M  V30 5761 H 544.102 -3.78976 -0.328886 0
M  V30 5762 H 545.414 -4.94554 -0.649414 0
M  V30 5763 H 544.568 -5.28435 -2.98063 0
M  V30 5764 H 543.307 -4.04552 -2.72376 0
M  V30 5765 H 542.312 -5.42728 -0.879004 0
M  V30 5766 H 543.537 -6.6913 -1.1594 0
M  V30 5767 H 541.483 -5.73298 -3.1885 0
M  V30 5768 H 541.4 -7.20752 -2.28151 0
M  V30 5769 H 542.668 -6.98968 -3.45056 0
M  V30 5770 N 546.897 -0.0685191 -1.57451 0
M  V30 5771 C 548.313 0.288101 -1.56978 0
M  V30 5772 C 548.513 1.70262 -1.07765 0
M  V30 5773 O 547.569 2.4135 -0.742054 0
M  V30 5774 C 548.882 0.100745 -3.00531 0
M  V30 5775 C 550.43 0.170531 -3.12535 0
M  V30 5776 C 550.905 0.0114944 -4.57999 0
M  V30 5777 N 552.396 0.0672065 -4.63151 0
M  V30 5778 C 553.131 -0.0314813 -5.73391 0
M  V30 5779 N 552.627 -0.183503 -6.92557 0
M  V30 5780 N 554.42 0.0253489 -5.62094 0
M  V30 5781 H 546.571 -0.993026 -1.87757 0
M  V30 5782 H 548.834 -0.386981 -0.865419 0
M  V30 5783 H 548.54 -0.875197 -3.40636 0
M  V30 5784 H 548.414 0.854457 -3.67395 0
M  V30 5785 H 550.801 1.13696 -2.72318 0
M  V30 5786 H 550.882 -0.614229 -2.48316 0
M  V30 5787 H 550.526 -0.951684 -4.98904 0
M  V30 5788 H 550.456 0.815617 -5.20245 0
M  V30 5789 H 552.947 0.183246 -3.77455 0
M  V30 5790 H 553.26 -0.251041 -7.72392 0
M  V30 5791 H 551.605 -0.218822 -6.94655 0
M  V30 5792 H 554.796 0.142794 -4.67882 0
M  V30 5793 H 554.969 -0.0550166 -6.47977 0
M  V30 5794 N 548.375 1.56261 0.205012 0
M  V30 5795 C 549.615 1.81823 0.933806 0
M  V30 5796 C 549.979 0.644534 1.80858 0
M  V30 5797 O 551.18 0.779819 2.5724 0
M  V30 5798 C 549.451 3.12362 1.7368 0
M  V30 5799 S 551.01 3.59296 2.51897 0
M  V30 5800 H 547.828 0.638209 0.313386 0
M  V30 5801 H 550.43 1.94495 0.198001 0
M  V30 5802 H 549.134 3.95809 1.08459 0
M  V30 5803 H 548.665 3.02542 2.5146 0
M  V30 5804 H 550.68 3.23945 3.75864 0
M  V30 5805 N 549.853 -0.472356 1.50355 0
M  V30 5806 C 551.078 -1.25251 1.65309 0
M  V30 5807 C 551.503 -1.85081 0.335643 0
M  V30 5808 O 550.861 -1.67227 -0.700335 0
M  V30 5809 C 550.909 -2.3379 2.74544 0
M  V30 5810 O 550.013 -3.38401 2.35709 0
M  V30 5811 H 549.354 -0.368539 0.552336 0
M  V30 5812 H 551.884 -0.562271 1.96722 0
M  V30 5813 H 551.894 -2.79121 2.97583 0
M  V30 5814 H 550.569 -1.89614 3.70161 0
M  V30 5815 H 549.146 -2.9879 2.23112 0
M  V30 5816 N 551.331 -1.39911 -0.725443 0
M  V30 5817 C 552.577 -1.38862 -1.48624 0
M  V30 5818 C 552.932 0.0125913 -1.92396 0
M  V30 5819 O 552.225 0.981046 -1.64578 0
M  V30 5820 C 552.419 -2.30368 -2.7325 0
M  V30 5821 C 552.248 -3.79247 -2.41665 0
M  V30 5822 C 551.018 -4.48119 -2.3349 0
M  V30 5823 C 553.216 -4.70988 -2.06579 0
M  V30 5824 N 551.198 -5.82282 -1.94476 0
M  V30 5825 C 552.569 -5.93873 -1.78087 0
M  V30 5826 C 554.624 -4.58917 -1.9313 0
M  V30 5827 C 553.327 -7.06036 -1.37499 0
M  V30 5828 C 555.353 -5.71012 -1.53946 0
M  V30 5829 C 554.715 -6.92976 -1.26345 0
M  V30 5830 H 550.814 -0.563394 -0.54232 0
M  V30 5831 H 553.398 -1.75542 -0.842213 0
M  V30 5832 H 551.569 -1.95831 -3.35417 0
M  V30 5833 H 553.301 -2.20245 -3.39521 0
M  V30 5834 H 550.056 -4.01677 -2.50904 0
M  V30 5835 H 550.48 -6.53307 -1.77535 0
M  V30 5836 H 555.122 -3.65149 -2.13134 0
M  V30 5837 H 552.84 -7.99697 -1.16237 0
M  V30 5838 H 556.426 -5.63664 -1.44132 0
M  V30 5839 H 555.306 -7.78243 -0.964787 0
M  V30 5840 N 552.809 0.956637 -1.25245 0
M  V30 5841 C 553.719 2.0868 -1.0719 0
M  V30 5842 C 554.735 1.73997 -0.00959074 0
M  V30 5843 O 555.911 2.00301 -0.210104 0
M  V30 5844 C 552.976 3.39754 -0.690526 0
M  V30 5845 C 552.037 3.88316 -1.83055 0
M  V30 5846 C 551.27 5.13134 -1.46728 0
M  V30 5847 O 551.493 5.6925 -0.362029 0
M  V30 5848 O 550.427 5.56356 -2.29677 0
M  V30 5849 H 554.253 2.26813 -2.01965 0
M  V30 5850 H 551.838 1.07098 -1.04165 0
M  V30 5851 H 553.72 4.18543 -0.489871 0
M  V30 5852 H 552.395 3.22896 0.227981 0
M  V30 5853 H 551.302 3.1054 -2.08604 0
M  V30 5854 H 552.635 4.09669 -2.72822 0
M  V30 5855 N 554.287 1.06798 1.15896 0
M  V30 5856 C 555.219 0.641263 2.20046 0
M  V30 5857 C 556.232 -0.303355 1.59949 0
M  V30 5858 O 557.421 -0.0935478 1.78255 0
M  V30 5859 C 554.521 -0.0794029 3.38807 0
M  V30 5860 C 553.694 0.879986 4.28457 0
M  V30 5861 C 552.753 0.197638 5.25829 0
M  V30 5862 O 551.779 0.836913 5.63014 0
M  V30 5863 N 552.981 -1.05886 5.70761 0
M  V30 5864 H 555.746 1.53718 2.57276 0
M  V30 5865 H 553.307 0.951951 1.30956 0
M  V30 5866 H 555.299 -0.546418 4.00994 0
M  V30 5867 H 553.869 -0.877193 3.0004 0
M  V30 5868 H 553.089 1.52625 3.63454 0
M  V30 5869 H 554.377 1.53065 4.8523 0
M  V30 5870 H 553.775 -1.59828 5.42652 0
M  V30 5871 H 552.332 -1.46965 6.35015 0
M  V30 5872 N 555.766 -1.3263 0.851289 0
M  V30 5873 C 557.014 -1.96978 0.452128 0
M  V30 5874 C 557.335 -1.67715 -0.99482 0
M  V30 5875 O 556.605 -0.98259 -1.69476 0
M  V30 5876 H 555.185 -0.72873 0.164202 0
M  V30 5877 H 557.847 -1.61774 1.08698 0
M  V30 5878 H 556.943 -3.06387 0.594407 0
M  V30 5879 N 557.244 -0.608902 -1.45362 0
M  V30 5880 C 558.154 0.110969 -2.34337 0
M  V30 5881 C 559.17 0.859007 -1.51318 0
M  V30 5882 O 560.346 0.816296 -1.84116 0
M  V30 5883 C 557.411 1.09494 -3.28956 0
M  V30 5884 C 556.472 0.348718 -4.27881 0
M  V30 5885 C 555.705 1.28582 -5.17979 0
M  V30 5886 O 555.928 2.52369 -5.11533 0
M  V30 5887 O 554.862 0.782172 -5.96796 0
M  V30 5888 H 558.688 -0.620258 -2.97299 0
M  V30 5889 H 556.273 -0.36916 -1.44767 0
M  V30 5890 H 558.155 1.66163 -3.87257 0
M  V30 5891 H 556.83 1.80717 -2.68557 0
M  V30 5892 H 555.737 -0.260465 -3.73192 0
M  V30 5893 H 557.07 -0.323049 -4.91139 0
M  V30 5894 N 558.722 1.53707 -0.348139 0
M  V30 5895 C 559.962 2.02899 0.247254 0
M  V30 5896 C 560.326 1.23033 1.47401 0
M  V30 5897 O 561.527 1.62146 2.14388 0
M  V30 5898 C 559.798 3.53156 0.549151 0
M  V30 5899 S 561.357 4.24247 1.1207 0
M  V30 5900 H 558.175 0.707213 0.0732894 0
M  V30 5901 H 560.777 1.89338 -0.486965 0
M  V30 5902 H 559.481 4.08893 -0.351435 0
M  V30 5903 H 559.012 3.70845 1.31291 0
M  V30 5904 H 561.027 4.33958 2.40613 0
M  V30 5905 N 560.2 0.0768682 1.57412 0
M  V30 5906 C 561.446 -0.591961 1.93968 0
M  V30 5907 C 561.779 -1.68954 0.9575 0
M  V30 5908 O 561.054 -1.94496 -0.0124675 0
M  V30 5909 C 561.337 -1.16418 3.40762 0
M  V30 5910 C 561.19 -0.0728933 4.49741 0
M  V30 5911 C 562.509 -2.06814 3.88479 0
M  V30 5912 H 559.628 -0.213716 0.705333 0
M  V30 5913 H 562.27 0.14387 1.89455 0
M  V30 5914 H 560.42 -1.79128 3.4474 0
M  V30 5915 H 562.092 0.560446 4.57883 0
M  V30 5916 H 560.335 0.595859 4.29688 0
M  V30 5917 H 561.006 -0.513755 5.49604 0
M  V30 5918 H 563.482 -1.54033 3.8654 0
M  V30 5919 H 562.358 -2.43785 4.91793 0
M  V30 5920 H 562.619 -2.97844 3.26713 0
M  V30 5921 N 561.678 -1.56367 -0.196722 0
M  V30 5922 C 563.089 -1.70462 -0.761545 0
M  V30 5923 C 563.44 -0.683161 -1.83922 0
M  V30 5924 O 562.565 0.160753 -2.15802 0
M  V30 5925 C 563.16 -3.09057 -1.38814 0
M  V30 5926 C 561.719 -3.24922 -1.90007 0
M  V30 5927 C 560.866 -2.66412 -0.769399 0
M  V30 5928 H 563.817 -1.58675 0.0283263 0
M  V30 5929 H 563.838 -3.06296 -2.2575 0
M  V30 5930 H 563.35 -3.83378 -0.603559 0
M  V30 5931 H 561.451 -2.55514 -2.71189 0
M  V30 5932 H 561.564 -4.3241 -2.06297 0
M  V30 5933 H 559.928 -2.25546 -1.18326 0
M  V30 5934 H 560.711 -3.433 0.00291773 0
M  V30 5935 N 563.156 0.464375 -1.50603 0
M  V30 5936 C 564.396 1.22573 -1.6357 0
M  V30 5937 C 564.76 1.89111 -0.331834 0
M  V30 5938 O 565.961 2.66679 -0.336999 0
M  V30 5939 C 564.232 2.23643 -2.7878 0
M  V30 5940 S 565.791 3.08628 -3.1192 0
M  V30 5941 H 562.609 0.416058 -0.576556 0
M  V30 5942 H 565.211 0.521637 -1.88412 0
M  V30 5943 H 563.915 1.73354 -3.7199 0
M  V30 5944 H 563.446 2.98672 -2.56044 0
M  V30 5945 H 565.461 4.24904 -2.56264 0
M  V30 5946 N 564.634 1.40294 0.718013 0
M  V30 5947 C 565.882 1.38167 1.47494 0
M  V30 5948 C 566.203 -0.01607 1.94993 0
M  V30 5949 O 565.473 -0.970396 1.70177 0
M  V30 5950 H 564.053 0.508505 0.547203 0
M  V30 5951 H 566.715 1.75324 0.851322 0
M  V30 5952 H 565.811 2.05503 2.34894 0
M  V30 5953 N 566.112 -0.949982 1.2575 0
M  V30 5954 C 567.337 -1.73503 1.13628 0
M  V30 5955 C 567.762 -1.85601 -0.30559 0
M  V30 5956 O 567.12 -1.33984 -1.22139 0
M  V30 5957 C 567.168 -3.1243 1.80055 0
M  V30 5958 O 566.272 -3.97916 1.08336 0
M  V30 5959 H 565.613 -0.532665 0.396439 0
M  V30 5960 H 568.143 -1.19043 1.66403 0
M  V30 5961 H 568.153 -3.62866 1.86527 0
M  V30 5962 H 566.828 -3.02941 2.84956 0
M  V30 5963 H 565.405 -3.56375 1.09777 0
M  V30 5964 N 567.59 -1.07411 -1.15328 0
M  V30 5965 C 568.538 -0.689316 -2.22151 0
M  V30 5966 C 569.532 0.300156 -1.6672 0
M  V30 5967 O 570.738 0.163804 -1.79253 0
M  V30 5968 H 567.113 -0.204834 -0.723566 0
M  V30 5969 H 569.084 -1.59988 -2.51886 0
M  V30 5970 C 567.833 -0.103848 -3.47545 0
M  V30 5971 H 567.156 -0.856367 -3.90521 0
M  V30 5972 H 568.596 0.127725 -4.23808 0
M  V30 5973 C 567.055 1.15563 -3.1646 0
M  V30 5974 O 567.585 2.242 -3.33312 0
M  V30 5975 N 565.791 1.06203 -2.70498 0
M  V30 5976 H 565.338 0.177933 -2.56985 0
M  V30 5977 H 565.296 1.90553 -2.50074 0
M  V30 5978 N 569.068 1.32177 -0.85831 0
M  V30 5979 C 570.317 1.96392 -0.459689 0
M  V30 5980 C 570.63 1.68659 0.990632 0
M  V30 5981 O 571.836 2.26641 1.49485 0
M  V30 5982 C 570.292 3.51542 -0.7711 0
M  V30 5983 C 569.9 3.8813 -2.2374 0
M  V30 5984 C 571.644 4.2221 -0.44038 0
M  V30 5985 C 569.551 5.36341 -2.49183 0
M  V30 5986 H 568.481 0.735007 -0.168169 0
M  V30 5987 H 571.132 1.50518 -1.0496 0
M  V30 5988 H 569.514 3.95846 -0.11058 0
M  V30 5989 H 570.688 3.54824 -2.94001 0
M  V30 5990 H 569.003 3.30497 -2.533 0
M  V30 5991 H 571.6 5.31234 -0.607855 0
M  V30 5992 H 571.943 4.11683 0.618291 0
M  V30 5993 H 572.476 3.83502 -1.05695 0
M  V30 5994 H 569.215 5.51892 -3.53689 0
M  V30 5995 H 568.735 5.7104 -1.83504 0
M  V30 5996 H 570.414 6.03466 -2.33318 0
M  V30 5997 N 570.547 0.616602 1.45037 0
M  V30 5998 C 571.795 0.115103 2.01772 0
M  V30 5999 C 572.116 -1.2622 1.48639 0
M  V30 6000 O 571.386 -1.83563 0.684199 0
M  V30 6001 H 569.966 0.0395607 0.745952 0
M  V30 6002 H 572.628 0.800032 1.77723 0
M  V30 6003 H 571.724 0.0717274 3.12018 0
M  V30 6004 N 572.025 -1.5352 0.356285 0
M  V30 6005 C 573.255 -2.05236 -0.236983 0
M  V30 6006 C 573.663 -1.23016 -1.43749 0
M  V30 6007 O 573.006 -0.2615 -1.81829 0
M  V30 6008 C 573.068 -3.52549 -0.7035 0
M  V30 6009 C 572.732 -4.55425 0.379059 0
M  V30 6010 C 573.729 -5.0524 1.22592 0
M  V30 6011 C 571.414 -4.99425 0.536638 0
M  V30 6012 C 573.408 -5.97647 2.21578 0
M  V30 6013 C 571.095 -5.9164 1.52988 0
M  V30 6014 C 572.093 -6.4064 2.3679 0
M  V30 6015 O 571.781 -7.31039 3.34421 0
M  V30 6016 H 571.513 -0.674346 -0.047254 0
M  V30 6017 H 574.067 -1.98962 0.510238 0
M  V30 6018 H 572.297 -3.56331 -1.50217 0
M  V30 6019 H 573.986 -3.87171 -1.21873 0
M  V30 6020 H 574.752 -4.72002 1.11532 0
M  V30 6021 H 570.631 -4.60879 -0.105834 0
M  V30 6022 H 574.175 -6.35816 2.87025 0
M  V30 6023 H 570.072 -6.24293 1.64099 0
M  V30 6024 H 570.84 -7.49009 3.30041 0
M  V30 6025 N 573.503 -0.0852151 -1.57369 0
M  V30 6026 C 574.436 0.913608 -2.09113 0
M  V30 6027 C 575.414 1.28264 -0.999358 0
M  V30 6028 O 576.598 1.3896 -1.27367 0
M  V30 6029 C 573.725 2.21777 -2.55993 0
M  V30 6030 C 572.771 1.99932 -3.76735 0
M  V30 6031 S 573.604 1.24637 -5.20794 0
M  V30 6032 C 574.76 2.56304 -5.71016 0
M  V30 6033 H 574.993 0.473369 -2.93507 0
M  V30 6034 H 572.526 0.127856 -1.5387 0
M  V30 6035 H 574.484 2.96726 -2.83662 0
M  V30 6036 H 573.145 2.62923 -1.71843 0
M  V30 6037 H 572.338 2.96482 -4.07571 0
M  V30 6038 H 571.94 1.33116 -3.49509 0
M  V30 6039 H 574.232 3.5233 -5.78679 0
M  V30 6040 H 575.175 2.3006 -6.69685 0
M  V30 6041 H 575.583 2.64125 -4.98897 0
M  V30 6042 N 574.981 1.5647 0.188427 0
M  V30 6043 C 576.392 1.70864 0.752494 0
M  V30 6044 C 576.743 0.692905 1.83557 0
M  V30 6045 O 575.868 -0.149307 2.15884 0
M  V30 6046 C 576.463 3.09789 1.37173 0
M  V30 6047 C 575.022 3.25925 1.88281 0
M  V30 6048 C 574.169 2.66817 0.755259 0
M  V30 6049 H 577.12 1.58657 -0.0367408 0
M  V30 6050 H 577.141 3.07489 2.24122 0
M  V30 6051 H 576.653 3.83693 0.583219 0
M  V30 6052 H 574.754 2.56948 2.6983 0
M  V30 6053 H 574.867 4.33498 2.04001 0
M  V30 6054 H 573.231 2.2617 1.17128 0
M  V30 6055 H 574.014 3.43294 -0.0211237 0
M  V30 6056 N 576.459 -0.456382 1.50847 0
M  V30 6057 C 577.391 -1.57033 1.66953 0
M  V30 6058 C 578.404 -1.53207 0.550593 0
M  V30 6059 O 579.593 -1.58328 0.824285 0
M  V30 6060 C 576.693 -2.95937 1.65149 0
M  V30 6061 C 575.866 -3.24475 2.93317 0
M  V30 6062 C 574.925 -4.43007 2.83957 0
M  V30 6063 O 573.951 -4.42592 3.57912 0
M  V30 6064 N 575.153 -5.45503 1.9851 0
M  V30 6065 H 577.918 -1.43629 2.63042 0
M  V30 6066 H 575.479 -0.645037 1.48495 0
M  V30 6067 H 577.471 -3.73224 1.56481 0
M  V30 6068 H 576.041 -3.03036 0.767343 0
M  V30 6069 H 575.261 -2.35664 3.16 0
M  V30 6070 H 576.549 -3.4036 3.78196 0
M  V30 6071 H 575.947 -5.48668 1.37766 0
M  V30 6072 H 574.504 -6.21716 1.95735 0
M  V30 6073 N 577.937 -1.40673 -0.710563 0
M  V30 6074 C 578.869 -1.37256 -1.83558 0
M  V30 6075 C 579.882 -0.277133 -1.60424 0
M  V30 6076 O 581.071 -0.537831 -1.70205 0
M  V30 6077 C 578.171 -1.1144 -3.20054 0
M  V30 6078 C 577.344 -2.32734 -3.70342 0
M  V30 6079 C 576.403 -2.03002 -4.85465 0
M  V30 6080 O 575.429 -2.75912 -4.97857 0
M  V30 6081 N 576.631 -1.01105 -5.71627 0
M  V30 6082 H 579.396 -2.34215 -1.86985 0
M  V30 6083 H 576.957 -1.35091 -0.892301 0
M  V30 6084 H 578.949 -0.895265 -3.94673 0
M  V30 6085 H 577.519 -0.231307 -3.11743 0
M  V30 6086 H 576.739 -2.70446 -2.86798 0
M  V30 6087 H 578.027 -3.13584 -4.00678 0
M  V30 6088 H 577.425 -0.407303 -5.64232 0
M  V30 6089 H 575.982 -0.85182 -6.4621 0
M  V30 6090 N 579.415 0.9433 -1.26252 0
M  V30 6091 C 580.643 1.72367 -1.14443 0
M  V30 6092 C 581.058 1.86392 0.300572 0
M  V30 6093 O 580.415 1.36978 1.20596 0
M  V30 6094 C 580.466 3.13155 -1.806 0
M  V30 6095 O 580.187 2.99803 -3.19452 0
M  V30 6096 C 581.688 4.07417 -1.74717 0
M  V30 6097 H 578.908 0.539758 -0.398626 0
M  V30 6098 H 581.452 1.18268 -1.66832 0
M  V30 6099 H 579.607 3.64162 -1.32154 0
M  V30 6100 H 580.021 3.88697 -3.52158 0
M  V30 6101 H 581.495 5.03773 -2.25647 0
M  V30 6102 H 581.972 4.3337 -0.713244 0
M  V30 6103 H 582.578 3.6233 -2.22704 0
M  V30 6104 N 580.893 1.08022 1.14757 0
M  V30 6105 C 582.141 0.805913 1.85336 0
M  V30 6106 C 582.462 -0.670162 1.83122 0
M  V30 6107 O 581.732 -1.48567 1.2769 0
M  V30 6108 H 580.312 0.295138 0.686223 0
M  V30 6109 H 582.974 1.36538 1.3908 0
M  V30 6110 H 582.07 1.14655 2.90277 0
M  V30 6111 N 582.371 -1.3172 0.865308 0
M  V30 6112 C 583.301 -2.31109 0.333302 0
M  V30 6113 C 584.282 -1.60148 -0.573301 0
M  V30 6114 O 585.467 -1.87882 -0.491305 0
M  V30 6115 C 582.597 -3.44104 -0.470078 0
M  V30 6116 C 581.551 -4.26623 0.343021 0
M  V30 6117 C 580.877 -5.31482 -0.585756 0
M  V30 6118 C 582.177 -4.98001 1.57456 0
M  V30 6119 H 583.871 -2.75855 1.1638 0
M  V30 6120 H 581.417 -1.3262 0.561069 0
M  V30 6121 H 583.37 -4.12682 -0.852752 0
M  V30 6122 H 582.094 -2.98112 -1.33404 0
M  V30 6123 H 580.753 -3.59707 0.707583 0
M  V30 6124 H 580.401 -4.81741 -1.44686 0
M  V30 6125 H 580.101 -5.87582 -0.0456494 0
M  V30 6126 H 581.625 -6.0292 -0.965375 0
M  V30 6127 H 583.039 -5.59201 1.26359 0
M  V30 6128 H 581.436 -5.63876 2.05339 0
M  V30 6129 H 582.506 -4.25253 2.32997 0
M  V30 6130 N 583.85 -0.624285 -1.44708 0
M  V30 6131 C 584.76 0.0861083 -2.34442 0
M  V30 6132 C 585.776 0.84291 -1.5222 0
M  V30 6133 O 586.952 0.796723 -1.84971 0
M  V30 6134 C 584.017 1.05999 -3.30099 0
M  V30 6135 C 583.077 0.303316 -4.28227 0
M  V30 6136 C 582.311 1.23081 -5.19314 0
M  V30 6137 O 582.534 2.46929 -5.14181 0
M  V30 6138 O 581.468 0.71883 -5.97592 0
M  V30 6139 H 585.293 -0.651756 -2.96624 0
M  V30 6140 H 582.879 -0.384493 -1.44368 0
M  V30 6141 H 584.76 1.62046 -3.88997 0
M  V30 6142 H 583.436 1.77859 -2.70459 0
M  V30 6143 H 582.343 -0.300033 -3.72895 0
M  V30 6144 H 583.676 -0.375123 -4.90768 0
M  V30 6145 N 585.328 1.53329 -0.364422 0
M  V30 6146 C 586.605 1.93557 0.281962 0
M  V30 6147 C 586.985 1.29786 1.6649 0
M  V30 6148 O 586.333 0.456512 2.23893 0
M  V30 6149 C 586.543 3.47405 0.333331 0
M  V30 6150 C 587.891 4.20699 0.574231 0
M  V30 6151 O 588.915 3.53779 0.414588 0
M  V30 6152 O 587.774 5.39287 0.885002 0
M  V30 6153 H 584.868 0.809573 0.168881 0
M  V30 6154 H 587.414 1.64494 -0.417121 0
M  V30 6155 H 586.186 3.86091 -0.636326 0
M  V30 6156 H 585.809 3.82697 1.07836 0
M  V30 6157 N 586.806 0.0935595 1.57322 0
M  V30 6158 C 587.754 -0.883457 2.15169 0
M  V30 6159 C 588.748 -1.29324 1.09415 0
M  V30 6160 O 589.954 -1.26795 1.27762 0
M  V30 6161 H 586.329 -0.302923 0.688289 0
M  V30 6162 H 588.3 -0.370845 2.96087 0
M  V30 6163 C 587.049 -2.13345 2.74552 0
M  V30 6164 H 586.372 -1.82702 3.55612 0
M  V30 6165 H 587.812 -2.7977 3.18598 0
M  V30 6166 C 586.271 -2.90646 1.70371 0
M  V30 6167 O 586.801 -3.85133 1.14173 0
M  V30 6168 N 585.007 -2.54157 1.40899 0
M  V30 6169 H 584.554 -1.77391 1.86789 0
M  V30 6170 H 584.512 -3.06178 0.714301 0
M  V30 6171 N 588.284 -1.56567 -0.180126 0
M  V30 6172 C 589.514 -1.85349 -0.912647 0
M  V30 6173 C 589.922 -0.675795 -1.76719 0
M  V30 6174 O 589.265 0.3645 -1.80047 0
M  V30 6175 C 589.327 -3.08431 -1.84691 0
M  V30 6176 C 588.991 -4.41694 -1.17284 0
M  V30 6177 C 589.988 -5.17062 -0.542532 0
M  V30 6178 C 587.673 -4.8843 -1.17223 0
M  V30 6179 C 589.667 -6.37351 0.0793953 0
M  V30 6180 C 587.354 -6.08652 -0.54647 0
M  V30 6181 C 588.352 -6.82955 0.0782458 0
M  V30 6182 O 588.04 -8.00897 0.694158 0
M  V30 6183 H 587.772 -0.619286 -0.271036 0
M  V30 6184 H 590.326 -2.0454 -0.187768 0
M  V30 6185 H 588.556 -2.85163 -2.61188 0
M  V30 6186 H 590.245 -3.23733 -2.44851 0
M  V30 6187 H 591.011 -4.8204 -0.535045 0
M  V30 6188 H 586.89 -4.30542 -1.64788 0
M  V30 6189 H 590.434 -6.95287 0.567612 0
M  V30 6190 H 586.331 -6.4314 -0.55151 0
M  V30 6191 H 587.099 -8.16352 0.592537 0
M  V30 6192 N 589.762 0.448376 -1.51087 0
M  V30 6193 C 591.008 1.20049 -1.6345 0
M  V30 6194 C 591.341 1.91121 -0.344444 0
M  V30 6195 O 590.616 1.83125 0.655396 0
M  V30 6196 C 590.899 2.22624 -2.83038 0
M  V30 6197 C 590.752 1.55708 -4.21989 0
M  V30 6198 C 592.071 3.23718 -2.98152 0
M  V30 6199 H 589.19 0.435085 -0.59487 0
M  V30 6200 H 591.832 0.491183 -1.83541 0
M  V30 6201 H 589.982 2.83117 -2.66039 0
M  V30 6202 H 591.654 0.986367 -4.50631 0
M  V30 6203 H 589.897 0.859647 -4.25197 0
M  V30 6204 H 590.568 2.30357 -5.01637 0
M  V30 6205 H 593.044 2.73269 -3.13788 0
M  V30 6206 H 591.92 3.92795 -3.83411 0
M  V30 6207 H 592.181 3.89179 -2.09743 0
M  V30 6208 N 591.24 1.41047 0.703093 0
M  V30 6209 C 592.468 1.4334 1.49202 0
M  V30 6210 C 592.883 0.0365596 1.88765 0
M  V30 6211 O 592.24 -0.942419 1.56284 0
M  V30 6212 C 592.291 2.33538 2.75939 0
M  V30 6213 O 592.012 3.67786 2.38045 0
M  V30 6214 C 593.513 2.44555 3.6974 0
M  V30 6215 H 590.733 0.488472 0.460039 0
M  V30 6216 H 593.277 1.85245 0.86629 0
M  V30 6217 H 591.432 1.94962 3.34766 0
M  V30 6218 H 591.846 4.15816 3.19683 0
M  V30 6219 H 593.32 3.11849 4.55471 0
M  V30 6220 H 593.797 1.47447 4.1371 0
M  V30 6221 H 594.403 2.83735 3.16819 0
M  V30 6222 N 592.718 -0.936591 1.26751 0
M  V30 6223 C 593.964 -1.6858 1.12733 0
M  V30 6224 C 594.297 -1.91414 -0.327745 0
M  V30 6225 O 593.572 -1.49812 -1.24043 0
M  V30 6226 C 593.855 -3.05779 1.90187 0
M  V30 6227 C 593.708 -2.90242 3.43627 0
M  V30 6228 C 595.027 -4.0597 1.69931 0
M  V30 6229 H 592.146 -0.61182 0.410908 0
M  V30 6230 H 594.788 -1.08747 1.55801 0
M  V30 6231 H 592.938 -3.56853 1.53584 0
M  V30 6232 H 594.61 -2.46354 3.9001 0
M  V30 6233 H 592.853 -2.2577 3.70419 0
M  V30 6234 H 593.524 -3.87572 3.93055 0
M  V30 6235 H 596 -3.63874 2.0183 0
M  V30 6236 H 594.876 -4.99974 2.26534 0
M  V30 6237 H 595.137 -4.37369 0.64502 0
M  V30 6238 N 594.196 -1.08629 -1.14182 0
M  V30 6239 C 595.129 -0.662329 -2.18377 0
M  V30 6240 C 596.107 0.327054 -1.59277 0
M  V30 6241 O 597.291 0.230376 -1.87087 0
M  V30 6242 C 594.418 0.0254765 -3.3869 0
M  V30 6243 C 593.464 -0.924414 -4.16361 0
M  V30 6244 S 594.297 -2.43226 -4.77076 0
M  V30 6245 C 595.453 -1.75663 -6.00744 0
M  V30 6246 H 595.686 -1.54501 -2.54001 0
M  V30 6247 H 593.219 -0.901484 -1.2535 0
M  V30 6248 H 595.177 0.416032 -4.08386 0
M  V30 6249 H 593.838 0.884689 -3.01384 0
M  V30 6250 H 593.031 -0.390099 -5.02488 0
M  V30 6251 H 592.633 -1.25598 -3.5228 0
M  V30 6252 H 594.925 -1.07589 -6.68903 0
M  V30 6253 H 595.868 -2.59673 -6.58768 0
M  V30 6254 H 596.276 -1.22903 -5.50958 0
M  V30 6255 N 595.674 1.31259 -0.872281 0
M  V30 6256 C 596.951 1.91362 -0.404943 0
M  V30 6257 C 597.331 1.79362 1.11321 0
M  V30 6258 O 596.679 1.20277 1.94283 0
M  V30 6259 C 596.889 3.3749 -0.888893 0
M  V30 6260 C 598.237 4.14593 -0.916384 0
M  V30 6261 O 599.261 3.46282 -0.834701 0
M  V30 6262 O 598.12 5.3661 -1.03498 0
M  V30 6263 H 595.214 0.818016 -0.121569 0
M  V30 6264 H 597.76 1.39912 -0.960346 0
M  V30 6265 H 596.532 3.40249 -1.93251 0
M  V30 6266 H 596.155 3.96375 -0.311932 0
M  V30 6267 N 597.152 0.631951 1.44375 0
M  V30 6268 C 598.082 -0.0593243 2.33425 0
M  V30 6269 C 599.063 -0.833964 1.48253 0
M  V30 6270 O 600.248 -0.799682 1.76971 0
M  V30 6271 C 597.378 -1.04096 3.31333 0
M  V30 6272 C 596.332 -0.377899 4.26328 0
M  V30 6273 C 595.658 -1.4695 5.14111 0
M  V30 6274 C 596.958 0.716371 5.17364 0
M  V30 6275 H 598.652 0.684287 2.91475 0
M  V30 6276 H 596.198 0.330518 1.40156 0
M  V30 6277 H 598.151 -1.53331 3.92514 0
M  V30 6278 H 596.875 -1.81547 2.71493 0
M  V30 6279 H 595.534 0.0938054 3.6648 0
M  V30 6280 H 595.182 -2.2349 4.50623 0
M  V30 6281 H 594.882 -1.03121 5.78481 0
M  V30 6282 H 596.406 -1.96363 5.78164 0
M  V30 6283 H 597.82 0.307089 5.72477 0
M  V30 6284 H 596.217 1.07784 5.90341 0
M  V30 6285 H 597.287 1.58316 4.58327 0
M  V30 6286 N 598.631 -1.53133 0.372548 0
M  V30 6287 C 599.561 -2.28876 -0.462412 0
M  V30 6288 C 600.542 -1.31583 -1.07796 0
M  V30 6289 O 601.727 -1.60461 -1.09389 0
M  V30 6290 C 598.857 -3.08317 -1.59868 0
M  V30 6291 C 597.811 -4.13355 -1.11003 0
M  V30 6292 C 597.137 -4.8092 -2.33708 0
M  V30 6293 C 598.437 -5.21955 -0.18983 0
M  V30 6294 H 600.131 -2.9892 0.169511 0
M  V30 6295 H 597.677 -1.43761 0.0829658 0
M  V30 6296 H 599.63 -3.60055 -2.18949 0
M  V30 6297 H 598.354 -2.35976 -2.25794 0
M  V30 6298 H 597.013 -3.62573 -0.541869 0
M  V30 6299 H 596.661 -4.05144 -2.98106 0
M  V30 6300 H 596.361 -5.51904 -2.01682 0
M  V30 6301 H 597.885 -5.35455 -2.93462 0
M  V30 6302 H 599.299 -5.69153 -0.688319 0
M  V30 6303 H 597.696 -6.00087 0.0398887 0
M  V30 6304 H 598.766 -4.78811 0.766057 0
M  V30 6305 N 600.109 -0.101901 -1.5727 0
M  V30 6306 C 601.072 0.840129 -2.13247 0
M  V30 6307 C 602.072 1.20625 -1.06331 0
M  V30 6308 O 603.262 1.13456 -1.32186 0
M  V30 6309 C 600.394 2.13372 -2.65867 0
M  V30 6310 H 601.587 0.353945 -2.97804 0
M  V30 6311 H 599.14 0.147167 -1.55606 0
M  V30 6312 H 599.875 2.66461 -1.84849 0
M  V30 6313 H 599.66 1.88085 -3.44044 0
M  V30 6314 H 601.15 2.80748 -3.09145 0
M  V30 6315 N 601.587 1.56661 0.17182 0
M  V30 6316 C 602.537 1.92781 1.21736 0
M  V30 6317 C 603.521 0.796065 1.39827 0
M  V30 6318 O 604.713 1.05924 1.41806 0
M  V30 6319 C 601.842 2.29079 2.55691 0
M  V30 6320 C 600.928 3.48765 2.41296 0
M  V30 6321 N 601.319 4.66022 1.96614 0
M  V30 6322 C 599.617 3.53362 2.72124 0
M  V30 6323 C 600.318 5.48159 1.94669 0
M  V30 6324 N 599.294 4.89189 2.37054 0
M  V30 6325 H 603.096 2.80926 0.863592 0
M  V30 6326 H 600.61 1.57889 0.380096 0
M  V30 6327 H 602.607 2.5315 3.31241 0
M  V30 6328 H 601.267 1.42272 2.91871 0
M  V30 6329 H 602.278 4.9025 1.66959 0
M  V30 6330 H 598.955 2.77033 3.12345 0
M  V30 6331 H 600.345 6.52121 1.61826 0
M  V30 6332 N 603.065 -0.440357 1.51323 0
M  V30 6333 C 604.028 -1.51679 1.71832 0
M  V30 6334 C 605.028 -1.49648 0.588386 0
M  V30 6335 O 606.218 -1.51724 0.855891 0
M  V30 6336 C 603.35 -2.91228 1.77199 0
M  V30 6337 H 604.543 -1.34799 2.67898 0
M  V30 6338 H 602.096 -0.66883 1.41267 0
M  V30 6339 H 602.831 -3.13516 0.829363 0
M  V30 6340 H 602.616 -2.94107 2.59314 0
M  V30 6341 H 604.106 -3.69321 1.94915 0
M  V30 6342 N 604.543 -1.41418 -0.695603 0
M  V30 6343 C 605.491 -1.43467 -1.83084 0
M  V30 6344 C 606.485 -0.312719 -1.66489 0
M  V30 6345 O 607.691 -0.484744 -1.7335 0
M  V30 6346 H 604.066 -0.448891 -0.603325 0
M  V30 6347 H 606.037 -2.39144 -1.78473 0
M  V30 6348 C 604.786 -1.3337 -3.21104 0
M  V30 6349 H 604.109 -2.18989 -3.3449 0
M  V30 6350 H 605.549 -1.38865 -4.00615 0
M  V30 6351 C 604.008 -0.0460484 -3.36869 0
M  V30 6352 O 604.538 0.909258 -3.91274 0
M  V30 6353 N 602.744 0.0300222 -2.90584 0
M  V30 6354 H 602.291 -0.748129 -2.46497 0
M  V30 6355 H 602.249 0.890991 -3.01511 0
M  V30 6356 N 606.021 0.929856 -1.27246 0
M  V30 6357 C 607.251 1.70895 -1.16096 0
M  V30 6358 C 607.659 1.87039 0.285122 0
M  V30 6359 O 607.002 1.38557 1.20614 0
M  V30 6360 C 607.064 3.12919 -1.7698 0
M  V30 6361 C 606.728 3.2012 -3.26148 0
M  V30 6362 C 607.725 3.02533 -4.22812 0
M  V30 6363 C 605.41 3.43148 -3.66817 0
M  V30 6364 C 607.404 3.07861 -5.58122 0
M  V30 6365 C 605.091 3.48109 -5.02258 0
M  V30 6366 C 606.089 3.30483 -5.97721 0
M  V30 6367 O 605.777 3.35175 -7.30694 0
M  V30 6368 H 605.509 0.54152 -0.404639 0
M  V30 6369 H 608.063 1.17342 -1.68582 0
M  V30 6370 H 606.293 3.67945 -1.18969 0
M  V30 6371 H 607.982 3.72787 -1.60576 0
M  V30 6372 H 608.748 2.84586 -3.92728 0
M  V30 6373 H 604.627 3.55918 -2.9299 0
M  V30 6374 H 608.171 2.94021 -6.32612 0
M  V30 6375 H 604.068 3.65579 -5.31998 0
M  V30 6376 H 604.836 3.51644 -7.39114 0
M  V30 6377 N 607.499 1.09233 1.13605 0
M  V30 6378 C 608.727 0.848908 1.88683 0
M  V30 6379 C 609.142 -0.599667 1.79024 0
M  V30 6380 O 608.499 -1.41265 1.15544 0
M  V30 6381 C 608.55 1.27273 3.38355 0
M  V30 6382 O 608.271 2.66449 3.47759 0
M  V30 6383 C 609.772 1.0614 4.30406 0
M  V30 6384 H 606.992 0.305549 0.597395 0
M  V30 6385 H 609.536 1.4538 1.43823 0
M  V30 6386 H 607.691 0.711776 3.80805 0
M  V30 6387 H 608.105 2.84264 4.40788 0
M  V30 6388 H 609.579 1.40725 5.33761 0
M  V30 6389 H 610.056 -0.000960332 4.392 0
M  V30 6390 H 610.662 1.60821 3.93722 0
M  V30 6391 N 608.977 -1.30795 0.87923 0
M  V30 6392 C 610.224 -1.96362 0.494786 0
M  V30 6393 C 610.552 -1.69448 -0.954868 0
M  V30 6394 O 609.807 -0.988711 -1.68888 0
M  V30 6395 C 610.106 -3.50287 0.709476 0
M  V30 6396 C 609.772 -3.9724 2.13333 0
M  V30 6397 C 608.434 -4.09772 2.52271 0
M  V30 6398 C 610.786 -4.21807 3.06151 0
M  V30 6399 C 608.114 -4.44227 3.83248 0
M  V30 6400 C 610.466 -4.5773 4.36654 0
M  V30 6401 C 609.13 -4.68469 4.75492 0
M  V30 6402 H 608.4 -0.71854 0.181055 0
M  V30 6403 H 611.047 -1.55764 1.11399 0
M  V30 6404 H 609.352 -3.91799 0.0072 0
M  V30 6405 H 611.049 -3.99082 0.391703 0
M  V30 6406 H 607.639 -3.87988 1.82107 0
M  V30 6407 H 611.823 -4.11611 2.77291 0
M  V30 6408 H 607.079 -4.50741 4.13089 0
M  V30 6409 H 611.253 -4.7569 5.08617 0
M  V30 6410 H 608.88 -4.94923 5.77022 0
M  V30 6411 N 610.455 -0.639598 -1.44038 0
M  V30 6412 C 611.365 0.0612377 -2.3452 0
M  V30 6413 C 612.381 0.826717 -1.53106 0
M  V30 6414 O 613.557 0.777059 -1.85806 0
M  V30 6415 C 610.622 1.02492 -3.31204 0
M  V30 6416 C 609.683 0.25788 -4.28525 0
M  V30 6417 C 608.916 1.17566 -5.2059 0
M  V30 6418 O 609.139 2.41461 -5.16771 0
M  V30 6419 O 608.073 0.655407 -5.98321 0
M  V30 6420 H 611.899 -0.68318 -2.95916 0
M  V30 6421 H 609.484 -0.399784 -1.43952 0
M  V30 6422 H 611.366 1.57911 -3.90694 0
M  V30 6423 H 610.041 1.7498 -2.7233 0
M  V30 6424 H 608.948 -0.339566 -3.72556 0
M  V30 6425 H 610.281 -0.427154 -4.90343 0
M  V30 6426 N 611.933 1.52934 -0.380664 0
M  V30 6427 C 613.179 2.01765 0.20458 0
M  V30 6428 C 613.512 1.26696 1.47179 0
M  V30 6429 O 612.787 0.364936 1.91046 0
M  V30 6430 C 613.07 3.56869 0.481269 0
M  V30 6431 C 612.923 4.42617 -0.800629 0
M  V30 6432 C 614.242 4.2121 1.27554 0
M  V30 6433 H 611.361 0.733388 0.0728803 0
M  V30 6434 H 614.003 1.83068 -0.50853 0
M  V30 6435 H 612.153 3.72932 1.08875 0
M  V30 6436 H 613.825 4.38323 -1.43773 0
M  V30 6437 H 612.068 4.09977 -1.4178 0
M  V30 6438 H 612.739 5.49134 -0.561791 0
M  V30 6439 H 615.215 4.09072 0.761514 0
M  V30 6440 H 614.091 5.29732 1.43788 0
M  V30 6441 H 614.352 3.78269 2.28833 0
M  V30 6442 N 613.412 0.11024 1.57214 0
M  V30 6443 C 614.322 -0.857077 2.18383 0
M  V30 6444 C 615.338 -1.29915 1.1575 0
M  V30 6445 O 616.514 -1.36394 1.48184 0
M  V30 6446 C 613.579 -2.09264 2.76423 0
M  V30 6447 C 612.64 -1.70333 3.94063 0
M  V30 6448 C 611.873 -2.87999 4.49324 0
M  V30 6449 O 612.096 -4.0317 4.03497 0
M  V30 6450 O 611.03 -2.6559 5.40135 0
M  V30 6451 H 614.856 -0.366561 3.0148 0
M  V30 6452 H 612.441 -0.114914 1.48957 0
M  V30 6453 H 614.323 -2.81644 3.13456 0
M  V30 6454 H 612.998 -2.57339 1.96363 0
M  V30 6455 H 611.905 -0.950864 3.61814 0
M  V30 6456 H 613.238 -1.27007 4.75531 0
M  V30 6457 N 614.89 -1.56749 -0.16351 0
M  V30 6458 C 615.853 -1.96121 -1.18613 0
M  V30 6459 C 616.853 -0.845765 -1.36761 0
M  V30 6460 O 618.043 -1.11268 -1.34033 0
M  V30 6461 C 615.175 -2.26282 -2.54969 0
M  V30 6462 H 616.368 -2.87639 -0.848764 0
M  V30 6463 H 613.921 -1.50928 -0.406251 0
M  V30 6464 H 614.656 -1.37504 -2.93706 0
M  V30 6465 H 614.441 -3.07595 -2.43162 0
M  V30 6466 H 615.931 -2.57638 -3.28653 0
M  V30 6467 N 616.368 0.432326 -1.51554 0
M  V30 6468 C 617.614 1.18309 -1.64714 0
M  V30 6469 C 617.947 1.90745 -0.364696 0
M  V30 6470 O 617.222 1.8381 0.635936 0
M  V30 6471 C 617.505 2.1961 -2.85383 0
M  V30 6472 C 617.358 1.51223 -4.23617 0
M  V30 6473 C 618.677 3.20538 -3.01569 0
M  V30 6474 H 615.796 0.428751 -0.599451 0
M  V30 6475 H 618.438 0.471689 -1.84052 0
M  V30 6476 H 616.588 2.8028 -2.69027 0
M  V30 6477 H 618.26 0.938516 -4.51652 0
M  V30 6478 H 616.503 0.814501 -4.26085 0
M  V30 6479 H 617.174 2.25024 -5.04052 0
M  V30 6480 H 619.65 2.69926 -3.16669 0
M  V30 6481 H 618.526 3.88706 -3.87555 0
M  V30 6482 H 618.787 3.86933 -2.13859 0
M  V30 6483 N 617.846 1.41785 0.688094 0
M  V30 6484 C 618.794 1.44436 1.82321 0
M  V30 6485 C 619.788 0.321544 1.6632 0
M  V30 6486 O 620.994 0.493931 1.73091 0
M  V30 6487 H 617.369 0.452084 0.600936 0
M  V30 6488 H 619.34 2.40087 1.77202 0
M  V30 6489 C 618.089 1.35071 3.20392 0
M  V30 6490 H 617.412 2.2076 3.33324 0
M  V30 6491 H 618.852 1.40988 3.99873 0
M  V30 6492 C 617.311 0.0639127 3.36839 0
M  V30 6493 O 617.841 -0.888495 3.91751 0
M  V30 6494 N 616.047 -0.0146114 2.90596 0
M  V30 6495 H 615.594 0.761191 2.46097 0
M  V30 6496 H 615.552 -0.874988 3.01979 0
M  V30 6497 N 619.324 -0.923095 1.27737 0
M  V30 6498 C 620.572 -1.66797 1.14119 0
M  V30 6499 C 620.893 -1.92479 -0.312541 0
M  V30 6500 O 620.163 -1.53432 -1.218 0
M  V30 6501 H 618.743 -0.618196 0.419336 0
M  V30 6502 H 621.405 -1.10815 1.60331 0
M  V30 6503 H 620.501 -2.63424 1.67374 0
M  V30 6504 N 620.802 -1.09834 -1.13024 0
M  V30 6505 C 622.048 -0.83819 -1.84668 0
M  V30 6506 C 622.381 0.634645 -1.83537 0
M  V30 6507 O 621.656 1.46753 -1.27647 0
M  V30 6508 C 621.939 -1.37933 -3.32636 0
M  V30 6509 C 621.792 -2.91857 -3.42257 0
M  V30 6510 C 623.111 -1.01654 -4.28199 0
M  V30 6511 H 620.23 -0.30595 -0.670495 0
M  V30 6512 H 622.872 -1.36044 -1.32635 0
M  V30 6513 H 621.022 -0.935111 -3.77078 0
M  V30 6514 H 622.694 -3.44759 -3.06495 0
M  V30 6515 H 620.937 -3.28776 -2.83 0
M  V30 6516 H 621.608 -3.24799 -4.46329 0
M  V30 6517 H 624.084 -1.39973 -3.9185 0
M  V30 6518 H 622.96 -1.42217 -5.30156 0
M  V30 6519 H 623.221 0.0747794 -4.42037 0
M  V30 6520 N 622.28 1.30327 -0.886154 0
M  V30 6521 C 623.505 2.0079 -0.519425 0
M  V30 6522 C 623.93 1.65979 0.885013 0
M  V30 6523 O 623.288 0.877043 1.58675 0
M  V30 6524 C 623.336 3.53686 -0.702758 0
M  V30 6525 O 622.44 4.11637 0.250828 0
M  V30 6526 H 621.781 0.63171 -0.204544 0
M  V30 6527 H 624.311 1.66145 -1.19402 0
M  V30 6528 H 624.321 4.03531 -0.602207 0
M  V30 6529 H 622.996 3.78361 -1.72673 0
M  V30 6530 H 621.573 3.72755 0.103873 0
M  V30 6531 N 623.758 0.647228 1.43697 0
M  V30 6532 C 625.035 0.0883758 1.954 0
M  V30 6533 C 625.415 -1.39006 1.58873 0
M  V30 6534 O 624.763 -2.11255 0.87083 0
M  V30 6535 C 624.973 0.328263 3.47453 0
M  V30 6536 C 626.321 0.230009 4.23977 0
M  V30 6537 O 627.345 0.260496 3.55246 0
M  V30 6538 O 626.204 0.148615 5.46298 0
M  V30 6539 H 623.298 -0.0130683 0.826897 0
M  V30 6540 H 625.844 0.72005 1.53666 0
M  V30 6541 H 624.616 1.3535 3.67146 0
M  V30 6542 H 624.239 -0.336772 3.96171 0
M  V30 6543 N 625.236 -1.5273 0.388769 0
M  V30 6544 C 626.166 -2.29353 -0.438111 0
M  V30 6545 C 627.147 -1.32719 -1.06394 0
M  V30 6546 O 628.332 -1.61612 -1.07681 0
M  V30 6547 C 625.462 -3.09995 -1.56589 0
M  V30 6548 C 624.416 -4.14509 -1.06613 0
M  V30 6549 C 623.742 -4.83372 -2.28594 0
M  V30 6550 C 625.042 -5.22127 -0.134459 0
M  V30 6551 H 626.736 -2.98723 0.201206 0
M  V30 6552 H 624.282 -1.43665 0.0982089 0
M  V30 6553 H 626.235 -3.62357 -2.15118 0
M  V30 6554 H 624.959 -2.38357 -2.23279 0
M  V30 6555 H 623.618 -3.63128 -0.503383 0
M  V30 6556 H 623.266 -4.08283 -2.93792 0
M  V30 6557 H 622.966 -5.54012 -1.95817 0
M  V30 6558 H 624.49 -5.38538 -2.87766 0
M  V30 6559 H 625.904 -5.69851 -0.627914 0
M  V30 6560 H 624.301 -6.00011 0.103534 0
M  V30 6561 H 625.371 -4.77971 0.816798 0
M  V30 6562 N 626.714 -0.118576 -1.57153 0
M  V30 6563 C 627.939 0.550582 -1.99958 0
M  V30 6564 C 628.364 1.59458 -0.997736 0
M  V30 6565 O 627.722 1.81274 0.0306269 0
M  V30 6566 C 627.77 1.15379 -3.41643 0
M  V30 6567 O 626.874 2.26932 -3.44348 0
M  V30 6568 H 626.215 0.137567 -0.649593 0
M  V30 6569 H 628.745 -0.206926 -2.03551 0
M  V30 6570 H 628.755 1.48942 -3.79843 0
M  V30 6571 H 627.43 0.389087 -4.14076 0
M  V30 6572 H 626.007 1.94812 -3.17967 0
M  V30 6573 N 628.193 1.56834 0.155195 0
M  V30 6574 C 629.609 1.51315 0.50755 0
M  V30 6575 C 629.809 0.825614 1.83809 0
M  V30 6576 O 628.865 0.39271 2.49427 0
M  V30 6577 C 630.178 2.96074 0.52542 0
M  V30 6578 C 631.726 3.06968 0.611505 0
M  V30 6579 C 632.201 4.53218 0.660115 0
M  V30 6580 N 633.692 4.5753 0.722564 0
M  V30 6581 C 634.427 5.68056 0.781023 0
M  V30 6582 N 633.923 6.88173 0.799327 0
M  V30 6583 N 635.716 5.56068 0.821278 0
M  V30 6584 H 627.867 1.9993 -0.717063 0
M  V30 6585 H 630.13 0.911507 -0.260496 0
M  V30 6586 H 629.836 3.49599 -0.383875 0
M  V30 6587 H 629.71 3.51587 1.36624 0
M  V30 6588 H 632.097 2.53468 1.51122 0
M  V30 6589 H 632.178 2.54513 -0.256306 0
M  V30 6590 H 631.822 5.07354 -0.23541 0
M  V30 6591 H 631.752 5.03447 1.5443 0
M  V30 6592 H 634.243 3.71054 0.716049 0
M  V30 6593 H 634.556 7.6816 0.845553 0
M  V30 6594 H 632.901 6.90751 0.767337 0
M  V30 6595 H 636.092 4.61142 0.804091 0
M  V30 6596 H 636.265 6.42223 0.863372 0
M  V30 6597 N 629.671 -0.424282 1.51781 0
M  V30 6598 C 630.896 -1.19928 1.6921 0
M  V30 6599 C 631.321 -1.8392 0.394355 0
M  V30 6600 O 630.679 -1.69371 -0.646778 0
M  V30 6601 C 630.727 -2.24937 2.81843 0
M  V30 6602 O 629.831 -3.3073 2.46356 0
M  V30 6603 H 629.172 -0.35078 0.563781 0
M  V30 6604 H 631.702 -0.499401 1.98412 0
M  V30 6605 H 631.712 -2.69512 3.06312 0
M  V30 6606 H 630.387 -1.77742 3.76006 0
M  V30 6607 H 628.964 -2.9154 2.32505 0
M  V30 6608 N 631.149 -1.42148 -0.680565 0
M  V30 6609 C 632.081 -1.41119 -1.80605 0
M  V30 6610 C 633.094 -0.311099 -1.598 0
M  V30 6611 O 634.283 -0.573813 -1.69026 0
M  V30 6612 C 631.383 -1.18204 -3.17618 0
M  V30 6613 C 630.556 -2.40537 -3.65322 0
M  V30 6614 C 629.615 -2.13254 -4.8105 0
M  V30 6615 O 628.641 -2.8641 -4.91892 0
M  V30 6616 N 629.843 -1.13208 -5.69354 0
M  V30 6617 H 632.608 -2.38128 -1.81975 0
M  V30 6618 H 630.169 -1.36953 -0.863446 0
M  V30 6619 H 632.161 -0.97878 -3.92686 0
M  V30 6620 H 630.731 -0.29738 -3.11182 0
M  V30 6621 H 629.951 -2.76468 -2.80996 0
M  V30 6622 H 631.239 -3.22012 -3.93936 0
M  V30 6623 H 630.637 -0.526893 -5.63241 0
M  V30 6624 H 629.194 -0.988699 -6.44258 0
M  V30 6625 N 632.627 0.916307 -1.28225 0
M  V30 6626 C 634.043 1.19425 -1.05876 0
M  V30 6627 C 634.243 2.005 0.2005 0
M  V30 6628 O 633.299 2.35806 0.902873 0
M  V30 6629 C 634.612 1.93133 -2.30478 0
M  V30 6630 C 636.16 2.06026 -2.35632 0
M  V30 6631 C 636.635 2.83141 -3.59994 0
M  V30 6632 N 638.126 2.90704 -3.60618 0
M  V30 6633 C 638.861 3.50865 -4.53521 0
M  V30 6634 N 638.357 4.12327 -5.56739 0
M  V30 6635 N 640.15 3.48379 -4.41122 0
M  V30 6636 H 632.301 0.37496 -2.09064 0
M  V30 6637 H 634.564 0.228531 -0.920042 0
M  V30 6638 H 634.27 1.40985 -3.22205 0
M  V30 6639 H 634.144 2.93696 -2.36691 0
M  V30 6640 H 636.531 2.57355 -1.44404 0
M  V30 6641 H 636.612 1.04647 -2.33415 0
M  V30 6642 H 636.256 2.32492 -4.51564 0
M  V30 6643 H 636.186 3.84829 -3.59464 0
M  V30 6644 H 638.677 2.47034 -2.85977 0
M  V30 6645 H 638.99 4.56205 -6.23776 0
M  V30 6646 H 637.335 4.10839 -5.60568 0
M  V30 6647 H 640.526 2.99572 -3.59686 0
M  V30 6648 H 640.699 3.94974 -5.13712 0
M  V30 6649 N 634.105 1.10431 1.1244 0
M  V30 6650 C 635.035 0.775143 2.20258 0
M  V30 6651 C 636.016 -0.25186 1.68225 0
M  V30 6652 O 637.201 -0.117637 1.93843 0
M  V30 6653 C 634.331 0.206133 3.46688 0
M  V30 6654 C 633.285 1.16382 4.11873 0
M  V30 6655 C 632.611 0.456014 5.32752 0
M  V30 6656 C 633.911 2.5104 4.58013 0
M  V30 6657 H 635.605 1.67665 2.4805 0
M  V30 6658 H 633.151 0.807595 1.19222 0
M  V30 6659 H 635.104 -0.036291 4.21384 0
M  V30 6660 H 633.828 -0.730614 3.18323 0
M  V30 6661 H 632.487 1.39169 3.39157 0
M  V30 6662 H 632.135 -0.485203 5.00654 0
M  V30 6663 H 631.835 1.09466 5.77314 0
M  V30 6664 H 633.359 0.222135 6.10196 0
M  V30 6665 H 634.773 2.32401 5.24083 0
M  V30 6666 H 633.17 3.10789 5.13352 0
M  V30 6667 H 634.24 3.11039 3.71998 0
M  V30 6668 N 635.583 -1.29855 0.893053 0
M  V30 6669 C 636.83 -1.95826 0.515585 0
M  V30 6670 C 637.158 -1.70451 -0.936842 0
M  V30 6671 O 636.413 -1.00657 -1.67829 0
M  V30 6672 C 636.712 -3.49515 0.746588 0
M  V30 6673 C 636.378 -3.94955 2.17535 0
M  V30 6674 C 635.04 -4.07073 2.56603 0
M  V30 6675 C 637.392 -4.18536 3.10607 0
M  V30 6676 C 634.72 -4.40138 3.87938 0
M  V30 6677 C 637.072 -4.53073 4.41484 0
M  V30 6678 C 635.736 -4.634 4.80434 0
M  V30 6679 H 635.006 -0.71658 0.188666 0
M  V30 6680 H 637.653 -1.54574 1.13045 0
M  V30 6681 H 635.958 -3.9177 0.0487551 0
M  V30 6682 H 637.655 -3.98644 0.434009 0
M  V30 6683 H 634.245 -3.86035 1.86212 0
M  V30 6684 H 638.429 -4.08646 2.81641 0
M  V30 6685 H 633.685 -4.46335 4.17846 0
M  V30 6686 H 637.859 -4.70269 5.13634 0
M  V30 6687 H 635.486 -4.88775 5.82239 0
M  V30 6688 N 637.061 -0.65484 -1.43351 0
M  V30 6689 C 638.024 0.0263562 -2.29185 0
M  V30 6690 C 639.024 0.748951 -1.42293 0
M  V30 6691 O 640.214 0.589957 -1.63906 0
M  V30 6692 C 637.346 1.04806 -3.2439 0
M  V30 6693 H 638.539 -0.728883 -2.90908 0
M  V30 6694 H 636.092 -0.416149 -1.50658 0
M  V30 6695 H 636.827 1.83247 -2.67565 0
M  V30 6696 H 636.612 0.533554 -3.88453 0
M  V30 6697 H 638.102 1.52372 -3.88809 0
M  V30 6698 N 638.539 1.52521 -0.396863 0
M  V30 6699 C 639.502 2.2527 0.422604 0
M  V30 6700 C 640.502 1.27184 0.983913 0
M  V30 6701 O 641.692 1.51222 0.864723 0
M  V30 6702 C 638.824 3.01356 1.59365 0
M  V30 6703 H 640.017 2.99133 -0.214416 0
M  V30 6704 H 637.57 1.55587 -0.149128 0
M  V30 6705 H 638.305 2.31813 2.26789 0
M  V30 6706 H 638.09 3.73357 1.19779 0
M  V30 6707 H 639.58 3.56571 2.17363 0
M  V30 6708 N 640.017 0.126909 1.57088 0
M  V30 6709 C 641.263 -0.529952 1.95753 0
M  V30 6710 C 641.596 -1.65823 1.01077 0
M  V30 6711 O 640.871 -1.94437 0.0494162 0
M  V30 6712 C 641.154 -1.05517 3.44294 0
M  V30 6713 C 641.007 0.0702253 4.49745 0
M  V30 6714 C 642.326 -1.9435 3.94862 0
M  V30 6715 H 639.445 -0.191168 0.711775 0
M  V30 6716 H 642.087 0.204071 1.88901 0
M  V30 6717 H 640.237 -1.68069 3.50264 0
M  V30 6718 H 641.909 0.705834 4.55868 0
M  V30 6719 H 640.152 0.732259 4.27575 0
M  V30 6720 H 640.823 -0.338642 5.5096 0
M  V30 6721 H 643.299 -1.41658 3.91244 0
M  V30 6722 H 642.175 -2.28015 4.993 0
M  V30 6723 H 642.436 -2.87299 3.36024 0
M  V30 6724 N 641.495 -1.56914 -0.146875 0
M  V30 6725 C 642.72 -1.87881 -0.878386 0
M  V30 6726 C 643.145 -0.715945 -1.73942 0
M  V30 6727 O 642.503 0.334447 -1.78189 0
M  V30 6728 C 642.551 -3.17431 -1.71084 0
M  V30 6729 O 641.655 -3.01374 -2.81509 0
M  V30 6730 H 640.996 -0.617289 -0.244644 0
M  V30 6731 H 643.526 -2.04136 -0.137654 0
M  V30 6732 H 643.536 -3.49455 -2.10582 0
M  V30 6733 H 642.211 -4.01671 -1.07856 0
M  V30 6734 H 640.788 -2.80758 -2.45416 0
M  V30 6735 N 642.974 0.416227 -1.52004 0
M  V30 6736 C 644.223 1.16088 -1.64944 0
M  V30 6737 C 644.536 1.91835 -0.381928 0
M  V30 6738 O 645.742 2.6867 -0.391013 0
M  V30 6739 C 644.198 2.1124 -2.91386 0
M  V30 6740 C 643.806 1.41042 -4.25219 0
M  V30 6741 C 645.55 2.86008 -3.13688 0
M  V30 6742 C 643.457 2.34801 -5.42791 0
M  V30 6743 H 642.387 0.437041 -0.61442 0
M  V30 6744 H 645.038 0.425971 -1.78487 0
M  V30 6745 H 643.42 2.88254 -2.71525 0
M  V30 6746 H 644.594 0.694416 -4.55538 0
M  V30 6747 H 642.909 0.78344 -4.08964 0
M  V30 6748 H 645.506 3.56286 -3.98703 0
M  V30 6749 H 645.849 3.48556 -2.27628 0
M  V30 6750 H 646.382 2.16095 -3.33988 0
M  V30 6751 H 643.121 1.7691 -6.31176 0
M  V30 6752 H 642.641 3.04395 -5.16821 0
M  V30 6753 H 644.32 2.9548 -5.75587 0
M  V30 6754 N 644.452 1.42507 0.673017 0
M  V30 6755 C 645.68 1.46473 1.46128 0
M  V30 6756 C 646.095 0.0765912 1.88645 0
M  V30 6757 O 645.452 -0.909057 1.58248 0
M  V30 6758 C 645.503 2.39339 2.70923 0
M  V30 6759 O 645.224 3.72752 2.3019 0
M  V30 6760 C 646.725 2.52343 3.64469 0
M  V30 6761 H 643.945 0.49812 0.449575 0
M  V30 6762 H 646.489 1.87041 0.826802 0
M  V30 6763 H 644.644 2.02019 3.30556 0
M  V30 6764 H 645.058 4.22503 3.10791 0
M  V30 6765 H 646.532 3.2144 4.48754 0
M  V30 6766 H 647.009 1.56189 4.1049 0
M  V30 6767 H 647.615 2.90392 3.10729 0
M  V30 6768 N 645.93 -0.909495 1.28709 0
M  V30 6769 C 647.158 -1.69272 1.18973 0
M  V30 6770 C 647.573 -1.87123 -0.251048 0
M  V30 6771 O 646.93 -1.40127 -1.16922 0
M  V30 6772 C 646.981 -3.08257 1.88839 0
M  V30 6773 O 646.702 -2.91228 3.27289 0
M  V30 6774 C 648.203 -4.02642 1.85457 0
M  V30 6775 H 645.423 -0.528999 0.412797 0
M  V30 6776 H 647.967 -1.13803 1.69909 0
M  V30 6777 H 646.122 -3.6053 1.41762 0
M  V30 6778 H 646.536 -3.79223 3.6234 0
M  V30 6779 H 648.01 -4.97613 2.38925 0
M  V30 6780 H 648.487 -4.31327 0.827893 0
M  V30 6781 H 649.093 -3.56298 2.32233 0
M  V30 6782 N 647.408 -1.11026 -1.11852 0
M  V30 6783 C 648.656 -0.854769 -1.83134 0
M  V30 6784 C 648.977 0.621375 -1.84835 0
M  V30 6785 O 648.247 1.45129 -1.31584 0
M  V30 6786 H 646.827 -0.313229 -0.678157 0
M  V30 6787 H 649.489 -1.40178 -1.35411 0
M  V30 6788 H 648.585 -1.22311 -2.87135 0
M  V30 6789 N 648.886 1.2938 -0.899927 0
M  V30 6790 C 649.818 2.26737 -0.335139 0
M  V30 6791 C 650.831 1.54316 0.518681 0
M  V30 6792 O 652.02 1.75313 0.335803 0
M  V30 6793 C 649.12 3.34558 0.540774 0
M  V30 6794 C 648.293 4.36455 -0.287372 0
M  V30 6795 C 647.352 5.2361 0.52141 0
M  V30 6796 O 646.378 5.69167 -0.0611735 0
M  V30 6797 N 647.58 5.50985 1.82745 0
M  V30 6798 H 650.345 2.75838 -1.17191 0
M  V30 6799 H 647.906 1.42716 -0.764438 0
M  V30 6800 H 649.898 3.89794 1.08825 0
M  V30 6801 H 648.468 2.85272 1.27823 0
M  V30 6802 H 647.688 3.80875 -1.01626 0
M  V30 6803 H 648.976 5.01573 -0.854518 0
M  V30 6804 H 648.374 5.15781 2.32349 0
M  V30 6805 H 646.931 6.09036 2.32204 0
M  V30 6806 N 650.364 0.662433 1.43002 0
M  V30 6807 C 651.327 -0.0142016 2.29196 0
M  V30 6808 C 652.327 -0.741394 1.42688 0
M  V30 6809 O 653.517 -0.581257 1.64216 0
M  V30 6810 C 650.649 -1.03084 3.24941 0
M  V30 6811 H 651.842 0.7443 2.90517 0
M  V30 6812 H 649.395 0.424133 1.50435 0
M  V30 6813 H 650.13 -1.81826 2.68533 0
M  V30 6814 H 649.915 -0.512946 3.8873 0
M  V30 6815 H 651.405 -1.50308 3.89612 0
M  V30 6816 N 651.842 -1.52309 0.404946 0
M  V30 6817 C 652.805 -2.25491 -0.410651 0
M  V30 6818 C 653.805 -1.27704 -0.977154 0
M  V30 6819 O 654.995 -1.51679 -0.856691 0
M  V30 6820 C 652.127 -3.02197 -1.57765 0
M  V30 6821 H 653.32 -2.99015 0.230277 0
M  V30 6822 H 650.873 -1.55506 0.157377 0
M  V30 6823 H 651.608 -2.33013 -2.25556 0
M  V30 6824 H 651.393 -3.73987 -1.17797 0
M  V30 6825 H 652.883 -3.57719 -2.15469 0
M  V30 6826 N 653.32 -0.135238 -1.57019 0
M  V30 6827 C 654.731 0.387521 -1.82634 0
M  V30 6828 C 655.082 1.65528 -1.05332 0
M  V30 6829 O 654.207 2.14381 -0.294926 0
M  V30 6830 C 654.802 0.709852 -3.3128 0
M  V30 6831 C 653.361 1.17718 -3.57518 0
M  V30 6832 C 652.508 0.194183 -2.76619 0
M  V30 6833 H 655.459 -0.360126 -1.5456 0
M  V30 6834 H 655.48 1.5657 -3.46794 0
M  V30 6835 H 654.992 -0.213024 -3.87515 0
M  V30 6836 H 653.093 2.1164 -3.06658 0
M  V30 6837 H 653.206 1.11128 -4.66034 0
M  V30 6838 H 651.57 0.684478 -2.4533 0
M  V30 6839 H 652.353 -0.722076 -3.3562 0
M  V30 6840 N 654.798 1.5699 0.138552 0
M  V30 6841 C 656.023 1.88344 0.86841 0
M  V30 6842 C 656.448 0.725159 1.7356 0
M  V30 6843 O 655.806 -0.324992 1.78363 0
M  V30 6844 C 655.854 3.18334 1.69398 0
M  V30 6845 O 654.958 3.02863 2.79907 0
M  V30 6846 H 654.299 0.618577 0.241367 0
M  V30 6847 H 656.829 2.04207 0.126826 0
M  V30 6848 H 656.839 3.50567 2.08726 0
M  V30 6849 H 655.514 4.02238 1.05725 0
M  V30 6850 H 654.091 2.82056 2.43924 0
M  V30 6851 N 656.276 -0.40816 1.52223 0
M  V30 6852 C 657.208 -1.51642 1.71864 0
M  V30 6853 C 658.221 -1.51378 0.599056 0
M  V30 6854 O 659.41 -1.55626 0.874239 0
M  V30 6855 C 656.51 -2.90534 1.74481 0
M  V30 6856 C 655.683 -3.14979 3.03491 0
M  V30 6857 C 654.742 -4.33749 2.97907 0
M  V30 6858 O 653.768 -4.30982 3.71811 0
M  V30 6859 N 654.97 -5.38912 2.15764 0
M  V30 6860 H 657.735 -1.35188 2.67478 0
M  V30 6861 H 655.296 -0.597468 1.50472 0
M  V30 6862 H 657.288 -3.68056 1.68275 0
M  V30 6863 H 655.858 -3.00441 0.863363 0
M  V30 6864 H 655.078 -2.25492 3.23337 0
M  V30 6865 H 656.366 -3.28156 3.88833 0
M  V30 6866 H 655.764 -5.44008 1.55152 0
M  V30 6867 H 654.321 -6.15174 2.15415 0
M  V30 6868 N 657.755 -1.42862 -0.66545 0
M  V30 6869 C 659.001 -1.44043 -1.42757 0
M  V30 6870 C 659.334 -0.0599629 -1.94107 0
M  V30 6871 O 658.609 0.917286 -1.71511 0
M  V30 6872 C 658.892 -2.47266 -2.61786 0
M  V30 6873 C 658.745 -3.94539 -2.16007 0
M  V30 6874 C 660.064 -2.47365 -3.64003 0
M  V30 6875 H 657.183 -0.524506 -0.517748 0
M  V30 6876 H 659.825 -1.74335 -0.755466 0
M  V30 6877 H 657.975 -2.21565 -3.19126 0
M  V30 6878 H 659.647 -4.31254 -1.63762 0
M  V30 6879 H 657.89 -4.07957 -1.47491 0
M  V30 6880 H 658.561 -4.62357 -3.01546 0
M  V30 6881 H 661.037 -2.70243 -3.16399 0
M  V30 6882 H 659.913 -3.21552 -4.44854 0
M  V30 6883 H 660.174 -1.50299 -4.15767 0
M  V30 6884 N 659.233 0.902656 -1.29189 0
M  V30 6885 C 660.458 1.69167 -1.19989 0
M  V30 6886 C 660.883 1.86607 0.236495 0
M  V30 6887 O 660.241 1.38425 1.17082 0
M  V30 6888 C 660.289 3.05532 -1.91527 0
M  V30 6889 O 659.393 3.93621 -1.2303 0
M  V30 6890 H 658.734 0.517584 -0.415936 0
M  V30 6891 H 661.264 1.12785 -1.70706 0
M  V30 6892 H 661.274 3.55693 -1.99866 0
M  V30 6893 H 659.949 2.92156 -2.96003 0
M  V30 6894 H 658.526 3.52055 -1.22928 0
M  V30 6895 N 660.711 1.11618 1.11262 0
M  V30 6896 C 661.959 0.864469 1.82678 0
M  V30 6897 C 662.28 -0.611564 1.85162 0
M  V30 6898 O 661.55 -1.44429 1.32352 0
M  V30 6899 H 660.13 0.316821 0.676486 0
M  V30 6900 H 662.792 1.40894 1.34666 0
M  V30 6901 H 661.888 1.23832 2.86482 0
M  V30 6902 N 662.189 -1.289 0.906776 0
M  V30 6903 C 663.435 -1.95558 0.53712 0
M  V30 6904 C 663.768 -1.71262 -0.915582 0
M  V30 6905 O 663.043 -1.02961 -1.65013 0
M  V30 6906 C 663.326 -3.50198 0.838645 0
M  V30 6907 C 663.179 -3.83923 2.34357 0
M  V30 6908 C 664.498 -4.38861 0.329988 0
M  V30 6909 H 661.617 -0.710289 0.196617 0
M  V30 6910 H 664.259 -1.52392 1.13475 0
M  V30 6911 H 662.409 -3.87096 0.330024 0
M  V30 6912 H 664.081 -3.56933 2.92227 0
M  V30 6913 H 662.324 -3.31215 2.80141 0
M  V30 6914 H 662.995 -4.91883 2.5051 0
M  V30 6915 H 665.471 -4.08996 0.765609 0
M  V30 6916 H 664.347 -5.45931 0.570105 0
M  V30 6917 H 664.608 -4.35352 -0.769511 0
M  V30 6918 N 663.667 -0.670007 -1.42649 0
M  V30 6919 C 664.6 0.0613623 -2.28117 0
M  V30 6920 C 665.578 0.813414 -1.40792 0
M  V30 6921 O 666.762 0.809529 -1.70232 0
M  V30 6922 C 663.889 1.09399 -3.20546 0
M  V30 6923 C 662.935 0.438064 -4.24244 0
M  V30 6924 S 663.768 -0.800808 -5.29478 0
M  V30 6925 C 664.924 0.23086 -6.25474 0
M  V30 6926 H 665.157 -0.663606 -2.89799 0
M  V30 6927 H 662.69 -0.45939 -1.47407 0
M  V30 6928 H 664.648 1.68469 -3.74337 0
M  V30 6929 H 663.309 1.79137 -2.58009 0
M  V30 6930 H 662.502 1.21707 -4.89084 0
M  V30 6931 H 662.104 -0.0789346 -3.73917 0
M  V30 6932 H 664.396 1.09204 -6.68641 0
M  V30 6933 H 665.339 -0.382945 -7.07064 0
M  V30 6934 H 665.747 0.574191 -5.61572 0
M  V30 6935 N 665.145 1.52092 -0.413018 0
M  V30 6936 C 666.092 2.27119 0.410558 0
M  V30 6937 C 667.062 1.29692 1.03774 0
M  V30 6938 O 668.247 1.58561 1.06128 0
M  V30 6939 C 665.387 3.09863 1.51918 0
M  V30 6940 C 664.5 4.22252 0.912528 0
M  V30 6941 C 663.635 4.92348 1.99417 0
M  V30 6942 C 662.674 5.96694 1.36466 0
M  V30 6943 N 661.811 6.60292 2.38661 0
M  V30 6944 H 666.651 2.97067 -0.235661 0
M  V30 6945 H 664.188 1.46542 -0.128055 0
M  V30 6946 H 666.146 3.56144 2.17295 0
M  V30 6947 H 664.776 2.42078 2.13537 0
M  V30 6948 H 663.828 3.80113 0.147697 0
M  V30 6949 H 665.14 4.9709 0.412717 0
M  V30 6950 H 664.294 5.42054 2.72512 0
M  V30 6951 H 663.033 4.17087 2.52764 0
M  V30 6952 H 662.038 5.46304 0.61906 0
M  V30 6953 H 663.263 6.73899 0.838827 0
M  V30 6954 H 661.209 5.87858 2.91134 0
M  V30 6955 H 661.126 7.30816 1.93503 0
M  V30 6956 H 662.394 7.14635 3.11314 0
M  V30 6957 N 666.623 0.143563 1.56945 0
M  V30 6958 C 667.533 -0.810562 2.20152 0
M  V30 6959 C 668.549 -1.27431 1.1848 0
M  V30 6960 O 669.725 -1.33221 1.51044 0
M  V30 6961 C 666.79 -2.03353 2.80799 0
M  V30 6962 C 665.851 -1.61936 3.97587 0
M  V30 6963 C 665.084 -2.78403 4.55332 0
M  V30 6964 O 665.307 -3.94521 4.11958 0
M  V30 6965 O 664.241 -2.54073 5.45647 0
M  V30 6966 H 668.067 -0.30253 3.02189 0
M  V30 6967 H 665.652 -0.0832925 1.49168 0
M  V30 6968 H 667.534 -2.74932 3.19359 0
M  V30 6969 H 666.209 -2.53116 2.01777 0
M  V30 6970 H 665.116 -0.873904 3.6375 0
M  V30 6971 H 666.449 -1.16892 4.78118 0
M  V30 6972 N 668.101 -1.57061 -0.130224 0
M  V30 6973 C 669.517 -1.52103 -0.483413 0
M  V30 6974 C 669.717 -0.854752 -1.82473 0
M  V30 6975 O 668.773 -0.432342 -2.48771 0
M  V30 6976 C 670.086 -2.96872 -0.47825 0
M  V30 6977 C 671.634 -3.07902 -0.562592 0
M  V30 6978 C 672.109 -4.54211 -0.587929 0
M  V30 6979 N 673.6 -4.58621 -0.649684 0
M  V30 6980 C 674.335 -5.69227 -0.690551 0
M  V30 6981 N 673.831 -6.89358 -0.689743 0
M  V30 6982 N 675.624 -5.57304 -0.732708 0
M  V30 6983 H 667.775 -1.98764 0.748779 0
M  V30 6984 H 670.038 -0.907248 0.274965 0
M  V30 6985 H 669.744 -3.48944 0.439444 0
M  V30 6986 H 669.618 -3.53716 -1.31013 0
M  V30 6987 H 672.005 -2.5584 -1.47071 0
M  V30 6988 H 672.086 -2.54073 0.296764 0
M  V30 6989 H 671.73 -5.06915 0.316096 0
M  V30 6990 H 671.66 -5.0584 -1.46401 0
M  V30 6991 H 674.151 -3.72146 -0.656927 0
M  V30 6992 H 674.464 -7.69408 -0.723239 0
M  V30 6993 H 672.809 -6.91884 -0.657347 0
M  V30 6994 H 676 -4.62363 -0.730625 0
M  V30 6995 H 676.173 -6.43515 -0.76109 0
M  V30 6996 N 669.579 0.400081 -1.52437 0
M  V30 6997 C 670.825 1.14788 -1.67187 0
M  V30 6998 C 671.158 1.89928 -0.405074 0
M  V30 6999 O 670.433 1.85118 0.596804 0
M  V30 7000 C 670.716 2.13507 -2.89977 0
M  V30 7001 C 670.569 1.42204 -4.2673 0
M  V30 7002 C 671.888 3.14069 -3.083 0
M  V30 7003 H 669.007 0.415939 -0.608411 0
M  V30 7004 H 671.649 0.432542 -1.85011 0
M  V30 7005 H 669.799 2.7451 -2.74912 0
M  V30 7006 H 671.471 0.842503 -4.53541 0
M  V30 7007 H 669.714 0.723939 -4.27717 0
M  V30 7008 H 670.385 2.14281 -5.08712 0
M  V30 7009 H 672.861 2.63148 -3.22323 0
M  V30 7010 H 671.737 3.80398 -3.95713 0
M  V30 7011 H 671.998 3.82309 -2.22018 0
M  V30 7012 N 671.057 1.43213 0.657864 0
M  V30 7013 C 671.987 1.50815 1.78262 0
M  V30 7014 C 672.968 0.363211 1.66177 0
M  V30 7015 O 674.153 0.579806 1.85343 0
M  V30 7016 C 671.283 1.42625 3.16663 0
M  V30 7017 C 670.237 2.5532 3.43505 0
M  V30 7018 C 669.563 2.32184 4.81658 0
M  V30 7019 C 670.863 3.97583 3.38711 0
M  V30 7020 H 672.557 2.44954 1.72157 0
M  V30 7021 H 670.103 1.17896 0.82683 0
M  V30 7022 H 672.056 1.46548 3.95097 0
M  V30 7023 H 670.78 0.449877 3.23487 0
M  V30 7024 H 669.439 2.50742 2.6744 0
M  V30 7025 H 669.087 1.32801 4.85153 0
M  V30 7026 H 668.787 3.07724 5.00579 0
M  V30 7027 H 670.311 2.37883 5.62356 0
M  V30 7028 H 671.725 4.03673 4.07089 0
M  V30 7029 H 670.122 4.73112 3.69168 0
M  V30 7030 H 671.192 4.23049 2.36976 0
M  V30 7031 N 672.536 -0.895792 1.29666 0
M  V30 7032 C 673.468 -2.00563 1.10937 0
M  V30 7033 C 674.481 -1.62705 0.055734 0
M  V30 7034 O 675.67 -1.7595 0.300656 0
M  V30 7035 C 672.77 -3.32262 0.667448 0
M  V30 7036 C 671.943 -3.98625 1.80047 0
M  V30 7037 C 671.002 -5.08617 1.3489 0
M  V30 7038 O 670.028 -5.30837 2.05429 0
M  V30 7039 N 671.23 -5.80076 0.221937 0
M  V30 7040 H 673.995 -2.17184 2.06522 0
M  V30 7041 H 671.556 -1.06822 1.21658 0
M  V30 7042 H 673.548 -4.03196 0.348586 0
M  V30 7043 H 672.118 -3.11985 -0.196055 0
M  V30 7044 H 671.338 -3.21005 2.28801 0
M  V30 7045 H 672.626 -4.39704 2.56003 0
M  V30 7046 H 672.024 -5.64514 -0.366084 0
M  V30 7047 H 670.581 -6.51789 -0.0375346 0
M  V30 7048 N 674.014 -1.12206 -1.10668 0
M  V30 7049 C 675.43 -0.857619 -1.346 0
M  V30 7050 C 675.63 0.513542 -1.94846 0
M  V30 7051 O 674.686 1.26273 -2.18658 0
M  V30 7052 C 675.999 -1.97212 -2.26998 0
M  V30 7053 C 677.547 -2.00272 -2.40542 0
M  V30 7054 C 678.022 -3.10948 -3.36267 0
M  V30 7055 N 679.513 -3.10375 -3.43834 0
M  V30 7056 C 680.248 -3.92651 -4.17867 0
M  V30 7057 N 679.744 -4.84911 -4.94807 0
M  V30 7058 N 681.537 -3.80798 -4.1346 0
M  V30 7059 H 673.688 -2.00558 -0.699306 0
M  V30 7060 H 675.951 -0.872612 -0.370477 0
M  V30 7061 H 675.657 -2.96002 -1.89936 0
M  V30 7062 H 675.531 -1.87521 -3.27286 0
M  V30 7063 H 677.918 -1.02103 -2.76874 0
M  V30 7064 H 677.999 -2.14037 -1.40077 0
M  V30 7065 H 677.643 -4.09348 -3.00661 0
M  V30 7066 H 677.573 -2.94421 -4.36605 0
M  V30 7067 H 680.064 -2.43536 -2.88961 0
M  V30 7068 H 680.377 -5.44207 -5.48688 0
M  V30 7069 H 678.722 -4.88926 -4.93939 0
M  V30 7070 H 681.913 -3.08058 -3.52445 0
M  V30 7071 H 682.086 -4.4515 -4.70898 0
M  V30 7072 N 675.492 1.28418 -0.913599 0
M  V30 7073 C 676.717 1.99643 -0.561899 0
M  V30 7074 C 677.142 1.67819 0.849608 0
M  V30 7075 O 676.5 0.910503 1.56779 0
M  V30 7076 C 676.548 3.52116 -0.777622 0
M  V30 7077 O 675.652 4.12076 0.163457 0
M  V30 7078 H 674.993 0.627229 -0.217898 0
M  V30 7079 H 677.523 1.63575 -1.229 0
M  V30 7080 H 677.533 4.02163 -0.687666 0
M  V30 7081 H 676.208 3.74613 -1.8066 0
M  V30 7082 H 674.785 3.72892 0.0247827 0
M  V30 7083 N 676.97 0.677563 1.42291 0
M  V30 7084 C 678.216 0.201272 2.01799 0
M  V30 7085 C 678.549 -1.19004 1.53465 0
M  V30 7086 O 677.824 -1.79953 0.738039 0
M  V30 7087 C 678.107 0.238968 3.59306 0
M  V30 7088 C 677.96 1.66594 4.17812 0
M  V30 7089 C 679.279 -0.411287 4.38174 0
M  V30 7090 H 676.398 0.0746114 0.733214 0
M  V30 7091 H 679.04 0.862872 1.69276 0
M  V30 7092 H 677.19 -0.324368 3.87144 0
M  V30 7093 H 678.862 2.28173 4.00917 0
M  V30 7094 H 677.105 2.20576 3.73536 0
M  V30 7095 H 677.776 1.64398 5.26951 0
M  V30 7096 H 680.252 0.0682804 4.16044 0
M  V30 7097 H 679.128 -0.354286 5.47755 0
M  V30 7098 H 679.389 -1.4893 4.1626 0
M  V30 7099 N 678.448 -1.51871 0.421078 0
M  V30 7100 C 679.358 -2.31077 -0.405069 0
M  V30 7101 C 680.374 -1.39301 -1.04265 0
M  V30 7102 O 681.55 -1.72376 -1.04157 0
M  V30 7103 C 678.615 -3.12556 -1.50032 0
M  V30 7104 C 677.676 -4.20088 -0.884559 0
M  V30 7105 C 676.909 -4.97673 -1.92762 0
M  V30 7106 O 677.132 -4.75696 -3.14753 0
M  V30 7107 O 676.066 -5.82203 -1.52719 0
M  V30 7108 H 679.892 -3.02742 0.241086 0
M  V30 7109 H 677.477 -1.48263 0.183991 0
M  V30 7110 H 679.359 -3.6326 -2.13589 0
M  V30 7111 H 678.034 -2.43672 -2.13086 0
M  V30 7112 H 676.941 -3.73502 -0.211379 0
M  V30 7113 H 678.274 -4.91298 -0.297763 0
M  V30 7114 N 679.926 -0.151884 -1.56866 0
M  V30 7115 C 680.856 0.781943 -2.20018 0
M  V30 7116 C 681.837 1.25347 -1.14987 0
M  V30 7117 O 683.022 1.31015 -1.43348 0
M  V30 7118 C 680.152 2.01928 -2.82564 0
M  V30 7119 C 679.106 1.68434 -3.93464 0
M  V30 7120 C 678.432 2.99472 -4.42968 0
M  V30 7121 C 679.732 0.927244 -5.14003 0
M  V30 7122 H 681.426 0.255607 -2.98307 0
M  V30 7123 H 678.972 0.121502 -1.43486 0
M  V30 7124 H 680.925 2.67741 -3.25411 0
M  V30 7125 H 679.649 2.56943 -2.01614 0
M  V30 7126 H 678.308 1.04998 -3.51242 0
M  V30 7127 H 677.956 3.52488 -3.58834 0
M  V30 7128 H 677.656 2.77823 -5.17772 0
M  V30 7129 H 679.18 3.66348 -4.88489 0
M  V30 7130 H 680.594 1.48756 -5.53665 0
M  V30 7131 H 678.991 0.810513 -5.94601 0
M  V30 7132 H 680.061 -0.0801163 -4.84834 0
M  V30 7133 N 681.404 1.57128 0.121893 0
M  V30 7134 C 682.629 1.89254 0.848385 0
M  V30 7135 C 683.054 0.743527 1.72781 0
M  V30 7136 O 682.412 -0.306056 1.78698 0
M  V30 7137 C 682.46 3.20113 1.66012 0
M  V30 7138 O 681.564 3.05815 2.76679 0
M  V30 7139 H 680.905 0.621103 0.234793 0
M  V30 7140 H 683.435 2.0433 0.10516 0
M  V30 7141 H 683.445 3.52761 2.04996 0
M  V30 7142 H 682.12 4.03336 1.01452 0
M  V30 7143 H 680.697 2.84627 2.40918 0
M  V30 7144 N 682.882 -0.391992 1.52647 0
M  V30 7145 C 684.128 -1.13563 1.68745 0
M  V30 7146 C 684.483 -1.87745 0.420685 0
M  V30 7147 O 683.776 -1.82434 -0.585529 0
M  V30 7148 C 683.97 -2.14401 2.85949 0
M  V30 7149 C 683.799 -1.50124 4.23902 0
M  V30 7150 C 682.569 -1.2666 4.89168 0
M  V30 7151 C 684.767 -0.952933 5.05395 0
M  V30 7152 N 682.749 -0.584555 6.11111 0
M  V30 7153 C 684.12 -0.398784 6.18716 0
M  V30 7154 C 686.175 -0.849053 4.90607 0
M  V30 7155 C 684.878 0.249084 7.18869 0
M  V30 7156 C 686.904 -0.215011 5.91009 0
M  V30 7157 C 686.266 0.328382 7.03634 0
M  V30 7158 H 682.365 -0.401628 0.670984 0
M  V30 7159 H 684.949 -0.425585 1.89992 0
M  V30 7160 H 683.12 -2.82746 2.66288 0
M  V30 7161 H 684.852 -2.8125 2.90999 0
M  V30 7162 H 681.607 -1.54078 4.47836 0
M  V30 7163 H 682.031 -0.259663 6.76502 0
M  V30 7164 H 686.673 -1.25497 4.03745 0
M  V30 7165 H 684.391 0.667019 8.05342 0
M  V30 7166 H 687.977 -0.135921 5.81641 0
M  V30 7167 H 686.857 0.811257 7.79992 0
M  V30 7168 N 684.36 -1.4356 -0.65026 0
M  V30 7169 C 685.292 -1.44918 -1.77571 0
M  V30 7170 C 686.305 -0.344925 -1.59104 0
M  V30 7171 O 687.494 -0.609537 -1.6777 0
M  V30 7172 C 684.594 -1.24914 -3.15039 0
M  V30 7173 C 683.767 -2.48232 -3.60138 0
M  V30 7174 C 682.826 -2.23409 -4.76419 0
M  V30 7175 O 681.852 -2.9678 -4.85706 0
M  V30 7176 N 683.054 -1.25259 -5.66825 0
M  V30 7177 H 685.819 -2.41935 -1.76883 0
M  V30 7178 H 683.38 -1.38754 -0.834202 0
M  V30 7179 H 685.372 -1.06185 -3.90521 0
M  V30 7180 H 683.942 -0.363319 -3.10481 0
M  V30 7181 H 683.162 -2.82366 -2.75069 0
M  V30 7182 H 684.45 -3.30296 -3.87017 0
M  V30 7183 H 683.848 -0.646246 -5.61997 0
M  V30 7184 H 682.405 -1.12513 -6.42016 0
M  V30 7185 N 685.838 0.888903 -1.30139 0
M  V30 7186 C 686.748 2.02705 -1.18101 0
M  V30 7187 C 687.764 1.73702 -0.101809 0
M  V30 7188 O 688.94 1.98906 -0.315984 0
M  V30 7189 C 686.005 3.35616 -0.869651 0
M  V30 7190 C 685.066 3.78067 -2.03381 0
M  V30 7191 C 684.299 5.04635 -1.73721 0
M  V30 7192 O 684.522 5.66531 -0.663267 0
M  V30 7193 O 683.456 5.43399 -2.58845 0
M  V30 7194 H 687.282 2.15788 -2.13704 0
M  V30 7195 H 684.867 1.01426 -1.09695 0
M  V30 7196 H 686.749 4.15358 -0.711043 0
M  V30 7197 H 685.424 3.23651 0.0565002 0
M  V30 7198 H 684.331 2.99046 -2.24772 0
M  V30 7199 H 685.664 3.94631 -2.94155 0
M  V30 7200 N 687.317 1.12792 1.10072 0
M  V30 7201 C 688.728 0.899346 1.63611 0
M  V30 7202 C 689.079 -0.565547 1.87872 0
M  V30 7203 O 688.204 -1.43081 1.62348 0
M  V30 7204 C 688.799 1.62608 2.97227 0
M  V30 7205 C 687.358 1.44356 3.47618 0
M  V30 7206 C 686.505 1.65958 2.22156 0
M  V30 7207 H 689.456 1.28216 0.935223 0
M  V30 7208 H 689.477 1.0793 3.64872 0
M  V30 7209 H 688.989 2.69221 2.79538 0
M  V30 7210 H 687.09 0.400148 3.70445 0
M  V30 7211 H 687.203 2.20218 4.25489 0
M  V30 7212 H 685.567 1.08395 2.30484 0
M  V30 7213 H 686.35 2.73877 2.06993 0
M  V30 7214 N 688.795 -1.27931 0.920396 0
M  V30 7215 C 689.705 -2.30824 0.419212 0
M  V30 7216 C 690.721 -1.66767 -0.496461 0
M  V30 7217 O 691.897 -1.97763 -0.38104 0
M  V30 7218 C 688.962 -3.45158 -0.326601 0
M  V30 7219 C 688.023 -4.24754 0.623098 0
M  V30 7220 C 687.256 -5.33629 -0.0872172 0
M  V30 7221 O 687.479 -5.55204 -1.30784 0
M  V30 7222 O 686.413 -5.99091 0.580875 0
M  V30 7223 H 690.239 -2.75716 1.27337 0
M  V30 7224 H 687.824 -1.32747 0.685465 0
M  V30 7225 H 689.706 -4.14716 -0.747559 0
M  V30 7226 H 688.381 -3.02336 -1.15648 0
M  V30 7227 H 687.288 -3.57759 1.09359 0
M  V30 7228 H 688.621 -4.71272 1.41998 0
M  V30 7229 N 690.273 -0.685099 -1.4193 0
M  V30 7230 C 691.223 0.00977295 -2.27998 0
M  V30 7231 C 692.207 0.763315 -1.41641 0
M  V30 7232 O 693.399 0.640532 -1.65004 0
M  V30 7233 C 690.528 0.952972 -3.29808 0
M  V30 7234 C 689.614 0.196231 -4.23646 0
M  V30 7235 N 690.005 -0.804401 -4.99363 0
M  V30 7236 C 688.303 0.433213 -4.43891 0
M  V30 7237 C 689.004 -1.25646 -5.67968 0
M  V30 7238 N 687.98 -0.5844 -5.4045 0
M  V30 7239 H 691.782 -0.757586 -2.83968 0
M  V30 7240 H 689.296 -0.515037 -1.54017 0
M  V30 7241 H 691.293 1.46585 -3.9028 0
M  V30 7242 H 689.953 1.72004 -2.75399 0
M  V30 7243 H 690.964 -1.18429 -5.04177 0
M  V30 7244 H 687.641 1.17899 -4.00507 0
M  V30 7245 H 689.031 -2.08622 -6.38691 0
M  V30 7246 N 691.751 1.51645 -0.429126 0
M  V30 7247 C 693.162 1.86665 0.0359003 0
M  V30 7248 C 693.513 1.34677 1.42676 0
M  V30 7249 O 692.638 0.694195 2.04963 0
M  V30 7250 C 693.233 3.38724 0.0719221 0
M  V30 7251 C 691.792 3.7331 0.481336 0
M  V30 7252 C 690.939 2.75313 -0.331329 0
M  V30 7253 H 693.89 1.44987 -0.645333 0
M  V30 7254 H 693.911 3.7011 0.883118 0
M  V30 7255 H 693.423 3.76532 -0.940495 0
M  V30 7256 H 691.524 3.41088 1.49966 0
M  V30 7257 H 691.637 4.78631 0.211837 0
M  V30 7258 H 690.001 2.53839 0.209204 0
M  V30 7259 H 690.784 3.15963 -1.34247 0
M  V30 7260 N 693.229 0.160201 1.56784 0
M  V30 7261 C 694.177 -0.791402 2.18723 0
M  V30 7262 C 695.171 -1.24567 1.14801 0
M  V30 7263 O 696.377 -1.21262 1.33025 0
M  V30 7264 H 692.752 -0.273458 0.700517 0
M  V30 7265 H 694.723 -0.244931 2.97393 0
M  V30 7266 C 693.472 -2.01509 2.83354 0
M  V30 7267 H 692.795 -1.67454 3.63041 0
M  V30 7268 H 694.235 -2.66006 3.30177 0
M  V30 7269 C 692.694 -2.83159 1.82545 0
M  V30 7270 O 693.224 -3.79944 1.30405 0
M  V30 7271 N 691.43 -2.47953 1.51552 0
M  V30 7272 H 690.977 -1.69309 1.94144 0
M  V30 7273 H 690.935 -3.02873 0.843519 0
M  V30 7274 N 694.707 -1.5719 -0.113559 0
M  V30 7275 C 695.955 -1.84772 -0.818761 0
M  V30 7276 C 696.276 -0.746196 -1.80158 0
M  V30 7277 O 695.546 0.229305 -1.94553 0
M  V30 7278 H 694.126 -0.681737 -0.305359 0
M  V30 7279 H 696.788 -1.94645 -0.0995845 0
M  V30 7280 H 695.884 -2.80878 -1.36067 0
M  V30 7281 N 696.185 0.383891 -1.52853 0
M  V30 7282 C 697.431 1.13009 -1.68395 0
M  V30 7283 C 697.764 1.89488 -0.425195 0
M  V30 7284 O 697.039 1.8574 0.577136 0
M  V30 7285 C 697.322 2.10419 -2.92226 0
M  V30 7286 C 697.175 1.3767 -4.28214 0
M  V30 7287 C 698.494 3.10781 -3.11614 0
M  V30 7288 H 695.613 0.409463 -0.612788 0
M  V30 7289 H 698.255 0.412895 -1.85459 0
M  V30 7290 H 696.405 2.71579 -2.77808 0
M  V30 7291 H 698.077 0.794352 -4.54409 0
M  V30 7292 H 696.32 0.678533 -4.2846 0
M  V30 7293 H 696.991 2.08874 -5.10956 0
M  V30 7294 H 699.467 2.59715 -3.25096 0
M  V30 7295 H 698.343 3.76179 -3.99725 0
M  V30 7296 H 698.604 3.79933 -2.2606 0
M  V30 7297 N 697.663 1.43903 0.642637 0
M  V30 7298 C 698.912 1.45362 1.39831 0
M  V30 7299 C 699.225 0.0856289 1.95412 0
M  V30 7300 O 700.431 -0.0222856 2.71491 0
M  V30 7301 C 698.887 2.55857 2.53111 0
M  V30 7302 C 698.495 3.98811 2.04092 0
M  V30 7303 C 700.239 2.66524 3.30402 0
M  V30 7304 C 698.146 5.00751 3.14647 0
M  V30 7305 H 697.076 0.540777 0.52543 0
M  V30 7306 H 699.727 1.69929 0.692559 0
M  V30 7307 H 698.109 2.2451 3.26207 0
M  V30 7308 H 699.283 4.3967 1.37938 0
M  V30 7309 H 697.598 3.92284 1.39651 0
M  V30 7310 H 700.195 3.39858 4.12796 0
M  V30 7311 H 700.538 1.71949 3.79129 0
M  V30 7312 H 701.071 2.97224 2.64392 0
M  V30 7313 H 697.81 5.96914 2.70876 0
M  V30 7314 H 697.33 4.64495 3.79479 0
M  V30 7315 H 699.009 5.23933 3.79609 0
M  V30 7316 N 699.141 -0.881989 1.30609 0
M  V30 7317 C 700.369 -1.66711 1.22536 0
M  V30 7318 C 700.784 -1.87614 -0.2113 0
M  V30 7319 O 700.141 -1.42576 -1.13923 0
M  V30 7320 C 700.192 -3.04182 1.95335 0
M  V30 7321 O 699.913 -2.8422 3.33393 0
M  V30 7322 C 701.414 -3.98617 1.93956 0
M  V30 7323 H 698.634 -0.520124 0.423925 0
M  V30 7324 H 701.178 -1.10174 1.72285 0
M  V30 7325 H 699.333 -3.57442 1.49378 0
M  V30 7326 H 699.747 -3.71452 3.70302 0
M  V30 7327 H 701.221 -4.92433 2.49426 0
M  V30 7328 H 701.698 -4.29473 0.919198 0
M  V30 7329 H 702.304 -3.51292 2.39738 0
M  V30 7330 N 700.619 -1.13374 -1.09472 0
M  V30 7331 C 701.529 -0.824029 -2.19652 0
M  V30 7332 C 702.545 0.19118 -1.72947 0
M  V30 7333 O 703.721 0.0223464 -2.01388 0
M  V30 7334 C 700.786 -0.294009 -3.45451 0
M  V30 7335 C 699.847 -1.3704 -4.0684 0
M  V30 7336 C 699.08 -0.86558 -5.26634 0
M  V30 7337 O 699.303 0.29702 -5.69626 0
M  V30 7338 O 698.237 -1.63968 -5.79136 0
M  V30 7339 H 702.063 -1.74454 -2.48595 0
M  V30 7340 H 699.648 -0.911155 -1.18399 0
M  V30 7341 H 701.53 -0.00381039 -4.214 0
M  V30 7342 H 700.205 0.598921 -3.18111 0
M  V30 7343 H 699.112 -1.71391 -3.3253 0
M  V30 7344 H 700.445 -2.23746 -4.38405 0
M  V30 7345 N 702.098 1.27442 -0.927168 0
M  V30 7346 C 703.328 1.9821 -0.582775 0
M  V30 7347 C 703.736 1.69361 0.843406 0
M  V30 7348 O 703.079 0.950381 1.57205 0
M  V30 7349 C 703.141 3.52048 -0.728165 0
M  V30 7350 C 702.805 4.04518 -2.12637 0
M  V30 7351 C 703.802 4.17332 -3.10048 0
M  V30 7352 C 701.487 4.38879 -2.44317 0
M  V30 7353 C 703.481 4.6378 -4.37249 0
M  V30 7354 C 701.168 4.85018 -3.71753 0
M  V30 7355 C 702.166 4.97428 -4.68033 0
M  V30 7356 O 701.854 5.42556 -5.93202 0
M  V30 7357 H 701.586 0.639314 -0.219667 0
M  V30 7358 H 704.14 1.63272 -1.24626 0
M  V30 7359 H 702.37 3.86699 -0.00758143 0
M  V30 7360 H 704.059 4.04033 -0.388906 0
M  V30 7361 H 704.825 3.91046 -2.86894 0
M  V30 7362 H 700.704 4.28462 -1.70121 0
M  V30 7363 H 704.248 4.73382 -5.12402 0
M  V30 7364 H 700.145 5.10746 -3.94726 0
M  V30 7365 H 700.913 5.60811 -5.96182 0
M  V30 7366 N 703.576 0.692616 1.41565 0
M  V30 7367 C 704.486 0.0258451 2.34586 0
M  V30 7368 C 705.502 -0.769324 1.56069 0
M  V30 7369 O 706.678 -0.707563 1.88562 0
M  V30 7370 C 703.743 -0.901289 3.3478 0
M  V30 7371 C 702.804 -0.0986579 4.29187 0
M  V30 7372 C 702.037 -0.981634 5.24595 0
M  V30 7373 O 702.26 -2.22115 5.25377 0
M  V30 7374 O 701.194 -0.432892 6.00341 0
M  V30 7375 H 705.02 0.792537 2.93177 0
M  V30 7376 H 702.605 0.452935 1.42369 0
M  V30 7377 H 704.487 -1.43302 3.96286 0
M  V30 7378 H 703.162 -1.64752 2.78637 0
M  V30 7379 H 702.069 0.477604 3.71039 0
M  V30 7380 H 703.402 0.608848 4.8842 0
M  V30 7381 N 705.054 -1.51416 0.437162 0
M  V30 7382 C 706.303 -2.01275 -0.130865 0
M  V30 7383 C 706.616 -1.32593 -1.438 0
M  V30 7384 O 707.822 -1.7342 -2.08897 0
M  V30 7385 C 706.278 -3.5878 -0.283763 0
M  V30 7386 C 705.886 -4.36399 1.01293 0
M  V30 7387 C 707.63 -4.16786 -0.805569 0
M  V30 7388 C 705.537 -5.85608 0.825687 0
M  V30 7389 H 704.467 -0.752157 -0.0526818 0
M  V30 7390 H 707.118 -1.74524 0.566896 0
M  V30 7391 H 705.5 -3.81976 -1.04452 0
M  V30 7392 H 706.674 -4.24948 1.78201 0
M  V30 7393 H 704.989 -3.89843 1.46326 0
M  V30 7394 H 707.586 -5.25972 -0.962146 0
M  V30 7395 H 707.929 -3.75949 -1.78796 0
M  V30 7396 H 708.462 -3.97666 -0.103125 0
M  V30 7397 H 705.201 -6.30857 1.78045 0
M  V30 7398 H 704.721 -5.99723 0.0964029 0
M  V30 7399 H 706.4 -6.45226 0.478815 0
M  V30 7400 N 706.532 -0.168513 -1.56696 0
M  V30 7401 C 707.479 0.762875 -2.17828 0
M  V30 7402 C 708.449 1.22892 -1.11745 0
M  V30 7403 O 709.634 1.29759 -1.39883 0
M  V30 7404 C 706.774 1.9879 -2.82093 0
M  V30 7405 C 705.887 1.56568 -4.02629 0
M  V30 7406 C 705.022 2.74416 -4.54829 0
M  V30 7407 C 704.061 2.28671 -5.67782 0
M  V30 7408 N 703.198 3.39602 -6.14504 0
M  V30 7409 H 708.038 0.23479 -2.97074 0
M  V30 7410 H 705.575 0.104163 -1.46731 0
M  V30 7411 H 707.533 2.70636 -3.17509 0
M  V30 7412 H 706.163 2.48973 -2.05456 0
M  V30 7413 H 705.215 0.744067 -3.73052 0
M  V30 7414 H 706.527 1.18988 -4.844 0
M  V30 7415 H 705.681 3.54423 -4.92412 0
M  V30 7416 H 704.42 3.15254 -3.7211 0
M  V30 7417 H 703.425 1.4711 -5.29753 0
M  V30 7418 H 704.65 1.88894 -6.52301 0
M  V30 7419 H 702.596 3.80021 -5.34715 0
M  V30 7420 H 702.513 3.06105 -6.91257 0
M  V30 7421 H 703.781 4.19902 -6.56737 0
M  V30 7422 N 708.01 1.57248 0.105221 0
M  V30 7423 C 709.24 1.89492 0.823175 0
M  V30 7424 C 709.648 0.75934 1.73294 0
M  V30 7425 O 708.991 -0.278182 1.81581 0
M  V30 7426 C 709.053 3.16891 1.69765 0
M  V30 7427 C 708.717 4.46787 0.960769 0
M  V30 7428 C 709.714 5.19061 0.295218 0
M  V30 7429 C 707.399 4.93467 0.937854 0
M  V30 7430 C 709.393 6.36246 -0.383393 0
M  V30 7431 C 707.08 6.10566 0.255452 0
M  V30 7432 C 708.078 6.81804 -0.404003 0
M  V30 7433 O 707.766 7.96673 -1.07549 0
M  V30 7434 H 707.498 0.631512 0.24118 0
M  V30 7435 H 710.052 2.05203 0.0899655 0
M  V30 7436 H 708.282 2.973 2.47285 0
M  V30 7437 H 709.971 3.35046 2.29126 0
M  V30 7438 H 710.737 4.84044 0.304448 0
M  V30 7439 H 706.616 4.37913 1.44058 0
M  V30 7440 H 710.16 6.91787 -0.898696 0
M  V30 7441 H 706.057 6.45039 0.244032 0
M  V30 7442 H 706.825 8.12596 -0.981355 0
M  V30 7443 N 709.488 -0.375779 1.53054 0
M  V30 7444 C 710.718 -1.1387 1.72386 0
M  V30 7445 C 711.126 -1.8382 0.447966 0
M  V30 7446 O 710.469 -1.74027 -0.588244 0
M  V30 7447 C 710.531 -2.22047 2.82728 0
M  V30 7448 C 710.195 -1.71951 4.23417 0
M  V30 7449 C 711.192 -1.18909 5.06119 0
M  V30 7450 C 708.877 -1.77773 4.69789 0
M  V30 7451 C 710.871 -0.723529 6.3328 0
M  V30 7452 C 708.558 -1.30829 5.96931 0
M  V30 7453 C 709.556 -0.782077 6.78508 0
M  V30 7454 O 709.244 -0.319529 8.03265 0
M  V30 7455 H 708.976 -0.346835 0.580242 0
M  V30 7456 H 711.53 -0.443748 2.00549 0
M  V30 7457 H 709.76 -2.95006 2.50017 0
M  V30 7458 H 711.449 -2.83654 2.90336 0
M  V30 7459 H 712.215 -1.13758 4.7147 0
M  V30 7460 H 708.094 -2.17673 4.06373 0
M  V30 7461 H 711.638 -0.312126 6.96901 0
M  V30 7462 H 707.535 -1.3567 6.31081 0
M  V30 7463 H 708.303 -0.439796 8.17318 0
M  V30 7464 N 710.966 -1.44241 -0.634997 0
M  V30 7465 C 711.876 -1.53293 -1.77591 0
M  V30 7466 C 712.892 -0.418831 -1.68884 0
M  V30 7467 O 714.068 -0.675619 -1.8973 0
M  V30 7468 C 711.133 -1.47075 -3.13958 0
M  V30 7469 C 710.194 -2.69304 -3.34326 0
M  V30 7470 C 709.427 -2.63374 -4.64187 0
M  V30 7471 O 709.65 -1.69161 -5.44739 0
M  V30 7472 O 708.584 -3.54166 -4.86673 0
M  V30 7473 H 712.41 -2.49673 -1.72908 0
M  V30 7474 H 709.995 -1.26445 -0.795745 0
M  V30 7475 H 711.877 -1.46117 -3.95257 0
M  V30 7476 H 710.552 -0.538373 -3.19192 0
M  V30 7477 H 709.459 -2.75831 -2.52721 0
M  V30 7478 H 710.792 -3.61576 -3.33951 0
M  V30 7479 N 712.444 0.87505 -1.31075 0
M  V30 7480 C 713.391 1.98178 -1.18296 0
M  V30 7481 C 714.361 1.65952 -0.0699923 0
M  V30 7482 O 715.546 1.8926 -0.241951 0
M  V30 7483 C 712.686 3.33399 -0.891024 0
M  V30 7484 C 711.799 3.78253 -2.08684 0
M  V30 7485 C 710.934 5.02166 -1.73212 0
M  V30 7486 C 709.973 5.39455 -2.89231 0
M  V30 7487 N 709.11 6.54549 -2.53989 0
M  V30 7488 H 713.95 2.0844 -2.12971 0
M  V30 7489 H 711.487 1.02047 -1.05948 0
M  V30 7490 H 713.445 4.11246 -0.702338 0
M  V30 7491 H 712.075 3.22794 0.0188799 0
M  V30 7492 H 711.127 2.9623 -2.38646 0
M  V30 7493 H 712.439 4.01821 -2.95536 0
M  V30 7494 H 711.593 5.87666 -1.50777 0
M  V30 7495 H 710.332 4.80491 -0.83544 0
M  V30 7496 H 709.337 4.52477 -3.12321 0
M  V30 7497 H 710.562 5.63098 -3.79601 0
M  V30 7498 H 708.508 6.3443 -1.66838 0
M  V30 7499 H 708.425 6.78035 -3.34372 0
M  V30 7500 H 709.693 7.43254 -2.34934 0
M  V30 7501 N 713.922 1.13953 1.08869 0
M  V30 7502 C 715.199 0.815768 1.77777 0
M  V30 7503 C 715.579 -0.691624 1.99449 0
M  V30 7504 O 714.927 -1.63085 1.60049 0
M  V30 7505 C 715.137 1.60916 3.09689 0
M  V30 7506 C 716.485 1.80549 3.84301 0
M  V30 7507 O 717.509 1.57562 3.19457 0
M  V30 7508 O 716.368 2.18946 5.00724 0
M  V30 7509 H 713.462 0.298445 0.771271 0
M  V30 7510 H 716.008 1.24446 1.15374 0
M  V30 7511 H 714.78 2.6333 2.89435 0
M  V30 7512 H 714.403 1.17578 3.79817 0
M  V30 7513 N 715.4 -1.26948 0.933913 0
M  V30 7514 C 716.332 -2.25768 0.395137 0
M  V30 7515 C 717.345 -1.55637 -0.477585 0
M  V30 7516 O 718.534 -1.76142 -0.289204 0
M  V30 7517 C 715.634 -3.35874 -0.451882 0
M  V30 7518 C 714.807 -4.3554 0.40299 0
M  V30 7519 C 713.866 -5.24809 -0.3824 0
M  V30 7520 O 712.892 -5.68805 0.212057 0
M  V30 7521 N 714.094 -5.55636 -1.68072 0
M  V30 7522 H 716.859 -2.72634 1.24463 0
M  V30 7523 H 714.42 -1.40639 0.802008 0
M  V30 7524 H 716.412 -3.92542 -0.984516 0
M  V30 7525 H 714.982 -2.8856 -1.20215 0
M  V30 7526 H 714.202 -3.78047 1.11688 0
M  V30 7527 H 715.49 -4.99131 0.987201 0
M  V30 7528 H 714.888 -5.2176 -2.18592 0
M  V30 7529 H 713.445 -6.14978 -2.15975 0
M  V30 7530 N 716.879 -0.700114 -1.41195 0
M  V30 7531 C 718.295 -0.372114 -1.55201 0
M  V30 7532 C 718.495 1.12053 -1.6747 0
M  V30 7533 O 717.551 1.90642 -1.65566 0
M  V30 7534 C 718.864 -1.12462 -2.78878 0
M  V30 7535 C 720.412 -1.10941 -2.92679 0
M  V30 7536 C 720.887 -1.84376 -4.19249 0
M  V30 7537 N 722.378 -1.81368 -4.26216 0
M  V30 7538 C 723.113 -2.35024 -5.23021 0
M  V30 7539 N 722.609 -2.9717 -6.25829 0
M  V30 7540 N 724.402 -2.25254 -5.14992 0
M  V30 7541 H 716.553 -1.66816 -1.31477 0
M  V30 7542 H 718.816 -0.704223 -0.634644 0
M  V30 7543 H 718.522 -2.17937 -2.76037 0
M  V30 7544 H 718.396 -0.706152 -3.70531 0
M  V30 7545 H 720.783 -0.062911 -2.95033 0
M  V30 7546 H 720.864 -1.56698 -2.02187 0
M  V30 7547 H 720.508 -2.89008 -4.17656 0
M  V30 7548 H 720.438 -1.3605 -5.08722 0
M  V30 7549 H 722.929 -1.36062 -3.52556 0
M  V30 7550 H 723.242 -3.35668 -6.96094 0
M  V30 7551 H 721.587 -3.01249 -6.26318 0
M  V30 7552 H 724.778 -1.76372 -4.33602 0
M  V30 7553 H 724.951 -2.67373 -5.90268 0
M  V30 7554 N 718.357 1.51182 -0.445186 0
M  V30 7555 C 719.267 2.31692 0.368255 0
M  V30 7556 C 720.283 1.40942 1.02036 0
M  V30 7557 O 721.459 1.74011 1.01401 0
M  V30 7558 C 718.524 3.14903 1.45041 0
M  V30 7559 C 717.585 4.21442 0.817615 0
M  V30 7560 C 716.818 5.00677 1.8482 0
M  V30 7561 O 717.041 4.80644 3.07145 0
M  V30 7562 O 715.975 5.84559 1.43438 0
M  V30 7563 H 719.801 3.0232 -0.289219 0
M  V30 7564 H 717.386 1.47951 -0.207555 0
M  V30 7565 H 719.268 3.66612 2.07783 0
M  V30 7566 H 717.943 2.47031 2.09182 0
M  V30 7567 H 716.85 3.73791 0.151931 0
M  V30 7568 H 718.183 4.9171 0.219564 0
M  V30 7569 N 719.835 0.176821 1.56605 0
M  V30 7570 C 721.251 -0.179278 1.5859 0
M  V30 7571 C 721.451 -1.62433 1.19238 0
M  V30 7572 O 720.507 -2.35665 0.906552 0
M  V30 7573 C 721.82 0.106524 3.00511 0
M  V30 7574 C 723.368 0.0451731 3.12967 0
M  V30 7575 C 723.843 0.304038 4.5699 0
M  V30 7576 N 725.334 0.252008 4.62514 0
M  V30 7577 C 726.069 0.426404 5.71812 0
M  V30 7578 N 725.565 0.660155 6.89648 0
M  V30 7579 N 727.358 0.361926 5.60934 0
M  V30 7580 H 719.509 1.12001 1.8047 0
M  V30 7581 H 721.772 0.445679 0.836704 0
M  V30 7582 H 721.478 1.10778 3.33798 0
M  V30 7583 H 721.352 -0.599337 3.72408 0
M  V30 7584 H 723.739 -0.946662 2.79504 0
M  V30 7585 H 723.82 0.78383 2.43495 0
M  V30 7586 H 723.464 1.29311 4.91163 0
M  V30 7587 H 723.394 -0.455294 5.24628 0
M  V30 7588 H 725.885 0.0772102 3.77821 0
M  V30 7589 H 726.198 0.782529 7.68828 0
M  V30 7590 H 724.543 0.696835 6.91498 0
M  V30 7591 H 727.734 0.17986 4.67754 0
M  V30 7592 H 727.907 0.501263 6.46058 0
M  V30 7593 N 721.313 -1.57302 -0.09688 0
M  V30 7594 C 722.541 -1.90202 -0.814295 0
M  V30 7595 C 722.956 -0.770344 -1.72369 0
M  V30 7596 O 722.313 0.257764 -1.8067 0
M  V30 7597 C 722.364 -3.22708 -1.62916 0
M  V30 7598 O 722.085 -4.31522 -0.756343 0
M  V30 7599 C 723.586 -3.69459 -2.44979 0
M  V30 7600 H 720.806 -0.629275 -0.232925 0
M  V30 7601 H 723.35 -2.04364 -0.0746482 0
M  V30 7602 H 721.505 -3.1015 -2.32133 0
M  V30 7603 H 721.919 -5.07604 -1.32054 0
M  V30 7604 H 723.393 -4.64875 -2.9765 0
M  V30 7605 H 723.87 -2.97211 -3.23361 0
M  V30 7606 H 724.476 -3.84879 -1.80964 0
M  V30 7607 N 722.791 0.367657 -1.53252 0
M  V30 7608 C 724.021 1.12955 -1.72988 0
M  V30 7609 C 724.429 1.8358 -0.457708 0
M  V30 7610 O 723.772 1.74336 0.579006 0
M  V30 7611 C 723.834 2.20545 -2.83902 0
M  V30 7612 C 723.498 1.69704 -4.24323 0
M  V30 7613 C 724.495 1.16223 -5.06743 0
M  V30 7614 C 722.18 1.7528 -4.70725 0
M  V30 7615 C 724.174 0.689935 -6.33655 0
M  V30 7616 C 721.861 1.27662 -5.97617 0
M  V30 7617 C 722.859 0.746083 -6.78913 0
M  V30 7618 O 722.547 0.276925 -8.03423 0
M  V30 7619 H 722.279 0.343753 -0.582074 0
M  V30 7620 H 724.833 0.433106 -2.00782 0
M  V30 7621 H 723.063 2.93676 -2.51577 0
M  V30 7622 H 724.752 2.82111 -2.91836 0
M  V30 7623 H 725.518 1.11256 -4.72067 0
M  V30 7624 H 721.397 2.15515 -4.07522 0
M  V30 7625 H 724.941 0.275164 -6.97057 0
M  V30 7626 H 720.838 1.32322 -6.31792 0
M  V30 7627 H 721.606 0.396445 -8.17539 0
M  V30 7628 N 724.269 1.44576 0.627338 0
M  V30 7629 C 725.494 1.51271 1.41887 0
M  V30 7630 C 725.919 0.139814 1.8758 0
M  V30 7631 O 725.277 -0.871746 1.58966 0
M  V30 7632 C 725.325 2.48529 2.61277 0
M  V30 7633 O 724.429 1.98944 3.61241 0
M  V30 7634 H 723.77 0.510668 0.424399 0
M  V30 7635 H 726.3 1.89746 0.765356 0
M  V30 7636 H 726.31 2.66689 3.08773 0
M  V30 7637 H 724.985 3.48249 2.27366 0
M  V30 7638 H 723.562 1.90568 3.20528 0
M  V30 7639 N 725.747 -0.868086 1.31537 0
M  V30 7640 C 726.975 -1.65402 1.24298 0
M  V30 7641 C 727.39 -1.87827 -0.191389 0
M  V30 7642 O 726.747 -1.43776 -1.12404 0
M  V30 7643 C 726.798 -3.02093 1.9855 0
M  V30 7644 O 726.519 -2.80668 3.36388 0
M  V30 7645 C 728.02 -3.96538 1.98173 0
M  V30 7646 H 725.24 -0.515598 0.429417 0
M  V30 7647 H 727.784 -1.0834 1.73444 0
M  V30 7648 H 725.939 -3.55838 1.53161 0
M  V30 7649 H 726.353 -3.67504 3.74221 0
M  V30 7650 H 727.827 -4.8976 2.54635 0
M  V30 7651 H 728.304 -4.28474 0.964697 0
M  V30 7652 H 728.91 -3.48729 2.4345 0
M  V30 7653 N 727.225 -1.14528 -1.08264 0
M  V30 7654 C 728.471 -0.91576 -1.80947 0
M  V30 7655 C 728.804 0.55623 -1.86064 0
M  V30 7656 O 728.079 1.41207 -1.33756 0
M  V30 7657 C 728.362 -1.51917 -3.26486 0
M  V30 7658 C 728.215 -3.06111 -3.2957 0
M  V30 7659 C 729.534 -1.19724 -4.23502 0
M  V30 7660 H 726.653 -0.334113 -0.656915 0
M  V30 7661 H 729.295 -1.41547 -1.26746 0
M  V30 7662 H 727.445 -1.0942 -3.72773 0
M  V30 7663 H 729.117 -3.57448 -2.91597 0
M  V30 7664 H 727.36 -3.40483 -2.688 0
M  V30 7665 H 728.031 -3.43438 -4.32151 0
M  V30 7666 H 730.507 -1.56467 -3.85561 0
M  V30 7667 H 729.383 -1.64575 -5.23647 0
M  V30 7668 H 729.644 -0.112771 -4.41956 0
M  V30 7669 N 728.703 1.26451 -0.940633 0
M  V30 7670 C 729.65 2.264 -0.448497 0
M  V30 7671 C 730.62 1.5866 0.491546 0
M  V30 7672 O 731.805 1.86389 0.407874 0
M  V30 7673 C 728.945 3.43956 0.280715 0
M  V30 7674 C 728.058 4.26374 -0.694937 0
M  V30 7675 C 727.193 5.31171 0.0554186 0
M  V30 7676 C 726.232 6.05266 -0.912091 0
M  V30 7677 N 725.369 7.01833 -0.193524 0
M  V30 7678 H 730.209 2.67869 -1.30576 0
M  V30 7679 H 727.746 1.31707 -0.655112 0
M  V30 7680 H 729.704 4.10941 0.71994 0
M  V30 7681 H 728.334 3.03403 1.10212 0
M  V30 7682 H 727.386 3.59183 -1.25267 0
M  V30 7683 H 728.698 4.77748 -1.43382 0
M  V30 7684 H 727.852 6.04166 0.553951 0
M  V30 7685 H 726.591 4.80634 0.827183 0
M  V30 7686 H 725.596 5.31099 -1.42175 0
M  V30 7687 H 726.821 6.57893 -1.68385 0
M  V30 7688 H 724.767 6.53607 0.559758 0
M  V30 7689 H 724.684 7.50957 -0.871744 0
M  V30 7690 H 725.952 7.78983 0.283932 0
M  V30 7691 N 730.181 0.707592 1.40822 0
M  V30 7692 C 731.409 0.253073 2.05346 0
M  V30 7693 C 731.824 -1.10218 1.53289 0
M  V30 7694 O 731.181 -1.69112 0.686105 0
M  V30 7695 C 731.232 0.215411 3.60858 0
M  V30 7696 O 730.953 1.51714 4.10992 0
M  V30 7697 C 732.454 -0.258636 4.42545 0
M  V30 7698 H 729.674 0.115256 0.661027 0
M  V30 7699 H 732.218 0.963555 1.80377 0
M  V30 7700 H 730.373 -0.445978 3.84824 0
M  V30 7701 H 730.787 1.41226 5.05129 0
M  V30 7702 H 732.261 -0.233849 5.51504 0
M  V30 7703 H 732.738 -1.2995 4.19535 0
M  V30 7704 H 733.344 0.372186 4.23668 0
M  V30 7705 N 731.66 -1.50943 0.453197 0
M  V30 7706 C 732.607 -2.28128 -0.350197 0
M  V30 7707 C 733.577 -1.32398 -1.00299 0
M  V30 7708 O 734.762 -1.61319 -1.01887 0
M  V30 7709 C 731.902 -3.13782 -1.43649 0
M  V30 7710 C 731.015 -4.24523 -0.800255 0
M  V30 7711 C 730.15 -4.97462 -1.86293 0
M  V30 7712 C 729.189 -6.00102 -1.20598 0
M  V30 7713 N 728.326 -6.66387 -2.21071 0
M  V30 7714 H 733.166 -2.96337 0.31434 0
M  V30 7715 H 730.703 -1.46151 0.166863 0
M  V30 7716 H 732.661 -3.6178 -2.07776 0
M  V30 7717 H 731.291 -2.47655 -2.07044 0
M  V30 7718 H 730.343 -3.80371 -0.0468651 0
M  V30 7719 H 731.655 -4.98009 -0.280777 0
M  V30 7720 H 730.809 -5.49088 -2.58044 0
M  V30 7721 H 729.548 -4.23642 -2.41617 0
M  V30 7722 H 728.553 -5.47753 -0.474 0
M  V30 7723 H 729.778 -6.75887 -0.659859 0
M  V30 7724 H 727.724 -5.9537 -2.75446 0
M  V30 7725 H 727.641 -7.3569 -1.74058 0
M  V30 7726 H 728.909 -7.22638 -2.92257 0
M  V30 7727 N 733.138 -0.185124 -1.56509 0
M  V30 7728 C 734.363 0.465278 -2.02114 0
M  V30 7729 C 734.788 1.55083 -1.06447 0
M  V30 7730 O 734.146 1.81241 -0.0462852 0
M  V30 7731 C 734.194 1.00784 -3.46229 0
M  V30 7732 O 733.298 2.12123 -3.53663 0
M  V30 7733 H 732.639 0.109891 -0.654843 0
M  V30 7734 H 735.169 -0.293072 -2.0249 0
M  V30 7735 H 735.179 1.32697 -3.85818 0
M  V30 7736 H 733.854 0.213113 -4.15354 0
M  V30 7737 H 732.431 1.8115 -3.25943 0
M  V30 7738 N 734.616 1.57351 0.0885366 0
M  V30 7739 C 735.844 1.90631 0.804196 0
M  V30 7740 C 736.259 0.779474 1.71958 0
M  V30 7741 O 735.616 -0.248179 1.80805 0
M  V30 7742 C 735.667 3.23568 1.61202 0
M  V30 7743 O 735.388 4.31917 0.733447 0
M  V30 7744 C 736.889 3.70753 2.43016 0
M  V30 7745 H 734.109 0.630501 0.229585 0
M  V30 7746 H 736.653 2.044 0.0638092 0
M  V30 7747 H 734.808 3.11377 2.30485 0
M  V30 7748 H 735.222 5.08297 1.29361 0
M  V30 7749 H 736.696 4.66447 2.9518 0
M  V30 7750 H 737.173 2.98922 3.2178 0
M  V30 7751 H 737.779 3.85834 1.7892 0
M  V30 7752 N 736.094 -0.359525 1.53444 0
M  V30 7753 C 737.319 -1.12644 1.74144 0
M  V30 7754 C 737.744 -1.82082 0.472007 0
M  V30 7755 O 737.102 -1.71962 -0.57436 0
M  V30 7756 C 737.15 -2.12781 2.9113 0
M  V30 7757 O 736.254 -3.19984 2.60162 0
M  V30 7758 H 735.595 -0.326553 0.578152 0
M  V30 7759 H 738.125 -0.414798 2.00351 0
M  V30 7760 H 738.135 -2.56278 3.17467 0
M  V30 7761 H 736.81 -1.61634 3.83207 0
M  V30 7762 H 735.387 -2.81417 2.44661 0
M  V30 7763 N 737.572 -1.44907 -0.619662 0
M  V30 7764 C 738.535 -1.52282 -1.71297 0
M  V30 7765 C 739.535 -0.40359 -1.55653 0
M  V30 7766 O 740.725 -0.666638 -1.6094 0
M  V30 7767 C 737.857 -1.40778 -3.10474 0
M  V30 7768 H 739.05 -2.49683 -1.66128 0
M  V30 7769 H 736.603 -1.32168 -0.834339 0
M  V30 7770 H 737.338 -0.445156 -3.2123 0
M  V30 7771 H 737.123 -2.21947 -3.23237 0
M  V30 7772 H 738.613 -1.48946 -3.90135 0
M  V30 7773 N 739.05 0.861098 -1.31996 0
M  V30 7774 C 740.275 1.65264 -1.2531 0
M  V30 7775 C 740.7 1.87265 0.177007 0
M  V30 7776 O 740.058 1.4208 1.12619 0
M  V30 7777 C 740.106 2.99284 -2.0115 0
M  V30 7778 O 739.21 3.89508 -1.3549 0
M  V30 7779 H 738.551 0.50409 -0.432192 0
M  V30 7780 H 741.081 1.07297 -1.74208 0
M  V30 7781 H 741.091 3.49154 -2.11081 0
M  V30 7782 H 739.766 2.82591 -3.05148 0
M  V30 7783 H 738.343 3.47966 -1.34066 0
M  V30 7784 N 740.528 1.15101 1.07655 0
M  V30 7785 C 741.777 0.918528 1.79572 0
M  V30 7786 C 742.09 -0.555922 1.87534 0
M  V30 7787 O 743.296 -0.905893 2.55941 0
M  V30 7788 C 741.752 1.59394 3.22679 0
M  V30 7789 C 741.36 3.1052 3.22927 0
M  V30 7790 C 743.104 1.44289 3.99225 0
M  V30 7791 C 741.011 3.70862 4.60668 0
M  V30 7792 H 739.941 0.340006 0.672987 0
M  V30 7793 H 742.592 1.38079 1.20857 0
M  V30 7794 H 740.974 1.05936 3.81567 0
M  V30 7795 H 742.148 3.70708 2.737 0
M  V30 7796 H 740.463 3.25351 2.59876 0
M  V30 7797 H 743.06 1.86766 5.01022 0
M  V30 7798 H 743.403 0.389975 4.14469 0
M  V30 7799 H 743.936 1.94826 3.46825 0
M  V30 7800 H 740.675 4.7604 4.50628 0
M  V30 7801 H 740.195 3.15456 5.10145 0
M  V30 7802 H 741.874 3.71607 5.29639 0
M  V30 7803 N 742.006 -1.2595 0.947325 0
M  V30 7804 C 742.954 -2.28152 0.452687 0
M  V30 7805 C 743.948 -1.62655 -0.473239 0
M  V30 7806 O 745.154 -1.76549 -0.350774 0
M  V30 7807 H 741.529 -0.741049 0.12787 0
M  V30 7808 H 743.5 -2.67267 1.32707 0
M  V30 7809 C 742.249 -3.46719 -0.26098 0
M  V30 7810 H 741.572 -3.97345 0.442352 0
M  V30 7811 H 743.012 -4.20135 -0.571208 0
M  V30 7812 C 741.471 -3.02605 -1.48094 0
M  V30 7813 O 742.001 -3.07979 -2.57899 0
M  V30 7814 N 740.207 -2.57877 -1.33969 0
M  V30 7815 H 739.754 -2.53704 -0.446295 0
M  V30 7816 H 739.712 -2.28725 -2.15713 0
M  V30 7817 N 743.484 -0.715051 -1.40445 0
M  V30 7818 C 744.432 -0.0509974 -2.32544 0
M  V30 7819 C 745.426 0.747602 -1.52011 0
M  V30 7820 O 746.632 0.651031 -1.67814 0
M  V30 7821 H 743.007 0.00231113 -0.751996 0
M  V30 7822 H 744.978 -0.84449 -2.86201 0
M  V30 7823 C 743.727 0.857101 -3.3697 0
M  V30 7824 H 743.05 0.252 -3.99005 0
M  V30 7825 H 744.49 1.28971 -4.03909 0
M  V30 7826 C 742.949 1.98231 -2.72408 0
M  V30 7827 O 743.479 3.07309 -2.58697 0
M  V30 7828 N 741.685 1.76577 -2.308 0
M  V30 7829 H 741.232 0.878641 -2.42152 0
M  V30 7830 H 741.19 2.52043 -1.87941 0
M  V30 7831 N 744.962 1.50701 -0.461195 0
M  V30 7832 C 745.892 2.31182 0.328184 0
M  V30 7833 C 746.873 1.37644 0.999408 0
M  V30 7834 O 748.058 1.66565 0.99848 0
M  V30 7835 C 745.188 3.17113 1.41621 0
M  V30 7836 C 744.142 4.19124 0.867148 0
M  V30 7837 C 743.468 4.93728 2.05272 0
M  V30 7838 C 744.768 5.22174 -0.114808 0
M  V30 7839 H 746.462 2.97423 -0.343501 0
M  V30 7840 H 744.008 1.43033 -0.166641 0
M  V30 7841 H 745.961 3.72208 1.97584 0
M  V30 7842 H 744.685 2.48739 2.11652 0
M  V30 7843 H 743.344 3.65116 0.329557 0
M  V30 7844 H 742.992 4.21835 2.73978 0
M  V30 7845 H 742.692 5.62724 1.69161 0
M  V30 7846 H 744.216 5.51654 2.61744 0
M  V30 7847 H 745.63 5.72198 0.355316 0
M  V30 7848 H 744.027 5.98833 -0.389689 0
M  V30 7849 H 745.097 4.7353 -1.04391 0
M  V30 7850 N 746.441 0.193421 1.56409 0
M  V30 7851 C 747.388 -0.728124 2.19014 0
M  V30 7852 C 748.358 -1.21098 1.13686 0
M  V30 7853 O 749.543 -1.27517 1.4193 0
M  V30 7854 C 746.683 -1.94277 2.8522 0
M  V30 7855 C 745.796 -1.50143 4.05069 0
M  V30 7856 C 744.931 -2.67145 4.59137 0
M  V30 7857 C 743.97 -2.19609 5.71348 0
M  V30 7858 N 743.107 -3.29782 6.19829 0
M  V30 7859 H 747.947 -0.187499 2.9741 0
M  V30 7860 H 745.484 -0.0808064 1.46878 0
M  V30 7861 H 747.442 -2.65551 3.21774 0
M  V30 7862 H 746.072 -2.45673 2.09391 0
M  V30 7863 H 745.124 -0.684624 3.74189 0
M  V30 7864 H 746.436 -1.11266 4.86232 0
M  V30 7865 H 745.59 -3.46544 4.97988 0
M  V30 7866 H 744.329 -3.09295 3.77078 0
M  V30 7867 H 743.334 -1.38664 5.32027 0
M  V30 7868 H 744.559 -1.78492 6.55223 0
M  V30 7869 H 742.505 -3.71466 5.40693 0
M  V30 7870 H 742.422 -2.95069 6.96039 0
M  V30 7871 H 743.69 -4.094 6.63334 0
M  V30 7872 N 747.919 -1.57396 -0.0801906 0
M  V30 7873 C 749.33 -1.75642 -0.633002 0
M  V30 7874 C 749.681 -0.817708 -1.78348 0
M  V30 7875 O 748.806 0.000233743 -2.164 0
M  V30 7876 C 749.401 -3.18502 -1.15507 0
M  V30 7877 C 747.96 -3.38121 -1.65381 0
M  V30 7878 C 747.107 -2.71386 -0.569661 0
M  V30 7879 H 750.058 -1.58027 0.145949 0
M  V30 7880 H 750.079 -3.22198 -2.02408 0
M  V30 7881 H 749.591 -3.86799 -0.317515 0
M  V30 7882 H 747.692 -2.74926 -2.51488 0
M  V30 7883 H 747.805 -4.46521 -1.73654 0
M  V30 7884 H 746.169 -2.33702 -1.0127 0
M  V30 7885 H 746.952 -3.42332 0.257561 0
M  V30 7886 N 749.397 0.351382 -1.53633 0
M  V30 7887 C 750.645 1.09034 -1.70165 0
M  V30 7888 C 750.966 1.89413 -0.463422 0
M  V30 7889 O 750.236 1.888 0.522624 0
M  V30 7890 H 748.816 0.405522 -0.627344 0
M  V30 7891 H 751.478 0.394554 -1.90865 0
M  V30 7892 H 750.574 1.77215 -2.56907 0
M  V30 7893 N 750.875 1.45233 0.611969 0
M  V30 7894 C 752.103 1.52539 1.39784 0
M  V30 7895 C 752.518 0.156533 1.8815 0
M  V30 7896 O 751.875 -0.84112 1.61961 0
M  V30 7897 C 751.926 2.50614 2.60528 0
M  V30 7898 O 751.647 3.8218 2.14173 0
M  V30 7899 C 753.148 2.67574 3.53439 0
M  V30 7900 H 750.368 0.51674 0.428043 0
M  V30 7901 H 752.912 1.90379 0.746727 0
M  V30 7902 H 751.067 2.15858 3.2169 0
M  V30 7903 H 751.481 4.35305 2.92592 0
M  V30 7904 H 752.955 3.40184 4.34717 0
M  V30 7905 H 753.432 1.73458 4.03496 0
M  V30 7906 H 754.038 3.0331 2.98133 0
M  V30 7907 N 752.353 -0.854086 1.3245 0
M  V30 7908 C 753.599 -1.61069 1.23225 0
M  V30 7909 C 753.932 -1.93111 -0.205349 0
M  V30 7910 O 753.207 -1.57397 -1.14265 0
M  V30 7911 C 753.49 -2.93065 2.09249 0
M  V30 7912 C 753.343 -2.67801 3.6139 0
M  V30 7913 C 754.662 -3.94341 1.95406 0
M  V30 7914 H 751.781 -0.584449 0.448986 0
M  V30 7915 H 754.423 -0.986189 1.62402 0
M  V30 7916 H 752.573 -3.46364 1.75967 0
M  V30 7917 H 754.245 -2.21052 4.04887 0
M  V30 7918 H 752.488 -2.01756 3.84027 0
M  V30 7919 H 753.159 -3.6179 4.16907 0
M  V30 7920 H 755.635 -3.50301 2.24562 0
M  V30 7921 H 754.511 -4.84555 2.57872 0
M  V30 7922 H 754.772 -4.32382 0.921865 0
M  V30 7923 N 753.831 -1.1567 -1.07043 0
M  V30 7924 C 755.061 -0.956083 -1.83146 0
M  V30 7925 C 755.469 0.498969 -1.82502 0
M  V30 7926 O 754.812 1.35791 -1.23719 0
M  V30 7927 C 754.874 -1.39704 -3.31245 0
M  V30 7928 C 754.538 -2.87045 -3.55604 0
M  V30 7929 C 755.535 -3.85092 -3.49285 0
M  V30 7930 C 753.22 -3.24787 -3.8317 0
M  V30 7931 C 755.214 -5.18885 -3.70185 0
M  V30 7932 C 752.901 -4.58751 -4.03721 0
M  V30 7933 C 753.899 -5.55609 -3.97224 0
M  V30 7934 O 753.587 -6.87154 -4.17223 0
M  V30 7935 H 753.319 -0.339473 -0.58458 0
M  V30 7936 H 755.873 -1.53922 -1.36005 0
M  V30 7937 H 754.103 -0.757326 -3.79212 0
M  V30 7938 H 755.792 -1.16503 -3.88821 0
M  V30 7939 H 756.558 -3.5728 -3.27988 0
M  V30 7940 H 752.437 -2.49979 -3.87339 0
M  V30 7941 H 755.981 -5.94473 -3.6503 0
M  V30 7942 H 751.878 -4.86277 -4.24505 0
M  V30 7943 H 752.646 -6.93618 -4.34553 0
M  V30 7944 N 755.309 1.25446 -0.953992 0
M  V30 7945 C 756.555 1.9343 -0.60933 0
M  V30 7946 C 756.888 1.74542 0.851388 0
M  V30 7947 O 756.163 1.09014 1.61078 0
M  V30 7948 C 756.446 3.46844 -0.968041 0
M  V30 7949 C 756.299 3.74961 -2.48444 0
M  V30 7950 C 757.618 4.37334 -0.492641 0
M  V30 7951 H 754.737 0.702502 -0.222844 0
M  V30 7952 H 757.379 1.48076 -1.19053 0
M  V30 7953 H 755.529 3.85604 -0.473465 0
M  V30 7954 H 757.201 3.45841 -3.05273 0
M  V30 7955 H 755.444 3.20589 -2.92241 0
M  V30 7956 H 756.115 4.82246 -2.68594 0
M  V30 7957 H 758.591 4.05873 -0.916878 0
M  V30 7958 H 757.467 5.43439 -0.772331 0
M  V30 7959 H 757.728 4.37908 0.607403 0
M  V30 7960 N 756.787 0.722489 1.40064 0
M  V30 7961 C 758.034 0.264979 2.00759 0
M  V30 7962 C 758.362 -1.14395 1.57302 0
M  V30 7963 O 757.617 -1.79165 0.787298 0
M  V30 7964 C 757.916 0.300682 3.56133 0
M  V30 7965 C 757.582 1.66087 4.19197 0
M  V30 7966 C 756.244 2.03319 4.36136 0
M  V30 7967 C 758.596 2.55452 4.54306 0
M  V30 7968 C 755.924 3.29448 4.8547 0
M  V30 7969 C 758.276 3.8094 5.05042 0
M  V30 7970 C 756.94 4.1828 5.2019 0
M  V30 7971 H 756.21 0.0969625 0.734629 0
M  V30 7972 H 758.857 0.926877 1.67575 0
M  V30 7973 H 757.162 -0.44479 3.89267 0
M  V30 7974 H 758.859 -0.0712542 4.00937 0
M  V30 7975 H 755.449 1.36137 4.06405 0
M  V30 7976 H 759.633 2.27961 4.40849 0
M  V30 7977 H 754.889 3.58338 4.95382 0
M  V30 7978 H 759.063 4.50351 5.31184 0
M  V30 7979 H 756.69 5.16081 5.58179 0
M  V30 7980 N 758.265 -1.50454 0.469181 0
M  V30 7981 C 759.197 -2.26319 -0.362247 0
M  V30 7982 C 760.21 -1.31574 -0.958751 0
M  V30 7983 O 761.399 -1.57099 -0.847482 0
M  V30 7984 C 758.499 -3.02808 -1.52187 0
M  V30 7985 C 757.672 -4.24893 -1.03849 0
M  V30 7986 C 756.731 -4.83691 -2.07194 0
M  V30 7987 O 755.757 -5.44659 -1.65333 0
M  V30 7988 N 756.959 -4.70522 -3.39985 0
M  V30 7989 H 759.724 -2.98312 0.288124 0
M  V30 7990 H 757.285 -1.59099 0.299856 0
M  V30 7991 H 759.277 -3.39023 -2.21011 0
M  V30 7992 H 757.847 -2.33625 -2.07697 0
M  V30 7993 H 757.067 -3.93806 -0.176203 0
M  V30 7994 H 758.355 -5.04053 -0.693435 0
M  V30 7995 H 757.753 -4.2203 -3.76706 0
M  V30 7996 H 756.31 -5.11011 -4.04612 0
M  V30 7997 N 759.743 -0.201713 -1.56304 0
M  V30 7998 C 760.992 0.435557 -1.96941 0
M  V30 7999 C 761.305 1.62299 -1.09172 0
M  V30 8000 O 762.511 2.32849 -1.3962 0
M  V30 8001 C 760.967 0.826298 -3.50286 0
M  V30 8002 C 760.575 -0.337216 -4.46729 0
M  V30 8003 C 762.319 1.43028 -3.99679 0
M  V30 8004 C 760.226 0.0748539 -5.91353 0
M  V30 8005 H 759.156 0.1665 -0.735387 0
M  V30 8006 H 761.807 -0.294781 -1.81117 0
M  V30 8007 H 760.189 1.61349 -3.61639 0
M  V30 8008 H 761.363 -1.11476 -4.47113 0
M  V30 8009 H 759.678 -0.853126 -4.07567 0
M  V30 8010 H 762.275 1.75115 -5.05212 0
M  V30 8011 H 762.618 2.33911 -3.44371 0
M  V30 8012 H 763.151 0.706924 -3.91468 0
M  V30 8013 H 759.89 -0.799957 -6.506 0
M  V30 8014 H 759.41 0.817122 -5.94208 0
M  V30 8015 H 761.089 0.508389 -6.45 0
M  V30 8016 N 761.222 1.57436 0.0718424 0
M  V30 8017 C 762.638 1.53792 0.426628 0
M  V30 8018 C 762.838 0.921887 1.79174 0
M  V30 8019 O 761.894 0.524374 2.46995 0
M  V30 8020 C 763.207 2.98443 0.367739 0
M  V30 8021 C 764.755 3.09778 0.447928 0
M  V30 8022 C 765.23 4.5608 0.418946 0
M  V30 8023 N 766.721 4.60716 0.479022 0
M  V30 8024 C 767.456 5.71397 0.47881 0
M  V30 8025 N 766.952 6.91443 0.433417 0
M  V30 8026 N 768.745 5.59639 0.525364 0
M  V30 8027 H 760.896 1.95848 -0.822033 0
M  V30 8028 H 763.159 0.896418 -0.308447 0
M  V30 8029 H 762.865 3.47072 -0.56865 0
M  V30 8030 H 762.739 3.58335 1.17795 0
M  V30 8031 H 765.126 2.61122 1.37474 0
M  V30 8032 H 765.207 2.52796 -0.390857 0
M  V30 8033 H 764.851 5.05393 -0.504016 0
M  V30 8034 H 764.781 5.10925 1.27526 0
M  V30 8035 H 767.272 3.74328 0.518355 0
M  V30 8036 H 767.585 7.71562 0.43718 0
M  V30 8037 H 765.93 6.93847 0.400106 0
M  V30 8038 H 769.121 4.64756 0.558519 0
M  V30 8039 H 769.294 6.45896 0.52173 0
M  V30 8040 N 762.7 -0.34323 1.53817 0
M  V30 8041 C 763.663 -1.40444 1.8113 0
M  V30 8042 C 764.663 -1.45604 0.682366 0
M  V30 8043 O 765.853 -1.45974 0.950649 0
M  V30 8044 C 762.985 -2.79369 1.95361 0
M  V30 8045 H 764.178 -1.17489 2.75928 0
M  V30 8046 H 761.731 -0.577636 1.45234 0
M  V30 8047 H 762.466 -3.07607 1.02707 0
M  V30 8048 H 762.251 -2.7702 2.77493 0
M  V30 8049 H 763.741 -3.56178 2.18008 0
M  V30 8050 N 764.178 -1.45556 -0.604258 0
M  V30 8051 C 765.425 -1.49746 -1.36317 0
M  V30 8052 C 765.753 -0.140516 -1.93992 0
M  V30 8053 O 765.008 0.861244 -1.7573 0
M  V30 8054 C 765.307 -2.52697 -2.52743 0
M  V30 8055 C 764.973 -3.97315 -2.13195 0
M  V30 8056 C 763.635 -4.36692 -2.02123 0
M  V30 8057 C 765.987 -4.88249 -1.8238 0
M  V30 8058 C 763.315 -5.64895 -1.58463 0
M  V30 8059 C 765.667 -6.16867 -1.40205 0
M  V30 8060 C 764.331 -6.55172 -1.27694 0
M  V30 8061 H 763.601 -0.54796 -0.49882 0
M  V30 8062 H 766.248 -1.7892 -0.682643 0
M  V30 8063 H 764.553 -2.17105 -3.26148 0
M  V30 8064 H 766.25 -2.53176 -3.10971 0
M  V30 8065 H 762.84 -3.66176 -2.22739 0
M  V30 8066 H 767.024 -4.58561 -1.89829 0
M  V30 8067 H 762.28 -5.93365 -1.47402 0
M  V30 8068 H 766.454 -6.86771 -1.15408 0
M  V30 8069 H 764.081 -7.54411 -0.936375 0
M  V30 8070 N 765.656 0.84705 -1.32902 0
M  V30 8071 C 766.884 1.63403 -1.26913 0
M  V30 8072 C 767.299 1.88108 0.161483 0
M  V30 8073 O 766.656 1.45546 1.10103 0
M  V30 8074 C 766.707 2.98896 -2.03331 0
M  V30 8075 O 766.428 2.75281 -3.40811 0
M  V30 8076 C 767.929 3.93335 -2.04457 0
M  V30 8077 H 765.149 0.508701 -0.437566 0
M  V30 8078 H 767.693 1.05567 -1.75145 0
M  V30 8079 H 765.848 3.53356 -1.58802 0
M  V30 8080 H 766.262 3.61504 -3.8002 0
M  V30 8081 H 767.736 4.85647 -2.62394 0
M  V30 8082 H 768.213 4.26885 -1.03274 0
M  V30 8083 H 768.819 3.44812 -2.48967 0
M  V30 8084 N 767.134 1.16236 1.06428 0
M  V30 8085 C 768.097 0.870163 2.1204 0
M  V30 8086 C 769.097 -0.134239 1.60239 0
M  V30 8087 O 770.287 0.0964932 1.73933 0
M  V30 8088 C 767.419 0.301033 3.39568 0
M  V30 8089 H 768.612 1.8064 2.39394 0
M  V30 8090 H 766.165 0.971116 1.2247 0
M  V30 8091 H 766.9 -0.642948 3.17863 0
M  V30 8092 H 766.685 1.02475 3.78472 0
M  V30 8093 H 768.175 0.114494 4.17443 0
M  V30 8094 N 768.612 -1.24939 0.960631 0
M  V30 8095 C 769.575 -2.239 0.49006 0
M  V30 8096 C 770.575 -1.55497 -0.409535 0
M  V30 8097 O 771.765 -1.72978 -0.205984 0
M  V30 8098 C 768.897 -3.39654 -0.291193 0
M  V30 8099 H 770.09 -2.67044 1.36482 0
M  V30 8100 H 767.643 -1.37429 0.744505 0
M  V30 8101 H 768.378 -3.01939 -1.18336 0
M  V30 8102 H 768.163 -3.90496 0.354276 0
M  V30 8103 H 769.653 -4.13125 -0.609693 0
M  V30 8104 N 770.09 -0.729906 -1.39679 0
M  V30 8105 C 771.338 -0.275077 -2.00219 0
M  V30 8106 C 771.659 1.1401 -1.58199 0
M  V30 8107 O 770.929 1.77546 -0.827904 0
M  V30 8108 H 769.509 -0.0987127 -0.740449 0
M  V30 8109 H 772.171 -0.93873 -1.70804 0
M  V30 8110 H 771.267 -0.319446 -3.10461 0
M  V30 8111 N 771.568 1.50203 -0.477153 0
M  V30 8112 C 772.798 2.0647 0.0731427 0
M  V30 8113 C 773.206 1.3405 1.33518 0
M  V30 8114 O 772.549 0.405164 1.79176 0
M  V30 8115 C 772.611 3.57025 0.421121 0
M  V30 8116 C 772.275 4.50973 -0.739765 0
M  V30 8117 C 773.272 4.939 -1.62353 0
M  V30 8118 C 770.957 4.93581 -0.93181 0
M  V30 8119 C 772.951 5.78149 -2.6837 0
M  V30 8120 C 770.638 5.77612 -1.99519 0
M  V30 8121 C 771.636 6.19798 -2.86949 0
M  V30 8122 O 771.324 7.02152 -3.91456 0
M  V30 8123 H 771.056 0.675969 -0.00648243 0
M  V30 8124 H 773.61 1.94278 -0.66673 0
M  V30 8125 H 771.84 3.67141 1.21426 0
M  V30 8126 H 773.529 3.95632 0.907213 0
M  V30 8127 H 774.295 4.61646 -1.48687 0
M  V30 8128 H 770.174 4.60262 -0.260739 0
M  V30 8129 H 773.718 6.10997 -3.36643 0
M  V30 8130 H 769.615 6.09279 -2.13189 0
M  V30 8131 H 770.383 7.20414 -3.88518 0
M  V30 8132 N 773.046 0.209999 1.56195 0
M  V30 8133 C 774.294 -0.423974 1.97603 0
M  V30 8134 C 774.615 -1.61112 1.09854 0
M  V30 8135 O 773.885 -1.95134 0.173032 0
M  V30 8136 H 772.465 -0.159629 0.729745 0
M  V30 8137 H 775.127 0.300205 1.92574 0
M  V30 8138 H 774.223 -0.75809 3.02753 0
M  V30 8139 N 774.524 -1.57472 -0.0634922 0
M  V30 8140 C 775.472 -2.05307 -1.09323 0
M  V30 8141 C 776.466 -0.959995 -1.39572 0
M  V30 8142 O 777.672 -1.14507 -1.38882 0
M  V30 8143 H 774.047 -0.65472 -0.369927 0
M  V30 8144 H 776.018 -2.90925 -0.663707 0
M  V30 8145 C 774.767 -2.51954 -2.39613 0
M  V30 8146 H 774.09 -3.35662 -2.1719 0
M  V30 8147 H 775.53 -2.89169 -3.10092 0
M  V30 8148 C 773.989 -1.40596 -3.06161 0
M  V30 8149 O 774.519 -0.752722 -3.94585 0
M  V30 8150 N 772.725 -1.14902 -2.66919 0
M  V30 8151 H 772.272 -1.68205 -1.95102 0
M  V30 8152 H 772.23 -0.406006 -3.11767 0
M  V30 8153 N 776.003 0.335068 -1.53997 0
M  V30 8154 C 777.233 1.0926 -1.75345 0
M  V30 8155 C 777.641 1.82568 -0.496545 0
M  V30 8156 O 776.984 1.75525 0.541897 0
M  V30 8157 C 777.046 2.14473 -2.88516 0
M  V30 8158 C 776.71 1.60665 -4.27827 0
M  V30 8159 C 777.707 1.05448 -5.09094 0
M  V30 8160 C 775.392 1.65255 -4.74337 0
M  V30 8161 C 777.386 0.555372 -6.34976 0
M  V30 8162 C 775.073 1.14956 -6.0019 0
M  V30 8163 C 776.071 0.601907 -6.80343 0
M  V30 8164 O 775.759 0.106445 -8.0383 0
M  V30 8165 H 775.491 0.331329 -0.589234 0
M  V30 8166 H 778.045 0.39042 -2.01655 0
M  V30 8167 H 776.275 2.88274 -2.5775 0
M  V30 8168 H 777.964 2.75857 -2.97755 0
M  V30 8169 H 778.73 1.01218 -4.74321 0
M  V30 8170 H 774.609 2.06822 -4.12002 0
M  V30 8171 H 778.153 0.127245 -6.97484 0
M  V30 8172 H 774.05 1.18891 -6.34457 0
M  V30 8173 H 774.818 0.222944 -8.18196 0
M  V30 8174 N 777.481 1.45874 0.596531 0
M  V30 8175 C 778.706 1.54247 1.38646 0
M  V30 8176 C 779.131 0.179571 1.87241 0
M  V30 8177 O 778.489 -0.837831 1.6078 0
M  V30 8178 C 778.537 2.54015 2.55946 0
M  V30 8179 O 777.641 2.06561 3.5694 0
M  V30 8180 H 776.982 0.519555 0.413471 0
M  V30 8181 H 779.512 1.91327 0.724936 0
M  V30 8182 H 779.522 2.73179 3.03047 0
M  V30 8183 H 778.197 3.52994 2.19928 0
M  V30 8184 H 776.774 1.97324 3.16414 0
M  V30 8185 N 778.959 -0.83999 1.33349 0
M  V30 8186 C 780.37 -1.41139 1.22216 0
M  V30 8187 C 780.721 -1.95551 -0.159398 0
M  V30 8188 O 779.846 -1.88721 -1.05893 0
M  V30 8189 C 780.441 -2.56564 2.21269 0
M  V30 8190 C 779 -3.09661 2.13979 0
M  V30 8191 C 778.147 -1.82457 2.08818 0
M  V30 8192 H 781.098 -0.645853 1.44964 0
M  V30 8193 H 781.119 -3.34163 1.81976 0
M  V30 8194 H 780.631 -2.16932 3.21811 0
M  V30 8195 H 778.732 -3.53841 1.16736 0
M  V30 8196 H 778.845 -3.6991 3.04472 0
M  V30 8197 H 777.209 -2.0266 1.54276 0
M  V30 8198 H 777.992 -1.45022 3.11165 0
M  V30 8199 N 780.437 -1.16799 -1.0581 0
M  V30 8200 C 781.853 -0.913935 -1.30841 0
M  V30 8201 C 782.053 0.430439 -1.96849 0
M  V30 8202 O 781.109 1.16885 -2.23817 0
M  V30 8203 C 782.422 -2.06662 -2.18429 0
M  V30 8204 C 783.97 -2.10294 -2.31831 0
M  V30 8205 C 784.445 -3.2493 -3.22776 0
M  V30 8206 N 785.936 -3.24678 -3.30361 0
M  V30 8207 C 786.671 -4.10021 -4.00837 0
M  V30 8208 N 786.167 -5.05461 -4.73795 0
M  V30 8209 N 787.96 -3.97991 -3.96937 0
M  V30 8210 H 780.111 -2.03343 -0.613613 0
M  V30 8211 H 782.374 -0.88754 -0.333133 0
M  V30 8212 H 782.08 -3.03791 -1.77211 0
M  V30 8213 H 781.954 -2.01233 -3.19038 0
M  V30 8214 H 784.341 -1.13754 -2.72294 0
M  V30 8215 H 784.422 -2.19786 -1.30873 0
M  V30 8216 H 784.066 -4.21731 -2.83028 0
M  V30 8217 H 783.996 -3.12674 -4.23725 0
M  V30 8218 H 786.487 -2.55573 -2.78372 0
M  V30 8219 H 786.8 -5.66989 -5.25113 0
M  V30 8220 H 785.145 -5.09436 -4.72758 0
M  V30 8221 H 788.336 -3.2273 -3.39062 0
M  V30 8222 H 788.509 -4.64722 -4.51594 0
M  V30 8223 N 781.915 1.24427 -0.967243 0
M  V30 8224 C 782.845 2.2773 -0.515899 0
M  V30 8225 C 783.826 1.64197 0.444227 0
M  V30 8226 O 785.011 1.91193 0.340451 0
M  V30 8227 C 782.141 3.46751 0.195149 0
M  V30 8228 C 781.095 4.22548 -0.680953 0
M  V30 8229 C 780.421 5.34456 0.161561 0
M  V30 8230 C 781.721 4.83914 -1.96532 0
M  V30 8231 H 783.415 2.65735 -1.37933 0
M  V30 8232 H 780.961 1.27742 -0.664681 0
M  V30 8233 H 782.914 4.18153 0.522117 0
M  V30 8234 H 781.638 3.07771 1.09292 0
M  V30 8235 H 780.297 3.52946 -0.991186 0
M  V30 8236 H 779.945 4.91716 1.05947 0
M  V30 8237 H 779.645 5.86087 -0.421418 0
M  V30 8238 H 781.169 6.08685 0.483211 0
M  V30 8239 H 782.583 5.47392 -1.70396 0
M  V30 8240 H 780.98 5.45775 -2.49499 0
M  V30 8241 H 782.05 4.05393 -2.66053 0
M  V30 8242 N 783.393 0.737304 1.3929 0
M  V30 8243 C 784.67 0.212464 1.94443 0
M  V30 8244 C 785.05 -1.28621 1.67391 0
M  V30 8245 O 784.398 -2.0529 1.00342 0
M  V30 8246 C 784.608 0.548565 3.44662 0
M  V30 8247 C 785.956 0.499177 4.21656 0
M  V30 8248 O 786.98 0.485892 3.5287 0
M  V30 8249 O 785.839 0.495739 5.44247 0
M  V30 8250 H 782.933 0.0395457 0.826054 0
M  V30 8251 H 785.479 0.816319 1.48776 0
M  V30 8252 H 784.251 1.58426 3.57795 0
M  V30 8253 H 783.874 -0.0841399 3.97511 0
M  V30 8254 N 784.871 -1.49948 0.485112 0
M  V30 8255 C 786.117 -2.02695 -0.0651022 0
M  V30 8256 C 786.45 -1.36534 -1.38102 0
M  V30 8257 O 785.725 -0.495677 -1.88078 0
M  V30 8258 C 786.008 -3.59337 -0.234285 0
M  V30 8259 C 785.861 -4.3605 1.10364 0
M  V30 8260 C 787.18 -4.28996 -0.982351 0
M  V30 8261 H 784.299 -0.736666 -0.0221856 0
M  V30 8262 H 786.941 -1.7913 0.633433 0
M  V30 8263 H 785.091 -3.79546 -0.829262 0
M  V30 8264 H 786.763 -4.27377 1.73627 0
M  V30 8265 H 785.006 -3.99236 1.69686 0
M  V30 8266 H 785.677 -5.43959 0.938743 0
M  V30 8267 H 788.153 -4.13346 -0.477904 0
M  V30 8268 H 787.029 -5.38379 -1.06955 0
M  V30 8269 H 787.29 -3.93135 -2.02231 0
M  V30 8270 N 786.349 -0.21828 -1.56081 0
M  V30 8271 C 787.312 0.679633 -2.18892 0
M  V30 8272 C 788.312 1.12405 -1.14986 0
M  V30 8273 O 789.502 1.03339 -1.40238 0
M  V30 8274 C 786.634 1.93063 -2.80962 0
M  V30 8275 H 787.827 0.132066 -2.99609 0
M  V30 8276 H 785.38 0.0313374 -1.56269 0
M  V30 8277 H 786.115 2.52015 -2.04106 0
M  V30 8278 H 785.9 1.62046 -3.57048 0
M  V30 8279 H 787.39 2.57043 -3.29118 0
M  V30 8280 N 787.827 1.57504 0.0551401 0
M  V30 8281 C 789.055 1.92294 0.76358 0
M  V30 8282 C 789.47 0.815774 1.70266 0
M  V30 8283 O 788.827 -0.209772 1.8129 0
M  V30 8284 C 788.878 3.26914 1.54302 0
M  V30 8285 O 788.599 4.33375 0.641666 0
M  V30 8286 C 790.1 3.75825 2.35097 0
M  V30 8287 H 787.32 0.635229 0.216159 0
M  V30 8288 H 789.864 2.0449 0.0204385 0
M  V30 8289 H 788.019 3.16196 2.23828 0
M  V30 8290 H 788.433 5.10927 1.1855 0
M  V30 8291 H 789.907 4.72603 2.8522 0
M  V30 8292 H 790.384 3.0568 3.15367 0
M  V30 8293 H 790.99 3.89542 1.70696 0
M  V30 8294 N 789.305 -0.326896 1.54172 0
M  V30 8295 C 790.235 -1.40741 1.86317 0
M  V30 8296 C 791.216 -1.54125 0.719684 0
M  V30 8297 O 792.401 -1.6806 0.973117 0
M  V30 8298 C 789.531 -2.77557 2.08757 0
M  V30 8299 C 788.485 -2.78965 3.24596 0
M  V30 8300 C 787.811 -4.18824 3.32401 0
M  V30 8301 C 789.111 -2.4301 4.62324 0
M  V30 8302 H 790.805 -1.14088 2.76811 0
M  V30 8303 H 788.351 -0.547389 1.3319 0
M  V30 8304 H 790.304 -3.53209 2.29829 0
M  V30 8305 H 789.028 -3.0568 1.15009 0
M  V30 8306 H 787.687 -2.05767 3.03406 0
M  V30 8307 H 787.335 -4.44083 2.36218 0
M  V30 8308 H 787.035 -4.20673 4.10253 0
M  V30 8309 H 788.559 -4.96294 3.55703 0
M  V30 8310 H 789.973 -3.08375 4.83299 0
M  V30 8311 H 788.37 -2.56116 5.42701 0
M  V30 8312 H 789.44 -1.38165 4.64799 0
M  V30 8313 N 790.784 -1.46188 -0.588786 0
M  V30 8314 C 791.694 -1.58865 -1.72624 0
M  V30 8315 C 792.71 -0.472348 -1.67466 0
M  V30 8316 O 793.886 -0.735638 -1.87484 0
M  V30 8317 C 790.951 -1.56989 -3.0912 0
M  V30 8318 C 790.012 -2.79804 -3.25589 0
M  V30 8319 C 789.245 -2.78009 -4.55573 0
M  V30 8320 O 789.468 -1.86406 -5.39082 0
M  V30 8321 O 788.402 -3.6947 -4.75159 0
M  V30 8322 H 792.228 -2.55047 -1.64878 0
M  V30 8323 H 789.813 -1.28912 -0.755115 0
M  V30 8324 H 791.695 -1.58618 -3.90408 0
M  V30 8325 H 790.37 -0.639648 -3.17317 0
M  V30 8326 H 789.277 -2.83732 -2.43818 0
M  V30 8327 H 790.61 -3.72017 -3.22279 0
M  V30 8328 N 792.262 0.832906 -1.33792 0
M  V30 8329 C 793.172 1.97514 -1.26592 0
M  V30 8330 C 794.188 1.73114 -0.175391 0
M  V30 8331 O 795.364 1.97387 -0.400062 0
M  V30 8332 C 792.429 3.31625 -1.01121 0
M  V30 8333 C 791.49 3.69101 -2.19233 0
M  V30 8334 C 790.723 4.96813 -1.94968 0
M  V30 8335 O 790.946 5.63208 -0.902955 0
M  V30 8336 O 789.88 5.31932 -2.8166 0
M  V30 8337 H 793.706 2.0653 -2.22664 0
M  V30 8338 H 791.291 0.966826 -1.13898 0
M  V30 8339 H 793.173 4.11968 -0.886571 0
M  V30 8340 H 791.848 3.23599 -0.080822 0
M  V30 8341 H 790.755 2.89243 -2.37253 0
M  V30 8342 H 792.088 3.818 -3.10628 0
M  V30 8343 N 793.74 1.17359 1.05189 0
M  V30 8344 C 794.703 0.892604 2.11105 0
M  V30 8345 C 795.703 -0.117236 1.60372 0
M  V30 8346 O 796.893 0.114936 1.7382 0
M  V30 8347 C 794.025 0.337032 3.3923 0
M  V30 8348 H 795.218 1.83169 2.37464 0
M  V30 8349 H 792.771 0.984051 1.21434 0
M  V30 8350 H 793.506 -0.609198 3.18527 0
M  V30 8351 H 793.291 1.06484 3.77364 0
M  V30 8352 H 794.781 0.158763 4.17298 0
M  V30 8353 N 795.218 -1.23913 0.973828 0
M  V30 8354 C 796.446 -1.96195 0.656891 0
M  V30 8355 C 796.861 -1.72166 -0.774876 0
M  V30 8356 O 796.218 -1.0091 -1.52064 0
M  V30 8357 C 796.269 -3.49342 0.929638 0
M  V30 8358 O 795.99 -3.72553 2.30512 0
M  V30 8359 C 797.491 -4.38833 0.627739 0
M  V30 8360 H 794.711 -0.624841 0.244572 0
M  V30 8361 H 797.255 -1.57579 1.30343 0
M  V30 8362 H 795.41 -3.85999 0.329216 0
M  V30 8363 H 795.824 -4.66893 2.3898 0
M  V30 8364 H 797.298 -5.45117 0.868991 0
M  V30 8365 H 797.775 -4.37009 -0.438104 0
M  V30 8366 H 798.381 -4.07773 1.20834 0
M  V30 8367 N 796.696 -0.74468 -1.38897 0
M  V30 8368 C 797.944 -0.296298 -1.99916 0
M  V30 8369 C 798.265 1.12325 -1.59399 0
M  V30 8370 O 797.535 1.76658 -0.846689 0
M  V30 8371 H 796.115 -0.106561 -0.73936 0
M  V30 8372 H 798.777 -0.956793 -1.69798 0
M  V30 8373 H 797.873 -0.352356 -3.10105 0
M  V30 8374 N 798.174 1.49689 -0.493057 0
M  V30 8375 C 799.121 2.28976 0.28959 0
M  V30 8376 C 800.091 1.35011 0.967536 0
M  V30 8377 O 801.276 1.63964 0.975736 0
M  V30 8378 C 798.416 3.1748 1.35279 0
M  V30 8379 C 797.529 4.26496 0.687418 0
M  V30 8380 C 796.664 5.02226 1.73038 0
M  V30 8381 C 795.703 6.03089 1.04645 0
M  V30 8382 N 794.84 6.72014 2.03325 0
M  V30 8383 H 799.68 2.954 -0.392798 0
M  V30 8384 H 797.217 1.45657 -0.205554 0
M  V30 8385 H 799.175 3.67162 1.98111 0
M  V30 8386 H 797.805 2.53057 2.00405 0
M  V30 8387 H 796.857 3.80362 -0.0540001 0
M  V30 8388 H 798.169 4.98578 0.14864 0
M  V30 8389 H 797.323 5.55737 2.43395 0
M  V30 8390 H 796.062 4.29899 2.303 0
M  V30 8391 H 795.067 5.48817 0.328606 0
M  V30 8392 H 796.292 6.77398 0.480428 0
M  V30 8393 H 794.238 6.02464 2.59564 0
M  V30 8394 H 794.155 7.40046 1.54492 0
M  V30 8395 H 795.423 7.30133 2.72995 0
M  V30 8396 N 799.652 0.226554 1.55963 0
M  V30 8397 C 800.585 -0.721625 2.1649 0
M  V30 8398 C 801.563 -1.18745 1.11078 0
M  V30 8399 O 802.747 -1.26929 1.3936 0
M  V30 8400 C 799.874 -1.97828 2.74921 0
M  V30 8401 C 798.92 -1.65202 3.93206 0
M  V30 8402 S 799.753 -0.772419 5.299 0
M  V30 8403 C 800.909 -2.03853 5.91773 0
M  V30 8404 H 801.142 -0.207192 2.96577 0
M  V30 8405 H 798.675 0.0111976 1.54396 0
M  V30 8406 H 800.633 -2.69982 3.09225 0
M  V30 8407 H 799.294 -2.46384 1.94817 0
M  V30 8408 H 798.487 -2.58583 4.32609 0
M  V30 8409 H 798.089 -1.01108 3.60074 0
M  V30 8410 H 800.381 -2.98799 6.08051 0
M  V30 8411 H 801.324 -1.68831 6.87678 0
M  V30 8412 H 801.732 -2.18134 5.20651 0
M  V30 8413 N 801.13 -1.57531 -0.0467866 0
M  V30 8414 C 802.377 -1.88451 -0.74112 0
M  V30 8415 C 802.705 -0.821592 -1.76296 0
M  V30 8416 O 801.96 0.179585 -1.94874 0
M  V30 8417 C 802.259 -3.26091 -1.46285 0
M  V30 8418 C 801.925 -4.47171 -0.578669 0
M  V30 8419 C 800.587 -4.80032 -0.335083 0
M  V30 8420 C 802.939 -5.2119 0.0328809 0
M  V30 8421 C 800.267 -5.84309 0.529121 0
M  V30 8422 C 802.619 -6.26383 0.884684 0
M  V30 8423 C 801.283 -6.57729 1.1379 0
M  V30 8424 H 800.553 -0.68959 -0.271195 0
M  V30 8425 H 803.2 -1.915 -0.00132378 0
M  V30 8426 H 801.505 -3.18948 -2.27551 0
M  V30 8427 H 803.202 -3.47258 -2.00532 0
M  V30 8428 H 799.792 -4.21467 -0.778666 0
M  V30 8429 H 803.976 -4.96096 -0.142375 0
M  V30 8430 H 799.232 -6.06981 0.733794 0
M  V30 8431 H 803.406 -6.82888 1.36516 0
M  V30 8432 H 801.033 -7.38355 1.80929 0
M  V30 8433 N 802.608 0.318715 -1.54344 0
M  V30 8434 C 803.518 1.41535 -1.87097 0
M  V30 8435 C 804.534 1.56361 -0.763353 0
M  V30 8436 O 805.71 1.71365 -1.05811 0
M  V30 8437 C 802.775 2.76178 -2.09587 0
M  V30 8438 C 801.836 2.70486 -3.3337 0
M  V30 8439 C 801.069 3.98708 -3.54778 0
M  V30 8440 O 801.292 4.9721 -2.79532 0
M  V30 8441 O 800.226 4.01674 -4.48266 0
M  V30 8442 H 804.052 1.16764 -2.80357 0
M  V30 8443 H 801.637 0.51318 -1.4031 0
M  V30 8444 H 803.519 3.55873 -2.25682 0
M  V30 8445 H 802.194 3.00829 -1.19514 0
M  V30 8446 H 801.101 1.89325 -3.22656 0
M  V30 8447 H 802.434 2.50789 -4.23516 0
M  V30 8448 N 804.086 1.46499 0.581025 0
M  V30 8449 C 805.049 1.5677 1.672 0
M  V30 8450 C 806.049 0.444716 1.54528 0
M  V30 8451 O 807.239 0.709074 1.59116 0
M  V30 8452 C 804.371 1.4896 3.06633 0
M  V30 8453 H 805.564 2.54 1.5945 0
M  V30 8454 H 803.117 1.34334 0.799003 0
M  V30 8455 H 803.852 0.530168 3.19937 0
M  V30 8456 H 803.637 2.30439 3.17239 0
M  V30 8457 H 805.127 1.59237 3.86048 0
M  V30 8458 N 805.565 -0.825799 1.34232 0
M  V30 8459 C 806.793 -1.61363 1.29497 0
M  V30 8460 C 807.208 -1.88341 -0.131536 0
M  V30 8461 O 806.565 -1.47279 -1.07773 0
M  V30 8462 C 806.616 -2.95623 2.08061 0
M  V30 8463 O 806.337 -2.69824 3.45147 0
M  V30 8464 C 807.838 -3.90032 2.10688 0
M  V30 8465 H 805.058 -0.501676 0.445603 0
M  V30 8466 H 807.602 -1.02767 1.76803 0
M  V30 8467 H 805.757 -3.50785 1.64404 0
M  V30 8468 H 806.171 -3.55412 3.85723 0
M  V30 8469 H 807.645 -4.81411 2.70087 0
M  V30 8470 H 808.122 -4.25188 1.10052 0
M  V30 8471 H 808.728 -3.40807 2.54422 0
M  V30 8472 N 807.043 -1.17915 -1.04565 0
M  V30 8473 C 808.006 -0.903787 -2.10628 0
M  V30 8474 C 809.006 0.10873 -1.60432 0
M  V30 8475 O 810.196 -0.124152 -1.73757 0
M  V30 8476 C 807.328 -0.355017 -3.39046 0
M  V30 8477 H 808.521 -1.84425 -2.3649 0
M  V30 8478 H 806.074 -0.990477 -1.2091 0
M  V30 8479 H 806.809 0.592297 -3.18845 0
M  V30 8480 H 806.594 -1.08484 -3.76794 0
M  V30 8481 H 808.084 -0.180891 -4.17208 0
M  V30 8482 N 808.521 1.23394 -0.980386 0
M  V30 8483 C 809.767 1.92094 -0.650223 0
M  V30 8484 C 810.1 1.76309 0.814173 0
M  V30 8485 O 809.375 1.12406 1.5873 0
M  V30 8486 C 809.658 3.44713 -1.04139 0
M  V30 8487 C 809.511 3.69606 -2.56342 0
M  V30 8488 C 810.83 4.36191 -0.585296 0
M  V30 8489 H 807.949 0.697618 -0.237695 0
M  V30 8490 H 810.591 1.45517 -1.22167 0
M  V30 8491 H 808.741 3.84513 -0.55515 0
M  V30 8492 H 810.413 3.39288 -3.1254 0
M  V30 8493 H 808.656 3.14318 -2.98976 0
M  V30 8494 H 809.327 4.76441 -2.78762 0
M  V30 8495 H 811.803 4.03836 -1.00276 0
M  V30 8496 H 810.679 5.41679 -0.887428 0
M  V30 8497 H 810.94 4.39097 0.51438 0
M  V30 8498 N 809.999 0.752036 1.385 0
M  V30 8499 C 811.224 0.316993 2.04963 0
M  V30 8500 C 811.649 -1.04582 1.56346 0
M  V30 8501 O 811.007 -1.66616 0.714755 0
M  V30 8502 C 811.055 0.347235 3.58924 0
M  V30 8503 O 810.159 -0.659296 4.07096 0
M  V30 8504 H 809.5 0.140652 0.648932 0
M  V30 8505 H 812.03 1.02272 1.77205 0
M  V30 8506 H 812.04 0.19757 4.07521 0
M  V30 8507 H 810.715 1.34157 3.93668 0
M  V30 8508 H 809.292 -0.474371 3.6987 0
M  V30 8509 N 811.477 -1.49425 0.500989 0
M  V30 8510 C 812.702 -2.07356 -0.0425154 0
M  V30 8511 C 813.127 -1.35887 -1.30063 0
M  V30 8512 O 812.485 -0.41561 -1.76472 0
M  V30 8513 C 812.533 -3.59518 -0.279188 0
M  V30 8514 O 811.637 -3.89542 -1.3539 0
M  V30 8515 H 810.978 -0.663482 0.0262207 0
M  V30 8516 H 813.508 -1.92231 0.700607 0
M  V30 8517 H 813.518 -4.04791 -0.5107 0
M  V30 8518 H 812.193 -4.10946 0.640009 0
M  V30 8519 H 810.77 -3.56079 -1.10734 0
M  V30 8520 N 812.955 -0.234822 -1.55841 0
M  V30 8521 C 813.865 0.680828 -2.24504 0
M  V30 8522 C 814.881 1.20306 -1.25708 0
M  V30 8523 O 816.057 1.24188 -1.58554 0
M  V30 8524 C 813.122 1.86636 -2.92178 0
M  V30 8525 C 812.183 1.3848 -4.06352 0
M  V30 8526 C 811.416 2.51382 -4.70789 0
M  V30 8527 O 811.639 3.69831 -4.34259 0
M  V30 8528 O 810.573 2.21828 -5.59532 0
M  V30 8529 H 814.399 0.12583 -3.03439 0
M  V30 8530 H 811.984 -0.00381817 -1.494 0
M  V30 8531 H 813.866 2.55845 -3.34845 0
M  V30 8532 H 812.541 2.40921 -2.16192 0
M  V30 8533 H 811.448 0.660341 -3.68226 0
M  V30 8534 H 812.781 0.888177 -4.8412 0
M  V30 8535 N 814.433 1.57553 0.0384317 0
M  V30 8536 C 815.365 2.02726 1.06934 0
M  V30 8537 C 816.378 0.938502 1.33026 0
M  V30 8538 O 817.567 1.21595 1.30678 0
M  V30 8539 C 814.667 2.37958 2.41308 0
M  V30 8540 C 813.84 3.69098 2.34703 0
M  V30 8541 C 812.899 3.91623 3.51451 0
M  V30 8542 O 811.925 4.628 3.31368 0
M  V30 8543 N 813.127 3.36538 4.72993 0
M  V30 8544 H 815.892 2.91781 0.684381 0
M  V30 8545 H 813.453 1.60307 0.226542 0
M  V30 8546 H 815.445 2.50172 3.18113 0
M  V30 8547 H 814.015 1.54621 2.71682 0
M  V30 8548 H 813.235 3.67325 1.43059 0
M  V30 8549 H 814.523 4.55144 2.27424 0
M  V30 8550 H 813.921 2.78828 4.92211 0
M  V30 8551 H 812.478 3.54148 5.47195 0
M  V30 8552 N 815.911 -0.310526 1.54511 0
M  V30 8553 C 816.859 -1.40272 1.85544 0
M  V30 8554 C 817.853 -1.52941 0.728377 0
M  V30 8555 O 819.059 -1.55172 0.912234 0
M  V30 8556 H 815.434 -0.468355 0.588343 0
M  V30 8557 H 817.405 -1.11329 2.76855 0
M  V30 8558 C 816.154 -2.76279 2.11105 0
M  V30 8559 H 815.477 -2.67308 2.97298 0
M  V30 8560 H 816.917 -3.51736 2.36765 0
M  V30 8561 C 815.376 -3.24472 0.906618 0
M  V30 8562 O 815.906 -4.01514 0.122358 0
M  V30 8563 N 814.112 -2.81676 0.714632 0
M  V30 8564 H 813.659 -2.19143 1.35404 0
M  V30 8565 H 813.617 -3.14272 -0.089703 0
M  V30 8566 N 817.389 -1.46805 -0.573248 0
M  V30 8567 C 818.8 -1.46655 -1.15539 0
M  V30 8568 C 819.151 -0.2125 -1.95046 0
M  V30 8569 O 818.276 0.683759 -2.05314 0
M  V30 8570 C 818.871 -2.65711 -2.10198 0
M  V30 8571 C 817.43 -2.68572 -2.63716 0
M  V30 8572 C 816.577 -2.39498 -1.39772 0
M  V30 8573 H 819.528 -1.54547 -0.36068 0
M  V30 8574 H 819.549 -2.41768 -2.93817 0
M  V30 8575 H 819.061 -3.56967 -1.52303 0
M  V30 8576 H 817.162 -1.81414 -3.25453 0
M  V30 8577 H 817.275 -3.68809 -3.05805 0
M  V30 8578 H 815.639 -1.89749 -1.69904 0
M  V30 8579 H 816.422 -3.32942 -0.836943 0
M  V30 8580 N 818.867 0.818669 -1.34668 0
M  V30 8581 C 820.113 1.57746 -1.27453 0
M  V30 8582 C 820.446 1.93588 0.154077 0
M  V30 8583 O 819.721 1.60371 1.10051 0
M  V30 8584 C 820.004 2.87414 -2.16945 0
M  V30 8585 C 819.857 2.58125 -3.68363 0
M  V30 8586 C 821.176 3.89021 -2.05792 0
M  V30 8587 H 818.295 0.572339 -0.464324 0
M  V30 8588 H 820.937 0.942784 -1.64959 0
M  V30 8589 H 819.087 3.41576 -1.85089 0
M  V30 8590 H 820.759 2.10239 -4.10606 0
M  V30 8591 H 819.002 1.91503 -3.89242 0
M  V30 8592 H 819.673 3.5061 -4.26353 0
M  V30 8593 H 822.149 3.44224 -2.33771 0
M  V30 8594 H 821.025 4.77548 -2.70628 0
M  V30 8595 H 821.286 4.29786 -1.03618 0
M  V30 8596 N 820.346 1.18468 1.03938 0
M  V30 8597 C 821.595 0.975193 1.76558 0
M  V30 8598 C 821.908 -0.495978 1.89207 0
M  V30 8599 O 823.114 -0.824009 2.58694 0
M  V30 8600 C 821.57 1.69579 3.17444 0
M  V30 8601 C 821.178 3.20636 3.12884 0
M  V30 8602 C 822.922 1.56917 3.94433 0
M  V30 8603 C 820.829 3.8533 4.48636 0
M  V30 8604 H 819.759 0.361244 0.66183 0
M  V30 8605 H 822.41 1.41854 1.16403 0
M  V30 8606 H 820.792 1.18022 3.78004 0
M  V30 8607 H 821.966 3.79228 2.61768 0
M  V30 8608 H 820.281 3.33454 2.49394 0
M  V30 8609 H 822.878 2.02611 4.94826 0
M  V30 8610 H 823.221 0.521638 4.13019 0
M  V30 8611 H 823.754 2.05762 3.40451 0
M  V30 8612 H 820.493 4.90136 4.35255 0
M  V30 8613 H 820.013 3.31526 4.99851 0
M  V30 8614 H 821.692 3.88269 5.17549 0
M  V30 8615 N 821.824 -1.22873 0.986916 0
M  V30 8616 C 823.073 -1.90772 0.654911 0
M  V30 8617 C 823.386 -1.77768 -0.81595 0
M  V30 8618 O 824.592 -2.40529 -1.25929 0
M  V30 8619 C 823.048 -3.42003 1.12081 0
M  V30 8620 C 822.656 -3.63655 2.61647 0
M  V30 8621 C 824.4 -4.15638 0.862854 0
M  V30 8622 C 822.307 -5.08555 3.01871 0
M  V30 8623 H 821.237 -0.714362 0.241252 0
M  V30 8624 H 823.888 -1.39196 1.19568 0
M  V30 8625 H 822.27 -3.92725 0.508207 0
M  V30 8626 H 823.444 -3.2345 3.28202 0
M  V30 8627 H 821.759 -3.03341 2.8526 0
M  V30 8628 H 824.356 -5.22425 1.13915 0
M  V30 8629 H 824.699 -4.15814 -0.201036 0
M  V30 8630 H 825.232 -3.70924 1.43736 0
M  V30 8631 H 821.971 -5.13514 4.07411 0
M  V30 8632 H 821.491 -5.49684 2.40015 0
M  V30 8633 H 823.17 -5.76936 2.92839 0
M  V30 8634 N 823.302 -0.75937 -1.38099 0
M  V30 8635 C 824.551 -0.314864 -1.99227 0
M  V30 8636 C 824.864 1.1113 -1.60964 0
M  V30 8637 O 826.07 1.65657 -2.15105 0
M  V30 8638 C 824.526 -0.512001 -3.56239 0
M  V30 8639 C 824.134 -1.94762 -4.0345 0
M  V30 8640 C 825.878 -0.130497 -4.24299 0
M  V30 8641 C 823.785 -2.09301 -5.53125 0
M  V30 8642 H 822.715 -0.113978 -0.745335 0
M  V30 8643 H 825.366 -0.936736 -1.57789 0
M  V30 8644 H 823.748 0.179144 -3.95595 0
M  V30 8645 H 824.922 -2.67271 -3.75371 0
M  V30 8646 H 823.237 -2.28457 -3.48133 0
M  V30 8647 H 825.834 -0.21781 -5.34256 0
M  V30 8648 H 826.177 0.917644 -4.0606 0
M  V30 8649 H 826.71 -0.773716 -3.90203 0
M  V30 8650 H 823.449 -3.1239 -5.76275 0
M  V30 8651 H 822.969 -1.41261 -5.82928 0
M  V30 8652 H 824.648 -1.88571 -6.1891 0
M  V30 8653 N 824.78 1.49157 -0.508906 0
M  V30 8654 C 825.743 2.27784 0.25434 0
M  V30 8655 C 826.743 1.34132 0.88686 0
M  V30 8656 O 827.933 1.5722 0.750168 0
M  V30 8657 C 825.065 3.12347 1.36573 0
M  V30 8658 H 826.258 2.96718 -0.435714 0
M  V30 8659 H 823.811 1.54052 -0.264128 0
M  V30 8660 H 824.546 2.47997 2.08969 0
M  V30 8661 H 824.331 3.81213 0.917543 0
M  V30 8662 H 825.821 3.71712 1.90315 0
M  V30 8663 N 826.258 0.243083 1.55714 0
M  V30 8664 C 827.504 -0.383287 1.99145 0
M  V30 8665 C 827.837 -1.57868 1.13098 0
M  V30 8666 O 827.112 -1.93535 0.193509 0
M  V30 8667 C 827.395 -0.796879 3.51172 0
M  V30 8668 C 827.248 0.403642 4.47985 0
M  V30 8669 C 828.567 -1.64525 4.08191 0
M  V30 8670 H 825.686 -0.137843 0.723995 0
M  V30 8671 H 828.328 0.343631 1.86867 0
M  V30 8672 H 826.478 -1.41625 3.61766 0
M  V30 8673 H 828.15 1.04204 4.49376 0
M  V30 8674 H 826.393 1.04741 4.20965 0
M  V30 8675 H 827.064 0.0709794 5.51954 0
M  V30 8676 H 829.54 -1.12246 4.00674 0
M  V30 8677 H 828.416 -1.9035 5.14838 0
M  V30 8678 H 828.677 -2.61582 3.56409 0
M  V30 8679 N 827.736 -1.57571 -0.0300757 0
M  V30 8680 C 828.982 -1.89506 -0.722159 0
M  V30 8681 C 829.315 -0.840699 -1.7506 0
M  V30 8682 O 828.59 0.144358 -1.93964 0
M  V30 8683 C 828.873 -3.32081 -1.39262 0
M  V30 8684 C 828.726 -4.48211 -0.377768 0
M  V30 8685 C 830.045 -3.73557 -2.32687 0
M  V30 8686 H 827.164 -0.689213 -0.261064 0
M  V30 8687 H 829.806 -1.89994 0.0150388 0
M  V30 8688 H 827.956 -3.31796 -2.02098 0
M  V30 8689 H 829.628 -4.6063 0.248591 0
M  V30 8690 H 827.871 -4.3274 0.303045 0
M  V30 8691 H 828.542 -5.44854 -0.885347 0
M  V30 8692 H 831.018 -3.75202 -1.79896 0
M  V30 8693 H 829.894 -4.74125 -2.7658 0
M  V30 8694 H 830.155 -3.05759 -3.19317 0
M  V30 8695 N 829.214 0.302327 -1.54673 0
M  V30 8696 C 830.177 1.35592 -1.8479 0
M  V30 8697 C 831.177 1.43743 -0.72073 0
M  V30 8698 O 832.367 1.43402 -0.989017 0
M  V30 8699 C 829.499 2.74091 -2.02699 0
M  V30 8700 H 830.692 1.10132 -2.78946 0
M  V30 8701 H 828.245 0.538926 -1.46715 0
M  V30 8702 H 828.98 3.04775 -1.10826 0
M  V30 8703 H 828.765 2.69565 -2.8474 0
M  V30 8704 H 830.255 3.50272 -2.27374 0
M  V30 8705 N 830.692 1.47107 0.565454 0
M  V30 8706 C 831.938 1.53535 1.32495 0
M  V30 8707 C 832.271 0.193537 1.93233 0
M  V30 8708 O 831.546 -0.796956 1.77423 0
M  V30 8709 C 831.829 2.64712 2.4413 0
M  V30 8710 C 831.682 4.08482 1.88314 0
M  V30 8711 C 833.001 2.71853 3.46098 0
M  V30 8712 H 830.12 0.558926 0.480386 0
M  V30 8713 H 832.762 1.79125 0.633575 0
M  V30 8714 H 830.912 2.43023 3.03104 0
M  V30 8715 H 832.584 4.4151 1.33665 0
M  V30 8716 H 830.827 4.17148 1.19037 0
M  V30 8717 H 831.498 4.82032 2.68978 0
M  V30 8718 H 833.974 2.91397 2.97031 0
M  V30 8719 H 832.85 3.51433 4.21646 0
M  V30 8720 H 833.111 1.78584 4.04426 0
M  V30 8721 N 832.17 -0.811516 1.35101 0
M  V30 8722 C 833.133 -1.90467 1.27495 0
M  V30 8723 C 834.133 -1.59703 0.187516 0
M  V30 8724 O 835.323 -1.68528 0.440896 0
M  V30 8725 C 832.455 -3.26774 0.971154 0
M  V30 8726 H 833.648 -1.98631 2.2469 0
M  V30 8727 H 831.201 -1.00681 1.19553 0
M  V30 8728 H 831.936 -3.243 0.0028557 0
M  V30 8729 H 831.721 -3.50488 1.75785 0
M  V30 8730 H 833.211 -4.06804 0.943414 0
M  V30 8731 N 833.648 -1.19017 -1.03309 0
M  V30 8732 C 834.896 -0.988258 -1.76289 0
M  V30 8733 C 835.217 0.482557 -1.88935 0
M  V30 8734 O 834.487 1.34969 -1.41987 0
M  V30 8735 H 833.067 -0.36267 -0.653054 0
M  V30 8736 H 835.729 -1.49836 -1.2464 0
M  V30 8737 H 834.825 -1.43273 -2.77271 0
M  V30 8738 N 835.127 1.22348 -0.993418 0
M  V30 8739 C 836.355 1.95125 -0.688021 0
M  V30 8740 C 836.77 1.73377 0.747388 0
M  V30 8741 O 836.127 1.03317 1.50439 0
M  V30 8742 C 836.178 3.47819 -0.985097 0
M  V30 8743 O 835.899 3.68838 -2.3641 0
M  V30 8744 C 837.4 4.37779 -0.697474 0
M  V30 8745 H 834.62 0.62087 -0.254481 0
M  V30 8746 H 837.164 1.55485 -1.32833 0
M  V30 8747 H 835.319 3.85426 -0.390583 0
M  V30 8748 H 835.733 4.63032 -2.46377 0
M  V30 8749 H 837.207 5.43666 -0.955604 0
M  V30 8750 H 837.684 4.37651 0.368524 0
M  V30 8751 H 838.29 4.05799 -1.27306 0
M  V30 8752 N 836.605 0.766683 1.37694 0
M  V30 8753 C 837.854 0.325425 1.99057 0
M  V30 8754 C 838.167 -1.10275 1.61551 0
M  V30 8755 O 839.373 -1.64513 2.1598 0
M  V30 8756 C 837.829 0.530886 3.55963 0
M  V30 8757 C 837.437 1.96899 4.02411 0
M  V30 8758 C 839.181 0.152997 4.24224 0
M  V30 8759 C 837.088 2.12232 5.52007 0
M  V30 8760 H 836.018 0.117929 0.744721 0
M  V30 8761 H 838.669 0.945091 1.5729 0
M  V30 8762 H 837.051 -0.158162 3.95684 0
M  V30 8763 H 838.225 2.69258 3.73948 0
M  V30 8764 H 836.54 2.303 3.46916 0
M  V30 8765 H 839.137 0.24614 5.34133 0
M  V30 8766 H 839.48 -0.896096 4.06541 0
M  V30 8767 H 840.013 0.794398 3.89787 0
M  V30 8768 H 836.752 3.15442 5.7461 0
M  V30 8769 H 836.272 1.4435 5.82171 0
M  V30 8770 H 837.951 1.9185 6.17902 0
M  V30 8771 N 838.083 -1.48885 0.516809 0
M  V30 8772 C 839.332 -2.01686 -0.0239899 0
M  V30 8773 C 839.645 -1.40029 -1.3657 0
M  V30 8774 O 840.851 -1.84249 -1.9941 0
M  V30 8775 C 839.307 -3.59779 -0.0931825 0
M  V30 8776 C 838.915 -4.30416 1.24283 0
M  V30 8777 C 840.659 -4.20471 -0.583507 0
M  V30 8778 C 838.566 -5.80408 1.13494 0
M  V30 8779 H 837.496 -0.753892 -0.0127376 0
M  V30 8780 H 840.147 -1.71273 0.65861 0
M  V30 8781 H 838.529 -3.86976 -0.840577 0
M  V30 8782 H 839.703 -4.14905 2.00476 0
M  V30 8783 H 838.018 -3.81539 1.66785 0
M  V30 8784 H 840.615 -5.30333 -0.681987 0
M  V30 8785 H 840.958 -3.84898 -1.58617 0
M  V30 8786 H 841.491 -3.97654 0.107814 0
M  V30 8787 H 838.23 -6.20532 2.11235 0
M  V30 8788 H 837.75 -5.98368 0.414167 0
M  V30 8789 H 839.429 -6.41781 0.820162 0
M  V30 8790 N 839.561 -0.251338 -1.55583 0
M  V30 8791 C 840.491 0.640437 -2.24545 0
M  V30 8792 C 841.472 1.17781 -1.22726 0
M  V30 8793 O 842.657 1.21633 -1.5139 0
M  V30 8794 C 839.787 1.8355 -2.94834 0
M  V30 8795 C 838.741 1.4307 -4.03379 0
M  V30 8796 C 838.067 2.70695 -4.61116 0
M  V30 8797 C 839.367 0.59848 -5.1886 0
M  V30 8798 H 841.061 0.0653772 -2.99329 0
M  V30 8799 H 838.607 0.0300042 -1.43969 0
M  V30 8800 H 840.56 2.46505 -3.4178 0
M  V30 8801 H 839.284 2.43601 -2.17546 0
M  V30 8802 H 837.943 0.824474 -3.57209 0
M  V30 8803 H 837.591 3.28954 -3.80524 0
M  V30 8804 H 837.291 2.44332 -5.34393 0
M  V30 8805 H 838.815 3.34541 -5.10798 0
M  V30 8806 H 840.229 1.13244 -5.62004 0
M  V30 8807 H 838.626 0.430728 -5.98552 0
M  V30 8808 H 839.696 -0.38829 -4.83343 0
M  V30 8809 N 841.039 1.57585 0.0217189 0
M  V30 8810 C 842.285 1.89887 0.712099 0
M  V30 8811 C 842.618 0.849971 1.74611 0
M  V30 8812 O 841.893 -0.13407 1.94037 0
M  V30 8813 C 842.176 3.32815 1.37499 0
M  V30 8814 C 842.029 4.48405 0.353993 0
M  V30 8815 C 843.348 3.74786 2.30703 0
M  V30 8816 H 840.467 0.690588 0.257405 0
M  V30 8817 H 843.109 1.89983 -0.0251145 0
M  V30 8818 H 841.259 3.32863 2.00335 0
M  V30 8819 H 842.931 4.60491 -0.273015 0
M  V30 8820 H 841.174 4.32573 -0.32599 0
M  V30 8821 H 841.845 5.45316 0.85644 0
M  V30 8822 H 844.321 3.76151 1.77904 0
M  V30 8823 H 843.197 4.75585 2.74061 0
M  V30 8824 H 843.458 3.07449 3.17691 0
M  V30 8825 N 842.517 -0.29412 1.54831 0
M  V30 8826 C 843.764 -1.02846 1.74439 0
M  V30 8827 C 844.092 -1.87029 0.533905 0
M  V30 8828 O 843.347 -1.8962 -0.484035 0
M  V30 8829 C 843.646 -1.95782 2.99006 0
M  V30 8830 C 843.312 -1.2752 4.32492 0
M  V30 8831 C 841.974 -1.08637 4.68777 0
M  V30 8832 C 844.326 -0.787761 5.15212 0
M  V30 8833 C 841.654 -0.39704 5.85355 0
M  V30 8834 C 844.006 -0.112123 6.32501 0
M  V30 8835 C 842.67 0.0886071 6.67441 0
M  V30 8836 H 841.94 -0.376341 0.638317 0
M  V30 8837 H 844.587 -0.302684 1.89093 0
M  V30 8838 H 842.892 -2.74911 2.79162 0
M  V30 8839 H 844.589 -2.52684 3.11371 0
M  V30 8840 H 841.179 -1.43226 4.03961 0
M  V30 8841 H 845.363 -0.921341 4.87673 0
M  V30 8842 H 840.619 -0.230597 6.10965 0
M  V30 8843 H 844.793 0.27344 6.95863 0
M  V30 8844 H 842.42 0.624748 7.57628 0
M  V30 8845 N 843.995 -1.47404 -0.557645 0
M  V30 8846 C 844.928 -1.54399 -1.68036 0
M  V30 8847 C 845.906 -0.396175 -1.577 0
M  V30 8848 O 847.09 -0.603911 -1.78564 0
M  V30 8849 C 844.217 -1.44611 -3.06277 0
M  V30 8850 C 843.263 -2.63889 -3.35059 0
M  V30 8851 S 844.096 -4.26086 -3.24362 0
M  V30 8852 C 845.252 -4.1885 -4.65097 0
M  V30 8853 H 845.485 -2.49384 -1.61849 0
M  V30 8854 H 843.018 -1.35597 -0.738429 0
M  V30 8855 H 844.976 -1.39651 -3.86015 0
M  V30 8856 H 843.637 -0.510114 -3.0993 0
M  V30 8857 H 842.83 -2.53103 -4.35838 0
M  V30 8858 H 842.432 -2.65969 -2.62938 0
M  V30 8859 H 844.724 -3.87077 -5.56037 0
M  V30 8860 H 845.667 -5.19714 -4.8094 0
M  V30 8861 H 846.075 -3.49717 -4.43123 0
M  V30 8862 N 845.473 0.80434 -1.35529 0
M  V30 8863 C 846.719 1.56385 -1.29118 0
M  V30 8864 C 847.052 1.9374 0.133536 0
M  V30 8865 O 846.327 1.6153 1.08344 0
M  V30 8866 C 846.61 2.85097 -2.19981 0
M  V30 8867 C 846.463 2.54204 -3.7108 0
M  V30 8868 C 847.782 3.86817 -2.09907 0
M  V30 8869 H 844.901 0.567382 -0.470368 0
M  V30 8870 H 847.543 0.925235 -1.6595 0
M  V30 8871 H 845.693 3.39594 -1.88701 0
M  V30 8872 H 847.365 2.05872 -4.12813 0
M  V30 8873 H 845.608 1.87364 -3.91251 0
M  V30 8874 H 846.279 3.46068 -4.30048 0
M  V30 8875 H 848.755 3.41725 -2.37409 0
M  V30 8876 H 847.631 4.7465 -2.75678 0
M  V30 8877 H 847.892 4.28663 -1.08171 0
M  V30 8878 N 846.951 1.19563 1.02676 0
M  V30 8879 C 848.198 0.999568 1.7611 0
M  V30 8880 C 848.526 -0.469432 1.8875 0
M  V30 8881 O 847.781 -1.36481 1.40255 0
M  V30 8882 C 848.08 1.61619 3.18769 0
M  V30 8883 C 847.746 3.11366 3.26132 0
M  V30 8884 C 846.408 3.52234 3.27848 0
M  V30 8885 C 848.76 4.07374 3.25109 0
M  V30 8886 C 846.088 4.87658 3.26201 0
M  V30 8887 C 848.44 5.42731 3.25002 0
M  V30 8888 C 847.104 5.83027 3.25017 0
M  V30 8889 H 846.374 0.365768 0.644434 0
M  V30 8890 H 849.021 1.48838 1.20497 0
M  V30 8891 H 847.326 1.04974 3.77476 0
M  V30 8892 H 849.023 1.43975 3.74262 0
M  V30 8893 H 845.613 2.78804 3.25525 0
M  V30 8894 H 849.797 3.76842 3.22961 0
M  V30 8895 H 845.053 5.18156 3.24537 0
M  V30 8896 H 849.227 6.16879 3.23161 0
M  V30 8897 H 846.854 6.87936 3.23494 0
M  V30 8898 N 848.429 -1.21819 0.999893 0
M  V30 8899 C 849.677 -1.90375 0.678351 0
M  V30 8900 C 849.998 -1.78155 -0.792824 0
M  V30 8901 O 849.268 -1.17319 -1.56885 0
M  V30 8902 H 847.848 -0.704661 0.247915 0
M  V30 8903 H 850.51 -1.48021 1.2679 0
M  V30 8904 H 849.606 -2.97385 0.947023 0
M  V30 8905 N 849.908 -0.773975 -1.37286 0
M  V30 8906 C 851.155 -0.339306 -1.99637 0
M  V30 8907 C 851.483 1.08478 -1.61439 0
M  V30 8908 O 850.738 1.7612 -0.853252 0
M  V30 8909 C 851.037 -0.432651 -3.54772 0
M  V30 8910 C 850.703 -1.81531 -4.12744 0
M  V30 8911 C 849.365 -2.19366 -4.2829 0
M  V30 8912 C 851.717 -2.72137 -4.44512 0
M  V30 8913 C 849.045 -3.47239 -4.72908 0
M  V30 8914 C 851.397 -3.99421 -4.90556 0
M  V30 8915 C 850.061 -4.37298 -5.04308 0
M  V30 8916 H 849.331 -0.124161 -0.730524 0
M  V30 8917 H 851.978 -0.988432 -1.64019 0
M  V30 8918 H 850.283 0.30001 -3.9065 0
M  V30 8919 H 851.98 -0.0776 -4.00925 0
M  V30 8920 H 848.57 -1.51126 -4.01072 0
M  V30 8921 H 852.754 -2.44165 -4.32084 0
M  V30 8922 H 848.01 -3.76477 -4.81742 0
M  V30 8923 H 852.184 -4.69756 -5.14104 0
M  V30 8924 H 849.811 -5.36442 -5.38641 0
M  V30 8925 N 851.386 1.48609 -0.524698 0
M  V30 8926 C 852.635 2.01696 0.0132937 0
M  V30 8927 C 852.948 1.40751 1.35825 0
M  V30 8928 O 854.154 1.85304 1.9843 0
M  V30 8929 C 852.61 3.59824 0.0741012 0
M  V30 8930 C 852.218 4.2975 -1.26564 0
M  V30 8931 C 853.962 4.20774 0.5612 0
M  V30 8932 C 851.869 5.79798 -1.16571 0
M  V30 8933 H 850.799 0.753949 0.00873931 0
M  V30 8934 H 853.45 1.70922 -0.667684 0
M  V30 8935 H 851.832 3.87416 0.820043 0
M  V30 8936 H 853.006 4.13836 -2.02674 0
M  V30 8937 H 851.321 3.80649 -1.68806 0
M  V30 8938 H 853.918 5.30687 0.653853 0
M  V30 8939 H 854.261 3.85734 1.56573 0
M  V30 8940 H 854.794 3.97591 -0.128901 0
M  V30 8941 H 851.533 6.19403 -2.14523 0
M  V30 8942 H 851.053 5.9814 -0.445894 0
M  V30 8943 H 852.732 6.41337 -0.854186 0
M  V30 8944 N 852.864 0.259585 1.55447 0
M  V30 8945 C 854.113 -0.362163 1.98422 0
M  V30 8946 C 854.426 -1.58135 1.1512 0
M  V30 8947 O 855.632 -2.27506 1.48166 0
M  V30 8948 C 854.088 -0.695722 3.53111 0
M  V30 8949 C 853.696 0.502784 4.4517 0
M  V30 8950 C 855.44 -1.28096 4.04712 0
M  V30 8951 C 853.347 0.144674 5.91223 0
M  V30 8952 H 852.277 -0.139092 0.74106 0
M  V30 8953 H 854.928 0.361798 1.79898 0
M  V30 8954 H 853.31 -1.47816 3.67378 0
M  V30 8955 H 854.484 1.27994 4.42667 0
M  V30 8956 H 852.799 1.0038 4.0412 0
M  V30 8957 H 855.396 -1.56243 5.11363 0
M  V30 8958 H 855.739 -2.20969 3.52815 0
M  V30 8959 H 856.272 -0.561146 3.93822 0
M  V30 8960 H 853.011 1.04087 6.47183 0
M  V30 8961 H 852.531 -0.596023 5.96831 0
M  V30 8962 H 854.21 -0.268651 6.46442 0
M  V30 8963 N 854.342 -1.57594 -0.0133615 0
M  V30 8964 C 855.59 -1.89605 -0.699596 0
M  V30 8965 C 855.911 -0.85926 -1.75048 0
M  V30 8966 O 855.181 0.105112 -1.95618 0
M  V30 8967 H 853.761 -0.699776 -0.261385 0
M  V30 8968 H 856.423 -1.94885 0.0244044 0
M  V30 8969 H 855.519 -2.88962 -1.17928 0
M  V30 8970 N 855.82 0.285905 -1.54985 0
M  V30 8971 C 857.236 0.632405 -1.46536 0
M  V30 8972 C 857.436 1.90074 -0.668888 0
M  V30 8973 O 856.492 2.51839 -0.182586 0
M  V30 8974 C 857.805 0.771361 -2.90638 0
M  V30 8975 C 859.353 0.866262 -3.00774 0
M  V30 8976 C 859.828 1.0371 -4.46103 0
M  V30 8977 N 861.319 1.10294 -4.49877 0
M  V30 8978 C 862.054 1.25369 -5.59527 0
M  V30 8979 N 861.55 1.37246 -6.7907 0
M  V30 8980 N 863.343 1.28377 -5.47244 0
M  V30 8981 H 855.494 -0.547226 -2.0523 0
M  V30 8982 H 857.757 -0.183298 -0.930111 0
M  V30 8983 H 857.463 -0.0899485 -3.51585 0
M  V30 8984 H 857.337 1.65569 -3.3892 0
M  V30 8985 H 859.724 1.71805 -2.39931 0
M  V30 8986 H 859.805 -0.0424049 -2.55765 0
M  V30 8987 H 859.449 0.190021 -5.07544 0
M  V30 8988 H 859.379 1.96022 -4.88757 0
M  V30 8989 H 861.87 1.02407 -3.6376 0
M  V30 8990 H 862.183 1.48546 -7.58389 0
M  V30 8991 H 860.528 1.34274 -6.81906 0
M  V30 8992 H 863.719 1.1872 -4.52795 0
M  V30 8993 H 863.892 1.39782 -6.32744 0
M  V30 8994 N 857.298 1.47698 0.54982 0
M  V30 8995 C 858.714 1.3338 0.876468 0
M  V30 8996 C 858.914 0.329837 1.98782 0
M  V30 8997 O 857.97 -0.256022 2.51199 0
M  V30 8998 C 859.283 2.72903 1.26272 0
M  V30 8999 C 860.831 2.81243 1.37373 0
M  V30 9000 C 861.306 4.21423 1.79351 0
M  V30 9001 N 862.797 4.24 1.86489 0
M  V30 9002 C 863.532 5.29386 2.20313 0
M  V30 9003 N 863.028 6.4507 2.527 0
M  V30 9004 N 864.821 5.16768 2.2115 0
M  V30 9005 H 856.972 2.11603 -0.183781 0
M  V30 9006 H 859.235 0.947798 -0.0195601 0
M  V30 9007 H 858.941 3.47836 0.519889 0
M  V30 9008 H 858.815 3.05151 2.21727 0
M  V30 9009 H 861.202 2.06577 2.10737 0
M  V30 9010 H 861.283 2.52639 0.400882 0
M  V30 9011 H 860.927 4.96597 1.06555 0
M  V30 9012 H 860.857 4.47456 2.77652 0
M  V30 9013 H 863.348 3.40547 1.63817 0
M  V30 9014 H 863.661 7.21236 2.77557 0
M  V30 9015 H 862.006 6.48377 2.50263 0
M  V30 9016 H 865.197 4.25416 1.95293 0
M  V30 9017 H 865.37 5.99004 2.4718 0
M  V30 9018 N 858.776 -0.797141 1.35954 0
M  V30 9019 C 859.726 -1.89899 1.26184 0
M  V30 9020 C 860.71 -1.60152 0.155007 0
M  V30 9021 O 861.902 -1.72715 0.387108 0
M  V30 9022 C 859.031 -3.2699 1.04559 0
M  V30 9023 C 858.117 -3.62772 2.19675 0
M  V30 9024 N 858.508 -3.6992 3.44953 0
M  V30 9025 C 856.806 -3.92786 2.1127 0
M  V30 9026 C 857.507 -4.01718 4.20711 0
M  V30 9027 N 856.483 -4.16298 3.49567 0
M  V30 9028 H 860.285 -1.9364 2.2109 0
M  V30 9029 H 857.799 -0.992246 1.28562 0
M  V30 9030 H 859.796 -4.0578 0.956474 0
M  V30 9031 H 858.456 -3.24529 0.105467 0
M  V30 9032 H 859.467 -3.52759 3.79185 0
M  V30 9033 H 856.144 -3.98295 1.25168 0
M  V30 9034 H 857.534 -4.14237 5.29016 0
M  V30 9035 N 860.254 -1.20106 -1.0204 0
M  V30 9036 C 861.494 -1.02013 -1.77123 0
M  V30 9037 C 861.858 0.440439 -1.8688 0
M  V30 9038 O 863.059 0.74144 -2.58372 0
M  V30 9039 C 861.33 -1.68058 -3.15423 0
M  V30 9040 S 862.889 -1.65016 -4.0659 0
M  V30 9041 H 859.707 -0.365882 -0.609632 0
M  V30 9042 H 862.309 -1.52597 -1.22206 0
M  V30 9043 H 861.013 -2.73544 -3.05944 0
M  V30 9044 H 860.544 -1.17589 -3.75415 0
M  V30 9045 H 862.559 -0.680341 -4.91514 0
M  V30 9046 N 861.732 1.21287 -1.00634 0
M  V30 9047 C 862.98 1.90013 -0.688438 0
M  V30 9048 C 863.301 1.78573 0.783365 0
M  V30 9049 O 862.571 1.1815 1.56261 0
M  V30 9050 H 861.151 0.703336 -0.251648 0
M  V30 9051 H 863.813 1.47346 -1.27574 0
M  V30 9052 H 862.909 2.96879 -0.962781 0
M  V30 9053 N 863.21 0.781244 1.36873 0
M  V30 9054 C 864.44 0.361042 2.03421 0
M  V30 9055 C 864.848 -1.02471 1.59048 0
M  V30 9056 O 864.191 -1.66712 0.771552 0
M  V30 9057 C 864.253 0.336202 3.57924 0
M  V30 9058 C 863.917 1.66815 4.25467 0
M  V30 9059 C 864.914 2.62224 4.48926 0
M  V30 9060 C 862.599 1.9452 4.63106 0
M  V30 9061 C 864.593 3.83538 5.09095 0
M  V30 9062 C 862.28 3.16103 5.22994 0
M  V30 9063 C 863.278 4.10431 5.45926 0
M  V30 9064 O 862.966 5.29871 6.04559 0
M  V30 9065 H 862.698 0.147956 0.65961 0
M  V30 9066 H 865.252 1.05895 1.75998 0
M  V30 9067 H 863.482 -0.418147 3.84433 0
M  V30 9068 H 865.171 -0.0582199 4.05858 0
M  V30 9069 H 865.937 2.42104 4.20251 0
M  V30 9070 H 861.816 1.21921 4.44585 0
M  V30 9071 H 865.36 4.57178 5.2691 0
M  V30 9072 H 861.257 3.36104 5.51094 0
M  V30 9073 H 862.025 5.30825 6.23031 0
M  V30 9074 N 864.689 -1.48329 0.532571 0
M  V30 9075 C 865.914 -2.074 0.00147755 0
M  V30 9076 C 866.339 -1.38615 -1.27151 0
M  V30 9077 O 865.697 -0.452949 -1.75551 0
M  V30 9078 C 865.745 -3.60029 -0.202866 0
M  V30 9079 O 864.849 -3.92327 -1.27097 0
M  V30 9080 H 864.19 -0.662777 0.0402883 0
M  V30 9081 H 866.72 -1.90701 0.741224 0
M  V30 9082 H 866.73 -4.05783 -0.424722 0
M  V30 9083 H 865.405 -4.09496 0.727033 0
M  V30 9084 H 863.982 -3.58348 -1.03156 0
M  V30 9085 N 866.167 -0.267825 -1.55308 0
M  V30 9086 C 867.114 0.6228 -2.22238 0
M  V30 9087 C 868.084 1.15536 -1.19334 0
M  V30 9088 O 869.269 1.206 -1.47852 0
M  V30 9089 C 866.409 1.80447 -2.94164 0
M  V30 9090 C 865.522 1.30646 -4.11771 0
M  V30 9091 C 864.657 2.44935 -4.7136 0
M  V30 9092 C 863.696 1.92099 -5.81175 0
M  V30 9093 N 862.833 2.99834 -6.34857 0
M  V30 9094 H 867.673 0.0453874 -2.97965 0
M  V30 9095 H 865.21 0.0106371 -1.47096 0
M  V30 9096 H 867.168 2.49896 -3.34078 0
M  V30 9097 H 865.798 2.35403 -2.20874 0
M  V30 9098 H 864.85 0.505314 -3.77029 0
M  V30 9099 H 866.162 0.879409 -4.90987 0
M  V30 9100 H 865.316 3.2239 -5.13955 0
M  V30 9101 H 864.055 2.90951 -3.91406 0
M  V30 9102 H 863.06 1.13122 -5.38037 0
M  V30 9103 H 864.285 1.47027 -6.62993 0
M  V30 9104 H 862.231 3.45246 -5.578 0
M  V30 9105 H 862.148 2.61524 -7.09324 0
M  V30 9106 H 863.416 3.77286 -6.82111 0
M  V30 9107 N 867.645 1.57599 0.00500368 0
M  V30 9108 C 868.608 2.07058 0.982832 0
M  V30 9109 C 869.608 0.979045 1.27559 0
M  V30 9110 O 870.798 1.24187 1.22161 0
M  V30 9111 C 867.93 2.50782 2.30914 0
M  V30 9112 H 869.123 2.94718 0.555119 0
M  V30 9113 H 866.676 1.54249 0.25237 0
M  V30 9114 H 867.411 1.66351 2.78385 0
M  V30 9115 H 867.196 3.30495 2.10987 0
M  V30 9116 H 868.686 2.89391 3.0107 0
M  V30 9117 N 869.123 -0.277682 1.55134 0
M  V30 9118 C 870.4 -1.0309 1.66228 0
M  V30 9119 C 870.78 -2.0445 0.525701 0
M  V30 9120 O 870.128 -2.23512 -0.474816 0
M  V30 9121 C 870.338 -1.6919 3.05247 0
M  V30 9122 C 871.686 -2.20526 3.62841 0
M  V30 9123 O 872.71 -1.79185 3.07849 0
M  V30 9124 O 871.569 -2.96342 4.59177 0
M  V30 9125 H 868.663 -0.4779 0.674937 0
M  V30 9126 H 871.209 -0.273912 1.67475 0
M  V30 9127 H 869.981 -0.957163 3.79413 0
M  V30 9128 H 869.604 -2.51587 3.07879 0
M  V30 9129 N 870.601 -1.47988 -0.541979 0
M  V30 9130 C 871.533 -1.5769 -1.66332 0
M  V30 9131 C 872.546 -0.461994 -1.56107 0
M  V30 9132 O 873.735 -0.732306 -1.62787 0
M  V30 9133 C 870.835 -1.47939 -3.04905 0
M  V30 9134 C 870.008 -2.74263 -3.40733 0
M  V30 9135 C 869.067 -2.58133 -4.58534 0
M  V30 9136 O 868.093 -3.31991 -4.62354 0
M  V30 9137 N 869.295 -1.6696 -5.55972 0
M  V30 9138 H 872.06 -2.54389 -1.5845 0
M  V30 9139 H 869.621 -1.4456 -0.728979 0
M  V30 9140 H 871.613 -1.34861 -3.81569 0
M  V30 9141 H 870.183 -0.592626 -3.06931 0
M  V30 9142 H 869.403 -3.01992 -2.53366 0
M  V30 9143 H 870.691 -3.58094 -3.6145 0
M  V30 9144 H 870.089 -1.06134 -5.55655 0
M  V30 9145 H 868.646 -1.59826 -6.31901 0
M  V30 9146 N 872.079 0.78992 -1.36375 0
M  V30 9147 C 872.989 1.93386 -1.32812 0
M  V30 9148 C 874.005 1.72468 -0.230377 0
M  V30 9149 O 875.181 1.96014 -0.462657 0
M  V30 9150 C 872.246 3.2824 -1.11621 0
M  V30 9151 C 871.307 3.61939 -2.30865 0
M  V30 9152 C 870.54 4.90359 -2.10675 0
M  V30 9153 O 870.763 5.6005 -1.08168 0
M  V30 9154 O 869.697 5.22702 -2.9844 0
M  V30 9155 H 873.523 1.99342 -2.29121 0
M  V30 9156 H 871.108 0.9301 -1.16917 0
M  V30 9157 H 872.99 4.08939 -1.01719 0
M  V30 9158 H 871.665 3.23178 -0.183732 0
M  V30 9159 H 870.572 2.81549 -2.46335 0
M  V30 9160 H 871.905 3.71725 -3.22617 0
M  V30 9161 N 873.557 1.20646 1.01402 0
M  V30 9162 C 874.805 1.01618 1.74695 0
M  V30 9163 C 875.126 -0.452438 1.89679 0
M  V30 9164 O 874.396 -1.32693 1.44116 0
M  V30 9165 H 872.976 0.373013 0.647202 0
M  V30 9166 H 875.638 1.518 1.22241 0
M  V30 9167 H 874.734 1.47666 2.74957 0
M  V30 9168 N 875.035 -1.20752 1.01276 0
M  V30 9169 C 876.312 -1.85676 0.615112 0
M  V30 9170 C 876.692 -1.90623 -0.906976 0
M  V30 9171 O 876.04 -1.41124 -1.79712 0
M  V30 9172 C 876.25 -3.2552 1.25847 0
M  V30 9173 C 877.598 -4.0184 1.37148 0
M  V30 9174 O 878.622 -3.3486 1.21438 0
M  V30 9175 O 877.481 -5.21783 1.62495 0
M  V30 9176 H 874.575 -0.799437 0.211729 0
M  V30 9177 H 877.121 -1.28372 1.10989 0
M  V30 9178 H 875.893 -3.16664 2.29869 0
M  V30 9179 H 875.516 -3.90452 0.750524 0
M  V30 9180 N 876.513 -0.788492 -1.36457 0
M  V30 9181 C 877.423 -0.187385 -2.3385 0
M  V30 9182 C 878.439 0.659984 -1.60998 0
M  V30 9183 O 879.615 0.575986 -1.92988 0
M  V30 9184 C 876.68 0.668525 -3.40194 0
M  V30 9185 C 875.741 -0.197234 -4.28847 0
M  V30 9186 C 874.974 0.61792 -5.30111 0
M  V30 9187 O 875.197 1.85396 -5.3943 0
M  V30 9188 O 874.131 0.0183016 -6.01897 0
M  V30 9189 H 877.957 -0.992617 -2.87021 0
M  V30 9190 H 875.542 -0.549934 -1.3891 0
M  V30 9191 H 877.424 1.15663 -4.05216 0
M  V30 9192 H 876.099 1.45166 -2.89324 0
M  V30 9193 H 875.006 -0.73207 -3.66867 0
M  V30 9194 H 876.339 -0.943863 -4.83065 0
M  V30 9195 N 877.991 1.48044 -0.54043 0
M  V30 9196 C 878.901 2.33565 0.220163 0
M  V30 9197 C 879.917 1.47146 0.928659 0
M  V30 9198 O 881.093 1.80107 0.901295 0
M  V30 9199 C 878.158 3.2349 1.2472 0
M  V30 9200 C 877.219 4.25789 0.547938 0
M  V30 9201 C 876.452 5.11417 1.52605 0
M  V30 9202 O 876.675 4.99204 2.75956 0
M  V30 9203 O 875.609 5.92498 1.05972 0
M  V30 9204 H 879.435 2.99868 -0.480898 0
M  V30 9205 H 877.02 1.46332 -0.301226 0
M  V30 9206 H 878.902 3.79084 1.84047 0
M  V30 9207 H 877.577 2.59835 1.93048 0
M  V30 9208 H 876.484 3.74001 -0.0860941 0
M  V30 9209 H 877.817 4.92111 -0.0935896 0
M  V30 9210 N 879.47 0.276058 1.55163 0
M  V30 9211 C 880.4 -0.604633 2.25536 0
M  V30 9212 C 881.381 -1.15813 1.24585 0
M  V30 9213 O 882.566 -1.1921 1.53306 0
M  V30 9214 C 879.696 -1.78836 2.97716 0
M  V30 9215 C 878.65 -1.36635 4.05604 0
M  V30 9216 C 877.976 -2.63325 4.65364 0
M  V30 9217 C 879.276 -0.515858 5.19746 0
M  V30 9218 H 880.97 -0.0177483 2.99395 0
M  V30 9219 H 878.516 -0.00709627 1.43998 0
M  V30 9220 H 880.469 -2.41036 3.45658 0
M  V30 9221 H 879.193 -2.40109 2.21394 0
M  V30 9222 H 877.852 -0.767541 3.58475 0
M  V30 9223 H 877.5 -3.22858 3.85709 0
M  V30 9224 H 877.2 -2.358 5.38212 0
M  V30 9225 H 878.724 -3.26372 5.16056 0
M  V30 9226 H 880.138 -1.04289 5.63735 0
M  V30 9227 H 878.535 -0.335449 5.99162 0
M  V30 9228 H 879.605 0.465137 4.82664 0
M  V30 9229 N 880.948 -1.576 0.00335426 0
M  V30 9230 C 882.178 -1.94713 -0.690682 0
M  V30 9231 C 882.586 -0.876915 -1.67651 0
M  V30 9232 O 881.929 0.152434 -1.83066 0
M  V30 9233 C 881.991 -3.27833 -1.47532 0
M  V30 9234 C 881.655 -4.52344 -0.650704 0
M  V30 9235 C 882.652 -5.19862 0.0630537 0
M  V30 9236 C 880.337 -4.98755 -0.595687 0
M  V30 9237 C 882.331 -6.32093 0.820779 0
M  V30 9238 C 880.018 -6.10875 0.165761 0
M  V30 9239 C 881.016 -6.77401 0.872724 0
M  V30 9240 O 880.704 -7.87372 1.62174 0
M  V30 9241 H 880.436 -0.646627 -0.197104 0
M  V30 9242 H 882.99 -2.05335 0.0516082 0
M  V30 9243 H 881.22 -3.13628 -2.26217 0
M  V30 9244 H 882.909 -3.50034 -2.05501 0
M  V30 9245 H 883.675 -4.84991 0.0297223 0
M  V30 9246 H 879.554 -4.46797 -1.13549 0
M  V30 9247 H 883.098 -6.83953 1.37312 0
M  V30 9248 H 878.995 -6.45187 0.200901 0
M  V30 9249 H 879.763 -8.03905 1.5388 0
M  V30 9250 N 882.426 0.269451 -1.5528 0
M  V30 9251 C 883.673 1.00058 -1.76053 0
M  V30 9252 C 884.001 1.86156 -0.563592 0
M  V30 9253 O 883.256 1.90366 0.453806 0
M  V30 9254 C 883.555 1.91 -3.02082 0
M  V30 9255 C 883.221 1.20623 -4.34466 0
M  V30 9256 C 881.883 1.01165 -4.70446 0
M  V30 9257 C 884.235 0.705695 -5.164 0
M  V30 9258 C 881.563 0.303865 -5.85913 0
M  V30 9259 C 883.915 0.0114838 -6.32599 0
M  V30 9260 C 882.579 -0.19478 -6.67216 0
M  V30 9261 H 881.849 0.366138 -0.644223 0
M  V30 9262 H 884.496 0.272563 -1.8955 0
M  V30 9263 H 882.801 2.70435 -2.835 0
M  V30 9264 H 884.498 2.47698 -3.15352 0
M  V30 9265 H 881.088 1.36781 -4.06188 0
M  V30 9266 H 885.272 0.84364 -4.89077 0
M  V30 9267 H 880.528 0.133368 -6.11255 0
M  V30 9268 H 884.702 -0.384111 -6.9534 0
M  V30 9269 H 882.329 -0.745201 -7.56539 0
M  V30 9270 N 883.904 1.48273 0.534124 0
M  V30 9271 C 884.854 1.58889 1.63519 0
M  V30 9272 C 885.838 0.44626 1.54588 0
M  V30 9273 O 887.03 0.697474 1.62679 0
M  V30 9274 C 884.159 1.62787 3.0225 0
M  V30 9275 C 883.245 2.82515 3.16301 0
M  V30 9276 N 883.636 4.06977 3.00338 0
M  V30 9277 C 881.934 2.7976 3.47347 0
M  V30 9278 C 882.635 4.87283 3.17694 0
M  V30 9279 N 881.611 4.20024 3.45081 0
M  V30 9280 H 885.413 2.52869 1.49781 0
M  V30 9281 H 882.927 1.44587 0.739479 0
M  V30 9282 H 884.924 1.68486 3.81337 0
M  V30 9283 H 883.584 0.699201 3.17082 0
M  V30 9284 H 884.595 4.37479 2.77186 0
M  V30 9285 H 881.272 1.96132 3.68563 0
M  V30 9286 H 882.662 5.96047 3.10126 0
M  V30 9287 N 885.382 -0.782676 1.36792 0
M  V30 9288 C 886.629 -1.54083 1.31395 0
M  V30 9289 C 886.957 -1.94217 -0.104797 0
M  V30 9290 O 886.212 -1.63491 -1.0756 0
M  V30 9291 C 886.511 -2.82542 2.18872 0
M  V30 9292 C 886.177 -2.61512 3.67317 0
M  V30 9293 C 884.839 -2.55486 4.07775 0
M  V30 9294 C 887.191 -2.42389 4.61407 0
M  V30 9295 C 884.519 -2.28311 5.40454 0
M  V30 9296 C 886.871 -2.1674 5.94312 0
M  V30 9297 C 885.535 -2.09151 6.33887 0
M  V30 9298 H 884.805 -0.563829 0.48081 0
M  V30 9299 H 887.452 -0.902436 1.68903 0
M  V30 9300 H 885.757 -3.50883 1.74323 0
M  V30 9301 H 887.454 -3.40367 2.12017 0
M  V30 9302 H 884.044 -2.67062 3.35225 0
M  V30 9303 H 888.228 -2.46043 4.31018 0
M  V30 9304 H 883.484 -2.20922 5.70091 0
M  V30 9305 H 887.658 -2.0094 6.6678 0
M  V30 9306 H 885.285 -1.87857 7.36623 0
M  V30 9307 N 886.86 -1.21182 -1.00761 0
M  V30 9308 C 887.807 -0.968741 -2.09485 0
M  V30 9309 C 888.777 0.104325 -1.65772 0
M  V30 9310 O 889.962 -0.0422587 -1.90753 0
M  V30 9311 C 887.102 -0.536686 -3.40901 0
M  V30 9312 C 886.215 -1.6789 -3.98041 0
M  V30 9313 C 885.35 -1.19627 -5.17555 0
M  V30 9314 C 884.389 -2.31099 -5.66798 0
M  V30 9315 N 883.526 -1.83988 -6.77564 0
M  V30 9316 H 888.366 -1.89952 -2.29613 0
M  V30 9317 H 885.903 -0.946688 -1.12589 0
M  V30 9318 H 887.861 -0.26745 -4.16342 0
M  V30 9319 H 886.491 0.357092 -3.20819 0
M  V30 9320 H 885.543 -2.06284 -3.19611 0
M  V30 9321 H 886.855 -2.51794 -4.30582 0
M  V30 9322 H 886.009 -0.883539 -6.00232 0
M  V30 9323 H 884.748 -0.327244 -4.86601 0
M  V30 9324 H 883.753 -2.63178 -4.82719 0
M  V30 9325 H 884.978 -3.18493 -5.99782 0
M  V30 9326 H 882.924 -0.994257 -6.48422 0
M  V30 9327 H 882.841 -2.61466 -7.09346 0
M  V30 9328 H 884.109 -1.55741 -7.63783 0
M  V30 9329 N 888.338 1.20213 -1.01915 0
M  V30 9330 C 889.585 1.89647 -0.709955 0
M  V30 9331 C 889.913 1.7901 0.760631 0
M  V30 9332 O 889.168 1.17028 1.56853 0
M  V30 9333 C 889.467 3.40232 -1.09438 0
M  V30 9334 C 889.133 3.7107 -2.5616 0
M  V30 9335 C 887.795 3.79196 -2.96249 0
M  V30 9336 C 890.147 3.85169 -3.51133 0
M  V30 9337 C 887.475 3.98882 -4.30244 0
M  V30 9338 C 889.827 4.06365 -4.8482 0
M  V30 9339 C 888.491 4.12722 -5.24611 0
M  V30 9340 H 887.761 0.693967 -0.259791 0
M  V30 9341 H 890.408 1.42419 -1.2802 0
M  V30 9342 H 888.713 3.89292 -0.442596 0
M  V30 9343 H 890.41 3.92257 -0.832811 0
M  V30 9344 H 887 3.65346 -2.24099 0
M  V30 9345 H 891.184 3.78243 -3.21319 0
M  V30 9346 H 886.44 4.02039 -4.60624 0
M  V30 9347 H 890.614 4.16216 -5.58334 0
M  V30 9348 H 888.241 4.27728 -6.28453 0
M  V30 9349 N 889.816 0.795718 1.36037 0
M  V30 9350 C 891.227 0.433379 1.816 0
M  V30 9351 C 891.578 -1.04341 1.66155 0
M  V30 9352 O 890.703 -1.81004 1.18603 0
M  V30 9353 C 891.298 0.77985 3.29703 0
M  V30 9354 C 889.857 0.470256 3.73451 0
M  V30 9355 C 889.004 1.01119 2.58206 0
M  V30 9356 H 891.955 0.988317 1.24169 0
M  V30 9357 H 891.976 0.0732898 3.80429 0
M  V30 9358 H 891.488 1.85473 3.40913 0
M  V30 9359 H 889.589 -0.596332 3.67797 0
M  V30 9360 H 889.702 0.995276 4.68648 0
M  V30 9361 H 888.066 0.434077 2.50974 0
M  V30 9362 H 888.849 2.09196 2.72198 0
M  V30 9363 N 891.294 -1.47756 0.548274 0
M  V30 9364 C 892.542 -2.02089 0.0208542 0
M  V30 9365 C 892.863 -1.42589 -1.33017 0
M  V30 9366 O 892.133 -0.597825 -1.86555 0
M  V30 9367 H 890.713 -0.746985 0.00472023 0
M  V30 9368 H 893.375 -1.81262 0.716257 0
M  V30 9369 H 892.471 -3.12012 -0.0739016 0
M  V30 9370 N 892.772 -0.284283 -1.55015 0
M  V30 9371 C 894 0.332948 -2.04203 0
M  V30 9372 C 894.415 1.48783 -1.16229 0
M  V30 9373 O 893.772 1.81567 -0.184323 0
M  V30 9374 C 893.823 0.805207 -3.52418 0
M  V30 9375 O 893.544 -0.303689 -4.37046 0
M  V30 9376 C 895.045 1.48931 -4.17534 0
M  V30 9377 H 892.265 0.0747447 -0.666824 0
M  V30 9378 H 894.809 -0.419048 -2.00161 0
M  V30 9379 H 892.964 1.50727 -3.56876 0
M  V30 9380 H 893.378 0.0609703 -5.24465 0
M  V30 9381 H 894.852 1.77108 -5.22816 0
M  V30 9382 H 895.329 2.42389 -3.66257 0
M  V30 9383 H 895.935 0.830867 -4.17105 0
M  V30 9384 N 894.251 1.57596 -0.0117121 0
M  V30 9385 C 895.198 2.09153 0.975897 0
M  V30 9386 C 896.168 0.989579 1.33404 0
M  V30 9387 O 897.353 1.26273 1.43038 0
M  V30 9388 C 894.493 2.60906 2.2588 0
M  V30 9389 C 893.606 3.85046 1.95866 0
M  V30 9390 C 892.741 4.25257 3.18323 0
M  V30 9391 C 891.78 5.42202 2.84049 0
M  V30 9392 N 890.917 5.77651 3.99079 0
M  V30 9393 H 895.757 2.93261 0.52931 0
M  V30 9394 H 893.294 1.44965 0.249691 0
M  V30 9395 H 895.252 2.88995 3.00895 0
M  V30 9396 H 893.882 1.79654 2.68187 0
M  V30 9397 H 892.934 3.63794 1.11168 0
M  V30 9398 H 894.246 4.70151 1.66611 0
M  V30 9399 H 893.4 4.5469 4.01674 0
M  V30 9400 H 892.139 3.38884 3.50726 0
M  V30 9401 H 891.144 5.1248 1.99107 0
M  V30 9402 H 892.369 6.3026 2.52881 0
M  V30 9403 H 890.315 4.94235 4.31356 0
M  V30 9404 H 890.232 6.57356 3.73388 0
M  V30 9405 H 891.5 6.11681 4.83183 0
M  V30 9406 N 895.729 -0.261212 1.5542 0
M  V30 9407 C 896.957 -1.00916 1.8062 0
M  V30 9408 C 897.372 -1.79494 0.585444 0
M  V30 9409 O 896.729 -1.76974 -0.445702 0
M  V30 9410 C 896.78 -1.95841 3.03856 0
M  V30 9411 O 896.501 -1.20445 4.21218 0
M  V30 9412 C 898.002 -2.82352 3.41749 0
M  V30 9413 H 895.222 -0.297596 0.601397 0
M  V30 9414 H 897.766 -0.288427 2.02456 0
M  V30 9415 H 895.921 -2.63361 2.84112 0
M  V30 9416 H 896.335 -1.84528 4.90968 0
M  V30 9417 H 897.809 -3.44733 4.31118 0
M  V30 9418 H 898.286 -3.5273 2.61683 0
M  V30 9419 H 898.892 -2.20306 3.63793 0
M  V30 9420 N 897.207 -1.48554 -0.526253 0
M  V30 9421 C 898.437 -1.60197 -1.30463 0
M  V30 9422 C 898.845 -0.26278 -1.87366 0
M  V30 9423 O 898.188 0.758537 -1.67308 0
M  V30 9424 C 898.25 -2.59223 -2.49085 0
M  V30 9425 C 897.914 -4.04199 -2.13241 0
M  V30 9426 C 898.911 -4.91771 -1.68694 0
M  V30 9427 C 896.596 -4.49762 -2.2365 0
M  V30 9428 C 898.59 -6.22934 -1.35026 0
M  V30 9429 C 896.277 -5.80945 -1.89594 0
M  V30 9430 C 897.275 -6.67354 -1.45353 0
M  V30 9431 O 896.963 -7.96096 -1.11745 0
M  V30 9432 H 896.695 -0.54284 -0.402866 0
M  V30 9433 H 899.249 -1.95137 -0.641157 0
M  V30 9434 H 897.479 -2.19412 -3.18426 0
M  V30 9435 H 899.168 -2.60661 -3.11144 0
M  V30 9436 H 899.934 -4.57806 -1.6012 0
M  V30 9437 H 895.813 -3.8269 -2.5704 0
M  V30 9438 H 899.357 -6.90334 -1.00422 0
M  V30 9439 H 895.254 -6.14444 -1.9781 0
M  V30 9440 H 896.022 -8.08882 -1.25111 0
M  V30 9441 N 898.685 0.775411 -1.37205 0
M  V30 9442 C 899.934 1.52909 -1.31536 0
M  V30 9443 C 900.247 1.9535 0.0989374 0
M  V30 9444 O 901.453 2.70072 0.278079 0
M  V30 9445 C 899.909 2.761 -2.30861 0
M  V30 9446 C 899.517 2.40773 -3.77799 0
M  V30 9447 C 901.261 3.54052 -2.34195 0
M  V30 9448 C 899.168 3.60444 -4.68865 0
M  V30 9449 H 898.098 0.574061 -0.488845 0
M  V30 9450 H 900.749 0.849642 -1.62645 0
M  V30 9451 H 899.131 3.45916 -1.92764 0
M  V30 9452 H 900.305 1.78764 -4.24712 0
M  V30 9453 H 898.62 1.76004 -3.77375 0
M  V30 9454 H 901.217 4.42992 -2.99437 0
M  V30 9455 H 901.56 3.93649 -1.35449 0
M  V30 9456 H 902.093 2.91229 -2.7098 0
M  V30 9457 H 898.832 3.25932 -5.68725 0
M  V30 9458 H 898.352 4.21571 -4.26659 0
M  V30 9459 H 900.031 4.27302 -4.85821 0
M  V30 9460 N 900.163 1.21714 1.00117 0
M  V30 9461 C 901.44 0.945391 1.71236 0
M  V30 9462 C 901.82 -0.541772 2.0403 0
M  V30 9463 O 901.168 -1.50763 1.71705 0
M  V30 9464 C 901.378 1.83444 2.96899 0
M  V30 9465 C 902.726 2.08558 3.69849 0
M  V30 9466 O 903.75 1.80824 3.06889 0
M  V30 9467 O 902.609 2.55485 4.83104 0
M  V30 9468 H 899.703 0.354834 0.747009 0
M  V30 9469 H 902.249 1.32661 1.05825 0
M  V30 9470 H 901.021 2.84075 2.69105 0
M  V30 9471 H 900.644 1.45428 3.70049 0
M  V30 9472 N 901.641 -1.19671 1.02551 0
M  V30 9473 C 903.052 -1.70964 0.750208 0
M  V30 9474 C 903.403 -1.82095 -0.730461 0
M  V30 9475 O 902.528 -1.48974 -1.56958 0
M  V30 9476 C 903.123 -3.10516 1.35518 0
M  V30 9477 C 901.682 -3.59083 1.12854 0
M  V30 9478 C 900.829 -2.36041 1.45534 0
M  V30 9479 H 903.78 -1.04559 1.19386 0
M  V30 9480 H 903.801 -3.73028 0.750378 0
M  V30 9481 H 903.313 -3.02383 2.43282 0
M  V30 9482 H 901.414 -3.72536 0.0689627 0
M  V30 9483 H 901.527 -4.43395 1.81488 0
M  V30 9484 H 899.891 -2.39214 0.87458 0
M  V30 9485 H 900.674 -2.3054 2.54374 0
M  V30 9486 N 903.119 -0.802921 -1.35613 0
M  V30 9487 C 904.029 -0.212177 -2.33639 0
M  V30 9488 C 905.045 0.642871 -1.61689 0
M  V30 9489 O 906.221 0.555485 -1.93588 0
M  V30 9490 C 903.286 0.632406 -3.40883 0
M  V30 9491 C 902.347 -0.242708 -4.28613 0
M  V30 9492 C 901.58 0.56166 -5.30736 0
M  V30 9493 O 901.803 1.79664 -5.41366 0
M  V30 9494 O 900.737 -0.0455387 -6.01883 0
M  V30 9495 H 904.563 -1.023 -2.85952 0
M  V30 9496 H 902.148 -0.564636 -1.38319 0
M  V30 9497 H 904.03 1.11358 -4.0642 0
M  V30 9498 H 902.705 1.42089 -2.90848 0
M  V30 9499 H 901.612 -0.77094 -3.6607 0
M  V30 9500 H 902.945 -0.995046 -4.82037 0
M  V30 9501 N 904.597 1.47463 -0.556102 0
M  V30 9502 C 905.825 2.06868 -0.0364585 0
M  V30 9503 C 906.24 1.40893 1.25677 0
M  V30 9504 O 905.597 0.505083 1.75371 0
M  V30 9505 C 905.648 3.61128 0.163984 0
M  V30 9506 O 905.369 4.24629 -1.07803 0
M  V30 9507 C 906.87 4.37397 0.721036 0
M  V30 9508 H 904.09 0.669466 -0.0453399 0
M  V30 9509 H 906.634 1.89482 -0.769198 0
M  V30 9510 H 904.789 3.78031 0.84685 0
M  V30 9511 H 905.203 5.17149 -0.875067 0
M  V30 9512 H 906.677 5.46016 0.810584 0
M  V30 9513 H 907.154 4.03604 1.73206 0
M  V30 9514 H 907.76 4.25236 0.073904 0
M  V30 9515 N 906.075 0.2925 1.54862 0
M  V30 9516 C 907.305 -0.321646 2.04081 0
M  V30 9517 C 907.713 -1.48712 1.16967 0
M  V30 9518 O 907.056 -1.82755 0.18609 0
M  V30 9519 C 907.118 -0.848678 3.49339 0
M  V30 9520 C 906.782 0.190416 4.56603 0
M  V30 9521 C 907.779 1.01595 5.09877 0
M  V30 9522 C 905.464 0.329666 5.01217 0
M  V30 9523 C 907.458 1.96676 6.06298 0
M  V30 9524 C 905.145 1.28393 5.9746 0
M  V30 9525 C 906.143 2.10097 6.49883 0
M  V30 9526 O 905.831 3.03907 7.44242 0
M  V30 9527 H 905.563 -0.075098 0.671816 0
M  V30 9528 H 908.117 0.427531 2.00901 0
M  V30 9529 H 906.347 -1.64823 3.49815 0
M  V30 9530 H 908.036 -1.37779 3.81801 0
M  V30 9531 H 908.802 0.919197 4.7621 0
M  V30 9532 H 904.681 -0.296317 4.60047 0
M  V30 9533 H 908.225 2.60488 6.47141 0
M  V30 9534 H 904.122 1.38144 6.30545 0
M  V30 9535 H 904.89 2.98787 7.62016 0
M  V30 9536 N 907.553 -1.57587 0.0200696 0
M  V30 9537 C 908.463 -2.13119 -0.980676 0
M  V30 9538 C 909.479 -1.08124 -1.36328 0
M  V30 9539 O 910.655 -1.40134 -1.44653 0
M  V30 9540 C 907.72 -2.63991 -2.24743 0
M  V30 9541 C 906.781 -3.83667 -1.9261 0
M  V30 9542 C 906.014 -4.32103 -3.13246 0
M  V30 9543 O 906.237 -3.79758 -4.25606 0
M  V30 9544 O 905.171 -5.24047 -2.96072 0
M  V30 9545 H 908.997 -2.98887 -0.538528 0
M  V30 9546 H 906.582 -1.48055 -0.19999 0
M  V30 9547 H 908.464 -2.9682 -2.99125 0
M  V30 9548 H 907.139 -1.81311 -2.68157 0
M  V30 9549 H 906.046 -3.55778 -1.15641 0
M  V30 9550 H 907.379 -4.67482 -1.54019 0
M  V30 9551 N 909.032 0.252966 -1.55557 0
M  V30 9552 C 910.309 1.00432 -1.67847 0
M  V30 9553 C 910.689 2.03587 -0.55816 0
M  V30 9554 O 910.037 2.24239 0.439197 0
M  V30 9555 C 910.247 1.64313 -3.079 0
M  V30 9556 C 911.595 2.14726 -3.66303 0
M  V30 9557 O 912.619 1.74264 -3.10661 0
M  V30 9558 O 911.478 2.89 -4.63833 0
M  V30 9559 H 908.572 0.467102 -0.682455 0
M  V30 9560 H 911.118 0.247233 -1.67889 0
M  V30 9561 H 909.89 0.896681 -3.80888 0
M  V30 9562 H 909.513 2.46657 -3.11843 0
M  V30 9563 N 910.51 1.48831 0.518367 0
M  V30 9564 C 911.921 1.50842 1.10016 0
M  V30 9565 C 912.272 0.284744 1.94123 0
M  V30 9566 O 911.397 -0.607088 2.0771 0
M  V30 9567 C 911.992 2.73329 2.00191 0
M  V30 9568 C 910.551 2.78175 2.53566 0
M  V30 9569 C 909.698 2.4452 1.30786 0
M  V30 9570 H 912.649 1.55779 0.303073 0
M  V30 9571 H 912.67 2.52506 2.84642 0
M  V30 9572 H 912.182 3.62374 1.3895 0
M  V30 9573 H 910.283 1.93368 3.18496 0
M  V30 9574 H 910.396 3.79905 2.91906 0
M  V30 9575 H 908.76 1.95924 1.62744 0
M  V30 9576 H 909.543 3.35819 0.712797 0
M  V30 9577 N 911.988 -0.768124 1.37614 0
M  V30 9578 C 912.936 -1.9029 1.33763 0
M  V30 9579 C 913.93 -1.67888 0.225814 0
M  V30 9580 O 915.136 -1.75634 0.394043 0
M  V30 9581 H 911.511 -0.625828 0.416945 0
M  V30 9582 H 913.482 -1.90654 2.29551 0
M  V30 9583 C 912.231 -3.27598 1.16511 0
M  V30 9584 H 911.554 -3.45414 2.01318 0
M  V30 9585 H 912.994 -4.07288 1.17867 0
M  V30 9586 C 911.453 -3.36653 -0.129001 0
M  V30 9587 O 911.983 -3.86023 -1.11128 0
M  V30 9588 N 910.189 -2.90036 -0.180926 0
M  V30 9589 H 909.736 -2.5005 0.619076 0
M  V30 9590 H 909.694 -2.96475 -1.04641 0
M  V30 9591 N 913.466 -1.22244 -0.994698 0
M  V30 9592 C 914.882 -0.982006 -1.25813 0
M  V30 9593 C 915.082 0.325488 -1.98854 0
M  V30 9594 O 914.138 1.04857 -2.29698 0
M  V30 9595 C 915.451 -2.1795 -2.07167 0
M  V30 9596 C 916.999 -2.22287 -2.20358 0
M  V30 9597 C 917.474 -3.41583 -3.05098 0
M  V30 9598 N 918.965 -3.41734 -3.12686 0
M  V30 9599 C 919.7 -4.30692 -3.78539 0
M  V30 9600 N 919.196 -5.29865 -4.46335 0
M  V30 9601 N 920.989 -4.18473 -3.75283 0
M  V30 9602 H 913.14 -2.0631 -0.504963 0
M  V30 9603 H 915.403 -0.90395 -0.285618 0
M  V30 9604 H 915.109 -3.12758 -1.60858 0
M  V30 9605 H 914.983 -2.17862 -3.07922 0
M  V30 9606 H 917.37 -1.28028 -2.65881 0
M  V30 9607 H 917.451 -2.26414 -1.19039 0
M  V30 9608 H 917.095 -4.36141 -2.60275 0
M  V30 9609 H 917.025 -3.34695 -4.06555 0
M  V30 9610 H 919.516 -2.69969 -2.64433 0
M  V30 9611 H 919.829 -5.94027 -4.9432 0
M  V30 9612 H 918.174 -5.3378 -4.45089 0
M  V30 9613 H 921.365 -3.40249 -3.21478 0
M  V30 9614 H 921.538 -4.88007 -4.26326 0
M  V30 9615 N 914.944 1.19125 -1.03184 0
M  V30 9616 C 915.907 2.20662 -0.619766 0
M  V30 9617 C 916.907 1.57621 0.318179 0
M  V30 9618 O 918.097 1.73885 0.104783 0
M  V30 9619 C 915.229 3.40774 0.0926696 0
M  V30 9620 H 916.422 2.58633 -1.5182 0
M  V30 9621 H 913.975 1.32855 -0.823364 0
M  V30 9622 H 914.71 3.08324 1.00531 0
M  V30 9623 H 914.495 3.87766 -0.581344 0
M  V30 9624 H 915.985 4.15977 0.367792 0
M  V30 9625 N 916.422 0.810101 1.35185 0
M  V30 9626 C 917.668 0.392698 1.98962 0
M  V30 9627 C 918.001 -1.03835 1.64109 0
M  V30 9628 O 917.276 -1.721 0.9062 0
M  V30 9629 C 917.559 0.580349 3.55393 0
M  V30 9630 C 917.412 2.05658 4.00031 0
M  V30 9631 C 918.731 0.00822618 4.40099 0
M  V30 9632 H 915.85 0.144157 0.722764 0
M  V30 9633 H 918.492 1.02029 1.60281 0
M  V30 9634 H 916.642 0.0461106 3.88473 0
M  V30 9635 H 918.314 2.65348 3.77344 0
M  V30 9636 H 916.557 2.55174 3.50811 0
M  V30 9637 H 917.228 2.13875 5.08883 0
M  V30 9638 H 919.704 0.464517 4.13499 0
M  V30 9639 H 918.58 0.169414 5.48638 0
M  V30 9640 H 918.841 -1.08576 4.2856 0
M  V30 9641 N 917.9 -1.47166 0.563914 0
M  V30 9642 C 918.85 -2.27116 -0.20055 0
M  V30 9643 C 919.834 -1.34756 -0.879177 0
M  V30 9644 O 921.026 -1.59064 -0.776377 0
M  V30 9645 C 918.155 -3.20676 -1.22565 0
M  V30 9646 C 917.241 -4.20517 -0.550092 0
M  V30 9647 N 917.632 -5.04343 0.383662 0
M  V30 9648 C 915.93 -4.38708 -0.803186 0
M  V30 9649 C 916.631 -5.76491 0.776718 0
M  V30 9650 N 915.607 -5.43444 0.130047 0
M  V30 9651 H 919.409 -2.89312 0.517275 0
M  V30 9652 H 916.923 -1.57787 0.384334 0
M  V30 9653 H 918.92 -3.76643 -1.78733 0
M  V30 9654 H 917.58 -2.60038 -1.94449 0
M  V30 9655 H 918.591 -5.1232 0.758192 0
M  V30 9656 H 915.268 -3.89235 -1.51003 0
M  V30 9657 H 916.658 -6.5391 1.54437 0
M  V30 9658 N 919.378 -0.300708 -1.54705 0
M  V30 9659 C 920.31 0.609179 -2.20956 0
M  V30 9660 C 921.323 1.09776 -1.20221 0
M  V30 9661 O 922.512 1.01527 -1.46815 0
M  V30 9662 C 919.612 1.84595 -2.84214 0
M  V30 9663 C 918.785 1.49991 -4.10879 0
M  V30 9664 C 917.844 2.5918 -4.57943 0
M  V30 9665 O 916.87 2.24285 -5.23149 0
M  V30 9666 N 918.072 3.89714 -4.30236 0
M  V30 9667 H 920.837 0.0420111 -2.99671 0
M  V30 9668 H 918.398 -0.122896 -1.61433 0
M  V30 9669 H 920.39 2.56988 -3.12633 0
M  V30 9670 H 918.96 2.32152 -2.09342 0
M  V30 9671 H 918.18 0.608637 -3.89473 0
M  V30 9672 H 919.468 1.24409 -4.93356 0
M  V30 9673 H 918.866 4.20874 -3.77997 0
M  V30 9674 H 917.423 4.58406 -4.63365 0
M  V30 9675 N 920.856 1.57574 -0.0284266 0
M  V30 9676 C 922.103 1.91772 0.650364 0
M  V30 9677 C 922.431 0.904769 1.72175 0
M  V30 9678 O 921.686 -0.0864038 1.95509 0
M  V30 9679 C 921.985 3.32699 1.3056 0
M  V30 9680 C 921.651 4.49423 0.364658 0
M  V30 9681 C 920.313 4.81084 0.105672 0
M  V30 9682 C 922.665 5.20439 -0.28151 0
M  V30 9683 C 919.993 5.81119 -0.8073 0
M  V30 9684 C 922.345 6.21449 -1.18253 0
M  V30 9685 C 921.009 6.51551 -1.45042 0
M  V30 9686 H 920.279 0.701744 0.237985 0
M  V30 9687 H 922.926 1.91288 -0.0900448 0
M  V30 9688 H 921.231 3.29441 2.12075 0
M  V30 9689 H 922.928 3.5643 1.83736 0
M  V30 9690 H 919.518 4.24703 0.576692 0
M  V30 9691 H 923.702 4.9621 -0.0944806 0
M  V30 9692 H 918.958 6.02788 -1.02256 0
M  V30 9693 H 923.132 6.75597 -1.68942 0
M  V30 9694 H 920.759 7.28882 -2.15951 0
M  V30 9695 N 922.334 -0.244713 1.55689 0
M  V30 9696 C 923.297 -1.2864 1.89695 0
M  V30 9697 C 924.297 -1.40969 0.773583 0
M  V30 9698 O 925.487 -1.39632 1.04156 0
M  V30 9699 C 922.619 -2.66379 2.12732 0
M  V30 9700 H 923.812 -0.997033 2.82841 0
M  V30 9701 H 921.365 -0.484103 1.48614 0
M  V30 9702 H 922.1 -3.00452 1.22062 0
M  V30 9703 H 921.885 -2.58812 2.94549 0
M  V30 9704 H 923.375 -3.41592 2.40218 0
M  V30 9705 N 923.813 -1.49104 -0.510467 0
M  V30 9706 C 924.76 -1.65074 -1.61305 0
M  V30 9707 C 925.73 -0.492362 -1.58635 0
M  V30 9708 O 926.915 -0.718241 -1.76765 0
M  V30 9709 C 924.055 -1.71457 -2.99493 0
M  V30 9710 C 923.168 -2.98536 -3.12251 0
M  V30 9711 C 922.303 -2.95957 -4.41116 0
M  V30 9712 C 921.342 -4.17655 -4.47471 0
M  V30 9713 N 920.479 -4.13041 -5.67751 0
M  V30 9714 H 925.319 -2.59222 -1.46996 0
M  V30 9715 H 922.856 -1.28535 -0.715346 0
M  V30 9716 H 924.814 -1.7314 -3.79577 0
M  V30 9717 H 923.444 -0.807834 -3.12528 0
M  V30 9718 H 922.496 -3.06509 -2.25292 0
M  V30 9719 H 923.808 -3.88527 -3.12807 0
M  V30 9720 H 922.962 -2.96149 -5.2951 0
M  V30 9721 H 921.701 -2.03728 -4.4311 0
M  V30 9722 H 920.706 -4.17717 -3.57481 0
M  V30 9723 H 921.931 -5.11066 -4.472 0
M  V30 9724 H 919.877 -3.23643 -5.70606 0
M  V30 9725 H 919.794 -4.96757 -5.69884 0
M  V30 9726 H 921.062 -4.17322 -6.58379 0
M  V30 9727 N 925.291 0.760815 -1.38019 0
M  V30 9728 C 926.201 1.90526 -1.36884 0
M  V30 9729 C 927.217 1.71941 -0.266908 0
M  V30 9730 O 928.393 1.94988 -0.50413 0
M  V30 9731 C 925.458 3.25799 -1.18558 0
M  V30 9732 C 924.519 3.56961 -2.3849 0
M  V30 9733 C 923.752 4.8578 -2.21029 0
M  V30 9734 O 923.975 5.57629 -1.20023 0
M  V30 9735 O 922.909 5.16254 -3.0946 0
M  V30 9736 H 926.735 1.94437 -2.33298 0
M  V30 9737 H 924.32 0.905091 -1.18863 0
M  V30 9738 H 926.202 4.0669 -1.1037 0
M  V30 9739 H 924.877 3.22716 -0.252241 0
M  V30 9740 H 923.784 2.7626 -2.52252 0
M  V30 9741 H 925.117 3.64798 -3.30429 0
M  V30 9742 N 926.769 1.22769 0.988202 0
M  V30 9743 C 927.699 1.02627 2.09738 0
M  V30 9744 C 928.68 -0.0543211 1.70013 0
M  V30 9745 O 929.865 0.108811 1.93895 0
M  V30 9746 C 926.995 0.608302 3.41931 0
M  V30 9747 C 925.949 1.63536 3.95525 0
M  V30 9748 C 925.275 1.07308 5.23822 0
M  V30 9749 C 926.575 3.02649 4.25677 0
M  V30 9750 H 928.269 1.954 2.26847 0
M  V30 9751 H 925.815 0.940888 1.09011 0
M  V30 9752 H 927.768 0.454478 4.18942 0
M  V30 9753 H 926.492 -0.355095 3.24664 0
M  V30 9754 H 925.151 1.77704 3.20651 0
M  V30 9755 H 924.799 0.100894 5.02899 0
M  V30 9756 H 924.499 1.75925 5.60646 0
M  V30 9757 H 926.023 0.930938 6.03462 0
M  V30 9758 H 927.437 2.91828 4.93467 0
M  V30 9759 H 925.834 3.68434 4.73684 0
M  V30 9760 H 926.904 3.52228 3.33262 0
M  V30 9761 N 928.247 -1.18576 1.03814 0
M  V30 9762 C 929.524 -1.8433 0.654358 0
M  V30 9763 C 929.904 -1.92504 -0.866338 0
M  V30 9764 O 929.252 -1.44904 -1.76678 0
M  V30 9765 C 929.462 -3.22778 1.32723 0
M  V30 9766 C 930.81 -3.98841 1.45641 0
M  V30 9767 O 931.834 -3.32209 1.28514 0
M  V30 9768 O 930.693 -5.18219 1.73526 0
M  V30 9769 H 927.787 -0.794766 0.228638 0
M  V30 9770 H 930.333 -1.25989 1.13687 0
M  V30 9771 H 929.105 -3.11717 2.36534 0
M  V30 9772 H 928.728 -3.88772 0.833176 0
M  V30 9773 N 929.725 -0.817259 -1.34754 0
M  V30 9774 C 930.688 -0.240611 -2.27934 0
M  V30 9775 C 931.688 0.578219 -1.50044 0
M  V30 9776 O 932.878 0.395148 -1.69659 0
M  V30 9777 C 930.01 0.663318 -3.34384 0
M  V30 9778 H 931.203 -1.06257 -2.80445 0
M  V30 9779 H 928.756 -0.588697 -1.4479 0
M  V30 9780 H 929.491 1.50855 -2.87077 0
M  V30 9781 H 929.276 0.0777388 -3.92023 0
M  V30 9782 H 930.766 1.06076 -4.03903 0
M  V30 9783 N 931.203 1.46865 -0.571711 0
M  V30 9784 C 932.428 2.07323 -0.0564655 0
M  V30 9785 C 932.853 1.41938 1.23431 0
M  V30 9786 O 932.211 0.499334 1.74288 0
M  V30 9787 C 932.259 3.6044 0.107339 0
M  V30 9788 O 931.363 3.95558 1.1665 0
M  V30 9789 H 930.704 0.661475 -0.0578465 0
M  V30 9790 H 933.234 1.88669 -0.791524 0
M  V30 9791 H 933.244 4.06767 0.316987 0
M  V30 9792 H 931.919 4.07425 -0.835348 0
M  V30 9793 H 930.496 3.60957 0.936189 0
M  V30 9794 N 932.681 0.308908 1.54543 0
M  V30 9795 C 933.921 -0.298811 2.02204 0
M  V30 9796 C 934.285 -1.50484 1.19242 0
M  V30 9797 O 935.486 -2.18445 1.56637 0
M  V30 9798 C 933.757 -0.638849 3.51644 0
M  V30 9799 S 935.316 -1.22831 4.21258 0
M  V30 9800 H 932.134 -0.0912638 0.705118 0
M  V30 9801 H 934.736 0.438622 1.90516 0
M  V30 9802 H 933.44 0.24726 4.09654 0
M  V30 9803 H 932.971 -1.40687 3.67384 0
M  V30 9804 H 934.986 -2.51579 4.27694 0
M  V30 9805 N 934.159 -1.57557 0.0367827 0
M  V30 9806 C 935.408 -1.91291 -0.639569 0
M  V30 9807 C 935.721 -0.915601 -1.72847 0
M  V30 9808 O 936.927 -1.14447 -2.46199 0
M  V30 9809 C 935.383 -3.39697 -1.18888 0
M  V30 9810 C 934.991 -4.47803 -0.132851 0
M  V30 9811 C 936.735 -3.82487 -1.8413 0
M  V30 9812 C 934.642 -5.87311 -0.694229 0
M  V30 9813 H 933.572 -0.713886 -0.242658 0
M  V30 9814 H 936.223 -1.83209 0.103332 0
M  V30 9815 H 934.605 -3.42736 -1.98363 0
M  V30 9816 H 935.779 -4.56334 0.640009 0
M  V30 9817 H 934.094 -4.14264 0.421264 0
M  V30 9818 H 936.691 -4.84076 -2.27101 0
M  V30 9819 H 937.034 -3.17959 -2.68716 0
M  V30 9820 H 937.567 -3.81903 -1.11332 0
M  V30 9821 H 934.306 -6.55401 0.113667 0
M  V30 9822 H 933.826 -5.82371 -1.4354 0
M  V30 9823 H 935.505 -6.36119 -1.1816 0
M  V30 9824 N 935.637 0.236453 -1.55816 0
M  V30 9825 C 936.584 1.29289 -1.91188 0
M  V30 9826 C 937.554 1.47315 -0.767301 0
M  V30 9827 O 938.739 1.61128 -1.02189 0
M  V30 9828 C 935.879 2.64126 -2.22107 0
M  V30 9829 C 934.992 2.54022 -3.49423 0
M  V30 9830 C 934.127 3.81282 -3.69861 0
M  V30 9831 C 933.166 3.65839 -4.90743 0
M  V30 9832 N 932.303 4.85014 -5.07647 0
M  V30 9833 H 937.143 0.98424 -2.81277 0
M  V30 9834 H 934.68 0.474722 -1.39229 0
M  V30 9835 H 936.638 3.42626 -2.3804 0
M  V30 9836 H 935.268 2.93118 -1.35209 0
M  V30 9837 H 934.32 1.67036 -3.41765 0
M  V30 9838 H 935.632 2.38525 -4.38072 0
M  V30 9839 H 934.786 4.68226 -3.8581 0
M  V30 9840 H 933.525 3.99688 -2.79465 0
M  V30 9841 H 932.53 2.77279 -4.74759 0
M  V30 9842 H 933.755 3.48918 -5.82609 0
M  V30 9843 H 931.701 5.03762 -4.20191 0
M  V30 9844 H 931.618 4.72188 -5.90402 0
M  V30 9845 H 932.886 5.73427 -5.28017 0
M  V30 9846 N 937.115 1.49373 0.502552 0
M  V30 9847 C 938.364 1.58028 1.25339 0
M  V30 9848 C 938.677 0.271494 1.93707 0
M  V30 9849 O 939.883 0.236584 2.70467 0
M  V30 9850 C 938.339 2.78817 2.27572 0
M  V30 9851 C 937.947 4.16448 1.65151 0
M  V30 9852 C 939.691 2.96802 3.03494 0
M  V30 9853 C 937.598 5.28461 2.65486 0
M  V30 9854 H 936.528 0.588396 0.471494 0
M  V30 9855 H 939.179 1.75756 0.52744 0
M  V30 9856 H 937.561 2.5458 3.03323 0
M  V30 9857 H 938.735 4.50816 0.954029 0
M  V30 9858 H 937.05 4.03809 1.01625 0
M  V30 9859 H 939.647 3.77656 3.78524 0
M  V30 9860 H 939.99 2.07303 3.61014 0
M  V30 9861 H 940.523 3.21071 2.34858 0
M  V30 9862 H 937.262 6.20015 2.12749 0
M  V30 9863 H 936.782 4.9855 3.33479 0
M  V30 9864 H 938.461 5.5773 3.27943 0
M  V30 9865 N 938.594 -0.753485 1.38421 0
M  V30 9866 C 939.504 -1.89797 1.37892 0
M  V30 9867 C 940.52 -1.71797 0.276023 0
M  V30 9868 O 941.696 -1.94718 0.514464 0
M  V30 9869 C 938.761 -3.25166 1.20284 0
M  V30 9870 C 937.822 -3.55691 2.4038 0
M  V30 9871 C 937.055 -4.84601 2.23602 0
M  V30 9872 O 937.278 -5.56985 1.22979 0
M  V30 9873 O 936.212 -5.14605 3.12194 0
M  V30 9874 H 940.038 -1.93197 2.34326 0
M  V30 9875 H 937.623 -0.898775 1.19342 0
M  V30 9876 H 939.505 -4.06099 1.12525 0
M  V30 9877 H 938.18 -3.22577 0.269352 0
M  V30 9878 H 937.087 -2.74919 2.53714 0
M  V30 9879 H 938.42 -3.6304 3.32359 0
M  V30 9880 N 940.072 -1.23292 -0.981677 0
M  V30 9881 C 941.488 -0.995295 -1.24764 0
M  V30 9882 C 941.688 0.304379 -1.99188 0
M  V30 9883 O 940.744 1.02414 -2.30798 0
M  V30 9884 C 942.057 -2.20135 -2.04844 0
M  V30 9885 C 943.605 -2.24612 -2.17988 0
M  V30 9886 C 944.08 -3.448 -3.01458 0
M  V30 9887 N 945.571 -3.45031 -3.09044 0
M  V30 9888 C 946.306 -4.34683 -3.7395 0
M  V30 9889 N 945.802 -5.34569 -4.4069 0
M  V30 9890 N 947.595 -4.22429 -3.70823 0
M  V30 9891 H 939.746 -2.06834 -0.483052 0
M  V30 9892 H 942.009 -0.906929 -0.276014 0
M  V30 9893 H 941.715 -3.14446 -1.57532 0
M  V30 9894 H 941.589 -2.21115 -3.05594 0
M  V30 9895 H 943.976 -1.30841 -2.64508 0
M  V30 9896 H 944.057 -2.27664 -1.16631 0
M  V30 9897 H 943.701 -4.38877 -2.55635 0
M  V30 9898 H 943.631 -3.38988 -4.02982 0
M  V30 9899 H 946.122 -2.72759 -2.61555 0
M  V30 9900 H 946.435 -5.99236 -4.87991 0
M  V30 9901 H 944.78 -5.3847 -4.39403 0
M  V30 9902 H 947.971 -3.43639 -3.17851 0
M  V30 9903 H 948.144 -4.92501 -4.21126 0
M  V30 9904 N 941.55 1.18024 -1.04442 0
M  V30 9905 C 942.796 1.88377 -0.751133 0
M  V30 9906 C 943.129 1.80377 0.719571 0
M  V30 9907 O 942.404 1.20662 1.52548 0
M  V30 9908 C 942.687 3.38708 -1.22265 0
M  V30 9909 C 942.54 3.55499 -2.75574 0
M  V30 9910 C 943.859 4.32475 -0.815688 0
M  V30 9911 H 940.978 0.684037 -0.27434 0
M  V30 9912 H 943.62 1.38837 -1.29709 0
M  V30 9913 H 941.77 3.8103 -0.758192 0
M  V30 9914 H 943.442 3.22244 -3.30086 0
M  V30 9915 H 941.685 2.98028 -3.15217 0
M  V30 9916 H 942.356 4.60994 -3.03625 0
M  V30 9917 H 944.832 3.97953 -1.21542 0
M  V30 9918 H 943.708 5.36213 -1.17331 0
M  V30 9919 H 943.969 4.41207 0.280901 0
M  V30 9920 N 943.028 0.824394 1.34319 0
M  V30 9921 C 944.277 0.40956 1.97498 0
M  V30 9922 C 944.59 -1.03323 1.66083 0
M  V30 9923 O 945.796 -1.55205 2.22764 0
M  V30 9924 C 944.252 0.681384 3.53391 0
M  V30 9925 C 943.86 2.1379 3.93698 0
M  V30 9926 C 945.604 0.332788 4.23194 0
M  V30 9927 C 943.511 2.35453 5.42509 0
M  V30 9928 H 942.441 0.149409 0.739049 0
M  V30 9929 H 945.092 1.01095 1.5314 0
M  V30 9930 H 943.474 0.00980375 3.95999 0
M  V30 9931 H 944.648 2.84876 3.62191 0
M  V30 9932 H 942.963 2.44807 3.36836 0
M  V30 9933 H 945.56 0.472463 5.32609 0
M  V30 9934 H 945.903 -0.722862 4.09976 0
M  V30 9935 H 946.436 0.959005 3.86067 0
M  V30 9936 H 943.175 3.39529 5.60714 0
M  V30 9937 H 942.695 1.68912 5.75525 0
M  V30 9938 H 944.374 2.17885 6.09209 0
M  V30 9939 N 944.506 -1.46559 0.579492 0
M  V30 9940 C 945.754 -2.02 0.0637157 0
M  V30 9941 C 946.075 -1.45378 -1.29962 0
M  V30 9942 O 945.345 -0.637262 -1.85245 0
M  V30 9943 H 943.925 -0.746717 0.0205638 0
M  V30 9944 H 946.587 -1.79702 0.754544 0
M  V30 9945 H 945.683 -3.12099 -0.00770254 0
M  V30 9946 N 945.984 -0.3171 -1.54377 0
M  V30 9947 C 946.947 0.53905 -2.22771 0
M  V30 9948 C 947.947 1.04865 -1.21901 0
M  V30 9949 O 949.137 0.942108 -1.46526 0
M  V30 9950 C 946.269 1.74804 -2.92671 0
M  V30 9951 H 947.462 -0.0587417 -2.99842 0
M  V30 9952 H 945.015 -0.068107 -1.56152 0
M  V30 9953 H 945.75 2.38524 -2.1972 0
M  V30 9954 H 945.535 1.39011 -3.66631 0
M  V30 9955 H 947.025 2.35592 -3.44799 0
M  V30 9956 N 947.462 1.57535 -0.0451378 0
M  V30 9957 C 948.71 1.92071 0.628743 0
M  V30 9958 C 949.031 0.923635 1.71738 0
M  V30 9959 O 948.301 -0.0324376 1.95873 0
M  V30 9960 H 946.881 0.708995 0.235233 0
M  V30 9961 H 949.543 1.9466 -0.0967177 0
M  V30 9962 H 948.639 2.9314 1.07123 0
M  V30 9963 N 948.94 -0.228186 1.55939 0
M  V30 9964 C 949.85 -1.30386 1.9503 0
M  V30 9965 C 950.866 -1.51645 0.853218 0
M  V30 9966 O 952.042 -1.64904 1.15623 0
M  V30 9967 C 949.107 -2.63489 2.25332 0
M  V30 9968 C 948.168 -2.5059 3.48573 0
M  V30 9969 C 947.401 -3.77345 3.7742 0
M  V30 9970 O 947.624 -4.80067 3.08045 0
M  V30 9971 O 946.558 -3.74855 4.70922 0
M  V30 9972 H 950.384 -1.0022 2.86687 0
M  V30 9973 H 947.969 -0.430503 1.43063 0
M  V30 9974 H 949.851 -3.4211 2.46046 0
M  V30 9975 H 948.526 -2.93349 1.3685 0
M  V30 9976 H 947.433 -1.70191 3.33145 0
M  V30 9977 H 948.766 -2.2567 4.37417 0
M  V30 9978 N 950.418 -1.49637 -0.494624 0
M  V30 9979 C 951.665 -1.59445 -1.24834 0
M  V30 9980 C 951.993 -0.284028 -1.92415 0
M  V30 9981 O 951.248 0.728519 -1.81634 0
M  V30 9982 C 951.547 -2.70749 -2.33302 0
M  V30 9983 C 951.213 -4.12034 -1.83135 0
M  V30 9984 C 949.875 -4.50482 -1.69173 0
M  V30 9985 C 952.227 -5.00432 -1.4566 0
M  V30 9986 C 949.555 -5.75093 -1.16124 0
M  V30 9987 C 951.907 -6.25568 -0.940608 0
M  V30 9988 C 950.571 -6.62839 -0.787432 0
M  V30 9989 H 949.841 -0.583451 -0.456799 0
M  V30 9990 H 952.488 -1.8349 -0.548044 0
M  V30 9991 H 950.793 -2.407 -3.09145 0
M  V30 9992 H 952.49 -2.75546 -2.91334 0
M  V30 9993 H 949.08 -3.8169 -1.94964 0
M  V30 9994 H 953.264 -4.71379 -1.55291 0
M  V30 9995 H 948.52 -6.02665 -1.02982 0
M  V30 9996 H 952.694 -6.93439 -0.641467 0
M  V30 9997 H 950.321 -7.59279 -0.374191 0
M  V30 9998 N 951.896 0.746133 -1.38819 0
M  V30 9999 C 953.144 1.50247 -1.35167 0
M  V30 10000 C 953.465 1.94921 0.0553531 0
M  V30 10001 O 952.735 1.68187 1.00449 0
M  V30 10002 H 951.315 0.557337 -0.497377 0
M  V30 10003 H 953.977 0.886472 -1.73573 0
M  V30 10004 H 953.073 2.38986 -2.00728 0
M  V30 10005 N 953.375 1.23811 0.975125 0
M  V30 10006 C 954.285 1.0408 2.10249 0
M  V30 10007 C 955.301 -0.0162404 1.73992 0
M  V30 10008 O 956.477 0.180346 2.00591 0
M  V30 10009 C 953.542 0.640013 3.40741 0
M  V30 10010 C 952.603 1.7727 3.90991 0
M  V30 10011 C 951.836 1.39094 5.15256 0
M  V30 10012 O 952.059 0.277483 5.69725 0
M  V30 10013 O 950.993 2.21392 5.59704 0
M  V30 10014 H 954.819 1.98575 2.29786 0
M  V30 10015 H 952.404 1.02563 1.08633 0
M  V30 10016 H 954.286 0.427684 4.19224 0
M  V30 10017 H 952.961 -0.27589 3.22522 0
M  V30 10018 H 951.868 2.03971 3.13602 0
M  V30 10019 H 953.201 2.66711 4.13674 0
M  V30 10020 N 954.853 -1.17469 1.05066 0
M  V30 10021 C 956.099 -1.87976 0.761113 0
M  V30 10022 C 956.432 -1.80756 -0.709995 0
M  V30 10023 O 955.707 -1.21469 -1.51906 0
M  V30 10024 C 955.99 -3.38055 1.2406 0
M  V30 10025 C 955.843 -3.54032 2.77455 0
M  V30 10026 C 957.162 -4.32036 0.838612 0
M  V30 10027 H 954.281 -0.682573 0.277963 0
M  V30 10028 H 956.923 -1.38147 1.30443 0
M  V30 10029 H 955.073 -3.80622 0.778388 0
M  V30 10030 H 956.745 -3.20489 3.3179 0
M  V30 10031 H 954.988 -2.96352 3.16793 0
M  V30 10032 H 955.659 -4.59377 3.06066 0
M  V30 10033 H 958.135 -3.97303 1.23651 0
M  V30 10034 H 957.011 -5.35583 1.20173 0
M  V30 10035 H 957.272 -4.41349 -0.257498 0
M  V30 10036 N 956.331 -0.831506 -1.3388 0
M  V30 10037 C 957.571 -0.429648 -1.99833 0
M  V30 10038 C 957.935 0.990796 -1.6446 0
M  V30 10039 O 959.136 1.49599 -2.23324 0
M  V30 10040 C 957.407 -0.635558 -3.51704 0
M  V30 10041 S 958.966 -0.327824 -4.37574 0
M  V30 10042 H 955.784 -0.161939 -0.692313 0
M  V30 10043 H 958.386 -1.07919 -1.63015 0
M  V30 10044 H 957.09 -1.66887 -3.74936 0
M  V30 10045 H 956.621 0.0284073 -3.9339 0
M  V30 10046 H 958.636 0.855231 -4.88774 0
M  V30 10047 N 957.809 1.4625 -0.587256 0
M  V30 10048 C 959.034 2.07252 -0.0784517 0
M  V30 10049 C 959.459 1.43239 1.21919 0
M  V30 10050 O 958.817 0.517791 1.73749 0
M  V30 10051 C 958.865 3.60534 0.0691037 0
M  V30 10052 O 957.969 3.96773 1.12448 0
M  V30 10053 H 957.31 0.660825 -0.064859 0
M  V30 10054 H 959.84 1.87819 -0.811491 0
M  V30 10055 H 959.85 4.0708 0.273826 0
M  V30 10056 H 958.525 4.06516 -0.878514 0
M  V30 10057 H 957.102 3.6193 0.897852 0
M  V30 10058 N 959.287 0.325282 1.54207 0
M  V30 10059 C 960.535 -0.276229 2.00203 0
M  V30 10060 C 960.856 -1.52519 1.21503 0
M  V30 10061 O 960.126 -1.93313 0.317302 0
M  V30 10062 H 958.706 -0.105059 0.739575 0
M  V30 10063 H 961.368 0.442225 1.89817 0
M  V30 10064 H 960.464 -0.531427 3.07542 0
M  V30 10065 N 960.765 -1.57509 0.0534917 0
M  V30 10066 C 962.181 -1.56696 -0.303067 0
M  V30 10067 C 962.381 -1.06135 -1.71282 0
M  V30 10068 O 961.437 -0.71899 -2.42047 0
M  V30 10069 C 962.75 -3.00421 -0.129418 0
M  V30 10070 C 964.298 -3.12358 -0.200346 0
M  V30 10071 C 964.773 -4.57967 -0.0551971 0
M  V30 10072 N 966.264 -4.63066 -0.111398 0
M  V30 10073 C 966.999 -5.73395 -0.0232344 0
M  V30 10074 N 966.495 -6.92701 0.11741 0
M  V30 10075 N 968.288 -5.62045 -0.078984 0
M  V30 10076 H 960.439 -1.88696 0.975064 0
M  V30 10077 H 962.702 -0.869072 0.378706 0
M  V30 10078 H 962.408 -3.41456 0.842653 0
M  V30 10079 H 962.282 -3.66563 -0.889476 0
M  V30 10080 H 964.669 -2.71221 -1.16289 0
M  V30 10081 H 964.75 -2.48891 0.590506 0
M  V30 10082 H 964.394 -4.9979 0.904034 0
M  V30 10083 H 964.324 -5.19443 -0.865223 0
M  V30 10084 H 966.815 -3.77263 -0.219256 0
M  V30 10085 H 967.128 -7.72597 0.177326 0
M  V30 10086 H 965.473 -6.94833 0.152526 0
M  V30 10087 H 968.664 -4.67725 -0.187434 0
M  V30 10088 H 968.837 -6.48 -0.00681731 0
M  V30 10089 N 962.243 0.219913 -1.56058 0
M  V30 10090 C 963.173 1.27572 -1.9557 0
M  V30 10091 C 964.154 1.48801 -0.824148 0
M  V30 10092 O 965.339 1.60957 -1.08658 0
M  V30 10093 C 962.469 2.62517 -2.27381 0
M  V30 10094 C 961.423 2.55941 -3.43042 0
M  V30 10095 C 960.749 3.94931 -3.60463 0
M  V30 10096 C 962.049 2.10584 -4.77966 0
M  V30 10097 H 963.743 0.947482 -2.84013 0
M  V30 10098 H 961.289 0.454337 -1.36645 0
M  V30 10099 H 963.242 3.36538 -2.53615 0
M  V30 10100 H 961.966 2.97031 -1.35794 0
M  V30 10101 H 960.625 1.84377 -3.1686 0
M  V30 10102 H 960.273 4.26756 -2.66249 0
M  V30 10103 H 959.973 3.91413 -4.38258 0
M  V30 10104 H 961.497 4.70611 -3.89046 0
M  V30 10105 H 962.911 2.74349 -5.03394 0
M  V30 10106 H 961.308 2.18122 -5.59055 0
M  V30 10107 H 962.378 1.05818 -4.73213 0
M  V30 10108 N 963.721 1.49897 0.486681 0
M  V30 10109 C 964.668 1.67619 1.58658 0
M  V30 10110 C 965.638 0.517537 1.57831 0
M  V30 10111 O 966.823 0.746272 1.756 0
M  V30 10112 C 963.963 1.762 2.96728 0
M  V30 10113 C 963.076 3.03465 3.07462 0
M  V30 10114 C 962.211 3.02937 4.36351 0
M  V30 10115 C 961.25 4.24721 4.4077 0
M  V30 10116 N 960.387 4.22021 5.61108 0
M  V30 10117 H 965.227 2.61528 1.42853 0
M  V30 10118 H 962.764 1.29657 0.694807 0
M  V30 10119 H 964.722 1.79156 3.76774 0
M  V30 10120 H 963.352 0.857452 3.11203 0
M  V30 10121 H 962.404 3.10054 2.20387 0
M  V30 10122 H 963.716 3.93454 3.06586 0
M  V30 10123 H 962.87 3.04536 5.24731 0
M  V30 10124 H 961.609 2.10751 4.39813 0
M  V30 10125 H 960.614 4.23352 3.5079 0
M  V30 10126 H 961.839 5.18116 4.39013 0
M  V30 10127 H 959.785 3.3268 5.65385 0
M  V30 10128 H 959.702 5.05761 5.61909 0
M  V30 10129 H 960.97 4.27743 6.51656 0
M  V30 10130 N 965.199 -0.738761 1.39212 0
M  V30 10131 C 966.129 -1.86602 1.40364 0
M  V30 10132 C 967.11 -1.67984 0.267495 0
M  V30 10133 O 968.295 -1.88358 0.472765 0
M  V30 10134 C 965.425 -3.24308 1.24265 0
M  V30 10135 C 964.379 -3.57557 2.35239 0
M  V30 10136 C 963.705 -4.94159 2.04233 0
M  V30 10137 C 965.005 -3.60914 3.77543 0
M  V30 10138 H 966.699 -1.85896 2.34698 0
M  V30 10139 H 964.245 -0.892959 1.1297 0
M  V30 10140 H 966.198 -4.02838 1.23692 0
M  V30 10141 H 964.922 -3.25531 0.263974 0
M  V30 10142 H 963.581 -2.81354 2.35022 0
M  V30 10143 H 963.229 -4.91959 1.04813 0
M  V30 10144 H 962.929 -5.17373 2.78567 0
M  V30 10145 H 964.453 -5.7505 2.05303 0
M  V30 10146 H 965.867 -4.29528 3.79709 0
M  V30 10147 H 964.264 -3.95644 4.51205 0
M  V30 10148 H 965.334 -2.60803 4.08791 0
M  V30 10149 N 966.677 -1.24326 -0.968545 0
M  V30 10150 C 968.088 -1.07561 -1.52603 0
M  V30 10151 C 968.439 0.353245 -1.92994 0
M  V30 10152 O 967.564 1.24151 -1.77244 0
M  V30 10153 C 968.159 -1.94634 -2.77314 0
M  V30 10154 C 966.718 -1.82095 -3.29421 0
M  V30 10155 C 965.865 -1.8962 -2.02335 0
M  V30 10156 H 968.816 -1.37815 -0.786932 0
M  V30 10157 H 968.837 -1.47812 -3.50616 0
M  V30 10158 H 968.349 -2.98621 -2.47885 0
M  V30 10159 H 966.45 -0.809376 -3.63703 0
M  V30 10160 H 966.563 -2.66142 -3.98378 0
M  V30 10161 H 964.927 -1.33339 -2.17009 0
M  V30 10162 H 965.71 -2.95185 -1.75273 0
M  V30 10163 N 968.156 1.1691 -1.05688 0
M  V30 10164 C 969.404 1.86922 -0.768409 0
M  V30 10165 C 969.725 1.81735 0.706921 0
M  V30 10166 O 968.995 1.24671 1.51109 0
M  V30 10167 H 967.575 0.69203 -0.281253 0
M  V30 10168 H 970.237 1.41803 -1.33708 0
M  V30 10169 H 969.333 2.92528 -1.08783 0
M  V30 10170 N 969.634 0.838594 1.33437 0
M  V30 10171 C 970.581 0.269609 2.2922 0
M  V30 10172 C 971.551 -0.614429 1.54318 0
M  V30 10173 O 972.736 -0.552756 1.82618 0
M  V30 10174 C 969.876 -0.549527 3.40697 0
M  V30 10175 C 968.989 0.358502 4.3051 0
M  V30 10176 C 968.124 -0.471709 5.29101 0
M  V30 10177 C 967.163 0.434728 6.10554 0
M  V30 10178 N 966.3 -0.357339 7.0119 0
M  V30 10179 H 971.14 1.09172 2.77282 0
M  V30 10180 H 968.677 0.549832 1.36438 0
M  V30 10181 H 970.635 -1.03992 4.04032 0
M  V30 10182 H 969.265 -1.33661 2.93828 0
M  V30 10183 H 968.317 0.967204 3.67899 0
M  V30 10184 H 969.629 1.05483 4.87519 0
M  V30 10185 H 968.783 -1.02594 5.97963 0
M  V30 10186 H 967.522 -1.20147 4.72669 0
M  V30 10187 H 966.527 1.00097 5.40611 0
M  V30 10188 H 967.752 1.16285 6.6907 0
M  V30 10189 H 965.698 -1.07049 6.47207 0
M  V30 10190 H 965.615 0.280277 7.5548 0
M  V30 10191 H 966.883 -0.893814 7.74359 0
M  V30 10192 N 971.112 -1.45937 0.595003 0
M  V30 10193 C 972.528 -1.57507 0.257641 0
M  V30 10194 C 972.728 -1.58829 -1.23998 0
M  V30 10195 O 971.784 -1.51183 -2.02237 0
M  V30 10196 C 973.097 -2.86354 0.917708 0
M  V30 10197 C 974.645 -3.00007 0.892446 0
M  V30 10198 C 975.12 -4.31607 1.53229 0
M  V30 10199 N 976.611 -4.38336 1.49719 0
M  V30 10200 C 977.346 -5.38805 1.96154 0
M  V30 10201 N 976.842 -6.45882 2.50617 0
M  V30 10202 N 978.635 -5.30084 1.86997 0
M  V30 10203 H 970.786 -1.43322 1.56756 0
M  V30 10204 H 973.049 -0.684436 0.655936 0
M  V30 10205 H 972.755 -2.91233 1.97171 0
M  V30 10206 H 972.629 -3.74703 0.433344 0
M  V30 10207 H 975.016 -2.94703 -0.152975 0
M  V30 10208 H 975.097 -2.13103 1.41495 0
M  V30 10209 H 974.741 -4.3767 2.57697 0
M  V30 10210 H 974.671 -5.17308 0.984903 0
M  V30 10211 H 977.162 -3.6156 1.09921 0
M  V30 10212 H 977.475 -7.18774 2.83874 0
M  V30 10213 H 975.82 -6.46668 2.54649 0
M  V30 10214 H 979.011 -4.45337 1.44196 0
M  V30 10215 H 979.184 -6.08237 2.23499 0
M  V30 10216 N 972.59 -0.333456 -1.54032 0
M  V30 10217 C 973.867 0.320902 -1.9295 0
M  V30 10218 C 974.247 1.69071 -1.26405 0
M  V30 10219 O 973.595 2.24768 -0.411311 0
M  V30 10220 C 973.805 0.403257 -3.46662 0
M  V30 10221 C 975.153 0.658875 -4.19457 0
M  V30 10222 O 976.177 0.485781 -3.52872 0
M  V30 10223 O 975.036 0.993475 -5.37394 0
M  V30 10224 H 972.13 0.185158 -0.806006 0
M  V30 10225 H 974.676 -0.383895 -1.65301 0
M  V30 10226 H 973.448 -0.558409 -3.87295 0
M  V30 10227 H 973.071 1.15524 -3.80447 0
M  V30 10228 N 974.068 1.57479 -0.061844 0
M  V30 10229 C 975.314 1.93395 0.610443 0
M  V30 10230 C 975.647 0.941334 1.6986 0
M  V30 10231 O 974.922 -0.0310262 1.94475 0
M  V30 10232 C 975.205 3.39636 1.19664 0
M  V30 10233 C 975.058 4.49651 0.115805 0
M  V30 10234 C 976.377 3.86488 2.10512 0
M  V30 10235 H 973.496 0.703262 0.220436 0
M  V30 10236 H 976.138 1.89583 -0.125785 0
M  V30 10237 H 974.288 3.43015 1.82409 0
M  V30 10238 H 975.96 4.58397 -0.516728 0
M  V30 10239 H 974.203 4.30237 -0.55483 0
M  V30 10240 H 974.874 5.49089 0.566176 0
M  V30 10241 H 977.35 3.85052 1.57715 0
M  V30 10242 H 976.226 4.89444 2.48466 0
M  V30 10243 H 976.487 3.23856 3.00948 0
M  V30 10244 N 975.546 -0.211634 1.56173 0
M  V30 10245 C 976.509 -1.24588 1.92381 0
M  V30 10246 C 977.509 -1.39297 0.803311 0
M  V30 10247 O 978.699 -1.37392 1.07094 0
M  V30 10248 C 975.831 -2.61807 2.18335 0
M  V30 10249 H 977.024 -0.936814 2.84893 0
M  V30 10250 H 974.577 -0.452471 1.49607 0
M  V30 10251 H 975.312 -2.97795 1.28407 0
M  V30 10252 H 975.097 -2.52506 2.99972 0
M  V30 10253 H 976.587 -3.3642 2.4741 0
M  V30 10254 N 977.024 -1.50153 -0.478725 0
M  V30 10255 C 978.27 -1.60998 -1.23318 0
M  V30 10256 C 978.603 -0.305868 -1.91776 0
M  V30 10257 O 977.878 0.692158 -1.81767 0
M  V30 10258 C 978.161 -2.78495 -2.28282 0
M  V30 10259 C 978.014 -4.18767 -1.64178 0
M  V30 10260 C 979.333 -2.91569 -3.2966 0
M  V30 10261 H 976.452 -0.585983 -0.446982 0
M  V30 10262 H 979.094 -1.82514 -0.528063 0
M  V30 10263 H 977.244 -2.60281 -2.8842 0
M  V30 10264 H 978.916 -4.48552 -1.07696 0
M  V30 10265 H 977.159 -4.23379 -0.94514 0
M  V30 10266 H 977.83 -4.96894 -2.40417 0
M  V30 10267 H 980.306 -3.08219 -2.79536 0
M  V30 10268 H 979.182 -3.75419 -4.0044 0
M  V30 10269 H 979.443 -2.01859 -3.93326 0
M  V30 10270 N 978.502 0.731368 -1.39602 0
M  V30 10271 C 979.465 1.8271 -1.38383 0
M  V30 10272 C 980.465 1.58338 -0.280309 0
M  V30 10273 O 981.655 1.65671 -0.538402 0
M  V30 10274 C 978.787 3.20556 -1.16002 0
M  V30 10275 H 979.98 1.85193 -2.35889 0
M  V30 10276 H 977.533 0.935396 -1.2522 0
M  V30 10277 H 978.268 3.23732 -0.191927 0
M  V30 10278 H 978.053 3.39643 -1.9592 0
M  V30 10279 H 979.543 4.00612 -1.17899 0
M  V30 10280 N 979.98 1.24838 0.961938 0
M  V30 10281 C 981.229 1.0855 1.69999 0
M  V30 10282 C 981.542 -0.374645 1.91979 0
M  V30 10283 O 982.748 -0.657822 2.6341 0
M  V30 10284 C 981.204 1.89424 3.06017 0
M  V30 10285 C 980.812 3.39885 2.9186 0
M  V30 10286 C 982.556 1.81684 3.83655 0
M  V30 10287 C 980.463 4.13082 4.23223 0
M  V30 10288 H 979.393 0.402603 0.637516 0
M  V30 10289 H 982.044 1.4897 1.07146 0
M  V30 10290 H 980.426 1.41823 3.69733 0
M  V30 10291 H 981.6 3.95108 2.37121 0
M  V30 10292 H 979.915 3.4864 2.27683 0
M  V30 10293 H 982.512 2.3367 4.80939 0
M  V30 10294 H 982.855 0.783247 4.08865 0
M  V30 10295 H 983.388 2.26997 3.26676 0
M  V30 10296 H 980.127 5.16824 4.03204 0
M  V30 10297 H 979.647 3.62644 4.77755 0
M  V30 10298 H 981.326 4.20397 4.91808 0
M  V30 10299 N 981.458 -1.16348 1.06306 0
M  V30 10300 C 982.405 -2.20741 0.673962 0
M  V30 10301 C 983.375 -1.628 -0.329454 0
M  V30 10302 O 984.56 -1.89547 -0.218313 0
M  V30 10303 C 981.7 -3.45036 0.0667008 0
M  V30 10304 C 980.813 -4.17221 1.12031 0
M  V30 10305 C 979.948 -5.29034 0.479176 0
M  V30 10306 C 978.987 -5.93021 1.51631 0
M  V30 10307 N 978.124 -6.96327 0.898528 0
M  V30 10308 H 982.964 -2.53376 1.56859 0
M  V30 10309 H 980.501 -1.24449 0.784276 0
M  V30 10310 H 982.459 -4.16099 -0.302916 0
M  V30 10311 H 981.089 -3.1295 -0.791333 0
M  V30 10312 H 980.141 -3.4476 1.60763 0
M  V30 10313 H 981.453 -4.60902 1.90712 0
M  V30 10314 H 980.607 -6.06674 0.0565993 0
M  V30 10315 H 979.346 -4.86517 -0.33951 0
M  V30 10316 H 978.351 -5.14104 1.94878 0
M  V30 10317 H 979.576 -6.37618 2.3371 0
M  V30 10318 H 977.522 -6.55923 0.100555 0
M  V30 10319 H 977.439 -7.38379 1.62272 0
M  V30 10320 H 978.707 -7.77888 0.5011 0
M  V30 10321 N 982.937 -0.845659 -1.3299 0
M  V30 10322 C 984.165 -0.45835 -2.01759 0
M  V30 10323 C 984.58 0.94239 -1.63598 0
M  V30 10324 O 983.937 1.61353 -0.852738 0
M  V30 10325 C 983.988 -0.577311 -3.5686 0
M  V30 10326 O 983.709 -1.92287 -3.93646 0
M  V30 10327 C 985.21 -0.187839 -4.42902 0
M  V30 10328 H 982.43 -0.181165 -0.646081 0
M  V30 10329 H 984.974 -1.14011 -1.6977 0
M  V30 10330 H 983.129 0.0566146 -3.87359 0
M  V30 10331 H 983.543 -1.91322 -4.88361 0
M  V30 10332 H 985.017 -0.322105 -5.51059 0
M  V30 10333 H 985.494 0.870896 -4.30479 0
M  V30 10334 H 986.1 -0.796473 -4.17776 0
M  V30 10335 N 984.415 1.45619 -0.602734 0
M  V30 10336 C 985.345 2.33258 0.106342 0
M  V30 10337 C 986.326 1.46543 0.863664 0
M  V30 10338 O 987.511 1.75324 0.835175 0
M  V30 10339 C 984.641 3.29168 1.10751 0
M  V30 10340 C 983.595 4.25481 0.463717 0
M  V30 10341 C 982.921 5.11046 1.57278 0
M  V30 10342 C 984.221 5.18702 -0.61199 0
M  V30 10343 H 985.915 2.92795 -0.625423 0
M  V30 10344 H 983.461 1.40793 -0.302213 0
M  V30 10345 H 985.414 3.89346 1.61208 0
M  V30 10346 H 984.138 2.6778 1.8698 0
M  V30 10347 H 982.797 3.66595 -0.0199496 0
M  V30 10348 H 982.445 4.46029 2.32524 0
M  V30 10349 H 982.145 5.76286 1.14755 0
M  V30 10350 H 983.669 5.74091 2.07972 0
M  V30 10351 H 985.083 5.72979 -0.191686 0
M  V30 10352 H 983.48 5.92393 -0.958686 0
M  V30 10353 H 984.55 4.61424 -1.4905 0
M  V30 10354 N 985.893 0.34162 1.53853 0
M  V30 10355 C 986.84 -0.516058 2.24957 0
M  V30 10356 C 987.81 -1.09711 1.2471 0
M  V30 10357 O 988.995 -1.13409 1.53438 0
M  V30 10358 C 986.135 -1.66207 3.02439 0
M  V30 10359 C 985.248 -1.10851 4.17536 0
M  V30 10360 C 984.383 -2.22167 4.82509 0
M  V30 10361 C 983.422 -1.64152 5.89678 0
M  V30 10362 N 982.559 -2.69203 6.4844 0
M  V30 10363 H 987.399 0.0968275 2.97843 0
M  V30 10364 H 984.936 0.0595565 1.46979 0
M  V30 10365 H 986.894 -2.33672 3.4562 0
M  V30 10366 H 985.524 -2.24597 2.31853 0
M  V30 10367 H 984.576 -0.324853 3.7901 0
M  V30 10368 H 985.888 -0.644151 4.94623 0
M  V30 10369 H 985.042 -2.97501 5.28751 0
M  V30 10370 H 983.781 -2.71946 4.04842 0
M  V30 10371 H 982.786 -0.873228 5.42821 0
M  V30 10372 H 984.011 -1.15228 6.69253 0
M  V30 10373 H 981.957 -3.1824 5.73637 0
M  V30 10374 H 981.874 -2.27383 7.20994 0
M  V30 10375 H 983.142 -3.44312 6.99335 0
M  V30 10376 N 987.371 -1.57444 0.0701946 0
M  V30 10377 C 988.617 -1.93716 -0.600178 0
M  V30 10378 C 988.95 -0.950329 -1.69359 0
M  V30 10379 O 988.225 0.0207123 -1.94489 0
M  V30 10380 C 988.508 -3.40266 -1.17861 0
M  V30 10381 C 988.361 -4.49706 -0.0919575 0
M  V30 10382 C 989.68 -3.87599 -2.08459 0
M  V30 10383 H 986.799 -0.704421 -0.216704 0
M  V30 10384 H 989.441 -1.89514 0.135838 0
M  V30 10385 H 987.591 -3.43977 -1.80587 0
M  V30 10386 H 989.263 -4.58116 0.541031 0
M  V30 10387 H 987.506 -4.29937 0.577639 0
M  V30 10388 H 988.177 -5.49381 -0.537048 0
M  V30 10389 H 990.653 -3.85883 -1.5567 0
M  V30 10390 H 989.529 -4.90755 -2.45867 0
M  V30 10391 H 989.79 -3.25448 -2.99226 0
M  V30 10392 N 988.849 0.203349 -1.56283 0
M  V30 10393 C 990.097 0.923183 -1.79782 0
M  V30 10394 C 990.418 1.84134 -0.64185 0
M  V30 10395 O 989.688 1.92922 0.340292 0
M  V30 10396 H 988.268 0.343881 -0.66314 0
M  V30 10397 H 990.93 0.210837 -1.93756 0
M  V30 10398 H 990.026 1.51921 -2.72629 0
M  V30 10399 N 990.327 1.50405 0.470755 0
M  V30 10400 C 991.557 1.64928 1.24428 0
M  V30 10401 C 991.965 0.332139 1.86262 0
M  V30 10402 O 991.308 -0.695919 1.70008 0
M  V30 10403 C 991.37 2.6829 2.39293 0
M  V30 10404 C 991.034 4.11835 1.98093 0
M  V30 10405 C 992.031 4.97693 1.50326 0
M  V30 10406 C 989.716 4.57753 2.06803 0
M  V30 10407 C 991.71 6.27516 1.11813 0
M  V30 10408 C 989.397 5.87582 1.67902 0
M  V30 10409 C 990.395 6.72289 1.20485 0
M  V30 10410 O 990.083 7.99694 0.821219 0
M  V30 10411 H 989.815 0.557418 0.382442 0
M  V30 10412 H 992.369 1.97382 0.568292 0
M  V30 10413 H 990.599 2.31079 3.10063 0
M  V30 10414 H 992.288 2.7203 3.01255 0
M  V30 10415 H 993.054 4.63434 1.43018 0
M  V30 10416 H 988.933 3.91966 2.42659 0
M  V30 10417 H 992.477 6.93586 0.747317 0
M  V30 10418 H 988.374 6.21362 1.74869 0
M  V30 10419 H 989.142 8.12968 0.950038 0
M  V30 10420 N 991.805 -0.723954 1.39988 0
M  V30 10421 C 993.033 -1.51313 1.4111 0
M  V30 10422 C 993.448 -1.88798 0.00853333 0
M  V30 10423 O 992.805 -1.54868 -0.965516 0
M  V30 10424 C 992.856 -2.79375 2.29416 0
M  V30 10425 O 992.577 -2.43478 3.64211 0
M  V30 10426 C 994.078 -3.7333 2.3904 0
M  V30 10427 H 991.298 -0.46724 0.481589 0
M  V30 10428 H 993.842 -0.893694 1.83938 0
M  V30 10429 H 991.997 -3.37624 1.89971 0
M  V30 10430 H 992.411 -3.25821 4.11024 0
M  V30 10431 H 993.885 -4.60051 3.05053 0
M  V30 10432 H 994.362 -4.15854 1.41289 0
M  V30 10433 H 994.968 -3.20996 2.79001 0
M  V30 10434 N 993.283 -1.25346 -0.955304 0
M  V30 10435 C 994.193 -1.07412 -2.08566 0
M  V30 10436 C 995.209 -0.0114424 -1.73996 0
M  V30 10437 O 996.385 -0.212236 -2.00279 0
M  V30 10438 C 993.45 -0.694141 -3.3968 0
M  V30 10439 C 992.511 -1.83468 -3.88121 0
M  V30 10440 C 991.744 -1.47274 -5.12978 0
M  V30 10441 O 991.967 -0.368086 -5.69211 0
M  V30 10442 O 990.901 -2.30269 -5.56111 0
M  V30 10443 H 994.727 -2.02206 -2.26598 0
M  V30 10444 H 992.312 -1.04279 -1.06988 0
M  V30 10445 H 994.194 -0.494325 -4.18491 0
M  V30 10446 H 992.869 0.224545 -3.2292 0
M  V30 10447 H 991.776 -2.08935 -3.10318 0
M  V30 10448 H 993.109 -2.73258 -4.09379 0
M  V30 10449 N 994.761 1.15782 -1.06922 0
M  V30 10450 C 995.708 2.2038 -0.685659 0
M  V30 10451 C 996.678 1.62972 0.320816 0
M  V30 10452 O 997.863 1.8966 0.208258 0
M  V30 10453 C 995.003 3.44995 -0.084998 0
M  V30 10454 C 994.116 4.16621 -1.14242 0
M  V30 10455 C 993.251 5.28773 -0.507226 0
M  V30 10456 C 992.29 5.92209 -1.54774 0
M  V30 10457 N 991.427 6.9584 -0.935443 0
M  V30 10458 H 996.267 2.5254 -1.58201 0
M  V30 10459 H 993.804 1.24031 -0.790864 0
M  V30 10460 H 995.762 4.16254 0.280845 0
M  V30 10461 H 994.392 3.13365 0.774725 0
M  V30 10462 H 993.444 3.43903 -1.62589 0
M  V30 10463 H 994.756 4.59884 -1.93154 0
M  V30 10464 H 993.91 6.06635 -0.0887719 0
M  V30 10465 H 992.649 4.8669 0.313704 0
M  V30 10466 H 991.654 5.13063 -1.97602 0
M  V30 10467 H 992.879 6.3637 -2.37088 0
M  V30 10468 H 990.825 6.5586 -0.135339 0
M  V30 10469 H 990.742 7.37508 -1.66186 0
M  V30 10470 H 992.01 7.77611 -0.542346 0
M  V30 10471 N 996.239 0.8527 1.3254 0
M  V30 10472 C 997.171 0.253181 2.27797 0
M  V30 10473 C 998.184 -0.573977 1.52346 0
M  V30 10474 O 999.373 -0.398786 1.73988 0
M  V30 10475 C 996.473 -0.661034 3.32391 0
M  V30 10476 C 995.646 0.12984 4.37207 0
M  V30 10477 C 994.705 -0.709837 5.2139 0
M  V30 10478 O 993.731 -0.144056 5.69018 0
M  V30 10479 N 994.933 -2.0249 5.44039 0
M  V30 10480 H 997.698 1.07171 2.79883 0
M  V30 10481 H 995.259 0.712491 1.45379 0
M  V30 10482 H 997.251 -1.22806 3.85617 0
M  V30 10483 H 995.821 -1.38025 2.80478 0
M  V30 10484 H 995.041 0.878289 3.84291 0
M  V30 10485 H 996.329 0.673141 5.04328 0
M  V30 10486 H 995.727 -2.50792 5.0707 0
M  V30 10487 H 994.284 -2.5401 6.00269 0
M  V30 10488 N 997.718 -1.45297 0.610449 0
M  V30 10489 C 999.134 -1.57225 0.274332 0
M  V30 10490 C 999.334 -1.60136 -1.22306 0
M  V30 10491 O 998.39 -1.5332 -2.00622 0
M  V30 10492 C 999.703 -2.85365 0.948028 0
M  V30 10493 C 1001.25 -2.99044 0.924216 0
M  V30 10494 C 1001.73 -4.29958 1.57798 0
M  V30 10495 N 1003.22 -4.36723 1.5436 0
M  V30 10496 C 1003.95 -5.36695 2.01857 0
M  V30 10497 N 1003.45 -6.43187 2.57453 0
M  V30 10498 N 1005.24 -5.28071 1.92608 0
M  V30 10499 H 997.392 -1.41651 1.58268 0
M  V30 10500 H 999.655 -0.67744 0.663158 0
M  V30 10501 H 999.361 -2.89125 2.00249 0
M  V30 10502 H 999.235 -3.74222 0.473062 0
M  V30 10503 H 1001.62 -2.94849 -0.121709 0
M  V30 10504 H 1001.7 -2.1159 1.43748 0
M  V30 10505 H 1001.35 -4.34912 2.62325 0
M  V30 10506 H 1001.28 -5.16234 1.03972 0
M  V30 10507 H 1003.77 -3.60374 1.13749 0
M  V30 10508 H 1004.08 -7.15722 2.91482 0
M  V30 10509 H 1002.43 -6.4393 2.61493 0
M  V30 10510 H 1005.62 -4.43783 1.48912 0
M  V30 10511 H 1005.79 -6.05832 2.29938 0
M  V30 10512 N 999.196 -0.349774 -1.5367 0
M  V30 10513 C 1000.61 0.00191293 -1.596 0
M  V30 10514 C 1000.81 1.48175 -1.36552 0
M  V30 10515 O 999.868 2.24129 -1.16285 0
M  V30 10516 C 1001.18 -0.439848 -2.97466 0
M  V30 10517 C 1002.73 -0.392721 -3.10526 0
M  V30 10518 C 1003.2 -0.810047 -4.5078 0
M  V30 10519 N 1004.69 -0.764478 -4.56848 0
M  V30 10520 C 1005.43 -1.05927 -5.63531 0
M  V30 10521 N 1004.93 -1.42253 -6.78038 0
M  V30 10522 N 1006.72 -0.983098 -5.53436 0
M  V30 10523 H 998.87 -1.31364 -1.66905 0
M  V30 10524 H 1001.13 -0.535908 -0.781989 0
M  V30 10525 H 1000.84 -1.47189 -3.19419 0
M  V30 10526 H 1000.71 0.181735 -3.76762 0
M  V30 10527 H 1003.1 0.630161 -2.88293 0
M  V30 10528 H 1003.18 -1.04959 -2.33275 0
M  V30 10529 H 1002.82 -1.83097 -4.73749 0
M  V30 10530 H 1002.75 -0.130591 -5.26438 0
M  V30 10531 H 1005.25 -0.496637 -3.74622 0
M  V30 10532 H 1005.56 -1.63215 -7.55368 0
M  V30 10533 H 1003.9 -1.46104 -6.79469 0
M  V30 10534 H 1007.09 -0.698601 -4.62858 0
M  V30 10535 H 1007.27 -1.21618 -6.36485 0
M  V30 10536 N 1000.67 1.57404 -0.0785433 0
M  V30 10537 C 1001.95 1.85163 0.630389 0
M  V30 10538 C 1002.33 0.972295 1.87376 0
M  V30 10539 O 1001.68 0.0403375 2.28464 0
M  V30 10540 C 1001.89 3.35491 0.961604 0
M  V30 10541 C 1003.24 4.0316 1.33219 0
M  V30 10542 O 1004.26 3.40276 1.05313 0
M  V30 10543 O 1003.12 5.14086 1.85412 0
M  V30 10544 H 1000.21 0.765169 0.31376 0
M  V30 10545 H 1002.76 1.69343 -0.109986 0
M  V30 10546 H 1001.53 3.91221 0.0788113 0
M  V30 10547 H 1001.15 3.56598 1.75852 0
M  V30 10548 N 1002.15 -0.195058 1.56388 0
M  V30 10549 C 1003.4 -0.915444 1.80626 0
M  V30 10550 C 1003.73 -1.83255 0.651768 0
M  V30 10551 O 1002.98 -1.92314 -0.362464 0
M  V30 10552 C 1003.28 -1.7637 3.10851 0
M  V30 10553 C 1002.95 -0.997572 4.39726 0
M  V30 10554 C 1001.61 -0.786043 4.74737 0
M  V30 10555 C 1003.96 -0.45851 5.19179 0
M  V30 10556 C 1001.29 -0.023972 5.86695 0
M  V30 10557 C 1003.64 0.29035 6.31933 0
M  V30 10558 C 1002.3 0.512895 6.65527 0
M  V30 10559 H 1001.57 -0.334985 0.660959 0
M  V30 10560 H 1004.22 -0.181815 1.90635 0
M  V30 10561 H 1002.53 -2.566 2.9608 0
M  V30 10562 H 1004.22 -2.3237 3.26811 0
M  V30 10563 H 1000.81 -1.17245 4.12252 0
M  V30 10564 H 1005 -0.609334 4.92545 0
M  V30 10565 H 1000.25 0.158421 6.11195 0
M  V30 10566 H 1004.43 0.715429 6.92715 0
M  V30 10567 H 1002.05 1.10531 7.52122 0
M  V30 10568 N 1003.63 -1.50653 -0.462772 0
M  V30 10569 C 1004.56 -1.73056 -1.5676 0
M  V30 10570 C 1005.54 -0.579699 -1.59917 0
M  V30 10571 O 1006.73 -0.819729 -1.76051 0
M  V30 10572 C 1003.86 -1.83234 -2.9503 0
M  V30 10573 C 1002.81 -2.98488 -3.06739 0
M  V30 10574 C 1002.14 -2.93818 -4.46738 0
M  V30 10575 C 1003.44 -4.38869 -2.83181 0
M  V30 10576 H 1005.13 -2.65562 -1.38265 0
M  V30 10577 H 1002.68 -1.27792 -0.663722 0
M  V30 10578 H 1004.63 -1.97491 -3.72257 0
M  V30 10579 H 1003.35 -0.873558 -3.14701 0
M  V30 10580 H 1002.01 -2.83895 -2.31946 0
M  V30 10581 H 1001.66 -1.95769 -4.63339 0
M  V30 10582 H 1001.36 -3.71197 -4.55507 0
M  V30 10583 H 1002.88 -3.10135 -5.25974 0
M  V30 10584 H 1004.3 -4.53945 -3.50153 0
M  V30 10585 H 1002.69 -5.17762 -3.03386 0
M  V30 10586 H 1003.76 -4.50663 -1.78972 0
M  V30 10587 N 1005.11 0.71652 -1.4037 0
M  V30 10588 C 1006.35 1.48883 -1.40047 0
M  V30 10589 C 1006.71 1.92 -0.00158027 0
M  V30 10590 O 1007.91 2.68501 0.126765 0
M  V30 10591 C 1006.18 2.68265 -2.36154 0
M  V30 10592 S 1007.74 3.57684 -2.5418 0
M  V30 10593 H 1004.56 0.509035 -0.496391 0
M  V30 10594 H 1007.16 0.837967 -1.76631 0
M  V30 10595 H 1005.87 2.34759 -3.36625 0
M  V30 10596 H 1005.4 3.38264 -2.0085 0
M  V30 10597 H 1007.41 4.62653 -1.79352 0
M  V30 10598 N 1006.59 1.25851 0.948643 0
M  V30 10599 C 1007.5 1.08516 2.07994 0
M  V30 10600 C 1008.51 0.0206696 1.73988 0
M  V30 10601 O 1009.69 0.222854 2.00163 0
M  V30 10602 C 1006.75 0.712145 3.39307 0
M  V30 10603 C 1005.81 1.85523 3.87143 0
M  V30 10604 C 1005.05 1.49992 5.1219 0
M  V30 10605 O 1005.27 0.398268 5.69008 0
M  V30 10606 O 1004.2 2.33215 5.54882 0
M  V30 10607 H 1008.03 2.03405 2.25522 0
M  V30 10608 H 1005.62 1.04844 1.06433 0
M  V30 10609 H 1007.5 0.516512 4.18223 0
M  V30 10610 H 1006.17 -0.207416 3.23035 0
M  V30 10611 H 1005.08 2.10578 3.09205 0
M  V30 10612 H 1006.41 2.75425 4.07924 0
M  V30 10613 N 1008.06 -1.15214 1.07534 0
M  V30 10614 C 1009.03 -2.18209 0.701237 0
M  V30 10615 C 1010.03 -1.58693 -0.25946 0
M  V30 10616 O 1011.22 -1.74154 -0.0401744 0
M  V30 10617 C 1008.35 -3.40883 0.0338703 0
M  V30 10618 H 1009.54 -2.5282 1.61314 0
M  V30 10619 H 1007.1 -1.29707 0.872105 0
M  V30 10620 H 1007.83 -3.11843 -0.890187 0
M  V30 10621 H 1007.62 -3.85342 0.72486 0
M  V30 10622 H 1009.11 -4.17056 -0.213152 0
M  V30 10623 N 1009.54 -0.859717 -1.32086 0
M  V30 10624 C 1010.77 -0.478865 -2.01796 0
M  V30 10625 C 1011.19 0.918274 -1.64163 0
M  V30 10626 O 1010.55 1.60409 -0.844896 0
M  V30 10627 C 1010.6 -0.631356 -3.5503 0
M  V30 10628 O 1009.7 0.333712 -4.11048 0
M  V30 10629 H 1009.04 -0.191775 -0.635703 0
M  V30 10630 H 1011.57 -1.16031 -1.68517 0
M  V30 10631 H 1011.58 -0.520783 -4.04663 0
M  V30 10632 H 1010.26 -1.65015 -3.81763 0
M  V30 10633 H 1008.84 0.178953 -3.7247 0
M  V30 10634 N 1011.02 1.44971 -0.618145 0
M  V30 10635 C 1012.27 2.01372 -0.115004 0
M  V30 10636 C 1012.58 1.49104 1.26599 0
M  V30 10637 O 1013.79 1.97549 1.86244 0
M  V30 10638 C 1012.24 3.59567 -0.154883 0
M  V30 10639 C 1011.85 4.20832 -1.53639 0
M  V30 10640 C 1013.6 4.23491 0.292468 0
M  V30 10641 C 1011.5 5.7121 -1.53208 0
M  V30 10642 H 1010.43 0.752979 -0.0392267 0
M  V30 10643 H 1013.08 1.66329 -0.775032 0
M  V30 10644 H 1011.47 3.91847 0.572001 0
M  V30 10645 H 1012.64 4.00109 -2.28582 0
M  V30 10646 H 1010.96 3.69143 -1.92672 0
M  V30 10647 H 1013.55 5.33771 0.315032 0
M  V30 10648 H 1013.9 3.9491 1.31725 0
M  V30 10649 H 1014.43 3.95967 -0.381493 0
M  V30 10650 H 1011.17 6.04506 -2.53481 0
M  V30 10651 H 1010.69 5.94094 -0.825387 0
M  V30 10652 H 1012.37 6.34606 -1.26032 0
M  V30 10653 N 1012.5 0.357919 1.53482 0
M  V30 10654 C 1013.43 -0.535553 2.21827 0
M  V30 10655 C 1014.41 -1.08904 1.20742 0
M  V30 10656 O 1015.59 -1.14661 1.49616 0
M  V30 10657 C 1012.72 -1.73817 2.90698 0
M  V30 10658 C 1011.77 -1.31283 4.05792 0
M  V30 10659 S 1012.6 -0.320548 5.3454 0
M  V30 10660 C 1013.76 -1.52967 6.0692 0
M  V30 10661 H 1013.99 0.0449045 2.97266 0
M  V30 10662 H 1011.52 0.142009 1.53746 0
M  V30 10663 H 1013.48 -2.42803 3.30994 0
M  V30 10664 H 1012.14 -2.28987 2.14998 0
M  V30 10665 H 1011.33 -2.20989 4.52968 0
M  V30 10666 H 1010.94 -0.702275 3.67347 0
M  V30 10667 H 1013.23 -2.46191 6.31186 0
M  V30 10668 H 1014.17 -1.09943 6.99513 0
M  V30 10669 H 1014.58 -1.73224 5.37265 0
M  V30 10670 N 1013.98 -1.5736 0.0868897 0
M  V30 10671 C 1015.22 -1.9367 -0.577598 0
M  V30 10672 C 1015.55 -0.968844 -1.69229 0
M  V30 10673 O 1014.82 -0.0195061 -1.9589 0
M  V30 10674 H 1013.4 -0.714983 -0.216353 0
M  V30 10675 H 1016.06 -1.94335 0.148294 0
M  V30 10676 H 1015.15 -2.95877 -0.993128 0
M  V30 10677 N 1015.45 0.186762 -1.56489 0
M  V30 10678 C 1016.39 1.25565 -1.91745 0
M  V30 10679 C 1017.4 1.4128 -0.80894 0
M  V30 10680 O 1018.59 1.41558 -1.08737 0
M  V30 10681 C 1015.69 2.62662 -2.14154 0
M  V30 10682 C 1014.86 2.68448 -3.45333 0
M  V30 10683 C 1013.92 3.86798 -3.56754 0
M  V30 10684 O 1012.95 3.73514 -4.29507 0
M  V30 10685 N 1014.15 5.02607 -2.90459 0
M  V30 10686 H 1016.91 0.956351 -2.84032 0
M  V30 10687 H 1014.47 0.376631 -1.57458 0
M  V30 10688 H 1016.47 3.40277 -2.19075 0
M  V30 10689 H 1015.04 2.85046 -1.28326 0
M  V30 10690 H 1014.26 1.77044 -3.52206 0
M  V30 10691 H 1015.54 2.69311 -4.31682 0
M  V30 10692 H 1014.94 5.163 -2.31194 0
M  V30 10693 H 1013.5 5.78139 -3.00996 0
M  V30 10694 N 1016.93 1.50896 0.454776 0
M  V30 10695 C 1018.18 1.62699 1.20562 0
M  V30 10696 C 1018.51 0.334943 1.91594 0
M  V30 10697 O 1017.76 -0.680106 1.83502 0
M  V30 10698 C 1018.06 2.76839 2.26042 0
M  V30 10699 C 1017.73 4.16745 1.72147 0
M  V30 10700 C 1016.39 4.54809 1.5717 0
M  V30 10701 C 1018.74 5.04118 1.32341 0
M  V30 10702 C 1016.07 5.7797 1.00835 0
M  V30 10703 C 1018.42 6.27842 0.774419 0
M  V30 10704 C 1017.09 6.64694 0.611415 0
M  V30 10705 H 1016.36 0.595358 0.441169 0
M  V30 10706 H 1019 1.84879 0.499202 0
M  V30 10707 H 1017.31 2.48812 3.02655 0
M  V30 10708 H 1019 2.83173 2.83926 0
M  V30 10709 H 1015.59 3.86725 1.84775 0
M  V30 10710 H 1019.78 4.75331 1.42739 0
M  V30 10711 H 1015.03 6.05183 0.869669 0
M  V30 10712 H 1019.21 6.94896 0.457389 0
M  V30 10713 H 1016.84 7.60004 0.172751 0
M  V30 10714 N 1018.41 -0.709066 1.40748 0
M  V30 10715 C 1019.69 -1.4626 1.29874 0
M  V30 10716 C 1020.07 -2.10949 -0.0799322 0
M  V30 10717 O 1019.42 -2.00651 -1.09323 0
M  V30 10718 C 1019.63 -2.49302 2.44232 0
M  V30 10719 C 1020.97 -3.14945 2.84771 0
M  V30 10720 O 1022 -2.59623 2.43873 0
M  V30 10721 O 1020.86 -4.15111 3.5545 0
M  V30 10722 H 1017.95 -0.650716 0.51039 0
M  V30 10723 H 1020.5 -0.740687 1.52682 0
M  V30 10724 H 1019.27 -2.00063 3.36289 0
M  V30 10725 H 1018.89 -3.29021 2.23229 0
M  V30 10726 N 1019.89 -1.26353 -0.941956 0
M  V30 10727 C 1020.84 -1.04513 -2.02635 0
M  V30 10728 C 1021.82 0.0222314 -1.60885 0
M  V30 10729 O 1023.02 -0.194629 -1.75927 0
M  V30 10730 C 1020.14 -0.679282 -3.36512 0
M  V30 10731 C 1019.23 -1.78406 -3.8475 0
M  V30 10732 N 1019.62 -3.02136 -4.05645 0
M  V30 10733 C 1017.92 -1.66748 -4.13656 0
M  V30 10734 C 1018.62 -3.73932 -4.45589 0
M  V30 10735 N 1017.6 -3.01616 -4.52248 0
M  V30 10736 H 1021.4 -1.9843 -2.16801 0
M  V30 10737 H 1018.91 -1.16858 -1.12774 0
M  V30 10738 H 1020.91 -0.503975 -4.13843 0
M  V30 10739 H 1019.57 0.252418 -3.23717 0
M  V30 10740 H 1020.58 -3.38049 -3.92356 0
M  V30 10741 H 1017.26 -0.805627 -4.09653 0
M  V30 10742 H 1018.65 -4.80201 -4.69954 0
M  V30 10743 N 1021.37 1.14642 -1.08144 0
M  V30 10744 C 1022.78 1.6719 -0.830923 0
M  V30 10745 C 1023.13 1.85373 0.642749 0
M  V30 10746 O 1022.25 1.56293 1.49671 0
M  V30 10747 C 1022.85 3.03697 -1.50179 0
M  V30 10748 C 1021.41 3.5329 -1.29858 0
M  V30 10749 C 1020.56 2.28828 -1.5663 0
M  V30 10750 H 1023.51 0.987441 -1.24239 0
M  V30 10751 H 1023.53 3.69023 -0.9275 0
M  V30 10752 H 1023.04 2.90431 -2.57432 0
M  V30 10753 H 1021.14 3.71783 -0.246626 0
M  V30 10754 H 1021.25 4.34231 -2.02436 0
M  V30 10755 H 1019.62 2.34769 -0.987716 0
M  V30 10756 H 1020.4 2.18141 -2.65084 0
M  V30 10757 N 1022.85 0.866709 1.31628 0
M  V30 10758 C 1023.79 0.309128 2.30537 0
M  V30 10759 C 1024.79 -0.574028 1.59378 0
M  V30 10760 O 1025.99 -0.460491 1.7401 0
M  V30 10761 H 1022.37 0.081279 0.747595 0
M  V30 10762 H 1024.34 1.15734 2.75042 0
M  V30 10763 C 1023.09 -0.477287 3.44409 0
M  V30 10764 H 1022.41 0.19301 3.99334 0
M  V30 10765 H 1023.85 -0.832818 4.1574 0
M  V30 10766 C 1022.31 -1.66727 2.92752 0
M  V30 10767 O 1022.84 -2.76654 2.91248 0
M  V30 10768 N 1021.05 -1.49833 2.48995 0
M  V30 10769 H 1020.59 -0.604073 2.50417 0
M  V30 10770 H 1020.55 -2.29594 2.14788 0
M  V30 10771 N 1024.32 -1.44642 0.625825 0
M  V30 10772 C 1025.57 -2.02393 0.128391 0
M  V30 10773 C 1025.9 -1.49075 -1.2446 0
M  V30 10774 O 1025.18 -0.672684 -1.82497 0
M  V30 10775 C 1025.46 -3.59934 0.109279 0
M  V30 10776 C 1025.31 -4.23546 1.51423 0
M  V30 10777 C 1026.63 -4.36406 -0.568985 0
M  V30 10778 H 1023.75 -0.735427 0.0481299 0
M  V30 10779 H 1026.39 -1.72277 0.801286 0
M  V30 10780 H 1024.54 -3.85722 -0.463726 0
M  V30 10781 H 1026.22 -4.08882 2.13572 0
M  V30 10782 H 1024.46 -3.81245 2.06966 0
M  V30 10783 H 1025.13 -5.32535 1.45294 0
M  V30 10784 H 1027.61 -4.1602 -0.0817516 0
M  V30 10785 H 1026.48 -5.46122 -0.551527 0
M  V30 10786 H 1026.74 -4.1062 -1.6384 0
M  V30 10787 N 1025.8 -0.366053 -1.5329 0
M  V30 10788 C 1027.05 0.223824 -2.01561 0
M  V30 10789 C 1027.38 1.48382 -1.25286 0
M  V30 10790 O 1026.66 1.91385 -0.34669 0
M  V30 10791 C 1026.94 0.5153 -3.56394 0
M  V30 10792 C 1026.79 -0.758357 -4.43361 0
M  V30 10793 C 1028.11 1.31568 -4.19974 0
M  V30 10794 H 1025.23 0.0798751 -0.732659 0
M  V30 10795 H 1027.87 -0.491038 -1.83545 0
M  V30 10796 H 1026.02 1.12429 -3.71876 0
M  V30 10797 H 1027.69 -1.39584 -4.39675 0
M  V30 10798 H 1025.94 -1.37862 -4.11311 0
M  V30 10799 H 1026.61 -0.509366 -5.49645 0
M  V30 10800 H 1029.08 0.800514 -4.08327 0
M  V30 10801 H 1027.96 1.48837 -5.28336 0
M  V30 10802 H 1028.22 2.32432 -3.76069 0
M  V30 10803 N 1027.28 1.57312 -0.0952337 0
M  V30 10804 C 1028.23 2.10571 0.87428 0
M  V30 10805 C 1029.21 1.02079 1.24374 0
M  V30 10806 O 1030.41 1.28353 1.2188 0
M  V30 10807 C 1027.53 2.68972 2.13329 0
M  V30 10808 C 1026.62 3.84508 1.78926 0
M  V30 10809 N 1027.01 4.92534 1.15082 0
M  V30 10810 C 1025.31 3.94245 2.08535 0
M  V30 10811 C 1026.01 5.73163 0.992937 0
M  V30 10812 N 1024.99 5.22198 1.51029 0
M  V30 10813 H 1028.79 2.91476 0.376727 0
M  V30 10814 H 1026.3 1.62041 0.107974 0
M  V30 10815 H 1028.3 3.05457 2.83728 0
M  V30 10816 H 1026.96 1.89523 2.6365 0
M  V30 10817 H 1027.97 5.11405 0.817621 0
M  V30 10818 H 1024.65 3.25805 2.61069 0
M  V30 10819 H 1026.04 6.70084 0.493641 0
M  V30 10820 N 1028.76 -0.17846 1.56586 0
M  V30 10821 C 1029.69 -1.22342 1.98884 0
M  V30 10822 C 1030.67 -1.46564 0.86331 0
M  V30 10823 O 1031.85 -1.58019 1.12887 0
M  V30 10824 C 1028.98 -2.56396 2.34261 0
M  V30 10825 C 1027.94 -2.46756 3.49708 0
M  V30 10826 C 1027.26 -3.85235 3.70807 0
M  V30 10827 C 1028.56 -1.97838 4.83381 0
M  V30 10828 H 1030.26 -0.871848 2.86425 0
M  V30 10829 H 1027.8 -0.417948 1.37801 0
M  V30 10830 H 1029.76 -3.29695 2.62448 0
M  V30 10831 H 1028.48 -2.93327 1.43621 0
M  V30 10832 H 1027.14 -1.75912 3.21637 0
M  V30 10833 H 1026.79 -4.19547 2.7747 0
M  V30 10834 H 1026.49 -3.79655 4.48481 0
M  V30 10835 H 1028.01 -4.60131 4.01387 0
M  V30 10836 H 1029.43 -2.60906 5.10491 0
M  V30 10837 H 1027.82 -2.03223 5.64642 0
M  V30 10838 H 1028.89 -0.932339 4.75852 0
M  V30 10839 N 1030.24 -1.51135 -0.446768 0
M  V30 10840 C 1031.15 -1.74595 -1.56696 0
M  V30 10841 C 1032.16 -0.629816 -1.62201 0
M  V30 10842 O 1033.34 -0.910987 -1.79619 0
M  V30 10843 C 1030.4 -1.85738 -2.9275 0
M  V30 10844 C 1029.46 -3.09564 -2.97437 0
M  V30 10845 C 1028.7 -3.20165 -4.27001 0
M  V30 10846 O 1028.92 -2.36939 -5.1886 0
M  V30 10847 O 1027.85 -4.13077 -4.3778 0
M  V30 10848 H 1031.68 -2.69601 -1.39817 0
M  V30 10849 H 1029.26 -1.35523 -0.628805 0
M  V30 10850 H 1031.15 -1.95107 -3.73512 0
M  V30 10851 H 1029.82 -0.939184 -3.09776 0
M  V30 10852 H 1028.73 -3.05679 -2.15664 0
M  V30 10853 H 1030.06 -4.01041 -2.85353 0
M  V30 10854 N 1031.71 0.701592 -1.41122 0
M  V30 10855 C 1032.96 1.45871 -1.39879 0
M  V30 10856 C 1033.28 1.94999 -0.00668769 0
M  V30 10857 O 1032.55 1.71298 0.95047 0
M  V30 10858 H 1031.13 0.541231 -0.514857 0
M  V30 10859 H 1033.79 0.830803 -1.76306 0
M  V30 10860 H 1032.89 2.32479 -2.0823 0
M  V30 10861 N 1033.19 1.2685 0.935242 0
M  V30 10862 C 1034.44 1.12912 1.6846 0
M  V30 10863 C 1034.77 -0.325708 1.91449 0
M  V30 10864 O 1034.05 -1.23884 1.49944 0
M  V30 10865 C 1034.33 1.90513 3.05576 0
M  V30 10866 C 1034.18 3.43936 2.89876 0
M  V30 10867 C 1035.5 1.70363 4.05789 0
M  V30 10868 H 1032.62 0.411559 0.611382 0
M  V30 10869 H 1035.26 1.55917 1.08582 0
M  V30 10870 H 1033.41 1.53963 3.5669 0
M  V30 10871 H 1035.08 3.90272 2.45939 0
M  V30 10872 H 1033.33 3.70659 2.25376 0
M  V30 10873 H 1034 3.93467 3.87153 0
M  V30 10874 H 1036.47 2.02217 3.63659 0
M  V30 10875 H 1035.35 2.27066 4.99732 0
M  V30 10876 H 1035.61 0.649674 4.373 0
M  V30 10877 N 1034.67 -1.14067 1.0875 0
M  V30 10878 C 1035.92 -1.85459 0.82053 0
M  V30 10879 C 1036.25 -1.82923 -0.65213 0
M  V30 10880 O 1035.52 -1.26241 -1.47965 0
M  V30 10881 C 1035.81 -3.33937 1.34752 0
M  V30 10882 C 1035.66 -3.45026 2.88578 0
M  V30 10883 C 1036.98 -4.2915 0.975636 0
M  V30 10884 H 1034.1 -0.673384 0.299538 0
M  V30 10885 H 1036.74 -1.33927 1.34772 0
M  V30 10886 H 1034.89 -3.77953 0.899086 0
M  V30 10887 H 1036.56 -3.09771 3.41818 0
M  V30 10888 H 1034.81 -2.86124 3.26061 0
M  V30 10889 H 1035.48 -4.49408 3.20526 0
M  V30 10890 H 1037.95 -3.93168 1.36228 0
M  V30 10891 H 1036.83 -5.31489 1.37152 0
M  V30 10892 H 1037.09 -4.41945 -0.116956 0
M  V30 10893 N 1036.15 -0.873678 -1.31166 0
M  V30 10894 C 1037.38 -0.501043 -2.00742 0
M  V30 10895 C 1037.79 0.907477 -1.65561 0
M  V30 10896 O 1037.15 1.59507 -0.886771 0
M  V30 10897 C 1037.2 -0.652877 -3.55556 0
M  V30 10898 O 1036.92 -2.00593 -3.89479 0
M  V30 10899 C 1038.42 -0.281742 -4.42404 0
M  V30 10900 H 1035.64 -0.194829 -0.642092 0
M  V30 10901 H 1038.19 -1.17587 -1.67313 0
M  V30 10902 H 1036.34 -0.0255627 -3.87392 0
M  V30 10903 H 1036.75 -2.01638 -4.84193 0
M  V30 10904 H 1038.23 -0.43892 -5.50252 0
M  V30 10905 H 1038.71 0.779389 -4.32229 0
M  V30 10906 H 1039.31 -0.88491 -4.15992 0
M  V30 10907 N 1037.63 1.44308 -0.633487 0
M  V30 10908 C 1039.04 1.56768 -0.29931 0
M  V30 10909 C 1039.24 1.62061 1.19743 0
M  V30 10910 O 1038.3 1.56492 1.98158 0
M  V30 10911 C 1039.61 2.8382 -0.993307 0
M  V30 10912 C 1041.16 2.97536 -0.971674 0
M  V30 10913 C 1041.63 4.27393 -1.64618 0
M  V30 10914 N 1043.13 4.34212 -1.61288 0
M  V30 10915 C 1043.86 5.33415 -2.1037 0
M  V30 10916 N 1043.36 6.3901 -2.67653 0
M  V30 10917 N 1045.15 5.24939 -2.00985 0
M  V30 10918 H 1037.3 1.39115 -1.60501 0
M  V30 10919 H 1039.56 0.666804 -0.673852 0
M  V30 10920 H 1039.27 2.85902 -2.04823 0
M  V30 10921 H 1039.14 3.73422 -0.532537 0
M  V30 10922 H 1041.53 2.95005 0.0747854 0
M  V30 10923 H 1041.61 2.09276 -1.47096 0
M  V30 10924 H 1041.26 4.30683 -2.6921 0
M  V30 10925 H 1041.19 5.14515 -1.12171 0
M  V30 10926 H 1043.68 3.58519 -1.19468 0
M  V30 10927 H 1043.99 7.10994 -3.02831 0
M  V30 10928 H 1042.33 6.39689 -2.71705 0
M  V30 10929 H 1045.53 4.41357 -1.55953 0
M  V30 10930 H 1045.7 6.02097 -2.39547 0
M  V30 10931 N 1039.1 0.374177 1.53094 0
M  V30 10932 C 1040.35 -0.212396 2.00981 0
M  V30 10933 C 1040.67 -1.48576 1.26293 0
M  V30 10934 O 1039.94 -1.92206 0.378642 0
M  V30 10935 H 1038.52 -0.0814763 0.742543 0
M  V30 10936 H 1041.19 0.502389 1.88314 0
M  V30 10937 H 1040.28 -0.433316 3.09077 0
M  V30 10938 N 1040.58 -1.57259 0.103575 0
M  V30 10939 C 1041.53 -2.14487 -0.852295 0
M  V30 10940 C 1042.5 -1.06567 -1.27407 0
M  V30 10941 O 1043.68 -1.34398 -1.35432 0
M  V30 10942 C 1040.82 -2.73632 -2.10284 0
M  V30 10943 C 1039.94 -3.95811 -1.73083 0
M  V30 10944 C 1039.07 -4.43093 -2.92988 0
M  V30 10945 C 1038.11 -5.5784 -2.51953 0
M  V30 10946 N 1037.25 -5.99936 -3.64721 0
M  V30 10947 H 1042.09 -2.95849 -0.35743 0
M  V30 10948 H 1039.63 -1.46175 -0.164748 0
M  V30 10949 H 1041.58 -3.06046 -2.83534 0
M  V30 10950 H 1040.21 -1.94985 -2.57256 0
M  V30 10951 H 1039.27 -3.69656 -0.897688 0
M  V30 10952 H 1040.58 -4.79066 -1.38916 0
M  V30 10953 H 1039.73 -4.77335 -3.74481 0
M  V30 10954 H 1038.47 -3.58756 -3.30372 0
M  V30 10955 H 1037.48 -5.23217 -1.6889 0
M  V30 10956 H 1038.7 -6.43932 -2.15705 0
M  V30 10957 H 1036.65 -5.18543 -4.01807 0
M  V30 10958 H 1036.56 -6.78008 -3.34427 0
M  V30 10959 H 1037.83 -6.38812 -4.46699 0
M  V30 10960 N 1042.06 0.170153 -1.56679 0
M  V30 10961 C 1043.47 0.732502 -1.7173 0
M  V30 10962 C 1043.82 1.82736 -0.71428 0
M  V30 10963 O 1042.95 2.16044 0.124102 0
M  V30 10964 C 1043.54 1.33548 -3.11368 0
M  V30 10965 C 1042.1 1.84464 -3.281 0
M  V30 10966 C 1041.25 0.724069 -2.6768 0
M  V30 10967 H 1044.2 -0.0552543 -1.58604 0
M  V30 10968 H 1044.22 2.20519 -3.10083 0
M  V30 10969 H 1043.73 0.5384 -3.84347 0
M  V30 10970 H 1041.83 2.66813 -2.6008 0
M  V30 10971 H 1041.95 1.98928 -4.35849 0
M  V30 10972 H 1040.31 1.14481 -2.27522 0
M  V30 10973 H 1041.09 -0.0611861 -3.43245 0
M  V30 10974 N 1043.54 1.5137 0.438746 0
M  V30 10975 C 1044.78 1.64211 1.19006 0
M  V30 10976 C 1045.12 0.356607 1.90898 0
M  V30 10977 O 1044.39 -0.643722 1.83539 0
M  V30 10978 C 1044.68 2.8445 2.20817 0
M  V30 10979 C 1044.53 4.22972 1.53018 0
M  V30 10980 C 1045.85 3.00207 3.21813 0
M  V30 10981 H 1042.97 0.597628 0.431288 0
M  V30 10982 H 1045.61 1.8385 0.479487 0
M  V30 10983 H 1043.76 2.67836 2.81418 0
M  V30 10984 H 1045.43 4.5125 0.957654 0
M  V30 10985 H 1043.67 4.25736 0.832556 0
M  V30 10986 H 1044.34 5.03094 2.27158 0
M  V30 10987 H 1046.82 3.15522 2.71266 0
M  V30 10988 H 1045.7 3.85904 3.90345 0
M  V30 10989 H 1045.96 2.12216 3.87836 0
M  V30 10990 N 1045.02 -0.694098 1.41492 0
M  V30 10991 C 1045.95 -1.81841 1.37873 0
M  V30 10992 C 1046.93 -1.60732 0.245772 0
M  V30 10993 O 1048.11 -1.83461 0.432917 0
M  V30 10994 C 1045.24 -3.18543 1.15099 0
M  V30 10995 C 1044.28 -3.5844 2.31133 0
M  V30 10996 S 1045.12 -3.63079 3.93617 0
M  V30 10997 C 1046.27 -5.02505 3.73148 0
M  V30 10998 H 1046.51 -1.84634 2.33018 0
M  V30 10999 H 1044.04 -0.862948 1.28033 0
M  V30 11000 H 1046 -3.9746 1.02646 0
M  V30 11001 H 1044.66 -3.13358 0.21572 0
M  V30 11002 H 1043.85 -4.57754 2.10896 0
M  V30 11003 H 1043.45 -2.86837 2.40002 0
M  V30 11004 H 1045.75 -5.90046 3.32945 0
M  V30 11005 H 1046.69 -5.27784 4.72069 0
M  V30 11006 H 1047.1 -4.74113 3.06394 0
M  V30 11007 N 1046.49 -1.27344 -0.928501 0
M  V30 11008 C 1047.74 -1.13019 -1.67061 0
M  V30 11009 C 1048.06 0.323614 -1.92904 0
M  V30 11010 O 1049.26 0.587752 -2.65062 0
M  V30 11011 C 1047.72 -1.97471 -3.00887 0
M  V30 11012 C 1047.33 -3.47504 -2.82746 0
M  V30 11013 C 1049.07 -1.91792 -3.78703 0
M  V30 11014 C 1046.98 -4.24158 -4.12122 0
M  V30 11015 H 1045.91 -0.419364 -0.626618 0
M  V30 11016 H 1048.56 -1.51759 -1.03158 0
M  V30 11017 H 1046.94 -1.51576 -3.65843 0
M  V30 11018 H 1048.11 -4.01256 -2.26562 0
M  V30 11019 H 1046.43 -3.54554 -2.18359 0
M  V30 11020 H 1049.03 -2.46339 -4.74575 0
M  V30 11021 H 1049.37 -0.891375 -4.06645 0
M  V30 11022 H 1049.9 -2.35578 -3.20543 0
M  V30 11023 H 1046.64 -5.27333 -3.89359 0
M  V30 11024 H 1046.16 -3.75183 -4.67972 0
M  V30 11025 H 1047.84 -4.33288 -4.80489 0
M  V30 11026 N 1047.97 1.13488 -1.09353 0
M  V30 11027 C 1049.22 1.85022 -0.830354 0
M  V30 11028 C 1049.55 1.83266 0.64242 0
M  V30 11029 O 1048.83 1.27024 1.47293 0
M  V30 11030 C 1049.11 3.33218 -1.36521 0
M  V30 11031 C 1048.96 3.43491 -2.90404 0
M  V30 11032 C 1050.28 4.28626 -0.998381 0
M  V30 11033 H 1047.4 0.671786 -0.303105 0
M  V30 11034 H 1050.04 1.33211 -1.3548 0
M  V30 11035 H 1048.19 3.77471 -0.919117 0
M  V30 11036 H 1049.86 3.07954 -3.43456 0
M  V30 11037 H 1048.11 2.84391 -3.27573 0
M  V30 11038 H 1048.78 4.47702 -3.22905 0
M  V30 11039 H 1051.25 3.9244 -1.38311 0
M  V30 11040 H 1050.13 5.30754 -1.39968 0
M  V30 11041 H 1050.39 4.42001 0.093517 0
M  V30 11042 N 1049.45 0.880621 1.30701 0
M  V30 11043 C 1050.7 0.492957 1.95583 0
M  V30 11044 C 1051.01 -0.961863 1.70316 0
M  V30 11045 O 1052.22 -1.45617 2.29146 0
M  V30 11046 C 1050.68 0.830656 3.50183 0
M  V30 11047 C 1050.28 2.30295 3.84276 0
M  V30 11048 C 1052.03 0.511979 4.21401 0
M  V30 11049 C 1049.93 2.58251 5.32034 0
M  V30 11050 H 1048.86 0.18062 0.732047 0
M  V30 11051 H 1051.52 1.075 1.48715 0
M  V30 11052 H 1049.9 0.177752 3.95601 0
M  V30 11053 H 1051.07 2.99981 3.49783 0
M  V30 11054 H 1049.39 2.58873 3.2615 0
M  V30 11055 H 1051.98 0.697935 5.30125 0
M  V30 11056 H 1052.33 -0.548327 4.12673 0
M  V30 11057 H 1052.86 1.12189 3.81652 0
M  V30 11058 H 1049.6 3.63005 5.45809 0
M  V30 11059 H 1049.12 1.9317 5.67843 0
M  V30 11060 H 1050.8 2.43527 5.99419 0
M  V30 11061 N 1050.93 -1.4397 0.641131 0
M  V30 11062 C 1051.84 -2.34526 -0.058742 0
M  V30 11063 C 1052.86 -1.53194 -0.825088 0
M  V30 11064 O 1054.03 -1.85888 -0.775081 0
M  V30 11065 C 1051.1 -3.31313 -1.02139 0
M  V30 11066 C 1050.16 -4.28552 -0.253319 0
M  V30 11067 C 1049.39 -5.20715 -1.17012 0
M  V30 11068 O 1049.61 -5.17028 -2.40911 0
M  V30 11069 O 1048.55 -5.9839 -0.649039 0
M  V30 11070 H 1052.37 -2.95843 0.686329 0
M  V30 11071 H 1049.96 -1.43909 0.401316 0
M  V30 11072 H 1051.84 -3.90862 -1.57496 0
M  V30 11073 H 1050.52 -2.72516 -1.7469 0
M  V30 11074 H 1049.42 -3.72519 0.343531 0
M  V30 11075 H 1050.76 -4.90297 0.432372 0
M  V30 11076 N 1052.41 -0.382291 -1.52893 0
M  V30 11077 C 1053.65 0.202133 -2.01489 0
M  V30 11078 C 1053.98 1.47399 -1.26901 0
M  V30 11079 O 1053.24 1.92439 -0.355771 0
M  V30 11080 C 1053.54 0.523437 -3.53546 0
M  V30 11081 C 1053.2 -0.656042 -4.46102 0
M  V30 11082 C 1051.86 -0.979633 -4.71123 0
M  V30 11083 C 1054.22 -1.44545 -5.00756 0
M  V30 11084 C 1051.54 -2.0943 -5.48047 0
M  V30 11085 C 1053.9 -2.55066 -5.78899 0
M  V30 11086 C 1052.56 -2.87942 -6.02201 0
M  V30 11087 H 1051.83 0.0739659 -0.737299 0
M  V30 11088 H 1054.48 -0.518196 -1.84356 0
M  V30 11089 H 1052.78 1.325 -3.68715 0
M  V30 11090 H 1054.48 0.988148 -3.88634 0
M  V30 11091 H 1051.07 -0.393818 -4.26787 0
M  V30 11092 H 1055.25 -1.20869 -4.81357 0
M  V30 11093 H 1050.51 -2.3528 -5.64317 0
M  V30 11094 H 1054.68 -3.1664 -6.20252 0
M  V30 11095 H 1052.31 -3.74435 -6.61591 0
M  V30 11096 N 1053.89 1.57202 -0.111913 0
M  V30 11097 C 1054.82 2.10634 0.877983 0
M  V30 11098 C 1055.8 1.02098 1.26549 0
M  V30 11099 O 1056.98 1.29707 1.36779 0
M  V30 11100 C 1054.11 2.59721 2.174 0
M  V30 11101 C 1053.15 3.80074 1.93509 0
M  V30 11102 S 1053.99 5.22834 1.1578 0
M  V30 11103 C 1055.14 5.75284 2.46576 0
M  V30 11104 H 1055.38 2.94268 0.423483 0
M  V30 11105 H 1052.91 1.54065 0.101721 0
M  V30 11106 H 1054.87 2.88657 2.91868 0
M  V30 11107 H 1053.53 1.76281 2.59969 0
M  V30 11108 H 1052.72 4.12545 2.89522 0
M  V30 11109 H 1052.32 3.51718 1.27164 0
M  V30 11110 H 1054.61 5.84576 3.42457 0
M  V30 11111 H 1055.56 6.73493 2.1866 0
M  V30 11112 H 1055.97 5.03308 2.55619 0
M  V30 11113 N 1055.36 -0.161842 1.56767 0
M  V30 11114 C 1056.27 -1.21996 2.00385 0
M  V30 11115 C 1057.29 -1.4789 0.916768 0
M  V30 11116 O 1058.47 -1.59852 1.22513 0
M  V30 11117 C 1055.53 -2.53695 2.36305 0
M  V30 11118 C 1054.59 -2.3558 3.58888 0
M  V30 11119 C 1053.82 -3.60998 3.93085 0
M  V30 11120 O 1054.05 -4.6657 3.28129 0
M  V30 11121 O 1052.98 -3.54544 4.86397 0
M  V30 11122 H 1056.81 -0.879701 2.9068 0
M  V30 11123 H 1054.39 -0.369437 1.4476 0
M  V30 11124 H 1056.27 -3.31366 2.60335 0
M  V30 11125 H 1054.95 -2.87281 1.49169 0
M  V30 11126 H 1053.86 -1.55908 3.40064 0
M  V30 11127 H 1055.19 -2.06915 4.46595 0
M  V30 11128 N 1056.84 -1.516 -0.430713 0
M  V30 11129 C 1057.79 -1.73975 -1.54387 0
M  V30 11130 C 1058.78 -0.606222 -1.58181 0
M  V30 11131 O 1059.99 -0.787764 -1.61846 0
M  V30 11132 H 1056.36 -0.549811 -0.513041 0
M  V30 11133 H 1058.34 -2.67274 -1.32692 0
M  V30 11134 C 1057.08 -1.88794 -2.9198 0
M  V30 11135 H 1056.41 -2.75425 -2.89795 0
M  V30 11136 H 1057.85 -2.08458 -3.69217 0
M  V30 11137 C 1056.31 -0.649427 -3.30581 0
M  V30 11138 O 1056.84 0.192823 -4.01237 0
M  V30 11139 N 1055.04 -0.491586 -2.86412 0
M  V30 11140 H 1054.59 -1.17806 -2.29084 0
M  V30 11141 H 1054.55 0.33583 -3.12601 0
M  V30 11142 N 1058.32 0.686584 -1.41858 0
M  V30 11143 C 1059.57 1.44379 -1.41418 0
M  V30 11144 C 1059.89 1.94981 -0.0273696 0
M  V30 11145 O 1059.16 1.72296 0.932248 0
M  V30 11146 H 1057.74 0.53574 -0.520568 0
M  V30 11147 H 1060.4 0.812056 -1.77177 0
M  V30 11148 H 1059.5 2.30258 -2.10684 0
M  V30 11149 N 1059.8 1.27835 0.921735 0
M  V30 11150 C 1060.76 1.11108 2.00469 0
M  V30 11151 C 1061.76 0.053203 1.60712 0
M  V30 11152 O 1062.95 0.298308 1.71627 0
M  V30 11153 C 1060.08 0.694269 3.33755 0
M  V30 11154 H 1061.28 2.07279 2.16738 0
M  V30 11155 H 1058.83 1.10708 1.10333 0
M  V30 11156 H 1059.56 -0.268561 3.23186 0
M  V30 11157 H 1059.35 1.45836 3.6397 0
M  V30 11158 H 1060.84 0.59965 4.13272 0
M  V30 11159 N 1061.28 -1.12907 1.09954 0
M  V30 11160 C 1062.21 -2.20585 0.765799 0
M  V30 11161 C 1063.19 -1.68117 -0.258989 0
M  V30 11162 O 1064.37 -1.93792 -0.125853 0
M  V30 11163 C 1061.5 -3.46772 0.191435 0
M  V30 11164 C 1060.46 -4.12363 1.14635 0
M  V30 11165 C 1059.78 -5.3294 0.433426 0
M  V30 11166 C 1061.08 -4.59073 2.49096 0
M  V30 11167 H 1062.78 -2.48759 1.66612 0
M  V30 11168 H 1060.32 -1.19563 0.802534 0
M  V30 11169 H 1062.27 -4.21365 -0.0541535 0
M  V30 11170 H 1061 -3.18011 -0.744101 0
M  V30 11171 H 1059.66 -3.39744 1.37731 0
M  V30 11172 H 1059.31 -5.00444 -0.506422 0
M  V30 11173 H 1059.01 -5.77772 1.07018 0
M  V30 11174 H 1060.53 -6.10284 0.196267 0
M  V30 11175 H 1061.94 -5.25063 2.30177 0
M  V30 11176 H 1060.34 -5.14665 3.0861 0
M  V30 11177 H 1061.41 -3.73313 3.0946 0
M  V30 11178 N 1062.75 -0.88754 -1.30232 0
M  V30 11179 C 1064.03 -0.427249 -1.90877 0
M  V30 11180 C 1064.41 1.0922 -1.80649 0
M  V30 11181 O 1063.76 1.92866 -1.22536 0
M  V30 11182 C 1063.97 -0.928219 -3.3643 0
M  V30 11183 C 1065.32 -0.964706 -4.13496 0
M  V30 11184 O 1066.34 -0.875057 -3.45284 0
M  V30 11185 O 1065.2 -1.09754 -5.35366 0
M  V30 11186 H 1062.29 -0.131107 -0.816541 0
M  V30 11187 H 1064.84 -0.976609 -1.38782 0
M  V30 11188 H 1063.61 -1.97209 -3.37971 0
M  V30 11189 H 1063.23 -0.358169 -3.95983 0
M  V30 11190 N 1064.23 1.43628 -0.648757 0
M  V30 11191 C 1065.2 2.29172 0.0360713 0
M  V30 11192 C 1066.2 1.41974 0.754976 0
M  V30 11193 O 1067.39 1.63654 0.5969 0
M  V30 11194 C 1064.52 3.23942 1.0618 0
M  V30 11195 H 1065.71 2.91214 -0.716544 0
M  V30 11196 H 1063.26 1.50833 -0.409759 0
M  V30 11197 H 1064 2.66786 1.8438 0
M  V30 11198 H 1063.78 3.88223 0.550016 0
M  V30 11199 H 1065.27 3.8816 1.54019 0
M  V30 11200 N 1065.71 0.390394 1.52688 0
M  V30 11201 C 1066.96 -0.191445 2.01593 0
M  V30 11202 C 1067.29 -1.46723 1.27681 0
M  V30 11203 O 1066.54 -1.92248 0.365972 0
M  V30 11204 C 1066.84 -0.50468 3.53819 0
M  V30 11205 C 1066.51 0.679691 4.45748 0
M  V30 11206 C 1065.17 1.0046 4.70597 0
M  V30 11207 C 1067.52 1.47198 4.99982 0
M  V30 11208 C 1064.85 2.12334 5.46929 0
M  V30 11209 C 1067.2 2.58133 5.77538 0
M  V30 11210 C 1065.86 2.91131 6.00665 0
M  V30 11211 H 1065.13 -0.0700548 0.737681 0
M  V30 11212 H 1067.78 0.527965 1.84078 0
M  V30 11213 H 1066.09 -1.30543 3.69413 0
M  V30 11214 H 1067.78 -0.967524 3.89153 0
M  V30 11215 H 1064.37 0.416446 4.26572 0
M  V30 11216 H 1068.56 1.2342 4.80709 0
M  V30 11217 H 1063.81 2.38269 5.63061 0
M  V30 11218 H 1067.99 3.19925 6.18564 0
M  V30 11219 H 1065.61 3.77938 6.59596 0
M  V30 11220 N 1067.19 -1.57141 0.120249 0
M  V30 11221 C 1068.12 -2.18398 -0.826112 0
M  V30 11222 C 1069.1 -1.12439 -1.27638 0
M  V30 11223 O 1070.28 -1.40679 -1.33877 0
M  V30 11224 C 1067.41 -2.78438 -2.0758 0
M  V30 11225 C 1066.37 -3.89991 -1.76327 0
M  V30 11226 C 1065.69 -4.36844 -3.08336 0
M  V30 11227 C 1066.99 -5.12031 -1.03062 0
M  V30 11228 H 1068.69 -2.97731 -0.315656 0
M  V30 11229 H 1066.23 -1.43213 -0.150387 0
M  V30 11230 H 1068.19 -3.19951 -2.74243 0
M  V30 11231 H 1066.91 -1.96396 -2.60953 0
M  V30 11232 H 1065.57 -3.49055 -1.12053 0
M  V30 11233 H 1065.22 -3.51659 -3.59646 0
M  V30 11234 H 1064.92 -5.1207 -2.88199 0
M  V30 11235 H 1066.44 -4.81009 -3.76116 0
M  V30 11236 H 1067.86 -5.50555 -1.59881 0
M  V30 11237 H 1066.25 -5.92848 -0.930146 0
M  V30 11238 H 1067.32 -4.84897 -0.017582 0
M  V30 11239 N 1068.67 0.153526 -1.5685 0
M  V30 11240 C 1070.08 0.505939 -1.51368 0
M  V30 11241 C 1070.28 1.83721 -0.82757 0
M  V30 11242 O 1069.34 2.49385 -0.395364 0
M  V30 11243 C 1070.65 0.522269 -2.9613 0
M  V30 11244 C 1072.2 0.608238 -3.07033 0
M  V30 11245 C 1072.67 0.655292 -4.53288 0
M  V30 11246 N 1074.17 0.717695 -4.57606 0
M  V30 11247 C 1074.9 0.774977 -5.68139 0
M  V30 11248 N 1074.4 0.792003 -6.88258 0
M  V30 11249 N 1076.19 0.81536 -5.56155 0
M  V30 11250 H 1068.34 -0.71919 -1.99853 0
M  V30 11251 H 1070.6 -0.261466 -0.91123 0
M  V30 11252 H 1070.31 -0.387595 -3.49558 0
M  V30 11253 H 1070.18 1.3625 -3.51733 0
M  V30 11254 H 1072.57 1.50852 -2.53629 0
M  V30 11255 H 1072.65 -0.259014 -2.54485 0
M  V30 11256 H 1072.3 -0.240809 -5.07329 0
M  V30 11257 H 1072.23 1.53894 -5.03611 0
M  V30 11258 H 1074.72 0.7121 -3.7113 0
M  V30 11259 H 1075.03 0.837378 -7.6825 0
M  V30 11260 H 1073.37 0.759986 -6.90832 0
M  V30 11261 H 1076.57 0.799183 -4.61227 0
M  V30 11262 H 1076.74 0.856537 -6.42314 0
M  V30 11263 N 1070.14 1.51827 0.422667 0
M  V30 11264 C 1071.09 1.74198 1.51406 0
M  V30 11265 C 1072.06 0.584013 1.55494 0
M  V30 11266 O 1073.25 0.820079 1.72277 0
M  V30 11267 C 1070.39 1.88627 2.88988 0
M  V30 11268 C 1069.5 3.16233 2.94314 0
M  V30 11269 C 1068.63 3.21172 4.2311 0
M  V30 11270 C 1067.67 4.43033 4.2236 0
M  V30 11271 N 1066.81 4.4544 5.42704 0
M  V30 11272 H 1071.65 2.67352 1.31632 0
M  V30 11273 H 1069.19 1.32487 0.63919 0
M  V30 11274 H 1071.15 1.94976 3.68837 0
M  V30 11275 H 1069.78 0.988673 3.07287 0
M  V30 11276 H 1068.83 3.19123 2.07039 0
M  V30 11277 H 1070.14 4.06104 2.89623 0
M  V30 11278 H 1069.29 3.26517 5.11343 0
M  V30 11279 H 1068.03 2.29216 4.30478 0
M  V30 11280 H 1067.04 4.37849 3.32518 0
M  V30 11281 H 1068.26 5.3627 4.16643 0
M  V30 11282 H 1066.21 3.56361 5.50766 0
M  V30 11283 H 1066.13 5.29138 5.39953 0
M  V30 11284 H 1067.39 4.54997 6.32928 0
M  V30 11285 N 1071.62 -0.679052 1.4222 0
M  V30 11286 C 1072.57 -1.78522 1.41824 0
M  V30 11287 C 1073.56 -1.58262 0.290179 0
M  V30 11288 O 1074.75 -1.68813 0.532092 0
M  V30 11289 C 1071.88 -3.16952 1.31895 0
M  V30 11290 C 1070.96 -3.42849 2.4963 0
M  V30 11291 N 1071.35 -3.39354 3.75063 0
M  V30 11292 C 1069.65 -3.73468 2.43799 0
M  V30 11293 C 1070.35 -3.64617 4.53243 0
M  V30 11294 N 1069.33 -3.85174 3.83591 0
M  V30 11295 H 1073.13 -1.74206 2.36705 0
M  V30 11296 H 1070.65 -0.879719 1.36509 0
M  V30 11297 H 1072.64 -3.96214 1.29693 0
M  V30 11298 H 1071.3 -3.22467 0.380127 0
M  V30 11299 H 1072.31 -3.19354 4.07718 0
M  V30 11300 H 1068.99 -3.86254 1.58474 0
M  V30 11301 H 1070.38 -3.67912 5.62219 0
M  V30 11302 N 1073.1 -1.28322 -0.914942 0
M  V30 11303 C 1074.38 -1.06111 -1.64316 0
M  V30 11304 C 1074.76 0.399934 -2.07277 0
M  V30 11305 O 1074.11 1.38577 -1.81683 0
M  V30 11306 C 1074.32 -2.03461 -2.83557 0
M  V30 11307 C 1075.66 -2.33541 -3.54604 0
M  V30 11308 O 1076.69 -2.01536 -2.93704 0
M  V30 11309 O 1075.55 -2.88158 -4.64357 0
M  V30 11310 H 1072.64 -0.405451 -0.72079 0
M  V30 11311 H 1075.19 -1.39636 -0.964352 0
M  V30 11312 H 1073.96 -3.01938 -2.48896 0
M  V30 11313 H 1073.58 -1.70574 -3.59152 0
M  V30 11314 N 1074.58 1.12322 -1.10551 0
M  V30 11315 C 1075.83 1.83495 -0.846998 0
M  V30 11316 C 1076.15 1.8457 0.629205 0
M  V30 11317 O 1075.42 1.30968 1.45686 0
M  V30 11318 H 1074 0.679479 -0.310351 0
M  V30 11319 H 1076.66 1.36004 -1.39602 0
M  V30 11320 H 1075.76 2.87651 -1.21092 0
M  V30 11321 N 1076.06 0.894434 1.2976 0
M  V30 11322 C 1076.99 0.325525 2.26877 0
M  V30 11323 C 1078 -0.525218 1.54095 0
M  V30 11324 O 1079.19 -0.343231 1.75169 0
M  V30 11325 C 1076.29 -0.554952 3.34325 0
M  V30 11326 C 1075.46 0.268868 4.36573 0
M  V30 11327 C 1074.52 -0.543601 5.23385 0
M  V30 11328 O 1073.55 0.0370454 5.69188 0
M  V30 11329 N 1074.75 -1.85079 5.50205 0
M  V30 11330 H 1077.52 1.16021 2.76332 0
M  V30 11331 H 1075.08 0.758382 1.43039 0
M  V30 11332 H 1077.07 -1.10476 3.89329 0
M  V30 11333 H 1075.64 -1.29031 2.84727 0
M  V30 11334 H 1074.86 1.0001 3.81302 0
M  V30 11335 H 1076.15 0.833248 5.01931 0
M  V30 11336 H 1075.54 -2.34533 5.14792 0
M  V30 11337 H 1074.1 -2.34784 6.08046 0
M  V30 11338 N 1077.53 -1.43282 0.656365 0
M  V30 11339 C 1078.78 -2.01776 0.171039 0
M  V30 11340 C 1079.11 -1.51795 -1.21609 0
M  V30 11341 O 1078.36 -0.702864 -1.82643 0
M  V30 11342 C 1078.66 -3.57148 0.134225 0
M  V30 11343 C 1078.33 -4.26488 1.46352 0
M  V30 11344 C 1076.99 -4.45146 1.82753 0
M  V30 11345 C 1079.34 -4.65728 2.33981 0
M  V30 11346 C 1076.67 -5.0031 3.06443 0
M  V30 11347 C 1079.02 -5.22263 3.56966 0
M  V30 11348 C 1077.69 -5.39136 3.93559 0
M  V30 11349 H 1076.96 -0.738352 0.0625878 0
M  V30 11350 H 1079.6 -1.71716 0.847697 0
M  V30 11351 H 1077.91 -3.86768 -0.625892 0
M  V30 11352 H 1079.61 -4.00168 -0.258207 0
M  V30 11353 H 1076.2 -4.12313 1.1703 0
M  V30 11354 H 1080.38 -4.51003 2.07148 0
M  V30 11355 H 1075.64 -5.11559 3.34839 0
M  V30 11356 H 1079.81 -5.51614 4.25082 0
M  V30 11357 H 1077.44 -5.81646 4.89481 0
M  V30 11358 N 1079.01 -0.398486 -1.52479 0
M  V30 11359 C 1080.24 0.180557 -2.06111 0
M  V30 11360 C 1080.66 1.39751 -1.26945 0
M  V30 11361 O 1080.01 1.79699 -0.318497 0
M  V30 11362 C 1080.06 0.541573 -3.5742 0
M  V30 11363 O 1079.79 -0.627043 -4.33589 0
M  V30 11364 C 1081.29 1.17549 -4.27431 0
M  V30 11365 H 1078.51 0.0250754 -0.670531 0
M  V30 11366 H 1081.05 -0.566368 -1.96501 0
M  V30 11367 H 1079.21 1.23839 -3.67073 0
M  V30 11368 H 1079.62 -0.328233 -5.23472 0
M  V30 11369 H 1081.09 1.37839 -5.34513 0
M  V30 11370 H 1081.57 2.14553 -3.83228 0
M  V30 11371 H 1082.18 0.51918 -4.22119 0
M  V30 11372 N 1080.49 1.57075 -0.12858 0
M  V30 11373 C 1081.74 1.9581 0.527868 0
M  V30 11374 C 1082.07 1.01253 1.65715 0
M  V30 11375 O 1081.35 0.0514853 1.94432 0
M  V30 11376 C 1081.63 3.44406 1.05151 0
M  V30 11377 C 1081.48 4.49737 -0.0750113 0
M  V30 11378 C 1082.8 3.95069 1.9393 0
M  V30 11379 H 1079.92 0.711978 0.19041 0
M  V30 11380 H 1082.56 1.88879 -0.206081 0
M  V30 11381 H 1080.71 3.50443 1.67697 0
M  V30 11382 H 1082.38 4.55793 -0.710685 0
M  V30 11383 H 1080.63 4.27497 -0.736809 0
M  V30 11384 H 1081.3 5.50996 0.332779 0
M  V30 11385 H 1083.77 3.91395 1.41241 0
M  V30 11386 H 1082.65 4.99542 2.27484 0
M  V30 11387 H 1082.91 3.36329 2.86941 0
M  V30 11388 N 1081.97 -0.145205 1.5693 0
M  V30 11389 C 1083.22 -0.855955 1.82637 0
M  V30 11390 C 1083.53 -1.82255 0.710109 0
M  V30 11391 O 1084.74 -2.57758 0.852837 0
M  V30 11392 C 1083.19 -1.57278 3.23715 0
M  V30 11393 C 1082.8 -0.648507 4.43281 0
M  V30 11394 C 1084.55 -2.27021 3.58695 0
M  V30 11395 C 1082.45 -1.36706 5.75383 0
M  V30 11396 H 1081.38 -0.323385 0.68113 0
M  V30 11397 H 1084.03 -0.10869 1.83178 0
M  V30 11398 H 1082.42 -2.36574 3.17567 0
M  V30 11399 H 1083.59 0.109355 4.6067 0
M  V30 11400 H 1081.9 -0.0594029 4.16358 0
M  V30 11401 H 1084.5 -2.81423 4.54648 0
M  V30 11402 H 1084.84 -3.03598 2.8484 0
M  V30 11403 H 1085.38 -1.54642 3.66512 0
M  V30 11404 H 1082.12 -0.6431 6.52338 0
M  V30 11405 H 1081.64 -2.09759 5.61926 0
M  V30 11406 H 1083.32 -1.90748 6.18243 0
M  V30 11407 N 1083.45 -1.52049 -0.414609 0
M  V30 11408 C 1084.38 -1.7122 -1.52369 0
M  V30 11409 C 1085.39 -0.592634 -1.5163 0
M  V30 11410 O 1086.58 -0.867634 -1.55995 0
M  V30 11411 C 1083.68 -1.73247 -2.91271 0
M  V30 11412 C 1082.85 -3.02153 -3.16263 0
M  V30 11413 C 1081.91 -2.96066 -4.35007 0
M  V30 11414 O 1080.94 -3.69981 -4.32554 0
M  V30 11415 N 1082.14 -2.13478 -5.39822 0
M  V30 11416 H 1084.91 -2.66902 -1.3632 0
M  V30 11417 H 1082.47 -1.50218 -0.603842 0
M  V30 11418 H 1084.46 -1.66714 -3.68766 0
M  V30 11419 H 1083.03 -0.85062 -3.00804 0
M  V30 11420 H 1082.25 -3.22379 -2.2686 0
M  V30 11421 H 1083.54 -3.87439 -3.29801 0
M  V30 11422 H 1082.94 -1.52844 -5.44661 0
M  V30 11423 H 1081.49 -2.12805 -6.16082 0
M  V30 11424 N 1084.93 0.6715 -1.42579 0
M  V30 11425 C 1085.86 1.79693 -1.49107 0
M  V30 11426 C 1086.84 1.66516 -0.347338 0
M  V30 11427 O 1088.02 1.85887 -0.562094 0
M  V30 11428 C 1085.15 3.1801 -1.39596 0
M  V30 11429 C 1084.11 3.45926 -2.5203 0
M  V30 11430 C 1083.43 4.83852 -2.27577 0
M  V30 11431 C 1084.73 3.4249 -3.94333 0
M  V30 11432 H 1086.43 1.74486 -2.433 0
M  V30 11433 H 1083.97 0.838042 -1.17102 0
M  V30 11434 H 1085.92 3.96478 -1.42771 0
M  V30 11435 H 1084.65 3.23901 -0.418989 0
M  V30 11436 H 1083.31 2.6982 -2.48178 0
M  V30 11437 H 1082.96 4.86398 -1.28165 0
M  V30 11438 H 1082.66 5.03493 -3.02934 0
M  V30 11439 H 1084.18 5.646 -2.32506 0
M  V30 11440 H 1085.59 4.10922 -3.9977 0
M  V30 11441 H 1083.99 3.73666 -4.69568 0
M  V30 11442 H 1085.06 2.41002 -4.20768 0
M  V30 11443 N 1086.4 1.28806 0.908124 0
M  V30 11444 C 1087.65 1.1646 1.66027 0
M  V30 11445 C 1087.98 -0.285025 1.92097 0
M  V30 11446 O 1087.26 -1.20675 1.52538 0
M  V30 11447 C 1087.54 1.96951 3.01467 0
M  V30 11448 C 1087.39 3.50007 2.82515 0
M  V30 11449 C 1088.71 1.78932 4.02084 0
M  V30 11450 H 1085.83 0.424435 0.602515 0
M  V30 11451 H 1088.47 1.58185 1.0525 0
M  V30 11452 H 1086.62 1.61495 3.53344 0
M  V30 11453 H 1088.3 3.95401 2.37605 0
M  V30 11454 H 1086.54 3.75356 2.17463 0
M  V30 11455 H 1087.21 4.01591 3.7872 0
M  V30 11456 H 1089.69 2.09885 3.59287 0
M  V30 11457 H 1088.56 2.37615 4.94803 0
M  V30 11458 H 1088.82 0.742286 4.35824 0
M  V30 11459 N 1087.88 -1.11734 1.11145 0
M  V30 11460 C 1089.13 -1.83043 0.856717 0
M  V30 11461 C 1089.45 -1.84901 -0.619407 0
M  V30 11462 O 1088.72 -1.31738 -1.44989 0
M  V30 11463 H 1087.3 -0.677823 0.31395 0
M  V30 11464 H 1089.96 -1.35262 1.40322 0
M  V30 11465 H 1089.06 -2.87005 1.22616 0
M  V30 11466 N 1089.36 -0.901303 -1.29284 0
M  V30 11467 C 1090.29 -0.32479 -2.25877 0
M  V30 11468 C 1091.27 0.563944 -1.52507 0
M  V30 11469 O 1092.45 0.510393 -1.81459 0
M  V30 11470 C 1089.58 0.536897 -3.34418 0
M  V30 11471 C 1088.63 -0.28474 -4.25548 0
M  V30 11472 S 1089.46 -1.68355 -5.08347 0
M  V30 11473 C 1090.62 -0.828826 -6.20388 0
M  V30 11474 H 1090.85 -1.14352 -2.74428 0
M  V30 11475 H 1088.38 -0.701749 -1.37531 0
M  V30 11476 H 1090.34 1.02827 -3.97413 0
M  V30 11477 H 1089 1.32988 -2.84558 0
M  V30 11478 H 1088.19 0.373566 -5.02614 0
M  V30 11479 H 1087.8 -0.709313 -3.67212 0
M  V30 11480 H 1090.09 -0.0529234 -6.77479 0
M  V30 11481 H 1091.03 -1.57161 -6.90439 0
M  V30 11482 H 1091.44 -0.382503 -5.63203 0
M  V30 11483 N 1090.84 1.42931 -0.663954 0
M  V30 11484 C 1091.77 2.33499 0.00731327 0
M  V30 11485 C 1092.75 1.50074 0.800733 0
M  V30 11486 O 1093.93 1.78708 0.760062 0
M  V30 11487 C 1091.06 3.33569 0.966897 0
M  V30 11488 C 1090.02 4.27064 0.282839 0
M  V30 11489 C 1089.34 5.17257 1.35461 0
M  V30 11490 C 1090.64 5.1564 -0.831438 0
M  V30 11491 H 1092.34 2.89879 -0.749044 0
M  V30 11492 H 1089.88 1.39385 -0.361656 0
M  V30 11493 H 1091.84 3.95833 1.44549 0
M  V30 11494 H 1090.56 2.75469 1.75455 0
M  V30 11495 H 1089.22 3.6618 -0.175417 0
M  V30 11496 H 1088.87 4.5549 2.13397 0
M  V30 11497 H 1088.57 5.80634 0.902098 0
M  V30 11498 H 1090.09 5.82395 1.83436 0
M  V30 11499 H 1091.51 5.71651 -0.434534 0
M  V30 11500 H 1089.9 5.87794 -1.20908 0
M  V30 11501 H 1090.97 4.54687 -1.68487 0
M  V30 11502 N 1092.32 0.406567 1.52266 0
M  V30 11503 C 1093.73 0.0573228 1.59497 0
M  V30 11504 C 1093.93 -1.43005 1.41957 0
M  V30 11505 O 1092.99 -2.19659 1.24523 0
M  V30 11506 C 1094.3 0.549947 2.95628 0
M  V30 11507 C 1095.85 0.5077 3.08855 0
M  V30 11508 C 1096.32 0.976792 4.47463 0
M  V30 11509 N 1097.81 0.933508 4.53696 0
M  V30 11510 C 1098.55 1.26769 5.59211 0
M  V30 11511 N 1098.05 1.6732 6.72292 0
M  V30 11512 N 1099.84 1.18782 5.49406 0
M  V30 11513 H 1091.99 1.37468 1.61914 0
M  V30 11514 H 1094.25 0.564562 0.76156 0
M  V30 11515 H 1093.96 1.58943 3.13736 0
M  V30 11516 H 1093.83 -0.0417767 3.77177 0
M  V30 11517 H 1096.22 -0.522728 2.90433 0
M  V30 11518 H 1096.3 1.13545 2.29219 0
M  V30 11519 H 1095.94 2.00554 4.66627 0
M  V30 11520 H 1095.87 0.325885 5.25591 0
M  V30 11521 H 1098.37 0.635333 3.72521 0
M  V30 11522 H 1098.68 1.91137 7.4879 0
M  V30 11523 H 1097.02 1.71221 6.73579 0
M  V30 11524 H 1100.21 0.869906 4.59946 0
M  V30 11525 H 1100.39 1.45157 6.31533 0
M  V30 11526 N 1093.79 -1.57004 0.136909 0
M  V30 11527 C 1095.04 -1.9541 -0.51569 0
M  V30 11528 C 1095.36 -1.02219 -1.66061 0
M  V30 11529 O 1094.63 -0.0818172 -1.95729 0
M  V30 11530 H 1093.21 -0.721504 -0.193497 0
M  V30 11531 H 1095.88 -1.93765 0.210046 0
M  V30 11532 H 1094.97 -2.98887 -0.898494 0
M  V30 11533 N 1095.27 0.136881 -1.57004 0
M  V30 11534 C 1096.52 0.846257 -1.83088 0
M  V30 11535 C 1096.83 1.81876 -0.719765 0
M  V30 11536 O 1098.04 2.57302 -0.866494 0
M  V30 11537 C 1096.5 1.55559 -3.24545 0
M  V30 11538 C 1096.1 0.624989 -4.43619 0
M  V30 11539 C 1097.85 2.25115 -3.59893 0
M  V30 11540 C 1095.76 1.33653 -5.761 0
M  V30 11541 H 1094.69 0.319768 -0.682836 0
M  V30 11542 H 1097.34 0.0989741 -1.83233 0
M  V30 11543 H 1095.72 2.34887 -3.18817 0
M  V30 11544 H 1096.89 -0.133783 -4.60606 0
M  V30 11545 H 1095.21 0.0373216 -4.16383 0
M  V30 11546 H 1097.8 2.79008 -4.56134 0
M  V30 11547 H 1098.15 3.02084 -2.86446 0
M  V30 11548 H 1098.68 1.52696 -3.67327 0
M  V30 11549 H 1095.42 0.608495 -6.5267 0
M  V30 11550 H 1094.94 2.06776 -5.63031 0
M  V30 11551 H 1096.62 1.87467 -6.19246 0
M  V30 11552 N 1096.75 1.52266 0.40654 0
M  V30 11553 C 1097.71 1.75168 1.47814 0
M  V30 11554 C 1098.71 0.621575 1.48301 0
M  V30 11555 O 1099.9 0.889476 1.4978 0
M  V30 11556 C 1097.04 1.83642 2.87208 0
M  V30 11557 H 1098.23 2.70834 1.28798 0
M  V30 11558 H 1095.78 1.42722 0.637196 0
M  V30 11559 H 1096.52 0.898994 3.1159 0
M  V30 11560 H 1096.3 2.65801 2.88257 0
M  V30 11561 H 1097.79 2.03093 3.64888 0
M  V30 11562 N 1098.23 -0.663929 1.42933 0
M  V30 11563 C 1099.19 -1.75899 1.46943 0
M  V30 11564 C 1100.19 -1.5682 0.355535 0
M  V30 11565 O 1101.38 -1.62914 0.616833 0
M  V30 11566 C 1098.51 -3.14657 1.31164 0
M  V30 11567 H 1099.71 -1.73727 2.44456 0
M  V30 11568 H 1097.26 -0.874587 1.2954 0
M  V30 11569 H 1097.99 -3.22447 0.346165 0
M  V30 11570 H 1097.78 -3.29909 2.11902 0
M  V30 11571 H 1099.27 -3.9453 1.36878 0
M  V30 11572 N 1099.71 -1.29285 -0.901281 0
M  V30 11573 C 1100.95 -1.16934 -1.64836 0
M  V30 11574 C 1101.28 0.279826 -1.92982 0
M  V30 11575 O 1100.55 1.19179 -1.55478 0
M  V30 11576 H 1099.13 -0.429768 -0.61099 0
M  V30 11577 H 1101.79 -1.62189 -1.08077 0
M  V30 11578 H 1100.88 -1.71821 -2.60545 0
M  V30 11579 N 1101.18 1.11143 -1.11736 0
M  V30 11580 C 1102.12 2.16467 -0.722299 0
M  V30 11581 C 1103.1 1.60118 0.283006 0
M  V30 11582 O 1104.28 1.87651 0.178696 0
M  V30 11583 C 1101.41 3.38632 -0.0679339 0
M  V30 11584 C 1100.45 4.13654 -1.03888 0
M  V30 11585 S 1101.29 4.70187 -2.5629 0
M  V30 11586 C 1102.44 5.95671 -1.92163 0
M  V30 11587 H 1102.67 2.49644 -1.61447 0
M  V30 11588 H 1100.21 1.22816 -0.935708 0
M  V30 11589 H 1102.17 4.09378 0.303253 0
M  V30 11590 H 1100.83 3.03709 0.80124 0
M  V30 11591 H 1100.02 5.01221 -0.528522 0
M  V30 11592 H 1099.62 3.48683 -1.35265 0
M  V30 11593 H 1101.91 6.65681 -1.25994 0
M  V30 11594 H 1102.86 6.51357 -2.77741 0
M  V30 11595 H 1103.26 5.47359 -1.3805 0
M  V30 11596 N 1102.66 0.908147 1.28804 0
M  V30 11597 C 1104.08 0.605474 1.47669 0
M  V30 11598 C 1104.28 -0.850759 1.82659 0
M  V30 11599 O 1103.33 -1.63029 1.92816 0
M  V30 11600 C 1104.65 1.53856 2.58358 0
M  V30 11601 C 1106.2 1.54467 2.7223 0
M  V30 11602 C 1106.67 2.46424 3.86056 0
M  V30 11603 N 1108.16 2.44519 3.93402 0
M  V30 11604 C 1108.9 3.12371 4.80845 0
M  V30 11605 N 1108.39 3.89533 5.72919 0
M  V30 11606 N 1110.19 3.01486 4.74407 0
M  V30 11607 H 1102.34 1.84988 1.04371 0
M  V30 11608 H 1104.6 0.793132 0.519274 0
M  V30 11609 H 1104.31 2.57651 2.39393 0
M  V30 11610 H 1104.18 1.26543 3.5534 0
M  V30 11611 H 1106.57 0.514127 2.90587 0
M  V30 11612 H 1106.65 1.85821 1.75796 0
M  V30 11613 H 1106.29 3.49577 3.68454 0
M  V30 11614 H 1106.22 2.12375 4.81876 0
M  V30 11615 H 1108.71 1.88464 3.27551 0
M  V30 11616 H 1109.03 4.3834 6.36457 0
M  V30 11617 H 1107.37 3.93639 5.72777 0
M  V30 11618 H 1110.56 2.40713 4.01466 0
M  V30 11619 H 1110.73 3.5464 5.42342 0
M  V30 11620 N 1104.14 -1.42577 0.671525 0
M  V30 11621 C 1105.37 -2.05625 0.20044 0
M  V30 11622 C 1105.78 -1.50524 -1.14626 0
M  V30 11623 O 1105.12 -0.638468 -1.72248 0
M  V30 11624 C 1105.18 -3.59459 0.0545385 0
M  V30 11625 C 1104.85 -4.37236 1.32943 0
M  V30 11626 C 1105.84 -4.68104 2.26219 0
M  V30 11627 C 1103.53 -4.76932 1.57612 0
M  V30 11628 C 1105.52 -5.37599 3.42442 0
M  V30 11629 C 1103.21 -5.46167 2.74125 0
M  V30 11630 C 1104.21 -5.76425 3.66364 0
M  V30 11631 O 1103.9 -6.44242 4.8084 0
M  V30 11632 H 1103.63 -0.66918 0.0957843 0
M  V30 11633 H 1106.18 -1.83759 0.917701 0
M  V30 11634 H 1104.41 -3.79971 -0.718271 0
M  V30 11635 H 1106.1 -4.04152 -0.376251 0
M  V30 11636 H 1106.87 -4.37939 2.08409 0
M  V30 11637 H 1102.75 -4.52776 0.866887 0
M  V30 11638 H 1106.29 -5.61133 4.14458 0
M  V30 11639 H 1102.19 -5.75749 2.91861 0
M  V30 11640 H 1102.96 -6.62732 4.80342 0
M  V30 11641 N 1105.62 -0.414636 -1.52048 0
M  V30 11642 C 1106.55 0.399119 -2.30064 0
M  V30 11643 C 1107.53 1.04126 -1.34506 0
M  V30 11644 O 1108.71 1.04923 -1.63416 0
M  V30 11645 C 1105.84 1.51305 -3.12608 0
M  V30 11646 C 1104.8 0.995621 -4.16259 0
M  V30 11647 C 1104.12 2.20357 -4.87183 0
M  V30 11648 C 1105.42 0.0458178 -5.2228 0
M  V30 11649 H 1107.12 -0.251879 -2.98339 0
M  V30 11650 H 1104.66 -0.122579 -1.43477 0
M  V30 11651 H 1106.62 2.08936 -3.65956 0
M  V30 11652 H 1105.34 2.19201 -2.42113 0
M  V30 11653 H 1104 0.441676 -3.6393 0
M  V30 11654 H 1103.65 2.8682 -4.13211 0
M  V30 11655 H 1103.35 1.86385 -5.57256 0
M  V30 11656 H 1104.87 2.78584 -5.43345 0
M  V30 11657 H 1106.29 0.531102 -5.70835 0
M  V30 11658 H 1104.68 -0.20536 -5.99749 0
M  V30 11659 H 1105.75 -0.897807 -4.76516 0
M  V30 11660 N 1107.1 1.56929 -0.145233 0
M  V30 11661 C 1108.06 2.15483 0.781002 0
M  V30 11662 C 1109.06 1.09617 1.17647 0
M  V30 11663 O 1110.25 1.35265 1.09768 0
M  V30 11664 C 1107.38 2.7165 2.05959 0
M  V30 11665 H 1108.57 2.98667 0.271685 0
M  V30 11666 H 1106.13 1.55952 0.1042 0
M  V30 11667 H 1106.86 1.92127 2.61262 0
M  V30 11668 H 1106.65 3.491 1.78526 0
M  V30 11669 H 1108.14 3.16769 2.72116 0
M  V30 11670 N 1108.58 -0.128553 1.57075 0
M  V30 11671 C 1109.85 -0.867766 1.75297 0
M  V30 11672 C 1110.23 -1.98508 0.718176 0
M  V30 11673 O 1109.58 -2.2702 -0.259616 0
M  V30 11674 C 1109.79 -1.39326 3.19983 0
M  V30 11675 C 1111.14 -1.84939 3.82208 0
M  V30 11676 O 1112.16 -1.49027 3.23527 0
M  V30 11677 O 1111.02 -2.51227 4.85332 0
M  V30 11678 H 1108.12 -0.411393 0.717415 0
M  V30 11679 H 1110.66 -0.113038 1.69323 0
M  V30 11680 H 1109.43 -0.591172 3.86809 0
M  V30 11681 H 1109.06 -2.21097 3.30457 0
M  V30 11682 N 1110.05 -1.5248 -0.398459 0
M  V30 11683 C 1110.99 -1.71321 -1.50746 0
M  V30 11684 C 1111.96 -0.5609 -1.52619 0
M  V30 11685 O 1113.15 -0.789557 -1.71167 0
M  V30 11686 C 1110.28 -1.76223 -2.89246 0
M  V30 11687 C 1109.32 -2.97878 -3.05239 0
M  V30 11688 S 1110.15 -4.58031 -2.77431 0
M  V30 11689 C 1111.31 -4.65735 -4.18141 0
M  V30 11690 H 1111.54 -2.65117 -1.34538 0
M  V30 11691 H 1109.08 -1.42653 -0.590727 0
M  V30 11692 H 1111.03 -1.79733 -3.69062 0
M  V30 11693 H 1109.7 -0.83536 -3.02788 0
M  V30 11694 H 1108.89 -2.97821 -4.06594 0
M  V30 11695 H 1108.49 -2.92311 -2.33304 0
M  V30 11696 H 1110.78 -4.43768 -5.11934 0
M  V30 11697 H 1111.73 -5.67709 -4.23217 0
M  V30 11698 H 1112.13 -3.94664 -4.03609 0
M  V30 11699 N 1111.53 0.65634 -1.43283 0
M  V30 11700 C 1112.78 1.41347 -1.44449 0
M  V30 11701 C 1113.1 1.94879 -0.0687217 0
M  V30 11702 O 1112.37 1.74235 0.895492 0
M  V30 11703 H 1110.95 0.524578 -0.531815 0
M  V30 11704 H 1113.61 0.774292 -1.7886 0
M  V30 11705 H 1112.71 2.25737 -2.15521 0
M  V30 11706 N 1113.01 1.29761 0.894412 0
M  V30 11707 C 1114.24 1.20765 1.67629 0
M  V30 11708 C 1114.65 -0.233434 1.87754 0
M  V30 11709 O 1113.99 -1.16747 1.4183 0
M  V30 11710 C 1114.05 1.85542 3.07919 0
M  V30 11711 C 1113.72 3.34852 3.11004 0
M  V30 11712 C 1114.71 4.30994 2.90758 0
M  V30 11713 C 1112.4 3.76141 3.32901 0
M  V30 11714 C 1114.39 5.664 2.92352 0
M  V30 11715 C 1112.08 5.11667 3.34126 0
M  V30 11716 C 1113.08 6.06607 3.13874 0
M  V30 11717 O 1112.77 7.39659 3.14897 0
M  V30 11718 H 1112.5 0.419418 0.530155 0
M  V30 11719 H 1115.05 1.71754 1.12648 0
M  V30 11720 H 1113.28 1.29071 3.64524 0
M  V30 11721 H 1114.97 1.70795 3.68217 0
M  V30 11722 H 1115.74 4.00427 2.73648 0
M  V30 11723 H 1111.62 3.02694 3.47703 0
M  V30 11724 H 1115.16 6.40479 2.76464 0
M  V30 11725 H 1111.06 5.41877 3.50769 0
M  V30 11726 H 1111.82 7.4853 3.31127 0
M  V30 11727 N 1114.49 -1.10549 1.12324 0
M  V30 11728 C 1115.73 -1.82755 0.879117 0
M  V30 11729 C 1116.07 -1.84905 -0.593604 0
M  V30 11730 O 1115.34 -1.30884 -1.43873 0
M  V30 11731 C 1115.62 -3.29481 1.45308 0
M  V30 11732 C 1115.48 -3.3567 2.99408 0
M  V30 11733 C 1116.8 -4.25828 1.11167 0
M  V30 11734 H 1113.92 -0.663513 0.32081 0
M  V30 11735 H 1116.56 -1.29572 1.38965 0
M  V30 11736 H 1114.71 -3.74902 1.01887 0
M  V30 11737 H 1116.38 -2.98739 3.515 0
M  V30 11738 H 1114.62 -2.75606 3.34998 0
M  V30 11739 H 1115.29 -4.38983 3.34661 0
M  V30 11740 H 1117.77 -3.88635 1.48667 0
M  V30 11741 H 1116.65 -5.26857 1.53991 0
M  V30 11742 H 1116.91 -4.42094 0.0237046 0
M  V30 11743 N 1115.97 -0.914965 -1.28321 0
M  V30 11744 C 1116.92 -0.375436 -2.24888 0
M  V30 11745 C 1117.9 0.51313 -1.52498 0
M  V30 11746 O 1119.09 0.352654 -1.73451 0
M  V30 11747 C 1116.22 0.382266 -3.41165 0
M  V30 11748 C 1115.31 -0.522089 -4.20874 0
M  V30 11749 N 1115.7 -1.63623 -4.78603 0
M  V30 11750 C 1114 -0.322703 -4.44831 0
M  V30 11751 C 1114.7 -2.19766 -5.38589 0
M  V30 11752 N 1113.67 -1.48878 -5.22816 0
M  V30 11753 H 1117.47 -1.2263 -2.67094 0
M  V30 11754 H 1114.99 -0.767759 -1.43106 0
M  V30 11755 H 1116.99 0.785641 -4.0943 0
M  V30 11756 H 1115.65 1.23021 -3.00493 0
M  V30 11757 H 1116.66 -2.01879 -4.76933 0
M  V30 11758 H 1113.33 0.485627 -4.14666 0
M  V30 11759 H 1114.72 -3.13494 -5.94282 0
M  V30 11760 N 1117.44 1.42219 -0.679077 0
M  V30 11761 C 1118.86 1.55737 -0.349034 0
M  V30 11762 C 1119.06 1.65789 1.14527 0
M  V30 11763 O 1118.12 1.62717 1.93079 0
M  V30 11764 C 1119.43 2.80516 -1.0831 0
M  V30 11765 C 1120.98 2.94294 -1.06584 0
M  V30 11766 C 1121.45 4.2194 -1.78132 0
M  V30 11767 N 1122.94 4.28861 -1.75021 0
M  V30 11768 C 1123.68 5.26453 -2.27234 0
M  V30 11769 N 1123.17 6.30171 -2.87847 0
M  V30 11770 N 1124.97 5.1828 -2.17584 0
M  V30 11771 H 1117.12 1.33939 -1.64846 0
M  V30 11772 H 1119.38 0.645029 -0.694725 0
M  V30 11773 H 1119.09 2.79241 -2.13816 0
M  V30 11774 H 1118.96 3.71539 -0.651069 0
M  V30 11775 H 1121.35 2.95094 -0.0191061 0
M  V30 11776 H 1121.43 2.04491 -1.53679 0
M  V30 11777 H 1121.07 4.21901 -2.82776 0
M  V30 11778 H 1121 5.10685 -1.28483 0
M  V30 11779 H 1123.49 3.54537 -1.30814 0
M  V30 11780 H 1123.81 7.01 -3.25298 0
M  V30 11781 H 1122.15 6.30721 -2.91918 0
M  V30 11782 H 1125.34 4.36172 -1.69916 0
M  V30 11783 H 1125.52 5.94172 -2.58581 0
M  V30 11784 N 1118.92 0.422693 1.51826 0
M  V30 11785 C 1120.2 -0.20786 1.94492 0
M  V30 11786 C 1120.58 -1.61414 1.36047 0
M  V30 11787 O 1119.93 -2.21987 0.541657 0
M  V30 11788 C 1120.14 -0.200457 3.48424 0
M  V30 11789 C 1121.48 -0.413199 4.22585 0
M  V30 11790 O 1122.51 -0.27922 3.55104 0
M  V30 11791 O 1121.37 -0.678469 5.42272 0
M  V30 11792 H 1118.46 -0.137851 0.81543 0
M  V30 11793 H 1121.01 0.479617 1.62781 0
M  V30 11794 H 1119.78 0.783263 3.83381 0
M  V30 11795 H 1119.4 -0.931464 3.86535 0
M  V30 11796 N 1120.4 -1.5685 0.153553 0
M  V30 11797 C 1121.33 -2.20101 -0.779601 0
M  V30 11798 C 1122.31 -1.15121 -1.25225 0
M  V30 11799 O 1123.5 -1.43487 -1.30862 0
M  V30 11800 C 1120.63 -2.82778 -2.01628 0
M  V30 11801 C 1119.58 -3.93643 -1.68015 0
M  V30 11802 C 1118.91 -4.43286 -2.99001 0
M  V30 11803 C 1120.21 -5.14102 -0.921774 0
M  V30 11804 H 1121.9 -2.98334 -0.252432 0
M  V30 11805 H 1119.45 -1.43499 -0.119975 0
M  V30 11806 H 1121.4 -3.25696 -2.67395 0
M  V30 11807 H 1120.12 -2.01887 -2.56728 0
M  V30 11808 H 1118.78 -3.51354 -1.04624 0
M  V30 11809 H 1118.43 -3.59208 -3.52106 0
M  V30 11810 H 1118.13 -5.18068 -2.77272 0
M  V30 11811 H 1119.65 -4.88878 -3.65828 0
M  V30 11812 H 1121.07 -5.53823 -1.48167 0
M  V30 11813 H 1119.46 -5.94687 -0.804185 0
M  V30 11814 H 1120.53 -4.84825 0.0852757 0
M  V30 11815 N 1121.88 0.120221 -1.57141 0
M  V30 11816 C 1122.84 1.13159 -1.99318 0
M  V30 11817 C 1123.84 1.34376 -0.883158 0
M  V30 11818 O 1125.03 1.30914 -1.14922 0
M  V30 11819 C 1122.16 2.48632 -2.33227 0
M  V30 11820 H 1123.36 0.769119 -2.8987 0
M  V30 11821 H 1120.91 0.364475 -1.51991 0
M  V30 11822 H 1121.64 2.89802 -1.45551 0
M  V30 11823 H 1121.43 2.34587 -3.14184 0
M  V30 11824 H 1122.92 3.21423 -2.66603 0
M  V30 11825 N 1123.36 1.52689 0.390367 0
M  V30 11826 C 1124.32 1.76726 1.45947 0
M  V30 11827 C 1125.32 0.637269 1.47633 0
M  V30 11828 O 1126.51 0.905312 1.48828 0
M  V30 11829 C 1123.64 1.86678 2.85244 0
M  V30 11830 H 1124.83 2.72185 1.25918 0
M  V30 11831 H 1122.39 1.4339 0.622023 0
M  V30 11832 H 1123.12 0.931991 3.10619 0
M  V30 11833 H 1122.91 2.68843 2.85422 0
M  V30 11834 H 1124.4 2.06952 3.62713 0
M  V30 11835 N 1124.83 -0.648732 1.43629 0
M  V30 11836 C 1126.25 -0.964917 1.27128 0
M  V30 11837 C 1126.45 -2.00561 0.194251 0
M  V30 11838 O 1125.51 -2.48884 -0.42581 0
M  V30 11839 C 1126.82 -1.44491 2.6371 0
M  V30 11840 C 1128.37 -1.56133 2.71278 0
M  V30 11841 C 1128.84 -2.07521 4.08288 0
M  V30 11842 N 1130.33 -2.14817 4.10375 0
M  V30 11843 C 1131.07 -2.55712 5.13224 0
M  V30 11844 N 1130.56 -2.9587 6.26444 0
M  V30 11845 N 1132.36 -2.55691 5.00578 0
M  V30 11846 H 1124.51 0.0398357 2.12363 0
M  V30 11847 H 1126.77 -0.0447705 0.946942 0
M  V30 11848 H 1126.48 -0.754616 3.43509 0
M  V30 11849 H 1126.35 -2.41914 2.89409 0
M  V30 11850 H 1128.74 -2.24263 1.91808 0
M  V30 11851 H 1128.82 -0.571314 2.49338 0
M  V30 11852 H 1128.46 -1.39992 4.88226 0
M  V30 11853 H 1128.39 -3.07362 4.27594 0
M  V30 11854 H 1130.88 -1.86538 3.28652 0
M  V30 11855 H 1131.2 -3.25837 7.0075 0
M  V30 11856 H 1129.54 -2.93664 6.2991 0
M  V30 11857 H 1132.73 -2.23697 4.1119 0
M  V30 11858 H 1132.91 -2.87239 5.80859 0
M  V30 11859 N 1126.31 -1.30234 -0.887518 0
M  V30 11860 C 1127.26 -1.16302 -2.01436 0
M  V30 11861 C 1128.25 -0.0755422 -1.69231 0
M  V30 11862 O 1129.46 -0.236213 -1.78443 0
M  V30 11863 H 1125.84 -0.35961 -0.660443 0
M  V30 11864 H 1127.81 -2.11677 -2.10322 0
M  V30 11865 C 1126.56 -0.869009 -3.36665 0
M  V30 11866 H 1125.88 -1.69787 -3.61956 0
M  V30 11867 H 1127.32 -0.811621 -4.16159 0
M  V30 11868 C 1125.78 0.428021 -3.3417 0
M  V30 11869 O 1126.31 1.45033 -3.74604 0
M  V30 11870 N 1124.51 0.438264 -2.87276 0
M  V30 11871 H 1124.06 -0.394142 -2.54567 0
M  V30 11872 H 1124.02 1.30604 -2.85989 0
M  V30 11873 N 1127.79 1.09952 -1.12909 0
M  V30 11874 C 1129.04 1.81386 -0.882163 0
M  V30 11875 C 1129.35 1.86376 0.593592 0
M  V30 11876 O 1130.56 2.54064 0.957275 0
M  V30 11877 C 1129.01 3.25824 -1.52861 0
M  V30 11878 C 1128.62 3.29117 -3.0395 0
M  V30 11879 C 1130.37 4.02051 -1.36216 0
M  V30 11880 C 1128.27 4.68047 -3.61505 0
M  V30 11881 H 1127.2 0.679701 -0.326378 0
M  V30 11882 H 1129.85 1.23614 -1.35616 0
M  V30 11883 H 1128.24 3.83624 -0.982271 0
M  V30 11884 H 1129.41 2.81114 -3.65119 0
M  V30 11885 H 1127.73 2.66379 -3.20049 0
M  V30 11886 H 1130.32 5.04683 -1.76633 0
M  V30 11887 H 1130.67 4.15171 -0.306391 0
M  V30 11888 H 1131.2 3.5068 -1.87799 0
M  V30 11889 H 1127.94 4.60128 -4.66865 0
M  V30 11890 H 1127.46 5.16397 -3.05114 0
M  V30 11891 H 1129.14 5.37018 -3.6086 0
M  V30 11892 N 1129.27 0.921757 1.27833 0
M  V30 11893 C 1130.2 0.433466 2.29441 0
M  V30 11894 C 1131.18 -0.503133 1.62489 0
M  V30 11895 O 1132.36 -0.409156 1.89841 0
M  V30 11896 C 1129.49 -0.320029 3.45822 0
M  V30 11897 C 1128.45 0.528178 4.24728 0
M  V30 11898 C 1127.77 -0.354132 5.33526 0
M  V30 11899 C 1129.07 1.78959 4.90684 0
M  V30 11900 H 1130.77 1.28263 2.70535 0
M  V30 11901 H 1128.31 0.618197 1.30055 0
M  V30 11902 H 1130.27 -0.672526 4.15999 0
M  V30 11903 H 1128.99 -1.20317 3.0363 0
M  V30 11904 H 1127.65 0.863302 3.5629 0
M  V30 11905 H 1127.3 -1.23605 4.87576 0
M  V30 11906 H 1127 0.209855 5.87225 0
M  V30 11907 H 1128.52 -0.702333 6.06547 0
M  V30 11908 H 1129.94 1.50552 5.53179 0
M  V30 11909 H 1128.33 2.29661 5.54415 0
M  V30 11910 H 1129.4 2.51265 4.14721 0
M  V30 11911 N 1130.75 -1.41857 0.686609 0
M  V30 11912 C 1131.99 -2.01666 0.214118 0
M  V30 11913 C 1132.33 -1.5422 -1.18025 0
M  V30 11914 O 1131.6 -0.749482 -1.7948 0
M  V30 11915 C 1131.88 -3.59147 0.261841 0
M  V30 11916 C 1131.74 -4.16742 1.69251 0
M  V30 11917 C 1133.06 -4.38427 -0.383378 0
M  V30 11918 H 1130.17 -0.732724 0.0792785 0
M  V30 11919 H 1132.82 -1.68724 0.873633 0
M  V30 11920 H 1130.97 -3.87342 -0.29971 0
M  V30 11921 H 1132.64 -3.99456 2.30722 0
M  V30 11922 H 1130.88 -3.72124 2.2295 0
M  V30 11923 H 1131.55 -5.25894 1.6775 0
M  V30 11924 H 1134.03 -4.15992 0.0947701 0
M  V30 11925 H 1132.9 -5.4797 -0.319401 0
M  V30 11926 H 1133.17 -4.172 -1.46276 0
M  V30 11927 N 1132.22 -0.430739 -1.51599 0
M  V30 11928 C 1133.17 0.398482 -2.29161 0
M  V30 11929 C 1134.17 1.02676 -1.34737 0
M  V30 11930 O 1135.37 0.96248 -1.52106 0
M  V30 11931 H 1131.75 0.14731 -0.737431 0
M  V30 11932 H 1133.72 -0.276619 -2.97115 0
M  V30 11933 C 1132.47 1.49094 -3.14112 0
M  V30 11934 H 1131.79 1.01685 -3.86652 0
M  V30 11935 H 1133.23 2.04453 -3.7145 0
M  V30 11936 C 1131.69 2.47049 -2.29059 0
M  V30 11937 O 1132.22 3.51435 -1.94567 0
M  V30 11938 N 1130.43 2.17778 -1.92409 0
M  V30 11939 H 1129.97 1.3292 -2.20658 0
M  V30 11940 H 1129.93 2.8356 -1.35798 0
M  V30 11941 N 1133.7 1.56767 -0.161869 0
M  V30 11942 C 1134.93 2.01401 0.49523 0
M  V30 11943 C 1135.35 1.04133 1.56646 0
M  V30 11944 O 1134.71 0.0193747 1.8129 0
M  V30 11945 C 1134.76 3.44695 1.05913 0
M  V30 11946 O 1133.86 3.50475 2.1735 0
M  V30 11947 H 1133.2 0.65314 0.1196 0
M  V30 11948 H 1135.73 2.02903 -0.26298 0
M  V30 11949 H 1135.74 3.83805 1.3841 0
M  V30 11950 H 1134.42 4.14991 0.274749 0
M  V30 11951 H 1133 3.23218 1.85969 0
M  V30 11952 N 1135.18 -0.111886 1.57202 0
M  V30 11953 C 1136.13 -1.15585 2.01849 0
M  V30 11954 C 1137.12 -1.42458 0.916621 0
M  V30 11955 O 1138.33 -1.42337 1.10182 0
M  V30 11956 H 1134.7 -0.389885 0.643035 0
M  V30 11957 H 1136.67 -0.752854 2.88747 0
M  V30 11958 C 1135.42 -2.47247 2.44467 0
M  V30 11959 H 1134.75 -2.27409 3.28824 0
M  V30 11960 H 1136.19 -3.18837 2.79497 0
M  V30 11961 C 1134.65 -3.10339 1.31115 0
M  V30 11962 O 1135.18 -3.96713 0.631029 0
M  V30 11963 N 1133.38 -2.70326 1.0664 0
M  V30 11964 H 1132.93 -2.00182 1.62126 0
M  V30 11965 H 1132.89 -3.12869 0.309944 0
M  V30 11966 N 1136.66 -1.52894 -0.382264 0
M  V30 11967 C 1137.59 -1.81122 -1.47367 0
M  V30 11968 C 1138.57 -0.663653 -1.56619 0
M  V30 11969 O 1139.75 -0.911898 -1.71459 0
M  V30 11970 C 1136.88 -1.98615 -2.84902 0
M  V30 11971 C 1135.84 -3.14328 -2.90485 0
M  V30 11972 C 1135.16 -3.17086 -4.30535 0
M  V30 11973 C 1136.46 -4.53263 -2.59519 0
M  V30 11974 H 1138.16 -2.72518 -1.23993 0
M  V30 11975 H 1135.7 -1.3113 -0.595049 0
M  V30 11976 H 1137.66 -2.16946 -3.61265 0
M  V30 11977 H 1136.38 -1.03915 -3.09628 0
M  V30 11978 H 1135.04 -2.95791 -2.16572 0
M  V30 11979 H 1134.69 -2.20055 -4.52311 0
M  V30 11980 H 1134.39 -3.94821 -4.3519 0
M  V30 11981 H 1135.91 -3.3758 -5.08795 0
M  V30 11982 H 1137.33 -4.71867 -3.25598 0
M  V30 11983 H 1135.72 -5.33115 -2.75514 0
M  V30 11984 H 1136.79 -4.59516 -1.54831 0
M  V30 11985 N 1138.14 0.641106 -1.43971 0
M  V30 11986 C 1139.38 1.40291 -1.46445 0
M  V30 11987 C 1139.72 1.93978 -0.0929004 0
M  V30 11988 O 1138.99 1.73043 0.888043 0
M  V30 11989 C 1139.27 2.57551 -2.51673 0
M  V30 11990 C 1139.13 2.09279 -3.98149 0
M  V30 11991 C 1140.45 3.59752 -2.53508 0
M  V30 11992 H 1137.57 0.508771 -0.533218 0
M  V30 11993 H 1140.21 0.725767 -1.75592 0
M  V30 11994 H 1138.36 3.15319 -2.2695 0
M  V30 11995 H 1140.03 1.56418 -4.33971 0
M  V30 11996 H 1138.27 1.40545 -4.10402 0
M  V30 11997 H 1138.94 2.93655 -4.67409 0
M  V30 11998 H 1141.42 3.11766 -2.75574 0
M  V30 11999 H 1140.3 4.39332 -3.29057 0
M  V30 12000 H 1140.56 4.13156 -1.57335 0
M  V30 12001 N 1139.62 1.30703 0.880598 0
M  V30 12002 C 1140.86 1.21066 1.64688 0
M  V30 12003 C 1141.22 -0.230015 1.90617 0
M  V30 12004 O 1142.42 -0.449696 2.65012 0
M  V30 12005 C 1140.69 2.02072 2.94791 0
M  V30 12006 S 1142.25 2.09182 3.85731 0
M  V30 12007 H 1139.07 0.431369 0.565192 0
M  V30 12008 H 1141.67 1.65234 1.04489 0
M  V30 12009 H 1140.37 3.05851 2.73648 0
M  V30 12010 H 1139.91 1.58583 3.60021 0
M  V30 12011 H 1141.92 1.22239 4.80908 0
M  V30 12012 N 1141.09 -1.09351 1.1349 0
M  V30 12013 C 1142.04 -2.16008 0.812981 0
M  V30 12014 C 1143.01 -1.64566 -0.225252 0
M  V30 12015 O 1144.2 -1.90552 -0.0973261 0
M  V30 12016 C 1141.34 -3.43913 0.285996 0
M  V30 12017 C 1140.45 -4.09251 1.38338 0
M  V30 12018 C 1139.58 -5.24916 0.814652 0
M  V30 12019 C 1138.62 -5.82178 1.89038 0
M  V30 12020 N 1137.76 -6.89203 1.33955 0
M  V30 12021 H 1142.6 -2.42887 1.72655 0
M  V30 12022 H 1140.14 -1.19209 0.861833 0
M  V30 12023 H 1142.09 -4.17183 -0.0376794 0
M  V30 12024 H 1140.72 -3.17349 -0.590707 0
M  V30 12025 H 1139.78 -3.33838 1.82363 0
M  V30 12026 H 1141.09 -4.4784 2.19638 0
M  V30 12027 H 1140.24 -6.05086 0.442306 0
M  V30 12028 H 1138.98 -4.87691 -0.029416 0
M  V30 12029 H 1137.99 -5.00669 2.27179 0
M  V30 12030 H 1139.21 -6.21464 2.73787 0
M  V30 12031 H 1137.16 -6.53956 0.517494 0
M  V30 12032 H 1137.07 -7.26565 2.08902 0
M  V30 12033 H 1138.34 -7.73126 0.994793 0
M  V30 12034 N 1142.57 -0.928524 -1.27343 0
M  V30 12035 C 1143.82 -0.570235 -1.94618 0
M  V30 12036 C 1144.15 0.886381 -1.72792 0
M  V30 12037 O 1143.43 1.63242 -1.05747 0
M  V30 12038 C 1143.71 -0.897964 -3.48724 0
M  V30 12039 C 1143.56 -2.40839 -3.7989 0
M  V30 12040 C 1144.88 -0.404429 -4.38238 0
M  V30 12041 H 1142 -0.208645 -0.70685 0
M  V30 12042 H 1144.64 -1.16045 -1.50444 0
M  V30 12043 H 1142.79 -0.395679 -3.8648 0
M  V30 12044 H 1144.46 -2.98243 -3.51921 0
M  V30 12045 H 1142.71 -2.85723 -3.26412 0
M  V30 12046 H 1143.38 -2.58823 -4.8756 0
M  V30 12047 H 1145.85 -0.834918 -4.07637 0
M  V30 12048 H 1144.73 -0.662684 -5.44885 0
M  V30 12049 H 1144.99 0.695507 -4.36595 0
M  V30 12050 N 1144.05 1.41491 -0.694123 0
M  V30 12051 C 1145.27 2.06099 -0.23197 0
M  V30 12052 C 1145.7 1.51888 1.10958 0
M  V30 12053 O 1145.06 0.645247 1.69429 0
M  V30 12054 C 1145.11 3.60053 -0.198522 0
M  V30 12055 O 1144.21 4.04021 0.827067 0
M  V30 12056 H 1143.55 0.654193 -0.113699 0
M  V30 12057 H 1146.08 1.81282 -0.948575 0
M  V30 12058 H 1146.09 4.0799 -0.0288904 0
M  V30 12059 H 1144.77 3.98879 -1.17764 0
M  V30 12060 H 1143.34 3.67593 0.626908 0
M  V30 12061 N 1145.53 0.438773 1.51369 0
M  V30 12062 C 1146.8 -0.18722 1.94702 0
M  V30 12063 C 1147.18 -1.59962 1.37752 0
M  V30 12064 O 1146.53 -2.214 0.565171 0
M  V30 12065 C 1146.74 -0.163491 3.48617 0
M  V30 12066 C 1148.09 -0.368355 4.22999 0
M  V30 12067 O 1149.11 -0.241541 3.5538 0
M  V30 12068 O 1147.97 -0.620916 5.42961 0
M  V30 12069 H 1145.07 -0.129194 0.816846 0
M  V30 12070 H 1147.61 0.496855 1.62263 0
M  V30 12071 H 1146.39 0.823882 3.82528 0
M  V30 12072 H 1146.01 -0.890414 3.87501 0
M  V30 12073 N 1147.01 -1.56678 0.170181 0
M  V30 12074 C 1148.25 -1.96849 -0.475064 0
M  V30 12075 C 1148.58 -1.05611 -1.6333 0
M  V30 12076 O 1147.84 -0.0899708 -1.95493 0
M  V30 12077 C 1148.13 -3.43103 -1.00076 0
M  V30 12078 C 1147.8 -4.50881 0.0414538 0
M  V30 12079 C 1146.46 -4.80082 0.327894 0
M  V30 12080 C 1148.81 -5.15791 0.748936 0
M  V30 12081 C 1146.14 -5.71491 1.32722 0
M  V30 12082 C 1148.49 -6.08278 1.73724 0
M  V30 12083 C 1147.16 -6.35847 2.03114 0
M  V30 12084 H 1146.43 -0.72032 -0.173838 0
M  V30 12085 H 1149.08 -1.89701 0.261903 0
M  V30 12086 H 1147.38 -3.47197 -1.81553 0
M  V30 12087 H 1149.08 -3.71525 -1.50899 0
M  V30 12088 H 1145.67 -4.2817 -0.191976 0
M  V30 12089 H 1149.85 -4.93344 0.540852 0
M  V30 12090 H 1145.11 -5.91134 1.56112 0
M  V30 12091 H 1149.28 -6.57643 2.29082 0
M  V30 12092 H 1146.91 -7.06479 2.80698 0
M  V30 12093 N 1148.48 0.103547 -1.57259 0
M  V30 12094 C 1149.73 0.806979 -1.8529 0
M  V30 12095 C 1150.05 1.79679 -0.757653 0
M  V30 12096 O 1149.32 1.94695 0.216913 0
M  V30 12097 H 1147.9 0.301012 -0.683667 0
M  V30 12098 H 1150.56 0.0871886 -1.94705 0
M  V30 12099 H 1149.66 1.34275 -2.81738 0
M  V30 12100 N 1149.96 1.53094 0.37415 0
M  V30 12101 C 1150.89 1.81901 1.46404 0
M  V30 12102 C 1151.87 0.671949 1.56265 0
M  V30 12103 O 1153.06 0.920978 1.70973 0
M  V30 12104 C 1150.19 2.00123 2.83845 0
M  V30 12105 C 1149.14 3.15864 2.88814 0
M  V30 12106 C 1148.47 3.19364 4.28848 0
M  V30 12107 C 1149.77 4.54633 2.57112 0
M  V30 12108 H 1151.46 2.73172 1.22546 0
M  V30 12109 H 1149.01 1.31444 0.588087 0
M  V30 12110 H 1150.96 2.18859 3.6011 0
M  V30 12111 H 1149.68 1.05555 3.09072 0
M  V30 12112 H 1148.34 2.96935 2.15 0
M  V30 12113 H 1147.99 2.2245 4.51137 0
M  V30 12114 H 1147.69 3.97123 4.3309 0
M  V30 12115 H 1149.22 3.40273 5.06997 0
M  V30 12116 H 1150.63 4.73587 3.23091 0
M  V30 12117 H 1149.03 5.34569 2.72683 0
M  V30 12118 H 1150.1 4.60331 1.52392 0
M  V30 12119 N 1151.44 -0.633461 1.44309 0
M  V30 12120 C 1152.66 -1.42527 1.50668 0
M  V30 12121 C 1153.09 -1.87637 0.131861 0
M  V30 12122 O 1152.45 -1.58595 -0.878477 0
M  V30 12123 C 1152.5 -2.62328 2.47419 0
M  V30 12124 O 1151.6 -3.62081 1.97411 0
M  V30 12125 H 1150.94 -0.426559 0.508864 0
M  V30 12126 H 1153.47 -0.773392 1.8942 0
M  V30 12127 H 1153.48 -3.09901 2.65378 0
M  V30 12128 H 1152.16 -2.2884 3.47283 0
M  V30 12129 H 1150.73 -3.21333 1.89208 0
M  V30 12130 N 1152.92 -1.31168 -0.873655 0
M  V30 12131 C 1154.33 -1.09745 -1.1588 0
M  V30 12132 C 1154.53 0.134471 -2.01051 0
M  V30 12133 O 1153.59 0.824857 -2.38647 0
M  V30 12134 C 1154.9 -2.36704 -1.85451 0
M  V30 12135 C 1156.45 -2.42278 -1.98167 0
M  V30 12136 C 1156.93 -3.69108 -2.71152 0
M  V30 12137 N 1158.42 -3.69981 -2.7869 0
M  V30 12138 C 1159.15 -4.64811 -3.35765 0
M  V30 12139 N 1158.65 -5.69995 -3.938 0
M  V30 12140 N 1160.44 -4.52337 -3.33688 0
M  V30 12141 H 1152.59 -2.10184 -0.306021 0
M  V30 12142 H 1154.86 -0.927058 -0.198159 0
M  V30 12143 H 1154.56 -3.26666 -1.30316 0
M  V30 12144 H 1154.44 -2.46219 -2.85755 0
M  V30 12145 H 1156.82 -1.52787 -2.52468 0
M  V30 12146 H 1156.9 -2.3673 -0.969164 0
M  V30 12147 H 1156.55 -4.58963 -2.1752 0
M  V30 12148 H 1156.48 -3.71922 -3.72803 0
M  V30 12149 H 1158.97 -2.93944 -2.37498 0
M  V30 12150 H 1159.28 -6.38438 -4.3545 0
M  V30 12151 H 1157.63 -5.73773 -3.92186 0
M  V30 12152 H 1160.82 -3.69341 -2.87584 0
M  V30 12153 H 1160.99 -5.2642 -3.77871 0
M  V30 12154 N 1154.4 1.08748 -1.14068 0
M  V30 12155 C 1155.64 1.81333 -0.908081 0
M  V30 12156 C 1155.98 1.85826 0.564112 0
M  V30 12157 O 1155.25 1.33157 1.41773 0
M  V30 12158 C 1155.53 3.27127 -1.50531 0
M  V30 12159 C 1155.39 3.30865 -3.04711 0
M  V30 12160 C 1156.71 4.24006 -1.17928 0
M  V30 12161 H 1153.82 0.658326 -0.331325 0
M  V30 12162 H 1156.47 1.27345 -1.41008 0
M  V30 12163 H 1154.62 3.73233 -1.07839 0
M  V30 12164 H 1156.29 2.93109 -3.56209 0
M  V30 12165 H 1154.53 2.70241 -3.39341 0
M  V30 12166 H 1155.2 4.33603 -3.41603 0
M  V30 12167 H 1157.68 3.86221 -1.54831 0
M  V30 12168 H 1156.55 5.2434 -1.62353 0
M  V30 12169 H 1156.82 4.42 -0.0940349 0
M  V30 12170 N 1155.87 0.935264 1.26849 0
M  V30 12171 C 1157.12 0.575467 1.93317 0
M  V30 12172 C 1157.44 -0.88876 1.74242 0
M  V30 12173 O 1158.64 -1.35767 2.35116 0
M  V30 12174 C 1157.1 0.978433 3.46345 0
M  V30 12175 C 1156.71 2.46386 3.74163 0
M  V30 12176 C 1158.45 0.690249 4.18851 0
M  V30 12177 C 1156.36 2.80584 5.20602 0
M  V30 12178 H 1155.29 0.211506 0.723727 0
M  V30 12179 H 1157.94 1.1371 1.44022 0
M  V30 12180 H 1156.32 0.345379 3.94491 0
M  V30 12181 H 1157.49 3.14547 3.36745 0
M  V30 12182 H 1155.81 2.72473 3.14877 0
M  V30 12183 H 1158.41 0.922151 5.26688 0
M  V30 12184 H 1158.75 -0.372805 4.14627 0
M  V30 12185 H 1159.28 1.28275 3.76551 0
M  V30 12186 H 1156.02 3.85828 5.29921 0
M  V30 12187 H 1155.54 2.1708 5.59139 0
M  V30 12188 H 1157.22 2.68732 5.88551 0
M  V30 12189 N 1157.35 -1.41121 0.701616 0
M  V30 12190 C 1158.26 -2.34565 0.0407815 0
M  V30 12191 C 1159.28 -1.56555 -0.75937 0
M  V30 12192 O 1160.45 -1.89008 -0.695542 0
M  V30 12193 C 1157.52 -3.35347 -0.879954 0
M  V30 12194 C 1156.58 -4.29241 -0.0713279 0
M  V30 12195 C 1155.81 -5.25209 -0.948211 0
M  V30 12196 O 1156.04 -5.26781 -2.18766 0
M  V30 12197 O 1154.97 -6.00605 -0.394657 0
M  V30 12198 H 1158.8 -2.92666 0.811188 0
M  V30 12199 H 1156.38 -1.42077 0.461991 0
M  V30 12200 H 1158.26 -3.9719 -1.40776 0
M  V30 12201 H 1156.94 -2.7968 -1.62975 0
M  V30 12202 H 1155.85 -3.70727 0.50122 0
M  V30 12203 H 1157.18 -4.88022 0.639935 0
M  V30 12204 N 1158.83 -0.446794 -1.51134 0
M  V30 12205 C 1160.11 0.176892 -1.94798 0
M  V30 12206 C 1160.49 1.59229 -1.38598 0
M  V30 12207 O 1159.84 2.21097 -0.576905 0
M  V30 12208 C 1160.05 0.145 -3.48699 0
M  V30 12209 C 1161.39 0.345917 -4.23189 0
M  V30 12210 O 1162.42 0.222691 -3.55503 0
M  V30 12211 O 1161.28 0.592112 -5.43283 0
M  V30 12212 H 1158.37 0.12486 -0.81752 0
M  V30 12213 H 1160.92 -0.505453 -1.61998 0
M  V30 12214 H 1159.69 -0.844156 -3.82086 0
M  V30 12215 H 1159.31 0.869851 -3.87968 0
M  V30 12216 N 1160.31 1.56586 -0.178487 0
M  V30 12217 C 1161.59 1.88798 0.511356 0
M  V30 12218 C 1161.97 1.08949 1.80813 0
M  V30 12219 O 1161.31 0.185551 2.27745 0
M  V30 12220 C 1161.52 3.40927 0.746298 0
M  V30 12221 C 1162.87 4.10816 1.0731 0
M  V30 12222 O 1163.9 3.46285 0.834592 0
M  V30 12223 O 1162.75 5.24837 1.52343 0
M  V30 12224 H 1159.85 0.783574 0.264463 0
M  V30 12225 H 1162.39 1.68301 -0.21746 0
M  V30 12226 H 1161.17 3.9093 -0.17015 0
M  V30 12227 H 1160.79 3.67059 1.52817 0
M  V30 12228 N 1161.79 -0.095206 1.57312 0
M  V30 12229 C 1163.2 -0.649733 1.7503 0
M  V30 12230 C 1163.55 -1.7912 0.800652 0
M  V30 12231 O 1162.67 -2.1639 -0.0208831 0
M  V30 12232 C 1163.27 -1.18541 3.17386 0
M  V30 12233 C 1161.83 -1.686 3.36528 0
M  V30 12234 C 1160.97 -0.595531 2.7083 0
M  V30 12235 H 1163.93 0.130863 1.5816 0
M  V30 12236 H 1163.95 -2.05473 3.20252 0
M  V30 12237 H 1163.46 -0.35441 3.86478 0
M  V30 12238 H 1161.56 -2.541 2.72514 0
M  V30 12239 H 1161.67 -1.77907 4.44844 0
M  V30 12240 H 1160.04 -1.03495 2.32725 0
M  V30 12241 H 1160.82 0.224883 3.42563 0
M  V30 12242 N 1163.26 -1.53291 -0.366026 0
M  V30 12243 C 1164.17 -1.82656 -1.47221 0
M  V30 12244 C 1165.19 -0.71491 -1.58635 0
M  V30 12245 O 1166.37 -1.00492 -1.74538 0
M  V30 12246 C 1163.43 -2.00995 -2.82492 0
M  V30 12247 C 1162.49 -3.24895 -2.8061 0
M  V30 12248 C 1161.73 -3.4235 -4.09429 0
M  V30 12249 O 1161.95 -2.6411 -5.05571 0
M  V30 12250 O 1160.88 -4.35702 -4.15268 0
M  V30 12251 H 1164.71 -2.76634 -1.2533 0
M  V30 12252 H 1162.29 -1.38665 -0.556084 0
M  V30 12253 H 1164.18 -2.14632 -3.62645 0
M  V30 12254 H 1162.85 -1.10207 -3.04362 0
M  V30 12255 H 1161.76 -3.16682 -1.99157 0
M  V30 12256 H 1163.09 -4.15604 -2.63694 0
M  V30 12257 N 1164.74 0.6258 -1.44643 0
M  V30 12258 C 1165.71 1.71941 -1.51555 0
M  V30 12259 C 1166.71 1.55822 -0.396988 0
M  V30 12260 O 1167.9 1.61221 -0.65981 0
M  V30 12261 C 1165.03 3.11068 -1.39461 0
M  V30 12262 H 1166.22 1.67185 -2.48976 0
M  V30 12263 H 1163.77 0.839934 -1.31814 0
M  V30 12264 H 1164.51 3.21416 -0.431534 0
M  V30 12265 H 1164.29 3.24175 -2.20574 0
M  V30 12266 H 1165.78 3.90762 -1.4729 0
M  V30 12267 N 1166.22 1.31629 0.866686 0
M  V30 12268 C 1167.47 1.21683 1.62238 0
M  V30 12269 C 1167.8 -0.223767 1.92907 0
M  V30 12270 O 1167.07 -1.15761 1.563 0
M  V30 12271 C 1167.36 2.06443 2.95048 0
M  V30 12272 C 1167.21 3.58818 2.71237 0
M  V30 12273 C 1168.53 1.91634 3.96187 0
M  V30 12274 H 1165.65 0.443389 0.588707 0
M  V30 12275 H 1168.29 1.61453 1.00164 0
M  V30 12276 H 1166.44 1.72654 3.48027 0
M  V30 12277 H 1168.11 4.0276 2.24905 0
M  V30 12278 H 1166.36 3.82085 2.05411 0
M  V30 12279 H 1167.03 4.13436 3.65752 0
M  V30 12280 H 1169.5 2.21209 3.52428 0
M  V30 12281 H 1168.38 2.53236 4.86993 0
M  V30 12282 H 1168.64 0.880564 4.33242 0
M  V30 12283 N 1167.7 -1.08142 1.14644 0
M  V30 12284 C 1168.93 -1.8405 0.938563 0
M  V30 12285 C 1169.34 -1.82017 -0.516361 0
M  V30 12286 O 1168.68 -1.22418 -1.36966 0
M  V30 12287 C 1168.74 -3.32563 1.36536 0
M  V30 12288 C 1168.41 -3.58327 2.83638 0
M  V30 12289 C 1169.4 -3.52944 3.81741 0
M  V30 12290 C 1167.09 -3.86251 3.21115 0
M  V30 12291 C 1169.08 -3.7512 5.15329 0
M  V30 12292 C 1166.77 -4.0808 4.54878 0
M  V30 12293 C 1167.77 -4.02508 5.51794 0
M  V30 12294 O 1167.46 -4.23761 6.83141 0
M  V30 12295 H 1167.19 -0.587793 0.33388 0
M  V30 12296 H 1169.74 -1.37467 1.52617 0
M  V30 12297 H 1167.97 -3.79917 0.721106 0
M  V30 12298 H 1169.66 -3.89915 1.12787 0
M  V30 12299 H 1170.43 -3.31382 3.54134 0
M  V30 12300 H 1166.31 -3.89707 2.46272 0
M  V30 12301 H 1169.85 -3.70686 5.90963 0
M  V30 12302 H 1165.75 -4.29126 4.82204 0
M  V30 12303 H 1166.51 -4.41152 6.8944 0
M  V30 12304 N 1169.18 -0.941978 -1.26351 0
M  V30 12305 C 1170.41 -0.606748 -1.97803 0
M  V30 12306 C 1170.82 0.818441 -1.70138 0
M  V30 12307 O 1170.18 1.54583 -0.970076 0
M  V30 12308 C 1170.23 -0.840431 -3.51595 0
M  V30 12309 O 1169.95 -2.20957 -3.78299 0
M  V30 12310 C 1171.45 -0.515855 -4.40288 0
M  V30 12311 H 1168.67 -0.228591 -0.630862 0
M  V30 12312 H 1171.21 -1.2629 -1.60845 0
M  V30 12313 H 1169.37 -0.230875 -3.86711 0
M  V30 12314 H 1169.78 -2.2702 -4.72824 0
M  V30 12315 H 1171.26 -0.72998 -5.47152 0
M  V30 12316 H 1171.73 0.549178 -4.35753 0
M  V30 12317 H 1172.34 -1.10417 -4.10717 0
M  V30 12318 N 1170.66 1.40747 -0.709091 0
M  V30 12319 C 1171.88 2.05319 -0.255258 0
M  V30 12320 C 1172.3 1.53406 1.10054 0
M  V30 12321 O 1171.66 0.687905 1.69039 0
M  V30 12322 C 1171.71 3.60835 -0.219251 0
M  V30 12323 O 1171.43 4.1083 -1.52151 0
M  V30 12324 C 1172.93 4.42572 0.253927 0
M  V30 12325 H 1170.15 0.660904 -0.115959 0
M  V30 12326 H 1172.69 1.80274 -0.965474 0
M  V30 12327 H 1170.85 3.84872 0.441882 0
M  V30 12328 H 1171.26 5.04979 -1.41764 0
M  V30 12329 H 1172.74 5.51529 0.22798 0
M  V30 12330 H 1173.21 4.19673 1.29504 0
M  V30 12331 H 1173.82 4.23629 -0.376694 0
M  V30 12332 N 1172.13 0.454803 1.50895 0
M  V30 12333 C 1173.36 -0.103936 2.06639 0
M  V30 12334 C 1173.78 -1.34943 1.32044 0
M  V30 12335 O 1173.13 -1.78393 0.384972 0
M  V30 12336 C 1173.18 -0.408546 3.59184 0
M  V30 12337 O 1172.91 0.787535 4.30963 0
M  V30 12338 C 1174.41 -1.01605 4.31499 0
M  V30 12339 H 1171.63 -0.000171839 0.671 0
M  V30 12340 H 1174.17 0.638907 1.94263 0
M  V30 12341 H 1172.33 -1.1013 3.71416 0
M  V30 12342 H 1172.74 0.52229 5.21893 0
M  V30 12343 H 1174.21 -1.17906 5.39261 0
M  V30 12344 H 1174.69 -2.00182 3.90927 0
M  V30 12345 H 1175.3 -0.362155 4.23755 0
M  V30 12346 N 1173.61 -1.56489 0.186789 0
M  V30 12347 C 1174.86 -1.96952 -0.453261 0
M  V30 12348 C 1175.18 -1.07451 -1.62725 0
M  V30 12349 O 1174.45 -0.144046 -1.9537 0
M  V30 12350 H 1173.03 -0.727295 -0.170445 0
M  V30 12351 H 1175.69 -1.92999 0.271584 0
M  V30 12352 H 1174.79 -3.01594 -0.802951 0
M  V30 12353 N 1175.09 0.086862 -1.5736 0
M  V30 12354 C 1176.34 0.787281 -1.86135 0
M  V30 12355 C 1176.66 1.78866 -0.776667 0
M  V30 12356 O 1175.93 1.94915 0.19625 0
M  V30 12357 H 1174.51 0.293744 -0.686821 0
M  V30 12358 H 1177.17 0.0665326 -1.94786 0
M  V30 12359 H 1176.27 1.3128 -2.83147 0
M  V30 12360 N 1176.57 1.53483 0.357892 0
M  V30 12361 C 1177.51 1.80463 1.43881 0
M  V30 12362 C 1178.48 0.649438 1.52877 0
M  V30 12363 O 1179.67 0.892409 1.68644 0
M  V30 12364 C 1176.81 2.00714 2.80727 0
M  V30 12365 C 1175.92 3.28431 2.80637 0
M  V30 12366 C 1175.06 3.38828 4.09107 0
M  V30 12367 C 1174.1 4.60549 4.03189 0
M  V30 12368 N 1173.23 4.68057 5.23323 0
M  V30 12369 H 1178.07 2.72694 1.20174 0
M  V30 12370 H 1175.61 1.35079 0.582422 0
M  V30 12371 H 1177.57 2.10444 3.60235 0
M  V30 12372 H 1176.2 1.11811 3.02817 0
M  V30 12373 H 1175.25 3.27617 1.93317 0
M  V30 12374 H 1176.56 4.18022 2.72138 0
M  V30 12375 H 1175.72 3.47911 4.97034 0
M  V30 12376 H 1174.46 2.47267 4.20369 0
M  V30 12377 H 1173.46 4.51558 3.13649 0
M  V30 12378 H 1174.69 5.53459 3.93523 0
M  V30 12379 H 1172.63 3.794 5.35156 0
M  V30 12380 H 1172.55 5.51563 5.17024 0
M  V30 12381 H 1173.82 4.81433 6.1306 0
M  V30 12382 N 1178.05 -0.61812 1.44973 0
M  V30 12383 C 1179.29 -1.37343 1.47715 0
M  V30 12384 C 1179.61 -1.95239 0.118784 0
M  V30 12385 O 1180.81 -2.7149 0.0237981 0
M  V30 12386 C 1179.27 -2.48732 2.60116 0
M  V30 12387 C 1178.88 -1.97294 4.02218 0
M  V30 12388 C 1180.62 -3.25831 2.72093 0
M  V30 12389 C 1178.53 -3.06102 5.06019 0
M  V30 12390 H 1177.46 -0.516175 0.549617 0
M  V30 12391 H 1180.11 -0.663617 1.7108 0
M  V30 12392 H 1178.49 -3.2235 2.30014 0
M  V30 12393 H 1179.67 -1.30455 4.41948 0
M  V30 12394 H 1177.98 -1.32972 3.94598 0
M  V30 12395 H 1180.58 -4.06968 3.46815 0
M  V30 12396 H 1180.92 -3.76156 1.7836 0
M  V30 12397 H 1181.45 -2.59309 3.01668 0
M  V30 12398 H 1178.19 -2.60706 6.01426 0
M  V30 12399 H 1177.71 -3.71541 4.70869 0
M  V30 12400 H 1179.39 -3.70662 5.30301 0
M  V30 12401 N 1179.52 -1.32087 -0.859693 0
M  V30 12402 C 1180.93 -1.20107 -1.42938 0
M  V30 12403 C 1181.29 0.188411 -1.95293 0
M  V30 12404 O 1180.41 1.08683 -1.87128 0
M  V30 12405 C 1181.01 -2.17436 -2.59821 0
M  V30 12406 C 1179.56 -2.09359 -3.12803 0
M  V30 12407 C 1178.71 -2.06086 -1.85537 0
M  V30 12408 H 1181.66 -1.43989 -0.667302 0
M  V30 12409 H 1181.68 -1.76996 -3.36828 0
M  V30 12410 H 1181.2 -3.18555 -2.21685 0
M  V30 12411 H 1179.3 -1.1147 -3.55535 0
M  V30 12412 H 1179.41 -2.98947 -3.74389 0
M  V30 12413 H 1177.77 -1.51251 -2.04928 0
M  V30 12414 H 1178.56 -3.08978 -1.49625 0
M  V30 12415 N 1181 1.07532 -1.15215 0
M  V30 12416 C 1182.25 1.8036 -0.927263 0
M  V30 12417 C 1182.58 1.86414 0.544371 0
M  V30 12418 O 1181.86 1.34653 1.40353 0
M  V30 12419 C 1182.14 3.25512 -1.53992 0
M  V30 12420 C 1181.99 3.27614 -3.08203 0
M  V30 12421 C 1183.31 4.22731 -1.22418 0
M  V30 12422 H 1180.43 0.654775 -0.338289 0
M  V30 12423 H 1183.07 1.25842 -1.42351 0
M  V30 12424 H 1181.22 3.72068 -1.11791 0
M  V30 12425 H 1182.89 2.89315 -3.59297 0
M  V30 12426 H 1181.14 2.66627 -3.42188 0
M  V30 12427 H 1181.81 4.29956 -3.46182 0
M  V30 12428 H 1184.28 3.84557 -1.58919 0
M  V30 12429 H 1183.16 5.22589 -1.67906 0
M  V30 12430 H 1183.42 4.41875 -0.14091 0
M  V30 12431 N 1182.48 0.948665 1.2585 0
M  V30 12432 C 1183.9 0.652147 1.45668 0
M  V30 12433 C 1184.1 -0.792217 1.85273 0
M  V30 12434 O 1183.15 -1.56812 1.97905 0
M  V30 12435 C 1184.47 1.61998 2.53332 0
M  V30 12436 C 1186.01 1.6305 2.67178 0
M  V30 12437 C 1186.49 2.58582 3.78021 0
M  V30 12438 N 1187.98 2.56911 3.85423 0
M  V30 12439 C 1188.71 3.27511 4.70664 0
M  V30 12440 N 1188.21 4.07563 5.60236 0
M  V30 12441 N 1190 3.16427 4.64576 0
M  V30 12442 H 1182.15 1.88215 0.984325 0
M  V30 12443 H 1184.42 0.809251 0.493778 0
M  V30 12444 H 1184.12 2.65137 2.31075 0
M  V30 12445 H 1184 1.37784 3.51134 0
M  V30 12446 H 1186.38 0.606315 2.88804 0
M  V30 12447 H 1186.47 1.9132 1.69795 0
M  V30 12448 H 1186.11 3.61122 3.57146 0
M  V30 12449 H 1186.04 2.27598 4.74875 0
M  V30 12450 H 1188.53 1.9879 3.21389 0
M  V30 12451 H 1188.84 4.58367 6.22189 0
M  V30 12452 H 1187.19 4.11662 5.59964 0
M  V30 12453 H 1190.38 2.53364 3.93604 0
M  V30 12454 H 1190.55 3.71714 5.30785 0
M  V30 12455 N 1183.96 -1.40369 0.716545 0
M  V30 12456 C 1185.2 -2.01657 0.265674 0
M  V30 12457 C 1185.56 -1.55803 -1.12886 0
M  V30 12458 O 1184.85 -0.76863 -1.75507 0
M  V30 12459 C 1185.05 -3.56257 0.285583 0
M  V30 12460 C 1184.88 -4.1712 1.68051 0
M  V30 12461 C 1183.65 -4.50512 2.28839 0
M  V30 12462 C 1185.84 -4.41913 2.63092 0
M  V30 12463 N 1183.83 -4.96774 3.60679 0
M  V30 12464 C 1185.2 -4.90179 3.79638 0
M  V30 12465 C 1187.25 -4.23953 2.61091 0
M  V30 12466 C 1185.95 -5.22369 4.94493 0
M  V30 12467 C 1187.98 -4.57246 3.75074 0
M  V30 12468 C 1187.34 -5.05701 4.90353 0
M  V30 12469 H 1183.44 -0.768801 0.14307 0
M  V30 12470 H 1186.03 -1.70585 0.938548 0
M  V30 12471 H 1184.2 -3.86757 -0.35686 0
M  V30 12472 H 1185.93 -4.0429 -0.182091 0
M  V30 12473 H 1182.68 -4.37678 1.80929 0
M  V30 12474 H 1183.11 -5.24286 4.28315 0
M  V30 12475 H 1187.75 -3.8571 1.73169 0
M  V30 12476 H 1185.47 -5.59526 5.83058 0
M  V30 12477 H 1189.05 -4.44989 3.74802 0
M  V30 12478 H 1187.93 -5.30977 5.77091 0
M  V30 12479 N 1185.44 -0.462799 -1.50652 0
M  V30 12480 C 1186.66 0.0929761 -2.06691 0
M  V30 12481 C 1187.08 1.34241 -1.32758 0
M  V30 12482 O 1186.44 1.78187 -0.394427 0
M  V30 12483 C 1186.49 0.389492 -3.59396 0
M  V30 12484 O 1186.21 -0.810379 -4.3054 0
M  V30 12485 C 1187.71 0.993147 -4.32032 0
M  V30 12486 H 1184.93 -0.00338664 -0.670991 0
M  V30 12487 H 1187.47 -0.649201 -1.93922 0
M  V30 12488 H 1185.63 1.08159 -3.71995 0
M  V30 12489 H 1186.04 -0.54996 -5.21609 0
M  V30 12490 H 1187.52 1.15044 -5.39878 0
M  V30 12491 H 1187.99 1.98106 -3.91983 0
M  V30 12492 H 1188.6 0.339677 -4.23941 0
M  V30 12493 N 1186.91 1.56388 -0.195085 0
M  V30 12494 C 1187.88 2.17859 0.712053 0
M  V30 12495 C 1188.88 1.13304 1.141 0
M  V30 12496 O 1190.07 1.38689 1.05409 0
M  V30 12497 C 1187.2 2.78065 1.97213 0
M  V30 12498 H 1188.39 2.9938 0.176529 0
M  V30 12499 H 1185.95 1.56205 0.0545322 0
M  V30 12500 H 1186.68 2.00342 2.55017 0
M  V30 12501 H 1186.47 3.54603 1.67329 0
M  V30 12502 H 1187.96 3.25266 2.619 0
M  V30 12503 N 1188.39 -0.0785156 1.57404 0
M  V30 12504 C 1189.8 -0.631132 1.75709 0
M  V30 12505 C 1190.15 -1.78261 0.819605 0
M  V30 12506 O 1189.28 -2.164 0.00206912 0
M  V30 12507 C 1189.87 -1.15168 3.18625 0
M  V30 12508 C 1188.43 -1.65021 3.38297 0
M  V30 12509 C 1187.58 -0.566773 2.71446 0
M  V30 12510 H 1190.53 0.147631 1.58012 0
M  V30 12511 H 1190.55 -2.02065 3.22413 0
M  V30 12512 H 1190.06 -0.313399 3.86833 0
M  V30 12513 H 1188.17 -2.51196 2.75194 0
M  V30 12514 H 1188.28 -1.73179 4.46706 0
M  V30 12515 H 1186.64 -1.01021 2.33809 0
M  V30 12516 H 1187.43 0.261204 3.42305 0
M  V30 12517 N 1189.87 -1.5367 -0.349747 0
M  V30 12518 C 1190.78 -1.84207 -1.45275 0
M  V30 12519 C 1191.8 -0.731695 -1.57868 0
M  V30 12520 O 1192.97 -1.02337 -1.73462 0
M  V30 12521 C 1190.04 -2.0398 -2.80345 0
M  V30 12522 C 1189.1 -3.27853 -2.77148 0
M  V30 12523 C 1188.33 -3.46673 -4.05775 0
M  V30 12524 O 1188.55 -2.69457 -5.02741 0
M  V30 12525 O 1187.49 -4.40082 -4.10623 0
M  V30 12526 H 1191.31 -2.77947 -1.22389 0
M  V30 12527 H 1188.9 -1.39247 -0.541345 0
M  V30 12528 H 1190.78 -2.18466 -3.60348 0
M  V30 12529 H 1189.46 -1.13429 -3.03176 0
M  V30 12530 H 1188.36 -3.18776 -1.95787 0
M  V30 12531 H 1189.7 -4.18377 -2.59271 0
M  V30 12532 N 1191.35 0.610423 -1.45298 0
M  V30 12533 C 1192.31 1.70324 -1.5337 0
M  V30 12534 C 1193.31 1.55393 -0.413492 0
M  V30 12535 O 1194.5 1.60512 -0.676872 0
M  V30 12536 C 1191.63 3.09572 -1.42752 0
M  V30 12537 H 1192.83 1.64535 -2.50736 0
M  V30 12538 H 1190.38 0.825906 -1.32697 0
M  V30 12539 H 1191.11 3.2094 -0.465601 0
M  V30 12540 H 1190.9 3.21817 -2.24 0
M  V30 12541 H 1192.39 3.89178 -1.51427 0
M  V30 12542 N 1192.83 1.32541 0.852676 0
M  V30 12543 C 1194.08 1.22567 1.60188 0
M  V30 12544 C 1194.39 -0.210594 1.94463 0
M  V30 12545 O 1195.59 -0.432214 2.68038 0
M  V30 12546 C 1194.05 2.14678 2.88862 0
M  V30 12547 C 1193.66 3.63398 2.62004 0
M  V30 12548 C 1195.4 2.13545 3.66877 0
M  V30 12549 C 1193.31 4.47464 3.86691 0
M  V30 12550 H 1192.24 0.455184 0.601102 0
M  V30 12551 H 1194.89 1.57515 0.941347 0
M  V30 12552 H 1193.27 1.72647 3.56383 0
M  V30 12553 H 1194.45 4.13783 2.02782 0
M  V30 12554 H 1192.76 3.66681 1.97316 0
M  V30 12555 H 1195.36 2.73589 4.59405 0
M  V30 12556 H 1195.7 1.12694 4.00756 0
M  V30 12557 H 1196.23 2.53866 3.06263 0
M  V30 12558 H 1192.97 5.49136 3.57952 0
M  V30 12559 H 1192.49 4.01829 4.45302 0
M  V30 12560 H 1194.17 4.60565 4.5441 0
M  V30 12561 N 1194.3 -1.0692 1.15784 0
M  V30 12562 C 1195.24 -2.14168 0.816375 0
M  V30 12563 C 1196.25 -1.61872 -0.17357 0
M  V30 12564 O 1197.44 -1.78429 0.0502973 0
M  V30 12565 C 1194.54 -3.38346 0.193682 0
M  V30 12566 C 1193.71 -4.19979 1.22215 0
M  V30 12567 C 1192.77 -5.2253 0.620424 0
M  V30 12568 O 1191.8 -5.54446 1.28757 0
M  V30 12569 N 1193 -5.77434 -0.595811 0
M  V30 12570 H 1195.76 -2.44062 1.73937 0
M  V30 12571 H 1193.32 -1.22865 1.05431 0
M  V30 12572 H 1195.32 -4.04092 -0.22174 0
M  V30 12573 H 1193.89 -3.06129 -0.632735 0
M  V30 12574 H 1193.11 -3.49984 1.81397 0
M  V30 12575 H 1194.39 -4.71329 1.91641 0
M  V30 12576 H 1193.79 -5.5376 -1.15611 0
M  V30 12577 H 1192.35 -6.44788 -0.953529 0
M  V30 12578 N 1195.78 -0.955326 -1.25345 0
M  V30 12579 C 1197.01 -0.626783 -1.96863 0
M  V30 12580 C 1197.42 0.80547 -1.71198 0
M  V30 12581 O 1196.76 1.55049 -0.985163 0
M  V30 12582 C 1196.83 -0.806404 -3.50339 0
M  V30 12583 C 1196.49 -2.21595 -3.99681 0
M  V30 12584 C 1197.49 -3.19268 -4.10322 0
M  V30 12585 C 1195.17 -2.54032 -4.33328 0
M  V30 12586 C 1197.17 -4.47471 -4.53926 0
M  V30 12587 C 1194.85 -3.82465 -4.76617 0
M  V30 12588 C 1195.85 -4.78997 -4.86879 0
M  V30 12589 O 1195.54 -6.0514 -5.29208 0
M  V30 12590 H 1195.27 -0.233854 -0.634262 0
M  V30 12591 H 1197.82 -1.28232 -1.60455 0
M  V30 12592 H 1196.05 -0.0937184 -3.86586 0
M  V30 12593 H 1197.74 -0.47881 -4.03066 0
M  V30 12594 H 1198.51 -2.95534 -3.84558 0
M  V30 12595 H 1194.39 -1.79623 -4.24566 0
M  V30 12596 H 1197.93 -5.22819 -4.6185 0
M  V30 12597 H 1193.83 -4.06005 -5.01827 0
M  V30 12598 H 1194.6 -6.08527 -5.47392 0
M  V30 12599 N 1197.26 1.39987 -0.723979 0
M  V30 12600 C 1198.68 1.54547 -0.398403 0
M  V30 12601 C 1198.88 1.69348 1.09194 0
M  V30 12602 O 1197.93 1.68778 1.87804 0
M  V30 12603 C 1199.25 2.76929 -1.1718 0
M  V30 12604 C 1200.79 2.90754 -1.15893 0
M  V30 12605 C 1201.27 4.16059 -1.91465 0
M  V30 12606 N 1202.76 4.23076 -1.88576 0
M  V30 12607 C 1203.5 5.18957 -2.43867 0
M  V30 12608 N 1202.99 6.20695 -3.0775 0
M  V30 12609 N 1204.78 5.11095 -2.33962 0
M  V30 12610 H 1196.94 1.28626 -1.69024 0
M  V30 12611 H 1199.2 0.6226 -0.714894 0
M  V30 12612 H 1198.9 2.72298 -2.22591 0
M  V30 12613 H 1198.78 3.69279 -0.768941 0
M  V30 12614 H 1201.17 2.94884 -0.112978 0
M  V30 12615 H 1201.25 1.99498 -1.60107 0
M  V30 12616 H 1200.89 4.12691 -2.96055 0
M  V30 12617 H 1200.82 5.06339 -1.44665 0
M  V30 12618 H 1203.31 3.50195 -1.42027 0
M  V30 12619 H 1203.62 6.90296 -3.47435 0
M  V30 12620 H 1201.97 6.21114 -3.11837 0
M  V30 12621 H 1205.16 4.30546 -1.83706 0
M  V30 12622 H 1205.33 5.85644 -2.77353 0
M  V30 12623 N 1198.74 0.470782 1.50404 0
M  V30 12624 C 1199.69 -0.32355 2.28521 0
M  V30 12625 C 1200.66 -0.987472 1.3356 0
M  V30 12626 O 1201.84 -0.999969 1.62497 0
M  V30 12627 C 1198.98 -1.39977 3.15437 0
M  V30 12628 C 1198.09 -0.750656 4.25428 0
M  V30 12629 C 1197.23 -1.80474 4.99602 0
M  V30 12630 C 1196.27 -1.13586 6.01469 0
M  V30 12631 N 1195.41 -2.13279 6.68922 0
M  V30 12632 H 1200.25 0.348902 2.9595 0
M  V30 12633 H 1197.78 0.183908 1.45946 0
M  V30 12634 H 1199.74 -2.0354 3.6418 0
M  V30 12635 H 1198.37 -2.04139 2.50054 0
M  V30 12636 H 1197.42 -0.00247092 3.804 0
M  V30 12637 H 1198.73 -0.222638 4.98303 0
M  V30 12638 H 1197.89 -2.51619 5.52062 0
M  V30 12639 H 1196.63 -2.36657 4.26433 0
M  V30 12640 H 1195.63 -0.410042 5.48269 0
M  V30 12641 H 1196.86 -0.580935 6.76611 0
M  V30 12642 H 1194.8 -2.68479 5.98544 0
M  V30 12643 H 1194.72 -1.65461 7.37671 0
M  V30 12644 H 1195.99 -2.83804 7.26 0
M  V30 12645 N 1200.22 -1.56282 0.203376 0
M  V30 12646 C 1201.46 -1.97812 -0.433202 0
M  V30 12647 C 1201.79 -1.09052 -1.61053 0
M  V30 12648 O 1201.05 -0.131417 -1.95258 0
M  V30 12649 C 1201.35 -3.45148 -0.927759 0
M  V30 12650 C 1201.01 -4.50692 0.137083 0
M  V30 12651 C 1199.67 -4.79278 0.429652 0
M  V30 12652 C 1202.03 -5.14086 0.858174 0
M  V30 12653 C 1199.35 -5.68547 1.44815 0
M  V30 12654 C 1201.71 -6.04457 1.86588 0
M  V30 12655 C 1200.37 -6.31395 2.16556 0
M  V30 12656 H 1199.64 -0.723846 -0.15852 0
M  V30 12657 H 1202.29 -1.89102 0.302082 0
M  V30 12658 H 1200.59 -3.5097 -1.74147 0
M  V30 12659 H 1202.29 -3.74642 -1.42984 0
M  V30 12660 H 1198.88 -4.28481 -0.101111 0
M  V30 12661 H 1203.06 -4.92086 0.645376 0
M  V30 12662 H 1198.32 -5.87689 1.68615 0
M  V30 12663 H 1202.49 -6.52636 2.4298 0
M  V30 12664 H 1200.12 -7.00366 2.9562 0
M  V30 12665 N 1201.7 0.070167 -1.57444 0
M  V30 12666 C 1202.92 0.781894 -1.91557 0
M  V30 12667 C 1203.34 1.71037 -0.799489 0
M  V30 12668 O 1202.7 1.81082 0.227062 0
M  V30 12669 C 1202.75 1.57415 -3.25427 0
M  V30 12670 O 1202.47 0.682991 -4.32743 0
M  V30 12671 C 1203.97 2.38673 -3.73564 0
M  V30 12672 H 1201.19 0.222211 -0.633138 0
M  V30 12673 H 1203.73 0.0399504 -2.04461 0
M  V30 12674 H 1201.89 2.26835 -3.14045 0
M  V30 12675 H 1202.3 1.2342 -5.09772 0
M  V30 12676 H 1203.78 2.89716 -4.6986 0
M  V30 12677 H 1204.25 3.18269 -3.02657 0
M  V30 12678 H 1204.86 1.74405 -3.87896 0
M  V30 12679 N 1203.17 1.53854 0.341593 0
M  V30 12680 C 1204.4 1.75447 1.10604 0
M  V30 12681 C 1204.82 0.493225 1.81518 0
M  V30 12682 O 1204.18 -0.554253 1.7262 0
M  V30 12683 C 1204.23 2.93593 2.09369 0
M  V30 12684 O 1203.33 2.63878 3.16926 0
M  V30 12685 H 1202.67 0.581923 0.319783 0
M  V30 12686 H 1205.2 2.00822 0.391388 0
M  V30 12687 H 1205.21 3.20437 2.52556 0
M  V30 12688 H 1203.89 3.85067 1.57151 0
M  V30 12689 H 1202.47 2.47929 2.78542 0
M  V30 12690 N 1204.65 -0.602709 1.4562 0
M  V30 12691 C 1205.61 -1.69508 1.54271 0
M  V30 12692 C 1206.61 -1.55171 0.421727 0
M  V30 12693 O 1207.8 -1.60151 0.685375 0
M  V30 12694 C 1204.94 -3.0881 1.44392 0
M  V30 12695 H 1206.13 -1.63203 2.51605 0
M  V30 12696 H 1203.68 -0.818857 1.33133 0
M  V30 12697 H 1204.42 -3.20689 0.482614 0
M  V30 12698 H 1204.2 -3.20625 2.25704 0
M  V30 12699 H 1205.69 -3.8837 1.53488 0
M  V30 12700 N 1206.13 -1.32992 -0.845635 0
M  V30 12701 C 1207.35 -1.27231 -1.6379 0
M  V30 12702 C 1207.78 0.155141 -1.87459 0
M  V30 12703 O 1207.14 1.10953 -1.43384 0
M  V30 12704 C 1207.19 -2.04629 -2.96916 0
M  V30 12705 O 1206.29 -1.40027 -3.879 0
M  V30 12706 H 1205.63 -0.438045 -0.499011 0
M  V30 12707 H 1208.16 -1.75448 -1.05257 0
M  V30 12708 H 1208.17 -2.15141 -3.46667 0
M  V30 12709 H 1206.85 -3.08425 -2.79011 0
M  V30 12710 H 1205.42 -1.38118 -3.46378 0
M  V30 12711 N 1207.61 1.06304 -1.1635 0
M  V30 12712 C 1208.88 1.75916 -0.855166 0
M  V30 12713 C 1209.26 2.0094 0.647024 0
M  V30 12714 O 1208.61 1.63642 1.59479 0
M  V30 12715 C 1208.82 3.06028 -1.67774 0
M  V30 12716 C 1210.17 3.80184 -1.89065 0
M  V30 12717 O 1211.19 3.15868 -1.64639 0
M  V30 12718 O 1210.05 4.95723 -2.30045 0
M  V30 12719 H 1207.15 0.764432 -0.315551 0
M  V30 12720 H 1209.69 1.12574 -1.26985 0
M  V30 12721 H 1208.47 2.83498 -2.69712 0
M  V30 12722 H 1208.09 3.77104 -1.26009 0
M  V30 12723 N 1209.09 0.96196 1.24836 0
M  V30 12724 C 1210.33 0.621634 1.93038 0
M  V30 12725 C 1210.66 -0.840257 1.75081 0
M  V30 12726 O 1209.94 -1.60381 1.10038 0
M  V30 12727 C 1210.22 0.990107 3.46221 0
M  V30 12728 C 1210.08 2.50827 3.73371 0
M  V30 12729 C 1211.39 0.520478 4.37011 0
M  V30 12730 H 1208.51 0.227312 0.701069 0
M  V30 12731 H 1211.16 1.19993 1.47315 0
M  V30 12732 H 1209.31 0.498008 3.85295 0
M  V30 12733 H 1210.98 3.07469 3.4389 0
M  V30 12734 H 1209.22 2.94277 3.18722 0
M  V30 12735 H 1209.89 2.71659 4.80526 0
M  V30 12736 H 1212.37 0.942703 4.05281 0
M  V30 12737 H 1211.24 0.806918 5.42937 0
M  V30 12738 H 1211.5 -0.579507 4.38285 0
M  V30 12739 N 1210.56 -1.39601 0.731392 0
M  V30 12740 C 1211.81 -2.01364 0.287048 0
M  V30 12741 C 1212.16 -1.56991 -1.11227 0
M  V30 12742 O 1211.46 -0.787202 -1.74682 0
M  V30 12743 C 1211.65 -3.55934 0.323352 0
M  V30 12744 C 1211.48 -4.15314 1.72466 0
M  V30 12745 C 1210.25 -4.48059 2.33605 0
M  V30 12746 C 1212.45 -4.39098 2.67764 0
M  V30 12747 N 1210.43 -4.9292 3.65927 0
M  V30 12748 C 1211.8 -4.86124 3.84816 0
M  V30 12749 C 1213.86 -4.2116 2.65572 0
M  V30 12750 C 1212.56 -5.17095 5.00005 0
M  V30 12751 C 1214.59 -4.53242 3.79902 0
M  V30 12752 C 1213.95 -5.00471 4.95689 0
M  V30 12753 H 1210.05 -0.76724 0.151217 0
M  V30 12754 H 1212.63 -1.6958 0.956588 0
M  V30 12755 H 1210.8 -3.87114 -0.315819 0
M  V30 12756 H 1212.53 -4.04461 -0.1392 0
M  V30 12757 H 1209.29 -4.35734 1.85561 0
M  V30 12758 H 1209.71 -5.19713 4.33851 0
M  V30 12759 H 1214.35 -3.83852 1.77251 0
M  V30 12760 H 1212.07 -5.5331 5.8896 0
M  V30 12761 H 1215.66 -4.40988 3.795 0
M  V30 12762 H 1214.54 -5.24826 5.8269 0
M  V30 12763 N 1212.04 -0.478751 -1.50152 0
M  V30 12764 C 1213.27 0.0732929 -2.0727 0
M  V30 12765 C 1213.69 1.32066 -1.33941 0
M  V30 12766 O 1213.05 1.7707 -0.389367 0
M  V30 12767 C 1213.1 0.332528 -3.59064 0
M  V30 12768 O 1212.2 1.41158 -3.8749 0
M  V30 12769 H 1211.54 -0.0163684 -0.663798 0
M  V30 12770 H 1214.07 -0.671993 -1.9325 0
M  V30 12771 H 1214.08 0.570735 -4.03988 0
M  V30 12772 H 1212.76 -0.578934 -4.11851 0
M  V30 12773 H 1211.34 1.16008 -3.54396 0
M  V30 12774 N 1213.52 1.56172 -0.211661 0
M  V30 12775 C 1214.75 2.02135 0.427222 0
M  V30 12776 C 1215.16 1.09084 1.54587 0
M  V30 12777 O 1214.5 0.090906 1.83475 0
M  V30 12778 C 1214.56 3.44459 1.029 0
M  V30 12779 C 1214.23 4.56976 0.0470243 0
M  V30 12780 C 1215.22 5.14466 -0.749724 0
M  V30 12781 C 1212.91 5.02253 -0.0688634 0
M  V30 12782 C 1214.9 6.15696 -1.64916 0
M  V30 12783 C 1212.59 6.03323 -0.971844 0
M  V30 12784 C 1213.59 6.5992 -1.76055 0
M  V30 12785 O 1213.28 7.59024 -2.64837 0
M  V30 12786 H 1213.01 0.667008 0.109894 0
M  V30 12787 H 1215.56 2.02851 -0.322595 0
M  V30 12788 H 1213.79 3.4078 1.82772 0
M  V30 12789 H 1215.48 3.74128 1.57425 0
M  V30 12790 H 1216.25 4.80342 -0.670588 0
M  V30 12791 H 1212.13 4.57886 0.534889 0
M  V30 12792 H 1215.67 6.59798 -2.26521 0
M  V30 12793 H 1211.57 6.36869 -1.05203 0
M  V30 12794 H 1212.34 7.76508 -2.58801 0
M  V30 12795 N 1215 -0.0618163 1.57479 0
M  V30 12796 C 1216.25 -0.757569 1.87364 0
M  V30 12797 C 1216.57 -1.77607 0.805025 0
M  V30 12798 O 1215.84 -1.95202 -0.165216 0
M  V30 12799 H 1214.42 -0.28278 0.691408 0
M  V30 12800 H 1217.08 -0.0355354 1.94868 0
M  V30 12801 H 1216.18 -1.26758 2.85199 0
M  V30 12802 N 1216.48 -1.54033 -0.333429 0
M  V30 12803 C 1217.73 -1.70979 -1.07 0
M  V30 12804 C 1218.04 -0.485095 -1.89489 0
M  V30 12805 O 1219.24 -0.535712 -2.66162 0
M  V30 12806 C 1217.7 -3.02382 -1.95175 0
M  V30 12807 C 1217.31 -4.32223 -1.17844 0
M  V30 12808 C 1219.05 -3.28693 -2.68628 0
M  V30 12809 C 1216.96 -5.54693 -2.05109 0
M  V30 12810 H 1215.89 -0.637152 -0.403179 0
M  V30 12811 H 1218.54 -1.80529 -0.328839 0
M  V30 12812 H 1216.92 -2.86714 -2.73151 0
M  V30 12813 H 1218.1 -4.58626 -0.447089 0
M  V30 12814 H 1216.41 -4.12601 -0.561166 0
M  V30 12815 H 1219.01 -4.17385 -3.34207 0
M  V30 12816 H 1219.35 -2.46141 -3.35738 0
M  V30 12817 H 1219.88 -3.45183 -1.9772 0
M  V30 12818 H 1216.62 -6.39818 -1.42523 0
M  V30 12819 H 1216.14 -5.32524 -2.76005 0
M  V30 12820 H 1217.82 -5.90722 -2.63926 0
M  V30 12821 N 1217.95 0.594978 -1.45938 0
M  V30 12822 C 1219.2 1.35561 -1.50834 0
M  V30 12823 C 1219.53 1.93584 -0.154566 0
M  V30 12824 O 1218.81 1.75781 0.832541 0
M  V30 12825 C 1219.09 2.49414 -2.5974 0
M  V30 12826 C 1218.94 1.96506 -4.04605 0
M  V30 12827 C 1220.26 3.51505 -2.64825 0
M  V30 12828 H 1217.38 0.491549 -0.549134 0
M  V30 12829 H 1220.02 0.669536 -1.77812 0
M  V30 12830 H 1218.17 3.07939 -2.36866 0
M  V30 12831 H 1219.85 1.42533 -4.38728 0
M  V30 12832 H 1218.09 1.27418 -4.14665 0
M  V30 12833 H 1218.76 2.78636 -4.76515 0
M  V30 12834 H 1221.24 3.02841 -2.85353 0
M  V30 12835 H 1220.11 4.28641 -3.42867 0
M  V30 12836 H 1220.37 4.07942 -1.70399 0
M  V30 12837 N 1219.43 1.33438 0.838571 0
M  V30 12838 C 1220.37 1.18055 1.9529 0
M  V30 12839 C 1221.34 0.075958 1.62422 0
M  V30 12840 O 1222.53 0.23825 1.86988 0
M  V30 12841 C 1219.65 0.810795 3.28852 0
M  V30 12842 C 1218.7 1.92293 3.80691 0
M  V30 12843 S 1219.53 3.53395 4.02334 0
M  V30 12844 C 1220.69 3.18426 5.38846 0
M  V30 12845 H 1220.92 2.12384 2.08039 0
M  V30 12846 H 1218.46 1.18284 0.992385 0
M  V30 12847 H 1220.41 0.604235 4.06029 0
M  V30 12848 H 1219.07 -0.113894 3.13893 0
M  V30 12849 H 1218.27 1.61758 4.77337 0
M  V30 12850 H 1217.87 2.08617 3.10411 0
M  V30 12851 H 1220.16 2.6927 6.21691 0
M  V30 12852 H 1221.1 4.14153 5.74354 0
M  V30 12853 H 1221.51 2.55016 5.03614 0
M  V30 12854 N 1220.91 -1.05686 1.16912 0
M  V30 12855 C 1222.16 -1.79006 0.965835 0
M  V30 12856 C 1222.51 -1.85774 -0.500593 0
M  V30 12857 O 1221.8 -1.34282 -1.3667 0
M  V30 12858 C 1222 -3.22779 1.53455 0
M  V30 12859 C 1221.83 -3.30023 3.05474 0
M  V30 12860 C 1220.6 -3.396 3.74166 0
M  V30 12861 C 1222.8 -3.19376 4.03117 0
M  V30 12862 N 1220.78 -3.35923 5.13838 0
M  V30 12863 C 1222.15 -3.23013 5.2921 0
M  V30 12864 C 1224.2 -3.03304 3.94856 0
M  V30 12865 C 1222.91 -3.12228 6.48002 0
M  V30 12866 C 1224.93 -2.93859 5.13226 0
M  V30 12867 C 1224.29 -2.98124 6.38202 0
M  V30 12868 H 1220.39 -0.667577 0.407266 0
M  V30 12869 H 1222.98 -1.26025 1.48411 0
M  V30 12870 H 1221.15 -3.74143 1.04268 0
M  V30 12871 H 1222.88 -3.8431 1.26839 0
M  V30 12872 H 1219.64 -3.44654 3.24824 0
M  V30 12873 H 1220.06 -3.37567 5.86837 0
M  V30 12874 H 1224.7 -2.98848 2.99081 0
M  V30 12875 H 1222.42 -3.15439 7.43992 0
M  V30 12876 H 1226.01 -2.82501 5.0861 0
M  V30 12877 H 1224.89 -2.90882 7.28256 0
M  V30 12878 N 1222.39 -0.968567 -1.24324 0
M  V30 12879 C 1223.3 -0.50703 -2.29055 0
M  V30 12880 C 1224.31 0.432431 -1.68541 0
M  V30 12881 O 1225.49 0.30526 -1.99073 0
M  V30 12882 C 1222.56 0.194589 -3.46153 0
M  V30 12883 C 1221.62 -0.784805 -4.22066 0
M  V30 12884 C 1220.85 -0.116574 -5.33573 0
M  V30 12885 O 1221.07 1.09492 -5.59792 0
M  V30 12886 O 1220.01 -0.809171 -5.96436 0
M  V30 12887 H 1223.83 -1.3777 -2.70653 0
M  V30 12888 H 1221.42 -0.735645 -1.30033 0
M  V30 12889 H 1223.3 0.588684 -4.17268 0
M  V30 12890 H 1221.97 1.04021 -3.06531 0
M  V30 12891 H 1220.88 -1.22938 -3.53323 0
M  V30 12892 H 1222.21 -1.59887 -4.65507 0
M  V30 12893 N 1223.87 1.39211 -0.738786 0
M  V30 12894 C 1225.11 2.00733 -0.288817 0
M  V30 12895 C 1225.45 1.58494 1.1222 0
M  V30 12896 O 1224.72 0.815579 1.76575 0
M  V30 12897 C 1225 3.57928 -0.394956 0
M  V30 12898 C 1224.86 4.10174 -1.84601 0
M  V30 12899 C 1226.18 4.39548 0.220395 0
M  V30 12900 H 1223.29 0.729276 -0.106418 0
M  V30 12901 H 1225.94 1.65365 -0.935652 0
M  V30 12902 H 1224.09 3.88188 0.155744 0
M  V30 12903 H 1225.76 3.90618 -2.45388 0
M  V30 12904 H 1224 3.63593 -2.36607 0
M  V30 12905 H 1224.67 5.19305 -1.87152 0
M  V30 12906 H 1227.15 4.15354 -0.249098 0
M  V30 12907 H 1226.02 5.48778 0.115806 0
M  V30 12908 H 1226.29 4.22341 1.30691 0
M  V30 12909 N 1225.34 0.486708 1.49896 0
M  V30 12910 C 1226.28 -0.345627 2.25567 0
M  V30 12911 C 1227.26 -0.982794 1.29537 0
M  V30 12912 O 1228.44 -1.01569 1.58796 0
M  V30 12913 C 1225.57 -1.48555 3.04383 0
M  V30 12914 C 1224.61 -0.964196 4.15458 0
M  V30 12915 S 1225.45 0.133631 5.35333 0
M  V30 12916 C 1226.6 -1.00979 6.17701 0
M  V30 12917 H 1226.83 0.296677 2.95816 0
M  V30 12918 H 1224.37 0.271798 1.51989 0
M  V30 12919 H 1226.33 -2.13878 3.50381 0
M  V30 12920 H 1224.99 -2.09942 2.33631 0
M  V30 12921 H 1224.18 -1.81804 4.70067 0
M  V30 12922 H 1223.78 -0.388419 3.71978 0
M  V30 12923 H 1226.07 -1.91812 6.4978 0
M  V30 12924 H 1227.02 -0.502633 7.06314 0
M  V30 12925 H 1227.42 -1.27067 5.50013 0
M  V30 12926 N 1226.82 -1.56058 0.219941 0
M  V30 12927 C 1228.05 -2.031 -0.42014 0
M  V30 12928 C 1228.47 -1.09875 -1.52673 0
M  V30 12929 O 1227.83 -0.0866458 -1.81093 0
M  V30 12930 C 1227.88 -3.48389 -0.93047 0
M  V30 12931 O 1226.98 -3.583 -2.04192 0
M  V30 12932 H 1226.32 -0.657129 -0.0952772 0
M  V30 12933 H 1228.85 -2.01787 0.338105 0
M  V30 12934 H 1228.86 -3.88678 -1.2407 0
M  V30 12935 H 1227.54 -4.15725 -0.120539 0
M  V30 12936 H 1226.12 -3.29898 -1.73845 0
M  V30 12937 N 1228.3 0.053464 -1.57509 0
M  V30 12938 C 1229.53 0.760429 -1.92096 0
M  V30 12939 C 1229.94 1.70703 -0.815905 0
M  V30 12940 O 1229.28 1.82398 0.218332 0
M  V30 12941 C 1229.34 1.59255 -3.22301 0
M  V30 12942 C 1229.01 0.813355 -4.49704 0
M  V30 12943 C 1230.01 0.124402 -5.19751 0
M  V30 12944 C 1227.69 0.775106 -4.96284 0
M  V30 12945 C 1229.68 -0.59237 -6.34641 0
M  V30 12946 C 1227.37 0.0545728 -6.11076 0
M  V30 12947 C 1228.37 -0.627948 -6.80107 0
M  V30 12948 O 1228.06 -1.33683 -7.92707 0
M  V30 12949 H 1227.79 0.220287 -0.639101 0
M  V30 12950 H 1230.34 0.0224505 -2.05388 0
M  V30 12951 H 1228.57 2.37376 -3.05269 0
M  V30 12952 H 1230.26 2.17987 -3.42398 0
M  V30 12953 H 1231.03 0.145141 -4.84783 0
M  V30 12954 H 1226.91 1.29583 -4.42413 0
M  V30 12955 H 1230.45 -1.12565 -6.88458 0
M  V30 12956 H 1226.35 0.0318254 -6.45492 0
M  V30 12957 H 1227.12 -1.24799 -8.0893 0
M  V30 12958 N 1229.78 1.54207 0.325255 0
M  V30 12959 C 1231.03 1.71991 1.0613 0
M  V30 12960 C 1231.35 0.495505 1.88599 0
M  V30 12961 O 1230.62 -0.490504 1.8966 0
M  V30 12962 H 1229.2 0.634137 0.394816 0
M  V30 12963 H 1231.86 1.91507 0.362101 0
M  V30 12964 H 1230.96 2.59878 1.72829 0
M  V30 12965 N 1231.26 -0.58723 1.46251 0
M  V30 12966 C 1232.17 -1.72455 1.59048 0
M  V30 12967 C 1233.18 -1.67416 0.47413 0
M  V30 12968 O 1234.36 -1.87406 0.737633 0
M  V30 12969 C 1231.42 -3.08953 1.57318 0
M  V30 12970 C 1230.49 -3.25291 2.80151 0
M  V30 12971 C 1229.72 -4.55277 2.78493 0
M  V30 12972 O 1229.94 -5.38883 1.8698 0
M  V30 12973 O 1228.88 -4.74765 3.69975 0
M  V30 12974 H 1232.7 -1.64606 2.55223 0
M  V30 12975 H 1230.29 -0.753742 1.28993 0
M  V30 12976 H 1232.17 -3.90239 1.59033 0
M  V30 12977 H 1230.84 -3.17249 0.643025 0
M  V30 12978 H 1229.75 -2.43515 2.83991 0
M  V30 12979 H 1231.08 -3.21883 3.7236 0
M  V30 12980 N 1232.74 -1.33881 -0.831482 0
M  V30 12981 C 1234.15 -1.13376 -1.1233 0
M  V30 12982 C 1234.35 0.0704402 -2.01377 0
M  V30 12983 O 1233.41 0.748516 -2.4115 0
M  V30 12984 C 1234.72 -2.42484 -1.77826 0
M  V30 12985 C 1236.27 -2.4846 -1.90359 0
M  V30 12986 C 1236.74 -3.77548 -2.59272 0
M  V30 12987 N 1238.23 -3.7866 -2.66778 0
M  V30 12988 C 1238.97 -4.75258 -3.20807 0
M  V30 12989 N 1238.47 -5.82234 -3.75466 0
M  V30 12990 N 1240.26 -4.62724 -3.19128 0
M  V30 12991 H 1232.41 -2.11051 -0.238998 0
M  V30 12992 H 1234.67 -0.932893 -0.168565 0
M  V30 12993 H 1234.38 -3.30647 -1.19857 0
M  V30 12994 H 1234.25 -2.55186 -2.77777 0
M  V30 12995 H 1236.64 -1.60742 -2.47479 0
M  V30 12996 H 1236.72 -2.39693 -0.893359 0
M  V30 12997 H 1236.36 -4.65651 -2.02808 0
M  V30 12998 H 1236.29 -3.83594 -3.60781 0
M  V30 12999 H 1238.79 -3.01351 -2.28026 0
M  V30 13000 H 1239.1 -6.51968 -4.14918 0
M  V30 13001 H 1237.44 -5.85959 -3.73733 0
M  V30 13002 H 1240.63 -3.78303 -2.75688 0
M  V30 13003 H 1240.81 -5.38175 -3.60932 0
M  V30 13004 N 1234.21 1.05064 -1.1747 0
M  V30 13005 C 1235.62 1.59547 -0.969628 0
M  V30 13006 C 1235.98 1.90153 0.483332 0
M  V30 13007 O 1235.1 1.68415 1.35887 0
M  V30 13008 C 1235.7 2.89877 -1.75377 0
M  V30 13009 C 1234.25 3.41013 -1.59332 0
M  V30 13010 C 1233.4 2.1473 -1.7546 0
M  V30 13011 H 1236.35 0.878595 -1.3216 0
M  V30 13012 H 1236.37 3.59834 -1.23691 0
M  V30 13013 H 1235.89 2.67569 -2.8112 0
M  V30 13014 H 1233.99 3.68355 -0.560827 0
M  V30 13015 H 1234.1 4.15512 -2.38509 0
M  V30 13016 H 1232.46 2.25553 -1.18313 0
M  V30 13017 H 1233.25 1.9489 -2.82618 0
M  V30 13018 N 1235.69 0.975146 1.23809 0
M  V30 13019 C 1236.92 0.658023 1.95841 0
M  V30 13020 C 1237.33 -0.778132 1.72458 0
M  V30 13021 O 1236.67 -1.53462 1.00971 0
M  V30 13022 C 1236.73 0.862038 3.49012 0
M  V30 13023 C 1236.4 2.27925 3.96105 0
M  V30 13024 C 1237.4 3.25755 4.05191 0
M  V30 13025 C 1235.08 2.60894 4.29231 0
M  V30 13026 C 1237.07 4.54636 4.46749 0
M  V30 13027 C 1234.76 3.89999 4.70472 0
M  V30 13028 C 1235.76 4.86682 4.79197 0
M  V30 13029 O 1235.45 6.13483 5.19513 0
M  V30 13030 H 1235.18 0.243915 0.630461 0
M  V30 13031 H 1237.73 1.30768 1.58395 0
M  V30 13032 H 1235.96 0.155209 3.86388 0
M  V30 13033 H 1237.65 0.542873 4.02253 0
M  V30 13034 H 1238.42 3.01614 3.79808 0
M  V30 13035 H 1234.3 1.86355 4.21655 0
M  V30 13036 H 1237.84 5.30101 4.53474 0
M  V30 13037 H 1233.74 4.13937 4.95304 0
M  V30 13038 H 1234.51 6.17158 5.37641 0
M  V30 13039 N 1237.17 -1.38817 0.746158 0
M  V30 13040 C 1238.42 -2.01049 0.308389 0
M  V30 13041 C 1238.77 -1.58162 -1.09556 0
M  V30 13042 O 1238.06 -0.805685 -1.73837 0
M  V30 13043 C 1238.26 -3.55571 0.361086 0
M  V30 13044 C 1238.09 -4.13461 1.76861 0
M  V30 13045 C 1236.86 -4.45556 2.38344 0
M  V30 13046 C 1239.05 -4.36233 2.72406 0
M  V30 13047 N 1237.04 -4.89011 3.71135 0
M  V30 13048 C 1238.41 -4.82016 3.8995 0
M  V30 13049 C 1240.46 -4.1832 2.70024 0
M  V30 13050 C 1239.17 -5.11763 5.05462 0
M  V30 13051 C 1241.19 -4.49187 3.84688 0
M  V30 13052 C 1240.55 -4.95186 5.00969 0
M  V30 13053 H 1236.65 -0.765593 0.159346 0
M  V30 13054 H 1239.24 -1.68556 0.97452 0
M  V30 13055 H 1237.41 -3.87427 -0.274742 0
M  V30 13056 H 1239.14 -4.04585 -0.0962937 0
M  V30 13057 H 1235.89 -4.33741 1.90172 0
M  V30 13058 H 1236.32 -5.15082 4.39339 0
M  V30 13059 H 1240.96 -3.8195 1.81312 0
M  V30 13060 H 1238.68 -5.47032 5.94795 0
M  V30 13061 H 1242.26 -4.36938 3.84156 0
M  V30 13062 H 1241.14 -5.18616 5.88224 0
M  V30 13063 N 1238.65 -0.49465 -1.49636 0
M  V30 13064 C 1239.92 0.114829 -1.95263 0
M  V30 13065 C 1240.3 1.54739 -1.43593 0
M  V30 13066 O 1239.65 2.1915 -0.646953 0
M  V30 13067 C 1239.86 0.0339912 -3.48983 0
M  V30 13068 C 1241.21 0.211108 -4.24075 0
M  V30 13069 O 1242.23 0.109478 -3.56032 0
M  V30 13070 O 1241.09 0.418971 -5.44892 0
M  V30 13071 H 1238.19 0.0987883 -0.821078 0
M  V30 13072 H 1240.73 -0.556736 -1.60308 0
M  V30 13073 H 1239.51 -0.965287 -3.79207 0
M  V30 13074 H 1239.13 0.745982 -3.90539 0
M  V30 13075 N 1240.13 1.55939 -0.228214 0
M  V30 13076 C 1241.06 2.16566 0.719321 0
M  V30 13077 C 1242.04 1.11204 1.18627 0
M  V30 13078 O 1243.22 1.39495 1.2678 0
M  V30 13079 C 1240.35 2.75132 1.97536 0
M  V30 13080 C 1239.39 3.93381 1.64783 0
M  V30 13081 S 1240.23 5.29982 0.76678 0
M  V30 13082 C 1241.38 5.91989 2.03223 0
M  V30 13083 H 1241.62 2.96599 0.204035 0
M  V30 13084 H 1239.15 1.54395 -0.0128406 0
M  V30 13085 H 1241.11 3.09512 2.69652 0
M  V30 13086 H 1239.77 1.95079 2.46176 0
M  V30 13087 H 1238.96 4.32884 2.58122 0
M  V30 13088 H 1238.56 3.60181 1.00724 0
M  V30 13089 H 1240.85 6.08368 2.98152 0
M  V30 13090 H 1241.8 6.87858 1.68099 0
M  V30 13091 H 1242.21 5.20883 2.1758 0
M  V30 13092 N 1241.6 -0.0451101 1.57535 0
M  V30 13093 C 1242.83 -0.755068 1.93167 0
M  V30 13094 C 1243.25 -1.68949 0.826915 0
M  V30 13095 O 1242.61 -1.79978 -0.218534 0
M  V30 13096 C 1242.66 -1.50201 3.27829 0
M  V30 13097 O 1241.76 -2.61434 3.18945 0
M  V30 13098 H 1241.11 -0.204219 0.631815 0
M  V30 13099 H 1243.64 -0.00537504 2.04599 0
M  V30 13100 H 1243.65 -1.87547 3.6234 0
M  V30 13101 H 1242.32 -0.816591 4.07805 0
M  V30 13102 H 1240.9 -2.26749 2.96039 0
M  V30 13103 N 1243.08 -1.54377 -0.317073 0
M  V30 13104 C 1244.03 -1.84948 -1.41057 0
M  V30 13105 C 1245.02 -0.721887 -1.53249 0
M  V30 13106 O 1246.23 -0.905648 -1.55557 0
M  V30 13107 H 1242.61 -0.586353 -0.470844 0
M  V30 13108 H 1244.58 -2.7638 -1.12501 0
M  V30 13109 C 1243.33 -2.09932 -2.77171 0
M  V30 13110 H 1242.65 -2.96162 -2.68566 0
M  V30 13111 H 1244.09 -2.35272 -3.52737 0
M  V30 13112 C 1242.55 -0.892855 -3.24853 0
M  V30 13113 O 1243.08 -0.105336 -4.01562 0
M  V30 13114 N 1241.28 -0.702685 -2.81976 0
M  V30 13115 H 1240.83 -1.34474 -2.19715 0
M  V30 13116 H 1240.79 0.103024 -3.14231 0
M  V30 13117 N 1244.56 0.579466 -1.4656 0
M  V30 13118 C 1245.49 1.70291 -1.53406 0
M  V30 13119 C 1246.51 1.57232 -0.422116 0
M  V30 13120 O 1247.69 1.64598 -0.69064 0
M  V30 13121 C 1244.79 3.08572 -1.40131 0
M  V30 13122 C 1243.97 3.47602 -2.65502 0
M  V30 13123 C 1243.03 4.64955 -2.4638 0
M  V30 13124 O 1242.05 4.70653 -3.20116 0
M  V30 13125 N 1243.25 5.60041 -1.52756 0
M  V30 13126 H 1246.02 1.64873 -2.50274 0
M  V30 13127 H 1243.58 0.765533 -1.42658 0
M  V30 13128 H 1245.57 3.84877 -1.25106 0
M  V30 13129 H 1244.14 3.0834 -0.514322 0
M  V30 13130 H 1243.36 2.60969 -2.95446 0
M  V30 13131 H 1244.65 3.70446 -3.48779 0
M  V30 13132 H 1244.05 5.58176 -0.919587 0
M  V30 13133 H 1242.61 6.35764 -1.43693 0
M  V30 13134 N 1246.04 1.3432 0.824371 0
M  V30 13135 C 1247.32 1.17178 1.56616 0
M  V30 13136 C 1247.7 -0.256195 2.0954 0
M  V30 13137 O 1247.04 -1.25732 1.90798 0
M  V30 13138 C 1247.25 2.22511 2.68867 0
M  V30 13139 C 1248.6 2.57414 3.37673 0
M  V30 13140 O 1249.63 2.2129 2.79122 0
M  V30 13141 O 1248.48 3.19462 4.43403 0
M  V30 13142 H 1245.58 0.454141 0.691147 0
M  V30 13143 H 1248.12 1.45948 0.865869 0
M  V30 13144 H 1246.9 3.18366 2.27505 0
M  V30 13145 H 1246.52 1.9491 3.46548 0
M  V30 13146 N 1247.52 -1.0444 1.18026 0
M  V30 13147 C 1248.76 -1.77838 0.974756 0
M  V30 13148 C 1249.1 -1.87792 -0.494755 0
M  V30 13149 O 1248.37 -1.38327 -1.36733 0
M  V30 13150 C 1248.65 -3.21315 1.62569 0
M  V30 13151 C 1248.51 -3.19327 3.16781 0
M  V30 13152 C 1249.83 -4.19337 1.33583 0
M  V30 13153 H 1246.94 -0.645575 0.35553 0
M  V30 13154 H 1249.59 -1.22023 1.45638 0
M  V30 13155 H 1247.74 -3.68974 1.21617 0
M  V30 13156 H 1249.41 -2.79687 3.66842 0
M  V30 13157 H 1247.65 -2.57461 3.49137 0
M  V30 13158 H 1248.32 -4.20626 3.5746 0
M  V30 13159 H 1250.8 -3.80208 1.69059 0
M  V30 13160 H 1249.67 -5.17953 1.81702 0
M  V30 13161 H 1249.94 -4.41346 0.258016 0
M  V30 13162 N 1248.99 -0.981699 -1.2329 0
M  V30 13163 C 1250.24 -0.646818 -1.91048 0
M  V30 13164 C 1250.56 0.823479 -1.77421 0
M  V30 13165 O 1251.76 1.26948 -2.39993 0
M  V30 13166 C 1250.22 -1.1063 -3.42475 0
M  V30 13167 C 1249.83 -2.60103 -3.6476 0
M  V30 13168 C 1251.57 -0.845227 -4.16 0
M  V30 13169 C 1249.48 -2.99712 -5.0983 0
M  V30 13170 H 1248.41 -0.238221 -0.715379 0
M  V30 13171 H 1251.06 -1.18977 -1.39702 0
M  V30 13172 H 1249.44 -0.491554 -3.92937 0
M  V30 13173 H 1250.61 -3.26828 -3.24839 0
M  V30 13174 H 1248.93 -2.83972 -3.04547 0
M  V30 13175 H 1251.53 -1.11699 -5.22903 0
M  V30 13176 H 1251.87 0.218661 -4.15725 0
M  V30 13177 H 1252.4 -1.42162 -3.7153 0
M  V30 13178 H 1249.14 -4.0523 -5.15237 0
M  V30 13179 H 1248.66 -2.37683 -5.50697 0
M  V30 13180 H 1250.34 -2.9039 -5.78172 0
M  V30 13181 N 1250.47 1.3842 -0.753509 0
M  V30 13182 C 1251.42 2.30457 -0.12574 0
M  V30 13183 C 1252.39 1.50173 0.709728 0
M  V30 13184 O 1253.57 1.78804 0.665872 0
M  V30 13185 C 1250.71 3.36593 0.761503 0
M  V30 13186 C 1249.83 4.31909 -0.0885848 0
M  V30 13187 C 1248.96 5.25116 0.801655 0
M  V30 13188 C 1248 6.12078 -0.0520719 0
M  V30 13189 N 1247.14 6.97583 0.795124 0
M  V30 13190 H 1251.98 2.83567 -0.916187 0
M  V30 13191 H 1249.52 1.39609 -0.463436 0
M  V30 13192 H 1251.47 3.96738 1.29054 0
M  V30 13193 H 1250.1 2.84894 1.51774 0
M  V30 13194 H 1249.16 3.73227 -0.735249 0
M  V30 13195 H 1250.47 4.93161 -0.747899 0
M  V30 13196 H 1249.62 5.90377 1.39786 0
M  V30 13197 H 1248.36 4.6423 1.4947 0
M  V30 13198 H 1247.37 5.45813 -0.660946 0
M  V30 13199 H 1248.59 6.75032 -0.742178 0
M  V30 13200 H 1246.54 6.39246 1.47312 0
M  V30 13201 H 1246.45 7.55754 0.192705 0
M  V30 13202 H 1247.72 7.67254 1.3763 0
M  V30 13203 N 1251.95 0.502579 1.49372 0
M  V30 13204 C 1252.91 -0.263993 2.27675 0
M  V30 13205 C 1253.91 -0.892538 1.33755 0
M  V30 13206 O 1255.1 -0.756826 1.56901 0
M  V30 13207 C 1252.24 -1.37895 3.11765 0
M  V30 13208 H 1253.43 0.423132 2.969 0
M  V30 13209 H 1250.98 0.257595 1.54163 0
M  V30 13210 H 1251.72 -2.10018 2.47109 0
M  V30 13211 H 1251.5 -0.933694 3.80821 0
M  V30 13212 H 1252.99 -1.91889 3.70902 0
M  V30 13213 N 1253.43 -1.55816 0.23648 0
M  V30 13214 C 1254.68 -1.97862 -0.391579 0
M  V30 13215 C 1254.99 -1.1276 -1.59827 0
M  V30 13216 O 1256.2 -1.44772 -2.29681 0
M  V30 13217 C 1254.65 -3.5204 -0.748065 0
M  V30 13218 C 1254.26 -4.45867 0.436643 0
M  V30 13219 C 1256 -4.02766 -1.3409 0
M  V30 13220 C 1253.91 -5.91373 0.0568909 0
M  V30 13221 H 1252.84 -0.738913 -0.150078 0
M  V30 13222 H 1255.49 -1.80415 0.335052 0
M  V30 13223 H 1253.87 -3.65143 -1.53254 0
M  V30 13224 H 1255.05 -4.44519 1.21408 0
M  V30 13225 H 1253.36 -4.05565 0.943702 0
M  V30 13226 H 1255.96 -5.08987 -1.63817 0
M  V30 13227 H 1256.3 -3.49496 -2.26182 0
M  V30 13228 H 1256.84 -3.92946 -0.619548 0
M  V30 13229 H 1253.58 -6.48657 0.944682 0
M  V30 13230 H 1253.1 -5.95881 -0.684557 0
M  V30 13231 H 1254.77 -6.45972 -0.364586 0
M  V30 13232 N 1254.91 0.036755 -1.57557 0
M  V30 13233 C 1255.82 1.05687 -2.09446 0
M  V30 13234 C 1256.83 1.40137 -1.03139 0
M  V30 13235 O 1258.01 1.49611 -1.34828 0
M  V30 13236 C 1255.07 2.34114 -2.55717 0
M  V30 13237 C 1254.13 2.06316 -3.76473 0
M  V30 13238 C 1253.37 3.2862 -4.20529 0
M  V30 13239 O 1253.59 4.3902 -3.64167 0
M  V30 13240 O 1252.52 3.14772 -5.13033 0
M  V30 13241 H 1256.35 0.64593 -2.96751 0
M  V30 13242 H 1253.94 0.253235 -1.47238 0
M  V30 13243 H 1255.82 3.09631 -2.85844 0
M  V30 13244 H 1254.49 2.74519 -1.71526 0
M  V30 13245 H 1253.4 1.28392 -3.51378 0
M  V30 13246 H 1254.73 1.70772 -4.61625 0
M  V30 13247 N 1256.39 1.54543 0.308881 0
M  V30 13248 C 1257.3 1.87994 1.4034 0
M  V30 13249 C 1258.31 0.773294 1.55872 0
M  V30 13250 O 1259.49 1.069 1.70688 0
M  V30 13251 C 1256.55 2.11341 2.74838 0
M  V30 13252 C 1255.61 3.35086 2.68358 0
M  V30 13253 C 1254.85 3.5731 3.96441 0
M  V30 13254 O 1255.07 2.82692 4.9542 0
M  V30 13255 O 1254 4.50814 3.98811 0
M  V30 13256 H 1257.83 2.81094 1.14976 0
M  V30 13257 H 1255.41 1.40634 0.504236 0
M  V30 13258 H 1257.3 2.27943 3.54429 0
M  V30 13259 H 1255.97 1.21427 3.00062 0
M  V30 13260 H 1254.88 3.23855 1.87267 0
M  V30 13261 H 1256.21 4.25104 2.48087 0
M  V30 13262 N 1257.86 -0.571685 1.46866 0
M  V30 13263 C 1259.11 -1.32685 1.52444 0
M  V30 13264 C 1259.43 -1.94147 0.182225 0
M  V30 13265 O 1258.7 -1.79159 -0.792385 0
M  V30 13266 H 1257.28 -0.492679 0.561495 0
M  V30 13267 H 1259.94 -0.668694 1.8307 0
M  V30 13268 H 1259.04 -2.12788 2.28315 0
M  V30 13269 N 1259.34 -1.34755 -0.817236 0
M  V30 13270 C 1260.57 -1.30333 -1.60303 0
M  V30 13271 C 1260.98 0.12357 -1.88796 0
M  V30 13272 O 1260.32 1.08279 -1.48396 0
M  V30 13273 C 1260.38 -2.03179 -2.96578 0
M  V30 13274 C 1260.05 -3.52414 -2.90952 0
M  V30 13275 C 1261.05 -4.47213 -2.65136 0
M  V30 13276 C 1258.73 -3.9491 -3.10405 0
M  V30 13277 C 1260.72 -5.82481 -2.58832 0
M  V30 13278 C 1258.41 -5.30277 -3.03726 0
M  V30 13279 C 1259.41 -6.23875 -2.77973 0
M  V30 13280 O 1259.1 -7.5676 -2.71237 0
M  V30 13281 H 1258.83 -0.449615 -0.5048 0
M  V30 13282 H 1261.38 -1.7803 -1.02443 0
M  V30 13283 H 1259.61 -1.50104 -3.56379 0
M  V30 13284 H 1261.3 -1.91972 -3.57633 0
M  V30 13285 H 1262.07 -4.157 -2.49836 0
M  V30 13286 H 1257.95 -3.22451 -3.29464 0
M  V30 13287 H 1261.49 -6.55508 -2.38652 0
M  V30 13288 H 1257.39 -5.61406 -3.1858 0
M  V30 13289 H 1258.16 -7.66562 -2.86923 0
M  V30 13290 N 1260.82 1.03812 -1.18578 0
M  V30 13291 C 1262.24 1.29271 -0.936011 0
M  V30 13292 C 1262.44 1.97551 0.396965 0
M  V30 13293 O 1261.49 2.25769 1.13069 0
M  V30 13294 C 1262.8 2.1489 -2.1034 0
M  V30 13295 C 1264.35 2.28228 -2.14198 0
M  V30 13296 C 1264.83 3.17214 -3.30362 0
M  V30 13297 N 1266.32 3.24802 -3.30239 0
M  V30 13298 C 1267.05 3.9382 -4.16765 0
M  V30 13299 N 1266.55 4.65147 -5.1343 0
M  V30 13300 N 1268.34 3.90125 -4.04671 0
M  V30 13301 H 1260.49 0.579011 -2.04356 0
M  V30 13302 H 1262.76 0.318021 -0.893066 0
M  V30 13303 H 1262.46 1.72029 -3.06755 0
M  V30 13304 H 1262.34 3.15576 -2.06619 0
M  V30 13305 H 1264.72 2.70324 -1.18359 0
M  V30 13306 H 1264.8 1.27124 -2.21976 0
M  V30 13307 H 1264.45 2.75829 -4.26475 0
M  V30 13308 H 1264.38 4.18356 -3.19821 0
M  V30 13309 H 1266.87 2.73994 -2.60261 0
M  V30 13310 H 1267.18 5.15414 -5.7582 0
M  V30 13311 H 1265.53 4.64043 -5.17387 0
M  V30 13312 H 1268.72 3.33536 -3.28438 0
M  V30 13313 H 1268.89 4.43641 -4.7232 0
M  V30 13314 N 1262.3 0.988223 1.22768 0
M  V30 13315 C 1263.23 0.554478 2.26821 0
M  V30 13316 C 1264.21 -0.416293 1.64927 0
M  V30 13317 O 1265.39 -0.30795 1.91743 0
M  V30 13318 C 1262.52 -0.136266 3.47033 0
M  V30 13319 C 1261.48 0.752575 4.21332 0
M  V30 13320 C 1260.8 -0.0708236 5.34653 0
M  V30 13321 C 1262.1 2.04717 4.80508 0
M  V30 13322 H 1263.8 1.42423 2.63355 0
M  V30 13323 H 1261.34 0.686267 1.26595 0
M  V30 13324 H 1263.3 -0.451068 4.18979 0
M  V30 13325 H 1262.02 -1.04053 3.09581 0
M  V30 13326 H 1260.68 1.05095 3.51213 0
M  V30 13327 H 1260.33 -0.975859 4.93443 0
M  V30 13328 H 1260.03 0.520835 5.85287 0
M  V30 13329 H 1261.55 -0.379828 6.09417 0
M  V30 13330 H 1262.97 1.79663 5.44421 0
M  V30 13331 H 1261.36 2.58726 5.41462 0
M  V30 13332 H 1262.43 2.72896 4.00819 0
M  V30 13333 N 1263.78 -1.38018 0.760839 0
M  V30 13334 C 1265.19 -1.82645 0.387022 0
M  V30 13335 C 1265.54 -1.63445 -1.08536 0
M  V30 13336 O 1264.66 -1.13958 -1.83963 0
M  V30 13337 C 1265.26 -3.3158 0.69569 0
M  V30 13338 C 1263.82 -3.74527 0.375063 0
M  V30 13339 C 1262.96 -2.60696 0.94515 0
M  V30 13340 H 1265.91 -1.26644 0.956396 0
M  V30 13341 H 1265.94 -3.80493 -0.0235511 0
M  V30 13342 H 1265.45 -3.45522 1.76737 0
M  V30 13343 H 1263.55 -3.6616 -0.689741 0
M  V30 13344 H 1263.66 -4.71029 0.875685 0
M  V30 13345 H 1262.03 -2.51997 0.370065 0
M  V30 13346 H 1262.81 -2.77434 2.02201 0
M  V30 13347 N 1265.25 -0.510493 -1.49103 0
M  V30 13348 C 1266.22 0.251915 -2.27811 0
M  V30 13349 C 1267.22 0.885432 -1.34226 0
M  V30 13350 O 1268.41 0.748494 -1.573 0
M  V30 13351 C 1265.54 1.3624 -3.12492 0
M  V30 13352 H 1266.73 -0.438872 -2.96671 0
M  V30 13353 H 1264.28 -0.265767 -1.54024 0
M  V30 13354 H 1265.02 2.08705 -2.48219 0
M  V30 13355 H 1264.8 0.913485 -3.81311 0
M  V30 13356 H 1266.29 1.89919 -3.71915 0
M  V30 13357 N 1266.73 1.55688 -0.24474 0
M  V30 13358 C 1268.14 1.84897 0.25882 0
M  V30 13359 C 1268.49 1.16653 1.57755 0
M  V30 13360 O 1267.62 0.444162 2.11793 0
M  V30 13361 C 1268.21 3.35434 0.476385 0
M  V30 13362 C 1266.77 3.64877 0.924213 0
M  V30 13363 C 1265.92 2.773 0.00021322 0
M  V30 13364 H 1268.87 1.51662 -0.467358 0
M  V30 13365 H 1268.89 3.56896 1.31929 0
M  V30 13366 H 1268.4 3.85076 -0.483567 0
M  V30 13367 H 1266.5 3.20711 1.89671 0
M  V30 13368 H 1266.62 4.72665 0.78257 0
M  V30 13369 H 1264.98 2.49517 0.511194 0
M  V30 13370 H 1265.76 3.29747 -0.955072 0
M  V30 13371 N 1268.21 -0.0283989 1.57574 0
M  V30 13372 C 1269.14 -1.06191 2.01987 0
M  V30 13373 C 1270.12 -1.35131 0.90434 0
M  V30 13374 O 1271.3 -1.47777 1.17023 0
M  V30 13375 C 1268.43 -2.39646 2.39348 0
M  V30 13376 C 1267.48 -2.26558 3.6135 0
M  V30 13377 S 1268.31 -1.61839 5.10459 0
M  V30 13378 C 1269.47 -2.96783 5.51063 0
M  V30 13379 H 1269.7 -0.683625 2.89333 0
M  V30 13380 H 1267.23 -0.238394 1.52548 0
M  V30 13381 H 1269.19 -3.16394 2.61544 0
M  V30 13382 H 1267.85 -2.74622 1.52452 0
M  V30 13383 H 1267.04 -3.25079 3.85149 0
M  V30 13384 H 1266.65 -1.57954 3.39008 0
M  V30 13385 H 1268.94 -3.93111 5.51788 0
M  V30 13386 H 1269.88 -2.77716 6.51367 0
M  V30 13387 H 1270.29 -2.99386 4.78569 0
M  V30 13388 N 1269.69 -1.54705 -0.300681 0
M  V30 13389 C 1270.96 -1.6468 -1.05546 0
M  V30 13390 C 1271.34 -0.495292 -2.05207 0
M  V30 13391 O 1270.69 0.507944 -2.22783 0
M  V30 13392 C 1270.9 -3.02702 -1.73703 0
M  V30 13393 C 1272.25 -3.59527 -2.25888 0
M  V30 13394 O 1273.27 -3.05156 -1.83735 0
M  V30 13395 O 1272.13 -4.54727 -3.03126 0
M  V30 13396 H 1269.23 -0.667769 -0.487867 0
M  V30 13397 H 1271.77 -1.6705 -0.298743 0
M  V30 13398 H 1270.55 -3.7795 -1.01338 0
M  V30 13399 H 1270.17 -3.0411 -2.5613 0
M  V30 13400 N 1271.17 0.563888 -1.47167 0
M  V30 13401 C 1272.41 1.33221 -1.55021 0
M  V30 13402 C 1272.77 1.90904 -0.204835 0
M  V30 13403 O 1273.97 2.68334 -0.158201 0
M  V30 13404 C 1272.24 2.41757 -2.63227 0
M  V30 13405 S 1273.8 3.28765 -2.90619 0
M  V30 13406 H 1270.62 0.453623 -0.547491 0
M  V30 13407 H 1273.22 0.646265 -1.84509 0
M  V30 13408 H 1271.93 1.97803 -3.59586 0
M  V30 13409 H 1271.46 3.151 -2.35532 0
M  V30 13410 H 1273.47 4.41065 -2.27323 0
M  V30 13411 N 1272.64 1.35187 0.810078 0
M  V30 13412 C 1274.06 1.25329 1.38381 0
M  V30 13413 C 1274.41 -0.115799 1.95858 0
M  V30 13414 O 1273.53 -1.01663 1.91033 0
M  V30 13415 C 1274.13 2.2693 2.51572 0
M  V30 13416 C 1272.69 2.20824 3.04818 0
M  V30 13417 C 1271.83 2.1283 1.7776 0
M  V30 13418 H 1274.78 1.46366 0.613402 0
M  V30 13419 H 1274.8 1.89375 3.30026 0
M  V30 13420 H 1274.32 3.26563 2.09709 0
M  V30 13421 H 1272.42 1.24589 3.51153 0
M  V30 13422 H 1272.53 3.12637 3.63036 0
M  V30 13423 H 1270.89 1.58752 1.99173 0
M  V30 13424 H 1271.68 3.14318 1.38054 0
M  V30 13425 N 1274.12 -1.03182 1.19127 0
M  V30 13426 C 1275.09 -2.09559 0.928307 0
M  V30 13427 C 1276.09 -1.60548 -0.0899992 0
M  V30 13428 O 1277.28 -1.736 0.144422 0
M  V30 13429 C 1274.41 -3.38609 0.394561 0
M  V30 13430 H 1275.6 -2.34321 1.87173 0
M  V30 13431 H 1273.15 -1.19746 1.00452 0
M  V30 13432 H 1273.89 -3.19515 -0.555046 0
M  V30 13433 H 1273.67 -3.75502 1.12873 0
M  V30 13434 H 1275.16 -4.16969 0.229569 0
M  V30 13435 N 1275.6 -0.99472 -1.22242 0
M  V30 13436 C 1276.85 -0.670275 -1.90661 0
M  V30 13437 C 1277.17 0.800369 -1.77818 0
M  V30 13438 O 1276.44 1.57381 -1.16653 0
M  V30 13439 H 1275.02 -0.244925 -0.705706 0
M  V30 13440 H 1277.68 -1.26162 -1.48557 0
M  V30 13441 H 1276.78 -0.934408 -2.97784 0
M  V30 13442 N 1277.08 1.37613 -0.768148 0
M  V30 13443 C 1278.01 2.3291 -0.165911 0
M  V30 13444 C 1278.99 1.556 0.687205 0
M  V30 13445 O 1280.17 1.83854 0.625407 0
M  V30 13446 C 1277.3 3.39822 0.7168 0
M  V30 13447 C 1276.26 4.27986 -0.0347264 0
M  V30 13448 C 1275.58 5.2588 0.967192 0
M  V30 13449 C 1276.88 5.08052 -1.21164 0
M  V30 13450 H 1278.58 2.83524 -0.962006 0
M  V30 13451 H 1276.12 1.36318 -0.464051 0
M  V30 13452 H 1278.08 4.05464 1.14789 0
M  V30 13453 H 1276.8 2.87725 1.54538 0
M  V30 13454 H 1275.46 3.6387 -0.446557 0
M  V30 13455 H 1275.11 4.70064 1.79022 0
M  V30 13456 H 1274.81 5.85726 0.468913 0
M  V30 13457 H 1276.33 5.94397 1.3973 0
M  V30 13458 H 1277.75 5.66853 -0.857373 0
M  V30 13459 H 1276.14 5.77206 -1.64176 0
M  V30 13460 H 1277.21 4.40936 -2.0175 0
M  V30 13461 N 1278.56 0.518393 1.4883 0
M  V30 13462 C 1279.51 -0.270295 2.26392 0
M  V30 13463 C 1280.49 -0.9202 1.31989 0
M  V30 13464 O 1281.68 -0.824923 1.56601 0
M  V30 13465 C 1278.81 -1.32368 3.16755 0
M  V30 13466 C 1277.9 -0.679143 4.18627 0
M  V30 13467 N 1278.29 0.228392 5.05284 0
M  V30 13468 C 1276.59 -0.937712 4.36031 0
M  V30 13469 C 1277.29 0.599076 5.78607 0
M  V30 13470 N 1276.26 -0.0371273 5.43587 0
M  V30 13471 H 1280.07 0.428066 2.90766 0
M  V30 13472 H 1277.58 0.335632 1.58894 0
M  V30 13473 H 1279.58 -1.9023 3.70969 0
M  V30 13474 H 1278.24 -2.02354 2.53935 0
M  V30 13475 H 1279.25 0.600292 5.14409 0
M  V30 13476 H 1275.92 -1.62901 3.84408 0
M  V30 13477 H 1277.31 1.34256 6.5835 0
M  V30 13478 N 1280.03 -1.55556 0.252993 0
M  V30 13479 C 1280.97 -2.18978 -0.676837 0
M  V30 13480 C 1281.98 -1.16788 -1.13421 0
M  V30 13481 O 1283.17 -1.43623 -1.05993 0
M  V30 13482 C 1280.27 -2.78404 -1.93248 0
M  V30 13483 C 1279.44 -4.06072 -1.62555 0
M  V30 13484 C 1278.5 -4.49757 -2.7314 0
M  V30 13485 O 1277.53 -5.16005 -2.40266 0
M  V30 13486 N 1278.73 -4.18049 -4.0276 0
M  V30 13487 H 1281.49 -2.994 -0.134142 0
M  V30 13488 H 1279.05 -1.61734 0.0731965 0
M  V30 13489 H 1281.05 -3.04583 -2.6648 0
M  V30 13490 H 1279.62 -2.02104 -2.3848 0
M  V30 13491 H 1278.84 -3.87417 -0.728115 0
M  V30 13492 H 1280.12 -4.89297 -1.39521 0
M  V30 13493 H 1279.52 -3.64876 -4.32298 0
M  V30 13494 H 1278.08 -4.4905 -4.72438 0
M  V30 13495 N 1281.51 0.0200419 -1.57587 0
M  V30 13496 C 1282.44 1.01715 -2.10181 0
M  V30 13497 C 1283.42 1.37136 -1.00636 0
M  V30 13498 O 1284.61 1.45862 -1.2821 0
M  V30 13499 C 1281.74 2.31531 -2.58865 0
M  V30 13500 C 1280.69 2.10327 -3.72755 0
M  V30 13501 C 1280.02 3.45981 -4.07678 0
M  V30 13502 C 1281.32 1.4821 -5.0083 0
M  V30 13503 H 1283.01 0.579307 -2.93742 0
M  V30 13504 H 1280.56 0.277211 -1.41307 0
M  V30 13505 H 1282.51 3.01623 -2.94281 0
M  V30 13506 H 1281.24 2.77392 -1.72399 0
M  V30 13507 H 1279.89 1.42665 -3.37701 0
M  V30 13508 H 1279.54 3.89508 -3.18265 0
M  V30 13509 H 1279.24 3.32616 -4.84397 0
M  V30 13510 H 1280.77 4.17421 -4.45637 0
M  V30 13511 H 1282.18 2.08232 -5.34146 0
M  V30 13512 H 1280.58 1.45393 -5.82221 0
M  V30 13513 H 1281.65 0.448942 -4.82817 0
M  V30 13514 N 1282.99 1.54862 0.292472 0
M  V30 13515 C 1283.92 1.81298 1.38586 0
M  V30 13516 C 1284.9 0.664704 1.48393 0
M  V30 13517 O 1286.09 0.905595 1.65322 0
M  V30 13518 C 1283.21 1.9573 2.76419 0
M  V30 13519 C 1282.26 3.18197 2.83994 0
M  V30 13520 S 1283.09 4.76054 2.45219 0
M  V30 13521 C 1284.25 4.93433 3.85064 0
M  V30 13522 H 1284.48 2.73755 1.15955 0
M  V30 13523 H 1282.01 1.46383 0.491053 0
M  V30 13524 H 1283.97 2.0473 3.55803 0
M  V30 13525 H 1282.63 1.04196 2.96314 0
M  V30 13526 H 1281.83 3.25123 3.85112 0
M  V30 13527 H 1281.43 3.07688 2.12613 0
M  V30 13528 H 1283.72 4.7798 4.80148 0
M  V30 13529 H 1284.66 5.95515 3.83103 0
M  V30 13530 H 1285.07 4.2153 3.75463 0
M  V30 13531 N 1284.47 -0.556076 1.47464 0
M  V30 13532 C 1285.4 -1.67275 1.62915 0
M  V30 13533 C 1286.38 -1.63229 0.478562 0
M  V30 13534 O 1287.56 -1.80833 0.708032 0
M  V30 13535 C 1284.69 -3.05911 1.64426 0
M  V30 13536 C 1283.65 -3.24804 2.78722 0
M  V30 13537 C 1282.97 -4.64238 2.65307 0
M  V30 13538 C 1284.27 -3.10071 4.20302 0
M  V30 13539 H 1285.97 -1.54601 2.56396 0
M  V30 13540 H 1283.51 -0.742337 1.23391 0
M  V30 13541 H 1285.47 -3.83878 1.73826 0
M  V30 13542 H 1284.19 -3.19547 0.675053 0
M  V30 13543 H 1282.85 -2.49246 2.68835 0
M  V30 13544 H 1282.5 -4.74675 1.66412 0
M  V30 13545 H 1282.2 -4.77828 3.41986 0
M  V30 13546 H 1283.72 -5.44339 2.76637 0
M  V30 13547 H 1285.14 -3.77855 4.3116 0
M  V30 13548 H 1283.53 -3.3517 4.97776 0
M  V30 13549 H 1284.6 -2.06803 4.38589 0
M  V30 13550 N 1285.95 -1.35615 -0.802897 0
M  V30 13551 C 1287.22 -1.19655 -1.54732 0
M  V30 13552 C 1287.6 0.222827 -2.09921 0
M  V30 13553 O 1286.95 1.2268 -1.92774 0
M  V30 13554 C 1287.16 -2.26761 -2.65293 0
M  V30 13555 C 1288.51 -2.62754 -3.33535 0
M  V30 13556 O 1289.53 -2.25702 -2.75567 0
M  V30 13557 O 1288.39 -3.26476 -4.38264 0
M  V30 13558 H 1285.49 -0.465079 -0.683835 0
M  V30 13559 H 1288.03 -1.47307 -0.84254 0
M  V30 13560 H 1286.81 -3.21946 -2.22411 0
M  V30 13561 H 1286.43 -2.00399 -3.43404 0
M  V30 13562 N 1287.43 1.02549 -1.19673 0
M  V30 13563 C 1288.67 1.77554 -1.01261 0
M  V30 13564 C 1289.03 1.86692 0.448357 0
M  V30 13565 O 1290.23 2.58055 0.752386 0
M  V30 13566 C 1288.5 3.16132 -1.66719 0
M  V30 13567 S 1290.06 4.07285 -1.63291 0
M  V30 13568 H 1286.88 0.611178 -0.363294 0
M  V30 13569 H 1289.48 1.22852 -1.52078 0
M  V30 13570 H 1288.18 3.07101 -2.72244 0
M  V30 13571 H 1287.72 3.7591 -1.15996 0
M  V30 13572 H 1289.73 4.91798 -0.659499 0
M  V30 13573 N 1288.9 1.00119 1.21713 0
M  V30 13574 C 1290.15 0.692409 1.91252 0
M  V30 13575 C 1290.5 -0.768052 1.76405 0
M  V30 13576 O 1289.8 -1.54913 1.1275 0
M  V30 13577 C 1289.99 1.04376 3.41819 0
M  V30 13578 C 1289.82 2.53682 3.71316 0
M  V30 13579 C 1288.59 3.20222 3.90879 0
M  V30 13580 C 1290.79 3.51829 3.75127 0
M  V30 13581 N 1288.77 4.58919 4.07758 0
M  V30 13582 C 1290.14 4.7602 3.97246 0
M  V30 13583 C 1292.2 3.46019 3.58015 0
M  V30 13584 C 1290.9 5.95108 4.04029 0
M  V30 13585 C 1292.93 4.64492 3.66061 0
M  V30 13586 C 1292.29 5.87486 3.88638 0
M  V30 13587 H 1288.39 0.304785 0.72016 0
M  V30 13588 H 1290.97 1.28289 1.46459 0
M  V30 13589 H 1289.14 0.481773 3.854 0
M  V30 13590 H 1290.87 0.690108 3.98773 0
M  V30 13591 H 1287.63 2.70673 3.8863 0
M  V30 13592 H 1288.05 5.30884 4.20108 0
M  V30 13593 H 1292.69 2.51938 3.3954 0
M  V30 13594 H 1290.41 6.89585 4.21305 0
M  V30 13595 H 1294 4.61595 3.54148 0
M  V30 13596 H 1292.88 6.77628 3.94703 0
M  V30 13597 N 1290.38 -1.37203 0.775435 0
M  V30 13598 C 1291.31 -2.28873 0.122374 0
M  V30 13599 C 1292.33 -1.48811 -0.660239 0
M  V30 13600 O 1293.52 -1.7142 -0.497724 0
M  V30 13601 C 1290.62 -3.28062 -0.850212 0
M  V30 13602 C 1289.79 -4.37234 -0.120633 0
M  V30 13603 C 1288.85 -5.16472 -1.00712 0
M  V30 13604 O 1287.87 -5.6726 -0.469528 0
M  V30 13605 N 1289.08 -5.31556 -2.33299 0
M  V30 13606 H 1291.84 -2.85559 0.909741 0
M  V30 13607 H 1289.4 -1.49219 0.628107 0
M  V30 13608 H 1291.39 -3.77956 -1.44678 0
M  V30 13609 H 1289.96 -2.72118 -1.53853 0
M  V30 13610 H 1289.18 -3.88688 0.656879 0
M  V30 13611 H 1290.47 -5.07354 0.383358 0
M  V30 13612 H 1289.87 -4.91883 -2.79406 0
M  V30 13613 H 1288.43 -5.84745 -2.87953 0
M  V30 13614 N 1291.86 -0.526279 -1.48553 0
M  V30 13615 C 1292.81 0.238513 -2.29564 0
M  V30 13616 C 1293.78 0.937222 -1.37133 0
M  V30 13617 O 1294.96 0.93897 -1.66096 0
M  V30 13618 C 1292.1 1.28173 -3.20415 0
M  V30 13619 C 1291.21 0.592244 -4.27921 0
M  V30 13620 C 1290.35 1.61808 -5.05956 0
M  V30 13621 C 1289.39 0.911846 -6.0527 0
M  V30 13622 N 1288.53 1.88305 -6.76377 0
M  V30 13623 H 1293.37 -0.458502 -2.94452 0
M  V30 13624 H 1290.9 -0.237948 -1.45163 0
M  V30 13625 H 1292.86 1.89883 -3.71484 0
M  V30 13626 H 1291.49 1.94718 -2.57458 0
M  V30 13627 H 1290.54 -0.138714 -3.80147 0
M  V30 13628 H 1291.85 0.0375427 -4.98786 0
M  V30 13629 H 1291.01 2.30956 -5.61021 0
M  V30 13630 H 1289.75 2.20667 -4.34922 0
M  V30 13631 H 1288.75 0.206273 -5.49413 0
M  V30 13632 H 1289.98 0.329415 -6.78301 0
M  V30 13633 H 1287.92 2.46079 -6.08096 0
M  V30 13634 H 1287.84 1.37969 -7.43304 0
M  V30 13635 H 1289.11 2.56663 -7.36033 0
M  V30 13636 N 1293.34 1.5542 -0.261239 0
M  V30 13637 C 1294.25 2.25627 0.642625 0
M  V30 13638 C 1295.26 1.27732 1.18155 0
M  V30 13639 O 1296.44 1.60639 1.21479 0
M  V30 13640 C 1293.5 2.95303 1.8165 0
M  V30 13641 C 1292.57 4.08644 1.31563 0
M  V30 13642 C 1291.8 4.74988 2.43355 0
M  V30 13643 O 1292.02 4.40474 3.62407 0
M  V30 13644 O 1290.96 5.63217 2.12299 0
M  V30 13645 H 1294.78 3.03609 0.0743091 0
M  V30 13646 H 1292.37 1.49372 -0.0291754 0
M  V30 13647 H 1294.25 3.3914 2.50125 0
M  V30 13648 H 1292.92 2.2025 2.37217 0
M  V30 13649 H 1291.83 3.69294 0.597746 0
M  V30 13650 H 1293.16 4.85558 0.805878 0
M  V30 13651 N 1294.82 -0.0116844 1.57596 0
M  V30 13652 C 1296.23 -0.367602 1.55309 0
M  V30 13653 C 1296.43 -1.75524 0.98962 0
M  V30 13654 O 1295.49 -2.44813 0.618289 0
M  V30 13655 C 1296.8 -0.253532 2.99629 0
M  V30 13656 C 1298.35 -0.329335 3.11263 0
M  V30 13657 C 1298.82 -0.24452 4.57347 0
M  V30 13658 N 1300.31 -0.302782 4.62209 0
M  V30 13659 C 1301.05 -0.260315 5.72809 0
M  V30 13660 N 1300.55 -0.169124 6.92594 0
M  V30 13661 N 1302.34 -0.311323 5.61237 0
M  V30 13662 H 1294.49 0.896204 1.92567 0
M  V30 13663 H 1296.75 0.342445 0.883988 0
M  V30 13664 H 1296.46 0.70074 3.44648 0
M  V30 13665 H 1296.33 -1.04029 3.62571 0
M  V30 13666 H 1298.72 -1.27405 2.66181 0
M  V30 13667 H 1298.8 0.487084 2.5112 0
M  V30 13668 H 1298.44 0.696597 5.031 0
M  V30 13669 H 1298.37 -1.07927 5.15421 0
M  V30 13670 H 1300.87 -0.375067 3.76034 0
M  V30 13671 H 1301.18 -0.142296 7.72669 0
M  V30 13672 H 1299.52 -0.134919 6.94869 0
M  V30 13673 H 1302.71 -0.380678 4.6655 0
M  V30 13674 H 1302.89 -0.274761 6.47417 0
M  V30 13675 N 1296.29 -1.55015 -0.284256 0
M  V30 13676 C 1297.26 -1.8636 -1.33426 0
M  V30 13677 C 1298.26 -0.737457 -1.42892 0
M  V30 13678 O 1299.45 -1.00569 -1.42238 0
M  V30 13679 C 1296.58 -2.05884 -2.71707 0
M  V30 13680 H 1297.77 -2.80212 -1.06869 0
M  V30 13681 H 1295.32 -1.47334 -0.521767 0
M  V30 13682 H 1296.06 -1.14376 -3.03461 0
M  V30 13683 H 1295.84 -2.87867 -2.66224 0
M  V30 13684 H 1297.33 -2.31447 -3.47595 0
M  V30 13685 N 1297.77 0.548248 -1.47757 0
M  V30 13686 C 1298.68 1.68178 -1.63565 0
M  V30 13687 C 1299.7 1.661 -0.518351 0
M  V30 13688 O 1300.87 1.85384 -0.787061 0
M  V30 13689 C 1297.94 3.04673 -1.65454 0
M  V30 13690 C 1297 3.17749 -2.88677 0
M  V30 13691 C 1296.23 4.47733 -2.90466 0
M  V30 13692 O 1296.46 5.33736 -2.01201 0
M  V30 13693 O 1295.39 4.64789 -3.82433 0
M  V30 13694 H 1299.22 1.57781 -2.59497 0
M  V30 13695 H 1296.8 0.719277 -1.30946 0
M  V30 13696 H 1298.68 3.85885 -1.69324 0
M  V30 13697 H 1297.36 3.15433 -0.726912 0
M  V30 13698 H 1296.26 2.359 -2.90348 0
M  V30 13699 H 1297.6 3.11897 -3.80763 0
M  V30 13700 N 1299.25 1.36039 0.795694 0
M  V30 13701 C 1300.67 1.16315 1.09284 0
M  V30 13702 C 1300.87 -0.017024 2.01493 0
M  V30 13703 O 1299.92 -0.684316 2.4305 0
M  V30 13704 C 1301.23 2.47113 1.71335 0
M  V30 13705 C 1302.78 2.5342 1.83705 0
M  V30 13706 C 1303.26 3.84289 2.49171 0
M  V30 13707 N 1304.75 3.856 2.56645 0
M  V30 13708 C 1305.48 4.83597 3.08094 0
M  V30 13709 N 1304.98 5.91985 3.59897 0
M  V30 13710 N 1306.77 4.71023 3.06748 0
M  V30 13711 H 1298.92 2.11611 0.182957 0
M  V30 13712 H 1301.19 0.937035 0.143771 0
M  V30 13713 H 1300.89 3.33708 1.11049 0
M  V30 13714 H 1300.77 2.62461 2.70914 0
M  V30 13715 H 1303.15 1.67247 2.43131 0
M  V30 13716 H 1303.23 2.41977 0.829495 0
M  V30 13717 H 1302.88 4.70865 1.90391 0
M  V30 13718 H 1302.81 3.93025 3.50484 0
M  V30 13719 H 1305.3 3.07291 2.19956 0
M  V30 13720 H 1305.61 6.6274 3.97487 0
M  V30 13721 H 1303.96 5.95662 3.58066 0
M  V30 13722 H 1307.15 3.8548 2.65561 0
M  V30 13723 H 1307.32 5.47555 3.46536 0
M  V30 13724 N 1300.73 -1.01913 1.20215 0
M  V30 13725 C 1302.14 -1.5692 1.01159 0
M  V30 13726 C 1302.49 -1.91368 -0.432746 0
M  V30 13727 O 1301.62 -1.71959 -1.31374 0
M  V30 13728 C 1302.21 -2.85125 1.83001 0
M  V30 13729 C 1300.77 -3.36669 1.68318 0
M  V30 13730 C 1299.92 -2.10003 1.81091 0
M  V30 13731 H 1302.87 -0.843246 1.34443 0
M  V30 13732 H 1302.89 -3.56428 1.33188 0
M  V30 13733 H 1302.4 -2.60021 2.88116 0
M  V30 13734 H 1300.5 -3.66739 0.658292 0
M  V30 13735 H 1300.61 -4.09042 2.49442 0
M  V30 13736 H 1298.98 -2.22337 1.24252 0
M  V30 13737 H 1299.76 -1.87329 2.87685 0
M  V30 13738 N 1302.21 -1.00763 -1.2118 0
M  V30 13739 C 1303.15 -0.570257 -2.23644 0
M  V30 13740 C 1304.12 0.405039 -1.61086 0
M  V30 13741 O 1305.31 0.306496 -1.88322 0
M  V30 13742 C 1302.45 0.094325 -3.44971 0
M  V30 13743 C 1301.56 -0.924463 -4.21993 0
M  V30 13744 C 1300.7 -0.231869 -5.30694 0
M  V30 13745 C 1299.74 -1.23803 -5.99449 0
M  V30 13746 N 1298.87 -0.572725 -6.9976 0
M  V30 13747 H 1303.71 -1.44869 -2.60417 0
M  V30 13748 H 1301.25 -0.725369 -1.27972 0
M  V30 13749 H 1303.21 0.496689 -4.14233 0
M  V30 13750 H 1301.84 0.936457 -3.08918 0
M  V30 13751 H 1300.89 -1.44505 -3.51884 0
M  V30 13752 H 1302.2 -1.69004 -4.69296 0
M  V30 13753 H 1301.36 0.226465 -6.06277 0
M  V30 13754 H 1300.09 0.566092 -4.84403 0
M  V30 13755 H 1299.1 -1.70684 -5.22635 0
M  V30 13756 H 1300.32 -2.03711 -6.47826 0
M  V30 13757 H 1298.27 0.205531 -6.55678 0
M  V30 13758 H 1298.19 -1.27651 -7.45145 0
M  V30 13759 H 1299.46 -0.137683 -7.79378 0
M  V30 13760 N 1303.68 1.3679 -0.7827 0
M  V30 13761 C 1304.93 1.99417 -0.352011 0
M  V30 13762 C 1305.26 1.62127 1.07448 0
M  V30 13763 O 1304.51 0.864449 1.75573 0
M  V30 13764 C 1304.81 3.54489 -0.455232 0
M  V30 13765 C 1304.48 4.11579 -1.84156 0
M  V30 13766 C 1303.14 4.26884 -2.22089 0
M  V30 13767 C 1305.49 4.4277 -2.74962 0
M  V30 13768 C 1302.82 4.70688 -3.50243 0
M  V30 13769 C 1305.17 4.88003 -4.02537 0
M  V30 13770 C 1303.84 5.01513 -4.40501 0
M  V30 13771 H 1303.11 0.729718 -0.12881 0
M  V30 13772 H 1305.75 1.63386 -0.998856 0
M  V30 13773 H 1304.06 3.90833 0.275129 0
M  V30 13774 H 1305.76 4.00867 -0.103127 0
M  V30 13775 H 1302.35 4.00102 -1.53677 0
M  V30 13776 H 1306.53 4.30521 -2.46912 0
M  V30 13777 H 1301.79 4.79335 -3.79537 0
M  V30 13778 H 1305.96 5.11102 -4.73019 0
M  V30 13779 H 1303.59 5.35214 -5.39861 0
M  V30 13780 N 1305.16 0.53415 1.48272 0
M  V30 13781 C 1306.07 -0.230062 2.33469 0
M  V30 13782 C 1307.09 -0.934889 1.46751 0
M  V30 13783 O 1308.26 -0.908921 1.79724 0
M  V30 13784 C 1305.33 -1.2609 3.22958 0
M  V30 13785 C 1304.39 -0.565983 4.25553 0
M  V30 13786 C 1303.62 -1.54771 5.10766 0
M  V30 13787 O 1303.85 -2.7807 4.9803 0
M  V30 13788 O 1302.78 -1.08482 5.92043 0
M  V30 13789 H 1306.61 0.468182 3.0007 0
M  V30 13790 H 1304.19 0.29502 1.46458 0
M  V30 13791 H 1306.07 -1.85652 3.783 0
M  V30 13792 H 1304.75 -1.94148 2.59014 0
M  V30 13793 H 1303.66 0.0702391 3.74034 0
M  V30 13794 H 1304.99 0.0727277 4.92146 0
M  V30 13795 N 1306.64 -1.55279 0.269478 0
M  V30 13796 C 1307.57 -2.19684 -0.653573 0
M  V30 13797 C 1308.59 -1.17985 -1.12176 0
M  V30 13798 O 1309.77 -1.44739 -1.04464 0
M  V30 13799 C 1306.87 -2.80438 -1.90284 0
M  V30 13800 C 1306.05 -4.07774 -1.58239 0
M  V30 13801 C 1305.11 -4.52629 -2.68354 0
M  V30 13802 O 1304.13 -5.18524 -2.3478 0
M  V30 13803 N 1305.33 -4.22297 -3.98303 0
M  V30 13804 H 1308.1 -2.99525 -0.102379 0
M  V30 13805 H 1305.66 -1.61648 0.0903465 0
M  V30 13806 H 1307.65 -3.07392 -2.63234 0
M  V30 13807 H 1306.22 -2.04622 -2.36323 0
M  V30 13808 H 1305.44 -3.88168 -0.686983 0
M  V30 13809 H 1306.73 -4.90749 -1.34323 0
M  V30 13810 H 1306.13 -3.69441 -4.28404 0
M  V30 13811 H 1304.69 -4.54035 -4.67649 0
M  V30 13812 N 1308.12 0.00332656 -1.576 0
M  V30 13813 C 1309.37 0.688044 -1.89602 0
M  V30 13814 C 1309.68 1.75121 -0.871316 0
M  V30 13815 O 1310.89 2.49032 -1.08144 0
M  V30 13816 C 1309.34 1.27494 -3.36561 0
M  V30 13817 C 1308.95 0.246771 -4.4732 0
M  V30 13818 C 1310.69 1.93804 -3.77677 0
M  V30 13819 C 1308.6 0.843471 -5.85354 0
M  V30 13820 H 1307.53 0.260747 -0.707479 0
M  V30 13821 H 1310.18 -0.0566727 -1.83412 0
M  V30 13822 H 1308.56 2.07022 -3.37577 0
M  V30 13823 H 1309.74 -0.523668 -4.57815 0
M  V30 13824 H 1308.05 -0.3157 -4.15202 0
M  V30 13825 H 1310.65 2.39347 -4.78139 0
M  V30 13826 H 1310.99 2.7672 -3.11017 0
M  V30 13827 H 1311.53 1.21015 -3.78946 0
M  V30 13828 H 1308.27 0.0531655 -6.55478 0
M  V30 13829 H 1307.79 1.58315 -5.7853 0
M  V30 13830 H 1309.46 1.34311 -6.32906 0
M  V30 13831 N 1309.6 1.55164 0.276031 0
M  V30 13832 C 1310.84 1.75887 1.00953 0
M  V30 13833 C 1311.18 0.5567 1.8605 0
M  V30 13834 O 1310.45 -0.445799 1.89322 0
M  V30 13835 C 1310.73 3.06228 1.89463 0
M  V30 13836 C 1310.59 4.36795 1.07379 0
M  V30 13837 C 1311.91 3.32589 2.88223 0
M  V30 13838 H 1309.02 0.639929 0.365596 0
M  V30 13839 H 1311.67 1.87893 0.282156 0
M  V30 13840 H 1309.82 2.96124 2.51481 0
M  V30 13841 H 1311.49 4.58853 0.474549 0
M  V30 13842 H 1309.73 4.32157 0.377165 0
M  V30 13843 H 1310.4 5.24315 1.72621 0
M  V30 13844 H 1312.88 3.42467 2.36338 0
M  V30 13845 H 1311.75 4.2506 3.47297 0
M  V30 13846 H 1312.02 2.52083 3.6319 0
M  V30 13847 N 1311.07 -0.540404 1.48045 0
M  V30 13848 C 1312.32 -1.29422 1.55224 0
M  V30 13849 C 1312.64 -1.93716 0.223365 0
M  V30 13850 O 1311.91 -1.808 -0.754204 0
M  V30 13851 H 1310.49 -0.480658 0.571819 0
M  V30 13852 H 1313.16 -0.629712 1.84447 0
M  V30 13853 H 1312.25 -2.07897 2.32777 0
M  V30 13854 N 1312.55 -1.36459 -0.788468 0
M  V30 13855 C 1313.8 -1.3007 -1.54158 0
M  V30 13856 C 1314.11 0.117574 -1.95246 0
M  V30 13857 O 1315.32 0.303837 -2.69795 0
M  V30 13858 C 1313.78 -2.28216 -2.78291 0
M  V30 13859 C 1313.38 -3.75484 -2.44368 0
M  V30 13860 C 1315.13 -2.30806 -3.56271 0
M  V30 13861 C 1313.04 -4.65404 -3.64902 0
M  V30 13862 H 1311.97 -0.483345 -0.5787 0
M  V30 13863 H 1314.62 -1.61827 -0.865123 0
M  V30 13864 H 1313 -1.89454 -3.4774 0
M  V30 13865 H 1314.17 -4.22986 -1.82809 0
M  V30 13866 H 1312.49 -3.75678 -1.79597 0
M  V30 13867 H 1315.08 -2.95196 -4.45829 0
M  V30 13868 H 1315.43 -1.31687 -3.94923 0
M  V30 13869 H 1315.96 -2.68189 -2.93802 0
M  V30 13870 H 1312.7 -5.65589 -3.31344 0
M  V30 13871 H 1312.22 -4.22617 -4.25623 0
M  V30 13872 H 1313.9 -4.81721 -4.31919 0
M  V30 13873 N 1314.03 1.01274 -1.20754 0
M  V30 13874 C 1314.96 2.11763 -0.983805 0
M  V30 13875 C 1315.94 1.69869 0.0885635 0
M  V30 13876 O 1317.13 1.94075 -0.0697239 0
M  V30 13877 C 1314.26 3.43087 -0.539287 0
M  V30 13878 C 1313.21 3.9874 -1.55534 0
M  V30 13879 C 1312.54 5.25877 -0.967322 0
M  V30 13880 C 1313.84 4.31688 -2.94012 0
M  V30 13881 H 1315.53 2.30737 -1.90789 0
M  V30 13882 H 1313.08 1.10884 -0.918734 0
M  V30 13883 H 1315.03 4.19773 -0.369979 0
M  V30 13884 H 1313.75 3.23883 0.420435 0
M  V30 13885 H 1312.41 3.24166 -1.71207 0
M  V30 13886 H 1312.06 5.03 0.000448307 0
M  V30 13887 H 1311.76 5.64077 -1.64594 0
M  V30 13888 H 1313.28 6.05215 -0.809167 0
M  V30 13889 H 1314.7 4.99246 -2.81827 0
M  V30 13890 H 1313.1 4.81011 -3.58815 0
M  V30 13891 H 1314.17 3.4029 -3.45442 0
M  V30 13892 N 1315.51 1.01404 1.20644 0
M  V30 13893 C 1316.79 0.617088 1.85611 0
M  V30 13894 C 1317.17 -0.904947 1.9072 0
M  V30 13895 O 1316.51 -1.79562 1.41315 0
M  V30 13896 C 1316.72 1.26193 3.25386 0
M  V30 13897 C 1318.07 1.37575 4.01694 0
M  V30 13898 O 1319.1 1.21795 3.34731 0
M  V30 13899 O 1317.96 1.6305 5.2161 0
M  V30 13900 H 1315.05 0.212579 0.799211 0
M  V30 13901 H 1317.6 1.11126 1.28254 0
M  V30 13902 H 1316.37 2.30206 3.16419 0
M  V30 13903 H 1315.99 0.754679 3.90372 0
M  V30 13904 N 1316.99 -1.36373 0.789944 0
M  V30 13905 C 1317.93 -2.30043 0.186798 0
M  V30 13906 C 1318.9 -1.52002 -0.669663 0
M  V30 13907 O 1320.09 -1.80506 -0.618232 0
M  V30 13908 C 1317.23 -3.38494 -0.671994 0
M  V30 13909 C 1316.34 -4.31522 0.203067 0
M  V30 13910 C 1315.48 -5.27057 -0.662148 0
M  V30 13911 C 1314.52 -6.11725 0.214335 0
M  V30 13912 N 1313.65 -6.99446 -0.609892 0
M  V30 13913 H 1318.49 -2.81038 0.991048 0
M  V30 13914 H 1316.03 -1.38331 0.500288 0
M  V30 13915 H 1317.99 -4.0002 -1.1849 0
M  V30 13916 H 1316.62 -2.88818 -1.44167 0
M  V30 13917 H 1315.67 -3.71146 0.833945 0
M  V30 13918 H 1316.98 -4.91005 0.878389 0
M  V30 13919 H 1316.14 -5.93875 -1.24084 0
M  V30 13920 H 1314.88 -4.6803 -1.37109 0
M  V30 13921 H 1313.88 -5.43868 0.805426 0
M  V30 13922 H 1315.11 -6.72827 0.92089 0
M  V30 13923 H 1313.05 -6.42927 -1.30312 0
M  V30 13924 H 1312.97 -7.56 0.00773786 0
M  V30 13925 H 1314.24 -7.70633 -1.1724 0
M  V30 13926 N 1318.47 -0.542005 -1.47987 0
M  V30 13927 C 1319.4 0.261671 -2.26695 0
M  V30 13928 C 1320.38 0.93404 -1.33096 0
M  V30 13929 O 1321.56 0.956051 -1.62456 0
M  V30 13930 C 1318.69 1.37155 -3.09687 0
M  V30 13931 C 1317.73 0.809337 -4.18751 0
M  V30 13932 S 1318.57 -0.332224 -5.34468 0
M  V30 13933 C 1319.72 0.779843 -6.21023 0
M  V30 13934 H 1319.96 -0.406263 -2.94511 0
M  V30 13935 H 1317.49 -0.32802 -1.50875 0
M  V30 13936 H 1319.45 2.00726 -3.58077 0
M  V30 13937 H 1318.11 2.01126 -2.41262 0
M  V30 13938 H 1317.3 1.64233 -4.76491 0
M  V30 13939 H 1316.9 0.250095 -3.73163 0
M  V30 13940 H 1319.19 1.67564 -6.56452 0
M  V30 13941 H 1320.14 0.240142 -7.07693 0
M  V30 13942 H 1320.55 1.06567 -5.5435 0
M  V30 13943 N 1319.94 1.55134 -0.277709 0
M  V30 13944 C 1321.19 1.98831 0.338982 0
M  V30 13945 C 1321.51 1.16958 1.56781 0
M  V30 13946 O 1322.71 1.50811 2.25762 0
M  V30 13947 C 1321.17 3.53899 0.654465 0
M  V30 13948 C 1320.78 4.44553 -0.554703 0
M  V30 13949 C 1322.52 4.06179 1.23364 0
M  V30 13950 C 1320.43 5.91014 -0.213663 0
M  V30 13951 H 1319.36 0.742632 0.130434 0
M  V30 13952 H 1322.01 1.79463 -0.382768 0
M  V30 13953 H 1320.39 3.69078 1.43519 0
M  V30 13954 H 1321.56 4.41143 -1.33151 0
M  V30 13955 H 1319.88 4.02921 -1.0509 0
M  V30 13956 H 1322.48 5.13152 1.50265 0
M  V30 13957 H 1322.82 3.5537 2.16836 0
M  V30 13958 H 1323.35 3.9445 0.515147 0
M  V30 13959 H 1320.09 6.45924 -1.11633 0
M  V30 13960 H 1319.61 5.97486 0.526329 0
M  V30 13961 H 1321.29 6.46712 0.19319 0
M  V30 13962 N 1321.42 0.00503138 1.57599 0
M  V30 13963 C 1322.84 -0.351109 1.5569 0
M  V30 13964 C 1323.04 -1.74465 1.00818 0
M  V30 13965 O 1322.09 -2.44144 0.64422 0
M  V30 13966 C 1323.41 -0.221738 2.99881 0
M  V30 13967 C 1324.95 -0.296303 3.11594 0
M  V30 13968 C 1325.43 -0.195998 4.5758 0
M  V30 13969 N 1326.92 -0.253741 4.62504 0
M  V30 13970 C 1327.66 -0.199546 5.73053 0
M  V30 13971 N 1327.15 -0.0956553 6.92734 0
M  V30 13972 N 1328.94 -0.251779 5.61536 0
M  V30 13973 H 1321.1 0.916578 1.91605 0
M  V30 13974 H 1323.36 0.351802 0.880306 0
M  V30 13975 H 1323.06 0.737255 3.43886 0
M  V30 13976 H 1322.94 -1.00178 3.63654 0
M  V30 13977 H 1325.33 -1.24574 2.67517 0
M  V30 13978 H 1325.41 0.513692 2.50589 0
M  V30 13979 H 1325.05 0.749918 5.02333 0
M  V30 13980 H 1324.98 -1.02455 5.16537 0
M  V30 13981 H 1327.47 -0.335163 3.76411 0
M  V30 13982 H 1327.78 -0.0603357 7.72776 0
M  V30 13983 H 1326.13 -0.0612113 6.94973 0
M  V30 13984 H 1329.32 -0.331173 4.66927 0
M  V30 13985 H 1329.49 -0.206078 6.47672 0
M  V30 13986 N 1322.9 -1.55308 -0.267798 0
M  V30 13987 C 1323.85 -1.89342 -1.35102 0
M  V30 13988 C 1324.84 -0.770277 -1.50874 0
M  V30 13989 O 1326.05 -0.954679 -1.52597 0
M  V30 13990 H 1322.42 -0.601036 -0.451952 0
M  V30 13991 H 1324.39 -2.7982 -1.03651 0
M  V30 13992 C 1323.14 -2.18644 -2.70352 0
M  V30 13993 H 1322.47 -3.04557 -2.59008 0
M  V30 13994 H 1323.91 -2.46374 -3.45073 0
M  V30 13995 C 1322.36 -0.995753 -3.21848 0
M  V30 13996 O 1322.89 -0.233037 -4.01023 0
M  V30 13997 N 1321.1 -0.792038 -2.79598 0
M  V30 13998 H 1320.65 -1.41396 -2.15325 0
M  V30 13999 H 1320.61 0.00300201 -3.144 0
M  V30 14000 N 1324.38 0.532545 -1.4833 0
M  V30 14001 C 1325.79 1.11451 -1.49785 0
M  V30 14002 C 1326.14 1.94386 -0.266207 0
M  V30 14003 O 1325.26 2.07121 0.62688 0
M  V30 14004 C 1325.86 2.0279 -2.71407 0
M  V30 14005 C 1324.42 2.56209 -2.75742 0
M  V30 14006 C 1323.57 1.33114 -2.43261 0
M  V30 14007 H 1326.52 0.317924 -1.55483 0
M  V30 14008 H 1326.54 2.87038 -2.49779 0
M  V30 14009 H 1326.05 1.42401 -3.61031 0
M  V30 14010 H 1324.15 3.20327 -1.9032 0
M  V30 14011 H 1324.26 2.95518 -3.77102 0
M  V30 14012 H 1322.63 1.64607 -1.94362 0
M  V30 14013 H 1323.41 0.744809 -3.35123 0
M  V30 14014 N 1325.86 1.36875 0.78122 0
M  V30 14015 C 1326.8 1.31941 1.91557 0
M  V30 14016 C 1327.8 0.209783 1.68096 0
M  V30 14017 O 1329 0.377266 1.76002 0
M  V30 14018 H 1325.38 0.410955 0.629778 0
M  V30 14019 H 1327.35 2.27721 1.92836 0
M  V30 14020 C 1326.1 1.13379 3.28695 0
M  V30 14021 H 1325.42 1.98013 3.47319 0
M  V30 14022 H 1326.86 1.13976 4.08394 0
M  V30 14023 C 1325.32 -0.161119 3.36515 0
M  V30 14024 O 1325.85 -1.14806 3.84945 0
M  V30 14025 N 1324.06 -0.208594 2.8985 0
M  V30 14026 H 1323.6 0.595187 2.5063 0
M  V30 14027 H 1323.56 -1.07465 2.95463 0
M  V30 14028 N 1327.33 -1.00632 1.21289 0
M  V30 14029 C 1328.56 -1.78503 1.05601 0
M  V30 14030 C 1328.98 -1.84015 -0.389879 0
M  V30 14031 O 1328.34 -1.28277 -1.2812 0
M  V30 14032 C 1328.39 -3.20313 1.65626 0
M  V30 14033 O 1327.49 -4.02441 0.900841 0
M  V30 14034 H 1326.83 -0.550183 0.371746 0
M  V30 14035 H 1329.36 -1.26505 1.60803 0
M  V30 14036 H 1329.37 -3.70992 1.69792 0
M  V30 14037 H 1328.05 -3.15616 2.7085 0
M  V30 14038 H 1326.63 -3.61009 0.934178 0
M  V30 14039 N 1328.81 -1.02043 -1.20104 0
M  V30 14040 C 1329.74 -0.614421 -2.25271 0
M  V30 14041 C 1330.72 0.37242 -1.65973 0
M  V30 14042 O 1331.91 0.257005 -1.92492 0
M  V30 14043 C 1329.04 0.0442085 -3.47272 0
M  V30 14044 C 1327.99 -0.864019 -4.19188 0
M  V30 14045 C 1327.32 -0.0709551 -5.34653 0
M  V30 14046 C 1328.62 -2.17385 -4.74912 0
M  V30 14047 H 1330.31 -1.49355 -2.59487 0
M  V30 14048 H 1327.86 -0.719591 -1.24731 0
M  V30 14049 H 1329.81 0.339825 -4.20028 0
M  V30 14050 H 1328.53 0.958082 -3.12231 0
M  V30 14051 H 1327.19 -1.1437 -3.48303 0
M  V30 14052 H 1326.84 0.844688 -4.95857 0
M  V30 14053 H 1326.54 -0.67583 -5.83701 0
M  V30 14054 H 1328.07 0.218118 -6.1021 0
M  V30 14055 H 1329.48 -1.94034 -5.39466 0
M  V30 14056 H 1327.88 -2.72991 -5.34412 0
M  V30 14057 H 1328.95 -2.83427 -3.93443 0
M  V30 14058 N 1330.29 1.35952 -0.797165 0
M  V30 14059 C 1331.24 2.29941 -0.198995 0
M  V30 14060 C 1332.21 1.52355 0.661592 0
M  V30 14061 O 1333.39 1.80832 0.60865 0
M  V30 14062 C 1330.53 3.38846 0.654033 0
M  V30 14063 C 1329.65 4.31409 -0.225949 0
M  V30 14064 C 1328.78 5.27401 0.634188 0
M  V30 14065 C 1327.82 6.11602 -0.246773 0
M  V30 14066 N 1326.96 6.9976 0.57279 0
M  V30 14067 H 1331.8 2.80508 -1.00594 0
M  V30 14068 H 1329.33 1.38064 -0.507617 0
M  V30 14069 H 1331.29 4.00643 1.16367 0
M  V30 14070 H 1329.92 2.89578 1.42633 0
M  V30 14071 H 1328.97 3.70699 -0.853616 0
M  V30 14072 H 1330.29 4.90532 -0.904416 0
M  V30 14073 H 1329.44 5.94525 1.20933 0
M  V30 14074 H 1328.18 4.68751 1.34625 0
M  V30 14075 H 1327.18 5.43434 -0.834258 0
M  V30 14076 H 1328.41 6.72329 -0.956559 0
M  V30 14077 H 1326.35 6.43609 1.26901 0
M  V30 14078 H 1326.27 7.55985 -0.0478303 0
M  V30 14079 H 1327.54 7.71244 1.13151 0
M  V30 14080 N 1331.77 0.549846 1.47697 0
M  V30 14081 C 1333 0.0276889 2.06881 0
M  V30 14082 C 1333.41 -1.26273 1.40359 0
M  V30 14083 O 1332.77 -1.75584 0.497644 0
M  V30 14084 C 1332.82 -0.179291 3.61055 0
M  V30 14085 O 1332.54 1.06002 4.25083 0
M  V30 14086 C 1334.04 -0.739571 4.37087 0
M  V30 14087 H 1331.26 0.0425016 0.669653 0
M  V30 14088 H 1333.81 0.761158 1.89807 0
M  V30 14089 H 1331.96 -0.862867 3.77668 0
M  V30 14090 H 1332.37 0.853137 5.17515 0
M  V30 14091 H 1333.85 -0.833722 5.45668 0
M  V30 14092 H 1334.33 -1.74915 4.02867 0
M  V30 14093 H 1334.93 -0.0919294 4.25201 0
M  V30 14094 N 1333.25 -1.54984 0.285932 0
M  V30 14095 C 1334.66 -1.85519 -0.209707 0
M  V30 14096 C 1335.01 -1.20794 -1.54606 0
M  V30 14097 O 1334.13 -0.500159 -2.10541 0
M  V30 14098 C 1334.73 -3.36579 -0.387283 0
M  V30 14099 C 1333.29 -3.67199 -0.827148 0
M  V30 14100 C 1332.43 -2.77203 0.073308 0
M  V30 14101 H 1335.39 -1.5037 0.507404 0
M  V30 14102 H 1335.41 -3.60269 -1.2242 0
M  V30 14103 H 1334.92 -3.83658 0.585493 0
M  V30 14104 H 1333.02 -3.25627 -1.81101 0
M  V30 14105 H 1333.13 -4.74574 -0.656976 0
M  V30 14106 H 1331.5 -2.50785 -0.444859 0
M  V30 14107 H 1332.28 -3.27099 1.04216 0
M  V30 14108 N 1334.72 -0.0133892 -1.57594 0
M  V30 14109 C 1335.65 0.972341 -2.12292 0
M  V30 14110 C 1336.64 1.34971 -1.03522 0
M  V30 14111 O 1337.82 1.4311 -1.31275 0
M  V30 14112 C 1334.95 2.25988 -2.63717 0
M  V30 14113 C 1333.9 2.02373 -3.77133 0
M  V30 14114 C 1333.23 3.37256 -4.14925 0
M  V30 14115 C 1334.53 1.37553 -5.03861 0
M  V30 14116 H 1336.22 0.516869 -2.94905 0
M  V30 14117 H 1333.77 0.247176 -1.41863 0
M  V30 14118 H 1335.72 2.95313 -3.00613 0
M  V30 14119 H 1334.45 2.73672 -1.78244 0
M  V30 14120 H 1333.11 1.3547 -3.40651 0
M  V30 14121 H 1332.75 3.82669 -3.26456 0
M  V30 14122 H 1332.45 3.22267 -4.91343 0
M  V30 14123 H 1333.98 4.07875 -4.5439 0
M  V30 14124 H 1335.39 1.96855 -5.38443 0
M  V30 14125 H 1333.79 1.33011 -5.85174 0
M  V30 14126 H 1334.86 0.346429 -4.83661 0
M  V30 14127 N 1336.2 1.55448 0.259558 0
M  V30 14128 C 1337.45 1.76337 0.987396 0
M  V30 14129 C 1337.77 0.57505 1.86328 0
M  V30 14130 O 1337.04 -0.409621 1.9157 0
M  V30 14131 H 1335.62 0.650312 0.367565 0
M  V30 14132 H 1338.28 1.9287 0.280551 0
M  V30 14133 H 1337.38 2.66975 1.61651 0
M  V30 14134 N 1337.68 -0.524672 1.4861 0
M  V30 14135 C 1338.91 -1.30482 1.60568 0
M  V30 14136 C 1339.32 -1.86889 0.267952 0
M  V30 14137 O 1338.68 -1.66669 -0.743488 0
M  V30 14138 C 1338.73 -2.45191 2.65638 0
M  V30 14139 O 1338.45 -1.91107 3.9422 0
M  V30 14140 C 1339.95 -3.36931 2.88084 0
M  V30 14141 H 1337.17 -0.396612 0.541239 0
M  V30 14142 H 1339.72 -0.632392 1.94476 0
M  V30 14143 H 1337.87 -3.08308 2.34574 0
M  V30 14144 H 1338.29 -2.66234 4.51907 0
M  V30 14145 H 1339.76 -4.13755 3.65391 0
M  V30 14146 H 1340.24 -3.92487 1.97106 0
M  V30 14147 H 1340.84 -2.79601 3.20473 0
M  V30 14148 N 1339.16 -1.37287 -0.77395 0
M  V30 14149 C 1340.4 -1.33771 -1.54547 0
M  V30 14150 C 1340.76 0.0778134 -1.91842 0
M  V30 14151 O 1341.96 0.237682 -2.67747 0
M  V30 14152 C 1340.23 -2.24859 -2.77801 0
M  V30 14153 S 1341.79 -2.39172 -3.67889 0
M  V30 14154 H 1338.61 -0.474918 -0.529126 0
M  V30 14155 H 1341.21 -1.73015 -0.910287 0
M  V30 14156 H 1339.92 -3.2663 -2.48478 0
M  V30 14157 H 1339.45 -1.86691 -3.4628 0
M  V30 14158 H 1341.46 -1.60068 -4.69673 0
M  V30 14159 N 1340.64 0.999871 -1.21821 0
M  V30 14160 C 1341.86 1.7794 -1.06546 0
M  V30 14161 C 1342.29 1.84219 0.380115 0
M  V30 14162 O 1341.64 1.28955 1.27438 0
M  V30 14163 C 1341.69 3.1943 -1.67322 0
M  V30 14164 O 1340.8 4.01957 -0.922171 0
M  V30 14165 H 1340.14 0.548204 -0.374658 0
M  V30 14166 H 1342.67 1.2565 -1.61472 0
M  V30 14167 H 1342.68 3.70086 -1.71757 0
M  V30 14168 H 1341.35 3.14175 -2.7252 0
M  V30 14169 H 1339.93 3.60509 -0.95331 0
M  V30 14170 N 1342.11 1.02678 1.19562 0
M  V30 14171 C 1343.53 0.743467 1.41226 0
M  V30 14172 C 1343.73 -0.672786 1.89936 0
M  V30 14173 O 1342.79 -1.43908 2.07477 0
M  V30 14174 C 1344.1 1.77781 2.42517 0
M  V30 14175 C 1345.65 1.79711 2.56267 0
M  V30 14176 C 1346.12 2.82099 3.60811 0
M  V30 14177 N 1347.61 2.80902 3.68304 0
M  V30 14178 C 1348.35 3.5678 4.48882 0
M  V30 14179 N 1347.84 4.42367 5.33182 0
M  V30 14180 N 1349.64 3.45331 4.43512 0
M  V30 14181 H 1341.79 1.94094 0.862635 0
M  V30 14182 H 1344.05 0.839015 0.441313 0
M  V30 14183 H 1343.76 2.79295 2.13745 0
M  V30 14184 H 1343.63 1.59836 3.41661 0
M  V30 14185 H 1346.02 0.788756 2.84364 0
M  V30 14186 H 1346.1 2.01731 1.57284 0
M  V30 14187 H 1345.74 3.83104 3.33457 0
M  V30 14188 H 1345.67 2.57338 4.5944 0
M  V30 14189 H 1348.16 2.18826 3.08097 0
M  V30 14190 H 1348.48 4.97008 5.9178 0
M  V30 14191 H 1346.82 4.4644 5.3265 0
M  V30 14192 H 1350.01 2.77883 3.76695 0
M  V30 14193 H 1350.19 4.04718 5.06071 0
M  V30 14194 N 1343.59 -1.35528 0.804364 0
M  V30 14195 C 1345 -1.81321 0.444933 0
M  V30 14196 C 1345.35 -1.66816 -1.03281 0
M  V30 14197 O 1344.48 -1.19753 -1.80245 0
M  V30 14198 C 1345.07 -3.29199 0.800827 0
M  V30 14199 C 1343.63 -3.73144 0.494026 0
M  V30 14200 C 1342.78 -2.57557 1.02761 0
M  V30 14201 H 1345.73 -1.23537 0.996203 0
M  V30 14202 H 1345.75 -3.80375 0.0975117 0
M  V30 14203 H 1345.26 -3.39725 1.8764 0
M  V30 14204 H 1343.37 -3.68169 -0.572901 0
M  V30 14205 H 1343.48 -4.68005 1.0251 0
M  V30 14206 H 1341.84 -2.50692 0.450048 0
M  V30 14207 H 1342.63 -2.70861 2.10925 0
M  V30 14208 N 1345.07 -0.557671 -1.47404 0
M  V30 14209 C 1346.32 -0.0316382 -2.01675 0
M  V30 14210 C 1346.63 1.32656 -1.43742 0
M  V30 14211 O 1347.84 1.94253 -1.89678 0
M  V30 14212 C 1346.3 -0.00606931 -3.59899 0
M  V30 14213 C 1345.9 -1.36106 -4.26825 0
M  V30 14214 C 1347.65 0.467332 -4.2192 0
M  V30 14215 C 1345.55 -1.29457 -5.77057 0
M  V30 14216 H 1344.48 -0.00805738 -0.753957 0
M  V30 14217 H 1347.14 -0.705592 -1.69392 0
M  V30 14218 H 1345.52 0.733541 -3.89147 0
M  V30 14219 H 1346.69 -2.11842 -4.09218 0
M  V30 14220 H 1345.01 -1.77243 -3.76794 0
M  V30 14221 H 1347.6 0.535478 -5.32012 0
M  V30 14222 H 1347.95 1.47942 -3.89126 0
M  V30 14223 H 1348.48 -0.217434 -3.97205 0
M  V30 14224 H 1345.22 -2.28267 -6.14471 0
M  V30 14225 H 1344.74 -0.579022 -5.96999 0
M  V30 14226 H 1346.42 -0.996834 -6.39275 0
M  V30 14227 N 1346.55 1.54831 -0.294147 0
M  V30 14228 C 1347.77 2.04873 0.32276 0
M  V30 14229 C 1348.2 1.17034 1.47257 0
M  V30 14230 O 1347.56 0.172949 1.80473 0
M  V30 14231 C 1347.61 3.52431 0.76319 0
M  V30 14232 O 1346.71 3.67635 1.86865 0
M  V30 14233 H 1346.05 0.660926 0.0638162 0
M  V30 14234 H 1348.58 1.99944 -0.433995 0
M  V30 14235 H 1348.59 3.94155 1.05385 0
M  V30 14236 H 1347.27 4.15827 -0.0779464 0
M  V30 14237 H 1345.84 3.37816 1.57907 0
M  V30 14238 N 1348.03 0.0217466 1.57585 0
M  V30 14239 C 1349.44 -0.51811 1.79367 0
M  V30 14240 C 1349.79 -1.72688 0.931313 0
M  V30 14241 O 1348.91 -2.15949 0.139687 0
M  V30 14242 C 1349.51 -0.946711 3.25304 0
M  V30 14243 C 1348.07 -1.43173 3.48107 0
M  V30 14244 C 1347.22 -0.392996 2.74501 0
M  V30 14245 H 1350.17 0.247822 1.56753 0
M  V30 14246 H 1350.19 -1.81152 3.34611 0
M  V30 14247 H 1349.7 -0.0667536 3.88043 0
M  V30 14248 H 1347.8 -2.33186 2.90612 0
M  V30 14249 H 1347.91 -1.44419 4.56815 0
M  V30 14250 H 1346.28 -0.859471 2.39761 0
M  V30 14251 H 1347.06 0.478368 3.39951 0
M  V30 14252 N 1349.51 -1.55583 -0.251311 0
M  V30 14253 C 1350.44 -1.9296 -1.31486 0
M  V30 14254 C 1351.42 -0.794001 -1.50431 0
M  V30 14255 O 1352.6 -1.05393 -1.63113 0
M  V30 14256 C 1349.73 -2.22046 -2.67045 0
M  V30 14257 C 1348.69 -3.37816 -2.62801 0
M  V30 14258 C 1348.01 -3.52433 -4.02113 0
M  V30 14259 C 1349.31 -4.73626 -2.20171 0
M  V30 14260 H 1351.01 -2.82046 -1.00451 0
M  V30 14261 H 1348.55 -1.35702 -0.481775 0
M  V30 14262 H 1350.5 -2.46783 -3.41579 0
M  V30 14263 H 1349.23 -1.29782 -2.99707 0
M  V30 14264 H 1347.89 -3.13081 -1.90724 0
M  V30 14265 H 1347.54 -2.57597 -4.32034 0
M  V30 14266 H 1347.24 -4.30283 -4.00163 0
M  V30 14267 H 1348.76 -3.79486 -4.78354 0
M  V30 14268 H 1350.17 -4.97764 -2.84436 0
M  V30 14269 H 1348.57 -5.54547 -2.29341 0
M  V30 14270 H 1349.64 -4.70985 -1.1533 0
M  V30 14271 N 1350.98 0.516783 -1.48886 0
M  V30 14272 C 1351.91 1.62897 -1.67292 0
M  V30 14273 C 1352.89 1.61903 -0.521671 0
M  V30 14274 O 1354.08 1.78892 -0.755728 0
M  V30 14275 C 1351.21 3.01444 -1.72478 0
M  V30 14276 C 1350.16 3.173 -2.87236 0
M  V30 14277 C 1349.49 4.5704 -2.77522 0
M  V30 14278 C 1350.79 2.98818 -4.28375 0
M  V30 14279 H 1352.48 1.47748 -2.60405 0
M  V30 14280 H 1350.03 0.709361 -1.25316 0
M  V30 14281 H 1351.98 3.79135 -1.83942 0
M  V30 14282 H 1350.71 3.17645 -0.759538 0
M  V30 14283 H 1349.37 2.4203 -2.75349 0
M  V30 14284 H 1349.01 4.70096 -1.78938 0
M  V30 14285 H 1348.71 4.68593 -3.54534 0
M  V30 14286 H 1350.24 5.36813 -2.90972 0
M  V30 14287 H 1351.65 3.66291 -4.41026 0
M  V30 14288 H 1350.05 3.21854 -5.06488 0
M  V30 14289 H 1351.12 1.95102 -4.43918 0
M  V30 14290 N 1352.46 1.37696 0.766659 0
M  V30 14291 C 1353.74 1.23715 1.51506 0
M  V30 14292 C 1354.12 -0.167091 2.10438 0
M  V30 14293 O 1353.47 -1.17526 1.95959 0
M  V30 14294 C 1353.68 2.33715 2.59188 0
M  V30 14295 C 1355.02 2.71504 3.26451 0
M  V30 14296 O 1356.05 2.32929 2.69486 0
M  V30 14297 O 1354.91 3.37981 4.29454 0
M  V30 14298 H 1352 0.483046 0.671264 0
M  V30 14299 H 1354.55 1.49489 0.803188 0
M  V30 14300 H 1353.32 3.27729 2.13797 0
M  V30 14301 H 1352.94 2.09433 3.3797 0
M  V30 14302 N 1353.94 -0.993397 1.22349 0
M  V30 14303 C 1354.87 -2.08543 0.950925 0
M  V30 14304 C 1355.88 -1.62648 -0.0702741 0
M  V30 14305 O 1357.07 -1.77748 0.16367 0
M  V30 14306 C 1354.17 -3.36429 0.408466 0
M  V30 14307 C 1353.35 -4.11356 1.48676 0
M  V30 14308 C 1352.41 -5.17526 0.951478 0
M  V30 14309 O 1351.43 -5.45135 1.63757 0
M  V30 14310 N 1352.63 -5.80055 -0.227378 0
M  V30 14311 H 1355.4 -2.32506 1.89106 0
M  V30 14312 H 1352.96 -1.15911 1.13032 0
M  V30 14313 H 1354.95 -4.04684 0.0356968 0
M  V30 14314 H 1353.52 -3.09534 -0.436767 0
M  V30 14315 H 1352.74 -3.37739 2.03288 0
M  V30 14316 H 1354.03 -4.58187 2.21228 0
M  V30 14317 H 1353.43 -5.59992 -0.801601 0
M  V30 14318 H 1351.98 -6.49546 -0.541538 0
M  V30 14319 N 1355.42 -1.03311 -1.19015 0
M  V30 14320 C 1356.37 -0.611169 -2.24427 0
M  V30 14321 C 1357.36 0.358303 -1.65567 0
M  V30 14322 O 1358.57 0.22642 -1.7857 0
M  V30 14323 H 1354.94 -0.179393 -0.730289 0
M  V30 14324 H 1356.91 -1.51077 -2.57329 0
M  V30 14325 C 1355.66 0.0178126 -3.47695 0
M  V30 14326 H 1354.98 -0.71921 -3.93278 0
M  V30 14327 H 1356.42 0.275926 -4.23101 0
M  V30 14328 C 1354.88 1.26564 -3.12223 0
M  V30 14329 O 1355.41 2.35725 -3.25264 0
M  V30 14330 N 1353.62 1.15602 -2.66617 0
M  V30 14331 H 1353.17 0.267736 -2.56205 0
M  V30 14332 H 1353.12 1.99186 -2.43254 0
M  V30 14333 N 1356.9 1.35099 -0.81154 0
M  V30 14334 C 1358.12 2.0286 -0.406855 0
M  V30 14335 C 1358.54 1.61147 0.98372 0
M  V30 14336 O 1357.9 0.811398 1.6347 0
M  V30 14337 C 1357.95 3.58214 -0.486305 0
M  V30 14338 O 1357.67 3.98412 -1.82206 0
M  V30 14339 C 1359.17 4.43236 -0.0750619 0
M  V30 14340 H 1356.39 0.650482 -0.164664 0
M  V30 14341 H 1358.93 1.72616 -1.09654 0
M  V30 14342 H 1357.09 3.87089 0.155177 0
M  V30 14343 H 1357.5 4.93072 -1.78831 0
M  V30 14344 H 1358.98 5.51701 -0.181759 0
M  V30 14345 H 1359.45 4.28123 0.980169 0
M  V30 14346 H 1360.06 4.19667 -0.689894 0
M  V30 14347 N 1358.37 0.56548 1.47106 0
M  V30 14348 C 1359.78 0.134289 1.86216 0
M  V30 14349 C 1360.14 -1.29815 1.47114 0
M  V30 14350 O 1359.26 -1.97787 0.878017 0
M  V30 14351 C 1359.86 0.236931 3.37971 0
M  V30 14352 C 1358.41 -0.139275 3.76142 0
M  V30 14353 C 1357.56 0.580743 2.71151 0
M  V30 14354 H 1360.51 0.774723 1.38505 0
M  V30 14355 H 1360.53 -0.542301 3.76616 0
M  V30 14356 H 1360.05 1.27958 3.66399 0
M  V30 14357 H 1358.15 -1.18272 3.53331 0
M  V30 14358 H 1358.26 0.225045 4.78571 0
M  V30 14359 H 1356.62 0.0228963 2.5469 0
M  V30 14360 H 1357.41 1.62471 3.0242 0
M  V30 14361 N 1359.85 -1.54672 0.302354 0
M  V30 14362 C 1361.13 -1.92264 -0.359711 0
M  V30 14363 C 1361.51 -1.22973 -1.71583 0
M  V30 14364 O 1360.86 -0.365942 -2.25551 0
M  V30 14365 C 1361.07 -3.4578 -0.473019 0
M  V30 14366 C 1362.42 -4.18044 -0.743252 0
M  V30 14367 O 1363.44 -3.51822 -0.556778 0
M  V30 14368 O 1362.3 -5.35283 -1.10155 0
M  V30 14369 H 1359.39 -0.802112 -0.201359 0
M  V30 14370 H 1361.94 -1.66041 0.350513 0
M  V30 14371 H 1360.71 -3.88342 0.480265 0
M  V30 14372 H 1360.33 -3.78042 -1.23166 0
M  V30 14373 N 1361.33 -0.0301034 -1.57571 0
M  V30 14374 C 1362.58 0.648323 -1.91841 0
M  V30 14375 C 1362.91 1.72078 -0.906601 0
M  V30 14376 O 1362.16 1.95518 0.0843233 0
M  V30 14377 C 1362.46 1.30206 -3.32838 0
M  V30 14378 C 1362.13 0.359876 -4.49462 0
M  V30 14379 C 1360.79 0.100552 -4.81095 0
M  V30 14380 C 1363.14 -0.287048 -5.20409 0
M  V30 14381 C 1360.47 -0.813484 -5.81033 0
M  V30 14382 C 1362.82 -1.18914 -6.21323 0
M  V30 14383 C 1361.48 -1.45735 -6.51397 0
M  V30 14384 H 1360.75 0.237238 -0.701997 0
M  V30 14385 H 1363.4 -0.0920804 -1.91278 0
M  V30 14386 H 1361.71 2.11724 -3.29667 0
M  V30 14387 H 1363.4 1.83356 -3.56625 0
M  V30 14388 H 1359.99 0.572172 -4.24764 0
M  V30 14389 H 1364.18 -0.0997611 -4.962 0
M  V30 14390 H 1359.43 -1.02897 -6.02679 0
M  V30 14391 H 1363.61 -1.69661 -6.75417 0
M  V30 14392 H 1361.23 -2.16727 -7.28652 0
M  V30 14393 N 1362.81 1.55714 0.243056 0
M  V30 14394 C 1364.04 1.81786 0.98801 0
M  V30 14395 C 1364.45 0.606352 1.78798 0
M  V30 14396 O 1363.81 -0.425018 1.77482 0
M  V30 14397 C 1363.86 3.06121 1.92281 0
M  V30 14398 O 1363.58 4.22595 1.15521 0
M  V30 14399 C 1365.08 3.45021 2.78344 0
M  V30 14400 H 1362.3 0.604829 0.290557 0
M  V30 14401 H 1364.85 2.02779 0.26478 0
M  V30 14402 H 1363 2.87167 2.60027 0
M  V30 14403 H 1363.41 4.93088 1.78786 0
M  V30 14404 H 1364.89 4.35112 3.39678 0
M  V30 14405 H 1365.37 2.65782 3.49652 0
M  V30 14406 H 1365.97 3.66339 2.16045 0
M  V30 14407 N 1364.29 -0.50888 1.49158 0
M  V30 14408 C 1365.51 -1.28771 1.61943 0
M  V30 14409 C 1365.93 -1.86594 0.287759 0
M  V30 14410 O 1365.29 -1.67448 -0.725769 0
M  V30 14411 C 1365.34 -2.4236 2.68224 0
M  V30 14412 O 1365.06 -1.86915 3.96225 0
M  V30 14413 C 1366.56 -3.33856 2.91642 0
M  V30 14414 H 1363.78 -0.390849 0.545416 0
M  V30 14415 H 1366.32 -0.611729 1.95136 0
M  V30 14416 H 1364.48 -3.05803 2.37831 0
M  V30 14417 H 1364.89 -2.61426 4.54705 0
M  V30 14418 H 1366.37 -4.09856 3.69759 0
M  V30 14419 H 1366.84 -3.90374 2.01258 0
M  V30 14420 H 1367.45 -2.76187 3.23421 0
M  V30 14421 N 1365.76 -1.381 -0.759346 0
M  V30 14422 C 1367.01 -1.33992 -1.5183 0
M  V30 14423 C 1367.34 0.0718172 -1.94367 0
M  V30 14424 O 1366.59 1.0477 -1.65293 0
M  V30 14425 C 1366.89 -2.23636 -2.78786 0
M  V30 14426 C 1366.56 -3.71703 -2.5524 0
M  V30 14427 C 1365.22 -4.12053 -2.48528 0
M  V30 14428 C 1367.57 -4.65455 -2.34523 0
M  V30 14429 C 1364.9 -5.44252 -2.19105 0
M  V30 14430 C 1367.25 -5.97905 -2.06622 0
M  V30 14431 C 1365.92 -6.37345 -1.98362 0
M  V30 14432 H 1365.19 -0.490311 -0.555587 0
M  V30 14433 H 1367.83 -1.70411 -0.873637 0
M  V30 14434 H 1366.14 -1.80253 -3.47874 0
M  V30 14435 H 1367.84 -2.17764 -3.36719 0
M  V30 14436 H 1364.43 -3.3971 -2.61333 0
M  V30 14437 H 1368.61 -4.35132 -2.38691 0
M  V30 14438 H 1363.87 -5.73758 -2.11214 0
M  V30 14439 H 1368.04 -6.70095 -1.89594 0
M  V30 14440 H 1365.67 -7.39706 -1.75328 0
M  V30 14441 N 1367.24 0.986894 -1.22875 0
M  V30 14442 C 1368.48 1.74243 -1.06859 0
M  V30 14443 C 1368.85 1.88024 0.388736 0
M  V30 14444 O 1370.05 2.60318 0.669907 0
M  V30 14445 C 1368.32 3.10668 -1.76692 0
M  V30 14446 S 1369.88 4.01884 -1.76166 0
M  V30 14447 H 1366.7 0.59931 -0.382555 0
M  V30 14448 H 1369.3 1.17951 -1.55909 0
M  V30 14449 H 1368 2.98285 -2.81877 0
M  V30 14450 H 1367.53 3.7203 -1.27897 0
M  V30 14451 H 1369.55 4.89451 -0.815627 0
M  V30 14452 N 1368.72 1.0394 1.18466 0
M  V30 14453 C 1369.95 0.761926 1.92897 0
M  V30 14454 C 1370.37 -0.674618 1.75586 0
M  V30 14455 O 1369.73 -1.46711 1.06515 0
M  V30 14456 C 1369.78 1.13152 3.42387 0
M  V30 14457 O 1368.88 0.256266 4.11603 0
M  V30 14458 H 1368.22 0.280527 0.601831 0
M  V30 14459 H 1370.75 1.3889 1.50235 0
M  V30 14460 H 1370.76 1.0929 3.9309 0
M  V30 14461 H 1369.44 2.17804 3.54308 0
M  V30 14462 H 1368.01 0.354392 3.71212 0
M  V30 14463 N 1370.2 -1.34667 0.818693 0
M  V30 14464 C 1371.44 -1.98708 0.405359 0
M  V30 14465 C 1371.78 -1.64767 -1.02788 0
M  V30 14466 O 1371.05 -0.91714 -1.71519 0
M  V30 14467 C 1371.34 -3.55016 0.602966 0
M  V30 14468 C 1371.19 -3.98713 2.08201 0
M  V30 14469 C 1372.51 -4.40085 0.0362489 0
M  V30 14470 H 1369.63 -0.721831 0.148756 0
M  V30 14471 H 1372.27 -1.59628 1.03047 0
M  V30 14472 H 1370.42 -3.88435 0.0708453 0
M  V30 14473 H 1372.09 -3.75647 2.67745 0
M  V30 14474 H 1370.33 -3.49179 2.57403 0
M  V30 14475 H 1371 -5.0751 2.17111 0
M  V30 14476 H 1373.48 -4.13195 0.490837 0
M  V30 14477 H 1372.36 -5.4852 0.204344 0
M  V30 14478 H 1372.62 -4.29243 -1.05845 0
M  V30 14479 N 1371.68 -0.573274 -1.46804 0
M  V30 14480 C 1372.92 -0.0551522 -2.02025 0
M  V30 14481 C 1373.25 1.30577 -1.44826 0
M  V30 14482 O 1372.52 1.85514 -0.629403 0
M  V30 14483 H 1371.1 -0.0173982 -0.746797 0
M  V30 14484 H 1373.76 -0.746919 -1.8002 0
M  V30 14485 H 1372.85 0.0209326 -3.12093 0
M  V30 14486 N 1373.15 1.5451 -0.310553 0
M  V30 14487 C 1374.06 2.27557 0.570518 0
M  V30 14488 C 1375.08 1.31426 1.14032 0
M  V30 14489 O 1376.26 1.64423 1.16306 0
M  V30 14490 C 1373.32 3.00933 1.72163 0
M  V30 14491 C 1372.38 4.12623 1.18495 0
M  V30 14492 C 1371.62 4.8249 2.28121 0
M  V30 14493 O 1371.84 4.5178 3.48211 0
M  V30 14494 O 1370.77 5.69686 1.94273 0
M  V30 14495 H 1374.6 3.03692 -0.0223195 0
M  V30 14496 H 1372.18 1.49203 -0.0766821 0
M  V30 14497 H 1374.07 3.46925 2.39208 0
M  V30 14498 H 1372.74 2.27685 2.3009 0
M  V30 14499 H 1371.65 3.71008 0.479956 0
M  V30 14500 H 1372.98 4.87876 0.650994 0
M  V30 14501 N 1374.63 0.0384594 1.57553 0
M  V30 14502 C 1375.88 -0.633249 1.93291 0
M  V30 14503 C 1376.23 -1.69196 0.915995 0
M  V30 14504 O 1375.53 -1.91484 -0.0666597 0
M  V30 14505 C 1375.72 -1.28439 3.33524 0
M  V30 14506 C 1375.55 -0.290279 4.48762 0
M  V30 14507 C 1374.32 0.113206 5.05173 0
M  V30 14508 C 1376.52 0.459201 5.12246 0
M  V30 14509 N 1374.5 1.10151 6.03937 0
M  V30 14510 C 1375.87 1.30097 6.06197 0
M  V30 14511 C 1377.93 0.518891 4.95189 0
M  V30 14512 C 1376.63 2.19706 6.84924 0
M  V30 14513 C 1378.66 1.40236 5.74533 0
M  V30 14514 C 1378.02 2.23189 6.68106 0
M  V30 14515 H 1374.12 -0.203752 0.754989 0
M  V30 14516 H 1376.7 0.107819 1.94401 0
M  V30 14517 H 1374.87 -1.99555 3.33215 0
M  V30 14518 H 1376.6 -1.91388 3.56585 0
M  V30 14519 H 1373.36 -0.26316 4.72868 0
M  V30 14520 H 1373.78 1.59218 6.58011 0
M  V30 14521 H 1378.42 -0.108201 4.22662 0
M  V30 14522 H 1376.14 2.83467 7.56751 0
M  V30 14523 H 1379.73 1.45295 5.63365 0
M  V30 14524 H 1378.61 2.90443 7.28432 0
M  V30 14525 N 1376.11 -1.55841 -0.234795 0
M  V30 14526 C 1377.04 -1.94344 -1.29432 0
M  V30 14527 C 1378.02 -0.809912 -1.49581 0
M  V30 14528 O 1379.21 -1.07117 -1.61986 0
M  V30 14529 C 1376.34 -2.24866 -2.64675 0
M  V30 14530 C 1375.29 -3.40584 -2.59203 0
M  V30 14531 C 1374.62 -3.56678 -3.98353 0
M  V30 14532 C 1375.92 -4.75935 -2.15135 0
M  V30 14533 H 1377.61 -2.83096 -0.97454 0
M  V30 14534 H 1375.16 -1.36205 -0.467355 0
M  V30 14535 H 1377.11 -2.50392 -3.38942 0
M  V30 14536 H 1375.83 -1.32953 -2.98314 0
M  V30 14537 H 1374.49 -3.15087 -1.87393 0
M  V30 14538 H 1374.14 -2.62164 -4.29277 0
M  V30 14539 H 1373.84 -4.34503 -3.95577 0
M  V30 14540 H 1375.37 -3.84538 -4.74302 0
M  V30 14541 H 1376.78 -5.00753 -2.7914 0
M  V30 14542 H 1375.18 -5.56949 -2.23446 0
M  V30 14543 H 1376.25 -4.72182 -1.10328 0
M  V30 14544 N 1377.59 0.500963 -1.49426 0
M  V30 14545 C 1378.52 1.6192 -1.62217 0
M  V30 14546 C 1379.53 1.54774 -0.504868 0
M  V30 14547 O 1380.72 1.60705 -0.776919 0
M  V30 14548 C 1377.82 3.0071 -1.56291 0
M  V30 14549 C 1377 3.3304 -2.83555 0
M  V30 14550 C 1376.06 4.51241 -2.7068 0
M  V30 14551 O 1375.08 4.53023 -3.44615 0
M  V30 14552 N 1376.28 5.51156 -1.82228 0
M  V30 14553 H 1379.05 1.51374 -2.58662 0
M  V30 14554 H 1376.61 0.688837 -1.46515 0
M  V30 14555 H 1378.6 3.77705 -1.45332 0
M  V30 14556 H 1377.17 3.0518 -0.677043 0
M  V30 14557 H 1376.39 2.44942 -3.08865 0
M  V30 14558 H 1377.68 3.51437 -3.67926 0
M  V30 14559 H 1377.08 5.52516 -1.21417 0
M  V30 14560 H 1375.63 6.27253 -1.77192 0
M  V30 14561 N 1379.07 1.38501 0.752011 0
M  V30 14562 C 1380.03 1.35655 1.84744 0
M  V30 14563 C 1381.03 0.256772 1.58737 0
M  V30 14564 O 1382.22 0.513749 1.66452 0
M  V30 14565 C 1379.35 1.11231 3.22243 0
M  V30 14566 H 1380.55 2.33114 1.88674 0
M  V30 14567 H 1378.1 1.23818 0.953882 0
M  V30 14568 H 1378.83 0.143848 3.23981 0
M  V30 14569 H 1378.62 1.90857 3.42515 0
M  V30 14570 H 1380.11 1.11939 4.02318 0
M  V30 14571 N 1380.55 -0.980364 1.23396 0
M  V30 14572 C 1381.79 -1.71592 1.06015 0
M  V30 14573 C 1382.11 -1.91401 -0.403103 0
M  V30 14574 O 1383.31 -2.62405 -0.696853 0
M  V30 14575 C 1381.77 -3.08795 1.84861 0
M  V30 14576 C 1381.38 -2.96873 3.35515 0
M  V30 14577 C 1383.12 -3.8631 1.75968 0
M  V30 14578 C 1381.03 -4.29308 4.06753 0
M  V30 14579 H 1379.96 -0.643423 0.393095 0
M  V30 14580 H 1382.61 -1.09345 1.47363 0
M  V30 14581 H 1380.99 -3.71797 1.36318 0
M  V30 14582 H 1382.17 -2.4296 3.91544 0
M  V30 14583 H 1380.48 -2.32833 3.45221 0
M  V30 14584 H 1383.08 -4.84355 2.26504 0
M  V30 14585 H 1383.42 -4.09983 0.722464 0
M  V30 14586 H 1383.95 -3.3001 2.22122 0
M  V30 14587 H 1380.69 -4.10831 5.10782 0
M  V30 14588 H 1380.21 -4.83086 3.55511 0
M  V30 14589 H 1381.89 -4.97995 4.1305 0
M  V30 14590 N 1382.02 -1.04567 -1.17913 0
M  V30 14591 C 1382.97 -0.641119 -2.21717 0
M  V30 14592 C 1383.94 0.353585 -1.62293 0
M  V30 14593 O 1385.13 0.246427 -1.89202 0
M  V30 14594 C 1382.27 -0.0154726 -3.45097 0
M  V30 14595 C 1381.38 -1.05825 -4.18838 0
M  V30 14596 C 1380.51 -0.400588 -5.29687 0
M  V30 14597 C 1379.55 -1.42811 -5.95207 0
M  V30 14598 N 1378.69 -0.795059 -6.97584 0
M  V30 14599 H 1383.53 -1.5308 -2.55676 0
M  V30 14600 H 1381.07 -0.765715 -1.25599 0
M  V30 14601 H 1383.02 0.364653 -4.15603 0
M  V30 14602 H 1381.65 0.837704 -3.11741 0
M  V30 14603 H 1380.71 -1.55627 -3.47109 0
M  V30 14604 H 1382.02 -1.83849 -4.63682 0
M  V30 14605 H 1381.17 0.0334682 -6.06691 0
M  V30 14606 H 1379.91 0.411696 -4.85959 0
M  V30 14607 H 1378.92 -1.87225 -5.1694 0
M  V30 14608 H 1380.14 -2.24218 -6.41017 0
M  V30 14609 H 1378.09 -0.00317202 -6.56 0
M  V30 14610 H 1378 -1.51293 -7.40707 0
M  V30 14611 H 1379.27 -0.385567 -7.78546 0
M  V30 14612 N 1383.5 1.34231 -0.825823 0
M  V30 14613 C 1384.43 2.27366 -0.194964 0
M  V30 14614 C 1385.41 1.49029 0.650315 0
M  V30 14615 O 1386.6 1.7824 0.613424 0
M  V30 14616 C 1383.72 3.30796 0.727439 0
M  V30 14617 C 1382.77 4.26481 -0.0406869 0
M  V30 14618 S 1383.6 5.17151 -1.38981 0
M  V30 14619 C 1384.76 6.24115 -0.472354 0
M  V30 14620 H 1384.99 2.80524 -0.984559 0
M  V30 14621 H 1382.52 1.41323 -0.621875 0
M  V30 14622 H 1384.48 3.90875 1.25406 0
M  V30 14623 H 1383.14 2.76479 1.49058 0
M  V30 14624 H 1382.34 4.99651 0.660652 0
M  V30 14625 H 1381.94 3.7067 -0.497956 0
M  V30 14626 H 1384.23 6.76671 0.334956 0
M  V30 14627 H 1385.17 6.98303 -1.17383 0
M  V30 14628 H 1385.58 5.64469 -0.0594964 0
M  V30 14629 N 1384.98 0.581051 1.46498 0
M  V30 14630 C 1385.89 -0.155669 2.34083 0
M  V30 14631 C 1386.91 -0.887728 1.49651 0
M  V30 14632 O 1388.08 -0.851284 1.82524 0
M  V30 14633 C 1385.15 -1.15752 3.26806 0
M  V30 14634 C 1384.21 -0.43031 4.27138 0
M  V30 14635 C 1383.44 -1.38443 5.15431 0
M  V30 14636 O 1383.66 -2.62084 5.06624 0
M  V30 14637 O 1382.6 -0.89592 5.95195 0
M  V30 14638 H 1386.42 0.56341 2.98428 0
M  V30 14639 H 1384.01 0.341466 1.45445 0
M  V30 14640 H 1385.89 -1.73523 3.84015 0
M  V30 14641 H 1384.57 -1.85809 2.65059 0
M  V30 14642 H 1383.47 0.1892 3.73621 0
M  V30 14643 H 1384.81 0.229263 4.91666 0
M  V30 14644 N 1386.46 -1.54343 0.318742 0
M  V30 14645 C 1387.87 -1.59564 -0.034068 0
M  V30 14646 C 1388.07 -1.33539 -1.50896 0
M  V30 14647 O 1387.13 -1.11746 -2.26427 0
M  V30 14648 C 1388.44 -2.98291 0.379827 0
M  V30 14649 C 1389.99 -3.11255 0.330078 0
M  V30 14650 C 1390.47 -4.5232 0.719061 0
M  V30 14651 N 1391.96 -4.58295 0.67228 0
M  V30 14652 C 1392.69 -5.65551 0.945513 0
M  V30 14653 N 1392.19 -6.80767 1.28563 0
M  V30 14654 N 1393.98 -5.55305 0.871394 0
M  V30 14655 H 1386.13 -1.69518 1.27975 0
M  V30 14656 H 1388.39 -0.792627 0.520044 0
M  V30 14657 H 1388.1 -3.22319 1.40724 0
M  V30 14658 H 1387.97 -3.76319 -0.257606 0
M  V30 14659 H 1390.36 -2.86965 -0.688117 0
M  V30 14660 H 1390.44 -2.35342 1.00238 0
M  V30 14661 H 1390.09 -4.77342 1.73515 0
M  V30 14662 H 1390.02 -5.26594 0.0245001 0
M  V30 14663 H 1392.51 -3.75547 0.421059 0
M  V30 14664 H 1392.82 -7.58503 1.47963 0
M  V30 14665 H 1391.17 -6.82275 1.32385 0
M  V30 14666 H 1394.36 -4.64171 0.605205 0
M  V30 14667 H 1394.53 -6.38806 1.08769 0
M  V30 14668 N 1387.94 -0.0468143 -1.5753 0
M  V30 14669 C 1389.17 0.636723 -1.96544 0
M  V30 14670 C 1389.57 1.65169 -0.922814 0
M  V30 14671 O 1388.92 1.83417 0.101892 0
M  V30 14672 C 1388.98 1.38435 -3.31777 0
M  V30 14673 C 1388.64 0.525714 -4.53966 0
M  V30 14674 C 1389.64 -0.206392 -5.1949 0
M  V30 14675 C 1387.32 0.457919 -5.00208 0
M  V30 14676 C 1389.32 -0.994779 -6.29589 0
M  V30 14677 C 1387.01 -0.334159 -6.10186 0
M  V30 14678 C 1388 -1.0592 -6.74737 0
M  V30 14679 O 1387.69 -1.83826 -7.826 0
M  V30 14680 H 1387.42 0.179197 -0.651816 0
M  V30 14681 H 1389.98 -0.108214 -2.05115 0
M  V30 14682 H 1388.21 2.17482 -3.19748 0
M  V30 14683 H 1389.9 1.9577 -3.55568 0
M  V30 14684 H 1390.66 -0.163457 -4.84724 0
M  V30 14685 H 1386.54 1.01185 -4.49758 0
M  V30 14686 H 1390.09 -1.56121 -6.79906 0
M  V30 14687 H 1385.98 -0.378748 -6.44388 0
M  V30 14688 H 1386.75 -1.75991 -7.99356 0
M  V30 14689 N 1389.41 1.55964 0.226527 0
M  V30 14690 C 1390.36 1.92007 1.28069 0
M  V30 14691 C 1391.33 0.776666 1.46823 0
M  V30 14692 O 1392.52 1.03213 1.60474 0
M  V30 14693 C 1389.66 2.23784 2.62707 0
M  V30 14694 C 1388.77 3.51034 2.51792 0
M  V30 14695 C 1387.9 3.72281 3.7892 0
M  V30 14696 C 1386.94 4.93062 3.62707 0
M  V30 14697 N 1386.08 5.10725 4.81772 0
M  V30 14698 H 1390.92 2.81898 0.96631 0
M  V30 14699 H 1388.46 1.39529 0.465847 0
M  V30 14700 H 1390.42 2.40217 3.41104 0
M  V30 14701 H 1389.05 1.37073 2.92251 0
M  V30 14702 H 1388.1 3.42822 1.64856 0
M  V30 14703 H 1389.41 4.39582 2.35731 0
M  V30 14704 H 1388.56 3.88783 4.6576 0
M  V30 14705 H 1387.3 2.82004 3.97901 0
M  V30 14706 H 1386.31 4.76515 2.7425 0
M  V30 14707 H 1387.53 5.84819 3.45201 0
M  V30 14708 H 1385.48 4.2339 5.01076 0
M  V30 14709 H 1385.4 5.93397 4.68419 0
M  V30 14710 H 1386.66 5.31658 5.70053 0
M  V30 14711 N 1390.89 -0.493031 1.4969 0
M  V30 14712 C 1392.17 -1.25436 1.50084 0
M  V30 14713 C 1392.55 -2.0981 0.233038 0
M  V30 14714 O 1391.9 -2.14617 -0.784342 0
M  V30 14715 C 1392.11 -2.10425 2.78428 0
M  V30 14716 C 1393.46 -2.69349 3.28232 0
M  V30 14717 O 1394.48 -2.20686 2.796 0
M  V30 14718 O 1393.34 -3.57956 4.12953 0
M  V30 14719 H 1390.43 -0.568044 0.601045 0
M  V30 14720 H 1392.98 -0.506648 1.6196 0
M  V30 14721 H 1391.75 -1.48108 3.62187 0
M  V30 14722 H 1391.37 -2.92374 2.6945 0
M  V30 14723 N 1392.37 -1.38898 -0.744656 0
M  V30 14724 C 1393.32 -1.36974 -1.87992 0
M  V30 14725 C 1394.31 -0.254277 -1.67481 0
M  V30 14726 O 1395.52 -0.423797 -1.7494 0
M  V30 14727 H 1391.89 -0.427508 -0.618661 0
M  V30 14728 H 1393.86 -2.32754 -1.86731 0
M  V30 14729 C 1392.61 -1.22054 -3.25573 0
M  V30 14730 H 1391.94 -2.07152 -3.41947 0
M  V30 14731 H 1393.38 -1.24763 -4.05228 0
M  V30 14732 C 1391.84 0.0718413 -3.36823 0
M  V30 14733 O 1392.37 1.0456 -3.87853 0
M  V30 14734 N 1390.57 0.131672 -2.90302 0
M  V30 14735 H 1390.12 -0.661428 -2.48964 0
M  V30 14736 H 1390.08 0.995936 -2.98209 0
M  V30 14737 N 1393.85 0.973806 -1.23914 0
M  V30 14738 C 1395.1 1.71598 -1.07519 0
M  V30 14739 C 1395.42 1.90613 0.386926 0
M  V30 14740 O 1394.68 1.46056 1.30254 0
M  V30 14741 C 1394.98 3.11441 -1.75326 0
M  V30 14742 C 1394.64 3.12286 -3.25251 0
M  V30 14743 C 1393.31 3.12224 -3.66155 0
M  V30 14744 C 1395.66 3.0709 -4.21124 0
M  V30 14745 C 1392.99 3.0469 -5.01379 0
M  V30 14746 C 1395.34 3.01098 -5.56348 0
M  V30 14747 C 1394 2.99362 -5.96606 0
M  V30 14748 H 1393.27 0.627922 -0.39344 0
M  V30 14749 H 1395.92 1.13912 -1.53936 0
M  V30 14750 H 1394.22 3.72555 -1.21286 0
M  V30 14751 H 1395.92 3.67649 -1.60111 0
M  V30 14752 H 1392.51 3.13096 -2.92693 0
M  V30 14753 H 1396.69 3.06272 -3.90527 0
M  V30 14754 H 1391.95 3.01703 -5.31776 0
M  V30 14755 H 1396.12 2.96036 -6.30346 0
M  V30 14756 H 1393.75 2.93279 -7.0135 0
M  V30 14757 N 1395.33 1.05191 1.17357 0
M  V30 14758 C 1396.55 0.782373 1.91537 0
M  V30 14759 C 1396.97 -0.661935 1.76816 0
M  V30 14760 O 1396.33 -1.45221 1.10531 0
M  V30 14761 C 1396.38 1.15357 3.426 0
M  V30 14762 O 1396.1 2.54119 3.56869 0
M  V30 14763 C 1397.6 0.910167 4.33856 0
M  V30 14764 H 1394.82 0.284461 0.607719 0
M  V30 14765 H 1397.36 1.40259 1.48821 0
M  V30 14766 H 1395.52 0.578107 3.83062 0
M  V30 14767 H 1395.93 2.68668 4.50464 0
M  V30 14768 H 1397.41 1.21964 5.38358 0
M  V30 14769 H 1397.88 -0.154624 4.38928 0
M  V30 14770 H 1398.49 1.46947 3.99107 0
M  V30 14771 N 1396.8 -1.33791 0.83293 0
M  V30 14772 C 1397.77 -2.27637 0.267196 0
M  V30 14773 C 1398.77 -1.50709 -0.560669 0
M  V30 14774 O 1399.96 -1.70109 -0.375321 0
M  V30 14775 C 1397.09 -3.35136 -0.624248 0
M  V30 14776 H 1398.28 -2.79186 1.09522 0
M  V30 14777 H 1395.84 -1.44093 0.605554 0
M  V30 14778 H 1396.57 -2.88818 -1.47494 0
M  V30 14779 H 1396.36 -3.92087 -0.0319827 0
M  V30 14780 H 1397.85 -4.05113 -1.01355 0
M  V30 14781 N 1398.28 -0.588812 -1.46187 0
M  V30 14782 C 1399.25 0.130803 -2.28826 0
M  V30 14783 C 1400.25 0.813037 -1.38731 0
M  V30 14784 O 1401.44 0.664061 -1.61046 0
M  V30 14785 C 1398.57 1.19484 -3.19275 0
M  V30 14786 H 1399.76 -0.595514 -2.93928 0
M  V30 14787 H 1397.31 -0.347038 -1.52399 0
M  V30 14788 H 1398.05 1.95254 -2.58933 0
M  V30 14789 H 1397.83 0.710077 -3.85617 0
M  V30 14790 H 1399.32 1.69938 -3.81459 0
M  V30 14791 N 1399.76 1.54172 -0.326923 0
M  V30 14792 C 1401.01 2.00233 0.274098 0
M  V30 14793 C 1401.33 1.21665 1.5239 0
M  V30 14794 O 1400.6 0.319359 1.93279 0
M  V30 14795 H 1399.18 0.739687 0.104271 0
M  V30 14796 H 1401.84 1.8977 -0.444244 0
M  V30 14797 H 1400.94 3.07599 0.528154 0
M  V30 14798 N 1401.24 0.0551678 1.57503 0
M  V30 14799 C 1402.47 -0.626291 1.96879 0
M  V30 14800 C 1402.88 -1.64677 0.93156 0
M  V30 14801 O 1402.22 -1.83469 -0.0921632 0
M  V30 14802 C 1402.28 -1.36674 3.32506 0
M  V30 14803 C 1401.95 -0.501632 4.54239 0
M  V30 14804 C 1402.94 0.233939 5.19373 0
M  V30 14805 C 1400.63 -0.431385 5.00444 0
M  V30 14806 C 1402.62 1.02815 6.29053 0
M  V30 14807 C 1400.31 0.366514 6.1 0
M  V30 14808 C 1401.31 1.09497 6.74166 0
M  V30 14809 O 1400.99 1.87974 7.81614 0
M  V30 14810 H 1400.73 -0.175738 0.652757 0
M  V30 14811 H 1403.28 0.11909 2.05054 0
M  V30 14812 H 1401.51 -2.15783 3.20896 0
M  V30 14813 H 1403.2 -1.93882 3.56602 0
M  V30 14814 H 1403.97 0.189161 4.84631 0
M  V30 14815 H 1399.84 -0.98798 4.50289 0
M  V30 14816 H 1403.39 1.59724 6.79068 0
M  V30 14817 H 1399.29 0.412916 6.44178 0
M  V30 14818 H 1400.05 1.80228 7.98411 0
M  V30 14819 N 1402.72 -1.56081 -0.218252 0
M  V30 14820 C 1403.66 -1.93544 -1.2901 0
M  V30 14821 C 1404.66 -0.817886 -1.48348 0
M  V30 14822 O 1405.86 -1.00274 -1.49483 0
M  V30 14823 H 1402.24 -0.61511 -0.432601 0
M  V30 14824 H 1404.21 -2.82975 -0.946966 0
M  V30 14825 C 1402.96 -2.27134 -2.63259 0
M  V30 14826 H 1402.28 -3.12643 -2.49188 0
M  V30 14827 H 1403.72 -2.57228 -3.3706 0
M  V30 14828 C 1402.18 -1.09764 -3.18518 0
M  V30 14829 O 1402.71 -0.360501 -4.00079 0
M  V30 14830 N 1400.92 -0.880589 -2.76937 0
M  V30 14831 H 1400.46 -1.48175 -2.10718 0
M  V30 14832 H 1400.42 -0.0970234 -3.1425 0
M  V30 14833 N 1404.2 0.485086 -1.49949 0
M  V30 14834 C 1405.42 1.26648 -1.64241 0
M  V30 14835 C 1405.85 1.85359 -0.319939 0
M  V30 14836 O 1405.2 1.66628 0.714487 0
M  V30 14837 C 1405.25 2.36109 -2.72552 0
M  V30 14838 O 1404.36 3.40387 -2.32832 0
M  V30 14839 H 1403.7 0.373208 -0.549192 0
M  V30 14840 H 1406.23 0.578929 -1.96239 0
M  V30 14841 H 1406.24 2.81634 -2.95205 0
M  V30 14842 H 1404.91 1.92745 -3.6854 0
M  V30 14843 H 1403.49 3.0067 -2.20571 0
M  V30 14844 N 1405.67 1.39291 0.737279 0
M  V30 14845 C 1406.6 1.40562 1.86452 0
M  V30 14846 C 1407.58 0.269283 1.67955 0
M  V30 14847 O 1408.77 0.474769 1.88307 0
M  V30 14848 C 1405.9 1.2461 3.24175 0
M  V30 14849 C 1404.85 2.35619 3.57306 0
M  V30 14850 C 1404.18 2.04758 4.93941 0
M  V30 14851 C 1405.48 3.77927 3.60512 0
M  V30 14852 H 1407.17 2.34896 1.85646 0
M  V30 14853 H 1404.72 1.13065 0.891756 0
M  V30 14854 H 1406.67 1.2412 4.02706 0
M  V30 14855 H 1405.4 0.267438 3.25503 0
M  V30 14856 H 1404.06 2.35322 2.81104 0
M  V30 14857 H 1403.7 1.05336 4.91847 0
M  V30 14858 H 1403.4 2.79117 5.17076 0
M  V30 14859 H 1404.93 2.05915 5.74832 0
M  V30 14860 H 1406.34 3.80166 4.29123 0
M  V30 14861 H 1404.74 4.51626 3.95164 0
M  V30 14862 H 1405.81 4.09068 2.60368 0
M  V30 14863 N 1407.15 -0.967221 1.24429 0
M  V30 14864 C 1408.06 -2.09582 1.05417 0
M  V30 14865 C 1409.08 -1.73999 -0.00516127 0
M  V30 14866 O 1410.25 -2.00472 0.193115 0
M  V30 14867 C 1407.32 -3.40327 0.661697 0
M  V30 14868 C 1406.38 -3.89854 1.79756 0
M  V30 14869 C 1405.61 -5.1436 1.42372 0
M  V30 14870 O 1405.84 -5.69536 0.313754 0
M  V30 14871 O 1404.77 -5.58283 2.24952 0
M  V30 14872 H 1408.6 -2.28517 2.00034 0
M  V30 14873 H 1406.18 -1.07978 1.03253 0
M  V30 14874 H 1408.06 -4.18943 0.454369 0
M  V30 14875 H 1406.74 -3.22691 -0.255348 0
M  V30 14876 H 1405.64 -3.12297 2.05964 0
M  V30 14877 H 1406.98 -4.11967 2.69339 0
M  V30 14878 N 1408.63 -1.05812 -1.16797 0
M  V30 14879 C 1409.85 -0.792518 -1.91661 0
M  V30 14880 C 1410.28 0.646598 -1.76637 0
M  V30 14881 O 1409.64 1.44998 -1.08836 0
M  V30 14882 C 1409.69 -1.18585 -3.40544 0
M  V30 14883 O 1408.79 -0.321716 -4.11143 0
M  V30 14884 H 1408.13 -0.290066 -0.597292 0
M  V30 14885 H 1410.66 -1.41263 -1.48007 0
M  V30 14886 H 1410.67 -1.1553 -3.91301 0
M  V30 14887 H 1409.35 -2.23413 -3.50798 0
M  V30 14888 H 1407.92 -0.413403 -3.70601 0
M  V30 14889 N 1410.11 1.33347 -0.840014 0
M  V30 14890 C 1411.35 1.98037 -0.43692 0
M  V30 14891 C 1411.69 1.66382 1.00154 0
M  V30 14892 O 1410.96 0.944311 1.70038 0
M  V30 14893 C 1411.24 3.54012 -0.65937 0
M  V30 14894 C 1411.1 3.9535 -2.14518 0
M  V30 14895 C 1412.42 4.39972 -0.106258 0
M  V30 14896 H 1409.54 0.719373 -0.160221 0
M  V30 14897 H 1412.18 1.57969 -1.05574 0
M  V30 14898 H 1410.33 3.88274 -0.132633 0
M  V30 14899 H 1412 3.7134 -2.73687 0
M  V30 14900 H 1410.24 3.4504 -2.62926 0
M  V30 14901 H 1410.91 5.03992 -2.25158 0
M  V30 14902 H 1413.39 4.12362 -0.556511 0
M  V30 14903 H 1412.27 5.48125 -0.291583 0
M  V30 14904 H 1412.53 4.30872 0.990032 0
M  V30 14905 N 1411.59 0.596556 1.45873 0
M  V30 14906 C 1412.55 -0.118666 2.28893 0
M  V30 14907 C 1413.55 -0.805668 1.3916 0
M  V30 14908 O 1414.74 -0.655511 1.61396 0
M  V30 14909 C 1411.87 -1.17789 3.19904 0
M  V30 14910 H 1413.06 0.611093 2.93608 0
M  V30 14911 H 1410.62 0.355115 1.52212 0
M  V30 14912 H 1411.35 -1.93878 2.59965 0
M  V30 14913 H 1411.14 -0.689616 3.85988 0
M  V30 14914 H 1412.63 -1.67912 3.82355 0
M  V30 14915 N 1413.06 -1.53996 0.335095 0
M  V30 14916 C 1414.48 -1.59591 -0.0171422 0
M  V30 14917 C 1414.68 -1.35132 -1.49471 0
M  V30 14918 O 1413.74 -1.14141 -2.25229 0
M  V30 14919 C 1415.05 -2.97872 0.411443 0
M  V30 14920 C 1416.6 -3.10887 0.363072 0
M  V30 14921 C 1417.07 -4.51532 0.766995 0
M  V30 14922 N 1418.56 -4.57557 0.72085 0
M  V30 14923 C 1419.3 -5.64516 1.00544 0
M  V30 14924 N 1418.79 -6.79365 1.35777 0
M  V30 14925 N 1420.59 -5.54349 0.930243 0
M  V30 14926 H 1412.74 -1.68151 1.29766 0
M  V30 14927 H 1415 -0.787067 0.528422 0
M  V30 14928 H 1414.71 -3.20809 1.44134 0
M  V30 14929 H 1414.58 -3.76571 -0.217678 0
M  V30 14930 H 1416.97 -2.87679 -0.657642 0
M  V30 14931 H 1417.05 -2.34266 1.02728 0
M  V30 14932 H 1416.69 -4.75474 1.78568 0
M  V30 14933 H 1416.62 -5.26539 0.0803511 0
M  V30 14934 H 1419.11 -3.75079 0.460867 0
M  V30 14935 H 1419.43 -7.56891 1.55999 0
M  V30 14936 H 1417.77 -6.80833 1.39614 0
M  V30 14937 H 1420.96 -4.63503 0.654402 0
M  V30 14938 H 1421.14 -6.37616 1.15539 0
M  V30 14939 N 1414.54 -0.0635198 -1.57472 0
M  V30 14940 C 1415.47 0.942339 -2.07835 0
M  V30 14941 C 1416.45 1.29629 -0.981587 0
M  V30 14942 O 1417.64 1.40702 -1.25439 0
M  V30 14943 C 1414.76 2.25284 -2.52913 0
M  V30 14944 C 1413.81 2.05105 -3.73944 0
M  V30 14945 S 1414.64 1.31802 -5.19026 0
M  V30 14946 C 1415.8 2.64149 -5.67429 0
M  V30 14947 H 1416.03 0.513772 -2.92827 0
M  V30 14948 H 1413.56 0.149049 -1.53679 0
M  V30 14949 H 1415.52 3.00607 -2.79546 0
M  V30 14950 H 1414.18 2.65266 -1.68204 0
M  V30 14951 H 1413.38 3.02071 -4.03447 0
M  V30 14952 H 1412.98 1.3792 -3.47641 0
M  V30 14953 H 1415.27 3.60272 -5.73769 0
M  V30 14954 H 1416.21 2.39267 -6.66451 0
M  V30 14955 H 1416.62 2.70975 -4.9521 0
M  V30 14956 N 1416.02 1.56195 0.209972 0
M  V30 14957 C 1417.25 1.8384 0.949228 0
M  V30 14958 C 1417.66 0.644141 1.77472 0
M  V30 14959 O 1417.02 -0.387276 1.78344 0
M  V30 14960 C 1417.07 3.10131 1.85745 0
M  V30 14961 O 1416.79 4.2495 1.06531 0
M  V30 14962 C 1418.29 3.50847 2.70963 0
M  V30 14963 H 1415.51 0.610856 0.277662 0
M  V30 14964 H 1418.06 2.03295 0.221708 0
M  V30 14965 H 1416.21 2.92618 2.53877 0
M  V30 14966 H 1416.63 4.96769 1.68287 0
M  V30 14967 H 1418.1 4.4222 3.30372 0
M  V30 14968 H 1418.58 2.73139 3.43936 0
M  V30 14969 H 1419.18 3.7084 2.08226 0
M  V30 14970 N 1417.5 -0.477127 1.50204 0
M  V30 14971 C 1418.75 -1.22639 1.60133 0
M  V30 14972 C 1419.06 -1.93218 0.304333 0
M  V30 14973 O 1420.27 -2.70027 0.282457 0
M  V30 14974 C 1418.72 -2.22807 2.82639 0
M  V30 14975 C 1418.33 -1.58059 4.19191 0
M  V30 14976 C 1420.07 -2.98413 3.01911 0
M  V30 14977 C 1417.98 -2.56478 5.32891 0
M  V30 14978 H 1416.91 -0.461439 0.596314 0
M  V30 14979 H 1419.56 -0.497533 1.76626 0
M  V30 14980 H 1417.94 -2.98959 2.59692 0
M  V30 14981 H 1419.12 -0.877374 4.5237 0
M  V30 14982 H 1417.43 -0.947563 4.05475 0
M  V30 14983 H 1420.03 -3.72059 3.84026 0
M  V30 14984 H 1420.37 -3.57444 2.134 0
M  V30 14985 H 1420.91 -2.29375 3.25011 0
M  V30 14986 H 1417.64 -2.02194 6.23536 0
M  V30 14987 H 1417.16 -3.24969 5.04138 0
M  V30 14988 H 1418.84 -3.18429 5.63216 0
M  V30 14989 N 1418.98 -1.3968 -0.729882 0
M  V30 14990 C 1419.89 -1.41094 -1.87429 0
M  V30 14991 C 1420.9 -0.305142 -1.71303 0
M  V30 14992 O 1422.08 -0.54744 -1.93817 0
M  V30 14993 C 1419.14 -1.25786 -3.23077 0
M  V30 14994 C 1418.2 -2.46382 -3.5156 0
M  V30 14995 C 1417.44 -2.31795 -4.80735 0
M  V30 14996 O 1417.66 -1.32415 -5.54818 0
M  V30 14997 O 1416.59 -3.20883 -5.09232 0
M  V30 14998 H 1420.42 -2.37571 -1.89192 0
M  V30 14999 H 1418.01 -1.2085 -0.878389 0
M  V30 15000 H 1419.89 -1.19402 -4.0413 0
M  V30 15001 H 1418.56 -0.324065 -3.22074 0
M  V30 15002 H 1417.47 -2.58343 -2.70573 0
M  V30 15003 H 1418.8 -3.38473 -3.57347 0
M  V30 15004 N 1420.45 0.960609 -1.2494 0
M  V30 15005 C 1421.73 1.68035 -1.00118 0
M  V30 15006 C 1422.11 2.057 0.474399 0
M  V30 15007 O 1421.46 1.76569 1.45036 0
M  V30 15008 C 1421.67 2.90708 -1.93106 0
M  V30 15009 C 1423.02 3.62792 -2.20606 0
M  V30 15010 O 1424.04 3.00778 -1.90816 0
M  V30 15011 O 1422.9 4.74443 -2.71231 0
M  V30 15012 H 1419.99 0.734939 -0.379202 0
M  V30 15013 H 1422.54 1.01407 -1.36069 0
M  V30 15014 H 1421.31 2.59619 -2.92769 0
M  V30 15015 H 1420.94 3.65068 -1.57515 0
M  V30 15016 N 1421.93 1.0643 1.16234 0
M  V30 15017 C 1423.18 0.782998 1.87075 0
M  V30 15018 C 1423.51 -0.688852 1.81572 0
M  V30 15019 O 1422.79 -1.50478 1.23234 0
M  V30 15020 C 1423.07 1.27997 3.36584 0
M  V30 15021 C 1422.92 2.81568 3.5077 0
M  V30 15022 C 1424.24 0.888975 4.31028 0
M  V30 15023 H 1421.36 0.28591 0.679282 0
M  V30 15024 H 1424 1.32046 1.36615 0
M  V30 15025 H 1422.15 0.822756 3.79688 0
M  V30 15026 H 1423.82 3.35508 3.16595 0
M  V30 15027 H 1422.07 3.2023 2.92635 0
M  V30 15028 H 1422.74 3.11406 4.55774 0
M  V30 15029 H 1425.21 1.28279 3.95833 0
M  V30 15030 H 1424.09 1.26416 5.34144 0
M  V30 15031 H 1424.35 -0.205973 4.4162 0
M  V30 15032 N 1423.41 -1.329 0.847073 0
M  V30 15033 C 1424.34 -2.27027 0.231111 0
M  V30 15034 C 1425.32 -1.50045 -0.626524 0
M  V30 15035 O 1426.51 -1.79193 -0.58499 0
M  V30 15036 C 1423.63 -3.31911 -0.67472 0
M  V30 15037 C 1422.68 -4.26362 0.108531 0
M  V30 15038 S 1423.51 -5.14874 1.4719 0
M  V30 15039 C 1424.67 -6.23285 0.571586 0
M  V30 15040 H 1424.9 -2.78922 1.02906 0
M  V30 15041 H 1422.43 -1.40315 0.64428 0
M  V30 15042 H 1424.39 -3.92821 -1.19172 0
M  V30 15043 H 1423.05 -2.78815 -1.44641 0
M  V30 15044 H 1422.25 -5.00639 -0.581079 0
M  V30 15045 H 1421.85 -3.69831 0.556863 0
M  V30 15046 H 1424.14 -6.77119 -0.227261 0
M  V30 15047 H 1425.08 -6.96347 1.28477 0
M  V30 15048 H 1425.49 -5.64303 0.149291 0
M  V30 15049 N 1424.89 -0.604284 -1.45555 0
M  V30 15050 C 1426.11 -0.102634 -2.07146 0
M  V30 15051 C 1426.54 1.20239 -1.44652 0
M  V30 15052 O 1425.9 1.73133 -0.538033 0
M  V30 15053 C 1425.94 0.0270231 -3.6059 0
M  V30 15054 O 1425.05 1.0781 -3.98059 0
M  V30 15055 H 1424.39 -0.0725667 -0.660023 0
M  V30 15056 H 1426.92 -0.833355 -1.86859 0
M  V30 15057 H 1426.93 0.226299 -4.07372 0
M  V30 15058 H 1425.6 -0.925896 -4.05463 0
M  V30 15059 H 1424.18 0.855552 -3.62953 0
M  V30 15060 N 1426.37 1.53816 -0.343257 0
M  V30 15061 C 1427.3 2.27951 0.506005 0
M  V30 15062 C 1428.28 1.29502 1.10287 0
M  V30 15063 O 1429.46 1.58344 1.12432 0
M  V30 15064 C 1426.59 3.0521 1.65723 0
M  V30 15065 C 1425.55 4.11161 1.18871 0
M  V30 15066 C 1424.87 4.76373 2.42843 0
M  V30 15067 C 1426.17 5.21498 0.289403 0
M  V30 15068 H 1427.87 2.99189 -0.112435 0
M  V30 15069 H 1425.41 1.43893 -0.055516 0
M  V30 15070 H 1427.37 3.55811 2.2578 0
M  V30 15071 H 1426.09 2.31624 2.30256 0
M  V30 15072 H 1424.75 3.61473 0.610962 0
M  V30 15073 H 1424.4 3.99381 3.05784 0
M  V30 15074 H 1424.1 5.47955 2.12177 0
M  V30 15075 H 1425.62 5.29758 3.03627 0
M  V30 15076 H 1427.03 5.67736 0.796808 0
M  V30 15077 H 1425.43 6.00054 0.0746366 0
M  V30 15078 H 1426.5 4.80185 -0.674543 0
M  V30 15079 N 1427.84 0.0718701 1.57436 0
M  V30 15080 C 1429.09 -0.596052 1.9311 0
M  V30 15081 C 1429.41 -1.70146 0.952652 0
M  V30 15082 O 1428.68 -1.959 0.000812941 0
M  V30 15083 H 1427.26 -0.223165 0.712886 0
M  V30 15084 H 1429.93 0.129744 1.94468 0
M  V30 15085 H 1429.02 -1.02132 2.94916 0
M  V30 15086 N 1429.32 -1.56304 -0.201686 0
M  V30 15087 C 1430.57 -1.79433 -0.921241 0
M  V30 15088 C 1430.88 -0.643943 -1.84696 0
M  V30 15089 O 1432.09 -0.759359 -2.60665 0
M  V30 15090 C 1430.55 -3.17835 -1.68846 0
M  V30 15091 C 1430.15 -4.40655 -0.807892 0
M  V30 15092 C 1431.9 -3.50277 -2.39805 0
M  V30 15093 C 1429.81 -5.7008 -1.5736 0
M  V30 15094 H 1428.74 -0.669029 -0.34773 0
M  V30 15095 H 1431.39 -1.82667 -0.174657 0
M  V30 15096 H 1429.77 -3.08832 -2.47869 0
M  V30 15097 H 1430.94 -4.60765 -0.0567923 0
M  V30 15098 H 1429.26 -4.15873 -0.209465 0
M  V30 15099 H 1431.85 -4.44207 -2.97631 0
M  V30 15100 H 1432.2 -2.7371 -3.1367 0
M  V30 15101 H 1432.73 -3.60698 -1.67754 0
M  V30 15102 H 1429.47 -6.49595 -0.877855 0
M  V30 15103 H 1428.99 -5.53999 -2.2988 0
M  V30 15104 H 1430.67 -6.10964 -2.12912 0
M  V30 15105 N 1430.8 0.469154 -1.50455 0
M  V30 15106 C 1432.03 1.24432 -1.653 0
M  V30 15107 C 1432.44 1.85766 -0.33713 0
M  V30 15108 O 1431.8 1.69313 0.681118 0
M  V30 15109 C 1431.85 2.35163 -2.74555 0
M  V30 15110 O 1431.57 1.76344 -4.01042 0
M  V30 15111 C 1433.07 3.26006 -3.00391 0
M  V30 15112 H 1430.29 0.376251 -0.555587 0
M  V30 15113 H 1432.84 0.559777 -1.96689 0
M  V30 15114 H 1430.99 2.99389 -2.45855 0
M  V30 15115 H 1431.41 2.49278 -4.61477 0
M  V30 15116 H 1432.88 3.99909 -3.80496 0
M  V30 15117 H 1433.36 3.84901 -2.11537 0
M  V30 15118 H 1433.96 2.67515 -3.3063 0
M  V30 15119 N 1432.28 1.40065 0.722464 0
M  V30 15120 C 1433.21 1.42532 1.84951 0
M  V30 15121 C 1434.19 0.287082 1.6766 0
M  V30 15122 O 1435.37 0.494715 1.87793 0
M  V30 15123 C 1432.5 1.28041 3.22836 0
M  V30 15124 C 1431.46 2.39396 3.54787 0
M  V30 15125 C 1430.78 2.09986 4.91742 0
M  V30 15126 C 1432.08 3.81729 3.56483 0
M  V30 15127 H 1433.78 2.36851 1.83144 0
M  V30 15128 H 1431.32 1.14005 0.879714 0
M  V30 15129 H 1433.28 1.28385 4.01367 0
M  V30 15130 H 1432 0.301947 3.25201 0
M  V30 15131 H 1430.66 2.3829 2.78592 0
M  V30 15132 H 1430.31 1.10547 4.90702 0
M  V30 15133 H 1430.01 2.84586 5.14086 0
M  V30 15134 H 1431.53 2.12 5.72615 0
M  V30 15135 H 1432.95 3.84696 4.25067 0
M  V30 15136 H 1431.34 4.55791 3.90351 0
M  V30 15137 H 1432.41 4.11807 2.56014 0
M  V30 15138 N 1433.76 -0.95397 1.25448 0
M  V30 15139 C 1435 -1.70118 1.10399 0
M  V30 15140 C 1435.34 -1.90945 -0.354093 0
M  V30 15141 O 1434.61 -1.48088 -1.26096 0
M  V30 15142 C 1434.89 -3.08371 1.85955 0
M  V30 15143 C 1434.75 -2.9495 3.39595 0
M  V30 15144 C 1436.07 -4.08273 1.64321 0
M  V30 15145 H 1433.19 -0.617424 0.402438 0
M  V30 15146 H 1435.83 -1.10884 1.54288 0
M  V30 15147 H 1433.98 -3.58936 1.48651 0
M  V30 15148 H 1435.65 -2.51705 3.86578 0
M  V30 15149 H 1433.89 -2.30853 3.67273 0
M  V30 15150 H 1434.56 -3.92952 3.87676 0
M  V30 15151 H 1437.04 -3.6662 1.96796 0
M  V30 15152 H 1435.92 -5.03048 2.19622 0
M  V30 15153 H 1436.18 -4.38217 0.584685 0
M  V30 15154 N 1435.24 -1.07045 -1.15668 0
M  V30 15155 C 1436.48 -0.790172 -1.86013 0
M  V30 15156 C 1436.8 0.685663 -1.82548 0
M  V30 15157 O 1436.07 1.49644 -1.26426 0
M  V30 15158 H 1434.65 -0.28931 -0.688701 0
M  V30 15159 H 1437.32 -1.35354 -1.40233 0
M  V30 15160 H 1436.41 -1.1219 -2.91239 0
M  V30 15161 N 1436.71 1.32449 -0.85411 0
M  V30 15162 C 1437.66 2.26394 -0.270121 0
M  V30 15163 C 1438.65 1.49939 0.58371 0
M  V30 15164 O 1439.84 1.71617 0.433182 0
M  V30 15165 C 1436.97 3.3901 0.540998 0
M  V30 15166 C 1436.05 4.22851 -0.32519 0
M  V30 15167 N 1436.45 4.85715 -1.41118 0
M  V30 15168 C 1434.74 4.45852 -0.114845 0
M  V30 15169 C 1435.44 5.48254 -1.94402 0
M  V30 15170 N 1434.42 5.29192 -1.24327 0
M  V30 15171 H 1438.22 2.72523 -1.10037 0
M  V30 15172 H 1435.74 1.46531 -0.700167 0
M  V30 15173 H 1437.73 4.0532 0.975778 0
M  V30 15174 H 1436.39 2.94427 1.36905 0
M  V30 15175 H 1437.4 4.85831 -1.79411 0
M  V30 15176 H 1434.08 4.11949 0.678533 0
M  V30 15177 H 1435.47 6.08259 -2.8543 0
M  V30 15178 N 1438.19 0.611994 1.45232 0
M  V30 15179 C 1439.12 -0.142449 2.28757 0
M  V30 15180 C 1440.14 -0.827486 1.40202 0
M  V30 15181 O 1441.33 -0.692136 1.64535 0
M  V30 15182 C 1438.43 -1.22296 3.16065 0
M  V30 15183 C 1437.6 -0.624178 4.32924 0
M  V30 15184 C 1436.66 -1.59615 5.01408 0
M  V30 15185 O 1435.68 -1.12073 5.58058 0
M  V30 15186 N 1436.89 -2.93057 5.01097 0
M  V30 15187 H 1439.65 0.574276 2.94147 0
M  V30 15188 H 1437.21 0.451789 1.55469 0
M  V30 15189 H 1439.2 -1.87309 3.58744 0
M  V30 15190 H 1437.77 -1.84215 2.52554 0
M  V30 15191 H 1436.99 0.204141 3.93671 0
M  V30 15192 H 1438.28 -0.204435 5.08389 0
M  V30 15193 H 1437.68 -3.3428 4.5637 0
M  V30 15194 H 1436.24 -3.53481 5.47626 0
M  V30 15195 N 1439.67 -1.53632 0.351409 0
M  V30 15196 C 1440.62 -2.25281 -0.501724 0
M  V30 15197 C 1441.59 -1.25406 -1.08915 0
M  V30 15198 O 1442.77 -1.54157 -1.1243 0
M  V30 15199 C 1439.91 -3.03491 -1.64278 0
M  V30 15200 C 1439.02 -4.18233 -1.0819 0
M  V30 15201 C 1438.16 -4.83914 -2.1909 0
M  V30 15202 C 1437.2 -5.90712 -1.60394 0
M  V30 15203 N 1436.34 -6.50141 -2.65068 0
M  V30 15204 H 1441.18 -2.97775 0.11579 0
M  V30 15205 H 1438.71 -1.46938 0.0689141 0
M  V30 15206 H 1440.67 -3.47101 -2.31467 0
M  V30 15207 H 1439.3 -2.33279 -2.23116 0
M  V30 15208 H 1438.35 -3.7921 -0.300713 0
M  V30 15209 H 1439.66 -4.95023 -0.612644 0
M  V30 15210 H 1438.82 -5.30635 -2.94128 0
M  V30 15211 H 1437.56 -4.06565 -2.69362 0
M  V30 15212 H 1436.56 -5.43366 -0.838646 0
M  V30 15213 H 1437.79 -6.69973 -1.10964 0
M  V30 15214 H 1435.73 -5.75652 -3.14581 0
M  V30 15215 H 1435.65 -7.22427 -2.22788 0
M  V30 15216 H 1436.92 -7.01513 -3.39852 0
M  V30 15217 N 1441.15 -0.0802183 -1.57396 0
M  V30 15218 C 1442.09 0.884041 -2.13198 0
M  V30 15219 C 1443.06 1.28975 -1.04664 0
M  V30 15220 O 1444.25 1.37413 -1.32372 0
M  V30 15221 C 1441.39 2.14323 -2.7048 0
M  V30 15222 C 1440.5 1.7894 -3.93198 0
M  V30 15223 C 1439.64 2.99534 -4.38695 0
M  V30 15224 C 1438.68 2.60207 -5.54039 0
M  V30 15225 N 1437.81 3.73587 -5.94455 0
M  V30 15226 H 1442.65 0.40131 -2.95285 0
M  V30 15227 H 1440.19 0.186429 -1.45914 0
M  V30 15228 H 1442.15 2.88046 -3.01804 0
M  V30 15229 H 1440.78 2.60122 -1.91144 0
M  V30 15230 H 1439.83 0.952465 -3.68283 0
M  V30 15231 H 1441.14 1.46012 -4.76951 0
M  V30 15232 H 1440.3 3.81526 -4.71724 0
M  V30 15233 H 1439.04 3.35661 -3.53812 0
M  V30 15234 H 1438.04 1.76638 -5.20652 0
M  V30 15235 H 1439.27 2.2524 -6.40659 0
M  V30 15236 H 1437.21 4.0946 -5.12521 0
M  V30 15237 H 1437.13 3.44455 -6.72969 0
M  V30 15238 H 1438.4 4.56133 -6.3211 0
M  V30 15239 N 1442.63 1.56409 0.193394 0
M  V30 15240 C 1443.87 1.79919 0.911712 0
M  V30 15241 C 1444.19 0.653729 1.84352 0
M  V30 15242 O 1445.39 0.773172 2.60258 0
M  V30 15243 C 1443.85 3.18726 1.67158 0
M  V30 15244 C 1443.46 4.41078 0.784512 0
M  V30 15245 C 1445.2 3.51544 2.37944 0
M  V30 15246 C 1443.11 5.70907 1.54335 0
M  V30 15247 H 1442.04 0.670864 0.344177 0
M  V30 15248 H 1444.69 1.82757 0.164967 0
M  V30 15249 H 1443.07 3.10142 2.46227 0
M  V30 15250 H 1444.25 4.60789 0.032356 0
M  V30 15251 H 1442.56 4.15978 0.187407 0
M  V30 15252 H 1445.16 4.45779 2.95271 0
M  V30 15253 H 1445.5 2.75369 3.12214 0
M  V30 15254 H 1446.03 3.61583 1.65839 0
M  V30 15255 H 1442.77 6.50052 0.843393 0
M  V30 15256 H 1442.29 5.5521 2.26939 0
M  V30 15257 H 1443.97 6.12085 2.09669 0
M  V30 15258 N 1444.1 -0.461169 1.50702 0
M  V30 15259 C 1445.04 -1.57702 1.64941 0
M  V30 15260 C 1446.01 -1.54808 0.497312 0
M  V30 15261 O 1447.2 -1.74286 0.718104 0
M  V30 15262 C 1444.33 -2.96285 1.64112 0
M  V30 15263 C 1443.37 -3.17296 2.85001 0
M  V30 15264 S 1444.2 -2.96134 4.46167 0
M  V30 15265 C 1445.36 -4.37042 4.48046 0
M  V30 15266 H 1445.59 -1.45386 2.59327 0
M  V30 15267 H 1443.13 -0.649209 1.40088 0
M  V30 15268 H 1445.08 -3.76178 1.64318 0
M  V30 15269 H 1443.75 -3.05983 0.709442 0
M  V30 15270 H 1442.94 -4.18561 2.80754 0
M  V30 15271 H 1442.54 -2.45191 2.82413 0
M  V30 15272 H 1444.83 -5.29846 4.2222 0
M  V30 15273 H 1445.78 -4.4633 5.49723 0
M  V30 15274 H 1446.18 -4.19584 3.77637 0
M  V30 15275 N 1445.58 -1.40446 -0.715026 0
M  V30 15276 C 1446.81 -1.42263 -1.50917 0
M  V30 15277 C 1447.23 -0.0242402 -1.88084 0
M  V30 15278 O 1446.59 0.967817 -1.53307 0
M  V30 15279 C 1446.64 -2.31998 -2.7606 0
M  V30 15280 O 1445.74 -1.76361 -3.72787 0
M  V30 15281 H 1445.08 -0.483614 -0.454988 0
M  V30 15282 H 1447.61 -1.84682 -0.880549 0
M  V30 15283 H 1447.62 -2.47204 -3.24583 0
M  V30 15284 H 1446.3 -3.33614 -2.48343 0
M  V30 15285 H 1444.87 -1.70504 -3.31636 0
M  V30 15286 N 1447.06 0.947303 -1.25952 0
M  V30 15287 C 1448.28 1.73261 -1.13997 0
M  V30 15288 C 1448.71 1.85666 0.301639 0
M  V30 15289 O 1448.07 1.34244 1.21854 0
M  V30 15290 C 1448.12 3.12046 -1.8072 0
M  V30 15291 O 1447.22 3.97684 -1.09182 0
M  V30 15292 H 1446.56 0.53182 -0.397572 0
M  V30 15293 H 1449.09 1.18689 -1.66656 0
M  V30 15294 H 1449.1 3.62468 -1.87299 0
M  V30 15295 H 1447.78 3.02334 -2.856 0
M  V30 15296 H 1446.35 3.56141 -1.10536 0
M  V30 15297 N 1448.54 1.07657 1.15099 0
M  V30 15298 C 1449.79 0.796589 1.85303 0
M  V30 15299 C 1450.1 -0.679887 1.83404 0
M  V30 15300 O 1451.31 -1.07475 2.49322 0
M  V30 15301 C 1449.76 1.37495 3.326 0
M  V30 15302 C 1449.37 2.88267 3.42938 0
M  V30 15303 C 1451.11 1.17313 4.07968 0
M  V30 15304 C 1449.02 3.39278 4.84401 0
M  V30 15305 H 1447.95 0.294316 0.694186 0
M  V30 15306 H 1450.6 1.29702 1.29806 0
M  V30 15307 H 1448.98 0.802248 3.87789 0
M  V30 15308 H 1450.16 3.51608 2.9784 0
M  V30 15309 H 1448.47 3.07275 2.81018 0
M  V30 15310 H 1451.07 1.52899 5.12373 0
M  V30 15311 H 1451.41 0.112387 4.16148 0
M  V30 15312 H 1451.95 1.71236 3.59059 0
M  V30 15313 H 1448.69 4.44892 4.81406 0
M  V30 15314 H 1448.21 2.80692 5.30068 0
M  V30 15315 H 1449.88 3.35416 5.53267 0
M  V30 15316 N 1450.02 -1.31994 0.861122 0
M  V30 15317 C 1450.95 -2.27632 0.267681 0
M  V30 15318 C 1451.96 -1.52709 -0.564265 0
M  V30 15319 O 1453.15 -1.74239 -0.3877 0
M  V30 15320 C 1450.25 -3.32805 -0.639856 0
M  V30 15321 C 1449.42 -4.37116 0.157676 0
M  V30 15322 C 1448.48 -5.21832 -0.676624 0
M  V30 15323 O 1447.51 -5.69098 -0.107822 0
M  V30 15324 N 1448.71 -5.45317 -1.99022 0
M  V30 15325 H 1451.48 -2.79195 1.0895 0
M  V30 15326 H 1449.04 -1.44923 0.721733 0
M  V30 15327 H 1451.03 -3.86391 -1.20348 0
M  V30 15328 H 1449.6 -2.81351 -1.36236 0
M  V30 15329 H 1448.82 -3.83724 0.902741 0
M  V30 15330 H 1450.11 -5.03889 0.70524 0
M  V30 15331 H 1449.5 -5.08656 -2.47558 0
M  V30 15332 H 1448.06 -6.01874 -2.50182 0
M  V30 15333 N 1451.49 -0.619688 -1.44906 0
M  V30 15334 C 1452.72 -0.126363 -2.06514 0
M  V30 15335 C 1453.14 1.19432 -1.46224 0
M  V30 15336 O 1452.49 1.7301 -0.580851 0
M  V30 15337 C 1452.55 0.00682319 -3.61499 0
M  V30 15338 O 1452.27 -1.26162 -4.19541 0
M  V30 15339 C 1453.77 0.530189 -4.40118 0
M  V30 15340 H 1450.99 -0.0744032 -0.666862 0
M  V30 15341 H 1453.53 -0.850851 -1.85959 0
M  V30 15342 H 1451.69 0.681694 -3.81355 0
M  V30 15343 H 1452.1 -1.09908 -5.12855 0
M  V30 15344 H 1453.57 0.572428 -5.49024 0
M  V30 15345 H 1454.05 1.55494 -4.10753 0
M  V30 15346 H 1454.66 -0.111044 -4.25155 0
M  V30 15347 N 1452.97 1.53444 -0.359552 0
M  V30 15348 C 1453.91 2.21884 0.533192 0
M  V30 15349 C 1454.88 1.20858 1.08776 0
M  V30 15350 O 1456.07 1.49738 1.14502 0
M  V30 15351 C 1453.19 2.90883 1.73507 0
M  V30 15352 C 1452.24 4.05931 1.30851 0
M  V30 15353 S 1453.07 5.34574 0.314859 0
M  V30 15354 C 1454.23 6.07083 1.52321 0
M  V30 15355 H 1454.46 2.97261 -0.0480679 0
M  V30 15356 H 1452 1.5373 -0.143645 0
M  V30 15357 H 1453.95 3.31252 2.42451 0
M  V30 15358 H 1452.61 2.15241 2.28758 0
M  V30 15359 H 1451.81 4.53203 2.20507 0
M  V30 15360 H 1451.41 3.67422 0.698365 0
M  V30 15361 H 1453.7 6.31448 2.45519 0
M  V30 15362 H 1454.64 6.99629 1.09198 0
M  V30 15363 H 1455.05 5.37449 1.72652 0
M  V30 15364 N 1454.45 0.0885642 1.57351 0
M  V30 15365 C 1455.87 -0.268088 1.57332 0
M  V30 15366 C 1456.07 -1.68875 1.09924 0
M  V30 15367 O 1455.12 -2.40385 0.772729 0
M  V30 15368 C 1456.44 -0.0624654 3.00635 0
M  V30 15369 C 1457.98 -0.130717 3.12727 0
M  V30 15370 C 1458.46 0.0468305 4.57976 0
M  V30 15371 N 1459.95 -0.00822093 4.63199 0
M  V30 15372 C 1460.68 0.104497 5.73305 0
M  V30 15373 N 1460.18 0.271682 6.92267 0
M  V30 15374 N 1461.97 0.0462333 5.62081 0
M  V30 15375 H 1454.12 1.01686 1.86477 0
M  V30 15376 H 1456.39 0.397971 0.86042 0
M  V30 15377 H 1456.09 0.918505 3.39494 0
M  V30 15378 H 1455.97 -0.807602 3.68453 0
M  V30 15379 H 1458.35 -1.10219 2.73744 0
M  V30 15380 H 1458.44 0.645801 2.47514 0
M  V30 15381 H 1458.08 1.01514 4.97652 0
M  V30 15382 H 1458.01 -0.7493 5.21242 0
M  V30 15383 H 1460.5 -0.135164 3.77658 0
M  V30 15384 H 1460.81 0.349381 7.7201 0
M  V30 15385 H 1459.16 0.307265 6.9432 0
M  V30 15386 H 1462.35 -0.0831995 4.68026 0
M  V30 15387 H 1462.52 0.137529 6.47854 0
M  V30 15388 N 1455.93 -1.56509 -0.185096 0
M  V30 15389 C 1456.89 -1.94468 -1.21305 0
M  V30 15390 C 1457.89 -0.826838 -1.37913 0
M  V30 15391 O 1459.08 -1.09411 -1.35554 0
M  V30 15392 C 1456.21 -2.22747 -2.58063 0
M  V30 15393 H 1457.41 -2.86442 -0.888323 0
M  V30 15394 H 1454.96 -1.50354 -0.427012 0
M  V30 15395 H 1455.69 -1.33443 -2.95573 0
M  V30 15396 H 1455.48 -3.04215 -2.47378 0
M  V30 15397 H 1456.97 -2.53084 -3.32172 0
M  V30 15398 N 1457.41 0.45317 -1.50944 0
M  V30 15399 C 1458.34 1.56678 -1.67287 0
M  V30 15400 C 1459.35 1.53089 -0.553853 0
M  V30 15401 O 1460.54 1.58152 -0.827653 0
M  V30 15402 C 1457.64 2.95585 -1.65779 0
M  V30 15403 C 1456.81 3.2385 -2.94007 0
M  V30 15404 C 1455.87 4.42401 -2.84899 0
M  V30 15405 O 1454.9 4.4183 -3.58853 0
M  V30 15406 N 1456.1 5.4508 -1.99671 0
M  V30 15407 H 1458.87 1.43069 -2.63347 0
M  V30 15408 H 1456.43 0.641875 -1.48632 0
M  V30 15409 H 1458.42 3.7289 -1.57275 0
M  V30 15410 H 1456.99 3.02872 -0.773791 0
M  V30 15411 H 1456.21 2.34991 -3.16501 0
M  V30 15412 H 1457.5 3.39554 -3.7892 0
M  V30 15413 H 1456.89 5.48374 -1.38933 0
M  V30 15414 H 1455.45 6.21298 -1.97057 0
M  V30 15415 N 1458.88 1.40823 0.707568 0
M  V30 15416 C 1459.82 1.36132 1.83149 0
M  V30 15417 C 1460.8 0.230423 1.60959 0
M  V30 15418 O 1461.98 0.415391 1.83866 0
M  V30 15419 C 1459.11 1.12055 3.19627 0
M  V30 15420 C 1458.15 2.27703 3.6063 0
M  V30 15421 S 1458.99 3.90134 3.66818 0
M  V30 15422 C 1460.14 3.68336 5.06043 0
M  V30 15423 H 1460.37 2.31246 1.86849 0
M  V30 15424 H 1457.91 1.27204 0.875126 0
M  V30 15425 H 1459.87 0.988486 3.98421 0
M  V30 15426 H 1458.53 0.185809 3.1355 0
M  V30 15427 H 1457.72 2.06519 4.59746 0
M  V30 15428 H 1457.32 2.37254 2.89114 0
M  V30 15429 H 1459.61 3.27299 5.93196 0
M  V30 15430 H 1460.56 4.67012 5.32265 0
M  V30 15431 H 1460.96 3.01856 4.77015 0
M  V30 15432 N 1460.36 -0.94061 1.26453 0
M  V30 15433 C 1461.29 -2.05667 1.10559 0
M  V30 15434 C 1462.27 -1.70097 0.0106258 0
M  V30 15435 O 1463.46 -1.93338 0.182756 0
M  V30 15436 C 1460.59 -3.3936 0.7384 0
M  V30 15437 C 1459.54 -3.88993 1.78517 0
M  V30 15438 C 1458.87 -5.19343 1.27228 0
M  V30 15439 C 1460.17 -4.13812 3.1868 0
M  V30 15440 H 1461.86 -2.19221 2.03918 0
M  V30 15441 H 1459.41 -1.05339 0.98182 0
M  V30 15442 H 1461.36 -4.16902 0.61409 0
M  V30 15443 H 1460.09 -3.25783 -0.230887 0
M  V30 15444 H 1458.74 -3.13633 1.89816 0
M  V30 15445 H 1458.39 -5.02147 0.292816 0
M  V30 15446 H 1458.09 -5.53521 1.97201 0
M  V30 15447 H 1459.62 -5.99468 1.16065 0
M  V30 15448 H 1461.03 -4.81966 3.10455 0
M  V30 15449 H 1459.43 -4.59273 3.86249 0
M  V30 15450 H 1460.5 -3.19571 3.64695 0
M  V30 15451 N 1461.84 -1.08266 -1.14527 0
M  V30 15452 C 1462.79 -0.680977 -2.17593 0
M  V30 15453 C 1463.77 0.298653 -1.58104 0
M  V30 15454 O 1464.97 0.110901 -1.76652 0
M  V30 15455 C 1462.1 -0.0902883 -3.43181 0
M  V30 15456 C 1461.18 -1.09562 -4.09704 0
M  V30 15457 N 1461.57 -2.27853 -4.51571 0
M  V30 15458 C 1459.87 -0.931053 -4.36174 0
M  V30 15459 C 1460.57 -2.91708 -5.03271 0
M  V30 15460 N 1459.55 -2.19325 -4.97391 0
M  V30 15461 H 1463.35 -1.58178 -2.47703 0
M  V30 15462 H 1460.86 -0.957169 -1.31195 0
M  V30 15463 H 1462.86 0.215428 -4.16343 0
M  V30 15464 H 1461.52 0.805513 -3.1455 0
M  V30 15465 H 1462.53 -2.65517 -4.44659 0
M  V30 15466 H 1459.21 -0.0889339 -4.17405 0
M  V30 15467 H 1460.6 -3.92202 -5.45552 0
M  V30 15468 N 1463.32 1.31536 -0.86811 0
M  V30 15469 C 1464.25 2.31037 -0.33822 0
M  V30 15470 C 1465.23 1.60269 0.569892 0
M  V30 15471 O 1466.42 1.87987 0.487305 0
M  V30 15472 C 1463.55 3.44203 0.462753 0
M  V30 15473 C 1462.5 4.26549 -0.3521 0
M  V30 15474 C 1461.83 5.31605 0.574443 0
M  V30 15475 C 1463.13 4.97665 -1.58516 0
M  V30 15476 H 1464.82 2.75607 -1.16967 0
M  V30 15477 H 1462.37 1.325 -0.56389 0
M  V30 15478 H 1464.32 4.12862 0.843967 0
M  V30 15479 H 1463.04 2.98396 1.32769 0
M  V30 15480 H 1461.7 3.59555 -0.715237 0
M  V30 15481 H 1461.35 4.82048 1.43661 0
M  V30 15482 H 1461.05 5.87591 0.0331436 0
M  V30 15483 H 1462.57 6.03124 0.952541 0
M  V30 15484 H 1463.99 5.58931 -1.27549 0
M  V30 15485 H 1462.38 5.63437 -2.06539 0
M  V30 15486 H 1463.45 4.24756 -2.33902 0
M  V30 15487 N 1464.8 0.627364 1.44575 0
M  V30 15488 C 1465.75 -0.101618 2.27773 0
M  V30 15489 C 1466.73 -0.819759 1.38451 0
M  V30 15490 O 1467.92 -0.706487 1.62289 0
M  V30 15491 C 1465.05 -1.08507 3.25701 0
M  V30 15492 C 1464.14 -0.366745 4.22511 0
M  V30 15493 N 1464.53 0.602571 5.02198 0
M  V30 15494 C 1462.83 -0.611691 4.41785 0
M  V30 15495 C 1463.53 1.02662 5.72569 0
M  V30 15496 N 1462.5 0.366195 5.42365 0
M  V30 15497 H 1466.31 0.642569 2.8679 0
M  V30 15498 H 1463.82 0.452571 1.55967 0
M  V30 15499 H 1465.82 -1.62189 3.84058 0
M  V30 15500 H 1464.48 -1.8296 2.68246 0
M  V30 15501 H 1465.49 0.980215 5.08539 0
M  V30 15502 H 1462.17 -1.33938 3.95432 0
M  V30 15503 H 1463.56 1.82721 6.46578 0
M  V30 15504 N 1466.28 -1.53251 0.367684 0
M  V30 15505 C 1467.52 -2.00889 -0.220914 0
M  V30 15506 C 1467.84 -1.25662 -1.4911 0
M  V30 15507 O 1467.11 -0.370491 -1.92365 0
M  V30 15508 H 1465.69 -0.742191 -0.0846233 0
M  V30 15509 H 1468.36 -1.88525 0.494402 0
M  V30 15510 H 1467.45 -3.08891 -0.446414 0
M  V30 15511 N 1467.75 -0.0969077 -1.57302 0
M  V30 15512 C 1468.98 0.574705 -1.98758 0
M  V30 15513 C 1469.4 1.61612 -0.976067 0
M  V30 15514 O 1468.75 1.82468 0.0340803 0
M  V30 15515 C 1468.8 1.22078 -3.40263 0
M  V30 15516 O 1468.53 0.221022 -4.37542 0
M  V30 15517 C 1470.03 1.97783 -3.96732 0
M  V30 15518 H 1467.25 0.153934 -0.653104 0
M  V30 15519 H 1469.79 -0.17673 -2.03735 0
M  V30 15520 H 1467.95 1.92314 -3.36295 0
M  V30 15521 H 1468.36 0.687583 -5.19974 0
M  V30 15522 H 1469.83 2.38346 -4.97891 0
M  V30 15523 H 1470.31 2.8444 -3.3465 0
M  V30 15524 H 1470.92 1.3236 -4.04179 0
M  V30 15525 N 1469.23 1.56605 0.176793 0
M  V30 15526 C 1470.48 1.81324 0.892535 0
M  V30 15527 C 1470.8 0.67301 1.83018 0
M  V30 15528 O 1470.07 -0.307498 1.93472 0
M  V30 15529 H 1468.65 0.668881 0.332576 0
M  V30 15530 H 1471.31 1.94086 0.17792 0
M  V30 15531 H 1470.41 2.75168 1.47272 0
M  V30 15532 N 1470.71 -0.445159 1.51182 0
M  V30 15533 C 1471.96 -1.19215 1.62698 0
M  V30 15534 C 1472.27 -1.92529 0.345249 0
M  V30 15535 O 1473.48 -2.69367 0.33967 0
M  V30 15536 C 1471.93 -2.16762 2.87302 0
M  V30 15537 C 1471.54 -1.49131 4.2245 0
M  V30 15538 C 1473.29 -2.91942 3.08172 0
M  V30 15539 C 1471.19 -2.45117 5.38212 0
M  V30 15540 H 1470.12 -0.448687 0.605967 0
M  V30 15541 H 1472.77 -0.459956 1.77642 0
M  V30 15542 H 1471.16 -2.93383 2.65975 0
M  V30 15543 H 1472.33 -0.781222 4.54129 0
M  V30 15544 H 1470.64 -0.861342 4.07394 0
M  V30 15545 H 1473.24 -3.6383 3.91832 0
M  V30 15546 H 1473.58 -3.52837 2.20934 0
M  V30 15547 H 1474.12 -2.22429 3.29803 0
M  V30 15548 H 1470.86 -1.88923 6.27685 0
M  V30 15549 H 1470.38 -3.14202 5.10918 0
M  V30 15550 H 1472.06 -3.06411 5.69843 0
M  V30 15551 N 1472.19 -1.41197 -0.700089 0
M  V30 15552 C 1473.12 -1.38616 -1.82533 0
M  V30 15553 C 1474.13 -0.289047 -1.60213 0
M  V30 15554 O 1475.32 -0.550465 -1.698 0
M  V30 15555 C 1472.42 -1.13815 -3.19217 0
M  V30 15556 C 1471.59 -2.3548 -3.68603 0
M  V30 15557 C 1470.65 -2.06604 -4.83943 0
M  V30 15558 O 1469.68 -2.79604 -4.95792 0
M  V30 15559 N 1470.88 -1.05351 -5.7086 0
M  V30 15560 H 1473.65 -2.35598 -1.8524 0
M  V30 15561 H 1471.21 -1.3575 -0.882238 0
M  V30 15562 H 1473.2 -0.924571 -3.93997 0
M  V30 15563 H 1471.77 -0.254468 -3.11563 0
M  V30 15564 H 1470.99 -2.72569 -2.8478 0
M  V30 15565 H 1472.28 -3.16553 -3.98336 0
M  V30 15566 H 1471.68 -0.449223 -5.63914 0
M  V30 15567 H 1470.23 -0.899819 -6.45559 0
M  V30 15568 N 1473.67 0.933891 -1.2695 0
M  V30 15569 C 1474.91 1.6834 -1.13091 0
M  V30 15570 C 1475.24 1.91484 0.32367 0
M  V30 15571 O 1474.52 1.50075 1.23724 0
M  V30 15572 C 1474.8 3.05374 -1.90838 0
M  V30 15573 C 1474.66 2.8951 -3.44244 0
M  V30 15574 C 1475.97 4.05607 -1.70795 0
M  V30 15575 H 1473.09 0.610944 -0.41221 0
M  V30 15576 H 1475.74 1.08416 -1.56032 0
M  V30 15577 H 1473.89 3.56526 -1.54343 0
M  V30 15578 H 1475.56 2.45523 -3.90533 0
M  V30 15579 H 1473.8 2.24981 -3.70899 0
M  V30 15580 H 1474.47 3.86734 -3.93879 0
M  V30 15581 H 1476.95 3.63443 -2.02604 0
M  V30 15582 H 1475.82 4.9949 -2.27597 0
M  V30 15583 H 1476.08 4.37231 -0.654327 0
M  V30 15584 O 1475.18 1.21155 1.06788 0
M  V30 15585 H 1475.87 0.969754 1.67677 0
M  V30 END ATOM
M  V30 BEGIN BOND
M  V30 END BOND
M  V30 END CTAB
M  END
$$$$
