drugbank_target|Q15493 Regucalcin (DB11093; DB11348; DB14481)
 OpenBabel12092121013D

  0  0  0     0  0            999 V3000
M  V30 BEGIN CTAB
M  V30 COUNTS 4625 4676 0 0 0
M  V30 BEGIN ATOM
M  V30 1 H -0.908 1.98254 -0.117106 0
M  V30 2 N 0 1.576 0 0
M  V30 3 C 0.933 2.03868 1.02534 0
M  V30 4 C 1.911 0.928543 1.3348 0
M  V30 5 O 3.095 1.19667 1.45644 0
M  V30 6 C 0.222 2.43627 2.35294 0
M  V30 7 C -0.732 3.65373 2.2001 0
M  V30 8 S 0.101 5.13292 1.52614 0
M  V30 9 C 1.257 5.56322 2.86805 0
M  V30 10 H 1.49 2.90518 0.631377 0
M  V30 11 H -0.977 1.52953 0.210867 0
M  V30 12 H 0.981 2.67203 3.11629 0
M  V30 13 H -0.358 1.57376 2.7183 0
M  V30 14 H -1.165 3.90944 3.18086 0
M  V30 15 H -1.563 3.418 1.51819 0
M  V30 16 H 0.729 5.58782 3.83104 0
M  V30 17 H 1.672 6.56266 2.65933 0
M  V30 18 H 2.08 4.83886 2.90714 0
M  V30 19 N 1.4781 -0.272755 1.55222 0
M  V30 20 C 2.7031 -1.02683 1.80197 0
M  V30 21 C 3.1281 -1.79142 0.573551 0
M  V30 22 O 2.4861 -1.74917 -0.476849 0
M  V30 23 C 2.5341 -1.9609 3.02624 0
M  V30 24 O 1.6381 -3.04863 2.77727 0
M  V30 25 H 0.9791 -0.293557 0.595584 0
M  V30 26 H 3.5091 -0.30159 2.02365 0
M  V30 27 H 3.5191 -2.38039 3.31363 0
M  V30 28 H 2.1941 -1.39851 3.91682 0
M  V30 29 H 0.7711 -2.67228 2.60084 0
M  V30 30 N 2.9562 -1.48159 -0.537278 0
M  V30 31 C 4.1812 -1.59707 -1.32319 0
M  V30 32 C 4.6062 -0.254859 -1.86365 0
M  V30 33 O 3.9642 0.772378 -1.64024 0
M  V30 34 C 4.0122 -2.6412 -2.45505 0
M  V30 35 O 3.1162 -2.20774 -3.48328 0
M  V30 36 H 2.4572 -0.535791 -0.392204 0
M  V30 37 H 4.9872 -1.94092 -0.647268 0
M  V30 38 H 4.9972 -2.85166 -2.91795 0
M  V30 39 H 3.6722 -3.61567 -2.05528 0
M  V30 40 H 2.2492 -2.09911 -3.08207 0
M  V30 41 N 4.4343 0.785586 -1.36625 0
M  V30 42 C 5.6833 1.53883 -1.30396 0
M  V30 43 C 5.9963 1.95271 0.113452 0
M  V30 44 O 7.2023 2.69858 0.298142 0
M  V30 45 C 5.6583 2.77808 -2.28802 0
M  V30 46 C 5.2663 2.43574 -3.75999 0
M  V30 47 C 7.0103 3.55783 -2.31558 0
M  V30 48 C 4.9173 3.63919 -4.66173 0
M  V30 49 H 3.8473 0.577678 -0.484566 0
M  V30 50 H 6.4983 0.861705 -1.62009 0
M  V30 51 H 4.8803 3.47339 -1.90188 0
M  V30 52 H 6.0543 1.81916 -4.23371 0
M  V30 53 H 4.3693 1.78803 -3.76056 0
M  V30 54 H 6.9663 4.45205 -2.96137 0
M  V30 55 H 7.3093 3.94644 -1.3252 0
M  V30 56 H 7.8423 2.93235 -2.68809 0
M  V30 57 H 4.5813 3.3015 -5.66287 0
M  V30 58 H 4.1013 4.2473 -4.23515 0
M  V30 59 H 5.7803 4.30901 -4.82632 0
M  V30 60 N 5.9124 1.20967 1.01018 0
M  V30 61 C 6.8594 0.964281 2.09691 0
M  V30 62 C 7.8294 -0.107853 1.65749 0
M  V30 63 O 9.0144 0.0381987 1.90762 0
M  V30 64 C 6.1544 0.52943 3.41015 0
M  V30 65 C 5.2674 1.67043 3.98398 0
M  V30 66 C 4.4024 1.18525 5.17808 0
M  V30 67 C 3.4414 2.29892 5.67288 0
M  V30 68 N 2.5784 1.82546 6.77954 0
M  V30 69 H 7.4184 1.89463 2.30017 0
M  V30 70 H 4.9554 0.944289 1.1279 0
M  V30 71 H 6.9134 0.258588 4.16398 0
M  V30 72 H 5.5434 -0.363919 3.20742 0
M  V30 73 H 4.5954 2.05603 3.20049 0
M  V30 74 H 5.9074 2.50877 4.31117 0
M  V30 75 H 5.0614 0.870762 6.00419 0
M  V30 76 H 3.8004 0.316887 4.86669 0
M  V30 77 H 2.8054 2.6215 4.83278 0
M  V30 78 H 4.0304 3.17216 6.00459 0
M  V30 79 H 1.9764 0.980454 6.48632 0
M  V30 80 H 1.8934 2.59956 7.09901 0
M  V30 81 H 3.1614 1.54115 7.64113 0
M  V30 82 N 7.3905 -1.2043 1.01659 0
M  V30 83 C 8.6395 -1.89118 0.701237 0
M  V30 84 C 8.9525 -1.79705 -0.772358 0
M  V30 85 O 10.1585 -2.43528 -1.20026 0
M  V30 86 C 8.6145 -3.39168 1.20388 0
M  V30 87 C 8.2225 -3.57166 2.70438 0
M  V30 88 C 9.9665 -4.1341 0.963953 0
M  V30 89 C 7.8735 -5.01042 3.14183 0
M  V30 90 H 6.8035 -0.708267 0.2586 0
M  V30 91 H 9.4545 -1.36239 1.22927 0
M  V30 92 H 7.8365 -3.91369 0.603824 0
M  V30 93 H 9.0105 -3.15351 3.35992 0
M  V30 94 H 7.3255 -2.96294 2.92572 0
M  V30 95 H 9.9225 -5.19491 1.26621 0
M  V30 96 H 10.2655 -4.16181 -0.099578 0
M  V30 97 H 10.7985 -3.67309 1.52738 0
M  V30 98 H 7.5375 -5.03426 4.19812 0
M  V30 99 H 7.0575 -5.43668 2.53348 0
M  V30 100 H 8.7365 -5.69623 3.0682 0
M  V30 101 N 8.8686 -0.792821 -1.36206 0
M  V30 102 C 9.7786 -0.194808 -2.3379 0
M  V30 103 C 10.7946 0.654869 -1.61206 0
M  V30 104 O 11.9706 0.569856 -1.9317 0
M  V30 105 C 9.0356 0.657721 -3.40404 0
M  V30 106 C 8.0966 -0.210849 -4.28782 0
M  V30 107 C 7.3296 0.601086 -5.30304 0
M  V30 108 O 7.5526 1.83682 -5.40016 0
M  V30 109 O 6.4866 -0.000808277 -6.019 0
M  V30 110 H 10.3126 -1.00172 -2.86704 0
M  V30 111 H 7.8976 -0.554341 -1.38735 0
M  V30 112 H 9.7796 1.14375 -4.05581 0
M  V30 113 H 8.4546 1.44247 -2.89784 0
M  V30 114 H 7.3616 -0.743714 -3.66633 0
M  V30 115 H 8.6946 -0.959195 -4.82763 0
M  V30 116 N 10.3467 1.47872 -0.545128 0
M  V30 117 C 11.5867 2.04391 -0.0187854 0
M  V30 118 C 11.9507 1.41162 1.30144 0
M  V30 119 O 13.1517 1.88656 1.91474 0
M  V30 120 C 11.4227 3.57299 0.0850867 0
M  V30 121 S 12.9817 4.35221 0.559302 0
M  V30 122 H 9.7997 0.710737 -0.0193301 0
M  V30 123 H 12.4017 1.81395 -0.729125 0
M  V30 124 H 11.1057 4.00847 -0.880351 0
M  V30 125 H 10.6367 3.84773 0.819348 0
M  V30 126 H 12.6517 4.61571 1.82118 0
M  V30 127 N 11.8248 0.280983 1.55075 0
M  V30 128 C 13.0708 -0.33461 2.00021 0
M  V30 129 C 13.4038 -1.55063 1.16915 0
M  V30 130 O 12.6788 -1.93006 0.240646 0
M  V30 131 C 12.9618 -0.711007 3.53011 0
M  V30 132 C 12.8148 0.512766 4.46868 0
M  V30 133 C 14.1338 -1.54522 4.12081 0
M  V30 134 H 11.2528 -0.120147 0.727141 0
M  V30 135 H 13.8948 0.389097 1.85973 0
M  V30 136 H 12.0448 -1.32761 3.65112 0
M  V30 137 H 13.7168 1.15131 4.46702 0
M  V30 138 H 11.9598 1.14975 4.18286 0
M  V30 139 H 12.6308 0.205556 5.51617 0
M  V30 140 H 15.1068 -1.02442 4.03293 0
M  V30 141 H 13.9828 -1.77739 5.19327 0
M  V30 142 H 14.2438 -2.52813 3.62682 0
M  V30 143 N 13.3029 -1.57598 0.00835791 0
M  V30 144 C 14.2329 -2.1198 -0.979113 0
M  V30 145 C 15.2139 -1.03091 -1.35301 0
M  V30 146 O 16.3989 -1.30818 -1.43528 0
M  V30 147 C 13.5289 -2.62995 -2.26828 0
M  V30 148 C 12.4829 -3.76485 -2.03576 0
M  V30 149 C 11.8089 -4.13846 -3.38579 0
M  V30 150 C 13.1089 -5.0342 -1.39161 0
M  V30 151 H 14.8029 -2.94738 -0.526281 0
M  V30 152 H 12.3489 -1.41783 -0.251704 0
M  V30 153 H 14.3019 -2.99669 -2.96271 0
M  V30 154 H 13.0259 -1.7737 -2.7424 0
M  V30 155 H 11.6849 -3.40217 -1.36557 0
M  V30 156 H 11.3329 -3.25232 -3.83709 0
M  V30 157 H 11.0329 -4.90312 -3.23834 0
M  V30 158 H 12.5569 -4.53086 -4.09323 0
M  V30 159 H 13.9709 -5.37812 -1.98573 0
M  V30 160 H 12.3679 -5.84746 -1.34878 0
M  V30 161 H 13.4379 -4.83548 -0.361868 0
M  V30 162 N 14.781 0.264519 -1.55364 0
M  V30 163 C 16.192 0.834936 -1.6699 0
M  V30 164 C 16.543 1.86718 -0.602552 0
M  V30 165 O 15.668 2.14899 0.254425 0
M  V30 166 C 16.263 1.5212 -3.02729 0
M  V30 167 C 14.822 2.03954 -3.16354 0
M  V30 168 C 13.969 0.884498 -2.62815 0
M  V30 169 H 16.92 0.0406869 -1.58648 0
M  V30 170 H 16.941 2.38853 -2.96191 0
M  V30 171 H 16.453 0.769668 -3.80392 0
M  V30 172 H 14.554 2.82041 -2.43482 0
M  V30 173 H 14.667 2.24902 -4.23032 0
M  V30 174 H 13.031 1.2802 -2.20188 0
M  V30 175 H 13.814 0.14634 -3.42988 0
M  V30 176 N 16.2591 1.48442 0.529413 0
M  V30 177 C 17.1691 1.6569 1.66084 0
M  V30 178 C 18.1851 0.539432 1.65427 0
M  V30 179 O 19.3611 0.810572 1.84368 0
M  V30 180 C 16.4261 1.69315 3.02545 0
M  V30 181 C 15.4871 2.92694 3.14052 0
M  V30 182 C 14.7201 2.96137 4.44003 0
M  V30 183 O 14.9431 2.07973 5.31134 0
M  V30 184 O 13.8771 3.88312 4.59888 0
M  V30 185 H 17.7031 2.61483 1.54469 0
M  V30 186 H 15.2881 1.3185 0.702567 0
M  V30 187 H 17.1701 1.74217 3.83701 0
M  V30 188 H 15.8451 0.766966 3.14483 0
M  V30 189 H 14.7521 2.93324 2.32189 0
M  V30 190 H 16.0851 3.84699 3.0703 0
M  V30 191 N 17.7372 -0.778329 1.37039 0
M  V30 192 C 18.6852 -1.91278 1.32345 0
M  V30 193 C 19.6792 -1.68051 0.213331 0
M  V30 194 O 20.8852 -1.75922 0.38098 0
M  V30 195 H 17.2602 -0.628909 0.412283 0
M  V30 196 H 19.2312 -1.92355 2.28127 0
M  V30 197 C 17.9802 -3.28455 1.14073 0
M  V30 198 H 17.3032 -3.46901 1.98746 0
M  V30 199 H 18.7432 -4.08152 1.14837 0
M  V30 200 C 17.2022 -3.36548 -0.154015 0
M  V30 201 O 17.7322 -3.85186 -1.13993 0
M  V30 202 N 15.9382 -2.89894 -0.202475 0
M  V30 203 H 15.4852 -2.50504 0.600476 0
M  V30 204 H 15.4432 -2.9569 -1.06841 0
M  V30 205 N 19.2153 -1.21501 -1.00376 0
M  V30 206 C 20.4553 -1.04444 -1.75701 0
M  V30 207 C 20.8193 0.414644 -1.87469 0
M  V30 208 O 22.0203 0.705763 -2.59369 0
M  V30 209 C 20.2913 -1.72389 -3.13077 0
M  V30 210 S 21.8503 -1.70604 -4.04277 0
M  V30 211 H 18.6683 -0.374249 -0.604532 0
M  V30 212 H 21.2703 -1.54267 -1.20091 0
M  V30 213 H 19.9743 -2.77734 -3.02146 0
M  V30 214 H 19.5053 -1.22751 -3.73759 0
M  V30 215 H 21.5203 -0.748012 -4.9053 0
M  V30 216 N 20.6934 1.19889 -1.02296 0
M  V30 217 C 22.1094 1.41462 -0.738954 0
M  V30 218 C 22.3094 1.89721 0.678846 0
M  V30 219 O 21.3654 2.07016 1.4457 0
M  V30 220 C 22.6784 2.43083 -1.77005 0
M  V30 221 C 24.2264 2.5684 -1.78892 0
M  V30 222 C 24.7014 3.61709 -2.80945 0
M  V30 223 N 26.1924 3.69199 -2.79725 0
M  V30 224 C 26.9274 4.50019 -3.55345 0
M  V30 225 N 26.4234 5.34592 -4.40662 0
M  V30 226 N 28.2164 4.44612 -3.43914 0
M  V30 227 H 20.3674 0.868827 -1.93817 0
M  V30 228 H 22.6304 0.44399 -0.837602 0
M  V30 229 H 22.3364 2.14636 -2.78612 0
M  V30 230 H 22.2104 3.4217 -1.58744 0
M  V30 231 H 24.5974 2.84614 -0.779674 0
M  V30 232 H 24.6784 1.57927 -2.01228 0
M  V30 233 H 24.3224 3.34678 -3.82038 0
M  V30 234 H 24.2524 4.60259 -2.5587 0
M  V30 235 H 26.7434 3.08794 -2.17842 0
M  V30 236 H 27.0564 5.93363 -4.95116 0
M  V30 237 H 25.4014 5.34073 -4.44737 0
M  V30 238 H 28.5924 3.7758 -2.76679 0
M  V30 239 H 28.7654 5.0736 -4.031 0
M  V30 240 N 22.1715 0.800033 1.35784 0
M  V30 241 C 23.4115 0.382891 2.00782 0
M  V30 242 C 23.7755 -1.02891 1.62103 0
M  V30 243 O 24.9765 -1.54771 2.19771 0
M  V30 244 C 23.2475 0.553299 3.53091 0
M  V30 245 S 24.8065 0.225608 4.3822 0
M  V30 246 H 21.6245 0.145737 0.695904 0
M  V30 247 H 24.2265 1.04085 1.65489 0
M  V30 248 H 22.9305 1.58091 3.78729 0
M  V30 249 H 22.4615 -0.120214 3.93216 0
M  V30 250 H 24.4765 -0.969074 4.86645 0
M  V30 251 N 23.6496 -1.47581 0.552962 0
M  V30 252 C 24.8976 -2.02082 0.0272703 0
M  V30 253 C 25.2186 -1.4301 -1.32563 0
M  V30 254 O 24.4886 -0.603745 -1.86365 0
M  V30 255 H 23.0686 -0.746966 0.00709182 0
M  V30 256 H 25.7306 -1.81033 0.722008 0
M  V30 257 H 24.8266 -3.12034 -0.0639951 0
M  V30 258 N 25.1277 -0.289203 -1.54924 0
M  V30 259 C 26.0377 0.601863 -2.26748 0
M  V30 260 C 27.0537 1.15834 -1.2984 0
M  V30 261 O 28.2297 1.18564 -1.62802 0
M  V30 262 C 25.2947 1.76299 -2.98529 0
M  V30 263 C 24.3557 1.24178 -4.10948 0
M  V30 264 C 23.5887 2.34757 -4.79296 0
M  V30 265 O 23.8117 3.54411 -4.46933 0
M  V30 266 O 22.7457 2.02115 -5.66951 0
M  V30 267 H 26.5717 0.0195879 -3.03694 0
M  V30 268 H 24.1567 -0.0560868 -1.49295 0
M  V30 269 H 26.0387 2.43973 -3.43592 0
M  V30 270 H 24.7137 2.33209 -2.24488 0
M  V30 271 H 23.6207 0.531104 -3.70311 0
M  V30 272 H 24.9537 0.718252 -4.86931 0
M  V30 273 N 26.6058 1.57591 -0.0167156 0
M  V30 274 C 27.8308 1.9598 0.67872 0
M  V30 275 C 28.2558 0.892546 1.65575 0
M  V30 276 O 27.6138 -0.147772 1.80697 0
M  V30 277 C 27.6618 3.33468 1.37227 0
M  V30 278 O 26.7658 3.28954 2.48722 0
M  V30 279 H 26.1068 0.639339 0.17928 0
M  V30 280 H 28.6368 2.04463 -0.0748802 0
M  V30 281 H 28.6468 3.69417 1.7319 0
M  V30 282 H 27.3218 4.10694 0.656007 0
M  V30 283 H 25.8988 3.04705 2.14963 0
M  V30 284 N 28.0839 -0.256276 1.55502 0
M  V30 285 C 29.4949 -0.826068 1.67431 0
M  V30 286 C 29.8459 -1.86396 0.612446 0
M  V30 287 O 28.9709 -2.15031 -0.243025 0
M  V30 288 C 29.5659 -1.50512 3.03532 0
M  V30 289 C 28.1249 -2.02273 3.17431 0
M  V30 290 C 27.2719 -0.870548 2.63281 0
M  V30 291 H 30.2229 -0.0322728 1.58667 0
M  V30 292 H 30.2439 -2.37279 2.97454 0
M  V30 293 H 29.7559 -0.749484 3.80794 0
M  V30 294 H 27.8569 -2.80746 2.44974 0
M  V30 295 H 27.9699 -2.22655 4.24219 0
M  V30 296 H 26.3339 -1.26851 2.20864 0
M  V30 297 H 27.1169 -0.128149 3.43061 0
M  V30 298 N 29.562 -1.4872 -0.521534 0
M  V30 299 C 30.808 -1.574 -1.27879 0
M  V30 300 C 31.141 -0.250817 -1.92573 0
M  V30 301 O 30.416 0.743934 -1.79711 0
M  V30 302 C 30.699 -2.71843 -2.36164 0
M  V30 303 C 30.552 -4.13893 -1.76105 0
M  V30 304 C 31.871 -2.82008 -3.37875 0
M  V30 305 H 28.99 -0.572941 -0.463581 0
M  V30 306 H 31.632 -1.80927 -0.580119 0
M  V30 307 H 29.782 -2.51914 -2.95756 0
M  V30 308 H 31.454 -4.45284 -1.20499 0
M  V30 309 H 29.697 -4.20498 -1.06601 0
M  V30 310 H 30.368 -4.89804 -2.5455 0
M  V30 311 H 32.844 -3.00086 -2.88249 0
M  V30 312 H 31.72 -3.63796 -4.11028 0
M  V30 313 H 31.981 -1.90511 -3.98946 0
M  V30 314 N 31.0401 0.771051 -1.3745 0
M  V30 315 C 32.2861 1.53109 -1.339 0
M  V30 316 C 32.6411 1.9225 0.0758401 0
M  V30 317 O 31.9341 1.61264 1.03463 0
M  V30 318 C 32.1281 2.80676 -2.2126 0
M  V30 319 C 31.9571 2.54003 -3.71096 0
M  V30 320 C 30.7271 2.48097 -4.402 0
M  V30 321 C 32.9251 2.21953 -4.63941 0
M  V30 322 N 30.9071 2.13515 -5.75573 0
M  V30 323 C 32.2781 1.97516 -5.87697 0
M  V30 324 C 34.3331 2.08114 -4.5232 0
M  V30 325 C 33.0361 1.60638 -7.01133 0
M  V30 326 C 35.0621 1.72636 -5.65642 0
M  V30 327 C 34.4241 1.4906 -6.88448 0
M  V30 328 H 30.5231 0.56055 -0.54526 0
M  V30 329 H 33.1071 0.899472 -1.72678 0
M  V30 330 H 31.2781 3.41674 -1.84698 0
M  V30 331 H 33.0101 3.46578 -2.08963 0
M  V30 332 H 29.7651 2.63974 -3.93211 0
M  V30 333 H 30.1891 1.98919 -6.47117 0
M  V30 334 H 34.8311 2.25024 -3.57944 0
M  V30 335 H 32.5491 1.42467 -7.95443 0
M  V30 336 H 36.1351 1.62586 -5.58621 0
M  V30 337 H 35.0151 1.22014 -7.7465 0
M  V30 338 N 32.5182 1.22032 0.997298 0
M  V30 339 C 33.4282 1.00271 2.12092 0
M  V30 340 C 34.4442 -0.047621 1.73935 0
M  V30 341 O 35.6202 0.144136 2.00884 0
M  V30 342 C 32.6852 0.578449 3.4184 0
M  V30 343 C 31.7462 1.70189 3.94125 0
M  V30 344 C 30.9792 1.29778 5.17681 0
M  V30 345 O 31.2022 0.174676 5.70132 0
M  V30 346 O 30.1362 2.11261 5.63607 0
M  V30 347 H 33.9622 1.94398 2.3333 0
M  V30 348 H 31.5472 1.00587 1.10465 0
M  V30 349 H 33.4292 0.351998 4.19927 0
M  V30 350 H 32.1042 -0.334019 3.21972 0
M  V30 351 H 31.0112 1.98282 3.1723 0
M  V30 352 H 32.3442 2.59206 4.18417 0
M  V30 353 N 33.9963 -1.19345 1.0293 0
M  V30 354 C 34.9063 -2.26245 0.620515 0
M  V30 355 C 35.9223 -1.70486 -0.347928 0
M  V30 356 O 37.0983 -2.00347 -0.205704 0
M  V30 357 C 34.1633 -3.46693 -0.0218957 0
M  V30 358 C 33.2243 -4.17632 0.994102 0
M  V30 359 C 32.4573 -5.32329 0.382253 0
M  V30 360 O 32.6803 -5.64552 -0.814676 0
M  V30 361 O 31.6143 -5.91664 1.10531 0
M  V30 362 H 35.4403 -2.63453 1.51083 0
M  V30 363 H 33.0253 -1.26207 0.799513 0
M  V30 364 H 34.9073 -4.19683 -0.380072 0
M  V30 365 H 33.5823 -3.11333 -0.886209 0
M  V30 366 H 32.4893 -3.4676 1.40387 0
M  V30 367 H 33.8223 -4.56964 1.8288 0
M  V30 368 N 35.4744 -0.807222 -1.35358 0
M  V30 369 C 36.7204 -0.388463 -1.99045 0
M  V30 370 C 37.0534 1.04184 -1.63888 0
M  V30 371 O 36.3284 1.72292 -0.902535 0
M  V30 372 C 36.6114 -0.572783 -3.55515 0
M  V30 373 C 36.4644 -2.04807 -4.00468 0
M  V30 374 C 37.7834 0.00114064 -4.401 0
M  V30 375 H 34.9024 -0.142619 -0.723069 0
M  V30 376 H 37.5444 -1.01687 -1.60498 0
M  V30 377 H 35.6944 -0.0378425 -3.88482 0
M  V30 378 H 37.3664 -2.64544 -3.77908 0
M  V30 379 H 35.6094 -2.54427 -3.51353 0
M  V30 380 H 36.2804 -2.12792 -5.09337 0
M  V30 381 H 38.7564 -0.455716 -4.13597 0
M  V30 382 H 37.6324 -0.157737 -5.48673 0
M  V30 383 H 37.8934 1.09488 -4.28328 0
M  V30 384 N 36.9525 1.47285 -0.560781 0
M  V30 385 C 38.1775 2.07359 -0.0410566 0
M  V30 386 C 38.6025 1.41017 1.24483 0
M  V30 387 O 37.9605 0.486368 1.74654 0
M  V30 388 C 38.0085 3.6035 0.134123 0
M  V30 389 O 37.1125 3.94681 1.19587 0
M  V30 390 H 36.4535 0.661887 -0.0529291 0
M  V30 391 H 38.9835 1.89252 -0.777482 0
M  V30 392 H 38.9935 4.0652 0.347207 0
M  V30 393 H 37.6685 4.08034 -0.805047 0
M  V30 394 H 36.2455 3.60251 0.962987 0
M  V30 395 N 38.4306 0.297415 1.54768 0
M  V30 396 C 39.3786 -0.596051 2.24833 0
M  V30 397 C 40.3726 -1.13992 1.25308 0
M  V30 398 O 41.5786 -1.09098 1.4317 0
M  V30 399 H 37.9536 -0.210814 0.721846 0
M  V30 400 H 39.9246 0.0174667 2.98395 0
M  V30 401 C 38.6736 -1.75818 2.99972 0
M  V30 402 H 37.9966 -1.3489 3.76357 0
M  V30 403 H 39.4366 -2.35949 3.52284 0
M  V30 404 C 37.8956 -2.66014 2.06732 0
M  V30 405 O 38.4256 -3.67009 1.63302 0
M  V30 406 N 36.6316 -2.33669 1.72763 0
M  V30 407 H 36.1786 -1.51586 2.08277 0
M  V30 408 H 36.1366 -2.94285 1.10652 0
M  V30 409 N 39.9087 -1.5758 0.0250728 0
M  V30 410 C 41.1337 -1.96337 -0.668317 0
M  V30 411 C 41.5587 -0.901314 -1.651 0
M  V30 412 O 40.9167 0.138187 -1.80773 0
M  V30 413 C 40.9647 -3.34191 -1.35457 0
M  V30 414 O 40.0687 -3.30269 -2.46974 0
M  V30 415 H 39.4097 -0.640281 -0.175887 0
M  V30 416 H 41.9397 -2.0442 0.0857224 0
M  V30 417 H 41.9497 -3.70331 -1.71228 0
M  V30 418 H 40.6247 -4.11036 -0.634218 0
M  V30 419 H 39.2017 -3.05841 -2.13344 0
M  V30 420 N 41.3868 0.248026 -1.55636 0
M  V30 421 C 42.3168 1.31079 -1.93237 0
M  V30 422 C 43.2978 1.50264 -0.797174 0
M  V30 423 O 44.4828 1.62891 -1.05737 0
M  V30 424 C 41.6128 2.66575 -2.22609 0
M  V30 425 C 40.5668 2.62087 -3.3837 0
M  V30 426 C 39.8928 4.01369 -3.53281 0
M  V30 427 C 41.1928 2.19171 -4.7409 0
M  V30 428 H 42.8868 0.998556 -2.82257 0
M  V30 429 H 40.4328 0.47891 -1.35803 0
M  V30 430 H 42.3858 3.41057 -2.47503 0
M  V30 431 H 41.1098 2.99432 -1.30414 0
M  V30 432 H 39.7688 1.90063 -3.13483 0
M  V30 433 H 39.4168 4.31489 -2.58508 0
M  V30 434 H 39.1168 3.99254 -4.31127 0
M  V30 435 H 40.6408 4.77552 -3.80495 0
M  V30 436 H 42.0548 2.83384 -4.98363 0
M  V30 437 H 40.4518 2.2817 -5.5503 0
M  V30 438 H 41.5218 1.14336 -4.71227 0
M  V30 439 N 42.8649 1.48995 0.513639 0
M  V30 440 C 43.7949 1.67636 1.62544 0
M  V30 441 C 44.7759 0.525087 1.61793 0
M  V30 442 O 45.9609 0.759502 1.78732 0
M  V30 443 C 43.0909 1.73114 3.01079 0
M  V30 444 C 42.0449 2.87905 3.16693 0
M  V30 445 C 41.3709 2.78486 4.56453 0
M  V30 446 C 42.6709 4.29005 2.97913 0
M  V30 447 H 44.3649 2.60716 1.47198 0
M  V30 448 H 41.9109 1.25465 0.706714 0
M  V30 449 H 43.8639 1.84742 3.78746 0
M  V30 450 H 42.5879 0.766241 3.17484 0
M  V30 451 H 41.2469 2.75859 2.41448 0
M  V30 452 H 40.8949 1.7993 4.69717 0
M  V30 453 H 40.5949 3.55523 4.67843 0
M  V30 454 H 42.1189 2.92104 5.36197 0
M  V30 455 H 43.5329 4.41798 3.65359 0
M  V30 456 H 41.9299 5.07166 3.20785 0
M  V30 457 H 42.9999 4.44329 1.94165 0
M  V30 458 N 44.343 -0.763751 1.37857 0
M  V30 459 C 45.59 -1.52257 1.33506 0
M  V30 460 C 45.918 -1.94343 -0.078022 0
M  V30 461 O 45.173 -1.64958 -1.05297 0
M  V30 462 C 45.472 -2.79499 2.22745 0
M  V30 463 C 45.138 -2.56426 3.70886 0
M  V30 464 C 43.8 -2.49842 4.11257 0
M  V30 465 C 46.152 -2.36008 4.64704 0
M  V30 466 C 43.48 -2.20841 5.43549 0
M  V30 467 C 45.832 -2.0853 5.97242 0
M  V30 468 C 44.496 -2.00396 6.36709 0
M  V30 469 H 43.766 -0.557149 0.488534 0
M  V30 470 H 46.413 -0.879073 1.70131 0
M  V30 471 H 44.718 -3.48447 1.79142 0
M  V30 472 H 46.415 -3.37413 2.16688 0
M  V30 473 H 43.005 -2.62416 3.38874 0
M  V30 474 H 47.189 -2.40079 4.34368 0
M  V30 475 H 42.445 -2.13045 5.73081 0
M  V30 476 H 46.619 -1.91732 6.69486 0
M  V30 477 H 44.246 -1.77688 7.39142 0
M  V30 478 N 45.8211 -1.22559 -0.990812 0
M  V30 479 C 47.0671 -1.05297 -1.73322 0
M  V30 480 C 47.4001 0.410655 -1.89808 0
M  V30 481 O 46.6751 1.30439 -1.44277 0
M  V30 482 C 46.9581 -1.76713 -3.13759 0
M  V30 483 C 46.8111 -3.30684 -3.04907 0
M  V30 484 C 48.1301 -1.52121 -4.12974 0
M  V30 485 H 45.2491 -0.38392 -0.629106 0
M  V30 486 H 47.8911 -1.50926 -1.15418 0
M  V30 487 H 46.0411 -1.37924 -3.63193 0
M  V30 488 H 47.7131 -3.7893 -2.63077 0
M  V30 489 H 45.9561 -3.60253 -2.41661 0
M  V30 490 H 46.6271 -3.75833 -4.04294 0
M  V30 491 H 49.1031 -1.85819 -3.72304 0
M  V30 492 H 47.9791 -2.04582 -5.0935 0
M  V30 493 H 48.2401 -0.454257 -4.3976 0
M  V30 494 N 47.2992 1.18797 -1.03562 0
M  V30 495 C 48.5762 1.84469 -0.650434 0
M  V30 496 C 48.9562 1.92319 0.870433 0
M  V30 497 O 48.3042 1.44528 1.76986 0
M  V30 498 C 48.5142 3.2306 -1.32036 0
M  V30 499 C 49.8622 3.9915 -1.44792 0
M  V30 500 O 50.8862 3.32481 -1.27806 0
M  V30 501 O 49.7452 5.18587 -1.72423 0
M  V30 502 H 46.8392 0.795251 -0.226946 0
M  V30 503 H 49.3852 1.26231 -1.13419 0
M  V30 504 H 48.1572 3.1222 -2.3587 0
M  V30 505 H 47.7802 3.88949 -0.8249 0
M  V30 506 N 48.7773 0.814389 1.34928 0
M  V30 507 C 50.0263 0.394871 1.97797 0
M  V30 508 C 50.3393 -1.04555 1.65311 0
M  V30 509 O 51.5453 -1.56856 2.21604 0
M  V30 510 C 50.0013 0.655103 3.53888 0
M  V30 511 C 49.6093 2.10858 3.95276 0
M  V30 512 C 51.3533 0.301329 4.23429 0
M  V30 513 C 49.2603 2.31415 5.44244 0
M  V30 514 H 48.1903 0.143913 0.740139 0
M  V30 515 H 50.8413 0.999544 1.53888 0
M  V30 516 H 49.2233 -0.0196253 3.95995 0
M  V30 517 H 50.3973 2.82176 3.64298 0
M  V30 518 H 48.7123 2.42297 3.38646 0
M  V30 519 H 51.3093 0.432869 5.32945 0
M  V30 520 H 51.6523 -0.75331 4.09428 0
M  V30 521 H 52.1853 0.930288 3.86769 0
M  V30 522 H 48.9243 3.35353 5.63222 0
M  V30 523 H 48.4443 1.6463 5.76764 0
M  V30 524 H 50.1233 2.13352 6.10811 0
M  V30 525 N 50.2554 -1.46986 0.568584 0
M  V30 526 C 51.6664 -1.86188 0.138219 0
M  V30 527 C 52.0174 -1.47388 -1.29504 0
M  V30 528 O 51.1424 -0.88219 -1.97602 0
M  V30 529 C 51.7374 -3.3792 0.244065 0
M  V30 530 C 50.2964 -3.76171 -0.131335 0
M  V30 531 C 49.4434 -2.71027 0.586465 0
M  V30 532 H 52.3944 -1.38342 0.777645 0
M  V30 533 H 52.4154 -3.76729 -0.534351 0
M  V30 534 H 51.9274 -3.66128 1.28731 0
M  V30 535 H 50.0284 -3.5358 -1.17526 0
M  V30 536 H 50.1414 -4.78523 0.235146 0
M  V30 537 H 48.5054 -2.54684 0.0282722 0
M  V30 538 H 49.2884 -3.02077 1.63109 0
M  V30 539 N 51.7335 -0.305618 -1.54608 0
M  V30 540 C 52.6965 0.555591 -2.22364 0
M  V30 541 C 53.6965 1.05768 -1.21119 0
M  V30 542 O 54.8865 0.952972 -1.45822 0
M  V30 543 C 52.0185 1.76974 -2.91364 0
M  V30 544 H 53.2115 -0.0364572 -2.99878 0
M  V30 545 H 50.7645 -0.0565007 -1.56198 0
M  V30 546 H 51.4995 2.40151 -2.17941 0
M  V30 547 H 51.2845 1.41732 -3.65588 0
M  V30 548 H 52.7745 2.38148 -3.43038 0
M  V30 549 N 53.2116 1.57565 -0.0334293 0
M  V30 550 C 54.1586 2.10478 0.946981 0
M  V30 551 C 55.1286 1.00787 1.32027 0
M  V30 552 O 56.3136 1.28232 1.41284 0
M  V30 553 C 53.4536 2.63994 2.22263 0
M  V30 554 C 52.5666 3.87709 1.90541 0
M  V30 555 C 51.7016 4.29604 3.12433 0
M  V30 556 C 50.7406 5.46065 2.76549 0
M  V30 557 N 49.8776 5.83096 3.9108 0
M  V30 558 H 54.7176 2.93963 0.488846 0
M  V30 559 H 52.2546 1.45296 0.22969 0
M  V30 560 H 54.2126 2.93114 2.96884 0
M  V30 561 H 52.8426 1.83333 2.65685 0
M  V30 562 H 51.8946 3.65291 1.06144 0
M  V30 563 H 53.2066 4.72403 1.60116 0
M  V30 564 H 52.3606 4.60182 3.9537 0
M  V30 565 H 51.0996 3.43685 3.46023 0
M  V30 566 H 50.1046 5.15176 1.92026 0
M  V30 567 H 51.3296 6.33685 2.44171 0
M  V30 568 H 49.2756 5.00132 4.24504 0
M  V30 569 H 49.1926 6.6244 3.64293 0
M  V30 570 H 50.4606 6.18282 4.74708 0
M  V30 571 N 54.6897 -0.239769 1.55765 0
M  V30 572 C 55.6367 -1.29696 1.90913 0
M  V30 573 C 56.6067 -1.47478 0.764164 0
M  V30 574 O 57.7917 -1.61345 1.01845 0
M  V30 575 C 54.9317 -2.64598 2.21544 0
M  V30 576 C 54.0447 -2.54765 3.48882 0
M  V30 577 C 53.1797 -3.82069 3.69049 0
M  V30 578 C 52.2187 -3.66883 4.89963 0
M  V30 579 N 51.3557 -4.86094 5.06614 0
M  V30 580 H 56.1957 -0.990224 2.81067 0
M  V30 581 H 53.7327 -0.477684 1.39128 0
M  V30 582 H 55.6907 -3.43132 2.3731 0
M  V30 583 H 54.3207 -2.93405 1.34585 0
M  V30 584 H 53.3727 -1.67763 3.41409 0
M  V30 585 H 54.6847 -2.39457 4.37563 0
M  V30 586 H 53.8387 -4.69046 3.84812 0
M  V30 587 H 52.5777 -4.00282 2.78614 0
M  V30 588 H 51.5827 -2.78289 4.74168 0
M  V30 589 H 52.8077 -3.50157 5.81865 0
M  V30 590 H 50.7537 -5.04655 4.19117 0
M  V30 591 H 50.6707 -4.73443 5.89396 0
M  V30 592 H 51.9387 -5.74549 5.26795 0
M  V30 593 N 56.1678 -1.49265 -0.50573 0
M  V30 594 C 57.4138 -1.58748 -1.26202 0
M  V30 595 C 57.7468 -0.271227 -1.92297 0
M  V30 596 O 57.0218 0.724831 -1.80489 0
M  V30 597 C 57.3048 -2.74332 -2.33268 0
M  V30 598 C 57.1578 -4.15737 -1.71705 0
M  V30 599 C 58.4768 -2.85576 -3.34865 0
M  V30 600 H 55.5958 -0.577826 -0.457478 0
M  V30 601 H 58.2378 -1.81532 -0.560897 0
M  V30 602 H 56.3878 -2.55036 -2.93068 0
M  V30 603 H 58.0598 -4.46537 -1.15769 0
M  V30 604 H 56.3028 -4.21605 -1.02135 0
M  V30 605 H 56.9738 -4.92477 -2.49341 0
M  V30 606 H 59.4498 -3.03127 -2.8505 0
M  V30 607 H 58.3258 -3.68135 -4.07146 0
M  V30 608 H 58.5868 -1.94732 -3.96903 0
M  V30 609 N 57.6459 0.756429 -1.3826 0
M  V30 610 C 58.8859 1.52833 -1.35725 0
M  V30 611 C 59.2499 1.91926 0.0534106 0
M  V30 612 O 60.4509 2.68028 0.203613 0
M  V30 613 C 58.7219 2.74919 -2.28373 0
M  V30 614 S 60.2809 3.64817 -2.43832 0
M  V30 615 H 57.0989 0.523043 -0.481608 0
M  V30 616 H 59.7009 0.888212 -1.74158 0
M  V30 617 H 58.4049 2.44304 -3.29763 0
M  V30 618 H 57.9359 3.43878 -1.91079 0
M  V30 619 H 59.9509 4.676 -1.66027 0
M  V30 620 N 59.124 1.23083 0.984299 0
M  V30 621 C 60.54 0.992637 1.24975 0
M  V30 622 C 60.74 -0.308618 1.99123 0
M  V30 623 O 59.796 -1.02905 2.30579 0
M  V30 624 C 61.109 2.19698 2.05312 0
M  V30 625 C 62.657 2.24147 2.18465 0
M  V30 626 C 63.132 3.44157 3.02192 0
M  V30 627 N 64.623 3.44372 3.09777 0
M  V30 628 C 65.358 4.33886 3.74874 0
M  V30 629 N 64.854 5.3363 4.41827 0
M  V30 630 N 66.647 4.21639 3.71721 0
M  V30 631 H 58.798 2.06731 0.487453 0
M  V30 632 H 61.061 0.906339 0.277944 0
M  V30 633 H 60.767 3.1411 1.58201 0
M  V30 634 H 60.641 2.20465 3.06064 0
M  V30 635 H 63.028 1.30277 2.64786 0
M  V30 636 H 63.109 2.27415 1.17115 0
M  V30 637 H 62.753 4.38332 2.56568 0
M  V30 638 H 62.683 3.3813 4.03702 0
M  V30 639 H 65.174 2.72201 2.62135 0
M  V30 640 H 65.487 5.98196 4.89266 0
M  V30 641 H 63.832 5.37534 4.40548 0
M  V30 642 H 67.023 3.42962 3.18582 0
M  V30 643 H 67.196 4.91604 4.22173 0
M  V30 644 N 60.6021 -1.18246 1.0419 0
M  V30 645 C 61.8481 -1.88793 0.75689 0
M  V30 646 C 62.2031 -1.78909 -0.707767 0
M  V30 647 O 61.4961 -1.1794 -1.50999 0
M  V30 648 C 61.6901 -3.38082 1.15911 0
M  V30 649 C 61.5191 -3.62496 2.66133 0
M  V30 650 C 60.2891 -3.7979 3.33298 0
M  V30 651 C 62.4871 -3.62976 3.64353 0
M  V30 652 N 60.4691 -3.91955 4.72487 0
M  V30 653 C 61.8401 -3.80869 4.89222 0
M  V30 654 C 63.8951 -3.46071 3.57965 0
M  V30 655 C 62.5981 -3.83608 6.08471 0
M  V30 656 C 64.6241 -3.50093 4.76643 0
M  V30 657 C 63.9861 -3.68484 6.00332 0
M  V30 658 H 60.0851 -0.709406 0.32904 0
M  V30 659 H 62.6691 -1.42022 1.33183 0
M  V30 660 H 60.8401 -3.83544 0.612238 0
M  V30 661 H 62.5721 -3.96202 0.824989 0
M  V30 662 H 59.3271 -3.79224 2.83701 0
M  V30 663 H 59.7511 -4.01857 5.44831 0
M  V30 664 H 64.3931 -3.30797 2.63311 0
M  V30 665 H 62.1111 -3.97669 7.0348 0
M  V30 666 H 65.6971 -3.38285 4.73344 0
M  V30 667 H 64.5771 -3.71488 6.90627 0
M  V30 668 N 62.0802 -0.821533 -1.34494 0
M  V30 669 C 63.3572 -0.33159 -1.92769 0
M  V30 670 C 63.7372 1.18088 -1.74981 0
M  V30 671 O 63.0852 1.98733 -1.12772 0
M  V30 672 C 63.2952 -0.759398 -3.40638 0
M  V30 673 C 64.6432 -0.757433 -4.1779 0
M  V30 674 O 65.6672 -0.70189 -3.49216 0
M  V30 675 O 64.5262 -0.829361 -5.4017 0
M  V30 676 H 61.6202 -0.0902502 -0.822061 0
M  V30 677 H 64.1662 -0.906231 -1.43477 0
M  V30 678 H 62.9382 -1.8012 -3.47379 0
M  V30 679 H 62.5612 -0.160378 -3.97276 0
M  V30 680 N 63.5583 1.46682 -0.576371 0
M  V30 681 C 64.7833 2.07304 -0.0630475 0
M  V30 682 C 65.2083 1.42329 1.2298 0
M  V30 683 O 64.5663 0.504865 1.74129 0
M  V30 684 C 64.6143 3.60472 0.095895 0
M  V30 685 O 63.7183 3.95927 1.15394 0
M  V30 686 H 63.0593 0.661288 -0.0599463 0
M  V30 687 H 65.5893 1.88417 -0.797511 0
M  V30 688 H 65.5993 4.06865 0.304071 0
M  V30 689 H 64.2743 4.07157 -0.84828 0
M  V30 690 H 62.8513 3.61252 0.924724 0
M  V30 691 N 65.0364 0.313813 1.54444 0
M  V30 692 C 66.2834 -0.291675 2.00388 0
M  V30 693 C 66.6114 -1.52904 1.2021 0
M  V30 694 O 65.8664 -1.93833 0.269707 0
M  V30 695 C 66.1654 -0.680386 3.50864 0
M  V30 696 C 65.8314 0.456699 4.48581 0
M  V30 697 C 64.4934 0.768824 4.75018 0
M  V30 698 C 66.8454 1.22098 5.06697 0
M  V30 699 C 64.1734 1.84812 5.56831 0
M  V30 700 C 66.5254 2.29029 5.89685 0
M  V30 701 C 65.1894 2.60834 6.14428 0
M  V30 702 H 64.4594 -0.106732 0.733273 0
M  V30 703 H 67.1064 0.43557 1.86481 0
M  V30 704 H 65.4114 -1.48791 3.62448 0
M  V30 705 H 67.1084 -1.16026 3.83847 0
M  V30 706 H 63.6984 0.203337 4.28117 0
M  V30 707 H 67.8824 0.993096 4.86263 0
M  V30 708 H 63.1384 2.09912 5.74236 0
M  V30 709 H 67.3124 2.887 6.33739 0
M  V30 710 H 64.9394 3.44596 6.77612 0
M  V30 711 N 66.5145 -1.57545 0.0417849 0
M  V30 712 C 67.7425 -1.96624 -0.643928 0
M  V30 713 C 68.1575 -0.918897 -1.64929 0
M  V30 714 O 67.5145 0.0979323 -1.82237 0
M  V30 715 C 67.5655 -3.35781 -1.33914 0
M  V30 716 O 67.2865 -4.365 -0.374048 0
M  V30 717 C 68.7875 -3.89566 -2.1155 0
M  V30 718 H 66.0075 -0.647316 -0.176702 0
M  V30 719 H 68.5515 -2.04229 0.105304 0
M  V30 720 H 66.7065 -3.29357 -2.03968 0
M  V30 721 H 67.1205 -5.17248 -0.869179 0
M  V30 722 H 68.5945 -4.89242 -2.55628 0
M  V30 723 H 69.0715 -3.24488 -2.9598 0
M  V30 724 H 69.6775 -3.99298 -1.46427 0
M  V30 725 N 67.9926 0.231505 -1.5589 0
M  V30 726 C 68.9396 1.28682 -1.91598 0
M  V30 727 C 69.9096 1.47071 -0.771974 0
M  V30 728 O 71.0946 1.60802 -1.027 0
M  V30 729 C 68.2346 2.6342 -2.22944 0
M  V30 730 C 67.3476 2.52912 -3.50228 0
M  V30 731 C 66.4826 3.80106 -3.7107 0
M  V30 732 C 65.5216 3.64279 -4.91902 0
M  V30 733 N 64.6586 4.834 -5.09184 0
M  V30 734 H 69.4986 0.975305 -2.81588 0
M  V30 735 H 67.0356 0.470299 -1.39379 0
M  V30 736 H 68.9936 3.41869 -2.39126 0
M  V30 737 H 67.6236 2.92687 -1.36139 0
M  V30 738 H 66.6756 1.6595 -3.42294 0
M  V30 739 H 67.9876 2.37133 -4.38827 0
M  V30 740 H 67.1416 4.66999 -3.87295 0
M  V30 741 H 65.8806 3.98799 -2.80733 0
M  V30 742 H 64.8856 2.7577 -4.75637 0
M  V30 743 H 66.1106 3.47067 -5.83714 0
M  V30 744 H 64.0566 5.02425 -4.21788 0
M  V30 745 H 63.9736 4.70311 -5.91898 0
M  V30 746 H 65.2416 5.71747 -5.29835 0
M  V30 747 N 69.4707 1.49531 0.497807 0
M  V30 748 C 70.4027 1.62559 1.61578 0
M  V30 749 C 71.4157 0.508134 1.54667 0
M  V30 750 O 72.6047 0.780309 1.60541 0
M  V30 751 C 69.7047 1.56925 3.00379 0
M  V30 752 C 68.8777 2.84257 3.3244 0
M  V30 753 C 67.9367 2.71632 4.50669 0
M  V30 754 O 66.9627 3.4557 4.52294 0
M  V30 755 N 68.1647 1.83391 5.5077 0
M  V30 756 H 70.9297 2.58981 1.50828 0
M  V30 757 H 68.4907 1.4666 0.685743 0
M  V30 758 H 70.4827 1.46129 3.77397 0
M  V30 759 H 69.0527 0.683483 3.05037 0
M  V30 760 H 68.2727 3.09381 2.44289 0
M  V30 761 H 69.5607 3.68666 3.5066 0
M  V30 762 H 68.9587 1.22583 5.52259 0
M  V30 763 H 67.5157 1.78515 6.26878 0
M  V30 764 N 70.9488 -0.749086 1.3866 0
M  V30 765 C 72.1948 -1.51056 1.35314 0
M  V30 766 C 72.5278 -1.94121 -0.0553751 0
M  V30 767 O 71.8028 -1.65763 -1.01749 0
M  V30 768 C 72.0858 -2.76003 2.31288 0
M  V30 769 C 71.9388 -2.39047 3.8102 0
M  V30 770 C 73.2578 -3.78046 2.2532 0
M  V30 771 H 70.3768 -0.547972 0.492844 0
M  V30 772 H 73.0188 -0.857628 1.69543 0
M  V30 773 H 71.1688 -3.31716 2.02229 0
M  V30 774 H 72.8408 -1.89074 4.20771 0
M  V30 775 H 71.0838 -1.71449 3.98482 0
M  V30 776 H 71.7548 -3.28462 4.4364 0
M  V30 777 H 74.2308 -3.31884 2.50983 0
M  V30 778 H 73.1068 -4.63159 2.94576 0
M  V30 779 H 73.3678 -4.23957 1.25352 0
M  V30 780 N 72.4269 -1.23603 -0.977757 0
M  V30 781 C 73.3589 -0.977369 -2.07317 0
M  V30 782 C 74.3719 0.0495845 -1.62724 0
M  V30 783 O 75.5609 -0.186261 -1.77526 0
M  V30 784 C 72.6609 -0.451216 -3.35883 0
M  V30 785 C 71.8339 -1.53896 -4.09432 0
M  V30 786 C 70.8929 -1.01721 -5.16274 0
M  V30 787 O 69.9189 -1.70676 -5.43009 0
M  V30 788 N 71.1209 0.153594 -5.80297 0
M  V30 789 H 73.8859 -1.92047 -2.30082 0
M  V30 790 H 71.4469 -1.14497 -1.14465 0
M  V30 791 H 73.4389 -0.0871574 -4.04606 0
M  V30 792 H 72.0089 0.397368 -3.10064 0
M  V30 793 H 71.2289 -2.07566 -3.35127 0
M  V30 794 H 72.5169 -2.27037 -4.55337 0
M  V30 795 H 71.9149 0.730323 -5.60966 0
M  V30 796 H 70.4719 0.458892 -6.50183 0
M  V30 797 N 73.905 1.17692 -1.04816 0
M  V30 798 C 75.321 1.39863 -0.768794 0
M  V30 799 C 75.521 1.91118 0.638451 0
M  V30 800 O 74.577 2.10036 1.40146 0
M  V30 801 C 75.89 2.39274 -1.82122 0
M  V30 802 C 77.438 2.52987 -1.843 0
M  V30 803 C 77.913 3.55669 -2.88555 0
M  V30 804 N 79.404 3.63183 -2.87493 0
M  V30 805 C 80.139 4.42381 -3.64811 0
M  V30 806 N 79.635 5.25125 -4.51903 0
M  V30 807 N 81.428 4.37217 -3.53267 0
M  V30 808 H 73.579 0.82752 -1.95617 0
M  V30 809 H 75.842 0.426123 -0.846831 0
M  V30 810 H 75.548 2.08678 -2.83102 0
M  V30 811 H 75.422 3.38725 -1.65967 0
M  V30 812 H 77.809 2.82896 -0.839869 0
M  V30 813 H 77.89 1.53623 -2.04532 0
M  V30 814 H 77.534 3.26499 -3.89051 0
M  V30 815 H 77.464 4.54728 -2.65575 0
M  V30 816 H 79.955 3.04103 -2.24343 0
M  V30 817 H 80.268 5.82728 -5.07591 0
M  V30 818 H 78.613 5.24519 -4.55966 0
M  V30 819 H 81.804 3.71626 -2.84625 0
M  V30 820 H 81.977 4.98696 -4.13771 0
M  V30 821 N 75.3831 0.828654 1.34056 0
M  V30 822 C 76.6291 0.42008 1.98402 0
M  V30 823 C 76.9621 -1.01564 1.65525 0
M  V30 824 O 76.2371 -1.70834 0.929831 0
M  V30 825 C 76.5201 0.62927 3.54559 0
M  V30 826 C 76.3731 2.11152 3.97159 0
M  V30 827 C 77.6921 0.0688756 4.40046 0
M  V30 828 H 74.8111 0.154104 0.720709 0
M  V30 829 H 77.4531 1.04228 1.5886 0
M  V30 830 H 75.6031 0.0996418 3.88372 0
M  V30 831 H 77.2751 2.70522 3.73651 0
M  V30 832 H 75.5181 2.59985 3.47261 0
M  V30 833 H 76.1891 2.20868 5.05887 0
M  V30 834 H 78.6651 0.521458 4.1282 0
M  V30 835 H 77.5411 0.245006 5.48353 0
M  V30 836 H 77.8021 -1.0266 4.30015 0
M  V30 837 N 76.8612 -1.46375 0.584142 0
M  V30 838 C 78.0892 -2.06761 0.0759296 0
M  V30 839 C 78.5042 -1.43266 -1.22965 0
M  V30 840 O 77.8612 -0.538458 -1.74376 0
M  V30 841 C 77.9122 -3.61375 -0.0950384 0
M  V30 842 O 77.6332 -4.22495 1.15887 0
M  V30 843 C 79.1342 -4.38693 -0.637434 0
M  V30 844 H 76.3542 -0.668479 0.0581075 0
M  V30 845 H 78.8982 -1.8798 0.805218 0
M  V30 846 H 77.0532 -3.79578 -0.774554 0
M  V30 847 H 77.4672 -5.15385 0.973598 0
M  V30 848 H 78.9412 -5.47464 -0.706237 0
M  V30 849 H 79.4182 -4.06836 -1.65472 0
M  V30 850 H 80.0242 -4.25299 0.00725967 0
M  V30 851 N 78.3393 -0.321999 -1.54275 0
M  V30 852 C 79.2723 0.58718 -2.20516 0
M  V30 853 C 80.2503 1.11693 -1.18167 0
M  V30 854 O 81.4343 1.18122 -1.46899 0
M  V30 855 C 78.5613 1.80554 -2.86562 0
M  V30 856 C 77.6073 1.40718 -4.02617 0
M  V30 857 S 78.4403 0.445218 -5.33646 0
M  V30 858 C 79.5963 1.6709 -6.03185 0
M  V30 859 H 79.8293 0.0244875 -2.9729 0
M  V30 860 H 77.3623 -0.106087 -1.54035 0
M  V30 861 H 79.3203 2.50462 -3.25237 0
M  V30 862 H 77.9813 2.33942 -2.09595 0
M  V30 863 H 77.1743 2.31501 -4.47687 0
M  V30 864 H 76.7763 0.78782 -3.65608 0
M  V30 865 H 79.0683 2.60856 -6.25268 0
M  V30 866 H 80.0113 1.26239 -6.96756 0
M  V30 867 H 80.4193 1.85716 -5.33076 0
M  V30 868 N 79.8174 1.5752 -0.0501392 0
M  V30 869 C 81.0944 1.83996 0.663685 0
M  V30 870 C 81.4744 0.938339 1.89099 0
M  V30 871 O 80.8224 -0.00087759 2.285 0
M  V30 872 C 81.0324 3.33702 1.02196 0
M  V30 873 C 82.3804 4.00691 1.40469 0
M  V30 874 O 83.4044 3.38321 1.11433 0
M  V30 875 O 82.2634 5.10658 1.94654 0
M  V30 876 H 79.3574 0.759385 0.32751 0
M  V30 877 H 81.9034 1.69514 -0.0794238 0
M  V30 878 H 80.6754 3.91015 0.149364 0
M  V30 879 H 80.2984 3.53368 1.82255 0
M  V30 880 N 81.2955 -0.223234 1.56011 0
M  V30 881 C 82.2585 -1.26014 1.9145 0
M  V30 882 C 83.2585 -1.3989 0.792937 0
M  V30 883 O 84.4485 -1.38184 1.0607 0
M  V30 884 C 81.5805 -2.63422 2.16383 0
M  V30 885 H 82.7735 -0.95796 2.84189 0
M  V30 886 H 80.3265 -0.463576 1.49267 0
M  V30 887 H 81.0615 -2.98741 1.2619 0
M  V30 888 H 80.8465 -2.54728 2.98088 0
M  V30 889 H 82.3365 -3.38249 2.44903 0
M  V30 890 N 82.7736 -1.49793 -0.48987 0
M  V30 891 C 84.1846 -1.52914 -1.07118 0
M  V30 892 C 84.5356 -0.321738 -1.93544 0
M  V30 893 O 83.6606 0.567338 -2.08831 0
M  V30 894 C 84.2556 -2.771 -1.94938 0
M  V30 895 C 82.8146 -2.82963 -2.48212 0
M  V30 896 C 81.9616 -2.46972 -1.26096 0
M  V30 897 H 84.9126 -1.56329 -0.273289 0
M  V30 898 H 84.9336 -2.57892 -2.79771 0
M  V30 899 H 84.4456 -3.64959 -1.32009 0
M  V30 900 H 82.5466 -1.99411 -3.14748 0
M  V30 901 H 82.6596 -3.85406 -2.84603 0
M  V30 902 H 81.0236 -1.98994 -1.58976 0
M  V30 903 H 81.8066 -3.37118 -0.648581 0
M  V30 904 N 84.2517 0.741722 -1.39055 0
M  V30 905 C 85.4977 1.50336 -1.36113 0
M  V30 906 C 85.8307 1.94148 0.0450796 0
M  V30 907 O 85.1057 1.66301 1.00868 0
M  V30 908 C 85.3887 2.74773 -2.32749 0
M  V30 909 C 85.2417 2.37023 -3.82283 0
M  V30 910 C 86.5607 3.76846 -2.27322 0
M  V30 911 H 83.6797 0.545351 -0.495743 0
M  V30 912 H 86.3217 0.848624 -1.69995 0
M  V30 913 H 84.4717 3.30639 -2.03986 0
M  V30 914 H 86.1437 1.8684 -4.21768 0
M  V30 915 H 84.3867 1.69334 -3.99385 0
M  V30 916 H 85.0577 3.26104 -4.45376 0
M  V30 917 H 87.5337 3.30548 -2.5274 0
M  V30 918 H 86.4097 4.6159 -2.97028 0
M  V30 919 H 86.6707 4.23286 -1.27599 0
M  V30 920 N 85.7298 1.2412 0.971189 0
M  V30 921 C 86.9548 1.10667 1.75407 0
M  V30 922 C 87.3798 -0.337048 1.85056 0
M  V30 923 O 86.7378 -1.24396 1.31892 0
M  V30 924 C 86.7858 1.74726 3.15441 0
M  V30 925 O 85.8898 1.01566 3.99697 0
M  V30 926 H 85.2308 0.387341 0.539317 0
M  V30 927 H 87.7608 1.64358 1.2185 0
M  V30 928 H 87.7708 1.80341 3.6598 0
M  V30 929 H 86.4458 2.79773 3.07734 0
M  V30 930 H 85.0228 1.03713 3.58187 0
M  V30 931 N 87.2079 -1.17134 1.05439 0
M  V30 932 C 88.4329 -1.91913 0.786396 0
M  V30 933 C 88.8579 -1.7643 -0.652234 0
M  V30 934 O 88.2159 -1.08372 -1.45345 0
M  V30 935 C 88.2639 -3.40921 1.17497 0
M  V30 936 O 87.3679 -4.11244 0.308589 0
M  V30 937 H 86.7089 -0.598215 0.288158 0
M  V30 938 H 89.2389 -1.48457 1.4079 0
M  V30 939 H 89.2489 -3.91668 1.14281 0
M  V30 940 H 87.9239 -3.5151 2.22292 0
M  V30 941 H 86.5009 -3.70731 0.40157 0
M  V30 942 N 88.686 -0.835752 -1.33615 0
M  V30 943 C 89.932 -0.430596 -1.98176 0
M  V30 944 C 90.265 1.00684 -1.66061 0
M  V30 945 O 89.54 1.70339 -0.938877 0
M  V30 946 C 89.823 -0.648065 -3.5422 0
M  V30 947 C 89.676 -2.13255 -3.96033 0
M  V30 948 C 90.995 -0.0922113 -4.40003 0
M  V30 949 H 88.114 -0.157924 -0.719881 0
M  V30 950 H 90.756 -1.05069 -1.58305 0
M  V30 951 H 88.906 -0.120237 -3.88314 0
M  V30 952 H 90.578 -2.725 -3.72211 0
M  V30 953 H 88.821 -2.61823 -3.45878 0
M  V30 954 H 89.492 -2.23547 -5.04708 0
M  V30 955 H 91.968 -0.543343 -4.12537 0
M  V30 956 H 90.844 -0.274083 -5.48215 0
M  V30 957 H 91.105 1.00378 -4.30554 0
M  V30 958 N 90.1641 1.46063 -0.591896 0
M  V30 959 C 91.1271 2.28854 0.125973 0
M  V30 960 C 92.1271 1.38903 0.810107 0
M  V30 961 O 93.3171 1.61186 0.66066 0
M  V30 962 C 90.4491 3.19526 1.1881 0
M  V30 963 H 91.6421 2.93802 -0.601717 0
M  V30 964 H 89.1951 1.52325 -0.350254 0
M  V30 965 H 89.9301 2.59345 1.94707 0
M  V30 966 H 89.7151 3.85766 0.701936 0
M  V30 967 H 91.2051 3.81817 1.69132 0
M  V30 968 N 91.6422 0.330177 1.54103 0
M  V30 969 C 92.5722 -0.525353 2.27513 0
M  V30 970 C 93.5532 -1.11383 1.2856 0
M  V30 971 O 94.7382 -1.13773 1.57383 0
M  V30 972 C 91.8682 -1.6831 3.03791 0
M  V30 973 C 90.8222 -1.2236 4.10137 0
M  V30 974 C 90.1482 -2.46882 4.74293 0
M  V30 975 C 91.4482 -0.333697 5.21233 0
M  V30 976 H 93.1422 0.087013 2.99274 0
M  V30 977 H 90.6882 0.0432893 1.43935 0
M  V30 978 H 92.6412 -2.28795 3.5388 0
M  V30 979 H 91.3652 -2.32216 2.29659 0
M  V30 980 H 90.0242 -0.64165 3.60941 0
M  V30 981 H 89.6722 -3.09165 3.96769 0
M  V30 982 H 89.3722 -2.16825 5.46133 0
M  V30 983 H 90.8962 -3.08117 5.27159 0
M  V30 984 H 92.3102 -0.845013 5.67038 0
M  V30 985 H 90.7072 -0.125612 5.99969 0
M  V30 986 H 91.7772 0.633724 4.80741 0
M  V30 987 N 93.1203 -1.57491 0.0584922 0
M  V30 988 C 94.5363 -1.56792 -0.298091 0
M  V30 989 C 94.7363 -1.06679 -1.70944 0
M  V30 990 O 93.7923 -0.726672 -2.41818 0
M  V30 991 C 95.1053 -3.00461 -0.119879 0
M  V30 992 C 96.6533 -3.1242 -0.190428 0
M  V30 993 C 97.1283 -4.57982 -0.0406567 0
M  V30 994 N 98.6193 -4.63099 -0.0966958 0
M  V30 995 C 99.3543 -5.734 -0.00502943 0
M  V30 996 N 98.8503 -6.9266 0.139402 0
M  V30 997 N 100.643 -5.62067 -0.0611391 0
M  V30 998 H 92.7943 -1.88386 0.98105 0
M  V30 999 H 95.0573 -0.867865 0.381463 0
M  V30 1000 H 94.7633 -3.41187 0.85349 0
M  V30 1001 H 94.6373 -3.66843 -0.877833 0
M  V30 1002 H 97.0243 -2.71589 -1.15427 0
M  V30 1003 H 97.1053 -2.48702 0.598405 0
M  V30 1004 H 96.7493 -4.995 0.919897 0
M  V30 1005 H 96.6793 -5.19715 -0.848727 0
M  V30 1006 H 99.1703 -3.77331 -0.207277 0
M  V30 1007 H 99.4833 -7.72536 0.201855 0
M  V30 1008 H 97.8283 -6.94781 0.174586 0
M  V30 1009 H 101.019 -4.67782 -0.172583 0
M  V30 1010 H 101.192 -6.47999 0.0137562 0
M  V30 1011 N 94.5984 0.214957 -1.56127 0
M  V30 1012 C 95.5304 1.29004 -1.89448 0
M  V30 1013 C 96.5434 1.42716 -0.783326 0
M  V30 1014 O 97.7324 1.43496 -1.06166 0
M  V30 1015 C 94.8324 2.66482 -2.09381 0
M  V30 1016 C 94.0054 2.74633 -3.40434 0
M  V30 1017 C 93.0644 3.9317 -3.49719 0
M  V30 1018 O 92.0904 3.812 -4.227 0
M  V30 1019 N 93.2924 5.07765 -2.81346 0
M  V30 1020 H 96.0574 1.00743 -2.82261 0
M  V30 1021 H 93.6184 0.40497 -1.56753 0
M  V30 1022 H 95.6104 3.44173 -2.12901 0
M  V30 1023 H 94.1804 2.87314 -1.23163 0
M  V30 1024 H 93.4004 1.83368 -3.48955 0
M  V30 1025 H 94.6884 2.77054 -4.26754 0
M  V30 1026 H 94.0864 5.20386 -2.21843 0
M  V30 1027 H 92.6434 5.83474 -2.90519 0
M  V30 1028 N 96.0765 1.50051 0.48192 0
M  V30 1029 C 97.3015 1.64508 1.26301 0
M  V30 1030 C 97.7265 0.323851 1.85291 0
M  V30 1031 O 97.0845 -0.710969 1.66778 0
M  V30 1032 C 97.1325 2.7305 2.35533 0
M  V30 1033 O 96.2365 2.3355 3.39895 0
M  V30 1034 H 95.5775 0.549978 0.372048 0
M  V30 1035 H 98.1075 1.9636 0.574786 0
M  V30 1036 H 98.1175 2.95799 2.8101 0
M  V30 1037 H 96.7925 3.68946 1.91967 0
M  V30 1038 H 95.3695 2.21205 3.00204 0
M  V30 1039 N 97.5546 -0.734337 1.39446 0
M  V30 1040 C 98.8026 -1.49096 1.36436 0
M  V30 1041 C 99.1236 -1.94961 -0.0388255 0
M  V30 1042 O 98.3936 -1.69033 -0.990191 0
M  V30 1043 H 96.9736 -0.5531 0.502085 0
M  V30 1044 H 99.6356 -0.871725 1.74319 0
M  V30 1045 H 98.7316 -2.37276 2.02747 0
M  V30 1046 N 99.0327 -1.24633 -0.964593 0
M  V30 1047 C 100.281 -1.08573 -1.70459 0
M  V30 1048 C 100.602 0.375655 -1.91347 0
M  V30 1049 O 99.8717 1.26779 -1.49345 0
M  V30 1050 H 98.4517 -0.398784 -0.631649 0
M  V30 1051 H 101.114 -1.56601 -1.16026 0
M  V30 1052 H 100.21 -1.58623 -2.68785 0
M  V30 1053 N 100.511 1.16574 -1.06058 0
M  V30 1054 C 101.741 1.90675 -0.795397 0
M  V30 1055 C 102.149 1.77547 0.653735 0
M  V30 1056 O 101.492 1.11611 1.45907 0
M  V30 1057 C 101.554 3.42011 -1.10764 0
M  V30 1058 C 101.218 3.78924 -2.55471 0
M  V30 1059 C 102.215 3.81042 -3.53699 0
M  V30 1060 C 99.8998 4.09626 -2.90708 0
M  V30 1061 C 101.894 4.13346 -4.85205 0
M  V30 1062 C 99.5808 4.41597 -4.22416 0
M  V30 1063 C 100.579 4.43436 -5.19474 0
M  V30 1064 O 100.267 4.74649 -6.48817 0
M  V30 1065 H 99.9988 0.611554 -0.288058 0
M  V30 1066 H 102.553 1.48711 -1.41683 0
M  V30 1067 H 100.783 3.84312 -0.429128 0
M  V30 1068 H 102.472 3.97384 -0.827077 0
M  V30 1069 H 103.238 3.57437 -3.27817 0
M  V30 1070 H 99.1168 4.07361 -2.15819 0
M  V30 1071 H 102.661 4.14696 -5.60957 0
M  V30 1072 H 98.5578 4.64667 -4.48056 0
M  V30 1073 H 99.3258 4.9247 -6.5377 0
M  V30 1074 N 101.989 0.842826 1.3317 0
M  V30 1075 C 103.235 0.441099 1.97945 0
M  V30 1076 C 103.568 -0.998024 1.66593 0
M  V30 1077 O 102.843 -1.69839 0.947898 0
M  V30 1078 C 103.126 0.666841 3.53872 0
M  V30 1079 C 102.979 2.15352 3.94897 0
M  V30 1080 C 104.298 0.115544 4.39948 0
M  V30 1081 H 101.417 0.161739 0.719034 0
M  V30 1082 H 104.059 1.05907 1.57746 0
M  V30 1083 H 102.209 0.140828 3.88245 0
M  V30 1084 H 103.881 2.7447 3.70761 0
M  V30 1085 H 102.124 2.63653 3.44484 0
M  V30 1086 H 102.795 2.26221 5.03516 0
M  V30 1087 H 105.271 0.565213 4.12243 0
M  V30 1088 H 104.147 0.303152 5.48062 0
M  V30 1089 H 104.408 -0.980935 4.3108 0
M  V30 1090 N 103.467 -1.45747 0.599634 0
M  V30 1091 C 104.43 -2.28917 -0.113835 0
M  V30 1092 C 105.43 -1.3933 -0.802729 0
M  V30 1093 O 106.62 -1.61534 -0.652103 0
M  V30 1094 C 103.752 -3.20152 -1.17114 0
M  V30 1095 H 104.945 -2.93478 0.617289 0
M  V30 1096 H 102.498 -1.52137 0.358327 0
M  V30 1097 H 103.233 -2.60374 -1.93329 0
M  V30 1098 H 103.018 -3.86133 -0.681468 0
M  V30 1099 H 104.508 -3.82708 -1.67105 0
M  V30 1100 N 104.945 -0.338344 -1.53925 0
M  V30 1101 C 106.173 0.261298 -2.05243 0
M  V30 1102 C 106.588 1.44625 -1.21363 0
M  V30 1103 O 105.945 1.80811 -0.247736 0
M  V30 1104 C 105.996 0.681412 -3.5502 0
M  V30 1105 O 105.717 -0.456414 -4.35716 0
M  V30 1106 C 107.218 1.34232 -4.22489 0
M  V30 1107 H 104.438 0.0513685 -0.669031 0
M  V30 1108 H 106.982 -0.488822 -1.98572 0
M  V30 1109 H 105.137 1.38148 -3.61931 0
M  V30 1110 H 105.551 -0.122564 -5.24357 0
M  V30 1111 H 107.025 1.58708 -5.28693 0
M  V30 1112 H 107.502 2.29426 -3.74514 0
M  V30 1113 H 108.108 0.684424 -4.19757 0
M  V30 1114 N 106.423 1.57458 -0.0668435 0
M  V30 1115 C 107.672 1.92477 0.602947 0
M  V30 1116 C 107.985 0.948419 1.71068 0
M  V30 1117 O 109.191 1.19124 2.43971 0
M  V30 1118 C 107.647 3.41903 1.12383 0
M  V30 1119 C 107.255 4.47975 0.04737 0
M  V30 1120 C 108.999 3.85931 1.76797 0
M  V30 1121 C 106.906 5.88529 0.582022 0
M  V30 1122 H 105.836 0.718387 0.22899 0
M  V30 1123 H 108.487 1.82978 -0.138276 0
M  V30 1124 H 106.869 3.46459 1.91787 0
M  V30 1125 H 108.043 4.55029 -0.726978 0
M  V30 1126 H 106.358 4.13384 -0.500243 0
M  V30 1127 H 108.955 4.88322 2.17821 0
M  V30 1128 H 109.298 3.23029 2.62599 0
M  V30 1129 H 109.831 3.83958 1.04024 0
M  V30 1130 H 106.57 6.55065 -0.238721 0
M  V30 1131 H 106.09 5.85004 1.324 0
M  V30 1132 H 107.769 6.38258 1.05999 0
M  V30 1133 N 107.901 -0.206675 1.56239 0
M  V30 1134 C 109.149 -0.927007 1.79586 0
M  V30 1135 C 109.47 -1.8427 0.637929 0
M  V30 1136 O 108.74 -1.92849 -0.344398 0
M  V30 1137 H 107.32 -0.345292 0.662407 0
M  V30 1138 H 109.982 -0.21496 1.93711 0
M  V30 1139 H 109.078 -1.52501 2.72305 0
M  V30 1140 N 109.379 -1.50304 -0.473955 0
M  V30 1141 C 110.607 -1.64902 -1.24959 0
M  V30 1142 C 111.022 -0.331198 -1.85872 0
M  V30 1143 O 110.379 0.68652 -1.69095 0
M  V30 1144 C 110.43 -2.73803 -2.36038 0
M  V30 1145 O 110.151 -4.00477 -1.77624 0
M  V30 1146 C 111.652 -2.99349 -3.26964 0
M  V30 1147 H 108.872 -0.554383 -0.378022 0
M  V30 1148 H 111.416 -1.9651 -0.566054 0
M  V30 1149 H 109.571 -2.44898 -3.00173 0
M  V30 1150 H 109.985 -4.60678 -2.5075 0
M  V30 1151 H 111.459 -3.79217 -4.01121 0
M  V30 1152 H 111.936 -2.10307 -3.85574 0
M  V30 1153 H 112.542 -3.29774 -2.68569 0
M  V30 1154 N 110.857 0.726932 -1.39834 0
M  V30 1155 C 111.804 1.841 -1.39197 0
M  V30 1156 C 112.774 1.642 -0.250502 0
M  V30 1157 O 113.959 1.85494 -0.446846 0
M  V30 1158 C 111.099 3.21697 -1.24919 0
M  V30 1159 C 110.212 3.53247 -2.48678 0
M  V30 1160 C 109.347 4.80289 -2.26928 0
M  V30 1161 C 108.386 5.04707 -3.4632 0
M  V30 1162 N 107.523 6.22956 -3.23836 0
M  V30 1163 H 112.363 1.83979 -2.34427 0
M  V30 1164 H 109.9 0.898876 -1.16442 0
M  V30 1165 H 111.858 4.01137 -1.1465 0
M  V30 1166 H 110.488 3.21076 -0.333153 0
M  V30 1167 H 109.54 2.68447 -2.69519 0
M  V30 1168 H 110.852 3.67205 -3.37582 0
M  V30 1169 H 110.006 5.67725 -2.13947 0
M  V30 1170 H 108.745 4.68519 -1.35431 0
M  V30 1171 H 107.75 4.1573 -3.5979 0
M  V30 1172 H 108.975 5.18357 -4.38729 0
M  V30 1173 H 106.921 6.12459 -2.35011 0
M  V30 1174 H 106.838 6.37539 -4.063 0
M  V30 1175 H 108.106 7.1321 -3.14566 0
M  V30 1176 N 112.336 1.25143 0.95797 0
M  V30 1177 C 113.583 1.09692 1.70217 0
M  V30 1178 C 113.911 -0.362654 1.91089 0
M  V30 1179 O 113.166 -1.28386 1.47701 0
M  V30 1180 C 113.465 1.79272 3.09187 0
M  V30 1181 C 113.131 3.29196 3.08125 0
M  V30 1182 C 111.793 3.70096 3.07543 0
M  V30 1183 C 114.145 4.24995 3.0171 0
M  V30 1184 C 111.473 5.05213 2.9829 0
M  V30 1185 C 113.825 5.60132 2.93999 0
M  V30 1186 C 112.489 6.00365 2.9175 0
M  V30 1187 H 111.759 0.401393 0.622868 0
M  V30 1188 H 114.406 1.55372 1.11945 0
M  V30 1189 H 112.711 1.26014 3.70982 0
M  V30 1190 H 114.408 1.64773 3.65583 0
M  V30 1191 H 110.998 2.96651 3.09348 0
M  V30 1192 H 115.182 3.9439 3.01281 0
M  V30 1193 H 110.438 5.35569 2.94916 0
M  V30 1194 H 114.612 6.3406 2.87996 0
M  V30 1195 H 112.239 7.05023 2.84336 0
M  V30 1196 N 113.814 -1.1601 1.06675 0
M  V30 1197 C 115.054 -1.88304 0.795037 0
M  V30 1198 C 115.418 -1.80062 -0.666466 0
M  V30 1199 O 116.619 -2.47319 -1.05293 0
M  V30 1200 C 114.89 -3.33664 1.28076 0
M  V30 1201 S 116.449 -4.23768 1.13868 0
M  V30 1202 H 113.267 -0.649928 0.288296 0
M  V30 1203 H 115.869 -1.4001 1.36445 0
M  V30 1204 H 114.573 -3.37203 2.33927 0
M  V30 1205 H 114.104 -3.87009 0.706253 0
M  V30 1206 H 116.119 -4.96148 0.0719668 0
M  V30 1207 N 115.292 -0.849877 -1.32721 0
M  V30 1208 C 116.255 -0.296122 -2.27279 0
M  V30 1209 C 117.255 0.541458 -1.5141 0
M  V30 1210 O 118.445 0.353658 -1.70572 0
M  V30 1211 C 115.577 0.581579 -3.35902 0
M  V30 1212 H 116.77 -1.13064 -2.77771 0
M  V30 1213 H 114.323 -0.62383 -1.43311 0
M  V30 1214 H 115.058 1.43809 -2.9067 0
M  V30 1215 H 114.843 -0.0178814 -3.92096 0
M  V30 1216 H 116.333 0.961951 -4.0637 0
M  V30 1217 N 116.77 1.45427 -0.607355 0
M  V30 1218 C 117.7 2.3329 0.0989352 0
M  V30 1219 C 118.681 1.46816 0.859007 0
M  V30 1220 O 119.866 1.75588 0.829604 0
M  V30 1221 C 116.996 3.29518 1.09705 0
M  V30 1222 C 115.95 4.25626 0.450206 0
M  V30 1223 C 115.276 5.11542 1.55655 0
M  V30 1224 C 116.576 5.18505 -0.628455 0
M  V30 1225 H 118.27 2.92595 -0.634716 0
M  V30 1226 H 115.816 1.40696 -0.306681 0
M  V30 1227 H 117.769 3.89855 1.59971 0
M  V30 1228 H 116.493 2.68372 1.86129 0
M  V30 1229 H 115.152 3.66586 -0.0315886 0
M  V30 1230 H 114.8 4.46765 2.31107 0
M  V30 1231 H 114.5 5.76647 1.12925 0
M  V30 1232 H 116.024 5.74748 2.06148 0
M  V30 1233 H 117.438 5.72916 -0.209877 0
M  V30 1234 H 115.835 5.92085 -0.977489 0
M  V30 1235 H 116.905 4.60948 -1.50514 0
M  V30 1236 N 118.248 0.346503 1.53744 0
M  V30 1237 C 119.196 -0.52422 2.26616 0
M  V30 1238 C 120.19 -1.09948 1.28871 0
M  V30 1239 O 121.396 -1.04488 1.46568 0
M  V30 1240 H 117.771 -0.187743 0.728187 0
M  V30 1241 H 119.742 0.11239 2.98188 0
M  V30 1242 C 118.491 -1.66186 3.05414 0
M  V30 1243 H 117.814 -1.22848 3.80458 0
M  V30 1244 H 119.254 -2.24622 3.59612 0
M  V30 1245 C 117.713 -2.59302 2.1509 0
M  V30 1246 O 118.243 -3.61628 1.74895 0
M  V30 1247 N 116.449 -2.28055 1.8011 0
M  V30 1248 H 115.996 -1.44883 2.12994 0
M  V30 1249 H 115.954 -2.90615 1.19958 0
M  V30 1250 N 119.726 -1.57421 0.075193 0
M  V30 1251 C 120.972 -1.94716 -0.587998 0
M  V30 1252 C 121.327 -0.955205 -1.67014 0
M  V30 1253 O 120.62 0.0219842 -1.91587 0
M  V30 1254 C 120.814 -3.36428 -1.20626 0
M  V30 1255 C 120.643 -4.49317 -0.185541 0
M  V30 1256 C 119.413 -5.04772 0.23099 0
M  V30 1257 C 121.611 -5.11036 0.57854 0
M  V30 1258 N 119.593 -6.01204 1.24206 0
M  V30 1259 C 120.964 -6.02998 1.44199 0
M  V30 1260 C 123.019 -4.93844 0.634237 0
M  V30 1261 C 121.722 -6.79614 2.3562 0
M  V30 1262 C 123.748 -5.71106 1.53597 0
M  V30 1263 C 123.11 -6.6272 2.38709 0
M  V30 1264 H 119.209 -0.759536 -0.186089 0
M  V30 1265 H 121.793 -1.94097 0.153128 0
M  V30 1266 H 119.964 -3.37778 -1.9173 0
M  V30 1267 H 121.696 -3.60951 -1.8302 0
M  V30 1268 H 118.451 -4.73353 -0.152807 0
M  V30 1269 H 118.875 -6.54119 1.74521 0
M  V30 1270 H 123.517 -4.22799 -0.00960004 0
M  V30 1271 H 121.235 -7.49934 3.01038 0
M  V30 1272 H 124.821 -5.59824 1.58394 0
M  V30 1273 H 123.701 -7.2146 3.07352 0
M  V30 1274 N 121.204 0.198386 -1.56346 0
M  V30 1275 C 122.151 1.24589 -1.94284 0
M  V30 1276 C 123.121 1.454 -0.802997 0
M  V30 1277 O 124.306 1.58588 -1.06087 0
M  V30 1278 C 121.446 2.58631 -2.28482 0
M  V30 1279 C 120.559 2.45426 -3.55514 0
M  V30 1280 C 119.694 3.7215 -3.79049 0
M  V30 1281 C 118.733 3.53763 -4.99518 0
M  V30 1282 N 117.87 4.72491 -5.19323 0
M  V30 1283 H 122.71 0.915356 -2.83593 0
M  V30 1284 H 120.247 0.440629 -1.40346 0
M  V30 1285 H 122.205 3.3672 -2.46324 0
M  V30 1286 H 120.835 2.89734 -1.42317 0
M  V30 1287 H 119.887 1.58652 -3.45737 0
M  V30 1288 H 121.199 2.27772 -4.43758 0
M  V30 1289 H 120.353 4.58679 -3.97113 0
M  V30 1290 H 119.092 3.92754 -2.89129 0
M  V30 1291 H 118.097 2.65619 -4.8138 0
M  V30 1292 H 119.322 3.34607 -5.90944 0
M  V30 1293 H 117.268 4.93365 -4.3235 0
M  V30 1294 H 117.185 4.5765 -6.01741 0
M  V30 1295 H 118.453 5.6038 -5.41843 0
M  V30 1296 N 122.682 1.50554 0.465978 0
M  V30 1297 C 123.592 1.72585 1.58907 0
M  V30 1298 C 124.608 0.60911 1.6299 0
M  V30 1299 O 125.784 0.88804 1.80765 0
M  V30 1300 C 122.849 1.81995 2.95091 0
M  V30 1301 C 121.91 3.05751 3.01355 0
M  V30 1302 C 121.143 3.14702 4.31043 0
M  V30 1303 O 121.366 2.30313 5.21835 0
M  V30 1304 O 120.3 4.07468 4.43005 0
M  V30 1305 H 124.126 2.67799 1.43239 0
M  V30 1306 H 121.711 1.34711 0.646013 0
M  V30 1307 H 123.593 1.90335 3.75966 0
M  V30 1308 H 122.268 0.899659 3.10947 0
M  V30 1309 H 121.175 3.02908 2.19539 0
M  V30 1310 H 122.508 3.97375 2.90437 0
M  V30 1311 N 124.16 -0.719506 1.40217 0
M  V30 1312 C 125.092 -1.84428 1.36084 0
M  V30 1313 C 126.105 -1.60597 0.266913 0
M  V30 1314 O 127.294 -1.70544 0.526983 0
M  V30 1315 C 124.394 -3.20757 1.094 0
M  V30 1316 C 123.567 -3.71817 2.30372 0
M  V30 1317 C 122.626 -4.86748 1.99907 0
M  V30 1318 O 121.652 -4.99603 2.72737 0
M  V30 1319 N 122.854 -5.7226 0.974635 0
M  V30 1320 H 125.619 -1.88473 2.33019 0
M  V30 1321 H 123.18 -0.900885 1.3452 0
M  V30 1322 H 125.172 -3.95235 0.870116 0
M  V30 1323 H 123.742 -3.11884 0.211452 0
M  V30 1324 H 122.962 -2.88514 2.68614 0
M  V30 1325 H 124.25 -4.02666 3.11026 0
M  V30 1326 H 123.648 -5.6448 0.371368 0
M  V30 1327 H 122.205 -6.46739 0.810656 0
M  V30 1328 N 125.638 -1.25649 -0.95132 0
M  V30 1329 C 126.863 -1.13443 -1.73624 0
M  V30 1330 C 127.288 0.307565 -1.85568 0
M  V30 1331 O 126.646 1.22282 -1.33854 0
M  V30 1332 C 126.694 -1.79723 -3.12621 0
M  V30 1333 O 125.798 -1.07912 -3.98031 0
M  V30 1334 H 125.139 -0.395872 -0.533086 0
M  V30 1335 H 127.669 -1.66276 -1.1922 0
M  V30 1336 H 127.679 -1.86141 -3.63064 0
M  V30 1337 H 126.354 -2.84633 -3.03244 0
M  V30 1338 H 124.931 -1.09398 -3.56492 0
M  V30 1339 N 127.117 1.15442 -1.07289 0
M  V30 1340 C 128.08 2.18358 -0.696591 0
M  V30 1341 C 129.08 1.58637 0.262837 0
M  V30 1342 O 130.27 1.74145 0.0438809 0
M  V30 1343 C 127.402 3.4089 -0.0266151 0
M  V30 1344 H 128.595 2.53162 -1.60776 0
M  V30 1345 H 126.148 1.29893 -0.869342 0
M  V30 1346 H 126.883 3.11653 0.896822 0
M  V30 1347 H 126.668 3.85495 -0.716657 0
M  V30 1348 H 128.158 4.17009 0.222028 0
M  V30 1349 N 128.595 0.856903 1.32268 0
M  V30 1350 C 129.841 0.462069 1.97466 0
M  V30 1351 C 130.174 -0.980298 1.67642 0
M  V30 1352 O 129.449 -1.68824 0.965858 0
M  V30 1353 C 129.732 0.704336 3.53145 0
M  V30 1354 C 129.585 2.19529 3.9259 0
M  V30 1355 C 130.904 0.1622 4.39801 0
M  V30 1356 H 128.023 0.169357 0.717278 0
M  V30 1357 H 130.665 1.07574 1.56614 0
M  V30 1358 H 128.815 0.181999 3.88073 0
M  V30 1359 H 130.487 2.78387 3.67829 0
M  V30 1360 H 128.73 2.67292 3.41668 0
M  V30 1361 H 129.401 2.31549 5.01088 0
M  V30 1362 H 131.877 0.608905 4.11621 0
M  V30 1363 H 130.753 0.361265 5.4771 0
M  V30 1364 H 131.014 -0.935158 4.32096 0
M  V30 1365 N 130.073 -1.45103 0.615059 0
M  V30 1366 C 131.319 -2.02483 0.113347 0
M  V30 1367 C 131.652 -1.48146 -1.25564 0
M  V30 1368 O 130.927 -0.659104 -1.82992 0
M  V30 1369 C 131.21 -3.60005 0.0825278 0
M  V30 1370 C 131.063 -4.2466 1.48271 0
M  V30 1371 C 132.382 -4.35972 -0.601401 0
M  V30 1372 H 129.501 -0.735764 0.0426632 0
M  V30 1373 H 132.143 -1.72868 0.788461 0
M  V30 1374 H 130.293 -3.85367 -0.492378 0
M  V30 1375 H 131.965 -4.10458 2.10527 0
M  V30 1376 H 130.208 -3.82772 2.04127 0
M  V30 1377 H 130.879 -5.336 1.41332 0
M  V30 1378 H 133.355 -4.15947 -0.112666 0
M  V30 1379 H 132.231 -5.45697 -0.592097 0
M  V30 1380 H 132.492 -4.09391 -1.66887 0
M  V30 1381 N 131.551 -0.354651 -1.53558 0
M  V30 1382 C 132.481 0.489091 -2.2832 0
M  V30 1383 C 133.462 1.09324 -1.30316 0
M  V30 1384 O 134.647 1.11255 -1.59173 0
M  V30 1385 C 131.777 1.63456 -3.0643 0
M  V30 1386 C 130.731 1.1582 -4.12031 0
M  V30 1387 C 130.057 2.39305 -4.7816 0
M  V30 1388 C 131.357 0.250731 -5.21698 0
M  V30 1389 H 133.051 -0.134614 -2.99097 0
M  V30 1390 H 130.597 -0.0661826 -1.43848 0
M  V30 1391 H 132.55 2.23136 -3.57475 0
M  V30 1392 H 131.274 2.28533 -2.33325 0
M  V30 1393 H 129.933 0.584146 -3.61916 0
M  V30 1394 H 129.581 3.02814 -4.01637 0
M  V30 1395 H 129.281 2.08109 -5.49513 0
M  V30 1396 H 130.805 2.99691 -5.31994 0
M  V30 1397 H 132.219 0.754695 -5.68311 0
M  V30 1398 H 130.616 0.0301468 -6.00092 0
M  V30 1399 H 131.686 -0.710125 -4.79672 0
M  V30 1400 N 133.029 1.57378 -0.0835403 0
M  V30 1401 C 133.992 2.12252 0.864959 0
M  V30 1402 C 134.992 1.04916 1.21858 0
M  V30 1403 O 136.182 1.30853 1.14991 0
M  V30 1404 C 133.314 2.63358 2.16461 0
M  V30 1405 H 134.507 2.97371 0.388676 0
M  V30 1406 H 132.06 1.55423 0.165317 0
M  V30 1407 H 132.795 1.81727 2.686 0
M  V30 1408 H 132.58 3.41826 1.92087 0
M  V30 1409 H 134.07 3.05847 2.84337 0
M  V30 1410 N 134.507 -0.190092 1.56449 0
M  V30 1411 C 135.735 -0.925772 1.85033 0
M  V30 1412 C 136.15 -1.76638 0.666658 0
M  V30 1413 O 135.507 -1.78822 -0.364565 0
M  V30 1414 C 135.558 -1.81786 3.12468 0
M  V30 1415 O 135.279 -1.01118 4.26271 0
M  V30 1416 C 136.78 -2.6648 3.54265 0
M  V30 1417 H 134 -0.269872 0.614337 0
M  V30 1418 H 136.544 -0.195837 2.0356 0
M  V30 1419 H 134.699 -2.50136 2.95822 0
M  V30 1420 H 135.113 -1.61956 4.98869 0
M  V30 1421 H 136.587 -3.24722 4.46385 0
M  V30 1422 H 137.064 -3.40434 2.77491 0
M  V30 1423 H 137.67 -2.03493 3.73458 0
M  V30 1424 N 135.985 -1.50799 -0.457987 0
M  V30 1425 C 137.231 -1.62683 -1.21088 0
M  V30 1426 C 137.564 -0.332268 -1.91336 0
M  V30 1427 O 136.839 0.667043 -1.82704 0
M  V30 1428 C 137.122 -2.81615 -2.24422 0
M  V30 1429 C 136.975 -4.20989 -1.58392 0
M  V30 1430 C 138.294 -2.96085 -3.2561 0
M  V30 1431 H 135.413 -0.592087 -0.438864 0
M  V30 1432 H 138.055 -1.83225 -0.50286 0
M  V30 1433 H 136.205 -2.64231 -2.84806 0
M  V30 1434 H 137.877 -4.49994 -1.01504 0
M  V30 1435 H 136.12 -4.24641 -0.886704 0
M  V30 1436 H 136.791 -5.0016 -2.33547 0
M  V30 1437 H 139.267 -3.12042 -2.75262 0
M  V30 1438 H 138.143 -3.80902 -3.95228 0
M  V30 1439 H 138.404 -2.0726 -3.90507 0
M  V30 1440 N 137.463 0.71206 -1.40597 0
M  V30 1441 C 138.74 1.46536 -1.29563 0
M  V30 1442 C 139.12 2.10931 0.0844217 0
M  V30 1443 O 138.468 2.00418 1.0975 0
M  V30 1444 C 138.678 2.49821 -2.43701 0
M  V30 1445 C 140.026 3.15551 -2.841 0
M  V30 1446 O 141.05 2.60142 -2.4332 0
M  V30 1447 O 139.909 4.15867 -3.54566 0
M  V30 1448 H 137.003 0.651801 -0.509004 0
M  V30 1449 H 139.549 0.743935 -1.52524 0
M  V30 1450 H 138.321 2.00778 -3.35863 0
M  V30 1451 H 137.944 3.29495 -2.22528 0
M  V30 1452 N 138.941 1.26152 0.944643 0
M  V30 1453 C 139.889 1.07215 2.06417 0
M  V30 1454 C 140.883 9.2007e-05 1.694 0
M  V30 1455 O 142.089 0.1565 1.79318 0
M  V30 1456 H 138.464 0.329837 0.675805 0
M  V30 1457 H 140.435 2.02099 2.19541 0
M  V30 1458 C 139.184 0.718197 3.40202 0
M  V30 1459 H 138.507 1.53497 3.69159 0
M  V30 1460 H 139.947 0.625459 4.19361 0
M  V30 1461 C 138.406 -0.576435 3.31932 0
M  V30 1462 O 138.936 -1.61574 3.67773 0
M  V30 1463 N 137.142 -0.565781 2.85039 0
M  V30 1464 H 136.689 0.280367 2.5607 0
M  V30 1465 H 136.647 -1.43213 2.79888 0
M  V30 1466 N 140.419 -1.14872 1.07899 0
M  V30 1467 C 141.696 -1.81928 0.71845 0
M  V30 1468 C 142.076 -1.95417 -0.798455 0
M  V30 1469 O 141.424 -1.50997 -1.715 0
M  V30 1470 C 141.634 -3.17937 1.43935 0
M  V30 1471 C 142.982 -3.93501 1.59506 0
M  V30 1472 O 144.006 -3.27509 1.40058 0
M  V30 1473 O 142.865 -5.1183 1.91551 0
M  V30 1474 H 139.959 -0.78628 0.256305 0
M  V30 1475 H 142.505 -1.21934 1.18026 0
M  V30 1476 H 141.277 -3.0325 2.47295 0
M  V30 1477 H 140.9 -3.85619 0.968687 0
M  V30 1478 N 141.898 -0.863906 -1.31812 0
M  V30 1479 C 142.845 -0.313303 -2.28664 0
M  V30 1480 C 143.815 0.584868 -1.55462 0
M  V30 1481 O 145 0.517805 -1.83639 0
M  V30 1482 C 142.14 0.48441 -3.41683 0
M  V30 1483 C 141.253 -0.440594 -4.29747 0
M  V30 1484 C 140.388 0.370652 -5.29905 0
M  V30 1485 C 139.427 -0.551164 -6.09613 0
M  V30 1486 N 138.564 0.223462 -7.01744 0
M  V30 1487 H 143.404 -1.14444 -2.75148 0
M  V30 1488 H 140.941 -0.575769 -1.35364 0
M  V30 1489 H 142.899 0.962627 -4.05943 0
M  V30 1490 H 141.529 1.28029 -2.96325 0
M  V30 1491 H 140.581 -1.03724 -3.65986 0
M  V30 1492 H 141.893 -1.14767 -4.85417 0
M  V30 1493 H 141.047 0.911638 -5.99812 0
M  V30 1494 H 139.786 1.11105 -4.74876 0
M  V30 1495 H 138.791 -1.10396 -5.38603 0
M  V30 1496 H 140.016 -1.29032 -6.66729 0
M  V30 1497 H 137.962 0.946787 -6.49132 0
M  V30 1498 H 137.879 -0.424399 -7.54808 0
M  V30 1499 H 139.147 0.745876 -7.75923 0
M  V30 1500 N 143.376 1.44774 -0.622745 0
M  V30 1501 C 144.323 2.30635 0.0871679 0
M  V30 1502 C 145.293 1.42994 0.845097 0
M  V30 1503 O 146.478 1.71907 0.827812 0
M  V30 1504 C 143.618 3.28144 1.06844 0
M  V30 1505 C 142.731 4.30888 0.309809 0
M  V30 1506 C 141.866 5.15494 1.28215 0
M  V30 1507 C 140.905 6.09953 0.512198 0
M  V30 1508 N 140.042 6.87287 1.43458 0
M  V30 1509 H 144.882 2.90803 -0.650974 0
M  V30 1510 H 142.419 1.43286 -0.33281 0
M  V30 1511 H 144.377 3.83157 1.65066 0
M  V30 1512 H 143.007 2.69695 1.77382 0
M  V30 1513 H 142.059 3.78414 -0.388181 0
M  V30 1514 H 143.371 4.97955 -0.290254 0
M  V30 1515 H 142.525 5.74983 1.93596 0
M  V30 1516 H 141.264 4.48481 1.91614 0
M  V30 1517 H 140.269 5.49581 -0.155151 0
M  V30 1518 H 141.494 6.78999 -0.116958 0
M  V30 1519 H 139.44 6.2295 2.05594 0
M  V30 1520 H 139.357 7.50763 0.888335 0
M  V30 1521 H 140.625 7.51306 2.07749 0
M  V30 1522 N 144.854 0.36279 1.53368 0
M  V30 1523 C 145.802 -0.500155 2.27159 0
M  V30 1524 C 146.796 -1.08575 1.3003 0
M  V30 1525 O 148.002 -1.02927 1.47668 0
M  V30 1526 H 144.377 -0.180009 0.730138 0
M  V30 1527 H 146.348 0.14401 2.98052 0
M  V30 1528 C 145.097 -1.62937 3.07159 0
M  V30 1529 H 144.42 -1.18806 3.8174 0
M  V30 1530 H 145.86 -2.20795 3.61975 0
M  V30 1531 C 144.319 -2.57007 2.17829 0
M  V30 1532 O 144.849 -3.59752 1.78721 0
M  V30 1533 N 143.055 -2.26131 1.82518 0
M  V30 1534 H 142.602 -1.42616 2.14519 0
M  V30 1535 H 142.56 -2.89327 1.23034 0
M  V30 1536 N 146.332 -1.57332 0.0918853 0
M  V30 1537 C 147.28 -2.15075 -0.885747 0
M  V30 1538 C 148.274 -1.09277 -1.29441 0
M  V30 1539 O 149.48 -1.27627 -1.26931 0
M  V30 1540 H 145.855 -0.687966 -0.303656 0
M  V30 1541 H 147.826 -2.96047 -0.373995 0
M  V30 1542 C 146.575 -2.74325 -2.13638 0
M  V30 1543 H 145.898 -3.55418 -1.8308 0
M  V30 1544 H 147.338 -3.183 -2.80109 0
M  V30 1545 C 145.797 -1.70062 -2.90827 0
M  V30 1546 O 146.327 -1.13763 -3.85254 0
M  V30 1547 N 144.533 -1.40628 -2.54307 0
M  V30 1548 H 144.08 -1.866 -1.7759 0
M  V30 1549 H 144.038 -0.711043 -3.06254 0
M  V30 1550 N 147.81 0.181792 -1.56548 0
M  V30 1551 C 149.226 0.53316 -1.50431 0
M  V30 1552 C 149.426 1.85184 -0.794297 0
M  V30 1553 O 148.482 2.50058 -0.350318 0
M  V30 1554 C 149.795 0.575597 -2.9514 0
M  V30 1555 C 151.343 0.663519 -3.05886 0
M  V30 1556 C 151.818 0.736946 -4.52032 0
M  V30 1557 N 153.309 0.800118 -4.56237 0
M  V30 1558 C 154.044 0.877327 -5.66649 0
M  V30 1559 N 153.54 0.916016 -6.86718 0
M  V30 1560 N 155.333 0.915542 -5.54594 0
M  V30 1561 H 147.484 -0.683025 -2.01118 0
M  V30 1562 H 149.747 -0.244988 -0.915797 0
M  V30 1563 H 149.453 -0.324482 -3.502 0
M  V30 1564 H 149.327 1.42572 -3.49218 0
M  V30 1565 H 151.714 1.55403 -2.50867 0
M  V30 1566 H 151.795 -0.21307 -2.54911 0
M  V30 1567 H 151.439 -0.149262 -5.07681 0
M  V30 1568 H 151.369 1.62953 -5.00753 0
M  V30 1569 H 153.86 0.778926 -3.69785 0
M  V30 1570 H 154.173 0.975813 -7.66614 0
M  V30 1571 H 152.518 0.884469 -6.89349 0
M  V30 1572 H 155.709 0.882245 -4.59711 0
M  V30 1573 H 155.882 0.972253 -6.40665 0
M  V30 1574 N 149.288 1.51039 0.449983 0
M  V30 1575 C 150.535 1.63081 1.20045 0
M  V30 1576 C 150.863 0.341024 1.91487 0
M  V30 1577 O 150.118 -0.674276 1.83717 0
M  V30 1578 C 150.417 2.77556 2.25161 0
M  V30 1579 C 150.083 4.17289 1.70823 0
M  V30 1580 C 148.745 4.55305 1.55725 0
M  V30 1581 C 151.097 5.04536 1.3074 0
M  V30 1582 C 148.425 5.78287 0.989999 0
M  V30 1583 C 150.777 6.28085 0.754482 0
M  V30 1584 C 149.441 6.64885 0.590308 0
M  V30 1585 H 148.711 0.596755 0.439277 0
M  V30 1586 H 151.358 1.85037 0.49333 0
M  V30 1587 H 149.663 2.49771 3.01863 0
M  V30 1588 H 151.36 2.84073 2.83026 0
M  V30 1589 H 147.95 3.8731 1.83546 0
M  V30 1590 H 152.134 4.75782 1.41229 0
M  V30 1591 H 147.39 6.05456 0.850451 0
M  V30 1592 H 151.564 6.95038 0.435324 0
M  V30 1593 H 149.191 7.60055 0.14862 0
M  V30 1594 N 150.766 -0.704594 1.40972 0
M  V30 1595 C 151.714 -1.83994 1.42299 0
M  V30 1596 C 152.708 -1.66684 0.302111 0
M  V30 1597 O 153.914 -1.73655 0.473697 0
M  V30 1598 H 150.289 -0.606171 0.44504 0
M  V30 1599 H 152.26 -1.79992 2.38003 0
M  V30 1600 C 151.009 -3.21946 1.31323 0
M  V30 1601 H 150.332 -3.35878 2.16855 0
M  V30 1602 H 151.772 -4.01491 1.36311 0
M  V30 1603 C 150.231 -3.36891 0.0245977 0
M  V30 1604 O 150.761 -3.90687 -0.934153 0
M  V30 1605 N 148.967 -2.90559 -0.0485243 0
M  V30 1606 H 148.514 -2.46968 0.732419 0
M  V30 1607 H 148.472 -3.00937 -0.910171 0
M  V30 1608 N 152.244 -1.26651 -0.937939 0
M  V30 1609 C 153.521 -1.0313 -1.66204 0
M  V30 1610 C 153.901 0.437256 -2.06522 0
M  V30 1611 O 153.249 1.41831 -1.79154 0
M  V30 1612 C 153.459 -1.98314 -2.87181 0
M  V30 1613 C 154.807 -2.27107 -3.58758 0
M  V30 1614 O 155.831 -1.96205 -2.97291 0
M  V30 1615 O 154.69 -2.79736 -4.69479 0
M  V30 1616 H 151.784 -0.392384 -0.727986 0
M  V30 1617 H 154.33 -1.37874 -0.989382 0
M  V30 1618 H 153.102 -2.97399 -2.54302 0
M  V30 1619 H 152.725 -1.64068 -3.6217 0
M  V30 1620 N 153.722 1.14298 -1.08507 0
M  V30 1621 C 154.97 1.84993 -0.813763 0
M  V30 1622 C 155.291 1.83405 0.662393 0
M  V30 1623 O 154.561 1.28319 1.48024 0
M  V30 1624 H 153.141 0.684966 -0.298045 0
M  V30 1625 H 155.803 1.385 -1.37126 0
M  V30 1626 H 154.899 2.89788 -1.15884 0
M  V30 1627 N 155.201 0.870884 1.31352 0
M  V30 1628 C 156.148 0.325425 2.28494 0
M  V30 1629 C 157.118 -0.576615 1.5577 0
M  V30 1630 O 158.303 -0.508059 1.83911 0
M  V30 1631 C 155.443 -0.466283 3.41935 0
M  V30 1632 C 154.556 0.463378 4.29508 0
M  V30 1633 C 153.691 -0.342544 5.30094 0
M  V30 1634 C 152.73 0.583486 6.09313 0
M  V30 1635 N 151.867 -0.186244 7.01853 0
M  V30 1636 H 156.707 1.15901 2.74538 0
M  V30 1637 H 154.244 0.58294 1.35056 0
M  V30 1638 H 156.202 -0.941085 4.06447 0
M  V30 1639 H 154.832 -1.26456 2.97 0
M  V30 1640 H 153.884 1.05663 3.65431 0
M  V30 1641 H 155.196 1.1734 4.84802 0
M  V30 1642 H 154.35 -0.879816 6.00287 0
M  V30 1643 H 153.089 -1.08585 4.75458 0
M  V30 1644 H 152.094 1.13251 5.3801 0
M  V30 1645 H 153.319 1.32566 6.66035 0
M  V30 1646 H 151.265 -0.912348 6.49625 0
M  V30 1647 H 151.182 0.464422 7.54572 0
M  V30 1648 H 152.45 -0.704716 7.76308 0
M  V30 1649 N 156.679 -1.44442 0.630414 0
M  V30 1650 C 157.925 -2.02351 0.134816 0
M  V30 1651 C 158.258 -1.4947 -1.23986 0
M  V30 1652 O 157.533 -0.678475 -1.82283 0
M  V30 1653 C 157.816 -3.59898 0.120707 0
M  V30 1654 C 157.669 -4.23063 1.52767 0
M  V30 1655 C 158.988 -4.36585 -0.555127 0
M  V30 1656 H 156.107 -0.73527 0.0504646 0
M  V30 1657 H 158.749 -1.72022 0.806751 0
M  V30 1658 H 156.899 -3.85868 -0.451477 0
M  V30 1659 H 158.571 -4.08202 2.14869 0
M  V30 1660 H 156.814 -3.80586 2.08175 0
M  V30 1661 H 157.485 -5.32071 1.46984 0
M  V30 1662 H 159.961 -4.16044 -0.0685429 0
M  V30 1663 H 158.837 -5.46294 -0.534185 0
M  V30 1664 H 159.098 -4.11138 -1.62535 0
M  V30 1665 N 158.157 -0.370918 -1.53173 0
M  V30 1666 C 159.434 0.273754 -1.93675 0
M  V30 1667 C 159.814 1.65938 -1.3049 0
M  V30 1668 O 159.162 2.23698 -0.465999 0
M  V30 1669 C 159.372 0.318602 -3.47543 0
M  V30 1670 C 160.72 0.556392 -4.20939 0
M  V30 1671 O 161.744 0.399587 -3.53952 0
M  V30 1672 O 160.603 0.862133 -5.39657 0
M  V30 1673 H 157.697 0.165448 -0.810281 0
M  V30 1674 H 160.243 -0.42409 -1.64315 0
M  V30 1675 H 159.015 -0.652687 -3.85818 0
M  V30 1676 H 158.638 1.06212 -3.83151 0
M  V30 1677 N 159.635 1.57281 -0.100228 0
M  V30 1678 C 161.046 1.81725 0.428107 0
M  V30 1679 C 161.397 1.01619 1.67833 0
M  V30 1680 O 160.522 0.247098 2.14985 0
M  V30 1681 C 161.117 3.29617 0.78347 0
M  V30 1682 C 159.676 3.54808 1.25653 0
M  V30 1683 C 158.823 2.76118 0.255752 0
M  V30 1684 H 161.774 1.55324 -0.325608 0
M  V30 1685 H 161.795 3.4322 1.64256 0
M  V30 1686 H 161.307 3.87893 -0.12665 0
M  V30 1687 H 159.408 3.01868 2.18418 0
M  V30 1688 H 159.521 4.63443 1.21482 0
M  V30 1689 H 157.885 2.43745 0.738956 0
M  V30 1690 H 158.668 3.37145 -0.647136 0
M  V30 1691 N 161.113 -0.173488 1.56642 0
M  V30 1692 C 162.076 -1.19859 1.95362 0
M  V30 1693 C 163.076 -1.37296 0.83704 0
M  V30 1694 O 164.266 -1.34739 1.10413 0
M  V30 1695 C 161.398 -2.56405 2.24654 0
M  V30 1696 H 162.591 -0.867062 2.87092 0
M  V30 1697 H 160.144 -0.415853 1.50666 0
M  V30 1698 H 160.879 -2.94576 1.35631 0
M  V30 1699 H 160.664 -2.45115 3.06041 0
M  V30 1700 H 162.154 -3.30287 2.5554 0
M  V30 1701 N 162.591 -1.51276 -0.441967 0
M  V30 1702 C 163.839 -1.63392 -1.18943 0
M  V30 1703 C 164.16 -0.350159 -1.9183 0
M  V30 1704 O 163.43 0.633784 -1.85364 0
M  V30 1705 H 162.01 -0.602164 -0.442049 0
M  V30 1706 H 164.672 -1.88186 -0.507165 0
M  V30 1707 H 163.768 -2.45934 -1.92154 0
M  V30 1708 N 164.069 0.697108 -1.41344 0
M  V30 1709 C 165.485 1.00751 -1.2378 0
M  V30 1710 C 165.685 2.01105 -0.126066 0
M  V30 1711 O 164.741 2.47295 0.51004 0
M  V30 1712 C 166.054 1.53359 -2.58653 0
M  V30 1713 C 167.602 1.6525 -2.65822 0
M  V30 1714 C 168.077 2.2126 -4.01009 0
M  V30 1715 N 169.568 2.28622 -4.02847 0
M  V30 1716 C 170.303 2.72984 -5.04249 0
M  V30 1717 N 169.799 3.16962 -6.16041 0
M  V30 1718 N 171.592 2.72534 -4.91611 0
M  V30 1719 H 163.743 0.0322662 -2.12375 0
M  V30 1720 H 166.006 0.0768853 -0.944877 0
M  V30 1721 H 165.712 0.870773 -3.4075 0
M  V30 1722 H 165.586 2.51597 -2.81032 0
M  V30 1723 H 167.973 2.30644 -1.84086 0
M  V30 1724 H 168.054 0.655614 -2.47256 0
M  V30 1725 H 167.698 1.56482 -4.83193 0
M  V30 1726 H 167.628 3.21698 -4.16915 0
M  V30 1727 H 170.119 1.97585 -3.22131 0
M  V30 1728 H 170.432 3.49434 -6.89287 0
M  V30 1729 H 168.777 3.14875 -6.1958 0
M  V30 1730 H 171.968 2.37525 -4.0336 0
M  V30 1731 H 172.141 3.06789 -5.70775 0
M  V30 1732 N 165.547 1.27147 0.931209 0
M  V30 1733 C 166.777 1.15914 1.71019 0
M  V30 1734 C 167.185 -0.287112 1.87009 0
M  V30 1735 O 166.528 -1.20761 1.38429 0
M  V30 1736 C 166.59 1.76647 3.13107 0
M  V30 1737 C 166.254 3.25807 3.20467 0
M  V30 1738 C 167.251 4.22489 3.02983 0
M  V30 1739 C 164.936 3.66452 3.43538 0
M  V30 1740 C 166.93 5.57794 3.08454 0
M  V30 1741 C 164.617 5.01888 3.48643 0
M  V30 1742 C 165.615 5.97369 3.31119 0
M  V30 1743 O 165.303 7.30337 3.35952 0
M  V30 1744 H 165.035 0.404062 0.54195 0
M  V30 1745 H 167.589 1.68457 1.17521 0
M  V30 1746 H 165.819 1.18578 3.68071 0
M  V30 1747 H 167.508 1.60179 3.72958 0
M  V30 1748 H 168.274 3.92425 2.85004 0
M  V30 1749 H 164.153 2.92611 3.5623 0
M  V30 1750 H 167.697 6.32298 2.94694 0
M  V30 1751 H 163.594 5.31609 3.66145 0
M  V30 1752 H 164.362 7.38739 3.5243 0
M  V30 1753 N 167.025 -1.13721 1.09112 0
M  V30 1754 C 168.272 -1.84924 0.825192 0
M  V30 1755 C 168.6 -1.83347 -0.649151 0
M  V30 1756 O 167.855 -1.26449 -1.49362 0
M  V30 1757 C 168.154 -3.32861 1.30146 0
M  V30 1758 C 167.82 -3.54621 2.78486 0
M  V30 1759 C 166.482 -3.60268 3.18999 0
M  V30 1760 C 168.834 -3.62855 3.74146 0
M  V30 1761 C 166.162 -3.71679 4.53951 0
M  V30 1762 C 168.514 -3.75793 5.08883 0
M  V30 1763 C 167.178 -3.79692 5.4899 0
M  V30 1764 H 166.448 -0.676684 0.301959 0
M  V30 1765 H 169.095 -1.3428 1.36533 0
M  V30 1766 H 167.4 -3.85835 0.681064 0
M  V30 1767 H 169.097 -3.86395 1.07236 0
M  V30 1768 H 165.687 -3.50879 2.46134 0
M  V30 1769 H 169.871 -3.57775 3.43963 0
M  V30 1770 H 165.127 -3.72963 4.84467 0
M  V30 1771 H 169.301 -3.81107 5.82864 0
M  V30 1772 H 166.928 -3.88287 6.53558 0
M  V30 1773 N 168.503 -0.877838 -1.30888 0
M  V30 1774 C 169.466 -0.344265 -2.266 0
M  V30 1775 C 170.466 0.50922 -1.52524 0
M  V30 1776 O 171.656 0.317398 -1.71284 0
M  V30 1777 C 168.788 0.510198 -3.37061 0
M  V30 1778 H 169.981 -1.1893 -2.7531 0
M  V30 1779 H 167.534 -0.654088 -1.41956 0
M  V30 1780 H 168.269 1.37612 -2.93655 0
M  V30 1781 H 168.054 -0.101047 -3.9197 0
M  V30 1782 H 169.544 0.875537 -4.08319 0
M  V30 1783 N 169.982 1.44106 -0.638065 0
M  V30 1784 C 171.23 2.01579 -0.145043 0
M  V30 1785 C 171.551 1.50496 1.24 0
M  V30 1786 O 170.821 0.711374 1.82527 0
M  V30 1787 H 169.401 0.745282 -0.05063 0
M  V30 1788 H 172.063 1.76516 -0.826327 0
M  V30 1789 H 171.159 3.11877 -0.118039 0
M  V30 1790 N 171.46 0.379036 1.52974 0
M  V30 1791 C 172.688 -0.20679 2.05864 0
M  V30 1792 C 173.103 -1.41356 1.25155 0
M  V30 1793 O 172.46 -1.8009 0.295588 0
M  V30 1794 C 172.511 -0.587045 3.56702 0
M  V30 1795 O 172.232 0.571776 4.34353 0
M  V30 1796 C 173.733 -1.22983 4.25899 0
M  V30 1797 H 170.953 -0.0336123 0.670158 0
M  V30 1798 H 173.497 0.541298 1.97206 0
M  V30 1799 H 171.652 -1.28504 3.65466 0
M  V30 1800 H 172.066 0.261544 5.23847 0
M  V30 1801 H 173.54 -1.44635 5.32715 0
M  V30 1802 H 174.017 -2.19416 3.80465 0
M  V30 1803 H 174.623 -0.572892 4.21424 0
M  V30 1804 N 172.938 -1.57226 0.108567 0
M  V30 1805 C 173.871 -2.10447 -0.882464 0
M  V30 1806 C 174.849 -1.01829 -1.26766 0
M  V30 1807 O 176.033 -1.29415 -1.37054 0
M  V30 1808 C 173.16 -2.59258 -2.17952 0
M  V30 1809 C 172.206 -3.79662 -1.94318 0
M  V30 1810 S 173.039 -5.22586 -1.16892 0
M  V30 1811 C 174.195 -5.74758 -2.47799 0
M  V30 1812 H 174.428 -2.94178 -0.429745 0
M  V30 1813 H 171.961 -1.54043 -0.105 0
M  V30 1814 H 173.919 -2.88036 -2.92482 0
M  V30 1815 H 172.58 -1.75728 -2.60343 0
M  V30 1816 H 171.773 -4.11928 -2.90399 0
M  V30 1817 H 171.375 -3.51446 -1.27913 0
M  V30 1818 H 173.667 -5.83846 -3.43701 0
M  V30 1819 H 174.61 -6.73027 -2.20093 0
M  V30 1820 H 175.018 -5.02763 -2.56689 0
M  V30 1821 N 174.416 0.165178 -1.56732 0
M  V30 1822 C 175.379 1.18822 -1.95995 0
M  V30 1823 C 176.379 1.3685 -0.84431 0
M  V30 1824 O 177.569 1.34152 -1.11126 0
M  V30 1825 C 174.701 2.5521 -2.26011 0
M  V30 1826 H 175.894 0.851825 -2.87548 0
M  V30 1827 H 173.447 0.407857 -1.50885 0
M  V30 1828 H 174.182 2.93852 -1.37191 0
M  V30 1829 H 173.967 2.43489 -3.07336 0
M  V30 1830 H 175.457 3.28927 -2.57288 0
M  V30 1831 N 175.894 1.51508 0.433938 0
M  V30 1832 C 176.804 1.75917 1.5521 0
M  V30 1833 C 177.82 0.643545 1.61662 0
M  V30 1834 O 178.996 0.926183 1.7884 0
M  V30 1835 C 176.061 1.88213 2.91164 0
M  V30 1836 C 175.122 3.12074 2.94802 0
M  V30 1837 C 174.355 3.23774 4.24271 0
M  V30 1838 O 174.578 2.4133 5.16833 0
M  V30 1839 O 173.512 4.16774 4.34262 0
M  V30 1840 H 177.338 2.70777 1.37527 0
M  V30 1841 H 174.923 1.36051 0.617293 0
M  V30 1842 H 176.805 1.98267 3.71845 0
M  V30 1843 H 175.48 0.965413 3.08968 0
M  V30 1844 H 174.387 3.07497 2.13065 0
M  V30 1845 H 175.72 4.03446 2.81943 0
M  V30 1846 N 177.372 -0.689602 1.41712 0
M  V30 1847 C 178.282 -1.83314 1.46401 0
M  V30 1848 C 179.298 -1.7036 0.35405 0
M  V30 1849 O 180.474 -1.92171 0.602692 0
M  V30 1850 C 177.539 -3.19344 1.34982 0
M  V30 1851 C 176.6 -3.44363 2.56344 0
M  V30 1852 C 175.833 -4.73904 2.45461 0
M  V30 1853 O 176.056 -5.508 1.48241 0
M  V30 1854 O 174.99 -4.99839 3.35328 0
M  V30 1855 H 178.816 -1.82314 2.42889 0
M  V30 1856 H 176.401 -0.843438 1.23315 0
M  V30 1857 H 178.283 -4.00547 1.3092 0
M  V30 1858 H 176.958 -3.21014 0.41612 0
M  V30 1859 H 175.865 -2.63067 2.65982 0
M  V30 1860 H 177.198 -3.47512 3.48563 0
M  V30 1861 N 178.85 -1.27639 -0.924453 0
M  V30 1862 C 180.078 -1.16989 -1.70649 0
M  V30 1863 C 180.493 0.272869 -1.86818 0
M  V30 1864 O 179.85 1.18549 -1.38753 0
M  V30 1865 C 179.901 -1.85229 -3.10439 0
M  V30 1866 O 179.622 -3.23868 -2.95028 0
M  V30 1867 C 181.123 -1.80746 -4.04779 0
M  V30 1868 H 178.343 -0.406595 -0.53378 0
M  V30 1869 H 180.887 -1.68569 -1.15778 0
M  V30 1870 H 179.042 -1.37545 -3.6216 0
M  V30 1871 H 179.456 -3.57889 -3.83426 0
M  V30 1872 H 180.93 -2.33101 -5.00368 0
M  V30 1873 H 181.407 -0.777499 -4.32263 0
M  V30 1874 H 182.013 -2.28059 -3.58984 0
M  V30 1875 N 180.328 1.1314 -1.09713 0
M  V30 1876 C 181.291 2.16831 -0.742751 0
M  V30 1877 C 182.291 1.59159 0.229129 0
M  V30 1878 O 183.481 1.74199 0.00693237 0
M  V30 1879 C 180.613 3.40756 -0.0989168 0
M  V30 1880 H 181.806 2.49695 -1.66109 0
M  V30 1881 H 179.359 1.2802 -0.896699 0
M  V30 1882 H 180.094 3.13485 0.830514 0
M  V30 1883 H 179.879 3.83888 -0.798265 0
M  V30 1884 H 181.369 4.17386 0.133524 0
M  V30 1885 N 181.806 0.884767 1.30421 0
M  V30 1886 C 183.217 0.553656 1.78302 0
M  V30 1887 C 183.568 -0.930153 1.7275 0
M  V30 1888 O 182.693 -1.72681 1.30423 0
M  V30 1889 C 183.288 0.998234 3.2376 0
M  V30 1890 C 181.847 0.71854 3.69478 0
M  V30 1891 C 180.994 1.18132 2.50879 0
M  V30 1892 H 183.945 1.06901 1.17294 0
M  V30 1893 H 183.966 0.327118 3.79091 0
M  V30 1894 H 183.478 2.0782 3.27769 0
M  V30 1895 H 181.579 -0.349444 3.70958 0
M  V30 1896 H 181.692 1.30595 4.60958 0
M  V30 1897 H 180.056 0.600669 2.47516 0
M  V30 1898 H 180.839 2.26902 2.57624 0
M  V30 1899 N 183.284 -1.43765 0.645699 0
M  V30 1900 C 184.247 -2.29163 -0.0409488 0
M  V30 1901 C 185.247 -1.41813 -0.757996 0
M  V30 1902 O 186.437 -1.63527 -0.600382 0
M  V30 1903 C 183.569 -3.23716 -1.06869 0
M  V30 1904 H 184.762 -2.91366 0.710345 0
M  V30 1905 H 182.315 -1.5092 0.406547 0
M  V30 1906 H 183.05 -2.66393 -1.84947 0
M  V30 1907 H 182.835 -3.88105 -0.558277 0
M  V30 1908 H 184.325 -3.87831 -1.54845 0
M  V30 1909 N 184.763 -0.387143 -1.52771 0
M  V30 1910 C 186.009 0.196025 -2.0185 0
M  V30 1911 C 186.342 1.46641 -1.27319 0
M  V30 1912 O 185.617 1.90889 -0.373032 0
M  V30 1913 C 185.9 0.466136 -3.5707 0
M  V30 1914 C 185.753 -0.819385 -4.42274 0
M  V30 1915 C 187.072 1.25768 -4.21747 0
M  V30 1916 H 184.191 0.0697708 -0.73369 0
M  V30 1917 H 186.833 -0.516286 -1.82851 0
M  V30 1918 H 184.983 1.07293 -3.7339 0
M  V30 1919 H 186.655 -1.4563 -4.37709 0
M  V30 1920 H 184.898 -1.43517 -4.09372 0
M  V30 1921 H 185.569 -0.585065 -5.48891 0
M  V30 1922 H 188.045 0.744167 -4.09391 0
M  V30 1923 H 186.921 1.41541 -5.30337 0
M  V30 1924 H 187.182 2.27228 -3.79236 0
M  V30 1925 N 186.241 1.57166 -0.116904 0
M  V30 1926 C 187.171 2.18222 0.830759 0
M  V30 1927 C 188.152 1.12167 1.27877 0
M  V30 1928 O 189.337 1.40394 1.34176 0
M  V30 1929 C 186.467 2.77996 2.08172 0
M  V30 1930 C 185.421 3.89614 1.77157 0
M  V30 1931 C 184.747 4.36187 3.09265 0
M  V30 1932 C 186.047 5.1181 1.04151 0
M  V30 1933 H 187.741 2.97664 0.321992 0
M  V30 1934 H 185.287 1.4318 0.153434 0
M  V30 1935 H 187.24 3.19366 2.74924 0
M  V30 1936 H 185.964 1.9584 2.6137 0
M  V30 1937 H 184.623 3.48816 1.12796 0
M  V30 1938 H 184.271 3.50893 3.60393 0
M  V30 1939 H 183.971 5.11455 2.89288 0
M  V30 1940 H 185.495 4.80207 3.77139 0
M  V30 1941 H 186.909 5.50214 1.61052 0
M  V30 1942 H 185.306 5.92648 0.942762 0
M  V30 1943 H 186.376 4.84892 0.0279022 0
M  V30 1944 N 187.719 -0.156864 1.56817 0
M  V30 1945 C 188.629 -1.2136 2.00771 0
M  V30 1946 C 189.645 -1.47598 0.921459 0
M  V30 1947 O 190.821 -1.59462 1.2302 0
M  V30 1948 C 187.886 -2.52943 2.37109 0
M  V30 1949 C 186.947 -2.34439 3.59634 0
M  V30 1950 C 186.18 -3.59748 3.94229 0
M  V30 1951 O 186.403 -4.65526 3.29609 0
M  V30 1952 O 185.337 -3.52998 4.8752 0
M  V30 1953 H 189.163 -0.870468 2.90958 0
M  V30 1954 H 186.748 -0.36484 1.44877 0
M  V30 1955 H 188.63 -3.30538 2.61386 0
M  V30 1956 H 187.305 -2.86806 1.5008 0
M  V30 1957 H 186.212 -1.54828 3.40557 0
M  V30 1958 H 187.545 -2.05496 4.4725 0
M  V30 1959 N 189.197 -1.51736 -0.425897 0
M  V30 1960 C 190.613 -1.40166 -0.76326 0
M  V30 1961 C 190.813 -0.492962 -1.95377 0
M  V30 1962 O 189.869 0.0475815 -2.52455 0
M  V30 1963 C 191.182 -2.82403 -1.03291 0
M  V30 1964 C 192.73 -2.91632 -1.13665 0
M  V30 1965 C 193.205 -4.34801 -1.43916 0
M  V30 1966 N 194.696 -4.3796 -1.50816 0
M  V30 1967 C 195.431 -5.4578 -1.75817 0
M  V30 1968 N 194.927 -6.63744 -1.98534 0
M  V30 1969 N 196.72 -5.33274 -1.77694 0
M  V30 1970 H 188.871 -2.09361 0.358 0
M  V30 1971 H 191.134 -0.942941 0.0978094 0
M  V30 1972 H 190.84 -3.50943 -0.230696 0
M  V30 1973 H 190.714 -3.22428 -1.95754 0
M  V30 1974 H 193.101 -2.23284 -1.92947 0
M  V30 1975 H 193.182 -2.55088 -0.190756 0
M  V30 1976 H 192.826 -5.03703 -0.65157 0
M  V30 1977 H 192.756 -4.68868 -2.39729 0
M  V30 1978 H 195.247 -3.52919 -1.35118 0
M  V30 1979 H 195.56 -7.41704 -2.17013 0
M  V30 1980 H 193.905 -6.66839 -1.95832 0
M  V30 1981 H 197.096 -4.40098 -1.59473 0
M  V30 1982 H 197.269 -6.1738 -1.9684 0
M  V30 1983 N 190.675 0.682077 -1.42076 0
M  V30 1984 C 191.625 1.78823 -1.41444 0
M  V30 1985 C 192.609 1.58323 -0.28681 0
M  V30 1986 O 193.801 1.68926 -0.528498 0
M  V30 1987 C 190.93 3.17232 -1.3122 0
M  V30 1988 C 190.016 3.4338 -2.489 0
M  V30 1989 N 190.407 3.40152 -3.7434 0
M  V30 1990 C 188.705 3.73986 -2.43003 0
M  V30 1991 C 189.406 3.65581 -4.52466 0
M  V30 1992 N 188.382 3.85989 -3.8277 0
M  V30 1993 H 192.184 1.7471 -2.36334 0
M  V30 1994 H 189.698 0.882622 -1.36321 0
M  V30 1995 H 191.695 3.96489 -1.2885 0
M  V30 1996 H 190.355 3.22547 -0.373263 0
M  V30 1997 H 191.366 3.20221 -4.07037 0
M  V30 1998 H 188.043 3.86591 -1.57651 0
M  V30 1999 H 189.433 3.69108 -5.61435 0
M  V30 2000 N 192.153 1.28127 0.917671 0
M  V30 2001 C 193.085 1.07517 2.02417 0
M  V30 2002 C 194.098 0.0281099 1.62776 0
M  V30 2003 O 195.287 0.270748 1.76435 0
M  V30 2004 C 192.387 0.610957 3.33347 0
M  V30 2005 C 191.56 1.73255 4.01624 0
M  V30 2006 C 190.619 1.26238 5.10833 0
M  V30 2007 O 189.645 1.96389 5.34247 0
M  V30 2008 N 190.847 0.123448 5.80369 0
M  V30 2009 H 193.612 2.02806 2.20658 0
M  V30 2010 H 191.173 1.19827 1.08871 0
M  V30 2011 H 193.165 0.280101 4.0373 0
M  V30 2012 H 191.735 -0.24898 3.11607 0
M  V30 2013 H 190.955 2.23319 3.24842 0
M  V30 2014 H 192.243 2.48503 4.43986 0
M  V30 2015 H 191.641 -0.461847 5.63812 0
M  V30 2016 H 190.198 -0.148158 6.51632 0
M  V30 2017 N 193.631 -1.12557 1.10312 0
M  V30 2018 C 194.879 -1.83675 0.843091 0
M  V30 2019 C 195.2 -1.84435 -0.633131 0
M  V30 2020 O 194.47 -1.30657 -1.45964 0
M  V30 2021 H 193.05 -0.680138 0.308904 0
M  V30 2022 H 195.712 -1.36301 1.39313 0
M  V30 2023 H 194.808 -2.87908 1.2048 0
M  V30 2024 N 195.109 -0.891671 -1.2995 0
M  V30 2025 C 196.072 -0.36828 -2.26222 0
M  V30 2026 C 197.072 0.493014 -1.53056 0
M  V30 2027 O 198.262 0.299213 -1.71611 0
M  V30 2028 C 195.394 0.47442 -3.37583 0
M  V30 2029 H 196.587 -1.21844 -2.74033 0
M  V30 2030 H 194.14 -0.669107 -1.41254 0
M  V30 2031 H 194.875 1.34489 -2.95099 0
M  V30 2032 H 194.66 -0.142615 -3.91841 0
M  V30 2033 H 196.15 0.83218 -4.09224 0
M  V30 2034 N 196.587 1.43421 -0.653314 0
M  V30 2035 C 197.517 2.33487 0.0246656 0
M  V30 2036 C 198.498 1.49475 0.811863 0
M  V30 2037 O 199.683 1.78139 0.773322 0
M  V30 2038 C 196.813 3.32841 0.99166 0
M  V30 2039 C 195.767 4.26842 0.314568 0
M  V30 2040 C 195.093 5.16236 1.39302 0
M  V30 2041 C 196.393 5.16243 -0.793095 0
M  V30 2042 H 198.087 2.90427 -0.727481 0
M  V30 2043 H 195.633 1.39649 -0.351287 0
M  V30 2044 H 197.586 3.94747 1.47487 0
M  V30 2045 H 196.31 2.74158 1.77497 0
M  V30 2046 H 194.969 3.663 -0.148199 0
M  V30 2047 H 194.617 4.53891 2.16776 0
M  V30 2048 H 194.317 5.79948 0.945223 0
M  V30 2049 H 195.841 5.81015 1.87759 0
M  V30 2050 H 197.255 5.71958 -0.392039 0
M  V30 2051 H 195.652 5.88676 -1.16536 0
M  V30 2052 H 196.722 4.55927 -1.65103 0
M  V30 2053 N 198.065 0.39524 1.52563 0
M  V30 2054 C 199.295 -0.184675 2.05773 0
M  V30 2055 C 199.703 -1.40571 1.26635 0
M  V30 2056 O 199.046 -1.81105 0.30769 0
M  V30 2057 C 199.108 -0.613551 3.54226 0
M  V30 2058 C 198.772 0.49484 4.54313 0
M  V30 2059 C 199.769 1.3541 5.01956 0
M  V30 2060 C 197.454 0.663565 4.97898 0
M  V30 2061 C 199.448 2.36716 5.91814 0
M  V30 2062 C 197.135 1.67996 5.87555 0
M  V30 2063 C 198.133 2.53017 6.34406 0
M  V30 2064 O 197.821 3.52917 7.22291 0
M  V30 2065 H 197.553 -0.030077 0.675331 0
M  V30 2066 H 200.107 0.560708 1.97599 0
M  V30 2067 H 198.337 -1.411 3.60038 0
M  V30 2068 H 200.026 -1.11981 3.90148 0
M  V30 2069 H 200.792 1.23509 4.6901 0
M  V30 2070 H 196.671 0.0114913 4.60999 0
M  V30 2071 H 200.215 3.03113 6.28306 0
M  V30 2072 H 196.112 1.79933 6.19915 0
M  V30 2073 H 196.88 3.48996 7.40367 0
M  V30 2074 N 199.544 -1.57102 0.125237 0
M  V30 2075 C 200.769 -2.0019 -0.542101 0
M  V30 2076 C 201.194 -1.00449 -1.59034 0
M  V30 2077 O 200.552 0.0229423 -1.81285 0
M  V30 2078 C 200.6 -3.42129 -1.13929 0
M  V30 2079 O 199.704 -3.45307 -2.2547 0
M  V30 2080 H 199.045 -0.650171 -0.134812 0
M  V30 2081 H 201.575 -2.03461 0.215553 0
M  V30 2082 H 201.585 -3.80471 -1.4733 0
M  V30 2083 H 200.26 -4.14237 -0.371531 0
M  V30 2084 H 198.837 -3.1879 -1.93462 0
M  V30 2085 N 201.022 0.148545 -1.56898 0
M  V30 2086 C 201.952 1.18524 -2.01182 0
M  V30 2087 C 202.933 1.4489 -0.891123 0
M  V30 2088 O 204.118 1.55836 -1.15882 0
M  V30 2089 C 201.248 2.51879 -2.39112 0
M  V30 2090 C 200.202 2.40038 -3.54353 0
M  V30 2091 C 199.528 3.78089 -3.78091 0
M  V30 2092 C 200.828 1.88577 -4.87069 0
M  V30 2093 H 202.522 0.817029 -2.88036 0
M  V30 2094 H 200.068 0.391575 -1.38574 0
M  V30 2095 H 202.021 3.24627 -2.68692 0
M  V30 2096 H 200.745 2.90532 -1.49193 0
M  V30 2097 H 199.404 1.69742 -3.24936 0
M  V30 2098 H 199.052 4.14175 -2.85426 0
M  V30 2099 H 198.752 3.71028 -4.55645 0
M  V30 2100 H 200.276 4.52387 -4.10095 0
M  V30 2101 H 201.69 2.51117 -5.15377 0
M  V30 2102 H 200.087 1.9241 -5.68417 0
M  V30 2103 H 201.157 0.84136 -4.77545 0
M  V30 2104 N 202.5 1.5196 0.417844 0
M  V30 2105 C 203.747 1.65591 1.16559 0
M  V30 2106 C 204.075 0.381565 1.90721 0
M  V30 2107 O 203.33 -0.635156 1.85106 0
M  V30 2108 C 203.629 2.82269 2.19223 0
M  V30 2109 C 203.295 4.20819 1.61933 0
M  V30 2110 C 201.957 4.58506 1.46033 0
M  V30 2111 C 204.309 5.07196 1.20008 0
M  V30 2112 C 201.637 5.80257 0.867113 0
M  V30 2113 C 203.989 6.29544 0.621086 0
M  V30 2114 C 202.653 6.65987 0.449144 0
M  V30 2115 H 201.923 0.605939 0.42652 0
M  V30 2116 H 204.57 1.86041 0.45397 0
M  V30 2117 H 202.875 2.56118 2.96498 0
M  V30 2118 H 204.572 2.90012 2.76936 0
M  V30 2119 H 201.162 3.91116 1.7529 0
M  V30 2120 H 205.346 4.7867 1.31105 0
M  V30 2121 H 200.602 6.07124 0.721833 0
M  V30 2122 H 204.776 6.95805 0.287798 0
M  V30 2123 H 202.403 7.60199 -0.012632 0
M  V30 2124 N 203.978 -0.674533 1.42435 0
M  V30 2125 C 205.389 -1.25514 1.38214 0
M  V30 2126 C 205.74 -1.96055 0.0755464 0
M  V30 2127 O 204.865 -2.00028 -0.8257 0
M  V30 2128 C 205.46 -2.28269 2.50357 0
M  V30 2129 C 204.019 -2.81856 2.49467 0
M  V30 2130 C 203.166 -1.56182 2.29134 0
M  V30 2131 H 206.117 -0.467902 1.51646 0
M  V30 2132 H 206.138 -3.10009 2.20624 0
M  V30 2133 H 205.65 -1.769 3.45439 0
M  V30 2134 H 203.751 -3.37346 1.58204 0
M  V30 2135 H 203.864 -3.30854 3.46515 0
M  V30 2136 H 202.228 -1.82761 1.774 0
M  V30 2137 H 203.011 -1.06778 3.26272 0
M  V30 2138 N 205.456 -1.28612 -0.910864 0
M  V30 2139 C 206.733 -1.06632 -1.63979 0
M  V30 2140 C 207.113 0.393351 -2.07403 0
M  V30 2141 O 206.461 1.37999 -1.82122 0
M  V30 2142 C 206.671 -2.0436 -2.8291 0
M  V30 2143 C 208.019 -2.34666 -3.5386 0
M  V30 2144 O 209.043 -2.02467 -2.93062 0
M  V30 2145 O 207.902 -2.89631 -4.63439 0
M  V30 2146 H 204.996 -0.407737 -0.7195 0
M  V30 2147 H 207.542 -1.39942 -0.959914 0
M  V30 2148 H 206.314 -3.02727 -2.47936 0
M  V30 2149 H 205.937 -1.71714 -3.58609 0
M  V30 2150 N 206.934 1.1197 -1.10907 0
M  V30 2151 C 207.884 2.15946 -0.731538 0
M  V30 2152 C 208.868 1.58758 0.261699 0
M  V30 2153 O 210.06 1.76863 0.0696722 0
M  V30 2154 C 207.189 3.42877 -0.170299 0
M  V30 2155 C 206.275 4.07037 -1.19087 0
M  V30 2156 N 206.666 4.46135 -2.38322 0
M  V30 2157 C 204.964 4.33884 -1.03252 0
M  V30 2158 C 205.665 4.96331 -3.03366 0
M  V30 2159 N 204.641 4.9214 -2.30865 0
M  V30 2160 H 208.443 2.43947 -1.63912 0
M  V30 2161 H 205.957 1.28927 -0.987505 0
M  V30 2162 H 207.954 4.16732 0.118271 0
M  V30 2163 H 206.614 3.16343 0.731935 0
M  V30 2164 H 207.625 4.38345 -2.75815 0
M  V30 2165 H 204.302 4.17084 -0.186256 0
M  V30 2166 H 205.692 5.36257 -4.04818 0
M  V30 2167 N 208.412 0.89855 1.29475 0
M  V30 2168 C 209.362 0.346767 2.25348 0
M  V30 2169 C 210.346 -0.532509 1.51833 0
M  V30 2170 O 211.538 -0.374714 1.72988 0
M  V30 2171 C 208.667 -0.425681 3.40651 0
M  V30 2172 C 207.753 0.46845 4.21505 0
M  V30 2173 N 208.144 1.57514 4.80648 0
M  V30 2174 C 206.442 0.26603 4.45206 0
M  V30 2175 C 207.143 2.12889 5.41344 0
M  V30 2176 N 206.119 1.42208 5.24669 0
M  V30 2177 H 209.921 1.19219 2.68634 0
M  V30 2178 H 207.435 0.749473 1.44072 0
M  V30 2179 H 209.432 -0.837716 4.08397 0
M  V30 2180 H 208.092 -1.26838 2.98902 0
M  V30 2181 H 209.103 1.95789 4.79465 0
M  V30 2182 H 205.78 -0.538394 4.14014 0
M  V30 2183 H 207.17 3.05901 5.98226 0
M  V30 2184 N 209.89 -1.43072 0.660911 0
M  V30 2185 C 211.136 -2.0202 0.177708 0
M  V30 2186 C 211.469 -1.52066 -1.20787 0
M  V30 2187 O 210.744 -0.716987 -1.80802 0
M  V30 2188 C 211.027 -3.59561 0.197019 0
M  V30 2189 C 210.88 -4.19727 1.61706 0
M  V30 2190 C 212.199 -4.37664 -0.462396 0
M  V30 2191 H 209.318 -0.734034 0.0660494 0
M  V30 2192 H 211.96 -1.70272 0.843058 0
M  V30 2193 H 210.11 -3.86739 -0.369527 0
M  V30 2194 H 211.782 -4.03553 2.23479 0
M  V30 2195 H 210.025 -3.76084 2.16201 0
M  V30 2196 H 210.696 -5.28834 1.58237 0
M  V30 2197 H 213.172 -4.16095 0.0197215 0
M  V30 2198 H 212.048 -5.47305 -0.418188 0
M  V30 2199 H 212.309 -4.14493 -1.53778 0
M  V30 2200 N 211.368 -0.403325 -1.52352 0
M  V30 2201 C 212.315 0.425011 -2.26853 0
M  V30 2202 C 213.285 1.04598 -1.29029 0
M  V30 2203 O 214.47 1.07135 -1.57882 0
M  V30 2204 C 211.61 1.53888 -3.08889 0
M  V30 2205 C 210.723 0.939396 -4.21663 0
M  V30 2206 C 209.858 2.02547 -4.91068 0
M  V30 2207 C 208.897 1.40263 -5.95813 0
M  V30 2208 N 208.034 2.4286 -6.58759 0
M  V30 2209 H 212.874 -0.21674 -2.97211 0
M  V30 2210 H 210.411 -0.118722 -1.4662 0
M  V30 2211 H 212.369 2.19558 -3.54753 0
M  V30 2212 H 210.999 2.15074 -2.40714 0
M  V30 2213 H 210.051 0.171898 -3.80011 0
M  V30 2214 H 211.363 0.44436 -4.96817 0
M  V30 2215 H 210.517 2.75958 -5.40308 0
M  V30 2216 H 209.256 2.55415 -4.15469 0
M  V30 2217 H 208.261 0.653833 -5.45898 0
M  V30 2218 H 209.486 0.881719 -6.73352 0
M  V30 2219 H 207.432 2.94871 -5.85992 0
M  V30 2220 H 207.349 1.98152 -7.2957 0
M  V30 2221 H 208.617 3.15858 -7.12639 0
M  V30 2222 N 212.846 1.57033 -0.133567 0
M  V30 2223 C 213.793 2.16074 0.811208 0
M  V30 2224 C 214.763 1.08979 1.2535 0
M  V30 2225 O 215.948 1.36958 1.32843 0
M  V30 2226 C 213.088 2.77595 2.05024 0
M  V30 2227 C 212.201 3.99042 1.65498 0
M  V30 2228 C 211.336 4.48603 2.84479 0
M  V30 2229 C 210.375 5.62547 2.41262 0
M  V30 2230 N 209.512 6.06787 3.53206 0
M  V30 2231 H 214.352 2.96477 0.300906 0
M  V30 2232 H 211.889 1.46462 0.136822 0
M  V30 2233 H 213.847 3.11402 2.77642 0
M  V30 2234 H 212.477 1.99859 2.53488 0
M  V30 2235 H 211.529 3.71302 0.826981 0
M  V30 2236 H 212.841 4.81629 1.29748 0
M  V30 2237 H 211.995 4.84395 3.65303 0
M  V30 2238 H 210.734 3.64995 3.23465 0
M  V30 2239 H 209.739 5.26345 1.58874 0
M  V30 2240 H 210.964 6.47931 2.03377 0
M  V30 2241 H 208.91 5.26117 3.91838 0
M  V30 2242 H 208.827 6.84266 3.21427 0
M  V30 2243 H 210.095 6.4722 4.34427 0
M  V30 2244 N 214.325 -0.140222 1.56975 0
M  V30 2245 C 215.555 -0.865181 1.87612 0
M  V30 2246 C 215.963 -1.74942 0.72055 0
M  V30 2247 O 215.306 -1.80917 -0.318561 0
M  V30 2248 C 215.368 -1.76782 3.13031 0
M  V30 2249 C 215.032 -1.06005 4.44536 0
M  V30 2250 C 216.029 -0.410768 5.18275 0
M  V30 2251 C 213.714 -1.04754 4.91255 0
M  V30 2252 C 215.708 0.241572 6.36942 0
M  V30 2253 C 213.395 -0.391394 6.09845 0
M  V30 2254 C 214.393 0.252029 6.82535 0
M  V30 2255 O 214.081 0.897757 7.98871 0
M  V30 2256 H 213.813 -0.255188 0.625983 0
M  V30 2257 H 216.367 -0.135653 2.04952 0
M  V30 2258 H 214.597 -2.53846 2.91718 0
M  V30 2259 H 216.286 -2.36533 3.29859 0
M  V30 2260 H 217.052 -0.412195 4.83245 0
M  V30 2261 H 212.931 -1.53777 4.34596 0
M  V30 2262 H 216.475 0.744375 6.93617 0
M  V30 2263 H 212.372 -0.387656 6.44335 0
M  V30 2264 H 213.14 0.800102 8.1458 0
M  V30 2265 N 215.803 -1.52179 -0.40978 0
M  V30 2266 C 217.05 -1.66206 -1.15679 0
M  V30 2267 C 217.378 -0.391674 -1.90516 0
M  V30 2268 O 216.633 0.62533 -1.8544 0
M  V30 2269 C 216.932 -2.83428 -2.17723 0
M  V30 2270 C 216.598 -4.21672 -1.59699 0
M  V30 2271 C 215.26 -4.59274 -1.43599 0
M  V30 2272 C 217.612 -5.07825 -1.17317 0
M  V30 2273 C 214.94 -5.80709 -0.836328 0
M  V30 2274 C 217.292 -6.29864 -0.587691 0
M  V30 2275 C 215.956 -6.66216 -0.413818 0
M  V30 2276 H 215.226 -0.608192 -0.423301 0
M  V30 2277 H 217.873 -1.86279 -0.444097 0
M  V30 2278 H 216.178 -2.57687 -2.95135 0
M  V30 2279 H 217.875 -2.91477 -2.75394 0
M  V30 2280 H 214.465 -3.9204 -1.73213 0
M  V30 2281 H 218.649 -4.79359 -1.28565 0
M  V30 2282 H 213.905 -6.07498 -0.689626 0
M  V30 2283 H 218.079 -6.95948 -0.250894 0
M  V30 2284 H 215.706 -7.60182 0.0529471 0
M  V30 2285 N 217.281 0.66697 -1.42791 0
M  V30 2286 C 218.558 1.4234 -1.34159 0
M  V30 2287 C 218.938 2.11093 0.0172729 0
M  V30 2288 O 218.286 2.03808 1.03318 0
M  V30 2289 C 218.496 2.41942 -2.51526 0
M  V30 2290 C 219.844 3.06353 -2.93995 0
M  V30 2291 O 220.868 2.52269 -2.51473 0
M  V30 2292 O 219.727 4.04376 -3.67617 0
M  V30 2293 H 216.821 0.635277 -0.529483 0
M  V30 2294 H 219.367 0.695034 -1.54814 0
M  V30 2295 H 218.139 1.89991 -3.42081 0
M  V30 2296 H 217.762 3.22249 -2.32898 0
M  V30 2297 N 218.759 1.29093 0.90403 0
M  V30 2298 C 219.691 1.09658 2.01266 0
M  V30 2299 C 220.704 0.0453729 1.62737 0
M  V30 2300 O 221.893 0.289446 1.76138 0
M  V30 2301 C 218.993 0.646278 3.32681 0
M  V30 2302 C 218.166 1.77505 3.99763 0
M  V30 2303 C 217.225 1.31649 5.09465 0
M  V30 2304 O 216.251 2.02045 5.32134 0
M  V30 2305 N 217.453 0.184997 5.80205 0
M  V30 2306 H 220.218 2.05135 2.18494 0
M  V30 2307 H 217.779 1.20975 1.07594 0
M  V30 2308 H 219.771 0.322906 4.0341 0
M  V30 2309 H 218.341 -0.215916 3.11853 0
M  V30 2310 H 217.561 2.26752 3.22455 0
M  V30 2311 H 218.849 2.53198 4.41325 0
M  V30 2312 H 218.247 -0.402021 5.6427 0
M  V30 2313 H 216.804 -0.0790358 6.51752 0
M  V30 2314 N 220.237 -1.11381 1.11499 0
M  V30 2315 C 221.483 -1.83403 0.865512 0
M  V30 2316 C 221.816 -1.84459 -0.607329 0
M  V30 2317 O 221.091 -1.29811 -1.44842 0
M  V30 2318 C 221.374 -3.30552 1.42855 0
M  V30 2319 C 221.227 -3.37886 2.96906 0
M  V30 2320 C 222.546 -4.26643 1.08 0
M  V30 2321 H 219.665 -0.665879 0.31587 0
M  V30 2322 H 222.307 -1.30601 1.37998 0
M  V30 2323 H 220.457 -3.75648 0.990985 0
M  V30 2324 H 222.129 -3.01343 3.49271 0
M  V30 2325 H 220.372 -2.78088 3.32941 0
M  V30 2326 H 221.043 -4.41458 3.31389 0
M  V30 2327 H 223.519 -3.89729 1.45775 0
M  V30 2328 H 222.395 -5.27986 1.50072 0
M  V30 2329 H 222.656 -4.42099 -0.00915037 0
M  V30 2330 N 221.715 -0.905404 -1.28997 0
M  V30 2331 C 222.992 -0.453513 -1.9027 0
M  V30 2332 C 223.372 1.06721 -1.82137 0
M  V30 2333 O 222.72 1.91159 -1.25182 0
M  V30 2334 C 222.93 -0.974494 -3.35119 0
M  V30 2335 C 224.278 -1.0216 -4.12127 0
M  V30 2336 O 225.302 -0.922557 -3.44046 0
M  V30 2337 O 224.161 -1.17121 -5.33802 0
M  V30 2338 H 221.255 -0.142347 -0.814657 0
M  V30 2339 H 223.801 -0.995642 -1.37423 0
M  V30 2340 H 222.573 -2.01848 -3.35221 0
M  V30 2341 H 222.196 -0.412706 -3.95452 0
M  V30 2342 N 223.193 1.4272 -0.668489 0
M  V30 2343 C 224.442 2.00846 -0.185389 0
M  V30 2344 C 224.755 1.53442 1.21305 0
M  V30 2345 O 225.961 2.03944 1.79218 0
M  V30 2346 C 224.417 3.58805 -0.280591 0
M  V30 2347 C 224.025 4.15198 -1.68268 0
M  V30 2348 C 225.769 4.24255 0.14412 0
M  V30 2349 C 223.676 5.655 -1.73099 0
M  V30 2350 H 222.606 0.751145 -0.0655475 0
M  V30 2351 H 225.257 1.63516 -0.832752 0
M  V30 2352 H 223.639 3.93608 0.434553 0
M  V30 2353 H 224.813 3.91866 -2.42441 0
M  V30 2354 H 223.128 3.62176 -2.05469 0
M  V30 2355 H 225.725 5.34547 0.128086 0
M  V30 2356 H 226.068 3.99277 1.17827 0
M  V30 2357 H 226.601 3.94389 -0.519798 0
M  V30 2358 H 223.34 5.95268 -2.74475 0
M  V30 2359 H 222.86 5.90842 -1.03274 0
M  V30 2360 H 224.539 6.29808 -1.48158 0
M  V30 2361 N 224.671 0.411399 1.52136 0
M  V30 2362 C 225.896 -0.165538 2.06738 0
M  V30 2363 C 226.321 -1.379 1.27926 0
M  V30 2364 O 225.679 -1.78628 0.310114 0
M  V30 2365 C 225.727 -0.492124 3.57226 0
M  V30 2366 O 224.831 -1.58276 3.80818 0
M  V30 2367 H 224.172 -0.0132132 0.663869 0
M  V30 2368 H 226.702 0.585253 1.96051 0
M  V30 2369 H 226.712 -0.750104 4.01045 0
M  V30 2370 H 225.387 0.394922 4.14021 0
M  V30 2371 H 223.964 -1.31677 3.48877 0
M  V30 2372 N 226.149 -1.5696 0.141893 0
M  V30 2373 C 227.097 -2.17784 -0.816874 0
M  V30 2374 C 228.091 -1.1334 -1.25899 0
M  V30 2375 O 229.297 -1.316 -1.22806 0
M  V30 2376 H 225.672 -0.697278 -0.281615 0
M  V30 2377 H 227.643 -2.97087 -0.279621 0
M  V30 2378 C 226.392 -2.80983 -2.04802 0
M  V30 2379 H 225.715 -3.61062 -1.7168 0
M  V30 2380 H 227.155 -3.2705 -2.69841 0
M  V30 2381 C 225.614 -1.79228 -2.8527 0
M  V30 2382 O 226.144 -1.25962 -3.8144 0
M  V30 2383 N 224.35 -1.48647 -2.49704 0
M  V30 2384 H 223.897 -1.92155 -1.71564 0
M  V30 2385 H 223.855 -0.808115 -3.03837 0
M  V30 2386 N 227.627 0.131896 -1.57047 0
M  V30 2387 C 228.875 0.840269 -1.83804 0
M  V30 2388 C 229.196 1.81017 -0.72512 0
M  V30 2389 O 228.466 1.94272 0.251995 0
M  V30 2390 H 227.046 0.313294 -0.678127 0
M  V30 2391 H 229.708 0.122294 -1.94516 0
M  V30 2392 H 228.804 1.39335 -2.79271 0
M  V30 2393 N 229.106 1.52395 0.401703 0
M  V30 2394 C 230.036 1.79231 1.49661 0
M  V30 2395 C 231.017 0.643654 1.57452 0
M  V30 2396 O 232.202 0.889989 1.72606 0
M  V30 2397 C 229.332 1.94971 2.87409 0
M  V30 2398 C 228.286 3.10604 2.94465 0
M  V30 2399 C 227.612 3.11577 4.34538 0
M  V30 2400 C 228.912 4.49921 2.6527 0
M  V30 2401 H 230.606 2.70917 1.27454 0
M  V30 2402 H 228.152 1.30362 0.6117 0
M  V30 2403 H 230.105 2.12328 3.63999 0
M  V30 2404 H 228.829 0.999632 3.10926 0
M  V30 2405 H 227.488 2.93009 2.20321 0
M  V30 2406 H 227.136 2.14277 4.55076 0
M  V30 2407 H 226.836 3.89247 4.40183 0
M  V30 2408 H 228.36 3.31073 5.13053 0
M  V30 2409 H 229.774 4.67683 3.31581 0
M  V30 2410 H 228.171 5.29564 2.82281 0
M  V30 2411 H 229.241 4.57507 1.60671 0
M  V30 2412 N 230.584 -0.659388 1.43143 0
M  V30 2413 C 231.861 -1.41627 1.34912 0
M  V30 2414 C 232.241 -2.11099 -0.00607785 0
M  V30 2415 O 231.589 -2.04353 -1.02236 0
M  V30 2416 C 231.799 -2.40604 2.52805 0
M  V30 2417 C 233.147 -3.04789 2.95616 0
M  V30 2418 O 234.171 -2.50932 2.52807 0
M  V30 2419 O 233.03 -4.02421 3.69756 0
M  V30 2420 H 230.124 -0.63246 0.532844 0
M  V30 2421 H 232.67 -0.686814 1.5518 0
M  V30 2422 H 231.442 -1.88174 3.43083 0
M  V30 2423 H 231.065 -3.21009 2.34604 0
M  V30 2424 N 232.062 -1.29571 -0.897171 0
M  V30 2425 C 233.308 -1.18873 -1.65048 0
M  V30 2426 C 233.663 0.256707 -1.9068 0
M  V30 2427 O 232.956 1.18202 -1.50794 0
M  V30 2428 C 233.15 -1.9382 -3.00281 0
M  V30 2429 C 232.979 -3.45503 -2.8785 0
M  V30 2430 C 231.749 -4.14856 -2.88483 0
M  V30 2431 C 233.947 -4.40956 -2.64693 0
M  V30 2432 N 231.929 -5.52886 -2.66815 0
M  V30 2433 C 233.3 -5.66464 -2.5203 0
M  V30 2434 C 235.355 -4.3069 -2.49821 0
M  V30 2435 C 234.058 -6.82871 -2.26008 0
M  V30 2436 C 236.084 -5.46852 -2.25182 0
M  V30 2437 C 235.446 -6.71333 -2.13286 0
M  V30 2438 H 231.545 -0.489998 -0.609447 0
M  V30 2439 H 234.129 -1.63431 -1.05822 0
M  V30 2440 H 232.3 -1.51671 -3.57562 0
M  V30 2441 H 234.032 -1.75366 -3.64731 0
M  V30 2442 H 230.787 -3.66579 -2.99861 0
M  V30 2443 H 231.211 -6.25487 -2.59027 0
M  V30 2444 H 235.853 -3.35141 -2.5776 0
M  V30 2445 H 233.571 -7.78473 -2.16806 0
M  V30 2446 H 237.157 -5.40809 -2.14515 0
M  V30 2447 H 236.037 -7.59701 -1.94485 0
M  V30 2448 N 233.54 1.10788 -1.12088 0
M  V30 2449 C 234.765 1.87002 -0.896949 0
M  V30 2450 C 235.19 1.79933 0.548261 0
M  V30 2451 O 234.548 1.16662 1.38779 0
M  V30 2452 C 234.596 3.3349 -1.37174 0
M  V30 2453 O 233.7 4.08745 -0.547831 0
M  V30 2454 H 233.041 0.580397 -0.322545 0
M  V30 2455 H 235.571 1.39996 -1.49206 0
M  V30 2456 H 235.581 3.84339 -1.36922 0
M  V30 2457 H 234.256 3.37951 -2.42408 0
M  V30 2458 H 232.833 3.6776 -0.617034 0
M  V30 2459 N 235.018 0.912232 1.28515 0
M  V30 2460 C 235.948 0.416403 2.29757 0
M  V30 2461 C 236.929 -0.515194 1.6211 0
M  V30 2462 O 238.114 -0.423253 1.89532 0
M  V30 2463 C 235.244 -0.34572 3.45575 0
M  V30 2464 C 234.198 0.496599 4.25109 0
M  V30 2465 C 233.524 -0.393771 5.33248 0
M  V30 2466 C 234.824 1.75307 4.92001 0
M  V30 2467 H 236.518 1.26249 2.7148 0
M  V30 2468 H 234.064 0.608515 1.30511 0
M  V30 2469 H 236.017 -0.703422 4.15488 0
M  V30 2470 H 234.741 -1.2257 3.02728 0
M  V30 2471 H 233.4 0.8368 3.56922 0
M  V30 2472 H 233.048 -1.27225 4.86644 0
M  V30 2473 H 232.748 0.166209 5.87365 0
M  V30 2474 H 234.272 -0.747389 6.06009 0
M  V30 2475 H 235.686 1.46437 5.54283 0
M  V30 2476 H 234.083 2.25534 5.56106 0
M  V30 2477 H 235.153 2.48176 4.16577 0
M  V30 2478 N 236.496 -1.42363 0.676048 0
M  V30 2479 C 237.773 -1.95183 0.127726 0
M  V30 2480 C 238.153 -1.61641 -1.35777 0
M  V30 2481 O 237.501 -0.913216 -2.09458 0
M  V30 2482 C 237.711 -3.46721 0.398199 0
M  V30 2483 C 239.059 -4.23427 0.315383 0
M  V30 2484 O 240.083 -3.54649 0.332016 0
M  V30 2485 O 238.942 -5.45888 0.25865 0
M  V30 2486 H 236.036 -0.826992 0.00359427 0
M  V30 2487 H 238.582 -1.52184 0.750864 0
M  V30 2488 H 237.354 -3.64344 1.4272 0
M  V30 2489 H 236.977 -3.96769 -0.256885 0
M  V30 2490 N 237.974 -0.419461 -1.51915 0
M  V30 2491 C 238.924 0.418496 -2.24126 0
M  V30 2492 C 239.908 1.00495 -1.25656 0
M  V30 2493 O 241.1 0.926058 -1.50842 0
M  V30 2494 C 238.229 1.52899 -3.07371 0
M  V30 2495 C 237.315 0.952797 -4.13258 0
M  V30 2496 N 237.706 0.104175 -5.05693 0
M  V30 2497 C 236.004 1.22224 -4.28926 0
M  V30 2498 C 236.705 -0.21752 -5.81293 0
M  V30 2499 N 235.681 0.394293 -5.42168 0
M  V30 2500 H 239.483 -0.236048 -2.92951 0
M  V30 2501 H 236.997 -0.230481 -1.60756 0
M  V30 2502 H 238.994 2.14199 -3.57665 0
M  V30 2503 H 237.654 2.18605 -2.40088 0
M  V30 2504 H 238.665 -0.260924 -5.17242 0
M  V30 2505 H 235.342 1.87812 -3.72871 0
M  V30 2506 H 236.732 -0.906992 -6.6575 0
M  V30 2507 N 239.452 1.56882 -0.150215 0
M  V30 2508 C 240.399 2.16922 0.788244 0
M  V30 2509 C 241.369 1.10303 1.24187 0
M  V30 2510 O 242.554 1.38359 1.31383 0
M  V30 2511 C 239.694 2.79754 2.02068 0
M  V30 2512 C 238.807 4.00775 1.61257 0
M  V30 2513 C 237.942 4.51595 2.79705 0
M  V30 2514 C 236.981 5.65074 2.35282 0
M  V30 2515 N 236.118 6.10499 3.4675 0
M  V30 2516 H 240.958 2.96779 0.269444 0
M  V30 2517 H 238.495 1.46599 0.12128 0
M  V30 2518 H 240.453 3.14329 2.74323 0
M  V30 2519 H 239.083 2.02536 2.51354 0
M  V30 2520 H 238.135 3.72158 0.787553 0
M  V30 2521 H 239.447 4.82978 1.24633 0
M  V30 2522 H 238.601 4.88242 3.60145 0
M  V30 2523 H 237.34 3.68406 3.19576 0
M  V30 2524 H 236.345 5.28 1.53283 0
M  V30 2525 H 237.57 6.50052 1.96493 0
M  V30 2526 H 235.516 5.30243 3.86236 0
M  V30 2527 H 235.433 6.87637 3.14152 0
M  V30 2528 H 236.701 6.51791 4.27537 0
M  V30 2529 N 240.93 -0.123565 1.57115 0
M  V30 2530 C 242.179 -0.830704 1.83799 0
M  V30 2531 C 242.492 -1.81259 0.735158 0
M  V30 2532 O 243.698 -2.56558 0.888278 0
M  V30 2533 C 242.154 -1.52802 3.25852 0
M  V30 2534 C 241.762 -0.587356 4.44133 0
M  V30 2535 C 243.506 -2.22056 3.61789 0
M  V30 2536 C 241.413 -1.28764 5.77212 0
M  V30 2537 H 240.343 -0.313967 0.685522 0
M  V30 2538 H 242.994 -0.0834359 1.8331 0
M  V30 2539 H 241.376 -2.32175 3.20797 0
M  V30 2540 H 242.55 0.172829 4.60476 0
M  V30 2541 H 240.865 -0.00201892 4.164 0
M  V30 2542 H 243.462 -2.75131 4.58483 0
M  V30 2543 H 243.805 -2.99644 2.88997 0
M  V30 2544 H 244.338 -1.49576 3.68608 0
M  V30 2545 H 241.077 -0.55314 6.53162 0
M  V30 2546 H 240.597 -2.01995 5.64764 0
M  V30 2547 H 242.276 -1.8221 6.20813 0
M  V30 2548 N 242.408 -1.52605 -0.393616 0
M  V30 2549 C 243.655 -1.67424 -1.1391 0
M  V30 2550 C 243.983 -0.411859 -1.90089 0
M  V30 2551 O 243.238 0.605626 -1.86093 0
M  V30 2552 C 243.537 -2.85721 -2.14705 0
M  V30 2553 C 243.203 -4.23342 -1.55218 0
M  V30 2554 C 241.865 -4.60771 -1.3872 0
M  V30 2555 C 244.217 -5.09041 -1.11924 0
M  V30 2556 C 241.545 -5.81563 -0.774689 0
M  V30 2557 C 243.897 -6.30452 -0.520853 0
M  V30 2558 C 242.561 -6.66617 -0.343134 0
M  V30 2559 H 241.831 -0.612648 -0.416826 0
M  V30 2560 H 244.478 -1.8674 -0.424315 0
M  V30 2561 H 242.783 -2.60803 -2.92385 0
M  V30 2562 H 244.48 -2.94382 -2.72288 0
M  V30 2563 H 241.07 -3.93855 -1.69045 0
M  V30 2564 H 245.254 -4.80695 -1.23473 0
M  V30 2565 H 240.51 -6.08196 -0.625154 0
M  V30 2566 H 244.684 -6.96175 -0.177065 0
M  V30 2567 H 242.311 -7.60083 0.133571 0
M  V30 2568 N 243.887 0.651787 -1.4349 0
M  V30 2569 C 245.117 1.43728 -1.48411 0
M  V30 2570 C 245.525 1.8893 -0.10103 0
M  V30 2571 O 244.868 1.60182 0.899307 0
M  V30 2572 C 244.93 2.70411 -2.36893 0
M  V30 2573 C 244.594 2.4714 -3.8441 0
M  V30 2574 C 245.591 2.10271 -4.75481 0
M  V30 2575 C 243.276 2.6142 -4.28912 0
M  V30 2576 C 245.27 1.87982 -6.0905 0
M  V30 2577 C 242.957 2.38746 -5.62533 0
M  V30 2578 C 243.955 2.02083 -6.5242 0
M  V30 2579 O 243.643 1.79647 -7.8357 0
M  V30 2580 H 243.375 0.447962 -0.506267 0
M  V30 2581 H 245.929 0.80624 -1.88915 0
M  V30 2582 H 244.159 3.36079 -1.91278 0
M  V30 2583 H 245.848 3.32364 -2.33 0
M  V30 2584 H 246.614 1.98814 -4.42378 0
M  V30 2585 H 242.493 2.88931 -3.59222 0
M  V30 2586 H 246.037 1.5929 -6.7917 0
M  V30 2587 H 241.934 2.49806 -5.95203 0
M  V30 2588 H 242.702 1.9406 -7.95162 0
M  V30 2589 N 245.365 1.30045 0.890287 0
M  V30 2590 C 246.595 1.21296 1.67245 0
M  V30 2591 C 247.003 -0.227471 1.87828 0
M  V30 2592 O 246.346 -1.16296 1.422 0
M  V30 2593 C 246.408 1.86519 3.07329 0
M  V30 2594 C 246.072 3.35837 3.09939 0
M  V30 2595 C 247.069 4.31915 2.89389 0
M  V30 2596 C 244.754 3.77196 3.31706 0
M  V30 2597 C 246.748 5.67325 2.90552 0
M  V30 2598 C 244.435 5.12725 3.32499 0
M  V30 2599 C 245.433 6.076 3.11947 0
M  V30 2600 O 245.121 7.40655 3.12547 0
M  V30 2601 H 244.853 0.4211 0.528821 0
M  V30 2602 H 247.407 1.72111 1.12103 0
M  V30 2603 H 245.637 1.30228 3.64112 0
M  V30 2604 H 247.326 1.71963 3.67673 0
M  V30 2605 H 248.092 4.01294 2.72375 0
M  V30 2606 H 243.971 3.03796 3.4674 0
M  V30 2607 H 247.515 6.41354 2.74429 0
M  V30 2608 H 243.412 5.42988 3.49047 0
M  V30 2609 H 244.18 7.49577 3.28749 0
M  V30 2610 N 246.843 -1.10192 1.12674 0
M  V30 2611 C 248.092 -1.81573 0.8783 0
M  V30 2612 C 248.405 -1.86249 -0.597557 0
M  V30 2613 O 249.611 -2.5386 -0.962681 0
M  V30 2614 C 248.067 -3.26149 1.52167 0
M  V30 2615 C 247.675 -3.29763 3.03249 0
M  V30 2616 C 249.419 -4.0234 1.3536 0
M  V30 2617 C 247.326 -4.68815 3.60508 0
M  V30 2618 H 246.256 -0.680394 0.324931 0
M  V30 2619 H 248.907 -1.23902 1.35353 0
M  V30 2620 H 247.289 -3.83832 0.974104 0
M  V30 2621 H 248.463 -2.8189 3.6452 0
M  V30 2622 H 246.778 -2.67059 3.19481 0
M  V30 2623 H 249.375 -5.05058 1.75559 0
M  V30 2624 H 249.718 -4.15235 0.297554 0
M  V30 2625 H 250.251 -3.51079 1.87052 0
M  V30 2626 H 246.99 -4.61121 4.65884 0
M  V30 2627 H 246.51 -5.17045 3.04014 0
M  V30 2628 H 248.189 -5.37785 3.59717 0
M  V30 2629 N 248.321 -0.919034 -1.28029 0
M  V30 2630 C 249.598 -0.473668 -1.89778 0
M  V30 2631 C 249.978 1.04783 -1.83259 0
M  V30 2632 O 249.326 1.8982 -1.27202 0
M  V30 2633 C 249.536 -1.00998 -3.34066 0
M  V30 2634 C 250.884 -1.06525 -4.1102 0
M  V30 2635 O 251.908 -0.958996 -3.43048 0
M  V30 2636 O 250.767 -1.22776 -5.3253 0
M  V30 2637 H 247.861 -0.15098 -0.813101 0
M  V30 2638 H 250.407 -1.01016 -1.36359 0
M  V30 2639 H 249.179 -2.05392 -3.33061 0
M  V30 2640 H 248.802 -0.454626 -3.94992 0
M  V30 2641 N 249.799 1.42003 -0.683588 0
M  V30 2642 C 251.024 2.06265 -0.216647 0
M  V30 2643 C 251.449 1.51059 1.12083 0
M  V30 2644 O 250.807 0.632638 1.69904 0
M  V30 2645 C 250.855 3.60191 -0.171759 0
M  V30 2646 O 249.959 4.03396 0.857069 0
M  V30 2647 H 249.3 0.65502 -0.108834 0
M  V30 2648 H 251.83 1.81982 -0.935077 0
M  V30 2649 H 251.84 4.08 0.0014303 0
M  V30 2650 H 250.515 3.99743 -1.14796 0
M  V30 2651 H 249.092 3.67117 0.654208 0
M  V30 2652 N 251.277 0.427512 1.51691 0
M  V30 2653 C 252.207 -0.3796 2.30394 0
M  V30 2654 C 253.188 -1.02982 1.35384 0
M  V30 2655 O 254.373 -1.03534 1.643 0
M  V30 2656 C 251.503 -1.48649 3.1388 0
M  V30 2657 C 250.457 -0.960294 4.17088 0
M  V30 2658 C 249.783 -2.16219 4.89033 0
M  V30 2659 C 251.083 -0.00153679 5.223 0
M  V30 2660 H 252.777 0.277164 2.98114 0
M  V30 2661 H 250.323 0.134739 1.43368 0
M  V30 2662 H 252.276 -2.05826 3.67714 0
M  V30 2663 H 251 -2.1714 2.43962 0
M  V30 2664 H 249.659 -0.410806 3.64291 0
M  V30 2665 H 249.307 -2.83307 4.15628 0
M  V30 2666 H 249.007 -1.81654 5.58816 0
M  V30 2667 H 250.531 -2.73968 5.45687 0
M  V30 2668 H 251.945 -0.482687 5.71264 0
M  V30 2669 H 250.342 0.256199 5.99553 0
M  V30 2670 H 251.412 0.938174 4.75738 0
M  V30 2671 N 252.755 -1.56801 0.158532 0
M  V30 2672 C 253.98 -2.01295 -0.499516 0
M  V30 2673 C 254.405 -1.03799 -1.56867 0
M  V30 2674 O 253.763 -0.0155162 -1.81293 0
M  V30 2675 C 253.811 -3.44469 -1.06647 0
M  V30 2676 O 252.915 -3.50012 -2.18095 0
M  V30 2677 H 252.256 -0.652884 -0.12099 0
M  V30 2678 H 254.786 -2.02958 0.258661 0
M  V30 2679 H 254.796 -3.8351 -1.39227 0
M  V30 2680 H 253.471 -4.14932 -0.283581 0
M  V30 2681 H 252.048 -3.22822 -1.86656 0
M  V30 2682 N 254.233 0.115231 -1.57178 0
M  V30 2683 C 255.463 0.835224 -1.88964 0
M  V30 2684 C 255.871 1.73774 -0.74829 0
M  V30 2685 O 255.214 1.81401 0.289739 0
M  V30 2686 C 255.276 1.7178 -3.15804 0
M  V30 2687 C 254.94 0.989198 -4.46166 0
M  V30 2688 C 255.937 0.328263 -5.18863 0
M  V30 2689 C 253.622 0.969256 -4.9286 0
M  V30 2690 C 255.616 -0.342873 -6.36477 0
M  V30 2691 C 253.303 0.294324 -6.10391 0
M  V30 2692 C 254.301 -0.360582 -6.82048 0
M  V30 2693 O 253.989 -1.02474 -7.97342 0
M  V30 2694 H 253.721 0.245197 -0.629964 0
M  V30 2695 H 256.275 0.10303 -2.05141 0
M  V30 2696 H 254.505 2.49173 -2.95719 0
M  V30 2697 H 256.194 2.31255 -3.33581 0
M  V30 2698 H 256.96 0.335263 -4.8384 0
M  V30 2699 H 252.839 1.46844 -4.36987 0
M  V30 2700 H 256.383 -0.854629 -6.92345 0
M  V30 2701 H 252.28 0.285099 -6.4487 0
M  V30 2702 H 253.048 -0.929594 -8.13204 0
M  V30 2703 N 255.711 1.52812 0.385517 0
M  V30 2704 C 256.936 1.72207 1.15583 0
M  V30 2705 C 257.361 0.441034 1.82857 0
M  V30 2706 O 256.719 -0.603465 1.70962 0
M  V30 2707 C 256.767 2.87476 2.17692 0
M  V30 2708 O 255.871 2.54693 3.24354 0
M  V30 2709 H 255.212 0.572526 0.336319 0
M  V30 2710 H 257.742 1.99618 0.448744 0
M  V30 2711 H 257.752 3.13072 2.6163 0
M  V30 2712 H 256.427 3.80408 1.68115 0
M  V30 2713 H 255.004 2.3985 2.85529 0
M  V30 2714 N 257.189 -0.644168 1.43834 0
M  V30 2715 C 258.435 -1.40603 1.46146 0
M  V30 2716 C 258.768 -1.93997 0.0887717 0
M  V30 2717 O 258.043 -1.72854 -0.891724 0
M  V30 2718 C 258.326 -2.58086 2.51124 0
M  V30 2719 C 258.179 -2.10126 3.97702 0
M  V30 2720 C 259.498 -3.60291 2.52742 0
M  V30 2721 H 256.617 -0.509905 0.532134 0
M  V30 2722 H 259.259 -0.729502 1.75437 0
M  V30 2723 H 257.409 -3.15801 2.26278 0
M  V30 2724 H 259.081 -1.57342 4.33637 0
M  V30 2725 H 257.324 -1.41419 4.10101 0
M  V30 2726 H 257.995 -2.94649 4.66783 0
M  V30 2727 H 260.471 -3.12352 2.7491 0
M  V30 2728 H 259.347 -4.40032 3.28121 0
M  V30 2729 H 259.608 -4.1349 1.56455 0
M  V30 2730 N 258.668 -1.30515 -0.883378 0
M  V30 2731 C 259.945 -1.10086 -1.6168 0
M  V30 2732 C 260.325 0.349269 -2.08191 0
M  V30 2733 O 259.673 1.34105 -1.85008 0
M  V30 2734 C 259.883 -2.10315 -2.78511 0
M  V30 2735 C 261.231 -2.42119 -3.48803 0
M  V30 2736 O 262.255 -2.08638 -2.88702 0
M  V30 2737 O 261.114 -2.99396 -4.57192 0
M  V30 2738 H 258.208 -0.422907 -0.710689 0
M  V30 2739 H 260.754 -1.41947 -0.930015 0
M  V30 2740 H 259.526 -3.07917 -2.41459 0
M  V30 2741 H 259.149 -1.79282 -3.54886 0
M  V30 2742 N 260.146 1.09593 -1.13257 0
M  V30 2743 C 261.109 2.14359 -0.811358 0
M  V30 2744 C 262.109 1.59808 0.178377 0
M  V30 2745 O 263.299 1.74132 -0.0484911 0
M  V30 2746 C 260.431 3.40269 -0.207276 0
M  V30 2747 H 261.624 2.44284 -1.73969 0
M  V30 2748 H 259.177 1.25102 -0.936973 0
M  V30 2749 H 259.912 3.15969 0.73036 0
M  V30 2750 H 259.697 3.81154 -0.919992 0
M  V30 2751 H 261.187 4.176 0.000667944 0
M  V30 2752 N 261.624 0.925811 1.2754 0
M  V30 2753 C 262.871 0.565255 1.94451 0
M  V30 2754 C 263.199 -0.89316 1.7278 0
M  V30 2755 O 262.454 -1.65213 1.04895 0
M  V30 2756 C 262.753 0.835296 3.47502 0
M  V30 2757 C 262.419 2.27515 3.89291 0
M  V30 2758 C 261.081 2.66879 4.00411 0
M  V30 2759 C 263.433 3.21158 4.10496 0
M  V30 2760 C 260.761 3.99014 4.30122 0
M  V30 2761 C 263.113 4.52871 4.4169 0
M  V30 2762 C 261.777 4.92072 4.51023 0
M  V30 2763 H 261.047 0.206841 0.711546 0
M  V30 2764 H 263.694 1.16942 1.51647 0
M  V30 2765 H 261.999 0.148442 3.91519 0
M  V30 2766 H 263.696 0.535322 3.97411 0
M  V30 2767 H 260.286 1.95976 3.81171 0
M  V30 2768 H 264.47 2.9195 4.01346 0
M  V30 2769 H 259.726 4.2907 4.35556 0
M  V30 2770 H 263.9 5.25436 4.57045 0
M  V30 2771 H 261.527 5.9449 4.738 0
M  V30 2772 N 263.102 -1.41638 0.69111 0
M  V30 2773 C 264.379 -1.95036 0.148421 0
M  V30 2774 C 264.759 -1.63072 -1.34055 0
M  V30 2775 O 264.107 -0.93538 -2.08478 0
M  V30 2776 C 264.317 -3.46279 0.434951 0
M  V30 2777 C 265.665 -4.23069 0.360275 0
M  V30 2778 O 266.689 -3.54277 0.369613 0
M  V30 2779 O 265.548 -5.45583 0.316534 0
M  V30 2780 H 262.642 -0.826908 0.0123654 0
M  V30 2781 H 265.188 -1.5138 0.766963 0
M  V30 2782 H 263.96 -3.6281 1.46576 0
M  V30 2783 H 263.583 -3.97019 -0.214787 0
M  V30 2784 N 264.58 -0.43555 -1.51462 0
M  V30 2785 C 265.81 0.130053 -2.0619 0
M  V30 2786 C 266.218 1.37164 -1.30317 0
M  V30 2787 O 265.561 1.80225 -0.355598 0
M  V30 2788 C 265.623 0.519418 -3.55728 0
M  V30 2789 C 265.287 -0.615119 -4.52841 0
M  V30 2790 C 266.284 -1.48671 -4.9819 0
M  V30 2791 C 263.969 -0.795341 -4.95963 0
M  V30 2792 C 265.963 -2.52324 -5.8533 0
M  V30 2793 C 263.65 -1.83514 -5.82894 0
M  V30 2794 C 264.648 -2.69748 -6.27475 0
M  V30 2795 O 264.336 -3.71944 -7.1268 0
M  V30 2796 H 264.068 0.0121612 -0.675891 0
M  V30 2797 H 266.622 -0.6129 -1.96043 0
M  V30 2798 H 264.852 1.31505 -3.63653 0
M  V30 2799 H 266.541 1.01597 -3.92979 0
M  V30 2800 H 267.307 -1.359 -4.65571 0
M  V30 2801 H 263.186 -0.133713 -4.60806 0
M  V30 2802 H 266.73 -3.19665 -6.20048 0
M  V30 2803 H 262.627 -1.96306 -6.14926 0
M  V30 2804 H 263.395 -3.68503 -7.30854 0
M  V30 2805 N 266.058 1.56714 -0.166846 0
M  V30 2806 C 267.335 1.88412 0.525373 0
M  V30 2807 C 267.715 1.07602 1.81618 0
M  V30 2808 O 267.063 0.168621 2.27877 0
M  V30 2809 C 267.273 3.40363 0.771613 0
M  V30 2810 C 268.621 4.10007 1.1036 0
M  V30 2811 O 269.645 3.45655 0.860304 0
M  V30 2812 O 268.504 5.2369 1.56239 0
M  V30 2813 H 265.598 0.781587 0.270278 0
M  V30 2814 H 268.144 1.68458 -0.204946 0
M  V30 2815 H 266.916 3.91046 -0.141093 0
M  V30 2816 H 266.539 3.65914 1.55541 0
M  V30 2817 N 267.536 -0.106894 1.57237 0
M  V30 2818 C 268.466 -1.13148 2.04254 0
M  V30 2819 C 269.447 -1.42476 0.929224 0
M  V30 2820 O 270.632 -1.52709 1.19973 0
M  V30 2821 C 267.762 -2.4545 2.45706 0
M  V30 2822 C 266.716 -2.30558 3.60592 0
M  V30 2823 C 266.042 -3.67931 3.87983 0
M  V30 2824 C 267.342 -1.75597 4.91897 0
M  V30 2825 H 269.036 -0.740374 2.90101 0
M  V30 2826 H 266.582 -0.354696 1.39563 0
M  V30 2827 H 268.535 -3.17389 2.77205 0
M  V30 2828 H 267.259 -2.86475 1.56843 0
M  V30 2829 H 265.918 -1.61067 3.29322 0
M  V30 2830 H 265.566 -4.06462 2.96306 0
M  V30 2831 H 265.266 -3.58817 4.65322 0
M  V30 2832 H 266.79 -4.41356 4.21945 0
M  V30 2833 H 268.204 -2.37364 5.21854 0
M  V30 2834 H 266.601 -1.77272 5.73319 0
M  V30 2835 H 267.671 -0.714451 4.79608 0
M  V30 2836 N 269.014 -1.53014 -0.377408 0
M  V30 2837 C 269.946 -1.74884 -1.48149 0
M  V30 2838 C 270.959 -0.629433 -1.5014 0
M  V30 2839 O 272.148 -0.905416 -1.53833 0
M  V30 2840 C 269.248 -1.80299 -2.86959 0
M  V30 2841 C 268.421 -3.09776 -3.08801 0
M  V30 2842 C 267.48 -3.06586 -4.27658 0
M  V30 2843 O 266.506 -3.80419 -4.23403 0
M  V30 2844 N 267.708 -2.26578 -5.34455 0
M  V30 2845 H 270.473 -2.70147 -1.29771 0
M  V30 2846 H 268.034 -1.51646 -0.56703 0
M  V30 2847 H 270.026 -1.75657 -3.64591 0
M  V30 2848 H 268.596 -0.92372 -2.98641 0
M  V30 2849 H 267.816 -3.27815 -2.18931 0
M  V30 2850 H 269.104 -3.95366 -3.20255 0
M  V30 2851 H 268.502 -1.66081 -5.40771 0
M  V30 2852 H 267.059 -2.27766 -6.10709 0
M  V30 2853 N 270.492 0.636531 -1.44174 0
M  V30 2854 C 271.72 1.42353 -1.50144 0
M  V30 2855 C 272.135 1.88389 -0.124575 0
M  V30 2856 O 271.492 1.6051 0.868489 0
M  V30 2857 C 271.543 2.64744 -2.46156 0
M  V30 2858 O 271.264 2.20629 -3.7849 0
M  V30 2859 C 272.765 3.57929 -2.61537 0
M  V30 2860 H 269.985 0.436752 -0.5094 0
M  V30 2861 H 272.529 0.778933 -1.89084 0
M  V30 2862 H 270.684 3.25307 -2.10366 0
M  V30 2863 H 271.098 2.99938 -4.30276 0
M  V30 2864 H 272.572 4.40428 -3.32757 0
M  V30 2865 H 273.049 4.06382 -1.66585 0
M  V30 2866 H 273.655 3.03238 -2.98206 0
M  V30 2867 N 271.97 1.30982 0.876444 0
M  V30 2868 C 273.218 1.20058 1.62575 0
M  V30 2869 C 273.539 -0.242947 1.93481 0
M  V30 2870 O 272.809 -1.1619 1.57724 0
M  V30 2871 H 271.389 0.44135 0.602677 0
M  V30 2872 H 274.051 1.64222 1.04962 0
M  V30 2873 H 273.147 1.76762 2.57219 0
M  V30 2874 N 273.449 -1.08991 1.13837 0
M  V30 2875 C 274.381 -2.15606 0.777612 0
M  V30 2876 C 275.394 -1.61533 -0.202739 0
M  V30 2877 O 276.583 -1.78491 0.0181055 0
M  V30 2878 C 273.683 -3.3864 0.132623 0
M  V30 2879 C 272.856 -4.22115 1.1462 0
M  V30 2880 C 271.915 -5.23564 0.526074 0
M  V30 2881 O 270.941 -5.56678 1.18735 0
M  V30 2882 N 272.143 -5.76266 -0.699866 0
M  V30 2883 H 274.908 -2.47159 1.69506 0
M  V30 2884 H 272.469 -1.24747 1.03198 0
M  V30 2885 H 274.461 -4.03626 -0.29459 0
M  V30 2886 H 273.031 -3.04938 -0.687849 0
M  V30 2887 H 272.251 -3.53199 1.75055 0
M  V30 2888 H 273.539 -4.74709 1.83109 0
M  V30 2889 H 272.937 -5.51585 -1.25581 0
M  V30 2890 H 271.494 -6.42963 -1.06968 0
M  V30 2891 N 274.927 -0.932562 -1.27047 0
M  V30 2892 C 276.176 -0.571351 -1.93439 0
M  V30 2893 C 276.489 0.892467 -1.74053 0
M  V30 2894 O 277.695 1.36267 -2.34826 0
M  V30 2895 C 276.151 -0.97106 -3.46552 0
M  V30 2896 C 275.759 -2.4559 -3.74686 0
M  V30 2897 C 277.503 -0.681333 -4.18997 0
M  V30 2898 C 275.41 -2.79475 -5.21198 0
M  V30 2899 H 274.34 -0.209966 -0.724176 0
M  V30 2900 H 276.991 -1.13403 -1.44263 0
M  V30 2901 H 275.373 -0.336983 -3.94564 0
M  V30 2902 H 276.547 -3.13829 -3.37414 0
M  V30 2903 H 274.862 -2.71802 -3.15456 0
M  V30 2904 H 277.459 -0.910939 -5.26883 0
M  V30 2905 H 277.802 0.381628 -4.14547 0
M  V30 2906 H 278.335 -1.27473 -3.76823 0
M  V30 2907 H 275.074 -3.847 -5.30741 0
M  V30 2908 H 274.594 -2.1589 -5.596 0
M  V30 2909 H 276.273 -2.67478 -5.89122 0
M  V30 2910 N 276.405 1.4127 -0.698611 0
M  V30 2911 C 277.63 2.06024 -0.238512 0
M  V30 2912 C 278.055 1.5224 1.10475 0
M  V30 2913 O 277.413 0.650623 1.69223 0
M  V30 2914 C 277.461 3.59988 -0.209952 0
M  V30 2915 O 276.565 4.04282 0.814235 0
M  V30 2916 H 275.906 0.653829 -0.115775 0
M  V30 2917 H 278.436 1.8098 -0.954326 0
M  V30 2918 H 278.446 4.07979 -0.0418436 0
M  V30 2919 H 277.121 3.98503 -1.1903 0
M  V30 2920 H 275.698 3.6779 0.615234 0
M  V30 2921 N 277.883 0.443576 1.51229 0
M  V30 2922 C 278.831 -0.37904 2.29491 0
M  V30 2923 C 279.825 -1.0153 1.35603 0
M  V30 2924 O 281.031 -0.94955 1.52917 0
M  V30 2925 H 277.406 -0.141053 0.738653 0
M  V30 2926 H 279.377 0.301799 2.9687 0
M  V30 2927 C 278.126 -1.46426 3.15364 0
M  V30 2928 H 277.449 -0.984037 3.87501 0
M  V30 2929 H 278.889 -2.01297 3.7317 0
M  V30 2930 C 277.348 -2.45099 2.31146 0
M  V30 2931 O 277.878 -3.49773 1.9754 0
M  V30 2932 N 276.084 -2.16139 1.94249 0
M  V30 2933 H 275.631 -1.31044 2.21777 0
M  V30 2934 H 275.589 -2.82398 1.38198 0
M  V30 2935 N 279.361 -1.56624 0.175154 0
M  V30 2936 C 280.777 -1.58571 -0.180966 0
M  V30 2937 C 280.977 -1.19065 -1.6256 0
M  V30 2938 O 280.033 -0.904044 -2.35761 0
M  V30 2939 C 281.346 -3.00522 0.103326 0
M  V30 2940 C 282.894 -3.12972 0.0418426 0
M  V30 2941 C 283.369 -4.57022 0.299175 0
M  V30 2942 N 284.86 -4.62541 0.247086 0
M  V30 2943 C 285.595 -5.71857 0.420318 0
M  V30 2944 N 285.091 -6.89717 0.652816 0
M  V30 2945 N 286.884 -5.60972 0.355957 0
M  V30 2946 H 279.035 -1.80589 1.11809 0
M  V30 2947 H 281.298 -0.837178 0.444788 0
M  V30 2948 H 281.004 -3.33916 1.10422 0
M  V30 2949 H 280.878 -3.72344 -0.603299 0
M  V30 2950 H 283.265 -2.79403 -0.949636 0
M  V30 2951 H 283.346 -2.43578 0.781238 0
M  V30 2952 H 282.99 -4.913 1.28788 0
M  V30 2953 H 282.92 -5.24579 -0.460876 0
M  V30 2954 H 285.411 -3.77829 0.0731895 0
M  V30 2955 H 285.724 -7.68911 0.774347 0
M  V30 2956 H 284.069 -6.91572 0.689476 0
M  V30 2957 H 287.26 -4.67773 0.174882 0
M  V30 2958 H 287.433 -6.46111 0.494388 0
M  V30 2959 N 280.839 0.0985539 -1.57292 0
M  V30 2960 C 282.255 0.45267 -1.53046 0
M  V30 2961 C 282.455 1.80713 -0.891342 0
M  V30 2962 O 281.511 2.4785 -0.482375 0
M  V30 2963 C 282.824 0.418341 -2.97776 0
M  V30 2964 C 284.372 0.500443 -3.08973 0
M  V30 2965 C 284.847 0.496297 -4.55303 0
M  V30 2966 N 286.338 0.557151 -4.59837 0
M  V30 2967 C 287.073 0.575726 -5.70502 0
M  V30 2968 N 286.569 0.550714 -6.90608 0
M  V30 2969 N 288.362 0.620277 -5.58667 0
M  V30 2970 H 280.513 -0.788673 -1.97215 0
M  V30 2971 H 282.776 -0.293188 -0.901524 0
M  V30 2972 H 282.482 -0.509659 -3.47988 0
M  V30 2973 H 282.356 1.2386 -3.56284 0
M  V30 2974 H 284.743 1.41886 -2.58751 0
M  V30 2975 H 284.824 -0.347894 -2.53423 0
M  V30 2976 H 284.468 -0.418162 -5.06176 0
M  V30 2977 H 284.398 1.3618 -5.08687 0
M  V30 2978 H 286.889 0.581816 -3.73394 0
M  V30 2979 H 287.202 0.568075 -7.70709 0
M  V30 2980 H 285.547 0.517816 -6.93068 0
M  V30 2981 H 288.738 0.637322 -4.63741 0
M  V30 2982 H 288.911 0.631283 -6.44918 0
M  V30 2983 N 282.317 1.53212 0.369288 0
M  V30 2984 C 283.542 1.73423 1.1375 0
M  V30 2985 C 283.967 0.460404 1.82378 0
M  V30 2986 O 283.325 -0.585298 1.71592 0
M  V30 2987 C 283.373 2.89769 2.1463 0
M  V30 2988 O 282.477 2.58119 3.21634 0
M  V30 2989 H 281.818 0.576061 0.330227 0
M  V30 2990 H 284.348 2.00083 0.427547 0
M  V30 2991 H 284.358 3.15829 2.58294 0
M  V30 2992 H 283.033 3.8217 1.64071 0
M  V30 2993 H 281.61 2.42864 2.82969 0
M  V30 2994 N 283.795 -0.628877 1.44509 0
M  V30 2995 C 285.041 -1.39045 1.47629 0
M  V30 2996 C 285.374 -1.93892 0.109343 0
M  V30 2997 O 284.649 -1.7379 -0.87334 0
M  V30 2998 C 284.932 -2.55408 2.53848 0
M  V30 2999 C 284.785 -2.05896 3.99909 0
M  V30 3000 C 286.104 -3.5759 2.56549 0
M  V30 3001 H 283.223 -0.504232 0.537512 0
M  V30 3002 H 285.865 -0.710854 1.76201 0
M  V30 3003 H 284.015 -3.13384 2.29615 0
M  V30 3004 H 285.687 -1.52734 4.35282 0
M  V30 3005 H 283.93 -1.37061 4.11578 0
M  V30 3006 H 284.601 -2.89681 4.69882 0
M  V30 3007 H 287.077 -3.09419 2.78207 0
M  V30 3008 H 285.953 -4.36527 3.32769 0
M  V30 3009 H 286.214 -4.11808 1.60832 0
M  V30 3010 N 285.273 -1.31445 -0.869486 0
M  V30 3011 C 286.503 -1.23942 -1.65294 0
M  V30 3012 C 286.911 0.197561 -1.88166 0
M  V30 3013 O 286.254 1.14019 -1.44033 0
M  V30 3014 C 286.316 -1.91385 -3.04322 0
M  V30 3015 C 285.98 -3.40726 -3.04557 0
M  V30 3016 C 286.977 -4.36464 -2.82481 0
M  V30 3017 C 284.662 -3.82425 -3.25663 0
M  V30 3018 C 286.656 -5.71876 -2.8149 0
M  V30 3019 C 284.343 -5.1795 -3.243 0
M  V30 3020 C 285.341 -6.12486 -3.02241 0
M  V30 3021 O 285.029 -7.45534 -3.00724 0
M  V30 3022 H 284.761 -0.429459 -0.522054 0
M  V30 3023 H 287.315 -1.73873 -1.0935 0
M  V30 3024 H 285.545 -1.36004 -3.61994 0
M  V30 3025 H 287.234 -1.77791 -3.64891 0
M  V30 3026 H 288 -4.05576 -2.65956 0
M  V30 3027 H 283.879 -3.09274 -3.41863 0
M  V30 3028 H 287.423 -6.45638 -2.64191 0
M  V30 3029 H 283.32 -5.48473 -3.40365 0
M  V30 3030 H 284.088 -7.54713 -3.16782 0
M  V30 3031 N 286.751 1.08385 -1.14413 0
M  V30 3032 C 287.698 2.15311 -0.831265 0
M  V30 3033 C 288.668 1.64751 0.211292 0
M  V30 3034 O 289.853 1.90627 0.0811674 0
M  V30 3035 C 286.993 3.43658 -0.315143 0
M  V30 3036 C 286.106 4.08064 -1.41802 0
M  V30 3037 C 285.241 5.24207 -0.859126 0
M  V30 3038 C 284.28 5.80554 -1.93967 0
M  V30 3039 N 283.417 6.88042 -1.39793 0
M  V30 3040 H 288.257 2.41415 -1.74708 0
M  V30 3041 H 285.794 1.18474 -0.871909 0
M  V30 3042 H 287.752 4.172 0.00230884 0
M  V30 3043 H 286.382 3.17839 0.56378 0
M  V30 3044 H 285.434 3.3228 -1.85187 0
M  V30 3045 H 286.746 4.45962 -2.23427 0
M  V30 3046 H 285.9 6.04689 -0.49359 0
M  V30 3047 H 284.639 4.87699 -0.011932 0
M  V30 3048 H 283.644 4.98725 -2.31415 0
M  V30 3049 H 284.869 6.19121 -2.79046 0
M  V30 3050 H 282.815 6.53493 -0.572919 0
M  V30 3051 H 282.732 7.24767 -2.15054 0
M  V30 3052 H 284 7.72255 -1.0603 0
M  V30 3053 N 288.23 0.939286 1.26551 0
M  V30 3054 C 289.16 0.465044 2.28822 0
M  V30 3055 C 290.141 -0.480692 1.63167 0
M  V30 3056 O 291.326 -0.382955 1.90387 0
M  V30 3057 C 288.456 -0.27234 3.46231 0
M  V30 3058 C 287.41 0.58666 4.2396 0
M  V30 3059 C 286.736 -0.280573 5.33963 0
M  V30 3060 C 288.036 1.85704 4.88171 0
M  V30 3061 H 289.73 1.31979 2.68741 0
M  V30 3062 H 287.276 0.636061 1.29191 0
M  V30 3063 H 289.229 -0.615133 4.16886 0
M  V30 3064 H 287.953 -1.16121 3.0526 0
M  V30 3065 H 286.612 0.91232 3.55067 0
M  V30 3066 H 286.26 -1.16874 4.89234 0
M  V30 3067 H 285.96 0.29076 5.8688 0
M  V30 3068 H 287.484 -0.618678 6.07458 0
M  V30 3069 H 288.898 1.58161 5.51052 0
M  V30 3070 H 287.295 2.37279 5.51197 0
M  V30 3071 H 288.365 2.56957 4.11219 0
M  V30 3072 N 289.708 -1.40897 0.706093 0
M  V30 3073 C 290.618 -2.3455 0.0482286 0
M  V30 3074 C 291.634 -1.56796 -0.754396 0
M  V30 3075 O 292.81 -1.89228 -0.689538 0
M  V30 3076 C 289.875 -3.35625 -0.869303 0
M  V30 3077 C 288.936 -4.29261 -0.0576994 0
M  V30 3078 C 288.169 -5.25508 -0.931531 0
M  V30 3079 O 288.392 -5.27472 -2.17092 0
M  V30 3080 O 287.326 -6.00727 -0.375587 0
M  V30 3081 H 291.152 -2.92407 0.820476 0
M  V30 3082 H 288.737 -1.4193 0.4665 0
M  V30 3083 H 290.619 -3.97635 -1.39514 0
M  V30 3084 H 289.294 -2.80196 -1.62086 0
M  V30 3085 H 288.201 -3.70566 0.512988 0
M  V30 3086 H 289.534 -4.87817 0.655426 0
M  V30 3087 N 291.186 -0.45159 -1.50991 0
M  V30 3088 C 292.133 0.352625 -2.2809 0
M  V30 3089 C 293.103 1.0044 -1.32291 0
M  V30 3090 O 294.288 1.02058 -1.6121 0
M  V30 3091 C 291.428 1.43983 -3.13629 0
M  V30 3092 C 290.541 0.804772 -4.24438 0
M  V30 3093 C 289.676 1.86822 -4.97263 0
M  V30 3094 C 288.715 1.21236 -5.99973 0
M  V30 3095 N 287.852 2.2178 -6.66152 0
M  V30 3096 H 292.692 -0.311186 -2.96371 0
M  V30 3097 H 290.229 -0.165308 -1.46168 0
M  V30 3098 H 292.187 2.08161 -3.61559 0
M  V30 3099 H 290.817 2.07307 -2.47434 0
M  V30 3100 H 289.869 0.0509129 -3.80366 0
M  V30 3101 H 291.181 0.286076 -4.97979 0
M  V30 3102 H 290.335 2.58628 -5.48813 0
M  V30 3103 H 289.074 2.42068 -4.23385 0
M  V30 3104 H 288.079 0.479828 -5.47702 0
M  V30 3105 H 289.304 0.667051 -6.75816 0
M  V30 3106 H 287.25 2.76079 -5.95077 0
M  V30 3107 H 287.167 1.74841 -7.35504 0
M  V30 3108 H 288.435 2.93026 -7.22327 0
M  V30 3109 N 292.664 1.56529 -0.183458 0
M  V30 3110 C 293.574 2.22144 0.754272 0
M  V30 3111 C 294.59 1.21684 1.24374 0
M  V30 3112 O 295.766 1.54385 1.29333 0
M  V30 3113 C 292.831 2.85884 1.96141 0
M  V30 3114 C 291.892 4.01579 1.51765 0
M  V30 3115 C 291.125 4.6227 2.66725 0
M  V30 3116 O 291.348 4.21865 3.83909 0
M  V30 3117 O 290.282 5.51936 2.40104 0
M  V30 3118 H 294.108 3.02861 0.225527 0
M  V30 3119 H 291.693 1.49331 0.0453032 0
M  V30 3120 H 293.575 3.26253 2.66715 0
M  V30 3121 H 292.25 2.08154 2.47899 0
M  V30 3122 H 291.157 3.65856 0.781049 0
M  V30 3123 H 292.49 4.80938 1.04686 0
M  V30 3124 N 294.142 -0.090211 1.57342 0
M  V30 3125 C 295.052 -1.12735 2.05738 0
M  V30 3126 C 296.068 -1.43557 0.983231 0
M  V30 3127 O 297.244 -1.54101 1.29672 0
M  V30 3128 C 294.309 -2.42659 2.47624 0
M  V30 3129 C 293.37 -2.18975 3.69254 0
M  V30 3130 C 292.603 -3.42704 4.09133 0
M  V30 3131 O 292.826 -4.51127 3.49057 0
M  V30 3132 O 291.76 -3.32003 5.02053 0
M  V30 3133 H 295.586 -0.746279 2.94388 0
M  V30 3134 H 293.171 -0.303064 1.46294 0
M  V30 3135 H 295.053 -3.19155 2.7517 0
M  V30 3136 H 293.728 -2.80182 1.62109 0
M  V30 3137 H 292.635 -1.40244 3.46818 0
M  V30 3138 H 293.968 -1.86342 4.55563 0
M  V30 3139 N 295.62 -1.53406 -0.361157 0
M  V30 3140 C 296.552 -1.76446 -1.46286 0
M  V30 3141 C 297.565 -0.645322 -1.49464 0
M  V30 3142 O 298.754 -0.921681 -1.52864 0
M  V30 3143 C 295.854 -1.83332 -2.85031 0
M  V30 3144 C 295.027 -3.13033 -3.05498 0
M  V30 3145 C 294.086 -3.11104 -4.24383 0
M  V30 3146 O 293.112 -3.84888 -4.19344 0
M  V30 3147 N 294.314 -2.32234 -5.32022 0
M  V30 3148 H 297.079 -2.71508 -1.26899 0
M  V30 3149 H 294.64 -1.52238 -0.550915 0
M  V30 3150 H 296.632 -1.79514 -3.62708 0
M  V30 3151 H 295.202 -0.955342 -2.97644 0
M  V30 3152 H 294.422 -3.30119 -2.15442 0
M  V30 3153 H 295.71 -3.9874 -3.16044 0
M  V30 3154 H 295.108 -1.71807 -5.38979 0
M  V30 3155 H 293.665 -2.3423 -6.08259 0
M  V30 3156 N 297.098 0.621204 -1.44841 0
M  V30 3157 C 298.347 1.37658 -1.47422 0
M  V30 3158 C 298.66 1.95264 -0.114629 0
M  V30 3159 O 299.866 2.71494 -0.0180199 0
M  V30 3160 C 298.322 2.49285 -2.59586 0
M  V30 3161 C 297.93 1.98149 -4.01797 0
M  V30 3162 C 299.674 3.26409 -2.71399 0
M  V30 3163 C 297.581 3.07178 -5.05367 0
M  V30 3164 H 296.511 0.517344 -0.548517 0
M  V30 3165 H 299.162 0.667257 -1.70938 0
M  V30 3166 H 297.544 3.22839 -2.29328 0
M  V30 3167 H 298.718 1.31395 -4.41669 0
M  V30 3168 H 297.033 1.33812 -3.94314 0
M  V30 3169 H 299.63 4.07706 -3.45948 0
M  V30 3170 H 299.973 3.76535 -1.77559 0
M  V30 3171 H 300.506 2.5995 -3.01116 0
M  V30 3172 H 297.245 2.61985 -6.00869 0
M  V30 3173 H 296.765 3.72542 -4.70077 0
M  V30 3174 H 298.444 3.71789 -5.29511 0
M  V30 3175 N 298.576 1.31904 0.862503 0
M  V30 3176 C 299.987 1.19803 1.43193 0
M  V30 3177 C 300.338 -0.192567 1.95253 0
M  V30 3178 O 299.463 -1.09081 1.86896 0
M  V30 3179 C 300.058 2.16883 2.60283 0
M  V30 3180 C 298.617 2.08692 3.13248 0
M  V30 3181 C 297.764 2.05691 1.85975 0
M  V30 3182 H 300.715 1.43846 0.670365 0
M  V30 3183 H 300.736 1.76278 3.37204 0
M  V30 3184 H 300.248 3.18083 2.22363 0
M  V30 3185 H 298.349 1.10713 3.55771 0
M  V30 3186 H 298.462 2.9815 3.75025 0
M  V30 3187 H 296.826 1.50814 2.05249 0
M  V30 3188 H 297.609 3.08659 1.50282 0
M  V30 3189 N 300.054 -1.07777 1.14986 0
M  V30 3190 C 301.331 -1.7699 0.832695 0
M  V30 3191 C 301.711 -2.001 -0.672561 0
M  V30 3192 O 301.059 -1.61598 -1.6155 0
M  V30 3193 C 301.269 -3.08139 1.63863 0
M  V30 3194 C 302.617 -3.8256 1.84208 0
M  V30 3195 O 303.641 -3.17939 1.60603 0
M  V30 3196 O 302.5 -4.98612 2.23714 0
M  V30 3197 H 299.594 -0.768389 0.305791 0
M  V30 3198 H 302.14 -1.14182 1.25541 0
M  V30 3199 H 300.912 -2.86909 2.6608 0
M  V30 3200 H 300.535 -3.78678 1.21197 0
M  V30 3201 N 301.532 -0.945985 -1.26051 0
M  V30 3202 C 302.78 -0.594941 -1.93145 0
M  V30 3203 C 303.101 0.86953 -1.7454 0
M  V30 3204 O 302.371 1.61838 -1.10387 0
M  V30 3205 H 300.951 -0.217044 -0.714773 0
M  V30 3206 H 303.613 -1.20235 -1.53393 0
M  V30 3207 H 302.709 -0.816835 -3.01221 0
M  V30 3208 N 303.011 1.40521 -0.713556 0
M  V30 3209 C 303.944 2.28198 -0.00881422 0
M  V30 3210 C 304.922 1.43227 0.769735 0
M  V30 3211 O 306.106 1.72641 0.756799 0
M  V30 3212 C 303.233 3.23758 0.994899 0
M  V30 3213 C 302.279 4.25391 0.3074 0
M  V30 3214 S 303.112 5.26765 -0.963247 0
M  V30 3215 C 304.268 6.25888 0.0384143 0
M  V30 3216 H 304.501 2.87622 -0.752407 0
M  V30 3217 H 302.034 1.45925 -0.504502 0
M  V30 3218 H 303.992 3.79341 1.56879 0
M  V30 3219 H 302.653 2.63396 1.71118 0
M  V30 3220 H 301.846 4.92596 1.0661 0
M  V30 3221 H 301.448 3.73497 -0.193879 0
M  V30 3222 H 303.74 6.71683 0.885912 0
M  V30 3223 H 304.683 7.05552 -0.60019 0
M  V30 3224 H 305.091 5.63072 0.401233 0
M  V30 3225 N 304.489 0.459591 1.5075 0
M  V30 3226 C 305.729 -0.09824 2.04164 0
M  V30 3227 C 306.093 -1.3801 1.33481 0
M  V30 3228 O 307.294 -2.01959 1.77387 0
M  V30 3229 C 305.565 -0.289467 3.56226 0
M  V30 3230 S 307.124 -0.807507 4.31306 0
M  V30 3231 H 303.942 -0.0213845 0.710678 0
M  V30 3232 H 306.544 0.624098 1.85271 0
M  V30 3233 H 305.248 0.649461 4.05229 0
M  V30 3234 H 304.779 -1.03825 3.79452 0
M  V30 3235 H 306.794 -2.0824 4.50389 0
M  V30 3236 N 305.967 -1.56429 0.191757 0
M  V30 3237 C 307.216 -1.9666 -0.448088 0
M  V30 3238 C 307.529 -1.08136 -1.62991 0
M  V30 3239 O 308.735 -1.38135 -2.33733 0
M  V30 3240 C 307.191 -3.49753 -0.848585 0
M  V30 3241 C 306.799 -4.46935 0.308764 0
M  V30 3242 C 308.543 -3.9876 -1.4557 0
M  V30 3243 C 306.45 -5.91293 -0.112506 0
M  V30 3244 H 305.38 -0.734312 -0.171179 0
M  V30 3245 H 308.031 -1.81301 0.283242 0
M  V30 3246 H 306.413 -3.60604 -1.63649 0
M  V30 3247 H 307.587 -4.47813 1.08627 0
M  V30 3248 H 305.902 -4.08102 0.827158 0
M  V30 3249 H 308.499 -5.04086 -1.78328 0
M  V30 3250 H 308.842 -3.42875 -2.36099 0
M  V30 3251 H 309.375 -3.9101 -0.731836 0
M  V30 3252 H 306.114 -6.51097 0.758514 0
M  V30 3253 H 305.634 -5.93676 -0.854941 0
M  V30 3254 H 307.313 -6.44663 -0.549448 0
M  V30 3255 N 307.445 0.0818655 -1.57387 0
M  V30 3256 C 308.722 0.815343 -1.77796 0
M  V30 3257 C 309.102 1.96289 -0.77679 0
M  V30 3258 O 308.45 2.27691 0.192106 0
M  V30 3259 C 308.66 1.29765 -3.23978 0
M  V30 3260 C 310.008 1.7351 -3.8753 0
M  V30 3261 O 311.032 1.39356 -3.27808 0
M  V30 3262 O 309.891 2.36708 -4.92576 0
M  V30 3263 H 306.985 0.389914 -0.729312 0
M  V30 3264 H 309.531 0.0627213 -1.69584 0
M  V30 3265 H 308.303 0.47608 -3.88393 0
M  V30 3266 H 307.926 2.11189 -3.36875 0
M  V30 3267 N 308.923 1.53595 0.353017 0
M  V30 3268 C 309.886 1.80232 1.41594 0
M  V30 3269 C 310.886 0.673081 1.46035 0
M  V30 3270 O 312.076 0.941335 1.46576 0
M  V30 3271 C 309.208 1.93578 2.80607 0
M  V30 3272 H 310.401 2.75174 1.19244 0
M  V30 3273 H 307.954 1.44864 0.586872 0
M  V30 3274 H 308.689 1.00746 3.08254 0
M  V30 3275 H 308.474 2.75724 2.78781 0
M  V30 3276 H 309.964 2.15735 3.57558 0
M  V30 3277 N 310.401 -0.613514 1.45168 0
M  V30 3278 C 311.311 -1.75296 1.55912 0
M  V30 3279 C 312.327 -1.68244 0.443856 0
M  V30 3280 O 313.503 -1.88706 0.70371 0
M  V30 3281 C 310.568 -3.1174 1.5172 0
M  V30 3282 C 309.629 -3.30291 2.74238 0
M  V30 3283 C 308.862 -4.60226 2.70236 0
M  V30 3284 O 309.085 -5.42168 1.77229 0
M  V30 3285 O 308.019 -4.81361 3.61352 0
M  V30 3286 H 311.845 -1.69183 2.52212 0
M  V30 3287 H 309.43 -0.776886 1.27612 0
M  V30 3288 H 311.312 -3.93044 1.51968 0
M  V30 3289 H 309.987 -3.18357 0.585697 0
M  V30 3290 H 308.894 -2.48598 2.79553 0
M  V30 3291 H 310.227 -3.28547 3.66494 0
M  V30 3292 N 311.879 -1.3236 -0.855495 0
M  V30 3293 C 313.127 -1.22629 -1.60644 0
M  V30 3294 C 313.448 0.212136 -1.93843 0
M  V30 3295 O 312.718 1.13666 -1.59552 0
M  V30 3296 H 311.298 -0.450882 -0.595579 0
M  V30 3297 H 313.96 -1.65871 -1.02337 0
M  V30 3298 H 313.056 -1.80832 -2.54374 0
M  V30 3299 N 313.357 1.07166 -1.15556 0
M  V30 3300 C 314.304 2.14417 -0.854055 0
M  V30 3301 C 315.274 1.64965 0.193806 0
M  V30 3302 O 316.459 1.90703 0.0609443 0
M  V30 3303 C 313.599 3.43304 -0.351574 0
M  V30 3304 C 312.712 4.06537 -1.46123 0
M  V30 3305 C 311.847 5.23266 -0.914677 0
M  V30 3306 C 310.886 5.78464 -2.00114 0
M  V30 3307 N 310.023 6.86521 -1.47083 0
M  V30 3308 H 314.863 2.39548 -1.77259 0
M  V30 3309 H 312.4 1.17543 -0.884425 0
M  V30 3310 H 314.358 4.17179 -0.0419409 0
M  V30 3311 H 312.988 3.18419 0.530037 0
M  V30 3312 H 312.04 3.30297 -1.88701 0
M  V30 3313 H 313.352 4.43567 -2.28144 0
M  V30 3314 H 312.506 6.04131 -0.557698 0
M  V30 3315 H 311.245 4.87658 -0.0636583 0
M  V30 3316 H 310.25 4.96243 -2.36692 0
M  V30 3317 H 311.475 6.16126 -2.85597 0
M  V30 3318 H 309.421 6.52849 -0.642198 0
M  V30 3319 H 309.338 7.22446 -2.22729 0
M  V30 3320 H 310.606 7.71087 -1.14215 0
M  V30 3321 N 314.835 0.952656 1.25548 0
M  V30 3322 C 315.765 0.489287 2.28316 0
M  V30 3323 C 316.746 -0.463359 1.63667 0
M  V30 3324 O 317.931 -0.36274 1.90782 0
M  V30 3325 C 315.061 -0.235603 3.465 0
M  V30 3326 C 314.015 0.631593 4.23314 0
M  V30 3327 C 313.341 -0.223923 5.34231 0
M  V30 3328 C 314.641 1.90871 4.86174 0
M  V30 3329 H 316.335 1.34822 2.67326 0
M  V30 3330 H 313.881 0.649728 1.28509 0
M  V30 3331 H 315.834 -0.570882 4.17515 0
M  V30 3332 H 314.558 -1.12877 3.06474 0
M  V30 3333 H 313.217 0.949929 3.54079 0
M  V30 3334 H 312.865 -1.11678 4.90446 0
M  V30 3335 H 312.565 0.35299 5.86539 0
M  V30 3336 H 314.089 -0.554214 6.0808 0
M  V30 3337 H 315.503 1.63997 5.49343 0
M  V30 3338 H 313.9 2.43112 5.4865 0
M  V30 3339 H 314.97 2.61304 4.08471 0
M  V30 3340 N 316.313 -1.40141 0.720998 0
M  V30 3341 C 317.559 -2.01572 0.272075 0
M  V30 3342 C 317.914 -1.5616 -1.12391 0
M  V30 3343 O 317.207 -0.774198 -1.75262 0
M  V30 3344 C 317.401 -3.56165 0.296892 0
M  V30 3345 C 317.23 -4.16584 1.69375 0
M  V30 3346 C 316 -4.49783 2.30269 0
M  V30 3347 C 318.198 -4.41076 2.64493 0
M  V30 3348 N 316.18 -4.95626 3.62254 0
M  V30 3349 C 317.551 -4.88971 3.81192 0
M  V30 3350 C 319.606 -4.23122 2.62435 0
M  V30 3351 C 318.309 -5.20796 4.96149 0
M  V30 3352 C 320.335 -4.56052 3.76524 0
M  V30 3353 C 319.697 -5.04141 4.91956 0
M  V30 3354 H 315.796 -0.768343 0.145511 0
M  V30 3355 H 318.38 -1.70287 0.943959 0
M  V30 3356 H 316.551 -3.86868 -0.344578 0
M  V30 3357 H 318.283 -4.04346 -0.169254 0
M  V30 3358 H 315.038 -4.37101 1.82318 0
M  V30 3359 H 315.462 -5.22923 4.29977 0
M  V30 3360 H 320.104 -3.85158 1.74393 0
M  V30 3361 H 317.822 -5.57672 5.84831 0
M  V30 3362 H 321.408 -4.43796 3.76213 0
M  V30 3363 H 320.288 -5.29142 5.78774 0
M  V30 3364 N 317.792 -0.46758 -1.50504 0
M  V30 3365 C 319.038 0.0887532 -2.02606 0
M  V30 3366 C 319.371 1.39686 -1.34913 0
M  V30 3367 O 318.646 1.88644 -0.473694 0
M  V30 3368 C 318.929 0.276206 -3.59039 0
M  V30 3369 C 318.782 -1.05267 -4.37309 0
M  V30 3370 C 320.101 1.03235 -4.27821 0
M  V30 3371 H 317.22 0.0307814 -0.736357 0
M  V30 3372 H 319.862 -0.612485 -1.79857 0
M  V30 3373 H 318.012 0.8735 -3.78553 0
M  V30 3374 H 319.684 -1.68628 -4.29374 0
M  V30 3375 H 317.927 -1.65015 -4.01189 0
M  V30 3376 H 318.598 -0.875197 -5.45018 0
M  V30 3377 H 321.074 0.526111 -4.12761 0
M  V30 3378 H 319.95 1.1323 -5.37094 0
M  V30 3379 H 320.211 2.06806 -3.90748 0
M  V30 3380 N 319.27 1.56325 -0.20005 0
M  V30 3381 C 320.233 2.18084 0.705132 0
M  V30 3382 C 321.233 1.13666 1.1374 0
M  V30 3383 O 322.423 1.39023 1.04968 0
M  V30 3384 C 319.555 2.78689 1.96329 0
M  V30 3385 H 320.748 2.99435 0.167023 0
M  V30 3386 H 318.301 1.56221 0.0495725 0
M  V30 3387 H 319.036 2.0115 2.5438 0
M  V30 3388 H 318.821 3.55133 1.66202 0
M  V30 3389 H 320.311 3.26096 2.60866 0
M  V30 3390 N 320.748 -0.0735177 1.57428 0
M  V30 3391 C 321.988 -0.778363 1.89 0
M  V30 3392 C 322.352 -1.7483 0.793634 0
M  V30 3393 O 323.553 -2.49811 0.992367 0
M  V30 3394 C 321.824 -1.46929 3.25802 0
M  V30 3395 S 323.383 -2.20943 3.79117 0
M  V30 3396 H 320.201 -0.258874 0.662197 0
M  V30 3397 H 322.803 -0.0345338 1.95469 0
M  V30 3398 H 321.507 -0.749532 4.03497 0
M  V30 3399 H 321.038 -2.25258 3.22525 0
M  V30 3400 H 323.053 -3.47435 3.54265 0
M  V30 3401 N 322.226 -1.5378 -0.344866 0
M  V30 3402 C 323.456 -1.74646 -1.10374 0
M  V30 3403 C 323.864 -0.48491 -1.8288 0
M  V30 3404 O 323.207 0.553062 -1.75177 0
M  V30 3405 C 323.269 -2.87145 -2.16306 0
M  V30 3406 C 322.933 -4.26795 -1.63386 0
M  V30 3407 C 323.93 -5.08412 -1.08688 0
M  V30 3408 C 321.615 -4.73276 -1.68272 0
M  V30 3409 C 323.609 -6.34609 -0.595792 0
M  V30 3410 C 321.296 -5.99446 -1.18776 0
M  V30 3411 C 322.294 -6.79946 -0.645215 0
M  V30 3412 O 321.982 -8.03745 -0.157626 0
M  V30 3413 H 321.714 -0.587112 -0.335075 0
M  V30 3414 H 324.268 -2.01403 -0.403252 0
M  V30 3415 H 322.498 -2.55909 -2.89909 0
M  V30 3416 H 324.187 -2.95992 -2.77747 0
M  V30 3417 H 324.953 -4.73666 -1.04236 0
M  V30 3418 H 320.832 -4.10677 -2.09442 0
M  V30 3419 H 324.376 -6.97389 -0.171654 0
M  V30 3420 H 320.273 -6.33687 -1.22928 0
M  V30 3421 H 321.041 -8.18038 -0.275037 0
M  V30 3422 N 323.704 0.605807 -1.45491 0
M  V30 3423 C 324.652 1.73754 -1.54636 0
M  V30 3424 C 325.646 1.64207 -0.416219 0
M  V30 3425 O 326.852 1.69979 -0.592199 0
M  V30 3426 H 323.227 0.574073 -0.485741 0
M  V30 3427 H 325.198 1.63169 -2.49837 0
M  V30 3428 C 323.947 3.12135 -1.53189 0
M  V30 3429 H 323.27 3.20141 -2.39478 0
M  V30 3430 H 324.71 3.91147 -1.63645 0
M  V30 3431 C 323.169 3.35921 -0.256616 0
M  V30 3432 O 323.699 3.96194 0.662798 0
M  V30 3433 N 321.905 2.90204 -0.151751 0
M  V30 3434 H 321.452 2.41336 -0.90081 0
M  V30 3435 H 321.41 3.06492 0.700699 0
M  V30 3436 N 325.182 1.32811 0.848464 0
M  V30 3437 C 326.43 1.23479 1.59991 0
M  V30 3438 C 326.751 -0.201853 1.93952 0
M  V30 3439 O 326.021 -1.12818 1.60153 0
M  V30 3440 H 324.601 0.454034 0.593179 0
M  V30 3441 H 327.263 1.66412 1.01455 0
M  V30 3442 H 326.359 1.82178 2.53412 0
M  V30 3443 N 326.66 -1.06551 1.16123 0
M  V30 3444 C 327.908 -1.78947 0.939267 0
M  V30 3445 C 328.229 -1.87532 -0.534476 0
M  V30 3446 O 327.499 -1.38211 -1.38833 0
M  V30 3447 H 326.079 -0.662807 0.344523 0
M  V30 3448 H 328.741 -1.28725 1.46342 0
M  V30 3449 H 327.837 -2.81117 1.35572 0
M  V30 3450 N 328.138 -0.959301 -1.25041 0
M  V30 3451 C 329.554 -0.664474 -1.4511 0
M  V30 3452 C 329.754 0.776481 -1.85938 0
M  V30 3453 O 328.81 1.55128 -1.99227 0
M  V30 3454 C 330.123 -1.64139 -2.5195 0
M  V30 3455 C 331.671 -1.65309 -2.65786 0
M  V30 3456 C 332.146 -2.61777 -3.75815 0
M  V30 3457 N 333.637 -2.60169 -3.83231 0
M  V30 3458 C 334.372 -3.31489 -4.6787 0
M  V30 3459 N 333.868 -4.12298 -5.56761 0
M  V30 3460 N 335.661 -3.20354 -4.61876 0
M  V30 3461 H 327.812 -1.89043 -0.968332 0
M  V30 3462 H 330.075 -0.813408 -0.4869 0
M  V30 3463 H 329.781 -2.67086 -2.28819 0
M  V30 3464 H 329.655 -1.40756 -3.49954 0
M  V30 3465 H 332.042 -0.630778 -2.8828 0
M  V30 3466 H 332.123 -1.92753 -1.68167 0
M  V30 3467 H 331.767 -3.64137 -3.54071 0
M  V30 3468 H 331.697 -2.31616 -4.72929 0
M  V30 3469 H 334.188 -2.01507 -3.19692 0
M  V30 3470 H 334.501 -4.63625 -6.18281 0
M  V30 3471 H 332.846 -4.16395 -5.56454 0
M  V30 3472 H 336.037 -2.56692 -3.91442 0
M  V30 3473 H 336.21 -3.76201 -5.27614 0
M  V30 3474 N 329.616 1.39756 -0.72842 0
M  V30 3475 C 330.862 2.00942 -0.273892 0
M  V30 3476 C 331.195 1.57656 1.13394 0
M  V30 3477 O 330.47 0.802434 1.77176 0
M  V30 3478 C 330.753 3.58211 -0.368346 0
M  V30 3479 C 330.606 4.11534 -1.81548 0
M  V30 3480 C 331.925 4.39372 0.253054 0
M  V30 3481 H 329.044 0.730047 -0.100996 0
M  V30 3482 H 331.686 1.66056 -0.923337 0
M  V30 3483 H 329.836 3.88061 0.184588 0
M  V30 3484 H 331.508 3.92431 -2.42478 0
M  V30 3485 H 329.751 3.65341 -2.33898 0
M  V30 3486 H 330.422 5.20682 -1.83288 0
M  V30 3487 H 332.898 4.15527 -0.218224 0
M  V30 3488 H 331.774 5.48677 0.156585 0
M  V30 3489 H 332.035 4.21358 1.33826 0
M  V30 3490 N 331.094 0.475555 1.50254 0
M  V30 3491 C 332.343 -0.0795996 2.01543 0
M  V30 3492 C 332.656 -1.4038 1.36209 0
M  V30 3493 O 333.862 -2.04415 1.7868 0
M  V30 3494 C 332.318 -0.192363 3.59386 0
M  V30 3495 C 331.926 1.12367 4.33679 0
M  V30 3496 C 333.67 -0.699238 4.18701 0
M  V30 3497 C 331.577 0.974453 5.83317 0
M  V30 3498 H 330.507 -0.0335228 0.753254 0
M  V30 3499 H 333.158 0.611128 1.73025 0
M  V30 3500 H 331.54 -0.946974 3.84511 0
M  V30 3501 H 332.714 1.88958 4.20276 0
M  V30 3502 H 331.029 1.562 3.85993 0
M  V30 3503 H 333.626 -0.827978 5.28251 0
M  V30 3504 H 333.969 -1.69171 3.80377 0
M  V30 3505 H 334.502 -0.00188807 3.978 0
M  V30 3506 H 331.241 1.94042 6.26121 0
M  V30 3507 H 330.761 0.248998 5.99283 0
M  V30 3508 H 332.44 0.642867 6.43798 0
M  V30 3509 N 332.573 -1.56217 0.208337 0
M  V30 3510 C 333.989 -1.58919 -0.14729 0
M  V30 3511 C 334.189 -1.22486 -1.59998 0
M  V30 3512 O 333.245 -0.953849 -2.3379 0
M  V30 3513 C 334.558 -3.00236 0.167048 0
M  V30 3514 C 336.106 -3.12813 0.108219 0
M  V30 3515 C 336.581 -4.56284 0.396049 0
M  V30 3516 N 338.072 -4.61912 0.345142 0
M  V30 3517 C 338.807 -5.70837 0.541523 0
M  V30 3518 N 338.303 -6.88178 0.798968 0
M  V30 3519 N 340.096 -5.60091 0.474867 0
M  V30 3520 H 332.247 -1.78177 1.15614 0
M  V30 3521 H 334.51 -0.827555 0.462446 0
M  V30 3522 H 334.216 -3.31499 1.1748 0
M  V30 3523 H 334.09 -3.7354 -0.524184 0
M  V30 3524 H 336.477 -2.81354 -0.890157 0
M  V30 3525 H 336.558 -2.41866 0.832729 0
M  V30 3526 H 336.202 -4.88458 1.3918 0
M  V30 3527 H 336.132 -5.25439 -0.349502 0
M  V30 3528 H 338.623 -3.77589 0.153316 0
M  V30 3529 H 338.936 -7.67095 0.93727 0
M  V30 3530 H 337.281 -6.89953 0.836013 0
M  V30 3531 H 340.472 -4.67297 0.274064 0
M  V30 3532 H 340.645 -6.44917 0.631326 0
M  V30 3533 N 334.051 0.0651679 -1.57465 0
M  V30 3534 C 334.981 1.07693 -2.07182 0
M  V30 3535 C 335.962 1.39962 -0.966673 0
M  V30 3536 O 337.147 1.49475 -1.2398 0
M  V30 3537 C 334.277 2.3885 -2.52127 0
M  V30 3538 C 333.231 2.20917 -3.66579 0
M  V30 3539 C 332.557 3.57515 -3.97601 0
M  V30 3540 C 333.857 1.62493 -4.9638 0
M  V30 3541 H 335.551 0.663199 -2.91962 0
M  V30 3542 H 333.097 0.317569 -1.40455 0
M  V30 3543 H 335.05 3.09928 -2.85522 0
M  V30 3544 H 333.774 2.82215 -1.64384 0
M  V30 3545 H 332.433 1.52279 -3.33477 0
M  V30 3546 H 332.081 3.98463 -3.06979 0
M  V30 3547 H 331.781 3.46353 -4.74672 0
M  V30 3548 H 333.305 4.30013 -4.33499 0
M  V30 3549 H 334.719 2.23445 -5.27963 0
M  V30 3550 H 333.116 1.62009 -5.77818 0
M  V30 3551 H 334.186 0.587041 -4.81333 0
M  V30 3552 N 335.529 1.53961 0.336706 0
M  V30 3553 C 336.806 1.62171 1.09361 0
M  V30 3554 C 337.186 0.447263 2.06307 0
M  V30 3555 O 336.534 -0.559802 2.21537 0
M  V30 3556 C 336.744 2.98565 1.80721 0
M  V30 3557 C 338.092 3.54157 2.34218 0
M  V30 3558 O 339.116 3.00784 1.90807 0
M  V30 3559 O 337.975 4.47528 3.13657 0
M  V30 3560 H 335.069 0.6562 0.503319 0
M  V30 3561 H 337.615 1.66307 0.33765 0
M  V30 3562 H 336.387 3.75482 1.10132 0
M  V30 3563 H 336.01 2.9805 2.63158 0
M  V30 3564 N 337.007 -0.598083 1.45811 0
M  V30 3565 C 338.418 -1.18011 1.44673 0
M  V30 3566 C 338.769 -1.95378 0.179364 0
M  V30 3567 O 337.894 -2.04124 -0.718509 0
M  V30 3568 C 338.489 -2.14677 2.62105 0
M  V30 3569 C 337.048 -2.68236 2.64057 0
M  V30 3570 C 336.195 -1.43816 2.37091 0
M  V30 3571 H 339.146 -0.38686 1.53913 0
M  V30 3572 H 339.167 -2.97878 2.36746 0
M  V30 3573 H 338.679 -1.5834 3.5433 0
M  V30 3574 H 336.78 -3.28486 1.75864 0
M  V30 3575 H 336.893 -3.12021 3.63566 0
M  V30 3576 H 335.257 -1.731 1.86838 0
M  V30 3577 H 336.04 -0.893333 3.31473 0
M  V30 3578 N 338.485 -1.33259 -0.841409 0
M  V30 3579 C 339.731 -1.24757 -1.59886 0
M  V30 3580 C 340.064 0.186913 -1.93298 0
M  V30 3581 O 339.339 1.12757 -1.5848 0
M  V30 3582 C 339.622 -2.12036 -2.91055 0
M  V30 3583 C 339.475 -3.63929 -2.6434 0
M  V30 3584 C 340.794 -1.9916 -3.92458 0
M  V30 3585 H 337.913 -0.454542 -0.580138 0
M  V30 3586 H 340.555 -1.63335 -0.970647 0
M  V30 3587 H 338.705 -1.79265 -3.44669 0
M  V30 3588 H 340.377 -4.06978 -2.17178 0
M  V30 3589 H 338.62 -3.85935 -1.98082 0
M  V30 3590 H 339.291 -4.20341 -3.57796 0
M  V30 3591 H 341.767 -2.27895 -3.48143 0
M  V30 3592 H 340.643 -2.62484 -4.82072 0
M  V30 3593 H 340.904 -0.963082 -4.31482 0
M  V30 3594 N 339.963 1.05934 -1.16686 0
M  V30 3595 C 341.191 1.8249 -0.974929 0
M  V30 3596 C 341.606 1.82679 0.476861 0
M  V30 3597 O 340.963 1.2486 1.33103 0
M  V30 3598 C 341.014 3.28943 -1.49929 0
M  V30 3599 O 340.735 3.28886 -2.89423 0
M  V30 3600 C 342.236 4.22215 -1.35089 0
M  V30 3601 H 339.456 0.575295 -0.345365 0
M  V30 3602 H 342 1.33631 -1.548 0
M  V30 3603 H 340.155 3.751 -0.968423 0
M  V30 3604 H 340.569 4.20493 -3.13506 0
M  V30 3605 H 342.043 5.22987 -1.76603 0
M  V30 3606 H 342.52 4.38195 -0.296935 0
M  V30 3607 H 343.126 3.81907 -1.87155 0
M  V30 3608 N 341.441 0.965919 1.2453 0
M  V30 3609 C 342.689 0.625593 1.92174 0
M  V30 3610 C 343.01 -0.841652 1.75901 0
M  V30 3611 O 342.28 -1.60061 1.12948 0
M  V30 3612 H 340.86 0.228388 0.71123 0
M  V30 3613 H 343.522 1.2266 1.51461 0
M  V30 3614 H 342.618 0.864653 2.99884 0
M  V30 3615 N 342.919 -1.39368 0.735821 0
M  V30 3616 C 343.866 -2.30599 0.0963825 0
M  V30 3617 C 344.836 -1.49257 -0.728794 0
M  V30 3618 O 346.021 -1.77941 -0.688588 0
M  V30 3619 C 343.161 -3.35596 -0.804305 0
M  V30 3620 C 342.274 -4.31987 0.0335761 0
M  V30 3621 C 341.409 -5.24053 -0.868461 0
M  V30 3622 C 340.448 -6.12095 -0.0258776 0
M  V30 3623 N 339.585 -6.96514 -0.883893 0
M  V30 3624 H 344.425 -2.8471 0.880002 0
M  V30 3625 H 341.962 -1.40188 0.445619 0
M  V30 3626 H 343.92 -3.95062 -1.34096 0
M  V30 3627 H 342.55 -2.82938 -1.55389 0
M  V30 3628 H 341.602 -3.74133 0.68766 0
M  V30 3629 H 342.914 -4.94074 0.685036 0
M  V30 3630 H 342.068 -5.88549 -1.47293 0
M  V30 3631 H 340.807 -4.62289 -1.5537 0
M  V30 3632 H 339.812 -5.4661 0.591386 0
M  V30 3633 H 341.037 -6.75923 0.656156 0
M  V30 3634 H 338.983 -6.37318 -1.55441 0
M  V30 3635 H 338.9 -7.55448 -0.288931 0
M  V30 3636 H 340.168 -7.65439 -1.4739 0
M  V30 3637 N 344.397 -0.483516 -1.5 0
M  V30 3638 C 345.813 -0.138404 -1.58999 0
M  V30 3639 C 346.013 1.35597 -1.4905 0
M  V30 3640 O 345.069 2.13039 -1.35539 0
M  V30 3641 C 346.382 -0.699658 -2.92447 0
M  V30 3642 C 347.93 -0.664195 -3.05872 0
M  V30 3643 C 348.405 -1.20321 -4.41913 0
M  V30 3644 N 349.896 -1.16315 -4.48358 0
M  V30 3645 C 350.631 -1.55058 -5.52037 0
M  V30 3646 N 350.127 -2.01311 -6.62907 0
M  V30 3647 N 351.92 -1.46584 -5.42651 0
M  V30 3648 H 344.071 -1.45529 -1.5471 0
M  V30 3649 H 346.334 -0.60258 -0.731848 0
M  V30 3650 H 346.04 -1.747 -3.05242 0
M  V30 3651 H 345.914 -0.150194 -3.76901 0
M  V30 3652 H 348.301 0.374272 -2.92717 0
M  V30 3653 H 348.382 -1.25061 -2.23144 0
M  V30 3654 H 348.026 -2.24037 -4.55818 0
M  V30 3655 H 347.956 -0.592896 -5.23252 0
M  V30 3656 H 350.447 -0.824058 -3.68806 0
M  V30 3657 H 350.76 -2.2899 -7.38095 0
M  V30 3658 H 349.105 -2.05273 -6.63994 0
M  V30 3659 H 352.296 -1.10281 -4.54924 0
M  V30 3660 H 352.469 -1.77103 -6.23329 0
M  V30 3661 N 345.875 1.56104 -0.216619 0
M  V30 3662 C 346.805 2.23063 0.690296 0
M  V30 3663 C 347.786 1.20072 1.20485 0
M  V30 3664 O 348.971 1.48643 1.24976 0
M  V30 3665 C 346.101 2.90672 1.90072 0
M  V30 3666 C 345.055 4.00092 1.5202 0
M  V30 3667 C 344.381 4.54972 2.80899 0
M  V30 3668 C 345.681 5.17398 0.71391 0
M  V30 3669 H 347.375 2.99109 0.132038 0
M  V30 3670 H 344.921 1.43866 0.0620664 0
M  V30 3671 H 346.874 3.36204 2.54057 0
M  V30 3672 H 345.598 2.12066 2.48386 0
M  V30 3673 H 344.257 3.55283 0.903839 0
M  V30 3674 H 343.905 3.73102 3.37348 0
M  V30 3675 H 343.605 5.28817 2.56176 0
M  V30 3676 H 345.129 5.0322 3.45836 0
M  V30 3677 H 346.543 5.59342 1.25735 0
M  V30 3678 H 344.94 5.97444 0.563951 0
M  V30 3679 H 346.01 4.84088 -0.280527 0
M  V30 3680 N 347.353 -0.0568162 1.57498 0
M  V30 3681 C 348.285 -1.09292 2.01464 0
M  V30 3682 C 349.298 -1.34112 0.922913 0
M  V30 3683 O 350.487 -1.32089 1.20062 0
M  V30 3684 C 347.587 -2.44068 2.35125 0
M  V30 3685 C 346.76 -2.38995 3.66333 0
M  V30 3686 C 345.819 -3.55997 3.87495 0
M  V30 3687 O 344.845 -3.36746 4.58901 0
M  V30 3688 N 346.047 -4.76888 3.30996 0
M  V30 3689 H 348.812 -0.718386 2.90963 0
M  V30 3690 H 346.373 -0.245235 1.60032 0
M  V30 3691 H 348.365 -3.21011 2.46443 0
M  V30 3692 H 346.935 -2.73468 1.5144 0
M  V30 3693 H 346.155 -1.47336 3.65631 0
M  V30 3694 H 347.443 -2.3272 4.52458 0
M  V30 3695 H 346.841 -4.95431 2.73065 0
M  V30 3696 H 345.398 -5.51291 3.47738 0
M  V30 3697 N 348.832 -1.54138 -0.328536 0
M  V30 3698 C 350.06 -1.76062 -1.08673 0
M  V30 3699 C 350.475 -0.506852 -1.81869 0
M  V30 3700 O 349.832 0.522223 -1.74869 0
M  V30 3701 C 349.883 -2.95054 -2.08866 0
M  V30 3702 O 349.604 -4.15583 -1.38644 0
M  V30 3703 C 351.105 -3.2915 -2.96943 0
M  V30 3704 H 348.325 -0.587889 -0.323461 0
M  V30 3705 H 350.869 -2.0101 -0.376175 0
M  V30 3706 H 349.024 -2.72394 -2.75464 0
M  V30 3707 H 349.438 -4.82481 -2.05699 0
M  V30 3708 H 350.912 -4.15723 -3.63151 0
M  V30 3709 H 351.389 -2.461 -3.63774 0
M  V30 3710 H 351.995 -3.53871 -2.35914 0
M  V30 3711 N 350.31 0.590341 -1.46126 0
M  V30 3712 C 351.556 1.35082 -1.51264 0
M  V30 3713 C 351.889 1.93534 -0.160711 0
M  V30 3714 O 351.164 1.76045 0.826956 0
M  V30 3715 C 351.447 2.48588 -2.6053 0
M  V30 3716 C 351.3 1.95221 -4.05227 0
M  V30 3717 C 352.619 3.50662 -2.6594 0
M  V30 3718 H 349.738 0.489803 -0.550692 0
M  V30 3719 H 352.38 0.663887 -1.78024 0
M  V30 3720 H 350.53 3.07186 -2.37843 0
M  V30 3721 H 352.202 1.41139 -4.39178 0
M  V30 3722 H 350.445 1.26101 -4.15068 0
M  V30 3723 H 351.116 2.77121 -4.77397 0
M  V30 3724 H 353.592 3.01934 -2.86313 0
M  V30 3725 H 352.468 4.27551 -3.44226 0
M  V30 3726 H 352.729 4.07399 -1.71694 0
M  V30 3727 N 351.788 1.33704 0.83433 0
M  V30 3728 C 352.735 1.24335 1.94447 0
M  V30 3729 C 353.705 0.120991 1.65659 0
M  V30 3730 O 354.89 0.300035 1.88426 0
M  V30 3731 C 352.03 0.993124 3.30501 0
M  V30 3732 C 351.143 2.20217 3.71657 0
M  V30 3733 C 350.278 1.88572 4.96602 0
M  V30 3734 C 349.317 3.05683 5.30306 0
M  V30 3735 N 348.454 2.73997 6.46429 0
M  V30 3736 H 353.294 2.1928 2.01792 0
M  V30 3737 H 350.831 1.09035 0.987404 0
M  V30 3738 H 352.789 0.828467 4.08892 0
M  V30 3739 H 351.419 0.0803902 3.227 0
M  V30 3740 H 350.471 2.47642 2.88752 0
M  V30 3741 H 351.783 3.07752 3.92543 0
M  V30 3742 H 350.937 1.68776 5.82752 0
M  V30 3743 H 349.676 0.982799 4.77695 0
M  V30 3744 H 348.681 3.26088 4.42659 0
M  V30 3745 H 349.906 3.96737 5.51159 0
M  V30 3746 H 347.852 1.86268 6.28999 0
M  V30 3747 H 347.769 3.55064 6.67432 0
M  V30 3748 H 349.037 2.57679 7.35678 0
M  V30 3749 N 353.266 -1.05314 1.17247 0
M  V30 3750 C 354.196 -2.1498 0.911362 0
M  V30 3751 C 355.177 -1.69471 -0.146169 0
M  V30 3752 O 356.362 -1.942 0.003812 0
M  V30 3753 C 353.492 -3.4472 0.422528 0
M  V30 3754 C 352.446 -4.03789 1.4191 0
M  V30 3755 C 351.772 -5.28858 0.788274 0
M  V30 3756 C 353.072 -4.41418 2.7919 0
M  V30 3757 H 354.766 -2.3708 1.82848 0
M  V30 3758 H 352.312 -1.13938 0.880569 0
M  V30 3759 H 354.265 -4.20787 0.227289 0
M  V30 3760 H 352.989 -3.22269 -0.530123 0
M  V30 3761 H 351.648 -3.2979 1.60106 0
M  V30 3762 H 351.296 -5.02709 -0.171173 0
M  V30 3763 H 350.996 -5.69338 1.45353 0
M  V30 3764 H 352.52 -6.07612 0.603282 0
M  V30 3765 H 353.934 -5.08524 2.64719 0
M  V30 3766 H 352.331 -4.92913 3.42282 0
M  V30 3767 H 353.401 -3.51819 3.33693 0
M  V30 3768 N 354.744 -0.972509 -1.24016 0
M  V30 3769 C 356.155 -0.67517 -1.74064 0
M  V30 3770 C 356.506 0.808939 -1.78747 0
M  V30 3771 O 355.631 1.63286 -1.42009 0
M  V30 3772 C 356.226 -1.21889 -3.16115 0
M  V30 3773 C 354.785 -0.971358 -3.6365 0
M  V30 3774 C 353.932 -1.35134 -2.42145 0
M  V30 3775 H 356.883 -1.14727 -1.09651 0
M  V30 3776 H 356.904 -0.587489 -3.75937 0
M  V30 3777 H 356.416 -2.29906 -3.12674 0
M  V30 3778 H 354.517 0.0930686 -3.72484 0
M  V30 3779 H 354.63 -1.62039 -4.50866 0
M  V30 3780 H 352.994 -0.769751 -2.4279 0
M  V30 3781 H 353.777 -2.4411 -2.41381 0
M  V30 3782 N 356.222 1.38976 -0.743202 0
M  V30 3783 C 357.468 2.0064 -0.295189 0
M  V30 3784 C 357.801 1.5885 1.11716 0
M  V30 3785 O 357.076 0.821181 1.76315 0
M  V30 3786 C 357.359 3.578 -0.406318 0
M  V30 3787 C 357.212 4.09586 -1.85903 0
M  V30 3788 C 358.531 4.39616 0.206439 0
M  V30 3789 H 355.65 0.728935 -0.108733 0
M  V30 3790 H 358.292 1.65067 -0.940897 0
M  V30 3791 H 356.442 3.88235 0.143419 0
M  V30 3792 H 358.114 3.89837 -2.46627 0
M  V30 3793 H 356.357 3.6284 -2.3776 0
M  V30 3794 H 357.028 5.18708 -1.888 0
M  V30 3795 H 359.504 4.15273 -0.262283 0
M  V30 3796 H 358.38 5.48812 0.0983819 0
M  V30 3797 H 358.641 4.22754 1.2935 0
M  V30 3798 N 357.7 0.491464 1.49741 0
M  V30 3799 C 358.977 -0.118984 1.95238 0
M  V30 3800 C 359.357 -1.55044 1.43264 0
M  V30 3801 O 358.705 -2.19287 0.642287 0
M  V30 3802 C 358.915 -0.0414187 3.48975 0
M  V30 3803 C 360.263 -0.220133 4.24029 0
M  V30 3804 O 361.287 -0.117055 3.56008 0
M  V30 3805 O 360.146 -0.430567 5.44801 0
M  V30 3806 H 357.24 -0.100536 0.820866 0
M  V30 3807 H 359.786 0.553322 1.60426 0
M  V30 3808 H 358.558 0.957214 3.79412 0
M  V30 3809 H 358.181 -0.754292 3.9038 0
M  V30 3810 N 359.178 -1.55987 0.224894 0
M  V30 3811 C 360.125 -2.20436 -0.68385 0
M  V30 3812 C 361.095 -1.16102 -1.18783 0
M  V30 3813 O 362.28 -1.4447 -1.24632 0
M  V30 3814 C 359.42 -2.89076 -1.88491 0
M  V30 3815 C 358.533 -4.08012 -1.41951 0
M  V30 3816 C 357.668 -4.64426 -2.5784 0
M  V30 3817 C 356.707 -5.75656 -2.08053 0
M  V30 3818 N 355.844 -6.26347 -3.17227 0
M  V30 3819 H 360.684 -2.97727 -0.12754 0
M  V30 3820 H 358.221 -1.47011 -0.0511978 0
M  V30 3821 H 360.179 -3.27059 -2.59014 0
M  V30 3822 H 358.809 -2.14298 -2.41405 0
M  V30 3823 H 357.861 -3.75492 -0.609095 0
M  V30 3824 H 359.173 -4.88375 -1.01447 0
M  V30 3825 H 358.327 -5.04869 -3.3644 0
M  V30 3826 H 357.066 -3.83233 -3.01635 0
M  V30 3827 H 356.071 -5.34712 -1.27916 0
M  V30 3828 H 357.296 -6.58686 -1.65255 0
M  V30 3829 H 355.242 -5.48067 -3.60497 0
M  V30 3830 H 355.159 -7.01843 -2.80986 0
M  V30 3831 H 356.427 -6.71447 -3.95953 0
M  V30 3832 N 360.656 0.0484629 -1.57525 0
M  V30 3833 C 361.884 0.755421 -1.92616 0
M  V30 3834 C 362.299 1.69919 -0.822984 0
M  V30 3835 O 361.656 1.81378 0.202085 0
M  V30 3836 C 361.707 1.52915 -3.27566 0
M  V30 3837 O 361.428 0.62329 -4.33644 0
M  V30 3838 C 362.929 2.33502 -3.76818 0
M  V30 3839 H 360.149 0.213465 -0.63614 0
M  V30 3840 H 362.693 0.0117698 -2.04497 0
M  V30 3841 H 360.848 2.22486 -3.17142 0
M  V30 3842 H 361.262 1.16383 -5.11425 0
M  V30 3843 H 362.736 2.83214 -4.73808 0
M  V30 3844 H 363.213 3.14068 -3.07014 0
M  V30 3845 H 363.819 1.69043 -3.90262 0
M  V30 3846 N 362.134 1.5431 0.320358 0
M  V30 3847 C 363.362 1.76636 1.07738 0
M  V30 3848 C 363.777 0.51649 1.81598 0
M  V30 3849 O 363.134 -0.512942 1.75143 0
M  V30 3850 C 363.185 2.96158 2.07299 0
M  V30 3851 O 362.906 4.16313 1.36438 0
M  V30 3852 C 364.407 3.3072 2.95193 0
M  V30 3853 H 361.627 0.589597 0.320339 0
M  V30 3854 H 364.171 2.01207 0.36551 0
M  V30 3855 H 362.326 2.73851 2.74016 0
M  V30 3856 H 362.74 4.83565 2.03138 0
M  V30 3857 H 364.214 4.17643 3.60941 0
M  V30 3858 H 364.691 2.48026 3.62463 0
M  V30 3859 H 365.297 3.55117 2.34034 0
M  V30 3860 N 363.613 -0.582584 1.46437 0
M  V30 3861 C 364.838 -1.37168 1.55563 0
M  V30 3862 C 365.263 -1.87061 0.19743 0
M  V30 3863 O 364.621 -1.61572 -0.822451 0
M  V30 3864 C 364.669 -2.53511 2.56446 0
M  V30 3865 O 363.773 -3.54953 2.09958 0
M  V30 3866 H 363.114 -0.408494 0.523477 0
M  V30 3867 H 365.644 -0.706646 1.9201 0
M  V30 3868 H 365.654 -3.00426 2.76058 0
M  V30 3869 H 364.329 -2.16549 3.55076 0
M  V30 3870 H 362.906 -3.14516 2.00334 0
M  V30 3871 N 365.091 -1.34144 -0.827227 0
M  V30 3872 C 366.331 -1.27603 -1.59677 0
M  V30 3873 C 366.695 0.153035 -1.91389 0
M  V30 3874 O 367.896 0.342566 -2.66608 0
M  V30 3875 C 366.167 -2.13784 -2.86411 0
M  V30 3876 S 367.726 -2.24552 -3.76991 0
M  V30 3877 H 364.544 -0.453789 -0.547354 0
M  V30 3878 H 367.146 -1.69309 -0.977479 0
M  V30 3879 H 365.85 -3.16627 -2.61104 0
M  V30 3880 H 365.381 -1.72959 -3.5334 0
M  V30 3881 H 367.396 -1.41514 -4.75593 0
M  V30 3882 N 366.569 1.04691 -1.17803 0
M  V30 3883 C 367.809 1.79352 -0.980423 0
M  V30 3884 C 368.173 1.85853 0.481958 0
M  V30 3885 O 369.374 2.56656 0.798809 0
M  V30 3886 C 367.645 3.19088 -1.6099 0
M  V30 3887 S 369.204 4.10164 -1.55918 0
M  V30 3888 H 366.022 0.617631 -0.352211 0
M  V30 3889 H 368.624 1.25575 -1.49837 0
M  V30 3890 H 367.328 3.11962 -2.66661 0
M  V30 3891 H 366.859 3.77941 -1.09197 0
M  V30 3892 H 368.874 4.92907 -0.570685 0
M  V30 3893 N 368.047 0.979072 1.23499 0
M  V30 3894 C 369.294 0.647219 1.91878 0
M  V30 3895 C 369.622 -0.819074 1.76413 0
M  V30 3896 O 368.877 -1.60616 1.11808 0
M  V30 3897 C 369.176 0.981932 3.43646 0
M  V30 3898 C 368.842 2.43822 3.79291 0
M  V30 3899 C 367.504 2.83622 3.88731 0
M  V30 3900 C 369.856 3.3828 3.96505 0
M  V30 3901 C 367.184 4.16897 4.12812 0
M  V30 3902 C 369.536 4.71197 4.22085 0
M  V30 3903 C 368.2 5.10758 4.29747 0
M  V30 3904 H 367.47 0.236834 0.702133 0
M  V30 3905 H 370.117 1.23268 1.46551 0
M  V30 3906 H 368.422 0.314365 3.90537 0
M  V30 3907 H 370.119 0.703395 3.94783 0
M  V30 3908 H 366.709 2.11966 3.72516 0
M  V30 3909 H 370.893 3.0871 3.88603 0
M  V30 3910 H 366.149 4.47157 4.16966 0
M  V30 3911 H 370.323 5.44348 4.34348 0
M  V30 3912 H 367.95 6.1405 4.48159 0
M  V30 3913 N 369.525 -1.3858 0.750561 0
M  V30 3914 C 370.773 -1.99789 0.30477 0
M  V30 3915 C 371.094 -1.59874 -1.11649 0
M  V30 3916 O 370.364 -0.85417 -1.76297 0
M  V30 3917 H 368.944 -0.738902 0.109694 0
M  V30 3918 H 371.606 -1.69391 0.963983 0
M  V30 3919 H 370.702 -3.09952 0.365499 0
M  V30 3920 N 371.003 -0.499398 -1.49478 0
M  V30 3921 C 372.251 0.0455996 -2.02049 0
M  V30 3922 C 372.572 1.37633 -1.38138 0
M  V30 3923 O 371.842 1.8842 -0.536166 0
M  V30 3924 H 370.422 0.0198416 -0.746736 0
M  V30 3925 H 373.084 -0.656274 -1.83519 0
M  V30 3926 H 372.18 0.176445 -3.11601 0
M  V30 3927 N 372.481 1.55866 -0.233164 0
M  V30 3928 C 373.428 2.20796 0.67215 0
M  V30 3929 C 374.398 1.16731 1.18166 0
M  V30 3930 O 375.583 1.45129 1.23864 0
M  V30 3931 C 372.723 2.90072 1.86955 0
M  V30 3932 C 371.836 4.08759 1.39786 0
M  V30 3933 C 370.971 4.65787 2.55374 0
M  V30 3934 C 370.01 5.76752 2.04998 0
M  V30 3935 N 369.147 6.28021 3.13901 0
M  V30 3936 H 373.987 2.9779 0.111749 0
M  V30 3937 H 371.524 1.47036 0.0434007 0
M  V30 3938 H 373.482 3.28428 2.57276 0
M  V30 3939 H 372.112 2.15575 2.40265 0
M  V30 3940 H 371.164 3.7581 0.589173 0
M  V30 3941 H 372.476 4.88906 0.98856 0
M  V30 3942 H 371.63 5.06646 3.33758 0
M  V30 3943 H 370.369 3.84828 2.99598 0
M  V30 3944 H 369.374 5.35383 1.25079 0
M  V30 3945 H 370.599 6.59553 1.61759 0
M  V30 3946 H 368.545 5.49971 3.57586 0
M  V30 3947 H 368.462 7.03323 2.7726 0
M  V30 3948 H 369.73 6.73538 3.92386 0
M  V30 3949 N 373.959 -0.0401083 1.57549 0
M  V30 3950 C 374.907 -1.06264 2.06908 0
M  V30 3951 C 375.901 -1.38132 0.980608 0
M  V30 3952 O 377.107 -1.37167 1.16556 0
M  V30 3953 H 373.482 -0.360166 0.660139 0
M  V30 3954 H 375.453 -0.620445 2.91878 0
M  V30 3955 C 374.202 -2.35846 2.55483 0
M  V30 3956 H 373.525 -2.12183 3.38849 0
M  V30 3957 H 374.965 -3.05765 2.93741 0
M  V30 3958 C 373.424 -3.0404 1.45126 0
M  V30 3959 O 373.954 -3.93424 0.811216 0
M  V30 3960 N 372.16 -2.65184 1.18852 0
M  V30 3961 H 371.707 -1.92584 1.71083 0
M  V30 3962 H 371.665 -3.1113 0.452244 0
M  V30 3963 N 375.437 -1.54477 -0.31217 0
M  V30 3964 C 376.667 -1.76948 -1.06645 0
M  V30 3965 C 377.075 -0.523593 -1.81811 0
M  V30 3966 O 376.418 0.51578 -1.76311 0
M  V30 3967 C 376.48 -2.91668 -2.10166 0
M  V30 3968 C 376.144 -4.30165 -1.54296 0
M  V30 3969 C 377.141 -5.10603 -0.978793 0
M  V30 3970 C 374.826 -4.76738 -1.58196 0
M  V30 3971 C 376.82 -6.3573 -0.461048 0
M  V30 3972 C 374.507 -6.01831 -1.06034 0
M  V30 3973 C 375.505 -6.81161 -0.500844 0
M  V30 3974 O 375.193 -8.03899 0.0128958 0
M  V30 3975 H 374.925 -0.594088 -0.322546 0
M  V30 3976 H 377.479 -2.02213 -0.360441 0
M  V30 3977 H 375.709 -2.62001 -2.84416 0
M  V30 3978 H 377.398 -3.01817 -2.71406 0
M  V30 3979 H 378.164 -4.75771 -0.941651 0
M  V30 3980 H 374.043 -4.15027 -2.00683 0
M  V30 3981 H 377.587 -6.97596 -0.0236894 0
M  V30 3982 H 373.484 -6.36152 -1.09459 0
M  V30 3983 H 374.252 -8.18437 -0.101457 0
M  V30 3984 N 376.915 0.57481 -1.46744 0
M  V30 3985 C 378.14 1.36341 -1.56288 0
M  V30 3986 C 378.565 1.86954 -0.207347 0
M  V30 3987 O 377.923 1.62006 0.813871 0
M  V30 3988 C 377.971 2.52147 -2.57787 0
M  V30 3989 O 377.075 3.53834 -2.11838 0
M  V30 3990 H 376.416 0.405713 -0.525636 0
M  V30 3991 H 378.946 0.696453 -1.92382 0
M  V30 3992 H 378.956 2.98958 -2.77648 0
M  V30 3993 H 377.631 2.14663 -3.5622 0
M  V30 3994 H 376.208 3.1345 -2.01999 0
M  V30 3995 N 378.394 1.34581 0.820102 0
M  V30 3996 C 379.304 1.28471 1.96297 0
M  V30 3997 C 380.32 0.191902 1.72939 0
M  V30 3998 O 381.496 0.418879 1.96996 0
M  V30 3999 C 378.561 1.04281 3.30645 0
M  V30 4000 C 377.622 2.22745 3.66992 0
M  V30 4001 C 376.855 1.997 4.9493 0
M  V30 4002 O 377.078 0.956656 5.6232 0
M  V30 4003 O 376.012 2.86723 5.2922 0
M  V30 4004 H 379.838 2.24624 2.04396 0
M  V30 4005 H 377.423 1.14816 0.955913 0
M  V30 4006 H 379.305 0.925841 4.11104 0
M  V30 4007 H 377.98 0.111697 3.23507 0
M  V30 4008 H 376.887 2.40003 2.86966 0
M  V30 4009 H 378.22 3.14257 3.78819 0
M  V30 4010 N 379.872 -1.04064 1.18357 0
M  V30 4011 C 380.805 -2.11618 0.854 0
M  V30 4012 C 381.783 -1.61555 -0.184043 0
M  V30 4013 O 382.967 -1.88395 -0.0630048 0
M  V30 4014 C 380.094 -3.37574 0.27597 0
M  V30 4015 C 379.14 -4.06485 1.2912 0
M  V30 4016 S 379.973 -4.53543 2.84709 0
M  V30 4017 C 381.129 -5.82732 2.28417 0
M  V30 4018 H 381.362 -2.39247 1.76488 0
M  V30 4019 H 378.895 -1.16832 1.00944 0
M  V30 4020 H 380.853 -4.10468 -0.051026 0
M  V30 4021 H 379.514 -3.0806 -0.613028 0
M  V30 4022 H 378.707 -4.97024 0.835633 0
M  V30 4023 H 378.309 -3.39708 1.56443 0
M  V30 4024 H 380.601 -6.56677 1.66677 0
M  V30 4025 H 381.544 -6.33052 3.17256 0
M  V30 4026 H 381.952 -5.37838 1.71436 0
M  V30 4027 N 381.35 -0.985608 -1.22978 0
M  V30 4028 C 382.58 -0.674603 -1.95276 0
M  V30 4029 C 382.988 0.763483 -1.73111 0
M  V30 4030 O 382.331 1.52601 -1.02268 0
M  V30 4031 C 382.393 -0.891597 -3.48268 0
M  V30 4032 C 382.057 -2.31275 -3.94158 0
M  V30 4033 C 383.054 -3.29179 -4.02415 0
M  V30 4034 C 380.739 -2.64524 -4.27004 0
M  V30 4035 C 382.733 -4.58407 -4.42879 0
M  V30 4036 C 380.42 -3.93974 -4.67149 0
M  V30 4037 C 381.418 -4.90727 -4.75053 0
M  V30 4038 O 381.106 -6.17865 -5.14294 0
M  V30 4039 H 380.838 -0.249251 -0.628371 0
M  V30 4040 H 383.392 -1.32106 -1.5728 0
M  V30 4041 H 381.622 -0.187962 -3.86243 0
M  V30 4042 H 383.311 -0.576957 -4.01779 0
M  V30 4043 H 384.077 -3.04823 -3.77237 0
M  V30 4044 H 379.956 -1.89923 -4.2006 0
M  V30 4045 H 383.5 -5.33926 -4.48964 0
M  V30 4046 H 379.397 -4.18122 -4.91777 0
M  V30 4047 H 380.165 -6.21694 -5.32389 0
M  V30 4048 N 382.828 1.3818 -0.7579 0
M  V30 4049 C 384.074 2.00316 -0.316453 0
M  V30 4050 C 384.407 1.60026 1.10025 0
M  V30 4051 O 383.682 0.839835 1.75434 0
M  V30 4052 C 383.965 3.57349 -0.444245 0
M  V30 4053 C 383.818 4.07591 -1.90236 0
M  V30 4054 C 385.137 4.3981 0.1598 0
M  V30 4055 H 382.256 0.727741 -0.116459 0
M  V30 4056 H 384.898 1.6406 -0.958352 0
M  V30 4057 H 383.048 3.88365 0.102233 0
M  V30 4058 H 384.72 3.87199 -2.50748 0
M  V30 4059 H 382.963 3.60297 -2.41595 0
M  V30 4060 H 383.634 5.16677 -1.94291 0
M  V30 4061 H 386.11 4.14971 -0.306314 0
M  V30 4062 H 384.986 5.48885 0.0401675 0
M  V30 4063 H 385.247 4.24102 1.24859 0
M  V30 4064 N 384.306 0.507319 1.49211 0
M  V30 4065 C 385.534 -0.0315749 2.06876 0
M  V30 4066 C 385.949 -1.30241 1.36685 0
M  V30 4067 O 385.306 -1.76937 0.447152 0
M  V30 4068 C 385.357 -0.282627 3.60393 0
M  V30 4069 O 385.078 0.937835 4.27944 0
M  V30 4070 C 386.579 -0.864453 4.3479 0
M  V30 4071 H 383.799 0.0233048 0.670595 0
M  V30 4072 H 386.343 0.706484 1.91909 0
M  V30 4073 H 384.498 -0.97068 3.75042 0
M  V30 4074 H 384.912 0.704567 5.19746 0
M  V30 4075 H 386.386 -0.989664 5.43056 0
M  V30 4076 H 386.863 -1.86382 3.97692 0
M  V30 4077 H 387.469 -0.213672 4.24763 0
M  V30 4078 N 385.784 -1.5574 0.241426 0
M  V30 4079 C 387.024 -2.00714 -0.38644 0
M  V30 4080 C 387.388 -1.12586 -1.55526 0
M  V30 4081 O 388.589 -1.46992 -2.25048 0
M  V30 4082 C 386.86 -3.48534 -0.791128 0
M  V30 4083 S 388.419 -4.15519 -1.41029 0
M  V30 4084 H 385.237 -0.700484 -0.121834 0
M  V30 4085 H 387.839 -1.92243 0.355377 0
M  V30 4086 H 386.543 -4.10342 0.0689225 0
M  V30 4087 H 386.074 -3.6092 -1.56526 0
M  V30 4088 H 388.089 -4.16352 -2.69936 0
M  V30 4089 N 387.262 0.0317525 -1.57568 0
M  V30 4090 C 388.225 1.01783 -2.0536 0
M  V30 4091 C 389.225 1.29203 -0.957253 0
M  V30 4092 O 390.415 1.24251 -1.22095 0
M  V30 4093 C 387.547 2.35137 -2.46827 0
M  V30 4094 H 388.74 0.605062 -2.93733 0
M  V30 4095 H 386.293 0.278514 -1.53799 0
M  V30 4096 H 387.028 2.81168 -1.61602 0
M  V30 4097 H 386.813 2.16566 -3.26866 0
M  V30 4098 H 388.303 3.05938 -2.84239 0
M  V30 4099 N 388.74 1.54641 0.303973 0
M  V30 4100 C 390.156 1.45788 0.649463 0
M  V30 4101 C 390.356 0.64666 1.90842 0
M  V30 4102 O 389.412 0.153183 2.52035 0
M  V30 4103 C 390.725 2.89718 0.805227 0
M  V30 4104 C 392.273 2.99742 0.901305 0
M  V30 4105 C 392.748 4.44863 1.08909 0
M  V30 4106 N 394.239 4.48559 1.15536 0
M  V30 4107 C 394.974 5.58026 1.3189 0
M  V30 4108 N 394.47 6.77422 1.45161 0
M  V30 4109 N 396.263 5.45708 1.34755 0
M  V30 4110 H 388.414 2.05854 -0.523237 0
M  V30 4111 H 390.677 0.932186 -0.172431 0
M  V30 4112 H 390.383 3.51666 -0.0489108 0
M  V30 4113 H 390.257 3.36964 1.69513 0
M  V30 4114 H 392.644 2.3791 1.74593 0
M  V30 4115 H 392.725 2.55797 -0.0125531 0
M  V30 4116 H 392.369 5.07288 0.249241 0
M  V30 4117 H 392.299 4.86436 2.01713 0
M  V30 4118 H 394.79 3.6254 1.06646 0
M  V30 4119 H 395.103 7.56604 1.57387 0
M  V30 4120 H 393.448 6.80292 1.42223 0
M  V30 4121 H 396.639 4.51378 1.23996 0
M  V30 4122 H 396.812 6.3107 1.47157 0
M  V30 4123 N 390.218 -0.567019 1.47046 0
M  V30 4124 C 391.495 -1.3276 1.43646 0
M  V30 4125 C 391.875 -2.1071 0.128186 0
M  V30 4126 O 391.223 -2.10441 -0.890326 0
M  V30 4127 C 391.433 -2.2404 2.67595 0
M  V30 4128 C 392.781 -2.85372 3.14401 0
M  V30 4129 O 393.805 -2.34346 2.68254 0
M  V30 4130 O 392.664 -3.78091 3.946 0
M  V30 4131 H 389.758 -0.597293 0.571988 0
M  V30 4132 H 392.304 -0.586735 1.59234 0
M  V30 4133 H 391.076 -1.65975 3.54356 0
M  V30 4134 H 390.699 -3.05439 2.54544 0
M  V30 4135 N 391.696 -1.35014 -0.812953 0
M  V30 4136 C 392.944 -1.27678 -1.56661 0
M  V30 4137 C 393.265 0.150359 -1.94419 0
M  V30 4138 O 392.535 1.08532 -1.63088 0
M  V30 4139 H 391.115 -0.469602 -0.580933 0
M  V30 4140 H 393.777 -1.69043 -0.970076 0
M  V30 4141 H 392.873 -1.88833 -2.48492 0
M  V30 4142 N 393.175 1.03435 -1.18907 0
M  V30 4143 C 394.108 2.11162 -0.86521 0
M  V30 4144 C 395.086 1.6165 0.175473 0
M  V30 4145 O 396.27 1.88425 0.0530129 0
M  V30 4146 C 393.397 3.37423 -0.293868 0
M  V30 4147 C 392.443 4.05795 -1.31274 0
M  V30 4148 S 393.276 4.52027 -2.8711 0
M  V30 4149 C 394.432 5.81513 -2.31504 0
M  V30 4150 H 394.665 2.38308 -1.77754 0
M  V30 4151 H 392.198 1.16295 -1.01562 0
M  V30 4152 H 394.156 4.1049 0.0292572 0
M  V30 4153 H 392.817 3.0838 0.596682 0
M  V30 4154 H 392.01 4.96574 -0.86198 0
M  V30 4155 H 391.612 3.38874 -1.58242 0
M  V30 4156 H 393.904 6.55784 -1.70157 0
M  V30 4157 H 394.847 6.3136 -3.20608 0
M  V30 4158 H 395.255 5.36921 -1.74286 0
M  V30 4159 N 394.653 0.992116 1.22453 0
M  V30 4160 C 395.93 0.583508 1.86694 0
M  V30 4161 C 396.31 -0.9392 1.89056 0
M  V30 4162 O 395.658 -1.82081 1.38053 0
M  V30 4163 C 395.868 1.20304 3.2761 0
M  V30 4164 C 397.216 1.30308 4.0411 0
M  V30 4165 O 398.24 1.15737 3.36873 0
M  V30 4166 O 397.099 1.53615 5.24466 0
M  V30 4167 H 394.193 0.198129 0.802916 0
M  V30 4168 H 396.739 1.08794 1.30238 0
M  V30 4169 H 395.511 2.24461 3.2052 0
M  V30 4170 H 395.134 0.684144 3.9167 0
M  V30 4171 N 396.131 -1.37776 0.765217 0
M  V30 4172 C 397.542 -1.82521 0.392819 0
M  V30 4173 C 397.893 -1.63789 -1.08017 0
M  V30 4174 O 397.018 -1.14542 -1.83601 0
M  V30 4175 C 397.613 -3.31358 0.706214 0
M  V30 4176 C 396.172 -3.74406 0.386952 0
M  V30 4177 C 395.319 -2.60394 0.953422 0
M  V30 4178 H 398.27 -1.2634 0.960412 0
M  V30 4179 H 398.291 -3.80498 -0.0114706 0
M  V30 4180 H 397.803 -3.44959 1.77833 0
M  V30 4181 H 395.904 -3.66377 -0.678112 0
M  V30 4182 H 396.017 -4.70749 0.890636 0
M  V30 4183 H 394.381 -2.51878 0.378064 0
M  V30 4184 H 395.164 -2.76791 2.03081 0
M  V30 4185 N 397.609 -0.515225 -1.4894 0
M  V30 4186 C 398.519 0.259774 -2.33157 0
M  V30 4187 C 399.535 0.953501 -1.45548 0
M  V30 4188 O 400.711 0.931735 -1.78552 0
M  V30 4189 C 397.776 1.30193 -3.21326 0
M  V30 4190 C 396.837 0.620129 -4.24797 0
M  V30 4191 C 396.07 1.61263 -5.08753 0
M  V30 4192 O 396.293 2.84389 -4.94448 0
M  V30 4193 O 395.227 1.16013 -5.90614 0
M  V30 4194 H 399.053 -0.429932 -3.00641 0
M  V30 4195 H 396.638 -0.276346 -1.46822 0
M  V30 4196 H 398.52 1.90455 -3.75905 0
M  V30 4197 H 397.195 1.97431 -2.56521 0
M  V30 4198 H 396.102 -0.0226019 -3.74093 0
M  V30 4199 H 397.435 -0.0100493 -4.92199 0
M  V30 4200 N 399.087 1.5561 -0.249682 0
M  V30 4201 C 400.335 1.98618 0.373548 0
M  V30 4202 C 400.656 1.13919 1.58264 0
M  V30 4203 O 399.926 0.222637 1.94631 0
M  V30 4204 H 398.506 0.733571 0.141006 0
M  V30 4205 H 401.168 1.91748 -0.349117 0
M  V30 4206 H 400.264 3.04584 0.680796 0
M  V30 4207 N 400.565 -0.0233959 1.57583 0
M  V30 4208 C 401.495 -1.02162 2.09965 0
M  V30 4209 C 402.476 -1.3735 1.00344 0
M  V30 4210 O 403.661 -1.46135 1.27899 0
M  V30 4211 C 400.791 -2.32081 2.58371 0
M  V30 4212 C 399.745 -2.1112 3.72307 0
M  V30 4213 C 399.071 -3.46848 4.06941 0
M  V30 4214 C 400.371 -1.49276 5.00514 0
M  V30 4215 H 402.065 -0.585557 2.93618 0
M  V30 4216 H 399.611 -0.280218 1.41247 0
M  V30 4217 H 401.564 -3.02249 2.93639 0
M  V30 4218 H 400.288 -2.77758 1.71808 0
M  V30 4219 H 398.947 -1.43384 3.37397 0
M  V30 4220 H 398.595 -3.90184 3.17436 0
M  V30 4221 H 398.295 -3.33646 4.83688 0
M  V30 4222 H 399.819 -4.18369 4.44747 0
M  V30 4223 H 401.233 -2.09368 5.33702 0
M  V30 4224 H 399.63 -1.46632 5.8191 0
M  V30 4225 H 400.7 -0.459217 4.82721 0
M  V30 4226 N 402.043 -1.548 -0.295768 0
M  V30 4227 C 402.973 -1.89115 -1.36959 0
M  V30 4228 C 403.954 -0.75059 -1.52644 0
M  V30 4229 O 405.139 -1.00678 -1.66065 0
M  V30 4230 C 402.269 -2.14307 -2.73295 0
M  V30 4231 C 401.223 -3.30151 -2.72368 0
M  V30 4232 C 400.549 -3.40772 -4.12042 0
M  V30 4233 C 401.849 -4.67126 -2.33646 0
M  V30 4234 H 403.543 -2.79053 -1.08488 0
M  V30 4235 H 401.089 -1.34266 -0.520443 0
M  V30 4236 H 403.042 -2.36898 -3.48507 0
M  V30 4237 H 401.766 -1.21145 -3.03301 0
M  V30 4238 H 400.425 -3.0749 -1.99613 0
M  V30 4239 H 400.073 -2.45117 -4.39234 0
M  V30 4240 H 399.773 -4.18645 -4.12322 0
M  V30 4241 H 401.297 -3.6563 -4.89027 0
M  V30 4242 H 402.711 -4.89414 -2.98575 0
M  V30 4243 H 401.108 -5.47751 -2.45129 0
M  V30 4244 H 402.178 -4.67489 -1.28772 0
M  V30 4245 N 403.521 0.559213 -1.47345 0
M  V30 4246 C 404.937 0.884943 -1.32819 0
M  V30 4247 C 405.137 1.98988 -0.317173 0
M  V30 4248 O 404.193 2.51031 0.272011 0
M  V30 4249 C 405.506 1.28007 -2.72093 0
M  V30 4250 C 407.054 1.39161 -2.80363 0
M  V30 4251 C 407.529 1.82031 -4.20272 0
M  V30 4252 N 409.02 1.89185 -4.22804 0
M  V30 4253 C 409.755 2.2368 -5.27973 0
M  V30 4254 N 409.251 2.56802 -6.43447 0
M  V30 4255 N 411.044 2.24436 -5.15349 0
M  V30 4256 H 403.195 -0.170304 -2.11716 0
M  V30 4257 H 405.458 -0.0135247 -0.947904 0
M  V30 4258 H 405.164 0.542027 -3.47498 0
M  V30 4259 H 405.038 2.23665 -3.03733 0
M  V30 4260 H 407.425 2.12048 -2.05231 0
M  V30 4261 H 407.506 0.41696 -2.52379 0
M  V30 4262 H 407.15 1.09715 -4.95908 0
M  V30 4263 H 407.08 2.80495 -4.45679 0
M  V30 4264 H 409.571 1.65982 -3.39497 0
M  V30 4265 H 409.884 2.82144 -7.19454 0
M  V30 4266 H 408.229 2.54387 -6.46771 0
M  V30 4267 H 411.42 1.97998 -4.24163 0
M  V30 4268 H 411.593 2.50989 -5.97418 0
M  V30 4269 N 404.999 1.35443 0.805782 0
M  V30 4270 C 405.931 1.24285 1.92577 0
M  V30 4271 C 406.944 0.165962 1.61952 0
M  V30 4272 O 408.133 0.419303 1.73505 0
M  V30 4273 C 405.233 0.891272 3.2697 0
M  V30 4274 C 404.406 2.06669 3.85495 0
M  V30 4275 C 403.465 1.69077 4.98297 0
M  V30 4276 O 402.491 2.4096 5.15681 0
M  V30 4277 N 403.693 0.614869 5.77234 0
M  V30 4278 H 406.458 2.20777 2.02676 0
M  V30 4279 H 404.019 1.28623 0.983243 0
M  V30 4280 H 406.011 0.621256 3.99903 0
M  V30 4281 H 404.581 0.016004 3.12596 0
M  V30 4282 H 403.801 2.50046 3.04747 0
M  V30 4283 H 405.089 2.85237 4.21328 0
M  V30 4284 H 404.487 0.017648 5.65697 0
M  V30 4285 H 403.044 0.404636 6.50543 0
M  V30 4286 N 406.477 -1.02803 1.19454 0
M  V30 4287 C 407.888 -1.57667 0.999899 0
M  V30 4288 C 408.239 -1.91041 -0.446956 0
M  V30 4289 O 407.364 -1.70978 -1.32648 0
M  V30 4290 C 407.959 -2.86477 1.80877 0
M  V30 4291 C 406.518 -3.37911 1.65811 0
M  V30 4292 C 405.665 -2.11343 1.79526 0
M  V30 4293 H 408.616 -0.853214 1.33813 0
M  V30 4294 H 408.637 -3.57408 1.30536 0
M  V30 4295 H 408.149 -2.62155 2.86175 0
M  V30 4296 H 406.25 -3.67218 0.63102 0
M  V30 4297 H 406.363 -4.10885 2.46395 0
M  V30 4298 H 404.727 -2.23254 1.22596 0
M  V30 4299 H 405.51 -1.89461 2.86285 0
M  V30 4300 N 407.956 -0.998596 -1.21925 0
M  V30 4301 C 408.866 -0.562736 -2.27751 0
M  V30 4302 C 409.882 0.391203 -1.69545 0
M  V30 4303 O 411.058 0.256625 -1.99758 0
M  V30 4304 C 408.123 0.11012 -3.46525 0
M  V30 4305 C 407.184 -0.887495 -4.20026 0
M  V30 4306 C 406.417 -0.246654 -5.3313 0
M  V30 4307 O 406.64 0.958088 -5.62296 0
M  V30 4308 O 405.574 -0.954374 -5.94286 0
M  V30 4309 H 409.4 -1.44329 -2.67213 0
M  V30 4310 H 406.985 -0.767135 -1.28201 0
M  V30 4311 H 408.867 0.486756 -4.18579 0
M  V30 4312 H 407.542 0.965154 -3.08976 0
M  V30 4313 H 406.449 -1.31517 -3.5022 0
M  V30 4314 H 407.782 -1.71191 -4.6147 0
M  V30 4315 N 409.434 1.37368 -0.772513 0
M  V30 4316 C 410.397 2.28601 -0.165541 0
M  V30 4317 C 411.397 1.48062 0.627238 0
M  V30 4318 O 412.587 1.68268 0.450715 0
M  V30 4319 C 409.719 3.32023 0.772897 0
M  V30 4320 H 410.912 2.83787 -0.969787 0
M  V30 4321 H 408.465 1.46647 -0.540775 0
M  V30 4322 H 409.2 2.81962 1.60212 0
M  V30 4323 H 408.985 3.91555 0.206585 0
M  V30 4324 H 410.475 4.00197 1.19298 0
M  V30 4325 N 410.912 0.523116 1.48665 0
M  V30 4326 C 412.16 -0.0134497 2.02096 0
M  V30 4327 C 412.481 -1.35418 1.40311 0
M  V30 4328 O 411.751 -1.87543 0.566074 0
M  V30 4329 H 410.331 -0.00795915 0.746958 0
M  V30 4330 H 412.993 0.685388 1.82451 0
M  V30 4331 H 412.089 -0.126849 3.11842 0
M  V30 4332 N 412.39 -1.55475 0.257931 0
M  V30 4333 C 413.638 -1.98813 -0.363009 0
M  V30 4334 C 413.959 -1.14757 -1.57657 0
M  V30 4335 O 413.229 -0.232956 -1.9451 0
M  V30 4336 H 411.809 -0.734308 -0.137113 0
M  V30 4337 H 414.471 -1.9156 0.359281 0
M  V30 4338 H 413.567 -3.04941 -0.664634 0
M  V30 4339 N 413.868 0.0150385 -1.57593 0
M  V30 4340 C 415.117 0.702115 -1.89085 0
M  V30 4341 C 415.43 1.75764 -0.858277 0
M  V30 4342 O 416.636 2.49829 -1.0629 0
M  V30 4343 C 415.092 1.29992 -3.35604 0
M  V30 4344 C 414.7 0.280007 -4.47124 0
M  V30 4345 C 416.444 1.96606 -3.76227 0
M  V30 4346 C 414.351 0.886949 -5.84711 0
M  V30 4347 H 413.281 0.265997 -0.705522 0
M  V30 4348 H 415.932 -0.0430408 -1.8345 0
M  V30 4349 H 414.314 2.09525 -3.36029 0
M  V30 4350 H 415.488 -0.489631 -4.58191 0
M  V30 4351 H 413.803 -0.284835 -4.15425 0
M  V30 4352 H 416.4 2.42893 -4.76347 0
M  V30 4353 H 416.743 2.79024 -3.08952 0
M  V30 4354 H 417.276 1.23828 -3.78036 0
M  V30 4355 H 414.015 0.101876 -6.55421 0
M  V30 4356 H 413.535 1.6261 -5.77337 0
M  V30 4357 H 415.214 1.39011 -6.3189 0
M  V30 4358 N 415.346 1.54954 0.287554 0
M  V30 4359 C 416.593 1.74873 1.02106 0
M  V30 4360 C 416.921 0.541829 1.86801 0
M  V30 4361 O 416.176 -0.475992 1.89823 0
M  V30 4362 C 416.475 2.99833 1.94512 0
M  V30 4363 C 416.141 4.33029 1.25686 0
M  V30 4364 C 414.803 4.69233 1.06649 0
M  V30 4365 C 417.155 5.15542 0.765913 0
M  V30 4366 C 414.483 5.85518 0.372222 0
M  V30 4367 C 416.835 6.32542 0.0853101 0
M  V30 4368 C 415.499 6.67398 -0.1169 0
M  V30 4369 H 414.769 0.639906 0.373632 0
M  V30 4370 H 417.416 1.89219 0.294665 0
M  V30 4371 H 415.721 2.80325 2.73725 0
M  V30 4372 H 417.418 3.1244 2.51361 0
M  V30 4373 H 414.008 4.04564 1.41512 0
M  V30 4374 H 418.192 4.88059 0.90066 0
M  V30 4375 H 413.448 6.11057 0.204695 0
M  V30 4376 H 417.622 6.95741 -0.302936 0
M  V30 4377 H 415.249 7.57357 -0.656859 0
M  V30 4378 N 416.824 -0.551391 1.4764 0
M  V30 4379 C 417.771 -1.65796 1.60563 0
M  V30 4380 C 418.741 -1.59932 0.448428 0
M  V30 4381 O 419.926 -1.78679 0.669222 0
M  V30 4382 C 417.066 -3.04108 1.63133 0
M  V30 4383 C 416.179 -3.20365 2.89811 0
M  V30 4384 C 415.314 -4.49109 2.8368 0
M  V30 4385 C 414.353 -4.58819 4.05156 0
M  V30 4386 N 413.49 -5.78926 3.97227 0
M  V30 4387 H 418.33 -1.54088 2.5507 0
M  V30 4388 H 415.867 -0.75052 1.26513 0
M  V30 4389 H 417.825 -3.84207 1.62606 0
M  V30 4390 H 416.455 -3.14637 0.721341 0
M  V30 4391 H 415.507 -2.33659 3.00179 0
M  V30 4392 H 416.819 -3.23402 3.79753 0
M  V30 4393 H 415.973 -5.37475 2.81434 0
M  V30 4394 H 414.712 -4.4856 1.91431 0
M  V30 4395 H 413.717 -3.68864 4.077 0
M  V30 4396 H 414.942 -4.61124 4.98539 0
M  V30 4397 H 412.888 -5.79314 3.07785 0
M  V30 4398 H 412.805 -5.83367 4.80853 0
M  V30 4399 H 414.073 -6.69637 3.99007 0
M  V30 4400 N 418.302 -1.35869 -0.798587 0
M  V30 4401 C 419.551 -1.28921 -1.5512 0
M  V30 4402 C 419.864 0.13208 -1.95154 0
M  V30 4403 O 421.07 0.323879 -2.69561 0
M  V30 4404 C 419.526 -2.26141 -2.79979 0
M  V30 4405 C 419.134 -3.73658 -2.47151 0
M  V30 4406 C 420.878 -2.28152 -3.57976 0
M  V30 4407 C 418.785 -4.62679 -3.6835 0
M  V30 4408 H 417.715 -0.479031 -0.582276 0
M  V30 4409 H 420.366 -1.61179 -0.877125 0
M  V30 4410 H 418.748 -1.86865 -3.49138 0
M  V30 4411 H 419.922 -4.21616 -1.85947 0
M  V30 4412 H 418.237 -3.74333 -1.82383 0
M  V30 4413 H 420.834 -2.91875 -4.4801 0
M  V30 4414 H 421.177 -1.28748 -3.95891 0
M  V30 4415 H 421.71 -2.65998 -2.95787 0
M  V30 4416 H 418.449 -5.63111 -3.35538 0
M  V30 4417 H 417.969 -4.19442 -4.28752 0
M  V30 4418 H 419.648 -4.78498 -4.35487 0
M  V30 4419 N 419.78 1.02168 -1.19998 0
M  V30 4420 C 421.008 1.79296 -1.03249 0
M  V30 4421 C 421.423 1.84103 0.418502 0
M  V30 4422 O 420.78 1.29031 1.29063 0
M  V30 4423 C 420.831 3.24007 -1.60319 0
M  V30 4424 O 420.552 3.19512 -2.99739 0
M  V30 4425 C 422.053 4.17704 -1.48453 0
M  V30 4426 H 419.273 0.564016 -0.363493 0
M  V30 4427 H 421.817 1.28639 -1.58973 0
M  V30 4428 H 419.972 3.7183 -1.08727 0
M  V30 4429 H 420.386 4.10306 -3.26725 0
M  V30 4430 H 421.86 5.17104 -1.93153 0
M  V30 4431 H 422.337 4.37029 -0.436193 0
M  V30 4432 H 422.943 3.7576 -1.99211 0
M  V30 4433 N 421.258 1.00505 1.21394 0
M  V30 4434 C 422.506 0.686415 1.90086 0
M  V30 4435 C 422.827 -0.785264 1.7849 0
M  V30 4436 O 422.097 -1.56387 1.17983 0
M  V30 4437 H 420.677 0.2509 0.703604 0
M  V30 4438 H 423.339 1.27417 1.47482 0
M  V30 4439 H 422.435 0.959621 2.96981 0
M  V30 4440 N 422.737 -1.36956 0.779787 0
M  V30 4441 C 423.667 -2.32761 0.185651 0
M  V30 4442 C 424.648 -1.56177 -0.673989 0
M  V30 4443 O 425.833 -1.84378 -0.609797 0
M  V30 4444 C 422.963 -3.40418 -0.687964 0
M  V30 4445 C 421.917 -4.27941 0.0710102 0
M  V30 4446 C 421.243 -5.26681 -0.922573 0
M  V30 4447 C 422.543 -5.07006 1.25467 0
M  V30 4448 H 424.237 -2.82698 0.986008 0
M  V30 4449 H 421.783 -1.3592 0.475592 0
M  V30 4450 H 423.736 -4.06423 -1.11348 0
M  V30 4451 H 422.46 -2.89025 -1.52093 0
M  V30 4452 H 421.119 -3.63478 0.47739 0
M  V30 4453 H 420.767 -4.71565 -1.7503 0
M  V30 4454 H 420.467 -5.86103 -0.419237 0
M  V30 4455 H 421.991 -5.9556 -1.34686 0
M  V30 4456 H 423.405 -5.66105 0.905401 0
M  V30 4457 H 421.802 -5.75793 1.69063 0
M  V30 4458 H 422.872 -4.3921 2.05481 0
M  V30 4459 N 424.215 -0.530993 -1.48385 0
M  V30 4460 C 425.463 0.00273189 -2.021 0
M  V30 4461 C 425.784 1.34672 -1.41027 0
M  V30 4462 O 425.054 1.8724 -0.576012 0
M  V30 4463 H 423.634 0.00399774 -0.746989 0
M  V30 4464 H 426.296 -0.695054 -1.82085 0
M  V30 4465 H 425.392 0.11031 -3.11905 0
M  V30 4466 N 425.693 1.55336 -0.266172 0
M  V30 4467 C 426.939 1.99692 0.353681 0
M  V30 4468 C 427.272 1.1543 1.56172 0
M  V30 4469 O 426.547 0.222218 1.93226 0
M  V30 4470 C 426.83 3.52316 0.74466 0
M  V30 4471 C 426.683 4.47337 -0.470101 0
M  V30 4472 C 428.002 4.10588 1.58447 0
M  V30 4473 H 425.121 0.725961 0.12708 0
M  V30 4474 H 427.763 1.86336 -0.371333 0
M  V30 4475 H 425.913 3.63829 1.36239 0
M  V30 4476 H 427.585 4.4778 -1.10864 0
M  V30 4477 H 425.828 4.19364 -1.10978 0
M  V30 4478 H 426.499 5.51788 -0.15291 0
M  V30 4479 H 428.975 4.02297 1.06286 0
M  V30 4480 H 427.851 5.17607 1.82686 0
M  V30 4481 H 428.112 3.60253 2.56262 0
M  V30 4482 N 427.171 -0.0066808 1.57599 0
M  V30 4483 C 428.118 -1.00024 2.08 0
M  V30 4484 C 429.088 -1.34549 0.973943 0
M  V30 4485 O 430.273 -1.44502 1.24595 0
M  V30 4486 C 427.413 -2.2891 2.58252 0
M  V30 4487 C 426.526 -2.00346 3.82734 0
M  V30 4488 C 425.661 -3.23265 4.21513 0
M  V30 4489 C 424.7 -2.90357 5.3885 0
M  V30 4490 N 423.837 -4.05793 5.72954 0
M  V30 4491 H 428.677 -0.563499 2.92624 0
M  V30 4492 H 426.214 -0.266592 1.44664 0
M  V30 4493 H 428.172 -3.04247 2.85464 0
M  V30 4494 H 426.802 -2.70265 1.76512 0
M  V30 4495 H 425.854 -1.15406 3.62471 0
M  V30 4496 H 427.166 -1.72086 4.68175 0
M  V30 4497 H 426.32 -4.06953 4.49971 0
M  V30 4498 H 425.059 -3.54657 3.34768 0
M  V30 4499 H 424.064 -2.05075 5.10122 0
M  V30 4500 H 425.289 -2.60219 6.27266 0
M  V30 4501 H 423.235 -4.37094 4.89167 0
M  V30 4502 H 423.152 -3.81034 6.52954 0
M  V30 4503 H 424.42 -4.90289 6.06001 0
M  V30 4504 N 428.649 -1.55105 -0.279332 0
M  V30 4505 C 429.897 -1.75066 -1.00977 0
M  V30 4506 C 430.218 -0.551276 -1.87045 0
M  V30 4507 O 429.488 0.433984 -1.91032 0
M  V30 4508 H 428.068 -0.645578 -0.375816 0
M  V30 4509 H 430.73 -1.92497 -0.305089 0
M  V30 4510 H 429.826 -2.64894 -1.65038 0
M  V30 4511 N 430.127 0.543554 -1.4793 0
M  V30 4512 C 431.376 1.29649 -1.54512 0
M  V30 4513 C 431.689 1.94382 -0.217973 0
M  V30 4514 O 432.895 2.71017 -0.161908 0
M  V30 4515 C 431.351 2.35175 -2.72435 0
M  V30 4516 C 430.959 1.76572 -4.11736 0
M  V30 4517 C 432.703 3.11564 -2.8832 0
M  V30 4518 C 430.61 2.79958 -5.20939 0
M  V30 4519 H 429.54 0.487541 -0.57517 0
M  V30 4520 H 432.191 0.575708 -1.74235 0
M  V30 4521 H 430.573 3.10229 -2.46118 0
M  V30 4522 H 431.747 1.07799 -4.48013 0
M  V30 4523 H 430.062 1.12722 -4.00852 0
M  V30 4524 H 432.659 3.88794 -3.67074 0
M  V30 4525 H 433.002 3.66594 -1.97268 0
M  V30 4526 H 433.535 2.43623 -3.14472 0
M  V30 4527 H 430.274 2.29766 -6.13912 0
M  V30 4528 H 429.794 3.47101 -4.89164 0
M  V30 4529 H 431.473 3.43198 -5.48474 0
M  V30 4530 N 431.605 1.3629 0.791371 0
M  V30 4531 C 432.568 1.30309 1.88553 0
M  V30 4532 C 433.568 0.211204 1.59407 0
M  V30 4533 O 434.758 0.465865 1.67855 0
M  V30 4534 C 431.89 1.01956 3.25297 0
M  V30 4535 H 433.083 2.27614 1.95273 0
M  V30 4536 H 430.636 1.21035 0.988953 0
M  V30 4537 H 431.371 0.050998 3.2426 0
M  V30 4538 H 431.156 1.80968 3.4784 0
M  V30 4539 H 432.646 1.0037 4.05359 0
M  V30 4540 N 433.083 -1.0153 1.20538 0
M  V30 4541 C 434.494 -1.56598 1.01657 0
M  V30 4542 C 434.845 -1.91505 -0.426668 0
M  V30 4543 O 433.97 -1.72375 -1.30827 0
M  V30 4544 C 434.565 -2.84542 1.83905 0
M  V30 4545 C 433.124 -3.36133 1.69386 0
M  V30 4546 C 432.271 -2.09427 1.81757 0
M  V30 4547 H 435.222 -0.838974 1.34711 0
M  V30 4548 H 435.243 -3.56004 1.34319 0
M  V30 4549 H 434.755 -2.59105 2.8894 0
M  V30 4550 H 432.856 -3.66528 0.669933 0
M  V30 4551 H 432.969 -4.08248 2.50739 0
M  V30 4552 H 431.333 -2.21941 1.24957 0
M  V30 4553 H 432.116 -1.86414 2.88279 0
M  V30 4554 N 434.561 -1.01147 -1.20859 0
M  V30 4555 C 435.791 -0.715872 -1.93801 0
M  V30 4556 C 436.199 0.726592 -1.74692 0
M  V30 4557 O 435.542 1.50397 -1.05482 0
M  V30 4558 C 435.604 -0.965269 -3.46299 0
M  V30 4559 C 435.268 -2.39584 -3.89164 0
M  V30 4560 C 436.265 -3.3764 -3.95342 0
M  V30 4561 C 433.95 -2.73522 -4.21297 0
M  V30 4562 C 435.944 -4.67698 -4.33056 0
M  V30 4563 C 433.631 -4.03794 -4.58687 0
M  V30 4564 C 434.629 -5.00693 -4.64538 0
M  V30 4565 O 434.317 -6.28635 -5.01072 0
M  V30 4566 H 434.049 -0.262524 -0.622942 0
M  V30 4567 H 436.603 -1.35413 -1.54443 0
M  V30 4568 H 434.833 -0.269847 -3.85757 0
M  V30 4569 H 436.522 -0.662051 -4.00464 0
M  V30 4570 H 437.288 -3.12757 -3.70686 0
M  V30 4571 H 433.167 -1.9879 -4.15937 0
M  V30 4572 H 436.711 -5.4333 -4.37537 0
M  V30 4573 H 432.608 -4.28459 -4.82797 0
M  V30 4574 H 433.376 -6.32847 -5.19083 0
M  V30 4575 N 436.039 1.36541 -0.78704 0
M  V30 4576 C 437.264 2.0409 -0.369053 0
M  V30 4577 C 437.689 1.58957 1.00569 0
M  V30 4578 O 437.047 0.756926 1.64743 0
M  V30 4579 C 437.095 3.57924 -0.438466 0
M  V30 4580 O 436.199 4.08642 0.555479 0
M  V30 4581 H 435.54 0.645142 -0.157122 0
M  V30 4582 H 438.07 1.74545 -1.06749 0
M  V30 4583 H 438.08 4.06887 -0.301218 0
M  V30 4584 H 436.755 3.90127 -1.44132 0
M  V30 4585 H 435.332 3.70958 0.380088 0
M  V30 4586 N 437.518 0.538854 1.48102 0
M  V30 4587 C 438.748 0.0122958 2.06596 0
M  V30 4588 C 439.156 -1.27861 1.39457 0
M  V30 4589 O 438.499 -1.77348 0.478907 0
M  V30 4590 C 438.561 -0.273131 3.58461 0
M  V30 4591 C 438.225 0.92561 4.47528 0
M  V30 4592 C 439.222 1.82637 4.86765 0
M  V30 4593 C 436.907 1.13511 4.89306 0
M  V30 4594 C 438.901 2.92047 5.66558 0
M  V30 4595 C 436.588 2.23233 5.68868 0
M  V30 4596 C 437.586 3.12333 6.07402 0
M  V30 4597 O 437.274 4.20155 6.85365 0
M  V30 4598 H 437.006 0.0344283 0.675123 0
M  V30 4599 H 439.56 0.746494 1.91355 0
M  V30 4600 H 437.79 -1.06141 3.71848 0
M  V30 4601 H 439.479 -0.742842 3.99045 0
M  V30 4602 H 440.245 1.67649 4.55103 0
M  V30 4603 H 436.124 0.450835 4.5879 0
M  V30 4604 H 439.668 3.6162 5.96554 0
M  V30 4605 H 435.565 2.38201 5.99942 0
M  V30 4606 H 436.333 4.17975 7.03732 0
M  V30 4607 N 438.996 -1.55193 0.274407 0
M  V30 4608 C 439.959 -2.212 -0.600279 0
M  V30 4609 C 440.959 -1.18963 -1.08187 0
M  V30 4610 O 442.149 -1.43873 -0.982158 0
M  V30 4611 C 439.281 -2.87739 -1.82809 0
M  V30 4612 H 440.474 -2.9989 -0.0239682 0
M  V30 4613 H 438.027 -1.5628 0.0250192 0
M  V30 4614 H 438.762 -2.13058 -2.44493 0
M  V30 4615 H 438.547 -3.62658 -1.49069 0
M  V30 4616 H 440.037 -3.38171 -2.45011 0
M  V30 4617 N 440.474 -0.00167713 -1.576 0
M  V30 4618 C 441.722 0.681471 -1.90264 0
M  V30 4619 C 442.043 1.7422 -0.875924 0
M  V30 4620 O 441.313 1.95709 0.0864412 0
M  V30 4621 H 439.893 0.254696 -0.702239 0
M  V30 4622 H 442.555 -0.0429996 -1.94853 0
M  V30 4623 H 441.651 1.15166 -2.90075 0
M  V30 4624 O 441.991 1.60887 0.140552 0
M  V30 4625 H 442.682 1.77558 0.77413 0
M  V30 END ATOM
M  V30 BEGIN BOND
M  V30 END BOND
M  V30 END CTAB
M  END
$$$$
