drugbank_target|Q15418 Ribosomal protein S6 kinase alpha-1 (DB04751; DB12010)
 OpenBabel12092120503D

  0  0  0     0  0            999 V3000
M  V30 BEGIN CTAB
M  V30 COUNTS 11691 11828 0 0 0
M  V30 BEGIN ATOM
M  V30 1 H -0.908 1.98254 -0.117106 0
M  V30 2 N 0 1.576 0 0
M  V30 3 C 0.933 2.03868 1.02534 0
M  V30 4 C 1.911 0.928543 1.3348 0
M  V30 5 O 3.095 1.19667 1.45644 0
M  V30 6 C 0.222 2.43627 2.35294 0
M  V30 7 C -0.732 3.65373 2.2001 0
M  V30 8 S 0.101 5.13292 1.52614 0
M  V30 9 C 1.257 5.56322 2.86805 0
M  V30 10 H 1.49 2.90518 0.631377 0
M  V30 11 H -0.977 1.52953 0.210867 0
M  V30 12 H 0.981 2.67203 3.11629 0
M  V30 13 H -0.358 1.57376 2.7183 0
M  V30 14 H -1.165 3.90944 3.18086 0
M  V30 15 H -1.563 3.418 1.51819 0
M  V30 16 H 0.729 5.58782 3.83104 0
M  V30 17 H 1.672 6.56266 2.65933 0
M  V30 18 H 2.08 4.83886 2.90714 0
M  V30 19 N 1.4781 -0.272755 1.55222 0
M  V30 20 C 2.8891 -0.84378 1.66545 0
M  V30 21 C 3.2401 -1.87035 0.592641 0
M  V30 22 O 2.3651 -2.14761 -0.265818 0
M  V30 23 C 2.9601 -1.53723 3.01918 0
M  V30 24 C 1.5191 -2.05628 3.15268 0
M  V30 25 C 0.6661 -0.898424 2.62343 0
M  V30 26 H 3.6171 -0.0490998 1.58624 0
M  V30 27 H 3.6381 -2.40421 2.94921 0
M  V30 28 H 3.1501 -0.78983 3.79978 0
M  V30 29 H 1.2511 -2.83329 2.41983 0
M  V30 30 H 1.3641 -2.27142 4.21833 0
M  V30 31 H -0.2719 -1.29186 2.19506 0
M  V30 32 H 0.5111 -0.164528 3.42906 0
M  V30 33 N 2.9562 -1.48159 -0.537278 0
M  V30 34 C 3.8862 -1.65029 -1.6519 0
M  V30 35 C 4.8672 -0.499281 -1.62607 0
M  V30 36 O 6.0522 -0.730972 -1.79918 0
M  V30 37 C 3.1822 -1.68303 -3.03795 0
M  V30 38 C 2.1362 -2.8283 -3.21234 0
M  V30 39 C 1.4622 -2.71189 -4.60826 0
M  V30 40 C 2.7622 -4.24211 -3.04701 0
M  V30 41 H 4.4562 -2.58341 -1.51328 0
M  V30 42 H 2.0022 -1.24325 -0.726585 0
M  V30 43 H 3.9552 -1.78693 -3.81637 0
M  V30 44 H 2.6792 -0.715635 -3.18663 0
M  V30 45 H 1.3382 -2.71983 -2.45807 0
M  V30 46 H 0.9862 -1.72435 -4.7252 0
M  V30 47 H 0.6862 -3.48035 -4.7344 0
M  V30 48 H 2.2102 -2.83537 -5.40777 0
M  V30 49 H 3.6242 -4.3593 -3.72341 0
M  V30 50 H 2.0212 -5.01998 -3.28813 0
M  V30 51 H 3.0912 -4.41184 -2.01209 0
M  V30 52 N 4.4343 0.785586 -1.36625 0
M  V30 53 C 5.3973 1.87999 -1.31107 0
M  V30 54 C 6.3973 1.59316 -0.217959 0
M  V30 55 O 7.5873 1.67656 -0.472977 0
M  V30 56 C 4.7193 3.24861 -1.03334 0
M  V30 57 H 5.9123 1.94307 -2.2844 0
M  V30 58 H 3.4653 0.983813 -1.21453 0
M  V30 59 H 4.2003 3.24235 -0.0647432 0
M  V30 60 H 3.9853 3.4707 -1.82441 0
M  V30 61 H 5.4753 4.04929 -1.02088 0
M  V30 62 N 5.9124 1.20967 1.01018 0
M  V30 63 C 6.8444 0.922059 2.09835 0
M  V30 64 C 7.8574 -0.0927106 1.62536 0
M  V30 65 O 9.0464 0.139127 1.77957 0
M  V30 66 C 6.1464 0.362004 3.36961 0
M  V30 67 C 5.3194 1.42986 4.13369 0
M  V30 68 C 4.3784 0.879976 5.1879 0
M  V30 69 O 3.4044 1.56219 5.47343 0
M  V30 70 N 4.6064 -0.307396 5.79686 0
M  V30 71 H 7.3714 1.8588 2.35093 0
M  V30 72 H 4.9324 1.11422 1.1746 0
M  V30 73 H 6.9244 -0.0201474 4.04695 0
M  V30 74 H 5.4944 -0.479437 3.08902 0
M  V30 75 H 4.7144 1.98608 3.40512 0
M  V30 76 H 6.0024 2.14885 4.61196 0
M  V30 77 H 5.4004 -0.878796 5.58832 0
M  V30 78 H 3.9574 -0.631115 6.48737 0
M  V30 79 N 7.3905 -1.2043 1.01659 0
M  V30 80 C 8.3205 -2.25466 0.607226 0
M  V30 81 C 9.3015 -1.65853 -0.377716 0
M  V30 82 O 10.4865 -1.92409 -0.263149 0
M  V30 83 C 7.6165 -3.47256 -0.0552949 0
M  V30 84 C 6.5705 -4.19462 0.850632 0
M  V30 85 C 5.8965 -5.34673 0.0538859 0
M  V30 86 C 7.1965 -4.75603 2.15868 0
M  V30 87 H 8.8905 -2.59962 1.48526 0
M  V30 88 H 6.4365 -1.2496 0.715605 0
M  V30 89 H 8.3895 -4.19917 -0.353233 0
M  V30 90 H 7.1135 -3.11924 -0.968045 0
M  V30 91 H 5.7725 -3.48667 1.13257 0
M  V30 92 H 5.4205 -4.95585 -0.860514 0
M  V30 93 H 5.1205 -5.83913 0.657192 0
M  V30 94 H 6.6445 -6.10138 -0.237598 0
M  V30 95 H 8.0585 -5.40083 1.92311 0
M  V30 96 H 6.4555 -5.3528 2.71284 0
M  V30 97 H 7.5255 -3.94346 2.82169 0
M  V30 98 N 8.8686 -0.792821 -1.36206 0
M  V30 99 C 9.8156 -0.191653 -2.30003 0
M  V30 100 C 10.7856 0.666453 -1.52143 0
M  V30 101 O 11.9706 0.61442 -1.80636 0
M  V30 102 C 9.1106 0.664848 -3.38635 0
M  V30 103 C 8.2236 -0.212175 -4.31479 0
M  V30 104 C 7.3586 0.651022 -5.27196 0
M  V30 105 C 6.3976 -0.227247 -6.11678 0
M  V30 106 N 5.5346 0.595127 -6.99573 0
M  V30 107 H 10.3746 -0.996978 -2.80828 0
M  V30 108 H 7.9116 -0.503206 -1.38225 0
M  V30 109 H 9.8696 1.17645 -4.00269 0
M  V30 110 H 8.4996 1.43557 -2.89122 0
M  V30 111 H 7.5516 -0.841777 -3.70969 0
M  V30 112 H 8.8636 -0.888751 -4.90818 0
M  V30 113 H 8.0176 1.2283 -5.94136 0
M  V30 114 H 6.7566 1.36121 -4.68319 0
M  V30 115 H 5.7616 -0.816904 -5.43697 0
M  V30 116 H 6.9866 -0.93509 -6.72631 0
M  V30 117 H 4.9326 1.28955 -6.432 0
M  V30 118 H 4.8496 -0.0236952 -7.55996 0
M  V30 119 H 6.1176 1.15613 -7.70879 0
M  V30 120 N 10.3467 1.47872 -0.545128 0
M  V30 121 C 11.2567 2.33633 0.212746 0
M  V30 122 C 12.2727 1.4744 0.923983 0
M  V30 123 O 13.4487 1.80393 0.895572 0
M  V30 124 C 10.5137 3.23884 1.23693 0
M  V30 125 C 9.5747 4.25961 0.534417 0
M  V30 126 C 8.8077 5.11899 1.5098 0
M  V30 127 O 9.0307 5.00077 2.7437 0
M  V30 128 O 7.9647 5.92831 1.0409 0
M  V30 129 H 11.7907 2.99714 -0.490416 0
M  V30 130 H 9.3757 1.46235 -0.305871 0
M  V30 131 H 11.2577 3.79666 1.82843 0
M  V30 132 H 9.9327 2.60446 1.92222 0
M  V30 133 H 8.8397 3.73972 -0.0979679 0
M  V30 134 H 10.1727 4.92079 -0.109213 0
M  V30 135 N 11.8248 0.280983 1.55075 0
M  V30 136 C 13.2358 -0.215629 1.85451 0
M  V30 137 C 13.5868 -1.54991 1.203 0
M  V30 138 O 12.7118 -2.10699 0.493435 0
M  V30 139 C 13.3068 -0.398026 3.36454 0
M  V30 140 C 11.8658 -0.838866 3.66933 0
M  V30 141 C 11.0128 0.064458 2.77225 0
M  V30 142 H 13.9638 0.502601 1.50531 0
M  V30 143 H 13.9848 -1.23569 3.59876 0
M  V30 144 H 13.4968 0.573241 3.83843 0
M  V30 145 H 11.5978 -1.8214 3.25048 0
M  V30 146 H 11.7108 -0.672123 4.74362 0
M  V30 147 H 10.0748 -0.452863 2.50642 0
M  V30 148 H 10.8578 1.03172 3.2743 0
M  V30 149 N 13.3029 -1.57598 0.00835791 0
M  V30 150 C 14.5489 -1.92046 -0.670055 0
M  V30 151 C 14.9039 -0.88351 -1.70915 0
M  V30 152 O 14.1969 0.103223 -1.91322 0
M  V30 153 C 14.3909 -3.3101 -1.34787 0
M  V30 154 C 14.2199 -4.48126 -0.375945 0
M  V30 155 C 12.9899 -5.05297 0.0166914 0
M  V30 156 C 15.1879 -5.1303 0.361272 0
M  V30 157 N 13.1699 -6.05931 0.985952 0
M  V30 158 C 14.5409 -6.08571 1.18495 0
M  V30 159 C 16.5959 -4.9609 0.42421 0
M  V30 160 C 15.2989 -6.88996 2.06584 0
M  V30 161 C 17.3249 -5.77107 1.29236 0
M  V30 162 C 16.6869 -6.72248 2.10386 0
M  V30 163 H 12.7859 -0.75096 -0.218136 0
M  V30 164 H 15.3699 -1.94572 0.0706669 0
M  V30 165 H 13.5409 -3.29342 -2.05884 0
M  V30 166 H 15.2729 -3.52864 -1.98164 0
M  V30 167 H 12.0279 -4.72279 -0.353435 0
M  V30 168 H 12.4519 -6.60932 1.4662 0
M  V30 169 H 17.0939 -4.22378 -0.188915 0
M  V30 170 H 14.8119 -7.62028 2.6896 0
M  V30 171 H 18.3979 -5.66038 1.34508 0
M  V30 172 H 17.2779 -7.33846 2.76476 0
M  V30 173 N 14.781 0.264519 -1.55364 0
M  V30 174 C 16.192 0.834936 -1.6699 0
M  V30 175 C 16.543 1.86718 -0.602552 0
M  V30 176 O 15.668 2.14899 0.254425 0
M  V30 177 C 16.263 1.5212 -3.02729 0
M  V30 178 C 14.822 2.03954 -3.16354 0
M  V30 179 C 13.969 0.884498 -2.62815 0
M  V30 180 H 16.92 0.0406869 -1.58648 0
M  V30 181 H 16.941 2.38853 -2.96191 0
M  V30 182 H 16.453 0.769668 -3.80392 0
M  V30 183 H 14.554 2.82041 -2.43482 0
M  V30 184 H 14.667 2.24902 -4.23032 0
M  V30 185 H 13.031 1.2802 -2.20188 0
M  V30 186 H 13.814 0.14634 -3.42988 0
M  V30 187 N 16.2591 1.48442 0.529413 0
M  V30 188 C 17.1891 1.65902 1.64313 0
M  V30 189 C 18.1701 0.507897 1.6234 0
M  V30 190 O 19.3551 0.740503 1.79528 0
M  V30 191 C 16.4851 1.69911 3.02898 0
M  V30 192 C 15.4391 2.8453 3.19729 0
M  V30 193 C 14.7651 2.73629 4.59381 0
M  V30 194 C 16.0651 4.25821 3.02447 0
M  V30 195 H 17.7591 2.5914 1.49955 0
M  V30 196 H 15.3051 1.24709 0.719982 0
M  V30 197 H 17.2581 1.80715 3.80684 0
M  V30 198 H 15.9821 0.732524 3.18279 0
M  V30 199 H 14.6411 2.73283 2.44361 0
M  V30 200 H 14.2891 1.74938 4.71599 0
M  V30 201 H 13.9891 3.50541 4.71588 0
M  V30 202 H 15.5131 2.86401 5.39265 0
M  V30 203 H 16.9271 4.37898 3.70024 0
M  V30 204 H 15.3241 5.03735 3.26146 0
M  V30 205 H 16.3941 4.42244 1.98867 0
M  V30 206 N 17.7372 -0.778329 1.37039 0
M  V30 207 C 18.6702 -1.8984 1.26633 0
M  V30 208 C 19.6482 -1.61923 0.148197 0
M  V30 209 O 20.8322 -1.85742 0.321265 0
M  V30 210 C 17.9592 -3.24916 0.956403 0
M  V30 211 C 17.0052 -3.71752 2.09051 0
M  V30 212 S 17.8382 -3.86201 3.70957 0
M  V30 213 C 18.9942 -5.24135 3.42101 0
M  V30 214 H 19.2272 -1.98377 2.21436 0
M  V30 215 H 16.7602 -0.938738 1.22585 0
M  V30 216 H 18.7182 -4.02936 0.784409 0
M  V30 217 H 17.3792 -3.14089 0.0259713 0
M  V30 218 H 16.5722 -4.69661 1.8285 0
M  V30 219 H 16.1742 -3.00815 2.2223 0
M  V30 220 H 18.4662 -6.09086 2.96682 0
M  V30 221 H 19.4092 -5.55346 4.39314 0
M  V30 222 H 19.8172 -4.91761 2.77185 0
M  V30 223 N 19.2153 -1.21501 -1.00376 0
M  V30 224 C 20.1253 -0.991447 -2.12621 0
M  V30 225 C 21.1413 0.0568446 -1.73907 0
M  V30 226 O 22.3173 -0.13348 -2.00957 0
M  V30 227 C 19.3823 -0.560312 -3.42142 0
M  V30 228 C 18.4433 -1.68096 -3.95022 0
M  V30 229 C 17.6763 -1.2703 -5.18362 0
M  V30 230 O 17.8993 -0.144438 -5.70217 0
M  V30 231 O 16.8333 -2.08269 -5.64719 0
M  V30 232 H 20.6593 -1.93158 -2.34358 0
M  V30 233 H 18.2443 -0.999999 -1.10997 0
M  V30 234 H 20.1263 -0.329724 -4.20108 0
M  V30 235 H 18.8013 0.351089 -3.2179 0
M  V30 236 H 17.7083 -1.96597 -3.18278 0
M  V30 237 H 19.0413 -2.56983 -4.19786 0
M  V30 238 N 20.6934 1.19889 -1.02296 0
M  V30 239 C 21.6234 2.25141 -0.619174 0
M  V30 240 C 22.6044 1.66051 0.368915 0
M  V30 241 O 23.7894 1.92546 0.252941 0
M  V30 242 C 20.9194 3.4728 0.0368783 0
M  V30 243 C 19.8734 4.19005 -0.872865 0
M  V30 244 C 19.1994 5.34637 -0.0822402 0
M  V30 245 C 20.4994 4.74452 -2.18387 0
M  V30 246 H 22.1934 2.59171 -1.49903 0
M  V30 247 H 19.7394 1.24579 -0.722222 0
M  V30 248 H 21.6924 4.20098 0.330958 0
M  V30 249 H 20.4164 3.12433 0.95149 0
M  V30 250 H 19.0754 3.48061 -1.15105 0
M  V30 251 H 18.7234 4.96034 0.83422 0
M  V30 252 H 18.4234 5.83557 -0.688149 0
M  V30 253 H 19.9474 6.10255 0.205238 0
M  V30 254 H 21.3614 5.39055 -1.95172 0
M  V30 255 H 19.7584 5.33834 -2.74119 0
M  V30 256 H 20.8284 3.92844 -2.84257 0
M  V30 257 N 22.1715 0.800033 1.35784 0
M  V30 258 C 23.4175 0.377901 1.99248 0
M  V30 259 C 23.7505 -1.05052 1.63333 0
M  V30 260 O 23.0255 -1.72768 0.893385 0
M  V30 261 C 23.3085 0.553922 3.55814 0
M  V30 262 C 23.1615 2.0268 4.01548 0
M  V30 263 C 24.4805 -0.0244802 4.40093 0
M  V30 264 H 21.5995 0.138782 0.723815 0
M  V30 265 H 24.2415 1.00835 1.61035 0
M  V30 266 H 22.3915 0.0172398 3.88496 0
M  V30 267 H 24.0635 2.62536 3.79305 0
M  V30 268 H 22.3065 2.5256 3.52698 0
M  V30 269 H 22.9775 2.10087 5.10458 0
M  V30 270 H 25.4535 0.433775 4.13833 0
M  V30 271 H 24.3295 0.128637 5.48749 0
M  V30 272 H 24.5905 -1.11758 4.27741 0
M  V30 273 N 23.6496 -1.47581 0.552962 0
M  V30 274 C 25.0606 -1.86324 0.118463 0
M  V30 275 C 25.4116 -1.46006 -1.3106 0
M  V30 276 O 24.5366 -0.861182 -1.98526 0
M  V30 277 C 25.1316 -3.3816 0.20821 0
M  V30 278 C 23.6906 -3.7601 -0.171226 0
M  V30 279 C 22.8376 -2.71634 0.557686 0
M  V30 280 H 25.7886 -1.39159 0.762928 0
M  V30 281 H 25.8096 -3.76141 -0.574278 0
M  V30 282 H 25.3216 -3.67473 1.24841 0
M  V30 283 H 23.4226 -3.52313 -1.21269 0
M  V30 284 H 23.5356 -4.78745 0.184379 0
M  V30 285 H 21.8996 -2.547 0.00125792 0
M  V30 286 H 22.6826 -3.0379 1.59896 0
M  V30 287 N 25.1277 -0.289203 -1.54924 0
M  V30 288 C 26.0577 0.58549 -2.2604 0
M  V30 289 C 27.0387 1.14753 -1.25562 0
M  V30 290 O 28.2237 1.17906 -1.54311 0
M  V30 291 C 25.3537 1.76305 -2.99222 0
M  V30 292 C 24.3077 1.33191 -4.06748 0
M  V30 293 C 23.6337 2.5937 -4.6758 0
M  V30 294 C 24.9337 0.471775 -5.20165 0
M  V30 295 H 26.6277 -0.00763532 -2.99399 0
M  V30 296 H 24.1737 -0.00511229 -1.43999 0
M  V30 297 H 26.1267 2.38097 -3.47689 0
M  V30 298 H 24.8507 2.38223 -2.23422 0
M  V30 299 H 23.5097 0.737121 -3.59113 0
M  V30 300 H 23.1577 3.19576 -3.88433 0
M  V30 301 H 22.8577 2.31228 -5.40192 0
M  V30 302 H 24.3817 3.21985 -5.18804 0
M  V30 303 H 25.7957 0.995056 -5.64599 0
M  V30 304 H 24.1927 0.284639 -5.99425 0
M  V30 305 H 25.2627 -0.506041 -4.82252 0
M  V30 306 N 26.6058 1.57591 -0.0167156 0
M  V30 307 C 27.8828 1.82547 0.702564 0
M  V30 308 C 28.2628 0.898018 1.91047 0
M  V30 309 O 27.6108 -0.0493456 2.28447 0
M  V30 310 C 27.8208 3.31459 1.09251 0
M  V30 311 C 29.1688 3.97622 1.48937 0
M  V30 312 O 30.1928 3.35881 1.18584 0
M  V30 313 O 29.0518 5.06415 2.05442 0
M  V30 314 H 26.1458 0.752268 0.343544 0
M  V30 315 H 28.6918 1.69644 -0.0434495 0
M  V30 316 H 27.4638 3.9061 0.23227 0
M  V30 317 H 27.0868 3.49422 1.89709 0
M  V30 318 N 28.0839 -0.256276 1.55502 0
M  V30 319 C 29.4949 -0.826068 1.67431 0
M  V30 320 C 29.8459 -1.86396 0.612446 0
M  V30 321 O 28.9709 -2.15031 -0.243025 0
M  V30 322 C 29.5659 -1.50512 3.03532 0
M  V30 323 C 28.1249 -2.02273 3.17431 0
M  V30 324 C 27.2719 -0.870548 2.63281 0
M  V30 325 H 30.2229 -0.0322728 1.58667 0
M  V30 326 H 30.2439 -2.37279 2.97454 0
M  V30 327 H 29.7559 -0.749484 3.80794 0
M  V30 328 H 27.8569 -2.80746 2.44974 0
M  V30 329 H 27.9699 -2.22655 4.24219 0
M  V30 330 H 26.3339 -1.26851 2.20864 0
M  V30 331 H 27.1169 -0.128149 3.43061 0
M  V30 332 N 29.562 -1.4872 -0.521534 0
M  V30 333 C 30.472 -1.66569 -1.65203 0
M  V30 334 C 31.488 -0.548197 -1.65139 0
M  V30 335 O 32.664 -0.820339 -1.83936 0
M  V30 336 C 29.729 -1.70917 -3.01642 0
M  V30 337 C 28.79 -2.94356 -3.12495 0
M  V30 338 C 28.023 -2.98487 -4.42426 0
M  V30 339 O 28.246 -2.10786 -5.30024 0
M  V30 340 O 27.18 -3.90746 -4.57822 0
M  V30 341 H 31.006 -2.62298 -1.5308 0
M  V30 342 H 28.591 -1.3222 -0.695565 0
M  V30 343 H 30.473 -1.7625 -3.82771 0
M  V30 344 H 29.148 -0.783633 -3.14071 0
M  V30 345 H 28.055 -2.94552 -2.3063 0
M  V30 346 H 29.388 -3.86322 -3.04986 0
M  V30 347 N 31.0401 0.771051 -1.3745 0
M  V30 348 C 31.9881 1.90574 -1.33358 0
M  V30 349 C 32.9821 1.67936 -0.22224 0
M  V30 350 O 34.1881 1.75717 -0.390304 0
M  V30 351 H 30.5631 0.626714 -0.415612 0
M  V30 352 H 32.5341 1.91142 -2.29144 0
M  V30 353 C 31.2831 3.27845 -1.15813 0
M  V30 354 H 30.6061 3.45842 -2.00583 0
M  V30 355 H 32.0461 4.07538 -1.17 0
M  V30 356 C 30.5051 3.36625 0.136165 0
M  V30 357 O 31.0351 3.85785 1.11949 0
M  V30 358 N 29.2411 2.89997 0.187099 0
M  V30 359 H 28.7881 2.50182 -0.613753 0
M  V30 360 H 28.7461 2.96252 1.05272 0
M  V30 361 N 32.5182 1.22032 0.997298 0
M  V30 362 C 33.7662 1.04016 1.73278 0
M  V30 363 C 34.0872 -0.426255 1.90284 0
M  V30 364 O 33.3572 -1.30694 1.45931 0
M  V30 365 H 31.9372 0.381897 0.642 0
M  V30 366 H 34.5992 1.5347 1.20137 0
M  V30 367 H 33.6952 1.51441 2.72896 0
M  V30 368 N 33.9963 -1.19345 1.0293 0
M  V30 369 C 34.9283 -2.22036 0.56857 0
M  V30 370 C 35.9413 -1.58865 -0.355779 0
M  V30 371 O 37.1303 -1.77851 -0.152103 0
M  V30 372 C 34.2303 -3.38363 -0.190752 0
M  V30 373 C 33.4033 -4.31118 0.738643 0
M  V30 374 C 32.4623 -5.26194 0.0246497 0
M  V30 375 O 31.4883 -5.65461 0.651354 0
M  V30 376 N 32.6903 -5.66971 -1.24594 0
M  V30 377 H 35.4553 -2.6219 1.45177 0
M  V30 378 H 33.0163 -1.34015 0.908381 0
M  V30 379 H 35.0083 -3.98981 -0.677961 0
M  V30 380 H 33.5783 -2.96994 -0.975366 0
M  V30 381 H 32.7983 -3.68276 1.40593 0
M  V30 382 H 34.0863 -4.90001 1.37029 0
M  V30 383 H 33.4843 -5.37104 -1.77583 0
M  V30 384 H 32.0413 -6.2984 -1.67764 0
M  V30 385 N 35.4744 -0.807222 -1.35358 0
M  V30 386 C 36.7024 -0.400377 -2.02989 0
M  V30 387 C 37.1174 0.988859 -1.60832 0
M  V30 388 O 36.4744 1.63729 -0.806175 0
M  V30 389 C 36.5254 -0.474867 -3.58368 0
M  V30 390 O 36.2464 -1.80933 -3.98992 0
M  V30 391 C 37.7474 -0.0609112 -4.43258 0
M  V30 392 H 34.9674 -0.162587 -0.651004 0
M  V30 393 H 37.5114 -1.09102 -1.72965 0
M  V30 394 H 35.6664 0.167534 -3.87038 0
M  V30 395 H 36.0804 -1.77256 -4.9364 0
M  V30 396 H 37.5544 -0.164145 -5.51756 0
M  V30 397 H 38.0314 0.993831 -4.27808 0
M  V30 398 H 38.6374 -0.676492 -4.19885 0
M  V30 399 N 36.9525 1.47285 -0.560781 0
M  V30 400 C 38.1775 2.07359 -0.0410566 0
M  V30 401 C 38.6025 1.41017 1.24483 0
M  V30 402 O 37.9605 0.486368 1.74654 0
M  V30 403 C 38.0085 3.6035 0.134123 0
M  V30 404 O 37.1125 3.94681 1.19587 0
M  V30 405 H 36.4535 0.661887 -0.0529291 0
M  V30 406 H 38.9835 1.89252 -0.777482 0
M  V30 407 H 38.9935 4.0652 0.347207 0
M  V30 408 H 37.6685 4.08034 -0.805047 0
M  V30 409 H 36.2455 3.60251 0.962987 0
M  V30 410 N 38.4306 0.297415 1.54768 0
M  V30 411 C 39.6786 -0.312295 1.99673 0
M  V30 412 C 39.9996 -1.54686 1.18732 0
M  V30 413 O 39.2696 -1.93854 0.282382 0
M  V30 414 H 37.8496 -0.118381 0.73756 0
M  V30 415 H 40.5116 0.407915 1.90583 0
M  V30 416 H 39.6076 -0.586813 3.06534 0
M  V30 417 N 39.9087 -1.5758 0.0250728 0
M  V30 418 C 40.8187 -2.1343 -0.973905 0
M  V30 419 C 41.8347 -1.08556 -1.35984 0
M  V30 420 O 43.0107 -1.40592 -1.44207 0
M  V30 421 C 40.0757 -2.64703 -2.23904 0
M  V30 422 C 39.1367 -3.84276 -1.91391 0
M  V30 423 C 38.3697 -4.33095 -3.11873 0
M  V30 424 O 38.5927 -3.81107 -4.24398 0
M  V30 425 O 37.5267 -5.24984 -2.94406 0
M  V30 426 H 41.3527 -2.99057 -0.529036 0
M  V30 427 H 38.9377 -1.48118 -0.195288 0
M  V30 428 H 40.8197 -2.97769 -2.98181 0
M  V30 429 H 39.4947 -1.82161 -2.6758 0
M  V30 430 H 38.4017 -3.56143 -1.14511 0
M  V30 431 H 39.7347 -4.67968 -1.52534 0
M  V30 432 N 41.3868 0.248026 -1.55636 0
M  V30 433 C 42.2968 1.32859 -1.93354 0
M  V30 434 C 43.3128 1.52719 -0.833838 0
M  V30 435 O 44.4888 1.66363 -1.13513 0
M  V30 436 C 41.5538 2.66337 -2.21958 0
M  V30 437 C 40.6148 2.55008 -3.45354 0
M  V30 438 C 39.8478 3.82121 -3.72584 0
M  V30 439 O 40.0708 4.83951 -3.01907 0
M  V30 440 O 39.0048 3.80822 -4.6611 0
M  V30 441 H 42.8308 1.03862 -2.85388 0
M  V30 442 H 40.4158 0.448686 -1.42503 0
M  V30 443 H 42.2978 3.45216 -2.4167 0
M  V30 444 H 40.9728 2.95068 -1.33103 0
M  V30 445 H 39.8798 1.7442 -3.30951 0
M  V30 446 H 41.2128 2.31222 -4.34508 0
M  V30 447 N 42.8649 1.48995 0.513639 0
M  V30 448 C 43.8279 1.64229 1.59879 0
M  V30 449 C 44.8279 0.514696 1.5234 0
M  V30 450 O 46.0179 0.78087 1.55718 0
M  V30 451 C 43.1499 1.62783 2.99524 0
M  V30 452 H 44.3429 2.61004 1.47705 0
M  V30 453 H 41.8959 1.37837 0.736936 0
M  V30 454 H 42.6309 0.675461 3.17188 0
M  V30 455 H 42.4159 2.4466 3.06404 0
M  V30 456 H 43.9059 1.76669 3.78388 0
M  V30 457 N 44.343 -0.763751 1.37857 0
M  V30 458 C 45.591 -1.51957 1.33243 0
M  V30 459 C 45.912 -1.94835 -0.0801709 0
M  V30 460 O 45.182 -1.66894 -1.02582 0
M  V30 461 H 43.762 -0.563626 0.49024 0
M  V30 462 H 46.424 -0.908504 1.7243 0
M  V30 463 H 45.52 -2.41523 1.97669 0
M  V30 464 N 45.8211 -1.22559 -0.990812 0
M  V30 465 C 46.7511 -1.0218 -2.09956 0
M  V30 466 C 47.7321 0.0579394 -1.70001 0
M  V30 467 O 48.9171 -0.104684 -1.93918 0
M  V30 468 C 46.0471 -0.601023 -3.4206 0
M  V30 469 C 45.0011 -1.62694 -3.95872 0
M  V30 470 C 44.3271 -1.06193 -5.24049 0
M  V30 471 C 45.6271 -3.01743 -4.2632 0
M  V30 472 H 47.3211 -1.94916 -2.27262 0
M  V30 473 H 44.8671 -0.938566 -1.09211 0
M  V30 474 H 46.8201 -0.445561 -4.19038 0
M  V30 475 H 45.5441 0.362005 -3.24588 0
M  V30 476 H 44.2031 -1.77021 -3.21028 0
M  V30 477 H 43.8511 -0.0901903 -5.02919 0
M  V30 478 H 43.5511 -1.74732 -5.61019 0
M  V30 479 H 45.0751 -0.918092 -6.03658 0
M  V30 480 H 46.4891 -2.90777 -4.94087 0
M  V30 481 H 44.8861 -3.67425 -4.74467 0
M  V30 482 H 45.9561 -3.51518 -3.34011 0
M  V30 483 N 47.2992 1.18797 -1.03562 0
M  V30 484 C 48.2312 2.21731 -0.580337 0
M  V30 485 C 49.2442 1.59051 0.347349 0
M  V30 486 O 50.4332 1.77929 0.142669 0
M  V30 487 C 47.5332 3.38459 0.172805 0
M  V30 488 C 46.7062 4.3072 -0.761496 0
M  V30 489 C 45.7652 5.26174 -0.0525547 0
M  V30 490 O 44.7912 5.65108 -0.681333 0
M  V30 491 N 45.9932 5.67624 1.21586 0
M  V30 492 H 48.7582 2.61417 -1.46565 0
M  V30 493 H 46.3192 1.33531 -0.915476 0
M  V30 494 H 48.3112 3.99335 0.656793 0
M  V30 495 H 46.8812 2.97507 0.959602 0
M  V30 496 H 46.1012 3.67525 -1.42544 0
M  V30 497 H 47.3892 4.89267 -1.39626 0
M  V30 498 H 46.7872 5.38038 1.74732 0
M  V30 499 H 45.3442 6.30721 1.64421 0
M  V30 500 N 48.7773 0.814389 1.34928 0
M  V30 501 C 50.1883 0.458364 1.80986 0
M  V30 502 C 50.5393 -1.02042 1.67577 0
M  V30 503 O 49.6643 -1.79352 1.21086 0
M  V30 504 C 50.2593 0.825212 3.28597 0
M  V30 505 C 48.8183 0.521677 3.72767 0
M  V30 506 C 47.9653 1.04668 2.56788 0
M  V30 507 H 50.9163 1.00533 1.22795 0
M  V30 508 H 50.9373 0.12571 3.80292 0
M  V30 509 H 50.4493 1.90154 3.38324 0
M  V30 510 H 48.5503 -0.545589 3.68584 0
M  V30 511 H 48.6633 1.05977 4.67232 0
M  V30 512 H 47.0273 0.468622 2.50352 0
M  V30 513 H 47.8103 2.12927 2.6929 0
M  V30 514 N 50.2554 -1.46986 0.568584 0
M  V30 515 C 51.4804 -2.07335 0.0520528 0
M  V30 516 C 51.9054 -1.41675 -1.23733 0
M  V30 517 O 51.2634 -0.495623 -1.74394 0
M  V30 518 C 51.3114 -3.60417 -0.11501 0
M  V30 519 O 50.4154 -3.95309 -1.17492 0
M  V30 520 H 49.7564 -0.661597 0.0564385 0
M  V30 521 H 52.2864 -1.88837 0.787507 0
M  V30 522 H 52.2964 -4.06698 -0.325644 0
M  V30 523 H 50.9714 -4.07601 0.826675 0
M  V30 524 H 49.5484 -3.60757 -0.943869 0
M  V30 525 N 51.7335 -0.305618 -1.54608 0
M  V30 526 C 52.6805 0.568421 -2.23691 0
M  V30 527 C 53.6505 1.12592 -1.22116 0
M  V30 528 O 54.8355 1.16959 -1.50749 0
M  V30 529 C 51.9755 1.7322 -2.98477 0
M  V30 530 C 51.0885 1.20566 -4.14835 0
M  V30 531 C 50.2235 2.33368 -4.77193 0
M  V30 532 C 49.2625 1.7787 -5.85686 0
M  V30 533 N 48.3995 2.84263 -6.4198 0
M  V30 534 H 53.2395 -0.0272867 -2.97988 0
M  V30 535 H 50.7765 -0.0252363 -1.47078 0
M  V30 536 H 52.7345 2.41675 -3.40072 0
M  V30 537 H 51.3645 2.29947 -2.26548 0
M  V30 538 H 50.4165 0.413223 -3.78149 0
M  V30 539 H 51.7285 0.759417 -4.92985 0
M  V30 540 H 50.8825 3.09761 -5.21664 0
M  V30 541 H 49.6215 2.8132 -3.98385 0
M  V30 542 H 48.6265 0.99968 -5.40635 0
M  V30 543 H 49.8515 1.30816 -6.66381 0
M  V30 544 H 47.7975 3.31541 -5.66053 0
M  V30 545 H 47.7145 2.44149 -7.15491 0
M  V30 546 H 48.9825 3.6054 -6.91109 0
M  V30 547 N 53.2116 1.57565 -0.0334293 0
M  V30 548 C 54.4886 1.83282 0.683163 0
M  V30 549 C 54.8686 0.91823 1.90084 0
M  V30 550 O 54.2166 -0.025113 2.28486 0
M  V30 551 C 54.4266 3.32599 1.0573 0
M  V30 552 C 55.7746 3.99179 1.44711 0
M  V30 553 O 56.7986 3.3712 1.15015 0
M  V30 554 O 55.6576 5.08565 2.0006 0
M  V30 555 H 52.7516 0.755869 0.335546 0
M  V30 556 H 55.2976 1.69589 -0.0614402 0
M  V30 557 H 54.0696 3.90834 0.190828 0
M  V30 558 H 53.6926 3.51415 1.85993 0
M  V30 559 N 54.6897 -0.239769 1.55765 0
M  V30 560 C 55.5997 -1.31831 1.94056 0
M  V30 561 C 56.6157 -1.52275 0.841925 0
M  V30 562 O 57.7917 -1.65759 1.14394 0
M  V30 563 C 54.8567 -2.65156 2.23368 0
M  V30 564 C 53.9177 -2.53173 3.46701 0
M  V30 565 C 53.1507 -3.8014 3.74606 0
M  V30 566 O 53.3737 -4.82343 3.04469 0
M  V30 567 O 52.3077 -3.78344 4.68123 0
M  V30 568 H 56.1337 -1.02347 2.85935 0
M  V30 569 H 53.7187 -0.441123 1.42739 0
M  V30 570 H 55.6007 -3.43929 2.43497 0
M  V30 571 H 54.2757 -2.94358 1.34666 0
M  V30 572 H 53.1827 -1.72662 3.31871 0
M  V30 573 H 54.5157 -2.28915 4.35728 0
M  V30 574 N 56.1678 -1.49265 -0.50573 0
M  V30 575 C 57.4158 -1.582 -1.25766 0
M  V30 576 C 57.7368 -0.268482 -1.93143 0
M  V30 577 O 57.0068 0.711833 -1.8251 0
M  V30 578 H 55.5868 -0.582873 -0.467191 0
M  V30 579 H 58.2488 -1.85865 -0.586525 0
M  V30 580 H 57.3448 -2.37563 -2.02412 0
M  V30 581 N 57.6459 0.756429 -1.3826 0
M  V30 582 C 58.8919 1.51772 -1.34511 0
M  V30 583 C 59.2249 1.94089 0.0656691 0
M  V30 584 O 58.4999 1.65221 1.02626 0
M  V30 585 C 58.7829 2.77226 -2.29821 0
M  V30 586 C 58.6359 2.41065 -3.79747 0
M  V30 587 C 59.9549 3.79236 -2.23312 0
M  V30 588 H 57.0739 0.550578 -0.489931 0
M  V30 589 H 59.7159 0.866607 -1.69086 0
M  V30 590 H 57.8659 3.32784 -2.00467 0
M  V30 591 H 59.5379 1.91303 -4.19763 0
M  V30 592 H 57.7809 1.7356 -3.97567 0
M  V30 593 H 58.4519 3.3081 -4.41892 0
M  V30 594 H 60.9279 3.3321 -2.49219 0
M  V30 595 H 59.8039 4.64714 -2.92116 0
M  V30 596 H 60.0649 4.24615 -1.23102 0
M  V30 597 N 59.124 1.23083 0.984299 0
M  V30 598 C 60.054 1.03292 2.09411 0
M  V30 599 C 61.035 -0.048923 1.7003 0
M  V30 600 O 62.22 0.114967 1.93859 0
M  V30 601 C 59.35 0.619155 3.41736 0
M  V30 602 C 58.304 1.64791 3.95004 0
M  V30 603 C 57.63 1.0897 5.23478 0
M  V30 604 C 58.93 3.03999 4.24714 0
M  V30 605 H 60.624 1.96119 2.26225 0
M  V30 606 H 58.17 0.944344 1.08711 0
M  V30 607 H 60.123 0.467777 4.18796 0
M  V30 608 H 58.847 -0.344786 3.24775 0
M  V30 609 H 57.506 1.78721 3.20085 0
M  V30 610 H 57.154 0.11686 5.02864 0
M  V30 611 H 56.854 1.77704 5.60085 0
M  V30 612 H 58.378 0.950093 6.03163 0
M  V30 613 H 59.792 2.93393 4.92538 0
M  V30 614 H 58.189 3.69936 4.72512 0
M  V30 615 H 59.259 3.53285 3.32142 0
M  V30 616 N 60.6021 -1.18246 1.0419 0
M  V30 617 C 61.5491 -2.2192 0.634037 0
M  V30 618 C 62.5191 -1.62179 -0.358765 0
M  V30 619 O 63.7041 -1.89122 -0.252466 0
M  V30 620 C 60.8441 -3.451 0.00445535 0
M  V30 621 C 59.9571 -4.19174 1.04487 0
M  V30 622 C 59.0921 -5.29813 0.383676 0
M  V30 623 C 58.1311 -5.9566 1.4091 0
M  V30 624 N 57.2681 -6.97834 0.772784 0
M  V30 625 H 62.1081 -2.56164 1.52263 0
M  V30 626 H 59.6451 -1.25843 0.761701 0
M  V30 627 H 61.6031 -4.15485 -0.377919 0
M  V30 628 H 60.2331 -3.11472 -0.847652 0
M  V30 629 H 59.2851 -3.47604 1.54518 0
M  V30 630 H 60.5971 -4.64267 1.82368 0
M  V30 631 H 59.7511 -6.06677 -0.0528366 0
M  V30 632 H 58.4901 -4.85825 -0.427208 0
M  V30 633 H 57.4951 -5.17535 1.85574 0
M  V30 634 H 58.7201 -6.4173 2.22171 0
M  V30 635 H 56.6661 -6.55998 -0.0177708 0
M  V30 636 H 56.5831 -7.41186 1.48928 0
M  V30 637 H 57.8511 -7.78665 0.36071 0
M  V30 638 N 62.0802 -0.821533 -1.34494 0
M  V30 639 C 62.9902 -0.244355 -2.33324 0
M  V30 640 C 64.0062 0.620527 -1.62559 0
M  V30 641 O 65.1822 0.528754 -1.94335 0
M  V30 642 C 62.2472 0.585368 -3.41723 0
M  V30 643 C 61.3082 -0.301752 -4.28238 0
M  V30 644 C 60.5412 0.488466 -5.3146 0
M  V30 645 O 60.7642 1.72186 -5.4379 0
M  V30 646 O 59.6982 -0.12848 -6.01763 0
M  V30 647 H 63.5242 -1.06231 -2.84515 0
M  V30 648 H 61.1092 -0.583645 -1.37528 0
M  V30 649 H 62.9912 1.05747 -4.07916 0
M  V30 650 H 61.6662 1.38068 -2.92778 0
M  V30 651 H 60.5732 -0.821315 -3.64973 0
M  V30 652 H 61.9062 -1.06138 -4.8062 0
M  V30 653 N 63.5583 1.46682 -0.576371 0
M  V30 654 C 64.8073 2.01619 -0.0572825 0
M  V30 655 C 65.1203 1.45417 1.30818 0
M  V30 656 O 66.3263 1.92133 1.91825 0
M  V30 657 C 64.7823 3.59863 -0.0518371 0
M  V30 658 C 64.3903 4.25059 -1.41523 0
M  V30 659 C 66.1343 4.2248 0.413639 0
M  V30 660 C 64.0413 5.75364 -1.36785 0
M  V30 661 H 62.9713 0.753794 -0.0176448 0
M  V30 662 H 65.6223 1.68481 -0.727076 0
M  V30 663 H 64.0043 3.90048 0.683994 0
M  V30 664 H 65.1783 4.06491 -2.17029 0
M  V30 665 H 63.4933 3.7451 -1.8202 0
M  V30 666 H 66.0903 5.3265 0.467779 0
M  V30 667 H 66.4333 3.90976 1.42982 0
M  V30 668 H 66.9663 3.96897 -0.267929 0
M  V30 669 H 63.7053 6.11518 -2.36063 0
M  V30 670 H 63.2253 5.96214 -0.654895 0
M  V30 671 H 64.9043 6.37955 -1.07805 0
M  V30 672 N 65.0364 0.313813 1.54444 0
M  V30 673 C 66.2614 -0.296681 2.05267 0
M  V30 674 C 66.6864 -1.45757 1.18897 0
M  V30 675 O 66.0444 -1.80239 0.195886 0
M  V30 676 C 66.0924 -0.71831 3.53373 0
M  V30 677 O 65.1964 -1.82175 3.69981 0
M  V30 678 H 64.5374 -0.0554061 0.661684 0
M  V30 679 H 67.0674 0.459387 1.99376 0
M  V30 680 H 67.0774 -1.00364 3.95463 0
M  V30 681 H 65.7524 0.130821 4.15694 0
M  V30 682 H 64.3294 -1.53598 3.39797 0
M  V30 683 N 66.5145 -1.57545 0.0417849 0
M  V30 684 C 67.7635 -1.91494 -0.633492 0
M  V30 685 C 68.0765 -0.921084 -1.72556 0
M  V30 686 O 69.2825 -1.15228 -2.45835 0
M  V30 687 C 67.7385 -3.40072 -1.17808 0
M  V30 688 C 67.3465 -4.47843 -0.118633 0
M  V30 689 C 69.0905 -3.8307 -1.82915 0
M  V30 690 C 66.9975 -5.87529 -0.675578 0
M  V30 691 H 65.9275 -0.714653 -0.24039 0
M  V30 692 H 68.5785 -1.83175 0.109148 0
M  V30 693 H 66.9605 -3.43364 -1.97274 0
M  V30 694 H 68.1345 -4.56128 0.654494 0
M  V30 695 H 66.4495 -4.14128 0.434414 0
M  V30 696 H 69.0465 -4.84794 -2.25563 0
M  V30 697 H 69.3895 -3.1881 -2.67705 0
M  V30 698 H 69.9225 -3.82255 -1.10119 0
M  V30 699 H 66.6615 -6.55362 0.134475 0
M  V30 700 H 66.1815 -5.82824 -1.4169 0
M  V30 701 H 67.8605 -6.36491 -1.1614 0
M  V30 702 N 67.9926 0.231505 -1.5589 0
M  V30 703 C 69.2206 0.974505 -1.82513 0
M  V30 704 C 69.6356 1.78344 -0.619591 0
M  V30 705 O 68.9926 1.77792 0.411848 0
M  V30 706 C 69.0436 1.90007 -3.07538 0
M  V30 707 O 68.7646 1.12385 -4.2344 0
M  V30 708 C 70.2656 2.75779 -3.47075 0
M  V30 709 H 67.4856 0.286065 -0.606966 0
M  V30 710 H 70.0296 0.249739 -2.02969 0
M  V30 711 H 68.1846 2.57891 -2.89086 0
M  V30 712 H 68.5986 1.75125 -4.944 0
M  V30 713 H 70.0726 3.36443 -4.37619 0
M  V30 714 H 70.5496 3.47672 -2.68367 0
M  V30 715 H 71.1556 2.13323 -3.67931 0
M  V30 716 N 69.4707 1.49531 0.497807 0
M  V30 717 C 70.4207 1.62829 1.59596 0
M  V30 718 C 71.4047 0.483824 1.53453 0
M  V30 719 O 72.5967 0.736937 1.60929 0
M  V30 720 C 69.7257 1.7011 2.98191 0
M  V30 721 C 68.8117 2.90144 3.09317 0
M  V30 722 N 69.2027 4.1418 2.90324 0
M  V30 723 C 67.5007 2.88148 3.40422 0
M  V30 724 C 68.2017 4.94886 3.05717 0
M  V30 725 N 67.1777 4.28314 3.34736 0
M  V30 726 H 70.9797 2.56446 1.4357 0
M  V30 727 H 68.4937 1.46347 0.704001 0
M  V30 728 H 70.4907 1.77735 3.77115 0
M  V30 729 H 69.1507 0.776315 3.15283 0
M  V30 730 H 70.1617 4.44109 2.66436 0
M  V30 731 H 66.8387 2.05061 3.63671 0
M  V30 732 H 68.2287 6.03432 2.95499 0
M  V30 733 N 70.9488 -0.749086 1.3866 0
M  V30 734 C 71.8988 -1.85368 1.32751 0
M  V30 735 C 72.8828 -1.59511 0.210945 0
M  V30 736 O 74.0748 -1.71255 0.447299 0
M  V30 737 C 71.2038 -3.23131 1.15935 0
M  V30 738 C 70.2898 -3.54864 2.32233 0
M  V30 739 N 70.6808 -3.57625 3.57684 0
M  V30 740 C 68.9788 -3.85154 2.24883 0
M  V30 741 C 69.6798 -3.86753 4.34508 0
M  V30 742 N 68.6558 -4.03812 3.63918 0
M  V30 743 H 72.4578 -1.85787 2.27729 0
M  V30 744 H 69.9718 -0.946658 1.31955 0
M  V30 745 H 71.9688 -4.02185 1.09786 0
M  V30 746 H 70.6288 -3.23961 0.218947 0
M  V30 747 H 71.6398 -3.39276 3.91295 0
M  V30 748 H 68.3168 -3.93672 1.39027 0
M  V30 749 H 69.7068 -3.95474 5.43185 0
M  V30 750 N 72.4269 -1.23603 -0.977757 0
M  V30 751 C 73.6729 -1.07129 -1.72195 0
M  V30 752 C 74.0059 0.390501 -1.90233 0
M  V30 753 O 73.2809 1.28902 -1.45653 0
M  V30 754 C 73.5639 -1.80031 -3.11867 0
M  V30 755 C 73.4169 -3.33899 -3.01383 0
M  V30 756 C 74.7359 -1.56492 -4.11337 0
M  V30 757 H 71.8549 -0.390571 -0.624999 0
M  V30 758 H 74.4969 -1.52142 -1.13811 0
M  V30 759 H 72.6469 -1.41768 -3.6171 0
M  V30 760 H 74.3189 -3.81699 -2.59043 0
M  V30 761 H 72.5619 -3.62796 -2.37827 0
M  V30 762 H 73.2329 -3.801 -4.00285 0
M  V30 763 H 75.7089 -1.89757 -3.70313 0
M  V30 764 H 74.5849 -2.09973 -5.07151 0
M  V30 765 H 74.8459 -0.500874 -4.39254 0
M  V30 766 N 73.905 1.17692 -1.04816 0
M  V30 767 C 74.852 2.21581 -0.645797 0
M  V30 768 C 75.822 1.62367 0.350159 0
M  V30 769 O 77.007 1.89254 0.242433 0
M  V30 770 C 74.147 3.45092 -0.0227568 0
M  V30 771 C 73.26 4.18613 -1.06709 0
M  V30 772 C 72.395 5.29602 -0.411767 0
M  V30 773 C 71.434 5.94904 -1.44067 0
M  V30 774 N 70.571 6.97414 -0.809781 0
M  V30 775 H 75.411 2.55353 -1.5362 0
M  V30 776 H 72.948 1.25438 -0.768364 0
M  V30 777 H 74.906 4.15679 0.35588 0
M  V30 778 H 73.536 3.11917 0.831122 0
M  V30 779 H 72.588 3.46779 -1.5636 0
M  V30 780 H 73.9 4.63293 -1.84827 0
M  V30 781 H 73.054 6.06696 0.0206623 0
M  V30 782 H 71.793 4.86045 0.401438 0
M  V30 783 H 70.798 5.16544 -1.88316 0
M  V30 784 H 72.023 6.40542 -2.25571 0
M  V30 785 H 69.969 6.55998 -0.0170186 0
M  V30 786 H 69.886 7.40386 -1.52856 0
M  V30 787 H 71.154 7.78463 -0.401999 0
M  V30 788 N 75.3831 0.828654 1.34056 0
M  V30 789 C 76.3461 0.259927 2.27721 0
M  V30 790 C 77.3461 -0.565478 1.50529 0
M  V30 791 O 78.5361 -0.38075 1.69988 0
M  V30 792 C 75.6681 -0.634944 3.34935 0
M  V30 793 H 76.8611 1.0863 2.79534 0
M  V30 794 H 74.4141 0.600951 1.44285 0
M  V30 795 H 75.1491 -1.48416 2.88346 0
M  V30 796 H 74.9341 -0.0444999 3.92075 0
M  V30 797 H 76.4241 -1.02648 4.04788 0
M  V30 798 N 76.8612 -1.46375 0.584142 0
M  V30 799 C 78.1092 -2.01978 0.0701287 0
M  V30 800 C 78.4302 -1.4579 -1.295 0
M  V30 801 O 77.7002 -0.64314 -1.85042 0
M  V30 802 H 76.2802 -0.746648 0.0229345 0
M  V30 803 H 78.9422 -1.79461 0.760245 0
M  V30 804 H 78.0382 -3.121 0.0022064 0
M  V30 805 N 78.3393 -0.321999 -1.54275 0
M  V30 806 C 79.5643 0.285791 -2.05422 0
M  V30 807 C 79.9893 1.45124 -1.19669 0
M  V30 808 O 79.3473 1.80132 -0.205441 0
M  V30 809 C 79.3953 0.69956 -3.53749 0
M  V30 810 O 78.4993 1.8021 -3.70942 0
M  V30 811 H 77.8403 0.0518962 -0.661969 0
M  V30 812 H 80.3703 -0.469954 -1.9913 0
M  V30 813 H 80.3803 0.982649 -3.9599 0
M  V30 814 H 79.0553 -0.152864 -4.15619 0
M  V30 815 H 77.6323 1.51794 -3.40607 0
M  V30 816 N 79.8174 1.5752 -0.0501392 0
M  V30 817 C 80.7274 2.14952 0.939827 0
M  V30 818 C 81.7434 1.10706 1.34239 0
M  V30 819 O 82.9194 1.42869 1.41952 0
M  V30 820 C 79.9844 2.68232 2.19665 0
M  V30 821 C 79.0454 3.87272 1.85253 0
M  V30 822 C 78.2784 4.38002 3.04943 0
M  V30 823 O 78.5014 3.87811 4.18281 0
M  V30 824 O 77.4354 5.29602 2.86017 0
M  V30 825 H 81.2614 2.9986 0.481392 0
M  V30 826 H 78.8464 1.4841 0.171699 0
M  V30 827 H 80.7284 3.02475 2.93406 0
M  V30 828 H 79.4034 1.86395 2.64648 0
M  V30 829 H 78.3104 3.5792 1.0883 0
M  V30 830 H 79.6434 4.70336 1.4507 0
M  V30 831 N 81.2955 -0.223234 1.56011 0
M  V30 832 C 82.2425 -1.27664 1.92277 0
M  V30 833 C 83.2125 -1.46659 0.779763 0
M  V30 834 O 84.3975 -1.60256 1.03551 0
M  V30 835 C 81.5375 -2.62234 2.24338 0
M  V30 836 C 80.6505 -2.51051 3.51564 0
M  V30 837 C 79.7855 -3.78133 3.7308 0
M  V30 838 C 78.8245 -3.61665 4.93827 0
M  V30 839 N 77.9615 -4.80693 5.11741 0
M  V30 840 H 82.8015 -0.960358 2.82101 0
M  V30 841 H 80.3385 -0.462901 1.39627 0
M  V30 842 H 82.2965 -3.40596 2.40936 0
M  V30 843 H 80.9265 -2.91961 1.3769 0
M  V30 844 H 79.9785 -1.64132 3.43169 0
M  V30 845 H 81.2905 -2.34803 4.40079 0
M  V30 846 H 80.4445 -4.64938 3.89766 0
M  V30 847 H 79.1835 -3.97304 2.82844 0
M  V30 848 H 78.1885 -2.73244 4.77093 0
M  V30 849 H 79.4135 -3.43966 5.85546 0
M  V30 850 H 77.3595 -5.00181 4.24446 0
M  V30 851 H 77.2765 -4.67165 5.94384 0
M  V30 852 H 78.5445 -5.6893 5.3286 0
M  V30 853 N 82.7736 -1.49793 -0.48987 0
M  V30 854 C 83.7366 -1.66752 -1.57246 0
M  V30 855 C 84.7366 -0.538867 -1.51502 0
M  V30 856 O 85.9266 -0.805545 -1.54456 0
M  V30 857 C 83.0586 -1.67528 -2.96896 0
M  V30 858 H 84.2516 -2.63321 -1.43534 0
M  V30 859 H 81.8046 -1.38992 -0.714914 0
M  V30 860 H 82.5396 -0.725837 -3.16073 0
M  V30 861 H 82.3246 -2.49504 -3.02473 0
M  V30 862 H 83.8146 -1.82667 -3.7553 0
M  V30 863 N 84.2517 0.741722 -1.39055 0
M  V30 864 C 85.5287 1.49252 -1.26425 0
M  V30 865 C 85.9087 2.10705 0.129144 0
M  V30 866 O 85.2567 1.98045 1.13976 0
M  V30 867 C 85.4667 2.54934 -2.38347 0
M  V30 868 C 86.8147 3.21506 -2.77343 0
M  V30 869 O 87.8387 2.65245 -2.37747 0
M  V30 870 O 86.6977 4.23294 -3.45665 0
M  V30 871 H 83.7917 0.662451 -0.495064 0
M  V30 872 H 86.3377 0.776121 -1.50912 0
M  V30 873 H 85.1097 2.07857 -3.31529 0
M  V30 874 H 84.7327 3.34141 -2.15489 0
M  V30 875 N 85.7298 1.2412 0.971189 0
M  V30 876 C 87.1408 1.07236 1.52831 0
M  V30 877 C 87.4918 -0.357352 1.92918 0
M  V30 878 O 86.6168 -1.24528 1.76979 0
M  V30 879 C 87.2118 1.94043 2.77728 0
M  V30 880 C 85.7708 1.81394 3.29808 0
M  V30 881 C 84.9178 1.89189 2.02738 0
M  V30 882 H 87.8688 1.37648 0.789864 0
M  V30 883 H 87.8898 1.47066 3.5093 0
M  V30 884 H 87.4018 2.98093 2.4852 0
M  V30 885 H 85.5028 0.801634 3.63874 0
M  V30 886 H 85.6158 2.65294 3.98944 0
M  V30 887 H 83.9798 1.32877 2.17292 0
M  V30 888 H 84.7628 2.94812 1.759 0
M  V30 889 N 87.2079 -1.17134 1.05439 0
M  V30 890 C 88.4329 -1.91913 0.786396 0
M  V30 891 C 88.8579 -1.7643 -0.652234 0
M  V30 892 O 88.2159 -1.08372 -1.45345 0
M  V30 893 C 88.2639 -3.40921 1.17497 0
M  V30 894 O 87.3679 -4.11244 0.308589 0
M  V30 895 H 86.7089 -0.598215 0.288158 0
M  V30 896 H 89.2389 -1.48457 1.4079 0
M  V30 897 H 89.2489 -3.91668 1.14281 0
M  V30 898 H 87.9239 -3.5151 2.22292 0
M  V30 899 H 86.5009 -3.70731 0.40157 0
M  V30 900 N 88.686 -0.835752 -1.33615 0
M  V30 901 C 89.636 -0.238856 -2.26745 0
M  V30 902 C 90.62 0.604343 -1.49119 0
M  V30 903 O 91.812 0.456822 -1.71003 0
M  V30 904 C 88.941 0.587725 -3.38232 0
M  V30 905 C 88.027 -0.266811 -4.2326 0
M  V30 906 N 88.418 -1.34403 -4.87616 0
M  V30 907 C 86.716 -0.0533131 -4.45968 0
M  V30 908 C 87.417 -1.86819 -5.50884 0
M  V30 909 N 86.393 -1.17013 -5.30857 0
M  V30 910 H 90.195 -1.06266 -2.74016 0
M  V30 911 H 87.709 -0.679881 -1.47483 0
M  V30 912 H 89.706 1.03161 -4.03935 0
M  V30 913 H 88.366 1.40954 -2.9251 0
M  V30 914 H 89.377 -1.7269 -4.88261 0
M  V30 915 H 86.054 0.735312 -4.10974 0
M  V30 916 H 87.444 -2.7701 -6.1214 0
M  V30 917 N 90.1641 1.46063 -0.591896 0
M  V30 918 C 91.4111 2.02338 -0.0809991 0
M  V30 919 C 91.7391 1.46228 1.28249 0
M  V30 920 O 90.9941 0.620818 1.85592 0
M  V30 921 C 91.2931 3.57391 0.0249813 0
M  V30 922 C 90.9591 4.32583 -1.27211 0
M  V30 923 C 89.6211 4.52844 -1.62745 0
M  V30 924 C 91.9731 4.75687 -2.13005 0
M  V30 925 C 89.3011 5.13462 -2.83855 0
M  V30 926 C 91.6531 5.37644 -3.3335 0
M  V30 927 C 90.3171 5.5613 -3.69155 0
M  V30 928 H 89.5871 0.740407 -0.0296397 0
M  V30 929 H 92.2341 1.75321 -0.770374 0
M  V30 930 H 90.5391 3.83597 0.797537 0
M  V30 931 H 92.2361 3.98621 0.436184 0
M  V30 932 H 88.8261 4.17116 -0.985499 0
M  V30 933 H 93.0101 4.59782 -1.86855 0
M  V30 934 H 88.2661 5.25965 -3.11722 0
M  V30 935 H 92.4401 5.7 -4.00092 0
M  V30 936 H 90.0671 6.0287 -4.63089 0
M  V30 937 N 91.6422 0.330177 1.54103 0
M  V30 938 C 92.5522 -0.541534 2.28264 0
M  V30 939 C 93.5682 -1.12351 1.32866 0
M  V30 940 O 94.7442 -1.14206 1.65888 0
M  V30 941 C 91.8092 -1.68322 3.03098 0
M  V30 942 C 90.8702 -1.13238 4.14096 0
M  V30 943 C 90.1032 -2.21966 4.85352 0
M  V30 944 O 90.3262 -3.42437 4.56172 0
M  V30 945 O 89.2602 -1.87013 5.7211 0
M  V30 946 H 93.0862 0.060938 3.03639 0
M  V30 947 H 90.6712 0.09565 1.49093 0
M  V30 948 H 92.5532 -2.34777 3.49939 0
M  V30 949 H 91.2282 -2.27176 2.30593 0
M  V30 950 H 90.1352 -0.432736 3.71589 0
M  V30 951 H 91.4682 -0.588898 4.88664 0
M  V30 952 N 93.1203 -1.57491 0.0584922 0
M  V30 953 C 94.0503 -2.14988 -0.911178 0
M  V30 954 C 95.0313 -1.07343 -1.31952 0
M  V30 955 O 96.2163 -1.35318 -1.39294 0
M  V30 956 C 93.3463 -2.70078 -2.18347 0
M  V30 957 C 92.3003 -3.82771 -1.91495 0
M  V30 958 C 91.6263 -4.24408 -3.25241 0
M  V30 959 C 92.9263 -5.07592 -1.23075 0
M  V30 960 H 94.6203 -2.96263 -0.432246 0
M  V30 961 H 92.1663 -1.42512 -0.206469 0
M  V30 962 H 94.1193 -3.08943 -2.86587 0
M  V30 963 H 92.8433 -1.86005 -2.68458 0
M  V30 964 H 91.5023 -3.44389 -1.25664 0
M  V30 965 H 91.1503 -3.37275 -3.73168 0
M  V30 966 H 90.8503 -5.00366 -3.08071 0
M  V30 967 H 92.3743 -4.65879 -3.94701 0
M  V30 968 H 93.7883 -5.43857 -1.81362 0
M  V30 969 H 92.1853 -5.88741 -1.16207 0
M  V30 970 H 93.2553 -4.84454 -0.207847 0
M  V30 971 N 94.5984 0.214957 -1.56127 0
M  V30 972 C 95.5284 1.2695 -1.95974 0
M  V30 973 C 96.5094 1.48539 -0.828868 0
M  V30 974 O 97.6944 1.60611 -1.09168 0
M  V30 975 C 94.8244 2.61794 -2.28214 0
M  V30 976 C 93.7784 2.54851 -3.43853 0
M  V30 977 C 93.1044 3.93785 -3.61715 0
M  V30 978 C 94.4044 2.09065 -4.78632 0
M  V30 979 H 96.0984 0.93846 -2.84312 0
M  V30 980 H 93.6444 0.449996 -1.36788 0
M  V30 981 H 95.5974 3.35731 -2.54682 0
M  V30 982 H 94.3214 2.96599 -1.36736 0
M  V30 983 H 92.9804 1.8337 -3.17444 0
M  V30 984 H 92.6284 4.25908 -2.67602 0
M  V30 985 H 92.3284 3.90019 -4.39498 0
M  V30 986 H 93.8524 4.69374 -3.90539 0
M  V30 987 H 95.2664 2.7275 -5.04262 0
M  V30 988 H 93.6634 2.16346 -5.59745 0
M  V30 989 H 94.7334 1.04315 -4.73547 0
M  V30 990 N 96.0765 1.50051 0.48192 0
M  V30 991 C 97.0235 1.68122 1.58125 0
M  V30 992 C 97.9935 0.522545 1.57666 0
M  V30 993 O 99.1785 0.751844 1.75362 0
M  V30 994 C 96.3185 1.77142 2.96167 0
M  V30 995 C 95.4315 3.0444 3.06497 0
M  V30 996 C 94.5665 3.04321 4.35387 0
M  V30 997 C 93.6055 4.26118 4.3942 0
M  V30 998 N 92.7425 4.238 5.59766 0
M  V30 999 H 97.5825 2.6198 1.42022 0
M  V30 1000 H 95.1195 1.29877 0.690687 0
M  V30 1001 H 97.0775 1.80352 3.76203 0
M  V30 1002 H 95.7075 0.867329 3.1093 0
M  V30 1003 H 94.7595 3.10752 2.19402 0
M  V30 1004 H 96.0715 3.94426 3.05336 0
M  V30 1005 H 95.2255 3.062 5.23762 0
M  V30 1006 H 93.9645 2.12147 4.39141 0
M  V30 1007 H 92.9695 4.24463 3.49444 0
M  V30 1008 H 94.1945 5.19507 4.37366 0
M  V30 1009 H 92.1405 3.34474 5.64326 0
M  V30 1010 H 92.0575 5.07542 5.60301 0
M  V30 1011 H 93.3255 4.2981 6.50295 0
M  V30 1012 N 97.5546 -0.734337 1.39446 0
M  V30 1013 C 98.8006 -1.49613 1.36908 0
M  V30 1014 C 99.1336 -1.94169 -0.0347829 0
M  V30 1015 O 98.4086 -1.66833 -0.999847 0
M  V30 1016 C 98.6916 -2.73534 2.34203 0
M  V30 1017 C 98.5446 -2.34993 3.83534 0
M  V30 1018 C 99.8636 -3.75635 2.29317 0
M  V30 1019 H 96.9826 -0.542714 0.498629 0
M  V30 1020 H 99.6246 -0.839597 1.70443 0
M  V30 1021 H 97.7746 -3.29553 2.05736 0
M  V30 1022 H 99.4466 -1.84601 4.22753 0
M  V30 1023 H 97.6896 -1.67213 4.00278 0
M  V30 1024 H 98.3606 -3.23738 4.47099 0
M  V30 1025 H 100.837 -3.29203 2.54489 0
M  V30 1026 H 99.7126 -4.60008 2.99472 0
M  V30 1027 H 99.9736 -4.22603 1.29842 0
M  V30 1028 N 99.0327 -1.24633 -0.964593 0
M  V30 1029 C 99.9627 -1.06611 -2.07741 0
M  V30 1030 C 100.944 0.0218666 -1.70086 0
M  V30 1031 O 102.129 -0.145793 -1.93652 0
M  V30 1032 C 99.2587 -0.673444 -3.40708 0
M  V30 1033 C 98.2127 -1.71054 -3.92332 0
M  V30 1034 C 97.5387 -1.17285 -5.21678 0
M  V30 1035 C 98.8387 -3.10718 -4.19824 0
M  V30 1036 H 100.533 -1.99693 -2.23076 0
M  V30 1037 H 98.0787 -0.96152 -1.07195 0
M  V30 1038 H 100.032 -0.534345 -4.17998 0
M  V30 1039 H 98.7557 0.293073 -3.25282 0
M  V30 1040 H 97.4147 -1.83791 -3.17201 0
M  V30 1041 H 97.0627 -0.196847 -5.02615 0
M  V30 1042 H 96.7627 -1.86592 -5.57187 0
M  V30 1043 H 98.2867 -1.04593 -6.01575 0
M  V30 1044 H 99.7007 -3.01192 -4.87808 0
M  V30 1045 H 98.0977 -3.77406 -4.66567 0
M  V30 1046 H 99.1677 -3.58524 -3.26479 0
M  V30 1047 N 100.511 1.16574 -1.06058 0
M  V30 1048 C 101.759 1.86677 -0.77434 0
M  V30 1049 C 102.08 1.81959 0.701147 0
M  V30 1050 O 101.35 1.2515 1.50713 0
M  V30 1051 H 99.9298 0.691134 -0.283449 0
M  V30 1052 H 102.592 1.41378 -1.34158 0
M  V30 1053 H 101.688 2.92181 -1.09711 0
M  V30 1054 N 101.989 0.842826 1.3317 0
M  V30 1055 C 102.921 0.236245 2.27979 0
M  V30 1056 C 103.934 -0.585282 1.51915 0
M  V30 1057 O 105.123 -0.411705 1.73687 0
M  V30 1058 C 102.223 -0.685717 3.3189 0
M  V30 1059 C 101.396 0.0973448 4.37292 0
M  V30 1060 C 100.455 -0.748565 5.20848 0
M  V30 1061 O 99.4809 -0.186339 5.68895 0
M  V30 1062 N 100.683 -2.06527 5.42519 0
M  V30 1063 H 103.448 1.05088 2.80672 0
M  V30 1064 H 101.009 0.701667 1.45905 0
M  V30 1065 H 103.001 -1.25669 3.84694 0
M  V30 1066 H 101.571 -1.40105 2.79445 0
M  V30 1067 H 100.791 0.849706 3.84933 0
M  V30 1068 H 102.079 0.635643 5.04814 0
M  V30 1069 H 101.477 -2.54554 5.05192 0
M  V30 1070 H 100.034 -2.58464 5.98364 0
M  V30 1071 N 103.467 -1.45747 0.599634 0
M  V30 1072 C 104.715 -2.01893 0.0915472 0
M  V30 1073 C 105.036 -1.47155 -1.27946 0
M  V30 1074 O 104.306 -0.66273 -1.84349 0
M  V30 1075 H 102.886 -0.746363 0.0308524 0
M  V30 1076 H 105.548 -1.78645 0.779237 0
M  V30 1077 H 104.644 -3.1208 0.0353086 0
M  V30 1078 N 104.945 -0.338344 -1.53925 0
M  V30 1079 C 106.17 0.263987 -2.05713 0
M  V30 1080 C 106.595 1.43847 -1.21201 0
M  V30 1081 O 105.953 1.79904 -0.224535 0
M  V30 1082 C 106.001 0.662 -3.54471 0
M  V30 1083 O 105.105 1.76265 -3.72833 0
M  V30 1084 H 104.446 0.0448722 -0.662482 0
M  V30 1085 H 106.976 -0.491048 -1.9862 0
M  V30 1086 H 106.986 0.940594 -3.9701 0
M  V30 1087 H 105.661 -0.196937 -4.15433 0
M  V30 1088 H 104.238 1.48173 -3.42198 0
M  V30 1089 N 106.423 1.57458 -0.0668435 0
M  V30 1090 C 107.67 1.93301 0.603406 0
M  V30 1091 C 107.998 0.946486 1.69917 0
M  V30 1092 O 107.253 -0.0387021 1.95662 0
M  V30 1093 C 107.552 3.35784 1.22409 0
M  V30 1094 C 107.218 4.50179 0.254955 0
M  V30 1095 C 105.88 4.81199 -0.0116746 0
M  V30 1096 C 108.232 5.19598 -0.408338 0
M  V30 1097 C 105.56 5.78978 -0.94877 0
M  V30 1098 C 107.912 6.18381 -1.33372 0
M  V30 1099 C 106.576 6.47821 -1.60887 0
M  V30 1100 H 105.846 0.707338 0.220802 0
M  V30 1101 H 108.493 1.91012 -0.136665 0
M  V30 1102 H 106.798 3.34515 2.03978 0
M  V30 1103 H 108.495 3.60804 1.74989 0
M  V30 1104 H 105.085 4.25983 0.472954 0
M  V30 1105 H 109.269 4.95832 -0.215456 0
M  V30 1106 H 104.525 6.00115 -1.16925 0
M  V30 1107 H 108.699 6.71277 -1.85367 0
M  V30 1108 H 106.326 7.23399 -2.33661 0
M  V30 1109 N 107.901 -0.206675 1.56239 0
M  V30 1110 C 109.149 -0.927007 1.79586 0
M  V30 1111 C 109.47 -1.8427 0.637929 0
M  V30 1112 O 108.74 -1.92849 -0.344398 0
M  V30 1113 H 107.32 -0.345292 0.662407 0
M  V30 1114 H 109.982 -0.21496 1.93711 0
M  V30 1115 H 109.078 -1.52501 2.72305 0
M  V30 1116 N 109.379 -1.50304 -0.473955 0
M  V30 1117 C 110.326 -1.68959 -1.57231 0
M  V30 1118 C 111.296 -0.530899 -1.57387 0
M  V30 1119 O 112.481 -0.761133 -1.74961 0
M  V30 1120 C 109.621 -1.7871 -2.95223 0
M  V30 1121 C 108.734 -3.06061 -3.04878 0
M  V30 1122 C 107.869 -3.06626 -4.33767 0
M  V30 1123 C 106.908 -4.28443 -4.37154 0
M  V30 1124 N 106.045 -4.26763 -5.5751 0
M  V30 1125 H 110.885 -2.6273 -1.40631 0
M  V30 1126 H 108.422 -1.30241 -0.683789 0
M  V30 1127 H 110.38 -1.82344 -3.75242 0
M  V30 1128 H 109.01 -0.883806 -3.10465 0
M  V30 1129 H 108.062 -3.11911 -2.17751 0
M  V30 1130 H 109.374 -3.96039 -3.0324 0
M  V30 1131 H 108.528 -3.08973 -5.22131 0
M  V30 1132 H 107.267 -2.14473 -4.3801 0
M  V30 1133 H 106.272 -4.2631 -3.47188 0
M  V30 1134 H 107.497 -5.2182 -4.34605 0
M  V30 1135 H 105.443 -3.37462 -5.62544 0
M  V30 1136 H 105.36 -5.10507 -5.57601 0
M  V30 1137 H 106.628 -4.33253 -6.48006 0
M  V30 1138 N 110.857 0.726932 -1.39834 0
M  V30 1139 C 112.103 1.48884 -1.377 0
M  V30 1140 C 112.436 1.94185 0.0244852 0
M  V30 1141 O 111.711 1.67361 0.990986 0
M  V30 1142 C 111.994 2.72288 -2.3565 0
M  V30 1143 C 111.847 2.32956 -3.84775 0
M  V30 1144 C 113.166 3.74414 -2.31306 0
M  V30 1145 H 110.285 0.540062 -0.5015 0
M  V30 1146 H 112.927 0.830547 -1.70886 0
M  V30 1147 H 111.077 3.28457 -2.07481 0
M  V30 1148 H 112.749 1.82356 -4.23726 0
M  V30 1149 H 110.992 1.65088 -4.01159 0
M  V30 1150 H 111.663 3.21362 -4.4881 0
M  V30 1151 H 114.139 3.27849 -2.56231 0
M  V30 1152 H 113.015 4.58414 -3.01907 0
M  V30 1153 H 113.276 4.21909 -1.32081 0
M  V30 1154 N 112.336 1.25143 0.95797 0
M  V30 1155 C 113.583 1.09692 1.70217 0
M  V30 1156 C 113.911 -0.362654 1.91089 0
M  V30 1157 O 113.166 -1.28386 1.47701 0
M  V30 1158 C 113.465 1.79272 3.09187 0
M  V30 1159 C 113.131 3.29196 3.08125 0
M  V30 1160 C 111.793 3.70096 3.07543 0
M  V30 1161 C 114.145 4.24995 3.0171 0
M  V30 1162 C 111.473 5.05213 2.9829 0
M  V30 1163 C 113.825 5.60132 2.93999 0
M  V30 1164 C 112.489 6.00365 2.9175 0
M  V30 1165 H 111.759 0.401393 0.622868 0
M  V30 1166 H 114.406 1.55372 1.11945 0
M  V30 1167 H 112.711 1.26014 3.70982 0
M  V30 1168 H 114.408 1.64773 3.65583 0
M  V30 1169 H 110.998 2.96651 3.09348 0
M  V30 1170 H 115.182 3.9439 3.01281 0
M  V30 1171 H 110.438 5.35569 2.94916 0
M  V30 1172 H 114.612 6.3406 2.87996 0
M  V30 1173 H 112.239 7.05023 2.84336 0
M  V30 1174 N 113.814 -1.1601 1.06675 0
M  V30 1175 C 114.744 -2.22688 0.702307 0
M  V30 1176 C 115.725 -1.67306 -0.307032 0
M  V30 1177 O 116.91 -1.93352 -0.181305 0
M  V30 1178 C 114.04 -3.47178 0.092038 0
M  V30 1179 C 112.994 -4.15477 1.02777 0
M  V30 1180 C 112.32 -5.33963 0.28061 0
M  V30 1181 C 113.62 -4.66019 2.35846 0
M  V30 1182 H 115.314 -2.53429 1.59419 0
M  V30 1183 H 112.86 -1.21813 0.767961 0
M  V30 1184 H 114.813 -4.21037 -0.174814 0
M  V30 1185 H 113.537 -3.15749 -0.834877 0
M  V30 1186 H 112.196 -3.43549 1.27944 0
M  V30 1187 H 111.844 -4.98788 -0.649545 0
M  V30 1188 H 111.544 -5.806 0.904258 0
M  V30 1189 H 113.068 -6.10596 0.021396 0
M  V30 1190 H 114.482 -5.3144 2.15045 0
M  V30 1191 H 112.879 -5.23293 2.93743 0
M  V30 1192 H 113.949 -3.82023 2.98641 0
M  V30 1193 N 115.292 -0.849877 -1.32721 0
M  V30 1194 C 116.538 -0.451591 -1.97708 0
M  V30 1195 C 116.871 0.989175 -1.6712 0
M  V30 1196 O 116.146 1.69334 -0.956891 0
M  V30 1197 C 116.429 -0.685598 -3.53513 0
M  V30 1198 C 116.282 -2.17444 -3.93749 0
M  V30 1199 C 117.601 -0.138874 -4.39881 0
M  V30 1200 H 114.72 -0.16555 -0.718166 0
M  V30 1201 H 117.362 -1.06742 -1.57182 0
M  V30 1202 H 115.512 -0.161416 -3.88165 0
M  V30 1203 H 117.184 -2.76433 -3.693 0
M  V30 1204 H 115.427 -2.65476 -3.43081 0
M  V30 1205 H 116.098 -2.28888 -5.02309 0
M  V30 1206 H 118.574 -0.587068 -4.11938 0
M  V30 1207 H 117.45 -0.332213 -5.47894 0
M  V30 1208 H 117.711 0.95806 -4.31594 0
M  V30 1209 N 116.77 1.45427 -0.607355 0
M  V30 1210 C 118.186 1.57283 -0.270985 0
M  V30 1211 C 118.386 1.59875 1.22647 0
M  V30 1212 O 117.442 1.52893 2.00948 0
M  V30 1213 C 118.755 2.85566 -0.941952 0
M  V30 1214 C 120.303 2.9924 -0.917849 0
M  V30 1215 C 120.778 4.30293 -1.56882 0
M  V30 1216 N 122.269 4.37051 -1.5343 0
M  V30 1217 C 123.004 5.37123 -2.00715 0
M  V30 1218 N 122.5 6.43734 -2.56084 0
M  V30 1219 N 124.293 5.28479 -1.91484 0
M  V30 1220 H 116.444 1.41988 -1.57966 0
M  V30 1221 H 118.707 0.67885 -0.661715 0
M  V30 1222 H 118.413 2.8955 -1.99633 0
M  V30 1223 H 118.287 3.74322 -0.465096 0
M  V30 1224 H 120.674 2.94822 0.127984 0
M  V30 1225 H 120.755 2.11895 -1.43297 0
M  V30 1226 H 120.399 4.35469 -2.61398 0
M  V30 1227 H 120.329 5.16454 -1.02873 0
M  V30 1228 H 122.82 3.60615 -1.12982 0
M  V30 1229 H 123.133 7.16341 -2.89958 0
M  V30 1230 H 121.478 6.44485 -2.60122 0
M  V30 1231 H 124.669 4.44098 -1.47967 0
M  V30 1232 H 124.842 6.0632 -2.28648 0
M  V30 1233 N 118.248 0.346503 1.53744 0
M  V30 1234 C 119.195 -0.508914 2.25119 0
M  V30 1235 C 120.165 -1.09315 1.25058 0
M  V30 1236 O 121.35 -1.12921 1.53797 0
M  V30 1237 C 118.49 -1.65246 3.02965 0
M  V30 1238 C 117.603 -1.09525 4.17886 0
M  V30 1239 C 116.738 -2.20634 4.83212 0
M  V30 1240 C 115.777 -1.62279 5.90196 0
M  V30 1241 N 114.914 -2.67143 6.49291 0
M  V30 1242 H 119.754 0.106283 2.9781 0
M  V30 1243 H 117.291 0.0642227 1.4696 0
M  V30 1244 H 119.249 -2.32574 3.4636 0
M  V30 1245 H 117.879 -2.2386 2.32565 0
M  V30 1246 H 116.931 -0.312818 3.79112 0
M  V30 1247 H 118.243 -0.628444 4.94825 0
M  V30 1248 H 117.397 -2.95821 5.29693 0
M  V30 1249 H 116.136 -2.70659 4.05703 0
M  V30 1250 H 115.141 -0.855989 5.43096 0
M  V30 1251 H 116.366 -1.13102 6.69615 0
M  V30 1252 H 114.312 -3.16417 5.74645 0
M  V30 1253 H 114.229 -2.25093 7.21713 0
M  V30 1254 H 115.497 -3.4209 7.00425 0
M  V30 1255 N 119.726 -1.57421 0.075193 0
M  V30 1256 C 120.972 -1.93905 -0.594025 0
M  V30 1257 C 121.305 -0.955701 -1.69056 0
M  V30 1258 O 120.58 0.0145373 -1.94495 0
M  V30 1259 C 120.863 -3.40638 -1.1678 0
M  V30 1260 C 120.716 -4.49733 -0.0776792 0
M  V30 1261 C 122.035 -3.88259 -2.07228 0
M  V30 1262 H 119.154 -0.705105 -0.214466 0
M  V30 1263 H 121.796 -1.8947 0.141854 0
M  V30 1264 H 119.946 -3.44549 -1.79494 0
M  V30 1265 H 121.618 -4.57942 0.555573 0
M  V30 1266 H 119.861 -4.29751 0.591286 0
M  V30 1267 H 120.532 -5.49549 -0.519603 0
M  V30 1268 H 123.008 -3.86376 -1.54445 0
M  V30 1269 H 121.884 -4.91533 -2.44308 0
M  V30 1270 H 122.145 -3.26396 -2.98191 0
M  V30 1271 N 121.204 0.198386 -1.56346 0
M  V30 1272 C 122.432 0.935572 -1.84539 0
M  V30 1273 C 122.847 1.76989 -0.657281 0
M  V30 1274 O 122.204 1.78626 0.374043 0
M  V30 1275 C 122.255 1.8344 -3.11499 0
M  V30 1276 O 121.976 1.03377 -4.25728 0
M  V30 1277 C 123.477 2.68355 -3.52846 0
M  V30 1278 H 120.697 0.273126 -0.612897 0
M  V30 1279 H 123.241 0.20663 -2.03453 0
M  V30 1280 H 121.396 2.51701 -2.94492 0
M  V30 1281 H 121.81 1.64599 -4.98003 0
M  V30 1282 H 123.284 3.27085 -4.44657 0
M  V30 1283 H 123.761 3.41901 -2.75681 0
M  V30 1284 H 124.367 2.05471 -3.72373 0
M  V30 1285 N 122.682 1.50554 0.465978 0
M  V30 1286 C 124.098 1.38093 0.800154 0
M  V30 1287 C 124.298 0.440988 1.96615 0
M  V30 1288 O 123.354 -0.114499 2.5224 0
M  V30 1289 C 124.667 2.79565 1.10742 0
M  V30 1290 C 126.215 2.88516 1.21357 0
M  V30 1291 C 126.69 4.30833 1.55393 0
M  V30 1292 N 128.181 4.33807 1.62375 0
M  V30 1293 C 128.916 5.40927 1.90225 0
M  V30 1294 N 128.412 6.58247 2.16062 0
M  V30 1295 N 130.205 5.28376 1.9177 0
M  V30 1296 H 122.356 2.10237 -0.302366 0
M  V30 1297 H 124.619 0.945203 -0.0727746 0
M  V30 1298 H 124.325 3.50208 0.323661 0
M  V30 1299 H 124.199 3.17125 2.04234 0
M  V30 1300 H 126.586 2.1809 1.98799 0
M  V30 1301 H 126.667 2.54492 0.258321 0
M  V30 1302 H 126.311 5.01799 0.784889 0
M  V30 1303 H 126.241 4.62347 2.52076 0
M  V30 1304 H 128.732 3.49212 1.44427 0
M  V30 1305 H 129.045 7.3569 2.36601 0
M  V30 1306 H 127.39 6.61413 2.13444 0
M  V30 1307 H 130.581 4.35715 1.71085 0
M  V30 1308 H 130.754 6.11944 2.13139 0
M  V30 1309 N 124.16 -0.719506 1.40217 0
M  V30 1310 C 125.571 -1.29848 1.34151 0
M  V30 1311 C 125.922 -1.96196 0.0131349 0
M  V30 1312 O 125.047 -1.973 -0.88892 0
M  V30 1313 C 125.642 -2.36118 2.42968 0
M  V30 1314 C 124.201 -2.8965 2.40374 0
M  V30 1315 C 123.348 -1.63393 2.24049 0
M  V30 1316 H 126.299 -0.51591 1.5008 0
M  V30 1317 H 126.32 -3.16871 2.10649 0
M  V30 1318 H 125.832 -1.878 3.39636 0
M  V30 1319 H 123.933 -3.42208 1.47392 0
M  V30 1320 H 124.046 -3.4171 3.35814 0
M  V30 1321 H 122.41 -1.88312 1.71495 0
M  V30 1322 H 123.193 -1.17104 3.2271 0
M  V30 1323 N 125.638 -1.25649 -0.95132 0
M  V30 1324 C 126.915 -1.01361 -1.67288 0
M  V30 1325 C 127.295 0.459135 -2.06046 0
M  V30 1326 O 126.643 1.43723 -1.7764 0
M  V30 1327 C 126.853 -1.95256 -2.89268 0
M  V30 1328 C 128.201 -2.23289 -3.61147 0
M  V30 1329 O 129.225 -1.93041 -2.99355 0
M  V30 1330 O 128.084 -2.74741 -4.72419 0
M  V30 1331 H 125.178 -0.38464 -0.732107 0
M  V30 1332 H 127.724 -1.36817 -1.00395 0
M  V30 1333 H 126.496 -2.94685 -2.57442 0
M  V30 1334 H 126.119 -1.60218 -3.6389 0
M  V30 1335 N 127.117 1.15442 -1.07289 0
M  V30 1336 C 128.342 1.90638 -0.816828 0
M  V30 1337 C 128.767 1.77445 0.624083 0
M  V30 1338 O 128.125 1.10671 1.43602 0
M  V30 1339 C 128.173 3.39008 -1.22906 0
M  V30 1340 O 127.277 4.10701 -0.373975 0
M  V30 1341 H 126.618 0.593555 -0.297638 0
M  V30 1342 H 129.148 1.46198 -1.43134 0
M  V30 1343 H 129.158 3.89801 -1.20497 0
M  V30 1344 H 127.833 3.47929 -2.27856 0
M  V30 1345 H 126.41 3.70046 -0.460499 0
M  V30 1346 N 128.595 0.856903 1.32268 0
M  V30 1347 C 129.843 0.460474 1.96784 0
M  V30 1348 C 130.164 -0.987701 1.68135 0
M  V30 1349 O 129.434 -1.69058 0.989765 0
M  V30 1350 H 128.014 0.167289 0.728027 0
M  V30 1351 H 130.676 1.09383 1.61312 0
M  V30 1352 H 129.772 0.60739 3.06133 0
M  V30 1353 N 130.073 -1.45103 0.615059 0
M  V30 1354 C 131.023 -2.27679 -0.120966 0
M  V30 1355 C 132.007 -1.3775 -0.831491 0
M  V30 1356 O 133.199 -1.61683 -0.720249 0
M  V30 1357 C 130.328 -3.24767 -1.1127 0
M  V30 1358 C 129.414 -4.22184 -0.402627 0
M  V30 1359 N 129.805 -5.02692 0.559884 0
M  V30 1360 C 128.103 -4.4125 -0.649202 0
M  V30 1361 C 128.804 -5.73421 0.977942 0
M  V30 1362 N 127.78 -5.42657 0.320104 0
M  V30 1363 H 131.582 -2.87325 0.618181 0
M  V30 1364 H 129.096 -1.56345 0.439304 0
M  V30 1365 H 131.093 -3.82666 -1.65446 0
M  V30 1366 H 129.753 -2.66682 -1.85232 0
M  V30 1367 H 130.764 -5.09354 0.936976 0
M  V30 1368 H 127.441 -3.9428 -1.37293 0
M  V30 1369 H 128.831 -6.48107 1.77222 0
M  V30 1370 N 131.551 -0.354651 -1.53558 0
M  V30 1371 C 132.481 0.489091 -2.2832 0
M  V30 1372 C 133.462 1.09324 -1.30316 0
M  V30 1373 O 134.647 1.11255 -1.59173 0
M  V30 1374 C 131.777 1.63456 -3.0643 0
M  V30 1375 C 130.731 1.1582 -4.12031 0
M  V30 1376 C 130.057 2.39305 -4.7816 0
M  V30 1377 C 131.357 0.250731 -5.21698 0
M  V30 1378 H 133.051 -0.134614 -2.99097 0
M  V30 1379 H 130.597 -0.0661826 -1.43848 0
M  V30 1380 H 132.55 2.23136 -3.57475 0
M  V30 1381 H 131.274 2.28533 -2.33325 0
M  V30 1382 H 129.933 0.584146 -3.61916 0
M  V30 1383 H 129.581 3.02814 -4.01637 0
M  V30 1384 H 129.281 2.08109 -5.49513 0
M  V30 1385 H 130.805 2.99691 -5.31994 0
M  V30 1386 H 132.219 0.754695 -5.68311 0
M  V30 1387 H 130.616 0.0301468 -6.00092 0
M  V30 1388 H 131.686 -0.710125 -4.79672 0
M  V30 1389 N 133.029 1.57378 -0.0835403 0
M  V30 1390 C 134.259 1.97975 0.590713 0
M  V30 1391 C 134.667 0.961083 1.62972 0
M  V30 1392 O 134.01 -0.0590879 1.83605 0
M  V30 1393 C 134.072 3.34915 1.3066 0
M  V30 1394 C 133.736 4.55069 0.419698 0
M  V30 1395 C 134.733 5.18868 -0.32749 0
M  V30 1396 C 132.418 5.0114 0.341137 0
M  V30 1397 C 134.412 6.27098 -1.14134 0
M  V30 1398 C 132.099 6.0924 -0.476374 0
M  V30 1399 C 133.097 6.72083 -1.21627 0
M  V30 1400 O 132.785 7.781 -2.02028 0
M  V30 1401 H 132.517 0.655818 0.163947 0
M  V30 1402 H 135.071 2.04807 -0.156021 0
M  V30 1403 H 133.301 3.24733 2.09966 0
M  V30 1404 H 134.99 3.60037 1.87424 0
M  V30 1405 H 135.756 4.84211 -0.276459 0
M  V30 1406 H 131.635 4.51996 0.90668 0
M  V30 1407 H 135.179 6.7608 -1.71935 0
M  V30 1408 H 131.076 6.43329 -0.528927 0
M  V30 1409 H 131.844 7.95034 -1.94586 0
M  V30 1410 N 134.507 -0.190092 1.56449 0
M  V30 1411 C 135.47 -1.21925 1.9408 0
M  V30 1412 C 136.47 -1.38176 0.822431 0
M  V30 1413 O 137.66 -1.35903 1.08977 0
M  V30 1414 C 134.792 -2.58773 2.21922 0
M  V30 1415 H 135.985 -0.897464 2.86157 0
M  V30 1416 H 133.538 -0.43181 1.50217 0
M  V30 1417 H 134.273 -2.95998 1.32499 0
M  V30 1418 H 134.058 -2.48348 3.03424 0
M  V30 1419 H 135.548 -3.32978 2.52022 0
M  V30 1420 N 135.985 -1.50799 -0.457987 0
M  V30 1421 C 136.918 -1.65273 -1.57353 0
M  V30 1422 C 137.896 -0.500578 -1.54703 0
M  V30 1423 O 139.08 -0.721781 -1.74134 0
M  V30 1424 C 136.207 -1.64737 -2.95938 0
M  V30 1425 C 135.253 -2.8567 -3.16693 0
M  V30 1426 S 136.086 -4.46791 -2.95191 0
M  V30 1427 C 137.242 -4.48968 -4.36095 0
M  V30 1428 H 137.475 -2.59633 -1.44838 0
M  V30 1429 H 135.008 -1.40225 -0.64625 0
M  V30 1430 H 136.966 -1.65112 -3.7583 0
M  V30 1431 H 135.627 -0.715899 -3.05833 0
M  V30 1432 H 134.82 -2.81637 -4.17967 0
M  V30 1433 H 134.422 -2.8293 -2.44594 0
M  V30 1434 H 136.714 -4.23337 -5.28954 0
M  V30 1435 H 137.657 -5.50664 -4.45168 0
M  V30 1436 H 138.065 -3.78522 -4.18786 0
M  V30 1437 N 137.463 0.71206 -1.40597 0
M  V30 1438 C 138.41 1.82613 -1.41142 0
M  V30 1439 C 139.38 1.63925 -0.267903 0
M  V30 1440 O 140.565 1.85009 -0.466495 0
M  V30 1441 C 137.705 3.20354 -1.28324 0
M  V30 1442 C 136.818 3.50589 -2.52411 0
M  V30 1443 C 135.953 4.77855 -2.32009 0
M  V30 1444 C 134.992 5.01005 -3.51654 0
M  V30 1445 N 134.129 6.19487 -3.30425 0
M  V30 1446 H 138.969 1.81482 -2.36365 0
M  V30 1447 H 136.506 0.886475 -1.17388 0
M  V30 1448 H 138.464 3.99899 -1.18899 0
M  V30 1449 H 137.094 3.20705 -0.367189 0
M  V30 1450 H 136.146 2.65573 -2.72351 0
M  V30 1451 H 137.458 3.63604 -3.41458 0
M  V30 1452 H 136.612 5.65424 -2.19956 0
M  V30 1453 H 135.351 4.67056 -1.40392 0
M  V30 1454 H 134.356 4.1189 -3.64179 0
M  V30 1455 H 135.581 5.13674 -4.44202 0
M  V30 1456 H 133.527 6.09932 -2.41494 0
M  V30 1457 H 133.444 6.33194 -4.13039 0
M  V30 1458 H 134.712 7.09834 -3.22113 0
M  V30 1459 N 138.941 1.26152 0.944643 0
M  V30 1460 C 140.187 1.11657 1.69294 0
M  V30 1461 C 140.52 -0.339926 1.91202 0
M  V30 1462 O 139.795 -1.24994 1.49019 0
M  V30 1463 C 140.078 1.88236 3.06984 0
M  V30 1464 C 139.931 3.41772 2.92424 0
M  V30 1465 C 141.25 1.67343 4.07043 0
M  V30 1466 H 138.369 0.407004 0.614424 0
M  V30 1467 H 141.011 1.55106 1.09737 0
M  V30 1468 H 139.161 1.51308 3.57824 0
M  V30 1469 H 140.833 3.88433 2.48832 0
M  V30 1470 H 139.076 3.68974 2.28124 0
M  V30 1471 H 139.747 3.90579 3.90067 0
M  V30 1472 H 142.223 1.99509 3.65151 0
M  V30 1473 H 141.099 2.23346 5.01406 0
M  V30 1474 H 141.36 0.617158 4.37771 0
M  V30 1475 N 140.419 -1.14872 1.07899 0
M  V30 1476 C 141.349 -2.2193 0.725887 0
M  V30 1477 C 142.33 -1.67622 -0.28927 0
M  V30 1478 O 143.515 -1.93533 -0.160787 0
M  V30 1479 C 140.645 -3.47061 0.128856 0
M  V30 1480 C 139.599 -4.14363 1.07178 0
M  V30 1481 C 138.925 -5.33636 0.337229 0
M  V30 1482 C 140.225 -4.63492 2.40775 0
M  V30 1483 H 141.919 -2.51724 1.62097 0
M  V30 1484 H 139.465 -1.20991 0.780838 0
M  V30 1485 H 141.418 -4.21199 -0.130147 0
M  V30 1486 H 140.142 -3.16617 -0.80134 0
M  V30 1487 H 138.801 -3.42173 1.3158 0
M  V30 1488 H 138.449 -4.99449 -0.596606 0
M  V30 1489 H 138.149 -5.79609 0.965788 0
M  V30 1490 H 139.673 -6.10539 0.0861567 0
M  V30 1491 H 141.087 -5.2913 2.20669 0
M  V30 1492 H 139.484 -5.20148 2.99276 0
M  V30 1493 H 140.554 -3.78834 3.02676 0
M  V30 1494 N 141.898 -0.863906 -1.31812 0
M  V30 1495 C 142.845 -0.313303 -2.28664 0
M  V30 1496 C 143.815 0.584868 -1.55462 0
M  V30 1497 O 145 0.517805 -1.83639 0
M  V30 1498 C 142.14 0.48441 -3.41683 0
M  V30 1499 C 141.253 -0.440594 -4.29747 0
M  V30 1500 C 140.388 0.370652 -5.29905 0
M  V30 1501 C 139.427 -0.551164 -6.09613 0
M  V30 1502 N 138.564 0.223462 -7.01744 0
M  V30 1503 H 143.404 -1.14444 -2.75148 0
M  V30 1504 H 140.941 -0.575769 -1.35364 0
M  V30 1505 H 142.899 0.962627 -4.05943 0
M  V30 1506 H 141.529 1.28029 -2.96325 0
M  V30 1507 H 140.581 -1.03724 -3.65986 0
M  V30 1508 H 141.893 -1.14767 -4.85417 0
M  V30 1509 H 141.047 0.911638 -5.99812 0
M  V30 1510 H 139.786 1.11105 -4.74876 0
M  V30 1511 H 138.791 -1.10396 -5.38603 0
M  V30 1512 H 140.016 -1.29032 -6.66729 0
M  V30 1513 H 137.962 0.946787 -6.49132 0
M  V30 1514 H 137.879 -0.424399 -7.54808 0
M  V30 1515 H 139.147 0.745876 -7.75923 0
M  V30 1516 N 143.376 1.44774 -0.622745 0
M  V30 1517 C 144.323 2.30635 0.0871679 0
M  V30 1518 C 145.293 1.42994 0.845097 0
M  V30 1519 O 146.478 1.71907 0.827812 0
M  V30 1520 C 143.618 3.28144 1.06844 0
M  V30 1521 C 142.731 4.30888 0.309809 0
M  V30 1522 C 141.866 5.15494 1.28215 0
M  V30 1523 C 140.905 6.09953 0.512198 0
M  V30 1524 N 140.042 6.87287 1.43458 0
M  V30 1525 H 144.882 2.90803 -0.650974 0
M  V30 1526 H 142.419 1.43286 -0.33281 0
M  V30 1527 H 144.377 3.83157 1.65066 0
M  V30 1528 H 143.007 2.69695 1.77382 0
M  V30 1529 H 142.059 3.78414 -0.388181 0
M  V30 1530 H 143.371 4.97955 -0.290254 0
M  V30 1531 H 142.525 5.74983 1.93596 0
M  V30 1532 H 141.264 4.48481 1.91614 0
M  V30 1533 H 140.269 5.49581 -0.155151 0
M  V30 1534 H 141.494 6.78999 -0.116958 0
M  V30 1535 H 139.44 6.2295 2.05594 0
M  V30 1536 H 139.357 7.50763 0.888335 0
M  V30 1537 H 140.625 7.51306 2.07749 0
M  V30 1538 N 144.854 0.36279 1.53368 0
M  V30 1539 C 145.817 -0.472679 2.24273 0
M  V30 1540 C 146.817 -1.012 1.24961 0
M  V30 1541 O 148.007 -0.898194 1.49259 0
M  V30 1542 C 145.139 -1.66039 2.97731 0
M  V30 1543 H 146.332 0.14773 2.99536 0
M  V30 1544 H 143.885 0.114434 1.55881 0
M  V30 1545 H 144.62 -2.31896 2.26704 0
M  V30 1546 H 144.405 -1.28066 3.70596 0
M  V30 1547 H 145.895 -2.25252 3.51641 0
M  V30 1548 N 146.332 -1.57332 0.0918853 0
M  V30 1549 C 147.56 -1.98574 -0.581048 0
M  V30 1550 C 147.975 -0.970903 -1.61923 0
M  V30 1551 O 147.332 0.0399054 -1.82456 0
M  V30 1552 C 147.383 -3.39872 -1.23164 0
M  V30 1553 O 147.104 -4.37469 -0.234989 0
M  V30 1554 C 148.605 -3.96099 -1.99049 0
M  V30 1555 H 145.825 -0.65261 -0.156018 0
M  V30 1556 H 148.369 -2.0379 0.170225 0
M  V30 1557 H 146.524 -3.35679 -1.93386 0
M  V30 1558 H 146.938 -5.19751 -0.70418 0
M  V30 1559 H 148.412 -4.97127 -2.39934 0
M  V30 1560 H 148.889 -3.3374 -2.85507 0
M  V30 1561 H 149.495 -4.03755 -1.3365 0
M  V30 1562 N 147.81 0.181792 -1.56548 0
M  V30 1563 C 148.74 1.22765 -1.98623 0
M  V30 1564 C 149.721 1.46747 -0.860189 0
M  V30 1565 O 150.906 1.58259 -1.12551 0
M  V30 1566 C 148.036 2.56894 -2.33715 0
M  V30 1567 C 146.99 2.475 -3.49182 0
M  V30 1568 C 146.316 3.86023 -3.69986 0
M  V30 1569 C 147.616 1.98866 -4.82959 0
M  V30 1570 H 149.31 0.877942 -2.86239 0
M  V30 1571 H 146.856 0.42088 -1.37712 0
M  V30 1572 H 148.809 3.30253 -2.61746 0
M  V30 1573 H 147.533 2.93632 -1.42997 0
M  V30 1574 H 146.192 1.76596 -3.21262 0
M  V30 1575 H 145.84 4.20136 -2.76576 0
M  V30 1576 H 145.54 3.80609 -4.47672 0
M  V30 1577 H 147.064 4.60984 -4.00407 0
M  V30 1578 H 148.478 2.61992 -5.09934 0
M  V30 1579 H 146.875 2.04424 -5.64208 0
M  V30 1580 H 147.945 0.942465 -4.75653 0
M  V30 1581 N 149.288 1.51039 0.449983 0
M  V30 1582 C 150.235 1.71439 1.54523 0
M  V30 1583 C 151.205 0.555871 1.56522 0
M  V30 1584 O 152.39 0.788871 1.73728 0
M  V30 1585 C 149.53 1.83384 2.92343 0
M  V30 1586 C 148.643 3.10873 2.9997 0
M  V30 1587 C 147.778 3.13488 4.28834 0
M  V30 1588 C 146.817 4.35343 4.30282 0
M  V30 1589 N 145.954 4.35579 5.5065 0
M  V30 1590 H 150.794 2.64934 1.36433 0
M  V30 1591 H 148.331 1.31312 0.662982 0
M  V30 1592 H 150.289 1.88291 3.72293 0
M  V30 1593 H 148.919 0.933086 3.0902 0
M  V30 1594 H 147.971 3.15336 2.12761 0
M  V30 1595 H 149.283 4.00814 2.96901 0
M  V30 1596 H 148.437 3.17241 5.17149 0
M  V30 1597 H 147.176 2.21414 4.34543 0
M  V30 1598 H 146.181 4.3178 3.40362 0
M  V30 1599 H 147.406 5.28668 4.26248 0
M  V30 1600 H 145.352 3.46369 5.57104 0
M  V30 1601 H 145.269 5.19313 5.49409 0
M  V30 1602 H 146.537 4.43507 6.41032 0
M  V30 1603 N 150.766 -0.704594 1.40972 0
M  V30 1604 C 152.012 -1.46675 1.40051 0
M  V30 1605 C 152.345 -1.94199 0.00641102 0
M  V30 1606 O 151.62 -1.68916 -0.964235 0
M  V30 1607 C 151.903 -2.68505 2.39952 0
M  V30 1608 C 151.756 -2.26805 3.88432 0
M  V30 1609 C 153.075 -3.70686 2.37233 0
M  V30 1610 H 150.194 -0.532015 0.510028 0
M  V30 1611 H 152.836 -0.803255 1.72185 0
M  V30 1612 H 150.986 -3.25114 2.1268 0
M  V30 1613 H 152.658 -1.75592 4.26574 0
M  V30 1614 H 150.901 -1.58685 4.03734 0
M  V30 1615 H 151.572 -3.14181 4.53866 0
M  V30 1616 H 154.048 -3.23731 2.61415 0
M  V30 1617 H 152.924 -4.53553 3.09162 0
M  V30 1618 H 153.185 -4.19754 1.38777 0
M  V30 1619 N 152.244 -1.26651 -0.937939 0
M  V30 1620 C 153.66 -1.03834 -1.21205 0
M  V30 1621 C 153.86 0.234502 -2.00131 0
M  V30 1622 O 152.916 0.942767 -2.3424 0
M  V30 1623 C 154.229 -2.27167 -1.97017 0
M  V30 1624 C 155.777 -2.32101 -2.09996 0
M  V30 1625 C 156.252 -3.55136 -2.8921 0
M  V30 1626 N 157.743 -3.55632 -2.96783 0
M  V30 1627 C 158.478 -4.475 -3.58512 0
M  V30 1628 N 157.974 -5.4966 -4.21717 0
M  V30 1629 N 159.767 -4.35145 -3.55816 0
M  V30 1630 H 151.918 -2.08398 -0.410391 0
M  V30 1631 H 154.181 -0.916031 -0.244114 0
M  V30 1632 H 153.887 -3.19765 -1.46434 0
M  V30 1633 H 153.761 -2.31672 -2.97671 0
M  V30 1634 H 156.148 -1.40015 -2.59769 0
M  V30 1635 H 156.229 -2.31605 -1.08594 0
M  V30 1636 H 155.873 -4.47553 -2.40123 0
M  V30 1637 H 155.803 -3.5288 -3.90875 0
M  V30 1638 H 158.294 -2.81743 -2.51852 0
M  V30 1639 H 158.607 -6.15943 -4.66727 0
M  V30 1640 H 156.952 -5.53514 -4.20294 0
M  V30 1641 H 160.143 -3.5455 -3.05634 0
M  V30 1642 H 160.316 -5.06934 -4.03636 0
M  V30 1643 N 153.722 1.14298 -1.08507 0
M  V30 1644 C 154.999 1.81544 -0.728088 0
M  V30 1645 C 155.379 1.95838 0.78808 0
M  V30 1646 O 154.727 1.51904 1.70697 0
M  V30 1647 C 154.937 3.17169 -1.45619 0
M  V30 1648 C 156.285 3.9265 -1.61591 0
M  V30 1649 O 157.309 3.26762 -1.41793 0
M  V30 1650 O 156.168 5.10807 -1.94263 0
M  V30 1651 H 153.262 0.78491 -0.260471 0
M  V30 1652 H 155.808 1.21307 -1.18671 0
M  V30 1653 H 154.58 3.01934 -2.489 0
M  V30 1654 H 154.203 3.851 -0.989124 0
M  V30 1655 N 155.201 0.870884 1.31352 0
M  V30 1656 C 156.617 0.562932 1.49343 0
M  V30 1657 C 156.817 -0.902725 1.80148 0
M  V30 1658 O 155.873 -1.68484 1.88067 0
M  V30 1659 C 157.186 1.46393 2.62659 0
M  V30 1660 C 158.734 1.46607 2.76542 0
M  V30 1661 C 159.209 2.35266 3.92955 0
M  V30 1662 N 160.7 2.33151 4.00243 0
M  V30 1663 C 161.435 2.98471 4.89594 0
M  V30 1664 N 160.931 3.72964 5.8384 0
M  V30 1665 N 162.724 2.87775 4.82848 0
M  V30 1666 H 154.875 1.81923 1.09626 0
M  V30 1667 H 157.138 0.777934 0.541777 0
M  V30 1668 H 156.844 2.50689 2.46674 0
M  V30 1669 H 156.718 1.16314 3.58819 0
M  V30 1670 H 159.105 0.43069 2.9194 0
M  V30 1671 H 159.186 1.8071 1.81046 0
M  V30 1672 H 158.83 3.38881 3.78315 0
M  V30 1673 H 158.76 1.98487 4.87761 0
M  V30 1674 H 161.251 1.79006 3.32814 0
M  V30 1675 H 161.564 4.19932 6.4875 0
M  V30 1676 H 159.909 3.77073 5.83816 0
M  V30 1677 H 163.1 2.29116 4.08195 0
M  V30 1678 H 163.273 3.38961 5.52277 0
M  V30 1679 N 156.679 -1.44442 0.630414 0
M  V30 1680 C 157.925 -2.02351 0.134816 0
M  V30 1681 C 158.258 -1.4947 -1.23986 0
M  V30 1682 O 157.533 -0.678475 -1.82283 0
M  V30 1683 C 157.816 -3.59898 0.120707 0
M  V30 1684 C 157.669 -4.23063 1.52767 0
M  V30 1685 C 158.988 -4.36585 -0.555127 0
M  V30 1686 H 156.107 -0.73527 0.0504646 0
M  V30 1687 H 158.749 -1.72022 0.806751 0
M  V30 1688 H 156.899 -3.85868 -0.451477 0
M  V30 1689 H 158.571 -4.08202 2.14869 0
M  V30 1690 H 156.814 -3.80586 2.08175 0
M  V30 1691 H 157.485 -5.32071 1.46984 0
M  V30 1692 H 159.961 -4.16044 -0.0685429 0
M  V30 1693 H 158.837 -5.46294 -0.534185 0
M  V30 1694 H 159.098 -4.11138 -1.62535 0
M  V30 1695 N 158.157 -0.370918 -1.53173 0
M  V30 1696 C 159.573 -0.0200818 -1.59587 0
M  V30 1697 C 159.773 1.46279 -1.38581 0
M  V30 1698 O 158.829 2.22506 -1.19363 0
M  V30 1699 C 160.142 -0.4808 -2.96831 0
M  V30 1700 C 161.69 -0.435477 -3.09956 0
M  V30 1701 C 162.165 -0.872092 -4.4962 0
M  V30 1702 N 163.656 -0.827364 -4.55751 0
M  V30 1703 C 164.391 -1.13683 -5.62018 0
M  V30 1704 N 163.887 -1.51584 -6.76014 0
M  V30 1705 N 165.68 -1.05927 -5.52029 0
M  V30 1706 H 157.831 -1.33652 -1.65079 0
M  V30 1707 H 160.094 -0.546634 -0.774529 0
M  V30 1708 H 159.8 -1.51577 -3.1736 0
M  V30 1709 H 159.674 0.129796 -3.76977 0
M  V30 1710 H 162.061 0.590371 -2.89134 0
M  V30 1711 H 162.142 -1.08164 -2.31806 0
M  V30 1712 H 161.786 -1.89608 -4.71181 0
M  V30 1713 H 161.716 -0.203127 -5.26208 0
M  V30 1714 H 164.207 -0.548216 -3.73902 0
M  V30 1715 H 164.52 -1.73609 -7.53047 0
M  V30 1716 H 162.865 -1.55454 -6.77391 0
M  V30 1717 H 166.056 -0.762321 -4.61851 0
M  V30 1718 H 166.229 -1.30378 -6.34749 0
M  V30 1719 N 159.635 1.57281 -0.100228 0
M  V30 1720 C 160.863 1.98879 0.570509 0
M  V30 1721 C 161.278 0.979476 1.61405 0
M  V30 1722 O 160.635 -0.0302288 1.82475 0
M  V30 1723 C 160.686 3.4052 1.2136 0
M  V30 1724 O 160.407 4.37588 0.211786 0
M  V30 1725 C 161.908 3.97149 1.96945 0
M  V30 1726 H 159.128 0.653428 0.152555 0
M  V30 1727 H 161.672 2.03697 -0.18103 0
M  V30 1728 H 159.827 3.367 1.91603 0
M  V30 1729 H 160.241 5.20118 0.676607 0
M  V30 1730 H 161.715 4.98393 2.37294 0
M  V30 1731 H 162.192 3.3525 2.83733 0
M  V30 1732 H 162.798 4.04458 1.31506 0
M  V30 1733 N 161.113 -0.173488 1.56642 0
M  V30 1734 C 162.06 -1.21482 1.96242 0
M  V30 1735 C 163.03 -1.44104 0.826027 0
M  V30 1736 O 164.215 -1.5688 1.08597 0
M  V30 1737 C 161.355 -2.54964 2.32567 0
M  V30 1738 C 160.468 -2.39739 3.59373 0
M  V30 1739 C 159.603 -3.66072 3.84921 0
M  V30 1740 C 158.642 -3.45771 5.05083 0
M  V30 1741 N 157.779 -4.64169 5.26775 0
M  V30 1742 H 162.619 -0.870123 2.85014 0
M  V30 1743 H 160.156 -0.418245 1.41029 0
M  V30 1744 H 162.114 -3.32758 2.5165 0
M  V30 1745 H 160.744 -2.87433 1.46908 0
M  V30 1746 H 159.796 -1.53131 3.48217 0
M  V30 1747 H 161.108 -2.20683 4.47326 0
M  V30 1748 H 160.262 -4.52303 4.0436 0
M  V30 1749 H 159.001 -3.88105 2.9534 0
M  V30 1750 H 158.006 -2.57927 4.85545 0
M  V30 1751 H 159.231 -3.25163 5.96193 0
M  V30 1752 H 157.177 -4.86425 4.40144 0
M  V30 1753 H 157.094 -4.48019 6.08946 0
M  V30 1754 H 158.362 -5.51689 5.5069 0
M  V30 1755 N 162.591 -1.51276 -0.441967 0
M  V30 1756 C 163.524 -1.66933 -1.55591 0
M  V30 1757 C 164.502 -0.516958 -1.54163 0
M  V30 1758 O 165.686 -0.740209 -1.73358 0
M  V30 1759 C 162.813 -1.67866 -2.94174 0
M  V30 1760 C 161.859 -2.89013 -3.13646 0
M  V30 1761 S 162.692 -4.49897 -2.90436 0
M  V30 1762 C 163.848 -4.53568 -4.31308 0
M  V30 1763 H 164.081 -2.61155 -1.42076 0
M  V30 1764 H 161.614 -1.40902 -0.631341 0
M  V30 1765 H 163.572 -1.69089 -3.74058 0
M  V30 1766 H 162.233 -0.748296 -3.05056 0
M  V30 1767 H 161.426 -2.86054 -4.14957 0
M  V30 1768 H 161.028 -2.85509 -2.4158 0
M  V30 1769 H 163.32 -4.28924 -5.24434 0
M  V30 1770 H 164.263 -5.55355 -4.39303 0
M  V30 1771 H 164.671 -3.82943 -4.14747 0
M  V30 1772 N 164.069 0.697108 -1.41344 0
M  V30 1773 C 164.979 1.84088 -1.45427 0
M  V30 1774 C 165.995 1.70545 -0.34501 0
M  V30 1775 O 167.171 1.92488 -0.592492 0
M  V30 1776 C 164.236 3.20056 -1.33286 0
M  V30 1777 C 163.297 3.45718 -2.54514 0
M  V30 1778 C 162.53 4.75199 -2.42944 0
M  V30 1779 O 162.753 5.51579 -1.45318 0
M  V30 1780 O 161.687 5.0161 -3.32672 0
M  V30 1781 H 165.513 1.836 -2.41919 0
M  V30 1782 H 163.098 0.849966 -1.22866 0
M  V30 1783 H 164.98 4.01236 -1.28794 0
M  V30 1784 H 163.655 3.2123 -0.39909 0
M  V30 1785 H 162.562 2.64474 -2.64583 0
M  V30 1786 H 163.895 3.49356 -3.46715 0
M  V30 1787 N 165.547 1.27147 0.931209 0
M  V30 1788 C 166.963 1.04475 1.20653 0
M  V30 1789 C 167.163 -0.223885 2.00252 0
M  V30 1790 O 166.219 -0.930332 2.34736 0
M  V30 1791 C 167.532 2.28209 1.95809 0
M  V30 1792 C 169.08 2.33211 2.08762 0
M  V30 1793 C 169.555 3.56665 2.87323 0
M  V30 1794 N 171.046 3.57201 2.94892 0
M  V30 1795 C 171.781 4.49395 3.56134 0
M  V30 1796 N 171.277 5.51889 4.18796 0
M  V30 1797 N 173.07 4.37026 3.53504 0
M  V30 1798 H 165.221 2.08612 0.399333 0
M  V30 1799 H 167.484 0.917312 0.239253 0
M  V30 1800 H 167.19 3.20538 1.44736 0
M  V30 1801 H 167.064 2.33247 2.96438 0
M  V30 1802 H 169.451 1.41391 2.59023 0
M  V30 1803 H 169.532 2.32178 1.07364 0
M  V30 1804 H 169.176 4.4882 2.37746 0
M  V30 1805 H 169.106 3.54948 3.88998 0
M  V30 1806 H 171.597 2.83074 2.50354 0
M  V30 1807 H 171.91 6.18409 4.63454 0
M  V30 1808 H 170.255 5.55735 4.17353 0
M  V30 1809 H 173.446 3.56166 3.03749 0
M  V30 1810 H 173.619 5.09067 4.00942 0
M  V30 1811 N 167.025 -1.13721 1.09112 0
M  V30 1812 C 168.302 -1.81155 0.737706 0
M  V30 1813 C 168.682 -1.96253 -0.777683 0
M  V30 1814 O 168.03 -1.52807 -1.69889 0
M  V30 1815 C 168.24 -3.16392 1.47299 0
M  V30 1816 C 169.588 -3.91787 1.63671 0
M  V30 1817 O 170.612 -3.26005 1.43524 0
M  V30 1818 O 169.471 -5.0977 1.96969 0
M  V30 1819 H 166.565 -0.783518 0.26463 0
M  V30 1820 H 169.111 -1.20676 1.19312 0
M  V30 1821 H 167.883 -3.0061 2.50498 0
M  V30 1822 H 167.506 -3.8457 1.00953 0
M  V30 1823 N 168.503 -0.877838 -1.30888 0
M  V30 1824 C 169.752 -0.488793 -1.95688 0
M  V30 1825 C 170.065 0.965485 -1.70111 0
M  V30 1826 O 171.271 1.46104 -2.28836 0
M  V30 1827 C 169.727 -0.823201 -3.50359 0
M  V30 1828 C 169.335 -2.29477 -3.84765 0
M  V30 1829 C 171.079 -0.503009 -4.21509 0
M  V30 1830 C 168.986 -2.57118 -5.32583 0
M  V30 1831 H 167.916 -0.179062 -0.732429 0
M  V30 1832 H 170.567 -1.07183 -1.48943 0
M  V30 1833 H 168.949 -0.169331 -3.95638 0
M  V30 1834 H 170.123 -2.99236 -3.5042 0
M  V30 1835 H 168.438 -2.58178 -3.267 0
M  V30 1836 H 171.035 -0.68665 -5.30273 0
M  V30 1837 H 171.378 0.557109 -4.12555 0
M  V30 1838 H 171.911 -1.11376 -3.8189 0
M  V30 1839 H 168.65 -3.61843 -5.4658 0
M  V30 1840 H 168.17 -1.91961 -5.68253 0
M  V30 1841 H 169.849 -2.42251 -5.99936 0
M  V30 1842 N 169.982 1.44106 -0.638065 0
M  V30 1843 C 170.912 2.33448 0.0494287 0
M  V30 1844 C 171.893 1.48606 0.827672 0
M  V30 1845 O 173.078 1.77308 0.792173 0
M  V30 1846 C 170.208 3.31771 1.02691 0
M  V30 1847 C 169.162 4.26485 0.359823 0
M  V30 1848 C 168.488 5.14729 1.44769 0
M  V30 1849 C 169.788 5.17056 -0.738296 0
M  V30 1850 H 171.482 2.91183 -0.696636 0
M  V30 1851 H 169.028 1.40014 -0.336456 0
M  V30 1852 H 170.981 3.93161 1.51666 0
M  V30 1853 H 169.705 2.7226 1.80395 0
M  V30 1854 H 168.364 3.66437 -0.10934 0
M  V30 1855 H 168.012 4.51566 2.21578 0
M  V30 1856 H 167.712 5.78913 1.00668 0
M  V30 1857 H 169.236 5.78991 1.93911 0
M  V30 1858 H 170.65 5.72342 -0.331354 0
M  V30 1859 H 169.047 5.89879 -1.10286 0
M  V30 1860 H 170.117 4.57652 -1.60258 0
M  V30 1861 N 171.46 0.379036 1.52974 0
M  V30 1862 C 172.423 -0.448865 2.24762 0
M  V30 1863 C 173.423 -0.998689 1.26027 0
M  V30 1864 O 174.613 -0.882313 1.50203 0
M  V30 1865 C 171.745 -1.62872 2.99476 0
M  V30 1866 H 172.938 0.179491 2.99362 0
M  V30 1867 H 170.491 0.13096 1.5575 0
M  V30 1868 H 171.226 -2.29479 2.29151 0
M  V30 1869 H 171.011 -1.24128 3.71934 0
M  V30 1870 H 172.501 -2.2151 3.5401 0
M  V30 1871 N 172.938 -1.57226 0.108567 0
M  V30 1872 C 174.215 -1.86333 -0.594939 0
M  V30 1873 C 174.595 -1.00788 -1.85486 0
M  V30 1874 O 173.943 -0.0839293 -2.28346 0
M  V30 1875 C 174.153 -3.37265 -0.897405 0
M  V30 1876 C 175.501 -4.05629 -1.25501 0
M  V30 1877 O 176.525 -3.42224 -0.987998 0
M  V30 1878 O 175.384 -5.17531 -1.75567 0
M  V30 1879 H 172.478 -0.771018 -0.2991 0
M  V30 1880 H 175.024 -1.69102 0.142283 0
M  V30 1881 H 173.796 -3.913 -0.00413806 0
M  V30 1882 H 173.419 -3.59889 -1.69014 0
M  V30 1883 N 174.416 0.165178 -1.56732 0
M  V30 1884 C 175.662 0.882112 -1.82611 0
M  V30 1885 C 175.995 1.81628 -0.687378 0
M  V30 1886 O 175.27 1.92009 0.310267 0
M  V30 1887 C 175.553 1.67245 -3.18906 0
M  V30 1888 C 175.406 0.760987 -4.43316 0
M  V30 1889 C 176.725 2.63884 -3.52212 0
M  V30 1890 H 173.844 0.319242 -0.664269 0
M  V30 1891 H 176.486 0.148052 -1.89422 0
M  V30 1892 H 174.636 2.29824 -3.1323 0
M  V30 1893 H 176.308 0.147596 -4.61064 0
M  V30 1894 H 174.551 0.0694102 -4.33744 0
M  V30 1895 H 175.222 1.34962 -5.35247 0
M  V30 1896 H 177.698 2.11429 -3.58381 0
M  V30 1897 H 176.574 3.16245 -4.48643 0
M  V30 1898 H 176.835 3.44377 -2.77231 0
M  V30 1899 N 175.894 1.51508 0.433938 0
M  V30 1900 C 176.842 1.73646 1.54757 0
M  V30 1901 C 177.836 0.602854 1.5831 0
M  V30 1902 O 179.042 0.784318 1.62014 0
M  V30 1903 H 175.417 0.548718 0.51421 0
M  V30 1904 H 177.388 2.66991 1.33261 0
M  V30 1905 C 176.137 1.88172 2.92381 0
M  V30 1906 H 175.46 2.74808 2.90381 0
M  V30 1907 H 176.9 2.07672 3.6966 0
M  V30 1908 C 175.359 0.64239 3.30719 0
M  V30 1909 O 175.889 -0.201362 4.01195 0
M  V30 1910 N 174.095 0.485489 2.86516 0
M  V30 1911 H 173.642 1.17318 2.29334 0
M  V30 1912 H 173.6 -0.342482 3.12529 0
M  V30 1913 N 177.372 -0.689602 1.41712 0
M  V30 1914 C 178.322 -1.79571 1.40493 0
M  V30 1915 C 179.306 -1.58473 0.278409 0
M  V30 1916 O 180.498 -1.69204 0.519532 0
M  V30 1917 C 177.627 -3.17923 1.29536 0
M  V30 1918 C 176.713 -3.44695 2.47075 0
M  V30 1919 N 177.104 -3.42132 3.72531 0
M  V30 1920 C 175.402 -3.75269 2.41017 0
M  V30 1921 C 176.103 -3.67976 4.50521 0
M  V30 1922 N 175.079 -3.88014 3.80718 0
M  V30 1923 H 178.881 -1.75961 2.35404 0
M  V30 1924 H 176.395 -0.889839 1.35851 0
M  V30 1925 H 178.392 -3.97167 1.26745 0
M  V30 1926 H 177.052 -3.22741 0.356153 0
M  V30 1927 H 178.063 -3.22375 4.05333 0
M  V30 1928 H 174.74 -3.87421 1.55599 0
M  V30 1929 H 176.13 -3.7208 5.59469 0
M  V30 1930 N 178.85 -1.27639 -0.924453 0
M  V30 1931 C 180.261 -1.12834 -1.48746 0
M  V30 1932 C 180.612 0.285505 -1.94112 0
M  V30 1933 O 179.737 1.17874 -1.81479 0
M  V30 1934 C 180.332 -2.04217 -2.70334 0
M  V30 1935 C 178.891 -1.93509 -3.22848 0
M  V30 1936 C 178.038 -1.96583 -1.95577 0
M  V30 1937 H 180.989 -1.40484 -0.738233 0
M  V30 1938 H 181.01 -1.59989 -3.4523 0
M  V30 1939 H 180.522 -3.07111 -2.37285 0
M  V30 1940 H 178.623 -0.936131 -3.60649 0
M  V30 1941 H 178.736 -2.79917 -3.88823 0
M  V30 1942 H 177.1 -1.4085 -2.12211 0
M  V30 1943 H 177.883 -3.01137 -1.64837 0
M  V30 1944 N 180.328 1.1314 -1.09713 0
M  V30 1945 C 181.575 1.84484 -0.834987 0
M  V30 1946 C 181.903 1.83689 0.639418 0
M  V30 1947 O 181.158 1.2724 1.4869 0
M  V30 1948 C 181.457 3.32167 -1.3191 0
M  V30 1949 C 181.123 3.53139 -2.80363 0
M  V30 1950 C 179.785 3.58571 -3.20905 0
M  V30 1951 C 182.137 3.60866 -3.76065 0
M  V30 1952 C 179.465 3.69267 -4.55916 0
M  V30 1953 C 181.817 3.73089 -5.10869 0
M  V30 1954 C 180.481 3.76775 -5.50996 0
M  V30 1955 H 179.751 0.675073 -0.305544 0
M  V30 1956 H 182.398 1.33554 -1.37243 0
M  V30 1957 H 180.703 3.85469 -0.701517 0
M  V30 1958 H 182.4 3.85821 -1.09284 0
M  V30 1959 H 178.99 3.49569 -2.47991 0
M  V30 1960 H 183.174 3.55946 -3.45855 0
M  V30 1961 H 178.43 3.70388 -4.86438 0
M  V30 1962 H 182.604 3.78011 -5.84877 0
M  V30 1963 H 180.231 3.84815 -6.55608 0
M  V30 1964 N 181.806 0.884767 1.30421 0
M  V30 1965 C 183.052 0.503851 1.96441 0
M  V30 1966 C 183.385 -0.944518 1.69684 0
M  V30 1967 O 182.66 -1.66737 1.00145 0
M  V30 1968 C 182.943 0.779085 3.51571 0
M  V30 1969 C 182.796 2.27807 3.87846 0
M  V30 1970 C 184.115 0.255452 4.39358 0
M  V30 1971 H 181.234 0.184533 0.713524 0
M  V30 1972 H 183.876 1.10872 1.54297 0
M  V30 1973 H 182.026 0.264274 3.876 0
M  V30 1974 H 183.698 2.86127 3.61841 0
M  V30 1975 H 181.941 2.74479 3.35922 0
M  V30 1976 H 182.612 2.42125 4.96064 0
M  V30 1977 H 185.088 0.696079 4.10236 0
M  V30 1978 H 183.964 0.477361 5.4682 0
M  V30 1979 H 184.225 -0.843293 4.33983 0
M  V30 1980 N 183.284 -1.43765 0.645699 0
M  V30 1981 C 184.53 -2.02197 0.156271 0
M  V30 1982 C 184.863 -1.50776 -1.22393 0
M  V30 1983 O 184.138 -0.697771 -1.81553 0
M  V30 1984 C 184.421 -3.59749 0.158872 0
M  V30 1985 C 184.274 -4.21419 1.57245 0
M  V30 1986 C 185.593 -4.37149 -0.50879 0
M  V30 1987 H 182.712 -0.734694 0.0582602 0
M  V30 1988 H 185.354 -1.71157 0.824951 0
M  V30 1989 H 183.504 -3.86325 -0.410525 0
M  V30 1990 H 185.176 -4.059 2.19186 0
M  V30 1991 H 183.419 -3.78356 2.122 0
M  V30 1992 H 184.09 -5.30482 1.52619 0
M  V30 1993 H 186.566 -4.16093 -0.024412 0
M  V30 1994 H 185.442 -5.4683 -0.476213 0
M  V30 1995 H 185.703 -4.12839 -1.58165 0
M  V30 1996 N 184.763 -0.387143 -1.52771 0
M  V30 1997 C 185.71 0.449048 -2.26389 0
M  V30 1998 C 186.68 1.05961 -1.27912 0
M  V30 1999 O 187.865 1.08804 -1.56737 0
M  V30 2000 C 185.005 1.57155 -3.0724 0
M  V30 2001 C 184.118 0.984066 -4.20643 0
M  V30 2002 C 183.253 2.07745 -4.88892 0
M  V30 2003 C 182.292 1.46574 -5.94292 0
M  V30 2004 N 181.429 2.49834 -6.56146 0
M  V30 2005 H 186.269 -0.185205 -2.97424 0
M  V30 2006 H 183.806 -0.103164 -1.46738 0
M  V30 2007 H 185.764 2.23309 -3.52405 0
M  V30 2008 H 184.394 2.17615 -2.38419 0
M  V30 2009 H 183.446 0.212193 -3.79808 0
M  V30 2010 H 184.758 0.497029 -4.96318 0
M  V30 2011 H 183.912 2.81673 -5.3735 0
M  V30 2012 H 182.651 2.59807 -4.12737 0
M  V30 2013 H 181.656 0.711696 -5.45174 0
M  V30 2014 H 182.881 0.953088 -6.72379 0
M  V30 2015 H 180.827 3.0107 -5.82832 0
M  V30 2016 H 180.744 2.05879 -7.27427 0
M  V30 2017 H 182.012 3.23399 -7.09249 0
M  V30 2018 N 186.241 1.57166 -0.116904 0
M  V30 2019 C 187.171 2.18222 0.830759 0
M  V30 2020 C 188.152 1.12167 1.27877 0
M  V30 2021 O 189.337 1.40394 1.34176 0
M  V30 2022 C 186.467 2.77996 2.08172 0
M  V30 2023 C 185.421 3.89614 1.77157 0
M  V30 2024 C 184.747 4.36187 3.09265 0
M  V30 2025 C 186.047 5.1181 1.04151 0
M  V30 2026 H 187.741 2.97664 0.321992 0
M  V30 2027 H 185.287 1.4318 0.153434 0
M  V30 2028 H 187.24 3.19366 2.74924 0
M  V30 2029 H 185.964 1.9584 2.6137 0
M  V30 2030 H 184.623 3.48816 1.12796 0
M  V30 2031 H 184.271 3.50893 3.60393 0
M  V30 2032 H 183.971 5.11455 2.89288 0
M  V30 2033 H 185.495 4.80207 3.77139 0
M  V30 2034 H 186.909 5.50214 1.61052 0
M  V30 2035 H 185.306 5.92648 0.942762 0
M  V30 2036 H 186.376 4.84892 0.0279022 0
M  V30 2037 N 187.719 -0.156864 1.56817 0
M  V30 2038 C 188.669 -1.19891 1.93934 0
M  V30 2039 C 189.653 -1.39061 0.809372 0
M  V30 2040 O 190.845 -1.40789 1.07273 0
M  V30 2041 C 187.974 -2.53493 2.31508 0
M  V30 2042 C 187.06 -2.37957 3.51052 0
M  V30 2043 N 187.451 -1.92158 4.67877 0
M  V30 2044 C 185.749 -2.68739 3.55943 0
M  V30 2045 C 186.45 -1.8943 5.49992 0
M  V30 2046 N 185.426 -2.32375 4.91429 0
M  V30 2047 H 189.228 -0.836746 2.81737 0
M  V30 2048 H 186.742 -0.365012 1.58245 0
M  V30 2049 H 188.739 -3.28811 2.56299 0
M  V30 2050 H 187.399 -2.905 1.45051 0
M  V30 2051 H 188.41 -1.62274 4.91821 0
M  V30 2052 H 185.087 -3.09687 2.80001 0
M  V30 2053 H 186.477 -1.55596 6.53636 0
M  V30 2054 N 189.197 -1.51736 -0.425897 0
M  V30 2055 C 190.427 -1.68549 -1.19476 0
M  V30 2056 C 190.835 -0.387288 -1.85194 0
M  V30 2057 O 190.178 0.645142 -1.71999 0
M  V30 2058 C 190.24 -2.75275 -2.31223 0
M  V30 2059 C 189.904 -4.17534 -1.8578 0
M  V30 2060 C 190.901 -5.01936 -1.35485 0
M  V30 2061 C 188.586 -4.6369 -1.93123 0
M  V30 2062 C 190.58 -6.30559 -0.931347 0
M  V30 2063 C 188.267 -5.92307 -1.50384 0
M  V30 2064 C 189.265 -6.75569 -1.00473 0
M  V30 2065 O 188.953 -8.0178 -0.583452 0
M  V30 2066 H 188.685 -0.568525 -0.365725 0
M  V30 2067 H 191.239 -1.98982 -0.509444 0
M  V30 2068 H 189.469 -2.40182 -3.03067 0
M  V30 2069 H 191.158 -2.80853 -2.93047 0
M  V30 2070 H 191.924 -4.67475 -1.29197 0
M  V30 2071 H 187.803 -3.98997 -2.30916 0
M  V30 2072 H 191.347 -6.95498 -0.541084 0
M  V30 2073 H 187.244 -6.2628 -1.56346 0
M  V30 2074 H 188.012 -8.1543 -0.708275 0
M  V30 2075 N 190.675 0.682077 -1.42076 0
M  V30 2076 C 191.638 1.77756 -1.44691 0
M  V30 2077 C 192.638 1.5726 -0.335535 0
M  V30 2078 O 193.828 1.63686 -0.596037 0
M  V30 2079 C 190.96 3.16301 -1.27146 0
M  V30 2080 H 192.153 1.76826 -2.42224 0
M  V30 2081 H 189.706 0.891012 -1.28416 0
M  V30 2082 H 190.441 3.22862 -0.305075 0
M  V30 2083 H 190.226 3.32581 -2.07683 0
M  V30 2084 H 191.716 3.96241 -1.31843 0
M  V30 2085 N 192.153 1.28127 0.917671 0
M  V30 2086 C 193.4 1.15052 1.66641 0
M  V30 2087 C 193.728 -0.301677 1.92146 0
M  V30 2088 O 192.983 -1.23622 1.51711 0
M  V30 2089 C 193.282 1.89018 3.03327 0
M  V30 2090 C 192.948 3.38832 2.97496 0
M  V30 2091 C 191.61 3.79693 2.95613 0
M  V30 2092 C 193.962 4.34378 2.88036 0
M  V30 2093 C 191.29 5.14447 2.82066 0
M  V30 2094 C 193.642 5.69201 2.7603 0
M  V30 2095 C 192.306 6.09343 2.72502 0
M  V30 2096 H 191.576 0.421006 0.609783 0
M  V30 2097 H 194.223 1.58855 1.06945 0
M  V30 2098 H 192.528 1.37752 3.66785 0
M  V30 2099 H 194.225 1.76321 3.60156 0
M  V30 2100 H 190.815 3.06342 2.99754 0
M  V30 2101 H 194.999 4.03775 2.88581 0
M  V30 2102 H 190.255 5.44681 2.77728 0
M  V30 2103 H 194.429 6.42901 2.67678 0
M  V30 2104 H 192.056 7.13712 2.61762 0
M  V30 2105 N 193.631 -1.12557 1.10312 0
M  V30 2106 C 194.563 -2.17971 0.708625 0
M  V30 2107 C 195.576 -1.60806 -0.254027 0
M  V30 2108 O 196.765 -1.78458 -0.0386891 0
M  V30 2109 C 193.865 -3.38891 0.0248198 0
M  V30 2110 C 193.038 -4.25548 1.01132 0
M  V30 2111 C 192.097 -5.24972 0.35924 0
M  V30 2112 O 191.123 -5.60174 1.00965 0
M  V30 2113 N 192.325 -5.73747 -0.882847 0
M  V30 2114 H 195.09 -2.52427 1.61557 0
M  V30 2115 H 192.651 -1.27967 0.991771 0
M  V30 2116 H 194.643 -4.02485 -0.422852 0
M  V30 2117 H 193.213 -3.02596 -0.784514 0
M  V30 2118 H 192.433 -3.58589 1.6373 0
M  V30 2119 H 193.721 -4.80294 1.67914 0
M  V30 2120 H 193.119 -5.4731 -1.43065 0
M  V30 2121 H 191.676 -6.39234 -1.27369 0
M  V30 2122 N 195.109 -0.891671 -1.2995 0
M  V30 2123 C 196.337 -0.52866 -2.00032 0
M  V30 2124 C 196.752 0.884574 -1.66795 0
M  V30 2125 O 196.109 1.5827 -0.908669 0
M  V30 2126 C 196.16 -0.701814 -3.54622 0
M  V30 2127 O 195.881 -2.05942 -3.86678 0
M  V30 2128 C 197.382 -0.342683 -4.41973 0
M  V30 2129 H 194.602 -0.203659 -0.639347 0
M  V30 2130 H 197.146 -1.19881 -1.65677 0
M  V30 2131 H 195.301 -0.0789468 -3.8732 0
M  V30 2132 H 195.715 -2.08291 -4.81368 0
M  V30 2133 H 197.189 -0.514709 -5.49595 0
M  V30 2134 H 197.666 0.71975 -4.33262 0
M  V30 2135 H 198.272 -0.942154 -4.14733 0
M  V30 2136 N 196.587 1.43421 -0.653314 0
M  V30 2137 C 197.497 2.34568 0.0388565 0
M  V30 2138 C 198.513 1.53888 0.81207 0
M  V30 2139 O 199.689 1.86539 0.759294 0
M  V30 2140 C 196.754 3.32167 0.993269 0
M  V30 2141 C 195.815 4.28751 0.216977 0
M  V30 2142 C 195.048 5.21688 1.12593 0
M  V30 2143 O 195.271 5.19052 2.36519 0
M  V30 2144 O 194.205 5.98919 0.598284 0
M  V30 2145 H 198.031 2.95251 -0.711386 0
M  V30 2146 H 195.616 1.43564 -0.413502 0
M  V30 2147 H 197.498 3.92183 1.54176 0
M  V30 2148 H 196.173 2.73987 1.72374 0
M  V30 2149 H 195.08 3.72215 -0.375101 0
M  V30 2150 H 196.413 4.89913 -0.473924 0
M  V30 2151 N 198.065 0.39524 1.52563 0
M  V30 2152 C 199.313 -0.184678 2.01254 0
M  V30 2153 C 199.634 -1.46822 1.28329 0
M  V30 2154 O 198.904 -1.91666 0.405094 0
M  V30 2155 H 197.484 -0.0712355 0.743596 0
M  V30 2156 H 200.146 0.528293 1.87603 0
M  V30 2157 H 199.242 -0.390681 3.09645 0
M  V30 2158 N 199.544 -1.57102 0.125237 0
M  V30 2159 C 200.491 -2.15641 -0.822655 0
M  V30 2160 C 201.461 -1.08313 -1.25927 0
M  V30 2161 O 202.646 -1.36251 -1.33567 0
M  V30 2162 C 199.786 -2.76504 -2.06494 0
M  V30 2163 C 198.899 -3.98158 -1.67612 0
M  V30 2164 C 198.034 -4.47088 -2.86854 0
M  V30 2165 C 197.073 -5.6126 -2.44242 0
M  V30 2166 N 196.21 -6.04905 -3.56419 0
M  V30 2167 H 201.05 -2.96313 -0.316625 0
M  V30 2168 H 198.587 -1.46388 -0.144588 0
M  V30 2169 H 200.545 -3.09925 -2.79289 0
M  V30 2170 H 199.175 -1.98512 -2.54545 0
M  V30 2171 H 198.227 -3.70858 -0.846661 0
M  V30 2172 H 199.539 -4.80934 -1.32301 0
M  V30 2173 H 198.693 -4.82451 -3.67867 0
M  V30 2174 H 197.432 -3.63275 -3.25396 0
M  V30 2175 H 196.437 -5.25495 -1.61663 0
M  V30 2176 H 197.662 -6.46843 -2.0681 0
M  V30 2177 H 195.608 -5.24032 -3.94623 0
M  V30 2178 H 195.525 -6.82552 -3.25051 0
M  V30 2179 H 196.793 -6.44907 -4.37853 0
M  V30 2180 N 201.022 0.148545 -1.56898 0
M  V30 2181 C 201.952 1.18524 -2.01182 0
M  V30 2182 C 202.933 1.4489 -0.891123 0
M  V30 2183 O 204.118 1.55836 -1.15882 0
M  V30 2184 C 201.248 2.51879 -2.39112 0
M  V30 2185 C 200.202 2.40038 -3.54353 0
M  V30 2186 C 199.528 3.78089 -3.78091 0
M  V30 2187 C 200.828 1.88577 -4.87069 0
M  V30 2188 H 202.522 0.817029 -2.88036 0
M  V30 2189 H 200.068 0.391575 -1.38574 0
M  V30 2190 H 202.021 3.24627 -2.68692 0
M  V30 2191 H 200.745 2.90532 -1.49193 0
M  V30 2192 H 199.404 1.69742 -3.24936 0
M  V30 2193 H 199.052 4.14175 -2.85426 0
M  V30 2194 H 198.752 3.71028 -4.55645 0
M  V30 2195 H 200.276 4.52387 -4.10095 0
M  V30 2196 H 201.69 2.51117 -5.15377 0
M  V30 2197 H 200.087 1.9241 -5.68417 0
M  V30 2198 H 201.157 0.84136 -4.77545 0
M  V30 2199 N 202.5 1.5196 0.417844 0
M  V30 2200 C 203.73 1.69181 1.18581 0
M  V30 2201 C 204.138 0.397104 1.84986 0
M  V30 2202 O 203.481 -0.636011 1.72339 0
M  V30 2203 C 203.543 2.76497 2.29759 0
M  V30 2204 C 203.207 4.18514 1.83563 0
M  V30 2205 C 204.204 5.02648 1.32821 0
M  V30 2206 C 201.889 4.64708 1.90661 0
M  V30 2207 C 203.883 6.31044 0.897894 0
M  V30 2208 C 201.57 5.93096 1.47241 0
M  V30 2209 C 202.568 6.76093 0.968891 0
M  V30 2210 O 202.256 8.02078 0.540924 0
M  V30 2211 H 201.988 0.570457 0.362705 0
M  V30 2212 H 204.542 1.99249 0.498885 0
M  V30 2213 H 202.772 2.41786 3.01789 0
M  V30 2214 H 204.461 2.82403 2.91553 0
M  V30 2215 H 205.227 4.68154 1.26716 0
M  V30 2216 H 201.106 4.00216 2.28797 0
M  V30 2217 H 204.65 6.95776 0.504192 0
M  V30 2218 H 200.547 6.271 1.53022 0
M  V30 2219 H 201.315 8.15794 0.66502 0
M  V30 2220 N 203.978 -0.674533 1.42435 0
M  V30 2221 C 204.908 -1.80009 1.48724 0
M  V30 2222 C 205.889 -1.6659 0.343793 0
M  V30 2223 O 207.074 -1.86007 0.558137 0
M  V30 2224 C 204.204 -3.18306 1.38919 0
M  V30 2225 C 203.158 -3.46461 2.51294 0
M  V30 2226 C 202.484 -4.84335 2.26547 0
M  V30 2227 C 203.784 -3.43328 3.93603 0
M  V30 2228 H 205.478 -1.75004 2.42928 0
M  V30 2229 H 203.024 -0.840533 1.16923 0
M  V30 2230 H 204.977 -3.9678 1.41927 0
M  V30 2231 H 203.701 -3.2399 0.412094 0
M  V30 2232 H 202.36 -2.70348 2.47604 0
M  V30 2233 H 202.008 -4.86669 1.2713 0
M  V30 2234 H 201.708 -5.04136 3.01861 0
M  V30 2235 H 203.232 -5.65094 2.31304 0
M  V30 2236 H 204.646 -4.11772 3.98894 0
M  V30 2237 H 203.043 -3.74664 4.68771 0
M  V30 2238 H 204.113 -2.41897 4.20255 0
M  V30 2239 N 205.456 -1.28612 -0.910864 0
M  V30 2240 C 206.705 -1.15311 -1.65488 0
M  V30 2241 C 207.018 0.296999 -1.93332 0
M  V30 2242 O 208.224 0.551168 -2.65847 0
M  V30 2243 C 206.68 -2.01599 -2.98137 0
M  V30 2244 C 206.288 -3.51367 -2.7793 0
M  V30 2245 C 208.032 -1.96993 -3.76024 0
M  V30 2246 C 205.939 -4.29797 -4.06237 0
M  V30 2247 H 204.869 -0.42796 -0.620779 0
M  V30 2248 H 207.52 -1.53166 -1.01057 0
M  V30 2249 H 205.902 -1.56603 -3.63719 0
M  V30 2250 H 207.076 -4.0434 -2.21011 0
M  V30 2251 H 205.391 -3.57529 -2.13452 0
M  V30 2252 H 207.988 -2.52856 -4.71135 0
M  V30 2253 H 208.331 -0.94733 -4.05378 0
M  V30 2254 H 208.864 -2.39973 -3.17266 0
M  V30 2255 H 205.603 -5.32648 -3.82055 0
M  V30 2256 H 205.123 -3.81596 -4.62757 0
M  V30 2257 H 206.802 -4.39869 -4.74473 0
M  V30 2258 N 206.934 1.1197 -1.10907 0
M  V30 2259 C 207.864 2.19928 -0.784473 0
M  V30 2260 C 208.845 1.6833 0.244726 0
M  V30 2261 O 210.03 1.93892 0.109418 0
M  V30 2262 C 207.16 3.46597 -0.220827 0
M  V30 2263 C 206.114 4.11376 -1.18127 0
M  V30 2264 C 205.44 5.32554 -0.478594 0
M  V30 2265 C 206.74 4.56945 -2.52979 0
M  V30 2266 H 208.434 2.47337 -1.68715 0
M  V30 2267 H 205.98 1.18879 -0.812642 0
M  V30 2268 H 207.933 4.21396 0.0184278 0
M  V30 2269 H 206.657 3.1863 0.717113 0
M  V30 2270 H 205.316 3.38564 -1.40606 0
M  V30 2271 H 204.964 5.00856 0.463976 0
M  V30 2272 H 204.664 5.76844 -1.11912 0
M  V30 2273 H 206.188 6.10096 -0.248 0
M  V30 2274 H 207.602 5.23093 -2.3462 0
M  V30 2275 H 205.999 5.1203 -3.12962 0
M  V30 2276 H 207.069 3.70676 -3.12614 0
M  V30 2277 N 208.412 0.89855 1.29475 0
M  V30 2278 C 209.689 0.443416 1.90508 0
M  V30 2279 C 210.069 -1.07685 1.81569 0
M  V30 2280 O 209.417 -1.9182 1.24166 0
M  V30 2281 C 209.627 0.956708 3.35631 0
M  V30 2282 C 210.975 0.999728 4.12663 0
M  V30 2283 O 211.999 0.904299 3.4453 0
M  V30 2284 O 210.858 1.14289 5.34416 0
M  V30 2285 H 207.952 0.138025 0.815401 0
M  V30 2286 H 210.498 0.98834 1.37949 0
M  V30 2287 H 209.27 2.00067 3.36287 0
M  V30 2288 H 208.893 0.391728 3.95666 0
M  V30 2289 N 209.89 -1.43072 0.660911 0
M  V30 2290 C 211.137 -2.01721 0.177445 0
M  V30 2291 C 211.465 -1.5218 -1.21126 0
M  V30 2292 O 210.72 -0.708659 -1.82419 0
M  V30 2293 C 211.019 -3.57103 0.145563 0
M  V30 2294 C 210.685 -4.26021 1.47705 0
M  V30 2295 C 209.347 -4.44563 1.84165 0
M  V30 2296 C 211.699 -4.64983 2.35458 0
M  V30 2297 C 209.027 -4.99334 3.0803 0
M  V30 2298 C 211.379 -5.21127 3.58622 0
M  V30 2299 C 210.043 -5.37884 3.95268 0
M  V30 2300 H 209.313 -0.73815 0.0649317 0
M  V30 2301 H 211.96 -1.71446 0.853144 0
M  V30 2302 H 210.265 -3.86965 -0.61361 0
M  V30 2303 H 211.962 -4.00248 -0.2455 0
M  V30 2304 H 208.552 -4.11939 1.18339 0
M  V30 2305 H 212.736 -4.50343 2.08579 0
M  V30 2306 H 207.992 -5.10493 3.36462 0
M  V30 2307 H 212.166 -5.50262 4.26831 0
M  V30 2308 H 209.793 -5.80089 4.91325 0
M  V30 2309 N 211.368 -0.403325 -1.52352 0
M  V30 2310 C 212.298 0.416205 -2.29761 0
M  V30 2311 C 213.279 1.05123 -1.33728 0
M  V30 2312 O 214.464 1.06134 -1.62632 0
M  V30 2313 C 211.594 1.53624 -3.11475 0
M  V30 2314 C 210.548 1.02653 -4.15507 0
M  V30 2315 C 209.874 2.23971 -4.85532 0
M  V30 2316 C 211.174 0.08463 -5.22231 0
M  V30 2317 H 212.868 -0.229701 -2.98518 0
M  V30 2318 H 210.414 -0.111913 -1.43564 0
M  V30 2319 H 212.367 2.1165 -3.64393 0
M  V30 2320 H 211.091 2.20994 -2.40477 0
M  V30 2321 H 209.75 0.46871 -3.63591 0
M  V30 2322 H 209.398 2.89883 -4.11068 0
M  V30 2323 H 209.098 1.90521 -5.55856 0
M  V30 2324 H 210.622 2.82614 -5.41259 0
M  V30 2325 H 212.036 0.573509 -5.70424 0
M  V30 2326 H 210.433 -0.160783 -5.99885 0
M  V30 2327 H 211.503 -0.86237 -4.7717 0
M  V30 2328 N 212.846 1.57033 -0.133567 0
M  V30 2329 C 214.262 1.58035 0.222944 0
M  V30 2330 C 214.462 1.14713 1.6566 0
M  V30 2331 O 213.518 0.841218 2.38075 0
M  V30 2332 C 214.831 3.00691 -0.0236116 0
M  V30 2333 C 216.379 3.12973 0.0411512 0
M  V30 2334 C 216.854 4.57654 -0.177899 0
M  V30 2335 N 218.345 4.63033 -0.124365 0
M  V30 2336 C 219.08 5.72771 -0.268553 0
M  V30 2337 N 218.576 6.91206 -0.46972 0
M  V30 2338 N 220.369 5.61718 -0.2071 0
M  V30 2339 H 212.52 1.8349 -1.06981 0
M  V30 2340 H 214.783 0.848677 -0.422436 0
M  V30 2341 H 214.489 3.36726 -1.0153 0
M  V30 2342 H 214.363 3.70614 0.701808 0
M  V30 2343 H 216.75 2.76787 1.02338 0
M  V30 2344 H 216.831 2.45564 -0.716383 0
M  V30 2345 H 216.475 4.94542 -1.15717 0
M  V30 2346 H 216.405 5.23173 0.599797 0
M  V30 2347 H 218.896 3.7789 0.027011 0
M  V30 2348 H 219.209 7.70693 -0.570212 0
M  V30 2349 H 217.554 6.93156 -0.505876 0
M  V30 2350 H 220.745 4.68072 -0.0507986 0
M  V30 2351 H 220.918 6.47195 -0.322909 0
M  V30 2352 N 214.325 -0.140222 1.56975 0
M  V30 2353 C 215.573 -0.850005 1.83356 0
M  V30 2354 C 215.894 -1.81399 0.71551 0
M  V30 2355 O 215.164 -1.94136 -0.262294 0
M  V30 2356 H 213.744 -0.316886 0.676456 0
M  V30 2357 H 216.406 -0.132608 1.94448 0
M  V30 2358 H 215.502 -1.40814 2.78528 0
M  V30 2359 N 215.803 -1.52179 -0.40978 0
M  V30 2360 C 217.051 -1.65878 -1.15451 0
M  V30 2361 C 217.372 -0.390771 -1.91044 0
M  V30 2362 O 216.642 0.594323 -1.86667 0
M  V30 2363 H 215.222 -0.611405 -0.429177 0
M  V30 2364 H 217.884 -1.89219 -0.467134 0
M  V30 2365 H 216.98 -2.49954 -1.86894 0
M  V30 2366 N 217.281 0.66697 -1.42791 0
M  V30 2367 C 218.558 1.4234 -1.34159 0
M  V30 2368 C 218.938 2.11093 0.0172729 0
M  V30 2369 O 218.286 2.03808 1.03318 0
M  V30 2370 C 218.496 2.41942 -2.51526 0
M  V30 2371 C 219.844 3.06353 -2.93995 0
M  V30 2372 O 220.868 2.52269 -2.51473 0
M  V30 2373 O 219.727 4.04376 -3.67617 0
M  V30 2374 H 216.821 0.635277 -0.529483 0
M  V30 2375 H 219.367 0.695034 -1.54814 0
M  V30 2376 H 218.139 1.89991 -3.42081 0
M  V30 2377 H 217.762 3.22249 -2.32898 0
M  V30 2378 N 218.759 1.29093 0.90403 0
M  V30 2379 C 219.689 1.16401 2.02418 0
M  V30 2380 C 220.67 0.0593085 1.69997 0
M  V30 2381 O 221.855 0.238021 1.92736 0
M  V30 2382 C 218.985 0.835233 3.37107 0
M  V30 2383 C 217.939 1.89578 3.83724 0
M  V30 2384 C 217.265 1.42041 5.15489 0
M  V30 2385 C 218.565 3.30394 4.04521 0
M  V30 2386 H 220.259 2.10109 2.13295 0
M  V30 2387 H 217.805 1.01157 1.02486 0
M  V30 2388 H 219.758 0.733169 4.14973 0
M  V30 2389 H 218.482 -0.137543 3.2631 0
M  V30 2390 H 217.141 1.98715 3.08071 0
M  V30 2391 H 216.789 0.436426 5.01103 0
M  V30 2392 H 216.489 2.12964 5.4765 0
M  V30 2393 H 218.013 1.33176 5.959 0
M  V30 2394 H 219.427 3.24123 4.72882 0
M  V30 2395 H 217.824 3.99237 4.48029 0
M  V30 2396 H 218.894 3.73692 3.09002 0
M  V30 2397 N 220.237 -1.11381 1.11499 0
M  V30 2398 C 221.484 -1.83132 0.864231 0
M  V30 2399 C 221.812 -1.84683 -0.610114 0
M  V30 2400 O 221.067 -1.29589 -1.46646 0
M  V30 2401 C 221.366 -3.30026 1.37177 0
M  V30 2402 C 221.032 -3.48634 2.85946 0
M  V30 2403 C 219.694 -3.53421 3.26569 0
M  V30 2404 C 222.046 -3.54837 3.81759 0
M  V30 2405 C 219.374 -3.61967 4.61733 0
M  V30 2406 C 221.726 -3.64915 5.1674 0
M  V30 2407 C 220.39 -3.67962 5.5692 0
M  V30 2408 H 219.66 -0.670127 0.316245 0
M  V30 2409 H 222.307 -1.31354 1.3935 0
M  V30 2410 H 220.612 -3.84304 0.762753 0
M  V30 2411 H 222.309 -3.84034 1.15408 0
M  V30 2412 H 218.899 -3.45579 2.53521 0
M  V30 2413 H 223.083 -3.50399 3.51474 0
M  V30 2414 H 218.339 -3.62603 4.92269 0
M  V30 2415 H 222.513 -3.68658 5.90816 0
M  V30 2416 H 220.14 -3.74336 6.61647 0
M  V30 2417 N 221.715 -0.905404 -1.28997 0
M  V30 2418 C 222.943 -0.549846 -1.9946 0
M  V30 2419 C 223.358 0.866834 -1.67724 0
M  V30 2420 O 222.715 1.57298 -0.925404 0
M  V30 2421 C 222.766 -0.739387 -3.53858 0
M  V30 2422 O 222.487 -2.10031 -3.84472 0
M  V30 2423 C 223.988 -0.389541 -4.41585 0
M  V30 2424 H 221.208 -0.210429 -0.637151 0
M  V30 2425 H 223.752 -1.21632 -1.64396 0
M  V30 2426 H 221.907 -0.120023 -3.87214 0
M  V30 2427 H 222.321 -2.13385 -4.79132 0
M  V30 2428 H 223.795 -0.572972 -5.49018 0
M  V30 2429 H 224.272 0.673756 -4.34001 0
M  V30 2430 H 224.878 -0.986089 -4.1371 0
M  V30 2431 N 223.193 1.4272 -0.668489 0
M  V30 2432 C 224.609 1.55992 -0.33745 0
M  V30 2433 C 224.809 1.64933 1.15756 0
M  V30 2434 O 223.865 1.61278 1.94282 0
M  V30 2435 C 225.178 2.81314 -1.06222 0
M  V30 2436 C 226.726 2.95078 -1.04394 0
M  V30 2437 C 227.201 4.23252 -1.74991 0
M  V30 2438 N 228.692 4.3015 -1.71829 0
M  V30 2439 C 229.427 5.28127 -2.23315 0
M  V30 2440 N 228.923 6.32293 -2.83156 0
M  V30 2441 N 230.716 5.19882 -2.13726 0
M  V30 2442 H 222.867 1.3516 -1.63846 0
M  V30 2443 H 225.13 0.650174 -0.689912 0
M  V30 2444 H 224.836 2.80823 -2.11734 0
M  V30 2445 H 224.71 3.72012 -0.62344 0
M  V30 2446 H 227.097 2.951 0.0028244 0
M  V30 2447 H 227.178 2.05627 -1.52155 0
M  V30 2448 H 226.822 4.2399 -2.79633 0
M  V30 2449 H 226.752 5.11626 -1.24685 0
M  V30 2450 H 229.243 3.55499 -1.28175 0
M  V30 2451 H 229.556 7.03398 -3.20079 0
M  V30 2452 H 227.901 6.32873 -2.87223 0
M  V30 2453 H 231.092 4.37423 -1.66669 0
M  V30 2454 H 231.265 5.96077 -2.54158 0
M  V30 2455 N 224.671 0.411399 1.52136 0
M  V30 2456 C 225.601 -0.404015 2.29978 0
M  V30 2457 C 226.582 -1.04412 1.34284 0
M  V30 2458 O 227.767 -1.0527 1.63192 0
M  V30 2459 C 224.897 -1.5197 3.12286 0
M  V30 2460 C 223.851 -1.00448 4.16046 0
M  V30 2461 C 223.177 -2.21393 4.86712 0
M  V30 2462 C 224.477 -0.0569336 5.22269 0
M  V30 2463 H 226.171 0.245529 2.98392 0
M  V30 2464 H 223.717 0.119525 1.43503 0
M  V30 2465 H 225.67 -2.09715 3.6551 0
M  V30 2466 H 224.394 -2.19716 2.41646 0
M  V30 2467 H 223.053 -0.449421 3.63835 0
M  V30 2468 H 222.701 -2.87699 4.12599 0
M  V30 2469 H 222.401 -1.87571 5.56858 0
M  V30 2470 H 223.925 -2.7974 5.4275 0
M  V30 2471 H 225.339 -0.54325 5.7072 0
M  V30 2472 H 223.736 0.192594 5.99791 0
M  V30 2473 H 224.806 0.887663 4.76706 0
M  V30 2474 N 226.149 -1.5696 0.141893 0
M  V30 2475 C 227.374 -2.00754 -0.520838 0
M  V30 2476 C 227.799 -1.0213 -1.57959 0
M  V30 2477 O 227.157 0.00371324 -1.813 0
M  V30 2478 C 227.205 -3.43318 -1.10294 0
M  V30 2479 O 226.309 -3.47679 -2.21795 0
M  V30 2480 H 225.65 -0.651564 -0.127908 0
M  V30 2481 H 228.18 -2.03221 0.23712 0
M  V30 2482 H 228.19 -3.82012 -1.43287 0
M  V30 2483 H 226.865 -4.14608 -0.327574 0
M  V30 2484 H 225.442 -3.20824 -1.9007 0
M  V30 2485 N 227.627 0.131896 -1.57047 0
M  V30 2486 C 228.574 1.16236 -1.99393 0
M  V30 2487 C 229.544 1.41863 -0.863943 0
M  V30 2488 O 230.729 1.53946 -1.12718 0
M  V30 2489 C 227.869 2.48708 -2.39245 0
M  V30 2490 C 226.982 2.30127 -3.65603 0
M  V30 2491 C 226.117 3.55738 -3.94492 0
M  V30 2492 C 225.156 3.32259 -5.14073 0
M  V30 2493 N 224.293 4.50039 -5.38896 0
M  V30 2494 H 229.133 0.794251 -2.87221 0
M  V30 2495 H 226.67 0.380707 -1.42088 0
M  V30 2496 H 228.628 3.25969 -2.60384 0
M  V30 2497 H 227.258 2.83437 -1.54478 0
M  V30 2498 H 226.31 1.43845 -3.52154 0
M  V30 2499 H 227.622 2.08746 -4.5302 0
M  V30 2500 H 226.776 4.41423 -4.1621 0
M  V30 2501 H 225.515 3.80138 -3.05526 0
M  V30 2502 H 224.52 2.44963 -4.92212 0
M  V30 2503 H 225.745 3.09242 -6.04604 0
M  V30 2504 H 223.691 4.74584 -4.52886 0
M  V30 2505 H 223.608 4.31716 -6.2061 0
M  V30 2506 H 224.876 5.36895 -5.65123 0
M  V30 2507 N 229.106 1.52395 0.401703 0
M  V30 2508 C 230.016 1.7917 1.51444 0
M  V30 2509 C 231.032 0.677691 1.6026 0
M  V30 2510 O 232.208 0.963909 1.76835 0
M  V30 2511 C 229.273 1.94347 2.87107 0
M  V30 2512 C 228.334 3.18257 2.88116 0
M  V30 2513 C 227.567 3.32701 4.17308 0
M  V30 2514 O 227.79 2.52238 5.11598 0
M  V30 2515 O 226.724 4.25891 4.25324 0
M  V30 2516 H 230.55 2.73633 1.31752 0
M  V30 2517 H 228.135 1.3733 0.588296 0
M  V30 2518 H 230.017 2.06109 3.67555 0
M  V30 2519 H 228.692 1.03073 3.06851 0
M  V30 2520 H 227.599 3.11947 2.06494 0
M  V30 2521 H 228.932 4.09336 2.73322 0
M  V30 2522 N 230.584 -0.659388 1.43143 0
M  V30 2523 C 231.83 -1.42145 1.44647 0
M  V30 2524 C 232.163 -1.9408 0.0681907 0
M  V30 2525 O 231.438 -1.71899 -0.910007 0
M  V30 2526 C 231.721 -2.60735 2.48373 0
M  V30 2527 C 231.574 -2.14332 3.95451 0
M  V30 2528 C 232.893 -3.62951 2.48906 0
M  V30 2529 H 230.012 -0.51552 0.526696 0
M  V30 2530 H 232.654 -0.748069 1.74654 0
M  V30 2531 H 230.804 -3.18184 2.22916 0
M  V30 2532 H 232.476 -1.61932 4.31944 0
M  V30 2533 H 230.719 -1.4576 4.08578 0
M  V30 2534 H 231.39 -2.99583 4.63631 0
M  V30 2535 H 233.866 -3.1525 2.71582 0
M  V30 2536 H 232.742 -4.43487 3.23435 0
M  V30 2537 H 233.003 -4.15126 1.52061 0
M  V30 2538 N 232.062 -1.29571 -0.897171 0
M  V30 2539 C 232.995 -1.0924 -2.00354 0
M  V30 2540 C 233.973 -0.00354011 -1.626 0
M  V30 2541 O 235.157 -0.15473 -1.87864 0
M  V30 2542 C 232.284 -0.66352 -3.32137 0
M  V30 2543 C 231.33 -1.75146 -3.88878 0
M  V30 2544 S 232.163 -3.35124 -4.17674 0
M  V30 2545 C 233.319 -2.9411 -5.52494 0
M  V30 2546 H 233.552 -2.02907 -2.17292 0
M  V30 2547 H 231.085 -1.13746 -1.04408 0
M  V30 2548 H 233.043 -0.422791 -4.08317 0
M  V30 2549 H 231.704 0.253588 -3.13075 0
M  V30 2550 H 230.897 -1.40337 -4.84068 0
M  V30 2551 H 230.499 -1.94584 -3.19395 0
M  V30 2552 H 232.791 -2.41312 -6.33068 0
M  V30 2553 H 233.734 -3.88161 -5.9223 0
M  V30 2554 H 234.142 -2.32332 -5.14473 0
M  V30 2555 N 233.54 1.10788 -1.12088 0
M  V30 2556 C 234.787 1.82671 -0.873931 0
M  V30 2557 C 235.115 1.85004 0.600311 0
M  V30 2558 O 234.37 1.30365 1.45957 0
M  V30 2559 C 234.669 3.29294 -1.38926 0
M  V30 2560 C 234.335 3.47113 -2.87791 0
M  V30 2561 C 232.997 3.51684 -3.28439 0
M  V30 2562 C 235.349 3.52808 -3.83635 0
M  V30 2563 C 232.677 3.59513 -4.63646 0
M  V30 2564 C 235.029 3.62169 -5.18668 0
M  V30 2565 C 233.693 3.65003 -5.58864 0
M  V30 2566 H 232.963 0.668441 -0.319794 0
M  V30 2567 H 235.61 1.30613 -1.40045 0
M  V30 2568 H 233.915 3.83894 -0.783122 0
M  V30 2569 H 235.612 3.83416 -1.17443 0
M  V30 2570 H 232.202 3.4423 -2.5535 0
M  V30 2571 H 236.386 3.4853 -3.53328 0
M  V30 2572 H 231.642 3.59987 -4.94185 0
M  V30 2573 H 235.816 3.6552 -5.92763 0
M  V30 2574 H 233.443 3.70822 -6.63623 0
M  V30 2575 N 235.018 0.912232 1.28515 0
M  V30 2576 C 236.246 0.560416 1.99166 0
M  V30 2577 C 236.661 -0.857927 1.68182 0
M  V30 2578 O 236.018 -1.56805 0.933733 0
M  V30 2579 C 236.069 0.758142 3.53461 0
M  V30 2580 O 235.79 2.12067 3.83352 0
M  V30 2581 C 237.291 0.412954 4.41372 0
M  V30 2582 H 234.511 0.213805 0.636026 0
M  V30 2583 H 237.055 1.22502 1.63749 0
M  V30 2584 H 235.21 0.140556 3.87145 0
M  V30 2585 H 235.624 2.15923 4.77993 0
M  V30 2586 H 237.098 0.60208 5.48707 0
M  V30 2587 H 237.575 -0.65073 4.34353 0
M  V30 2588 H 238.181 1.00802 4.13182 0
M  V30 2589 N 236.496 -1.42363 0.676048 0
M  V30 2590 C 237.406 -2.346 -0.00153389 0
M  V30 2591 C 238.422 -1.5516 -0.787485 0
M  V30 2592 O 239.598 -1.87723 -0.729521 0
M  V30 2593 C 236.663 -3.33705 -0.940298 0
M  V30 2594 C 235.724 -4.29042 -0.148739 0
M  V30 2595 C 234.957 -5.23413 -1.04279 0
M  V30 2596 O 235.18 -5.22749 -2.28232 0
M  V30 2597 O 234.114 -5.99795 -0.502925 0
M  V30 2598 H 237.94 -2.94082 0.758268 0
M  V30 2599 H 235.525 -1.42888 0.436289 0
M  V30 2600 H 237.407 -3.94586 -1.47917 0
M  V30 2601 H 236.082 -2.76695 -1.67993 0
M  V30 2602 H 234.989 -3.71571 0.43427 0
M  V30 2603 H 236.322 -4.89097 0.551805 0
M  V30 2604 N 237.974 -0.419461 -1.51915 0
M  V30 2605 C 238.884 0.407528 -2.31033 0
M  V30 2606 C 239.9 1.04413 -1.3919 0
M  V30 2607 O 241.076 1.0434 -1.72265 0
M  V30 2608 C 238.141 1.50365 -3.12396 0
M  V30 2609 C 237.202 0.889029 -4.19994 0
M  V30 2610 C 236.435 1.93291 -4.97468 0
M  V30 2611 O 236.658 3.15259 -4.75361 0
M  V30 2612 O 235.592 1.53339 -5.8204 0
M  V30 2613 H 239.418 -0.237865 -3.02767 0
M  V30 2614 H 237.003 -0.182413 -1.48282 0
M  V30 2615 H 238.885 2.13975 -3.63032 0
M  V30 2616 H 237.56 2.13345 -2.43445 0
M  V30 2617 H 236.467 0.215353 -3.7348 0
M  V30 2618 H 237.8 0.302991 -4.91267 0
M  V30 2619 N 239.452 1.56882 -0.150215 0
M  V30 2620 C 240.729 1.87844 0.545327 0
M  V30 2621 C 241.109 1.0567 1.82749 0
M  V30 2622 O 240.457 0.144442 2.28043 0
M  V30 2623 C 240.667 3.39526 0.80767 0
M  V30 2624 C 242.015 4.08814 1.14703 0
M  V30 2625 O 243.039 3.44723 0.896917 0
M  V30 2626 O 241.898 5.22004 1.61784 0
M  V30 2627 H 238.992 0.778677 0.278553 0
M  V30 2628 H 241.538 1.68666 -0.187068 0
M  V30 2629 H 240.31 3.91173 -0.0996096 0
M  V30 2630 H 239.933 3.64243 1.59413 0
M  V30 2631 N 240.93 -0.123565 1.57115 0
M  V30 2632 C 242.176 -0.833386 1.84885 0
M  V30 2633 C 242.509 -1.79742 0.735292 0
M  V30 2634 O 241.784 -1.92764 -0.25925 0
M  V30 2635 C 242.067 -1.5873 3.23228 0
M  V30 2636 C 241.92 -0.643183 4.45178 0
M  V30 2637 C 243.239 -2.54453 3.59085 0
M  V30 2638 H 240.358 -0.301518 0.6725 0
M  V30 2639 H 243 -0.097778 1.89748 0
M  V30 2640 H 241.15 -2.21438 3.19214 0
M  V30 2641 H 242.822 -0.0253015 4.61293 0
M  V30 2642 H 241.065 0.0456139 4.33776 0
M  V30 2643 H 241.736 -1.20724 5.38637 0
M  V30 2644 H 244.212 -2.01853 3.63861 0
M  V30 2645 H 243.088 -3.04238 4.5687 0
M  V30 2646 H 243.349 -3.36906 2.86264 0
M  V30 2647 N 242.408 -1.52605 -0.393616 0
M  V30 2648 C 243.355 -1.77055 -1.48054 0
M  V30 2649 C 244.325 -0.61358 -1.54352 0
M  V30 2650 O 245.51 -0.852806 -1.70681 0
M  V30 2651 C 242.65 -1.94108 -2.85335 0
M  V30 2652 C 241.763 -3.21792 -2.88226 0
M  V30 2653 C 240.898 -3.29188 -4.16904 0
M  V30 2654 C 239.937 -4.51013 -4.13828 0
M  V30 2655 N 239.074 -4.55716 -5.34105 0
M  V30 2656 H 243.914 -2.69815 -1.26506 0
M  V30 2657 H 241.451 -1.33683 -0.61379 0
M  V30 2658 H 243.409 -2.01979 -3.65049 0
M  V30 2659 H 242.039 -1.04713 -3.05344 0
M  V30 2660 H 241.091 -3.23015 -2.00911 0
M  V30 2661 H 242.403 -4.11557 -2.8182 0
M  V30 2662 H 241.557 -3.36216 -5.05018 0
M  V30 2663 H 240.296 -2.37389 -4.26026 0
M  V30 2664 H 239.301 -4.44115 -3.24102 0
M  V30 2665 H 240.526 -5.44123 -4.06333 0
M  V30 2666 H 238.472 -3.66807 -5.43865 0
M  V30 2667 H 238.389 -5.39346 -5.29756 0
M  V30 2668 H 239.657 -4.66993 -6.2413 0
M  V30 2669 N 243.887 0.651787 -1.4349 0
M  V30 2670 C 245.134 1.41167 -1.45183 0
M  V30 2671 C 245.462 1.94349 -0.0766601 0
M  V30 2672 O 244.717 1.72804 0.918555 0
M  V30 2673 C 245.016 2.60914 -2.44251 0
M  V30 2674 C 244.682 2.26142 -3.9009 0
M  V30 2675 C 243.344 2.16371 -4.2981 0
M  V30 2676 C 245.696 1.98334 -4.81989 0
M  V30 2677 C 243.024 1.7695 -5.5938 0
M  V30 2678 C 245.376 1.6041 -6.11924 0
M  V30 2679 C 244.04 1.49166 -6.5062 0
M  V30 2680 H 243.31 0.516566 -0.531263 0
M  V30 2681 H 245.957 0.741099 -1.76579 0
M  V30 2682 H 244.262 3.3311 -2.06265 0
M  V30 2683 H 245.959 3.19127 -2.42815 0
M  V30 2684 H 242.549 2.34658 -3.58655 0
M  V30 2685 H 246.733 2.04803 -4.52072 0
M  V30 2686 H 241.989 1.66831 -5.88198 0
M  V30 2687 H 246.163 1.37925 -6.82605 0
M  V30 2688 H 243.79 1.1839 -7.50925 0
M  V30 2689 N 245.365 1.30045 0.890287 0
M  V30 2690 C 246.595 1.21296 1.67245 0
M  V30 2691 C 247.003 -0.227471 1.87828 0
M  V30 2692 O 246.346 -1.16296 1.422 0
M  V30 2693 C 246.408 1.86519 3.07329 0
M  V30 2694 C 246.072 3.35837 3.09939 0
M  V30 2695 C 247.069 4.31915 2.89389 0
M  V30 2696 C 244.754 3.77196 3.31706 0
M  V30 2697 C 246.748 5.67325 2.90552 0
M  V30 2698 C 244.435 5.12725 3.32499 0
M  V30 2699 C 245.433 6.076 3.11947 0
M  V30 2700 O 245.121 7.40655 3.12547 0
M  V30 2701 H 244.853 0.4211 0.528821 0
M  V30 2702 H 247.407 1.72111 1.12103 0
M  V30 2703 H 245.637 1.30228 3.64112 0
M  V30 2704 H 247.326 1.71963 3.67673 0
M  V30 2705 H 248.092 4.01294 2.72375 0
M  V30 2706 H 243.971 3.03796 3.4674 0
M  V30 2707 H 247.515 6.41354 2.74429 0
M  V30 2708 H 243.412 5.42988 3.49047 0
M  V30 2709 H 244.18 7.49577 3.28749 0
M  V30 2710 N 246.843 -1.10192 1.12674 0
M  V30 2711 C 247.773 -2.18652 0.819362 0
M  V30 2712 C 248.754 -1.68698 -0.217915 0
M  V30 2713 O 249.939 -1.94041 -0.0785581 0
M  V30 2714 C 247.069 -3.46202 0.27594 0
M  V30 2715 C 246.023 -4.09444 1.24656 0
M  V30 2716 C 245.349 -5.31725 0.563258 0
M  V30 2717 C 246.649 -4.52863 2.60217 0
M  V30 2718 H 248.343 -2.44622 1.72628 0
M  V30 2719 H 245.889 -1.17571 0.831451 0
M  V30 2720 H 247.842 -4.21372 0.0486149 0
M  V30 2721 H 246.566 -3.1973 -0.666331 0
M  V30 2722 H 245.225 -3.36284 1.45974 0
M  V30 2723 H 244.873 -5.0153 -0.384235 0
M  V30 2724 H 244.573 -5.74991 1.21075 0
M  V30 2725 H 246.097 -6.09624 0.34503 0
M  V30 2726 H 247.511 -5.19294 2.42913 0
M  V30 2727 H 245.908 -5.06986 3.21068 0
M  V30 2728 H 246.978 -3.65656 3.18471 0
M  V30 2729 N 248.321 -0.919034 -1.28029 0
M  V30 2730 C 249.284 -0.416182 -2.2539 0
M  V30 2731 C 250.284 0.460438 -1.54067 0
M  V30 2732 O 251.474 0.262744 -1.72207 0
M  V30 2733 C 248.606 0.402707 -3.38513 0
M  V30 2734 H 249.799 -1.27629 -2.71387 0
M  V30 2735 H 247.352 -0.698919 -1.39803 0
M  V30 2736 H 248.087 1.282 -2.97885 0
M  V30 2737 H 247.872 -0.225698 -3.9145 0
M  V30 2738 H 249.362 0.745191 -4.10897 0
M  V30 2739 N 249.799 1.42003 -0.683588 0
M  V30 2740 C 250.709 2.34597 -0.0109075 0
M  V30 2741 C 251.725 1.55576 0.779245 0
M  V30 2742 O 252.901 1.88107 0.719555 0
M  V30 2743 C 249.966 3.34199 0.922588 0
M  V30 2744 C 249.027 4.29115 0.125984 0
M  V30 2745 C 248.26 5.23959 1.01502 0
M  V30 2746 O 248.483 5.23952 2.25456 0
M  V30 2747 O 247.417 6.00053 0.47111 0
M  V30 2748 H 251.243 2.93675 -0.773853 0
M  V30 2749 H 248.828 1.42654 -0.443861 0
M  V30 2750 H 250.71 3.95365 1.45823 0
M  V30 2751 H 249.385 2.77582 1.66523 0
M  V30 2752 H 248.292 3.71335 -0.453969 0
M  V30 2753 H 249.625 4.88798 -0.577736 0
M  V30 2754 N 251.277 0.427512 1.51691 0
M  V30 2755 C 252.207 -0.3796 2.30394 0
M  V30 2756 C 253.188 -1.02982 1.35384 0
M  V30 2757 O 254.373 -1.03534 1.643 0
M  V30 2758 C 251.503 -1.48649 3.1388 0
M  V30 2759 C 250.457 -0.960294 4.17088 0
M  V30 2760 C 249.783 -2.16219 4.89033 0
M  V30 2761 C 251.083 -0.00153679 5.223 0
M  V30 2762 H 252.777 0.277164 2.98114 0
M  V30 2763 H 250.323 0.134739 1.43368 0
M  V30 2764 H 252.276 -2.05826 3.67714 0
M  V30 2765 H 251 -2.1714 2.43962 0
M  V30 2766 H 249.659 -0.410806 3.64291 0
M  V30 2767 H 249.307 -2.83307 4.15628 0
M  V30 2768 H 249.007 -1.81654 5.58816 0
M  V30 2769 H 250.531 -2.73968 5.45687 0
M  V30 2770 H 251.945 -0.482687 5.71264 0
M  V30 2771 H 250.342 0.256199 5.99553 0
M  V30 2772 H 251.412 0.938174 4.75738 0
M  V30 2773 N 252.755 -1.56801 0.158532 0
M  V30 2774 C 253.718 -2.16138 -0.762705 0
M  V30 2775 C 254.718 -1.1061 -1.16713 0
M  V30 2776 O 255.908 -1.36191 -1.08617 0
M  V30 2777 C 253.04 -2.73386 -2.03649 0
M  V30 2778 H 254.233 -2.98886 -0.246354 0
M  V30 2779 H 251.786 -1.56035 -0.0909744 0
M  V30 2780 H 252.521 -1.94335 -2.59623 0
M  V30 2781 H 252.306 -3.50601 -1.75559 0
M  V30 2782 H 253.796 -3.19065 -2.6942 0
M  V30 2783 N 254.233 0.115231 -1.57178 0
M  V30 2784 C 255.163 1.1423 -2.03651 0
M  V30 2785 C 256.144 1.42967 -0.921655 0
M  V30 2786 O 257.329 1.53343 -1.19162 0
M  V30 2787 C 254.459 2.4675 -2.44401 0
M  V30 2788 C 253.413 2.32467 -3.59365 0
M  V30 2789 C 252.739 3.69984 -3.86026 0
M  V30 2790 C 254.039 1.78203 -4.90959 0
M  V30 2791 H 255.733 0.755749 -2.89705 0
M  V30 2792 H 253.279 0.362093 -1.39373 0
M  V30 2793 H 255.232 3.18854 -2.75517 0
M  V30 2794 H 253.956 2.87302 -1.55322 0
M  V30 2795 H 252.615 1.62811 -3.28463 0
M  V30 2796 H 252.263 4.08028 -2.94147 0
M  V30 2797 H 251.963 3.61279 -4.63412 0
M  V30 2798 H 253.487 4.43587 -4.19599 0
M  V30 2799 H 254.901 2.40128 -5.20587 0
M  V30 2800 H 253.298 1.8031 -5.72371 0
M  V30 2801 H 254.368 0.739876 -4.79222 0
M  V30 2802 N 255.711 1.52812 0.385517 0
M  V30 2803 C 256.959 1.67694 1.12797 0
M  V30 2804 C 257.28 0.421115 1.90399 0
M  V30 2805 O 256.55 -0.564551 1.87589 0
M  V30 2806 H 255.13 0.618155 0.419396 0
M  V30 2807 H 257.792 1.89938 0.436972 0
M  V30 2808 H 256.888 2.52896 1.82894 0
M  V30 2809 N 257.189 -0.644168 1.43834 0
M  V30 2810 C 258.119 -1.76814 1.52509 0
M  V30 2811 C 259.1 -1.65823 0.379052 0
M  V30 2812 O 260.285 -1.84781 0.597466 0
M  V30 2813 C 257.415 -3.15288 1.4564 0
M  V30 2814 C 256.369 -3.41053 2.58586 0
M  V30 2815 C 255.695 -4.79421 2.36769 0
M  V30 2816 C 256.995 -3.34902 4.00797 0
M  V30 2817 H 258.689 -1.69812 2.46586 0
M  V30 2818 H 256.235 -0.815542 1.1868 0
M  V30 2819 H 258.188 -3.93681 1.50311 0
M  V30 2820 H 256.912 -3.23043 0.480725 0
M  V30 2821 H 255.571 -2.65035 2.53282 0
M  V30 2822 H 255.219 -4.83863 1.37424 0
M  V30 2823 H 254.919 -4.9762 3.12487 0
M  V30 2824 H 256.443 -5.6006 2.43238 0
M  V30 2825 H 257.857 -4.03218 4.07539 0
M  V30 2826 H 256.254 -3.64637 4.76613 0
M  V30 2827 H 257.324 -2.32928 4.25291 0
M  V30 2828 N 258.668 -1.30515 -0.883378 0
M  V30 2829 C 259.945 -1.10086 -1.6168 0
M  V30 2830 C 260.325 0.349269 -2.08191 0
M  V30 2831 O 259.673 1.34105 -1.85008 0
M  V30 2832 C 259.883 -2.10315 -2.78511 0
M  V30 2833 C 261.231 -2.42119 -3.48803 0
M  V30 2834 O 262.255 -2.08638 -2.88702 0
M  V30 2835 O 261.114 -2.99396 -4.57192 0
M  V30 2836 H 258.208 -0.422907 -0.710689 0
M  V30 2837 H 260.754 -1.41947 -0.930015 0
M  V30 2838 H 259.526 -3.07917 -2.41459 0
M  V30 2839 H 259.149 -1.79282 -3.54886 0
M  V30 2840 N 260.146 1.09593 -1.13257 0
M  V30 2841 C 261.096 2.14345 -0.777179 0
M  V30 2842 C 262.08 1.59277 0.227966 0
M  V30 2843 O 263.272 1.76971 0.0321413 0
M  V30 2844 C 260.401 3.42439 -0.242991 0
M  V30 2845 C 259.487 4.04419 -1.27694 0
M  V30 2846 N 259.878 4.40979 -2.47732 0
M  V30 2847 C 258.176 4.31596 -1.12432 0
M  V30 2848 C 258.877 4.89784 -3.13826 0
M  V30 2849 N 257.853 4.87133 -2.41252 0
M  V30 2850 H 261.655 2.40415 -1.69049 0
M  V30 2851 H 259.169 1.26803 -1.01463 0
M  V30 2852 H 261.166 4.16889 0.0298496 0
M  V30 2853 H 259.826 3.17824 0.66467 0
M  V30 2854 H 260.837 4.32396 -2.85051 0
M  V30 2855 H 257.514 4.16595 -0.274684 0
M  V30 2856 H 258.904 5.2755 -4.16102 0
M  V30 2857 N 261.624 0.925811 1.2754 0
M  V30 2858 C 262.554 0.440748 2.29303 0
M  V30 2859 C 263.535 -0.497971 1.62648 0
M  V30 2860 O 264.72 -0.403126 1.8997 0
M  V30 2861 C 261.85 -0.309048 3.45922 0
M  V30 2862 C 260.804 0.54166 4.24559 0
M  V30 2863 C 260.13 -0.337191 5.33636 0
M  V30 2864 C 261.43 1.80516 4.90114 0
M  V30 2865 H 263.124 1.29121 2.70126 0
M  V30 2866 H 260.67 0.622323 1.29858 0
M  V30 2867 H 262.623 -0.659315 4.1621 0
M  V30 2868 H 261.347 -1.19352 3.04011 0
M  V30 2869 H 260.006 0.874609 3.56014 0
M  V30 2870 H 259.654 -1.22056 4.87966 0
M  V30 2871 H 259.354 0.228497 5.87156 0
M  V30 2872 H 260.878 -0.683072 6.06767 0
M  V30 2873 H 262.292 1.52307 5.52698 0
M  V30 2874 H 260.689 2.3142 5.53683 0
M  V30 2875 H 261.759 2.52581 4.13921 0
M  V30 2876 N 263.102 -1.41638 0.69111 0
M  V30 2877 C 264.052 -2.28 -0.000107832 0
M  V30 2878 C 265.036 -1.41964 -0.757304 0
M  V30 2879 O 266.228 -1.65274 -0.633532 0
M  V30 2880 C 263.357 -3.30209 -0.938983 0
M  V30 2881 C 262.443 -4.23725 -0.17827 0
M  V30 2882 N 262.834 -4.99017 0.825563 0
M  V30 2883 C 261.132 -4.44071 -0.414392 0
M  V30 2884 C 261.833 -5.67431 1.28052 0
M  V30 2885 N 260.809 -5.40197 0.607304 0
M  V30 2886 H 264.611 -2.83644 0.769617 0
M  V30 2887 H 262.125 -1.53797 0.521562 0
M  V30 2888 H 264.122 -3.90898 -1.44929 0
M  V30 2889 H 262.782 -2.76126 -1.70836 0
M  V30 2890 H 263.793 -5.03671 1.20566 0
M  V30 2891 H 260.47 -4.01004 -1.162 0
M  V30 2892 H 261.86 -6.37801 2.11327 0
M  V30 2893 N 264.58 -0.43555 -1.51462 0
M  V30 2894 C 265.805 0.132627 -2.06976 0
M  V30 2895 C 266.23 1.35848 -1.30104 0
M  V30 2896 O 265.588 1.78112 -0.338493 0
M  V30 2897 C 265.636 0.43523 -3.57964 0
M  V30 2898 O 264.74 1.52198 -3.83288 0
M  V30 2899 H 264.081 0.00265 -0.663995 0
M  V30 2900 H 266.611 -0.616369 -1.95095 0
M  V30 2901 H 266.621 0.686206 -4.02188 0
M  V30 2902 H 265.296 -0.460739 -4.1334 0
M  V30 2903 H 263.873 1.2611 -3.50928 0
M  V30 2904 N 266.058 1.56714 -0.166846 0
M  V30 2905 C 266.988 2.20754 0.760913 0
M  V30 2906 C 267.969 1.16178 1.24244 0
M  V30 2907 O 269.154 1.44592 1.29641 0
M  V30 2908 C 266.284 2.84478 1.99223 0
M  V30 2909 C 265.238 3.95053 1.64672 0
M  V30 2910 C 264.564 4.45805 2.95232 0
M  V30 2911 C 265.864 5.14865 0.878155 0
M  V30 2912 H 267.558 2.98537 0.22713 0
M  V30 2913 H 265.104 1.43596 0.107805 0
M  V30 2914 H 267.057 3.27951 2.64624 0
M  V30 2915 H 265.781 2.04056 2.55007 0
M  V30 2916 H 264.44 3.52228 1.01641 0
M  V30 2917 H 264.088 3.62181 3.49047 0
M  V30 2918 H 263.788 5.204 2.7287 0
M  V30 2919 H 265.312 4.91962 3.6167 0
M  V30 2920 H 266.726 5.55059 1.43466 0
M  V30 2921 H 265.123 5.95348 0.753738 0
M  V30 2922 H 266.193 4.84735 -0.126377 0
M  V30 2923 N 267.536 -0.106894 1.57237 0
M  V30 2924 C 268.784 -0.810921 1.85117 0
M  V30 2925 C 269.105 -1.7984 0.753827 0
M  V30 2926 O 268.375 -1.94649 -0.221056 0
M  V30 2927 H 266.955 -0.302466 0.683025 0
M  V30 2928 H 269.617 -0.0913324 1.94686 0
M  V30 2929 H 268.713 -1.34875 2.81452 0
M  V30 2930 N 269.014 -1.53014 -0.377408 0
M  V30 2931 C 270.263 -1.67845 -1.11853 0
M  V30 2932 C 270.576 -0.430625 -1.90801 0
M  V30 2933 O 271.782 -0.459261 -2.67587 0
M  V30 2934 C 270.238 -2.96668 -2.03756 0
M  V30 2935 C 269.846 -4.28671 -1.30175 0
M  V30 2936 C 271.59 -3.20865 -2.77932 0
M  V30 2937 C 269.497 -5.48591 -2.20911 0
M  V30 2938 H 268.427 -0.625343 -0.421263 0
M  V30 2939 H 271.078 -1.79514 -0.380409 0
M  V30 2940 H 269.46 -2.78773 -2.8125 0
M  V30 2941 H 270.634 -4.57157 -0.578259 0
M  V30 2942 H 268.949 -4.10825 -0.679108 0
M  V30 2943 H 271.546 -4.07642 -3.46024 0
M  V30 2944 H 271.889 -2.36424 -3.4265 0
M  V30 2945 H 272.422 -3.39379 -2.07525 0
M  V30 2946 H 269.161 -6.35474 -1.6079 0
M  V30 2947 H 268.681 -5.244 -2.91144 0
M  V30 2948 H 270.36 -5.8292 -2.80736 0
M  V30 2949 N 270.492 0.636531 -1.44174 0
M  V30 2950 C 271.741 1.39213 -1.45954 0
M  V30 2951 C 272.054 1.95374 -0.0939119 0
M  V30 2952 O 273.26 2.71498 0.0107767 0
M  V30 2953 C 271.716 2.52025 -2.56927 0
M  V30 2954 C 271.324 2.024 -3.99673 0
M  V30 2955 C 273.068 3.29269 -2.67922 0
M  V30 2956 C 270.975 3.12521 -5.0208 0
M  V30 2957 H 269.905 0.523132 -0.542999 0
M  V30 2958 H 272.556 0.685349 -1.70221 0
M  V30 2959 H 270.938 3.25253 -2.25891 0
M  V30 2960 H 272.112 1.36073 -4.40251 0
M  V30 2961 H 270.427 1.37987 -3.92872 0
M  V30 2962 H 273.024 4.11352 -3.41605 0
M  V30 2963 H 273.367 3.78397 -1.73555 0
M  V30 2964 H 273.9 2.63129 -2.98342 0
M  V30 2965 H 270.639 2.68343 -5.98057 0
M  V30 2966 H 270.159 3.77507 -4.66099 0
M  V30 2967 H 271.838 3.77385 -5.25538 0
M  V30 2968 N 271.97 1.30982 0.876444 0
M  V30 2969 C 273.2 1.23063 1.65949 0
M  V30 2970 C 273.608 -0.207537 1.88058 0
M  V30 2971 O 272.951 -1.14781 1.43426 0
M  V30 2972 C 273.013 1.89768 3.05333 0
M  V30 2973 C 272.677 3.39106 3.0636 0
M  V30 2974 C 273.674 4.3496 2.84791 0
M  V30 2975 C 271.359 3.80693 3.27686 0
M  V30 2976 C 273.353 5.70375 2.84519 0
M  V30 2977 C 271.04 5.16223 3.27043 0
M  V30 2978 C 272.038 6.10875 3.05485 0
M  V30 2979 O 271.726 7.43928 3.04674 0
M  V30 2980 H 271.458 0.426685 0.524324 0
M  V30 2981 H 274.012 1.7329 1.10271 0
M  V30 2982 H 272.242 1.34082 3.6271 0
M  V30 2983 H 273.931 1.75853 3.65829 0
M  V30 2984 H 274.697 4.0416 2.68103 0
M  V30 2985 H 270.576 3.07457 3.43499 0
M  V30 2986 H 274.12 6.44228 2.67611 0
M  V30 2987 H 270.017 5.4666 3.43269 0
M  V30 2988 H 270.785 7.53022 3.2078 0
M  V30 2989 N 273.449 -1.08991 1.13837 0
M  V30 2990 C 274.865 -1.33312 0.877506 0
M  V30 2991 C 275.065 -1.95587 -0.48456 0
M  V30 2992 O 274.121 -2.20509 -1.23013 0
M  V30 2993 C 275.434 -2.24045 2.0056 0
M  V30 2994 C 276.982 -2.37542 2.03821 0
M  V30 2995 C 277.457 -3.31614 3.15905 0
M  V30 2996 N 278.948 -3.39189 3.15445 0
M  V30 2997 C 279.683 -4.11992 3.98811 0
M  V30 2998 N 279.179 -4.87553 4.92203 0
M  V30 2999 N 280.972 -4.07762 3.86894 0
M  V30 3000 H 273.123 -0.669456 2.01574 0
M  V30 3001 H 275.386 -0.357482 0.878015 0
M  V30 3002 H 275.092 -1.85521 2.98789 0
M  V30 3003 H 274.966 -3.24466 1.92359 0
M  V30 3004 H 277.353 -2.75327 1.06202 0
M  V30 3005 H 277.434 -1.36884 2.16093 0
M  V30 3006 H 277.078 -2.94551 4.13766 0
M  V30 3007 H 277.008 -4.32186 3.0087 0
M  V30 3008 H 279.499 -2.85314 2.47799 0
M  V30 3009 H 279.812 -5.40549 5.52292 0
M  V30 3010 H 278.157 -4.86627 4.96205 0
M  V30 3011 H 281.348 -3.47833 3.13257 0
M  V30 3012 H 281.521 -4.64238 4.52092 0
M  V30 3013 N 274.927 -0.932562 -1.27047 0
M  V30 3014 C 276.204 -0.49377 -1.89265 0
M  V30 3015 C 276.584 1.02833 -1.8436 0
M  V30 3016 O 275.932 1.88461 -1.29209 0
M  V30 3017 C 276.142 -1.04536 -3.32976 0
M  V30 3018 C 277.49 -1.10879 -4.09867 0
M  V30 3019 O 278.514 -0.995327 -3.42011 0
M  V30 3020 O 277.373 -1.28417 -5.31198 0
M  V30 3021 H 274.467 -0.159596 -0.811454 0
M  V30 3022 H 277.013 -1.02457 -1.3528 0
M  V30 3023 H 275.785 -2.08913 -3.30864 0
M  V30 3024 H 275.408 -0.496494 -3.94488 0
M  V30 3025 N 276.405 1.4127 -0.698611 0
M  V30 3026 C 277.335 2.33447 -0.049629 0
M  V30 3027 C 278.316 1.51982 0.763898 0
M  V30 3028 O 279.501 1.80509 0.716257 0
M  V30 3029 C 276.631 3.35828 0.885267 0
M  V30 3030 C 275.585 4.27627 0.178613 0
M  V30 3031 C 274.911 5.20406 1.22807 0
M  V30 3032 C 276.211 5.13459 -0.956933 0
M  V30 3033 H 277.905 2.87966 -0.81951 0
M  V30 3034 H 275.451 1.38461 -0.395538 0
M  V30 3035 H 277.404 3.9924 1.34854 0
M  V30 3036 H 276.128 2.79666 1.68685 0
M  V30 3037 H 274.787 3.65643 -0.26466 0
M  V30 3038 H 274.435 4.60558 2.02226 0
M  V30 3039 H 274.135 5.82661 0.760239 0
M  V30 3040 H 275.659 5.86695 1.69179 0
M  V30 3041 H 277.073 5.70421 -0.573805 0
M  V30 3042 H 275.47 5.8467 -1.35205 0
M  V30 3043 H 276.54 4.50443 -1.79524 0
M  V30 3044 N 277.883 0.443576 1.51229 0
M  V30 3045 C 278.83 -0.364716 2.279 0
M  V30 3046 C 279.8 -1.0114 1.31757 0
M  V30 3047 O 280.985 -1.02912 1.60667 0
M  V30 3048 C 278.125 -1.45644 3.12861 0
M  V30 3049 C 277.238 -0.827269 4.24005 0
M  V30 3050 C 276.373 -1.89456 4.96266 0
M  V30 3051 C 275.412 -1.24416 5.99322 0
M  V30 3052 N 274.549 -2.25309 6.64966 0
M  V30 3053 H 279.389 0.295464 2.96532 0
M  V30 3054 H 276.926 0.157554 1.46254 0
M  V30 3055 H 278.884 -2.10076 3.6045 0
M  V30 3056 H 277.514 -2.08616 2.46331 0
M  V30 3057 H 276.566 -0.0710839 3.80334 0
M  V30 3058 H 277.878 -0.312481 4.9782 0
M  V30 3059 H 277.032 -2.61535 5.47434 0
M  V30 3060 H 275.771 -2.4431 4.22095 0
M  V30 3061 H 274.776 -0.508868 5.4744 0
M  V30 3062 H 276.001 -0.702882 6.75453 0
M  V30 3063 H 273.947 -2.79231 5.93604 0
M  V30 3064 H 273.864 -1.78739 7.34567 0
M  V30 3065 H 275.132 -2.96853 7.20763 0
M  V30 3066 N 279.361 -1.56624 0.175154 0
M  V30 3067 C 280.772 -1.83561 -0.340916 0
M  V30 3068 C 281.123 -1.09511 -1.62794 0
M  V30 3069 O 280.248 -0.349389 -2.13561 0
M  V30 3070 C 280.843 -3.32979 -0.625313 0
M  V30 3071 C 279.402 -3.60399 -1.08581 0
M  V30 3072 C 278.549 -2.77024 -0.123722 0
M  V30 3073 H 281.5 -1.53593 0.399344 0
M  V30 3074 H 281.521 -3.50666 -1.47694 0
M  V30 3075 H 281.033 -3.86847 0.311575 0
M  V30 3076 H 279.134 -3.11945 -2.03767 0
M  V30 3077 H 279.247 -4.68711 -0.992317 0
M  V30 3078 H 277.611 -2.46993 -0.621821 0
M  V30 3079 H 278.394 -3.33674 0.807256 0
M  V30 3080 N 280.839 0.0985539 -1.57292 0
M  V30 3081 C 281.749 1.13824 -2.05137 0
M  V30 3082 C 282.765 1.44076 -0.975604 0
M  V30 3083 O 283.941 1.54786 -1.28853 0
M  V30 3084 C 281.006 2.43969 -2.46333 0
M  V30 3085 C 280.067 2.2093 -3.68087 0
M  V30 3086 C 279.3 3.44869 -4.0731 0
M  V30 3087 O 279.523 4.52972 -3.46659 0
M  V30 3088 O 278.457 3.34661 -5.00285 0
M  V30 3089 H 282.283 0.761881 -2.93988 0
M  V30 3090 H 279.868 0.310818 -1.46131 0
M  V30 3091 H 281.75 3.20609 -2.73473 0
M  V30 3092 H 280.425 2.81038 -1.60621 0
M  V30 3093 H 279.332 1.42081 -3.46069 0
M  V30 3094 H 280.665 1.88755 -4.54568 0
M  V30 3095 N 282.317 1.53212 0.369288 0
M  V30 3096 C 283.265 1.80054 1.47253 0
M  V30 3097 C 284.259 0.669456 1.55611 0
M  V30 3098 O 285.465 0.852328 1.58541 0
M  V30 3099 H 281.84 0.570034 0.490475 0
M  V30 3100 H 283.811 2.72403 1.21817 0
M  V30 3101 C 282.56 2.00403 2.84137 0
M  V30 3102 H 281.883 2.86876 2.78464 0
M  V30 3103 H 283.323 2.23164 3.60519 0
M  V30 3104 C 281.782 0.782081 3.27697 0
M  V30 3105 O 282.312 -0.0310205 4.01688 0
M  V30 3106 N 280.518 0.606573 2.84199 0
M  V30 3107 H 280.065 1.26939 2.24152 0
M  V30 3108 H 280.023 -0.20962 3.137 0
M  V30 3109 N 283.795 -0.628877 1.44509 0
M  V30 3110 C 285.044 -1.38437 1.4669 0
M  V30 3111 C 285.357 -1.95322 0.104272 0
M  V30 3112 O 286.563 -2.715 0.00362163 0
M  V30 3113 C 285.019 -2.50659 2.5826 0
M  V30 3114 C 284.627 -2.00277 4.0074 0
M  V30 3115 C 286.371 -3.27844 2.69664 0
M  V30 3116 C 284.278 -3.09854 5.0373 0
M  V30 3117 H 283.208 -0.520245 0.545766 0
M  V30 3118 H 285.859 -0.676313 1.70582 0
M  V30 3119 H 284.241 -3.2405 2.27612 0
M  V30 3120 H 285.415 -1.33736 4.40966 0
M  V30 3121 H 283.73 -1.35901 3.93599 0
M  V30 3122 H 286.327 -4.09534 3.43781 0
M  V30 3123 H 286.67 -3.77471 1.75559 0
M  V30 3124 H 287.203 -2.61543 2.99733 0
M  V30 3125 H 283.942 -2.65168 5.99472 0
M  V30 3126 H 283.462 -3.7503 4.68095 0
M  V30 3127 H 285.141 -3.74592 5.27532 0
M  V30 3128 N 285.273 -1.31445 -0.869486 0
M  V30 3129 C 286.203 -1.21727 -1.99261 0
M  V30 3130 C 287.184 -0.104359 -1.6978 0
M  V30 3131 O 288.369 -0.289038 -1.92037 0
M  V30 3132 C 285.499 -0.924317 -3.34774 0
M  V30 3133 C 284.453 -1.99685 -3.78563 0
M  V30 3134 C 283.779 -1.55658 -5.11541 0
M  V30 3135 C 285.079 -3.41003 -3.95619 0
M  V30 3136 H 286.773 -2.1569 -2.07649 0
M  V30 3137 H 284.319 -1.03839 -0.997675 0
M  V30 3138 H 286.272 -0.842934 -4.12883 0
M  V30 3139 H 284.996 0.0509793 -3.2656 0
M  V30 3140 H 283.655 -2.06813 -3.02694 0
M  V30 3141 H 283.303 -0.569132 -4.9977 0
M  V30 3142 H 283.003 -2.27409 -5.41811 0
M  V30 3143 H 284.527 -1.48928 -5.92159 0
M  V30 3144 H 285.941 -3.36547 -4.64122 0
M  V30 3145 H 284.338 -4.10975 -4.37286 0
M  V30 3146 H 285.408 -3.81754 -2.98985 0
M  V30 3147 N 286.751 1.08385 -1.14413 0
M  V30 3148 C 287.681 2.17321 -0.854044 0
M  V30 3149 C 288.662 1.69024 0.191049 0
M  V30 3150 O 289.847 1.94141 0.0476779 0
M  V30 3151 C 286.977 3.45719 -0.330983 0
M  V30 3152 C 285.931 4.07409 -1.31155 0
M  V30 3153 C 285.257 5.30762 -0.64778 0
M  V30 3154 C 286.557 4.48665 -2.67388 0
M  V30 3155 H 288.251 2.41845 -1.76498 0
M  V30 3156 H 285.797 1.16233 -0.850051 0
M  V30 3157 H 287.75 4.21241 -0.115645 0
M  V30 3158 H 286.474 3.2075 0.615381 0
M  V30 3159 H 285.133 3.33919 -1.51306 0
M  V30 3160 H 284.781 5.02078 0.304398 0
M  V30 3161 H 284.481 5.72992 -1.30207 0
M  V30 3162 H 286.005 6.08998 -0.441972 0
M  V30 3163 H 287.419 5.15364 -2.51143 0
M  V30 3164 H 285.816 5.01814 -3.29093 0
M  V30 3165 H 286.886 3.60543 -3.24248 0
M  V30 3166 N 288.23 0.939286 1.26551 0
M  V30 3167 C 289.507 0.5038 1.89001 0
M  V30 3168 C 289.887 -1.01854 1.84903 0
M  V30 3169 O 289.235 -1.87773 1.30206 0
M  V30 3170 C 289.445 1.063 3.32417 0
M  V30 3171 C 290.793 1.13051 4.09273 0
M  V30 3172 O 291.817 1.01345 3.41479 0
M  V30 3173 O 290.676 1.31233 5.30509 0
M  V30 3174 H 287.77 0.163897 0.810597 0
M  V30 3175 H 290.316 1.03173 1.34735 0
M  V30 3176 H 289.088 2.10665 3.29752 0
M  V30 3177 H 288.711 0.517408 3.94219 0
M  V30 3178 N 289.708 -1.40897 0.706093 0
M  V30 3179 C 290.618 -2.3455 0.0482286 0
M  V30 3180 C 291.634 -1.56796 -0.754396 0
M  V30 3181 O 292.81 -1.89228 -0.689538 0
M  V30 3182 C 289.875 -3.35625 -0.869303 0
M  V30 3183 C 288.936 -4.29261 -0.0576994 0
M  V30 3184 C 288.169 -5.25508 -0.931531 0
M  V30 3185 O 288.392 -5.27472 -2.17092 0
M  V30 3186 O 287.326 -6.00727 -0.375587 0
M  V30 3187 H 291.152 -2.92407 0.820476 0
M  V30 3188 H 288.737 -1.4193 0.4665 0
M  V30 3189 H 290.619 -3.97635 -1.39514 0
M  V30 3190 H 289.294 -2.80196 -1.62086 0
M  V30 3191 H 288.201 -3.70566 0.512988 0
M  V30 3192 H 289.534 -4.87817 0.655426 0
M  V30 3193 N 291.186 -0.45159 -1.50991 0
M  V30 3194 C 292.096 0.358431 -2.31846 0
M  V30 3195 C 293.112 1.01438 -1.41373 0
M  V30 3196 O 294.288 1.00663 -1.74439 0
M  V30 3197 C 291.353 1.43704 -3.15515 0
M  V30 3198 C 290.414 0.799742 -4.21785 0
M  V30 3199 C 289.647 1.82696 -5.01456 0
M  V30 3200 O 289.87 3.05105 -4.81941 0
M  V30 3201 O 288.804 1.40958 -5.85162 0
M  V30 3202 H 292.63 -0.302032 -3.02194 0
M  V30 3203 H 290.215 -0.213825 -1.47862 0
M  V30 3204 H 292.097 2.06227 -3.67489 0
M  V30 3205 H 290.772 2.08133 -2.47916 0
M  V30 3206 H 289.679 0.136084 -3.73852 0
M  V30 3207 H 291.012 0.198718 -4.91799 0
M  V30 3208 N 292.664 1.56529 -0.183458 0
M  V30 3209 C 293.912 1.96855 0.457452 0
M  V30 3210 C 294.233 1.07104 1.62953 0
M  V30 3211 O 293.503 0.139887 1.954 0
M  V30 3212 H 292.083 0.72693 0.171992 0
M  V30 3213 H 294.745 1.93056 -0.267476 0
M  V30 3214 H 293.841 3.01423 0.809368 0
M  V30 3215 N 294.142 -0.090211 1.57342 0
M  V30 3216 C 295.092 -1.11557 1.98844 0
M  V30 3217 C 296.076 -1.35503 0.867624 0
M  V30 3218 O 297.268 -1.36113 1.13148 0
M  V30 3219 C 294.397 -2.43446 2.42051 0
M  V30 3220 C 293.483 -2.22853 3.60828 0
M  V30 3221 N 293.874 -1.72141 4.75606 0
M  V30 3222 C 292.172 -2.53401 3.67021 0
M  V30 3223 C 292.873 -1.65932 5.57531 0
M  V30 3224 N 291.849 -2.11323 5.00843 0
M  V30 3225 H 295.651 -0.716499 2.85032 0
M  V30 3226 H 293.165 -0.297567 1.59651 0
M  V30 3227 H 295.162 -3.17644 2.70014 0
M  V30 3228 H 293.822 -2.84087 1.57241 0
M  V30 3229 H 294.833 -1.41268 4.98261 0
M  V30 3230 H 291.51 -2.97532 2.92884 0
M  V30 3231 H 292.9 -1.27733 6.59647 0
M  V30 3232 N 295.62 -1.53406 -0.361157 0
M  V30 3233 C 296.869 -1.69022 -1.10066 0
M  V30 3234 C 297.182 -0.450838 -1.90333 0
M  V30 3235 O 298.388 -0.487617 -2.67085 0
M  V30 3236 C 296.844 -2.98812 -2.00598 0
M  V30 3237 C 296.452 -4.30027 -1.25621 0
M  V30 3238 C 298.196 -3.23795 -2.74513 0
M  V30 3239 C 296.103 -5.50903 -2.1508 0
M  V30 3240 H 295.033 -0.629776 -0.414606 0
M  V30 3241 H 297.684 -1.79907 -0.361348 0
M  V30 3242 H 296.066 -2.8174 -2.78278 0
M  V30 3243 H 297.24 -4.57745 -0.529739 0
M  V30 3244 H 295.555 -4.11522 -0.635496 0
M  V30 3245 H 298.152 -4.11289 -3.41681 0
M  V30 3246 H 298.495 -2.40045 -3.40123 0
M  V30 3247 H 299.028 -3.41561 -2.03914 0
M  V30 3248 H 295.767 -6.37143 -1.54041 0
M  V30 3249 H 295.287 -5.27459 -2.85565 0
M  V30 3250 H 296.966 -5.85865 -2.74538 0
M  V30 3251 N 297.098 0.621204 -1.44841 0
M  V30 3252 C 298.045 1.73267 -1.5247 0
M  V30 3253 C 299.015 1.6189 -0.371611 0
M  V30 3254 O 300.2 1.81668 -0.58321 0
M  V30 3255 C 297.34 3.11545 -1.48438 0
M  V30 3256 C 296.453 3.33827 -2.74196 0
M  V30 3257 C 295.588 4.62133 -2.61929 0
M  V30 3258 C 294.627 4.77627 -3.82804 0
M  V30 3259 N 293.764 5.97219 -3.69153 0
M  V30 3260 H 298.604 1.66082 -2.47428 0
M  V30 3261 H 296.141 0.810026 -1.22788 0
M  V30 3262 H 298.099 3.91528 -1.4409 0
M  V30 3263 H 296.729 3.1772 -0.570402 0
M  V30 3264 H 295.781 2.47715 -2.88689 0
M  V30 3265 H 297.093 3.41153 -3.6389 0
M  V30 3266 H 296.247 5.50291 -2.5547 0
M  V30 3267 H 294.986 4.57182 -1.69811 0
M  V30 3268 H 293.991 3.87896 -3.89637 0
M  V30 3269 H 295.216 4.84385 -4.75971 0
M  V30 3270 H 293.162 5.93339 -2.79794 0
M  V30 3271 H 293.079 6.05644 -4.52472 0
M  V30 3272 H 294.347 6.87912 -3.66603 0
M  V30 3273 N 298.576 1.31904 0.862503 0
M  V30 3274 C 299.506 1.22782 1.98612 0
M  V30 3275 C 300.487 0.113362 1.69722 0
M  V30 3276 O 301.672 0.299218 1.91881 0
M  V30 3277 C 298.802 0.942058 3.34279 0
M  V30 3278 C 297.756 2.0169 3.77499 0
M  V30 3279 C 297.082 1.58369 5.10709 0
M  V30 3280 C 298.382 3.43096 3.93805 0
M  V30 3281 H 300.076 2.16788 2.06502 0
M  V30 3282 H 297.622 1.04366 0.992154 0
M  V30 3283 H 299.575 0.864818 4.1243 0
M  V30 3284 H 298.299 -0.0336603 3.26583 0
M  V30 3285 H 296.958 2.08416 3.01593 0
M  V30 3286 H 296.606 0.595628 4.99461 0
M  V30 3287 H 296.306 2.30279 5.40597 0
M  V30 3288 H 297.83 1.52067 5.91361 0
M  V30 3289 H 299.244 3.39003 4.62331 0
M  V30 3290 H 297.641 4.13288 4.35101 0
M  V30 3291 H 298.711 3.83334 2.96957 0
M  V30 3292 N 300.054 -1.07777 1.14986 0
M  V30 3293 C 301.282 -1.84018 0.945773 0
M  V30 3294 C 301.697 -1.81897 -0.505863 0
M  V30 3295 O 301.054 -1.22726 -1.35072 0
M  V30 3296 C 301.105 -3.31287 1.44677 0
M  V30 3297 O 300.826 -3.33449 2.84154 0
M  V30 3298 C 302.327 -4.24311 1.28355 0
M  V30 3299 H 299.547 -0.580716 0.336169 0
M  V30 3300 H 302.091 -1.36077 1.52654 0
M  V30 3301 H 300.246 -3.76594 0.908625 0
M  V30 3302 H 300.66 -4.25427 3.06777 0
M  V30 3303 H 302.134 -5.2573 1.68261 0
M  V30 3304 H 302.611 -4.38612 0.227184 0
M  V30 3305 H 303.217 -3.84836 1.81056 0
M  V30 3306 N 301.532 -0.945985 -1.26051 0
M  V30 3307 C 302.809 -0.513816 -1.88731 0
M  V30 3308 C 303.189 1.00872 -1.8544 0
M  V30 3309 O 302.537 1.8708 -1.312 0
M  V30 3310 C 302.747 -1.08062 -3.31849 0
M  V30 3311 C 304.095 -1.1522 -4.08668 0
M  V30 3312 O 305.119 -1.03155 -3.40936 0
M  V30 3313 O 303.978 -1.34044 -5.29806 0
M  V30 3314 H 301.072 -0.168193 -0.809716 0
M  V30 3315 H 303.618 -1.03886 -1.34186 0
M  V30 3316 H 302.39 -2.1241 -3.2863 0
M  V30 3317 H 302.013 -0.538307 -3.93939 0
M  V30 3318 N 303.011 1.40521 -0.713556 0
M  V30 3319 C 304.258 2.00923 -0.25219 0
M  V30 3320 C 304.586 1.56571 1.15395 0
M  V30 3321 O 303.841 0.775874 1.79663 0
M  V30 3322 C 304.14 3.56317 -0.278 0
M  V30 3323 C 303.806 4.20246 -1.63415 0
M  V30 3324 C 302.468 4.37422 -2.00538 0
M  V30 3325 C 304.82 4.55923 -2.52554 0
M  V30 3326 C 302.148 4.87558 -3.2635 0
M  V30 3327 C 304.5 5.07458 -3.77716 0
M  V30 3328 C 303.164 5.22843 -4.14959 0
M  V30 3329 H 302.434 0.735231 -0.0922829 0
M  V30 3330 H 305.081 1.68161 -0.916188 0
M  V30 3331 H 303.386 3.88976 0.469567 0
M  V30 3332 H 305.083 4.00883 0.0967819 0
M  V30 3333 H 301.673 4.07263 -1.33546 0
M  V30 3334 H 305.857 4.42291 -2.25149 0
M  V30 3335 H 301.113 4.97654 -3.55176 0
M  V30 3336 H 305.287 5.34041 -4.4696 0
M  V30 3337 H 302.914 5.61454 -5.12516 0
M  V30 3338 N 304.489 0.459591 1.5075 0
M  V30 3339 C 305.737 -0.0991532 2.01857 0
M  V30 3340 C 306.058 -1.41247 1.34441 0
M  V30 3341 O 305.328 -1.89775 0.486022 0
M  V30 3342 H 303.908 -0.039633 0.745948 0
M  V30 3343 H 306.57 0.607387 1.85194 0
M  V30 3344 H 305.666 -0.258998 3.11023 0
M  V30 3345 N 305.967 -1.56429 0.191757 0
M  V30 3346 C 306.897 -2.21937 -0.725696 0
M  V30 3347 C 307.878 -1.1814 -1.2238 0
M  V30 3348 O 309.063 -1.46636 -1.27325 0
M  V30 3349 C 306.193 -2.87611 -1.94672 0
M  V30 3350 C 305.147 -3.97623 -1.58366 0
M  V30 3351 C 304.473 -4.50446 -2.88102 0
M  V30 3352 C 305.773 -5.16197 -0.796133 0
M  V30 3353 H 307.467 -2.98861 -0.179606 0
M  V30 3354 H 305.013 -1.43749 -0.0849464 0
M  V30 3355 H 306.966 -3.3212 -2.59373 0
M  V30 3356 H 305.69 -2.08087 -2.51728 0
M  V30 3357 H 304.349 -3.53801 -0.960247 0
M  V30 3358 H 303.997 -3.67688 -3.43241 0
M  V30 3359 H 303.697 -5.24675 -2.64556 0
M  V30 3360 H 305.221 -4.97654 -3.53798 0
M  V30 3361 H 306.635 -5.57271 -1.34618 0
M  V30 3362 H 305.032 -5.96471 -0.658928 0
M  V30 3363 H 306.102 -4.84473 0.203478 0
M  V30 3364 N 307.445 0.0818655 -1.57387 0
M  V30 3365 C 308.67 0.799946 -1.91352 0
M  V30 3366 C 309.095 1.70833 -0.787258 0
M  V30 3367 O 308.453 1.79419 0.26048 0
M  V30 3368 C 308.501 1.57812 -3.24234 0
M  V30 3369 O 307.605 2.68806 -3.12757 0
M  V30 3370 H 306.946 0.21891 -0.626877 0
M  V30 3371 H 309.476 0.0531256 -2.04531 0
M  V30 3372 H 309.486 1.95952 -3.57864 0
M  V30 3373 H 308.161 0.911548 -4.05788 0
M  V30 3374 H 306.738 2.33597 -2.90666 0
M  V30 3375 N 308.923 1.53595 0.353017 0
M  V30 3376 C 309.87 1.80919 1.43308 0
M  V30 3377 C 310.84 0.654288 1.5267 0
M  V30 3378 O 312.025 0.897759 1.6836 0
M  V30 3379 C 309.165 2.01605 2.80089 0
M  V30 3380 C 308.278 3.29321 2.79593 0
M  V30 3381 C 307.413 3.40125 4.0803 0
M  V30 3382 C 306.452 4.61826 4.01725 0
M  V30 3383 N 305.589 4.69716 5.21834 0
M  V30 3384 H 310.429 2.73074 1.19308 0
M  V30 3385 H 307.966 1.35263 0.578131 0
M  V30 3386 H 309.924 2.11586 3.59565 0
M  V30 3387 H 308.554 1.12772 3.0246 0
M  V30 3388 H 307.606 3.28229 1.92276 0
M  V30 3389 H 308.918 4.18884 2.70809 0
M  V30 3390 H 308.072 3.49488 4.95927 0
M  V30 3391 H 306.811 2.48601 4.19582 0
M  V30 3392 H 305.816 4.52552 3.12213 0
M  V30 3393 H 307.041 5.54705 3.91764 0
M  V30 3394 H 304.987 3.81097 5.33948 0
M  V30 3395 H 304.904 5.53202 5.1527 0
M  V30 3396 H 306.172 4.83376 6.11529 0
M  V30 3397 N 310.401 -0.613514 1.45168 0
M  V30 3398 C 311.311 -1.75296 1.55912 0
M  V30 3399 C 312.327 -1.68244 0.443856 0
M  V30 3400 O 313.503 -1.88706 0.70371 0
M  V30 3401 C 310.568 -3.1174 1.5172 0
M  V30 3402 C 309.629 -3.30291 2.74238 0
M  V30 3403 C 308.862 -4.60226 2.70236 0
M  V30 3404 O 309.085 -5.42168 1.77229 0
M  V30 3405 O 308.019 -4.81361 3.61352 0
M  V30 3406 H 311.845 -1.69183 2.52212 0
M  V30 3407 H 309.43 -0.776886 1.27612 0
M  V30 3408 H 311.312 -3.93044 1.51968 0
M  V30 3409 H 309.987 -3.18357 0.585697 0
M  V30 3410 H 308.894 -2.48598 2.79553 0
M  V30 3411 H 310.227 -3.28547 3.66494 0
M  V30 3412 N 311.879 -1.3236 -0.855495 0
M  V30 3413 C 312.842 -1.21164 -1.94556 0
M  V30 3414 C 313.842 -0.134908 -1.60233 0
M  V30 3415 O 315.032 -0.385249 -1.69887 0
M  V30 3416 C 312.164 -0.863192 -3.29791 0
M  V30 3417 H 313.357 -2.18038 -2.05911 0
M  V30 3418 H 310.91 -1.16179 -1.04557 0
M  V30 3419 H 311.645 0.103769 -3.24134 0
M  V30 3420 H 311.43 -1.64166 -3.56078 0
M  V30 3421 H 312.92 -0.809156 -4.09686 0
M  V30 3422 N 313.357 1.07166 -1.15556 0
M  V30 3423 C 314.606 1.79181 -0.926132 0
M  V30 3424 C 314.919 1.87768 0.547967 0
M  V30 3425 O 316.125 2.56323 0.895036 0
M  V30 3426 C 314.581 3.22 -1.60761 0
M  V30 3427 C 314.189 3.21607 -3.11886 0
M  V30 3428 C 315.933 3.9861 -1.4598 0
M  V30 3429 C 313.84 4.59092 -3.72812 0
M  V30 3430 H 312.77 0.67154 -0.342856 0
M  V30 3431 H 315.421 1.2027 -1.3859 0
M  V30 3432 H 313.803 3.81115 -1.07553 0
M  V30 3433 H 314.977 2.72127 -3.71865 0
M  V30 3434 H 313.292 2.58495 -3.2645 0
M  V30 3435 H 315.889 5.00225 -1.88888 0
M  V30 3436 H 316.232 4.143 -0.407541 0
M  V30 3437 H 316.765 3.45996 -1.96295 0
M  V30 3438 H 313.504 4.48606 -4.77946 0
M  V30 3439 H 313.024 5.08803 -3.17616 0
M  V30 3440 H 314.703 5.28059 -3.73848 0
M  V30 3441 N 314.835 0.952656 1.25548 0
M  V30 3442 C 316.112 0.523818 1.88456 0
M  V30 3443 C 316.492 -0.998871 1.85973 0
M  V30 3444 O 315.84 -1.86381 1.3219 0
M  V30 3445 C 316.05 1.0982 3.31271 0
M  V30 3446 C 317.398 1.17385 4.08051 0
M  V30 3447 O 318.422 1.04961 3.40384 0
M  V30 3448 O 317.281 1.36852 5.29088 0
M  V30 3449 H 314.375 0.172485 0.808813 0
M  V30 3450 H 316.921 1.04596 1.33633 0
M  V30 3451 H 315.693 2.1415 3.27499 0
M  V30 3452 H 315.316 0.559191 3.93648 0
M  V30 3453 N 316.313 -1.40141 0.720998 0
M  V30 3454 C 317.263 -2.27949 0.0482544 0
M  V30 3455 C 318.247 -1.43538 -0.727021 0
M  V30 3456 O 319.439 -1.6658 -0.598332 0
M  V30 3457 C 316.568 -3.32126 -0.868729 0
M  V30 3458 C 315.654 -4.24008 -0.0883515 0
M  V30 3459 N 316.045 -4.97154 0.931226 0
M  V30 3460 C 314.343 -4.4485 -0.320105 0
M  V30 3461 C 315.044 -5.64587 1.4006 0
M  V30 3462 N 314.02 -5.38787 0.721752 0
M  V30 3463 H 317.822 -2.81948 0.829609 0
M  V30 3464 H 315.336 -1.52656 0.554067 0
M  V30 3465 H 317.333 -3.93884 -1.36605 0
M  V30 3466 H 315.993 -2.79687 -1.6494 0
M  V30 3467 H 317.004 -5.01 1.31222 0
M  V30 3468 H 313.681 -4.03378 -1.07668 0
M  V30 3469 H 315.071 -6.33175 2.24808 0
M  V30 3470 N 317.792 -0.46758 -1.50504 0
M  V30 3471 C 318.702 0.33382 -2.32213 0
M  V30 3472 C 319.718 0.999323 -1.42441 0
M  V30 3473 O 320.894 0.988068 -1.75497 0
M  V30 3474 C 317.959 1.4035 -3.17022 0
M  V30 3475 C 317.02 0.754961 -4.2261 0
M  V30 3476 C 316.253 1.77367 -5.03365 0
M  V30 3477 O 316.476 2.99976 -4.8515 0
M  V30 3478 O 315.41 1.34744 -5.86624 0
M  V30 3479 H 319.236 -0.334067 -3.01857 0
M  V30 3480 H 316.821 -0.229496 -1.47627 0
M  V30 3481 H 318.703 2.02318 -3.69656 0
M  V30 3482 H 317.378 2.05492 -2.5011 0
M  V30 3483 H 316.285 0.0964244 -3.73976 0
M  V30 3484 H 317.618 0.146545 -4.91982 0
M  V30 3485 N 319.27 1.56325 -0.20005 0
M  V30 3486 C 320.217 2.1932 0.718833 0
M  V30 3487 C 321.187 1.14198 1.20615 0
M  V30 3488 O 322.372 1.42469 1.26914 0
M  V30 3489 C 319.512 2.86041 1.93066 0
M  V30 3490 C 318.625 4.05702 1.48425 0
M  V30 3491 C 317.76 4.60266 2.65196 0
M  V30 3492 C 316.799 5.72273 2.17185 0
M  V30 3493 N 315.936 6.21221 3.27152 0
M  V30 3494 H 320.776 2.97486 0.17489 0
M  V30 3495 H 318.313 1.46911 0.0745794 0
M  V30 3496 H 320.271 3.22897 2.64184 0
M  V30 3497 H 318.901 2.1043 2.44783 0
M  V30 3498 H 317.953 3.74475 0.668755 0
M  V30 3499 H 319.265 4.86699 1.09204 0
M  V30 3500 H 318.419 4.99453 3.4443 0
M  V30 3501 H 317.158 3.78386 3.07693 0
M  V30 3502 H 316.163 5.3261 1.36407 0
M  V30 3503 H 317.388 6.55974 1.75713 0
M  V30 3504 H 315.334 5.42263 3.69171 0
M  V30 3505 H 315.251 6.97284 2.92116 0
M  V30 3506 H 316.519 6.65063 4.06585 0
M  V30 3507 N 320.748 -0.0735177 1.57428 0
M  V30 3508 C 321.695 -1.08756 2.0357 0
M  V30 3509 C 322.665 -1.38559 0.916 0
M  V30 3510 O 323.85 -1.49656 1.18354 0
M  V30 3511 C 320.99 -2.39657 2.48311 0
M  V30 3512 C 320.103 -2.16399 3.73892 0
M  V30 3513 C 319.238 -3.40852 4.07423 0
M  V30 3514 C 318.277 -3.1295 5.2605 0
M  V30 3515 N 317.414 -4.29729 5.55228 0
M  V30 3516 H 322.254 -0.687104 2.8997 0
M  V30 3517 H 319.791 -0.327709 1.43403 0
M  V30 3518 H 321.749 -3.16081 2.72303 0
M  V30 3519 H 320.379 -2.77508 1.64891 0
M  V30 3520 H 319.431 -1.30676 3.57251 0
M  V30 3521 H 320.743 -1.91788 4.60455 0
M  V30 3522 H 319.897 -4.25671 4.32306 0
M  V30 3523 H 318.636 -3.68537 3.19425 0
M  V30 3524 H 317.641 -2.26526 5.00965 0
M  V30 3525 H 318.866 -2.86589 6.15665 0
M  V30 3526 H 316.812 -4.57448 4.70188 0
M  V30 3527 H 316.729 -4.08385 6.36206 0
M  V30 3528 H 317.997 -5.1555 5.84661 0
M  V30 3529 N 322.226 -1.5378 -0.344866 0
M  V30 3530 C 323.189 -1.80981 -1.40637 0
M  V30 3531 C 324.189 -0.680816 -1.45676 0
M  V30 3532 O 325.379 -0.949095 -1.46075 0
M  V30 3533 C 322.511 -1.95063 -2.79577 0
M  V30 3534 H 323.704 -2.75803 -1.17783 0
M  V30 3535 H 321.257 -1.45173 -0.579181 0
M  V30 3536 H 321.992 -1.02379 -3.07716 0
M  V30 3537 H 321.777 -2.77198 -2.77315 0
M  V30 3538 H 323.267 -2.17629 -3.56409 0
M  V30 3539 N 323.704 0.605807 -1.45491 0
M  V30 3540 C 324.934 1.38934 -1.52908 0
M  V30 3541 C 325.342 1.88513 -0.161086 0
M  V30 3542 O 324.685 1.62962 0.847891 0
M  V30 3543 C 324.747 2.62737 -2.45376 0
M  V30 3544 C 324.411 2.34785 -3.92078 0
M  V30 3545 C 325.408 1.95038 -4.8193 0
M  V30 3546 C 323.093 2.47642 -4.37011 0
M  V30 3547 C 325.087 1.68511 -6.14722 0
M  V30 3548 C 322.774 2.20728 -5.69844 0
M  V30 3549 C 323.772 1.81225 -6.58519 0
M  V30 3550 O 323.46 1.54627 -7.88889 0
M  V30 3551 H 323.192 0.431629 -0.520262 0
M  V30 3552 H 325.746 0.74573 -1.91384 0
M  V30 3553 H 323.976 3.29824 -2.01874 0
M  V30 3554 H 325.665 3.24783 -2.43456 0
M  V30 3555 H 326.431 1.84639 -4.48479 0
M  V30 3556 H 322.31 2.77356 -3.68232 0
M  V30 3557 H 325.854 1.37602 -6.83894 0
M  V30 3558 H 321.751 2.30744 -6.02849 0
M  V30 3559 H 322.519 1.68665 -8.00933 0
M  V30 3560 N 325.182 1.32811 0.848464 0
M  V30 3561 C 326.407 1.26882 1.6406 0
M  V30 3562 C 326.832 -0.15913 1.87426 0
M  V30 3563 O 326.19 -1.11258 1.43148 0
M  V30 3564 C 326.238 2.03997 2.97351 0
M  V30 3565 O 325.342 1.39201 3.88197 0
M  V30 3566 H 324.683 0.436982 0.499943 0
M  V30 3567 H 327.213 1.75224 1.0563 0
M  V30 3568 H 327.223 2.14403 3.47124 0
M  V30 3569 H 325.898 3.0783 2.79666 0
M  V30 3570 H 324.475 1.37381 3.46671 0
M  V30 3571 N 326.66 -1.06551 1.16123 0
M  V30 3572 C 327.907 -1.79302 0.941126 0
M  V30 3573 C 328.235 -1.87105 -0.531235 0
M  V30 3574 O 327.49 -1.35692 -1.41018 0
M  V30 3575 C 327.789 -3.23911 1.51052 0
M  V30 3576 C 327.455 -3.36193 3.00475 0
M  V30 3577 C 326.117 -3.39252 3.41265 0
M  V30 3578 C 328.469 -3.38326 3.96465 0
M  V30 3579 C 325.797 -3.42057 4.76669 0
M  V30 3580 C 328.149 -3.4267 5.31752 0
M  V30 3581 C 326.813 -3.4401 5.72026 0
M  V30 3582 H 326.083 -0.656111 0.344382 0
M  V30 3583 H 328.73 -1.25325 1.44796 0
M  V30 3584 H 327.035 -3.80723 0.925063 0
M  V30 3585 H 328.732 -3.78793 1.31593 0
M  V30 3586 H 325.322 -3.34516 2.6795 0
M  V30 3587 H 329.506 -3.35176 3.6602 0
M  V30 3588 H 324.762 -3.41398 5.07206 0
M  V30 3589 H 328.936 -3.43268 6.05921 0
M  V30 3590 H 326.563 -3.45937 6.76928 0
M  V30 3591 N 328.138 -0.959301 -1.25041 0
M  V30 3592 C 329.378 -0.624343 -1.94631 0
M  V30 3593 C 329.742 0.82403 -1.73418 0
M  V30 3594 O 330.943 1.26881 -2.3697 0
M  V30 3595 C 329.214 -0.978805 -3.43736 0
M  V30 3596 S 330.773 -0.757127 -4.32219 0
M  V30 3597 H 327.591 -0.229327 -0.673001 0
M  V30 3598 H 330.193 -1.23447 -1.51595 0
M  V30 3599 H 328.897 -2.02997 -3.56679 0
M  V30 3600 H 328.428 -0.359117 -3.91757 0
M  V30 3601 H 330.443 0.369759 -4.9482 0
M  V30 3602 N 329.616 1.39756 -0.72842 0
M  V30 3603 C 330.864 2.00248 -0.272946 0
M  V30 3604 C 331.185 1.58077 1.14178 0
M  V30 3605 O 330.455 0.826014 1.77634 0
M  V30 3606 H 329.035 0.740554 -0.0979247 0
M  V30 3607 H 331.697 1.70903 -0.936912 0
M  V30 3608 H 330.793 3.10495 -0.316142 0
M  V30 3609 N 331.094 0.475555 1.50254 0
M  V30 3610 C 332.322 -0.0754493 2.06762 0
M  V30 3611 C 332.737 -1.33111 1.33891 0
M  V30 3612 O 332.094 -1.77846 0.40952 0
M  V30 3613 C 332.145 -0.359008 3.59713 0
M  V30 3614 O 331.866 0.846851 4.29837 0
M  V30 3615 C 333.367 -0.956484 4.32858 0
M  V30 3616 H 330.587 0.00907525 0.670939 0
M  V30 3617 H 333.131 0.665618 1.93364 0
M  V30 3618 H 331.286 -1.05001 3.72899 0
M  V30 3619 H 331.7 0.594162 5.21124 0
M  V30 3620 H 333.174 -1.10463 5.40834 0
M  V30 3621 H 333.651 -1.94775 3.93649 0
M  V30 3622 H 334.257 -0.303723 4.24214 0
M  V30 3623 N 332.573 -1.56217 0.208337 0
M  V30 3624 C 333.819 -1.98242 -0.427552 0
M  V30 3625 C 334.152 -1.09554 -1.60348 0
M  V30 3626 O 333.427 -0.15035 -1.93918 0
M  V30 3627 C 333.71 -3.4931 -0.874907 0
M  V30 3628 C 333.563 -4.48773 0.303751 0
M  V30 3629 C 334.882 -4.04424 -1.73577 0
M  V30 3630 H 332.001 -0.720744 -0.153936 0
M  V30 3631 H 334.643 -1.87586 0.30192 0
M  V30 3632 H 332.793 -3.58522 -1.49648 0
M  V30 3633 H 334.465 -4.51586 0.941682 0
M  V30 3634 H 332.708 -4.23194 0.953375 0
M  V30 3635 H 333.379 -5.51976 -0.0519883 0
M  V30 3636 H 335.855 -3.98075 -1.21143 0
M  V30 3637 H 334.731 -5.1047 -2.01771 0
M  V30 3638 H 334.992 -3.50494 -2.69456 0
M  V30 3639 N 334.051 0.0651679 -1.57465 0
M  V30 3640 C 334.961 1.09448 -2.07505 0
M  V30 3641 C 335.977 1.41974 -1.00595 0
M  V30 3642 O 337.153 1.52018 -1.32107 0
M  V30 3643 C 334.218 2.38689 -2.51453 0
M  V30 3644 C 333.279 2.13073 -3.72691 0
M  V30 3645 C 332.512 3.36152 -4.14533 0
M  V30 3646 O 332.735 4.45517 -3.56189 0
M  V30 3647 O 331.669 3.23974 -5.07272 0
M  V30 3648 H 335.495 0.69935 -2.95538 0
M  V30 3649 H 333.08 0.279752 -1.46757 0
M  V30 3650 H 334.962 3.14736 -2.80212 0
M  V30 3651 H 333.637 2.77568 -1.66546 0
M  V30 3652 H 332.544 1.34709 -3.49005 0
M  V30 3653 H 333.877 1.79071 -4.5847 0
M  V30 3654 N 335.529 1.53961 0.336706 0
M  V30 3655 C 336.759 1.75229 1.09446 0
M  V30 3656 C 337.167 0.494602 1.82621 0
M  V30 3657 O 336.51 -0.543764 1.75468 0
M  V30 3658 C 336.572 2.88288 2.1478 0
M  V30 3659 C 336.236 4.27656 1.6112 0
M  V30 3660 C 337.233 5.08981 1.0599 0
M  V30 3661 C 334.918 4.74161 1.6576 0
M  V30 3662 C 336.912 6.34916 0.562129 0
M  V30 3663 C 334.599 6.00067 1.15595 0
M  V30 3664 C 335.597 6.80278 0.609147 0
M  V30 3665 O 335.285 8.03818 0.114999 0
M  V30 3666 H 335.017 0.588881 0.331956 0
M  V30 3667 H 337.571 2.01614 0.392566 0
M  V30 3668 H 335.801 2.57443 2.88548 0
M  V30 3669 H 337.49 2.97461 2.76174 0
M  V30 3670 H 338.256 4.74213 1.01722 0
M  V30 3671 H 334.135 4.11781 2.07261 0
M  V30 3672 H 337.679 6.9747 0.134668 0
M  V30 3673 H 333.576 6.3433 1.19566 0
M  V30 3674 H 334.344 8.18172 0.231651 0
M  V30 3675 N 337.007 -0.598083 1.45811 0
M  V30 3676 C 337.94 -1.7223 1.49706 0
M  V30 3677 C 338.918 -1.58732 0.352535 0
M  V30 3678 O 340.102 -1.80162 0.554438 0
M  V30 3679 C 337.229 -3.10148 1.3611 0
M  V30 3680 C 336.275 -3.42209 2.54549 0
M  V30 3681 S 337.108 -3.35989 4.16979 0
M  V30 3682 C 338.264 -4.76471 4.05865 0
M  V30 3683 H 338.497 -1.68665 2.44826 0
M  V30 3684 H 336.03 -0.775541 1.33509 0
M  V30 3685 H 337.988 -3.8972 1.28953 0
M  V30 3686 H 336.649 -3.11219 0.424451 0
M  V30 3687 H 335.842 -4.42652 2.40988 0
M  V30 3688 H 335.444 -2.70173 2.58617 0
M  V30 3689 H 337.736 -5.665 3.71596 0
M  V30 3690 H 338.679 -4.95089 5.06253 0
M  V30 3691 H 339.087 -4.52599 3.37364 0
M  V30 3692 N 338.485 -1.33259 -0.841409 0
M  V30 3693 C 339.448 -1.23221 -1.9326 0
M  V30 3694 C 340.448 -0.151895 -1.60081 0
M  V30 3695 O 341.638 -0.403246 -1.69468 0
M  V30 3696 C 338.77 -0.898123 -3.28856 0
M  V30 3697 H 339.963 -2.2021 -2.03587 0
M  V30 3698 H 337.516 -1.17281 -1.03319 0
M  V30 3699 H 338.251 0.0693841 -3.24226 0
M  V30 3700 H 338.036 -1.67934 -3.54317 0
M  V30 3701 H 339.526 -0.852563 -4.08805 0
M  V30 3702 N 339.963 1.05934 -1.16686 0
M  V30 3703 C 341.374 1.60263 -0.957745 0
M  V30 3704 C 341.725 1.89789 0.49745 0
M  V30 3705 O 340.85 1.67401 1.37135 0
M  V30 3706 C 341.445 2.91172 -1.73218 0
M  V30 3707 C 340.004 3.42188 -1.56794 0
M  V30 3708 C 339.151 2.16028 -1.73859 0
M  V30 3709 H 342.102 0.888392 -1.31504 0
M  V30 3710 H 342.123 3.60744 -1.21014 0
M  V30 3711 H 341.635 2.6965 -2.79124 0
M  V30 3712 H 339.736 3.68762 -0.533437 0
M  V30 3713 H 339.849 4.17273 -2.35414 0
M  V30 3714 H 338.213 2.26426 -1.16633 0
M  V30 3715 H 338.996 1.96985 -2.81161 0
M  V30 3716 N 341.441 0.965919 1.2453 0
M  V30 3717 C 342.351 0.502154 2.29163 0
M  V30 3718 C 343.367 -0.436017 1.68448 0
M  V30 3719 O 344.543 -0.309497 1.99008 0
M  V30 3720 C 341.608 -0.201956 3.46111 0
M  V30 3721 C 340.669 0.775821 4.22232 0
M  V30 3722 C 339.902 0.105217 5.33596 0
M  V30 3723 O 340.125 -1.10683 5.59558 0
M  V30 3724 O 339.059 0.796475 5.96607 0
M  V30 3725 H 342.885 1.37194 2.70946 0
M  V30 3726 H 340.47 0.732875 1.30189 0
M  V30 3727 H 342.352 -0.597564 4.17142 0
M  V30 3728 H 341.027 -1.04673 3.06309 0
M  V30 3729 H 339.934 1.22185 3.53584 0
M  V30 3730 H 341.267 1.58896 4.65846 0
M  V30 3731 N 342.919 -1.39368 0.735821 0
M  V30 3732 C 344.165 -2.00794 0.284544 0
M  V30 3733 C 344.498 -1.58255 -1.12557 0
M  V30 3734 O 343.773 -0.811819 -1.76748 0
M  V30 3735 C 344.056 -3.58011 0.387337 0
M  V30 3736 C 343.909 -4.10566 1.83728 0
M  V30 3737 C 345.228 -4.395 -0.22975 0
M  V30 3738 H 342.347 -0.729501 0.104866 0
M  V30 3739 H 344.989 -1.65564 0.93213 0
M  V30 3740 H 343.139 -3.88154 -0.164006 0
M  V30 3741 H 344.811 -3.91139 2.44556 0
M  V30 3742 H 343.054 -3.64095 2.35833 0
M  V30 3743 H 343.725 -5.19702 1.86047 0
M  V30 3744 H 346.201 -4.15406 0.240257 0
M  V30 3745 H 345.077 -5.48752 -0.127485 0
M  V30 3746 H 345.338 -4.22062 -1.3159 0
M  V30 3747 N 344.397 -0.483516 -1.5 0
M  V30 3748 C 345.643 0.0672592 -2.02688 0
M  V30 3749 C 345.976 1.38247 -1.36387 0
M  V30 3750 O 345.251 1.88131 -0.493675 0
M  V30 3751 C 345.534 0.238109 -3.59312 0
M  V30 3752 C 345.387 -1.099 -4.36168 0
M  V30 3753 C 346.706 0.986916 -4.28892 0
M  V30 3754 H 343.825 0.0229696 -0.736642 0
M  V30 3755 H 346.467 -0.631527 -1.79197 0
M  V30 3756 H 344.617 0.8333 -3.79458 0
M  V30 3757 H 346.289 -1.73172 -4.27562 0
M  V30 3758 H 344.532 -1.69261 -3.99416 0
M  V30 3759 H 345.203 -0.932954 -5.44059 0
M  V30 3760 H 347.679 0.482302 -4.13295 0
M  V30 3761 H 346.555 1.07527 -5.38265 0
M  V30 3762 H 346.816 2.0265 -3.92919 0
M  V30 3763 N 345.875 1.56104 -0.216619 0
M  V30 3764 C 346.823 2.21434 0.712036 0
M  V30 3765 C 347.817 1.19218 1.20348 0
M  V30 3766 O 349.023 1.3731 1.16387 0
M  V30 3767 H 345.398 0.70992 0.248026 0
M  V30 3768 H 347.369 2.98083 0.137558 0
M  V30 3769 C 346.118 2.90434 1.91163 0
M  V30 3770 H 345.441 3.68842 1.54258 0
M  V30 3771 H 346.881 3.39552 2.5393 0
M  V30 3772 C 345.34 1.92635 2.76394 0
M  V30 3773 O 345.87 1.44017 3.74996 0
M  V30 3774 N 344.076 1.60392 2.42328 0
M  V30 3775 H 343.623 2.00122 1.622 0
M  V30 3776 H 343.581 0.952159 2.99635 0
M  V30 3777 N 347.353 -0.0568162 1.57498 0
M  V30 3778 C 348.769 -0.411933 1.54192 0
M  V30 3779 C 348.969 -1.78287 0.938942 0
M  V30 3780 O 348.025 -2.46483 0.547919 0
M  V30 3781 C 349.338 -0.339244 2.9878 0
M  V30 3782 C 350.886 -0.418348 3.10192 0
M  V30 3783 C 351.361 -0.375407 4.56459 0
M  V30 3784 N 352.852 -0.435038 4.61153 0
M  V30 3785 C 353.587 -0.424265 5.71828 0
M  V30 3786 N 353.083 -0.367418 6.91825 0
M  V30 3787 N 354.876 -0.471938 5.60115 0
M  V30 3788 H 347.027 0.840684 1.95055 0
M  V30 3789 H 349.29 0.316987 0.893433 0
M  V30 3790 H 348.996 0.601742 3.46514 0
M  V30 3791 H 348.87 -1.14371 3.59443 0
M  V30 3792 H 351.257 -1.34976 2.62422 0
M  V30 3793 H 351.338 0.414962 2.52412 0
M  V30 3794 H 350.982 0.552219 5.04889 0
M  V30 3795 H 350.912 -1.22645 5.12119 0
M  V30 3796 H 353.403 -0.482612 3.74806 0
M  V30 3797 H 353.716 -0.363535 7.71944 0
M  V30 3798 H 352.061 -0.333879 6.94198 0
M  V30 3799 H 355.252 -0.514145 4.65268 0
M  V30 3800 H 355.425 -0.460073 6.46365 0
M  V30 3801 N 348.832 -1.54138 -0.328536 0
M  V30 3802 C 349.764 -1.79509 -1.4251 0
M  V30 3803 C 350.777 -0.67688 -1.48061 0
M  V30 3804 O 351.966 -0.953898 -1.50874 0
M  V30 3805 C 349.066 -1.89337 -2.81078 0
M  V30 3806 C 348.239 -3.19443 -2.98789 0
M  V30 3807 C 347.298 -3.20036 -4.17688 0
M  V30 3808 O 346.324 -3.93697 -4.11086 0
M  V30 3809 N 347.526 -2.43467 -5.26976 0
M  V30 3810 H 350.291 -2.74139 -1.21111 0
M  V30 3811 H 347.852 -1.53373 -0.518499 0
M  V30 3812 H 349.844 -1.87167 -3.58818 0
M  V30 3813 H 348.414 -1.01826 -2.95551 0
M  V30 3814 H 347.634 -3.34614 -2.08391 0
M  V30 3815 H 348.922 -4.05354 -3.07515 0
M  V30 3816 H 348.32 -1.83201 -5.35214 0
M  V30 3817 H 346.877 -2.4708 -6.03154 0
M  V30 3818 N 350.31 0.590341 -1.46126 0
M  V30 3819 C 351.558 1.34616 -1.50742 0
M  V30 3820 C 351.879 1.94363 -0.157486 0
M  V30 3821 O 351.149 1.78136 0.815136 0
M  V30 3822 H 349.729 0.499789 -0.555175 0
M  V30 3823 H 352.391 0.691953 -1.82203 0
M  V30 3824 H 351.487 2.15678 -2.25587 0
M  V30 3825 N 351.788 1.33704 0.83433 0
M  V30 3826 C 352.738 1.20899 1.93306 0
M  V30 3827 C 353.722 0.110783 1.60518 0
M  V30 3828 O 354.914 0.339331 1.73717 0
M  V30 3829 C 352.043 0.955018 3.29749 0
M  V30 3830 C 351.129 2.09587 3.68692 0
M  V30 3831 N 351.52 3.34621 3.79292 0
M  V30 3832 C 349.818 2.00358 3.98463 0
M  V30 3833 C 350.519 4.09472 4.13167 0
M  V30 3834 N 349.495 3.37954 4.25779 0
M  V30 3835 H 353.297 2.15665 1.99664 0
M  V30 3836 H 350.811 1.25777 1.02732 0
M  V30 3837 H 352.808 0.844208 4.08263 0
M  V30 3838 H 351.468 0.0159317 3.24696 0
M  V30 3839 H 352.479 3.69313 3.63082 0
M  V30 3840 H 349.156 1.14137 4.01596 0
M  V30 3841 H 350.546 5.17391 4.28668 0
M  V30 3842 N 353.266 -1.05314 1.17247 0
M  V30 3843 C 354.491 -1.82509 0.985148 0
M  V30 3844 C 354.916 -1.82343 -0.461788 0
M  V30 3845 O 354.274 -1.23151 -1.33055 0
M  V30 3846 C 354.322 -3.26566 1.52929 0
M  V30 3847 O 353.426 -4.05666 0.742225 0
M  V30 3848 H 352.767 -0.564347 0.349869 0
M  V30 3849 H 355.297 -1.32718 1.55715 0
M  V30 3850 H 355.307 -3.77369 1.55103 0
M  V30 3851 H 353.982 -3.26001 2.58256 0
M  V30 3852 H 352.559 -3.64397 0.791794 0
M  V30 3853 N 354.744 -0.972509 -1.24016 0
M  V30 3854 C 355.694 -0.477561 -2.22942 0
M  V30 3855 C 356.678 0.44308 -1.54679 0
M  V30 3856 O 357.87 0.273219 -1.74879 0
M  V30 3857 C 354.999 0.226348 -3.42553 0
M  V30 3858 C 354.085 -0.713403 -4.18057 0
M  V30 3859 N 354.476 -1.8527 -4.70647 0
M  V30 3860 C 352.774 -0.525145 -4.42898 0
M  V30 3861 C 353.475 -2.44089 -5.28011 0
M  V30 3862 N 352.451 -1.72556 -5.15486 0
M  V30 3863 H 356.253 -1.34678 -2.61226 0
M  V30 3864 H 353.767 -0.832196 -1.39457 0
M  V30 3865 H 355.764 0.598184 -4.12586 0
M  V30 3866 H 354.424 1.09195 -3.05788 0
M  V30 3867 H 355.435 -2.2341 -4.67235 0
M  V30 3868 H 352.112 0.296096 -4.16449 0
M  V30 3869 H 353.502 -3.40259 -5.79374 0
M  V30 3870 N 356.222 1.38976 -0.743202 0
M  V30 3871 C 357.447 2.05161 -0.303936 0
M  V30 3872 C 357.872 1.55677 1.05576 0
M  V30 3873 O 357.23 0.704131 1.67068 0
M  V30 3874 C 357.278 3.59138 -0.324373 0
M  V30 3875 O 356.382 4.06668 0.685204 0
M  V30 3876 H 355.723 0.649815 -0.136518 0
M  V30 3877 H 358.253 1.77852 -1.01142 0
M  V30 3878 H 358.263 4.07639 -0.171618 0
M  V30 3879 H 356.938 3.94515 -1.31647 0
M  V30 3880 H 355.515 3.69561 0.497913 0
M  V30 3881 N 357.7 0.491464 1.49741 0
M  V30 3882 C 358.663 -0.280906 2.27472 0
M  V30 3883 C 359.663 -0.902454 1.33088 0
M  V30 3884 O 360.853 -0.768465 1.56334 0
M  V30 3885 C 357.985 -1.40209 3.10732 0
M  V30 3886 H 359.178 0.401056 2.97206 0
M  V30 3887 H 356.731 0.246131 1.5435 0
M  V30 3888 H 357.466 -2.11849 2.45541 0
M  V30 3889 H 357.251 -0.961969 3.80117 0
M  V30 3890 H 358.741 -1.9464 3.69466 0
M  V30 3891 N 359.178 -1.55987 0.224894 0
M  V30 3892 C 360.455 -1.90232 -0.455083 0
M  V30 3893 C 360.835 -1.14269 -1.77499 0
M  V30 3894 O 360.183 -0.253079 -2.27094 0
M  V30 3895 C 360.393 -3.42993 -0.644758 0
M  V30 3896 C 361.741 -4.13821 -0.950669 0
M  V30 3897 O 362.765 -3.4861 -0.731423 0
M  V30 3898 O 361.624 -5.29128 -1.36695 0
M  V30 3899 H 358.718 -0.79108 -0.241084 0
M  V30 3900 H 361.264 -1.67581 0.267327 0
M  V30 3901 H 360.036 -3.90252 0.28613 0
M  V30 3902 H 359.659 -3.71434 -1.41853 0
M  V30 3903 N 360.656 0.0484629 -1.57525 0
M  V30 3904 C 361.902 0.738854 -1.89506 0
M  V30 3905 C 362.257 1.73989 -0.821319 0
M  V30 3906 O 361.55 1.90825 0.172129 0
M  V30 3907 C 361.744 1.46632 -3.25935 0
M  V30 3908 C 361.573 0.537254 -4.46479 0
M  V30 3909 C 360.343 0.165484 -5.05029 0
M  V30 3910 C 362.541 -0.176085 -5.13998 0
M  V30 3911 N 360.523 -0.766868 -6.09091 0
M  V30 3912 C 361.894 -0.96478 -6.12448 0
M  V30 3913 C 363.949 -0.24509 -4.97296 0
M  V30 3914 C 362.652 -1.8161 -6.95996 0
M  V30 3915 C 364.678 -1.08347 -5.81391 0
M  V30 3916 C 364.04 -1.86014 -6.79395 0
M  V30 3917 H 360.139 0.245067 -0.742608 0
M  V30 3918 H 362.723 -0.000476161 -1.947 0
M  V30 3919 H 360.894 2.17623 -3.21706 0
M  V30 3920 H 362.626 2.10757 -3.45491 0
M  V30 3921 H 359.381 0.523466 -4.70698 0
M  V30 3922 H 359.805 -1.22698 -6.65788 0
M  V30 3923 H 364.447 0.341063 -4.21422 0
M  V30 3924 H 362.165 -2.41313 -7.71229 0
M  V30 3925 H 365.751 -1.14014 -5.70519 0
M  V30 3926 H 364.631 -2.4984 -7.43337 0
M  V30 3927 N 362.134 1.5431 0.320358 0
M  V30 3928 C 363.38 1.73859 1.05568 0
M  V30 3929 C 363.735 0.507807 1.85578 0
M  V30 3930 O 363.028 -0.499789 1.84967 0
M  V30 3931 C 363.222 2.95639 2.00828 0
M  V30 3932 C 363.051 4.30444 1.30186 0
M  V30 3933 C 361.821 4.94544 1.03703 0
M  V30 3934 C 364.019 5.0929 0.716138 0
M  V30 3935 N 362.001 6.13172 0.298846 0
M  V30 3936 C 363.372 6.19903 0.109729 0
M  V30 3937 C 365.427 4.94034 0.619269 0
M  V30 3938 C 364.13 7.16924 -0.584153 0
M  V30 3939 C 366.156 5.91369 -0.0609184 0
M  V30 3940 C 365.518 7.01336 -0.656258 0
M  V30 3941 H 361.617 0.688988 0.36989 0
M  V30 3942 H 364.201 1.9177 0.336494 0
M  V30 3943 H 362.372 2.79188 2.70016 0
M  V30 3944 H 364.104 3.03802 2.6737 0
M  V30 3945 H 360.859 4.54536 1.33019 0
M  V30 3946 H 361.283 6.76977 -0.0561964 0
M  V30 3947 H 365.925 4.0916 1.06526 0
M  V30 3948 H 363.643 8.01354 -1.04197 0
M  V30 3949 H 367.229 5.81642 -0.135552 0
M  V30 3950 H 366.109 7.75359 -1.17423 0
M  V30 3951 N 363.613 -0.582584 1.46437 0
M  V30 3952 C 364.838 -1.37168 1.55563 0
M  V30 3953 C 365.263 -1.87061 0.19743 0
M  V30 3954 O 364.621 -1.61572 -0.822451 0
M  V30 3955 C 364.669 -2.53511 2.56446 0
M  V30 3956 O 363.773 -3.54953 2.09958 0
M  V30 3957 H 363.114 -0.408494 0.523477 0
M  V30 3958 H 365.644 -0.706646 1.9201 0
M  V30 3959 H 365.654 -3.00426 2.76058 0
M  V30 3960 H 364.329 -2.16549 3.55076 0
M  V30 3961 H 362.906 -3.14516 2.00334 0
M  V30 3962 N 365.091 -1.34144 -0.827227 0
M  V30 3963 C 366.321 -1.29138 -1.61267 0
M  V30 3964 C 366.729 0.137597 -1.88699 0
M  V30 3965 O 366.072 1.09379 -1.47587 0
M  V30 3966 C 366.134 -2.0097 -2.9808 0
M  V30 3967 C 365.798 -3.50242 -2.93563 0
M  V30 3968 C 366.795 -4.4523 -2.68452 0
M  V30 3969 C 364.48 -3.92592 -3.13331 0
M  V30 3970 C 366.474 -5.80542 -2.63154 0
M  V30 3971 C 364.161 -5.28005 -3.07658 0
M  V30 3972 C 365.159 -6.21792 -2.82602 0
M  V30 3973 O 364.847 -7.54723 -2.76853 0
M  V30 3974 H 364.579 -0.445851 -0.508127 0
M  V30 3975 H 367.133 -1.77263 -1.03763 0
M  V30 3976 H 365.363 -1.47451 -3.57484 0
M  V30 3977 H 367.052 -1.89309 -3.5905 0
M  V30 3978 H 367.818 -4.13832 -2.52919 0
M  V30 3979 H 363.697 -3.19994 -3.31851 0
M  V30 3980 H 367.241 -6.53717 -2.43516 0
M  V30 3981 H 363.138 -5.59023 -3.22743 0
M  V30 3982 H 363.906 -7.64409 -2.92611 0
M  V30 3983 N 366.569 1.04691 -1.17803 0
M  V30 3984 C 367.817 1.7743 -0.967617 0
M  V30 3985 C 368.138 1.88359 0.504574 0
M  V30 3986 O 367.408 1.40402 1.36617 0
M  V30 3987 H 365.988 0.657242 -0.355024 0
M  V30 3988 H 368.65 1.2638 -1.48371 0
M  V30 3989 H 367.746 2.78924 -1.40027 0
M  V30 3990 N 368.047 0.979072 1.23499 0
M  V30 3991 C 369.293 0.648178 1.92163 0
M  V30 3992 C 369.626 -0.816049 1.76222 0
M  V30 3993 O 368.901 -1.58849 1.12237 0
M  V30 3994 C 369.184 1.03773 3.44824 0
M  V30 3995 C 369.037 2.55948 3.69879 0
M  V30 3996 C 370.356 0.580653 4.36253 0
M  V30 3997 H 367.475 0.236952 0.69787 0
M  V30 3998 H 370.117 1.22012 1.45647 0
M  V30 3999 H 368.267 0.551058 3.84572 0
M  V30 4000 H 369.939 3.12179 3.3962 0
M  V30 4001 H 368.182 2.98641 3.14636 0
M  V30 4002 H 368.853 2.78255 4.76737 0
M  V30 4003 H 371.329 0.998465 4.03943 0
M  V30 4004 H 370.205 0.881663 5.41773 0
M  V30 4005 H 370.466 -0.519052 4.39042 0
M  V30 4006 N 369.525 -1.3858 0.750561 0
M  V30 4007 C 370.455 -2.33102 0.136237 0
M  V30 4008 C 371.436 -1.54713 -0.706965 0
M  V30 4009 O 372.621 -1.83043 -0.648769 0
M  V30 4010 C 369.751 -3.38882 -0.760017 0
M  V30 4011 C 368.705 -4.27995 -0.0197785 0
M  V30 4012 C 368.031 -5.24605 -1.03408 0
M  V30 4013 C 369.331 -5.09554 1.14684 0
M  V30 4014 H 371.025 -2.84726 0.925822 0
M  V30 4015 H 368.571 -1.36898 0.446654 0
M  V30 4016 H 370.524 -4.0397 -1.19943 0
M  V30 4017 H 369.248 -2.85734 -1.58189 0
M  V30 4018 H 367.907 -3.64409 0.400184 0
M  V30 4019 H 367.555 -4.67746 -1.84994 0
M  V30 4020 H 367.255 -5.85081 -0.543464 0
M  V30 4021 H 368.779 -5.9257 -1.47288 0
M  V30 4022 H 370.193 -5.67899 0.785118 0
M  V30 4023 H 368.59 -5.7925 1.56812 0
M  V30 4024 H 369.66 -4.4347 1.96118 0
M  V30 4025 N 371.003 -0.499398 -1.49478 0
M  V30 4026 C 371.936 0.326491 -2.25852 0
M  V30 4027 C 372.914 0.971776 -1.30366 0
M  V30 4028 O 374.098 1.00219 -1.59651 0
M  V30 4029 C 371.225 1.45969 -3.05632 0
M  V30 4030 C 370.271 0.928938 -4.16261 0
M  V30 4031 S 371.104 -0.179012 -5.35201 0
M  V30 4032 C 372.26 0.957389 -6.18534 0
M  V30 4033 H 372.493 -0.321746 -2.95554 0
M  V30 4034 H 370.026 -0.284674 -1.51753 0
M  V30 4035 H 371.984 2.109 -3.52181 0
M  V30 4036 H 370.645 2.07953 -2.35402 0
M  V30 4037 H 369.838 1.77813 -4.71592 0
M  V30 4038 H 369.44 0.356869 -3.72293 0
M  V30 4039 H 371.732 1.86296 -6.51383 0
M  V30 4040 H 372.675 0.442733 -7.06715 0
M  V30 4041 H 373.083 1.224 -5.5107 0
M  V30 4042 N 372.481 1.55866 -0.233164 0
M  V30 4043 C 373.728 1.98603 0.395374 0
M  V30 4044 C 374.056 1.12105 1.58942 0
M  V30 4045 O 373.311 0.168656 1.94972 0
M  V30 4046 C 373.61 3.46856 0.861724 0
M  V30 4047 C 373.276 4.50348 -0.223066 0
M  V30 4048 C 371.938 4.78371 -0.521038 0
M  V30 4049 C 374.29 5.12355 -0.956124 0
M  V30 4050 C 371.618 5.6568 -1.55638 0
M  V30 4051 C 373.97 6.00786 -1.98089 0
M  V30 4052 C 372.634 6.27148 -2.28565 0
M  V30 4053 H 371.904 0.726739 0.144677 0
M  V30 4054 H 374.551 1.88491 -0.338114 0
M  V30 4055 H 372.856 3.5423 1.67418 0
M  V30 4056 H 374.553 3.77302 1.35809 0
M  V30 4057 H 371.143 4.28596 0.0193234 0
M  V30 4058 H 375.327 4.90765 -0.739166 0
M  V30 4059 H 370.583 5.84365 -1.798 0
M  V30 4060 H 374.757 6.4788 -2.55391 0
M  V30 4061 H 372.384 6.94597 -3.08932 0
M  V30 4062 N 373.959 -0.0401083 1.57549 0
M  V30 4063 C 374.869 -1.06133 2.0922 0
M  V30 4064 C 375.885 -1.40356 1.0284 0
M  V30 4065 O 377.061 -1.49897 1.34509 0
M  V30 4066 C 374.126 -2.34658 2.55218 0
M  V30 4067 C 373.187 -2.07117 3.76033 0
M  V30 4068 C 372.42 -3.29514 4.19829 0
M  V30 4069 O 372.643 -4.39794 3.63232 0
M  V30 4070 O 371.577 -3.15863 5.12362 0
M  V30 4071 H 375.403 -0.652244 2.96613 0
M  V30 4072 H 372.988 -0.256368 1.47184 0
M  V30 4073 H 374.87 -3.10239 2.85184 0
M  V30 4074 H 373.545 -2.74883 1.70941 0
M  V30 4075 H 372.452 -1.29139 3.51104 0
M  V30 4076 H 373.785 -1.71754 4.61261 0
M  V30 4077 N 375.437 -1.54477 -0.31217 0
M  V30 4078 C 376.37 -1.79519 -1.40884 0
M  V30 4079 C 377.348 -0.645753 -1.49227 0
M  V30 4080 O 378.532 -0.884468 -1.66461 0
M  V30 4081 C 375.659 -1.92194 -2.78889 0
M  V30 4082 C 374.705 -3.14555 -2.88023 0
M  V30 4083 S 375.538 -4.72893 -2.51262 0
M  V30 4084 C 376.694 -4.8849 -3.91317 0
M  V30 4085 H 376.927 -2.72256 -1.19432 0
M  V30 4086 H 374.46 -1.45746 -0.509654 0
M  V30 4087 H 376.418 -2.00182 -3.58382 0
M  V30 4088 H 375.079 -1.00414 -2.97617 0
M  V30 4089 H 374.272 -3.20193 -3.89221 0
M  V30 4090 H 373.874 -3.04955 -2.16514 0
M  V30 4091 H 376.166 -4.71826 -4.86196 0
M  V30 4092 H 377.109 -5.90588 -3.90656 0
M  V30 4093 H 377.517 -4.16715 -3.80801 0
M  V30 4094 N 376.915 0.57481 -1.46744 0
M  V30 4095 C 377.845 1.69337 -1.60771 0
M  V30 4096 C 378.826 1.63825 -0.457736 0
M  V30 4097 O 380.011 1.8172 -0.684947 0
M  V30 4098 C 377.141 3.0798 -1.60517 0
M  V30 4099 C 376.095 3.28327 -2.74564 0
M  V30 4100 C 375.421 4.67578 -2.59373 0
M  V30 4101 C 376.721 3.15398 -4.16319 0
M  V30 4102 H 378.415 1.57853 -2.54407 0
M  V30 4103 H 375.961 0.75799 -1.22436 0
M  V30 4104 H 377.914 3.86061 -1.68923 0
M  V30 4105 H 376.638 3.20381 -0.634305 0
M  V30 4106 H 375.297 2.52649 -2.65639 0
M  V30 4107 H 374.945 4.76755 -1.60353 0
M  V30 4108 H 374.645 4.82144 -3.35873 0
M  V30 4109 H 376.169 5.47817 -2.69682 0
M  V30 4110 H 377.583 3.83315 -4.26313 0
M  V30 4111 H 375.98 3.41482 -4.93468 0
M  V30 4112 H 377.05 2.12372 -4.3592 0
M  V30 4113 N 378.394 1.34581 0.820102 0
M  V30 4114 C 379.622 1.3018 1.60813 0
M  V30 4115 C 380.037 -0.123551 1.88395 0
M  V30 4116 O 379.394 -1.07148 1.47735 0
M  V30 4117 C 379.445 2.09312 2.94739 0
M  V30 4118 O 379.166 3.46288 2.68358 0
M  V30 4119 C 380.667 2.1234 3.89136 0
M  V30 4120 H 377.887 0.447726 0.499782 0
M  V30 4121 H 380.431 1.77237 1.02017 0
M  V30 4122 H 378.586 1.65889 3.50085 0
M  V30 4123 H 379 3.87227 3.53774 0
M  V30 4124 H 380.474 2.72126 4.80262 0
M  V30 4125 H 380.951 1.11854 4.24718 0
M  V30 4126 H 381.557 2.55864 3.39726 0
M  V30 4127 N 379.872 -1.04064 1.18357 0
M  V30 4128 C 381.12 -1.76915 0.977013 0
M  V30 4129 C 381.441 -1.88624 -0.494577 0
M  V30 4130 O 380.711 -1.41125 -1.3587 0
M  V30 4131 H 379.291 -0.65535 0.358504 0
M  V30 4132 H 381.953 -1.25592 1.49039 0
M  V30 4133 H 381.049 -2.78178 1.41504 0
M  V30 4134 N 381.35 -0.985608 -1.22978 0
M  V30 4135 C 382.575 -0.675254 -1.961 0
M  V30 4136 C 383 0.752154 -1.72407 0
M  V30 4137 O 382.358 1.5131 -0.998751 0
M  V30 4138 C 382.406 -0.977899 -3.47087 0
M  V30 4139 O 381.51 -0.072685 -4.12336 0
M  V30 4140 H 380.851 -0.253443 -0.613728 0
M  V30 4141 H 383.381 -1.32061 -1.56272 0
M  V30 4142 H 383.391 -0.916739 -3.97567 0
M  V30 4143 H 382.066 -2.01807 -3.63657 0
M  V30 4144 H 380.643 -0.188703 -3.72422 0
M  V30 4145 N 382.828 1.3818 -0.7579 0
M  V30 4146 C 383.758 2.33027 -0.148597 0
M  V30 4147 C 384.739 1.55085 0.69875 0
M  V30 4148 O 385.924 1.83384 0.639053 0
M  V30 4149 C 383.054 3.3928 0.742034 0
M  V30 4150 C 382.008 4.28 -0.00291946 0
M  V30 4151 C 381.334 5.25146 1.00625 0
M  V30 4152 C 382.634 5.08938 -1.17385 0
M  V30 4153 H 384.328 2.84231 -0.940909 0
M  V30 4154 H 381.874 1.36659 -0.453908 0
M  V30 4155 H 383.827 4.046 1.17799 0
M  V30 4156 H 382.551 2.86569 1.56671 0
M  V30 4157 H 381.21 3.64192 -0.419504 0
M  V30 4158 H 380.858 4.68721 1.8251 0
M  V30 4159 H 380.558 5.85361 0.512428 0
M  V30 4160 H 382.082 5.93342 1.44143 0
M  V30 4161 H 383.496 5.67474 -0.815224 0
M  V30 4162 H 381.893 5.7841 -1.59882 0
M  V30 4163 H 382.963 4.42424 -1.98468 0
M  V30 4164 N 384.306 0.507319 1.49211 0
M  V30 4165 C 385.717 0.0611118 1.866 0
M  V30 4166 C 386.068 -1.35488 1.41907 0
M  V30 4167 O 385.193 -2.0108 0.799726 0
M  V30 4168 C 385.788 0.104125 3.3864 0
M  V30 4169 C 384.347 -0.28677 3.75306 0
M  V30 4170 C 383.494 0.473893 2.73221 0
M  V30 4171 H 386.445 0.719775 1.41439 0
M  V30 4172 H 386.466 -0.689672 3.74198 0
M  V30 4173 H 385.978 1.13482 3.71138 0
M  V30 4174 H 384.079 -1.32046 3.48417 0
M  V30 4175 H 384.192 0.0370745 4.79086 0
M  V30 4176 H 382.556 -0.0770644 2.54583 0
M  V30 4177 H 383.339 1.50478 3.08563 0
M  V30 4178 N 385.784 -1.5574 0.241426 0
M  V30 4179 C 387.031 -1.9881 -0.384836 0
M  V30 4180 C 387.359 -1.12947 -1.58346 0
M  V30 4181 O 386.614 -0.178993 -1.9488 0
M  V30 4182 C 386.913 -3.47308 -0.843317 0
M  V30 4183 C 386.579 -4.50223 0.246946 0
M  V30 4184 C 385.241 -4.78088 0.546399 0
M  V30 4185 C 387.593 -5.11841 0.983282 0
M  V30 4186 C 384.921 -5.64846 1.58636 0
M  V30 4187 C 387.273 -5.99727 2.01272 0
M  V30 4188 C 385.937 -6.25927 2.31888 0
M  V30 4189 H 385.207 -0.727496 -0.140821 0
M  V30 4190 H 387.854 -1.8831 0.348106 0
M  V30 4191 H 386.159 -3.55112 -1.65537 0
M  V30 4192 H 387.856 -3.78017 -1.33806 0
M  V30 4193 H 384.446 -4.286 0.00340639 0
M  V30 4194 H 388.63 -4.90366 0.765182 0
M  V30 4195 H 383.886 -5.83403 1.82896 0
M  V30 4196 H 388.06 -6.46517 2.58823 0
M  V30 4197 H 385.687 -6.92949 3.12611 0
M  V30 4198 N 387.262 0.0317525 -1.57568 0
M  V30 4199 C 388.194 1.06073 -2.03178 0
M  V30 4200 C 389.207 1.32627 -0.944132 0
M  V30 4201 O 390.396 1.30162 -1.22148 0
M  V30 4202 C 387.496 2.40297 -2.38978 0
M  V30 4203 C 386.669 2.33137 -3.70089 0
M  V30 4204 C 385.728 3.49787 -3.9311 0
M  V30 4205 O 384.754 3.29403 -4.64201 0
M  V30 4206 N 385.956 4.71562 -3.38541 0
M  V30 4207 H 388.721 0.672006 -2.92069 0
M  V30 4208 H 386.282 0.219745 -1.60402 0
M  V30 4209 H 388.274 3.1705 -2.51518 0
M  V30 4210 H 386.844 2.71024 -1.55771 0
M  V30 4211 H 386.064 1.415 -3.67928 0
M  V30 4212 H 387.352 2.25493 -4.56104 0
M  V30 4213 H 386.75 4.91024 -2.80912 0
M  V30 4214 H 385.307 5.45689 -3.56464 0
M  V30 4215 N 388.74 1.54641 0.303973 0
M  V30 4216 C 389.988 1.73437 1.0375 0
M  V30 4217 C 390.309 0.521449 1.87899 0
M  V30 4218 O 389.579 -0.46432 1.90318 0
M  V30 4219 H 388.159 0.639518 0.386039 0
M  V30 4220 H 390.821 1.91988 0.335675 0
M  V30 4221 H 389.917 2.62235 1.69231 0
M  V30 4222 N 390.218 -0.567019 1.47046 0
M  V30 4223 C 391.165 -1.67489 1.58796 0
M  V30 4224 C 392.135 -1.60399 0.43144 0
M  V30 4225 O 393.32 -1.79378 0.650233 0
M  V30 4226 C 390.46 -3.05821 1.59899 0
M  V30 4227 C 389.573 -3.2342 2.86397 0
M  V30 4228 C 388.708 -4.52093 2.789 0
M  V30 4229 C 387.747 -4.6309 4.00267 0
M  V30 4230 N 386.884 -5.83106 3.91064 0
M  V30 4231 H 391.724 -1.56785 2.53422 0
M  V30 4232 H 389.261 -0.763896 1.2571 0
M  V30 4233 H 391.219 -3.8591 1.58522 0
M  V30 4234 H 389.849 -3.15384 0.687929 0
M  V30 4235 H 388.901 -2.3683 2.97684 0
M  V30 4236 H 390.213 -3.27412 3.76301 0
M  V30 4237 H 389.367 -5.4043 2.75718 0
M  V30 4238 H 388.106 -4.50565 1.86662 0
M  V30 4239 H 387.111 -3.73168 4.03765 0
M  V30 4240 H 388.336 -4.66386 4.93621 0
M  V30 4241 H 386.282 -5.82546 3.01623 0
M  V30 4242 H 386.199 -5.88434 4.74638 0
M  V30 4243 H 387.467 -6.73831 3.91882 0
M  V30 4244 N 391.696 -1.35014 -0.812953 0
M  V30 4245 C 392.973 -1.18502 -1.55617 0
M  V30 4246 C 393.353 0.238421 -2.09749 0
M  V30 4247 O 392.701 1.2411 -1.91857 0
M  V30 4248 C 392.911 -2.24783 -2.66971 0
M  V30 4249 C 394.259 -2.60268 -3.35478 0
M  V30 4250 O 395.283 -2.23648 -2.77236 0
M  V30 4251 O 394.142 -3.2321 -4.40678 0
M  V30 4252 H 391.236 -0.459984 -0.687272 0
M  V30 4253 H 393.782 -1.46677 -0.853464 0
M  V30 4254 H 392.554 -3.20284 -2.24798 0
M  V30 4255 H 392.177 -1.97841 -3.44884 0
M  V30 4256 N 393.175 1.03435 -1.18907 0
M  V30 4257 C 394.591 1.28973 -0.940111 0
M  V30 4258 C 394.791 1.97676 0.390691 0
M  V30 4259 O 393.847 2.26127 1.12352 0
M  V30 4260 C 395.16 2.14221 -2.11021 0
M  V30 4261 C 396.708 2.27547 -2.14922 0
M  V30 4262 C 397.183 3.16164 -3.31367 0
M  V30 4263 N 398.674 3.23752 -3.31269 0
M  V30 4264 C 399.409 3.92495 -4.18014 0
M  V30 4265 N 398.905 4.63515 -5.14904 0
M  V30 4266 N 400.698 3.88838 -4.05908 0
M  V30 4267 H 392.849 0.57252 -2.04538 0
M  V30 4268 H 395.112 0.315184 -0.894071 0
M  V30 4269 H 394.818 1.71054 -3.073 0
M  V30 4270 H 394.692 3.14919 -2.0762 0
M  V30 4271 H 397.079 2.69947 -1.19217 0
M  V30 4272 H 397.16 1.26418 -2.22378 0
M  V30 4273 H 396.804 2.74474 -4.27348 0
M  V30 4274 H 396.734 4.17339 -3.21148 0
M  V30 4275 H 399.225 2.73167 -2.61129 0
M  V30 4276 H 399.538 5.13583 -5.77453 0
M  V30 4277 H 397.883 4.62398 -5.18857 0
M  V30 4278 H 401.074 3.32491 -3.29495 0
M  V30 4279 H 401.247 4.4214 -4.73726 0
M  V30 4280 N 394.653 0.992116 1.22453 0
M  V30 4281 C 395.6 0.541731 2.24352 0
M  V30 4282 C 396.57 -0.425519 1.60557 0
M  V30 4283 O 397.755 -0.330453 1.87917 0
M  V30 4284 C 394.895 -0.138248 3.44823 0
M  V30 4285 C 394.008 0.870649 4.23136 0
M  V30 4286 C 393.143 0.164269 5.30946 0
M  V30 4287 C 392.182 1.16159 6.00977 0
M  V30 4288 N 391.319 0.483568 7.00433 0
M  V30 4289 H 396.159 1.41541 2.62241 0
M  V30 4290 H 393.696 0.709013 1.28885 0
M  V30 4291 H 395.654 -0.5494 4.13567 0
M  V30 4292 H 394.284 -0.975721 3.077 0
M  V30 4293 H 393.336 1.40013 3.53696 0
M  V30 4294 H 394.648 1.63014 4.7141 0
M  V30 4295 H 393.802 -0.303653 6.0594 0
M  V30 4296 H 392.541 -0.627733 4.83643 0
M  V30 4297 H 391.546 1.64015 5.24766 0
M  V30 4298 H 392.771 1.95445 6.50368 0
M  V30 4299 H 390.717 -0.289012 6.55363 0
M  V30 4300 H 390.634 1.18152 7.4671 0
M  V30 4301 H 391.902 0.0384219 7.79491 0
M  V30 4302 N 396.131 -1.37776 0.765217 0
M  V30 4303 C 397.041 -2.34135 0.147666 0
M  V30 4304 C 398.057 -1.59854 -0.687215 0
M  V30 4305 O 399.233 -1.91983 -0.608659 0
M  V30 4306 C 396.298 -3.3901 -0.72617 0
M  V30 4307 C 395.359 -4.2912 0.124417 0
M  V30 4308 C 394.592 -5.28986 -0.707807 0
M  V30 4309 O 394.815 -5.36205 -1.94525 0
M  V30 4310 O 393.749 -6.01779 -0.12046 0
M  V30 4311 H 397.575 -2.88664 0.943758 0
M  V30 4312 H 395.16 -1.39824 0.526277 0
M  V30 4313 H 397.042 -4.03195 -1.22524 0
M  V30 4314 H 395.717 -2.86819 -1.50056 0
M  V30 4315 H 394.624 -3.68057 0.669696 0
M  V30 4316 H 395.957 -4.84598 0.861736 0
M  V30 4317 N 397.609 -0.515225 -1.4894 0
M  V30 4318 C 398.837 0.0206034 -2.0689 0
M  V30 4319 C 399.252 1.29514 -1.37374 0
M  V30 4320 O 398.609 1.76698 -0.456529 0
M  V30 4321 C 398.66 0.26351 -3.60538 0
M  V30 4322 O 398.381 -0.960517 -4.27441 0
M  V30 4323 C 399.882 0.841383 -4.35242 0
M  V30 4324 H 397.102 -0.0268608 -0.670462 0
M  V30 4325 H 399.646 -0.716651 -1.91532 0
M  V30 4326 H 397.801 0.950777 -3.75552 0
M  V30 4327 H 398.215 -0.73212 -5.19365 0
M  V30 4328 H 399.689 0.96085 -5.43573 0
M  V30 4329 H 400.166 1.8427 -3.98674 0
M  V30 4330 H 400.772 0.191143 -4.2487 0
M  V30 4331 N 399.087 1.5561 -0.249682 0
M  V30 4332 C 400.02 2.17537 0.689408 0
M  V30 4333 C 400.998 1.12829 1.17083 0
M  V30 4334 O 402.182 1.41229 1.24846 0
M  V30 4335 C 399.309 2.77828 1.93725 0
M  V30 4336 C 398.355 3.95615 1.59346 0
M  V30 4337 S 399.188 5.30988 0.69367 0
M  V30 4338 C 400.344 5.94734 1.95046 0
M  V30 4339 H 400.577 2.96852 0.163142 0
M  V30 4340 H 398.11 1.54362 -0.0341166 0
M  V30 4341 H 400.068 3.13199 2.65361 0
M  V30 4342 H 398.729 1.98454 2.43465 0
M  V30 4343 H 397.922 4.364 2.52132 0
M  V30 4344 H 397.524 3.61535 0.957512 0
M  V30 4345 H 399.816 6.12419 2.89739 0
M  V30 4346 H 400.759 6.90109 1.58604 0
M  V30 4347 H 401.167 5.23832 2.10381 0
M  V30 4348 N 400.565 -0.0233959 1.57583 0
M  V30 4349 C 401.793 -0.724682 1.93794 0
M  V30 4350 C 402.208 -1.68588 0.849912 0
M  V30 4351 O 401.565 -1.81676 -0.173204 0
M  V30 4352 C 401.616 -1.47684 3.29957 0
M  V30 4353 O 401.337 -0.554222 4.3458 0
M  V30 4354 C 402.838 -2.27477 3.80485 0
M  V30 4355 H 400.058 -0.203317 0.639455 0
M  V30 4356 H 402.602 0.0207653 2.04489 0
M  V30 4357 H 400.757 -2.17412 3.20641 0
M  V30 4358 H 401.171 -1.08232 5.13212 0
M  V30 4359 H 402.645 -2.7564 4.78254 0
M  V30 4360 H 403.122 -3.09144 3.11972 0
M  V30 4361 H 403.728 -1.62813 3.92902 0
M  V30 4362 N 402.043 -1.548 -0.295768 0
M  V30 4363 C 402.973 -1.89115 -1.36959 0
M  V30 4364 C 403.954 -0.75059 -1.52644 0
M  V30 4365 O 405.139 -1.00678 -1.66065 0
M  V30 4366 C 402.269 -2.14307 -2.73295 0
M  V30 4367 C 401.223 -3.30151 -2.72368 0
M  V30 4368 C 400.549 -3.40772 -4.12042 0
M  V30 4369 C 401.849 -4.67126 -2.33646 0
M  V30 4370 H 403.543 -2.79053 -1.08488 0
M  V30 4371 H 401.089 -1.34266 -0.520443 0
M  V30 4372 H 403.042 -2.36898 -3.48507 0
M  V30 4373 H 401.766 -1.21145 -3.03301 0
M  V30 4374 H 400.425 -3.0749 -1.99613 0
M  V30 4375 H 400.073 -2.45117 -4.39234 0
M  V30 4376 H 399.773 -4.18645 -4.12322 0
M  V30 4377 H 401.297 -3.6563 -4.89027 0
M  V30 4378 H 402.711 -4.89414 -2.98575 0
M  V30 4379 H 401.108 -5.47751 -2.45129 0
M  V30 4380 H 402.178 -4.67489 -1.28772 0
M  V30 4381 N 403.521 0.559213 -1.47345 0
M  V30 4382 C 404.77 1.31281 -1.53128 0
M  V30 4383 C 405.083 1.94602 -0.197344 0
M  V30 4384 O 406.289 2.71173 -0.133154 0
M  V30 4385 C 404.745 2.38051 -2.69925 0
M  V30 4386 C 404.353 1.8093 -4.0984 0
M  V30 4387 C 406.097 3.14604 -2.84999 0
M  V30 4388 C 404.004 2.85468 -5.1794 0
M  V30 4389 H 402.934 0.493614 -0.569966 0
M  V30 4390 H 405.585 0.594155 -1.73615 0
M  V30 4391 H 403.967 3.12822 -2.42814 0
M  V30 4392 H 405.141 1.12544 -4.46845 0
M  V30 4393 H 403.456 1.16967 -3.99634 0
M  V30 4394 H 406.053 3.92666 -3.62929 0
M  V30 4395 H 406.396 3.68665 -1.93369 0
M  V30 4396 H 406.929 2.46945 -3.1187 0
M  V30 4397 H 403.668 2.36264 -6.1144 0
M  V30 4398 H 403.188 3.52269 -4.85455 0
M  V30 4399 H 404.867 3.48996 -5.44803 0
M  V30 4400 N 404.999 1.35443 0.805782 0
M  V30 4401 C 405.929 1.31095 1.93226 0
M  V30 4402 C 406.91 0.185244 1.69088 0
M  V30 4403 O 408.095 0.380332 1.90439 0
M  V30 4404 C 405.225 1.08299 3.29983 0
M  V30 4405 C 404.179 2.17519 3.68605 0
M  V30 4406 C 403.505 1.79887 5.03532 0
M  V30 4407 C 404.805 3.5949 3.78898 0
M  V30 4408 H 406.499 2.25352 1.97122 0
M  V30 4409 H 404.045 1.0848 0.946996 0
M  V30 4410 H 405.998 1.03897 4.08391 0
M  V30 4411 H 404.722 0.104885 3.26432 0
M  V30 4412 H 403.381 2.2102 2.92482 0
M  V30 4413 H 403.029 0.80693 4.96485 0
M  V30 4414 H 402.729 2.53001 5.30344 0
M  V30 4415 H 404.253 1.77011 5.84379 0
M  V30 4416 H 405.667 3.58307 4.47536 0
M  V30 4417 H 404.064 4.31371 4.1718 0
M  V30 4418 H 405.134 3.95584 2.80431 0
M  V30 4419 N 406.477 -1.02803 1.19454 0
M  V30 4420 C 407.424 -2.11099 0.933046 0
M  V30 4421 C 408.394 -1.65571 -0.132447 0
M  V30 4422 O 409.579 -1.90797 0.00987576 0
M  V30 4423 C 406.719 -3.41763 0.478747 0
M  V30 4424 C 405.832 -4.00833 1.6111 0
M  V30 4425 C 404.967 -5.19511 1.10825 0
M  V30 4426 C 404.006 -5.70639 2.21445 0
M  V30 4427 N 403.143 -6.80589 1.72461 0
M  V30 4428 H 407.983 -2.32804 1.86028 0
M  V30 4429 H 405.52 -1.14179 0.927441 0
M  V30 4430 H 407.478 -4.16736 0.196745 0
M  V30 4431 H 406.108 -3.20166 -0.411493 0
M  V30 4432 H 405.16 -3.23066 2.00829 0
M  V30 4433 H 406.472 -4.34794 2.4445 0
M  V30 4434 H 405.626 -6.01645 0.781533 0
M  V30 4435 H 404.365 -4.87086 0.244606 0
M  V30 4436 H 403.37 -4.87116 2.54947 0
M  V30 4437 H 404.595 -6.05102 3.08267 0
M  V30 4438 H 402.541 -6.50016 0.884056 0
M  V30 4439 H 402.458 -7.13681 2.49389 0
M  V30 4440 H 403.726 -7.66317 1.42755 0
M  V30 4441 N 407.956 -0.998596 -1.21925 0
M  V30 4442 C 408.919 -0.558679 -2.22287 0
M  V30 4443 C 409.919 0.361525 -1.56683 0
M  V30 4444 O 411.109 0.152695 -1.73529 0
M  V30 4445 C 408.241 0.18661 -3.40389 0
M  V30 4446 H 409.434 -1.4463 -2.62721 0
M  V30 4447 H 406.987 -0.786413 -1.35075 0
M  V30 4448 H 407.722 1.08996 -3.05435 0
M  V30 4449 H 407.507 -0.474188 -3.89222 0
M  V30 4450 H 408.997 0.482367 -4.14805 0
M  V30 4451 N 409.434 1.37368 -0.772513 0
M  V30 4452 C 410.381 2.30262 -0.157488 0
M  V30 4453 C 411.351 1.51137 0.688965 0
M  V30 4454 O 412.536 1.79704 0.641168 0
M  V30 4455 C 409.676 3.37611 0.715045 0
M  V30 4456 C 408.789 4.31746 -0.148098 0
M  V30 4457 C 407.924 5.26171 0.729213 0
M  V30 4458 C 406.963 6.11948 -0.136418 0
M  V30 4459 N 406.1 6.98613 0.698914 0
M  V30 4460 H 410.94 2.82277 -0.955179 0
M  V30 4461 H 408.477 1.38957 -0.482631 0
M  V30 4462 H 410.435 3.98479 1.23575 0
M  V30 4463 H 409.065 2.86959 1.47833 0
M  V30 4464 H 408.117 3.72178 -0.786613 0
M  V30 4465 H 409.429 4.92084 -0.81579 0
M  V30 4466 H 408.583 5.92247 1.31637 0
M  V30 4467 H 407.322 4.66246 1.43059 0
M  V30 4468 H 406.327 5.4485 -0.736102 0
M  V30 4469 H 407.552 6.73945 -0.835134 0
M  V30 4470 H 405.498 6.41215 1.38489 0
M  V30 4471 H 405.415 7.55948 0.0885358 0
M  V30 4472 H 406.683 7.69077 1.27044 0
M  V30 4473 N 410.912 0.523116 1.48665 0
M  V30 4474 C 411.842 -0.23231 2.32342 0
M  V30 4475 C 412.823 -0.941637 1.41659 0
M  V30 4476 O 414.008 -0.928751 1.70552 0
M  V30 4477 C 411.138 -1.28387 3.22698 0
M  V30 4478 C 410.092 -0.693098 4.22351 0
M  V30 4479 C 409.418 -1.8468 5.01794 0
M  V30 4480 C 410.718 0.33063 5.21252 0
M  V30 4481 H 412.412 0.466192 2.95748 0
M  V30 4482 H 409.958 0.225643 1.42221 0
M  V30 4483 H 411.911 -1.82024 3.80059 0
M  V30 4484 H 410.635 -2.01186 2.57278 0
M  V30 4485 H 409.294 -0.178299 3.66166 0
M  V30 4486 H 408.942 -2.56301 4.32804 0
M  V30 4487 H 408.642 -1.45747 5.69238 0
M  V30 4488 H 410.166 -2.38709 5.62006 0
M  V30 4489 H 411.58 -0.118407 5.73178 0
M  V30 4490 H 409.977 0.636974 5.9671 0
M  V30 4491 H 411.047 1.23883 4.68808 0
M  V30 4492 N 412.39 -1.55475 0.257931 0
M  V30 4493 C 413.638 -1.98813 -0.363009 0
M  V30 4494 C 413.959 -1.14757 -1.57657 0
M  V30 4495 O 413.229 -0.232956 -1.9451 0
M  V30 4496 H 411.809 -0.734308 -0.137113 0
M  V30 4497 H 414.471 -1.9156 0.359281 0
M  V30 4498 H 413.567 -3.04941 -0.664634 0
M  V30 4499 N 413.868 0.0150385 -1.57593 0
M  V30 4500 C 414.801 1.04475 -2.0288 0
M  V30 4501 C 415.779 1.3436 -0.915764 0
M  V30 4502 O 416.963 1.46779 -1.18271 0
M  V30 4503 C 414.09 2.37608 -2.41371 0
M  V30 4504 C 413.136 2.23487 -3.63257 0
M  V30 4505 S 413.969 1.57505 -5.11813 0
M  V30 4506 C 415.125 2.921 -5.5356 0
M  V30 4507 H 415.358 0.65907 -2.89903 0
M  V30 4508 H 412.891 0.225452 -1.52745 0
M  V30 4509 H 414.849 3.14165 -2.64217 0
M  V30 4510 H 413.51 2.7332 -1.54775 0
M  V30 4511 H 412.703 3.21802 -3.87891 0
M  V30 4512 H 412.305 1.55074 -3.40335 0
M  V30 4513 H 414.597 3.88419 -5.55101 0
M  V30 4514 H 415.54 2.72184 -6.53698 0
M  V30 4515 H 415.948 2.95318 -4.8109 0
M  V30 4516 N 415.346 1.54954 0.287554 0
M  V30 4517 C 416.757 1.65732 0.859634 0
M  V30 4518 C 417.108 0.574767 1.87592 0
M  V30 4519 O 416.233 -0.286299 2.14498 0
M  V30 4520 C 416.828 3.00438 1.56597 0
M  V30 4521 C 415.387 3.13292 2.08627 0
M  V30 4522 C 414.534 2.61473 0.923416 0
M  V30 4523 H 417.485 1.5857 0.0642338 0
M  V30 4524 H 417.506 2.92613 2.43224 0
M  V30 4525 H 417.018 3.79207 0.826053 0
M  V30 4526 H 415.119 2.39268 2.85625 0
M  V30 4527 H 415.232 4.19647 2.31157 0
M  V30 4528 H 413.596 2.18264 1.31275 0
M  V30 4529 H 414.379 3.42733 0.197241 0
M  V30 4530 N 416.824 -0.551391 1.4764 0
M  V30 4531 C 417.756 -1.67333 1.56628 0
M  V30 4532 C 418.769 -1.56398 0.452045 0
M  V30 4533 O 419.958 -1.6325 0.721926 0
M  V30 4534 C 417.058 -3.05841 1.45994 0
M  V30 4535 C 416.231 -3.42472 2.72088 0
M  V30 4536 C 415.29 -4.60168 2.55209 0
M  V30 4537 O 414.316 -4.64458 3.2904 0
M  V30 4538 N 415.518 -5.57024 1.63416 0
M  V30 4539 H 418.283 -1.60066 2.53375 0
M  V30 4540 H 415.844 -0.738169 1.44093 0
M  V30 4541 H 417.836 -3.8242 1.32428 0
M  V30 4542 H 416.406 -3.07302 0.573071 0
M  V30 4543 H 415.626 -2.55284 3.00373 0
M  V30 4544 H 416.914 -3.63723 3.55785 0
M  V30 4545 H 416.312 -5.56319 1.02594 0
M  V30 4546 H 414.869 -6.32906 1.558 0
M  V30 4547 N 418.302 -1.35869 -0.798587 0
M  V30 4548 C 419.549 -1.29588 -1.55606 0
M  V30 4549 C 419.877 0.127456 -1.94082 0
M  V30 4550 O 419.132 1.09461 -1.62225 0
M  V30 4551 C 419.431 -2.1556 -2.85077 0
M  V30 4552 C 419.097 -3.6424 -2.65781 0
M  V30 4553 C 417.759 -4.04766 -2.60227 0
M  V30 4554 C 420.111 -4.58547 -2.47758 0
M  V30 4555 C 417.439 -5.37753 -2.34603 0
M  V30 4556 C 419.791 -5.91742 -2.23662 0
M  V30 4557 C 418.455 -6.31402 -2.16534 0
M  V30 4558 H 417.725 -0.474197 -0.569402 0
M  V30 4559 H 420.372 -1.67839 -0.922086 0
M  V30 4560 H 418.677 -1.70216 -3.52893 0
M  V30 4561 H 420.374 -2.08031 -3.42818 0
M  V30 4562 H 416.964 -3.32086 -2.70956 0
M  V30 4563 H 421.148 -4.28117 -2.51056 0
M  V30 4564 H 416.404 -5.67474 -2.2756 0
M  V30 4565 H 420.578 -6.6439 -2.08708 0
M  V30 4566 H 418.205 -7.34381 -1.96441 0
M  V30 4567 N 419.78 1.02168 -1.19998 0
M  V30 4568 C 420.71 2.12488 -0.96804 0
M  V30 4569 C 421.691 1.69799 0.101185 0
M  V30 4570 O 422.876 1.94121 -0.0552993 0
M  V30 4571 C 420.006 3.43479 -0.513776 0
M  V30 4572 C 418.96 3.99884 -1.52566 0
M  V30 4573 C 418.286 5.26582 -0.928214 0
M  V30 4574 C 419.586 4.33861 -2.90795 0
M  V30 4575 H 421.28 2.32149 -1.89069 0
M  V30 4576 H 418.826 1.11564 -0.910468 0
M  V30 4577 H 420.779 4.20036 -0.338774 0
M  V30 4578 H 419.503 3.23561 0.444493 0
M  V30 4579 H 418.162 3.25429 -1.68794 0
M  V30 4580 H 417.81 5.02986 0.0378289 0
M  V30 4581 H 417.51 5.65284 -1.60397 0
M  V30 4582 H 419.034 6.05799 -0.764167 0
M  V30 4583 H 420.448 5.01327 -2.78109 0
M  V30 4584 H 418.845 4.83664 -3.55231 0
M  V30 4585 H 419.915 3.42848 -3.42904 0
M  V30 4586 N 421.258 1.00505 1.21394 0
M  V30 4587 C 422.483 0.706367 1.95001 0
M  V30 4588 C 422.908 -0.72463 1.73582 0
M  V30 4589 O 422.266 -1.49702 1.0227 0
M  V30 4590 C 422.314 1.03299 3.45487 0
M  V30 4591 O 421.418 0.138275 4.12168 0
M  V30 4592 H 420.759 0.263175 0.609619 0
M  V30 4593 H 423.289 1.34531 1.54151 0
M  V30 4594 H 423.299 0.979872 3.96059 0
M  V30 4595 H 421.974 2.07567 3.60401 0
M  V30 4596 H 420.551 0.247928 3.72075 0
M  V30 4597 N 422.737 -1.36956 0.779787 0
M  V30 4598 C 423.965 -2.03755 0.359398 0
M  V30 4599 C 424.38 -1.58807 -1.02106 0
M  V30 4600 O 423.737 -0.773024 -1.6532 0
M  V30 4601 C 423.788 -3.59251 0.402568 0
M  V30 4602 O 423.509 -4.02557 1.72858 0
M  V30 4603 C 425.01 -4.43291 -0.0284068 0
M  V30 4604 H 422.23 -0.654148 0.149437 0
M  V30 4605 H 424.774 -1.75128 1.05595 0
M  V30 4606 H 422.929 -3.86621 -0.245478 0
M  V30 4607 H 423.343 -4.97111 1.67275 0
M  V30 4608 H 424.817 -5.51975 0.0529466 0
M  V30 4609 H 425.294 -4.25719 -1.07982 0
M  V30 4610 H 425.9 -4.21163 0.591758 0
M  V30 4611 N 424.215 -0.530993 -1.48385 0
M  V30 4612 C 425.125 0.23503 -2.3342 0
M  V30 4613 C 426.141 0.93801 -1.46552 0
M  V30 4614 O 427.317 0.912745 -1.7953 0
M  V30 4615 C 424.382 1.26778 -3.22689 0
M  V30 4616 C 423.443 0.575038 -4.25431 0
M  V30 4617 C 422.676 1.55858 -5.10435 0
M  V30 4618 O 422.899 2.79129 -4.97437 0
M  V30 4619 O 421.833 1.09742 -5.91811 0
M  V30 4620 H 425.659 -0.461794 -3.00169 0
M  V30 4621 H 423.244 -0.291903 -1.46521 0
M  V30 4622 H 425.126 1.86457 -3.77904 0
M  V30 4623 H 423.801 1.94699 -2.586 0
M  V30 4624 H 422.708 -0.0622782 -3.74048 0
M  V30 4625 H 424.041 -0.062253 -4.92161 0
M  V30 4626 N 425.693 1.55336 -0.266172 0
M  V30 4627 C 426.656 2.20878 0.612001 0
M  V30 4628 C 427.656 1.18388 1.08816 0
M  V30 4629 O 428.846 1.4335 0.989774 0
M  V30 4630 C 425.978 2.86765 1.84332 0
M  V30 4631 H 427.171 2.99873 0.0398718 0
M  V30 4632 H 424.724 1.56291 -0.0167309 0
M  V30 4633 H 425.459 2.11759 2.45619 0
M  V30 4634 H 425.244 3.61862 1.5099 0
M  V30 4635 H 426.734 3.36867 2.46801 0
M  V30 4636 N 427.171 -0.0066808 1.57599 0
M  V30 4637 C 428.103 -1.02827 2.04839 0
M  V30 4638 C 429.116 -1.31108 0.965113 0
M  V30 4639 O 430.305 -1.28202 1.24203 0
M  V30 4640 C 427.405 -2.36464 2.42771 0
M  V30 4641 C 426.578 -2.27219 3.73751 0
M  V30 4642 C 425.637 -3.43489 3.98625 0
M  V30 4643 O 424.663 -3.21976 4.69382 0
M  V30 4644 N 425.865 -4.66116 3.46 0
M  V30 4645 H 428.63 -0.625455 2.93101 0
M  V30 4646 H 426.191 -0.194198 1.60731 0
M  V30 4647 H 428.183 -3.13008 2.56531 0
M  V30 4648 H 426.753 -2.68512 1.60063 0
M  V30 4649 H 425.973 -1.35629 3.70133 0
M  V30 4650 H 427.261 -2.18208 4.59633 0
M  V30 4651 H 426.659 -4.86493 2.88688 0
M  V30 4652 H 425.216 -5.39949 3.65101 0
M  V30 4653 N 428.649 -1.55105 -0.279332 0
M  V30 4654 C 429.874 -1.7976 -1.03446 0
M  V30 4655 C 430.299 -0.565952 -1.79384 0
M  V30 4656 O 429.657 0.484259 -1.74713 0
M  V30 4657 C 429.705 -3.0179 -1.97371 0
M  V30 4658 O 428.809 -2.76432 -3.06038 0
M  V30 4659 H 428.15 -0.594334 -0.29608 0
M  V30 4660 H 430.68 -2.02235 -0.310165 0
M  V30 4661 H 430.69 -3.30351 -2.39441 0
M  V30 4662 H 429.365 -3.91085 -1.4151 0
M  V30 4663 H 427.942 -2.58949 -2.68328 0
M  V30 4664 N 430.127 0.543554 -1.4793 0
M  V30 4665 C 431.057 1.65888 -1.64327 0
M  V30 4666 C 432.038 1.62818 -0.492383 0
M  V30 4667 O 433.223 1.80226 -0.723338 0
M  V30 4668 C 430.353 3.04506 -1.67013 0
M  V30 4669 C 429.307 3.2243 -2.81466 0
M  V30 4670 C 428.633 4.61972 -2.69233 0
M  V30 4671 C 429.933 3.06496 -4.22915 0
M  V30 4672 H 431.627 1.52421 -2.57698 0
M  V30 4673 H 429.173 0.731849 -1.24016 0
M  V30 4674 H 431.126 3.82391 -1.77074 0
M  V30 4675 H 429.85 3.18964 -0.70212 0
M  V30 4676 H 428.509 2.46957 -2.70938 0
M  V30 4677 H 428.157 4.73247 -1.7043 0
M  V30 4678 H 427.857 4.74911 -3.46025 0
M  V30 4679 H 429.381 5.41974 -2.81242 0
M  V30 4680 H 430.795 3.74186 -4.34348 0
M  V30 4681 H 429.192 3.30938 -5.006 0
M  V30 4682 H 430.262 2.03077 -4.40327 0
M  V30 4683 N 431.605 1.3629 0.791371 0
M  V30 4684 C 432.535 1.33137 1.91825 0
M  V30 4685 C 433.516 0.203168 1.68882 0
M  V30 4686 O 434.701 0.400509 1.90025 0
M  V30 4687 C 431.831 1.11793 3.28816 0
M  V30 4688 C 430.785 2.21417 3.66277 0
M  V30 4689 C 430.111 1.85218 5.01596 0
M  V30 4690 C 431.411 3.63489 3.75064 0
M  V30 4691 H 433.105 2.2743 1.9472 0
M  V30 4692 H 430.651 1.09479 0.935437 0
M  V30 4693 H 432.604 1.08222 4.07266 0
M  V30 4694 H 431.328 0.139501 3.26302 0
M  V30 4695 H 429.987 2.2411 2.90121 0
M  V30 4696 H 429.635 0.859544 4.95602 0
M  V30 4697 H 429.335 2.58611 5.27631 0
M  V30 4698 H 430.859 1.832 5.82469 0
M  V30 4699 H 432.273 3.63034 4.43711 0
M  V30 4700 H 430.67 4.35771 4.12582 0
M  V30 4701 H 431.74 3.98536 2.76219 0
M  V30 4702 N 433.083 -1.0153 1.20538 0
M  V30 4703 C 434.499 -1.27461 0.96051 0
M  V30 4704 C 434.699 -1.98273 -0.359193 0
M  V30 4705 O 433.755 -2.27886 -1.0874 0
M  V30 4706 C 435.068 -2.10837 2.14402 0
M  V30 4707 C 436.616 -2.24099 2.18515 0
M  V30 4708 C 437.091 -3.10852 3.36355 0
M  V30 4709 N 438.582 -3.18441 3.36377 0
M  V30 4710 C 439.317 -3.85795 4.24205 0
M  V30 4711 N 438.813 -4.55264 5.22213 0
M  V30 4712 N 440.606 -3.82331 4.12043 0
M  V30 4713 H 432.757 -0.539907 2.05423 0
M  V30 4714 H 435.02 -0.30092 0.898972 0
M  V30 4715 H 434.726 -1.66144 3.09983 0
M  V30 4716 H 434.6 -3.11576 2.12604 0
M  V30 4717 H 436.987 -2.68016 1.23497 0
M  V30 4718 H 437.068 -1.22865 2.24361 0
M  V30 4719 H 436.712 -2.6764 4.31661 0
M  V30 4720 H 436.642 -4.12177 3.27746 0
M  V30 4721 H 439.133 -2.68978 2.65442 0
M  V30 4722 H 439.446 -5.04331 5.85551 0
M  V30 4723 H 437.791 -4.54085 5.26148 0
M  V30 4724 H 440.982 -3.27207 3.34743 0
M  V30 4725 H 441.155 -4.34547 4.807 0
M  V30 4726 N 434.561 -1.01147 -1.20859 0
M  V30 4727 C 435.524 -0.582224 -2.21682 0
M  V30 4728 C 436.524 0.344887 -1.57058 0
M  V30 4729 O 437.714 0.134281 -1.73682 0
M  V30 4730 C 434.846 0.150496 -3.40568 0
M  V30 4731 H 436.039 -1.47408 -2.61172 0
M  V30 4732 H 433.592 -0.800695 -1.34233 0
M  V30 4733 H 434.327 1.0575 -3.06574 0
M  V30 4734 H 434.112 -0.515444 -3.88697 0
M  V30 4735 H 435.602 0.438344 -4.15293 0
M  V30 4736 N 436.039 1.36541 -0.78704 0
M  V30 4737 C 436.969 2.32659 -0.197992 0
M  V30 4738 C 437.95 1.56533 0.665697 0
M  V30 4739 O 439.135 1.84698 0.60001 0
M  V30 4740 C 436.265 3.40778 0.669901 0
M  V30 4741 C 435.219 4.27897 -0.0937039 0
M  V30 4742 C 434.545 5.27163 0.894629 0
M  V30 4743 C 435.845 5.06334 -1.28154 0
M  V30 4744 H 437.539 2.82171 -1.00099 0
M  V30 4745 H 435.085 1.35665 -0.482793 0
M  V30 4746 H 437.038 4.07008 1.09191 0
M  V30 4747 H 435.762 2.89827 1.50558 0
M  V30 4748 H 434.421 3.6322 -0.49666 0
M  V30 4749 H 434.069 4.72486 1.72527 0
M  V30 4750 H 433.769 5.86317 0.388149 0
M  V30 4751 H 435.293 5.96266 1.31525 0
M  V30 4752 H 436.707 5.65617 -0.93541 0
M  V30 4753 H 435.104 5.74888 -1.72115 0
M  V30 4754 H 436.174 4.38114 -2.07807 0
M  V30 4755 N 437.518 0.538854 1.48102 0
M  V30 4756 C 438.765 0.0080018 2.02498 0
M  V30 4757 C 439.093 -1.33437 1.41509 0
M  V30 4758 O 438.348 -1.87709 0.553507 0
M  V30 4759 C 438.647 -0.153808 3.57069 0
M  V30 4760 C 438.313 1.11533 4.36888 0
M  V30 4761 C 436.975 1.46314 4.58417 0
M  V30 4762 C 439.327 1.95718 4.83057 0
M  V30 4763 C 436.655 2.6516 5.23361 0
M  V30 4764 C 439.007 3.13751 5.49312 0
M  V30 4765 C 437.671 3.48866 5.69077 0
M  V30 4766 H 436.941 0.00292807 0.740994 0
M  V30 4767 H 439.588 0.706668 1.77984 0
M  V30 4768 H 437.893 -0.935309 3.80472 0
M  V30 4769 H 439.59 -0.579607 3.96789 0
M  V30 4770 H 436.18 0.834484 4.20398 0
M  V30 4771 H 440.364 1.70158 4.66219 0
M  V30 4772 H 435.62 2.92558 5.36861 0
M  V30 4773 H 439.794 3.79282 5.84053 0
M  V30 4774 H 437.421 4.41054 6.19173 0
M  V30 4775 N 438.996 -1.55193 0.274407 0
M  V30 4776 C 439.943 -2.225 -0.613374 0
M  V30 4777 C 440.913 -1.19823 -1.15029 0
M  V30 4778 O 442.098 -1.48362 -1.19973 0
M  V30 4779 C 439.238 -2.94927 -1.79199 0
M  V30 4780 C 438.351 -4.12322 -1.28899 0
M  V30 4781 C 437.486 -4.72394 -2.42934 0
M  V30 4782 C 436.525 -5.81984 -1.89634 0
M  V30 4783 N 435.662 -6.36123 -2.9714 0
M  V30 4784 H 440.502 -2.97982 -0.032756 0
M  V30 4785 H 438.039 -1.47099 -0.00440146 0
M  V30 4786 H 439.997 -3.35134 -2.48478 0
M  V30 4787 H 438.627 -2.2187 -2.34465 0
M  V30 4788 H 437.679 -3.7724 -0.489327 0
M  V30 4789 H 438.991 -4.91355 -0.858587 0
M  V30 4790 H 438.145 -5.15317 -3.20208 0
M  V30 4791 H 436.884 -3.92636 -2.8929 0
M  V30 4792 H 435.889 -5.38511 -1.1084 0
M  V30 4793 H 437.114 -6.6361 -1.44215 0
M  V30 4794 H 435.06 -5.59259 -3.42878 0
M  V30 4795 H 434.977 -7.10427 -2.58515 0
M  V30 4796 H 436.245 -6.83704 -3.74391 0
M  V30 4797 N 440.474 -0.00167713 -1.576 0
M  V30 4798 C 441.89 0.354422 -1.55615 0
M  V30 4799 C 442.09 1.74679 -1.00447 0
M  V30 4800 O 441.146 2.4428 -0.639022 0
M  V30 4801 C 442.459 0.22812 -2.99833 0
M  V30 4802 C 444.007 0.302934 -3.11531 0
M  V30 4803 C 444.482 0.205737 -4.57538 0
M  V30 4804 N 445.973 0.263584 -4.62449 0
M  V30 4805 C 446.708 0.211742 -5.73009 0
M  V30 4806 N 446.204 0.110399 -6.92712 0
M  V30 4807 N 447.997 0.263729 -5.61481 0
M  V30 4808 H 440.148 -0.912498 -1.918 0
M  V30 4809 H 442.411 -0.349928 -0.881053 0
M  V30 4810 H 442.117 -0.729934 -3.44042 0
M  V30 4811 H 441.991 1.00951 -3.6344 0
M  V30 4812 H 444.378 1.25143 -2.67251 0
M  V30 4813 H 444.459 -0.508357 -2.50698 0
M  V30 4814 H 444.103 -0.739225 -5.02492 0
M  V30 4815 H 444.033 1.03554 -5.16318 0
M  V30 4816 H 446.524 0.343173 -3.76339 0
M  V30 4817 H 446.837 0.0767828 -7.72762 0
M  V30 4818 H 445.182 0.0760025 -6.94958 0
M  V30 4819 H 448.373 0.34111 -4.66855 0
M  V30 4820 H 448.546 0.219862 -6.47627 0
M  V30 4821 N 441.952 1.55251 0.271103 0
M  V30 4822 C 442.9 1.89054 1.35504 0
M  V30 4823 C 443.894 0.767064 1.51038 0
M  V30 4824 O 445.1 0.951429 1.528 0
M  V30 4825 H 441.475 0.600072 0.45323 0
M  V30 4826 H 443.446 2.79598 1.04247 0
M  V30 4827 C 442.195 2.18068 2.70817 0
M  V30 4828 H 441.518 3.04005 2.59656 0
M  V30 4829 H 442.958 2.4564 3.45597 0
M  V30 4830 C 441.417 0.988901 3.2206 0
M  V30 4831 O 441.947 0.224501 4.01072 0
M  V30 4832 N 440.153 0.786085 2.79766 0
M  V30 4833 H 439.7 1.40937 2.15626 0
M  V30 4834 H 439.658 -0.00969349 3.14399 0
M  V30 4835 N 443.43 -0.535701 1.48216 0
M  V30 4836 C 444.841 -1.11769 1.49548 0
M  V30 4837 C 445.192 -1.94442 0.26207 0
M  V30 4838 O 444.317 -2.06987 -0.631287 0
M  V30 4839 C 444.912 -2.03367 2.70975 0
M  V30 4840 C 443.471 -2.56795 2.75196 0
M  V30 4841 C 442.618 -1.33631 2.42977 0
M  V30 4842 H 445.569 -0.321232 1.55415 0
M  V30 4843 H 445.59 -2.87569 2.49167 0
M  V30 4844 H 445.102 -1.43169 3.60727 0
M  V30 4845 H 443.203 -3.20731 1.89638 0
M  V30 4846 H 443.316 -2.9632 3.76472 0
M  V30 4847 H 441.68 -1.6502 1.94012 0
M  V30 4848 H 442.463 -0.75194 3.34964 0
M  V30 4849 N 444.908 -1.36708 -0.784132 0
M  V30 4850 C 445.871 -1.31307 -1.87859 0
M  V30 4851 C 446.871 -0.219654 -1.59293 0
M  V30 4852 O 448.061 -0.47476 -1.67606 0
M  V30 4853 C 445.193 -1.03679 -3.24751 0
M  V30 4854 H 446.386 -2.28647 -1.94064 0
M  V30 4855 H 443.939 -1.21558 -0.98252 0
M  V30 4856 H 444.674 -0.0681936 -3.24228 0
M  V30 4857 H 444.459 -1.82811 -3.46876 0
M  V30 4858 H 445.949 -1.02518 -4.04821 0
M  V30 4859 N 446.386 1.0089 -1.21074 0
M  V30 4860 C 447.334 2.11707 -0.963476 0
M  V30 4861 C 448.328 1.69172 0.0879032 0
M  V30 4862 O 449.534 1.79889 -0.0631415 0
M  V30 4863 H 445.909 0.692026 -0.294287 0
M  V30 4864 H 447.88 2.29743 -1.90422 0
M  V30 4865 C 446.629 3.43473 -0.540509 0
M  V30 4866 H 445.952 3.76634 -1.34114 0
M  V30 4867 H 447.392 4.22044 -0.406777 0
M  V30 4868 C 445.851 3.2849 0.748079 0
M  V30 4869 O 446.381 3.58883 1.8046 0
M  V30 4870 N 444.587 2.81715 0.713081 0
M  V30 4871 H 444.134 2.5718 -0.146973 0
M  V30 4872 H 444.092 2.72071 1.57558 0
M  V30 4873 N 447.864 1.01787 1.20321 0
M  V30 4874 C 449.28 0.732951 1.41774 0
M  V30 4875 C 449.48 -0.686883 1.89431 0
M  V30 4876 O 448.536 -1.45446 2.06402 0
M  V30 4877 C 449.849 1.75973 2.43832 0
M  V30 4878 C 451.397 1.77802 2.57596 0
M  V30 4879 C 451.872 2.7941 3.62897 0
M  V30 4880 N 453.363 2.78157 3.70382 0
M  V30 4881 C 454.098 3.53434 4.51521 0
M  V30 4882 N 453.594 4.38392 5.36455 0
M  V30 4883 N 455.387 3.42026 4.46066 0
M  V30 4884 H 447.538 1.93447 0.877035 0
M  V30 4885 H 449.801 0.835712 0.447536 0
M  V30 4886 H 449.507 2.77699 2.15815 0
M  V30 4887 H 449.381 1.57292 3.4284 0
M  V30 4888 H 451.768 0.767602 2.84942 0
M  V30 4889 H 451.849 2.00557 1.58779 0
M  V30 4890 H 451.493 3.80616 3.36295 0
M  V30 4891 H 451.423 2.53916 4.61339 0
M  V30 4892 H 453.914 2.16531 3.09714 0
M  V30 4893 H 454.227 4.92596 5.95457 0
M  V30 4894 H 452.572 4.4247 5.35953 0
M  V30 4895 H 455.763 2.75075 3.78749 0
M  V30 4896 H 455.936 4.00946 5.09064 0
M  V30 4897 N 449.342 -1.36122 0.79427 0
M  V30 4898 C 450.272 -2.32551 0.210328 0
M  V30 4899 C 451.253 -1.56884 -0.657386 0
M  V30 4900 O 452.438 -1.85014 -0.590207 0
M  V30 4901 C 449.568 -3.41128 -0.651819 0
M  V30 4902 C 448.522 -4.27842 0.116395 0
M  V30 4903 C 447.848 -5.2763 -0.86666 0
M  V30 4904 C 449.148 -5.05647 1.30837 0
M  V30 4905 H 450.842 -2.81636 1.01594 0
M  V30 4906 H 448.388 -1.35407 0.489981 0
M  V30 4907 H 450.341 -4.07581 -1.07031 0
M  V30 4908 H 449.065 -2.90622 -1.49019 0
M  V30 4909 H 447.724 -3.62952 0.515915 0
M  V30 4910 H 447.372 -4.73395 -1.70019 0
M  V30 4911 H 447.072 -5.86514 -0.35705 0
M  V30 4912 H 448.596 -5.96955 -1.28361 0
M  V30 4913 H 450.01 -5.65113 0.965393 0
M  V30 4914 H 448.407 -5.73967 1.75161 0
M  V30 4915 H 449.477 -4.37006 2.10128 0
M  V30 4916 N 450.82 -0.546701 -1.47814 0
M  V30 4917 C 452.068 -0.0187037 -2.02091 0
M  V30 4918 C 452.389 1.33168 -1.42447 0
M  V30 4919 O 451.659 1.86619 -0.595839 0
M  V30 4920 H 450.239 -0.00392531 -0.74699 0
M  V30 4921 H 452.901 -0.714327 -1.81338 0
M  V30 4922 H 451.997 0.0772219 -3.12004 0
M  V30 4923 N 452.299 1.55045 -0.282633 0
M  V30 4924 C 453.524 2.04628 0.337977 0
M  V30 4925 C 453.949 1.15937 1.48123 0
M  V30 4926 O 453.307 0.159532 1.80597 0
M  V30 4927 C 453.355 3.51854 0.78936 0
M  V30 4928 O 452.459 3.66236 1.89592 0
M  V30 4929 H 451.8 0.660434 0.0687261 0
M  V30 4930 H 454.33 2.00261 -0.419124 0
M  V30 4931 H 454.34 3.93361 1.08311 0
M  V30 4932 H 453.015 4.15873 -0.0470419 0
M  V30 4933 H 451.592 3.36633 1.60413 0
M  V30 4934 N 453.777 0.010035 1.57597 0
M  V30 4935 C 455.025 -0.671371 1.90623 0
M  V30 4936 C 455.346 -1.73753 0.885151 0
M  V30 4937 O 454.616 -1.95752 -0.0760611 0
M  V30 4938 H 453.196 -0.250968 0.703579 0
M  V30 4939 H 455.858 0.0533325 1.94827 0
M  V30 4940 H 454.954 -1.13626 2.90681 0
M  V30 4941 N 455.255 -1.55392 -0.262866 0
M  V30 4942 C 456.666 -1.67079 -0.833158 0
M  V30 4943 C 457.017 -0.604539 -1.86654 0
M  V30 4944 O 456.142 0.252138 -2.14926 0
M  V30 4945 C 456.737 -3.02891 -1.51797 0
M  V30 4946 C 455.296 -3.16571 -2.03617 0
M  V30 4947 C 454.443 -2.62909 -0.881701 0
M  V30 4948 H 457.394 -1.58652 -0.0389986 0
M  V30 4949 H 457.415 -2.96445 -2.38538 0
M  V30 4950 H 456.927 -3.80473 -0.765619 0
M  V30 4951 H 455.028 -2.43782 -2.81782 0
M  V30 4952 H 455.141 -4.23271 -2.24452 0
M  V30 4953 H 453.505 -2.20324 -1.27786 0
M  V30 4954 H 454.288 -3.43003 -0.14269 0
M  V30 4955 N 456.733 0.527833 -1.48498 0
M  V30 4956 C 458.01 1.28905 -1.47115 0
M  V30 4957 C 458.39 2.10297 -0.184007 0
M  V30 4958 O 457.738 2.12728 0.834218 0
M  V30 4959 C 457.948 2.16866 -2.73441 0
M  V30 4960 C 459.296 2.76936 -3.21857 0
M  V30 4961 O 460.32 2.27152 -2.74373 0
M  V30 4962 O 459.179 3.67496 -4.04486 0
M  V30 4963 H 456.273 0.581918 -0.587623 0
M  V30 4964 H 458.819 0.544311 -1.60734 0
M  V30 4965 H 457.591 1.56521 -3.58632 0
M  V30 4966 H 457.214 2.98583 -2.62553 0
M  V30 4967 N 458.211 1.37122 0.776871 0
M  V30 4968 C 459.459 1.31787 1.53221 0
M  V30 4969 C 459.78 -0.0987589 1.9475 0
M  V30 4970 O 459.05 -1.0417 1.65908 0
M  V30 4971 H 457.63 0.484839 0.568278 0
M  V30 4972 H 460.292 1.71556 0.924917 0
M  V30 4973 H 459.388 1.95355 2.43398 0
M  V30 4974 N 459.689 -1.00246 1.21608 0
M  V30 4975 C 460.652 -2.07233 0.979133 0
M  V30 4976 C 461.652 -1.6072 -0.0508219 0
M  V30 4977 O 462.842 -1.73196 0.186712 0
M  V30 4978 C 459.974 -3.37546 0.477016 0
M  V30 4979 H 461.167 -2.29687 1.92831 0
M  V30 4980 H 458.72 -1.17261 1.03342 0
M  V30 4981 H 459.455 -3.20773 -0.476966 0
M  V30 4982 H 459.24 -3.72638 1.21997 0
M  V30 4983 H 460.73 -4.16285 0.331181 0
M  V30 4984 N 461.167 -1.02423 -1.1978 0
M  V30 4985 C 462.077 -0.610919 -2.26506 0
M  V30 4986 C 463.093 0.355152 -1.70337 0
M  V30 4987 O 464.269 0.214195 -2.00258 0
M  V30 4988 C 461.334 0.0365921 -3.46681 0
M  V30 4989 C 460.395 -0.976389 -4.18049 0
M  V30 4990 C 459.628 -0.359683 -5.32487 0
M  V30 4991 O 459.851 0.838601 -5.64202 0
M  V30 4992 O 458.785 -1.08022 -5.92127 0
M  V30 4993 H 462.611 -1.49965 -2.64091 0
M  V30 4994 H 460.196 -0.794156 -1.26545 0
M  V30 4995 H 462.078 0.39786 -4.19518 0
M  V30 4996 H 460.753 0.899398 -3.10954 0
M  V30 4997 H 459.66 -1.38916 -3.47352 0
M  V30 4998 H 460.993 -1.80941 -4.57735 0
M  V30 4999 N 462.645 1.35699 -0.801477 0
M  V30 5000 C 463.555 2.33661 -0.209691 0
M  V30 5001 C 464.571 1.6162 0.644591 0
M  V30 5002 O 465.747 1.93529 0.557545 0
M  V30 5003 C 462.812 3.40816 0.636033 0
M  V30 5004 C 461.873 4.28639 -0.238147 0
M  V30 5005 C 461.106 5.30676 0.567307 0
M  V30 5006 O 461.329 5.41174 1.8024 0
M  V30 5007 O 460.263 6.01887 -0.0391336 0
M  V30 5008 H 464.089 2.8606 -1.01996 0
M  V30 5009 H 461.674 1.38379 -0.563164 0
M  V30 5010 H 463.556 4.06301 1.11791 0
M  V30 5011 H 462.231 2.90696 1.42399 0
M  V30 5012 H 461.138 3.66152 -0.767044 0
M  V30 5013 H 462.471 4.82143 -0.989915 0
M  V30 5014 N 464.123 0.554532 1.47522 0
M  V30 5015 C 465.372 0.0273458 2.01681 0
M  V30 5016 C 465.685 -1.32962 1.43459 0
M  V30 5017 O 466.891 -1.94657 1.89265 0
M  V30 5018 C 465.347 -0.00159057 3.599 0
M  V30 5019 C 464.955 1.35197 4.27113 0
M  V30 5020 C 466.699 -0.476311 4.21819 0
M  V30 5021 C 464.606 1.28229 5.77331 0
M  V30 5022 H 463.536 0.00645269 0.753972 0
M  V30 5023 H 466.187 0.701985 1.69542 0
M  V30 5024 H 464.569 -0.741821 3.8899 0
M  V30 5025 H 465.743 2.1097 4.09668 0
M  V30 5026 H 464.058 1.76441 3.77171 0
M  V30 5027 H 466.655 -0.5468 5.31897 0
M  V30 5028 H 466.998 -1.4877 3.8881 0
M  V30 5029 H 467.531 0.20898 3.97251 0
M  V30 5030 H 464.27 2.26959 6.14955 0
M  V30 5031 H 463.79 0.566314 5.97121 0
M  V30 5032 H 465.469 0.983226 6.39485 0
M  V30 5033 N 465.601 -1.54893 0.290851 0
M  V30 5034 C 466.548 -2.23138 -0.58974 0
M  V30 5035 C 467.518 -1.21036 -1.13752 0
M  V30 5036 O 468.703 -1.49626 -1.18392 0
M  V30 5037 C 465.843 -2.96811 -1.76061 0
M  V30 5038 C 464.956 -4.13665 -1.24519 0
M  V30 5039 C 464.091 -4.74944 -2.3791 0
M  V30 5040 C 463.13 -5.83963 -1.83451 0
M  V30 5041 N 462.267 -6.39239 -2.90376 0
M  V30 5042 H 467.107 -2.98 -0.00114915 0
M  V30 5043 H 464.644 -1.47096 0.0112006 0
M  V30 5044 H 466.602 -3.37751 -2.44909 0
M  V30 5045 H 465.232 -2.24344 -2.32098 0
M  V30 5046 H 464.284 -3.77737 -0.449288 0
M  V30 5047 H 465.596 -4.92238 -0.806424 0
M  V30 5048 H 464.75 -5.18684 -3.14724 0
M  V30 5049 H 463.489 -3.95682 -2.85109 0
M  V30 5050 H 462.494 -5.39657 -1.05122 0
M  V30 5051 H 463.719 -6.65103 -1.37169 0
M  V30 5052 H 461.665 -5.62864 -3.36927 0
M  V30 5053 H 461.582 -7.13129 -2.50965 0
M  V30 5054 H 462.85 -6.87637 -3.67118 0
M  V30 5055 N 467.08 -0.0183926 -1.57589 0
M  V30 5056 C 468.496 0.337897 -1.55982 0
M  V30 5057 C 468.696 1.73604 -1.02294 0
M  V30 5058 O 467.752 2.43589 -0.664895 0
M  V30 5059 C 469.065 0.196305 -3.00059 0
M  V30 5060 C 470.613 0.269875 -3.11834 0
M  V30 5061 C 471.088 0.157197 -4.5773 0
M  V30 5062 N 472.579 0.214521 -4.62703 0
M  V30 5063 C 473.314 0.150955 -5.73201 0
M  V30 5064 N 472.81 0.0369212 -6.9279 0
M  V30 5065 N 474.603 0.204162 -5.61729 0
M  V30 5066 H 466.754 -0.93279 -1.90821 0
M  V30 5067 H 469.017 -0.359253 -0.877292 0
M  V30 5068 H 468.723 -0.766383 -3.43248 0
M  V30 5069 H 468.597 0.970908 -3.6449 0
M  V30 5070 H 470.984 1.22302 -2.68563 0
M  V30 5071 H 471.065 -0.534918 -2.50144 0
M  V30 5072 H 470.709 -0.792479 -5.01679 0
M  V30 5073 H 470.639 0.980717 -5.17387 0
M  V30 5074 H 473.13 0.303238 -3.76681 0
M  V30 5075 H 473.443 -0.00518321 -7.728 0
M  V30 5076 H 471.788 0.0022886 -6.95 0
M  V30 5077 H 474.979 0.291575 -4.67191 0
M  V30 5078 H 475.152 0.15116 -6.47824 0
M  V30 5079 N 468.558 1.5553 0.254621 0
M  V30 5080 C 469.508 1.86057 1.31783 0
M  V30 5081 C 470.492 0.720827 1.4385 0
M  V30 5082 O 471.684 0.982586 1.47222 0
M  V30 5083 C 468.813 2.15203 2.67475 0
M  V30 5084 C 467.899 3.35484 2.59444 0
M  V30 5085 N 468.29 4.54945 2.2104 0
M  V30 5086 C 466.588 3.38441 2.90472 0
M  V30 5087 C 467.289 5.3707 2.23453 0
M  V30 5088 N 466.265 4.75936 2.62652 0
M  V30 5089 H 470.067 2.75953 1.01129 0
M  V30 5090 H 467.581 1.55653 0.463255 0
M  V30 5091 H 469.578 2.35235 3.44195 0
M  V30 5092 H 468.238 1.26601 2.99002 0
M  V30 5093 H 469.249 4.8071 1.92712 0
M  V30 5094 H 465.926 2.60087 3.2659 0
M  V30 5095 H 467.316 6.42626 1.96166 0
M  V30 5096 N 470.036 -0.519951 1.48776 0
M  V30 5097 C 471.282 -1.27711 1.57536 0
M  V30 5098 C 471.615 -1.92547 0.252866 0
M  V30 5099 O 470.89 -1.7979 -0.742021 0
M  V30 5100 C 471.173 -2.35875 2.72094 0
M  V30 5101 C 471.026 -1.75664 4.1408 0
M  V30 5102 C 472.345 -3.37575 2.82367 0
M  V30 5103 H 469.464 -0.462971 0.573434 0
M  V30 5104 H 472.106 -0.578194 1.80989 0
M  V30 5105 H 470.256 -2.95488 2.52228 0
M  V30 5106 H 471.928 -1.20025 4.45412 0
M  V30 5107 H 470.171 -1.06154 4.20611 0
M  V30 5108 H 470.842 -2.54029 4.90075 0
M  V30 5109 H 473.318 -2.87929 3.00393 0
M  V30 5110 H 472.194 -4.1064 3.64233 0
M  V30 5111 H 472.455 -3.98743 1.90936 0
M  V30 5112 N 471.514 -1.37532 -0.769588 0
M  V30 5113 C 472.761 -1.3286 -1.52822 0
M  V30 5114 C 473.089 0.0862597 -1.94309 0
M  V30 5115 O 472.344 1.05995 -1.6451 0
M  V30 5116 C 472.643 -2.21558 -2.8044 0
M  V30 5117 C 472.309 -3.69796 -2.57996 0
M  V30 5118 C 470.971 -4.10194 -2.51583 0
M  V30 5119 C 473.323 -4.63699 -2.37976 0
M  V30 5120 C 470.651 -5.42608 -2.23144 0
M  V30 5121 C 473.003 -5.96353 -2.1106 0
M  V30 5122 C 471.667 -6.35853 -2.03093 0
M  V30 5123 H 470.937 -0.486168 -0.559215 0
M  V30 5124 H 473.584 -1.69757 -0.886277 0
M  V30 5125 H 471.889 -1.77663 -3.49204 0
M  V30 5126 H 473.586 -2.15256 -3.38328 0
M  V30 5127 H 470.176 -3.37759 -2.63851 0
M  V30 5128 H 474.36 -4.33346 -2.41919 0
M  V30 5129 H 469.616 -5.72173 -2.15472 0
M  V30 5130 H 473.79 -6.68667 -1.94568 0
M  V30 5131 H 471.417 -7.38382 -1.8082 0
M  V30 5132 N 472.992 0.995999 -1.22138 0
M  V30 5133 C 474.222 1.76809 -1.06874 0
M  V30 5134 C 474.63 1.85265 0.383866 0
M  V30 5135 O 473.973 1.31969 1.27789 0
M  V30 5136 C 474.035 3.2186 -1.60144 0
M  V30 5137 C 473.699 3.36958 -3.0872 0
M  V30 5138 C 474.696 3.2452 -4.0618 0
M  V30 5139 C 472.381 3.62109 -3.48112 0
M  V30 5140 C 474.375 3.37013 -5.41019 0
M  V30 5141 C 472.062 3.74243 -4.831 0
M  V30 5142 C 473.06 3.61702 -5.79362 0
M  V30 5143 O 472.748 3.73436 -7.119 0
M  V30 5144 H 472.48 0.562207 -0.375365 0
M  V30 5145 H 475.034 1.26113 -1.62125 0
M  V30 5146 H 473.264 3.73734 -0.992981 0
M  V30 5147 H 474.953 3.80775 -1.40589 0
M  V30 5148 H 475.719 3.05004 -3.77091 0
M  V30 5149 H 471.598 3.70949 -2.73712 0
M  V30 5150 H 475.142 3.27141 -6.16137 0
M  V30 5151 H 471.039 3.93266 -5.11872 0
M  V30 5152 H 471.807 3.90328 -7.19435 0
M  V30 5153 N 474.47 1.03057 1.19235 0
M  V30 5154 C 475.695 0.74757 1.93458 0
M  V30 5155 C 476.12 -0.687648 1.7508 0
M  V30 5156 O 475.478 -1.47499 1.05422 0
M  V30 5157 C 475.526 1.10604 3.43219 0
M  V30 5158 O 474.63 0.225671 4.11782 0
M  V30 5159 H 473.971 0.276047 0.603899 0
M  V30 5160 H 476.501 1.3777 1.51263 0
M  V30 5161 H 476.511 1.06366 3.93891 0
M  V30 5162 H 475.186 2.15165 3.55917 0
M  V30 5163 H 473.763 0.326795 3.71465 0
M  V30 5164 N 475.948 -1.35272 0.808662 0
M  V30 5165 C 477.176 -2.02946 0.402537 0
M  V30 5166 C 477.591 -1.60937 -0.987147 0
M  V30 5167 O 476.948 -0.807917 -1.63643 0
M  V30 5168 C 476.999 -3.58317 0.47868 0
M  V30 5169 O 476.72 -3.98799 1.81358 0
M  V30 5170 C 478.221 -4.43251 0.0656281 0
M  V30 5171 H 475.441 -0.650831 0.163279 0
M  V30 5172 H 477.985 -1.72849 1.09286 0
M  V30 5173 H 476.14 -3.87055 -0.163415 0
M  V30 5174 H 476.554 -4.93451 1.77781 0
M  V30 5175 H 478.028 -5.51738 0.170017 0
M  V30 5176 H 478.505 -4.27913 -0.989278 0
M  V30 5177 H 479.111 -4.19813 0.68096 0
M  V30 5178 N 477.426 -0.562348 -1.47226 0
M  V30 5179 C 478.675 -0.038041 -2.01664 0
M  V30 5180 C 478.988 1.32199 -1.44162 0
M  V30 5181 O 480.194 1.9365 -1.90294 0
M  V30 5182 C 478.65 -0.0174958 -3.59896 0
M  V30 5183 C 478.258 -1.3746 -4.2639 0
M  V30 5184 C 480.002 0.453934 -4.22066 0
M  V30 5185 C 477.909 -1.31289 -5.76643 0
M  V30 5186 H 476.839 -0.0104511 -0.753928 0
M  V30 5187 H 479.49 -0.710966 -1.69167 0
M  V30 5188 H 477.872 0.721182 -3.89378 0
M  V30 5189 H 479.046 -2.1314 -4.08544 0
M  V30 5190 H 477.361 -1.78438 -3.7623 0
M  V30 5191 H 479.958 0.518584 -5.32179 0
M  V30 5192 H 480.301 1.46706 -3.89594 0
M  V30 5193 H 480.834 -0.230044 -3.97134 0
M  V30 5194 H 477.573 -2.30217 -6.13743 0
M  V30 5195 H 477.093 -0.597973 -5.96812 0
M  V30 5196 H 478.772 -1.01713 -6.38955 0
M  V30 5197 N 478.904 1.54736 -0.299062 0
M  V30 5198 C 480.181 1.92187 0.363802 0
M  V30 5199 C 480.561 1.22607 1.71845 0
M  V30 5200 O 479.909 0.361141 2.25628 0
M  V30 5201 C 480.119 3.45678 0.480377 0
M  V30 5202 C 481.467 4.17885 0.752147 0
M  V30 5203 O 482.491 3.51702 0.564264 0
M  V30 5204 O 481.35 5.35048 1.11294 0
M  V30 5205 H 478.444 0.801681 0.203066 0
M  V30 5206 H 480.99 1.66115 -0.346978 0
M  V30 5207 H 479.762 3.88443 -0.471999 0
M  V30 5208 H 479.385 3.77779 1.2397 0
M  V30 5209 N 480.382 0.0267497 1.57577 0
M  V30 5210 C 481.628 -0.647596 1.92815 0
M  V30 5211 C 481.983 -1.69872 0.903396 0
M  V30 5212 O 481.276 -1.91429 -0.0808881 0
M  V30 5213 C 481.47 -1.30914 3.3256 0
M  V30 5214 C 481.299 -0.323621 4.48534 0
M  V30 5215 C 480.069 0.0756607 5.05243 0
M  V30 5216 C 482.267 0.42112 5.12573 0
M  V30 5217 N 480.249 1.0566 6.04739 0
M  V30 5218 C 481.62 1.25589 6.07147 0
M  V30 5219 C 483.675 0.482077 4.95561 0
M  V30 5220 C 482.378 2.1461 6.86538 0
M  V30 5221 C 484.404 1.35962 5.75559 0
M  V30 5222 C 483.766 2.18217 6.69747 0
M  V30 5223 H 479.865 -0.209357 0.753454 0
M  V30 5224 H 482.449 0.0933695 1.94476 0
M  V30 5225 H 480.62 -2.02026 3.31723 0
M  V30 5226 H 482.352 -1.94033 3.55153 0
M  V30 5227 H 479.107 -0.298294 4.7266 0
M  V30 5228 H 479.531 1.54324 6.59176 0
M  V30 5229 H 484.173 -0.139609 4.22569 0
M  V30 5230 H 481.891 2.77835 7.58837 0
M  V30 5231 H 485.477 1.41105 5.6443 0
M  V30 5232 H 484.357 2.85022 7.3057 0
M  V30 5233 N 481.861 -1.55662 -0.24637 0
M  V30 5234 C 482.809 -1.91186 -1.3248 0
M  V30 5235 C 483.803 -0.790996 -1.49799 0
M  V30 5236 O 485.009 -0.975617 -1.51267 0
M  V30 5237 H 481.384 -0.607207 -0.443626 0
M  V30 5238 H 483.355 -2.81221 -0.997853 0
M  V30 5239 C 482.104 -2.22349 -2.67313 0
M  V30 5240 H 481.427 -3.08097 -2.54786 0
M  V30 5241 H 482.867 -2.51107 -3.41645 0
M  V30 5242 C 481.326 -1.04001 -3.20446 0
M  V30 5243 O 481.856 -0.28828 -4.00664 0
M  V30 5244 N 480.062 -0.830494 -2.7848 0
M  V30 5245 H 479.609 -1.4435 -2.13356 0
M  V30 5246 H 479.567 -0.0403258 -3.14374 0
M  V30 5247 N 483.339 0.512053 -1.4905 0
M  V30 5248 C 484.286 1.6148 -1.64902 0
M  V30 5249 C 485.256 1.58687 -0.490673 0
M  V30 5250 O 486.441 1.76842 -0.71636 0
M  V30 5251 C 483.581 2.99676 -1.71139 0
M  V30 5252 C 482.694 3.12568 -2.98203 0
M  V30 5253 C 481.829 4.4143 -2.95487 0
M  V30 5254 C 480.868 4.47916 -4.17179 0
M  V30 5255 N 480.005 5.68191 -4.12437 0
M  V30 5256 H 484.845 1.47271 -2.59066 0
M  V30 5257 H 482.382 0.716713 -1.28459 0
M  V30 5258 H 484.34 3.79761 -1.72736 0
M  V30 5259 H 482.97 3.12614 -0.804508 0
M  V30 5260 H 482.022 2.25618 -3.06269 0
M  V30 5261 H 483.334 3.1322 -3.88194 0
M  V30 5262 H 482.488 5.29825 -2.95585 0
M  V30 5263 H 481.227 4.43326 -2.03256 0
M  V30 5264 H 480.232 3.57925 -4.17337 0
M  V30 5265 H 481.457 4.47744 -5.1059 0
M  V30 5266 H 479.403 5.7095 -3.23036 0
M  V30 5267 H 479.32 5.70413 -4.96151 0
M  V30 5268 H 480.588 6.58823 -4.16621 0
M  V30 5269 N 484.817 1.37938 0.762283 0
M  V30 5270 C 485.747 1.37176 1.88958 0
M  V30 5271 C 486.728 0.238945 1.68413 0
M  V30 5272 O 487.913 0.440726 1.89133 0
M  V30 5273 C 485.043 1.18742 3.2637 0
M  V30 5274 C 483.997 2.29136 3.61498 0
M  V30 5275 C 483.323 1.95816 4.97554 0
M  V30 5276 C 484.623 3.71363 3.6727 0
M  V30 5277 H 486.317 2.31509 1.89853 0
M  V30 5278 H 483.863 1.11438 0.912005 0
M  V30 5279 H 485.816 1.16837 4.04879 0
M  V30 5280 H 484.54 0.208683 3.25933 0
M  V30 5281 H 483.199 2.30213 2.85303 0
M  V30 5282 H 482.847 0.964475 4.93667 0
M  V30 5283 H 482.547 2.69745 5.22026 0
M  V30 5284 H 484.071 1.95513 5.78452 0
M  V30 5285 H 485.485 3.72364 4.35911 0
M  V30 5286 H 483.882 4.44425 4.03245 0
M  V30 5287 H 484.952 4.04305 2.67704 0
M  V30 5288 N 486.295 -0.989507 1.22664 0
M  V30 5289 C 487.525 -1.7624 1.0781 0
M  V30 5290 C 487.933 -1.85466 -0.374036 0
M  V30 5291 O 487.276 -1.32645 -1.27087 0
M  V30 5292 C 487.338 -3.21007 1.61849 0
M  V30 5293 C 487.002 -3.35316 3.10503 0
M  V30 5294 C 487.999 -3.22362 4.07896 0
M  V30 5295 C 485.684 -3.60258 3.50028 0
M  V30 5296 C 487.678 -3.34139 5.42798 0
M  V30 5297 C 485.365 -3.71676 4.85078 0
M  V30 5298 C 486.363 -3.58625 5.81272 0
M  V30 5299 O 486.051 -3.69655 7.1387 0
M  V30 5300 H 485.783 -0.560209 0.378341 0
M  V30 5301 H 488.337 -1.25252 1.62792 0
M  V30 5302 H 486.567 -3.73202 1.01279 0
M  V30 5303 H 488.256 -3.80024 1.42606 0
M  V30 5304 H 489.022 -3.03 3.78703 0
M  V30 5305 H 484.901 -3.69492 2.75675 0
M  V30 5306 H 488.445 -3.23869 6.17863 0
M  V30 5307 H 484.342 -3.90545 5.1395 0
M  V30 5308 H 485.11 -3.86507 7.21495 0
M  V30 5309 N 487.773 -1.03688 -1.18687 0
M  V30 5310 C 489.189 -0.755413 -1.4059 0
M  V30 5311 C 489.389 0.656659 -1.905 0
M  V30 5312 O 488.445 1.42144 -2.08689 0
M  V30 5313 C 489.758 -1.7983 -2.41001 0
M  V30 5314 C 491.306 -1.81877 -2.54735 0
M  V30 5315 C 491.781 -2.85148 -3.58406 0
M  V30 5316 N 493.272 -2.84015 -3.6591 0
M  V30 5317 C 494.007 -3.60573 -4.45841 0
M  V30 5318 N 493.503 -4.46871 -5.29413 0
M  V30 5319 N 495.296 -3.49079 -4.40568 0
M  V30 5320 H 487.447 -1.94818 -0.846148 0
M  V30 5321 H 489.71 -0.842727 -0.434184 0
M  V30 5322 H 489.416 -2.81097 -2.1137 0
M  V30 5323 H 489.29 -1.62727 -3.40294 0
M  V30 5324 H 491.677 -0.812836 -2.83685 0
M  V30 5325 H 491.758 -2.03057 -1.55568 0
M  V30 5326 H 491.402 -3.85918 -3.30197 0
M  V30 5327 H 491.332 -2.61224 -4.57241 0
M  V30 5328 H 493.823 -2.21431 -3.0623 0
M  V30 5329 H 494.136 -5.02007 -5.87545 0
M  V30 5330 H 492.481 -4.5094 -5.28846 0
M  V30 5331 H 495.672 -2.81066 -3.74325 0
M  V30 5332 H 495.845 -4.08994 -5.02621 0
M  V30 5333 N 489.251 1.34841 -0.815825 0
M  V30 5334 C 490.667 1.51543 -0.500697 0
M  V30 5335 C 490.867 1.76261 0.976444 0
M  V30 5336 O 489.923 1.8094 1.76117 0
M  V30 5337 C 491.236 2.68487 -1.35407 0
M  V30 5338 C 492.784 2.82368 -1.35046 0
M  V30 5339 C 493.259 4.02347 -2.18816 0
M  V30 5340 N 494.75 4.09542 -2.16402 0
M  V30 5341 C 495.485 5.01517 -2.77971 0
M  V30 5342 N 494.981 5.98763 -3.48503 0
M  V30 5343 N 496.774 4.94334 -2.67563 0
M  V30 5344 H 488.925 1.17055 -1.77234 0
M  V30 5345 H 491.188 0.573481 -0.754866 0
M  V30 5346 H 490.894 2.56829 -2.40274 0
M  V30 5347 H 490.768 3.63321 -1.01377 0
M  V30 5348 H 493.155 2.93471 -0.309604 0
M  V30 5349 H 493.236 1.88363 -1.73069 0
M  V30 5350 H 492.88 3.92004 -3.22948 0
M  V30 5351 H 492.81 4.95551 -1.78148 0
M  V30 5352 H 495.301 3.39932 -1.65091 0
M  V30 5353 H 495.614 6.6556 -3.92747 0
M  V30 5354 H 493.959 5.98909 -3.52609 0
M  V30 5355 H 497.15 4.1732 -2.12041 0
M  V30 5356 H 497.323 5.6582 -3.15834 0
M  V30 5357 N 490.729 0.570148 1.46925 0
M  V30 5358 C 491.639 -0.173061 2.33961 0
M  V30 5359 C 492.655 -0.898825 1.48987 0
M  V30 5360 O 493.831 -0.864825 1.81887 0
M  V30 5361 C 490.896 -1.18177 3.25937 0
M  V30 5362 C 489.957 -0.462041 4.26806 0
M  V30 5363 C 489.19 -1.4227 5.14388 0
M  V30 5364 O 489.413 -2.65842 5.04662 0
M  V30 5365 O 488.347 -0.940127 5.94513 0
M  V30 5366 H 492.173 0.541216 2.98839 0
M  V30 5367 H 489.758 0.330647 1.45695 0
M  V30 5368 H 491.64 -1.76372 3.82715 0
M  V30 5369 H 490.315 -1.87774 2.63671 0
M  V30 5370 H 489.222 0.161429 3.73752 0
M  V30 5371 H 490.555 0.192719 4.91823 0
M  V30 5372 N 492.207 -1.54576 0.307264 0
M  V30 5373 C 493.456 -1.99442 -0.300976 0
M  V30 5374 C 493.769 -1.19928 -1.5452 0
M  V30 5375 O 494.975 -1.55092 -2.22842 0
M  V30 5376 C 493.431 -3.55084 -0.586809 0
M  V30 5377 C 493.039 -4.43413 0.639438 0
M  V30 5378 C 494.783 -4.0846 -1.1559 0
M  V30 5379 C 492.69 -5.90499 0.326411 0
M  V30 5380 H 491.62 -0.744986 -0.116238 0
M  V30 5381 H 494.271 -1.787 0.416947 0
M  V30 5382 H 492.653 -3.71749 -1.36449 0
M  V30 5383 H 493.827 -4.38522 1.41545 0
M  V30 5384 H 492.142 -4.00842 1.1276 0
M  V30 5385 H 494.739 -5.15926 -1.40445 0
M  V30 5386 H 495.082 -3.59443 -2.10015 0
M  V30 5387 H 495.615 -3.95362 -0.439778 0
M  V30 5388 H 492.354 -6.43676 1.23939 0
M  V30 5389 H 491.874 -5.98382 -0.412212 0
M  V30 5390 H 493.553 -6.46962 -0.0697393 0
M  V30 5391 N 493.685 -0.035106 -1.57561 0
M  V30 5392 C 494.632 0.94474 -2.10578 0
M  V30 5393 C 495.602 1.3192 -1.00927 0
M  V30 5394 O 496.787 1.41147 -1.28382 0
M  V30 5395 C 493.927 2.21982 -2.64231 0
M  V30 5396 C 493.04 1.90128 -3.87911 0
M  V30 5397 C 492.175 3.11975 -4.29936 0
M  V30 5398 C 491.214 2.75968 -5.46359 0
M  V30 5399 N 490.351 3.90459 -5.83512 0
M  V30 5400 H 495.191 0.485717 -2.94015 0
M  V30 5401 H 492.728 0.228143 -1.4532 0
M  V30 5402 H 494.686 2.96572 -2.9343 0
M  V30 5403 H 493.316 2.6549 -1.83616 0
M  V30 5404 H 492.368 1.05755 -3.65404 0
M  V30 5405 H 493.68 1.59613 -4.72573 0
M  V30 5406 H 492.834 3.9488 -4.60603 0
M  V30 5407 H 491.573 3.45657 -3.44053 0
M  V30 5408 H 490.578 1.91478 -5.1538 0
M  V30 5409 H 491.803 2.43497 -6.33945 0
M  V30 5410 H 489.749 4.23971 -5.00584 0
M  V30 5411 H 489.666 3.63588 -6.62827 0
M  V30 5412 H 490.934 4.7405 -6.18787 0
M  V30 5413 N 495.163 1.55791 0.238111 0
M  V30 5414 C 496.574 1.68383 0.806472 0
M  V30 5415 C 496.925 0.634157 1.85669 0
M  V30 5416 O 496.05 -0.217913 2.153 0
M  V30 5417 C 496.645 3.05268 1.46959 0
M  V30 5418 C 495.204 3.1977 1.98555 0
M  V30 5419 C 494.351 2.64279 0.839763 0
M  V30 5420 H 497.302 1.58694 0.0137535 0
M  V30 5421 H 497.323 3.00203 2.33792 0
M  V30 5422 H 496.835 3.81643 0.704993 0
M  V30 5423 H 494.936 2.48234 2.77868 0
M  V30 5424 H 495.049 4.26788 2.17689 0
M  V30 5425 H 493.413 2.22329 1.24265 0
M  V30 5426 H 494.196 3.43187 0.0881032 0
M  V30 5427 N 496.642 -0.504142 1.49319 0
M  V30 5428 C 498.053 -1.08572 1.51885 0
M  V30 5429 C 498.404 -1.93842 0.303255 0
M  V30 5430 O 497.529 -2.0828 -0.58724 0
M  V30 5431 C 498.124 -1.97574 2.75227 0
M  V30 5432 C 496.683 -2.509 2.80581 0
M  V30 5433 C 495.83 -1.28447 2.45757 0
M  V30 5434 H 498.781 -0.288194 1.56061 0
M  V30 5435 H 498.802 -2.82219 2.55211 0
M  V30 5436 H 498.314 -1.35486 3.63683 0
M  V30 5437 H 496.415 -3.16636 1.96398 0
M  V30 5438 H 496.528 -2.88268 3.82673 0
M  V30 5439 H 494.892 -1.60868 1.97468 0
M  V30 5440 H 495.675 -0.68072 3.36483 0
M  V30 5441 N 498.12 -1.38341 -0.754957 0
M  V30 5442 C 499.367 -1.34473 -1.51404 0
M  V30 5443 C 499.695 0.0656458 -1.94389 0
M  V30 5444 O 498.95 1.04244 -1.65625 0
M  V30 5445 C 499.249 -2.2452 -2.78075 0
M  V30 5446 C 498.915 -3.72512 -2.54059 0
M  V30 5447 C 497.577 -4.1284 -2.47218 0
M  V30 5448 C 499.929 -4.66197 -2.33044 0
M  V30 5449 C 497.257 -5.44945 -2.17376 0
M  V30 5450 C 499.609 -5.98558 -2.04723 0
M  V30 5451 C 498.273 -6.37972 -1.96337 0
M  V30 5452 H 497.543 -0.492072 -0.554027 0
M  V30 5453 H 500.19 -1.70687 -0.868223 0
M  V30 5454 H 498.495 -1.81357 -3.473 0
M  V30 5455 H 500.192 -2.18832 -3.36026 0
M  V30 5456 H 496.782 -3.40538 -2.60253 0
M  V30 5457 H 500.966 -4.35888 -2.37309 0
M  V30 5458 H 496.222 -5.74426 -2.09391 0
M  V30 5459 H 500.396 -6.70693 -1.87465 0
M  V30 5460 H 498.023 -7.40258 -1.72978 0
M  V30 5461 N 499.598 0.982988 -1.23187 0
M  V30 5462 C 500.545 2.07491 -1.01075 0
M  V30 5463 C 501.515 1.65949 0.070905 0
M  V30 5464 O 502.7 1.90629 -0.0806822 0
M  V30 5465 C 499.84 3.39751 -0.605261 0
M  V30 5466 C 498.953 3.94578 -1.75876 0
M  V30 5467 C 498.088 5.15039 -1.3003 0
M  V30 5468 C 497.127 5.62027 -2.42472 0
M  V30 5469 N 496.264 6.73719 -1.97602 0
M  V30 5470 H 501.104 2.25739 -1.9454 0
M  V30 5471 H 498.641 1.10659 -0.969179 0
M  V30 5472 H 500.599 4.15719 -0.351279 0
M  V30 5473 H 499.229 3.21473 0.292382 0
M  V30 5474 H 498.281 3.1539 -2.12681 0
M  V30 5475 H 499.593 4.25422 -2.60418 0
M  V30 5476 H 498.747 5.9833 -1.00429 0
M  V30 5477 H 497.486 4.85843 -0.425216 0
M  V30 5478 H 496.491 4.77318 -2.7285 0
M  V30 5479 H 497.716 5.93244 -3.30512 0
M  V30 5480 H 495.662 6.46287 -1.1247 0
M  V30 5481 H 495.579 7.03934 -2.75705 0
M  V30 5482 H 496.847 7.6049 -1.71098 0
M  V30 5483 N 501.076 1.04316 1.18135 0
M  V30 5484 C 502.487 0.775505 1.69832 0
M  V30 5485 C 502.838 -0.703348 1.8316 0
M  V30 5486 O 501.963 -1.54729 1.51287 0
M  V30 5487 C 502.558 1.40112 3.0847 0
M  V30 5488 C 501.117 1.18172 3.57368 0
M  V30 5489 C 500.264 1.49022 2.33854 0
M  V30 5490 H 503.215 1.20925 1.02775 0
M  V30 5491 H 503.236 0.805672 3.71873 0
M  V30 5492 H 502.748 2.47744 2.98738 0
M  V30 5493 H 500.849 0.124258 3.72393 0
M  V30 5494 H 500.962 1.8805 4.40652 0
M  V30 5495 H 499.326 0.909995 2.37889 0
M  V30 5496 H 500.109 2.57768 2.26738 0
M  V30 5497 N 502.554 -1.34406 0.822964 0
M  V30 5498 C 503.517 -2.2783 0.250271 0
M  V30 5499 C 504.517 -1.50288 -0.571854 0
M  V30 5500 O 505.707 -1.69825 -0.387952 0
M  V30 5501 C 502.839 -3.34663 -0.649137 0
M  V30 5502 H 504.032 -2.79992 1.07444 0
M  V30 5503 H 501.585 -1.44539 0.594829 0
M  V30 5504 H 502.32 -2.87714 -1.49637 0
M  V30 5505 H 502.105 -3.92052 -0.0611199 0
M  V30 5506 H 503.595 -4.04349 -1.04363 0
M  V30 5507 N 504.032 -0.577932 -1.46621 0
M  V30 5508 C 505.278 -0.0617793 -2.02706 0
M  V30 5509 C 505.611 1.29294 -1.44903 0
M  V30 5510 O 504.886 1.8461 -0.61232 0
M  V30 5511 C 505.169 0.00911824 -3.60099 0
M  V30 5512 C 505.022 -1.37416 -4.28295 0
M  V30 5513 C 506.341 0.712159 -4.343 0
M  V30 5514 H 503.46 -0.0239246 -0.736612 0
M  V30 5515 H 506.102 -0.744211 -1.74818 0
M  V30 5516 H 504.252 0.590292 -3.83989 0
M  V30 5517 H 505.924 -2.00013 -4.15683 0
M  V30 5518 H 504.167 -1.94319 -3.87843 0
M  V30 5519 H 504.838 -1.27707 -5.37024 0
M  V30 5520 H 507.314 0.218486 -4.15526 0
M  V30 5521 H 506.19 0.730782 -5.44014 0
M  V30 5522 H 506.451 1.77251 -4.05012 0
M  V30 5523 N 505.51 1.54411 -0.315457 0
M  V30 5524 C 506.473 2.22713 0.54142 0
M  V30 5525 C 507.473 1.2179 1.04995 0
M  V30 5526 O 508.663 1.46426 0.943667 0
M  V30 5527 C 505.795 2.92485 1.75116 0
M  V30 5528 H 506.988 2.99849 -0.0555508 0
M  V30 5529 H 504.541 1.56159 -0.0664453 0
M  V30 5530 H 505.276 2.19466 2.38758 0
M  V30 5531 H 505.061 3.66483 1.39401 0
M  V30 5532 H 506.551 3.44548 2.35959 0
M  V30 5533 N 506.988 0.0434614 1.5754 0
M  V30 5534 C 507.92 -0.962586 2.08007 0
M  V30 5535 C 508.933 -1.27972 1.00634 0
M  V30 5536 O 510.122 -1.24186 1.28219 0
M  V30 5537 C 507.222 -2.28621 2.50171 0
M  V30 5538 C 506.395 -2.15214 3.80791 0
M  V30 5539 C 505.454 -3.30633 4.09351 0
M  V30 5540 O 504.48 -3.0688 4.79388 0
M  V30 5541 N 505.682 -4.54873 3.60654 0
M  V30 5542 H 508.447 -0.531891 2.94942 0
M  V30 5543 H 506.008 -0.142965 1.61268 0
M  V30 5544 H 508 -3.04689 2.66359 0
M  V30 5545 H 506.57 -2.63283 1.68525 0
M  V30 5546 H 505.79 -1.23785 3.74261 0
M  V30 5547 H 507.078 -2.03475 4.66343 0
M  V30 5548 H 506.476 -4.77063 3.04019 0
M  V30 5549 H 505.033 -5.2806 3.82094 0
M  V30 5550 N 508.466 -1.55915 -0.229846 0
M  V30 5551 C 509.877 -1.68809 -0.797531 0
M  V30 5552 C 510.228 -0.643995 -1.8533 0
M  V30 5553 O 509.353 0.206492 -2.15413 0
M  V30 5554 C 509.948 -3.06043 -1.45338 0
M  V30 5555 C 508.507 -3.20819 -1.96856 0
M  V30 5556 C 507.654 -2.6472 -0.825736 0
M  V30 5557 H 510.605 -1.58699 -0.00533733 0
M  V30 5558 H 510.626 -3.01438 -2.32196 0
M  V30 5559 H 510.138 -3.82012 -0.684743 0
M  V30 5560 H 508.239 -2.49704 -2.76548 0
M  V30 5561 H 508.352 -4.27937 -2.15423 0
M  V30 5562 H 506.716 -2.22985 -1.23084 0
M  V30 5563 H 507.499 -3.43229 -0.0699019 0
M  V30 5564 N 509.944 0.496216 -1.49584 0
M  V30 5565 C 511.221 1.25755 -1.49816 0
M  V30 5566 C 511.601 2.09859 -0.228572 0
M  V30 5567 O 510.949 2.14449 0.788908 0
M  V30 5568 C 511.159 2.11017 -2.7798 0
M  V30 5569 C 512.507 2.70047 -3.27658 0
M  V30 5570 O 513.531 2.21281 -2.79129 0
M  V30 5571 O 512.39 3.58834 -4.1219 0
M  V30 5572 H 509.484 0.569322 -0.599834 0
M  V30 5573 H 512.03 0.510094 -1.61852 0
M  V30 5574 H 510.802 1.48879 -3.61871 0
M  V30 5575 H 510.425 2.92947 -2.68827 0
M  V30 5576 N 511.423 1.38739 0.74761 0
M  V30 5577 C 512.7 1.25791 1.49786 0
M  V30 5578 C 513.08 -0.138075 2.10648 0
M  V30 5579 O 512.428 -1.14815 1.9756 0
M  V30 5580 C 512.638 2.37265 2.55942 0
M  V30 5581 C 513.986 2.75978 3.22679 0
M  V30 5582 O 515.01 2.36621 2.6625 0
M  V30 5583 O 513.869 3.43867 4.24756 0
M  V30 5584 H 510.963 0.492251 0.664543 0
M  V30 5585 H 513.509 1.50582 0.782511 0
M  V30 5586 H 512.281 3.30644 2.0926 0
M  V30 5587 H 511.904 2.14071 3.35051 0
M  V30 5588 N 512.901 -0.976442 1.23707 0
M  V30 5589 C 514.129 -1.75341 1.09833 0
M  V30 5590 C 514.544 -1.8553 -0.349885 0
M  V30 5591 O 513.901 -1.33732 -1.24185 0
M  V30 5592 C 513.952 -3.17833 1.72233 0
M  V30 5593 O 513.673 -3.08167 3.11391 0
M  V30 5594 C 515.174 -4.11906 1.63853 0
M  V30 5595 H 512.394 -0.550137 0.384175 0
M  V30 5596 H 514.938 -1.2265 1.63638 0
M  V30 5597 H 513.093 -3.67538 1.22452 0
M  V30 5598 H 513.507 -3.97897 3.41729 0
M  V30 5599 H 514.981 -5.09579 2.12211 0
M  V30 5600 H 515.458 -4.35109 0.598092 0
M  V30 5601 H 516.064 -3.68107 2.13019 0
M  V30 5602 N 514.379 -1.04941 -1.1758 0
M  V30 5603 C 515.626 -0.757989 -1.87779 0
M  V30 5604 C 515.954 0.714827 -1.80888 0
M  V30 5605 O 515.209 1.53824 -1.20982 0
M  V30 5606 C 515.508 -1.18062 -3.37337 0
M  V30 5607 C 515.174 -2.65521 -3.6443 0
M  V30 5608 C 513.836 -3.05804 -3.71534 0
M  V30 5609 C 516.188 -3.60822 -3.76108 0
M  V30 5610 C 513.516 -4.40256 -3.87803 0
M  V30 5611 C 515.868 -4.95005 -3.93895 0
M  V30 5612 C 514.532 -5.34945 -3.99237 0
M  V30 5613 H 513.802 -0.277368 -0.68713 0
M  V30 5614 H 516.449 -1.31603 -1.39115 0
M  V30 5615 H 514.754 -0.541525 -3.8804 0
M  V30 5616 H 516.451 -0.932368 -3.9001 0
M  V30 5617 H 513.041 -2.33324 -3.59524 0
M  V30 5618 H 517.225 -3.30841 -3.69943 0
M  V30 5619 H 512.481 -4.70707 -3.90186 0
M  V30 5620 H 516.655 -5.68746 -4.01872 0
M  V30 5621 H 514.282 -6.39135 -4.11596 0
M  V30 5622 N 515.857 1.33968 -0.830081 0
M  V30 5623 C 517.087 2.01987 -0.434142 0
M  V30 5624 C 517.495 1.62639 0.96671 0
M  V30 5625 O 516.838 0.831151 1.63822 0
M  V30 5626 C 516.9 3.5648 -0.465018 0
M  V30 5627 C 516.564 4.19176 -1.82045 0
M  V30 5628 C 517.561 4.39181 -2.78237 0
M  V30 5629 C 515.246 4.55792 -2.11089 0
M  V30 5630 C 517.24 4.94937 -4.01642 0
M  V30 5631 C 514.927 5.11258 -3.34752 0
M  V30 5632 C 515.925 5.30775 -4.29845 0
M  V30 5633 O 515.613 5.85064 -5.51322 0
M  V30 5634 H 515.345 0.653847 -0.171639 0
M  V30 5635 H 517.899 1.72066 -1.12171 0
M  V30 5636 H 516.129 3.8569 0.279284 0
M  V30 5637 H 517.818 4.05804 -0.0881334 0
M  V30 5638 H 518.584 4.11249 -2.57097 0
M  V30 5639 H 514.463 4.39901 -1.3787 0
M  V30 5640 H 518.007 5.10086 -4.75876 0
M  V30 5641 H 513.904 5.38619 -3.55753 0
M  V30 5642 H 514.672 6.03489 -5.5294 0
M  V30 5643 N 517.335 0.585699 1.46312 0
M  V30 5644 C 518.582 0.0724211 2.0237 0
M  V30 5645 C 518.91 -1.28868 1.45683 0
M  V30 5646 O 518.165 -1.85853 0.612945 0
M  V30 5647 C 518.464 -0.0401312 3.57377 0
M  V30 5648 C 518.13 1.25376 4.33119 0
M  V30 5649 C 516.792 1.60824 4.5353 0
M  V30 5650 C 519.144 2.10987 4.76586 0
M  V30 5651 C 516.472 2.81676 5.14661 0
M  V30 5652 C 518.824 3.31068 5.39052 0
M  V30 5653 C 517.488 3.66794 5.5769 0
M  V30 5654 H 516.758 0.0265007 0.740526 0
M  V30 5655 H 519.405 0.762935 1.75646 0
M  V30 5656 H 517.71 -0.813791 3.83255 0
M  V30 5657 H 519.407 -0.453078 3.98432 0
M  V30 5658 H 515.997 0.967808 4.1753 0
M  V30 5659 H 520.181 1.84904 4.60569 0
M  V30 5660 H 515.437 3.0949 5.27282 0
M  V30 5661 H 519.611 3.97672 5.71691 0
M  V30 5662 H 517.238 4.60529 6.04828 0
M  V30 5663 N 518.813 -1.54241 0.323641 0
M  V30 5664 C 520.09 -1.92741 -0.333181 0
M  V30 5665 C 520.47 -1.25326 -1.69872 0
M  V30 5666 O 519.818 -0.396991 -2.25025 0
M  V30 5667 C 520.028 -3.46399 -0.425322 0
M  V30 5668 C 521.376 -4.19029 -0.68557 0
M  V30 5669 O 522.4 -3.52555 -0.50824 0
M  V30 5670 O 521.259 -5.36751 -1.02767 0
M  V30 5671 H 518.353 -0.804811 -0.190286 0
M  V30 5672 H 520.899 -1.65542 0.373361 0
M  V30 5673 H 519.671 -3.87643 0.533737 0
M  V30 5674 H 519.294 -3.79704 -1.17944 0
M  V30 5675 N 520.291 -0.0518155 -1.57515 0
M  V30 5676 C 521.519 0.631395 -1.9703 0
M  V30 5677 C 521.934 1.64341 -0.92938 0
M  V30 5678 O 521.291 1.82296 0.0863266 0
M  V30 5679 C 521.342 1.31774 -3.36627 0
M  V30 5680 O 521.063 0.346247 -4.3673 0
M  V30 5681 C 522.564 2.09065 -3.90905 0
M  V30 5682 H 519.784 0.172576 -0.648428 0
M  V30 5683 H 522.328 -0.118306 -2.04158 0
M  V30 5684 H 520.483 2.01867 -3.30649 0
M  V30 5685 H 520.897 0.836226 -5.17791 0
M  V30 5686 H 522.371 2.52508 -4.9086 0
M  V30 5687 H 522.848 2.93908 -3.26366 0
M  V30 5688 H 523.454 1.43882 -4.00223 0
M  V30 5689 N 521.769 1.56035 0.221574 0
M  V30 5690 C 522.679 1.95581 1.29558 0
M  V30 5691 C 523.695 0.859639 1.51282 0
M  V30 5692 O 524.871 1.16321 1.64413 0
M  V30 5693 C 521.936 2.26447 2.62531 0
M  V30 5694 C 520.997 3.49632 2.4911 0
M  V30 5695 C 520.23 3.79017 3.75742 0
M  V30 5696 O 520.453 3.10077 4.78757 0
M  V30 5697 O 519.387 4.72507 3.72855 0
M  V30 5698 H 523.213 2.8711 0.990035 0
M  V30 5699 H 520.798 1.43244 0.424434 0
M  V30 5700 H 522.68 2.47494 3.41064 0
M  V30 5701 H 521.355 1.38092 2.92766 0
M  V30 5702 H 520.262 3.33864 1.68777 0
M  V30 5703 H 521.595 4.3837 2.23814 0
M  V30 5704 N 523.247 -0.488276 1.49845 0
M  V30 5705 C 524.494 -1.24157 1.59973 0
M  V30 5706 C 524.822 -1.92293 0.292182 0
M  V30 5707 O 524.077 -1.81942 -0.720813 0
M  V30 5708 C 524.376 -2.32152 2.71735 0
M  V30 5709 C 524.042 -1.81387 4.12807 0
M  V30 5710 C 522.704 -1.67262 4.51195 0
M  V30 5711 C 525.056 -1.43537 5.01045 0
M  V30 5712 C 522.384 -1.13685 5.7558 0
M  V30 5713 C 524.736 -0.914081 6.25961 0
M  V30 5714 C 523.4 -0.759327 6.63167 0
M  V30 5715 H 522.67 -0.454322 0.585383 0
M  V30 5716 H 525.317 -0.540261 1.83721 0
M  V30 5717 H 523.622 -3.08122 2.42008 0
M  V30 5718 H 525.319 -2.90164 2.76778 0
M  V30 5719 H 521.909 -1.93344 3.82513 0
M  V30 5720 H 526.093 -1.53292 4.72033 0
M  V30 5721 H 521.349 -1.00426 6.03096 0
M  V30 5722 H 525.523 -0.612066 6.93705 0
M  V30 5723 H 523.15 -0.342002 7.5943 0
M  V30 5724 N 524.725 -1.39134 -0.740242 0
M  V30 5725 C 525.953 -1.39334 -1.5295 0
M  V30 5726 C 526.368 0.0135008 -1.88795 0
M  V30 5727 O 525.725 0.983524 -1.5373 0
M  V30 5728 C 525.776 -2.2614 -2.82034 0
M  V30 5729 O 525.497 -3.61345 -2.47712 0
M  V30 5730 C 526.998 -2.34666 -3.76094 0
M  V30 5731 H 524.218 -0.476103 -0.472828 0
M  V30 5732 H 526.762 -1.82883 -0.9151 0
M  V30 5733 H 524.917 -1.86018 -3.39818 0
M  V30 5734 H 525.331 -4.07194 -3.30595 0
M  V30 5735 H 526.805 -2.99663 -4.63579 0
M  V30 5736 H 527.282 -1.36426 -4.17474 0
M  V30 5737 H 527.888 -2.75236 -3.2423 0
M  V30 5738 N 526.204 0.969867 -1.24223 0
M  V30 5739 C 527.429 1.75289 -1.10853 0
M  V30 5740 C 527.854 1.85091 0.335079 0
M  V30 5741 O 527.212 1.32024 1.24255 0
M  V30 5742 C 527.26 3.15255 -1.75062 0
M  V30 5743 O 526.364 3.99589 -1.01992 0
M  V30 5744 H 525.705 0.538904 -0.387915 0
M  V30 5745 H 528.235 1.21675 -1.64488 0
M  V30 5746 H 528.245 3.65787 -1.80731 0
M  V30 5747 H 526.92 3.07436 -2.801 0
M  V30 5748 H 525.497 3.58077 -1.04094 0
M  V30 5749 N 527.682 1.05563 1.17022 0
M  V30 5750 C 529.098 0.777684 1.39371 0
M  V30 5751 C 529.298 -0.626269 1.91521 0
M  V30 5752 O 528.354 -1.38806 2.10924 0
M  V30 5753 C 529.667 1.83642 2.3811 0
M  V30 5754 C 531.215 1.85907 2.51809 0
M  V30 5755 C 531.69 2.90813 3.53824 0
M  V30 5756 N 533.181 2.898 3.61345 0
M  V30 5757 C 533.916 3.6762 4.40049 0
M  V30 5758 N 533.412 4.55237 5.22237 0
M  V30 5759 N 535.205 3.56044 4.34959 0
M  V30 5760 H 527.356 1.9614 0.815047 0
M  V30 5761 H 529.619 0.849527 0.420722 0
M  V30 5762 H 529.325 2.84425 2.06871 0
M  V30 5763 H 529.199 1.6812 3.37662 0
M  V30 5764 H 531.586 0.857865 2.82356 0
M  V30 5765 H 531.667 2.05506 1.52318 0
M  V30 5766 H 531.311 3.91122 3.24015 0
M  V30 5767 H 531.241 2.68465 4.53028 0
M  V30 5768 H 533.732 2.26274 3.02669 0
M  V30 5769 H 534.045 5.11291 5.79484 0
M  V30 5770 H 532.39 4.59296 5.21605 0
M  V30 5771 H 535.581 2.86986 3.69806 0
M  V30 5772 H 535.754 4.16938 4.96051 0
M  V30 5773 N 529.16 -1.33526 0.837174 0
M  V30 5774 C 530.388 -2.02047 0.445494 0
M  V30 5775 C 530.803 -1.62995 -0.952788 0
M  V30 5776 O 530.16 -0.842447 -1.61892 0
M  V30 5777 C 530.211 -3.57221 0.554577 0
M  V30 5778 O 529.932 -3.94863 1.89776 0
M  V30 5779 C 531.433 -4.43012 0.159634 0
M  V30 5780 H 528.653 -0.647221 0.177048 0
M  V30 5781 H 531.197 -1.70492 1.12928 0
M  V30 5782 H 529.352 -3.87315 -0.0812781 0
M  V30 5783 H 529.766 -4.89569 1.88208 0
M  V30 5784 H 531.24 -5.51253 0.28701 0
M  V30 5785 H 531.717 -4.29916 -0.898289 0
M  V30 5786 H 532.323 -4.18274 0.769855 0
M  V30 5787 N 530.638 -0.59345 -1.46 0
M  V30 5788 C 532.049 -0.169801 -1.85926 0
M  V30 5789 C 532.4 1.26984 -1.49565 0
M  V30 5790 O 531.525 1.96076 -0.915602 0
M  V30 5791 C 532.12 -0.301385 -3.37457 0
M  V30 5792 C 530.679 0.0674684 -3.7634 0
M  V30 5793 C 529.826 -0.632383 -2.69993 0
M  V30 5794 H 532.777 -0.801014 -1.37002 0
M  V30 5795 H 532.798 0.470331 -3.77582 0
M  V30 5796 H 532.31 -1.34927 -3.63891 0
M  V30 5797 H 530.411 1.11507 -3.55523 0
M  V30 5798 H 530.524 -0.316332 -4.78055 0
M  V30 5799 H 528.888 -0.0714961 -2.546 0
M  V30 5800 H 529.671 -1.68212 -2.99265 0
M  V30 5801 N 532.116 1.54067 -0.331816 0
M  V30 5802 C 533.063 2.24623 0.530372 0
M  V30 5803 C 534.033 1.24009 1.10503 0
M  V30 5804 O 535.218 1.52712 1.14384 0
M  V30 5805 C 532.358 3.01374 1.68129 0
M  V30 5806 C 531.471 4.16821 1.13507 0
M  V30 5807 C 530.606 4.81085 2.25234 0
M  V30 5808 C 529.645 5.88621 1.67903 0
M  V30 5809 N 528.782 6.46713 2.73326 0
M  V30 5810 H 533.622 2.97898 -0.0778607 0
M  V30 5811 H 531.159 1.47014 -0.0501965 0
M  V30 5812 H 533.117 3.44125 2.35868 0
M  V30 5813 H 531.747 2.30419 2.26069 0
M  V30 5814 H 530.799 3.78796 0.348979 0
M  V30 5815 H 532.111 4.94203 0.675633 0
M  V30 5816 H 531.265 5.26846 3.00862 0
M  V30 5817 H 530.004 4.03102 2.74518 0
M  V30 5818 H 529.009 5.42254 0.907773 0
M  V30 5819 H 530.234 6.68506 1.19487 0
M  V30 5820 H 528.18 5.71599 3.21886 0
M  V30 5821 H 528.097 7.19532 2.3197 0
M  V30 5822 H 529.365 6.97129 3.48758 0
M  V30 5823 N 533.594 0.0601682 1.57485 0
M  V30 5824 C 534.871 -0.651956 1.84415 0
M  V30 5825 C 535.251 -1.88498 0.950361 0
M  V30 5826 O 534.599 -2.28496 0.0136719 0
M  V30 5827 C 534.809 -1.00069 3.34346 0
M  V30 5828 C 536.157 -1.37915 4.01578 0
M  V30 5829 O 537.181 -1.09277 3.39024 0
M  V30 5830 O 536.04 -1.91399 5.11887 0
M  V30 5831 H 533.134 -0.322668 0.761455 0
M  V30 5832 H 535.68 0.0902159 1.6946 0
M  V30 5833 H 534.452 -0.124463 3.91102 0
M  V30 5834 H 534.075 -1.80001 3.54521 0
M  V30 5835 N 535.072 -1.5615 -0.213296 0
M  V30 5836 C 536.297 -1.83986 -0.957282 0
M  V30 5837 C 536.722 -0.641526 -1.76822 0
M  V30 5838 O 536.08 0.409722 -1.7661 0
M  V30 5839 C 536.128 -3.09889 -1.84393 0
M  V30 5840 O 535.232 -2.89163 -2.94038 0
M  V30 5841 H 534.573 -0.606357 -0.270605 0
M  V30 5842 H 537.103 -2.03369 -0.224111 0
M  V30 5843 H 537.113 -3.40209 -2.25215 0
M  V30 5844 H 535.788 -3.96735 -1.24795 0
M  V30 5845 H 534.365 -2.70097 -2.57103 0
M  V30 5846 N 536.55 0.480323 -1.50102 0
M  V30 5847 C 537.961 1.06142 -1.53593 0
M  V30 5848 C 538.312 1.93335 -0.334055 0
M  V30 5849 O 537.437 2.09188 0.55403 0
M  V30 5850 C 538.032 1.9317 -2.78336 0
M  V30 5851 C 536.591 2.46405 -2.84538 0
M  V30 5852 C 535.738 1.24521 -2.4777 0
M  V30 5853 H 538.689 0.26333 -1.565 0
M  V30 5854 H 538.71 2.78123 -2.59669 0
M  V30 5855 H 538.222 1.29683 -3.65792 0
M  V30 5856 H 536.323 3.13472 -2.01411 0
M  V30 5857 H 536.436 2.82143 -3.87211 0
M  V30 5858 H 534.8 1.57706 -2.00003 0
M  V30 5859 H 535.583 0.627102 -3.37524 0
M  V30 5860 N 538.028 1.39524 0.732853 0
M  V30 5861 C 539.276 1.36594 1.48951 0
M  V30 5862 C 539.597 -0.0367507 1.94965 0
M  V30 5863 O 538.867 -0.988391 1.69138 0
M  V30 5864 H 537.447 0.502673 0.552566 0
M  V30 5865 H 540.109 1.74411 0.869869 0
M  V30 5866 H 539.205 2.03 2.3706 0
M  V30 5867 N 539.506 -0.963266 1.24736 0
M  V30 5868 C 540.755 -1.70115 1.08369 0
M  V30 5869 C 541.068 -1.91939 -0.376688 0
M  V30 5870 O 542.274 -2.6334 -0.660624 0
M  V30 5871 C 540.73 -3.06218 1.89099 0
M  V30 5872 C 540.338 -2.92221 3.39574 0
M  V30 5873 C 542.082 -3.83848 1.81275 0
M  V30 5874 C 539.989 -4.23662 4.12631 0
M  V30 5875 H 538.919 -0.637944 0.401924 0
M  V30 5876 H 541.57 -1.07304 1.48856 0
M  V30 5877 H 539.952 -3.69884 1.41429 0
M  V30 5878 H 541.126 -2.37541 3.94856 0
M  V30 5879 H 539.441 -2.28054 3.48397 0
M  V30 5880 H 542.038 -4.81188 2.33158 0
M  V30 5881 H 542.381 -4.08949 0.778895 0
M  V30 5882 H 542.914 -3.26918 2.26649 0
M  V30 5883 H 539.653 -4.03753 5.16395 0
M  V30 5884 H 539.173 -4.78141 3.62135 0
M  V30 5885 H 540.852 -4.92256 4.19873 0
M  V30 5886 N 540.985 -1.06182 -1.16461 0
M  V30 5887 C 542.396 -0.802426 -1.68576 0
M  V30 5888 C 542.747 0.67412 -1.84255 0
M  V30 5889 O 541.872 1.52303 -1.5373 0
M  V30 5890 C 542.467 -1.45002 -3.06202 0
M  V30 5891 C 541.026 -1.23843 -3.55443 0
M  V30 5892 C 540.173 -1.52724 -2.31454 0
M  V30 5893 H 543.124 -1.22545 -1.00839 0
M  V30 5894 H 543.145 -0.864731 -3.70544 0
M  V30 5895 H 542.657 -2.52466 -2.94759 0
M  V30 5896 H 540.758 -0.183487 -3.72148 0
M  V30 5897 H 540.871 -1.95036 -4.37604 0
M  V30 5898 H 539.235 -0.947726 -2.36411 0
M  V30 5899 H 540.018 -2.61343 -2.22609 0
M  V30 5900 N 542.463 1.3308 -0.844243 0
M  V30 5901 C 543.874 1.7992 -0.498566 0
M  V30 5902 C 544.225 1.69808 0.982834 0
M  V30 5903 O 543.35 1.25051 1.7661 0
M  V30 5904 C 543.945 3.26677 -0.898204 0
M  V30 5905 C 542.504 3.71513 -0.604583 0
M  V30 5906 C 541.651 2.54393 -1.10362 0
M  V30 5907 H 544.602 1.20526 -1.03244 0
M  V30 5908 H 544.623 3.79918 -0.21039 0
M  V30 5909 H 544.135 3.34004 -1.97643 0
M  V30 5910 H 542.236 3.69708 0.46335 0
M  V30 5911 H 542.349 4.64755 -1.16358 0
M  V30 5912 H 540.713 2.49246 -0.524273 0
M  V30 5913 H 541.496 2.6448 -2.18873 0
M  V30 5914 N 543.941 0.601185 1.45683 0
M  V30 5915 C 545.166 0.0982245 2.07167 0
M  V30 5916 C 545.591 -1.20546 1.44396 0
M  V30 5917 O 544.949 -1.73247 0.534347 0
M  V30 5918 C 544.997 -0.0346976 3.60583 0
M  V30 5919 O 544.101 -1.08657 3.97828 0
M  V30 5920 H 543.442 0.0711618 0.660176 0
M  V30 5921 H 545.972 0.829376 1.87036 0
M  V30 5922 H 545.982 -0.234969 4.07323 0
M  V30 5923 H 544.657 0.917265 4.05659 0
M  V30 5924 H 543.234 -0.863275 3.6277 0
M  V30 5925 N 545.419 -1.53889 0.339982 0
M  V30 5926 C 546.382 -2.23547 -0.50592 0
M  V30 5927 C 547.382 -1.23445 -1.03044 0
M  V30 5928 O 548.572 -1.47909 -0.920253 0
M  V30 5929 C 545.704 -2.95234 -1.7044 0
M  V30 5930 H 546.897 -2.99722 0.103247 0
M  V30 5931 H 544.45 -1.56033 0.0912804 0
M  V30 5932 H 545.185 -2.23236 -2.35236 0
M  V30 5933 H 544.97 -3.68654 -1.33553 0
M  V30 5934 H 546.46 -3.48258 -2.30447 0
M  V30 5935 N 546.897 -0.0685191 -1.57451 0
M  V30 5936 C 548.145 0.60016 -1.92983 0
M  V30 5937 C 548.466 1.70348 -0.949028 0
M  V30 5938 O 547.736 1.959 0.00335647 0
M  V30 5939 H 546.316 0.224682 -0.712409 0
M  V30 5940 H 548.978 -0.125605 -1.94495 0
M  V30 5941 H 548.074 1.02759 -2.94698 0
M  V30 5942 N 548.375 1.56261 0.205012 0
M  V30 5943 C 549.338 1.92908 1.23771 0
M  V30 5944 C 550.338 0.809208 1.38955 0
M  V30 5945 O 551.528 1.07676 1.36936 0
M  V30 5946 C 548.66 2.19442 2.60879 0
M  V30 5947 H 549.853 2.85287 0.924728 0
M  V30 5948 H 547.406 1.49798 0.446125 0
M  V30 5949 H 548.141 1.29668 2.97248 0
M  V30 5950 H 547.926 3.0104 2.51232 0
M  V30 5951 H 549.416 2.48833 3.35368 0
M  V30 5952 N 549.853 -0.472356 1.50355 0
M  V30 5953 C 550.803 -1.56809 1.65514 0
M  V30 5954 C 551.787 -1.5261 0.509801 0
M  V30 5955 O 552.979 -1.59655 0.764145 0
M  V30 5956 C 550.108 -2.9526 1.75146 0
M  V30 5957 C 549.194 -3.04348 2.95353 0
M  V30 5958 N 549.585 -2.83253 4.19048 0
M  V30 5959 C 547.883 -3.35482 2.93884 0
M  V30 5960 C 548.584 -2.97273 5.00003 0
M  V30 5961 N 547.56 -3.27418 4.33934 0
M  V30 5962 H 551.362 -1.39197 2.58846 0
M  V30 5963 H 548.876 -0.67906 1.47521 0
M  V30 5964 H 550.873 -3.74044 1.8411 0
M  V30 5965 H 549.533 -3.1392 0.829717 0
M  V30 5966 H 550.544 -2.5886 4.48567 0
M  V30 5967 H 547.221 -3.60138 2.11204 0
M  V30 5968 H 548.611 -2.85214 6.08361 0
M  V30 5969 N 551.331 -1.39911 -0.725443 0
M  V30 5970 C 552.263 -1.35301 -1.85003 0
M  V30 5971 C 553.276 -0.260102 -1.60709 0
M  V30 5972 O 554.465 -0.519749 -1.70766 0
M  V30 5973 C 551.565 -1.08039 -3.21218 0
M  V30 5974 C 550.738 -2.28793 -3.7279 0
M  V30 5975 C 549.797 -1.97841 -4.87591 0
M  V30 5976 O 548.823 -2.70616 -5.00755 0
M  V30 5977 N 550.025 -0.950367 -5.72668 0
M  V30 5978 H 552.79 -2.32218 -1.89459 0
M  V30 5979 H 550.351 -1.34137 -0.90658 0
M  V30 5980 H 552.343 -0.853354 -3.95601 0
M  V30 5981 H 550.913 -0.198229 -3.11971 0
M  V30 5982 H 550.133 -2.67388 -2.8965 0
M  V30 5983 H 551.421 -3.09317 -4.03981 0
M  V30 5984 H 550.819 -0.347436 -5.64632 0
M  V30 5985 H 549.376 -0.783232 -6.47077 0
M  V30 5986 N 552.809 0.956637 -1.25245 0
M  V30 5987 C 553.739 2.07058 -1.07931 0
M  V30 5988 C 554.72 1.70096 0.0110361 0
M  V30 5989 O 555.905 1.93555 -0.158121 0
M  V30 5990 C 553.035 3.40272 -0.695124 0
M  V30 5991 C 551.989 3.91235 -1.73549 0
M  V30 5992 C 551.315 5.20921 -1.20604 0
M  V30 5993 C 552.615 4.17837 -3.13385 0
M  V30 5994 H 554.309 2.218 -2.01109 0
M  V30 5995 H 551.855 1.06581 -0.968326 0
M  V30 5996 H 553.808 4.1765 -0.560949 0
M  V30 5997 H 552.532 3.25462 0.272355 0
M  V30 5998 H 551.191 3.16025 -1.85807 0
M  V30 5999 H 550.839 5.02479 -0.228846 0
M  V30 6000 H 550.539 5.55987 -1.90136 0
M  V30 6001 H 552.063 6.00897 -1.08421 0
M  V30 6002 H 553.477 4.8588 -3.04292 0
M  V30 6003 H 551.874 4.64154 -3.80369 0
M  V30 6004 H 552.944 3.2419 -3.60595 0
M  V30 6005 N 554.287 1.06798 1.15896 0
M  V30 6006 C 555.534 0.787767 1.86549 0
M  V30 6007 C 555.862 -0.685959 1.82002 0
M  V30 6008 O 555.117 -1.5188 1.23414 0
M  V30 6009 C 555.416 1.23414 3.35416 0
M  V30 6010 C 555.082 2.71285 3.6016 0
M  V30 6011 C 553.744 3.11676 3.66622 0
M  V30 6012 C 556.096 3.6676 3.7032 0
M  V30 6013 C 553.424 4.4637 3.8075 0
M  V30 6014 C 555.776 5.01209 3.8597 0
M  V30 6015 C 554.44 5.41229 3.90676 0
M  V30 6016 H 553.71 0.288264 0.682631 0
M  V30 6017 H 556.357 1.338 1.37003 0
M  V30 6018 H 554.662 0.60319 3.87129 0
M  V30 6019 H 556.359 0.994298 3.88477 0
M  V30 6020 H 552.949 2.39015 3.55767 0
M  V30 6021 H 557.133 3.36685 3.64633 0
M  V30 6022 H 552.389 4.76855 3.82648 0
M  V30 6023 H 556.563 5.75067 3.92773 0
M  V30 6024 H 554.19 6.45602 4.01375 0
M  V30 6025 N 555.766 -1.3263 0.851289 0
M  V30 6026 C 557.182 -1.50162 0.5407 0
M  V30 6027 C 557.382 -1.78788 -0.929369 0
M  V30 6028 O 556.438 -1.85545 -1.71258 0
M  V30 6029 C 557.751 -2.64803 1.42478 0
M  V30 6030 C 559.299 -2.78688 1.42485 0
M  V30 6031 C 559.774 -3.96405 2.29407 0
M  V30 6032 N 561.265 -4.0366 2.27184 0
M  V30 6033 C 562 -4.93971 2.9117 0
M  V30 6034 N 561.496 -5.89313 3.64256 0
M  V30 6035 N 563.289 -4.87066 2.80576 0
M  V30 6036 H 555.44 -1.12315 1.80275 0
M  V30 6037 H 557.703 -0.553266 0.769806 0
M  V30 6038 H 557.409 -2.50368 2.46999 0
M  V30 6039 H 557.283 -3.60506 1.10974 0
M  V30 6040 H 559.67 -2.92547 0.387304 0
M  V30 6041 H 559.751 -1.83708 1.78002 0
M  V30 6042 H 559.395 -3.83304 3.33228 0
M  V30 6043 H 559.325 -4.90654 1.91224 0
M  V30 6044 H 561.816 -3.35435 1.74045 0
M  V30 6045 H 562.129 -6.54913 4.10255 0
M  V30 6046 H 560.474 -5.8935 3.68364 0
M  V30 6047 H 563.665 -4.11552 2.23031 0
M  V30 6048 H 563.838 -5.57248 3.30725 0
M  V30 6049 N 557.244 -0.608902 -1.45362 0
M  V30 6050 C 558.492 -0.104401 -2.0183 0
M  V30 6051 C 558.813 1.27007 -1.47967 0
M  V30 6052 O 558.083 1.83924 -0.674455 0
M  V30 6053 H 556.663 -0.0356042 -0.746151 0
M  V30 6054 H 559.325 -0.790596 -1.78145 0
M  V30 6055 H 558.421 -0.0551793 -3.12051 0
M  V30 6056 N 558.722 1.53707 -0.348139 0
M  V30 6057 C 559.969 2.00988 0.246966 0
M  V30 6058 C 560.297 1.23586 1.50189 0
M  V30 6059 O 559.552 0.312817 1.93184 0
M  V30 6060 C 559.851 3.52292 0.602061 0
M  V30 6061 C 559.517 4.47453 -0.556509 0
M  V30 6062 C 558.179 4.73188 -0.874446 0
M  V30 6063 C 560.531 5.03851 -1.33354 0
M  V30 6064 C 557.859 5.52577 -1.9717 0
M  V30 6065 C 560.211 5.84437 -2.42108 0
M  V30 6066 C 558.875 6.08465 -2.74456 0
M  V30 6067 H 558.145 0.735469 0.0903712 0
M  V30 6068 H 560.792 1.85464 -0.477001 0
M  V30 6069 H 559.097 3.65672 1.40681 0
M  V30 6070 H 560.794 3.86337 1.07447 0
M  V30 6071 H 557.384 4.27558 -0.298652 0
M  V30 6072 H 561.568 4.8393 -1.10117 0
M  V30 6073 H 556.824 5.69418 -2.22651 0
M  V30 6074 H 560.998 6.27151 -3.02745 0
M  V30 6075 H 558.625 6.69768 -3.59604 0
M  V30 6076 N 560.2 0.0768682 1.57412 0
M  V30 6077 C 561.425 -0.603404 1.98428 0
M  V30 6078 C 561.85 -1.62047 0.955108 0
M  V30 6079 O 561.208 -1.81129 -0.0786778 0
M  V30 6080 C 561.256 -1.24396 3.38464 0
M  V30 6081 O 560.36 -2.35982 3.3821 0
M  V30 6082 H 559.701 -0.154741 0.645718 0
M  V30 6083 H 562.231 0.152885 2.04028 0
M  V30 6084 H 562.241 -1.5896 3.7576 0
M  V30 6085 H 560.916 -0.498735 4.12899 0
M  V30 6086 H 559.493 -2.03173 3.1269 0
M  V30 6087 N 561.678 -1.56367 -0.196722 0
M  V30 6088 C 562.925 -1.80529 -0.917366 0
M  V30 6089 C 563.253 -0.649817 -1.83324 0
M  V30 6090 O 562.508 0.36451 -1.92275 0
M  V30 6091 C 562.807 -3.10663 -1.767 0
M  V30 6092 C 562.473 -4.3962 -1.00225 0
M  V30 6093 C 561.135 -4.74653 -0.791095 0
M  V30 6094 C 563.487 -5.1913 -0.464035 0
M  V30 6095 C 560.815 -5.86692 -0.0302155 0
M  V30 6096 C 563.167 -6.31964 0.283625 0
M  V30 6097 C 561.831 -6.65581 0.505813 0
M  V30 6098 H 561.101 -0.660602 -0.335688 0
M  V30 6099 H 563.748 -1.90615 -0.183844 0
M  V30 6100 H 562.053 -2.95807 -2.56915 0
M  V30 6101 H 563.75 -3.26563 -2.32718 0
M  V30 6102 H 560.34 -4.12127 -1.17684 0
M  V30 6103 H 564.524 -4.9248 -0.614575 0
M  V30 6104 H 559.78 -6.11211 0.151917 0
M  V30 6105 H 563.954 -6.92791 0.708057 0
M  V30 6106 H 561.581 -7.52239 1.0973 0
M  V30 6107 N 563.156 0.464375 -1.50603 0
M  V30 6108 C 564.402 1.21776 -1.62168 0
M  V30 6109 C 564.735 1.91476 -0.324154 0
M  V30 6110 O 564.01 1.8242 0.674782 0
M  V30 6111 C 564.293 2.25614 -2.80661 0
M  V30 6112 C 564.146 1.60175 -4.20314 0
M  V30 6113 C 565.465 3.26862 -2.94702 0
M  V30 6114 H 562.584 0.44137 -0.590222 0
M  V30 6115 H 565.226 0.510623 -1.8301 0
M  V30 6116 H 563.376 2.85923 -2.63021 0
M  V30 6117 H 565.048 1.03411 -4.4956 0
M  V30 6118 H 563.291 0.904697 -4.24261 0
M  V30 6119 H 563.962 2.35665 -4.99165 0
M  V30 6120 H 566.438 2.76582 -3.10872 0
M  V30 6121 H 565.314 3.96839 -3.79223 0
M  V30 6122 H 565.575 3.91382 -2.05603 0
M  V30 6123 N 564.634 1.40294 0.718013 0
M  V30 6124 C 565.597 1.4012 1.81381 0
M  V30 6125 C 566.597 0.295405 1.58063 0
M  V30 6126 O 567.787 0.554187 1.6515 0
M  V30 6127 C 564.919 1.19056 3.19435 0
M  V30 6128 H 566.112 2.37645 1.82933 0
M  V30 6129 H 563.665 1.26107 0.923405 0
M  V30 6130 H 564.4 0.222809 3.23534 0
M  V30 6131 H 564.185 1.99152 3.37758 0
M  V30 6132 H 565.675 1.21716 3.99468 0
M  V30 6133 N 566.112 -0.949982 1.2575 0
M  V30 6134 C 567.34 -1.72972 1.13527 0
M  V30 6135 C 567.755 -1.8623 -0.310453 0
M  V30 6136 O 567.112 -1.36336 -1.2132 0
M  V30 6137 C 567.163 -3.14108 1.78936 0
M  V30 6138 O 566.884 -3.01493 3.17858 0
M  V30 6139 C 568.385 -4.08338 1.72554 0
M  V30 6140 H 565.605 -0.541864 0.395758 0
M  V30 6141 H 568.149 -1.19151 1.66202 0
M  V30 6142 H 566.304 -3.64858 1.30221 0
M  V30 6143 H 566.718 -3.90559 3.50092 0
M  V30 6144 H 568.192 -5.04963 2.22973 0
M  V30 6145 H 568.669 -4.33742 0.690251 0
M  V30 6146 H 569.275 -3.63506 2.2078 0
M  V30 6147 N 567.59 -1.07411 -1.15328 0
M  V30 6148 C 568.838 -0.796073 -1.85761 0
M  V30 6149 C 569.159 0.679864 -1.82764 0
M  V30 6150 O 568.429 1.49242 -1.269 0
M  V30 6151 H 567.009 -0.291495 -0.687779 0
M  V30 6152 H 569.671 -1.35799 -1.39802 0
M  V30 6153 H 568.767 -1.13114 -2.90881 0
M  V30 6154 N 569.068 1.32177 -0.85831 0
M  V30 6155 C 569.998 2.31282 -0.321041 0
M  V30 6156 C 570.979 1.59841 0.581786 0
M  V30 6157 O 572.164 1.87619 0.501262 0
M  V30 6158 C 569.294 3.4385 0.48832 0
M  V30 6159 C 568.248 4.26799 -0.320391 0
M  V30 6160 C 567.574 5.31164 0.613934 0
M  V30 6161 C 568.874 4.98829 -1.54813 0
M  V30 6162 H 570.568 2.76469 -1.14915 0
M  V30 6163 H 568.114 1.32916 -0.554028 0
M  V30 6164 H 570.067 4.12224 0.874626 0
M  V30 6165 H 568.791 2.97401 1.34983 0
M  V30 6166 H 567.45 3.60077 -0.688497 0
M  V30 6167 H 567.098 4.80967 1.47239 0
M  V30 6168 H 566.798 5.8755 0.0768097 0
M  V30 6169 H 568.322 6.024 0.997336 0
M  V30 6170 H 569.736 5.59864 -1.23392 0
M  V30 6171 H 568.133 5.64957 -2.02346 0
M  V30 6172 H 569.203 4.26483 -2.30739 0
M  V30 6173 N 570.547 0.616602 1.45037 0
M  V30 6174 C 571.48 -0.145984 2.27733 0
M  V30 6175 C 572.458 -0.865108 1.37676 0
M  V30 6176 O 573.642 -0.872152 1.6711 0
M  V30 6177 C 570.769 -1.2122 3.16265 0
M  V30 6178 C 569.815 -0.595218 4.22326 0
M  V30 6179 S 570.648 0.603744 5.32086 0
M  V30 6180 C 571.804 -0.462842 6.24186 0
M  V30 6181 H 572.037 0.555591 2.92062 0
M  V30 6182 H 569.57 0.404364 1.49011 0
M  V30 6183 H 571.528 -1.82247 3.67827 0
M  V30 6184 H 570.189 -1.88589 2.51183 0
M  V30 6185 H 569.382 -1.39775 4.8423 0
M  V30 6186 H 568.984 -0.0598965 3.73952 0
M  V30 6187 H 571.276 -1.33945 6.64127 0
M  V30 6188 H 572.219 0.120259 7.07998 0
M  V30 6189 H 572.627 -0.782219 5.59054 0
M  V30 6190 N 572.025 -1.5352 0.356285 0
M  V30 6191 C 572.935 -2.29151 -0.502712 0
M  V30 6192 C 573.951 -1.34753 -1.1008 0
M  V30 6193 O 575.127 -1.67803 -1.11374 0
M  V30 6194 C 572.192 -3.05911 -1.63154 0
M  V30 6195 C 571.253 -4.15958 -1.06194 0
M  V30 6196 C 570.486 -4.8905 -2.13696 0
M  V30 6197 O 570.709 -4.61919 -3.34645 0
M  V30 6198 O 569.643 -5.75202 -1.77275 0
M  V30 6199 H 573.469 -3.03492 0.112466 0
M  V30 6200 H 571.054 -1.4891 0.120942 0
M  V30 6201 H 572.936 -3.53874 -2.28804 0
M  V30 6202 H 571.611 -2.34415 -2.23229 0
M  V30 6203 H 570.518 -3.7227 -0.369603 0
M  V30 6204 H 571.851 -4.89593 -0.505872 0
M  V30 6205 N 573.503 -0.0852151 -1.57369 0
M  V30 6206 C 574.78 0.622534 -1.85429 0
M  V30 6207 C 575.16 1.86962 -0.980229 0
M  V30 6208 O 574.508 2.28445 -0.0500219 0
M  V30 6209 C 574.718 0.947374 -3.35896 0
M  V30 6210 C 576.066 1.31509 -4.03721 0
M  V30 6211 O 577.09 1.03869 -3.40719 0
M  V30 6212 O 575.949 1.83231 -5.14868 0
M  V30 6213 H 573.043 0.310513 -0.766492 0
M  V30 6214 H 575.589 -0.117164 -1.69295 0
M  V30 6215 H 574.361 0.0622264 -3.91251 0
M  V30 6216 H 573.984 1.74338 -3.5734 0
M  V30 6217 N 574.981 1.5647 0.188427 0
M  V30 6218 C 576.258 1.71857 0.934058 0
M  V30 6219 C 576.638 0.641867 2.01105 0
M  V30 6220 O 575.986 -0.346098 2.25864 0
M  V30 6221 C 576.196 3.14431 1.5144 0
M  V30 6222 C 577.544 3.74869 1.99396 0
M  V30 6223 O 578.568 3.17601 1.61269 0
M  V30 6224 O 577.427 4.75387 2.69573 0
M  V30 6225 H 574.521 0.701186 0.438483 0
M  V30 6226 H 577.067 1.68768 0.177599 0
M  V30 6227 H 575.839 3.8427 0.738416 0
M  V30 6228 H 575.462 3.21775 2.33552 0
M  V30 6229 N 576.459 -0.456382 1.50847 0
M  V30 6230 C 577.707 -1.20497 1.62249 0
M  V30 6231 C 578.028 -1.92156 0.331839 0
M  V30 6232 O 577.298 -1.84751 -0.651443 0
M  V30 6233 H 575.878 -0.447775 0.597918 0
M  V30 6234 H 578.54 -0.525099 1.87693 0
M  V30 6235 H 577.636 -1.94492 2.44089 0
M  V30 6236 N 577.937 -1.40673 -0.710563 0
M  V30 6237 C 578.884 -1.41336 -1.82463 0
M  V30 6238 C 579.854 -0.269648 -1.63897 0
M  V30 6239 O 581.039 -0.468463 -1.8496 0
M  V30 6240 C 578.179 -1.28665 -3.20218 0
M  V30 6241 C 577.292 -2.52784 -3.5032 0
M  V30 6242 C 576.427 -2.32517 -4.77608 0
M  V30 6243 C 575.466 -3.52187 -5.0063 0
M  V30 6244 N 574.603 -3.31084 -6.19135 0
M  V30 6245 H 579.443 -2.36558 -1.8123 0
M  V30 6246 H 576.98 -1.17483 -0.885226 0
M  V30 6247 H 578.938 -1.19324 -3.99772 0
M  V30 6248 H 577.568 -0.370602 -3.20666 0
M  V30 6249 H 576.62 -2.72634 -2.65283 0
M  V30 6250 H 577.932 -3.41845 -3.63241 0
M  V30 6251 H 577.086 -2.20558 -5.65189 0
M  V30 6252 H 575.825 -1.40889 -4.66906 0
M  V30 6253 H 574.83 -3.64617 -4.11502 0
M  V30 6254 H 576.055 -4.44749 -5.13201 0
M  V30 6255 H 574.001 -2.42143 -6.09674 0
M  V30 6256 H 573.918 -4.13713 -6.32754 0
M  V30 6257 H 575.186 -3.22868 -7.0949 0
M  V30 6258 N 579.415 0.9433 -1.26252 0
M  V30 6259 C 580.826 1.50404 -1.10614 0
M  V30 6260 C 581.177 1.93666 0.31429 0
M  V30 6261 O 580.302 1.79709 1.20555 0
M  V30 6262 C 580.897 2.73336 -2.00182 0
M  V30 6263 C 579.456 3.25686 -1.88695 0
M  V30 6264 C 578.603 1.98474 -1.93658 0
M  V30 6265 H 581.554 0.759006 -1.39373 0
M  V30 6266 H 581.575 3.47567 -1.54847 0
M  V30 6267 H 581.087 2.41818 -3.03555 0
M  V30 6268 H 579.188 3.61998 -0.882489 0
M  V30 6269 H 579.301 3.92935 -2.74115 0
M  V30 6270 H 577.665 2.14278 -1.37684 0
M  V30 6271 H 578.448 1.6929 -2.98657 0
M  V30 6272 N 580.893 1.08022 1.14757 0
M  V30 6273 C 582.309 0.807072 1.3769 0
M  V30 6274 C 582.509 -0.585504 1.92806 0
M  V30 6275 O 581.565 -1.34301 2.13821 0
M  V30 6276 C 582.878 1.88651 2.34161 0
M  V30 6277 C 584.426 1.91206 2.47809 0
M  V30 6278 C 584.901 2.98253 3.47576 0
M  V30 6279 N 586.392 2.974 3.55117 0
M  V30 6280 C 587.127 3.76872 4.32152 0
M  V30 6281 N 586.623 4.66212 5.12463 0
M  V30 6282 N 588.416 3.6519 4.27309 0
M  V30 6283 H 580.567 1.97824 0.77326 0
M  V30 6284 H 582.83 0.85826 0.402608 0
M  V30 6285 H 582.536 2.88749 2.00791 0
M  V30 6286 H 582.41 1.75244 3.3402 0
M  V30 6287 H 584.797 0.917564 2.80472 0
M  V30 6288 H 584.878 2.08691 1.47925 0
M  V30 6289 H 584.522 3.97907 3.15646 0
M  V30 6290 H 584.452 2.78014 4.47231 0
M  V30 6291 H 586.943 2.32643 2.97801 0
M  V30 6292 H 587.256 5.23468 5.68508 0
M  V30 6293 H 585.601 4.70257 5.11745 0
M  V30 6294 H 588.792 2.94765 3.63636 0
M  V30 6295 H 588.965 4.27366 4.87095 0
M  V30 6296 N 582.371 -1.3172 0.865308 0
M  V30 6297 C 583.334 -2.26918 0.322627 0
M  V30 6298 C 584.334 -1.52031 -0.523751 0
M  V30 6299 O 585.524 -1.70973 -0.333727 0
M  V30 6300 C 582.656 -3.36558 -0.542338 0
M  V30 6301 H 583.849 -2.76432 1.16298 0
M  V30 6302 H 581.402 -1.42573 0.640512 0
M  V30 6303 H 582.137 -2.92329 -1.40407 0
M  V30 6304 H 581.922 -3.92048 0.0636395 0
M  V30 6305 H 583.412 -4.07465 -0.91446 0
M  V30 6306 N 583.85 -0.624285 -1.44708 0
M  V30 6307 C 585.26 -0.2092 -1.85524 0
M  V30 6308 C 585.611 1.23783 -1.52225 0
M  V30 6309 O 584.736 1.94089 -0.956986 0
M  V30 6310 C 585.332 -0.372897 -3.36742 0
M  V30 6311 C 583.891 -0.012374 -3.76398 0
M  V30 6312 C 583.038 -0.68951 -2.68591 0
M  V30 6313 H 585.989 -0.829894 -1.35272 0
M  V30 6314 H 586.01 0.390134 -3.78495 0
M  V30 6315 H 585.522 -1.42615 -3.60947 0
M  V30 6316 H 583.623 1.03941 -3.57809 0
M  V30 6317 H 583.736 -0.417663 -4.77276 0
M  V30 6318 H 582.1 -0.125484 -2.54391 0
M  V30 6319 H 582.883 -1.74522 -2.9563 0
M  V30 6320 N 585.328 1.53329 -0.364422 0
M  V30 6321 C 586.26 2.23286 0.517293 0
M  V30 6322 C 587.273 1.24657 1.04711 0
M  V30 6323 O 588.462 1.50887 0.95369 0
M  V30 6324 C 585.562 2.91604 1.72685 0
M  V30 6325 C 584.735 4.1673 1.32873 0
M  V30 6326 C 583.794 4.68269 2.40022 0
M  V30 6327 O 582.82 5.31976 2.02461 0
M  V30 6328 N 584.022 4.45983 3.7159 0
M  V30 6329 H 586.787 2.99588 -0.0819391 0
M  V30 6330 H 584.348 1.60787 -0.189544 0
M  V30 6331 H 586.34 3.22992 2.4384 0
M  V30 6332 H 584.91 2.18763 2.23297 0
M  V30 6333 H 584.13 3.91657 0.447069 0
M  V30 6334 H 585.418 4.98078 1.03902 0
M  V30 6335 H 584.816 3.95077 4.04883 0
M  V30 6336 H 583.373 4.81924 4.38854 0
M  V30 6337 N 586.806 0.0935595 1.57322 0
M  V30 6338 C 587.769 -0.851426 2.12799 0
M  V30 6339 C 588.769 -1.21187 1.0569 0
M  V30 6340 O 589.959 -1.14156 1.31583 0
M  V30 6341 C 587.091 -2.14779 2.64731 0
M  V30 6342 H 588.284 -0.369733 2.97612 0
M  V30 6343 H 585.837 -0.155417 1.55525 0
M  V30 6344 H 586.572 -2.67437 1.83434 0
M  V30 6345 H 586.357 -1.89907 3.43042 0
M  V30 6346 H 587.847 -2.82383 3.07651 0
M  V30 6347 N 588.284 -1.56567 -0.180126 0
M  V30 6348 C 589.695 -1.7126 -0.743422 0
M  V30 6349 C 590.046 -0.70263 -1.83187 0
M  V30 6350 O 589.171 0.137856 -2.1596 0
M  V30 6351 C 589.766 -3.10512 -1.35528 0
M  V30 6352 C 588.325 -3.26919 -1.8655 0
M  V30 6353 C 587.472 -2.67213 -0.741099 0
M  V30 6354 H 590.423 -1.58636 0.0451543 0
M  V30 6355 H 590.444 -3.08673 -2.22489 0
M  V30 6356 H 589.956 -3.83997 -0.562862 0
M  V30 6357 H 588.057 -2.58376 -2.68464 0
M  V30 6358 H 588.17 -4.34574 -2.01699 0
M  V30 6359 H 586.534 -2.26788 -1.15927 0
M  V30 6360 H 587.317 -3.43277 0.0393291 0
M  V30 6361 N 589.762 0.448376 -1.51087 0
M  V30 6362 C 590.692 1.55102 -1.74544 0
M  V30 6363 C 591.673 1.59357 -0.594932 0
M  V30 6364 O 592.858 1.75261 -0.836491 0
M  V30 6365 C 589.988 2.93268 -1.86041 0
M  V30 6366 C 588.942 3.03877 -3.01402 0
M  V30 6367 C 588.268 4.43914 -2.98068 0
M  V30 6368 C 589.568 2.7898 -4.41551 0
M  V30 6369 H 591.262 1.35724 -2.66869 0
M  V30 6370 H 588.808 0.651498 -1.28419 0
M  V30 6371 H 590.761 3.70356 -2.01034 0
M  V30 6372 H 589.485 3.13853 -0.903548 0
M  V30 6373 H 588.144 2.29227 -2.86096 0
M  V30 6374 H 587.792 4.6145 -2.00182 0
M  V30 6375 H 587.492 4.51944 -3.75527 0
M  V30 6376 H 589.016 5.22991 -3.1514 0
M  V30 6377 H 590.43 3.45805 -4.57265 0
M  V30 6378 H 588.827 2.98431 -5.20633 0
M  V30 6379 H 589.897 1.74663 -4.5235 0
M  V30 6380 N 591.24 1.41047 0.703093 0
M  V30 6381 C 592.19 1.38774 1.80903 0
M  V30 6382 C 593.174 0.263275 1.58731 0
M  V30 6383 O 594.366 0.503362 1.69692 0
M  V30 6384 C 591.495 1.26497 3.19145 0
M  V30 6385 C 590.581 2.43775 3.47037 0
M  V30 6386 N 590.972 3.69249 3.45672 0
M  V30 6387 C 589.27 2.37425 3.77552 0
M  V30 6388 C 589.971 4.46989 3.72258 0
M  V30 6389 N 588.947 3.76998 3.91629 0
M  V30 6390 H 592.749 2.33714 1.78199 0
M  V30 6391 H 590.263 1.34996 0.902762 0
M  V30 6392 H 592.26 1.2295 3.98358 0
M  V30 6393 H 590.92 0.32534 3.23066 0
M  V30 6394 H 591.931 4.02239 3.26228 0
M  V30 6395 H 588.608 1.51895 3.88888 0
M  V30 6396 H 589.998 5.55894 3.77402 0
M  V30 6397 N 592.718 -0.936591 1.26751 0
M  V30 6398 C 593.943 -1.72288 1.15462 0
M  V30 6399 C 594.368 -1.85915 -0.285887 0
M  V30 6400 O 593.726 -1.35272 -1.20711 0
M  V30 6401 C 593.774 -3.10503 1.83359 0
M  V30 6402 O 592.878 -3.96745 1.1255 0
M  V30 6403 H 592.219 -0.52843 0.402067 0
M  V30 6404 H 594.749 -1.17271 1.67656 0
M  V30 6405 H 594.759 -3.60867 1.90365 0
M  V30 6406 H 593.434 -2.99901 2.88153 0
M  V30 6407 H 592.011 -3.55191 1.13551 0
M  V30 6408 N 594.196 -1.08629 -1.14182 0
M  V30 6409 C 595.442 -0.818556 -1.85546 0
M  V30 6410 C 595.775 0.654076 -1.82854 0
M  V30 6411 O 595.05 1.48099 -1.26083 0
M  V30 6412 C 595.333 -1.34397 -3.3408 0
M  V30 6413 C 595.186 -2.8821 -3.45333 0
M  V30 6414 C 596.505 -0.971069 -4.29253 0
M  V30 6415 H 593.624 -0.298821 -0.673702 0
M  V30 6416 H 596.266 -1.34629 -1.34071 0
M  V30 6417 H 594.416 -0.895064 -3.78049 0
M  V30 6418 H 596.088 -3.41488 -3.10134 0
M  V30 6419 H 594.331 -3.25756 -2.86471 0
M  V30 6420 H 595.002 -3.20047 -4.49749 0
M  V30 6421 H 597.478 -1.35809 -3.93313 0
M  V30 6422 H 596.354 -1.36586 -5.31635 0
M  V30 6423 H 596.615 0.121659 -4.41933 0
M  V30 6424 N 595.674 1.31259 -0.872281 0
M  V30 6425 C 596.92 1.96913 -0.485083 0
M  V30 6426 C 597.253 1.68774 0.960667 0
M  V30 6427 O 596.528 0.985495 1.67685 0
M  V30 6428 C 596.811 3.52299 -0.745502 0
M  V30 6429 C 596.664 3.90002 -2.24095 0
M  V30 6430 C 597.983 4.39582 -0.213516 0
M  V30 6431 H 595.102 0.715252 -0.177716 0
M  V30 6432 H 597.744 1.55347 -1.09395 0
M  V30 6433 H 595.894 3.87835 -0.227276 0
M  V30 6434 H 597.566 3.64555 -2.82661 0
M  V30 6435 H 595.809 3.38526 -2.71261 0
M  V30 6436 H 596.48 4.98352 -2.37381 0
M  V30 6437 H 598.956 4.10882 -0.656902 0
M  V30 6438 H 597.832 5.47251 -0.42516 0
M  V30 6439 H 598.093 4.33158 0.884666 0
M  V30 6440 N 597.152 0.631951 1.44375 0
M  V30 6441 C 598.084 -0.110911 2.28931 0
M  V30 6442 C 599.097 -0.808086 1.41329 0
M  V30 6443 O 600.286 -0.669396 1.65473 0
M  V30 6444 C 597.386 -1.17928 3.1772 0
M  V30 6445 C 596.559 -0.564458 4.33743 0
M  V30 6446 C 595.618 -1.5269 5.0356 0
M  V30 6447 O 594.644 -1.04372 5.59549 0
M  V30 6448 N 595.846 -2.86123 5.05088 0
M  V30 6449 H 598.611 0.614758 2.93327 0
M  V30 6450 H 596.172 0.473171 1.54831 0
M  V30 6451 H 598.164 -1.82348 3.61291 0
M  V30 6452 H 596.734 -1.80717 2.55069 0
M  V30 6453 H 595.954 0.258373 3.93352 0
M  V30 6454 H 597.242 -0.134355 5.08623 0
M  V30 6455 H 596.64 -3.27959 4.60933 0
M  V30 6456 H 595.197 -3.45901 5.52445 0
M  V30 6457 N 598.631 -1.53133 0.372548 0
M  V30 6458 C 599.563 -2.23557 -0.505444 0
M  V30 6459 C 600.576 -1.25211 -1.04049 0
M  V30 6460 O 601.765 -1.51391 -0.945675 0
M  V30 6461 C 598.865 -2.92516 -1.71136 0
M  V30 6462 C 598.038 -4.17428 -1.30661 0
M  V30 6463 C 597.097 -4.69535 -2.37536 0
M  V30 6464 O 596.123 -5.33042 -1.99637 0
M  V30 6465 N 597.325 -4.47947 -3.6922 0
M  V30 6466 H 600.09 -2.9954 0.0978259 0
M  V30 6467 H 597.651 -1.60684 0.198068 0
M  V30 6468 H 599.643 -3.24281 -2.42124 0
M  V30 6469 H 598.213 -2.19944 -2.22134 0
M  V30 6470 H 597.433 -3.91888 -0.426292 0
M  V30 6471 H 598.721 -4.98622 -1.01259 0
M  V30 6472 H 598.119 -3.97219 -4.02783 0
M  V30 6473 H 596.676 -4.84245 -4.36292 0
M  V30 6474 N 600.109 -0.101901 -1.5727 0
M  V30 6475 C 601.039 0.851544 -2.17419 0
M  V30 6476 C 602.02 1.28942 -1.10941 0
M  V30 6477 O 603.205 1.35509 -1.39107 0
M  V30 6478 C 600.335 2.10816 -2.75996 0
M  V30 6479 C 599.289 1.80867 -3.87906 0
M  V30 6480 C 598.615 3.13413 -4.33216 0
M  V30 6481 C 599.915 1.0903 -5.10793 0
M  V30 6482 H 601.609 0.350381 -2.97343 0
M  V30 6483 H 599.155 0.16709 -1.43027 0
M  V30 6484 H 601.108 2.77959 -3.16729 0
M  V30 6485 H 599.832 2.63227 -1.93337 0
M  V30 6486 H 598.491 1.16119 -3.47724 0
M  V30 6487 H 598.139 3.63725 -3.47438 0
M  V30 6488 H 597.839 2.94155 -5.08671 0
M  V30 6489 H 599.363 3.81704 -4.76586 0
M  V30 6490 H 600.777 1.66295 -5.48652 0
M  V30 6491 H 599.174 0.99927 -5.91722 0
M  V30 6492 H 600.244 0.0741704 -4.84843 0
M  V30 6493 N 601.587 1.56661 0.17182 0
M  V30 6494 C 602.537 1.92781 1.21736 0
M  V30 6495 C 603.521 0.796065 1.39827 0
M  V30 6496 O 604.713 1.05924 1.41806 0
M  V30 6497 C 601.842 2.29079 2.55691 0
M  V30 6498 C 600.928 3.48765 2.41296 0
M  V30 6499 N 601.319 4.66022 1.96614 0
M  V30 6500 C 599.617 3.53362 2.72124 0
M  V30 6501 C 600.318 5.48159 1.94669 0
M  V30 6502 N 599.294 4.89189 2.37054 0
M  V30 6503 H 603.096 2.80926 0.863592 0
M  V30 6504 H 600.61 1.57889 0.380096 0
M  V30 6505 H 602.607 2.5315 3.31241 0
M  V30 6506 H 601.267 1.42272 2.91871 0
M  V30 6507 H 602.278 4.9025 1.66959 0
M  V30 6508 H 598.955 2.77033 3.12345 0
M  V30 6509 H 600.345 6.52121 1.61826 0
M  V30 6510 N 603.065 -0.440357 1.51323 0
M  V30 6511 C 604.313 -1.18769 1.63518 0
M  V30 6512 C 604.634 -1.91793 0.352201 0
M  V30 6513 O 603.904 -1.85432 -0.631811 0
M  V30 6514 H 602.484 -0.441408 0.602634 0
M  V30 6515 H 605.146 -0.505162 1.8824 0
M  V30 6516 H 604.242 -1.91892 2.46138 0
M  V30 6517 N 604.543 -1.41418 -0.695603 0
M  V30 6518 C 605.49 -1.43264 -1.80954 0
M  V30 6519 C 606.46 -0.287016 -1.63601 0
M  V30 6520 O 607.645 -0.488054 -1.84452 0
M  V30 6521 C 604.785 -1.32054 -3.18835 0
M  V30 6522 C 603.898 -2.56485 -3.4762 0
M  V30 6523 C 603.033 -2.3757 -4.75115 0
M  V30 6524 C 602.072 -3.57477 -4.96867 0
M  V30 6525 N 601.209 -3.37632 -6.15588 0
M  V30 6526 H 606.049 -2.38467 -1.78711 0
M  V30 6527 H 603.586 -1.18415 -0.872715 0
M  V30 6528 H 605.544 -1.23558 -3.98484 0
M  V30 6529 H 604.174 -0.404592 -3.20254 0
M  V30 6530 H 603.226 -2.75432 -2.62376 0
M  V30 6531 H 604.538 -3.45678 -3.59594 0
M  V30 6532 H 603.692 -2.2654 -5.62818 0
M  V30 6533 H 602.431 -1.45834 -4.65386 0
M  V30 6534 H 601.436 -3.68961 -4.07612 0
M  V30 6535 H 602.661 -4.50167 -5.08455 0
M  V30 6536 H 600.607 -2.48596 -6.07072 0
M  V30 6537 H 600.524 -4.20401 -6.2833 0
M  V30 6538 H 601.792 -3.30375 -7.06026 0
M  V30 6539 N 606.021 0.929856 -1.27246 0
M  V30 6540 C 606.969 2.05151 -1.09616 0
M  V30 6541 C 607.963 1.69388 -0.0198617 0
M  V30 6542 O 609.169 1.79124 -0.177417 0
M  V30 6543 H 605.544 0.671909 -0.337701 0
M  V30 6544 H 607.515 2.17168 -2.04648 0
M  V30 6545 C 606.264 3.3934 -0.757851 0
M  V30 6546 H 605.587 3.67343 -1.57795 0
M  V30 6547 H 607.027 4.18603 -0.674358 0
M  V30 6548 C 605.486 3.32582 0.537658 0
M  V30 6549 O 606.016 3.69633 1.57271 0
M  V30 6550 N 604.222 2.8568 0.532478 0
M  V30 6551 H 603.769 2.55725 -0.310233 0
M  V30 6552 H 603.727 2.81541 1.39936 0
M  V30 6553 N 607.499 1.09233 1.13605 0
M  V30 6554 C 608.429 0.751738 2.21068 0
M  V30 6555 C 609.41 -0.269688 1.67948 0
M  V30 6556 O 610.595 -0.13819 1.93708 0
M  V30 6557 C 607.725 0.16935 3.46887 0
M  V30 6558 C 606.679 1.12007 4.13084 0
M  V30 6559 C 606.005 0.399483 5.33206 0
M  V30 6560 C 607.305 2.46168 4.6065 0
M  V30 6561 H 608.999 1.65024 2.49815 0
M  V30 6562 H 606.545 0.794905 1.20072 0
M  V30 6563 H 608.498 -0.0809824 4.21322 0
M  V30 6564 H 607.222 -0.764335 3.1753 0
M  V30 6565 H 605.881 1.35564 3.40614 0
M  V30 6566 H 605.529 -0.538277 5.00112 0
M  V30 6567 H 605.229 1.03337 5.78442 0
M  V30 6568 H 606.753 0.157403 6.10397 0
M  V30 6569 H 608.167 2.26829 5.26518 0
M  V30 6570 H 606.564 3.05326 5.1662 0
M  V30 6571 H 607.634 3.07076 3.75276 0
M  V30 6572 N 608.977 -1.30795 0.87923 0
M  V30 6573 C 610.223 -1.96653 0.495519 0
M  V30 6574 C 610.556 -1.69282 -0.951703 0
M  V30 6575 O 609.831 -0.994374 -1.6716 0
M  V30 6576 C 610.114 -3.51898 0.764174 0
M  V30 6577 C 609.967 -3.88808 2.2616 0
M  V30 6578 C 611.286 -4.39462 0.236825 0
M  V30 6579 H 608.405 -0.7143 0.181507 0
M  V30 6580 H 611.047 -1.54765 1.10217 0
M  V30 6581 H 609.197 -3.87709 0.247841 0
M  V30 6582 H 610.869 -3.63051 2.8459 0
M  V30 6583 H 609.112 -3.37082 2.73053 0
M  V30 6584 H 609.783 -4.97086 2.4002 0
M  V30 6585 H 612.259 -4.10528 0.678683 0
M  V30 6586 H 611.135 -5.47018 0.454176 0
M  V30 6587 H 611.396 -4.33621 -0.861683 0
M  V30 6588 N 610.455 -0.639598 -1.44038 0
M  V30 6589 C 611.702 -0.14748 -2.01962 0
M  V30 6590 C 612.03 1.23372 -1.50365 0
M  V30 6591 O 611.285 1.8345 -0.681501 0
M  V30 6592 C 611.584 -0.0925348 -3.5728 0
M  V30 6593 C 611.25 -1.41365 -4.28167 0
M  V30 6594 C 609.912 -1.77545 -4.47248 0
M  V30 6595 C 612.264 -2.2853 -4.68427 0
M  V30 6596 C 609.592 -3.00583 -5.03852 0
M  V30 6597 C 611.944 -3.50846 -5.26393 0
M  V30 6598 C 610.608 -3.8724 -5.43692 0
M  V30 6599 H 609.878 -0.0539666 -0.739032 0
M  V30 6600 H 612.525 -0.827599 -1.72694 0
M  V30 6601 H 610.83 0.670987 -3.86012 0
M  V30 6602 H 612.527 0.304891 -3.99839 0
M  V30 6603 H 609.117 -1.1221 -4.13651 0
M  V30 6604 H 613.301 -2.0187 -4.5339 0
M  V30 6605 H 608.557 -3.28846 -5.15432 0
M  V30 6606 H 612.731 -4.18616 -5.56537 0
M  V30 6607 H 610.358 -4.8266 -5.87319 0
M  V30 6608 N 611.933 1.52934 -0.380664 0
M  V30 6609 C 613.158 2.06363 0.207157 0
M  V30 6610 C 613.583 1.25122 1.4045 0
M  V30 6611 O 612.941 0.274062 1.79217 0
M  V30 6612 C 612.989 3.56162 0.563996 0
M  V30 6613 O 612.093 3.77552 1.65917 0
M  V30 6614 H 611.434 0.663468 0.0265859 0
M  V30 6615 H 613.964 1.9719 -0.545635 0
M  V30 6616 H 613.974 3.99453 0.830752 0
M  V30 6617 H 612.649 4.14732 -0.311427 0
M  V30 6618 H 611.226 3.46154 1.3868 0
M  V30 6619 N 613.412 0.11024 1.57214 0
M  V30 6620 C 614.689 -0.592956 1.86396 0
M  V30 6621 C 615.069 -1.85379 1.00985 0
M  V30 6622 O 614.417 -2.28337 0.0863592 0
M  V30 6623 C 614.627 -0.893816 3.3736 0
M  V30 6624 C 615.975 -1.25069 4.05762 0
M  V30 6625 O 616.999 -0.984356 3.42329 0
M  V30 6626 O 615.858 -1.75017 5.17718 0
M  V30 6627 H 612.952 -0.29828 0.771335 0
M  V30 6628 H 615.498 0.144083 1.69087 0
M  V30 6629 H 614.27 2.6031e-05 3.913 0
M  V30 6630 H 613.893 -1.68631 3.60068 0
M  V30 6631 N 614.89 -1.56749 -0.16351 0
M  V30 6632 C 616.138 -1.82074 -0.87713 0
M  V30 6633 C 616.459 -0.688503 -1.82441 0
M  V30 6634 O 615.729 0.291085 -1.93725 0
M  V30 6635 H 614.309 -0.671677 -0.326893 0
M  V30 6636 H 616.971 -1.9423 -0.161459 0
M  V30 6637 H 616.067 -2.76407 -1.44934 0
M  V30 6638 N 616.368 0.432326 -1.51554 0
M  V30 6639 C 617.598 1.2019 -1.68042 0
M  V30 6640 C 618.006 1.85356 -0.379434 0
M  V30 6641 O 617.349 1.71724 0.652427 0
M  V30 6642 C 617.411 2.32387 -2.74292 0
M  V30 6643 C 617.075 1.87548 -4.16743 0
M  V30 6644 C 618.072 1.37611 -5.01357 0
M  V30 6645 C 615.757 1.95087 -4.62868 0
M  V30 6646 C 617.751 0.958069 -6.30159 0
M  V30 6647 C 615.438 1.52894 -5.91664 0
M  V30 6648 C 616.436 1.03336 -6.75137 0
M  V30 6649 O 616.124 0.617435 -8.01525 0
M  V30 6650 H 615.856 0.368132 -0.56697 0
M  V30 6651 H 618.41 0.517875 -1.98764 0
M  V30 6652 H 616.64 3.04082 -2.38895 0
M  V30 6653 H 618.329 2.94235 -2.79608 0
M  V30 6654 H 619.095 1.31178 -4.66923 0
M  V30 6655 H 614.974 2.32606 -3.98015 0
M  V30 6656 H 618.518 0.570562 -6.95263 0
M  V30 6657 H 614.415 1.58999 -6.25611 0
M  V30 6658 H 615.183 0.742835 -8.15122 0
M  V30 6659 N 617.846 1.41785 0.688094 0
M  V30 6660 C 619.092 1.41753 1.4503 0
M  V30 6661 C 619.425 0.0290745 1.94178 0
M  V30 6662 O 618.7 -0.944456 1.7003 0
M  V30 6663 C 618.983 2.43069 2.65686 0
M  V30 6664 C 618.836 3.91053 2.22256 0
M  V30 6665 C 620.155 2.41543 3.67893 0
M  V30 6666 H 617.274 0.516202 0.526027 0
M  V30 6667 H 619.916 1.73111 0.783105 0
M  V30 6668 H 618.066 2.1646 3.2261 0
M  V30 6669 H 619.738 4.28594 1.70602 0
M  V30 6670 H 617.981 4.05559 1.53963 0
M  V30 6671 H 618.652 4.57501 3.08863 0
M  V30 6672 H 621.128 2.65175 3.20658 0
M  V30 6673 H 620.004 3.14434 4.49914 0
M  V30 6674 H 620.265 1.43666 4.18106 0
M  V30 6675 N 619.324 -0.923095 1.27737 0
M  V30 6676 C 620.57 -1.67375 1.14514 0
M  V30 6677 C 620.903 -1.91751 -0.307424 0
M  V30 6678 O 620.178 -1.51119 -1.22447 0
M  V30 6679 C 620.461 -3.03745 1.9342 0
M  V30 6680 C 620.314 -2.86581 3.46686 0
M  V30 6681 C 621.633 -4.04144 1.74228 0
M  V30 6682 H 618.752 -0.607427 0.417374 0
M  V30 6683 H 621.394 -1.07089 1.56946 0
M  V30 6684 H 619.544 -3.55204 1.5736 0
M  V30 6685 H 621.216 -2.42203 3.92601 0
M  V30 6686 H 619.459 -2.21829 3.72793 0
M  V30 6687 H 620.13 -3.83381 3.97143 0
M  V30 6688 H 622.606 -3.61712 2.05678 0
M  V30 6689 H 621.482 -4.97543 2.31824 0
M  V30 6690 H 621.743 -4.36661 0.691373 0
M  V30 6691 N 620.802 -1.09834 -1.13024 0
M  V30 6692 C 621.749 -0.741522 -2.18564 0
M  V30 6693 C 622.719 0.279236 -1.63736 0
M  V30 6694 O 623.904 0.159923 -1.90129 0
M  V30 6695 C 621.044 -0.17277 -3.44667 0
M  V30 6696 C 620.157 -1.24808 -4.13578 0
M  V30 6697 C 619.292 -0.641631 -5.27311 0
M  V30 6698 C 618.331 -1.69795 -5.88078 0
M  V30 6699 N 617.468 -1.11223 -6.93234 0
M  V30 6700 H 622.308 -1.64576 -2.48432 0
M  V30 6701 H 619.845 -0.822174 -1.21978 0
M  V30 6702 H 621.803 0.17482 -4.16834 0
M  V30 6703 H 620.433 0.694725 -3.15235 0
M  V30 6704 H 619.485 -1.71288 -3.39653 0
M  V30 6705 H 620.797 -2.04795 -4.54819 0
M  V30 6706 H 619.951 -0.243128 -6.06213 0
M  V30 6707 H 618.69 0.189742 -4.87331 0
M  V30 6708 H 617.695 -2.10595 -5.07868 0
M  V30 6709 H 618.92 -2.53206 -6.3013 0
M  V30 6710 H 616.866 -0.302208 -6.55304 0
M  V30 6711 H 616.783 -1.84901 -7.3304 0
M  V30 6712 H 618.051 -0.740068 -7.75979 0
M  V30 6713 N 622.28 1.30327 -0.886154 0
M  V30 6714 C 623.19 2.31854 -0.357866 0
M  V30 6715 C 624.206 1.65392 0.540502 0
M  V30 6716 O 625.382 1.96683 0.433339 0
M  V30 6717 C 622.447 3.44171 0.417999 0
M  V30 6718 C 621.508 4.26257 -0.510263 0
M  V30 6719 C 620.741 5.3321 0.228669 0
M  V30 6720 O 620.964 5.51542 1.45458 0
M  V30 6721 O 619.898 6.0042 -0.421832 0
M  V30 6722 H 623.724 2.78995 -1.19982 0
M  V30 6723 H 621.309 1.34518 -0.650028 0
M  V30 6724 H 623.191 4.12588 0.857251 0
M  V30 6725 H 621.866 2.99164 1.23623 0
M  V30 6726 H 620.773 3.60533 -0.99835 0
M  V30 6727 H 622.106 4.74871 -1.29454 0
M  V30 6728 N 623.758 0.647228 1.43697 0
M  V30 6729 C 624.986 0.16575 2.06235 0
M  V30 6730 C 625.401 -1.1662 1.48476 0
M  V30 6731 O 624.758 -1.7187 0.613762 0
M  V30 6732 C 624.809 0.0621651 3.61447 0
M  V30 6733 O 624.53 1.34146 4.17057 0
M  V30 6734 C 626.031 -0.446102 4.4105 0
M  V30 6735 H 623.251 0.0871158 0.665321 0
M  V30 6736 H 625.795 0.886183 1.84301 0
M  V30 6737 H 623.95 -0.608794 3.82587 0
M  V30 6738 H 624.364 1.19675 5.10664 0
M  V30 6739 H 625.838 -0.46755 5.50016 0
M  V30 6740 H 626.315 -1.47627 4.13646 0
M  V30 6741 H 626.921 0.192159 4.24866 0
M  V30 6742 N 625.236 -1.5273 0.388769 0
M  V30 6743 C 626.485 -2.00757 -0.194833 0
M  V30 6744 C 626.798 -1.27951 -1.47946 0
M  V30 6745 O 628.004 -1.66686 -2.14308 0
M  V30 6746 C 626.46 -3.57695 -0.397762 0
M  V30 6747 C 626.068 -4.394 0.873583 0
M  V30 6748 C 627.812 -4.14012 -0.937759 0
M  V30 6749 C 625.719 -5.87938 0.638962 0
M  V30 6750 H 624.649 -0.750101 -0.0765845 0
M  V30 6751 H 627.3 -1.76239 0.511086 0
M  V30 6752 H 625.682 -3.7846 -1.16552 0
M  V30 6753 H 626.856 -4.30403 1.64591 0
M  V30 6754 H 625.171 -3.94301 1.33849 0
M  V30 6755 H 627.768 -5.22645 -1.12899 0
M  V30 6756 H 628.111 -3.7007 -1.90666 0
M  V30 6757 H 628.644 -3.97137 -0.229588 0
M  V30 6758 H 625.383 -6.36202 1.57885 0
M  V30 6759 H 624.903 -5.99726 -0.094443 0
M  V30 6760 H 626.582 -6.46423 0.273299 0
M  V30 6761 N 626.714 -0.118576 -1.57153 0
M  V30 6762 C 627.962 0.538461 -1.94795 0
M  V30 6763 C 628.283 1.67243 -1.00274 0
M  V30 6764 O 627.553 1.95811 -0.0589692 0
M  V30 6765 H 626.133 0.201904 -0.719197 0
M  V30 6766 H 628.795 -0.187418 -1.93997 0
M  V30 6767 H 627.891 0.933315 -2.97818 0
M  V30 6768 N 628.193 1.56834 0.155195 0
M  V30 6769 C 629.439 1.83169 0.870467 0
M  V30 6770 C 629.772 0.698929 1.81187 0
M  V30 6771 O 629.047 -0.298035 1.92203 0
M  V30 6772 C 629.33 3.19965 1.65211 0
M  V30 6773 C 629.183 4.43792 0.732744 0
M  V30 6774 C 630.502 3.53885 2.61636 0
M  V30 6775 H 627.621 0.666288 0.315006 0
M  V30 6776 H 630.263 1.89513 0.135988 0
M  V30 6777 H 628.413 3.14687 2.27825 0
M  V30 6778 H 630.085 4.61148 0.118236 0
M  V30 6779 H 628.328 4.3378 0.0417906 0
M  V30 6780 H 628.999 5.36095 1.31552 0
M  V30 6781 H 631.475 3.5972 2.09143 0
M  V30 6782 H 630.351 4.50648 3.13381 0
M  V30 6783 H 630.612 2.79418 3.42605 0
M  V30 6784 N 629.671 -0.424282 1.51781 0
M  V30 6785 C 630.919 -1.17028 1.64769 0
M  V30 6786 C 631.24 -1.91409 0.372523 0
M  V30 6787 O 630.51 -1.86091 -0.612108 0
M  V30 6788 H 629.09 -0.434992 0.607282 0
M  V30 6789 H 631.752 -0.485169 1.88765 0
M  V30 6790 H 630.848 -1.8927 2.4816 0
M  V30 6791 N 631.149 -1.42148 -0.680565 0
M  V30 6792 C 632.374 -1.45901 -1.47403 0
M  V30 6793 C 632.799 -0.0700985 -1.87969 0
M  V30 6794 O 632.157 0.930145 -1.55621 0
M  V30 6795 C 632.205 -2.38661 -2.70321 0
M  V30 6796 O 631.309 -1.85399 -3.68376 0
M  V30 6797 H 630.65 -0.494565 -0.443059 0
M  V30 6798 H 633.18 -1.86774 -0.835251 0
M  V30 6799 H 633.19 -2.55046 -3.18458 0
M  V30 6800 H 631.865 -3.39571 -2.40134 0
M  V30 6801 H 630.442 -1.78541 -3.2738 0
M  V30 6802 N 632.627 0.916307 -1.28225 0
M  V30 6803 C 633.857 1.69654 -1.17902 0
M  V30 6804 C 634.265 1.87331 0.265268 0
M  V30 6805 O 633.608 1.39828 1.19137 0
M  V30 6806 C 633.67 3.11024 -1.80289 0
M  V30 6807 C 633.334 3.16643 -3.29525 0
M  V30 6808 C 634.331 2.98032 -4.25997 0
M  V30 6809 C 632.016 3.39238 -3.70436 0
M  V30 6810 C 634.01 3.01924 -5.61356 0
M  V30 6811 C 631.697 3.42762 -5.05922 0
M  V30 6812 C 632.695 3.24125 -6.01192 0
M  V30 6813 O 632.383 3.27406 -7.34208 0
M  V30 6814 H 632.115 0.537197 -0.41036 0
M  V30 6815 H 634.669 1.15547 -1.69817 0
M  V30 6816 H 632.899 3.66662 -1.22865 0
M  V30 6817 H 634.588 3.71063 -1.6452 0
M  V30 6818 H 635.354 2.80405 -3.95725 0
M  V30 6819 H 631.233 3.52791 -2.96749 0
M  V30 6820 H 634.777 2.87295 -6.35694 0
M  V30 6821 H 630.674 3.59916 -5.35846 0
M  V30 6822 H 631.442 3.43784 -7.42802 0
M  V30 6823 N 634.105 1.10431 1.1244 0
M  V30 6824 C 635.33 0.869089 1.88313 0
M  V30 6825 C 635.755 -0.574912 1.79099 0
M  V30 6826 O 635.113 -1.40496 1.14589 0
M  V30 6827 C 635.161 1.32208 3.3549 0
M  V30 6828 O 634.265 0.487092 4.09513 0
M  V30 6829 H 633.606 0.313894 0.585121 0
M  V30 6830 H 636.136 1.47111 1.42195 0
M  V30 6831 H 636.146 1.31201 3.86329 0
M  V30 6832 H 634.821 2.37364 3.41513 0
M  V30 6833 H 633.398 0.562372 3.68635 0
M  V30 6834 N 635.583 -1.29855 0.893053 0
M  V30 6835 C 636.493 -2.31661 0.370157 0
M  V30 6836 C 637.509 -1.65677 -0.531723 0
M  V30 6837 O 638.685 -1.9691 -0.422902 0
M  V30 6838 C 635.75 -3.44388 -0.399741 0
M  V30 6839 C 634.811 -4.2598 0.532861 0
M  V30 6840 C 634.044 -5.33324 -0.200388 0
M  V30 6841 O 634.267 -5.52305 -1.42531 0
M  V30 6842 O 633.201 -6.00188 0.453668 0
M  V30 6843 H 637.027 -2.78354 1.2146 0
M  V30 6844 H 634.612 -1.34171 0.657153 0
M  V30 6845 H 636.494 -4.13037 -0.835358 0
M  V30 6846 H 635.169 -2.99815 -1.22035 0
M  V30 6847 H 634.076 -3.59998 1.01746 0
M  V30 6848 H 635.409 -4.74178 1.3197 0
M  V30 6849 N 637.061 -0.65484 -1.43351 0
M  V30 6850 C 638.301 -0.172514 -2.03671 0
M  V30 6851 C 638.665 1.19154 -1.50553 0
M  V30 6852 O 639.866 1.76737 -2.02528 0
M  V30 6853 C 638.137 -0.183982 -3.56926 0
M  V30 6854 S 639.696 0.230262 -4.38195 0
M  V30 6855 H 636.514 -0.0727503 -0.707268 0
M  V30 6856 H 639.116 -0.863537 -1.75395 0
M  V30 6857 H 637.82 -1.17945 -3.93087 0
M  V30 6858 H 637.351 0.527527 -3.89847 0
M  V30 6859 H 639.366 1.46874 -4.73965 0
M  V30 6860 N 638.539 1.52521 -0.396863 0
M  V30 6861 C 639.486 2.26671 0.434624 0
M  V30 6862 C 640.456 1.28584 1.05144 0
M  V30 6863 O 641.641 1.57426 1.07804 0
M  V30 6864 C 638.781 3.08234 1.55196 0
M  V30 6865 C 637.894 4.21261 0.957262 0
M  V30 6866 C 637.029 4.90205 2.04627 0
M  V30 6867 C 636.068 5.95213 1.42787 0
M  V30 6868 N 635.205 6.57723 2.45651 0
M  V30 6869 H 640.045 2.973 -0.204139 0
M  V30 6870 H 637.582 1.46669 -0.112505 0
M  V30 6871 H 639.54 3.53819 2.2106 0
M  V30 6872 H 638.17 2.398 2.16092 0
M  V30 6873 H 637.222 3.79935 0.188005 0
M  V30 6874 H 638.534 4.96624 0.465416 0
M  V30 6875 H 637.688 5.39133 2.78246 0
M  V30 6876 H 636.427 4.14383 2.57174 0
M  V30 6877 H 635.432 5.45616 0.676968 0
M  V30 6878 H 636.657 6.72972 0.910255 0
M  V30 6879 H 634.603 5.84737 2.97353 0
M  V30 6880 H 634.52 7.28723 2.01243 0
M  V30 6881 H 635.788 7.11293 3.18876 0
M  V30 6882 N 640.017 0.126909 1.57088 0
M  V30 6883 C 641.433 -0.229641 1.57939 0
M  V30 6884 C 641.633 -1.66145 1.1401 0
M  V30 6885 O 640.689 -2.3843 0.831119 0
M  V30 6886 C 642.002 0.0108648 3.00698 0
M  V30 6887 C 643.55 -0.054418 3.12953 0
M  V30 6888 C 644.025 0.158497 4.57726 0
M  V30 6889 N 645.516 0.104735 4.63082 0
M  V30 6890 C 646.251 0.24427 5.72879 0
M  V30 6891 N 645.747 0.440415 6.91399 0
M  V30 6892 N 647.54 0.183286 5.61801 0
M  V30 6893 H 639.691 1.06203 1.83942 0
M  V30 6894 H 641.954 0.418834 0.85046 0
M  V30 6895 H 641.66 1.00102 3.37154 0
M  V30 6896 H 641.534 -0.717512 3.70313 0
M  V30 6897 H 643.921 -1.0351 2.7635 0
M  V30 6898 H 644.002 0.705967 2.45865 0
M  V30 6899 H 643.646 1.13619 4.95028 0
M  V30 6900 H 643.576 -0.62197 5.22914 0
M  V30 6901 H 646.067 -0.0430298 3.77876 0
M  V30 6902 H 646.38 0.537536 7.70928 0
M  V30 6903 H 644.725 0.476488 6.93365 0
M  V30 6904 H 647.916 0.0309561 4.6809 0
M  V30 6905 H 648.089 0.295471 6.47326 0
M  V30 6906 N 641.495 -1.56914 -0.146875 0
M  V30 6907 C 642.735 -1.85163 -0.86568 0
M  V30 6908 C 643.099 -0.711215 -1.78342 0
M  V30 6909 O 644.3 -0.874754 -2.54168 0
M  V30 6910 C 642.571 -3.18593 -1.61967 0
M  V30 6911 S 644.13 -3.68397 -2.38388 0
M  V30 6912 H 640.948 -0.6494 -0.289483 0
M  V30 6913 H 643.55 -1.95096 -0.125679 0
M  V30 6914 H 642.254 -3.99562 -0.93694 0
M  V30 6915 H 641.785 -3.11666 -2.40058 0
M  V30 6916 H 643.8 -3.37672 -3.63582 0
M  V30 6917 N 642.974 0.416227 -1.52004 0
M  V30 6918 C 644.22 1.16555 -1.6596 0
M  V30 6919 C 644.553 1.90347 -0.384906 0
M  V30 6920 O 643.828 1.84474 0.616405 0
M  V30 6921 C 644.111 2.1657 -2.87696 0
M  V30 6922 C 643.964 1.46722 -4.25197 0
M  V30 6923 C 645.283 3.17321 -3.04951 0
M  V30 6924 H 642.402 0.422369 -0.603965 0
M  V30 6925 H 645.044 0.452141 -1.84542 0
M  V30 6926 H 643.194 2.77411 -2.71985 0
M  V30 6927 H 644.866 0.89056 -4.52622 0
M  V30 6928 H 643.109 0.769263 -4.26925 0
M  V30 6929 H 643.78 2.19665 -5.0641 0
M  V30 6930 H 646.256 2.66552 -3.19514 0
M  V30 6931 H 645.132 3.84573 -3.91656 0
M  V30 6932 H 645.393 3.84643 -2.17951 0
M  V30 6933 N 644.452 1.42507 0.673017 0
M  V30 6934 C 645.402 1.4258 1.77919 0
M  V30 6935 C 646.386 0.296885 1.58137 0
M  V30 6936 O 647.578 0.539243 1.68586 0
M  V30 6937 C 644.707 1.33238 3.1639 0
M  V30 6938 C 643.793 2.51081 3.41788 0
M  V30 6939 N 644.184 3.76498 3.37761 0
M  V30 6940 C 642.482 2.4538 3.72431 0
M  V30 6941 C 643.183 4.54784 3.62693 0
M  V30 6942 N 642.159 3.8522 3.83544 0
M  V30 6943 H 645.961 2.37442 1.73201 0
M  V30 6944 H 643.475 1.36881 0.873924 0
M  V30 6945 H 645.472 1.31372 3.9566 0
M  V30 6946 H 644.132 0.393794 3.22303 0
M  V30 6947 H 645.143 4.09068 3.17622 0
M  V30 6948 H 641.82 1.60109 3.85579 0
M  V30 6949 H 643.21 5.63774 3.65525 0
M  V30 6950 N 645.93 -0.909495 1.28709 0
M  V30 6951 C 646.877 -2.01245 1.13 0
M  V30 6952 C 647.847 -1.6608 0.0259684 0
M  V30 6953 O 649.032 -1.89835 0.191687 0
M  V30 6954 C 646.172 -3.35644 0.802315 0
M  V30 6955 C 645.285 -3.83653 1.98582 0
M  V30 6956 C 644.42 -5.06582 1.59837 0
M  V30 6957 C 643.459 -5.46934 2.74827 0
M  V30 6958 N 642.596 -6.61053 2.36546 0
M  V30 6959 H 647.436 -2.14013 2.0737 0
M  V30 6960 H 644.973 -1.0482 1.03205 0
M  V30 6961 H 646.931 -4.12963 0.593057 0
M  V30 6962 H 645.561 -3.22631 -0.104457 0
M  V30 6963 H 644.613 -3.02454 2.30708 0
M  V30 6964 H 645.925 -4.09515 2.84779 0
M  V30 6965 H 645.079 -5.91457 1.35143 0
M  V30 6966 H 643.818 -4.82537 0.707753 0
M  V30 6967 H 642.823 -4.60599 3.00215 0
M  V30 6968 H 644.048 -5.72965 3.64538 0
M  V30 6969 H 641.994 -6.3863 1.49959 0
M  V30 6970 H 641.911 -6.86662 3.16277 0
M  V30 6971 H 643.179 -7.49221 2.15146 0
M  V30 6972 N 647.408 -1.11026 -1.11852 0
M  V30 6973 C 648.371 -0.768006 -2.1595 0
M  V30 6974 C 649.371 0.210538 -1.59416 0
M  V30 6975 O 650.561 -0.0133978 -1.74195 0
M  V30 6976 C 647.693 -0.138678 -3.40618 0
M  V30 6977 H 648.886 -1.69012 -2.4774 0
M  V30 6978 H 646.439 -0.911578 -1.26964 0
M  V30 6979 H 647.174 0.793872 -3.14433 0
M  V30 6980 H 646.959 -0.843012 -3.8293 0
M  V30 6981 H 648.449 0.0848039 -4.17514 0
M  V30 6982 N 648.886 1.2938 -0.899927 0
M  V30 6983 C 650.114 1.99691 -0.541386 0
M  V30 6984 C 650.529 1.67355 0.873936 0
M  V30 6985 O 649.886 0.918728 1.57688 0
M  V30 6986 C 649.937 3.54168 -0.72438 0
M  V30 6987 O 649.658 3.85359 -2.08399 0
M  V30 6988 C 651.159 4.41746 -0.370819 0
M  V30 6989 H 648.379 0.638037 -0.207726 0
M  V30 6990 H 650.923 1.6491 -1.20934 0
M  V30 6991 H 649.078 3.87261 -0.103607 0
M  V30 6992 H 649.492 4.80032 -2.11352 0
M  V30 6993 H 650.966 5.49256 -0.549693 0
M  V30 6994 H 651.443 4.33712 0.692148 0
M  V30 6995 H 652.049 4.14125 -0.968543 0
M  V30 6996 N 650.364 0.662433 1.43002 0
M  V30 6997 C 651.312 -0.035345 2.32573 0
M  V30 6998 C 652.306 -0.803505 1.49131 0
M  V30 6999 O 653.512 -0.712865 1.65282 0
M  V30 7000 H 649.887 -0.0302194 0.751393 0
M  V30 7001 H 651.858 0.737686 2.89138 0
M  V30 7002 C 650.607 -0.981575 3.33557 0
M  V30 7003 H 649.93 -0.399914 3.97795 0
M  V30 7004 H 651.37 -1.43873 3.98844 0
M  V30 7005 C 649.829 -2.08204 2.64863 0
M  V30 7006 O 650.359 -3.16698 2.47113 0
M  V30 7007 N 648.565 -1.85022 2.24088 0
M  V30 7008 H 648.112 -0.967909 2.38724 0
M  V30 7009 H 648.07 -2.58845 1.78457 0
M  V30 7010 N 651.842 -1.52309 0.404946 0
M  V30 7011 C 652.775 -2.23369 -0.467087 0
M  V30 7012 C 653.753 -1.24034 -1.0514 0
M  V30 7013 O 654.937 -1.53071 -1.10006 0
M  V30 7014 C 652.064 -2.95906 -1.64795 0
M  V30 7015 C 651.11 -4.09637 -1.18743 0
M  V30 7016 S 651.943 -5.35273 -0.156022 0
M  V30 7017 C 653.099 -6.11337 -1.34231 0
M  V30 7018 H 653.332 -2.96987 0.136294 0
M  V30 7019 H 650.865 -1.53236 0.189219 0
M  V30 7020 H 652.823 -3.38304 -2.3251 0
M  V30 7021 H 651.484 -2.21937 -2.22267 0
M  V30 7022 H 650.677 -4.59549 -2.06955 0
M  V30 7023 H 650.279 -3.69333 -0.588981 0
M  V30 7024 H 652.571 -6.38458 -2.26665 0
M  V30 7025 H 653.514 -7.02563 -0.883804 0
M  V30 7026 H 653.922 -5.42338 -1.56621 0
M  V30 7027 N 653.32 -0.135238 -1.57019 0
M  V30 7028 C 654.23 0.822226 -2.19719 0
M  V30 7029 C 655.246 1.28057 -1.17802 0
M  V30 7030 O 656.422 1.3402 -1.50335 0
M  V30 7031 C 653.487 2.0484 -2.79717 0
M  V30 7032 C 652.548 1.64042 -3.96723 0
M  V30 7033 C 651.781 2.80814 -4.53849 0
M  V30 7034 O 652.004 3.967 -4.0986 0
M  V30 7035 O 650.938 2.56963 -5.44292 0
M  V30 7036 H 654.764 0.318552 -3.02025 0
M  V30 7037 H 652.349 0.0912021 -1.49121 0
M  V30 7038 H 654.231 2.76622 -3.17897 0
M  V30 7039 H 652.906 2.54182 -2.00432 0
M  V30 7040 H 651.813 0.893182 -3.63281 0
M  V30 7041 H 653.146 1.19426 -4.77492 0
M  V30 7042 N 654.798 1.5699 0.138552 0
M  V30 7043 C 656.028 1.87704 0.863184 0
M  V30 7044 C 656.436 0.722411 1.74865 0
M  V30 7045 O 655.779 -0.316636 1.80951 0
M  V30 7046 C 655.841 3.13219 1.76449 0
M  V30 7047 C 655.505 4.44648 1.05532 0
M  V30 7048 C 656.502 5.18318 0.405252 0
M  V30 7049 C 654.187 4.91367 1.04231 0
M  V30 7050 C 656.181 6.36916 -0.24835 0
M  V30 7051 C 653.868 6.09887 0.384904 0
M  V30 7052 C 654.866 6.82508 -0.259292 0
M  V30 7053 O 654.554 7.98775 -0.906258 0
M  V30 7054 H 654.286 0.626255 0.254521 0
M  V30 7055 H 656.84 2.04966 0.133472 0
M  V30 7056 H 655.07 2.91988 2.53535 0
M  V30 7057 H 656.759 3.30111 2.36181 0
M  V30 7058 H 657.525 4.83289 0.407053 0
M  V30 7059 H 653.404 4.34759 1.53315 0
M  V30 7060 H 656.948 6.93538 -0.751755 0
M  V30 7061 H 652.845 6.44376 0.380799 0
M  V30 7062 H 653.613 8.14494 -0.80877 0
M  V30 7063 N 656.276 -0.40816 1.52223 0
M  V30 7064 C 657.239 -1.48 1.7501 0
M  V30 7065 C 658.239 -1.48367 0.619996 0
M  V30 7066 O 659.429 -1.49874 0.887881 0
M  V30 7067 C 656.561 -2.87403 1.83336 0
M  V30 7068 H 657.754 -1.29086 2.70697 0
M  V30 7069 H 655.307 -0.638715 1.42654 0
M  V30 7070 H 656.042 -3.11686 0.895677 0
M  V30 7071 H 655.827 -2.8854 2.65494 0
M  V30 7072 H 657.317 -3.65103 2.02705 0
M  V30 7073 N 657.755 -1.42862 -0.66545 0
M  V30 7074 C 659.001 -1.44043 -1.42757 0
M  V30 7075 C 659.334 -0.0599629 -1.94107 0
M  V30 7076 O 658.609 0.917286 -1.71511 0
M  V30 7077 C 658.892 -2.47266 -2.61786 0
M  V30 7078 C 658.745 -3.94539 -2.16007 0
M  V30 7079 C 660.064 -2.47365 -3.64003 0
M  V30 7080 H 657.183 -0.524506 -0.517748 0
M  V30 7081 H 659.825 -1.74335 -0.755466 0
M  V30 7082 H 657.975 -2.21565 -3.19126 0
M  V30 7083 H 659.647 -4.31254 -1.63762 0
M  V30 7084 H 657.89 -4.07957 -1.47491 0
M  V30 7085 H 658.561 -4.62357 -3.01546 0
M  V30 7086 H 661.037 -2.70243 -3.16399 0
M  V30 7087 H 659.913 -3.21552 -4.44854 0
M  V30 7088 H 660.174 -1.50299 -4.15767 0
M  V30 7089 N 659.233 0.902656 -1.29189 0
M  V30 7090 C 660.18 2.00643 -1.14066 0
M  V30 7091 C 661.15 1.66064 -0.0347756 0
M  V30 7092 O 662.335 1.8973 -0.201752 0
M  V30 7093 C 659.475 3.35214 -0.820104 0
M  V30 7094 C 658.588 3.82594 -2.00614 0
M  V30 7095 C 657.723 5.05727 -1.62522 0
M  V30 7096 C 656.762 5.45469 -2.77724 0
M  V30 7097 N 655.899 6.59789 -2.40048 0
M  V30 7098 H 660.739 2.1291 -2.08502 0
M  V30 7099 H 658.276 1.04271 -1.03759 0
M  V30 7100 H 660.234 4.12643 -0.614949 0
M  V30 7101 H 658.864 3.22682 0.0873452 0
M  V30 7102 H 657.916 3.01226 -2.32308 0
M  V30 7103 H 659.228 4.07999 -2.86946 0
M  V30 7104 H 658.382 5.90732 -1.38277 0
M  V30 7105 H 657.121 4.82155 -0.733333 0
M  V30 7106 H 656.126 4.59 -3.02653 0
M  V30 7107 H 657.351 5.71024 -3.67572 0
M  V30 7108 H 655.297 6.37826 -1.53343 0
M  V30 7109 H 655.214 6.84975 -3.19914 0
M  V30 7110 H 656.482 7.4807 -2.19116 0
M  V30 7111 N 660.711 1.11618 1.11262 0
M  V30 7112 C 661.957 0.867463 1.83311 0
M  V30 7113 C 662.29 -0.605366 1.84524 0
M  V30 7114 O 661.565 -1.44704 1.29965 0
M  V30 7115 C 661.848 1.43207 3.30399 0
M  V30 7116 C 661.701 2.97265 3.3757 0
M  V30 7117 C 663.02 1.08454 4.26528 0
M  V30 7118 H 660.139 0.316578 0.665543 0
M  V30 7119 H 662.781 1.38137 1.30454 0
M  V30 7120 H 660.931 0.994982 3.75543 0
M  V30 7121 H 662.603 3.49591 3.00971 0
M  V30 7122 H 660.846 3.33237 2.77733 0
M  V30 7123 H 661.517 3.31859 4.41105 0
M  V30 7124 H 663.993 1.4619 3.89574 0
M  V30 7125 H 662.869 1.50633 5.27826 0
M  V30 7126 H 663.13 -0.00444568 4.421 0
M  V30 7127 N 662.189 -1.289 0.906776 0
M  V30 7128 C 663.438 -1.9455 0.532262 0
M  V30 7129 C 663.751 -1.72219 -0.927353 0
M  V30 7130 O 664.957 -2.32033 -1.40971 0
M  V30 7131 C 663.413 -3.48438 0.901041 0
M  V30 7132 C 663.021 -3.79558 2.37991 0
M  V30 7133 C 664.765 -4.20284 0.596777 0
M  V30 7134 C 662.672 -5.26723 2.68918 0
M  V30 7135 H 661.602 -0.728259 0.195333 0
M  V30 7136 H 664.253 -1.46519 1.10474 0
M  V30 7137 H 662.635 -3.95162 0.257419 0
M  V30 7138 H 663.809 -3.43668 3.06967 0
M  V30 7139 H 662.124 -3.20868 2.65391 0
M  V30 7140 H 664.721 -5.28612 0.8046 0
M  V30 7141 H 665.064 -4.13694 -0.465072 0
M  V30 7142 H 665.597 -3.79315 1.19855 0
M  V30 7143 H 662.336 -5.38384 3.73928 0
M  V30 7144 H 661.856 -5.63836 2.04571 0
M  V30 7145 H 663.535 -5.94391 2.55555 0
M  V30 7146 N 663.667 -0.670007 -1.42649 0
M  V30 7147 C 664.944 -0.119451 -1.95235 0
M  V30 7148 C 665.324 1.36461 -1.61064 0
M  V30 7149 O 664.672 2.09843 -0.904329 0
M  V30 7150 C 664.882 -0.383498 -3.46887 0
M  V30 7151 C 666.23 -0.297431 -4.23557 0
M  V30 7152 O 667.254 -0.31698 -3.54787 0
M  V30 7153 O 666.113 -0.235507 -5.45992 0
M  V30 7154 H 663.207 -8.85474e-05 -0.827 0
M  V30 7155 H 665.753 -0.744406 -1.52501 0
M  V30 7156 H 664.525 -1.41174 -3.64946 0
M  V30 7157 H 664.148 0.273702 -3.96657 0
M  V30 7158 N 665.145 1.52092 -0.413018 0
M  V30 7159 C 666.092 2.27119 0.410558 0
M  V30 7160 C 667.062 1.29692 1.03774 0
M  V30 7161 O 668.247 1.58561 1.06128 0
M  V30 7162 C 665.387 3.09863 1.51918 0
M  V30 7163 C 664.5 4.22252 0.912528 0
M  V30 7164 C 663.635 4.92348 1.99417 0
M  V30 7165 C 662.674 5.96694 1.36466 0
M  V30 7166 N 661.811 6.60292 2.38661 0
M  V30 7167 H 666.651 2.97067 -0.235661 0
M  V30 7168 H 664.188 1.46542 -0.128055 0
M  V30 7169 H 666.146 3.56144 2.17295 0
M  V30 7170 H 664.776 2.42078 2.13537 0
M  V30 7171 H 663.828 3.80113 0.147697 0
M  V30 7172 H 665.14 4.9709 0.412717 0
M  V30 7173 H 664.294 5.42054 2.72512 0
M  V30 7174 H 663.033 4.17087 2.52764 0
M  V30 7175 H 662.038 5.46304 0.61906 0
M  V30 7176 H 663.263 6.73899 0.838827 0
M  V30 7177 H 661.209 5.87858 2.91134 0
M  V30 7178 H 661.126 7.30816 1.93503 0
M  V30 7179 H 662.394 7.14635 3.11314 0
M  V30 7180 N 666.623 0.143563 1.56945 0
M  V30 7181 C 667.848 -0.518701 2.00809 0
M  V30 7182 C 668.273 -1.5785 1.02298 0
M  V30 7183 O 667.631 -1.813 -0.0017839 0
M  V30 7184 C 667.679 -1.09929 3.43436 0
M  V30 7185 O 666.783 -2.21425 3.47915 0
M  V30 7186 H 666.124 -0.127215 0.6517 0
M  V30 7187 H 668.654 0.239283 2.03196 0
M  V30 7188 H 668.664 -1.4288 3.82164 0
M  V30 7189 H 667.339 -0.323162 4.14643 0
M  V30 7190 H 665.916 -1.89728 3.21026 0
M  V30 7191 N 668.101 -1.57061 -0.130224 0
M  V30 7192 C 669.048 -1.99517 -1.16024 0
M  V30 7193 C 670.018 -0.865452 -1.41771 0
M  V30 7194 O 671.203 -1.12882 -1.53826 0
M  V30 7195 C 668.343 -2.3951 -2.48453 0
M  V30 7196 C 667.456 -3.65848 -2.29737 0
M  V30 7197 C 666.591 -3.9487 -3.55318 0
M  V30 7198 C 665.63 -5.14426 -3.31711 0
M  V30 7199 N 664.767 -5.39375 -4.49466 0
M  V30 7200 H 669.607 -2.87305 -0.791194 0
M  V30 7201 H 667.144 -1.42129 -0.379195 0
M  V30 7202 H 669.102 -2.60731 -3.25692 0
M  V30 7203 H 667.732 -1.54779 -2.83272 0
M  V30 7204 H 666.784 -3.52307 -1.4347 0
M  V30 7205 H 668.096 -4.53241 -2.08263 0
M  V30 7206 H 667.25 -4.16679 -4.4098 0
M  V30 7207 H 665.989 -3.05931 -3.79813 0
M  V30 7208 H 664.994 -4.92473 -2.44439 0
M  V30 7209 H 666.219 -6.04933 -3.08598 0
M  V30 7210 H 664.165 -4.53391 -4.74102 0
M  V30 7211 H 664.082 -6.21069 -4.31055 0
M  V30 7212 H 665.35 -5.65694 -5.36293 0
M  V30 7213 N 669.579 0.400081 -1.52437 0
M  V30 7214 C 670.995 0.739359 -1.41441 0
M  V30 7215 C 671.195 1.94512 -0.526053 0
M  V30 7216 O 670.251 2.525 0.00472502 0
M  V30 7217 C 671.564 0.984824 -2.84116 0
M  V30 7218 C 673.112 1.08698 -2.93519 0
M  V30 7219 C 673.587 1.36515 -4.37181 0
M  V30 7220 N 675.078 1.43361 -4.40457 0
M  V30 7221 C 675.813 1.66528 -5.48686 0
M  V30 7222 N 675.309 1.87239 -6.67018 0
M  V30 7223 N 677.102 1.68617 -5.36213 0
M  V30 7224 H 669.253 -0.393484 -2.08723 0
M  V30 7225 H 671.516 -0.1138 -0.941145 0
M  V30 7226 H 671.222 0.171096 -3.51284 0
M  V30 7227 H 671.096 1.90253 -3.25705 0
M  V30 7228 H 673.483 1.89129 -2.26526 0
M  V30 7229 H 673.564 0.147432 -2.55375 0
M  V30 7230 H 673.208 0.565982 -5.04737 0
M  V30 7231 H 673.138 2.31737 -4.7287 0
M  V30 7232 H 675.629 1.29108 -3.55161 0
M  V30 7233 H 675.942 2.04392 -7.45281 0
M  V30 7234 H 674.287 1.84486 -6.70067 0
M  V30 7235 H 677.478 1.5198 -4.42741 0
M  V30 7236 H 677.651 1.86332 -6.20632 0
M  V30 7237 N 671.057 1.43213 0.657864 0
M  V30 7238 C 672.334 1.35063 1.41483 0
M  V30 7239 C 672.714 -0.0038314 2.111 0
M  V30 7240 O 672.062 -1.02018 2.04462 0
M  V30 7241 C 672.272 2.53061 2.40335 0
M  V30 7242 C 673.62 2.9594 3.04474 0
M  V30 7243 O 674.644 2.53074 2.50663 0
M  V30 7244 O 673.503 3.70184 4.02027 0
M  V30 7245 H 670.597 0.533517 0.631893 0
M  V30 7246 H 673.143 1.55253 0.685162 0
M  V30 7247 H 671.915 3.43283 1.87809 0
M  V30 7248 H 671.538 2.34945 3.20759 0
M  V30 7249 N 672.536 -0.895792 1.29666 0
M  V30 7250 C 673.947 -1.46195 1.1612 0
M  V30 7251 C 674.298 -1.94699 -0.242195 0
M  V30 7252 O 673.423 -1.8406 -1.13802 0
M  V30 7253 C 674.018 -2.65718 2.10189 0
M  V30 7254 C 672.577 -3.18458 2.00653 0
M  V30 7255 C 671.724 -1.91149 2.00891 0
M  V30 7256 H 674.675 -0.706756 1.42094 0
M  V30 7257 H 674.696 -3.4158 1.6764 0
M  V30 7258 H 674.208 -2.30386 3.12321 0
M  V30 7259 H 672.309 -3.58474 1.01623 0
M  V30 7260 H 672.422 -3.82491 2.88509 0
M  V30 7261 H 670.786 -2.09021 1.45542 0
M  V30 7262 H 671.569 -1.58089 3.04734 0
M  V30 7263 N 674.014 -1.12206 -1.10668 0
M  V30 7264 C 675.239 -0.898938 -1.86906 0
M  V30 7265 C 675.664 0.546346 -1.79991 0
M  V30 7266 O 675.022 1.38655 -1.1681 0
M  V30 7267 C 675.07 -1.37529 -3.33344 0
M  V30 7268 O 674.174 -0.55218 -4.08687 0
M  V30 7269 H 673.515 -0.323163 -0.580053 0
M  V30 7270 H 676.045 -1.49355 -1.39837 0
M  V30 7271 H 676.055 -1.3733 -3.84193 0
M  V30 7272 H 674.73 -2.42767 -3.37693 0
M  V30 7273 H 673.307 -0.620947 -3.67694 0
M  V30 7274 N 675.492 1.28418 -0.913599 0
M  V30 7275 C 676.402 2.31043 -0.406965 0
M  V30 7276 C 677.418 1.66501 0.505298 0
M  V30 7277 O 678.594 1.97558 0.391522 0
M  V30 7278 C 675.659 3.4498 0.344901 0
M  V30 7279 C 674.72 4.25078 -0.600563 0
M  V30 7280 C 673.953 5.33575 0.115516 0
M  V30 7281 O 674.176 5.54503 1.33727 0
M  V30 7282 O 673.11 5.9939 -0.549095 0
M  V30 7283 H 676.936 2.76387 -1.25873 0
M  V30 7284 H 674.521 1.33109 -0.678415 0
M  V30 7285 H 676.403 4.14314 0.769542 0
M  V30 7286 H 675.078 3.01719 1.1725 0
M  V30 7287 H 673.985 3.58334 -1.0746 0
M  V30 7288 H 675.318 4.72018 -1.39497 0
M  V30 7289 N 676.97 0.677563 1.42291 0
M  V30 7290 C 677.88 0.000962654 2.346 0
M  V30 7291 C 678.896 -0.785833 1.55244 0
M  V30 7292 O 680.072 -0.727523 1.87801 0
M  V30 7293 C 677.137 -0.936746 3.33805 0
M  V30 7294 C 676.198 -0.144173 4.29058 0
M  V30 7295 C 675.431 -1.03722 5.23524 0
M  V30 7296 O 675.654 -2.27675 5.22992 0
M  V30 7297 O 674.588 -0.496542 5.99848 0
M  V30 7298 H 678.414 0.761397 2.94001 0
M  V30 7299 H 675.999 0.43781 1.42841 0
M  V30 7300 H 677.881 -1.47497 3.94744 0
M  V30 7301 H 676.556 -1.67698 2.76874 0
M  V30 7302 H 675.463 0.438224 3.71524 0
M  V30 7303 H 676.796 0.55701 4.89038 0
M  V30 7304 N 678.448 -1.51871 0.421078 0
M  V30 7305 C 679.697 -2.01125 -0.152206 0
M  V30 7306 C 680.01 -1.3106 -1.45199 0
M  V30 7307 O 681.216 -1.71195 -2.10724 0
M  V30 7308 C 679.672 -3.58458 -0.3218 0
M  V30 7309 C 679.28 -4.37448 0.96659 0
M  V30 7310 C 681.024 -4.15908 -0.84973 0
M  V30 7311 C 678.931 -5.86451 0.763529 0
M  V30 7312 H 677.861 -0.751556 -0.0606565 0
M  V30 7313 H 680.512 -1.75115 0.548354 0
M  V30 7314 H 678.894 -3.80847 -1.08498 0
M  V30 7315 H 680.068 -4.26814 1.73684 0
M  V30 7316 H 678.383 -3.91373 1.42183 0
M  V30 7317 H 680.98 -5.24922 -1.01788 0
M  V30 7318 H 681.323 -3.74031 -1.82774 0
M  V30 7319 H 681.856 -3.97535 -0.145297 0
M  V30 7320 H 678.595 -6.3271 1.71344 0
M  V30 7321 H 678.115 -5.99791 0.0327889 0
M  V30 7322 H 679.794 -6.45697 0.410354 0
M  V30 7323 N 679.926 -0.151884 -1.56866 0
M  V30 7324 C 680.836 0.798876 -2.20579 0
M  V30 7325 C 681.852 1.268 -1.19154 0
M  V30 7326 O 683.028 1.32418 -1.51748 0
M  V30 7327 C 680.093 2.01861 -2.81874 0
M  V30 7328 C 679.154 1.59825 -3.9844 0
M  V30 7329 C 678.387 2.75984 -4.56802 0
M  V30 7330 O 678.61 3.92331 -4.14044 0
M  V30 7331 O 677.544 2.51175 -5.46987 0
M  V30 7332 H 681.37 0.2865 -3.02346 0
M  V30 7333 H 678.955 0.0753806 -1.4921 0
M  V30 7334 H 680.837 2.73235 -3.20813 0
M  V30 7335 H 679.512 2.52042 -2.03117 0
M  V30 7336 H 678.419 0.854601 -3.64208 0
M  V30 7337 H 679.752 1.14355 -4.78731 0
M  V30 7338 N 681.404 1.57128 0.121893 0
M  V30 7339 C 682.653 1.83888 0.828748 0
M  V30 7340 C 682.966 0.737087 1.81181 0
M  V30 7341 O 684.172 0.891007 2.56463 0
M  V30 7342 C 682.628 3.26014 1.52455 0
M  V30 7343 C 682.236 4.44195 0.58263 0
M  V30 7344 C 683.98 3.62025 2.21671 0
M  V30 7345 C 681.887 5.77349 1.28149 0
M  V30 7346 H 680.817 0.685856 0.313238 0
M  V30 7347 H 683.468 1.83319 0.0814851 0
M  V30 7348 H 681.85 3.21044 2.31834 0
M  V30 7349 H 683.024 4.60457 -0.177729 0
M  V30 7350 H 681.339 4.164 -0.00241228 0
M  V30 7351 H 683.936 4.58776 2.74643 0
M  V30 7352 H 684.279 2.89315 2.99337 0
M  V30 7353 H 684.812 3.68767 1.49184 0
M  V30 7354 H 681.551 6.53221 0.546189 0
M  V30 7355 H 681.071 5.64978 2.01394 0
M  V30 7356 H 682.75 6.21006 1.81549 0
M  V30 7357 N 682.882 -0.391992 1.52647 0
M  V30 7358 C 683.812 -1.48517 1.8018 0
M  V30 7359 C 684.793 -1.57039 0.653667 0
M  V30 7360 O 685.978 -1.72036 0.900962 0
M  V30 7361 C 683.108 -2.86161 1.96797 0
M  V30 7362 C 682.062 -2.92481 3.12472 0
M  V30 7363 C 681.388 -4.32546 3.14338 0
M  V30 7364 C 682.688 -2.624 4.51601 0
M  V30 7365 H 684.382 -1.25726 2.71723 0
M  V30 7366 H 681.928 -0.603387 1.30749 0
M  V30 7367 H 683.881 -3.62639 2.14641 0
M  V30 7368 H 682.605 -3.10283 1.01941 0
M  V30 7369 H 681.264 -2.18451 2.94406 0
M  V30 7370 H 680.912 -4.53703 2.1717 0
M  V30 7371 H 680.612 -4.37695 3.92042 0
M  V30 7372 H 682.136 -5.10934 3.34333 0
M  V30 7373 H 683.55 -3.28596 4.69785 0
M  V30 7374 H 681.947 -2.78903 5.3135 0
M  V30 7375 H 683.017 -1.57754 4.58521 0
M  V30 7376 N 684.36 -1.4356 -0.65026 0
M  V30 7377 C 685.29 -1.51758 -1.77459 0
M  V30 7378 C 686.271 -0.372019 -1.65982 0
M  V30 7379 O 687.456 -0.589627 -1.85033 0
M  V30 7380 C 684.586 -1.44302 -3.15902 0
M  V30 7381 C 683.54 -2.57138 -3.42146 0
M  V30 7382 C 682.866 -2.34735 -4.8042 0
M  V30 7383 C 684.166 -3.99373 -3.36598 0
M  V30 7384 H 685.86 -2.45863 -1.70855 0
M  V30 7385 H 683.406 -1.18333 -0.820566 0
M  V30 7386 H 685.359 -1.48641 -3.94314 0
M  V30 7387 H 684.083 -0.467026 -3.23244 0
M  V30 7388 H 682.742 -2.52157 -2.66106 0
M  V30 7389 H 682.39 -1.35372 -4.84441 0
M  V30 7390 H 682.09 -3.10375 -4.9894 0
M  V30 7391 H 683.614 -2.40862 -5.61086 0
M  V30 7392 H 685.028 -4.05826 -4.04942 0
M  V30 7393 H 683.425 -4.75063 -3.66654 0
M  V30 7394 H 684.495 -4.243 -2.34729 0
M  V30 7395 N 685.838 0.888903 -1.30139 0
M  V30 7396 C 687.254 1.17153 -1.08385 0
M  V30 7397 C 687.454 2.0088 0.157925 0
M  V30 7398 O 686.51 2.37668 0.852652 0
M  V30 7399 C 687.823 1.882 -2.34523 0
M  V30 7400 C 689.371 2.00981 -2.39949 0
M  V30 7401 C 689.846 2.75441 -3.65918 0
M  V30 7402 N 691.337 2.82989 -3.66704 0
M  V30 7403 C 692.072 3.41167 -4.60861 0
M  V30 7404 N 691.568 4.00425 -5.6536 0
M  V30 7405 N 693.361 3.38944 -4.48412 0
M  V30 7406 H 685.512 0.33053 -2.09812 0
M  V30 7407 H 687.775 0.208964 -0.924683 0
M  V30 7408 H 687.481 1.34119 -3.25123 0
M  V30 7409 H 687.355 2.88609 -2.42868 0
M  V30 7410 H 689.742 2.54234 -1.4983 0
M  V30 7411 H 689.823 0.996725 -2.35582 0
M  V30 7412 H 689.467 2.22861 -4.56394 0
M  V30 7413 H 689.397 3.77118 -3.67546 0
M  V30 7414 H 691.888 2.40912 -2.91153 0
M  V30 7415 H 692.201 4.42871 -6.33313 0
M  V30 7416 H 690.546 3.98856 -5.69157 0
M  V30 7417 H 693.737 2.91875 -3.6596 0
M  V30 7418 H 693.91 3.83989 -5.21974 0
M  V30 7419 N 687.317 1.12792 1.10072 0
M  V30 7420 C 688.547 0.907189 1.85617 0
M  V30 7421 C 688.955 -0.547181 1.81115 0
M  V30 7422 O 688.298 -1.39024 1.20075 0
M  V30 7423 C 688.36 1.30872 3.34832 0
M  V30 7424 C 688.024 2.77516 3.6309 0
M  V30 7425 C 689.021 3.75696 3.59373 0
M  V30 7426 C 686.706 3.14513 3.91646 0
M  V30 7427 C 688.7 5.08888 3.83812 0
M  V30 7428 C 686.387 4.47886 4.15742 0
M  V30 7429 C 687.385 5.44882 4.11816 0
M  V30 7430 O 687.073 6.7585 4.35295 0
M  V30 7431 H 686.805 0.323855 0.593375 0
M  V30 7432 H 689.359 1.50262 1.40038 0
M  V30 7433 H 687.589 0.656518 3.81086 0
M  V30 7434 H 689.278 1.06153 3.91773 0
M  V30 7435 H 690.044 3.48458 3.37345 0
M  V30 7436 H 685.923 2.39622 3.93831 0
M  V30 7437 H 689.467 5.84586 3.80663 0
M  V30 7438 H 685.364 4.74851 4.37249 0
M  V30 7439 H 686.132 6.81853 4.52791 0
M  V30 7440 N 688.795 -1.27931 0.920396 0
M  V30 7441 C 690.043 -1.94304 0.555906 0
M  V30 7442 C 690.364 -1.72753 -0.904519 0
M  V30 7443 O 689.634 -1.07104 -1.64029 0
M  V30 7444 H 688.214 -0.719001 0.202599 0
M  V30 7445 H 690.876 -1.55785 1.1712 0
M  V30 7446 H 689.972 -3.02806 0.755981 0
M  V30 7447 N 690.273 -0.685099 -1.4193 0
M  V30 7448 C 691.205 0.0258679 -2.29185 0
M  V30 7449 C 692.218 0.755076 -1.44231 0
M  V30 7450 O 693.407 0.60752 -1.67844 0
M  V30 7451 C 690.507 1.06055 -3.21878 0
M  V30 7452 C 689.68 0.403088 -4.35539 0
M  V30 7453 C 688.739 1.33895 -5.0888 0
M  V30 7454 O 687.765 0.835326 -5.63037 0
M  V30 7455 N 688.967 2.6718 -5.15359 0
M  V30 7456 H 691.732 -0.723201 -2.90843 0
M  V30 7457 H 689.293 -0.53031 -1.52968 0
M  V30 7458 H 691.285 1.68813 -3.6781 0
M  V30 7459 H 689.855 1.71126 -2.616 0
M  V30 7460 H 689.075 -0.404185 -3.92122 0
M  V30 7461 H 690.363 -0.0545098 -5.08771 0
M  V30 7462 H 689.761 3.10626 -4.72788 0
M  V30 7463 H 688.318 3.25159 -5.64903 0
M  V30 7464 N 691.751 1.51645 -0.429126 0
M  V30 7465 C 692.701 2.24388 0.404217 0
M  V30 7466 C 693.685 1.26294 0.996933 0
M  V30 7467 O 694.877 1.51428 0.916434 0
M  V30 7468 C 692.006 3.08338 1.50938 0
M  V30 7469 C 691.092 4.13857 0.926464 0
M  V30 7470 N 691.483 5.05749 0.0719732 0
M  V30 7471 C 689.781 4.29695 1.19491 0
M  V30 7472 C 690.482 5.81143 -0.254528 0
M  V30 7473 N 689.458 5.42408 0.359763 0
M  V30 7474 H 693.26 2.92794 -0.254697 0
M  V30 7475 H 690.774 1.60606 -0.240712 0
M  V30 7476 H 692.771 3.59022 2.11918 0
M  V30 7477 H 691.431 2.41475 2.17072 0
M  V30 7478 H 692.442 5.17066 -0.293854 0
M  V30 7479 H 689.119 3.74059 1.85434 0
M  V30 7480 H 690.509 6.65159 -0.949365 0
M  V30 7481 N 693.229 0.160201 1.56784 0
M  V30 7482 C 694.64 -0.358417 1.83227 0
M  V30 7483 C 694.991 -1.63831 1.07952 0
M  V30 7484 O 694.116 -2.13885 0.328995 0
M  V30 7485 C 694.711 -0.657058 3.32368 0
M  V30 7486 C 693.27 -1.12015 3.59346 0
M  V30 7487 C 692.417 -0.15015 2.76893 0
M  V30 7488 H 695.368 0.384669 1.53967 0
M  V30 7489 H 695.389 -1.51033 3.49241 0
M  V30 7490 H 694.901 0.274647 3.87127 0
M  V30 7491 H 693.002 -2.06734 3.09987 0
M  V30 7492 H 693.115 -1.037 4.67743 0
M  V30 7493 H 691.479 -0.645361 2.46388 0
M  V30 7494 H 692.262 0.775379 3.34429 0
M  V30 7495 N 694.707 -1.5719 -0.113559 0
M  V30 7496 C 695.655 -2.01725 -1.158 0
M  V30 7497 C 696.649 -0.915105 -1.42556 0
M  V30 7498 O 697.855 -1.10031 -1.42454 0
M  V30 7499 H 694.23 -0.64262 -0.390569 0
M  V30 7500 H 696.201 -2.88666 -0.755926 0
M  V30 7501 C 694.95 -2.44203 -2.47507 0
M  V30 7502 H 694.273 -3.28582 -2.27758 0
M  V30 7503 H 695.713 -2.79158 -3.19135 0
M  V30 7504 C 694.172 -1.30785 -3.10478 0
M  V30 7505 O 694.702 -0.626807 -3.9678 0
M  V30 7506 N 692.908 -1.06352 -2.7044 0
M  V30 7507 H 692.455 -1.61913 -2.00355 0
M  V30 7508 H 692.413 -0.306614 -3.12901 0
M  V30 7509 N 696.185 0.383891 -1.52853 0
M  V30 7510 C 697.434 1.12563 -1.67369 0
M  V30 7511 C 697.747 1.90982 -0.422533 0
M  V30 7512 O 698.953 2.6778 -0.447914 0
M  V30 7513 C 697.409 2.05011 -2.95801 0
M  V30 7514 C 697.017 1.31991 -4.28115 0
M  V30 7515 C 698.761 2.79289 -3.19684 0
M  V30 7516 C 696.668 2.23235 -5.4765 0
M  V30 7517 H 695.598 0.42391 -0.623552 0
M  V30 7518 H 698.249 0.388016 -1.79351 0
M  V30 7519 H 696.631 2.82429 -2.77578 0
M  V30 7520 H 697.805 0.597633 -4.56908 0
M  V30 7521 H 696.12 0.696517 -4.10533 0
M  V30 7522 H 698.717 3.47749 -4.06171 0
M  V30 7523 H 699.06 3.43649 -2.3497 0
M  V30 7524 H 699.593 2.08962 -3.38496 0
M  V30 7525 H 696.332 1.63482 -6.34786 0
M  V30 7526 H 695.852 2.93364 -5.23161 0
M  V30 7527 H 697.531 2.83205 -5.81725 0
M  V30 7528 N 697.663 1.43903 0.642637 0
M  V30 7529 C 698.912 1.45362 1.39831 0
M  V30 7530 C 699.225 0.0856289 1.95412 0
M  V30 7531 O 700.431 -0.0222856 2.71491 0
M  V30 7532 C 698.887 2.55857 2.53111 0
M  V30 7533 C 698.495 3.98811 2.04092 0
M  V30 7534 C 700.239 2.66524 3.30402 0
M  V30 7535 C 698.146 5.00751 3.14647 0
M  V30 7536 H 697.076 0.540777 0.52543 0
M  V30 7537 H 699.727 1.69929 0.692559 0
M  V30 7538 H 698.109 2.2451 3.26207 0
M  V30 7539 H 699.283 4.3967 1.37938 0
M  V30 7540 H 697.598 3.92284 1.39651 0
M  V30 7541 H 700.195 3.39858 4.12796 0
M  V30 7542 H 700.538 1.71949 3.79129 0
M  V30 7543 H 701.071 2.97224 2.64392 0
M  V30 7544 H 697.81 5.96914 2.70876 0
M  V30 7545 H 697.33 4.64495 3.79479 0
M  V30 7546 H 699.009 5.23933 3.79609 0
M  V30 7547 N 699.141 -0.881989 1.30609 0
M  V30 7548 C 700.369 -1.66711 1.22536 0
M  V30 7549 C 700.784 -1.87614 -0.2113 0
M  V30 7550 O 700.141 -1.42576 -1.13923 0
M  V30 7551 C 700.192 -3.04182 1.95335 0
M  V30 7552 O 699.913 -2.8422 3.33393 0
M  V30 7553 C 701.414 -3.98617 1.93956 0
M  V30 7554 H 698.634 -0.520124 0.423925 0
M  V30 7555 H 701.178 -1.10174 1.72285 0
M  V30 7556 H 699.333 -3.57442 1.49378 0
M  V30 7557 H 699.747 -3.71452 3.70302 0
M  V30 7558 H 701.221 -4.92433 2.49426 0
M  V30 7559 H 701.698 -4.29473 0.919198 0
M  V30 7560 H 702.304 -3.51292 2.39738 0
M  V30 7561 N 700.619 -1.13374 -1.09472 0
M  V30 7562 C 701.549 -0.833268 -2.18126 0
M  V30 7563 C 702.53 0.207169 -1.68834 0
M  V30 7564 O 703.715 0.0662012 -1.94087 0
M  V30 7565 C 700.845 -0.297979 -3.46019 0
M  V30 7566 C 699.799 -1.27261 -4.08642 0
M  V30 7567 C 699.125 -0.597104 -5.31356 0
M  V30 7568 C 700.425 -2.63095 -4.51197 0
M  V30 7569 H 702.119 -1.74182 -2.43518 0
M  V30 7570 H 699.665 -0.838921 -1.17039 0
M  V30 7571 H 701.618 -0.0754444 -4.21332 0
M  V30 7572 H 700.342 0.645959 -3.20148 0
M  V30 7573 H 699.001 -1.48113 -3.35348 0
M  V30 7574 H 698.649 0.352293 -5.01765 0
M  V30 7575 H 698.349 -1.24734 -5.74208 0
M  V30 7576 H 699.873 -0.38384 -6.09392 0
M  V30 7577 H 701.287 -2.46214 -5.17737 0
M  V30 7578 H 699.684 -3.2429 -5.04932 0
M  V30 7579 H 700.754 -3.20793 -3.6362 0
M  V30 7580 N 702.098 1.27442 -0.927168 0
M  V30 7581 C 703.045 2.26863 -0.424459 0
M  V30 7582 C 704.015 1.5813 0.508346 0
M  V30 7583 O 705.2 1.85946 0.42762 0
M  V30 7584 C 702.34 3.43639 0.31718 0
M  V30 7585 C 701.453 4.27087 -0.649675 0
M  V30 7586 C 700.588 5.31082 0.111753 0
M  V30 7587 C 699.627 6.062 -0.847843 0
M  V30 7588 N 698.764 7.01999 -0.119074 0
M  V30 7589 H 703.604 2.69239 -1.27728 0
M  V30 7590 H 701.141 1.32394 -0.641106 0
M  V30 7591 H 703.099 4.10155 0.763486 0
M  V30 7592 H 701.729 3.02217 1.13424 0
M  V30 7593 H 700.781 3.60491 -1.21451 0
M  V30 7594 H 702.093 4.79242 -1.38307 0
M  V30 7595 H 701.247 6.03544 0.618 0
M  V30 7596 H 699.986 4.7973 0.878114 0
M  V30 7597 H 698.991 5.32577 -1.36534 0
M  V30 7598 H 700.216 6.59642 -1.61398 0
M  V30 7599 H 698.162 6.52977 0.629051 0
M  V30 7600 H 698.079 7.5184 -0.792046 0
M  V30 7601 H 699.347 7.78638 0.366537 0
M  V30 7602 N 703.576 0.692616 1.41565 0
M  V30 7603 C 704.853 0.150496 1.9502 0
M  V30 7604 C 705.233 -1.33881 1.63215 0
M  V30 7605 O 704.581 -2.08378 0.937598 0
M  V30 7606 C 704.791 0.438636 3.46233 0
M  V30 7607 C 706.139 0.364777 4.2303 0
M  V30 7608 O 707.163 0.373383 3.54238 0
M  V30 7609 O 706.022 0.32234 5.45549 0
M  V30 7610 H 703.116 0.0132454 0.826894 0
M  V30 7611 H 705.662 0.768574 1.51298 0
M  V30 7612 H 704.434 1.46962 3.62654 0
M  V30 7613 H 704.057 -0.210562 3.97042 0
M  V30 7614 N 705.054 -1.51416 0.437162 0
M  V30 7615 C 706.3 -2.02386 -0.129555 0
M  V30 7616 C 706.633 -1.32071 -1.42376 0
M  V30 7617 O 705.908 -0.43559 -1.8956 0
M  V30 7618 C 706.191 -3.5841 -0.348487 0
M  V30 7619 C 706.044 -4.39341 0.964352 0
M  V30 7620 C 707.363 -4.25654 -1.11834 0
M  V30 7621 H 704.482 -0.735587 -0.0456109 0
M  V30 7622 H 707.124 -1.81055 0.576124 0
M  V30 7623 H 705.274 -3.76716 -0.949592 0
M  V30 7624 H 706.946 -4.32685 1.59942 0
M  V30 7625 H 705.189 -4.04432 1.56898 0
M  V30 7626 H 705.86 -5.4667 0.765212 0
M  V30 7627 H 708.336 -4.11617 -0.609165 0
M  V30 7628 H 707.212 -5.34704 -1.24029 0
M  V30 7629 H 707.473 -3.86502 -2.14636 0
M  V30 7630 N 706.532 -0.168513 -1.56696 0
M  V30 7631 C 707.762 0.482802 -2.0088 0
M  V30 7632 C 708.17 1.57537 -1.0478 0
M  V30 7633 O 707.513 1.83656 -0.0402746 0
M  V30 7634 C 707.575 1.1236 -3.4149 0
M  V30 7635 C 707.239 0.173027 -4.56672 0
M  V30 7636 C 708.236 -0.607565 -5.16338 0
M  V30 7637 C 705.921 0.0696691 -5.02252 0
M  V30 7638 C 707.915 -1.47874 -6.2001 0
M  V30 7639 C 705.602 -0.805096 -6.05773 0
M  V30 7640 C 706.6 -1.57789 -6.64524 0
M  V30 7641 O 706.288 -2.43804 -7.66038 0
M  V30 7642 H 706.02 0.128246 -0.663723 0
M  V30 7643 H 708.574 -0.266532 -2.03663 0
M  V30 7644 H 706.804 1.921 -3.35611 0
M  V30 7645 H 708.493 1.67683 -3.69645 0
M  V30 7646 H 709.259 -0.53787 -4.82008 0
M  V30 7647 H 705.138 0.660957 -4.56237 0
M  V30 7648 H 708.682 -2.0824 -6.65794 0
M  V30 7649 H 704.579 -0.876005 -6.39528 0
M  V30 7650 H 705.347 -2.37289 -7.83349 0
M  V30 7651 N 708.01 1.57248 0.105221 0
M  V30 7652 C 709.287 1.76566 0.841647 0
M  V30 7653 C 709.667 0.747566 1.9742 0
M  V30 7654 O 709.015 -0.225886 2.27381 0
M  V30 7655 C 709.225 3.22016 1.3456 0
M  V30 7656 C 710.573 3.84911 1.79244 0
M  V30 7657 O 711.597 3.25703 1.44207 0
M  V30 7658 O 710.456 4.89008 2.43995 0
M  V30 7659 H 707.55 0.723443 0.400698 0
M  V30 7660 H 710.096 1.69472 0.0878893 0
M  V30 7661 H 708.868 3.87644 0.533685 0
M  V30 7662 H 708.491 3.33703 2.16167 0
M  V30 7663 N 709.488 -0.375779 1.53054 0
M  V30 7664 C 710.765 -1.13453 1.59336 0
M  V30 7665 C 711.145 -2.07379 0.394614 0
M  V30 7666 O 710.493 -2.2004 -0.616 0
M  V30 7667 C 710.703 -1.8826 2.93869 0
M  V30 7668 C 712.051 -2.43155 3.48081 0
M  V30 7669 O 713.075 -1.984 2.95831 0
M  V30 7670 O 711.934 -3.24944 4.39401 0
M  V30 7671 H 709.028 -0.519856 0.643179 0
M  V30 7672 H 711.574 -0.379865 1.65394 0
M  V30 7673 H 710.346 -1.19652 3.72558 0
M  V30 7674 H 709.969 -2.70658 2.91256 0
M  V30 7675 N 710.966 -1.44241 -0.634997 0
M  V30 7676 C 712.214 -1.46531 -1.39187 0
M  V30 7677 C 712.535 -0.0976441 -1.94755 0
M  V30 7678 O 711.805 0.869528 -1.75545 0
M  V30 7679 H 710.385 -0.539544 -0.516625 0
M  V30 7680 H 713.047 -1.79989 -0.747655 0
M  V30 7681 H 712.143 -2.18848 -2.22513 0
M  V30 7682 N 712.444 0.87505 -1.31075 0
M  V30 7683 C 713.391 1.98178 -1.18296 0
M  V30 7684 C 714.361 1.65952 -0.0699923 0
M  V30 7685 O 715.546 1.8926 -0.241951 0
M  V30 7686 C 712.686 3.33399 -0.891024 0
M  V30 7687 C 711.799 3.78253 -2.08684 0
M  V30 7688 C 710.934 5.02166 -1.73212 0
M  V30 7689 C 709.973 5.39455 -2.89231 0
M  V30 7690 N 709.11 6.54549 -2.53989 0
M  V30 7691 H 713.95 2.0844 -2.12971 0
M  V30 7692 H 711.487 1.02047 -1.05948 0
M  V30 7693 H 713.445 4.11246 -0.702338 0
M  V30 7694 H 712.075 3.22794 0.0188799 0
M  V30 7695 H 711.127 2.9623 -2.38646 0
M  V30 7696 H 712.439 4.01821 -2.95536 0
M  V30 7697 H 711.593 5.87666 -1.50777 0
M  V30 7698 H 710.332 4.80491 -0.83544 0
M  V30 7699 H 709.337 4.52477 -3.12321 0
M  V30 7700 H 710.562 5.63098 -3.79601 0
M  V30 7701 H 708.508 6.3443 -1.66838 0
M  V30 7702 H 708.425 6.78035 -3.34372 0
M  V30 7703 H 709.693 7.43254 -2.34934 0
M  V30 7704 N 713.922 1.13953 1.08869 0
M  V30 7705 C 714.872 0.790812 2.13846 0
M  V30 7706 C 715.856 -0.217819 1.59419 0
M  V30 7707 O 717.048 -0.0208723 1.76988 0
M  V30 7708 C 714.177 0.26479 3.42277 0
M  V30 7709 C 713.263 1.30267 4.03598 0
M  V30 7710 N 713.654 2.50535 4.39393 0
M  V30 7711 C 711.952 1.15178 4.30871 0
M  V30 7712 C 712.653 3.16938 4.87776 0
M  V30 7713 N 711.629 2.44349 4.85587 0
M  V30 7714 H 715.431 1.70577 2.39334 0
M  V30 7715 H 712.945 1.02268 1.26154 0
M  V30 7716 H 714.942 -0.00330398 4.169 0
M  V30 7717 H 713.602 -0.644419 3.18241 0
M  V30 7718 H 714.613 2.87798 4.30572 0
M  V30 7719 H 711.29 0.301204 4.16412 0
M  V30 7720 H 712.68 4.19453 5.2489 0
M  V30 7721 N 715.4 -1.26948 0.933913 0
M  V30 7722 C 716.646 -1.94374 0.57848 0
M  V30 7723 C 716.979 -1.73166 -0.879048 0
M  V30 7724 O 716.254 -1.06438 -1.62792 0
M  V30 7725 C 716.537 -3.4834 0.912739 0
M  V30 7726 C 716.39 -3.78866 2.42448 0
M  V30 7727 C 717.709 -4.38062 0.423003 0
M  V30 7728 H 714.828 -0.705959 0.211639 0
M  V30 7729 H 717.47 -1.49951 1.16682 0
M  V30 7730 H 715.62 -3.86309 0.412058 0
M  V30 7731 H 717.292 -3.50654 2.99733 0
M  V30 7732 H 715.535 -3.25198 2.87104 0
M  V30 7733 H 716.206 -4.86458 2.60887 0
M  V30 7734 H 718.682 -4.0728 0.852191 0
M  V30 7735 H 717.558 -5.44599 0.685776 0
M  V30 7736 H 717.819 -4.36886 -0.676994 0
M  V30 7737 N 716.879 -0.700114 -1.41195 0
M  V30 7738 C 718.109 -0.241828 -2.0518 0
M  V30 7739 C 718.517 1.1157 -1.52803 0
M  V30 7740 O 717.86 1.70926 -0.673042 0
M  V30 7741 C 717.922 -0.12695 -3.59276 0
M  V30 7742 C 717.586 -1.41725 -4.34469 0
M  V30 7743 C 718.583 -2.35604 -4.63451 0
M  V30 7744 C 716.268 -1.67189 -4.73659 0
M  V30 7745 C 718.262 -3.53204 -5.3059 0
M  V30 7746 C 715.949 -2.85073 -5.40534 0
M  V30 7747 C 716.947 -3.77904 -5.68927 0
M  V30 7748 O 716.635 -4.93723 -6.34424 0
M  V30 7749 H 716.367 -0.109247 -0.667114 0
M  V30 7750 H 718.921 -0.954538 -1.81873 0
M  V30 7751 H 717.151 0.641571 -3.81341 0
M  V30 7752 H 718.84 0.294748 -4.04828 0
M  V30 7753 H 719.606 -2.1719 -4.33651 0
M  V30 7754 H 715.485 -0.957935 -4.50937 0
M  V30 7755 H 719.029 -4.25679 -5.52669 0
M  V30 7756 H 714.926 -3.03402 -5.69752 0
M  V30 7757 H 715.694 -4.93597 -6.5292 0
M  V30 7758 N 718.357 1.51182 -0.445186 0
M  V30 7759 C 719.287 2.30821 0.352686 0
M  V30 7760 C 720.268 1.36576 1.01395 0
M  V30 7761 O 721.453 1.65497 1.01609 0
M  V30 7762 C 718.583 3.15593 1.44976 0
M  V30 7763 C 717.537 4.1818 0.911553 0
M  V30 7764 C 716.863 4.91523 2.10497 0
M  V30 7765 C 718.163 5.22266 -0.059418 0
M  V30 7766 H 719.857 2.97771 -0.311936 0
M  V30 7767 H 717.403 1.43201 -0.151461 0
M  V30 7768 H 719.356 3.70091 2.01521 0
M  V30 7769 H 718.08 2.4648 2.14278 0
M  V30 7770 H 716.739 3.64746 0.368264 0
M  V30 7771 H 716.387 4.18906 2.78437 0
M  V30 7772 H 716.087 5.60898 1.7512 0
M  V30 7773 H 717.611 5.48847 2.6758 0
M  V30 7774 H 719.025 5.71789 0.415985 0
M  V30 7775 H 717.422 5.99213 -0.326152 0
M  V30 7776 H 718.492 4.7461 -0.993631 0
M  V30 7777 N 719.835 0.176821 1.56605 0
M  V30 7778 C 721.081 -0.467406 1.9734 0
M  V30 7779 C 721.414 -1.62523 1.06301 0
M  V30 7780 O 720.689 -1.94182 0.11125 0
M  V30 7781 C 720.972 -0.945106 3.47476 0
M  V30 7782 C 720.825 0.213273 4.49294 0
M  V30 7783 C 722.144 -1.8169 4.00845 0
M  V30 7784 H 719.263 -0.168426 0.717497 0
M  V30 7785 H 721.905 0.264065 1.88156 0
M  V30 7786 H 720.055 -1.56841 3.55434 0
M  V30 7787 H 721.727 0.850508 4.53392 0
M  V30 7788 H 719.97 0.867918 4.25029 0
M  V30 7789 H 720.641 -0.163187 5.51759 0
M  V30 7790 H 723.117 -1.29139 3.95553 0
M  V30 7791 H 721.993 -2.12015 5.06301 0
M  V30 7792 H 722.254 -2.76463 3.44994 0
M  V30 7793 N 721.313 -1.57302 -0.09688 0
M  V30 7794 C 722.541 -1.90202 -0.814295 0
M  V30 7795 C 722.956 -0.770344 -1.72369 0
M  V30 7796 O 722.313 0.257764 -1.8067 0
M  V30 7797 C 722.364 -3.22708 -1.62916 0
M  V30 7798 O 722.085 -4.31522 -0.756343 0
M  V30 7799 C 723.586 -3.69459 -2.44979 0
M  V30 7800 H 720.806 -0.629275 -0.232925 0
M  V30 7801 H 723.35 -2.04364 -0.0746482 0
M  V30 7802 H 721.505 -3.1015 -2.32133 0
M  V30 7803 H 721.919 -5.07604 -1.32054 0
M  V30 7804 H 723.393 -4.64875 -2.9765 0
M  V30 7805 H 723.87 -2.97211 -3.23361 0
M  V30 7806 H 724.476 -3.84879 -1.80964 0
M  V30 7807 N 722.791 0.367657 -1.53252 0
M  V30 7808 C 723.701 1.47415 -1.82499 0
M  V30 7809 C 724.717 1.58711 -0.713222 0
M  V30 7810 O 725.893 1.74644 -1.00306 0
M  V30 7811 C 722.958 2.82706 -2.00694 0
M  V30 7812 C 722.019 2.80955 -3.24596 0
M  V30 7813 C 721.252 4.09793 -3.41914 0
M  V30 7814 O 721.475 5.05852 -2.63572 0
M  V30 7815 O 720.409 4.15731 -4.3526 0
M  V30 7816 H 724.235 1.25624 -2.765 0
M  V30 7817 H 721.82 0.557559 -1.38606 0
M  V30 7818 H 723.702 3.62873 -2.14246 0
M  V30 7819 H 722.377 3.04479 -1.09883 0
M  V30 7820 H 721.284 1.99494 -3.16469 0
M  V30 7821 H 722.617 2.64136 -4.15323 0
M  V30 7822 N 724.269 1.44576 0.627338 0
M  V30 7823 C 725.199 1.54562 1.75022 0
M  V30 7824 C 726.18 0.398378 1.65369 0
M  V30 7825 O 727.365 0.61899 1.84071 0
M  V30 7826 C 724.495 1.49309 3.13567 0
M  V30 7827 C 723.449 2.62549 3.38012 0
M  V30 7828 C 722.775 2.42348 4.76625 0
M  V30 7829 C 724.075 4.04678 3.30202 0
M  V30 7830 H 725.769 2.4855 1.66922 0
M  V30 7831 H 723.315 1.19624 0.801636 0
M  V30 7832 H 725.268 1.54895 3.919 0
M  V30 7833 H 723.992 0.518392 3.2246 0
M  V30 7834 H 722.651 2.56358 2.62061 0
M  V30 7835 H 722.299 1.43062 4.82226 0
M  V30 7836 H 721.999 3.18273 4.93939 0
M  V30 7837 H 723.523 2.49758 5.57183 0
M  V30 7838 H 724.937 4.12217 3.98435 0
M  V30 7839 H 723.334 4.80836 3.5905 0
M  V30 7840 H 724.404 4.2798 2.27949 0
M  V30 7841 N 725.747 -0.868086 1.31537 0
M  V30 7842 C 726.68 -1.97871 1.13676 0
M  V30 7843 C 727.658 -1.62551 0.0397589 0
M  V30 7844 O 728.842 -1.87473 0.196539 0
M  V30 7845 C 725.969 -3.30577 0.73734 0
M  V30 7846 C 725.015 -3.8488 1.83765 0
M  V30 7847 S 725.848 -4.10106 3.44345 0
M  V30 7848 C 727.004 -5.45806 3.06344 0
M  V30 7849 H 727.237 -2.12719 2.07697 0
M  V30 7850 H 724.77 -1.01849 1.16044 0
M  V30 7851 H 726.728 -4.07274 0.513641 0
M  V30 7852 H 725.389 -3.13562 -0.183787 0
M  V30 7853 H 724.582 -4.80821 1.51085 0
M  V30 7854 H 724.184 -3.14981 2.01651 0
M  V30 7855 H 726.476 -6.27535 2.55354 0
M  V30 7856 H 727.419 -5.83437 4.01257 0
M  V30 7857 H 727.827 -5.0917 2.43734 0
M  V30 7858 N 727.225 -1.14528 -1.08264 0
M  V30 7859 C 728.641 -0.885976 -1.3275 0
M  V30 7860 C 728.841 0.472096 -1.95892 0
M  V30 7861 O 727.897 1.21606 -2.21288 0
M  V30 7862 C 729.21 -2.01982 -2.22764 0
M  V30 7863 C 730.758 -2.05329 -2.36239 0
M  V30 7864 C 731.233 -3.1801 -3.29596 0
M  V30 7865 N 732.724 -3.17598 -3.37173 0
M  V30 7866 C 733.459 -4.01426 -4.09444 0
M  V30 7867 N 732.955 -4.95297 -4.8441 0
M  V30 7868 N 734.748 -3.89482 -4.0529 0
M  V30 7869 H 726.899 -2.01996 -0.656607 0
M  V30 7870 H 729.162 -0.880274 -0.351884 0
M  V30 7871 H 728.868 -2.99964 -1.83615 0
M  V30 7872 H 728.742 -1.94421 -3.23234 0
M  V30 7873 H 731.129 -1.07953 -2.74646 0
M  V30 7874 H 731.21 -2.1696 -1.35506 0
M  V30 7875 H 730.854 -4.15633 -2.9191 0
M  V30 7876 H 730.784 -3.03616 -4.30261 0
M  V30 7877 H 733.275 -2.4961 -2.83731 0
M  V30 7878 H 733.588 -5.55723 -5.37021 0
M  V30 7879 H 731.933 -4.99293 -4.83457 0
M  V30 7880 H 735.124 -3.15465 -3.45832 0
M  V30 7881 H 735.297 -4.55039 -4.6135 0
M  V30 7882 N 728.703 1.26451 -0.940633 0
M  V30 7883 C 729.951 1.93395 -0.586748 0
M  V30 7884 C 730.272 1.7417 0.876921 0
M  V30 7885 O 729.542 1.097 1.62304 0
M  V30 7886 H 728.122 0.715687 -0.214012 0
M  V30 7887 H 730.784 1.53902 -1.19584 0
M  V30 7888 H 729.88 3.01565 -0.804059 0
M  V30 7889 N 730.181 0.707592 1.40822 0
M  V30 7890 C 731.429 0.243189 2.00632 0
M  V30 7891 C 731.75 -1.16512 1.56365 0
M  V30 7892 O 731.02 -1.78841 0.799553 0
M  V30 7893 H 729.6 0.0869203 0.741926 0
M  V30 7894 H 732.262 0.911438 1.72275 0
M  V30 7895 H 731.358 0.270014 3.1093 0
M  V30 7896 N 731.66 -1.50943 0.453197 0
M  V30 7897 C 732.57 -2.31884 -0.355963 0
M  V30 7898 C 733.586 -1.41481 -1.01287 0
M  V30 7899 O 734.762 -1.74546 -1.00477 0
M  V30 7900 C 731.827 -3.15668 -1.43369 0
M  V30 7901 C 730.888 -4.2187 -0.795253 0
M  V30 7902 C 730.121 -5.0165 -1.82162 0
M  V30 7903 O 730.344 -4.82266 -3.04592 0
M  V30 7904 O 729.278 -5.85311 -1.40336 0
M  V30 7905 H 733.104 -3.02162 0.305248 0
M  V30 7906 H 730.689 -1.47839 0.215398 0
M  V30 7907 H 732.571 -3.67709 -2.05836 0
M  V30 7908 H 731.246 -2.48137 -2.07869 0
M  V30 7909 H 730.153 -3.73867 -0.132106 0
M  V30 7910 H 731.486 -4.9182 -0.193484 0
M  V30 7911 N 733.138 -0.185124 -1.56509 0
M  V30 7912 C 734.068 0.735098 -2.21627 0
M  V30 7913 C 735.049 1.2288 -1.1762 0
M  V30 7914 O 736.234 1.27945 -1.46095 0
M  V30 7915 C 733.364 1.95889 -2.86783 0
M  V30 7916 C 732.318 1.6005 -3.96948 0
M  V30 7917 C 731.644 2.90009 -4.4922 0
M  V30 7918 C 732.944 0.818008 -5.15855 0
M  V30 7919 H 734.638 0.192274 -2.98782 0
M  V30 7920 H 732.184 0.0910393 -1.43712 0
M  V30 7921 H 734.137 2.60779 -3.31017 0
M  V30 7922 H 732.861 2.52608 -2.07018 0
M  V30 7923 H 731.52 0.975237 -3.5339 0
M  V30 7924 H 731.168 3.44797 -3.6623 0
M  V30 7925 H 730.868 2.66778 -5.23549 0
M  V30 7926 H 732.392 3.55904 -4.9615 0
M  V30 7927 H 733.806 1.36979 -5.56695 0
M  V30 7928 H 732.203 0.684207 -5.96187 0
M  V30 7929 H 733.273 -0.182939 -4.84555 0
M  V30 7930 N 734.616 1.57351 0.0885366 0
M  V30 7931 C 735.546 2.05561 1.10757 0
M  V30 7932 C 736.527 0.945789 1.41382 0
M  V30 7933 O 737.712 1.21747 1.51299 0
M  V30 7934 C 734.842 2.48554 2.42566 0
M  V30 7935 C 733.796 3.63259 2.26334 0
M  V30 7936 C 733.122 3.9225 3.63378 0
M  V30 7937 C 734.422 4.93913 1.69844 0
M  V30 7938 H 736.116 2.90946 0.706468 0
M  V30 7939 H 733.662 1.39968 0.338385 0
M  V30 7940 H 735.615 2.8089 3.14132 0
M  V30 7941 H 734.339 1.60176 2.84625 0
M  V30 7942 H 732.998 3.31179 1.57213 0
M  V30 7943 H 732.646 3.0103 4.02976 0
M  V30 7944 H 732.346 4.69478 3.53362 0
M  V30 7945 H 733.87 4.27067 4.36401 0
M  V30 7946 H 735.284 5.24588 2.31258 0
M  V30 7947 H 733.681 5.75349 1.70569 0
M  V30 7948 H 734.751 4.80409 0.65843 0
M  V30 7949 N 736.094 -0.359525 1.53444 0
M  V30 7950 C 737.371 -1.11756 1.6053 0
M  V30 7951 C 737.751 -2.06949 0.416587 0
M  V30 7952 O 737.099 -2.20681 -0.592628 0
M  V30 7953 C 737.309 -1.85133 2.95849 0
M  V30 7954 C 738.657 -2.3945 3.50641 0
M  V30 7955 O 739.681 -1.95251 2.97918 0
M  V30 7956 O 738.54 -3.20266 4.42823 0
M  V30 7957 H 735.634 -0.513005 0.648656 0
M  V30 7958 H 738.18 -0.362301 1.65787 0
M  V30 7959 H 736.952 -1.15694 3.73806 0
M  V30 7960 H 736.575 -2.67554 2.9411 0
M  V30 7961 N 737.572 -1.44907 -0.619662 0
M  V30 7962 C 738.519 -1.52654 -1.73105 0
M  V30 7963 C 739.489 -0.373334 -1.6185 0
M  V30 7964 O 740.674 -0.585143 -1.81606 0
M  V30 7965 C 737.814 -1.48769 -3.11387 0
M  V30 7966 C 736.927 -2.74551 -3.33535 0
M  V30 7967 C 736.062 -2.62421 -4.61854 0
M  V30 7968 C 735.101 -3.83312 -4.77219 0
M  V30 7969 N 734.238 -3.69789 -5.96826 0
M  V30 7970 H 739.078 -2.47605 -1.65819 0
M  V30 7971 H 736.615 -1.22875 -0.808719 0
M  V30 7972 H 738.573 -1.44507 -3.91374 0
M  V30 7973 H 737.203 -0.573783 -3.1766 0
M  V30 7974 H 736.255 -2.88953 -2.47408 0
M  V30 7975 H 737.567 -3.64253 -3.40765 0
M  V30 7976 H 736.721 -2.56056 -5.50019 0
M  V30 7977 H 735.46 -1.70298 -4.57001 0
M  V30 7978 H 734.465 -3.90049 -3.87481 0
M  V30 7979 H 735.69 -4.76486 -4.83878 0
M  V30 7980 H 733.636 -2.80426 -5.93041 0
M  V30 7981 H 733.553 -4.53116 -6.05163 0
M  V30 7982 H 734.821 -3.67335 -6.87521 0
M  V30 7983 N 739.05 0.861098 -1.31996 0
M  V30 7984 C 740.299 1.60965 -1.21545 0
M  V30 7985 C 740.612 1.94325 0.222972 0
M  V30 7986 O 741.818 2.67757 0.449272 0
M  V30 7987 C 740.274 2.90223 -2.12834 0
M  V30 7988 C 739.882 2.64313 -3.61722 0
M  V30 7989 C 741.626 3.68229 -2.11205 0
M  V30 7990 C 739.533 3.89532 -4.44993 0
M  V30 7991 H 738.463 0.603988 -0.451348 0
M  V30 7992 H 741.114 0.951358 -1.56912 0
M  V30 7993 H 739.496 3.57475 -1.70375 0
M  V30 7994 H 740.67 2.05413 -4.12483 0
M  V30 7995 H 738.985 1.99647 -3.65418 0
M  V30 7996 H 741.582 4.61138 -2.70658 0
M  V30 7997 H 741.925 4.01466 -1.1014 0
M  V30 7998 H 742.458 3.07873 -2.51911 0
M  V30 7999 H 739.197 3.61441 -5.46846 0
M  V30 8000 H 738.717 4.47851 -3.98985 0
M  V30 8001 H 740.396 4.57334 -4.57663 0
M  V30 8002 N 740.528 1.15101 1.07655 0
M  V30 8003 C 741.458 0.867864 2.16773 0
M  V30 8004 C 742.439 -0.180283 1.69142 0
M  V30 8005 O 743.624 -0.0353152 1.94168 0
M  V30 8006 C 740.754 0.35299 3.45501 0
M  V30 8007 C 739.708 1.33746 4.06566 0
M  V30 8008 C 739.034 0.681562 5.30338 0
M  V30 8009 C 740.334 2.7024 4.46954 0
M  V30 8010 H 742.028 1.78034 2.40716 0
M  V30 8011 H 739.574 0.857435 1.15689 0
M  V30 8012 H 741.527 0.142465 4.21159 0
M  V30 8013 H 740.251 -0.594945 3.21135 0
M  V30 8014 H 738.91 1.53429 3.32949 0
M  V30 8015 H 738.558 -0.272422 5.02262 0
M  V30 8016 H 738.258 1.33853 5.72151 0
M  V30 8017 H 739.782 0.48074 6.08705 0
M  V30 8018 H 741.196 2.5442 5.13754 0
M  V30 8019 H 739.593 3.32282 4.99709 0
M  V30 8020 H 740.663 3.26537 3.58471 0
M  V30 8021 N 742.006 -1.2595 0.947325 0
M  V30 8022 C 743.422 -1.45737 0.650597 0
M  V30 8023 C 743.622 -1.85189 -0.794188 0
M  V30 8024 O 742.678 -1.97738 -1.57022 0
M  V30 8025 C 743.991 -2.53505 1.61728 0
M  V30 8026 C 745.539 -2.67351 1.62765 0
M  V30 8027 C 746.014 -3.78296 2.58179 0
M  V30 8028 N 747.505 -3.85696 2.56501 0
M  V30 8029 C 748.24 -4.71012 3.2701 0
M  V30 8030 N 747.736 -5.60669 4.06966 0
M  V30 8031 N 749.529 -4.64912 3.15932 0
M  V30 8032 H 741.68 -0.986327 1.8811 0
M  V30 8033 H 743.943 -0.494639 0.808725 0
M  V30 8034 H 743.649 -2.31357 2.6489 0
M  V30 8035 H 743.523 -3.51281 1.3741 0
M  V30 8036 H 745.91 -2.88869 0.603241 0
M  V30 8037 H 745.991 -1.69998 1.91139 0
M  V30 8038 H 745.635 -3.5753 3.60742 0
M  V30 8039 H 745.565 -4.75117 2.27093 0
M  V30 8040 H 748.056 -3.21601 1.98447 0
M  V30 8041 H 748.369 -6.22677 4.57704 0
M  V30 8042 H 746.714 -5.60402 4.11066 0
M  V30 8043 H 749.905 -3.93874 2.52945 0
M  V30 8044 H 750.078 -5.3118 3.71149 0
M  V30 8045 N 743.484 -0.715051 -1.40445 0
M  V30 8046 C 744.416 -0.0227516 -2.29189 0
M  V30 8047 C 745.429 0.724313 -1.458 0
M  V30 8048 O 746.618 0.571781 -1.69094 0
M  V30 8049 C 743.718 0.992038 -3.24055 0
M  V30 8050 C 742.891 0.310613 -4.36296 0
M  V30 8051 C 741.95 1.23071 -5.11605 0
M  V30 8052 O 740.976 0.71571 -5.64682 0
M  V30 8053 N 742.178 2.56188 -5.2091 0
M  V30 8054 H 744.943 -0.78473 -2.89244 0
M  V30 8055 H 742.504 -0.562637 -1.51809 0
M  V30 8056 H 744.496 1.60973 -3.71308 0
M  V30 8057 H 743.066 1.65538 -2.65171 0
M  V30 8058 H 742.286 -0.487269 -3.91177 0
M  V30 8059 H 743.574 -0.162415 -5.08541 0
M  V30 8060 H 742.972 3.00527 -4.7927 0
M  V30 8061 H 741.529 3.13103 -5.71673 0
M  V30 8062 N 744.962 1.50701 -0.461195 0
M  V30 8063 C 745.909 2.2831 0.338094 0
M  V30 8064 C 746.879 1.32928 0.995957 0
M  V30 8065 O 748.064 1.61857 1.0103 0
M  V30 8066 C 745.204 3.14539 1.41983 0
M  V30 8067 C 744.317 4.24942 0.77773 0
M  V30 8068 C 743.452 4.98443 1.83652 0
M  V30 8069 C 742.491 6.00733 1.17413 0
M  V30 8070 N 741.628 6.6755 2.17533 0
M  V30 8071 H 746.468 2.96167 -0.330051 0
M  V30 8072 H 744.005 1.4606 -0.174611 0
M  V30 8073 H 745.963 3.62877 2.05855 0
M  V30 8074 H 744.593 2.48749 2.05727 0
M  V30 8075 H 743.645 3.80391 0.0266924 0
M  V30 8076 H 744.957 4.98151 0.254362 0
M  V30 8077 H 744.111 5.50449 2.55129 0
M  V30 8078 H 742.85 4.24917 2.39367 0
M  V30 8079 H 741.855 5.47997 0.444944 0
M  V30 8080 H 743.08 6.76227 0.624006 0
M  V30 8081 H 741.026 5.96823 2.72284 0
M  V30 8082 H 740.943 7.36603 1.70154 0
M  V30 8083 H 742.211 7.24178 2.88421 0
M  V30 8084 N 746.441 0.193421 1.56409 0
M  V30 8085 C 747.688 -0.445789 1.97532 0
M  V30 8086 C 748.016 -1.61744 1.08024 0
M  V30 8087 O 747.271 -1.95338 0.118982 0
M  V30 8088 C 747.57 -0.949718 3.44551 0
M  V30 8089 C 747.236 0.108383 4.5077 0
M  V30 8090 C 745.898 0.399126 4.79542 0
M  V30 8091 C 748.25 0.825423 5.14622 0
M  V30 8092 C 745.578 1.41192 5.69457 0
M  V30 8093 C 747.93 1.82735 6.05632 0
M  V30 8094 C 746.594 2.12531 6.32761 0
M  V30 8095 H 745.864 -0.163126 0.722822 0
M  V30 8096 H 748.511 0.290035 1.89291 0
M  V30 8097 H 746.816 -1.76378 3.49854 0
M  V30 8098 H 748.513 -1.45367 3.73724 0
M  V30 8099 H 745.103 -0.128392 4.28408 0
M  V30 8100 H 749.287 0.61403 4.92487 0
M  V30 8101 H 744.543 1.6487 5.88751 0
M  V30 8102 H 748.717 2.3882 6.5417 0
M  V30 8103 H 746.344 2.91155 7.02234 0
M  V30 8104 N 747.919 -1.57396 -0.0801906 0
M  V30 8105 C 749.166 -1.86836 -0.780927 0
M  V30 8106 C 749.494 -0.784012 -1.77999 0
M  V30 8107 O 748.749 0.220881 -1.94449 0
M  V30 8108 C 749.048 -3.22915 -1.53169 0
M  V30 8109 C 748.714 -4.45843 -0.67339 0
M  V30 8110 C 747.376 -4.79213 -0.436829 0
M  V30 8111 C 749.728 -5.21142 -0.0776786 0
M  V30 8112 C 747.056 -5.853 0.405062 0
M  V30 8113 C 749.408 -6.28119 0.751619 0
M  V30 8114 C 748.072 -6.59995 0.998131 0
M  V30 8115 H 747.342 -0.683682 -0.285761 0
M  V30 8116 H 749.989 -1.91454 -0.0419435 0
M  V30 8117 H 748.294 -3.14049 -2.34265 0
M  V30 8118 H 749.991 -3.42926 -2.07853 0
M  V30 8119 H 746.581 -4.19721 -0.867891 0
M  V30 8120 H 750.765 -4.95682 -0.247572 0
M  V30 8121 H 746.021 -6.084 0.60488 0
M  V30 8122 H 750.195 -6.8563 1.22 0
M  V30 8123 H 747.822 -7.42027 1.65227 0
M  V30 8124 N 749.397 0.351382 -1.53633 0
M  V30 8125 C 750.622 1.11718 -1.74739 0
M  V30 8126 C 751.047 1.81829 -0.481657 0
M  V30 8127 O 750.405 1.72264 0.565233 0
M  V30 8128 C 750.453 2.11234 -2.92254 0
M  V30 8129 O 749.557 3.186 -2.61855 0
M  V30 8130 H 748.898 0.323482 -0.579875 0
M  V30 8131 H 751.428 0.404167 -2.00568 0
M  V30 8132 H 751.438 2.54591 -3.18822 0
M  V30 8133 H 750.113 1.59599 -3.84058 0
M  V30 8134 H 748.69 2.80115 -2.4615 0
M  V30 8135 N 750.875 1.45233 0.611969 0
M  V30 8136 C 751.785 1.56098 1.7513 0
M  V30 8137 C 752.801 0.445646 1.68196 0
M  V30 8138 O 753.977 0.705718 1.88631 0
M  V30 8139 C 751.042 1.52052 3.11579 0
M  V30 8140 C 750.103 2.74589 3.29999 0
M  V30 8141 C 749.336 2.70726 4.59938 0
M  V30 8142 O 749.559 1.77806 5.41979 0
M  V30 8143 O 748.493 3.61864 4.80976 0
M  V30 8144 H 752.319 2.52392 1.68914 0
M  V30 8145 H 749.904 1.27695 0.775528 0
M  V30 8146 H 751.786 1.52387 3.92882 0
M  V30 8147 H 750.461 0.589085 3.18295 0
M  V30 8148 H 749.368 2.79817 2.48301 0
M  V30 8149 H 750.701 3.66843 3.28157 0
M  V30 8150 N 752.353 -0.854086 1.3245 0
M  V30 8151 C 753.769 -1.14238 1.11453 0
M  V30 8152 C 753.969 -2.01228 -0.10461 0
M  V30 8153 O 753.025 -2.39845 -0.789339 0
M  V30 8154 C 754.338 -1.81916 2.39431 0
M  V30 8155 C 755.886 -1.94549 2.45193 0
M  V30 8156 C 756.361 -2.65642 3.73093 0
M  V30 8157 N 757.852 -2.73167 3.74078 0
M  V30 8158 C 758.587 -3.28828 4.69744 0
M  V30 8159 N 758.083 -3.85295 5.75778 0
M  V30 8160 N 759.876 -3.26936 4.57241 0
M  V30 8161 H 752.027 -0.274786 2.10615 0
M  V30 8162 H 754.29 -0.184375 0.929898 0
M  V30 8163 H 753.996 -1.25452 3.28565 0
M  V30 8164 H 753.87 -2.82068 2.50434 0
M  V30 8165 H 756.257 -2.50172 1.56518 0
M  V30 8166 H 756.338 -0.933914 2.38142 0
M  V30 8167 H 755.982 -2.10683 4.62142 0
M  V30 8168 H 755.912 -3.6724 3.77415 0
M  V30 8169 H 758.403 -2.33108 2.97438 0
M  V30 8170 H 758.716 -4.25925 6.44832 0
M  V30 8171 H 757.061 -3.83625 5.79531 0
M  V30 8172 H 760.252 -2.8207 3.7357 0
M  V30 8173 H 760.425 -3.70014 5.31971 0
M  V30 8174 N 753.831 -1.1567 -1.07043 0
M  V30 8175 C 754.741 -0.870435 -2.17855 0
M  V30 8176 C 755.757 0.154452 -1.73313 0
M  V30 8177 O 756.933 -0.0203759 -2.0139 0
M  V30 8178 C 753.998 -0.367219 -3.4475 0
M  V30 8179 C 753.059 -1.45639 -4.03841 0
M  V30 8180 C 752.292 -0.977092 -5.2468 0
M  V30 8181 O 752.515 0.176127 -5.70128 0
M  V30 8182 O 751.449 -1.76215 -5.75527 0
M  V30 8183 H 755.275 -1.79687 -2.44839 0
M  V30 8184 H 752.86 -0.936064 -1.1644 0
M  V30 8185 H 754.742 -0.0931947 -4.21297 0
M  V30 8186 H 753.417 0.53131 -3.1931 0
M  V30 8187 H 752.324 -1.78406 -3.28819 0
M  V30 8188 H 753.657 -2.32995 -4.3356 0
M  V30 8189 N 755.309 1.25446 -0.953992 0
M  V30 8190 C 756.272 2.24156 -0.478179 0
M  V30 8191 C 757.272 1.55278 0.417776 0
M  V30 8192 O 758.462 1.72866 0.215155 0
M  V30 8193 C 755.594 3.39495 0.309202 0
M  V30 8194 H 756.787 2.67764 -1.35064 0
M  V30 8195 H 754.34 1.37822 -0.737206 0
M  V30 8196 H 755.075 3.01307 1.19936 0
M  V30 8197 H 754.86 3.90679 -0.333562 0
M  V30 8198 H 756.35 4.12796 0.631594 0
M  V30 8199 N 756.787 0.722489 1.40064 0
M  V30 8200 C 758.012 0.273446 2.05589 0
M  V30 8201 C 758.437 -1.07875 1.54093 0
M  V30 8202 O 757.795 -1.68095 0.679252 0
M  V30 8203 C 757.843 0.271023 3.5958 0
M  V30 8204 O 756.947 -0.745499 4.05606 0
M  V30 8205 H 756.288 0.126856 0.65177 0
M  V30 8206 H 758.818 0.984906 1.79334 0
M  V30 8207 H 758.828 0.111084 4.07849 0
M  V30 8208 H 757.503 1.25776 3.96425 0
M  V30 8209 H 756.08 -0.552719 3.68781 0
M  V30 8210 N 758.265 -1.50454 0.469181 0
M  V30 8211 C 759.512 -2.02315 -0.086469 0
M  V30 8212 C 759.84 -1.3513 -1.39893 0
M  V30 8213 O 759.095 -0.465341 -1.90087 0
M  V30 8214 C 759.394 -3.55963 -0.320207 0
M  V30 8215 C 759.06 -4.41615 0.910318 0
M  V30 8216 C 757.722 -4.64743 1.2477 0
M  V30 8217 C 760.074 -4.91661 1.72971 0
M  V30 8218 C 757.402 -5.35161 2.40457 0
M  V30 8219 C 759.754 -5.6335 2.87785 0
M  V30 8220 C 758.418 -5.84732 3.2194 0
M  V30 8221 H 757.688 -0.740324 -0.0316412 0
M  V30 8222 H 760.335 -1.81087 0.622872 0
M  V30 8223 H 758.64 -3.75695 -1.11177 0
M  V30 8224 H 760.337 -3.93653 -0.764071 0
M  V30 8225 H 756.927 -4.23833 0.637467 0
M  V30 8226 H 761.111 -4.73649 1.48224 0
M  V30 8227 H 756.367 -5.49924 2.67196 0
M  V30 8228 H 760.541 -6.0111 3.51624 0
M  V30 8229 H 758.168 -6.39074 4.1169 0
M  V30 8230 N 759.743 -0.201713 -1.56304 0
M  V30 8231 C 760.989 0.435952 -1.98059 0
M  V30 8232 C 761.322 1.60811 -1.08873 0
M  V30 8233 O 760.597 1.9398 -0.142128 0
M  V30 8234 C 760.88 0.889706 -3.48936 0
M  V30 8235 C 760.733 -0.284725 -4.48898 0
M  V30 8236 C 762.052 1.7529 -4.03685 0
M  V30 8237 H 759.171 0.15699 -0.720085 0
M  V30 8238 H 761.813 -0.293965 -1.87712 0
M  V30 8239 H 759.963 1.51166 -3.57884 0
M  V30 8240 H 761.635 -0.922531 -4.51981 0
M  V30 8241 H 759.878 -0.935427 -4.23594 0
M  V30 8242 H 760.549 0.0753865 -5.51949 0
M  V30 8243 H 763.025 1.2283 -3.97558 0
M  V30 8244 H 761.901 2.03933 -5.0961 0
M  V30 8245 H 762.162 2.70939 -3.49348 0
M  V30 8246 N 761.222 1.57436 0.0718424 0
M  V30 8247 C 762.152 2.06724 1.08571 0
M  V30 8248 C 763.133 0.960731 1.40371 0
M  V30 8249 O 764.318 1.23345 1.49999 0
M  V30 8250 C 761.448 2.51112 2.39916 0
M  V30 8251 C 760.402 3.65639 2.22469 0
M  V30 8252 C 759.728 3.96082 3.59198 0
M  V30 8253 C 761.028 4.95687 1.64596 0
M  V30 8254 H 762.722 2.91679 0.675569 0
M  V30 8255 H 760.268 1.40319 0.32352 0
M  V30 8256 H 762.221 2.84206 3.11135 0
M  V30 8257 H 760.945 1.63186 2.8291 0
M  V30 8258 H 759.604 3.32828 1.53691 0
M  V30 8259 H 759.252 3.05287 3.99761 0
M  V30 8260 H 758.952 4.73199 3.48362 0
M  V30 8261 H 760.476 4.31672 4.31847 0
M  V30 8262 H 761.89 5.27011 2.25681 0
M  V30 8263 H 760.287 5.77126 1.64457 0
M  V30 8264 H 761.357 4.8108 0.60744 0
M  V30 8265 N 762.7 -0.34323 1.53817 0
M  V30 8266 C 763.65 -1.42217 1.78208 0
M  V30 8267 C 764.634 -1.4774 0.637304 0
M  V30 8268 O 765.826 -1.52605 0.896705 0
M  V30 8269 C 762.955 -2.79354 1.9954 0
M  V30 8270 C 762.041 -2.78222 3.20084 0
M  V30 8271 N 762.432 -2.46719 4.41547 0
M  V30 8272 C 760.73 -3.09368 3.21259 0
M  V30 8273 C 761.431 -2.53828 5.23399 0
M  V30 8274 N 760.407 -2.89464 4.60121 0
M  V30 8275 H 764.209 -1.16759 2.69712 0
M  V30 8276 H 761.723 -0.551592 1.52746 0
M  V30 8277 H 763.72 -3.57095 2.15148 0
M  V30 8278 H 762.38 -3.05759 1.09278 0
M  V30 8279 H 763.391 -2.19912 4.68891 0
M  V30 8280 H 760.068 -3.40942 2.40966 0
M  V30 8281 H 761.458 -2.32629 6.30344 0
M  V30 8282 N 764.178 -1.45556 -0.604258 0
M  V30 8283 C 765.406 -1.53278 -1.38973 0
M  V30 8284 C 765.821 -0.166509 -1.88064 0
M  V30 8285 O 765.178 0.832519 -1.62405 0
M  V30 8286 C 765.229 -2.51992 -2.59195 0
M  V30 8287 O 764.95 -3.8331 -2.12143 0
M  V30 8288 C 766.451 -2.69445 -3.52015 0
M  V30 8289 H 763.671 -0.519003 -0.425297 0
M  V30 8290 H 766.215 -1.90773 -0.736621 0
M  V30 8291 H 764.37 -2.17561 -3.2054 0
M  V30 8292 H 764.784 -4.3685 -2.90279 0
M  V30 8293 H 766.258 -3.42485 -4.32907 0
M  V30 8294 H 766.735 -1.75596 -4.0257 0
M  V30 8295 H 767.341 -3.04886 -2.9652 0
M  V30 8296 N 765.656 0.84705 -1.32902 0
M  V30 8297 C 766.905 1.59667 -1.23245 0
M  V30 8298 C 767.218 1.94551 0.202349 0
M  V30 8299 O 768.424 2.68218 0.420847 0
M  V30 8300 C 766.88 2.8795 -2.15901 0
M  V30 8301 C 766.488 2.60461 -3.64505 0
M  V30 8302 C 768.232 3.65968 -2.15098 0
M  V30 8303 C 766.139 3.84791 -4.49099 0
M  V30 8304 H 765.069 0.599167 -0.457728 0
M  V30 8305 H 767.72 0.934662 -1.57912 0
M  V30 8306 H 766.102 3.55648 -1.74157 0
M  V30 8307 H 767.276 2.01026 -4.14639 0
M  V30 8308 H 765.591 1.9576 -3.67515 0
M  V30 8309 H 768.188 4.58241 -2.75534 0
M  V30 8310 H 768.531 4.00275 -1.14392 0
M  V30 8311 H 769.064 3.05184 -2.55162 0
M  V30 8312 H 765.803 3.55621 -5.50649 0
M  V30 8313 H 765.323 4.43594 -4.03713 0
M  V30 8314 H 767.002 4.52454 -4.62487 0
M  V30 8315 N 767.134 1.16236 1.06428 0
M  V30 8316 C 768.382 0.941171 1.78847 0
M  V30 8317 C 768.703 -0.53248 1.87589 0
M  V30 8318 O 767.973 -1.38686 1.38358 0
M  V30 8319 H 766.553 0.345228 0.66244 0
M  V30 8320 H 769.215 1.46479 1.28569 0
M  V30 8321 H 768.311 1.35871 2.80972 0
M  V30 8322 N 768.612 -1.24939 0.960631 0
M  V30 8323 C 769.559 -2.25658 0.484459 0
M  V30 8324 C 770.529 -1.59422 -0.466242 0
M  V30 8325 O 771.714 -1.87015 -0.378169 0
M  V30 8326 C 768.854 -3.44359 -0.225958 0
M  V30 8327 C 767.967 -4.25214 0.762682 0
M  V30 8328 C 767.102 -5.31192 0.0290931 0
M  V30 8329 C 766.141 -6.03739 1.00827 0
M  V30 8330 N 765.278 -7.01437 0.305155 0
M  V30 8331 H 770.118 -2.65758 1.34821 0
M  V30 8332 H 767.655 -1.30648 0.675983 0
M  V30 8333 H 769.613 -4.12035 -0.654472 0
M  V30 8334 H 768.243 -3.05118 -1.05371 0
M  V30 8335 H 767.295 -3.57144 1.30966 0
M  V30 8336 H 768.607 -4.75406 1.50964 0
M  V30 8337 H 767.761 -6.04971 -0.457763 0
M  V30 8338 H 766.5 -4.81889 -0.750614 0
M  V30 8339 H 765.505 -5.2877 1.50607 0
M  V30 8340 H 766.73 -6.55131 1.7883 0
M  V30 8341 H 764.676 -6.54415 -0.455704 0
M  V30 8342 H 764.593 -7.49475 0.991104 0
M  V30 8343 H 765.861 -7.79336 -0.159966 0
M  V30 8344 N 770.09 -0.729906 -1.39679 0
M  V30 8345 C 771.318 -0.285709 -2.04918 0
M  V30 8346 C 771.733 1.07765 -1.55023 0
M  V30 8347 O 771.09 1.67999 -0.712923 0
M  V30 8348 C 771.141 -0.272793 -3.60469 0
M  V30 8349 O 770.862 -1.58233 -4.08527 0
M  V30 8350 C 772.363 0.188199 -4.429 0
M  V30 8351 H 769.583 -0.125758 -0.65911 0
M  V30 8352 H 772.127 -0.992129 -1.78821 0
M  V30 8353 H 770.282 0.384699 -3.85485 0
M  V30 8354 H 770.696 -1.49245 -5.02818 0
M  V30 8355 H 772.17 0.14608 -5.51807 0
M  V30 8356 H 772.647 1.2326 -4.21549 0
M  V30 8357 H 773.253 -0.439541 -4.23023 0
M  V30 8358 N 771.568 1.50203 -0.477153 0
M  V30 8359 C 772.814 2.02658 0.0758507 0
M  V30 8360 C 773.147 1.358 1.38824 0
M  V30 8361 O 772.422 0.485696 1.88338 0
M  V30 8362 C 772.705 3.59208 0.253339 0
M  V30 8363 C 772.558 4.36629 -1.0805 0
M  V30 8364 C 773.877 4.28469 1.00509 0
M  V30 8365 H 770.996 0.736538 0.0260921 0
M  V30 8366 H 773.638 1.79464 -0.623925 0
M  V30 8367 H 771.788 3.79101 0.849378 0
M  V30 8368 H 773.46 4.28292 -1.71358 0
M  V30 8369 H 771.703 4.0013 -1.67566 0
M  V30 8370 H 772.374 5.44449 -0.909883 0
M  V30 8371 H 774.85 4.13087 0.499818 0
M  V30 8372 H 773.726 5.37804 1.09808 0
M  V30 8373 H 773.987 3.92057 2.04314 0
M  V30 8374 N 773.046 0.209999 1.56195 0
M  V30 8375 C 773.956 -0.716459 2.23392 0
M  V30 8376 C 774.972 -1.22291 1.23778 0
M  V30 8377 O 776.148 -1.26694 1.56558 0
M  V30 8378 C 773.213 -1.91261 2.89172 0
M  V30 8379 C 772.274 -1.44927 4.04097 0
M  V30 8380 C 771.507 -2.5884 4.66731 0
M  V30 8381 O 771.73 -3.76693 4.2832 0
M  V30 8382 O 770.664 -2.30701 5.55932 0
M  V30 8383 H 774.49 -0.174089 3.03201 0
M  V30 8384 H 772.075 -0.0199505 1.49387 0
M  V30 8385 H 773.957 -2.6114 3.30733 0
M  V30 8386 H 772.632 -2.4433 2.12331 0
M  V30 8387 H 771.539 -0.718839 3.67129 0
M  V30 8388 H 772.872 -0.965084 4.82646 0
M  V30 8389 N 774.524 -1.57472 -0.0634922 0
M  V30 8390 C 775.754 -1.91608 -0.772645 0
M  V30 8391 C 776.162 -0.805019 -1.71219 0
M  V30 8392 O 775.505 0.229941 -1.82255 0
M  V30 8393 C 775.567 -3.21281 -1.61304 0
M  V30 8394 C 775.231 -4.49177 -0.841973 0
M  V30 8395 C 776.228 -5.19661 -0.157494 0
M  V30 8396 C 773.913 -4.9578 -0.80669 0
M  V30 8397 C 775.907 -6.35006 0.551948 0
M  V30 8398 C 773.594 -6.11028 -0.0934812 0
M  V30 8399 C 774.592 -6.80493 0.58463 0
M  V30 8400 O 774.28 -7.93542 1.28633 0
M  V30 8401 H 774.012 -0.637685 -0.224352 0
M  V30 8402 H 776.566 -2.05369 -0.0355279 0
M  V30 8403 H 774.796 -3.03752 -2.39315 0
M  V30 8404 H 776.485 -3.41003 -2.20162 0
M  V30 8405 H 777.251 -4.84681 -0.176006 0
M  V30 8406 H 773.13 -4.41579 -1.32397 0
M  V30 8407 H 776.674 -6.89161 1.0818 0
M  V30 8408 H 772.571 -6.45459 -0.0729258 0
M  V30 8409 H 773.339 -8.09708 1.19646 0
M  V30 8410 N 776.003 0.335068 -1.53997 0
M  V30 8411 C 776.933 1.41727 -1.85568 0
M  V30 8412 C 777.914 1.54505 -0.7115 0
M  V30 8413 O 779.099 1.68573 -0.964191 0
M  V30 8414 C 776.229 2.7866 -2.07282 0
M  V30 8415 C 775.183 2.80682 -3.23112 0
M  V30 8416 C 774.509 4.20581 -3.30175 0
M  V30 8417 C 775.809 2.45458 -4.61029 0
M  V30 8418 H 777.503 1.15555 -2.76202 0
M  V30 8419 H 775.049 0.554445 -1.32898 0
M  V30 8420 H 777.002 3.54423 -2.27952 0
M  V30 8421 H 775.726 3.06286 -1.13387 0
M  V30 8422 H 774.385 2.07373 -3.02311 0
M  V30 8423 H 774.033 4.4533 -2.33859 0
M  V30 8424 H 773.733 4.22843 -4.08016 0
M  V30 8425 H 775.257 4.98174 -3.53066 0
M  V30 8426 H 776.671 3.10934 -4.81656 0
M  V30 8427 H 775.068 2.5899 -5.41336 0
M  V30 8428 H 776.138 1.40628 -4.6406 0
M  V30 8429 N 777.481 1.45874 0.596531 0
M  V30 8430 C 778.431 1.5181 1.70111 0
M  V30 8431 C 779.415 0.380293 1.56341 0
M  V30 8432 O 780.607 0.627849 1.6549 0
M  V30 8433 C 777.736 1.49822 3.08883 0
M  V30 8434 C 776.822 2.68845 3.27998 0
M  V30 8435 N 777.213 3.93873 3.17329 0
M  V30 8436 C 775.511 2.64777 3.589 0
M  V30 8437 C 776.212 4.73371 3.38076 0
M  V30 8438 N 775.188 4.0501 3.62585 0
M  V30 8439 H 778.99 2.46289 1.60372 0
M  V30 8440 H 776.504 1.41321 0.800138 0
M  V30 8441 H 778.501 1.5216 3.8814 0
M  V30 8442 H 777.161 0.564086 3.19763 0
M  V30 8443 H 778.172 4.25329 2.95492 0
M  V30 8444 H 774.849 1.80323 3.7655 0
M  V30 8445 H 776.239 5.82357 3.35127 0
M  V30 8446 N 778.959 -0.83999 1.33349 0
M  V30 8447 C 780.184 -1.63249 1.27924 0
M  V30 8448 C 780.609 -1.87523 -0.147193 0
M  V30 8449 O 779.967 -1.43853 -1.10345 0
M  V30 8450 C 780.015 -2.96046 2.05886 0
M  V30 8451 O 779.119 -3.87303 1.4167 0
M  V30 8452 H 778.46 -0.49715 0.440157 0
M  V30 8453 H 780.99 -1.04512 1.75893 0
M  V30 8454 H 781 -3.45752 2.16609 0
M  V30 8455 H 779.675 -2.77701 3.09605 0
M  V30 8456 H 778.252 -3.45789 1.39585 0
M  V30 8457 N 780.437 -1.16799 -1.0581 0
M  V30 8458 C 781.369 -0.836774 -2.13379 0
M  V30 8459 C 782.382 0.158116 -1.6203 0
M  V30 8460 O 783.571 -0.0673211 -1.78373 0
M  V30 8461 C 780.671 -0.225959 -3.38146 0
M  V30 8462 C 779.844 -1.26217 -4.18794 0
M  V30 8463 C 778.903 -0.670257 -5.21914 0
M  V30 8464 O 777.929 -1.34042 -5.53192 0
M  V30 8465 N 779.131 0.540683 -5.77977 0
M  V30 8466 H 781.896 -1.76257 -2.42391 0
M  V30 8467 H 779.457 -1.06599 -1.21853 0
M  V30 8468 H 781.449 0.18317 -4.04285 0
M  V30 8469 H 780.019 0.603494 -3.06719 0
M  V30 8470 H 779.239 -1.84729 -3.48237 0
M  V30 8471 H 780.527 -1.9613 -4.69479 0
M  V30 8472 H 779.925 1.10322 -5.54838 0
M  V30 8473 H 778.482 0.891958 -6.45668 0
M  V30 8474 N 781.915 1.24427 -0.967243 0
M  V30 8475 C 783.163 1.92107 -0.627638 0
M  V30 8476 C 783.484 1.75991 0.83978 0
M  V30 8477 O 782.754 1.13118 1.59941 0
M  V30 8478 H 781.334 0.710986 -0.229145 0
M  V30 8479 H 783.996 1.51331 -1.22821 0
M  V30 8480 H 783.092 2.99791 -0.867844 0
M  V30 8481 N 783.393 0.737304 1.3929 0
M  V30 8482 C 784.639 0.286681 2.00763 0
M  V30 8483 C 784.972 -1.12388 1.58375 0
M  V30 8484 O 784.247 -1.76661 0.813699 0
M  V30 8485 C 784.53 0.391147 3.57969 0
M  V30 8486 C 784.383 1.84165 4.1037 0
M  V30 8487 C 785.702 -0.225072 4.39524 0
M  V30 8488 H 782.821 0.105642 0.729389 0
M  V30 8489 H 785.463 0.933892 1.65464 0
M  V30 8490 H 783.613 -0.159875 3.88171 0
M  V30 8491 H 785.285 2.44972 3.90879 0
M  V30 8492 H 783.528 2.3622 3.63844 0
M  V30 8493 H 784.199 1.866 5.19504 0
M  V30 8494 H 786.675 0.244677 4.1538 0
M  V30 8495 H 785.551 -0.121646 5.48765 0
M  V30 8496 H 785.812 -1.31141 4.22202 0
M  V30 8497 N 784.871 -1.49948 0.485112 0
M  V30 8498 C 786.117 -2.02695 -0.0651022 0
M  V30 8499 C 786.45 -1.36534 -1.38102 0
M  V30 8500 O 785.725 -0.495677 -1.88078 0
M  V30 8501 C 786.008 -3.59337 -0.234285 0
M  V30 8502 C 785.861 -4.3605 1.10364 0
M  V30 8503 C 787.18 -4.28996 -0.982351 0
M  V30 8504 H 784.299 -0.736666 -0.0221856 0
M  V30 8505 H 786.941 -1.7913 0.633433 0
M  V30 8506 H 785.091 -3.79546 -0.829262 0
M  V30 8507 H 786.763 -4.27377 1.73627 0
M  V30 8508 H 785.006 -3.99236 1.69686 0
M  V30 8509 H 785.677 -5.43959 0.938743 0
M  V30 8510 H 788.153 -4.13346 -0.477904 0
M  V30 8511 H 787.029 -5.38379 -1.06955 0
M  V30 8512 H 787.29 -3.93135 -2.02231 0
M  V30 8513 N 786.349 -0.21828 -1.56081 0
M  V30 8514 C 787.299 0.706492 -2.16778 0
M  V30 8515 C 788.283 1.15987 -1.11516 0
M  V30 8516 O 789.475 1.11441 -1.37513 0
M  V30 8517 C 786.604 1.91583 -2.8487 0
M  V30 8518 C 785.69 1.48228 -3.97353 0
M  V30 8519 N 786.081 0.761113 -5.00041 0
M  V30 8520 C 784.379 1.76982 -4.09382 0
M  V30 8521 C 785.08 0.540496 -5.79184 0
M  V30 8522 N 784.056 1.09622 -5.32432 0
M  V30 8523 H 787.858 0.147038 -2.93532 0
M  V30 8524 H 785.372 -0.0194049 -1.62388 0
M  V30 8525 H 787.369 2.58906 -3.26762 0
M  V30 8526 H 786.029 2.47979 -2.09611 0
M  V30 8527 H 787.04 0.414141 -5.16241 0
M  V30 8528 H 783.717 2.34721 -3.45271 0
M  V30 8529 H 785.107 -0.0332531 -6.71892 0
M  V30 8530 N 787.827 1.57504 0.0551401 0
M  V30 8531 C 789.243 1.54236 0.410292 0
M  V30 8532 C 789.443 0.940839 1.78187 0
M  V30 8533 O 788.499 0.550541 2.46425 0
M  V30 8534 C 789.812 2.98816 0.336064 0
M  V30 8535 C 791.36 3.10236 0.415047 0
M  V30 8536 C 791.835 4.56499 0.37055 0
M  V30 8537 N 793.326 4.61199 0.43013 0
M  V30 8538 C 794.061 5.71873 0.418179 0
M  V30 8539 N 793.557 6.91864 0.360056 0
M  V30 8540 N 795.35 5.60165 0.465977 0
M  V30 8541 H 787.501 1.94965 -0.842759 0
M  V30 8542 H 789.764 0.893096 -0.317937 0
M  V30 8543 H 789.47 3.4645 -0.605429 0
M  V30 8544 H 789.344 3.59564 1.13988 0
M  V30 8545 H 791.731 2.62566 1.34697 0
M  V30 8546 H 791.812 2.52367 -0.417648 0
M  V30 8547 H 791.456 5.0483 -0.557592 0
M  V30 8548 H 791.386 5.12249 1.221 0
M  V30 8549 H 793.877 3.74857 0.478623 0
M  V30 8550 H 794.19 7.71983 0.35532 0
M  V30 8551 H 792.535 6.94233 0.326492 0
M  V30 8552 H 795.726 4.65322 0.509194 0
M  V30 8553 H 795.899 6.46413 0.453194 0
M  V30 8554 N 789.305 -0.326896 1.54172 0
M  V30 8555 C 790.582 -1.08326 1.62864 0
M  V30 8556 C 790.962 -2.06018 0.46039 0
M  V30 8557 O 790.31 -2.21889 -0.545685 0
M  V30 8558 C 790.52 -1.78816 2.9971 0
M  V30 8559 C 791.868 -2.31958 3.55641 0
M  V30 8560 O 792.892 -1.88888 3.01993 0
M  V30 8561 O 791.751 -3.10801 4.49517 0
M  V30 8562 H 788.845 -0.499131 0.659392 0
M  V30 8563 H 791.391 -0.327054 1.66519 0
M  V30 8564 H 790.163 -1.07739 3.76176 0
M  V30 8565 H 789.786 -2.61255 2.99719 0
M  V30 8566 N 790.784 -1.46188 -0.588786 0
M  V30 8567 C 791.714 -1.59148 -1.70863 0
M  V30 8568 C 792.695 -0.442083 -1.64255 0
M  V30 8569 O 793.88 -0.667575 -1.82365 0
M  V30 8570 C 791.01 -1.5757 -3.09498 0
M  V30 8571 C 789.964 -2.71418 -3.30932 0
M  V30 8572 C 789.29 -2.549 -4.70032 0
M  V30 8573 C 790.59 -4.1329 -3.19356 0
M  V30 8574 H 792.284 -2.52889 -1.60274 0
M  V30 8575 H 789.83 -1.21707 -0.769638 0
M  V30 8576 H 791.783 -1.65231 -3.87655 0
M  V30 8577 H 790.507 -0.603705 -3.20972 0
M  V30 8578 H 789.166 -2.63216 -2.55172 0
M  V30 8579 H 788.814 -1.55797 -4.78264 0
M  V30 8580 H 788.514 -3.31257 -4.85327 0
M  V30 8581 H 790.038 -2.64443 -5.50366 0
M  V30 8582 H 791.452 -4.22636 -3.87365 0
M  V30 8583 H 789.849 -4.90187 -3.46175 0
M  V30 8584 H 790.919 -4.33874 -2.16522 0
M  V30 8585 N 792.262 0.832906 -1.33792 0
M  V30 8586 C 793.209 1.94314 -1.24541 0
M  V30 8587 C 794.179 1.65646 -0.122753 0
M  V30 8588 O 795.364 1.88394 -0.30204 0
M  V30 8589 C 792.504 3.30395 -0.996641 0
M  V30 8590 C 791.617 3.71422 -2.20612 0
M  V30 8591 C 790.752 4.96401 -1.89101 0
M  V30 8592 C 789.791 5.2998 -3.06247 0
M  V30 8593 N 788.928 6.46137 -2.74685 0
M  V30 8594 H 793.768 2.01559 -2.19495 0
M  V30 8595 H 791.305 0.986243 -1.09141 0
M  V30 8596 H 793.263 4.08803 -0.832817 0
M  V30 8597 H 791.893 3.22691 -0.0838242 0
M  V30 8598 H 790.945 2.88488 -2.47949 0
M  V30 8599 H 792.257 3.92215 -3.0817 0
M  V30 8600 H 791.411 5.82572 -1.69396 0
M  V30 8601 H 790.15 4.7759 -0.987882 0
M  V30 8602 H 789.155 4.42312 -3.26559 0
M  V30 8603 H 790.38 5.50737 -3.97323 0
M  V30 8604 H 788.326 6.28801 -1.86938 0
M  V30 8605 H 788.243 6.67054 -3.55774 0
M  V30 8606 H 789.511 7.35403 -2.58461 0
M  V30 8607 N 793.74 1.17359 1.05189 0
M  V30 8608 C 795.151 0.96793 1.5965 0
M  V30 8609 C 795.502 -0.485355 1.90102 0
M  V30 8610 O 794.627 -1.36066 1.6827 0
M  V30 8611 C 795.222 1.75068 2.90063 0
M  V30 8612 C 793.781 1.58969 3.41183 0
M  V30 8613 C 792.928 1.75231 2.14917 0
M  V30 8614 H 795.879 1.32067 0.880001 0
M  V30 8615 H 795.9 1.23308 3.59966 0
M  V30 8616 H 795.412 2.80835 2.67868 0
M  V30 8617 H 793.513 0.556906 3.68415 0
M  V30 8618 H 793.626 2.38067 4.15766 0
M  V30 8619 H 791.99 1.18073 2.25679 0
M  V30 8620 H 792.773 2.8241 1.95191 0
M  V30 8621 N 795.218 -1.23913 0.973828 0
M  V30 8622 C 796.443 -1.96735 0.656511 0
M  V30 8623 C 796.868 -1.71682 -0.768571 0
M  V30 8624 O 796.226 -0.984267 -1.52256 0
M  V30 8625 C 796.274 -3.48004 0.944735 0
M  V30 8626 O 795.378 -4.12387 0.0333357 0
M  V30 8627 H 794.719 -0.616119 0.247575 0
M  V30 8628 H 797.249 -1.57525 1.30564 0
M  V30 8629 H 797.259 -3.98424 0.87876 0
M  V30 8630 H 795.934 -3.65567 1.98328 0
M  V30 8631 H 794.511 -3.72585 0.153157 0
M  V30 8632 N 796.696 -0.74468 -1.38897 0
M  V30 8633 C 797.644 -0.100312 -2.32384 0
M  V30 8634 C 798.638 0.715191 -1.53562 0
M  V30 8635 O 799.844 0.615288 -1.69157 0
M  V30 8636 H 796.219 -0.0136403 -0.751876 0
M  V30 8637 H 798.19 -0.905007 -2.84345 0
M  V30 8638 C 796.939 0.785432 -3.38713 0
M  V30 8639 H 796.262 0.167308 -3.9945 0
M  V30 8640 H 797.702 1.20374 -4.06554 0
M  V30 8641 C 796.161 1.92408 -2.76552 0
M  V30 8642 O 796.691 3.01752 -2.65157 0
M  V30 8643 N 794.897 1.71642 -2.34494 0
M  V30 8644 H 794.444 0.827079 -2.43961 0
M  V30 8645 H 794.402 2.48 -1.93244 0
M  V30 8646 N 798.174 1.49689 -0.493057 0
M  V30 8647 C 799.423 2.01622 0.0560733 0
M  V30 8648 C 799.736 1.37838 1.3878 0
M  V30 8649 O 800.942 1.81054 2.02316 0
M  V30 8650 C 799.398 3.59586 0.150409 0
M  V30 8651 C 799.006 4.32338 -1.1742 0
M  V30 8652 C 800.75 4.19489 0.650327 0
M  V30 8653 C 798.657 5.8214 -1.04246 0
M  V30 8654 H 797.587 0.753594 0.0247297 0
M  V30 8655 H 800.238 1.723 -0.631279 0
M  V30 8656 H 798.62 3.8559 0.902035 0
M  V30 8657 H 799.794 4.18042 -1.9385 0
M  V30 8658 H 798.109 3.84144 -1.60694 0
M  V30 8659 H 800.706 5.29181 0.766272 0
M  V30 8660 H 801.049 3.82326 1.6472 0
M  V30 8661 H 801.582 3.97775 -0.0445371 0
M  V30 8662 H 798.321 6.23814 -2.01336 0
M  V30 8663 H 797.841 5.98952 -0.31892 0
M  V30 8664 H 799.52 6.43004 -0.717957 0
M  V30 8665 N 799.652 0.226554 1.55963 0
M  V30 8666 C 800.582 -0.676079 2.23498 0
M  V30 8667 C 801.563 -1.19718 1.20837 0
M  V30 8668 O 802.748 -1.24027 1.49436 0
M  V30 8669 C 799.878 -1.88217 2.91876 0
M  V30 8670 C 798.832 -1.4947 4.01052 0
M  V30 8671 C 798.158 -2.77997 4.56751 0
M  V30 8672 C 799.458 -0.680951 5.17842 0
M  V30 8673 H 801.152 -0.112989 2.99187 0
M  V30 8674 H 798.698 -0.0529046 1.43903 0
M  V30 8675 H 800.651 -2.51911 3.37815 0
M  V30 8676 H 799.375 -2.47031 2.13643 0
M  V30 8677 H 798.034 -0.881199 3.55852 0
M  V30 8678 H 797.682 -3.34966 3.75243 0
M  V30 8679 H 797.382 -2.52803 5.30438 0
M  V30 8680 H 798.906 -3.42625 5.05411 0
M  V30 8681 H 800.32 -1.22171 5.60131 0
M  V30 8682 H 798.717 -0.525898 5.97791 0
M  V30 8683 H 799.787 0.311346 4.83899 0
M  V30 8684 N 801.13 -1.57531 -0.0467866 0
M  V30 8685 C 802.36 -1.92417 -0.752279 0
M  V30 8686 C 802.768 -0.823134 -1.70356 0
M  V30 8687 O 802.111 0.210598 -1.82489 0
M  V30 8688 C 802.173 -3.22974 -1.57887 0
M  V30 8689 C 801.837 -4.50045 -0.794285 0
M  V30 8690 C 802.834 -5.19799 -0.102368 0
M  V30 8691 C 800.519 -4.96608 -0.754061 0
M  V30 8692 C 802.513 -6.34385 0.619267 0
M  V30 8693 C 800.2 -6.11093 -0.0286682 0
M  V30 8694 C 801.198 -6.79835 0.656772 0
M  V30 8695 O 800.886 -7.92133 1.37042 0
M  V30 8696 H 800.618 -0.640029 -0.217576 0
M  V30 8697 H 803.172 -2.05395 -0.0137438 0
M  V30 8698 H 801.402 -3.06273 -2.3608 0
M  V30 8699 H 803.091 -3.43319 -2.16533 0
M  V30 8700 H 803.857 -4.8484 -0.124589 0
M  V30 8701 H 799.736 -4.42958 -1.27706 0
M  V30 8702 H 803.28 -6.87975 1.15483 0
M  V30 8703 H 799.177 -6.455 -0.00446214 0
M  V30 8704 H 799.945 -8.08394 1.28227 0
M  V30 8705 N 802.608 0.318715 -1.54344 0
M  V30 8706 C 803.854 1.05765 -1.73037 0
M  V30 8707 C 804.187 1.87514 -0.505181 0
M  V30 8708 O 803.462 1.88021 0.497838 0
M  V30 8709 C 803.745 1.97836 -3.00887 0
M  V30 8710 C 803.598 1.19384 -4.33668 0
M  V30 8711 C 804.917 2.97285 -3.24514 0
M  V30 8712 H 802.036 0.383104 -0.629603 0
M  V30 8713 H 804.678 0.333864 -1.87044 0
M  V30 8714 H 802.828 2.59552 -2.89076 0
M  V30 8715 H 804.5 0.600906 -4.57369 0
M  V30 8716 H 802.743 0.496198 -4.30953 0
M  V30 8717 H 803.414 1.87014 -5.19355 0
M  V30 8718 H 805.89 2.45693 -3.35819 0
M  V30 8719 H 804.766 3.58887 -4.15321 0
M  V30 8720 H 805.027 3.70003 -2.41971 0
M  V30 8721 N 804.086 1.46499 0.581025 0
M  V30 8722 C 805.363 1.42372 1.34125 0
M  V30 8723 C 805.743 0.108073 2.10823 0
M  V30 8724 O 805.091 -0.910366 2.09582 0
M  V30 8725 C 805.301 2.65445 2.26583 0
M  V30 8726 C 806.649 3.11664 2.88359 0
M  V30 8727 O 807.673 2.66006 2.36896 0
M  V30 8728 O 806.532 3.90974 3.81839 0
M  V30 8729 H 803.626 0.566262 0.602724 0
M  V30 8730 H 806.172 1.58667 0.601903 0
M  V30 8731 H 804.944 3.52756 1.69348 0
M  V30 8732 H 804.567 2.51618 3.07854 0
M  V30 8733 N 805.565 -0.825799 1.34232 0
M  V30 8734 C 806.475 -1.9684 1.27638 0
M  V30 8735 C 807.491 -1.73018 0.184569 0
M  V30 8736 O 808.667 -1.97172 0.410525 0
M  V30 8737 C 805.732 -3.31084 1.02879 0
M  V30 8738 C 804.793 -3.67933 2.21188 0
M  V30 8739 C 804.026 -4.95772 1.976 0
M  V30 8740 O 804.249 -5.62721 0.93281 0
M  V30 8741 O 803.183 -5.30431 2.84477 0
M  V30 8742 H 807.009 -2.05346 2.23756 0
M  V30 8743 H 804.594 -0.960772 1.1441 0
M  V30 8744 H 806.476 -4.11492 0.908406 0
M  V30 8745 H 805.151 -3.23552 0.0979821 0
M  V30 8746 H 804.058 -2.87981 2.38784 0
M  V30 8747 H 805.391 -3.80147 3.12648 0
M  V30 8748 N 807.043 -1.17915 -1.04565 0
M  V30 8749 C 808.268 -0.996749 -1.81878 0
M  V30 8750 C 808.693 0.450169 -1.82634 0
M  V30 8751 O 808.051 1.32268 -1.23995 0
M  V30 8752 C 808.099 -1.55005 -3.25585 0
M  V30 8753 O 807.203 -0.76804 -4.05185 0
M  V30 8754 H 806.544 -0.353456 -0.562108 0
M  V30 8755 H 809.074 -1.56557 -1.31723 0
M  V30 8756 H 809.084 -1.57503 -3.76373 0
M  V30 8757 H 807.759 -2.60327 -3.2435 0
M  V30 8758 H 806.336 -0.81498 -3.63885 0
M  V30 8759 N 808.521 1.23394 -0.980386 0
M  V30 8760 C 809.769 1.91431 -0.647978 0
M  V30 8761 C 810.09 1.76871 0.821066 0
M  V30 8762 O 809.36 1.14808 1.58732 0
M  V30 8763 H 807.94 0.708516 -0.236673 0
M  V30 8764 H 810.602 1.50019 -1.2442 0
M  V30 8765 H 809.698 2.98854 -0.899592 0
M  V30 8766 N 809.999 0.752036 1.385 0
M  V30 8767 C 810.947 0.112634 2.32327 0
M  V30 8768 C 811.941 -0.707037 1.53939 0
M  V30 8769 O 813.147 -0.606309 1.69481 0
M  V30 8770 H 809.522 0.0176275 0.751793 0
M  V30 8771 H 811.493 0.920074 2.83861 0
M  V30 8772 C 810.242 -0.767458 3.39124 0
M  V30 8773 H 809.565 -0.146122 3.99533 0
M  V30 8774 H 811.005 -1.18216 4.07187 0
M  V30 8775 C 809.464 -1.90938 2.77568 0
M  V30 8776 O 809.994 -3.00342 2.66754 0
M  V30 8777 N 808.2 -1.70396 2.35401 0
M  V30 8778 H 807.747 -0.81413 2.44397 0
M  V30 8779 H 807.705 -2.46972 1.94557 0
M  V30 8780 N 811.477 -1.49425 0.500989 0
M  V30 8781 C 812.888 -1.86624 0.0532011 0
M  V30 8782 C 813.239 -1.41331 -1.36088 0
M  V30 8783 O 812.364 -0.791195 -2.01418 0
M  V30 8784 C 812.959 -3.38681 0.0897693 0
M  V30 8785 C 811.518 -3.75181 -0.302677 0
M  V30 8786 C 810.665 -2.73419 0.462307 0
M  V30 8787 H 813.616 -1.41743 0.713773 0
M  V30 8788 H 813.637 -3.73902 -0.705528 0
M  V30 8789 H 813.149 -3.71616 1.11907 0
M  V30 8790 H 811.25 -3.47855 -1.33521 0
M  V30 8791 H 811.363 -4.79097 0.0167653 0
M  V30 8792 H 809.727 -2.54548 -0.0878557 0
M  V30 8793 H 810.51 -3.09198 1.49169 0
M  V30 8794 N 812.955 -0.234822 -1.55841 0
M  V30 8795 C 813.865 0.680828 -2.24504 0
M  V30 8796 C 814.881 1.20306 -1.25708 0
M  V30 8797 O 816.057 1.24188 -1.58554 0
M  V30 8798 C 813.122 1.86636 -2.92178 0
M  V30 8799 C 812.183 1.3848 -4.06352 0
M  V30 8800 C 811.416 2.51382 -4.70789 0
M  V30 8801 O 811.639 3.69831 -4.34259 0
M  V30 8802 O 810.573 2.21828 -5.59532 0
M  V30 8803 H 814.399 0.12583 -3.03439 0
M  V30 8804 H 811.984 -0.00381817 -1.494 0
M  V30 8805 H 813.866 2.55845 -3.34845 0
M  V30 8806 H 812.541 2.40921 -2.16192 0
M  V30 8807 H 811.448 0.660341 -3.68226 0
M  V30 8808 H 812.781 0.888177 -4.8412 0
M  V30 8809 N 814.433 1.57553 0.0384317 0
M  V30 8810 C 815.673 1.90687 0.736069 0
M  V30 8811 C 816.037 0.832381 1.73019 0
M  V30 8812 O 817.238 1.04777 2.47538 0
M  V30 8813 C 815.509 3.28994 1.39635 0
M  V30 8814 S 817.068 3.83944 2.12444 0
M  V30 8815 H 813.886 0.667799 0.244059 0
M  V30 8816 H 816.488 1.95498 -0.00901643 0
M  V30 8817 H 815.192 4.05067 0.659465 0
M  V30 8818 H 814.723 3.27463 2.18018 0
M  V30 8819 H 816.738 3.61916 3.39457 0
M  V30 8820 N 815.911 -0.310526 1.54511 0
M  V30 8821 C 816.841 -1.38757 1.878 0
M  V30 8822 C 817.822 -1.53353 0.735991 0
M  V30 8823 O 819.007 -1.67018 0.990887 0
M  V30 8824 C 816.137 -2.75327 2.11689 0
M  V30 8825 C 815.091 -2.75506 3.27537 0
M  V30 8826 C 814.417 -4.15275 3.36824 0
M  V30 8827 C 815.717 -2.38093 4.64875 0
M  V30 8828 H 817.411 -1.11146 2.78005 0
M  V30 8829 H 814.957 -0.533232 1.33763 0
M  V30 8830 H 816.91 -3.50752 2.33562 0
M  V30 8831 H 815.634 -3.04443 1.18245 0
M  V30 8832 H 814.293 -2.02538 3.05572 0
M  V30 8833 H 813.941 -4.41553 2.40915 0
M  V30 8834 H 813.641 -4.16299 4.14692 0
M  V30 8835 H 815.165 -4.92493 3.60947 0
M  V30 8836 H 816.579 -3.03232 4.86542 0
M  V30 8837 H 814.976 -2.50345 5.45387 0
M  V30 8838 H 816.046 -1.33227 4.66239 0
M  V30 8839 N 817.389 -1.46805 -0.573248 0
M  V30 8840 C 818.805 -1.31969 -0.897577 0
M  V30 8841 C 819.005 -0.298171 -1.99282 0
M  V30 8842 O 818.061 0.295953 -2.5076 0
M  V30 8843 C 819.374 -2.70859 -1.30598 0
M  V30 8844 C 820.922 -2.79022 -1.4183 0
M  V30 8845 C 821.397 -4.18516 -1.86033 0
M  V30 8846 N 822.888 -4.2098 -1.9321 0
M  V30 8847 C 823.623 -5.25814 -2.28707 0
M  V30 8848 N 823.119 -6.40968 -2.6293 0
M  V30 8849 N 824.912 -5.13184 -2.29343 0
M  V30 8850 H 817.063 -2.11869 0.150094 0
M  V30 8851 H 819.326 -0.947989 0.00447895 0
M  V30 8852 H 819.032 -3.46965 -0.575161 0
M  V30 8853 H 818.906 -3.01585 -2.26554 0
M  V30 8854 H 821.293 -2.03198 -2.13996 0
M  V30 8855 H 821.374 -2.51969 -0.441024 0
M  V30 8856 H 821.018 -4.94839 -1.14442 0
M  V30 8857 H 820.948 -4.42982 -2.84735 0
M  V30 8858 H 823.439 -3.37898 -1.69214 0
M  V30 8859 H 823.752 -7.16729 -2.88996 0
M  V30 8860 H 822.097 -6.44314 -2.60547 0
M  V30 8861 H 825.288 -4.22255 -2.02036 0
M  V30 8862 H 825.461 -5.94996 -2.56679 0
M  V30 8863 N 818.867 0.818669 -1.34668 0
M  V30 8864 C 820.116 1.57017 -1.26604 0
M  V30 8865 C 820.429 1.94936 0.161036 0
M  V30 8866 O 821.635 2.69051 0.36386 0
M  V30 8867 C 820.091 2.83305 -2.2196 0
M  V30 8868 C 819.699 2.52671 -3.69948 0
M  V30 8869 C 821.443 3.61324 -2.22813 0
M  V30 8870 C 819.35 3.75178 -4.5716 0
M  V30 8871 H 818.28 0.589323 -0.470335 0
M  V30 8872 H 820.931 0.900956 -1.59859 0
M  V30 8873 H 819.313 3.51874 -1.81661 0
M  V30 8874 H 820.487 1.92186 -4.18809 0
M  V30 8875 H 818.802 1.8792 -3.71584 0
M  V30 8876 H 821.399 4.52294 -2.85192 0
M  V30 8877 H 821.742 3.97759 -1.22857 0
M  V30 8878 H 822.275 2.99703 -2.61578 0
M  V30 8879 H 819.014 3.43861 -5.58068 0
M  V30 8880 H 818.534 4.34931 -4.13031 0
M  V30 8881 H 820.213 4.42542 -4.71981 0
M  V30 8882 N 820.346 1.18468 1.03938 0
M  V30 8883 C 821.586 0.991823 1.78724 0
M  V30 8884 C 821.95 -0.470115 1.86156 0
M  V30 8885 O 823.151 -0.782451 2.5716 0
M  V30 8886 C 821.422 1.63018 3.18056 0
M  V30 8887 S 822.981 1.58527 4.09163 0
M  V30 8888 H 819.799 0.356137 0.615376 0
M  V30 8889 H 822.401 1.50634 1.24618 0
M  V30 8890 H 821.105 2.68642 3.10258 0
M  V30 8891 H 820.636 1.11601 3.77238 0
M  V30 8892 H 822.651 0.602059 4.92534 0
M  V30 8893 N 821.824 -1.22873 0.986916 0
M  V30 8894 C 823.101 -1.86939 0.575589 0
M  V30 8895 C 823.481 -1.88656 -0.947205 0
M  V30 8896 O 822.829 -1.3728 -1.82665 0
M  V30 8897 C 823.039 -3.28117 1.18914 0
M  V30 8898 C 824.387 -4.04659 1.28593 0
M  V30 8899 O 825.411 -3.3736 1.14308 0
M  V30 8900 O 824.27 -5.25112 1.51391 0
M  V30 8901 H 821.364 -0.803748 0.194724 0
M  V30 8902 H 823.91 -1.30698 1.08241 0
M  V30 8903 H 822.682 -3.21468 2.231 0
M  V30 8904 H 822.305 -3.91956 0.667535 0
M  V30 8905 N 823.302 -0.75937 -1.38099 0
M  V30 8906 C 824.549 -0.318113 -1.99986 0
M  V30 8907 C 824.877 1.10184 -1.6028 0
M  V30 8908 O 824.132 1.77015 -0.834524 0
M  V30 8909 C 824.431 -0.394999 -3.55211 0
M  V30 8910 C 824.097 -1.77143 -4.14646 0
M  V30 8911 C 822.759 -2.14811 -4.30592 0
M  V30 8912 C 825.111 -2.67407 -4.47373 0
M  V30 8913 C 822.439 -3.42203 -4.76565 0
M  V30 8914 C 824.791 -3.94196 -4.94765 0
M  V30 8915 C 823.455 -4.31925 -5.08918 0
M  V30 8916 H 822.725 -0.116406 -0.7318 0
M  V30 8917 H 825.372 -0.97098 -1.65058 0
M  V30 8918 H 823.677 0.341426 -3.9031 0
M  V30 8919 H 825.374 -0.0350722 -4.00985 0
M  V30 8920 H 821.964 -1.46864 -4.02652 0
M  V30 8921 H 826.148 -2.39569 -4.3465 0
M  V30 8922 H 821.404 -3.71346 -4.85708 0
M  V30 8923 H 825.578 -4.64276 -5.19057 0
M  V30 8924 H 823.205 -5.30699 -5.443 0
M  V30 8925 N 824.78 1.49157 -0.508906 0
M  V30 8926 C 826.028 2.02073 0.0327335 0
M  V30 8927 C 826.349 1.39012 1.3675 0
M  V30 8928 O 825.619 0.548153 1.88075 0
M  V30 8929 H 824.199 0.746848 0.0150864 0
M  V30 8930 H 826.861 1.83097 -0.667946 0
M  V30 8931 H 825.957 3.11707 0.1566 0
M  V30 8932 N 826.258 0.243083 1.55714 0
M  V30 8933 C 827.505 -0.38272 1.9885 0
M  V30 8934 C 827.833 -1.58225 1.13115 0
M  V30 8935 O 827.088 -1.94861 0.181067 0
M  V30 8936 C 827.387 -0.839621 3.47398 0
M  V30 8937 C 827.053 0.251737 4.50197 0
M  V30 8938 C 825.715 0.551487 4.78029 0
M  V30 8939 C 828.067 0.988728 5.11736 0
M  V30 8940 C 825.395 1.59237 5.64677 0
M  V30 8941 C 827.747 2.0191 5.99512 0
M  V30 8942 C 826.411 2.32554 6.2568 0
M  V30 8943 H 825.681 -0.140047 0.727645 0
M  V30 8944 H 828.328 0.35011 1.88272 0
M  V30 8945 H 826.633 -1.65159 3.55288 0
M  V30 8946 H 828.33 -1.33404 3.78159 0
M  V30 8947 H 824.92 0.00796741 4.28599 0
M  V30 8948 H 829.104 0.7704 4.90284 0
M  V30 8949 H 824.36 1.83517 5.83208 0
M  V30 8950 H 828.534 2.59511 6.46241 0
M  V30 8951 H 826.161 3.13349 6.92616 0
M  V30 8952 N 827.736 -1.57571 -0.0300757 0
M  V30 8953 C 828.699 -2.05468 -1.01565 0
M  V30 8954 C 829.699 -0.958628 -1.29101 0
M  V30 8955 O 830.889 -1.22228 -1.24121 0
M  V30 8956 C 828.021 -2.47077 -2.34874 0
M  V30 8957 H 829.214 -2.93797 -0.601936 0
M  V30 8958 H 826.767 -1.53828 -0.276878 0
M  V30 8959 H 827.502 -1.61901 -2.80996 0
M  V30 8960 H 827.287 -3.27097 -2.16218 0
M  V30 8961 H 828.777 -2.84564 -3.05635 0
M  V30 8962 N 829.214 0.302327 -1.54673 0
M  V30 8963 C 830.161 1.37282 -1.85532 0
M  V30 8964 C 831.131 1.50437 -0.704129 0
M  V30 8965 O 832.316 1.65317 -0.952627 0
M  V30 8966 C 829.456 2.73309 -2.10704 0
M  V30 8967 C 828.569 2.68614 -3.38335 0
M  V30 8968 C 827.704 3.96626 -3.53357 0
M  V30 8969 C 826.743 3.86324 -4.74784 0
M  V30 8970 N 825.88 5.06109 -4.86619 0
M  V30 8971 H 830.72 1.10265 -2.76849 0
M  V30 8972 H 828.257 0.533346 -1.37091 0
M  V30 8973 H 830.215 3.52414 -2.23294 0
M  V30 8974 H 828.845 2.98589 -1.22656 0
M  V30 8975 H 827.897 1.81381 -3.34373 0
M  V30 8976 H 829.209 2.56891 -4.27561 0
M  V30 8977 H 828.363 4.84168 -3.65604 0
M  V30 8978 H 827.102 4.11182 -2.62261 0
M  V30 8979 H 826.107 2.97166 -4.62572 0
M  V30 8980 H 827.332 3.73315 -5.67286 0
M  V30 8981 H 825.278 5.2113 -3.98446 0
M  V30 8982 H 825.195 4.96804 -5.69844 0
M  V30 8983 H 826.463 5.95306 -5.03221 0
M  V30 8984 N 830.692 1.47107 0.565454 0
M  V30 8985 C 831.624 1.55024 1.6882 0
M  V30 8986 C 832.637 0.4371 1.56822 0
M  V30 8987 O 833.826 0.706315 1.63931 0
M  V30 8988 C 830.926 1.43069 3.0722 0
M  V30 8989 C 830.099 2.68807 3.45053 0
M  V30 8990 C 829.158 2.50806 4.62583 0
M  V30 8991 O 828.184 3.24593 4.67577 0
M  V30 8992 N 829.386 1.58093 5.58558 0
M  V30 8993 H 832.151 2.51836 1.62477 0
M  V30 8994 H 829.712 1.43382 0.751885 0
M  V30 8995 H 831.704 1.28773 3.83666 0
M  V30 8996 H 830.274 0.543721 3.07835 0
M  V30 8997 H 829.494 2.97923 2.58138 0
M  V30 8998 H 830.782 3.52298 3.67101 0
M  V30 8999 H 830.18 0.972807 5.57273 0
M  V30 9000 H 828.737 1.49753 6.34364 0
M  V30 9001 N 832.17 -0.811516 1.35101 0
M  V30 9002 C 833.1 -1.9378 1.30275 0
M  V30 9003 C 834.081 -1.69165 0.178075 0
M  V30 9004 O 835.266 -1.90599 0.372256 0
M  V30 9005 C 832.396 -3.30439 1.06899 0
M  V30 9006 C 831.35 -3.69523 2.15955 0
M  V30 9007 C 830.676 -5.0429 1.77751 0
M  V30 9008 C 831.976 -3.80419 3.57881 0
M  V30 9009 H 833.67 -1.98075 2.24514 0
M  V30 9010 H 831.216 -0.951586 1.08078 0
M  V30 9011 H 833.169 -4.08828 1.02164 0
M  V30 9012 H 831.893 -3.26473 0.0910462 0
M  V30 9013 H 830.552 -2.93416 2.19778 0
M  V30 9014 H 830.2 -4.96823 0.785876 0
M  V30 9015 H 829.9 -5.31411 2.5075 0
M  V30 9016 H 831.424 -5.85125 1.74533 0
M  V30 9017 H 832.838 -4.49051 3.56407 0
M  V30 9018 H 831.235 -4.19005 4.29598 0
M  V30 9019 H 832.305 -2.82105 3.94391 0
M  V30 9020 N 833.648 -1.19017 -1.03309 0
M  V30 9021 C 835.064 -0.941483 -1.28873 0
M  V30 9022 C 835.264 0.388587 -1.97718 0
M  V30 9023 O 834.32 1.12111 -2.26246 0
M  V30 9024 C 835.633 -2.11249 -2.13996 0
M  V30 9025 C 837.181 -2.15164 -2.27318 0
M  V30 9026 C 837.656 -3.31704 -3.15811 0
M  V30 9027 N 839.147 -3.31613 -3.23399 0
M  V30 9028 C 839.882 -4.18431 -3.9205 0
M  V30 9029 N 839.378 -5.15397 -4.62966 0
M  V30 9030 N 841.171 -4.06321 -3.88406 0
M  V30 9031 H 833.322 -2.04599 -0.570343 0
M  V30 9032 H 835.585 -0.894406 -0.314232 0
M  V30 9033 H 835.291 -3.07482 -1.70727 0
M  V30 9034 H 835.165 -2.07955 -3.14697 0
M  V30 9035 H 837.552 -1.19504 -2.6982 0
M  V30 9036 H 837.633 -2.22513 -1.26182 0
M  V30 9037 H 837.277 -4.2764 -2.74019 0
M  V30 9038 H 837.207 -3.21592 -4.16997 0
M  V30 9039 H 839.698 -2.6142 -2.72888 0
M  V30 9040 H 840.011 -5.78 -5.12968 0
M  V30 9041 H 838.356 -5.19349 -4.61846 0
M  V30 9042 H 841.547 -3.29849 -3.3214 0
M  V30 9043 H 841.72 -4.74196 -4.41635 0
M  V30 9044 N 835.127 1.22348 -0.993418 0
M  V30 9045 C 836.09 2.22522 -0.549251 0
M  V30 9046 C 837.09 1.56529 0.368164 0
M  V30 9047 O 838.28 1.73463 0.16005 0
M  V30 9048 C 835.412 3.40307 0.201037 0
M  V30 9049 H 836.605 2.63332 -1.43515 0
M  V30 9050 H 834.158 1.35407 -0.78068 0
M  V30 9051 H 834.893 3.0497 1.10289 0
M  V30 9052 H 834.678 3.8942 -0.457685 0
M  V30 9053 H 836.168 4.14597 0.499946 0
M  V30 9054 N 836.605 0.766683 1.37694 0
M  V30 9055 C 837.515 0.150158 2.34119 0
M  V30 9056 C 838.531 -0.685513 1.59927 0
M  V30 9057 O 839.707 -0.606616 1.92047 0
M  V30 9058 C 836.772 -0.722562 3.39087 0
M  V30 9059 C 835.833 0.128983 4.29106 0
M  V30 9060 C 835.066 -0.702178 5.29061 0
M  V30 9061 O 835.289 -1.93954 5.36412 0
M  V30 9062 O 834.223 -0.114056 6.01792 0
M  V30 9063 H 838.049 0.946829 2.88563 0
M  V30 9064 H 835.634 0.527765 1.39768 0
M  V30 9065 H 837.516 -1.22095 4.03325 0
M  V30 9066 H 836.191 -1.49751 2.86978 0
M  V30 9067 H 835.098 0.673612 3.67985 0
M  V30 9068 H 836.431 0.866892 4.84506 0
M  V30 9069 N 838.083 -1.48885 0.516809 0
M  V30 9070 C 839.031 -2.31066 -0.266656 0
M  V30 9071 C 840.025 -1.40393 -0.94795 0
M  V30 9072 O 841.231 -1.57366 -0.873836 0
M  V30 9073 H 837.606 -0.744654 -0.104858 0
M  V30 9074 H 839.577 -2.95045 0.446236 0
M  V30 9075 C 838.326 -3.22131 -1.3087 0
M  V30 9076 H 837.649 -3.91839 -0.793865 0
M  V30 9077 H 839.089 -3.82544 -1.82856 0
M  V30 9078 C 837.548 -2.42825 -2.33533 0
M  V30 9079 O 838.078 -2.14364 -3.39722 0
M  V30 9080 N 836.284 -2.04559 -2.06407 0
M  V30 9081 H 835.831 -2.27905 -1.20071 0
M  V30 9082 H 835.789 -1.51807 -2.75322 0
M  V30 9083 N 839.561 -0.251338 -1.55583 0
M  V30 9084 C 840.809 0.371434 -1.98657 0
M  V30 9085 C 841.13 1.58143 -1.14087 0
M  V30 9086 O 840.4 1.94607 -0.224708 0
M  V30 9087 H 838.98 0.140225 -0.733721 0
M  V30 9088 H 841.642 -0.351157 -1.9171 0
M  V30 9089 H 840.738 0.677554 -3.04657 0
M  V30 9090 N 841.039 1.57585 0.0217189 0
M  V30 9091 C 841.969 2.10073 1.01939 0
M  V30 9092 C 842.95 1.0049 1.37243 0
M  V30 9093 O 844.135 1.28055 1.45999 0
M  V30 9094 C 841.265 2.58618 2.31806 0
M  V30 9095 C 840.219 3.72531 2.10724 0
M  V30 9096 C 839.545 4.07309 3.46415 0
M  V30 9097 C 840.845 5.00672 1.48743 0
M  V30 9098 H 842.539 2.9368 0.582432 0
M  V30 9099 H 840.085 1.41277 0.278715 0
M  V30 9100 H 842.038 2.9396 3.01936 0
M  V30 9101 H 840.762 1.72104 2.77575 0
M  V30 9102 H 839.421 3.37549 1.43025 0
M  V30 9103 H 839.069 3.17851 3.89846 0
M  V30 9104 H 838.769 4.84042 3.33132 0
M  V30 9105 H 840.293 4.45192 4.17895 0
M  V30 9106 H 841.707 5.33925 2.088 0
M  V30 9107 H 840.104 5.82065 1.46013 0
M  V30 9108 H 841.174 4.82769 0.45408 0
M  V30 9109 N 842.517 -0.29412 1.54831 0
M  V30 9110 C 843.447 -1.36757 1.89261 0
M  V30 9111 C 844.428 -1.52564 0.752214 0
M  V30 9112 O 845.613 -1.65958 1.00855 0
M  V30 9113 C 842.743 -2.73066 2.14597 0
M  V30 9114 C 841.697 -2.72017 3.3044 0
M  V30 9115 C 841.023 -4.11679 3.4121 0
M  V30 9116 C 842.323 -2.33149 4.67375 0
M  V30 9117 H 844.017 -1.08191 2.79169 0
M  V30 9118 H 841.563 -0.519014 1.34321 0
M  V30 9119 H 843.516 -3.48255 2.37269 0
M  V30 9120 H 842.24 -3.03172 1.21467 0
M  V30 9121 H 840.899 -1.99285 3.07703 0
M  V30 9122 H 840.547 -4.38973 2.45584 0
M  V30 9123 H 840.247 -4.11877 4.19084 0
M  V30 9124 H 841.771 -4.88637 3.6615 0
M  V30 9125 H 843.185 -2.98054 4.89731 0
M  V30 9126 H 841.582 -2.44546 5.48012 0
M  V30 9127 H 842.652 -1.28275 4.67626 0
M  V30 9128 N 843.995 -1.47404 -0.557645 0
M  V30 9129 C 844.928 -1.54399 -1.68036 0
M  V30 9130 C 845.906 -0.396175 -1.577 0
M  V30 9131 O 847.09 -0.603911 -1.78564 0
M  V30 9132 C 844.217 -1.44611 -3.06277 0
M  V30 9133 C 843.263 -2.63889 -3.35059 0
M  V30 9134 S 844.096 -4.26086 -3.24362 0
M  V30 9135 C 845.252 -4.1885 -4.65097 0
M  V30 9136 H 845.485 -2.49384 -1.61849 0
M  V30 9137 H 843.018 -1.35597 -0.738429 0
M  V30 9138 H 844.976 -1.39651 -3.86015 0
M  V30 9139 H 843.637 -0.510114 -3.0993 0
M  V30 9140 H 842.83 -2.53103 -4.35838 0
M  V30 9141 H 842.432 -2.65969 -2.62938 0
M  V30 9142 H 844.724 -3.87077 -5.56037 0
M  V30 9143 H 845.667 -5.19714 -4.8094 0
M  V30 9144 H 846.075 -3.49717 -4.43123 0
M  V30 9145 N 845.473 0.80434 -1.35529 0
M  V30 9146 C 846.701 1.59283 -1.32048 0
M  V30 9147 C 847.116 1.88527 0.101556 0
M  V30 9148 O 846.473 1.48975 1.05417 0
M  V30 9149 C 846.524 2.92276 -2.12737 0
M  V30 9150 O 846.245 2.64299 -3.49396 0
M  V30 9151 C 847.746 3.86631 -2.16867 0
M  V30 9152 H 844.966 0.494523 -0.453528 0
M  V30 9153 H 847.51 0.999415 -1.78415 0
M  V30 9154 H 845.665 3.48125 -1.69964 0
M  V30 9155 H 846.079 3.4923 -3.91329 0
M  V30 9156 H 847.553 4.77053 -2.77712 0
M  V30 9157 H 848.03 4.23384 -1.16803 0
M  V30 9158 H 848.636 3.36717 -2.59811 0
M  V30 9159 N 846.951 1.19563 1.02676 0
M  V30 9160 C 848.362 1.00158 1.57561 0
M  V30 9161 C 848.713 -0.444922 1.91089 0
M  V30 9162 O 847.838 -1.32466 1.71119 0
M  V30 9163 C 848.433 1.81181 2.86284 0
M  V30 9164 C 846.992 1.66171 3.37734 0
M  V30 9165 C 846.139 1.7975 2.11152 0
M  V30 9166 H 849.09 1.33904 0.85179 0
M  V30 9167 H 849.111 1.30916 3.57269 0
M  V30 9168 H 848.623 2.86454 2.6185 0
M  V30 9169 H 846.724 0.634927 3.6715 0
M  V30 9170 H 846.837 2.46832 4.10622 0
M  V30 9171 H 845.201 1.22833 2.23123 0
M  V30 9172 H 845.984 2.86487 1.89157 0
M  V30 9173 N 848.429 -1.21819 0.999893 0
M  V30 9174 C 849.669 -1.92473 0.687996 0
M  V30 9175 C 850.033 -1.76033 -0.766569 0
M  V30 9176 O 851.234 -2.41013 -1.19021 0
M  V30 9177 C 849.505 -3.40332 1.09129 0
M  V30 9178 S 851.064 -4.29496 0.898822 0
M  V30 9179 H 847.882 -0.665097 0.251329 0
M  V30 9180 H 850.484 -1.47454 1.28364 0
M  V30 9181 H 849.188 -3.49812 2.14615 0
M  V30 9182 H 848.719 -3.90365 0.487724 0
M  V30 9183 H 850.734 -4.95769 -0.206873 0
M  V30 9184 N 849.908 -0.773975 -1.37286 0
M  V30 9185 C 851.138 -0.350249 -2.03609 0
M  V30 9186 C 851.546 1.03313 -1.58502 0
M  V30 9187 O 850.889 1.67118 -0.7627 0
M  V30 9188 C 850.951 -0.317215 -3.58098 0
M  V30 9189 C 850.615 -1.64556 -4.26345 0
M  V30 9190 C 851.612 -2.59839 -4.50311 0
M  V30 9191 C 849.297 -1.92061 -4.64131 0
M  V30 9192 C 851.291 -3.80833 -5.11122 0
M  V30 9193 C 848.978 -3.13325 -5.24663 0
M  V30 9194 C 849.976 -4.0753 -5.48095 0
M  V30 9195 O 849.664 -5.26658 -6.0736 0
M  V30 9196 H 849.396 -0.144456 -0.660385 0
M  V30 9197 H 851.95 -1.0496 -1.76557 0
M  V30 9198 H 850.18 0.438528 -3.84205 0
M  V30 9199 H 851.869 0.0797428 -4.05822 0
M  V30 9200 H 852.635 -2.39872 -4.21529 0
M  V30 9201 H 848.514 -1.19562 -4.45226 0
M  V30 9202 H 852.058 -4.54377 -5.29327 0
M  V30 9203 H 847.955 -3.33177 -5.52869 0
M  V30 9204 H 848.723 -5.27513 -6.25837 0
M  V30 9205 N 851.386 1.48609 -0.524698 0
M  V30 9206 C 852.614 2.06899 0.00742946 0
M  V30 9207 C 853.029 1.38196 1.28637 0
M  V30 9208 O 852.386 0.467771 1.76403 0
M  V30 9209 C 852.437 3.60699 0.240548 0
M  V30 9210 O 852.158 4.26821 -0.987715 0
M  V30 9211 C 853.659 4.35769 0.813652 0
M  V30 9212 H 850.879 0.670278 -0.0311294 0
M  V30 9213 H 853.423 1.91071 -0.728832 0
M  V30 9214 H 851.578 3.76149 0.926845 0
M  V30 9215 H 851.992 5.18889 -0.765175 0
M  V30 9216 H 853.466 5.44174 0.926219 0
M  V30 9217 H 853.943 3.9984 1.81728 0
M  V30 9218 H 854.549 4.24983 0.164086 0
M  V30 9219 N 852.864 0.259585 1.55447 0
M  V30 9220 C 853.827 -0.621359 2.20617 0
M  V30 9221 C 854.827 -1.09317 1.17925 0
M  V30 9222 O 856.017 -0.995842 1.42929 0
M  V30 9223 C 853.149 -1.85546 2.85982 0
M  V30 9224 H 854.342 -0.0525833 2.99854 0
M  V30 9225 H 851.895 0.0101055 1.56297 0
M  V30 9226 H 852.63 -2.46515 2.10715 0
M  V30 9227 H 852.415 -1.52523 3.61219 0
M  V30 9228 H 853.905 -2.48227 3.35817 0
M  V30 9229 N 854.342 -1.57594 -0.0133615 0
M  V30 9230 C 855.29 -2.08682 -1.02736 0
M  V30 9231 C 856.284 -1.00391 -1.36448 0
M  V30 9232 O 857.49 -1.18868 -1.35168 0
M  V30 9233 H 853.865 -0.666158 -0.34891 0
M  V30 9234 H 855.836 -2.9289 -0.570815 0
M  V30 9235 C 854.585 -2.5945 -2.31476 0
M  V30 9236 H 853.908 -3.42401 -2.06401 0
M  V30 9237 H 855.348 -2.98888 -3.00735 0
M  V30 9238 C 853.807 -1.50266 -3.01533 0
M  V30 9239 O 854.337 -0.877875 -3.9199 0
M  V30 9240 N 852.543 -1.23336 -2.63129 0
M  V30 9241 H 852.09 -1.74327 -1.89652 0
M  V30 9242 H 852.048 -0.504987 -3.10318 0
M  V30 9243 N 855.82 0.285905 -1.54985 0
M  V30 9244 C 857.067 1.0192 -1.74982 0
M  V30 9245 C 857.395 1.86743 -0.543816 0
M  V30 9246 O 856.65 1.89874 0.473972 0
M  V30 9247 C 856.949 1.94193 -3.0004 0
M  V30 9248 C 856.615 1.25225 -4.33162 0
M  V30 9249 C 855.277 1.06149 -4.69346 0
M  V30 9250 C 857.629 0.760427 -5.15623 0
M  V30 9251 C 854.957 0.365991 -5.85557 0
M  V30 9252 C 857.309 0.0785787 -6.32551 0
M  V30 9253 C 855.973 -0.124002 -6.67385 0
M  V30 9254 H 855.243 0.372951 -0.640304 0
M  V30 9255 H 857.89 0.292652 -1.89251 0
M  V30 9256 H 856.195 2.73426 -2.80616 0
M  V30 9257 H 857.892 2.51029 -3.12707 0
M  V30 9258 H 854.482 1.41081 -4.04715 0
M  V30 9259 H 858.666 0.895466 -4.88155 0
M  V30 9260 H 853.922 0.198193 -6.11079 0
M  V30 9261 H 858.096 -0.310339 -6.95708 0
M  V30 9262 H 855.723 -0.664918 -7.57287 0
M  V30 9263 N 857.298 1.47698 0.54982 0
M  V30 9264 C 858.544 1.54931 1.30859 0
M  V30 9265 C 858.877 0.214021 1.93017 0
M  V30 9266 O 858.152 -0.778093 1.78258 0
M  V30 9267 C 858.435 2.67286 2.41309 0
M  V30 9268 C 858.288 4.10457 1.83971 0
M  V30 9269 C 859.607 2.75509 3.43195 0
M  V30 9270 H 856.726 0.56399 0.474431 0
M  V30 9271 H 859.368 1.79787 0.614541 0
M  V30 9272 H 857.518 2.46224 3.0051 0
M  V30 9273 H 859.19 4.42903 1.28974 0
M  V30 9274 H 857.433 4.18387 1.14606 0
M  V30 9275 H 858.104 4.84857 2.63851 0
M  V30 9276 H 860.58 2.94531 2.93923 0
M  V30 9277 H 859.456 3.55886 4.17895 0
M  V30 9278 H 859.717 1.82863 4.02509 0
M  V30 9279 N 858.776 -0.797141 1.35954 0
M  V30 9280 C 859.739 -1.89104 1.29508 0
M  V30 9281 C 860.739 -1.59495 0.204444 0
M  V30 9282 O 861.929 -1.68051 0.458746 0
M  V30 9283 C 859.061 -3.25726 1.00576 0
M  V30 9284 H 860.254 -1.96237 2.26785 0
M  V30 9285 H 857.807 -0.994075 1.20614 0
M  V30 9286 H 858.542 -3.24279 0.0372519 0
M  V30 9287 H 858.327 -3.48604 1.79492 0
M  V30 9288 H 859.817 -4.0578 0.986508 0
M  V30 9289 N 860.254 -1.20106 -1.0204 0
M  V30 9290 C 861.665 -1.00992 -1.57027 0
M  V30 9291 C 862.016 0.434782 -1.91322 0
M  V30 9292 O 861.141 1.31557 -1.71819 0
M  V30 9293 C 861.736 -1.82697 -2.85319 0
M  V30 9294 C 860.295 -1.67959 -3.36848 0
M  V30 9295 C 859.442 -1.80868 -2.10195 0
M  V30 9296 H 862.393 -1.34354 -0.844676 0
M  V30 9297 H 862.414 -1.32809 -3.5657 0
M  V30 9298 H 861.926 -2.87839 -2.60328 0
M  V30 9299 H 860.027 -0.654389 -3.66809 0
M  V30 9300 H 860.14 -2.49006 -4.09308 0
M  V30 9301 H 858.504 -1.24015 -2.22469 0
M  V30 9302 H 859.287 -2.87486 -1.87635 0
M  V30 9303 N 861.732 1.21287 -1.00634 0
M  V30 9304 C 862.642 2.27388 -0.577226 0
M  V30 9305 C 863.658 1.69791 0.380399 0
M  V30 9306 O 864.834 1.99918 0.2439 0
M  V30 9307 C 861.899 3.46588 0.0880532 0
M  V30 9308 C 860.96 4.19453 -0.914222 0
M  V30 9309 C 860.193 5.32962 -0.280596 0
M  V30 9310 O 860.416 5.62895 0.922265 0
M  V30 9311 O 859.35 5.93666 -0.992196 0
M  V30 9312 H 863.176 2.66289 -1.46028 0
M  V30 9313 H 860.761 1.2771 -0.775283 0
M  V30 9314 H 862.643 4.18881 0.460094 0
M  V30 9315 H 861.318 3.09585 0.945461 0
M  V30 9316 H 860.225 3.49376 -1.33744 0
M  V30 9317 H 861.558 4.6037 -1.74126 0
M  V30 9318 N 863.21 0.781244 1.36873 0
M  V30 9319 C 864.456 0.350407 1.9975 0
M  V30 9320 C 864.789 -1.07293 1.6187 0
M  V30 9321 O 864.064 -1.73983 0.869491 0
M  V30 9322 C 864.347 0.504834 3.56544 0
M  V30 9323 C 864.2 1.97127 4.04303 0
M  V30 9324 C 865.519 -0.0851272 4.40018 0
M  V30 9325 H 862.638 0.128794 0.725659 0
M  V30 9326 H 865.28 0.98606 1.6241 0
M  V30 9327 H 863.43 -0.0363006 3.88483 0
M  V30 9328 H 865.102 2.57284 3.82887 0
M  V30 9329 H 863.345 2.47676 3.56145 0
M  V30 9330 H 864.016 2.03033 5.13305 0
M  V30 9331 H 866.492 0.376704 4.14391 0
M  V30 9332 H 865.368 0.0530015 5.48874 0
M  V30 9333 H 865.629 -1.17642 4.2616 0
M  V30 9334 N 864.689 -1.48329 0.532571 0
M  V30 9335 C 865.619 -2.32485 -0.217511 0
M  V30 9336 C 866.6 -1.42255 -0.932598 0
M  V30 9337 O 867.785 -1.7114 -0.917873 0
M  V30 9338 C 864.915 -3.23509 -1.26329 0
M  V30 9339 C 863.869 -4.22784 -0.666191 0
M  V30 9340 C 863.195 -5.0296 -1.81482 0
M  V30 9341 C 864.495 -5.21031 0.363813 0
M  V30 9342 H 866.189 -2.95445 0.485014 0
M  V30 9343 H 863.735 -1.42075 0.234694 0
M  V30 9344 H 865.688 -3.81211 -1.79601 0
M  V30 9345 H 864.412 -2.58554 -1.99543 0
M  V30 9346 H 863.071 -3.66272 -0.15498 0
M  V30 9347 H 862.719 -4.34427 -2.5354 0
M  V30 9348 H 862.419 -5.70154 -1.4212 0
M  V30 9349 H 863.943 -5.63514 -2.35126 0
M  V30 9350 H 865.357 -5.73241 -0.0819079 0
M  V30 9351 H 863.754 -5.96292 0.674956 0
M  V30 9352 H 864.824 -4.6801 1.26865 0
M  V30 9353 N 866.167 -0.267825 -1.55308 0
M  V30 9354 C 867.114 0.6228 -2.22238 0
M  V30 9355 C 868.084 1.15536 -1.19334 0
M  V30 9356 O 869.269 1.206 -1.47852 0
M  V30 9357 C 866.409 1.80447 -2.94164 0
M  V30 9358 C 865.522 1.30646 -4.11771 0
M  V30 9359 C 864.657 2.44935 -4.7136 0
M  V30 9360 C 863.696 1.92099 -5.81175 0
M  V30 9361 N 862.833 2.99834 -6.34857 0
M  V30 9362 H 867.673 0.0453874 -2.97965 0
M  V30 9363 H 865.21 0.0106371 -1.47096 0
M  V30 9364 H 867.168 2.49896 -3.34078 0
M  V30 9365 H 865.798 2.35403 -2.20874 0
M  V30 9366 H 864.85 0.505314 -3.77029 0
M  V30 9367 H 866.162 0.879409 -4.90987 0
M  V30 9368 H 865.316 3.2239 -5.13955 0
M  V30 9369 H 864.055 2.90951 -3.91406 0
M  V30 9370 H 863.06 1.13122 -5.38037 0
M  V30 9371 H 864.285 1.47027 -6.62993 0
M  V30 9372 H 862.231 3.45246 -5.578 0
M  V30 9373 H 862.148 2.61524 -7.09324 0
M  V30 9374 H 863.416 3.77286 -6.82111 0
M  V30 9375 N 867.645 1.57599 0.00500368 0
M  V30 9376 C 869.061 1.55463 0.361015 0
M  V30 9377 C 869.261 0.997051 1.75103 0
M  V30 9378 O 868.317 0.628661 2.44549 0
M  V30 9379 C 869.63 2.99734 0.240828 0
M  V30 9380 C 871.178 3.11399 0.316138 0
M  V30 9381 C 871.653 4.57446 0.22513 0
M  V30 9382 N 873.144 4.62334 0.283186 0
M  V30 9383 C 873.879 5.72914 0.23603 0
M  V30 9384 N 873.375 6.92659 0.139762 0
M  V30 9385 N 875.168 5.61364 0.287529 0
M  V30 9386 H 867.319 1.92185 -0.904359 0
M  V30 9387 H 869.582 0.882529 -0.34619 0
M  V30 9388 H 869.288 3.44348 -0.715343 0
M  V30 9389 H 869.162 3.63009 1.02491 0
M  V30 9390 H 871.549 2.66718 1.26275 0
M  V30 9391 H 871.63 2.50911 -0.497725 0
M  V30 9392 H 871.274 5.02801 -0.717917 0
M  V30 9393 H 871.204 5.15874 1.05742 0
M  V30 9394 H 873.695 3.7619 0.359123 0
M  V30 9395 H 874.008 7.72722 0.10954 0
M  V30 9396 H 872.353 6.9492 0.105462 0
M  V30 9397 H 875.544 4.66707 0.360897 0
M  V30 9398 H 875.717 6.47528 0.247313 0
M  V30 9399 N 869.123 -0.277682 1.55134 0
M  V30 9400 C 870.055 -1.36531 1.84098 0
M  V30 9401 C 871.068 -1.45756 0.725194 0
M  V30 9402 O 872.257 -1.47656 1.00299 0
M  V30 9403 C 869.357 -2.74701 1.98476 0
M  V30 9404 C 868.53 -2.88125 3.29094 0
M  V30 9405 C 867.589 -4.0694 3.33596 0
M  V30 9406 O 866.615 -3.9792 4.06999 0
M  V30 9407 N 867.817 -5.18687 2.60661 0
M  V30 9408 H 870.582 -1.12032 2.77973 0
M  V30 9409 H 868.143 -0.467793 1.54995 0
M  V30 9410 H 870.135 -3.52471 1.98863 0
M  V30 9411 H 868.705 -2.92043 1.11488 0
M  V30 9412 H 867.925 -1.97277 3.41285 0
M  V30 9413 H 869.213 -2.94021 4.15246 0
M  V30 9414 H 868.611 -5.28901 2.00699 0
M  V30 9415 H 867.168 -5.94705 2.66776 0
M  V30 9416 N 870.601 -1.47988 -0.541979 0
M  V30 9417 C 871.849 -1.55086 -1.29587 0
M  V30 9418 C 872.17 -0.221304 -1.9374 0
M  V30 9419 O 871.44 0.756128 -1.80719 0
M  V30 9420 H 870.02 -0.571307 -0.481266 0
M  V30 9421 H 872.682 -1.8438 -0.631675 0
M  V30 9422 H 871.778 -2.32556 -2.08144 0
M  V30 9423 N 872.079 0.78992 -1.36375 0
M  V30 9424 C 873.309 1.57644 -1.33536 0
M  V30 9425 C 873.717 1.89007 0.0855075 0
M  V30 9426 O 873.06 1.50547 1.05267 0
M  V30 9427 C 873.122 2.92424 -2.09113 0
M  V30 9428 C 872.786 2.83793 -3.58205 0
M  V30 9429 C 873.783 2.56072 -4.52464 0
M  V30 9430 C 871.468 3.02386 -4.01084 0
M  V30 9431 C 873.462 2.47044 -5.87578 0
M  V30 9432 C 871.149 2.9298 -5.36289 0
M  V30 9433 C 872.147 2.65347 -6.29349 0
M  V30 9434 O 871.835 2.55935 -7.62071 0
M  V30 9435 H 871.567 0.495639 -0.459694 0
M  V30 9436 H 874.121 0.988354 -1.80058 0
M  V30 9437 H 872.351 3.53282 -1.57254 0
M  V30 9438 H 874.04 3.53693 -1.99139 0
M  V30 9439 H 874.806 2.4141 -4.2065 0
M  V30 9440 H 870.685 3.229 -3.29023 0
M  V30 9441 H 874.229 2.25396 -6.60184 0
M  V30 9442 H 870.126 3.07204 -5.67711 0
M  V30 9443 H 870.894 2.7142 -7.72187 0
M  V30 9444 N 873.557 1.20646 1.01402 0
M  V30 9445 C 874.834 0.927176 1.72229 0
M  V30 9446 C 875.214 -0.563382 2.03443 0
M  V30 9447 O 874.562 -1.52576 1.70096 0
M  V30 9448 C 874.772 1.80285 2.98828 0
M  V30 9449 C 876.12 2.04624 3.72041 0
M  V30 9450 O 877.144 1.77559 3.0879 0
M  V30 9451 O 876.003 2.50347 4.85787 0
M  V30 9452 H 873.097 0.346891 0.75073 0
M  V30 9453 H 875.643 1.31532 1.07227 0
M  V30 9454 H 874.415 2.81204 2.72102 0
M  V30 9455 H 874.038 1.41495 3.71571 0
M  V30 9456 N 875.035 -1.20752 1.01276 0
M  V30 9457 C 875.945 -2.27079 0.589277 0
M  V30 9458 C 876.961 -1.6999 -0.371389 0
M  V30 9459 O 878.137 -2.00044 -0.233294 0
M  V30 9460 C 875.202 -3.4663 -0.0696715 0
M  V30 9461 C 874.263 -4.18962 0.936454 0
M  V30 9462 C 873.496 -5.32806 0.308856 0
M  V30 9463 O 873.719 -5.63376 -0.8924 0
M  V30 9464 O 872.653 -5.93131 1.02367 0
M  V30 9465 H 876.479 -2.6551 1.47438 0
M  V30 9466 H 874.064 -1.27297 0.782045 0
M  V30 9467 H 875.946 -4.19119 -0.437873 0
M  V30 9468 H 874.621 -3.10082 -0.929029 0
M  V30 9469 H 873.528 -3.48661 1.35595 0
M  V30 9470 H 874.861 -4.59441 1.76565 0
M  V30 9471 N 876.513 -0.788492 -1.36457 0
M  V30 9472 C 877.761 -0.359749 -1.98872 0
M  V30 9473 C 878.082 1.07197 -1.62892 0
M  V30 9474 O 877.352 1.73875 -0.902463 0
M  V30 9475 H 875.932 -0.130029 -0.735596 0
M  V30 9476 H 878.594 -1.01033 -1.66668 0
M  V30 9477 H 877.69 -0.450835 -3.08827 0
M  V30 9478 N 877.991 1.48044 -0.54043 0
M  V30 9479 C 879.231 2.04396 -0.012296 0
M  V30 9480 C 879.595 1.40748 1.30591 0
M  V30 9481 O 880.796 1.88048 1.92072 0
M  V30 9482 C 879.067 3.5727 0.0964302 0
M  V30 9483 S 880.626 4.35041 0.573117 0
M  V30 9484 H 877.444 0.710795 -0.0170735 0
M  V30 9485 H 880.046 1.81625 -0.723362 0
M  V30 9486 H 878.75 4.01124 -0.86762 0
M  V30 9487 H 878.281 3.84511 0.83156 0
M  V30 9488 H 880.296 4.6099 1.83583 0
M  V30 9489 N 879.47 0.276058 1.55163 0
M  V30 9490 C 880.747 -0.392292 1.91626 0
M  V30 9491 C 881.127 -1.73646 1.20043 0
M  V30 9492 O 880.475 -2.26139 0.327606 0
M  V30 9493 C 880.685 -0.531641 3.44927 0
M  V30 9494 C 882.033 -0.8141 4.16722 0
M  V30 9495 O 883.057 -0.616413 3.50826 0
M  V30 9496 O 881.916 -1.19224 5.33337 0
M  V30 9497 H 879.01 -0.214945 0.798579 0
M  V30 9498 H 881.556 0.32228 1.66612 0
M  V30 9499 H 880.328 0.414282 3.89101 0
M  V30 9500 H 879.951 -1.29564 3.75897 0
M  V30 9501 N 880.948 -1.576 0.00335426 0
M  V30 9502 C 882.197 -1.89892 -0.680001 0
M  V30 9503 C 882.51 -0.878731 -1.7475 0
M  V30 9504 O 883.716 -1.09199 -2.48572 0
M  V30 9505 C 882.172 -3.37098 -1.26066 0
M  V30 9506 C 881.78 -4.4742 -0.227807 0
M  V30 9507 C 883.524 -3.78495 -1.92202 0
M  V30 9508 C 881.431 -5.85706 -0.81865 0
M  V30 9509 H 880.361 -0.708578 -0.257746 0
M  V30 9510 H 883.012 -1.83387 0.0644472 0
M  V30 9511 H 881.394 -3.38451 -2.05589 0
M  V30 9512 H 882.568 -4.57589 0.54307 0
M  V30 9513 H 880.883 -4.15064 0.333297 0
M  V30 9514 H 883.48 -4.7915 -2.37318 0
M  V30 9515 H 883.823 -3.12187 -2.75399 0
M  V30 9516 H 884.356 -3.79456 -1.19408 0
M  V30 9517 H 881.095 -6.55495 -0.0253787 0
M  V30 9518 H 880.615 -5.79196 -1.55861 0
M  V30 9519 H 882.294 -6.33469 -1.31627 0
M  V30 9520 N 882.426 0.269451 -1.5528 0
M  V30 9521 C 883.672 0.997946 -1.77236 0
M  V30 9522 C 884.027 1.83808 -0.568546 0
M  V30 9523 O 883.32 1.8651 0.438706 0
M  V30 9524 C 883.514 1.91 -3.02082 0
M  V30 9525 C 883.343 1.15963 -4.34491 0
M  V30 9526 C 882.113 0.873873 -4.97686 0
M  V30 9527 C 884.311 0.548307 -5.11369 0
M  V30 9528 N 882.293 0.0970863 -6.13823 0
M  V30 9529 C 883.664 -0.0941413 -6.19929 0
M  V30 9530 C 885.719 0.456507 -4.95803 0
M  V30 9531 C 884.422 -0.819547 -7.14616 0
M  V30 9532 C 886.448 -0.255315 -5.90849 0
M  V30 9533 C 885.81 -0.886488 -6.988 0
M  V30 9534 H 881.909 0.347038 -0.700777 0
M  V30 9535 H 884.493 0.273262 -1.92773 0
M  V30 9536 H 882.664 2.60691 -2.87915 0
M  V30 9537 H 884.396 2.57237 -3.12428 0
M  V30 9538 H 881.151 1.18003 -4.58663 0
M  V30 9539 H 881.575 -0.278741 -6.76426 0
M  V30 9540 H 886.217 0.930164 -4.12441 0
M  V30 9541 H 883.935 -1.30488 -7.97495 0
M  V30 9542 H 887.521 -0.32671 -5.80882 0
M  V30 9543 H 886.401 -1.42851 -7.71079 0
M  V30 9544 N 883.904 1.48273 0.534124 0
M  V30 9545 C 885.129 1.59988 1.31979 0
M  V30 9546 C 885.554 0.258824 1.86311 0
M  V30 9547 O 884.912 -0.768885 1.64188 0
M  V30 9548 C 884.96 2.64642 2.44943 0
M  V30 9549 O 884.064 2.21515 3.47858 0
M  V30 9550 H 883.405 0.536625 0.391063 0
M  V30 9551 H 885.935 1.94229 0.643135 0
M  V30 9552 H 885.945 2.85786 2.91187 0
M  V30 9553 H 884.62 3.62004 2.04758 0
M  V30 9554 H 883.197 2.10567 3.0776 0
M  V30 9555 N 885.382 -0.782676 1.36792 0
M  V30 9556 C 886.312 -1.90973 1.34356 0
M  V30 9557 C 887.293 -1.6875 0.213917 0
M  V30 9558 O 888.478 -1.89766 0.412601 0
M  V30 9559 C 885.608 -3.28097 1.13884 0
M  V30 9560 C 884.562 -3.6486 2.23744 0
M  V30 9561 C 883.888 -5.00406 1.88408 0
M  V30 9562 C 885.188 -3.72742 3.6587 0
M  V30 9563 H 886.882 -1.93268 2.28665 0
M  V30 9564 H 884.428 -0.928447 1.10072 0
M  V30 9565 H 886.381 -4.06569 1.10813 0
M  V30 9566 H 885.105 -3.26206 0.160275 0
M  V30 9567 H 883.764 -2.88689 2.25952 0
M  V30 9568 H 883.412 -4.95044 0.891083 0
M  V30 9569 H 883.112 -5.25973 2.61966 0
M  V30 9570 H 884.636 -5.81291 1.86905 0
M  V30 9571 H 886.05 -4.4139 3.65852 0
M  V30 9572 H 884.447 -4.09798 4.38389 0
M  V30 9573 H 885.517 -2.73676 4.00287 0
M  V30 9574 N 886.86 -1.21182 -1.00761 0
M  V30 9575 C 888.108 -1.02543 -1.74153 0
M  V30 9576 C 888.429 0.442372 -1.89916 0
M  V30 9577 O 887.699 1.31927 -1.44818 0
M  V30 9578 H 886.279 -0.37644 -0.645214 0
M  V30 9579 H 888.941 -1.52446 -1.21434 0
M  V30 9580 H 888.037 -1.49122 -2.7417 0
M  V30 9581 N 888.338 1.20213 -1.01915 0
M  V30 9582 C 889.587 1.88968 -0.705261 0
M  V30 9583 C 889.9 1.79869 0.768531 0
M  V30 9584 O 891.106 2.43783 1.19508 0
M  V30 9585 C 889.562 3.38911 -1.21109 0
M  V30 9586 C 889.17 3.5659 -2.71197 0
M  V30 9587 C 890.914 4.13204 -0.97275 0
M  V30 9588 C 888.821 5.00372 -3.15248 0
M  V30 9589 H 887.751 0.707715 -0.260107 0
M  V30 9590 H 890.402 1.35977 -1.23217 0
M  V30 9591 H 888.784 3.9124 -0.612152 0
M  V30 9592 H 889.958 3.14635 -3.36662 0
M  V30 9593 H 888.273 2.95671 -2.93202 0
M  V30 9594 H 890.87 5.19221 -1.27726 0
M  V30 9595 H 891.213 4.16201 0.09072 0
M  V30 9596 H 891.746 3.66983 -1.5352 0
M  V30 9597 H 888.485 5.02532 -4.20882 0
M  V30 9598 H 888.005 5.43127 -2.54505 0
M  V30 9599 H 889.684 5.68969 -3.08032 0
M  V30 9600 N 889.816 0.795718 1.36037 0
M  V30 9601 C 890.746 0.212803 2.32528 0
M  V30 9602 C 891.727 -0.655716 1.56953 0
M  V30 9603 O 892.912 -0.588238 1.85077 0
M  V30 9604 C 890.042 -0.648189 3.41198 0
M  V30 9605 C 888.996 0.120948 4.27829 0
M  V30 9606 C 888.322 -0.861044 5.27722 0
M  V30 9607 C 889.622 1.31375 5.05508 0
M  V30 9608 H 891.316 1.01893 2.81528 0
M  V30 9609 H 888.862 0.491422 1.35355 0
M  V30 9610 H 890.815 -1.06597 4.07695 0
M  V30 9611 H 889.539 -1.48709 2.9078 0
M  V30 9612 H 888.198 0.519777 3.62897 0
M  V30 9613 H 887.846 -1.69515 4.73575 0
M  V30 9614 H 887.546 -0.350808 5.86552 0
M  V30 9615 H 889.07 -1.27726 5.97092 0
M  V30 9616 H 890.484 0.971406 5.6501 0
M  V30 9617 H 888.881 1.75772 5.73781 0
M  V30 9618 H 889.951 2.10593 4.36782 0
M  V30 9619 N 891.294 -1.47756 0.548274 0
M  V30 9620 C 892.224 -2.32702 -0.19284 0
M  V30 9621 C 893.205 -1.43237 -0.917457 0
M  V30 9622 O 894.39 -1.72103 -0.89967 0
M  V30 9623 C 891.52 -3.24831 -1.22891 0
M  V30 9624 C 890.474 -4.23466 -0.621312 0
M  V30 9625 C 889.8 -5.04856 -1.76137 0
M  V30 9626 C 891.1 -5.20616 0.419055 0
M  V30 9627 H 892.794 -2.94914 0.516323 0
M  V30 9628 H 890.34 -1.41818 0.24975 0
M  V30 9629 H 892.293 -3.83094 -1.75547 0
M  V30 9630 H 891.017 -2.60656 -1.9679 0
M  V30 9631 H 889.676 -3.66416 -0.116123 0
M  V30 9632 H 889.324 -4.37091 -2.48918 0
M  V30 9633 H 889.024 -5.71629 -1.36065 0
M  V30 9634 H 890.548 -5.65976 -2.29136 0
M  V30 9635 H 891.962 -5.73296 -0.0211034 0
M  V30 9636 H 890.359 -5.95543 0.738163 0
M  V30 9637 H 891.429 -4.66638 1.31822 0
M  V30 9638 N 892.772 -0.284283 -1.55015 0
M  V30 9639 C 894.002 0.332465 -2.03907 0
M  V30 9640 C 894.41 1.49331 -1.16177 0
M  V30 9641 O 893.753 1.82851 -0.176395 0
M  V30 9642 C 893.815 0.867193 -3.48884 0
M  V30 9643 C 893.479 -0.166198 -4.56698 0
M  V30 9644 C 894.476 -0.988898 -5.10408 0
M  V30 9645 C 892.161 -0.303081 -5.01385 0
M  V30 9646 C 894.155 -1.93458 -6.07333 0
M  V30 9647 C 891.842 -1.25223 -5.98133 0
M  V30 9648 C 892.84 -2.06647 -6.50988 0
M  V30 9649 O 892.528 -2.99955 -7.45843 0
M  V30 9650 H 892.26 0.0786597 -0.671408 0
M  V30 9651 H 894.814 -0.416871 -2.01125 0
M  V30 9652 H 893.044 1.66676 -3.48935 0
M  V30 9653 H 894.733 1.39802 -3.81065 0
M  V30 9654 H 895.499 -0.89393 -4.76691 0
M  V30 9655 H 891.378 0.320711 -4.59883 0
M  V30 9656 H 894.922 -2.57053 -6.48513 0
M  V30 9657 H 890.819 -1.34798 -6.31268 0
M  V30 9658 H 891.587 -2.94742 -7.6359 0
M  V30 9659 N 894.251 1.57596 -0.0117121 0
M  V30 9660 C 895.479 1.9536 0.681334 0
M  V30 9661 C 895.894 0.887255 1.66653 0
M  V30 9662 O 895.251 -0.132692 1.82017 0
M  V30 9663 C 895.302 3.33165 1.40298 0
M  V30 9664 O 895.023 4.35707 0.45728 0
M  V30 9665 C 896.524 3.85458 2.18946 0
M  V30 9666 H 893.744 0.643826 0.189023 0
M  V30 9667 H 896.288 2.04392 -0.066311 0
M  V30 9668 H 894.443 3.25404 2.10216 0
M  V30 9669 H 894.857 5.15495 0.96773 0
M  V30 9670 H 896.331 4.84275 2.64918 0
M  V30 9671 H 896.808 3.18781 3.02118 0
M  V30 9672 H 897.414 3.96431 1.5402 0
M  V30 9673 N 895.729 -0.261212 1.5542 0
M  V30 9674 C 896.662 -1.34906 1.84054 0
M  V30 9675 C 897.64 -1.47024 0.694466 0
M  V30 9676 O 898.824 -1.63463 0.938719 0
M  V30 9677 C 895.951 -2.7242 2.01259 0
M  V30 9678 C 894.997 -2.77526 3.23855 0
M  V30 9679 S 895.83 -2.35578 4.80898 0
M  V30 9680 C 896.986 -3.75045 5.01091 0
M  V30 9681 H 897.219 -1.10416 2.76035 0
M  V30 9682 H 894.752 -0.461461 1.47343 0
M  V30 9683 H 896.71 -3.51606 2.11857 0
M  V30 9684 H 895.371 -2.94155 1.10145 0
M  V30 9685 H 894.564 -3.78483 3.32816 0
M  V30 9686 H 894.166 -2.0637 3.11909 0
M  V30 9687 H 896.458 -4.7042 4.87556 0
M  V30 9688 H 897.401 -3.71027 6.03112 0
M  V30 9689 H 897.809 -3.66894 4.29009 0
M  V30 9690 N 897.207 -1.48554 -0.526253 0
M  V30 9691 C 898.137 -1.66252 -1.63959 0
M  V30 9692 C 899.118 -0.511351 -1.62232 0
M  V30 9693 O 900.303 -0.744322 -1.7937 0
M  V30 9694 C 897.433 -1.70556 -3.02536 0
M  V30 9695 C 896.387 -2.8521 -3.19123 0
M  V30 9696 C 895.713 -2.74606 -4.58798 0
M  V30 9697 C 897.013 -4.26463 -3.0154 0
M  V30 9698 H 898.707 -2.59459 -1.49404 0
M  V30 9699 H 896.253 -1.24862 -0.717326 0
M  V30 9700 H 898.206 -1.81524 -3.80298 0
M  V30 9701 H 896.93 -0.739297 -3.18123 0
M  V30 9702 H 895.589 -2.73802 -2.43779 0
M  V30 9703 H 895.237 -1.75941 -4.71226 0
M  V30 9704 H 894.937 -3.51544 -4.70841 0
M  V30 9705 H 896.461 -2.87548 -5.38655 0
M  V30 9706 H 897.875 -4.38685 -3.69091 0
M  V30 9707 H 896.272 -5.04428 -3.25073 0
M  V30 9708 H 897.342 -4.42667 -1.97925 0
M  V30 9709 N 898.685 0.775411 -1.37205 0
M  V30 9710 C 899.648 1.8702 -1.325 0
M  V30 9711 C 900.648 1.5915 -0.229793 0
M  V30 9712 O 901.838 1.673 -0.485423 0
M  V30 9713 C 898.97 3.24085 -1.05745 0
M  V30 9714 H 900.163 1.92604 -2.29878 0
M  V30 9715 H 897.716 0.97476 -1.22181 0
M  V30 9716 H 898.451 3.24178 -0.0888371 0
M  V30 9717 H 898.236 3.45705 -1.85016 0
M  V30 9718 H 899.726 4.0416 -1.05094 0
M  V30 9719 N 900.163 1.21714 1.00117 0
M  V30 9720 C 901.411 1.03465 1.73607 0
M  V30 9721 C 901.732 -0.432295 1.90148 0
M  V30 9722 O 901.002 -1.31157 1.45515 0
M  V30 9723 H 899.582 0.379857 0.643209 0
M  V30 9724 H 902.244 1.53088 1.20624 0
M  V30 9725 H 901.34 1.50574 2.73375 0
M  V30 9726 N 901.641 -1.19671 1.02551 0
M  V30 9727 C 902.871 -1.92952 0.738441 0
M  V30 9728 C 903.279 -1.75528 -0.706155 0
M  V30 9729 O 902.622 -1.0723 -1.49156 0
M  V30 9730 C 902.684 -3.45149 1.00562 0
M  V30 9731 C 902.348 -3.86341 2.44109 0
M  V30 9732 C 903.345 -3.91374 3.42231 0
M  V30 9733 C 901.03 -4.18076 2.7842 0
M  V30 9734 C 903.024 -4.27568 4.7272 0
M  V30 9735 C 900.711 -4.53943 4.0912 0
M  V30 9736 C 901.709 -4.58663 5.06081 0
M  V30 9737 O 901.397 -4.93701 6.3444 0
M  V30 9738 H 901.129 -0.619836 0.269776 0
M  V30 9739 H 903.683 -1.52852 1.37206 0
M  V30 9740 H 901.913 -3.85416 0.314849 0
M  V30 9741 H 903.602 -3.99664 0.708742 0
M  V30 9742 H 904.368 -3.67011 3.17061 0
M  V30 9743 H 900.247 -4.13589 2.03631 0
M  V30 9744 H 903.791 -4.31166 5.48399 0
M  V30 9745 H 899.688 -4.77764 4.34064 0
M  V30 9746 H 900.456 -5.11662 6.38862 0
M  V30 9747 N 903.119 -0.802921 -1.35613 0
M  V30 9748 C 904.347 -0.39393 -2.03115 0
M  V30 9749 C 904.762 0.993961 -1.60517 0
M  V30 9750 O 904.119 1.63984 -0.800973 0
M  V30 9751 C 904.17 -0.463486 -3.58516 0
M  V30 9752 O 903.891 -1.79666 -3.99565 0
M  V30 9753 C 905.392 -0.0468377 -4.43275 0
M  V30 9754 H 902.612 -0.160519 -0.651517 0
M  V30 9755 H 905.156 -1.08552 -1.73311 0
M  V30 9756 H 903.311 0.179821 -3.86982 0
M  V30 9757 H 903.725 -1.75688 -4.942 0
M  V30 9758 H 905.199 -0.146626 -5.51805 0
M  V30 9759 H 905.676 1.00741 -4.2749 0
M  V30 9760 H 906.282 -0.663158 -4.20098 0
M  V30 9761 N 904.597 1.47463 -0.556102 0
M  V30 9762 C 906.008 1.86298 -0.122429 0
M  V30 9763 C 906.359 1.46285 1.30749 0
M  V30 9764 O 905.484 0.865405 1.98342 0
M  V30 9765 C 906.079 3.38115 -0.215407 0
M  V30 9766 C 904.638 3.76046 0.163223 0
M  V30 9767 C 903.785 2.71515 -0.563466 0
M  V30 9768 H 906.736 1.38996 -0.765888 0
M  V30 9769 H 906.757 3.76263 0.566271 0
M  V30 9770 H 906.269 3.67207 -1.25622 0
M  V30 9771 H 904.37 3.5257 1.20519 0
M  V30 9772 H 904.483 4.78705 -0.194568 0
M  V30 9773 H 902.847 2.54699 -0.00667879 0
M  V30 9774 H 903.63 3.03449 -1.60542 0
M  V30 9775 N 906.075 0.2925 1.54862 0
M  V30 9776 C 907.322 -0.319263 1.99967 0
M  V30 9777 C 907.65 -1.54547 1.18092 0
M  V30 9778 O 906.905 -1.94186 0.242969 0
M  V30 9779 C 907.204 -0.728674 3.49893 0
M  V30 9780 C 906.87 0.394836 4.49168 0
M  V30 9781 C 905.532 0.703289 4.76033 0
M  V30 9782 C 907.884 1.15103 5.08331 0
M  V30 9783 C 905.212 1.77121 5.59325 0
M  V30 9784 C 907.564 2.20881 5.92785 0
M  V30 9785 C 906.228 2.52342 6.17964 0
M  V30 9786 H 905.498 -0.116827 0.731733 0
M  V30 9787 H 908.145 0.40983 1.87063 0
M  V30 9788 H 906.45 -1.53772 3.60363 0
M  V30 9789 H 908.147 -1.21305 3.82212 0
M  V30 9790 H 904.737 0.144319 4.28357 0
M  V30 9791 H 908.921 0.92599 4.87585 0
M  V30 9792 H 904.177 2.01978 5.77074 0
M  V30 9793 H 908.351 2.79939 6.37657 0
M  V30 9794 H 905.978 3.35225 6.82296 0
M  V30 9795 N 907.553 -1.57587 0.0200696 0
M  V30 9796 C 908.516 -2.08595 -0.949767 0
M  V30 9797 C 909.516 -0.999215 -1.25985 0
M  V30 9798 O 910.706 -1.26115 -1.2017 0
M  V30 9799 C 907.838 -2.54424 -2.26895 0
M  V30 9800 H 909.031 -2.95563 -0.508161 0
M  V30 9801 H 906.584 -1.54631 -0.227798 0
M  V30 9802 H 907.319 -1.70758 -2.75703 0
M  V30 9803 H 907.104 -3.3381 -2.05702 0
M  V30 9804 H 908.594 -2.94144 -2.96427 0
M  V30 9805 N 909.032 0.252966 -1.55557 0
M  V30 9806 C 909.98 1.33289 -1.90622 0
M  V30 9807 C 910.974 1.50133 -0.784638 0
M  V30 9808 O 912.18 1.51679 -0.969196 0
M  V30 9809 H 908.555 0.446196 -0.605321 0
M  V30 9810 H 910.526 1.00977 -2.80796 0
M  V30 9811 C 909.275 2.68254 -2.21213 0
M  V30 9812 H 908.598 2.5609 -3.07014 0
M  V30 9813 H 910.038 3.42707 -2.49656 0
M  V30 9814 C 908.497 3.20884 -1.02642 0
M  V30 9815 O 909.027 4.00783 -0.271292 0
M  V30 9816 N 907.233 2.7883 -0.818682 0
M  V30 9817 H 906.78 2.13966 -1.43444 0
M  V30 9818 H 906.738 3.14388 -0.0269989 0
M  V30 9819 N 910.51 1.48831 0.518367 0
M  V30 9820 C 911.758 1.57128 1.27103 0
M  V30 9821 C 912.079 0.252098 1.93364 0
M  V30 9822 O 911.349 -0.727281 1.819 0
M  V30 9823 H 909.929 0.578891 0.472116 0
M  V30 9824 H 912.591 1.85361 0.602262 0
M  V30 9825 H 911.687 2.35838 2.04418 0
M  V30 9826 N 911.988 -0.768124 1.37614 0
M  V30 9827 C 913.399 -1.34462 1.29525 0
M  V30 9828 C 913.75 -1.96121 -0.0555168 0
M  V30 9829 O 912.875 -1.94069 -0.957406 0
M  V30 9830 C 913.47 -2.44475 2.34558 0
M  V30 9831 C 912.029 -2.97883 2.30093 0
M  V30 9832 C 911.176 -1.71131 2.18196 0
M  V30 9833 H 914.127 -0.568103 1.48183 0
M  V30 9834 H 914.148 -3.24047 1.99434 0
M  V30 9835 H 913.66 -1.99568 3.32858 0
M  V30 9836 H 911.761 -3.47156 1.35328 0
M  V30 9837 H 911.874 -3.53251 3.23652 0
M  V30 9838 H 910.238 -1.94197 1.64802 0
M  V30 9839 H 911.021 -1.28323 3.18415 0
M  V30 9840 N 913.466 -1.22244 -0.994698 0
M  V30 9841 C 914.691 -1.07299 -1.77487 0
M  V30 9842 C 915.116 0.372302 -1.84379 0
M  V30 9843 O 914.474 1.2689 -1.29494 0
M  V30 9844 C 914.522 -1.68675 -3.18718 0
M  V30 9845 O 913.626 -0.939202 -4.01563 0
M  V30 9846 H 912.967 -0.376979 -0.546611 0
M  V30 9847 H 915.497 -1.62003 -1.24965 0
M  V30 9848 H 915.507 -1.73324 -3.69354 0
M  V30 9849 H 914.182 -2.73849 -3.13017 0
M  V30 9850 H 912.759 -0.968583 -3.60101 0
M  V30 9851 N 914.944 1.19125 -1.03184 0
M  V30 9852 C 916.221 1.84674 -0.644574 0
M  V30 9853 C 916.601 1.92042 0.876534 0
M  V30 9854 O 915.949 1.43965 1.77444 0
M  V30 9855 C 916.159 3.23477 -1.3101 0
M  V30 9856 C 917.507 3.99608 -1.43524 0
M  V30 9857 O 918.531 3.32886 -1.2675 0
M  V30 9858 O 917.39 5.19132 -1.70776 0
M  V30 9859 H 914.484 0.795968 -0.22442 0
M  V30 9860 H 917.03 1.2659 -1.13018 0
M  V30 9861 H 915.802 3.12967 -2.34878 0
M  V30 9862 H 915.425 3.89209 -0.812547 0
M  V30 9863 N 916.422 0.810101 1.35185 0
M  V30 9864 C 917.65 0.404696 2.02903 0
M  V30 9865 C 918.065 -0.985434 1.61042 0
M  V30 9866 O 917.422 -1.63557 0.809658 0
M  V30 9867 C 917.473 0.482493 3.58266 0
M  V30 9868 O 917.194 1.81782 3.98606 0
M  V30 9869 C 918.695 0.070345 4.43244 0
M  V30 9870 H 915.915 0.163972 0.650657 0
M  V30 9871 H 918.459 1.0947 1.72733 0
M  V30 9872 H 916.614 -0.159296 3.87072 0
M  V30 9873 H 917.028 1.78306 4.93262 0
M  V30 9874 H 918.502 0.175888 5.5172 0
M  V30 9875 H 918.979 -0.984724 4.28018 0
M  V30 9876 H 919.585 0.685427 4.1974 0
M  V30 9877 N 917.9 -1.47166 0.563914 0
M  V30 9878 C 919.311 -1.86231 0.132307 0
M  V30 9879 C 919.662 -1.46976 -1.29971 0
M  V30 9880 O 918.787 -0.875911 -1.97881 0
M  V30 9881 C 919.382 -3.37996 0.233335 0
M  V30 9882 C 917.941 -3.76127 -0.143278 0
M  V30 9883 C 917.088 -2.71212 0.577857 0
M  V30 9884 H 920.039 -1.38588 0.773249 0
M  V30 9885 H 920.06 -3.76558 -0.546309 0
M  V30 9886 H 919.572 -3.66535 1.27568 0
M  V30 9887 H 917.673 -3.53205 -1.18648 0
M  V30 9888 H 917.786 -4.78595 0.219952 0
M  V30 9889 H 916.15 -2.54692 0.020186 0
M  V30 9890 H 916.933 -3.02593 1.62149 0
M  V30 9891 N 919.378 -0.300708 -1.54705 0
M  V30 9892 C 920.288 0.584996 -2.27189 0
M  V30 9893 C 921.304 1.14866 -1.30697 0
M  V30 9894 O 922.48 1.17351 -1.63679 0
M  V30 9895 C 919.545 1.74076 -2.99831 0
M  V30 9896 C 918.606 1.2112 -4.1186 0
M  V30 9897 C 917.839 2.31188 -4.81028 0
M  V30 9898 O 918.062 3.5108 -4.49554 0
M  V30 9899 O 916.996 1.97897 -5.68437 0
M  V30 9900 H 920.822 -0.00298177 -3.037 0
M  V30 9901 H 918.407 -0.0671802 -1.49249 0
M  V30 9902 H 920.289 2.41413 -3.45395 0
M  V30 9903 H 918.964 2.31535 -2.26215 0
M  V30 9904 H 917.871 0.50357 -3.70695 0
M  V30 9905 H 919.204 0.682046 -4.87452 0
M  V30 9906 N 920.856 1.57574 -0.0284266 0
M  V30 9907 C 921.766 2.13637 0.96936 0
M  V30 9908 C 922.782 1.08845 1.35752 0
M  V30 9909 O 923.958 1.40899 1.43908 0
M  V30 9910 C 921.023 2.65179 2.2334 0
M  V30 9911 C 920.084 3.84683 1.90572 0
M  V30 9912 C 919.317 4.33758 3.1095 0
M  V30 9913 O 919.54 3.82009 4.23586 0
M  V30 9914 O 918.474 5.2561 2.93288 0
M  V30 9915 H 922.3 2.99169 0.52267 0
M  V30 9916 H 919.885 1.48159 0.192135 0
M  V30 9917 H 921.767 2.98402 2.97547 0
M  V30 9918 H 920.442 1.82731 2.67191 0
M  V30 9919 H 919.349 3.56386 1.13753 0
M  V30 9920 H 920.682 4.68292 1.51538 0
M  V30 9921 N 922.334 -0.244713 1.55689 0
M  V30 9922 C 923.583 -0.970373 1.76824 0
M  V30 9923 C 923.896 -1.86402 0.592764 0
M  V30 9924 O 925.102 -2.62659 0.687186 0
M  V30 9925 C 923.558 -1.77547 3.13058 0
M  V30 9926 C 923.166 -0.929104 4.3826 0
M  V30 9927 C 924.91 -2.49373 3.43531 0
M  V30 9928 C 922.817 -1.73021 5.65524 0
M  V30 9929 H 921.747 -0.366048 0.659185 0
M  V30 9930 H 924.398 -0.224964 1.82116 0
M  V30 9931 H 922.78 -2.56291 3.01879 0
M  V30 9932 H 923.954 -0.183836 4.60433 0
M  V30 9933 H 922.269 -0.324071 4.15137 0
M  V30 9934 H 924.866 -3.09767 4.35831 0
M  V30 9935 H 925.209 -3.21099 2.64955 0
M  V30 9936 H 925.742 -1.77637 3.55935 0
M  V30 9937 H 922.481 -1.05666 6.46927 0
M  V30 9938 H 922.001 -2.45071 5.47449 0
M  V30 9939 H 923.68 -2.2968 6.0486 0
M  V30 9940 N 923.813 -1.49104 -0.510467 0
M  V30 9941 C 924.743 -1.67981 -1.62187 0
M  V30 9942 C 925.724 -0.528529 -1.6168 0
M  V30 9943 O 926.909 -0.763305 -1.7857 0
M  V30 9944 C 924.039 -1.73755 -3.0071 0
M  V30 9945 C 922.993 -2.88579 -3.1608 0
M  V30 9946 C 922.319 -2.79457 -4.5586 0
M  V30 9947 C 923.619 -4.29638 -2.97 0
M  V30 9948 H 925.313 -2.61029 -1.46643 0
M  V30 9949 H 922.859 -1.25615 -0.704042 0
M  V30 9950 H 924.812 -1.85548 -3.78352 0
M  V30 9951 H 923.536 -0.772996 -3.17321 0
M  V30 9952 H 922.195 -2.76372 -2.40861 0
M  V30 9953 H 921.843 -1.80929 -4.69333 0
M  V30 9954 H 921.543 -3.56518 -4.67086 0
M  V30 9955 H 923.067 -2.93245 -5.35574 0
M  V30 9956 H 924.481 -4.42575 -3.64418 0
M  V30 9957 H 922.878 -5.07847 -3.19704 0
M  V30 9958 H 923.948 -4.44741 -1.93219 0
M  V30 9959 N 925.291 0.760815 -1.38019 0
M  V30 9960 C 926.519 1.55001 -1.37048 0
M  V30 9961 C 926.934 1.88754 0.0415261 0
M  V30 9962 O 926.291 1.52254 1.00624 0
M  V30 9963 C 926.342 2.8536 -2.21928 0
M  V30 9964 O 926.063 2.53049 -3.57628 0
M  V30 9965 C 927.564 3.79536 -2.29057 0
M  V30 9966 H 924.784 0.479844 -0.469032 0
M  V30 9967 H 927.328 0.942148 -1.81504 0
M  V30 9968 H 925.483 3.42542 -1.80953 0
M  V30 9969 H 925.897 3.36604 -4.02241 0
M  V30 9970 H 927.371 4.67977 -2.92749 0
M  V30 9971 H 927.848 4.19453 -1.30213 0
M  V30 9972 H 928.454 3.28281 -2.70392 0
M  V30 9973 N 926.769 1.22769 0.988202 0
M  V30 9974 C 928.185 0.988665 1.2529 0
M  V30 9975 C 928.385 -0.314938 1.99024 0
M  V30 9976 O 927.441 -1.03637 2.30251 0
M  V30 9977 C 928.754 2.19046 2.06009 0
M  V30 9978 C 930.302 2.23452 2.19176 0
M  V30 9979 C 930.777 3.43196 3.03283 0
M  V30 9980 N 932.268 3.43387 3.10869 0
M  V30 9981 C 933.003 4.32693 3.7625 0
M  V30 9982 N 932.499 5.32224 4.43519 0
M  V30 9983 N 934.292 4.20457 3.73058 0
M  V30 9984 H 926.443 2.06575 0.494014 0
M  V30 9985 H 928.706 0.905452 0.28082 0
M  V30 9986 H 928.412 3.13607 1.59197 0
M  V30 9987 H 928.286 2.19492 3.06763 0
M  V30 9988 H 930.673 1.29436 2.65199 0
M  V30 9989 H 930.754 2.27042 1.17836 0
M  V30 9990 H 930.398 4.37515 2.57959 0
M  V30 9991 H 930.328 3.36847 4.04774 0
M  V30 9992 H 932.819 2.71368 2.62998 0
M  V30 9993 H 933.132 5.9664 4.91163 0
M  V30 9994 H 931.477 5.36133 4.42252 0
M  V30 9995 H 934.668 3.41949 3.19669 0
M  V30 9996 H 934.841 4.90261 4.23731 0
M  V30 9997 N 928.247 -1.18576 1.03814 0
M  V30 9998 C 929.496 -1.87822 0.735235 0
M  V30 9999 C 929.809 -1.81069 -0.739819 0
M  V30 10000 O 931.015 -2.45654 -1.15614 0
M  V30 10001 C 929.471 -3.36941 1.26486 0
M  V30 10002 C 929.079 -3.5223 2.76836 0
M  V30 10003 C 930.823 -4.11604 1.03836 0
M  V30 10004 C 928.73 -4.95294 3.23169 0
M  V30 10005 H 927.66 -0.703487 0.271333 0
M  V30 10006 H 930.311 -1.34 1.25365 0
M  V30 10007 H 928.693 -3.90217 0.674318 0
M  V30 10008 H 929.867 -3.09239 3.41625 0
M  V30 10009 H 928.182 -2.90969 2.97869 0
M  V30 10010 H 930.779 -5.17123 1.3597 0
M  V30 10011 H 931.122 -4.16293 -0.0244945 0
M  V30 10012 H 931.655 -3.64494 1.59338 0
M  V30 10013 H 928.394 -4.95772 4.28824 0
M  V30 10014 H 927.914 -5.3901 2.63113 0
M  V30 10015 H 929.593 -5.63996 3.17045 0
M  V30 10016 N 929.725 -0.817259 -1.34754 0
M  V30 10017 C 930.973 -0.401852 -1.98065 0
M  V30 10018 C 931.294 1.03718 -1.65129 0
M  V30 10019 O 930.564 1.71921 -0.939141 0
M  V30 10020 H 929.144 -0.145603 -0.732672 0
M  V30 10021 H 931.806 -1.04545 -1.64488 0
M  V30 10022 H 930.902 -0.516241 -3.07801 0
M  V30 10023 N 931.203 1.46865 -0.571711 0
M  V30 10024 C 932.428 2.07323 -0.0564655 0
M  V30 10025 C 932.853 1.41938 1.23431 0
M  V30 10026 O 932.211 0.499334 1.74288 0
M  V30 10027 C 932.259 3.6044 0.107339 0
M  V30 10028 O 931.363 3.95558 1.1665 0
M  V30 10029 H 930.704 0.661475 -0.0578465 0
M  V30 10030 H 933.234 1.88669 -0.791524 0
M  V30 10031 H 933.244 4.06767 0.316987 0
M  V30 10032 H 931.919 4.07425 -0.835348 0
M  V30 10033 H 930.496 3.60957 0.936189 0
M  V30 10034 N 932.681 0.308908 1.54543 0
M  V30 10035 C 933.929 -0.297447 1.99899 0
M  V30 10036 C 934.25 -1.53799 1.19878 0
M  V30 10037 O 933.52 -1.93639 0.29678 0
M  V30 10038 H 932.1 -0.112897 0.738419 0
M  V30 10039 H 934.762 0.422067 1.90275 0
M  V30 10040 H 933.858 -0.564016 3.06961 0
M  V30 10041 N 934.159 -1.57557 0.0367827 0
M  V30 10042 C 935.106 -2.10679 -0.942499 0
M  V30 10043 C 936.076 -1.01068 -1.31812 0
M  V30 10044 O 937.261 -1.28533 -1.41011 0
M  V30 10045 C 934.401 -2.64467 -2.21701 0
M  V30 10046 C 933.514 -3.88114 -1.89715 0
M  V30 10047 C 932.649 -4.30268 -3.11518 0
M  V30 10048 C 931.688 -5.46652 -2.75387 0
M  V30 10049 N 930.825 -5.83927 -3.89838 0
M  V30 10050 H 935.665 -2.94066 -0.482588 0
M  V30 10051 H 933.202 -1.45344 -0.226597 0
M  V30 10052 H 935.16 -2.93745 -2.96259 0
M  V30 10053 H 933.79 -1.83898 -2.65295 0
M  V30 10054 H 932.842 -3.65516 -1.05366 0
M  V30 10055 H 934.154 -4.72743 -1.5911 0
M  V30 10056 H 933.308 -4.61023 -3.94389 0
M  V30 10057 H 932.047 -3.44421 -3.4529 0
M  V30 10058 H 931.052 -5.15583 -1.90929 0
M  V30 10059 H 932.277 -6.34204 -2.42822 0
M  V30 10060 H 930.223 -5.01035 -4.23438 0
M  V30 10061 H 930.14 -6.63214 -3.62883 0
M  V30 10062 H 931.408 -6.19291 -4.73391 0
M  V30 10063 N 935.637 0.236453 -1.55816 0
M  V30 10064 C 936.884 0.963012 -1.78136 0
M  V30 10065 C 937.212 1.84918 -0.602952 0
M  V30 10066 O 936.467 1.91285 0.413325 0
M  V30 10067 C 936.766 1.84549 -3.06066 0
M  V30 10068 C 936.432 1.11381 -4.36927 0
M  V30 10069 C 935.094 0.911635 -4.72486 0
M  V30 10070 C 937.446 0.596 -5.17781 0
M  V30 10071 C 934.774 0.179515 -5.86425 0
M  V30 10072 C 937.126 -0.122702 -6.32481 0
M  V30 10073 C 935.79 -0.336263 -6.66652 0
M  V30 10074 H 935.06 0.352391 -0.651845 0
M  V30 10075 H 937.707 0.232295 -1.90086 0
M  V30 10076 H 936.012 2.6436 -2.89173 0
M  V30 10077 H 937.709 2.40953 -3.20535 0
M  V30 10078 H 934.299 1.28134 -4.08998 0
M  V30 10079 H 938.483 0.73971 -4.90757 0
M  V30 10080 H 933.739 0.00368224 -6.114 0
M  V30 10081 H 937.913 -0.531516 -6.94369 0
M  V30 10082 H 935.54 -0.905507 -7.54788 0
M  V30 10083 N 937.115 1.49373 0.502552 0
M  V30 10084 C 938.343 1.62488 1.28084 0
M  V30 10085 C 938.758 0.295667 1.86471 0
M  V30 10086 O 938.115 -0.718664 1.67754 0
M  V30 10087 C 938.166 2.69249 2.4122 0
M  V30 10088 O 937.887 3.97014 1.85234 0
M  V30 10089 C 939.388 2.93054 3.32617 0
M  V30 10090 H 936.608 0.547068 0.388533 0
M  V30 10091 H 939.152 1.95394 0.603452 0
M  V30 10092 H 937.307 2.39125 3.04792 0
M  V30 10093 H 937.721 4.55809 2.59496 0
M  V30 10094 H 939.195 3.71493 4.08285 0
M  V30 10095 H 939.672 2.02911 3.89517 0
M  V30 10096 H 940.278 3.24589 2.74813 0
M  V30 10097 N 938.594 -0.753485 1.38421 0
M  V30 10098 C 939.524 -1.8808 1.38377 0
M  V30 10099 C 940.505 -1.68258 0.249664 0
M  V30 10100 O 941.69 -1.88848 0.45276 0
M  V30 10101 C 938.82 -3.25608 1.20818 0
M  V30 10102 C 937.774 -3.60032 2.31433 0
M  V30 10103 C 937.1 -4.96297 1.9898 0
M  V30 10104 C 938.4 -3.64898 3.73694 0
M  V30 10105 H 940.094 -1.88375 2.32713 0
M  V30 10106 H 937.64 -0.90489 1.12017 0
M  V30 10107 H 939.593 -4.04127 1.19412 0
M  V30 10108 H 938.317 -3.25793 0.229433 0
M  V30 10109 H 936.976 -2.83831 2.32025 0
M  V30 10110 H 936.624 -4.93043 0.995889 0
M  V30 10111 H 936.324 -5.20298 2.73063 0
M  V30 10112 H 937.848 -5.77196 1.99193 0
M  V30 10113 H 939.262 -4.33531 3.75132 0
M  V30 10114 H 937.659 -4.00407 4.46983 0
M  V30 10115 H 938.729 -2.65124 4.06002 0
M  V30 10116 N 940.072 -1.23292 -0.981677 0
M  V30 10117 C 941.297 -1.09176 -1.76339 0
M  V30 10118 C 941.722 0.352726 -1.84763 0
M  V30 10119 O 941.08 1.25509 -1.30832 0
M  V30 10120 C 941.128 -1.72046 -3.16911 0
M  V30 10121 O 940.232 -0.98174 -4.00544 0
M  V30 10122 H 939.573 -0.382755 -0.542581 0
M  V30 10123 H 942.103 -1.63319 -1.23239 0
M  V30 10124 H 942.113 -1.77232 -3.67495 0
M  V30 10125 H 940.788 -2.77154 -3.10095 0
M  V30 10126 H 939.365 -1.00672 -3.59054 0
M  V30 10127 N 941.55 1.18024 -1.04442 0
M  V30 10128 C 942.798 1.87727 -0.74854 0
M  V30 10129 C 943.119 1.80975 0.726156 0
M  V30 10130 O 942.389 1.23061 1.52423 0
M  V30 10131 H 940.969 0.694974 -0.273897 0
M  V30 10132 H 943.631 1.43213 -1.32197 0
M  V30 10133 H 942.727 2.93665 -1.05674 0
M  V30 10134 N 943.028 0.824394 1.34319 0
M  V30 10135 C 944.276 0.41235 1.97849 0
M  V30 10136 C 944.597 -1.02841 1.65677 0
M  V30 10137 O 943.867 -1.71421 0.948245 0
M  V30 10138 H 942.447 0.149486 0.73189 0
M  V30 10139 H 945.109 1.05416 1.63931 0
M  V30 10140 H 944.205 0.532557 3.07523 0
M  V30 10141 N 944.506 -1.46559 0.579492 0
M  V30 10142 C 945.454 -2.3199 -0.168413 0
M  V30 10143 C 946.448 -1.44288 -0.887551 0
M  V30 10144 O 947.654 -1.60931 -0.806305 0
M  V30 10145 H 944.029 -0.748431 -0.0731799 0
M  V30 10146 H 946 -2.92886 0.570973 0
M  V30 10147 C 944.749 -3.27392 -1.1709 0
M  V30 10148 H 944.072 -3.94853 -0.626958 0
M  V30 10149 H 945.512 -3.89955 -1.66467 0
M  V30 10150 C 943.971 -2.52511 -2.23024 0
M  V30 10151 O 944.501 -2.2858 -3.30324 0
M  V30 10152 N 942.707 -2.1313 -1.97545 0
M  V30 10153 H 942.254 -2.32793 -1.10297 0
M  V30 10154 H 942.212 -1.63348 -2.68635 0
M  V30 10155 N 945.984 -0.3171 -1.54377 0
M  V30 10156 C 947.23 0.280631 -2.01455 0
M  V30 10157 C 947.585 1.50282 -1.20138 0
M  V30 10158 O 946.878 1.89634 -0.273785 0
M  V30 10159 C 947.072 0.672917 -3.51008 0
M  V30 10160 C 946.901 -0.509709 -4.46802 0
M  V30 10161 C 945.671 -1.00679 -4.95168 0
M  V30 10162 C 947.869 -1.35984 -4.95997 0
M  V30 10163 N 945.851 -2.1545 -5.74852 0
M  V30 10164 C 947.222 -2.35481 -5.73541 0
M  V30 10165 C 949.277 -1.38836 -4.78152 0
M  V30 10166 C 947.98 -3.37625 -6.35139 0
M  V30 10167 C 950.006 -2.39847 -5.40581 0
M  V30 10168 C 949.368 -3.38071 -6.1797 0
M  V30 10169 H 945.467 0.0667107 -0.779149 0
M  V30 10170 H 948.051 -0.450672 -1.89412 0
M  V30 10171 H 946.222 1.37336 -3.63309 0
M  V30 10172 H 947.954 1.25156 -3.84861 0
M  V30 10173 H 944.709 -0.579125 -4.70046 0
M  V30 10174 H 945.133 -2.73324 -6.19373 0
M  V30 10175 H 949.775 -0.642643 -4.17887 0
M  V30 10176 H 947.493 -4.13106 -6.94528 0
M  V30 10177 H 951.079 -2.42847 -5.28693 0
M  V30 10178 H 949.959 -4.14953 -6.6542 0
M  V30 10179 N 947.462 1.57535 -0.0451378 0
M  V30 10180 C 948.41 2.12351 0.949205 0
M  V30 10181 C 949.404 1.05386 1.32628 0
M  V30 10182 O 950.61 1.23802 1.30664 0
M  V30 10183 H 946.985 0.678648 0.323945 0
M  V30 10184 H 948.956 2.94806 0.461718 0
M  V30 10185 C 947.705 2.67862 2.21687 0
M  V30 10186 H 947.028 3.49826 1.93551 0
M  V30 10187 H 948.468 3.09844 2.89435 0
M  V30 10188 C 946.927 1.61353 2.95748 0
M  V30 10189 O 947.457 1.02276 3.88462 0
M  V30 10190 N 945.663 1.33017 2.5837 0
M  V30 10191 H 945.21 1.81246 1.83051 0
M  V30 10192 H 945.168 0.619812 3.0823 0
M  V30 10193 N 948.94 -0.228186 1.55939 0
M  V30 10194 C 950.168 -0.970618 1.8272 0
M  V30 10195 C 950.583 -1.78212 0.623385 0
M  V30 10196 O 949.94 -1.77879 -0.408063 0
M  V30 10197 C 949.991 -1.89352 3.07942 0
M  V30 10198 O 949.712 -1.11483 4.23678 0
M  V30 10199 C 951.213 -2.75039 3.47661 0
M  V30 10200 H 948.433 -0.284772 0.607574 0
M  V30 10201 H 950.977 -0.245419 2.03022 0
M  V30 10202 H 949.132 -2.57275 2.89635 0
M  V30 10203 H 949.546 -1.74073 4.94772 0
M  V30 10204 H 951.02 -3.35511 4.38334 0
M  V30 10205 H 951.497 -3.471 2.69106 0
M  V30 10206 H 952.103 -2.1254 3.68384 0
M  V30 10207 N 950.418 -1.49637 -0.494624 0
M  V30 10208 C 951.664 -1.59681 -1.25019 0
M  V30 10209 C 951.997 -0.285511 -1.9209 0
M  V30 10210 O 951.272 0.711398 -1.81023 0
M  V30 10211 C 951.555 -2.76058 -2.31222 0
M  V30 10212 C 951.408 -4.17002 -1.68611 0
M  V30 10213 C 952.727 -2.88056 -3.32734 0
M  V30 10214 H 949.846 -0.581209 -0.453172 0
M  V30 10215 H 952.488 -1.81944 -0.547391 0
M  V30 10216 H 950.638 -2.57207 -2.91164 0
M  V30 10217 H 952.31 -4.47385 -1.12447 0
M  V30 10218 H 950.553 -4.22352 -0.989991 0
M  V30 10219 H 951.224 -4.94316 -2.45674 0
M  V30 10220 H 953.7 -3.05237 -2.82789 0
M  V30 10221 H 952.576 -3.71151 -4.04399 0
M  V30 10222 H 952.837 -1.97676 -3.95445 0
M  V30 10223 N 951.896 0.746133 -1.38819 0
M  V30 10224 C 953.121 1.54049 -1.38866 0
M  V30 10225 C 953.546 1.88092 0.0176624 0
M  V30 10226 O 952.904 1.51113 1.00173 0
M  V30 10227 C 952.952 2.8116 -2.25791 0
M  V30 10228 O 952.056 3.76623 -1.68014 0
M  V30 10229 H 951.397 0.465648 -0.473359 0
M  V30 10230 H 953.927 0.921469 -1.82675 0
M  V30 10231 H 953.937 3.30009 -2.39913 0
M  V30 10232 H 952.612 2.55713 -3.27999 0
M  V30 10233 H 951.189 3.35352 -1.63074 0
M  V30 10234 N 953.375 1.23811 0.975125 0
M  V30 10235 C 954.285 1.0408 2.10249 0
M  V30 10236 C 955.301 -0.0162404 1.73992 0
M  V30 10237 O 956.477 0.180346 2.00591 0
M  V30 10238 C 953.542 0.640013 3.40741 0
M  V30 10239 C 952.603 1.7727 3.90991 0
M  V30 10240 C 951.836 1.39094 5.15256 0
M  V30 10241 O 952.059 0.277483 5.69725 0
M  V30 10242 O 950.993 2.21392 5.59704 0
M  V30 10243 H 954.819 1.98575 2.29786 0
M  V30 10244 H 952.404 1.02563 1.08633 0
M  V30 10245 H 954.286 0.427684 4.19224 0
M  V30 10246 H 952.961 -0.27589 3.22522 0
M  V30 10247 H 951.868 2.03971 3.13602 0
M  V30 10248 H 953.201 2.66711 4.13674 0
M  V30 10249 N 954.853 -1.17469 1.05066 0
M  V30 10250 C 956.081 -1.9162 0.780334 0
M  V30 10251 C 956.496 -1.76745 -0.663817 0
M  V30 10252 O 955.853 -1.10377 -1.45338 0
M  V30 10253 C 955.904 -3.42723 1.14992 0
M  V30 10254 O 955.625 -3.57139 2.53739 0
M  V30 10255 C 957.126 -4.33952 0.905549 0
M  V30 10256 H 954.346 -0.608022 0.283814 0
M  V30 10257 H 956.89 -1.4897 1.401 0
M  V30 10258 H 955.045 -3.83124 0.57403 0
M  V30 10259 H 955.459 -4.5075 2.68189 0
M  V30 10260 H 956.933 -5.38487 1.21391 0
M  V30 10261 H 957.41 -4.38911 -0.159295 0
M  V30 10262 H 958.016 -3.99263 1.46522 0
M  V30 10263 N 956.331 -0.831506 -1.3388 0
M  V30 10264 C 957.294 -0.264773 -2.27666 0
M  V30 10265 C 958.294 0.562273 -1.50649 0
M  V30 10266 O 959.484 0.377131 -1.70069 0
M  V30 10267 C 956.616 0.627814 -3.35069 0
M  V30 10268 H 957.809 -1.09225 -2.79303 0
M  V30 10269 H 955.362 -0.604021 -1.44157 0
M  V30 10270 H 956.097 1.47802 -2.88661 0
M  V30 10271 H 955.882 0.0361552 -3.92083 0
M  V30 10272 H 957.372 1.01786 -4.05005 0
M  V30 10273 N 957.809 1.4625 -0.587256 0
M  V30 10274 C 958.756 2.30354 0.143384 0
M  V30 10275 C 959.726 1.40891 0.879716 0
M  V30 10276 O 960.911 1.69837 0.869486 0
M  V30 10277 C 958.051 3.25441 1.14815 0
M  V30 10278 C 957.164 4.30004 0.414792 0
M  V30 10279 C 956.299 5.12214 1.40748 0
M  V30 10280 C 955.338 6.08523 0.660786 0
M  V30 10281 N 954.475 6.83585 1.60176 0
M  V30 10282 H 959.315 2.92304 -0.579866 0
M  V30 10283 H 956.852 1.44055 -0.29777 0
M  V30 10284 H 958.81 3.79018 1.7436 0
M  V30 10285 H 957.44 2.6529 1.83906 0
M  V30 10286 H 956.492 3.79248 -0.295787 0
M  V30 10287 H 957.804 4.98515 -0.168738 0
M  V30 10288 H 956.958 5.70091 2.0756 0
M  V30 10289 H 955.697 4.43675 2.02494 0
M  V30 10290 H 954.702 5.49796 -0.0210864 0
M  V30 10291 H 955.927 6.79083 0.0486551 0
M  V30 10292 H 953.873 6.17752 2.20724 0
M  V30 10293 H 953.79 7.48373 1.07115 0
M  V30 10294 H 955.058 7.46016 2.26009 0
M  V30 10295 N 959.287 0.325282 1.54207 0
M  V30 10296 C 960.564 -0.33113 1.92777 0
M  V30 10297 C 960.944 -1.69739 1.25506 0
M  V30 10298 O 960.292 -2.24983 0.399385 0
M  V30 10299 C 960.502 -0.421636 3.46444 0
M  V30 10300 C 961.85 -0.681111 4.19101 0
M  V30 10301 O 962.874 -0.504488 3.52609 0
M  V30 10302 O 961.733 -1.02196 5.3686 0
M  V30 10303 H 958.827 -0.18943 0.805013 0
M  V30 10304 H 961.373 0.375123 1.65502 0
M  V30 10305 H 960.145 0.537862 3.87586 0
M  V30 10306 H 959.768 -1.1754 3.79829 0
M  V30 10307 N 960.765 -1.57509 0.0534917 0
M  V30 10308 C 961.695 -2.14698 -0.917999 0
M  V30 10309 C 962.676 -1.06924 -1.32292 0
M  V30 10310 O 963.861 -1.34875 -1.39723 0
M  V30 10311 C 960.991 -2.69383 -2.19203 0
M  V30 10312 C 959.945 -3.82161 -1.9271 0
M  V30 10313 C 959.271 -4.23373 -3.26587 0
M  V30 10314 C 960.571 -5.07199 -1.24686 0
M  V30 10315 H 962.265 -2.96125 -0.44165 0
M  V30 10316 H 959.811 -1.42446 -0.210993 0
M  V30 10317 H 961.764 -3.08031 -2.87567 0
M  V30 10318 H 960.488 -1.85151 -2.69048 0
M  V30 10319 H 959.147 -3.43989 -1.26757 0
M  V30 10320 H 958.795 -3.36089 -3.74237 0
M  V30 10321 H 958.495 -4.99385 -3.09658 0
M  V30 10322 H 960.019 -4.64623 -3.96178 0
M  V30 10323 H 961.433 -5.43279 -1.83088 0
M  V30 10324 H 959.83 -5.88369 -1.18076 0
M  V30 10325 H 960.9 -4.84386 -0.223227 0
M  V30 10326 N 962.243 0.219913 -1.56058 0
M  V30 10327 C 963.489 0.945463 -1.79412 0
M  V30 10328 C 963.822 1.83922 -0.62341 0
M  V30 10329 O 963.097 1.90806 0.377256 0
M  V30 10330 C 963.38 1.783 -3.1286 0
M  V30 10331 C 963.233 0.915626 -4.40382 0
M  V30 10332 C 964.552 2.76045 -3.42764 0
M  V30 10333 H 961.671 0.342288 -0.652693 0
M  V30 10334 H 964.313 0.214235 -1.88788 0
M  V30 10335 H 962.463 2.40642 -3.04998 0
M  V30 10336 H 964.135 0.30882 -4.60265 0
M  V30 10337 H 962.378 0.221124 -4.33236 0
M  V30 10338 H 963.049 1.53607 -5.30197 0
M  V30 10339 H 965.525 2.23838 -3.50764 0
M  V30 10340 H 964.401 3.31748 -4.37304 0
M  V30 10341 H 964.662 3.53866 -2.65012 0
M  V30 10342 N 963.721 1.49897 0.486681 0
M  V30 10343 C 964.946 1.64106 1.26823 0
M  V30 10344 C 965.371 0.317967 1.85393 0
M  V30 10345 O 964.729 -0.71626 1.66551 0
M  V30 10346 C 964.777 2.72301 2.36399 0
M  V30 10347 O 963.881 2.32469 3.40634 0
M  V30 10348 H 963.222 0.548794 0.373793 0
M  V30 10349 H 965.752 1.96177 0.581017 0
M  V30 10350 H 965.762 2.94906 2.81948 0
M  V30 10351 H 964.437 3.68335 1.93137 0
M  V30 10352 H 963.014 2.20251 3.00905 0
M  V30 10353 N 965.199 -0.738761 1.39212 0
M  V30 10354 C 966.146 -1.85273 1.37631 0
M  V30 10355 C 967.116 -1.64407 0.236572 0
M  V30 10356 O 968.301 -1.85866 0.431104 0
M  V30 10357 C 965.441 -3.22745 1.22188 0
M  V30 10358 C 964.554 -3.55342 2.45674 0
M  V30 10359 C 963.689 -4.82195 2.22847 0
M  V30 10360 C 962.728 -5.07625 3.42029 0
M  V30 10361 N 961.865 -6.25679 3.18543 0
M  V30 10362 H 966.705 -1.85959 2.32859 0
M  V30 10363 H 964.242 -0.908716 1.15675 0
M  V30 10364 H 966.2 -4.02095 1.11245 0
M  V30 10365 H 964.83 -3.21347 0.30592 0
M  V30 10366 H 963.882 -2.70722 2.67233 0
M  V30 10367 H 965.194 -3.70054 3.34457 0
M  V30 10368 H 964.348 -5.69518 2.09126 0
M  V30 10369 H 963.087 -4.6965 1.31454 0
M  V30 10370 H 962.092 -4.18765 3.56253 0
M  V30 10371 H 963.317 -5.22058 4.34319 0
M  V30 10372 H 961.263 -6.14429 2.2981 0
M  V30 10373 H 961.18 -6.40961 4.0088 0
M  V30 10374 H 962.448 -7.15851 3.08508 0
M  V30 10375 N 966.677 -1.24326 -0.968545 0
M  V30 10376 C 967.61 -0.978121 -2.06175 0
M  V30 10377 C 968.588 0.0878107 -1.62363 0
M  V30 10378 O 969.772 -0.0489472 -1.88436 0
M  V30 10379 C 966.899 -0.475884 -3.3534 0
M  V30 10380 C 965.945 -1.53023 -3.98103 0
M  V30 10381 S 966.778 -3.11131 -4.35841 0
M  V30 10382 C 967.934 -2.62608 -5.68144 0
M  V30 10383 H 968.167 -1.9038 -2.28348 0
M  V30 10384 H 965.7 -1.07701 -1.10633 0
M  V30 10385 H 967.658 -0.192739 -4.10047 0
M  V30 10386 H 966.319 0.429067 -3.11156 0
M  V30 10387 H 965.512 -1.12922 -4.91187 0
M  V30 10388 H 965.114 -1.76334 -3.29822 0
M  V30 10389 H 967.406 -2.05367 -6.45624 0
M  V30 10390 H 968.349 -3.54277 -6.13101 0
M  V30 10391 H 968.757 -2.03063 -5.26712 0
M  V30 10392 N 968.156 1.1691 -1.05688 0
M  V30 10393 C 969.086 2.23275 -0.683402 0
M  V30 10394 C 970.067 1.6704 0.321206 0
M  V30 10395 O 971.252 1.93191 0.197691 0
M  V30 10396 C 968.382 3.47244 -0.0626006 0
M  V30 10397 C 967.336 4.16333 -0.992513 0
M  V30 10398 C 966.662 5.34182 -0.23533 0
M  V30 10399 C 967.962 4.68002 -2.31886 0
M  V30 10400 H 969.656 2.54771 -1.57264 0
M  V30 10401 H 967.202 1.2246 -0.757606 0
M  V30 10402 H 969.155 4.20874 0.210503 0
M  V30 10403 H 967.879 3.1503 0.861616 0
M  V30 10404 H 966.538 3.44622 -1.25026 0
M  V30 10405 H 966.186 4.9822 0.69181 0
M  V30 10406 H 965.886 5.81346 -0.855002 0
M  V30 10407 H 967.41 6.10592 0.0303717 0
M  V30 10408 H 968.824 5.33244 -2.10531 0
M  V30 10409 H 967.221 5.25764 -2.89296 0
M  V30 10410 H 968.291 3.84541 -2.95391 0
M  V30 10411 N 969.634 0.838594 1.33437 0
M  V30 10412 C 970.584 0.243681 2.26694 0
M  V30 10413 C 971.568 -0.601168 1.49247 0
M  V30 10414 O 972.76 -0.453181 1.711 0
M  V30 10415 C 969.889 -0.580525 3.38356 0
M  V30 10416 C 968.975 0.275819 4.23202 0
M  V30 10417 N 969.366 1.3544 4.87329 0
M  V30 10418 C 967.664 0.0628047 4.45956 0
M  V30 10419 C 968.365 1.87991 5.50486 0
M  V30 10420 N 967.341 1.18143 5.30607 0
M  V30 10421 H 971.143 1.06849 2.73789 0
M  V30 10422 H 968.657 0.683019 1.47338 0
M  V30 10423 H 970.654 -1.02301 4.04153 0
M  V30 10424 H 969.314 -1.40331 2.92809 0
M  V30 10425 H 970.325 1.73729 4.87892 0
M  V30 10426 H 967.002 -0.726563 4.11129 0
M  V30 10427 H 968.392 2.78312 6.11549 0
M  V30 10428 N 971.112 -1.45937 0.595003 0
M  V30 10429 C 972.358 -2.0262 0.0854317 0
M  V30 10430 C 972.691 -1.46402 -1.27594 0
M  V30 10431 O 971.966 -0.633823 -1.83883 0
M  V30 10432 C 972.249 -3.60085 0.0329075 0
M  V30 10433 C 972.102 -4.26663 1.42405 0
M  V30 10434 C 973.421 -4.35101 -0.661426 0
M  V30 10435 H 970.54 -0.736282 0.0325196 0
M  V30 10436 H 973.182 -1.73938 0.764563 0
M  V30 10437 H 971.332 -3.84652 -0.545439 0
M  V30 10438 H 973.004 -4.13321 2.04851 0
M  V30 10439 H 971.247 -3.85549 1.98833 0
M  V30 10440 H 971.918 -5.35497 1.33965 0
M  V30 10441 H 974.394 -4.15753 -0.169977 0
M  V30 10442 H 973.27 -5.44829 -0.667243 0
M  V30 10443 H 973.531 -4.07053 -1.72513 0
M  V30 10444 N 972.59 -0.333456 -1.54032 0
M  V30 10445 C 973.867 0.320902 -1.9295 0
M  V30 10446 C 974.247 1.69071 -1.26405 0
M  V30 10447 O 973.595 2.24768 -0.411311 0
M  V30 10448 C 973.805 0.403257 -3.46662 0
M  V30 10449 C 975.153 0.658875 -4.19457 0
M  V30 10450 O 976.177 0.485781 -3.52872 0
M  V30 10451 O 975.036 0.993475 -5.37394 0
M  V30 10452 H 972.13 0.185158 -0.806006 0
M  V30 10453 H 974.676 -0.383895 -1.65301 0
M  V30 10454 H 973.448 -0.558409 -3.87295 0
M  V30 10455 H 973.071 1.15524 -3.80447 0
M  V30 10456 N 974.068 1.57479 -0.061844 0
M  V30 10457 C 975.479 1.80627 0.472295 0
M  V30 10458 C 975.83 0.97496 1.70261 0
M  V30 10459 O 974.955 0.1946 2.15523 0
M  V30 10460 C 975.55 3.27608 0.863616 0
M  V30 10461 C 974.109 3.51638 1.34267 0
M  V30 10462 C 973.256 2.75412 0.323009 0
M  V30 10463 H 976.207 1.56072 -0.287634 0
M  V30 10464 H 976.228 3.39113 1.72577 0
M  V30 10465 H 975.74 3.88087 -0.0320226 0
M  V30 10466 H 973.841 2.96452 2.25714 0
M  V30 10467 H 973.954 4.60342 1.32747 0
M  V30 10468 H 972.318 2.4187 0.798175 0
M  V30 10469 H 973.101 3.38623 -0.564729 0
M  V30 10470 N 975.546 -0.211634 1.56173 0
M  V30 10471 C 976.496 -1.26602 1.8962 0
M  V30 10472 C 977.48 -1.41808 0.760222 0
M  V30 10473 O 978.672 -1.44456 1.02281 0
M  V30 10474 C 975.801 -2.61438 2.22497 0
M  V30 10475 C 974.887 -2.50094 3.42511 0
M  V30 10476 N 975.278 -2.0841 4.60868 0
M  V30 10477 C 973.576 -2.81028 3.46322 0
M  V30 10478 C 974.277 -2.08557 5.43028 0
M  V30 10479 N 973.253 -2.49427 4.82998 0
M  V30 10480 H 977.055 -0.934806 2.78637 0
M  V30 10481 H 974.569 -0.420154 1.56871 0
M  V30 10482 H 976.566 -3.37577 2.44638 0
M  V30 10483 H 975.226 -2.95397 1.34798 0
M  V30 10484 H 976.237 -1.79382 4.85842 0
M  V30 10485 H 972.914 -3.19294 2.68994 0
M  V30 10486 H 974.304 -1.7837 6.47791 0
M  V30 10487 N 977.024 -1.50153 -0.478725 0
M  V30 10488 C 977.956 -1.64603 -1.59494 0
M  V30 10489 C 978.969 -0.527789 -1.54007 0
M  V30 10490 O 980.158 -0.80069 -1.59534 0
M  V30 10491 C 977.258 -1.60738 -2.98356 0
M  V30 10492 C 976.431 -2.88468 -3.28794 0
M  V30 10493 C 975.49 -2.77349 -4.47173 0
M  V30 10494 O 974.516 -3.51302 -4.47857 0
M  V30 10495 N 975.718 -1.9039 -5.4839 0
M  V30 10496 H 978.483 -2.6088 -1.47518 0
M  V30 10497 H 976.044 -1.47521 -0.667011 0
M  V30 10498 H 978.036 -1.50923 -3.75505 0
M  V30 10499 H 976.606 -0.722273 -3.04141 0
M  V30 10500 H 975.826 -3.12467 -2.40329 0
M  V30 10501 H 977.114 -3.73102 -3.45937 0
M  V30 10502 H 976.512 -1.29606 -5.50653 0
M  V30 10503 H 975.069 -1.86484 -6.24553 0
M  V30 10504 N 978.502 0.731368 -1.39602 0
M  V30 10505 C 979.918 1.03739 -1.21286 0
M  V30 10506 C 980.118 2.01353 -0.0769875 0
M  V30 10507 O 979.174 2.45978 0.570193 0
M  V30 10508 C 980.487 1.59621 -2.54837 0
M  V30 10509 C 982.035 1.71683 -2.61713 0
M  V30 10510 C 982.51 2.30973 -3.95494 0
M  V30 10511 N 984.001 2.38378 -3.97153 0
M  V30 10512 C 984.736 2.852 -4.97442 0
M  V30 10513 N 984.232 3.31891 -6.08129 0
M  V30 10514 N 986.025 2.84441 -4.84819 0
M  V30 10515 H 978.176 0.0840456 -2.12234 0
M  V30 10516 H 980.439 0.0999038 -0.942721 0
M  V30 10517 H 980.145 0.953608 -3.38525 0
M  V30 10518 H 980.019 2.58375 -2.74813 0
M  V30 10519 H 982.406 2.35064 -1.78406 0
M  V30 10520 H 982.487 0.715714 -2.45583 0
M  V30 10521 H 982.131 1.68219 -4.79234 0
M  V30 10522 H 982.061 3.31769 -4.08946 0
M  V30 10523 H 984.552 2.05382 -3.17217 0
M  V30 10524 H 984.865 3.66138 -6.8056 0
M  V30 10525 H 983.21 3.2989 -6.11717 0
M  V30 10526 H 986.401 2.4729 -3.97448 0
M  V30 10527 H 986.574 3.20616 -5.63124 0
M  V30 10528 N 979.98 1.24838 0.961938 0
M  V30 10529 C 980.91 1.07053 2.07514 0
M  V30 10530 C 981.891 -0.0182465 1.7009 0
M  V30 10531 O 983.076 0.149915 1.9362 0
M  V30 10532 C 980.206 0.680693 3.40564 0
M  V30 10533 C 979.16 1.71889 3.91967 0
M  V30 10534 C 978.486 1.18395 5.21428 0
M  V30 10535 C 979.786 3.1161 4.19161 0
M  V30 10536 H 981.48 2.00167 2.22651 0
M  V30 10537 H 979.026 0.963799 1.0699 0
M  V30 10538 H 980.979 0.54324 4.17884 0
M  V30 10539 H 979.703 -0.28615 3.25344 0
M  V30 10540 H 978.362 1.84465 3.16809 0
M  V30 10541 H 978.01 0.207543 5.02572 0
M  V30 10542 H 977.71 1.87778 5.56788 0
M  V30 10543 H 979.234 1.05873 6.01351 0
M  V30 10544 H 980.648 3.0223 4.87165 0
M  V30 10545 H 979.045 3.78398 4.65763 0
M  V30 10546 H 980.115 3.59218 3.25715 0
M  V30 10547 N 981.458 -1.16348 1.06306 0
M  V30 10548 C 982.686 -1.90782 0.800614 0
M  V30 10549 C 983.101 -1.77439 -0.645033 0
M  V30 10550 O 982.458 -1.11912 -1.4416 0
M  V30 10551 C 982.509 -3.41484 1.18621 0
M  V30 10552 O 982.23 -3.54428 2.57512 0
M  V30 10553 C 983.731 -4.32968 0.951525 0
M  V30 10554 H 980.951 -0.604977 0.290247 0
M  V30 10555 H 983.495 -1.47476 1.41672 0
M  V30 10556 H 981.65 -3.82493 0.614633 0
M  V30 10557 H 982.064 -4.4788 2.72954 0
M  V30 10558 H 983.538 -5.37169 1.27095 0
M  V30 10559 H 984.015 -4.39055 -0.112734 0
M  V30 10560 H 984.621 -3.97687 1.50749 0
M  V30 10561 N 982.937 -0.845659 -1.3299 0
M  V30 10562 C 983.9 -0.288905 -2.27372 0
M  V30 10563 C 984.9 0.546263 -1.51237 0
M  V30 10564 O 986.09 0.359072 -1.70459 0
M  V30 10565 C 983.222 0.59224 -3.35716 0
M  V30 10566 H 984.415 -1.12181 -2.78128 0
M  V30 10567 H 981.968 -0.619276 -1.43508 0
M  V30 10568 H 982.703 1.44732 -2.90212 0
M  V30 10569 H 982.488 -0.00543255 -3.921 0
M  V30 10570 H 983.978 0.974848 -4.06062 0
M  V30 10571 N 984.415 1.45619 -0.602734 0
M  V30 10572 C 985.362 2.30493 0.118944 0
M  V30 10573 C 986.332 1.41816 0.864723 0
M  V30 10574 O 987.517 1.7075 0.851424 0
M  V30 10575 C 984.657 3.2664 1.11356 0
M  V30 10576 C 983.77 4.3042 0.369161 0
M  V30 10577 C 982.905 5.13678 1.35307 0
M  V30 10578 C 981.944 6.09189 0.596207 0
M  V30 10579 N 981.081 6.85245 1.52916 0
M  V30 10580 H 985.921 2.91672 -0.610836 0
M  V30 10581 H 983.458 1.43731 -0.313032 0
M  V30 10582 H 985.416 3.80846 1.7033 0
M  V30 10583 H 984.046 2.67225 1.81081 0
M  V30 10584 H 983.098 3.78913 -0.335994 0
M  V30 10585 H 984.41 4.98307 -0.221603 0
M  V30 10586 H 983.564 5.7226 2.01502 0
M  V30 10587 H 982.303 4.45798 1.97777 0
M  V30 10588 H 981.308 5.49743 -0.0793984 0
M  V30 10589 H 982.533 6.79096 -0.0233734 0
M  V30 10590 H 980.479 6.20058 2.14159 0
M  V30 10591 H 980.396 7.49467 0.991713 0
M  V30 10592 H 981.664 7.48371 2.18083 0
M  V30 10593 N 985.893 0.34162 1.53853 0
M  V30 10594 C 986.825 -0.550383 2.22494 0
M  V30 10595 C 987.838 -1.0655 1.23089 0
M  V30 10596 O 989.027 -0.975985 1.49455 0
M  V30 10597 C 986.127 -1.76995 2.89009 0
M  V30 10598 C 985.3 -1.39045 4.14711 0
M  V30 10599 C 984.359 -2.46947 4.64654 0
M  V30 10600 O 983.385 -2.10336 5.28912 0
M  V30 10601 N 984.587 -3.7817 4.40418 0
M  V30 10602 H 987.352 0.037456 2.99677 0
M  V30 10603 H 984.913 0.165654 1.6105 0
M  V30 10604 H 986.905 -2.48608 3.19337 0
M  V30 10605 H 985.475 -2.2652 2.15424 0
M  V30 10606 H 984.695 -0.505161 3.9095 0
M  V30 10607 H 985.983 -1.11284 4.96481 0
M  V30 10608 H 985.381 -4.10704 3.89023 0
M  V30 10609 H 983.938 -4.45959 4.75356 0
M  V30 10610 N 987.371 -1.57444 0.0701946 0
M  V30 10611 C 988.617 -1.93716 -0.600178 0
M  V30 10612 C 988.95 -0.950329 -1.69359 0
M  V30 10613 O 988.225 0.0207123 -1.94489 0
M  V30 10614 C 988.508 -3.40266 -1.17861 0
M  V30 10615 C 988.361 -4.49706 -0.0919575 0
M  V30 10616 C 989.68 -3.87599 -2.08459 0
M  V30 10617 H 986.799 -0.704421 -0.216704 0
M  V30 10618 H 989.441 -1.89514 0.135838 0
M  V30 10619 H 987.591 -3.43977 -1.80587 0
M  V30 10620 H 989.263 -4.58116 0.541031 0
M  V30 10621 H 987.506 -4.29937 0.577639 0
M  V30 10622 H 988.177 -5.49381 -0.537048 0
M  V30 10623 H 990.653 -3.85883 -1.5567 0
M  V30 10624 H 989.529 -4.90755 -2.45867 0
M  V30 10625 H 989.79 -3.25448 -2.99226 0
M  V30 10626 N 988.849 0.203349 -1.56283 0
M  V30 10627 C 989.779 1.2549 -1.96912 0
M  V30 10628 C 990.76 1.47919 -0.839884 0
M  V30 10629 O 991.945 1.59795 -1.10359 0
M  V30 10630 C 989.075 2.6009 -2.30153 0
M  V30 10631 C 988.029 2.52289 -3.45738 0
M  V30 10632 C 987.355 3.91086 -3.64632 0
M  V30 10633 C 988.655 2.05503 -4.80173 0
M  V30 10634 H 990.349 0.917306 -2.85002 0
M  V30 10635 H 987.895 0.439818 -1.37119 0
M  V30 10636 H 989.848 3.33829 -2.5717 0
M  V30 10637 H 988.572 2.95574 -1.38937 0
M  V30 10638 H 987.231 1.81006 -3.18798 0
M  V30 10639 H 986.879 4.23908 -2.7076 0
M  V30 10640 H 986.579 3.86742 -4.42385 0
M  V30 10641 H 988.103 4.66459 -3.94016 0
M  V30 10642 H 989.517 2.68995 -5.06275 0
M  V30 10643 H 987.914 2.1218 -5.61337 0
M  V30 10644 H 988.984 1.00793 -4.74309 0
M  V30 10645 N 990.327 1.50405 0.470755 0
M  V30 10646 C 991.259 1.65447 1.58619 0
M  V30 10647 C 992.272 0.535949 1.53725 0
M  V30 10648 O 993.461 0.80914 1.59107 0
M  V30 10649 C 990.561 1.62318 2.975 0
M  V30 10650 C 989.734 2.90207 3.27259 0
M  V30 10651 C 988.793 2.79717 4.45696 0
M  V30 10652 O 987.819 3.53672 4.45987 0
M  V30 10653 N 989.021 1.93296 5.47373 0
M  V30 10654 H 991.786 2.61659 1.46132 0
M  V30 10655 H 989.347 1.47873 0.659178 0
M  V30 10656 H 991.339 1.52912 3.747 0
M  V30 10657 H 989.909 0.738392 3.03754 0
M  V30 10658 H 989.129 3.13737 2.38669 0
M  V30 10659 H 990.417 3.74931 3.43953 0
M  V30 10660 H 989.815 1.32524 5.49958 0
M  V30 10661 H 988.372 1.89793 6.23556 0
M  V30 10662 N 991.805 -0.723954 1.39988 0
M  V30 10663 C 992.755 -1.82943 1.36073 0
M  V30 10664 C 993.739 -1.59105 0.239682 0
M  V30 10665 O 994.931 -1.7042 0.478116 0
M  V30 10666 C 992.06 -3.20988 1.21745 0
M  V30 10667 C 991.146 -3.50618 2.38596 0
M  V30 10668 N 991.537 -3.51115 3.64077 0
M  V30 10669 C 989.835 -3.81035 2.31794 0
M  V30 10670 C 990.536 -3.78852 4.41413 0
M  V30 10671 N 989.512 -3.97182 3.71143 0
M  V30 10672 H 993.314 -1.81649 2.31043 0
M  V30 10673 H 990.828 -0.922703 1.33641 0
M  V30 10674 H 992.825 -4.00139 1.17022 0
M  V30 10675 H 991.485 -3.23513 0.277344 0
M  V30 10676 H 992.496 -3.32163 3.97351 0
M  V30 10677 H 989.173 -3.911 1.46105 0
M  V30 10678 H 990.563 -3.85612 5.5023 0
M  V30 10679 N 993.283 -1.25346 -0.955304 0
M  V30 10680 C 994.694 -1.09173 -1.51453 0
M  V30 10681 C 995.045 0.332755 -1.93358 0
M  V30 10682 O 994.17 1.22264 -1.78551 0
M  V30 10683 C 994.765 -1.97564 -2.75234 0
M  V30 10684 C 993.324 -1.85579 -3.27471 0
M  V30 10685 C 992.471 -1.91755 -2.00313 0
M  V30 10686 H 995.422 -1.38642 -0.772271 0
M  V30 10687 H 995.443 -1.51523 -3.49029 0
M  V30 10688 H 994.955 -3.01233 -2.44704 0
M  V30 10689 H 993.056 -0.847906 -3.62824 0
M  V30 10690 H 993.169 -2.70353 -3.95533 0
M  V30 10691 H 991.533 -1.35633 -2.15582 0
M  V30 10692 H 992.316 -2.97028 -1.72132 0
M  V30 10693 N 994.761 1.15782 -1.06922 0
M  V30 10694 C 996.007 1.86975 -0.800747 0
M  V30 10695 C 996.362 1.80512 0.665818 0
M  V30 10696 O 995.655 1.21432 1.48205 0
M  V30 10697 C 995.849 3.35284 -1.2377 0
M  V30 10698 C 995.678 3.56186 -2.74521 0
M  V30 10699 C 994.448 3.71908 -3.42071 0
M  V30 10700 C 996.646 3.54373 -3.72725 0
M  V30 10701 N 994.628 3.80821 -4.81507 0
M  V30 10702 C 995.999 3.69347 -4.97978 0
M  V30 10703 C 998.054 3.37622 -3.65945 0
M  V30 10704 C 996.757 3.69302 -6.17259 0
M  V30 10705 C 998.783 3.38873 -4.84684 0
M  V30 10706 C 998.145 3.54373 -6.08769 0
M  V30 10707 H 994.244 0.701533 -0.345507 0
M  V30 10708 H 996.828 1.38875 -1.36462 0
M  V30 10709 H 994.999 3.82011 -0.701588 0
M  V30 10710 H 996.731 3.94169 -0.917235 0
M  V30 10711 H 993.486 3.72499 -2.92475 0
M  V30 10712 H 993.91 3.89031 -5.54061 0
M  V30 10713 H 998.552 3.24562 -2.7096 0
M  V30 10714 H 996.27 3.81142 -7.1257 0
M  V30 10715 H 999.856 3.27146 -4.8111 0
M  V30 10716 H 998.736 3.55268 -6.9911 0
M  V30 10717 N 996.239 0.8527 1.3254 0
M  V30 10718 C 997.485 0.455798 1.97612 0
M  V30 10719 C 997.818 -0.985616 1.6733 0
M  V30 10720 O 997.093 -1.69129 0.960493 0
M  V30 10721 C 997.376 0.69312 3.53366 0
M  V30 10722 C 997.229 2.18281 3.93285 0
M  V30 10723 C 998.548 0.148236 4.3985 0
M  V30 10724 H 995.667 0.167078 0.717812 0
M  V30 10725 H 998.309 1.07076 1.56954 0
M  V30 10726 H 996.459 0.169677 3.88129 0
M  V30 10727 H 998.131 2.77218 3.68711 0
M  V30 10728 H 996.374 2.66206 3.42515 0
M  V30 10729 H 997.045 2.29957 5.01821 0
M  V30 10730 H 999.521 0.595834 4.11812 0
M  V30 10731 H 998.397 0.343873 5.47822 0
M  V30 10732 H 998.658 -0.948872 4.31797 0
M  V30 10733 N 997.718 -1.45297 0.610449 0
M  V30 10734 C 998.946 -2.0659 0.113211 0
M  V30 10735 C 999.361 -1.4546 -1.20361 0
M  V30 10736 O 998.718 -0.569823 -1.73376 0
M  V30 10737 C 998.769 -3.61488 -0.0298411 0
M  V30 10738 O 998.49 -4.20336 1.23488 0
M  V30 10739 C 999.991 -4.39772 -0.558202 0
M  V30 10740 H 997.211 -0.667322 0.0701555 0
M  V30 10741 H 999.755 -1.86497 0.838993 0
M  V30 10742 H 997.91 -3.80913 -0.705963 0
M  V30 10743 H 998.324 -5.13545 1.0664 0
M  V30 10744 H 999.798 -5.48648 -0.607375 0
M  V30 10745 H 1000.27 -4.09755 -1.58107 0
M  V30 10746 H 1000.88 -4.25217 0.0839704 0
M  V30 10747 N 999.196 -0.349774 -1.5367 0
M  V30 10748 C 1000.13 0.538575 -2.22782 0
M  V30 10749 C 1001.14 1.05896 -1.23652 0
M  V30 10750 O 1002.33 0.968045 -1.4997 0
M  V30 10751 C 999.43 1.7546 -2.89943 0
M  V30 10752 C 998.603 1.36843 -4.15443 0
M  V30 10753 C 997.662 2.4448 -4.65957 0
M  V30 10754 O 996.688 2.07528 -5.3002 0
M  V30 10755 N 997.89 3.75829 -4.42417 0
M  V30 10756 H 1000.65 -0.053348 -2.99653 0
M  V30 10757 H 998.216 -0.174193 -1.6096 0
M  V30 10758 H 1000.21 2.46911 -3.20651 0
M  V30 10759 H 998.778 2.25375 -2.16622 0
M  V30 10760 H 997.998 0.484421 -3.91212 0
M  V30 10761 H 999.286 1.0865 -4.97064 0
M  V30 10762 H 998.684 4.08635 -3.91196 0
M  V30 10763 H 997.241 4.43432 -4.77714 0
M  V30 10764 N 1000.67 1.57404 -0.0785433 0
M  V30 10765 C 1001.62 2.13104 0.88631 0
M  V30 10766 C 1002.59 1.04527 1.29086 0
M  V30 10767 O 1003.78 1.32226 1.37553 0
M  V30 10768 C 1000.92 2.70252 2.14611 0
M  V30 10769 C 1000.03 3.93007 1.79358 0
M  V30 10770 C 999.164 4.38376 3 0
M  V30 10771 C 998.203 5.53761 2.60796 0
M  V30 10772 N 997.34 5.94058 3.74219 0
M  V30 10773 H 1002.18 2.95243 0.404452 0
M  V30 10774 H 999.717 1.45894 0.187982 0
M  V30 10775 H 1001.67 3.01497 2.88367 0
M  V30 10776 H 1000.3 1.90868 2.60326 0
M  V30 10777 H 999.357 3.68181 0.956384 0
M  V30 10778 H 1000.67 4.76795 1.4652 0
M  V30 10779 H 999.823 4.71317 3.82027 0
M  V30 10780 H 998.562 3.53455 3.36037 0
M  V30 10781 H 997.567 5.20464 1.77192 0
M  V30 10782 H 998.792 6.40419 2.25922 0
M  V30 10783 H 996.738 5.12085 4.10005 0
M  V30 10784 H 996.655 6.72602 3.45171 0
M  V30 10785 H 997.923 6.31624 4.56805 0
M  V30 10786 N 1002.15 -0.195058 1.56388 0
M  V30 10787 C 1003.43 -0.941335 1.71459 0
M  V30 10788 C 1003.81 -2.01375 0.633336 0
M  V30 10789 O 1003.16 -2.25715 -0.35567 0
M  V30 10790 C 1003.37 -1.52772 3.13786 0
M  V30 10791 C 1004.71 -2.00983 3.7402 0
M  V30 10792 O 1005.74 -1.62614 3.16915 0
M  V30 10793 O 1004.6 -2.71586 4.7424 0
M  V30 10794 H 1001.69 -0.441451 0.699321 0
M  V30 10795 H 1004.24 -0.184752 1.68691 0
M  V30 10796 H 1003.01 -0.754699 3.83953 0
M  V30 10797 H 1002.63 -2.34914 3.20782 0
M  V30 10798 N 1003.63 -1.50653 -0.462772 0
M  V30 10799 C 1004.58 -1.70122 -1.55971 0
M  V30 10800 C 1005.55 -0.542581 -1.56988 0
M  V30 10801 O 1006.73 -0.774114 -1.74391 0
M  V30 10802 C 1003.87 -1.80899 -2.93887 0
M  V30 10803 C 1002.98 -3.08318 -3.02595 0
M  V30 10804 C 1002.12 -3.09841 -4.31477 0
M  V30 10805 C 1001.16 -4.3168 -4.33957 0
M  V30 10806 N 1000.3 -4.30894 -5.54323 0
M  V30 10807 H 1005.14 -2.63768 -1.38674 0
M  V30 10808 H 1002.67 -1.30746 -0.674091 0
M  V30 10809 H 1004.63 -1.85128 -3.73876 0
M  V30 10810 H 1003.26 -0.906854 -3.098 0
M  V30 10811 H 1002.31 -3.13521 -2.15427 0
M  V30 10812 H 1003.62 -3.98282 -3.00288 0
M  V30 10813 H 1002.78 -3.12845 -5.1982 0
M  V30 10814 H 1001.52 -2.17722 -4.36404 0
M  V30 10815 H 1000.52 -4.28879 -3.4401 0
M  V30 10816 H 1001.75 -5.25035 -4.30715 0
M  V30 10817 H 999.694 -3.41633 -5.6002 0
M  V30 10818 H 999.611 -5.14636 -5.53792 0
M  V30 10819 H 1000.88 -4.38056 -6.44769 0
M  V30 10820 N 1005.11 0.71652 -1.4037 0
M  V30 10821 C 1006.04 1.84345 -1.43315 0
M  V30 10822 C 1007.02 1.67537 -0.294186 0
M  V30 10823 O 1008.2 1.87582 -0.502671 0
M  V30 10824 C 1005.33 3.2229 -1.29408 0
M  V30 10825 C 1004.29 3.53769 -2.40897 0
M  V30 10826 C 1003.61 4.90847 -2.12068 0
M  V30 10827 C 1004.91 3.54862 -3.83237 0
M  V30 10828 H 1006.61 1.82138 -2.37626 0
M  V30 10829 H 1004.15 0.874873 -1.14376 0
M  V30 10830 H 1006.11 4.00819 -1.30085 0
M  V30 10831 H 1004.83 3.2507 -0.31573 0
M  V30 10832 H 1003.49 2.77579 -2.39469 0
M  V30 10833 H 1003.14 4.90229 -1.12626 0
M  V30 10834 H 1002.84 5.12875 -2.86762 0
M  V30 10835 H 1004.36 5.71711 -2.14426 0
M  V30 10836 H 1005.78 4.23432 -3.86494 0
M  V30 10837 H 1004.17 3.88416 -4.57442 0
M  V30 10838 H 1005.24 2.54266 -4.12888 0
M  V30 10839 N 1006.59 1.25851 0.948643 0
M  V30 10840 C 1008 1.09975 1.50872 0
M  V30 10841 C 1008.35 -0.322497 1.93531 0
M  V30 10842 O 1007.47 -1.21316 1.79197 0
M  V30 10843 C 1008.07 1.99021 2.74182 0
M  V30 10844 C 1006.63 1.87313 3.26483 0
M  V30 10845 C 1005.77 1.92815 1.99293 0
M  V30 10846 H 1008.73 1.3905 0.764908 0
M  V30 10847 H 1008.75 1.53372 3.4822 0
M  V30 10848 H 1008.26 3.02527 2.43103 0
M  V30 10849 H 1006.36 0.867136 3.62369 0
M  V30 10850 H 1006.47 2.72446 3.94094 0
M  V30 10851 H 1004.84 1.36774 2.1486 0
M  V30 10852 H 1005.62 2.97936 1.70554 0
M  V30 10853 N 1008.06 -1.15214 1.07534 0
M  V30 10854 C 1009 -2.19634 0.655261 0
M  V30 10855 C 1010.01 -1.60139 -0.293165 0
M  V30 10856 O 1011.2 -1.78311 -0.0821957 0
M  V30 10857 C 1008.3 -3.38851 -0.0578281 0
M  V30 10858 C 1007.47 -4.27888 0.90725 0
M  V30 10859 C 1006.53 -5.25692 0.231115 0
M  V30 10860 O 1005.56 -5.62469 0.872746 0
M  V30 10861 N 1006.76 -5.71424 -1.0225 0
M  V30 10862 H 1009.52 -2.56292 1.55353 0
M  V30 10863 H 1007.08 -1.30347 0.960271 0
M  V30 10864 H 1009.08 -4.01334 -0.520874 0
M  V30 10865 H 1007.65 -3.00593 -0.858071 0
M  V30 10866 H 1006.87 -3.62475 1.54937 0
M  V30 10867 H 1008.15 -4.84246 1.56151 0
M  V30 10868 H 1007.55 -5.43659 -1.56369 0
M  V30 10869 H 1006.11 -6.35938 -1.42919 0
M  V30 10870 N 1009.54 -0.859717 -1.32086 0
M  V30 10871 C 1010.77 -0.478865 -2.01796 0
M  V30 10872 C 1011.19 0.918274 -1.64163 0
M  V30 10873 O 1010.55 1.60409 -0.844896 0
M  V30 10874 C 1010.6 -0.631356 -3.5503 0
M  V30 10875 O 1009.7 0.333712 -4.11048 0
M  V30 10876 H 1009.04 -0.191775 -0.635703 0
M  V30 10877 H 1011.57 -1.16031 -1.68517 0
M  V30 10878 H 1011.58 -0.520783 -4.04663 0
M  V30 10879 H 1010.26 -1.65015 -3.81763 0
M  V30 10880 H 1008.84 0.178953 -3.7247 0
M  V30 10881 N 1011.02 1.44971 -0.618145 0
M  V30 10882 C 1011.95 2.28815 0.132751 0
M  V30 10883 C 1012.97 1.40551 0.821535 0
M  V30 10884 O 1014.15 1.64827 0.685155 0
M  V30 10885 C 1011.25 3.1658 1.20955 0
M  V30 10886 C 1010.43 4.33184 0.605821 0
M  V30 10887 C 1009.49 5.0208 1.57488 0
M  V30 10888 O 1008.51 5.58528 1.09706 0
M  V30 10889 N 1009.71 5.02335 2.9093 0
M  V30 10890 H 1012.48 2.939 -0.58674 0
M  V30 10891 H 1010.04 1.55276 -0.458375 0
M  V30 10892 H 1012.03 3.59535 1.85787 0
M  V30 10893 H 1010.6 2.53333 1.83143 0
M  V30 10894 H 1009.82 3.93581 -0.220827 0
M  V30 10895 H 1011.11 5.08471 0.182883 0
M  V30 10896 H 1010.51 4.57783 3.32342 0
M  V30 10897 H 1009.07 5.49119 3.51157 0
M  V30 10898 N 1012.5 0.357919 1.53482 0
M  V30 10899 C 1013.43 -0.484231 2.28424 0
M  V30 10900 C 1014.41 -1.09046 1.30548 0
M  V30 10901 O 1015.59 -1.10916 1.59409 0
M  V30 10902 C 1012.72 -1.62803 3.06778 0
M  V30 10903 C 1011.68 -1.14943 4.12277 0
M  V30 10904 C 1011 -2.38287 4.78669 0
M  V30 10905 C 1012.3 -0.239627 5.2175 0
M  V30 10906 H 1014 0.140979 2.99068 0
M  V30 10907 H 1011.54 0.069244 1.43833 0
M  V30 10908 H 1013.5 -2.22374 3.57949 0
M  V30 10909 H 1012.22 -2.28036 2.3381 0
M  V30 10910 H 1010.88 -0.576442 3.6204 0
M  V30 10911 H 1010.53 -3.01959 4.02281 0
M  V30 10912 H 1010.23 -2.06939 5.49955 0
M  V30 10913 H 1011.75 -2.98558 5.32631 0
M  V30 10914 H 1013.17 -0.742597 5.6847 0
M  V30 10915 H 1011.56 -0.0173747 6.00097 0
M  V30 10916 H 1012.63 0.720333 4.7952 0
M  V30 10917 N 1013.98 -1.5736 0.0868897 0
M  V30 10918 C 1015.2 -1.98809 -0.590757 0
M  V30 10919 C 1015.63 -0.965407 -1.61436 0
M  V30 10920 O 1014.98 0.067143 -1.81176 0
M  V30 10921 C 1015.03 -3.39249 -1.22238 0
M  V30 10922 O 1014.14 -3.39706 -2.33824 0
M  V30 10923 H 1013.48 -0.64669 -0.150626 0
M  V30 10924 H 1016.01 -2.03927 0.165873 0
M  V30 10925 H 1016.02 -3.76765 -1.56564 0
M  V30 10926 H 1014.69 -4.13208 -0.472434 0
M  V30 10927 H 1013.27 -3.13977 -2.01178 0
M  V30 10928 N 1015.45 0.186762 -1.56489 0
M  V30 10929 C 1016.4 1.2357 -1.9161 0
M  V30 10930 C 1017.39 1.4058 -0.782686 0
M  V30 10931 O 1018.58 1.42811 -1.04566 0
M  V30 10932 C 1015.71 2.57865 -2.26628 0
M  V30 10933 C 1014.8 2.44613 -3.46447 0
M  V30 10934 N 1015.19 2.01052 -4.64125 0
M  V30 10935 C 1013.48 2.75483 -3.50749 0
M  V30 10936 C 1014.19 1.99891 -5.46277 0
M  V30 10937 N 1013.16 2.41711 -4.86905 0
M  V30 10938 H 1016.96 0.890359 -2.80089 0
M  V30 10939 H 1014.48 0.395144 -1.57519 0
M  V30 10940 H 1016.47 3.33642 -2.49977 0
M  V30 10941 H 1015.13 2.93215 -1.39481 0
M  V30 10942 H 1016.15 1.7163 -4.88634 0
M  V30 10943 H 1012.82 3.14974 -2.7404 0
M  V30 10944 H 1014.21 1.68042 -6.50547 0
M  V30 10945 N 1016.93 1.50896 0.454776 0
M  V30 10946 C 1017.86 1.6712 1.56855 0
M  V30 10947 C 1018.88 0.552223 1.53148 0
M  V30 10948 O 1020.07 0.825969 1.5824 0
M  V30 10949 C 1017.17 1.65464 2.95762 0
M  V30 10950 C 1016.34 2.93662 3.24163 0
M  V30 10951 C 1015.4 2.84428 4.42704 0
M  V30 10952 O 1014.42 3.58382 4.42211 0
M  V30 10953 N 1015.63 1.9909 5.45292 0
M  V30 10954 H 1018.39 2.63194 1.43349 0
M  V30 10955 H 1015.95 1.48564 0.643457 0
M  V30 10956 H 1017.94 1.56878 3.73057 0
M  V30 10957 H 1016.51 0.770568 3.02954 0
M  V30 10958 H 1015.73 3.16251 2.35328 0
M  V30 10959 H 1017.02 3.78558 3.39957 0
M  V30 10960 H 1016.42 1.3835 5.48521 0
M  V30 10961 H 1014.98 1.96396 6.21508 0
M  V30 10962 N 1018.41 -0.709066 1.40748 0
M  V30 10963 C 1019.69 -1.4626 1.29874 0
M  V30 10964 C 1020.07 -2.10949 -0.0799322 0
M  V30 10965 O 1019.42 -2.00651 -1.09323 0
M  V30 10966 C 1019.63 -2.49302 2.44232 0
M  V30 10967 C 1020.97 -3.14945 2.84771 0
M  V30 10968 O 1022 -2.59623 2.43873 0
M  V30 10969 O 1020.86 -4.15111 3.5545 0
M  V30 10970 H 1017.95 -0.650716 0.51039 0
M  V30 10971 H 1020.5 -0.740687 1.52682 0
M  V30 10972 H 1019.27 -2.00063 3.36289 0
M  V30 10973 H 1018.89 -3.29021 2.23229 0
M  V30 10974 N 1019.89 -1.26353 -0.941956 0
M  V30 10975 C 1020.82 -1.10341 -2.05784 0
M  V30 10976 C 1021.8 -0.00881565 -1.70098 0
M  V30 10977 O 1022.99 -0.180699 -1.93357 0
M  V30 10978 C 1020.12 -0.734788 -3.39438 0
M  V30 10979 C 1019.07 -1.78103 -3.89183 0
M  V30 10980 C 1018.4 -1.26675 -5.19478 0
M  V30 10981 C 1019.7 -3.1824 -4.14151 0
M  V30 10982 H 1021.39 -2.03684 -2.19438 0
M  V30 10983 H 1018.94 -0.980698 -1.05443 0
M  V30 10984 H 1020.89 -0.609653 -4.16967 0
M  V30 10985 H 1019.61 0.234354 -3.25758 0
M  V30 10986 H 1018.27 -1.89482 -3.13835 0
M  V30 10987 H 1017.92 -0.287472 -5.02178 0
M  V30 10988 H 1017.62 -1.96612 -5.53731 0
M  V30 10989 H 1019.14 -1.15427 -5.99591 0
M  V30 10990 H 1020.56 -3.09942 -4.82296 0
M  V30 10991 H 1018.95 -3.8576 -4.59684 0
M  V30 10992 H 1020.02 -3.64354 -3.19959 0
M  V30 10993 N 1021.37 1.14642 -1.08144 0
M  V30 10994 C 1022.3 2.19283 -0.6669 0
M  V30 10995 C 1023.31 1.60292 0.284668 0
M  V30 10996 O 1024.5 1.78352 0.0727383 0
M  V30 10997 C 1021.6 3.38877 0.0398572 0
M  V30 10998 C 1020.77 4.274 -0.929929 0
M  V30 10999 C 1019.83 5.25562 -0.258991 0
M  V30 11000 O 1018.86 5.61999 -0.902563 0
M  V30 11001 N 1020.06 5.71958 0.992177 0
M  V30 11002 H 1022.83 2.55464 -1.5671 0
M  V30 11003 H 1020.39 1.29836 -0.96717 0
M  V30 11004 H 1022.38 4.01605 0.499583 0
M  V30 11005 H 1020.95 3.01043 0.842118 0
M  V30 11006 H 1020.17 3.61649 -1.56857 0
M  V30 11007 H 1021.46 4.83411 -1.58717 0
M  V30 11008 H 1020.86 5.44481 1.53484 0
M  V30 11009 H 1019.41 6.36687 1.39544 0
M  V30 11010 N 1022.85 0.866709 1.31628 0
M  V30 11011 C 1023.78 0.335762 2.31073 0
M  V30 11012 C 1024.76 -0.571597 1.60209 0
M  V30 11013 O 1025.94 -0.489306 1.87935 0
M  V30 11014 C 1023.07 -0.466416 3.44154 0
M  V30 11015 C 1022.03 0.347561 4.26586 0
M  V30 11016 C 1021.35 -0.5801 5.31544 0
M  V30 11017 C 1022.65 1.57986 4.97833 0
M  V30 11018 H 1024.35 1.16673 2.75731 0
M  V30 11019 H 1021.89 0.56248 1.3256 0
M  V30 11020 H 1023.84 -0.84836 4.12772 0
M  V30 11021 H 1022.57 -1.33086 2.98254 0
M  V30 11022 H 1021.23 0.71141 3.59631 0
M  V30 11023 H 1020.88 -1.44174 4.81895 0
M  V30 11024 H 1020.58 -0.0393965 5.87587 0
M  V30 11025 H 1022.1 -0.958958 6.03023 0
M  V30 11026 H 1023.51 1.26954 5.59067 0
M  V30 11027 H 1021.91 2.05939 5.63657 0
M  V30 11028 H 1022.98 2.3345 4.25005 0
M  V30 11029 N 1024.32 -1.44642 0.625825 0
M  V30 11030 C 1025.57 -2.02393 0.128391 0
M  V30 11031 C 1025.9 -1.49075 -1.2446 0
M  V30 11032 O 1025.18 -0.672684 -1.82497 0
M  V30 11033 C 1025.46 -3.59934 0.109279 0
M  V30 11034 C 1025.31 -4.23546 1.51423 0
M  V30 11035 C 1026.63 -4.36406 -0.568985 0
M  V30 11036 H 1023.75 -0.735427 0.0481299 0
M  V30 11037 H 1026.39 -1.72277 0.801286 0
M  V30 11038 H 1024.54 -3.85722 -0.463726 0
M  V30 11039 H 1026.22 -4.08882 2.13572 0
M  V30 11040 H 1024.46 -3.81245 2.06966 0
M  V30 11041 H 1025.13 -5.32535 1.45294 0
M  V30 11042 H 1027.61 -4.1602 -0.0817516 0
M  V30 11043 H 1026.48 -5.46122 -0.551527 0
M  V30 11044 H 1026.74 -4.1062 -1.6384 0
M  V30 11045 N 1025.8 -0.366053 -1.5329 0
M  V30 11046 C 1026.75 0.480205 -2.25749 0
M  V30 11047 C 1027.72 1.07713 -1.2644 0
M  V30 11048 O 1028.9 1.10953 -1.55222 0
M  V30 11049 C 1026.04 1.61374 -3.05045 0
M  V30 11050 C 1025.16 1.04194 -4.19246 0
M  V30 11051 C 1024.29 2.14462 -4.85983 0
M  V30 11052 C 1023.33 1.5475 -5.92215 0
M  V30 11053 N 1022.47 2.58852 -6.52641 0
M  V30 11054 H 1027.31 -0.144199 -2.97651 0
M  V30 11055 H 1024.84 -0.0829321 -1.46866 0
M  V30 11056 H 1026.8 2.28144 -3.49294 0
M  V30 11057 H 1025.43 2.2088 -2.35397 0
M  V30 11058 H 1024.48 0.264514 -3.79479 0
M  V30 11059 H 1025.8 0.565379 -4.95585 0
M  V30 11060 H 1024.95 2.89051 -5.33418 0
M  V30 11061 H 1023.69 2.6547 -4.09117 0
M  V30 11062 H 1022.69 0.786759 -5.44142 0
M  V30 11063 H 1023.92 1.04566 -6.71001 0
M  V30 11064 H 1021.87 3.09073 -5.78627 0
M  V30 11065 H 1021.78 2.15884 -7.24521 0
M  V30 11066 H 1023.05 3.33142 -7.04724 0
M  V30 11067 N 1027.28 1.57312 -0.0952337 0
M  V30 11068 C 1028.53 1.93974 0.567319 0
M  V30 11069 C 1028.85 0.977805 1.68713 0
M  V30 11070 O 1028.12 0.0298944 1.95877 0
M  V30 11071 H 1026.7 0.71612 0.212558 0
M  V30 11072 H 1029.36 1.94254 -0.158598 0
M  V30 11073 H 1028.46 2.964 0.977423 0
M  V30 11074 N 1028.76 -0.17846 1.56586 0
M  V30 11075 C 1029.72 -1.20479 1.94981 0
M  V30 11076 C 1030.72 -1.37561 0.832677 0
M  V30 11077 O 1031.91 -1.35089 1.09984 0
M  V30 11078 C 1029.04 -2.57117 2.23839 0
M  V30 11079 H 1030.24 -0.876173 2.86816 0
M  V30 11080 H 1027.79 -0.420635 1.50534 0
M  V30 11081 H 1028.52 -2.95005 1.34695 0
M  V30 11082 H 1028.31 -2.46086 3.05261 0
M  V30 11083 H 1029.8 -3.31096 2.5449 0
M  V30 11084 N 1030.24 -1.51135 -0.446768 0
M  V30 11085 C 1031.17 -1.66438 -1.56121 0
M  V30 11086 C 1032.15 -0.512061 -1.54327 0
M  V30 11087 O 1033.33 -0.734702 -1.73593 0
M  V30 11088 C 1030.46 -1.66932 -2.94706 0
M  V30 11089 C 1029.5 -2.88016 -3.14562 0
M  V30 11090 S 1030.34 -4.48973 -2.91863 0
M  V30 11091 C 1031.49 -4.52196 -4.32746 0
M  V30 11092 H 1031.73 -2.60702 -1.42904 0
M  V30 11093 H 1029.26 -1.40701 -0.635812 0
M  V30 11094 H 1031.22 -1.679 -3.74593 0
M  V30 11095 H 1029.88 -0.738607 -3.05292 0
M  V30 11096 H 1029.07 -2.84735 -4.15863 0
M  V30 11097 H 1028.67 -2.8474 -2.42485 0
M  V30 11098 H 1030.96 -4.27256 -5.25793 0
M  V30 11099 H 1031.91 -5.53957 -4.41064 0
M  V30 11100 H 1032.32 -3.81624 -4.15961 0
M  V30 11101 N 1031.71 0.701592 -1.41122 0
M  V30 11102 C 1032.68 1.79733 -1.42227 0
M  V30 11103 C 1033.68 1.57708 -0.313831 0
M  V30 11104 O 1034.87 1.64492 -0.573423 0
M  V30 11105 C 1032 3.18024 -1.22775 0
M  V30 11106 H 1033.19 1.80148 -2.39764 0
M  V30 11107 H 1030.74 0.908624 -1.27176 0
M  V30 11108 H 1031.48 3.23252 -0.260552 0
M  V30 11109 H 1031.26 3.35411 -2.0308 0
M  V30 11110 H 1032.75 3.98021 -1.2637 0
M  V30 11111 N 1033.19 1.2685 0.935242 0
M  V30 11112 C 1034.15 1.08975 2.01636 0
M  V30 11113 C 1035.15 0.0361543 1.60759 0
M  V30 11114 O 1036.34 0.280087 1.71934 0
M  V30 11115 C 1033.48 0.658831 3.34473 0
M  V30 11116 H 1034.67 2.04968 2.18925 0
M  V30 11117 H 1032.22 1.09531 1.11501 0
M  V30 11118 H 1032.96 -0.302824 3.22883 0
M  V30 11119 H 1032.74 1.41967 3.65497 0
M  V30 11120 H 1034.23 0.555783 4.13885 0
M  V30 11121 N 1034.67 -1.14067 1.0875 0
M  V30 11122 C 1035.9 -1.89041 0.840902 0
M  V30 11123 C 1036.31 -1.78768 -0.60725 0
M  V30 11124 O 1035.67 -1.14945 -1.41753 0
M  V30 11125 C 1035.72 -3.38891 1.25838 0
M  V30 11126 O 1035.44 -3.48886 2.64972 0
M  V30 11127 C 1036.94 -4.30852 1.04315 0
M  V30 11128 H 1034.16 -0.598685 0.303014 0
M  V30 11129 H 1036.71 -1.44438 1.44769 0
M  V30 11130 H 1034.86 -3.81103 0.695627 0
M  V30 11131 H 1035.28 -4.41989 2.82393 0
M  V30 11132 H 1036.75 -5.34353 1.38461 0
M  V30 11133 H 1037.23 -4.39196 -0.0195784 0
M  V30 11134 H 1037.83 -3.944 1.59151 0
M  V30 11135 N 1036.15 -0.873678 -1.31166 0
M  V30 11136 C 1037.38 -0.500317 -2.0045 0
M  V30 11137 C 1037.79 0.912716 -1.65729 0
M  V30 11138 O 1037.13 1.61001 -0.884563 0
M  V30 11139 C 1037.19 -0.58197 -3.54758 0
M  V30 11140 C 1036.86 -1.95728 -4.12964 0
M  V30 11141 C 1037.85 -2.92526 -4.29796 0
M  V30 11142 C 1035.54 -2.2596 -4.48606 0
M  V30 11143 C 1037.53 -4.17697 -4.81464 0
M  V30 11144 C 1035.22 -3.5138 -4.99976 0
M  V30 11145 C 1036.22 -4.47064 -5.16356 0
M  V30 11146 O 1035.9 -5.70259 -5.66621 0
M  V30 11147 H 1035.64 -0.193044 -0.64785 0
M  V30 11148 H 1038.19 -1.17768 -1.68285 0
M  V30 11149 H 1036.42 0.152326 -3.864 0
M  V30 11150 H 1038.11 -0.221506 -4.05295 0
M  V30 11151 H 1038.88 -2.70479 -4.02574 0
M  V30 11152 H 1034.75 -1.52258 -4.3513 0
M  V30 11153 H 1038.3 -4.92389 -4.94165 0
M  V30 11154 H 1034.2 -3.73269 -5.26631 0
M  V30 11155 H 1034.96 -5.72483 -5.84983 0
M  V30 11156 N 1037.63 1.44308 -0.633487 0
M  V30 11157 C 1038.85 2.06897 -0.144347 0
M  V30 11158 C 1039.28 1.47045 1.173 0
M  V30 11159 O 1038.63 0.572806 1.72013 0
M  V30 11160 C 1038.68 3.60571 -0.0456324 0
M  V30 11161 O 1037.79 4.0015 0.997682 0
M  V30 11162 H 1037.13 0.658427 -0.0858499 0
M  V30 11163 H 1039.66 1.85142 -0.870833 0
M  V30 11164 H 1039.67 4.07745 0.144178 0
M  V30 11165 H 1038.34 4.03515 -1.0074 0
M  V30 11166 H 1036.92 3.64603 0.782252 0
M  V30 11167 N 1039.1 0.374177 1.53094 0
M  V30 11168 C 1040.07 -0.455999 2.24618 0
M  V30 11169 C 1041.07 -1.00269 1.25709 0
M  V30 11170 O 1042.26 -0.887077 1.49922 0
M  V30 11171 C 1039.39 -1.63822 2.98957 0
M  V30 11172 H 1040.58 0.169986 2.99418 0
M  V30 11173 H 1038.14 0.126015 1.55791 0
M  V30 11174 H 1038.87 -2.30205 2.28421 0
M  V30 11175 H 1038.66 -1.25308 3.71538 0
M  V30 11176 H 1040.15 -2.22633 3.53305 0
M  V30 11177 N 1040.58 -1.57259 0.103575 0
M  V30 11178 C 1041.51 -2.17509 -0.84923 0
M  V30 11179 C 1042.49 -1.11079 -1.28824 0
M  V30 11180 O 1043.68 -1.39252 -1.35361 0
M  V30 11181 C 1040.81 -2.76221 -2.10522 0
M  V30 11182 C 1039.76 -3.88098 -1.80454 0
M  V30 11183 C 1039.09 -4.33549 -3.12952 0
M  V30 11184 C 1040.39 -5.10909 -1.08486 0
M  V30 11185 H 1042.08 -2.9738 -0.347217 0
M  V30 11186 H 1039.63 -1.43045 -0.165568 0
M  V30 11187 H 1041.58 -3.17024 -2.77621 0
M  V30 11188 H 1040.31 -1.93617 -2.63021 0
M  V30 11189 H 1038.96 -3.47847 -1.15749 0
M  V30 11190 H 1038.61 -3.47825 -3.63355 0
M  V30 11191 H 1038.31 -5.08984 -2.93614 0
M  V30 11192 H 1039.84 -4.76992 -3.81196 0
M  V30 11193 H 1041.25 -5.48828 -1.65711 0
M  V30 11194 H 1039.65 -5.91828 -0.992973 0
M  V30 11195 H 1040.72 -4.84851 -0.0690108 0
M  V30 11196 N 1042.06 0.170153 -1.56679 0
M  V30 11197 C 1043.01 1.22997 -1.9742 0
M  V30 11198 C 1044 1.45762 -0.863117 0
M  V30 11199 O 1045.21 1.46328 -1.04824 0
M  V30 11200 H 1041.58 0.413482 -0.628122 0
M  V30 11201 H 1043.55 0.859502 -2.85754 0
M  V30 11202 C 1042.3 2.5615 -2.35122 0
M  V30 11203 H 1041.63 2.39456 -3.20158 0
M  V30 11204 H 1043.07 3.28991 -2.67471 0
M  V30 11205 C 1041.53 3.14992 -1.19507 0
M  V30 11206 O 1042.06 3.98781 -0.483357 0
M  V30 11207 N 1040.26 2.74098 -0.965332 0
M  V30 11208 H 1039.81 2.06062 -1.54585 0
M  V30 11209 H 1039.77 3.13803 -0.193611 0
M  V30 11210 N 1043.54 1.5137 0.438746 0
M  V30 11211 C 1044.76 1.68058 1.21537 0
M  V30 11212 C 1045.19 0.376787 1.84288 0
M  V30 11213 O 1044.55 -0.662911 1.68746 0
M  V30 11214 C 1044.59 2.79684 2.27616 0
M  V30 11215 O 1043.7 2.43189 3.33066 0
M  V30 11216 H 1043.04 0.560408 0.356144 0
M  V30 11217 H 1045.57 1.97926 0.518311 0
M  V30 11218 H 1045.58 3.03726 2.72423 0
M  V30 11219 H 1044.25 3.74293 1.81321 0
M  V30 11220 H 1042.83 2.29713 2.93746 0
M  V30 11221 N 1045.02 -0.694098 1.41492 0
M  V30 11222 C 1046.24 -1.48789 1.44488 0
M  V30 11223 C 1046.67 -1.88028 0.0521588 0
M  V30 11224 O 1046.02 -1.54727 -0.944952 0
M  V30 11225 C 1046.07 -2.72586 2.3607 0
M  V30 11226 O 1045.18 -3.70128 1.81876 0
M  V30 11227 H 1044.52 -0.447758 0.490315 0
M  V30 11228 H 1047.05 -0.853036 1.85969 0
M  V30 11229 H 1047.06 -3.20877 2.51995 0
M  V30 11230 H 1045.73 -2.43363 3.37264 0
M  V30 11231 H 1044.31 -3.29069 1.75408 0
M  V30 11232 N 1046.49 -1.27344 -0.928501 0
M  V30 11233 C 1047.44 -1.10001 -2.029 0
M  V30 11234 C 1048.41 -0.00131084 -1.661 0
M  V30 11235 O 1049.6 -0.163485 -1.90098 0
M  V30 11236 C 1046.74 -0.7524 -3.36798 0
M  V30 11237 C 1045.85 -1.92865 -3.86558 0
M  V30 11238 C 1044.98 -1.52299 -5.08899 0
M  V30 11239 C 1044.02 -2.66677 -5.50953 0
M  V30 11240 N 1043.16 -2.26706 -6.64491 0
M  V30 11241 H 1048 -2.0417 -2.17068 0
M  V30 11242 H 1045.54 -1.01637 -1.0634 0
M  V30 11243 H 1047.5 -0.531687 -4.13798 0
M  V30 11244 H 1046.13 0.15234 -3.2244 0
M  V30 11245 H 1045.18 -2.26192 -3.05845 0
M  V30 11246 H 1046.49 -2.78668 -4.13698 0
M  V30 11247 H 1045.64 -1.26348 -5.93398 0
M  V30 11248 H 1044.38 -0.636042 -4.83535 0
M  V30 11249 H 1043.39 -2.93344 -4.65004 0
M  V30 11250 H 1044.61 -3.55992 -5.78313 0
M  V30 11251 H 1042.56 -1.40462 -6.40786 0
M  V30 11252 H 1042.48 -3.06049 -6.91281 0
M  V30 11253 H 1043.74 -2.04 -7.52333 0
M  V30 11254 N 1047.97 1.13488 -1.09353 0
M  V30 11255 C 1049.38 1.66299 -0.848609 0
M  V30 11256 C 1049.73 1.86044 0.623051 0
M  V30 11257 O 1048.86 1.57871 1.48005 0
M  V30 11258 C 1049.45 3.02087 -1.53391 0
M  V30 11259 C 1048.01 3.51893 -1.33598 0
M  V30 11260 C 1047.16 2.27154 -1.59048 0
M  V30 11261 H 1050.11 0.974208 -1.25279 0
M  V30 11262 H 1050.13 3.68018 -0.966587 0
M  V30 11263 H 1049.64 2.87684 -2.60498 0
M  V30 11264 H 1047.75 3.715 -0.286045 0
M  V30 11265 H 1047.86 4.32059 -2.0703 0
M  V30 11266 H 1046.22 2.33708 -1.01256 0
M  V30 11267 H 1047.01 2.15317 -2.67383 0
M  V30 11268 N 1049.45 0.880621 1.30701 0
M  V30 11269 C 1050.68 0.511682 2.00473 0
M  V30 11270 C 1051.09 -0.898684 1.6604 0
M  V30 11271 O 1050.45 -1.59035 0.895218 0
M  V30 11272 C 1050.5 0.671723 3.55204 0
M  V30 11273 O 1050.22 2.02656 3.8841 0
M  V30 11274 C 1051.72 0.3052 4.42248 0
M  V30 11275 H 1048.94 0.198231 0.64105 0
M  V30 11276 H 1051.49 1.18472 1.66687 0
M  V30 11277 H 1049.64 0.0461066 3.87373 0
M  V30 11278 H 1050.06 2.04202 4.83117 0
M  V30 11279 H 1051.53 0.468095 5.50012 0
M  V30 11280 H 1052.01 -0.756456 4.32637 0
M  V30 11281 H 1052.61 0.906959 4.15517 0
M  V30 11282 N 1050.93 -1.4397 0.641131 0
M  V30 11283 C 1052.34 -1.85267 0.230838 0
M  V30 11284 C 1052.69 -1.53659 -1.21998 0
M  V30 11285 O 1051.82 -0.979572 -1.92959 0
M  V30 11286 C 1052.41 -3.36284 0.412171 0
M  V30 11287 C 1050.97 -3.76358 0.0563004 0
M  V30 11288 C 1050.12 -2.67768 0.720809 0
M  V30 11289 H 1053.07 -1.34294 0.845624 0
M  V30 11290 H 1053.09 -3.78924 -0.345936 0
M  V30 11291 H 1052.6 -3.59258 1.46818 0
M  V30 11292 H 1050.7 -3.58997 -0.997582 0
M  V30 11293 H 1050.82 -4.76756 0.473335 0
M  V30 11294 H 1049.18 -2.54227 0.155164 0
M  V30 11295 H 1049.96 -2.93573 1.77961 0
M  V30 11296 N 1052.41 -0.382291 -1.52893 0
M  V30 11297 C 1053.34 0.491199 -2.23875 0
M  V30 11298 C 1054.35 1.03249 -1.25871 0
M  V30 11299 O 1055.54 0.936016 -1.5199 0
M  V30 11300 C 1052.64 1.6927 -2.936 0
M  V30 11301 C 1051.81 1.28 -4.18252 0
M  V30 11302 C 1050.87 2.34541 -4.71038 0
M  V30 11303 O 1049.9 1.96239 -5.34302 0
M  V30 11304 N 1051.1 3.6636 -4.50289 0
M  V30 11305 H 1053.87 -0.116897 -2.99472 0
M  V30 11306 H 1051.43 -0.208296 -1.60554 0
M  V30 11307 H 1053.42 2.40054 -3.25816 0
M  V30 11308 H 1051.99 2.20729 -2.21354 0
M  V30 11309 H 1051.21 0.40133 -3.92152 0
M  V30 11310 H 1052.5 0.98082 -4.99257 0
M  V30 11311 H 1051.9 4.00245 -3.99775 0
M  V30 11312 H 1050.45 4.332 -4.87013 0
M  V30 11313 N 1053.89 1.57202 -0.111913 0
M  V30 11314 C 1054.82 2.17957 0.837683 0
M  V30 11315 C 1055.8 1.1176 1.28233 0
M  V30 11316 O 1056.98 1.39967 1.34621 0
M  V30 11317 C 1054.11 2.77333 2.09054 0
M  V30 11318 C 1053.07 3.8905 1.78393 0
M  V30 11319 C 1052.39 4.35203 3.10649 0
M  V30 11320 C 1053.69 5.11477 1.05775 0
M  V30 11321 H 1055.39 2.9756 0.331441 0
M  V30 11322 H 1052.93 1.43131 0.157979 0
M  V30 11323 H 1054.88 3.18492 2.75936 0
M  V30 11324 H 1053.61 1.95009 2.6199 0
M  V30 11325 H 1052.27 3.48456 1.13903 0
M  V30 11326 H 1051.92 3.49747 3.61506 0
M  V30 11327 H 1051.62 5.10534 2.9091 0
M  V30 11328 H 1053.14 4.79007 3.78661 0
M  V30 11329 H 1054.55 5.497 1.62798 0
M  V30 11330 H 1052.95 5.92346 0.961573 0
M  V30 11331 H 1054.02 4.84881 0.043297 0
M  V30 11332 N 1055.36 -0.161842 1.56767 0
M  V30 11333 C 1056.31 -1.2002 1.97139 0
M  V30 11334 C 1057.28 -1.43486 0.836713 0
M  V30 11335 O 1058.47 -1.56069 1.0976 0
M  V30 11336 C 1055.61 -2.53228 2.34456 0
M  V30 11337 C 1054.72 -2.37062 3.61145 0
M  V30 11338 C 1053.85 -3.63202 3.87631 0
M  V30 11339 C 1052.89 -3.42008 5.07638 0
M  V30 11340 N 1052.03 -4.60242 5.30209 0
M  V30 11341 H 1056.87 -0.848918 2.85653 0
M  V30 11342 H 1054.41 -0.407753 1.41336 0
M  V30 11343 H 1056.36 -3.30879 2.54116 0
M  V30 11344 H 1054.99 -2.86333 1.4904 0
M  V30 11345 H 1054.05 -1.50539 3.49345 0
M  V30 11346 H 1055.36 -2.17353 4.48953 0
M  V30 11347 H 1054.51 -4.49285 4.0771 0
M  V30 11348 H 1053.25 -3.85899 2.98216 0
M  V30 11349 H 1052.26 -2.54312 4.87448 0
M  V30 11350 H 1053.48 -3.20724 5.98593 0
M  V30 11351 H 1051.43 -4.8314 4.43747 0
M  V30 11352 H 1051.34 -4.43481 6.12259 0
M  V30 11353 H 1052.61 -5.47581 5.54775 0
M  V30 11354 N 1056.84 -1.516 -0.430713 0
M  V30 11355 C 1058.25 -1.57 -1.01035 0
M  V30 11356 C 1058.6 -0.397439 -1.92132 0
M  V30 11357 O 1057.73 0.484954 -2.10896 0
M  V30 11358 C 1058.32 -2.84536 -1.83915 0
M  V30 11359 C 1056.88 -2.92485 -2.36917 0
M  V30 11360 C 1056.03 -2.5173 -1.16308 0
M  V30 11361 H 1058.98 -1.57281 -0.211734 0
M  V30 11362 H 1059 -2.68672 -2.69435 0
M  V30 11363 H 1058.51 -3.69858 -1.17586 0
M  V30 11364 H 1056.61 -2.11608 -3.0668 0
M  V30 11365 H 1056.73 -3.96277 -2.6926 0
M  V30 11366 H 1055.09 -2.05079 -1.51045 0
M  V30 11367 H 1055.87 -3.39403 -0.515793 0
M  V30 11368 N 1058.32 0.686584 -1.41858 0
M  V30 11369 C 1059.57 1.44235 -1.40994 0
M  V30 11370 C 1059.88 1.95583 -0.0254979 0
M  V30 11371 O 1061.09 2.71294 0.10576 0
M  V30 11372 C 1059.54 2.6086 -2.47952 0
M  V30 11373 C 1059.15 2.16259 -3.92347 0
M  V30 11374 C 1060.9 3.38441 -2.56237 0
M  V30 11375 C 1058.8 3.29896 -4.90838 0
M  V30 11376 H 1057.73 0.54181 -0.524364 0
M  V30 11377 H 1060.38 0.744486 -1.67719 0
M  V30 11378 H 1058.77 3.32957 -2.14373 0
M  V30 11379 H 1059.94 1.51392 -4.35221 0
M  V30 11380 H 1058.25 1.51648 -3.87804 0
M  V30 11381 H 1060.85 4.23052 -3.27003 0
M  V30 11382 H 1061.19 3.84238 -1.6021 0
M  V30 11383 H 1061.73 2.73406 -2.88953 0
M  V30 11384 H 1058.47 2.89104 -5.88302 0
M  V30 11385 H 1057.99 3.93584 -4.52606 0
M  V30 11386 H 1059.67 3.95541 -5.12012 0
M  V30 11387 N 1059.8 1.27835 0.921735 0
M  V30 11388 C 1060.71 1.12904 2.05645 0
M  V30 11389 C 1061.72 0.0575704 1.73905 0
M  V30 11390 O 1062.9 0.265261 1.99645 0
M  V30 11391 C 1059.96 0.783957 3.3772 0
M  V30 11392 C 1059.03 1.93694 3.8312 0
M  V30 11393 C 1058.26 1.60823 5.08893 0
M  V30 11394 O 1058.48 0.518873 5.68035 0
M  V30 11395 O 1057.42 2.44932 5.49811 0
M  V30 11396 H 1061.24 2.08143 2.21157 0
M  V30 11397 H 1058.83 1.07078 1.04185 0
M  V30 11398 H 1060.71 0.605107 4.17033 0
M  V30 11399 H 1059.38 -0.138849 3.23402 0
M  V30 11400 H 1058.29 2.17089 3.04669 0
M  V30 11401 H 1059.62 2.84016 4.0199 0
M  V30 11402 N 1061.28 -1.12907 1.09954 0
M  V30 11403 C 1062.5 -1.88679 0.861099 0
M  V30 11404 C 1062.93 -1.78853 -0.582499 0
M  V30 11405 O 1062.28 -1.13992 -1.4098 0
M  V30 11406 C 1062.33 -3.36047 1.30785 0
M  V30 11407 O 1061.44 -4.09716 0.469728 0
M  V30 11408 H 1060.78 -0.586447 0.31141 0
M  V30 11409 H 1063.31 -1.42818 1.46507 0
M  V30 11410 H 1063.32 -3.86882 1.29562 0
M  V30 11411 H 1061.99 -3.42516 2.35914 0
M  V30 11412 H 1060.57 -3.6887 0.54674 0
M  V30 11413 N 1062.75 -0.88754 -1.30232 0
M  V30 11414 C 1063.98 -0.521562 -2.00735 0
M  V30 11415 C 1064.4 0.883247 -1.66073 0
M  V30 11416 O 1063.76 1.58581 -0.878731 0
M  V30 11417 C 1063.81 -0.706521 -3.53611 0
M  V30 11418 O 1062.91 0.246447 -4.11663 0
M  V30 11419 H 1062.25 -0.205216 -0.631492 0
M  V30 11420 H 1064.78 -1.19579 -1.66018 0
M  V30 11421 H 1064.79 -0.606501 -4.03467 0
M  V30 11422 H 1063.47 -1.73076 -3.78177 0
M  V30 11423 H 1062.05 0.0999062 -3.72766 0
M  V30 11424 N 1064.23 1.43628 -0.648757 0
M  V30 11425 C 1065.48 2.01083 -0.157692 0
M  V30 11426 C 1065.79 1.51756 1.23408 0
M  V30 11427 O 1067 2.01455 1.82012 0
M  V30 11428 C 1065.46 3.59157 -0.231118 0
M  V30 11429 C 1065.06 4.17478 -1.6253 0
M  V30 11430 C 1066.81 4.24016 0.202573 0
M  V30 11431 C 1064.72 5.67832 -1.6529 0
M  V30 11432 H 1063.65 0.751977 -0.0551897 0
M  V30 11433 H 1066.3 1.64648 -0.810139 0
M  V30 11434 H 1064.68 3.92972 0.488755 0
M  V30 11435 H 1065.85 3.9517 -2.37017 0
M  V30 11436 H 1064.17 3.64973 -2.00459 0
M  V30 11437 H 1066.76 5.34319 0.20174 0
M  V30 11438 H 1067.11 3.97616 1.23319 0
M  V30 11439 H 1067.64 3.95068 -0.465398 0
M  V30 11440 H 1064.38 5.98994 -2.66246 0
M  V30 11441 H 1063.9 5.92209 -0.951217 0
M  V30 11442 H 1065.58 6.3179 -1.39465 0
M  V30 11443 N 1065.71 0.390394 1.52688 0
M  V30 11444 C 1066.64 -0.43567 2.294 0
M  V30 11445 C 1067.62 -1.06253 1.32832 0
M  V30 11446 O 1068.81 -1.07509 1.61726 0
M  V30 11447 C 1065.94 -1.56259 3.10162 0
M  V30 11448 C 1064.89 -1.06172 4.14622 0
M  V30 11449 C 1064.22 -2.2808 4.83615 0
M  V30 11450 C 1065.52 -0.128902 5.22141 0
M  V30 11451 H 1067.21 0.204384 2.98702 0
M  V30 11452 H 1064.76 0.0997377 1.43654 0
M  V30 11453 H 1066.71 -2.14732 3.62585 0
M  V30 11454 H 1065.43 -2.23025 2.38595 0
M  V30 11455 H 1064.09 -0.499518 3.63181 0
M  V30 11456 H 1063.74 -2.93358 4.08595 0
M  V30 11457 H 1063.44 -1.95227 5.5422 0
M  V30 11458 H 1064.96 -2.87193 5.38844 0
M  V30 11459 H 1066.38 -0.621849 5.69917 0
M  V30 11460 H 1064.78 0.109919 5.99999 0
M  V30 11461 H 1065.85 0.821884 4.77884 0
M  V30 11462 N 1067.19 -1.57141 0.120249 0
M  V30 11463 C 1068.15 -2.14213 -0.815185 0
M  V30 11464 C 1069.15 -1.07731 -1.19376 0
M  V30 11465 O 1070.34 -1.33502 -1.11906 0
M  V30 11466 C 1067.47 -2.68339 -2.10255 0
M  V30 11467 H 1068.67 -2.98197 -0.319166 0
M  V30 11468 H 1066.22 -1.55767 -0.128997 0
M  V30 11469 H 1066.95 -1.87946 -2.64285 0
M  V30 11470 H 1066.74 -3.46216 -1.84057 0
M  V30 11471 H 1068.23 -3.124 -2.77121 0
M  V30 11472 N 1068.67 0.153526 -1.5685 0
M  V30 11473 C 1069.6 1.2147 -1.94365 0
M  V30 11474 C 1070.61 1.39532 -0.838726 0
M  V30 11475 O 1071.8 1.39219 -1.11715 0
M  V30 11476 C 1068.9 2.5806 -2.19677 0
M  V30 11477 C 1068.07 2.61062 -3.50949 0
M  V30 11478 C 1067.13 3.79144 -3.64878 0
M  V30 11479 O 1066.16 3.64319 -4.37333 0
M  V30 11480 N 1067.36 4.96333 -3.01054 0
M  V30 11481 H 1070.13 0.895889 -2.85996 0
M  V30 11482 H 1067.69 0.343147 -1.58222 0
M  V30 11483 H 1069.68 3.35553 -2.26243 0
M  V30 11484 H 1068.25 2.8226 -1.34343 0
M  V30 11485 H 1067.47 1.69533 -3.55882 0
M  V30 11486 H 1068.76 2.60094 -4.37297 0
M  V30 11487 H 1068.15 5.1128 -2.42093 0
M  V30 11488 H 1066.71 5.71625 -3.13191 0
M  V30 11489 N 1070.14 1.51827 0.422667 0
M  V30 11490 C 1071.56 1.40328 0.760275 0
M  V30 11491 C 1071.76 0.497119 1.95272 0
M  V30 11492 O 1070.82 -0.0422083 2.52465 0
M  V30 11493 C 1072.13 2.82622 1.02689 0
M  V30 11494 C 1073.68 2.91874 1.13044 0
M  V30 11495 C 1074.15 4.35107 1.4299 0
M  V30 11496 N 1075.64 4.3828 1.49883 0
M  V30 11497 C 1076.38 5.46153 1.74655 0
M  V30 11498 N 1075.87 6.64165 1.9712 0
M  V30 11499 N 1077.67 5.33651 1.76558 0
M  V30 11500 H 1069.82 2.09285 -0.362455 0
M  V30 11501 H 1072.08 0.94273 -0.0998161 0
M  V30 11502 H 1071.79 3.50991 0.223226 0
M  V30 11503 H 1071.66 3.22844 1.95068 0
M  V30 11504 H 1074.05 2.23694 1.92471 0
M  V30 11505 H 1074.13 2.55128 0.185326 0
M  V30 11506 H 1073.77 5.03841 0.640848 0
M  V30 11507 H 1073.7 4.69377 2.38731 0
M  V30 11508 H 1076.19 3.53206 1.34366 0
M  V30 11509 H 1076.51 7.42165 2.15434 0
M  V30 11510 H 1074.85 6.67255 1.94413 0
M  V30 11511 H 1078.04 4.40436 1.58536 0
M  V30 11512 H 1078.22 6.17798 1.95525 0
M  V30 11513 N 1071.62 -0.679052 1.4222 0
M  V30 11514 C 1073.04 -0.991665 1.25053 0
M  V30 11515 C 1073.24 -2.00928 0.151665 0
M  V30 11516 O 1072.29 -2.47925 -0.478507 0
M  V30 11517 C 1073.61 -1.50053 2.60585 0
M  V30 11518 C 1075.16 -1.61852 2.67905 0
M  V30 11519 C 1075.63 -2.16135 4.03794 0
M  V30 11520 N 1077.12 -2.23474 4.05726 0
M  V30 11521 C 1077.86 -2.66541 5.07685 0
M  V30 11522 N 1077.35 -3.09092 6.20028 0
M  V30 11523 N 1079.15 -2.66252 4.95042 0
M  V30 11524 H 1071.3 -0.00521851 2.12399 0
M  V30 11525 H 1073.56 -0.0648465 0.94578 0
M  V30 11526 H 1073.27 -0.82731 3.41831 0
M  V30 11527 H 1073.14 -2.47998 2.84213 0
M  V30 11528 H 1075.53 -2.28281 1.87008 0
M  V30 11529 H 1075.61 -0.624074 2.4807 0
M  V30 11530 H 1075.25 -1.50316 4.85147 0
M  V30 11531 H 1075.18 -3.16363 4.20978 0
M  V30 11532 H 1077.67 -1.93467 3.24621 0
M  V30 11533 H 1077.99 -3.40627 6.93681 0
M  V30 11534 H 1076.33 -3.06959 6.23539 0
M  V30 11535 H 1079.52 -2.32369 4.06352 0
M  V30 11536 H 1079.69 -2.99496 5.74636 0
M  V30 11537 N 1073.1 -1.28322 -0.914942 0
M  V30 11538 C 1074.35 -1.15578 -1.66642 0
M  V30 11539 C 1074.68 0.295209 -1.91943 0
M  V30 11540 O 1073.95 1.21482 -1.51896 0
M  V30 11541 C 1074.24 -1.9535 -3.02507 0
M  V30 11542 C 1074.09 -3.48504 -2.84367 0
M  V30 11543 C 1075.41 -1.76798 -4.03027 0
M  V30 11544 H 1072.53 -0.421234 -0.604757 0
M  V30 11545 H 1075.17 -1.57625 -1.06087 0
M  V30 11546 H 1073.32 -1.59619 -3.54195 0
M  V30 11547 H 1074.99 -3.94135 -2.39699 0
M  V30 11548 H 1073.24 -3.74198 -2.1945 0
M  V30 11549 H 1073.91 -3.99576 -3.80845 0
M  V30 11550 H 1076.38 -2.07977 -3.60395 0
M  V30 11551 H 1075.26 -2.34987 -4.96057 0
M  V30 11552 H 1075.52 -0.719162 -4.36211 0
M  V30 11553 N 1074.58 1.12322 -1.10551 0
M  V30 11554 C 1075.99 1.35858 -0.837543 0
M  V30 11555 C 1076.19 1.94062 0.54241 0
M  V30 11556 O 1075.25 2.1676 1.29505 0
M  V30 11557 C 1076.56 2.299 -1.9382 0
M  V30 11558 C 1078.11 2.43488 -1.96679 0
M  V30 11559 C 1078.59 3.40846 -3.05922 0
M  V30 11560 N 1080.08 3.48404 -3.05236 0
M  V30 11561 C 1080.81 4.2365 -3.86405 0
M  V30 11562 N 1080.31 5.01951 -4.77512 0
M  V30 11563 N 1082.1 4.19068 -3.74618 0
M  V30 11564 H 1074.25 0.729002 -1.99498 0
M  V30 11565 H 1076.52 0.38339 -0.867016 0
M  V30 11566 H 1076.22 1.94309 -2.9315 0
M  V30 11567 H 1076.1 3.30033 -1.82641 0
M  V30 11568 H 1078.48 2.78359 -0.979813 0
M  V30 11569 H 1078.56 1.43239 -2.11934 0
M  V30 11570 H 1078.21 3.06704 -4.04839 0
M  V30 11571 H 1078.14 4.40927 -2.87907 0
M  V30 11572 H 1080.63 2.92545 -2.39219 0
M  V30 11573 H 1080.94 5.56707 -5.36002 0
M  V30 11574 H 1079.29 5.01143 -4.8154 0
M  V30 11575 H 1082.48 3.5698 -3.02792 0
M  V30 11576 H 1082.65 4.77455 -4.38111 0
M  V30 11577 N 1076.06 0.894434 1.2976 0
M  V30 11578 C 1077 0.366586 2.2787 0
M  V30 11579 C 1077.97 -0.548425 1.56785 0
M  V30 11580 O 1079.16 -0.474804 1.84798 0
M  V30 11581 C 1076.3 -0.404531 3.42721 0
M  V30 11582 C 1075.41 0.540774 4.28602 0
M  V30 11583 C 1074.55 -0.246875 5.30626 0
M  V30 11584 C 1073.59 0.693294 6.08161 0
M  V30 11585 N 1072.72 -0.059619 7.02075 0
M  V30 11586 H 1077.56 1.20834 2.72402 0
M  V30 11587 H 1075.1 0.607205 1.33983 0
M  V30 11588 H 1077.06 -0.86762 4.08079 0
M  V30 11589 H 1075.69 -1.21078 2.99232 0
M  V30 11590 H 1074.74 1.12237 3.63465 0
M  V30 11591 H 1076.05 1.26065 4.82606 0
M  V30 11592 H 1075.21 -0.771398 6.01776 0
M  V30 11593 H 1073.94 -0.999918 4.77339 0
M  V30 11594 H 1072.95 1.22936 5.35879 0
M  V30 11595 H 1074.17 1.44558 6.63536 0
M  V30 11596 H 1072.12 -0.795026 6.51165 0
M  V30 11597 H 1072.04 0.60045 7.53612 0
M  V30 11598 H 1073.31 -0.564577 7.77453 0
M  V30 11599 N 1077.53 -1.43282 0.656365 0
M  V30 11600 C 1078.46 -2.33492 -0.0196962 0
M  V30 11601 C 1079.45 -1.49647 -0.80868 0
M  V30 11602 O 1080.63 -1.78303 -0.769529 0
M  V30 11603 C 1077.76 -3.33052 -0.984574 0
M  V30 11604 C 1076.71 -4.26908 -0.305483 0
M  V30 11605 C 1076.04 -5.16531 -1.38202 0
M  V30 11606 C 1077.34 -5.16073 0.804081 0
M  V30 11607 H 1079.03 -2.90272 0.733661 0
M  V30 11608 H 1076.58 -1.39574 0.354259 0
M  V30 11609 H 1078.53 -3.9506 -1.46647 0
M  V30 11610 H 1077.26 -2.74535 -1.76913 0
M  V30 11611 H 1075.92 -3.66268 0.155995 0
M  V30 11612 H 1075.56 -4.54351 -2.1581 0
M  V30 11613 H 1075.26 -5.80148 -0.932878 0
M  V30 11614 H 1076.79 -5.81414 -1.86522 0
M  V30 11615 H 1078.2 -5.71873 0.404212 0
M  V30 11616 H 1076.6 -5.88427 1.17789 0
M  V30 11617 H 1077.67 -4.55574 1.66073 0
M  V30 11618 N 1079.01 -0.398486 -1.52479 0
M  V30 11619 C 1080.42 0.0735015 -1.86555 0
M  V30 11620 C 1080.78 1.45361 -1.31775 0
M  V30 11621 O 1079.9 2.0632 -0.652759 0
M  V30 11622 C 1080.5 0.140152 -3.3851 0
M  V30 11623 C 1079.05 0.556451 -3.72264 0
M  V30 11624 C 1078.2 -0.275792 -2.75925 0
M  V30 11625 H 1081.15 -0.615991 -1.46257 0
M  V30 11626 H 1081.17 0.957507 -3.68255 0
M  V30 11627 H 1080.69 -0.864442 -3.7835 0
M  V30 11628 H 1078.79 1.56808 -3.37997 0
M  V30 11629 H 1078.9 0.308227 -4.78107 0
M  V30 11630 H 1077.26 0.260304 -2.53366 0
M  V30 11631 H 1078.05 -1.27854 -3.18604 0
M  V30 11632 N 1080.49 1.57075 -0.12858 0
M  V30 11633 C 1081.72 2.00305 0.537839 0
M  V30 11634 C 1082.14 1.00787 1.58819 0
M  V30 11635 O 1081.5 -0.0190839 1.8129 0
M  V30 11636 C 1081.55 3.42371 1.13201 0
M  V30 11637 O 1080.65 3.45786 2.24735 0
M  V30 11638 H 1079.99 0.650456 0.133428 0
M  V30 11639 H 1082.52 2.03415 -0.219882 0
M  V30 11640 H 1082.53 3.80783 1.4652 0
M  V30 11641 H 1081.21 4.14315 0.362713 0
M  V30 11642 H 1079.78 3.19201 1.92783 0
M  V30 11643 N 1081.97 -0.145205 1.5693 0
M  V30 11644 C 1083.2 -0.872398 1.87608 0
M  V30 11645 C 1083.61 -1.74657 0.716975 0
M  V30 11646 O 1082.97 -1.79792 -0.3132 0
M  V30 11647 C 1083.02 -1.72762 3.17546 0
M  V30 11648 O 1082.74 -0.888681 4.28992 0
M  V30 11649 C 1084.24 -2.56224 3.61751 0
M  V30 11650 H 1081.46 -0.252166 0.621815 0
M  V30 11651 H 1084.01 -0.137456 2.04038 0
M  V30 11652 H 1082.16 -2.41561 3.02865 0
M  V30 11653 H 1082.58 -1.47601 5.03303 0
M  V30 11654 H 1084.05 -3.11804 4.55502 0
M  V30 11655 H 1084.53 -3.32347 2.87127 0
M  V30 11656 H 1085.13 -1.92714 3.79133 0
M  V30 11657 N 1083.45 -1.52049 -0.414609 0
M  V30 11658 C 1084.68 -1.69679 -1.18392 0
M  V30 11659 C 1085.09 -0.403881 -1.84429 0
M  V30 11660 O 1084.45 0.619636 -1.71659 0
M  V30 11661 C 1084.5 -2.82855 -2.25112 0
M  V30 11662 O 1084.22 -4.07138 -1.61772 0
M  V30 11663 C 1085.72 -3.11948 -3.14965 0
M  V30 11664 H 1082.94 -0.56879 -0.355977 0
M  V30 11665 H 1085.48 -1.9858 -0.488505 0
M  V30 11666 H 1083.64 -2.56488 -2.90332 0
M  V30 11667 H 1084.05 -4.70163 -2.32479 0
M  V30 11668 H 1085.53 -3.94665 -3.85932 0
M  V30 11669 H 1086 -2.25276 -3.77024 0
M  V30 11670 H 1086.61 -3.40059 -2.55421 0
M  V30 11671 N 1084.93 0.6715 -1.42579 0
M  V30 11672 C 1085.86 1.79693 -1.49107 0
M  V30 11673 C 1086.84 1.66516 -0.347338 0
M  V30 11674 O 1088.02 1.85887 -0.562094 0
M  V30 11675 C 1085.15 3.1801 -1.39596 0
M  V30 11676 C 1084.11 3.45926 -2.5203 0
M  V30 11677 C 1083.43 4.83852 -2.27577 0
M  V30 11678 C 1084.73 3.4249 -3.94333 0
M  V30 11679 H 1086.43 1.74486 -2.433 0
M  V30 11680 H 1083.97 0.838042 -1.17102 0
M  V30 11681 H 1085.92 3.96478 -1.42771 0
M  V30 11682 H 1084.65 3.23901 -0.418989 0
M  V30 11683 H 1083.31 2.6982 -2.48178 0
M  V30 11684 H 1082.96 4.86398 -1.28165 0
M  V30 11685 H 1082.66 5.03493 -3.02934 0
M  V30 11686 H 1084.18 5.646 -2.32506 0
M  V30 11687 H 1085.59 4.10922 -3.9977 0
M  V30 11688 H 1083.99 3.73666 -4.69568 0
M  V30 11689 H 1085.06 2.41002 -4.20768 0
M  V30 11690 O 1086.44 1.39477 0.814146 0
M  V30 11691 H 1087.13 1.27495 1.45824 0
M  V30 END ATOM
M  V30 BEGIN BOND
M  V30 END BOND
M  V30 END CTAB
M  END
$$$$
