drugbank_target|Q15428 Splicing factor 3A subunit 2 (DB09130)
 OpenBabel12092121053D

  0  0  0     0  0            999 V3000
M  V30 BEGIN CTAB
M  V30 COUNTS 6923 7094 0 0 0
M  V30 BEGIN ATOM
M  V30 1 H -0.908 1.98254 -0.117106 0
M  V30 2 N 0 1.576 0 0
M  V30 3 C 0.933 2.03868 1.02534 0
M  V30 4 C 1.911 0.928543 1.3348 0
M  V30 5 O 3.095 1.19667 1.45644 0
M  V30 6 C 0.222 2.43627 2.35294 0
M  V30 7 C -0.732 3.65373 2.2001 0
M  V30 8 S 0.101 5.13292 1.52614 0
M  V30 9 C 1.257 5.56322 2.86805 0
M  V30 10 H 1.49 2.90518 0.631377 0
M  V30 11 H -0.977 1.52953 0.210867 0
M  V30 12 H 0.981 2.67203 3.11629 0
M  V30 13 H -0.358 1.57376 2.7183 0
M  V30 14 H -1.165 3.90944 3.18086 0
M  V30 15 H -1.563 3.418 1.51819 0
M  V30 16 H 0.729 5.58782 3.83104 0
M  V30 17 H 1.672 6.56266 2.65933 0
M  V30 18 H 2.08 4.83886 2.90714 0
M  V30 19 N 1.4781 -0.272755 1.55222 0
M  V30 20 C 2.7551 -1.02562 1.66555 0
M  V30 21 C 3.1351 -2.04282 0.532189 0
M  V30 22 O 2.4831 -2.23662 -0.467717 0
M  V30 23 C 2.6931 -1.6822 3.05782 0
M  V30 24 C 4.0411 -2.19373 3.63539 0
M  V30 25 O 5.0651 -1.78206 3.08417 0
M  V30 26 O 3.9241 -2.94883 4.60115 0
M  V30 27 H 1.0181 -0.475755 0.676451 0
M  V30 28 H 3.5641 -0.268593 1.67561 0
M  V30 29 H 2.3361 -0.945112 3.79715 0
M  V30 30 H 1.9591 -2.50609 3.08676 0
M  V30 31 N 2.9562 -1.48159 -0.537278 0
M  V30 32 C 4.2032 -1.55804 -1.29349 0
M  V30 33 C 4.5312 -0.228802 -1.9315 0
M  V30 34 O 3.7862 0.780242 -1.79473 0
M  V30 35 C 4.0852 -2.63956 -2.40961 0
M  V30 36 C 3.7512 -4.0662 -1.94861 0
M  V30 37 C 2.4132 -4.45452 -1.82006 0
M  V30 38 C 4.7652 -4.96055 -1.59933 0
M  V30 39 C 2.0932 -5.71531 -1.32547 0
M  V30 40 C 4.4452 -6.22617 -1.11939 0
M  V30 41 C 3.1092 -6.60312 -0.976951 0
M  V30 42 H 2.3792 -0.570129 -0.473322 0
M  V30 43 H 5.0262 -1.81845 -0.600372 0
M  V30 44 H 3.3312 -2.31747 -3.15912 0
M  V30 45 H 5.0282 -2.67089 -2.99107 0
M  V30 46 H 1.6182 -3.75949 -2.05815 0
M  V30 47 H 5.8022 -4.66738 -1.68728 0
M  V30 48 H 1.0582 -5.99468 -1.202 0
M  V30 49 H 5.2322 -6.91318 -0.839811 0
M  V30 50 H 2.8592 -7.57895 -0.591501 0
M  V30 51 N 4.4343 0.785586 -1.36625 0
M  V30 52 C 5.3663 1.90711 -1.2713 0
M  V30 53 C 6.3793 1.61688 -0.189986 0
M  V30 54 O 7.5683 1.72864 -0.445014 0
M  V30 55 C 4.6683 3.25611 -0.939713 0
M  V30 56 C 3.8413 3.82385 -2.12369 0
M  V30 57 C 2.9003 4.95732 -1.76456 0
M  V30 58 O 1.9263 5.12047 -2.48589 0
M  V30 59 N 3.1283 5.76258 -0.700492 0
M  V30 60 H 5.8933 1.99376 -2.23762 0
M  V30 61 H 3.4543 0.964041 -1.30069 0
M  V30 62 H 5.4463 3.98937 -0.680554 0
M  V30 63 H 4.0163 3.12538 -0.0624074 0
M  V30 64 H 3.2363 3.01001 -2.54543 0
M  V30 65 H 4.5243 4.17047 -2.9146 0
M  V30 66 H 3.9223 5.65609 -0.101624 0
M  V30 67 H 2.4793 6.4987 -0.501165 0
M  V30 68 N 5.9124 1.20967 1.01018 0
M  V30 69 C 6.8624 0.93182 2.08089 0
M  V30 70 C 7.8464 -0.110898 1.60517 0
M  V30 71 O 9.0384 0.0973392 1.76732 0
M  V30 72 C 6.1674 0.492719 3.39746 0
M  V30 73 C 5.2534 1.56922 3.94 0
M  V30 74 N 5.6444 2.79312 4.21686 0
M  V30 75 C 3.9424 1.43688 4.2222 0
M  V30 76 C 4.6434 3.48797 4.65527 0
M  V30 77 N 3.6194 2.76224 4.68189 0
M  V30 78 H 7.4214 1.86175 2.27412 0
M  V30 79 H 4.9354 1.10463 1.19045 0
M  V30 80 H 6.9324 0.275044 4.15992 0
M  V30 81 H 5.5924 -0.430509 3.21833 0
M  V30 82 H 6.6034 3.15903 4.10397 0
M  V30 83 H 3.2804 0.578548 4.13472 0
M  V30 84 H 4.6704 4.53561 4.95714 0
M  V30 85 N 7.3905 -1.2043 1.01659 0
M  V30 86 C 8.8065 -1.41852 0.731442 0
M  V30 87 C 9.0065 -1.89358 -0.688898 0
M  V30 88 O 8.0625 -2.06247 -1.45666 0
M  V30 89 C 9.3755 -2.44019 1.75714 0
M  V30 90 C 10.9235 -2.57785 1.77527 0
M  V30 91 C 11.3985 -3.63194 2.79023 0
M  V30 92 N 12.8895 -3.70678 2.77763 0
M  V30 93 C 13.6245 -4.51897 3.52954 0
M  V30 94 N 13.1205 -5.36921 4.37821 0
M  V30 95 N 14.9135 -4.4643 3.41551 0
M  V30 96 H 7.0645 -0.879093 1.93354 0
M  V30 97 H 9.3275 -0.448425 0.835236 0
M  V30 98 H 9.0335 -2.1611 2.77469 0
M  V30 99 H 8.9075 -3.43007 1.56927 0
M  V30 100 H 11.2945 -2.85023 0.764569 0
M  V30 101 H 11.3755 -1.58992 2.00387 0
M  V30 102 H 11.0195 -3.36699 3.80258 0
M  V30 103 H 10.9495 -4.61609 2.53425 0
M  V30 104 H 13.4405 -3.09944 2.16201 0
M  V30 105 H 13.7535 -5.95981 4.91962 0
M  V30 106 H 12.0985 -5.36424 4.41899 0
M  V30 107 H 15.2895 -3.79042 2.74672 0
M  V30 108 H 15.4625 -5.09491 4.00404 0
M  V30 109 N 8.8686 -0.792821 -1.36206 0
M  V30 110 C 10.2796 -0.429513 -1.81692 0
M  V30 111 C 10.6306 1.04695 -1.65932 0
M  V30 112 O 9.7556 1.81256 -1.18218 0
M  V30 113 C 10.3506 -0.772831 -3.29868 0
M  V30 114 C 8.9096 -0.462307 -3.7355 0
M  V30 115 C 8.0566 -1.00569 -2.5842 0
M  V30 116 H 11.0076 -0.985672 -1.24379 0
M  V30 117 H 11.0286 -0.0651928 -3.80444 0
M  V30 118 H 10.5406 -1.84747 -3.41307 0
M  V30 119 H 8.6416 0.604158 -3.67669 0
M  V30 120 H 8.7546 -0.985299 -4.68859 0
M  V30 121 H 7.1186 -0.428734 -2.51066 0
M  V30 122 H 7.9016 -2.08616 -2.72643 0
M  V30 123 N 10.3467 1.47872 -0.545128 0
M  V30 124 C 11.5947 2.02093 -0.016553 0
M  V30 125 C 11.9157 1.42305 1.3332 0
M  V30 126 O 11.1857 0.593853 1.86682 0
M  V30 127 H 9.7657 0.746993 -0.00313038 0
M  V30 128 H 12.4277 1.81414 -0.712397 0
M  V30 129 H 11.5237 3.11996 0.0805422 0
M  V30 130 N 11.8248 0.280983 1.55075 0
M  V30 131 C 13.0728 -0.333455 1.9933 0
M  V30 132 C 13.3938 -1.55937 1.17085 0
M  V30 133 O 12.6638 -1.94143 0.261805 0
M  V30 134 H 11.2438 -0.126197 0.736263 0
M  V30 135 H 13.9058 0.387678 1.91005 0
M  V30 136 H 13.0018 -0.619292 3.05894 0
M  V30 137 N 13.3029 -1.57598 0.00835791 0
M  V30 138 C 14.2499 -2.08945 -0.980346 0
M  V30 139 C 15.2199 -0.986738 -1.33614 0
M  V30 140 O 16.4049 -1.25968 -1.43306 0
M  V30 141 C 13.5449 -2.60425 -2.26435 0
M  V30 142 C 12.6579 -3.84628 -1.96685 0
M  V30 143 C 11.7929 -4.24579 -3.19228 0
M  V30 144 C 10.8319 -5.41596 -2.85202 0
M  V30 145 N 9.9689 -5.768 -4.00307 0
M  V30 146 H 14.8089 -2.93148 -0.535551 0
M  V30 147 H 12.3459 -1.44912 -0.252776 0
M  V30 148 H 14.3039 -2.88354 -3.01509 0
M  V30 149 H 12.9339 -1.79083 -2.68568 0
M  V30 150 H 11.9859 -3.63556 -1.11942 0
M  V30 151 H 13.2979 -4.69796 -1.67611 0
M  V30 152 H 12.4519 -4.53834 -4.02641 0
M  V30 153 H 11.1909 -3.38137 -3.51447 0
M  V30 154 H 10.1959 -5.12056 -2.00198 0
M  V30 155 H 11.4209 -6.29721 -2.54222 0
M  V30 156 H 9.3669 -4.93316 -4.32407 0
M  V30 157 H 9.2839 -6.5656 -3.74786 0
M  V30 158 H 10.5519 -6.10652 -4.84484 0
M  V30 159 N 14.781 0.264519 -1.55364 0
M  V30 160 C 16.009 1.013 -1.80405 0
M  V30 161 C 16.424 1.79618 -0.581622 0
M  V30 162 O 15.781 1.76879 0.449468 0
M  V30 163 C 15.832 1.96487 -3.03439 0
M  V30 164 O 15.553 1.21341 -4.20961 0
M  V30 165 C 17.054 2.83079 -3.41147 0
M  V30 166 H 14.274 0.298875 -0.600762 0
M  V30 167 H 16.818 0.292736 -2.02394 0
M  V30 168 H 14.973 2.63965 -2.83551 0
M  V30 169 H 15.387 1.85573 -4.90574 0
M  V30 170 H 16.861 3.4565 -4.30384 0
M  V30 171 H 17.338 3.53286 -2.60932 0
M  V30 172 H 17.944 2.2108 -3.63323 0
M  V30 173 N 16.2591 1.48442 0.529413 0
M  V30 174 C 17.5071 1.56179 1.28267 0
M  V30 175 C 17.8281 0.237721 1.93546 0
M  V30 176 O 17.0981 -0.740779 1.81354 0
M  V30 177 H 15.6781 0.575367 0.476405 0
M  V30 178 H 18.3401 1.84909 0.61602 0
M  V30 179 H 17.4361 2.34312 2.06165 0
M  V30 180 N 17.7372 -0.778329 1.37039 0
M  V30 181 C 18.9622 -1.57248 1.35233 0
M  V30 182 C 19.3872 -1.87999 -0.0615568 0
M  V30 183 O 18.7452 -1.48734 -1.03672 0
M  V30 184 C 18.7932 -2.86353 2.19167 0
M  V30 185 O 17.8972 -3.80442 1.59178 0
M  V30 186 H 17.2382 -0.476569 0.462362 0
M  V30 187 H 19.7682 -0.963853 1.80474 0
M  V30 188 H 19.7782 -3.35519 2.32145 0
M  V30 189 H 18.4532 -2.63299 3.21942 0
M  V30 190 H 17.0302 -3.39067 1.55203 0
M  V30 191 N 19.2153 -1.21501 -1.00376 0
M  V30 192 C 20.4633 -1.03095 -1.73827 0
M  V30 193 C 20.7843 0.436341 -1.90055 0
M  V30 194 O 20.0543 1.31466 -1.45236 0
M  V30 195 H 18.6343 -0.378487 -0.644016 0
M  V30 196 H 21.2963 -1.52831 -1.20949 0
M  V30 197 H 20.3923 -1.49991 -2.73695 0
M  V30 198 N 20.6934 1.19889 -1.02296 0
M  V30 199 C 21.9414 1.89046 -0.714558 0
M  V30 200 C 22.2624 1.79636 0.758681 0
M  V30 201 O 21.5324 1.20292 1.54618 0
M  V30 202 H 20.1124 0.699802 -0.261317 0
M  V30 203 H 22.7744 1.45574 -1.29592 0
M  V30 204 H 21.8704 2.95524 -1.0036 0
M  V30 205 N 22.1715 0.800033 1.35784 0
M  V30 206 C 23.4175 0.377901 1.99248 0
M  V30 207 C 23.7505 -1.05052 1.63333 0
M  V30 208 O 23.0255 -1.72768 0.893385 0
M  V30 209 C 23.3085 0.553922 3.55814 0
M  V30 210 C 23.1615 2.0268 4.01548 0
M  V30 211 C 24.4805 -0.0244802 4.40093 0
M  V30 212 H 21.5995 0.138782 0.723815 0
M  V30 213 H 24.2415 1.00835 1.61035 0
M  V30 214 H 22.3915 0.0172398 3.88496 0
M  V30 215 H 24.0635 2.62536 3.79305 0
M  V30 216 H 22.3065 2.5256 3.52698 0
M  V30 217 H 22.9775 2.10087 5.10458 0
M  V30 218 H 25.4535 0.433775 4.13833 0
M  V30 219 H 24.3295 0.128637 5.48749 0
M  V30 220 H 24.5905 -1.11758 4.27741 0
M  V30 221 N 23.6496 -1.47581 0.552962 0
M  V30 222 C 24.6126 -2.28439 -0.186605 0
M  V30 223 C 25.6126 -1.36706 -0.84665 0
M  V30 224 O 26.8026 -1.59378 -0.703164 0
M  V30 225 C 23.9346 -3.16264 -1.2724 0
M  V30 226 H 25.1276 -2.95294 0.523609 0
M  V30 227 H 22.6806 -1.532 0.309745 0
M  V30 228 H 23.4156 -2.54091 -2.01514 0
M  V30 229 H 23.2006 -3.83769 -0.803968 0
M  V30 230 H 24.6906 -3.77198 -1.79196 0
M  V30 231 N 25.1277 -0.289203 -1.54924 0
M  V30 232 C 26.3527 0.329299 -2.04769 0
M  V30 233 C 26.7777 1.4763 -1.16564 0
M  V30 234 O 26.1357 1.80527 -0.167186 0
M  V30 235 C 26.1837 0.774438 -3.52186 0
M  V30 236 O 25.2877 1.88038 -3.67036 0
M  V30 237 H 24.6287 0.0659259 -0.660719 0
M  V30 238 H 27.1587 -0.42761 -2.00082 0
M  V30 239 H 27.1687 1.06642 -3.93816 0
M  V30 240 H 25.8437 -0.0646707 -4.1585 0
M  V30 241 H 24.4207 1.58985 -3.3731 0
M  V30 242 N 26.6058 1.57591 -0.0167156 0
M  V30 243 C 27.8308 1.9598 0.67872 0
M  V30 244 C 28.2558 0.892546 1.65575 0
M  V30 245 O 27.6138 -0.147772 1.80697 0
M  V30 246 C 27.6618 3.33468 1.37227 0
M  V30 247 O 26.7658 3.28954 2.48722 0
M  V30 248 H 26.1068 0.639339 0.17928 0
M  V30 249 H 28.6368 2.04463 -0.0748802 0
M  V30 250 H 28.6468 3.69417 1.7319 0
M  V30 251 H 27.3218 4.10694 0.656007 0
M  V30 252 H 25.8988 3.04705 2.14963 0
M  V30 253 N 28.0839 -0.256276 1.55502 0
M  V30 254 C 29.3089 -1.00766 1.81276 0
M  V30 255 C 29.7339 -1.78524 0.59252 0
M  V30 256 O 29.0919 -1.75413 -0.45827 0
M  V30 257 C 29.1399 -1.92869 3.04687 0
M  V30 258 O 28.2439 -3.019 2.80945 0
M  V30 259 H 27.5849 -0.287224 0.598664 0
M  V30 260 H 30.1149 -0.280109 2.02674 0
M  V30 261 H 30.1249 -2.34511 3.33869 0
M  V30 262 H 28.7999 -1.35689 3.93143 0
M  V30 263 H 27.3769 -2.64454 2.62904 0
M  V30 264 N 29.562 -1.4872 -0.521534 0
M  V30 265 C 30.472 -1.66569 -1.65203 0
M  V30 266 C 31.488 -0.548197 -1.65139 0
M  V30 267 O 32.664 -0.820339 -1.83936 0
M  V30 268 C 29.729 -1.70917 -3.01642 0
M  V30 269 C 28.79 -2.94356 -3.12495 0
M  V30 270 C 28.023 -2.98487 -4.42426 0
M  V30 271 O 28.246 -2.10786 -5.30024 0
M  V30 272 O 27.18 -3.90746 -4.57822 0
M  V30 273 H 31.006 -2.62298 -1.5308 0
M  V30 274 H 28.591 -1.3222 -0.695565 0
M  V30 275 H 30.473 -1.7625 -3.82771 0
M  V30 276 H 29.148 -0.783633 -3.14071 0
M  V30 277 H 28.055 -2.94552 -2.3063 0
M  V30 278 H 29.388 -3.86322 -3.04986 0
M  V30 279 N 31.0401 0.771051 -1.3745 0
M  V30 280 C 32.2651 1.56529 -1.36065 0
M  V30 281 C 32.6901 1.88029 0.0515859 0
M  V30 282 O 32.0481 1.49282 1.02882 0
M  V30 283 C 32.0961 2.85187 -2.20683 0
M  V30 284 O 31.2001 3.79593 -1.61193 0
M  V30 285 H 30.5411 0.47411 -0.464883 0
M  V30 286 H 33.0711 0.954269 -1.80983 0
M  V30 287 H 33.0811 3.34283 -2.33921 0
M  V30 288 H 31.7561 2.61588 -3.23334 0
M  V30 289 H 30.3331 3.38239 -1.56999 0
M  V30 290 N 32.5182 1.22032 0.997298 0
M  V30 291 C 33.4662 0.983634 2.10778 0
M  V30 292 C 34.4602 -0.0717564 1.69248 0
M  V30 293 O 35.6662 0.080304 1.79821 0
M  V30 294 H 32.0412 0.300877 0.689186 0
M  V30 295 H 34.0122 1.92606 2.27916 0
M  V30 296 C 32.7612 0.57326 3.42942 0
M  V30 297 H 32.0842 1.37702 3.75338 0
M  V30 298 H 33.5242 0.447031 4.21637 0
M  V30 299 C 31.9832 -0.7167 3.29188 0
M  V30 300 O 32.5132 -1.77027 3.60589 0
M  V30 301 N 30.7192 -0.686167 2.82383 0
M  V30 302 H 30.2662 0.171507 2.57028 0
M  V30 303 H 30.2242 -1.54955 2.73562 0
M  V30 304 N 33.9963 -1.19345 1.0293 0
M  V30 305 C 35.4123 -1.41069 0.746446 0
M  V30 306 C 35.6123 -1.90078 -0.668776 0
M  V30 307 O 34.6683 -2.0778 -1.4347 0
M  V30 308 C 35.9813 -2.42141 1.78292 0
M  V30 309 C 37.5293 -2.55887 1.80252 0
M  V30 310 C 38.0043 -3.60214 2.8286 0
M  V30 311 N 39.4953 -3.67711 2.81679 0
M  V30 312 C 40.2303 -4.48128 3.57727 0
M  V30 313 N 39.7263 -5.32248 4.43491 0
M  V30 314 N 41.5193 -4.42782 3.46267 0
M  V30 315 H 33.6703 -0.858536 1.94275 0
M  V30 316 H 35.9333 -0.439541 0.839945 0
M  V30 317 H 35.6393 -2.13155 2.79746 0
M  V30 318 H 35.5133 -3.41323 1.60557 0
M  V30 319 H 37.9003 -2.84196 0.794757 0
M  V30 320 H 37.9813 -1.56858 2.02062 0
M  V30 321 H 37.6253 -3.32647 3.83807 0
M  V30 322 H 37.5553 -4.58895 2.58307 0
M  V30 323 H 40.0463 -3.07634 2.19476 0
M  V30 324 H 40.3593 -5.90729 4.98256 0
M  V30 325 H 38.7043 -5.31707 4.47564 0
M  V30 326 H 41.8953 -3.76107 2.78677 0
M  V30 327 H 42.0683 -5.05215 4.05785 0
M  V30 328 N 35.4744 -0.807222 -1.35358 0
M  V30 329 C 36.7514 -0.311126 -1.9311 0
M  V30 330 C 37.1314 1.19937 -1.73719 0
M  V30 331 O 36.4794 1.99918 -1.10657 0
M  V30 332 C 36.6894 -0.723226 -3.41424 0
M  V30 333 C 38.0374 -0.713078 -4.18569 0
M  V30 334 O 39.0614 -0.664811 -3.49941 0
M  V30 335 O 37.9204 -0.772022 -5.41019 0
M  V30 336 H 35.0144 -0.081526 -0.822972 0
M  V30 337 H 37.5604 -0.890962 -1.4443 0
M  V30 338 H 36.3324 -1.76426 -3.4927 0
M  V30 339 H 35.9554 -0.118232 -3.97424 0
M  V30 340 N 36.9525 1.47285 -0.560781 0
M  V30 341 C 38.3685 1.58065 -0.22081 0
M  V30 342 C 38.5685 1.55892 1.27671 0
M  V30 343 O 37.6245 1.46422 2.0571 0
M  V30 344 C 38.9375 2.88418 -0.850625 0
M  V30 345 C 40.4855 3.02009 -0.822184 0
M  V30 346 C 40.9605 4.35066 -1.43113 0
M  V30 347 N 42.4515 4.41711 -1.39448 0
M  V30 348 C 43.1865 5.43237 -1.83525 0
M  V30 349 N 42.6825 6.51555 -2.35474 0
M  V30 350 N 44.4755 5.34304 -1.74574 0
M  V30 351 H 36.6265 1.46941 -1.53369 0
M  V30 352 H 38.8895 0.699558 -0.639783 0
M  V30 353 H 38.5955 2.95755 -1.9032 0
M  V30 354 H 38.4695 3.75612 -0.345773 0
M  V30 355 H 40.8565 2.94266 0.221714 0
M  V30 356 H 40.9375 2.16347 -1.36483 0
M  V30 357 H 40.5815 4.43565 -2.47412 0
M  V30 358 H 40.5115 5.19465 -0.863899 0
M  V30 359 H 43.0025 3.64027 -1.01452 0
M  V30 360 H 43.3155 7.25203 -2.67021 0
M  V30 361 H 41.6605 6.52435 -2.39487 0
M  V30 362 H 44.8515 4.48581 -1.33763 0
M  V30 363 H 45.0245 6.13288 -2.09242 0
M  V30 364 N 38.4306 0.297415 1.54768 0
M  V30 365 C 39.8466 -0.0560823 1.59501 0
M  V30 366 C 40.0466 -1.52725 1.31444 0
M  V30 367 O 39.1026 -2.27947 1.08611 0
M  V30 368 C 40.4156 0.338631 2.98787 0
M  V30 369 C 41.9636 0.287097 3.11681 0
M  V30 370 C 42.4386 0.656579 4.53269 0
M  V30 371 N 43.9296 0.608977 4.59179 0
M  V30 372 C 44.6646 0.867385 5.66802 0
M  V30 373 N 44.1606 1.19157 6.82476 0
M  V30 374 N 45.9536 0.794687 5.56454 0
M  V30 375 H 38.1046 1.25624 1.71267 0
M  V30 376 H 40.3676 0.509057 0.799728 0
M  V30 377 H 40.0736 1.36263 3.2423 0
M  V30 378 H 39.9476 -0.309508 3.75928 0
M  V30 379 H 42.3346 -0.727649 2.85988 0
M  V30 380 H 42.4156 0.969809 2.36703 0
M  V30 381 H 42.0596 1.66912 4.7969 0
M  V30 382 H 41.9896 -0.0481649 5.26578 0
M  V30 383 H 44.4806 0.369198 3.76092 0
M  V30 384 H 44.7936 1.37482 7.60473 0
M  V30 385 H 43.1386 1.22958 6.84037 0
M  V30 386 H 46.3296 0.541098 4.64962 0
M  V30 387 H 46.5026 0.999445 6.40246 0
M  V30 388 N 39.9087 -1.5758 0.0250728 0
M  V30 389 C 40.8187 -2.1343 -0.973905 0
M  V30 390 C 41.8347 -1.08556 -1.35984 0
M  V30 391 O 43.0107 -1.40592 -1.44207 0
M  V30 392 C 40.0757 -2.64703 -2.23904 0
M  V30 393 C 39.1367 -3.84276 -1.91391 0
M  V30 394 C 38.3697 -4.33095 -3.11873 0
M  V30 395 O 38.5927 -3.81107 -4.24398 0
M  V30 396 O 37.5267 -5.24984 -2.94406 0
M  V30 397 H 41.3527 -2.99057 -0.529036 0
M  V30 398 H 38.9377 -1.48118 -0.195288 0
M  V30 399 H 40.8197 -2.97769 -2.98181 0
M  V30 400 H 39.4947 -1.82161 -2.6758 0
M  V30 401 H 38.4017 -3.56143 -1.14511 0
M  V30 402 H 39.7347 -4.67968 -1.52534 0
M  V30 403 N 41.3868 0.248026 -1.55636 0
M  V30 404 C 42.8028 0.596483 -1.48035 0
M  V30 405 C 43.0028 1.88386 -0.715039 0
M  V30 406 O 42.0588 2.51319 -0.243944 0
M  V30 407 C 43.3718 0.700258 -2.92433 0
M  V30 408 C 44.9198 0.792659 -3.02797 0
M  V30 409 C 45.3948 0.928005 -4.485 0
M  V30 410 N 46.8858 0.992903 -4.52433 0
M  V30 411 C 47.6208 1.11687 -5.62418 0
M  V30 412 N 47.1168 1.20645 -6.82214 0
M  V30 413 N 48.9098 1.14994 -5.50212 0
M  V30 414 H 41.0608 -0.597109 -2.03834 0
M  V30 415 H 43.3238 -0.205925 -0.925364 0
M  V30 416 H 43.0298 -0.175658 -3.51261 0
M  V30 417 H 42.9038 1.57255 -3.42857 0
M  V30 418 H 45.2908 1.65903 -2.4405 0
M  V30 419 H 45.3718 -0.104762 -2.55585 0
M  V30 420 H 45.0158 0.0661971 -5.07857 0
M  V30 421 H 44.9458 1.84045 -4.93391 0
M  V30 422 H 47.4368 0.935064 -3.66149 0
M  V30 423 H 47.7498 1.30008 -7.61786 0
M  V30 424 H 46.0948 1.17605 -6.84977 0
M  V30 425 H 49.2858 1.07643 -4.55555 0
M  V30 426 H 49.4588 1.24311 -6.35965 0
M  V30 427 N 42.8649 1.48995 0.513639 0
M  V30 428 C 43.7949 1.67636 1.62544 0
M  V30 429 C 44.7759 0.525087 1.61793 0
M  V30 430 O 45.9609 0.759502 1.78732 0
M  V30 431 C 43.0909 1.73114 3.01079 0
M  V30 432 C 42.0449 2.87905 3.16693 0
M  V30 433 C 41.3709 2.78486 4.56453 0
M  V30 434 C 42.6709 4.29005 2.97913 0
M  V30 435 H 44.3649 2.60716 1.47198 0
M  V30 436 H 41.9109 1.25465 0.706714 0
M  V30 437 H 43.8639 1.84742 3.78746 0
M  V30 438 H 42.5879 0.766241 3.17484 0
M  V30 439 H 41.2469 2.75859 2.41448 0
M  V30 440 H 40.8949 1.7993 4.69717 0
M  V30 441 H 40.5949 3.55523 4.67843 0
M  V30 442 H 42.1189 2.92104 5.36197 0
M  V30 443 H 43.5329 4.41798 3.65359 0
M  V30 444 H 41.9299 5.07166 3.20785 0
M  V30 445 H 42.9999 4.44329 1.94165 0
M  V30 446 N 44.343 -0.763751 1.37857 0
M  V30 447 C 45.759 -1.06542 1.18832 0
M  V30 448 C 45.959 -2.01478 0.0299722 0
M  V30 449 O 45.015 -2.4458 -0.627447 0
M  V30 450 C 46.328 -1.65525 2.51042 0
M  V30 451 C 47.876 -1.77745 2.57635 0
M  V30 452 C 48.351 -2.4014 3.89996 0
M  V30 453 N 49.842 -2.47582 3.91481 0
M  V30 454 C 50.577 -2.96732 4.9065 0
M  V30 455 N 50.073 -3.45993 6.00217 0
M  V30 456 N 51.866 -2.95679 4.78048 0
M  V30 457 H 44.017 -0.133556 2.1198 0
M  V30 458 H 46.28 -0.121879 0.940133 0
M  V30 459 H 45.986 -1.03236 3.36207 0
M  V30 460 H 45.86 -2.64719 2.68707 0
M  V30 461 H 48.247 -2.39164 1.72872 0
M  V30 462 H 48.328 -0.772836 2.43846 0
M  V30 463 H 47.972 -1.79358 4.75177 0
M  V30 464 H 47.902 -3.41223 4.01092 0
M  V30 465 H 50.393 -2.1273 3.12337 0
M  V30 466 H 50.706 -3.81922 6.7183 0
M  V30 467 H 49.051 -3.44077 6.03851 0
M  V30 468 H 52.242 -2.56499 3.91568 0
M  V30 469 H 52.415 -3.33672 5.55488 0
M  V30 470 N 45.8211 -1.22559 -0.990812 0
M  V30 471 C 46.7531 -0.955325 -2.08342 0
M  V30 472 C 47.7661 0.0668408 -1.62663 0
M  V30 473 O 48.9551 -0.167421 -1.77713 0
M  V30 474 C 46.0551 -0.415566 -3.36342 0
M  V30 475 C 45.2281 -1.49544 -4.11042 0
M  V30 476 C 44.2871 -0.962399 -5.17324 0
M  V30 477 O 43.3131 -1.64907 -5.44788 0
M  V30 478 N 44.5151 0.215134 -5.80101 0
M  V30 479 H 47.2801 -1.89596 -2.32106 0
M  V30 480 H 44.8411 -1.13276 -1.15673 0
M  V30 481 H 46.8331 -0.0442386 -4.04676 0
M  V30 482 H 45.4031 0.430232 -3.09625 0
M  V30 483 H 44.6231 -2.04 -3.37309 0
M  V30 484 H 45.9111 -2.22195 -4.57719 0
M  V30 485 H 45.3091 0.789779 -5.6016 0
M  V30 486 H 43.8661 0.527826 -6.49659 0
M  V30 487 N 47.2992 1.18797 -1.03562 0
M  V30 488 C 48.2292 2.24472 -0.643019 0
M  V30 489 C 49.2102 1.66433 0.351283 0
M  V30 490 O 50.3952 1.92803 0.232505 0
M  V30 491 C 47.5252 3.473 4.24935e-05 0
M  V30 492 C 46.4792 4.18055 -0.917257 0
M  V30 493 C 45.8052 5.34519 -0.138941 0
M  V30 494 C 47.1052 4.72109 -2.23407 0
M  V30 495 H 48.7992 2.57566 -1.52643 0
M  V30 496 H 46.3452 1.23806 -0.735394 0
M  V30 497 H 48.2982 4.20426 0.286383 0
M  V30 498 H 47.0222 3.13424 0.918299 0
M  V30 499 H 45.6812 3.46821 -1.1879 0
M  V30 500 H 45.3292 4.96891 0.781562 0
M  V30 501 H 45.0292 5.82794 -0.750005 0
M  V30 502 H 46.5532 6.10438 0.1405 0
M  V30 503 H 47.9672 5.36955 -2.00879 0
M  V30 504 H 46.3642 5.30897 -2.79765 0
M  V30 505 H 47.4342 3.89807 -2.88407 0
M  V30 506 N 48.7773 0.814389 1.34928 0
M  V30 507 C 49.7403 0.235759 2.27984 0
M  V30 508 C 50.7403 -0.581412 1.49921 0
M  V30 509 O 51.9303 -0.398758 1.69575 0
M  V30 510 C 49.0623 -0.670433 3.34242 0
M  V30 511 H 50.2553 1.05659 2.80671 0
M  V30 512 H 47.8083 0.585614 1.44915 0
M  V30 513 H 48.5433 -1.51466 2.86755 0
M  V30 514 H 48.3283 -0.0860822 3.92005 0
M  V30 515 H 49.8183 -1.06935 4.03676 0
M  V30 516 N 50.2554 -1.46986 0.568584 0
M  V30 517 C 51.1854 -2.32946 -0.160753 0
M  V30 518 C 52.1664 -1.44487 -0.897631 0
M  V30 519 O 53.3514 -1.73327 -0.875867 0
M  V30 520 C 50.4814 -3.26494 -1.18403 0
M  V30 521 C 49.4354 -4.24282 -0.562895 0
M  V30 522 C 48.7614 -5.07236 -1.69163 0
M  V30 523 C 50.0614 -5.19989 0.490761 0
M  V30 524 H 51.7554 -2.94175 0.556916 0
M  V30 525 H 49.3014 -1.4146 0.26927 0
M  V30 526 H 51.2544 -3.85477 -1.70251 0
M  V30 527 H 49.9784 -2.63343 -1.93179 0
M  V30 528 H 48.6374 -3.66541 -0.0656164 0
M  V30 529 H 48.2854 -4.4048 -2.42871 0
M  V30 530 H 47.9854 -5.7345 -1.28174 0
M  V30 531 H 49.5094 -5.6908 -2.21314 0
M  V30 532 H 50.9234 -5.73271 0.0579047 0
M  V30 533 H 49.3204 -5.94469 0.820165 0
M  V30 534 H 50.3904 -4.64777 1.3824 0
M  V30 535 N 51.7335 -0.305618 -1.54608 0
M  V30 536 C 52.6435 0.57778 -2.27374 0
M  V30 537 C 53.6595 1.14451 -1.31061 0
M  V30 538 O 54.8355 1.16831 -1.6405 0
M  V30 539 C 51.9005 1.73123 -3.00382 0
M  V30 540 C 50.9615 1.19812 -4.12242 0
M  V30 541 C 50.1945 2.2966 -4.81759 0
M  V30 542 O 50.4175 3.49651 -4.50666 0
M  V30 543 O 49.3515 1.96091 -5.69062 0
M  V30 544 H 53.1775 -0.012624 -3.03697 0
M  V30 545 H 50.7625 -0.0719184 -1.49227 0
M  V30 546 H 52.6445 2.40315 -3.4616 0
M  V30 547 H 51.3195 2.30815 -2.26949 0
M  V30 548 H 50.2265 0.491798 -3.70853 0
M  V30 549 H 51.5595 0.666566 -4.87666 0
M  V30 550 N 53.2116 1.57565 -0.0334293 0
M  V30 551 C 54.4396 1.9628 0.654347 0
M  V30 552 C 54.8546 0.910138 1.65414 0
M  V30 553 O 54.2116 -0.107595 1.82183 0
M  V30 554 C 54.2626 3.35067 1.35693 0
M  V30 555 O 53.9836 4.36296 0.397191 0
M  V30 556 C 55.4846 3.88439 2.13613 0
M  V30 557 H 52.7046 0.646369 0.180132 0
M  V30 558 H 55.2486 2.04282 -0.0944721 0
M  V30 559 H 53.4036 3.2827 2.05712 0
M  V30 560 H 53.8176 5.1678 0.896597 0
M  V30 561 H 55.2916 4.8788 2.58219 0
M  V30 562 H 55.7686 3.22914 2.97696 0
M  V30 563 H 56.3746 3.98516 1.48543 0
M  V30 564 N 54.6897 -0.239769 1.55765 0
M  V30 565 C 55.9387 -0.964754 1.77131 0
M  V30 566 C 56.2517 -1.86213 0.59868 0
M  V30 567 O 57.4577 -2.6244 0.695522 0
M  V30 568 C 55.9137 -1.76552 3.1362 0
M  V30 569 C 55.5217 -0.915185 4.38553 0
M  V30 570 C 57.2657 -2.48281 3.44321 0
M  V30 571 C 55.1727 -1.71225 5.66071 0
M  V30 572 H 54.1027 -0.363953 0.660344 0
M  V30 573 H 56.7537 -0.219181 1.82186 0
M  V30 574 H 55.1357 -2.55331 3.02691 0
M  V30 575 H 56.3097 -0.169217 4.60489 0
M  V30 576 H 54.6247 -0.310889 4.15238 0
M  V30 577 H 57.2217 -3.08382 4.36812 0
M  V30 578 H 57.5647 -3.20256 2.65973 0
M  V30 579 H 58.0977 -1.76507 3.56497 0
M  V30 580 H 54.8367 -1.03612 6.4726 0
M  V30 581 H 54.3567 -2.43331 5.48224 0
M  V30 582 H 56.0357 -2.27758 6.05587 0
M  V30 583 N 56.1678 -1.49265 -0.50573 0
M  V30 584 C 57.4448 -1.49012 -1.26707 0
M  V30 585 C 57.8248 -0.215205 -2.1 0
M  V30 586 O 57.1728 0.802547 -2.13943 0
M  V30 587 C 57.3828 -2.7663 -2.12783 0
M  V30 588 C 58.7308 -3.25932 -2.72127 0
M  V30 589 O 59.7548 -2.77715 -2.23054 0
M  V30 590 O 58.6138 -4.09897 -3.61451 0
M  V30 591 H 55.7078 -0.596197 -0.57313 0
M  V30 592 H 58.2538 -1.61524 -0.52039 0
M  V30 593 H 57.0258 -3.60916 -1.5118 0
M  V30 594 H 56.6488 -2.66956 -2.94653 0
M  V30 595 N 57.6459 0.756429 -1.3826 0
M  V30 596 C 58.8949 1.51082 -1.3363 0
M  V30 597 C 59.2079 1.95467 0.0720068 0
M  V30 598 O 60.4139 2.7043 0.240834 0
M  V30 599 C 58.8699 2.72893 -2.34644 0
M  V30 600 C 58.4779 2.35544 -3.81081 0
M  V30 601 C 60.2219 3.50791 -2.39052 0
M  V30 602 C 58.1289 3.53948 -4.73787 0
M  V30 603 H 57.0589 0.56727 -0.49671 0
M  V30 604 H 59.7099 0.827147 -1.638 0
M  V30 605 H 58.0919 3.43227 -1.97513 0
M  V30 606 H 59.2659 1.72894 -4.27135 0
M  V30 607 H 57.5809 1.70786 -3.79764 0
M  V30 608 H 60.1779 4.38823 -3.05513 0
M  V30 609 H 60.5209 3.91745 -1.40861 0
M  V30 610 H 61.0539 2.87467 -2.74968 0
M  V30 611 H 57.7929 3.18064 -5.73163 0
M  V30 612 H 57.3129 4.15651 -4.32428 0
M  V30 613 H 58.9919 4.20566 -4.91663 0
M  V30 614 N 59.124 1.23083 0.984299 0
M  V30 615 C 60.072 1.00593 2.09723 0
M  V30 616 C 61.066 -0.0538014 1.69315 0
M  V30 617 O 62.272 0.0993719 1.79725 0
M  V30 618 H 58.647 0.30817 0.685956 0
M  V30 619 H 60.618 1.95012 2.2586 0
M  V30 620 C 59.367 0.609601 3.42314 0
M  V30 621 H 58.69 1.41675 3.73856 0
M  V30 622 H 60.13 0.491726 4.21139 0
M  V30 623 C 58.589 -0.681745 3.2993 0
M  V30 624 O 59.119 -1.73192 3.62446 0
M  V30 625 N 57.325 -0.656178 2.83095 0
M  V30 626 H 56.872 0.198759 2.56832 0
M  V30 627 H 56.83 -1.52044 2.75191 0
M  V30 628 N 60.6021 -1.18246 1.0419 0
M  V30 629 C 61.5491 -2.2192 0.634037 0
M  V30 630 C 62.5191 -1.62179 -0.358765 0
M  V30 631 O 63.7041 -1.89122 -0.252466 0
M  V30 632 C 60.8441 -3.451 0.00445535 0
M  V30 633 C 59.9571 -4.19174 1.04487 0
M  V30 634 C 59.0921 -5.29813 0.383676 0
M  V30 635 C 58.1311 -5.9566 1.4091 0
M  V30 636 N 57.2681 -6.97834 0.772784 0
M  V30 637 H 62.1081 -2.56164 1.52263 0
M  V30 638 H 59.6451 -1.25843 0.761701 0
M  V30 639 H 61.6031 -4.15485 -0.377919 0
M  V30 640 H 60.2331 -3.11472 -0.847652 0
M  V30 641 H 59.2851 -3.47604 1.54518 0
M  V30 642 H 60.5971 -4.64267 1.82368 0
M  V30 643 H 59.7511 -6.06677 -0.0528366 0
M  V30 644 H 58.4901 -4.85825 -0.427208 0
M  V30 645 H 57.4951 -5.17535 1.85574 0
M  V30 646 H 58.7201 -6.4173 2.22171 0
M  V30 647 H 56.6661 -6.55998 -0.0177708 0
M  V30 648 H 56.5831 -7.41186 1.48928 0
M  V30 649 H 57.8511 -7.78665 0.36071 0
M  V30 650 N 62.0802 -0.821533 -1.34494 0
M  V30 651 C 63.3572 -0.33159 -1.92769 0
M  V30 652 C 63.7372 1.18088 -1.74981 0
M  V30 653 O 63.0852 1.98733 -1.12772 0
M  V30 654 C 63.2952 -0.759398 -3.40638 0
M  V30 655 C 64.6432 -0.757433 -4.1779 0
M  V30 656 O 65.6672 -0.70189 -3.49216 0
M  V30 657 O 64.5262 -0.829361 -5.4017 0
M  V30 658 H 61.6202 -0.0902502 -0.822061 0
M  V30 659 H 64.1662 -0.906231 -1.43477 0
M  V30 660 H 62.9382 -1.8012 -3.47379 0
M  V30 661 H 62.5612 -0.160378 -3.97276 0
M  V30 662 N 63.5583 1.46682 -0.576371 0
M  V30 663 C 64.9693 1.86112 -0.148091 0
M  V30 664 C 65.3203 1.48073 1.2872 0
M  V30 665 O 64.4453 0.892656 1.97131 0
M  V30 666 C 65.0403 3.37786 -0.261982 0
M  V30 667 C 63.5993 3.76235 0.111384 0
M  V30 668 C 62.7463 2.70713 -0.60083 0
M  V30 669 H 65.6973 1.37927 -0.78497 0
M  V30 670 H 65.7183 3.77007 0.514364 0
M  V30 671 H 65.2303 3.6544 -1.30671 0
M  V30 672 H 63.3313 3.54198 1.15649 0
M  V30 673 H 63.4443 4.78391 -0.26052 0
M  V30 674 H 61.8083 2.54666 -0.0417783 0
M  V30 675 H 62.5913 3.01208 -1.64708 0
M  V30 676 N 65.0364 0.313813 1.54444 0
M  V30 677 C 66.2664 -0.293491 2.04505 0
M  V30 678 C 66.6744 -1.47086 1.19005 0
M  V30 679 O 66.0174 -1.82481 0.211257 0
M  V30 680 C 66.0794 -0.800455 3.50475 0
M  V30 681 C 65.7434 0.253322 4.56297 0
M  V30 682 C 66.7404 1.08612 5.08428 0
M  V30 683 C 64.4254 0.398708 5.00715 0
M  V30 684 C 66.4194 2.05013 6.0353 0
M  V30 685 C 64.1064 1.36614 5.95634 0
M  V30 686 C 65.1044 2.19033 6.46926 0
M  V30 687 O 64.7924 3.14134 7.39983 0
M  V30 688 H 64.5244 -0.0658325 0.672787 0
M  V30 689 H 67.0784 0.455177 2.00293 0
M  V30 690 H 65.3084 -1.59987 3.52053 0
M  V30 691 H 66.9974 -1.32504 3.83663 0
M  V30 692 H 67.7634 0.984736 4.74898 0
M  V30 693 H 63.6424 -0.23289 4.60411 0
M  V30 694 H 67.1864 2.69382 6.4349 0
M  V30 695 H 63.0834 1.4682 6.28581 0
M  V30 696 H 63.8514 3.0926 7.57826 0
M  V30 697 N 66.5145 -1.57545 0.0417849 0
M  V30 698 C 67.7615 -1.92317 -0.634082 0
M  V30 699 C 68.0895 -0.919334 -1.71402 0
M  V30 700 O 67.3445 0.0698253 -1.95575 0
M  V30 701 C 67.6435 -3.33794 -1.27735 0
M  V30 702 C 67.3095 -4.49716 -0.326543 0
M  V30 703 C 65.9715 -4.81156 -0.0648814 0
M  V30 704 C 68.3235 -5.20182 0.325623 0
M  V30 705 C 65.6515 -5.80414 0.856539 0
M  V30 706 C 68.0035 -6.20424 1.23518 0
M  V30 707 C 66.6675 -6.50298 1.5056 0
M  V30 708 H 65.9375 -0.703736 -0.232027 0
M  V30 709 H 68.5845 -1.91205 0.106259 0
M  V30 710 H 66.8895 -3.31228 -2.09274 0
M  V30 711 H 68.5865 -3.57975 -1.80707 0
M  V30 712 H 65.1765 -4.25176 -0.540665 0
M  V30 713 H 69.3605 -4.96112 0.136546 0
M  V30 714 H 64.6165 -6.019 1.07363 0
M  V30 715 H 68.7905 -6.74141 1.74664 0
M  V30 716 H 66.4175 -7.27025 2.22123 0
M  V30 717 N 67.9926 0.231505 -1.5589 0
M  V30 718 C 68.9256 1.31369 -1.86595 0
M  V30 719 C 69.9036 1.45671 -0.722397 0
M  V30 720 O 71.0876 1.61642 -0.969743 0
M  V30 721 C 68.2146 2.68529 -2.06421 0
M  V30 722 C 67.2606 2.71295 -3.29092 0
M  V30 723 S 68.0936 2.26358 -4.85306 0
M  V30 724 C 69.2496 3.65414 -5.08157 0
M  V30 725 H 69.4826 1.05128 -2.78092 0
M  V30 726 H 67.0156 0.433259 -1.48197 0
M  V30 727 H 68.9736 3.47499 -2.18528 0
M  V30 728 H 67.6346 2.91999 -1.15738 0
M  V30 729 H 66.8276 3.72063 -3.39978 0
M  V30 730 H 66.4296 2.0038 -3.15791 0
M  V30 731 H 68.7216 4.6103 -4.96445 0
M  V30 732 H 69.6646 3.5945 -6.10083 0
M  V30 733 H 70.0726 3.5864 -4.35933 0
M  V30 734 N 69.4707 1.49531 0.497807 0
M  V30 735 C 70.4177 1.66436 1.59899 0
M  V30 736 C 71.3877 0.505793 1.58212 0
M  V30 737 O 72.5727 0.733202 1.7615 0
M  V30 738 C 69.7127 1.7399 2.98029 0
M  V30 739 C 68.8257 3.01172 3.09708 0
M  V30 740 C 67.9607 2.99686 4.38591 0
M  V30 741 C 66.9997 4.21434 4.43914 0
M  V30 742 N 66.1367 4.1784 5.64229 0
M  V30 743 H 70.9767 2.60459 1.44793 0
M  V30 744 H 68.5137 1.29137 0.704423 0
M  V30 745 H 70.4717 1.76352 3.78095 0
M  V30 746 H 69.1017 0.834301 3.11832 0
M  V30 747 H 68.1537 3.08408 2.22685 0
M  V30 748 H 69.4657 3.91165 3.09502 0
M  V30 749 H 68.6197 3.00628 5.2698 0
M  V30 750 H 67.3587 2.07477 4.41367 0
M  V30 751 H 66.3637 4.20733 3.53926 0
M  V30 752 H 67.5887 5.14839 4.42851 0
M  V30 753 H 65.5347 3.28469 5.67841 0
M  V30 754 H 65.4517 5.01571 5.65652 0
M  V30 755 H 66.7197 4.22889 6.54817 0
M  V30 756 N 70.9488 -0.749086 1.3866 0
M  V30 757 C 71.8968 -1.88428 1.36373 0
M  V30 758 C 72.8908 -1.67561 0.248929 0
M  V30 759 O 74.0968 -1.75074 0.41821 0
M  V30 760 H 70.4718 -0.620023 0.42553 0
M  V30 761 H 72.4428 -1.87473 2.32156 0
M  V30 762 C 71.1918 -3.25961 1.21014 0
M  V30 763 H 70.5148 -3.42607 2.06059 0
M  V30 764 H 71.9548 -4.05625 1.23469 0
M  V30 765 C 70.4138 -3.36799 -0.0825941 0
M  V30 766 O 70.9438 -3.87517 -1.05797 0
M  V30 767 N 69.1498 -2.90258 -0.140939 0
M  V30 768 H 68.6968 -2.49174 0.653477 0
M  V30 769 H 68.6548 -2.97889 -1.00545 0
M  V30 770 N 72.4269 -1.23603 -0.977757 0
M  V30 771 C 73.3769 -0.986664 -2.05545 0
M  V30 772 C 74.3609 0.0683009 -1.60755 0
M  V30 773 O 75.5529 -0.144162 -1.76412 0
M  V30 774 C 72.6819 -0.582623 -3.3832 0
M  V30 775 C 71.7679 -1.67313 -3.89701 0
M  V30 776 N 72.1589 -2.90394 -4.14132 0
M  V30 777 C 70.4569 -1.54832 -4.18262 0
M  V30 778 C 71.1579 -3.61017 -4.56116 0
M  V30 779 N 70.1339 -2.8854 -4.60701 0
M  V30 780 H 73.9359 -1.92139 -2.22396 0
M  V30 781 H 71.4499 -1.1358 -1.16074 0
M  V30 782 H 73.4469 -0.38524 -4.15116 0
M  V30 783 H 72.1069 0.34503 -3.22862 0
M  V30 784 H 73.1179 -3.26673 -4.01877 0
M  V30 785 H 69.7949 -0.687969 -4.11793 0
M  V30 786 H 71.1849 -4.66544 -4.83514 0
M  V30 787 N 73.905 1.17692 -1.04816 0
M  V30 788 C 74.835 2.23777 -0.666791 0
M  V30 789 C 75.816 1.66796 0.33361 0
M  V30 790 O 77.001 1.93039 0.212042 0
M  V30 791 C 74.131 3.47281 -0.0367933 0
M  V30 792 C 73.085 4.17059 -0.961546 0
M  V30 793 C 72.411 5.34342 -0.195626 0
M  V30 794 C 73.711 4.69713 -2.28402 0
M  V30 795 H 75.405 2.55933 -1.55367 0
M  V30 796 H 72.951 1.23019 -0.748484 0
M  V30 797 H 74.904 4.20706 0.241775 0
M  V30 798 H 73.628 3.14381 0.885004 0
M  V30 799 H 72.287 3.45541 -1.22462 0
M  V30 800 H 71.935 4.97692 0.728816 0
M  V30 801 H 71.635 5.81966 -0.811775 0
M  V30 802 H 73.159 6.10553 0.0757473 0
M  V30 803 H 74.573 5.34794 -2.06563 0
M  V30 804 H 72.97 5.279 -2.8538 0
M  V30 805 H 74.04 3.86726 -2.92525 0
M  V30 806 N 75.3831 0.828654 1.34056 0
M  V30 807 C 76.6311 0.41863 1.97717 0
M  V30 808 C 76.9521 -1.02314 1.66002 0
M  V30 809 O 76.2221 -1.71119 0.953683 0
M  V30 810 H 74.8021 0.151809 0.731412 0
M  V30 811 H 77.4641 1.05936 1.63596 0
M  V30 812 H 76.5601 0.542318 3.07352 0
M  V30 813 N 76.8612 -1.46375 0.584142 0
M  V30 814 C 78.0862 -2.07268 0.0740405 0
M  V30 815 C 78.5112 -1.42979 -1.22223 0
M  V30 816 O 77.8692 -0.514092 -1.73859 0
M  V30 817 C 77.9172 -3.60518 -0.0767769 0
M  V30 818 O 77.0212 -3.96533 -1.13292 0
M  V30 819 H 76.3622 -0.660961 0.0634524 0
M  V30 820 H 78.8922 -1.87991 0.807492 0
M  V30 821 H 78.9022 -4.07021 -0.282489 0
M  V30 822 H 77.5772 -4.06702 0.86986 0
M  V30 823 H 76.1542 -3.61738 -0.905553 0
M  V30 824 N 78.3393 -0.321999 -1.54275 0
M  V30 825 C 79.5693 0.282642 -2.04658 0
M  V30 826 C 79.9773 1.46453 -1.19784 0
M  V30 827 O 79.3203 1.82367 -0.220932 0
M  V30 828 C 79.3823 0.781857 -3.50895 0
M  V30 829 C 79.0463 -0.277517 -4.56157 0
M  V30 830 C 80.0433 -1.11307 -5.07845 0
M  V30 831 C 77.7283 -0.425256 -5.00497 0
M  V30 832 C 79.7223 -2.08211 -6.02434 0
M  V30 833 C 77.4093 -1.39771 -5.94901 0
M  V30 834 C 78.4073 -2.2246 -6.45756 0
M  V30 835 O 78.0953 -3.18054 -7.38307 0
M  V30 836 H 77.8273 0.0622636 -0.673126 0
M  V30 837 H 80.3813 -0.465792 -2.00049 0
M  V30 838 H 78.6113 1.58118 -3.52896 0
M  V30 839 H 80.3003 1.30467 -3.84361 0
M  V30 840 H 81.0663 -1.00991 -4.74369 0
M  V30 841 H 76.9453 0.20847 -4.60528 0
M  V30 842 H 80.4893 -2.72791 -6.42052 0
M  V30 843 H 76.3863 -1.50152 -6.27794 0
M  V30 844 H 77.1543 -3.13275 -7.56175 0
M  V30 845 N 79.8174 1.5752 -0.0501392 0
M  V30 846 C 80.7274 2.14952 0.939827 0
M  V30 847 C 81.7434 1.10706 1.34239 0
M  V30 848 O 82.9194 1.42869 1.41952 0
M  V30 849 C 79.9844 2.68232 2.19665 0
M  V30 850 C 79.0454 3.87272 1.85253 0
M  V30 851 C 78.2784 4.38002 3.04943 0
M  V30 852 O 78.5014 3.87811 4.18281 0
M  V30 853 O 77.4354 5.29602 2.86017 0
M  V30 854 H 81.2614 2.9986 0.481392 0
M  V30 855 H 78.8464 1.4841 0.171699 0
M  V30 856 H 80.7284 3.02475 2.93406 0
M  V30 857 H 79.4034 1.86395 2.64648 0
M  V30 858 H 78.3104 3.5792 1.0883 0
M  V30 859 H 79.6434 4.70336 1.4507 0
M  V30 860 N 81.2955 -0.223234 1.56011 0
M  V30 861 C 82.5355 -0.954962 1.8072 0
M  V30 862 C 82.8995 -1.81598 0.623384 0
M  V30 863 O 84.1005 -2.58132 0.749745 0
M  V30 864 C 82.3715 -1.77313 3.10314 0
M  V30 865 S 83.9305 -2.56073 3.56332 0
M  V30 866 H 80.7485 -0.320812 0.634508 0
M  V30 867 H 83.3505 -0.220686 1.9425 0
M  V30 868 H 82.0545 -1.13071 3.94516 0
M  V30 869 H 81.5855 -2.54974 2.99586 0
M  V30 870 H 83.6005 -3.79619 3.19536 0
M  V30 871 N 82.7736 -1.49793 -0.48987 0
M  V30 872 C 83.7206 -1.67281 -1.59014 0
M  V30 873 C 84.6906 -0.514177 -1.57941 0
M  V30 874 O 85.8756 -0.742533 -1.75759 0
M  V30 875 C 83.0156 -1.75569 -2.97102 0
M  V30 876 C 82.1286 -3.0281 -3.08107 0
M  V30 877 C 81.2636 -3.02008 -4.36995 0
M  V30 878 C 80.3026 -4.23782 -4.41673 0
M  V30 879 N 79.4396 -4.20826 -5.62005 0
M  V30 880 H 84.2796 -2.61224 -1.43409 0
M  V30 881 H 81.8166 -1.29508 -0.697565 0
M  V30 882 H 83.7746 -1.78354 -3.77155 0
M  V30 883 H 82.4046 -0.850827 -3.11385 0
M  V30 884 H 81.4566 -3.09584 -2.21047 0
M  V30 885 H 82.7686 -3.92801 -3.07423 0
M  V30 886 H 81.9226 -3.03418 -5.25378 0
M  V30 887 H 80.6616 -2.09815 -4.4026 0
M  V30 888 H 79.6666 -4.22604 -3.5169 0
M  V30 889 H 80.8916 -5.17181 -4.40115 0
M  V30 890 H 78.8376 -3.31476 -5.66091 0
M  V30 891 H 78.7546 -5.04564 -5.62984 0
M  V30 892 H 80.0226 -4.26355 -6.52565 0
M  V30 893 N 84.2517 0.741722 -1.39055 0
M  V30 894 C 85.1817 1.869 -1.39966 0
M  V30 895 C 86.1627 1.6804 -0.26392 0
M  V30 896 O 87.3477 1.88458 -0.468755 0
M  V30 897 C 84.4777 3.24572 -1.23574 0
M  V30 898 C 83.4317 3.58056 -2.34477 0
M  V30 899 C 82.7577 4.94593 -2.0318 0
M  V30 900 C 84.0577 3.61716 -3.76774 0
M  V30 901 H 85.7517 1.86395 -2.34302 0
M  V30 902 H 83.2977 0.895361 -1.1278 0
M  V30 903 H 85.2507 4.031 -1.22834 0
M  V30 904 H 83.9747 3.25587 -0.257045 0
M  V30 905 H 82.6337 2.81854 -2.34423 0
M  V30 906 H 82.2817 4.92181 -1.03765 0
M  V30 907 H 81.9817 5.17964 -2.77465 0
M  V30 908 H 83.5057 5.75486 -2.04079 0
M  V30 909 H 84.9197 4.30335 -3.78794 0
M  V30 910 H 83.3167 3.96603 -4.50362 0
M  V30 911 H 84.3867 2.61672 -4.08235 0
M  V30 912 N 85.7298 1.2412 0.971189 0
M  V30 913 C 86.9698 1.09066 1.7287 0
M  V30 914 C 87.3338 -0.364794 1.88503 0
M  V30 915 O 88.5348 -0.636748 2.61149 0
M  V30 916 C 86.8058 1.80629 3.08396 0
M  V30 917 S 88.3648 1.81263 3.99611 0
M  V30 918 H 85.1828 0.390145 0.594397 0
M  V30 919 H 87.7848 1.57397 1.15959 0
M  V30 920 H 86.4888 2.85647 2.94676 0
M  V30 921 H 86.0198 1.32617 3.70373 0
M  V30 922 H 88.0348 0.877804 4.88374 0
M  V30 923 N 87.2079 -1.17134 1.05439 0
M  V30 924 C 88.1379 -2.2342 0.678649 0
M  V30 925 C 89.1189 -1.66971 -0.32476 0
M  V30 926 O 90.3039 -1.93149 -0.201802 0
M  V30 927 C 87.4339 -3.47256 0.0552099 0
M  V30 928 C 86.3879 -4.16543 0.98365 0
M  V30 929 C 85.7139 -5.34231 0.223961 0
M  V30 930 C 87.0139 -4.68495 2.3089 0
M  V30 931 H 88.7079 -2.55105 1.56722 0
M  V30 932 H 86.2539 -1.2262 0.754998 0
M  V30 933 H 88.2069 -4.20828 -0.21946 0
M  V30 934 H 86.9309 -3.14846 -0.868319 0
M  V30 935 H 85.5899 -3.44887 1.24293 0
M  V30 936 H 85.2379 -4.98071 -0.702412 0
M  V30 937 H 84.9379 -5.81527 0.842627 0
M  V30 938 H 86.4619 -6.10585 -0.0433671 0
M  V30 939 H 87.8759 -5.33691 2.09396 0
M  V30 940 H 86.2729 -5.26379 2.88176 0
M  V30 941 H 87.3429 -3.85169 2.94572 0
M  V30 942 N 88.686 -0.835752 -1.33615 0
M  V30 943 C 89.914 -0.443344 -2.02094 0
M  V30 944 C 90.329 0.954522 -1.62894 0
M  V30 945 O 89.686 1.61982 -0.840723 0
M  V30 946 C 89.737 -0.550775 -3.5728 0
M  V30 947 O 89.458 -1.89356 -3.95065 0
M  V30 948 C 90.959 -0.154919 -4.43029 0
M  V30 949 H 88.179 -0.176359 -0.647409 0
M  V30 950 H 90.723 -1.12746 -1.70612 0
M  V30 951 H 88.878 0.0853997 -3.87306 0
M  V30 952 H 89.292 -1.87687 -4.89769 0
M  V30 953 H 90.766 -0.281144 -5.51284 0
M  V30 954 H 91.243 0.902863 -4.2982 0
M  V30 955 H 91.849 -0.765404 -4.18356 0
M  V30 956 N 90.1641 1.46063 -0.591896 0
M  V30 957 C 91.0941 2.33172 0.123673 0
M  V30 958 C 92.0751 1.45897 0.87453 0
M  V30 959 O 93.2601 1.74698 0.848181 0
M  V30 960 C 90.3901 3.28336 1.13194 0
M  V30 961 C 89.3441 4.25124 0.495324 0
M  V30 962 C 88.6701 5.09863 1.61071 0
M  V30 963 C 89.9701 5.19143 -0.573425 0
M  V30 964 H 91.6641 2.93252 -0.603646 0
M  V30 965 H 89.2101 1.41014 -0.291741 0
M  V30 966 H 91.1631 3.88137 1.64097 0
M  V30 967 H 89.8871 2.66383 1.88965 0
M  V30 968 H 88.5461 3.66599 0.00729452 0
M  V30 969 H 88.1941 4.44288 2.35832 0
M  V30 970 H 87.8941 5.75417 1.19035 0
M  V30 971 H 89.4181 5.72529 2.12233 0
M  V30 972 H 90.8321 5.73106 -0.1491 0
M  V30 973 H 89.2291 5.93089 -0.914636 0
M  V30 974 H 90.2991 4.62519 -1.45617 0
M  V30 975 N 91.6422 0.330177 1.54103 0
M  V30 976 C 92.5922 -0.548456 2.21305 0
M  V30 977 C 93.5762 -1.07651 1.19583 0
M  V30 978 O 94.7682 -1.01243 1.45186 0
M  V30 979 C 91.8972 -1.70559 2.97934 0
M  V30 980 C 90.9832 -1.19212 4.07 0
M  V30 981 N 91.3742 -0.398831 5.04225 0
M  V30 982 C 89.6722 -1.47024 4.2107 0
M  V30 983 C 90.3732 -0.121761 5.81573 0
M  V30 984 N 89.3492 -0.709722 5.38947 0
M  V30 985 H 93.1512 0.0648483 2.93828 0
M  V30 986 H 90.6652 0.136363 1.61826 0
M  V30 987 H 92.6622 -2.34688 3.44568 0
M  V30 988 H 91.3222 -2.32231 2.26934 0
M  V30 989 H 92.3332 -0.0410869 5.17884 0
M  V30 990 H 89.0102 -2.09232 3.61287 0
M  V30 991 H 90.4002 0.517298 6.69906 0
M  V30 992 N 93.1203 -1.57491 0.0584922 0
M  V30 993 C 94.0683 -2.13148 -0.931168 0
M  V30 994 C 95.0623 -1.06507 -1.31729 0
M  V30 995 O 96.2683 -1.24906 -1.29609 0
M  V30 996 H 92.6433 -0.68137 -0.31818 0
M  V30 997 H 94.6143 -2.95187 -0.436707 0
M  V30 998 C 93.3633 -2.69732 -2.19408 0
M  V30 999 H 92.6863 -3.51454 -1.90578 0
M  V30 1000 H 94.1263 -3.12287 -2.86798 0
M  V30 1001 C 92.5853 -1.63855 -2.94369 0
M  V30 1002 O 93.1153 -1.05565 -3.87581 0
M  V30 1003 N 91.3213 -1.35202 -2.57233 0
M  V30 1004 H 90.8683 -1.82791 -1.81508 0
M  V30 1005 H 90.8263 -0.645922 -3.07693 0
M  V30 1006 N 94.5984 0.214957 -1.56127 0
M  V30 1007 C 95.5464 1.28601 -1.93816 0
M  V30 1008 C 96.5404 1.48175 -0.821016 0
M  V30 1009 O 97.7464 1.49271 -1.0059 0
M  V30 1010 H 94.1214 0.431302 -0.616022 0
M  V30 1011 H 96.0924 0.940991 -2.83175 0
M  V30 1012 C 94.8414 2.62779 -2.27689 0
M  V30 1013 H 94.1644 2.48527 -3.13168 0
M  V30 1014 H 95.6044 3.36517 -2.57939 0
M  V30 1015 C 94.0634 3.18285 -1.10436 0
M  V30 1016 O 94.5934 4.00002 -0.368945 0
M  V30 1017 N 92.7994 2.7675 -0.886433 0
M  V30 1018 H 92.3464 2.10404 -1.48619 0
M  V30 1019 H 92.3044 3.14229 -0.103656 0
M  V30 1020 N 96.0765 1.50051 0.48192 0
M  V30 1021 C 96.9865 1.7089 1.60728 0
M  V30 1022 C 98.0025 0.591788 1.63627 0
M  V30 1023 O 99.1785 0.868817 1.81696 0
M  V30 1024 C 96.2435 1.78855 2.97005 0
M  V30 1025 C 95.3045 3.02537 3.04581 0
M  V30 1026 C 94.5375 3.10112 4.34357 0
M  V30 1027 O 94.7605 2.24765 5.24249 0
M  V30 1028 O 93.6945 4.02747 4.47301 0
M  V30 1029 H 97.5205 2.66264 1.46072 0
M  V30 1030 H 95.1055 1.34018 0.660264 0
M  V30 1031 H 96.9875 1.86336 3.77964 0
M  V30 1032 H 95.6625 0.866628 3.11883 0
M  V30 1033 H 94.5695 3.00563 2.22739 0
M  V30 1034 H 95.9025 3.94272 2.94636 0
M  V30 1035 N 97.5546 -0.734337 1.39446 0
M  V30 1036 C 98.8026 -1.49096 1.36436 0
M  V30 1037 C 99.1236 -1.94961 -0.0388255 0
M  V30 1038 O 98.3936 -1.69033 -0.990191 0
M  V30 1039 H 96.9736 -0.5531 0.502085 0
M  V30 1040 H 99.6356 -0.871725 1.74319 0
M  V30 1041 H 98.7316 -2.37276 2.02747 0
M  V30 1042 N 99.0327 -1.24633 -0.964593 0
M  V30 1043 C 100.258 -1.11596 -1.74818 0
M  V30 1044 C 100.683 0.32723 -1.85232 0
M  V30 1045 O 100.041 1.23695 -1.32549 0
M  V30 1046 C 100.089 -1.76397 -3.1451 0
M  V30 1047 O 99.1927 -1.03685 -3.99153 0
M  V30 1048 H 98.5337 -0.390196 -0.537255 0
M  V30 1049 H 101.064 -1.65002 -1.20977 0
M  V30 1050 H 101.074 -1.8228 -3.65018 0
M  V30 1051 H 99.7487 -2.81401 -3.06246 0
M  V30 1052 H 98.3257 -1.05611 -3.57632 0
M  V30 1053 N 100.511 1.16574 -1.06058 0
M  V30 1054 C 101.741 1.90675 -0.795397 0
M  V30 1055 C 102.149 1.77547 0.653735 0
M  V30 1056 O 101.492 1.11611 1.45907 0
M  V30 1057 C 101.554 3.42011 -1.10764 0
M  V30 1058 C 101.218 3.78924 -2.55471 0
M  V30 1059 C 102.215 3.81042 -3.53699 0
M  V30 1060 C 99.8998 4.09626 -2.90708 0
M  V30 1061 C 101.894 4.13346 -4.85205 0
M  V30 1062 C 99.5808 4.41597 -4.22416 0
M  V30 1063 C 100.579 4.43436 -5.19474 0
M  V30 1064 O 100.267 4.74649 -6.48817 0
M  V30 1065 H 99.9988 0.611554 -0.288058 0
M  V30 1066 H 102.553 1.48711 -1.41683 0
M  V30 1067 H 100.783 3.84312 -0.429128 0
M  V30 1068 H 102.472 3.97384 -0.827077 0
M  V30 1069 H 103.238 3.57437 -3.27817 0
M  V30 1070 H 99.1168 4.07361 -2.15819 0
M  V30 1071 H 102.661 4.14696 -5.60957 0
M  V30 1072 H 98.5578 4.64667 -4.48056 0
M  V30 1073 H 99.3258 4.9247 -6.5377 0
M  V30 1074 N 101.989 0.842826 1.3317 0
M  V30 1075 C 102.919 0.294028 2.31641 0
M  V30 1076 C 103.9 -0.600401 1.59151 0
M  V30 1077 O 105.085 -0.523124 1.87022 0
M  V30 1078 C 102.215 -0.528416 3.43257 0
M  V30 1079 C 101.169 0.27056 4.27144 0
M  V30 1080 C 100.495 -0.675881 5.30411 0
M  V30 1081 C 101.795 1.48981 5.00602 0
M  V30 1082 H 103.489 1.11681 2.77791 0
M  V30 1083 H 101.035 0.538478 1.33553 0
M  V30 1084 H 102.988 -0.922674 4.11175 0
M  V30 1085 H 101.712 -1.38445 2.95805 0
M  V30 1086 H 100.371 0.646427 3.60856 0
M  V30 1087 H 100.019 -1.52842 4.79216 0
M  V30 1088 H 99.7189 -0.145374 5.8742 0
M  V30 1089 H 101.243 -1.06757 6.01195 0
M  V30 1090 H 102.657 1.16849 5.61266 0
M  V30 1091 H 101.054 1.95739 5.6728 0
M  V30 1092 H 102.124 2.25746 4.29147 0
M  V30 1093 N 103.467 -1.45747 0.599634 0
M  V30 1094 C 104.43 -2.28917 -0.113835 0
M  V30 1095 C 105.43 -1.3933 -0.802729 0
M  V30 1096 O 106.62 -1.61534 -0.652103 0
M  V30 1097 C 103.752 -3.20152 -1.17114 0
M  V30 1098 H 104.945 -2.93478 0.617289 0
M  V30 1099 H 102.498 -1.52137 0.358327 0
M  V30 1100 H 103.233 -2.60374 -1.93329 0
M  V30 1101 H 103.018 -3.86133 -0.681468 0
M  V30 1102 H 104.508 -3.82708 -1.67105 0
M  V30 1103 N 104.945 -0.338344 -1.53925 0
M  V30 1104 C 105.895 0.536712 -2.21593 0
M  V30 1105 C 106.879 1.07015 -1.20153 0
M  V30 1106 O 108.071 1.00471 -1.45721 0
M  V30 1107 C 105.2 1.68977 -2.98834 0
M  V30 1108 C 104.286 1.17052 -4.07627 0
M  V30 1109 N 104.677 0.372085 -5.0443 0
M  V30 1110 C 102.975 1.44789 -4.21844 0
M  V30 1111 C 103.676 0.0909171 -5.81629 0
M  V30 1112 N 102.652 0.681131 -5.39316 0
M  V30 1113 H 106.454 -0.0804298 -2.9379 0
M  V30 1114 H 103.968 -0.144943 -1.61752 0
M  V30 1115 H 105.965 2.32857 -3.45808 0
M  V30 1116 H 104.625 2.31024 -2.28162 0
M  V30 1117 H 105.636 0.0136217 -5.17898 0
M  V30 1118 H 102.313 2.07313 -3.62391 0
M  V30 1119 H 103.703 -0.552817 -6.69622 0
M  V30 1120 N 106.423 1.57458 -0.0668435 0
M  V30 1121 C 107.651 1.97624 0.612565 0
M  V30 1122 C 108.066 0.94502 1.63447 0
M  V30 1123 O 107.423 -0.0689276 1.8237 0
M  V30 1124 C 107.474 3.37869 1.28555 0
M  V30 1125 O 107.195 4.3704 0.304557 0
M  V30 1126 C 108.696 3.92882 2.05325 0
M  V30 1127 H 105.916 0.650045 0.166381 0
M  V30 1128 H 108.46 2.04035 -0.137782 0
M  V30 1129 H 106.615 3.3256 1.98702 0
M  V30 1130 H 107.029 5.18565 0.786779 0
M  V30 1131 H 108.503 4.93247 2.47812 0
M  V30 1132 H 108.98 3.29156 2.9078 0
M  V30 1133 H 109.586 4.01577 1.40056 0
M  V30 1134 N 107.901 -0.206675 1.56239 0
M  V30 1135 C 108.833 -1.27997 1.9013 0
M  V30 1136 C 109.846 -1.42299 0.790883 0
M  V30 1137 O 111.035 -1.42931 1.06925 0
M  V30 1138 C 108.135 -2.65368 2.10792 0
M  V30 1139 C 107.308 -2.72824 3.41886 0
M  V30 1140 C 106.367 -3.9131 3.51799 0
M  V30 1141 O 105.393 -3.78953 4.24716 0
M  V30 1142 N 106.595 -5.06265 2.84035 0
M  V30 1143 H 109.36 -0.992444 2.82791 0
M  V30 1144 H 106.921 -0.396652 1.56966 0
M  V30 1145 H 108.913 -3.43039 2.14724 0
M  V30 1146 H 107.483 -2.86657 1.24685 0
M  V30 1147 H 106.703 -1.81515 3.49923 0
M  V30 1148 H 107.991 -2.74786 4.28217 0
M  V30 1149 H 107.389 -5.19203 2.246 0
M  V30 1150 H 105.946 -5.81925 2.93609 0
M  V30 1151 N 109.379 -1.50304 -0.473955 0
M  V30 1152 C 110.627 -1.60832 -1.22382 0
M  V30 1153 C 110.948 -0.30939 -1.9253 0
M  V30 1154 O 110.218 0.67296 -1.83978 0
M  V30 1155 H 108.798 -0.592652 -0.454723 0
M  V30 1156 H 111.46 -1.87068 -0.546968 0
M  V30 1157 H 110.556 -2.41803 -1.97327 0
M  V30 1158 N 110.857 0.726932 -1.39834 0
M  V30 1159 C 111.804 1.841 -1.39197 0
M  V30 1160 C 112.774 1.642 -0.250502 0
M  V30 1161 O 113.959 1.85494 -0.446846 0
M  V30 1162 C 111.099 3.21697 -1.24919 0
M  V30 1163 C 110.212 3.53247 -2.48678 0
M  V30 1164 C 109.347 4.80289 -2.26928 0
M  V30 1165 C 108.386 5.04707 -3.4632 0
M  V30 1166 N 107.523 6.22956 -3.23836 0
M  V30 1167 H 112.363 1.83979 -2.34427 0
M  V30 1168 H 109.9 0.898876 -1.16442 0
M  V30 1169 H 111.858 4.01137 -1.1465 0
M  V30 1170 H 110.488 3.21076 -0.333153 0
M  V30 1171 H 109.54 2.68447 -2.69519 0
M  V30 1172 H 110.852 3.67205 -3.37582 0
M  V30 1173 H 110.006 5.67725 -2.13947 0
M  V30 1174 H 108.745 4.68519 -1.35431 0
M  V30 1175 H 107.75 4.1573 -3.5979 0
M  V30 1176 H 108.975 5.18357 -4.38729 0
M  V30 1177 H 106.921 6.12459 -2.35011 0
M  V30 1178 H 106.838 6.37539 -4.063 0
M  V30 1179 H 108.106 7.1321 -3.14566 0
M  V30 1180 N 112.336 1.25143 0.95797 0
M  V30 1181 C 113.283 1.05235 2.05412 0
M  V30 1182 C 114.253 -0.0374561 1.66058 0
M  V30 1183 O 115.438 0.119073 1.90428 0
M  V30 1184 C 112.578 0.673589 3.38462 0
M  V30 1185 C 111.691 1.8379 3.90954 0
M  V30 1186 C 110.826 1.40381 5.12315 0
M  V30 1187 C 109.865 2.53746 5.57027 0
M  V30 1188 N 109.002 2.11136 6.69601 0
M  V30 1189 H 113.842 1.99048 2.21774 0
M  V30 1190 H 111.379 0.991277 1.08683 0
M  V30 1191 H 113.337 0.434964 4.14926 0
M  V30 1192 H 111.967 -0.227554 3.21997 0
M  V30 1193 H 111.019 2.18992 3.11041 0
M  V30 1194 H 112.331 2.68937 4.20089 0
M  V30 1195 H 111.485 1.12464 5.96185 0
M  V30 1196 H 110.224 0.523015 4.84887 0
M  V30 1197 H 109.229 2.82412 4.71724 0
M  V30 1198 H 110.454 3.42398 5.86464 0
M  V30 1199 H 108.4 1.25468 6.4389 0
M  V30 1200 H 108.317 2.89832 6.98236 0
M  V30 1201 H 109.585 1.86385 7.56889 0
M  V30 1202 N 113.814 -1.1601 1.06675 0
M  V30 1203 C 114.764 -2.18512 0.650888 0
M  V30 1204 C 115.748 -1.57677 -0.320441 0
M  V30 1205 O 116.94 -1.76482 -0.135266 0
M  V30 1206 C 114.069 -3.43273 0.0429255 0
M  V30 1207 C 113.155 -4.11176 1.03898 0
M  V30 1208 N 113.546 -4.54672 2.216 0
M  V30 1209 C 111.844 -4.37417 0.870779 0
M  V30 1210 C 112.545 -5.07248 2.84736 0
M  V30 1211 N 111.521 -5.0037 2.12441 0
M  V30 1212 H 115.323 -2.49863 1.54745 0
M  V30 1213 H 112.837 -1.32503 0.938975 0
M  V30 1214 H 114.834 -4.16006 -0.272857 0
M  V30 1215 H 113.494 -3.13408 -0.84884 0
M  V30 1216 H 114.505 -4.4828 2.59356 0
M  V30 1217 H 111.182 -4.17488 0.0313293 0
M  V30 1218 H 112.572 -5.50912 3.84636 0
M  V30 1219 N 115.292 -0.849877 -1.32721 0
M  V30 1220 C 116.224 -0.248332 -2.27851 0
M  V30 1221 C 117.237 0.577218 -1.52224 0
M  V30 1222 O 118.426 0.402489 -1.73903 0
M  V30 1223 C 115.526 0.668107 -3.32249 0
M  V30 1224 C 114.699 -0.120534 -4.37234 0
M  V30 1225 C 113.758 0.720932 -5.21238 0
M  V30 1226 O 112.784 0.156166 -5.68986 0
M  V30 1227 N 113.986 2.03647 -5.43607 0
M  V30 1228 H 116.751 -1.06575 -2.80111 0
M  V30 1229 H 114.312 -0.709395 -1.45531 0
M  V30 1230 H 116.304 1.23627 -3.85355 0
M  V30 1231 H 114.874 1.38621 -2.80184 0
M  V30 1232 H 114.094 -0.870108 -3.84477 0
M  V30 1233 H 115.382 -0.662406 -5.0447 0
M  V30 1234 H 114.78 2.51871 -5.06535 0
M  V30 1235 H 113.337 2.55287 -5.99727 0
M  V30 1236 N 116.77 1.45427 -0.607355 0
M  V30 1237 C 117.998 2.06614 -0.108814 0
M  V30 1238 C 118.413 1.45204 1.2067 0
M  V30 1239 O 117.77 0.566132 1.73497 0
M  V30 1240 C 117.821 3.61481 0.0375347 0
M  V30 1241 O 117.542 4.20598 -1.22593 0
M  V30 1242 C 119.043 4.39652 0.567561 0
M  V30 1243 H 116.263 0.66747 -0.0687351 0
M  V30 1244 H 118.807 1.86675 -0.835022 0
M  V30 1245 H 116.962 3.80762 0.714068 0
M  V30 1246 H 117.376 5.1377 -1.05547 0
M  V30 1247 H 118.85 5.48518 0.61905 0
M  V30 1248 H 119.327 4.09417 1.58978 0
M  V30 1249 H 119.933 4.25234 -0.0749202 0
M  V30 1250 N 118.248 0.346503 1.53744 0
M  V30 1251 C 119.196 -0.52422 2.26616 0
M  V30 1252 C 120.19 -1.09948 1.28871 0
M  V30 1253 O 121.396 -1.04488 1.46568 0
M  V30 1254 H 117.771 -0.187743 0.728187 0
M  V30 1255 H 119.742 0.11239 2.98188 0
M  V30 1256 C 118.491 -1.66186 3.05414 0
M  V30 1257 H 117.814 -1.22848 3.80458 0
M  V30 1258 H 119.254 -2.24622 3.59612 0
M  V30 1259 C 117.713 -2.59302 2.1509 0
M  V30 1260 O 118.243 -3.61628 1.74895 0
M  V30 1261 N 116.449 -2.28055 1.8011 0
M  V30 1262 H 115.996 -1.44883 2.12994 0
M  V30 1263 H 115.954 -2.90615 1.19958 0
M  V30 1264 N 119.726 -1.57421 0.075193 0
M  V30 1265 C 120.656 -2.15942 -0.888324 0
M  V30 1266 C 121.637 -1.08737 -1.30806 0
M  V30 1267 O 122.822 -1.36787 -1.37851 0
M  V30 1268 C 119.952 -2.72379 -2.1547 0
M  V30 1269 C 118.906 -3.8478 -1.87425 0
M  V30 1270 C 118.232 -4.27834 -3.20721 0
M  V30 1271 C 119.532 -5.08869 -1.17684 0
M  V30 1272 H 121.226 -2.96705 -0.400799 0
M  V30 1273 H 118.772 -1.42723 -0.191342 0
M  V30 1274 H 120.725 -3.11965 -2.83295 0
M  V30 1275 H 119.449 -1.88841 -2.6647 0
M  V30 1276 H 118.108 -3.45703 -1.22004 0
M  V30 1277 H 117.756 -3.41214 -3.6957 0
M  V30 1278 H 117.456 -5.03605 -3.02746 0
M  V30 1279 H 118.98 -4.70039 -3.89738 0
M  V30 1280 H 120.394 -5.4575 -1.75584 0
M  V30 1281 H 118.791 -5.8994 -1.09956 0
M  V30 1282 H 119.861 -4.84648 -0.156453 0
M  V30 1283 N 121.204 0.198386 -1.56346 0
M  V30 1284 C 122.167 1.22952 -1.93431 0
M  V30 1285 C 123.167 1.38611 -0.815092 0
M  V30 1286 O 124.357 1.36479 -1.08255 0
M  V30 1287 C 121.489 2.59946 -2.20546 0
M  V30 1288 H 122.682 0.912626 -2.85677 0
M  V30 1289 H 120.235 0.43977 -1.49986 0
M  V30 1290 H 120.97 2.96696 -1.30927 0
M  V30 1291 H 120.755 2.49953 -3.02102 0
M  V30 1292 H 122.245 3.3431 -2.50253 0
M  V30 1293 N 122.682 1.50554 0.465978 0
M  V30 1294 C 124.098 1.38093 0.800154 0
M  V30 1295 C 124.298 0.440988 1.96615 0
M  V30 1296 O 123.354 -0.114499 2.5224 0
M  V30 1297 C 124.667 2.79565 1.10742 0
M  V30 1298 C 126.215 2.88516 1.21357 0
M  V30 1299 C 126.69 4.30833 1.55393 0
M  V30 1300 N 128.181 4.33807 1.62375 0
M  V30 1301 C 128.916 5.40927 1.90225 0
M  V30 1302 N 128.412 6.58247 2.16062 0
M  V30 1303 N 130.205 5.28376 1.9177 0
M  V30 1304 H 122.356 2.10237 -0.302366 0
M  V30 1305 H 124.619 0.945203 -0.0727746 0
M  V30 1306 H 124.325 3.50208 0.323661 0
M  V30 1307 H 124.199 3.17125 2.04234 0
M  V30 1308 H 126.586 2.1809 1.98799 0
M  V30 1309 H 126.667 2.54492 0.258321 0
M  V30 1310 H 126.311 5.01799 0.784889 0
M  V30 1311 H 126.241 4.62347 2.52076 0
M  V30 1312 H 128.732 3.49212 1.44427 0
M  V30 1313 H 129.045 7.3569 2.36601 0
M  V30 1314 H 127.39 6.61413 2.13444 0
M  V30 1315 H 130.581 4.35715 1.71085 0
M  V30 1316 H 130.754 6.11944 2.13139 0
M  V30 1317 N 124.16 -0.719506 1.40217 0
M  V30 1318 C 125.576 -1.02707 1.22161 0
M  V30 1319 C 125.776 -2.0128 0.0940557 0
M  V30 1320 O 124.832 -2.46452 -0.549318 0
M  V30 1321 C 126.145 -1.57454 2.56181 0
M  V30 1322 C 127.693 -1.69458 2.63159 0
M  V30 1323 C 128.168 -2.27611 3.97438 0
M  V30 1324 N 129.659 -2.35002 3.99159 0
M  V30 1325 C 130.394 -2.80972 4.99842 0
M  V30 1326 N 129.89 -3.26723 6.10921 0
M  V30 1327 N 131.683 -2.80321 4.87213 0
M  V30 1328 H 123.834 -0.0660492 2.12297 0
M  V30 1329 H 126.097 -0.0919077 0.943534 0
M  V30 1330 H 125.803 -0.924873 3.39321 0
M  V30 1331 H 125.677 -2.56036 2.76993 0
M  V30 1332 H 128.064 -2.33543 1.80393 0
M  V30 1333 H 128.145 -0.694867 2.46181 0
M  V30 1334 H 127.789 -1.6415 4.80643 0
M  V30 1335 H 127.719 -3.2829 4.11744 0
M  V30 1336 H 130.21 -2.02685 3.18947 0
M  V30 1337 H 130.523 -3.60355 6.8364 0
M  V30 1338 H 128.868 -3.24692 6.14492 0
M  V30 1339 H 132.059 -2.43912 3.9953 0
M  V30 1340 H 132.232 -3.15831 5.65822 0
M  V30 1341 N 125.638 -1.25649 -0.95132 0
M  V30 1342 C 126.601 -1.06399 -2.03007 0
M  V30 1343 C 127.601 -0.0156794 -1.60792 0
M  V30 1344 O 128.791 -0.25817 -1.72276 0
M  V30 1345 C 125.923 -0.616184 -3.35285 0
M  V30 1346 H 127.116 -2.02164 -2.21517 0
M  V30 1347 H 124.669 -1.08103 -1.12887 0
M  V30 1348 H 125.404 0.343917 -3.22471 0
M  V30 1349 H 125.189 -1.37301 -3.67275 0
M  V30 1350 H 126.679 -0.503032 -4.14559 0
M  V30 1351 N 127.117 1.15442 -1.07289 0
M  V30 1352 C 128.08 2.18358 -0.696591 0
M  V30 1353 C 129.08 1.58637 0.262837 0
M  V30 1354 O 130.27 1.74145 0.0438809 0
M  V30 1355 C 127.402 3.4089 -0.0266151 0
M  V30 1356 H 128.595 2.53162 -1.60776 0
M  V30 1357 H 126.148 1.29893 -0.869342 0
M  V30 1358 H 126.883 3.11653 0.896822 0
M  V30 1359 H 126.668 3.85495 -0.716657 0
M  V30 1360 H 128.158 4.17009 0.222028 0
M  V30 1361 N 128.595 0.856903 1.32268 0
M  V30 1362 C 129.542 0.301172 2.28827 0
M  V30 1363 C 130.512 -0.593104 1.5515 0
M  V30 1364 O 131.697 -0.527537 1.83362 0
M  V30 1365 C 128.837 -0.502523 3.41422 0
M  V30 1366 C 127.95 0.417797 4.29975 0
M  V30 1367 C 127.085 -0.398749 5.29701 0
M  V30 1368 C 126.124 0.518827 6.09897 0
M  V30 1369 N 125.261 -0.260674 7.01616 0
M  V30 1370 H 130.101 1.12983 2.75751 0
M  V30 1371 H 127.638 0.568582 1.35667 0
M  V30 1372 H 129.596 -0.984141 4.05426 0
M  V30 1373 H 128.226 -1.29599 2.95642 0
M  V30 1374 H 127.278 1.01781 3.66531 0
M  V30 1375 H 128.59 1.12191 4.86019 0
M  V30 1376 H 127.744 -0.943435 5.9932 0
M  V30 1377 H 126.483 -1.13622 4.7428 0
M  V30 1378 H 125.488 1.07538 5.39181 0
M  V30 1379 H 126.713 1.25495 6.67404 0
M  V30 1380 H 124.659 -0.981198 6.4862 0
M  V30 1381 H 124.576 0.384364 7.55022 0
M  V30 1382 H 125.844 -0.787014 7.75517 0
M  V30 1383 N 130.073 -1.45103 0.615059 0
M  V30 1384 C 130.983 -2.34382 -0.101034 0
M  V30 1385 C 131.999 -1.51681 -0.852585 0
M  V30 1386 O 133.175 -1.8446 -0.808484 0
M  V30 1387 C 130.24 -3.29417 -1.08099 0
M  V30 1388 C 129.301 -4.28025 -0.330577 0
M  V30 1389 C 128.534 -5.1852 -1.26385 0
M  V30 1390 O 128.757 -5.12598 -2.50198 0
M  V30 1391 O 127.691 -5.97122 -0.756866 0
M  V30 1392 H 131.517 -2.97033 0.632855 0
M  V30 1393 H 129.102 -1.4461 0.375293 0
M  V30 1394 H 130.984 -3.87958 -1.6452 0
M  V30 1395 H 129.659 -2.69321 -1.79577 0
M  V30 1396 H 128.566 -3.73078 0.276283 0
M  V30 1397 H 129.899 -4.90997 0.343866 0
M  V30 1398 N 131.551 -0.354651 -1.53558 0
M  V30 1399 C 132.514 0.484566 -2.24019 0
M  V30 1400 C 133.514 1.01861 -1.24422 0
M  V30 1401 O 134.704 0.906097 -1.4878 0
M  V30 1402 C 131.836 1.67615 -2.96847 0
M  V30 1403 H 133.029 -0.131843 -2.9961 0
M  V30 1404 H 130.582 -0.106165 -1.55939 0
M  V30 1405 H 131.317 2.33095 -2.25471 0
M  V30 1406 H 131.102 1.30029 -3.69912 0
M  V30 1407 H 132.592 2.27114 -3.50441 0
M  V30 1408 N 133.029 1.57378 -0.0835403 0
M  V30 1409 C 133.976 2.13384 0.879539 0
M  V30 1410 C 134.946 1.04936 1.28754 0
M  V30 1411 O 136.131 1.32662 1.37133 0
M  V30 1412 C 133.271 2.70932 2.13752 0
M  V30 1413 C 132.384 3.93575 1.7811 0
M  V30 1414 C 131.519 4.39326 2.98607 0
M  V30 1415 C 130.558 5.54587 2.59037 0
M  V30 1416 N 129.695 5.95243 3.72331 0
M  V30 1417 H 134.535 2.9537 0.395076 0
M  V30 1418 H 132.072 1.45953 0.183349 0
M  V30 1419 H 134.03 3.02411 2.87408 0
M  V30 1420 H 132.66 1.91693 2.59718 0
M  V30 1421 H 131.712 3.68483 0.94469 0
M  V30 1422 H 133.024 4.77258 1.45005 0
M  V30 1423 H 132.178 4.72528 3.80529 0
M  V30 1424 H 130.917 3.5452 3.34913 0
M  V30 1425 H 129.922 5.21024 1.75539 0
M  V30 1426 H 131.147 6.41133 2.23887 0
M  V30 1427 H 129.093 5.13385 4.08378 0
M  V30 1428 H 129.01 6.73694 3.43034 0
M  V30 1429 H 130.278 6.33072 4.54797 0
M  V30 1430 N 134.507 -0.190092 1.56449 0
M  V30 1431 C 135.417 -1.25591 1.98152 0
M  V30 1432 C 136.433 -1.49519 0.889944 0
M  V30 1433 O 137.609 -1.62036 1.19609 0
M  V30 1434 C 134.674 -2.57916 2.3169 0
M  V30 1435 C 133.735 -2.42015 3.5458 0
M  V30 1436 C 132.968 -3.6803 3.8651 0
M  V30 1437 O 133.191 -4.72413 3.1966 0
M  V30 1438 O 132.125 -3.6326 4.79923 0
M  V30 1439 H 135.951 -0.931988 2.89046 0
M  V30 1440 H 133.536 -0.395488 1.4407 0
M  V30 1441 H 135.418 -3.36008 2.54316 0
M  V30 1442 H 134.093 -2.89925 1.43963 0
M  V30 1443 H 133 -1.62017 3.37196 0
M  V30 1444 H 134.333 -2.14937 4.4279 0
M  V30 1445 N 135.985 -1.50799 -0.457987 0
M  V30 1446 C 136.948 -1.7005 -1.53674 0
M  V30 1447 C 137.948 -0.570881 -1.50325 0
M  V30 1448 O 139.138 -0.838126 -1.52712 0
M  V30 1449 C 136.27 -1.73788 -2.93276 0
M  V30 1450 H 137.463 -2.66306 -1.37917 0
M  V30 1451 H 135.016 -1.40477 -0.685271 0
M  V30 1452 H 135.751 -0.792717 -3.14462 0
M  V30 1453 H 135.536 -2.55864 -2.97113 0
M  V30 1454 H 137.026 -1.90591 -3.71571 0
M  V30 1455 N 137.463 0.71206 -1.40597 0
M  V30 1456 C 138.874 1.29135 -1.34837 0
M  V30 1457 C 139.225 1.96186 -0.0235395 0
M  V30 1458 O 138.35 1.97768 0.878444 0
M  V30 1459 C 138.945 2.34827 -2.44217 0
M  V30 1460 C 137.504 2.88371 -2.41907 0
M  V30 1461 C 136.651 1.62202 -2.24913 0
M  V30 1462 H 139.602 0.507944 -1.50352 0
M  V30 1463 H 139.623 3.15749 -2.12327 0
M  V30 1464 H 139.135 1.85996 -3.40627 0
M  V30 1465 H 137.236 3.41422 -1.49204 0
M  V30 1466 H 137.349 3.39925 -3.37621 0
M  V30 1467 H 135.713 1.874 -1.72492 0
M  V30 1468 H 136.496 1.15391 -3.23326 0
M  V30 1469 N 138.941 1.26152 0.944643 0
M  V30 1470 C 139.904 1.07474 2.0244 0
M  V30 1471 C 140.904 0.0242064 1.60782 0
M  V30 1472 O 142.094 0.267302 1.72137 0
M  V30 1473 C 139.226 0.633956 3.34953 0
M  V30 1474 H 140.419 2.03336 2.20442 0
M  V30 1475 H 137.972 1.087 1.12312 0
M  V30 1476 H 138.707 -0.326811 3.22649 0
M  V30 1477 H 138.492 1.39247 3.66542 0
M  V30 1478 H 139.982 0.52501 4.14287 0
M  V30 1479 N 140.419 -1.14872 1.07899 0
M  V30 1480 C 141.351 -2.19425 0.662231 0
M  V30 1481 C 142.364 -1.60231 -0.288079 0
M  V30 1482 O 143.553 -1.78336 -0.076534 0
M  V30 1483 C 140.653 -3.38867 -0.0470695 0
M  V30 1484 C 139.826 -4.27597 0.920831 0
M  V30 1485 C 138.885 -5.25616 0.247805 0
M  V30 1486 O 137.911 -5.62189 0.890599 0
M  V30 1487 N 139.113 -5.71746 -1.00435 0
M  V30 1488 H 141.878 -2.55797 1.56166 0
M  V30 1489 H 139.439 -1.30042 0.964404 0
M  V30 1490 H 141.431 -4.01497 -0.50813 0
M  V30 1491 H 140.001 -3.00864 -0.848523 0
M  V30 1492 H 139.221 -3.61982 1.56087 0
M  V30 1493 H 140.509 -4.83748 1.57688 0
M  V30 1494 H 139.907 -5.44153 -1.54642 0
M  V30 1495 H 138.464 -6.36389 -1.40899 0
M  V30 1496 N 141.898 -0.863906 -1.31812 0
M  V30 1497 C 143.309 -0.52522 -1.7916 0
M  V30 1498 C 143.66 0.957518 -1.71248 0
M  V30 1499 O 142.785 1.74734 -1.27659 0
M  V30 1500 C 143.38 -0.9466 -3.25307 0
M  V30 1501 C 141.939 -0.659668 -3.70574 0
M  V30 1502 C 141.086 -1.14126 -2.52726 0
M  V30 1503 H 144.037 -1.05022 -1.1898 0
M  V30 1504 H 144.058 -0.266766 -3.79564 0
M  V30 1505 H 143.57 -2.02579 -3.31034 0
M  V30 1506 H 141.671 0.408416 -3.70355 0
M  V30 1507 H 141.784 -1.23245 -4.62977 0
M  V30 1508 H 140.148 -0.561216 -2.4844 0
M  V30 1509 H 140.931 -2.22775 -2.61201 0
M  V30 1510 N 143.376 1.44774 -0.622745 0
M  V30 1511 C 144.339 2.29069 0.0774015 0
M  V30 1512 C 145.339 1.4059 0.780461 0
M  V30 1513 O 146.529 1.62551 0.626322 0
M  V30 1514 C 143.661 3.21974 1.12006 0
M  V30 1515 H 144.854 2.92459 -0.663901 0
M  V30 1516 H 142.407 1.51548 -0.382486 0
M  V30 1517 H 143.142 2.63417 1.89162 0
M  V30 1518 H 142.927 3.87168 0.619951 0
M  V30 1519 H 144.417 3.85318 1.60995 0
M  V30 1520 N 144.854 0.36279 1.53368 0
M  V30 1521 C 146.265 -0.117022 1.86333 0
M  V30 1522 C 146.616 -1.48397 1.28347 0
M  V30 1523 O 145.741 -2.07787 0.604428 0
M  V30 1524 C 146.336 -0.21912 3.38091 0
M  V30 1525 C 144.895 -0.643184 3.70864 0
M  V30 1526 C 144.042 0.211318 2.76494 0
M  V30 1527 H 146.993 0.581687 1.47655 0
M  V30 1528 H 147.014 -1.04319 3.6592 0
M  V30 1529 H 146.526 0.775902 3.80265 0
M  V30 1530 H 144.627 -1.64654 3.34245 0
M  V30 1531 H 144.74 -0.41973 4.77258 0
M  V30 1532 H 143.104 -0.319367 2.5269 0
M  V30 1533 H 143.887 1.20383 3.21501 0
M  V30 1534 N 146.332 -1.57332 0.0918853 0
M  V30 1535 C 147.242 -2.17368 -0.882505 0
M  V30 1536 C 148.258 -1.14226 -1.31257 0
M  V30 1537 O 149.434 -1.46582 -1.38115 0
M  V30 1538 C 146.499 -2.73962 -2.12476 0
M  V30 1539 C 145.56 -3.92048 -1.7492 0
M  V30 1540 C 144.793 -4.45933 -2.93223 0
M  V30 1541 O 145.016 -3.98764 -4.07852 0
M  V30 1542 O 143.95 -5.36999 -2.71875 0
M  V30 1543 H 147.776 -3.01031 -0.40172 0
M  V30 1544 H 145.361 -1.48813 -0.132291 0
M  V30 1545 H 147.243 -3.10147 -2.85283 0
M  V30 1546 H 145.918 -1.93347 -2.59613 0
M  V30 1547 H 144.825 -3.6068 -0.993025 0
M  V30 1548 H 146.158 -4.74017 -1.32548 0
M  V30 1549 N 147.81 0.181792 -1.56548 0
M  V30 1550 C 148.757 1.22521 -1.95595 0
M  V30 1551 C 149.727 1.4454 -0.818373 0
M  V30 1552 O 150.912 1.57454 -1.07763 0
M  V30 1553 C 148.052 2.56193 -2.31212 0
M  V30 1554 C 147.165 2.41641 -3.58097 0
M  V30 1555 C 146.3 3.68108 -3.82975 0
M  V30 1556 C 145.339 3.48445 -5.03242 0
M  V30 1557 N 144.476 4.66956 -5.24306 0
M  V30 1558 H 149.316 0.885226 -2.84548 0
M  V30 1559 H 146.853 0.425718 -1.40805 0
M  V30 1560 H 148.811 3.34088 -2.49882 0
M  V30 1561 H 147.441 2.88208 -1.45382 0
M  V30 1562 H 146.493 1.54976 -3.474 0
M  V30 1563 H 147.805 2.23052 -4.46149 0
M  V30 1564 H 146.959 4.54441 -4.01956 0
M  V30 1565 H 145.698 3.89666 -2.93278 0
M  V30 1566 H 144.703 2.60499 -4.8417 0
M  V30 1567 H 145.928 3.2832 -5.9446 0
M  V30 1568 H 143.874 4.88752 -4.37559 0
M  V30 1569 H 143.791 4.51242 -6.06561 0
M  V30 1570 H 145.059 5.54602 -5.47756 0
M  V30 1571 N 149.288 1.51039 0.449983 0
M  V30 1572 C 150.534 1.63322 1.20223 0
M  V30 1573 C 150.867 0.34241 1.91158 0
M  V30 1574 O 150.142 -0.657344 1.83055 0
M  V30 1575 C 150.425 2.82801 2.22925 0
M  V30 1576 C 150.278 4.21823 1.56157 0
M  V30 1577 C 151.597 2.97807 3.24035 0
M  V30 1578 H 148.716 0.594407 0.435718 0
M  V30 1579 H 151.358 1.83489 0.493136 0
M  V30 1580 H 149.508 2.65738 2.834 0
M  V30 1581 H 151.18 4.50526 0.991162 0
M  V30 1582 H 149.423 4.25105 0.864172 0
M  V30 1583 H 150.094 5.01391 2.30891 0
M  V30 1584 H 152.57 3.13497 2.73603 0
M  V30 1585 H 151.446 3.82992 3.93202 0
M  V30 1586 H 151.707 2.09328 3.89402 0
M  V30 1587 N 150.766 -0.704594 1.40972 0
M  V30 1588 C 151.713 -1.81862 1.42109 0
M  V30 1589 C 152.683 -1.63781 0.276593 0
M  V30 1590 O 153.868 -1.84759 0.4763 0
M  V30 1591 C 151.008 -3.19669 1.30022 0
M  V30 1592 C 150.121 -3.49246 2.54267 0
M  V30 1593 C 149.256 -4.76618 2.3454 0
M  V30 1594 C 148.295 -4.99133 3.54306 0
M  V30 1595 N 147.432 -6.17726 3.33706 0
M  V30 1596 H 152.272 -1.80226 2.37324 0
M  V30 1597 H 149.809 -0.880238 1.17857 0
M  V30 1598 H 151.767 -3.99263 1.21018 0
M  V30 1599 H 150.397 -3.20506 0.384192 0
M  V30 1600 H 149.449 -2.64125 2.73756 0
M  V30 1601 H 150.761 -3.61788 3.43381 0
M  V30 1602 H 149.915 -5.64249 2.22952 0
M  V30 1603 H 148.654 -4.66305 1.42867 0
M  V30 1604 H 147.659 -4.09953 3.66359 0
M  V30 1605 H 148.884 -5.11311 4.4692 0
M  V30 1606 H 146.83 -6.08642 2.44725 0
M  V30 1607 H 146.747 -6.30995 4.16391 0
M  V30 1608 H 148.015 -7.08115 3.25873 0
M  V30 1609 N 152.244 -1.26651 -0.937939 0
M  V30 1610 C 153.49 -1.12553 -1.687 0
M  V30 1611 C 153.823 0.329782 -1.91379 0
M  V30 1612 O 153.098 1.24202 -1.4968 0
M  V30 1613 C 153.381 -1.89862 -3.05981 0
M  V30 1614 C 153.234 -3.43318 -2.90607 0
M  V30 1615 C 154.553 -1.69499 -4.0615 0
M  V30 1616 H 151.672 -0.410257 -0.612257 0
M  V30 1617 H 154.314 -1.55685 -1.08913 0
M  V30 1618 H 152.464 -1.53204 -3.57017 0
M  V30 1619 H 154.136 -3.89747 -2.46769 0
M  V30 1620 H 152.379 -3.70179 -2.26164 0
M  V30 1621 H 153.05 -3.92642 -3.8799 0
M  V30 1622 H 155.526 -2.01442 -3.64088 0
M  V30 1623 H 154.402 -2.26002 -5.00214 0
M  V30 1624 H 154.663 -0.640365 -4.37438 0
M  V30 1625 N 153.722 1.14298 -1.08507 0
M  V30 1626 C 154.632 2.23027 -0.727753 0
M  V30 1627 C 155.648 1.71952 0.26619 0
M  V30 1628 O 156.824 2.011 0.109882 0
M  V30 1629 C 153.889 3.46403 -0.143541 0
M  V30 1630 C 152.95 4.12413 -1.19223 0
M  V30 1631 C 152.183 5.29899 -0.635798 0
M  V30 1632 O 152.406 5.67796 0.544393 0
M  V30 1633 O 151.34 5.85717 -1.38634 0
M  V30 1634 H 155.166 2.55945 -1.63481 0
M  V30 1635 H 152.751 1.22248 -0.858817 0
M  V30 1636 H 154.633 4.21018 0.179404 0
M  V30 1637 H 153.308 3.15206 0.736659 0
M  V30 1638 H 152.215 3.39667 -1.56772 0
M  V30 1639 H 153.548 4.47718 -2.04474 0
M  V30 1640 N 155.201 0.870884 1.31352 0
M  V30 1641 C 156.447 0.482987 1.96965 0
M  V30 1642 C 156.78 -0.962462 1.68672 0
M  V30 1643 O 156.055 -1.6779 0.98371 0
M  V30 1644 C 156.338 0.741752 3.52378 0
M  V30 1645 C 156.191 2.2368 3.9024 0
M  V30 1646 C 157.51 0.208838 4.39604 0
M  V30 1647 H 154.629 0.176955 0.715441 0
M  V30 1648 H 157.271 1.09229 1.55464 0
M  V30 1649 H 155.421 0.223149 3.87859 0
M  V30 1650 H 157.093 2.82273 3.64856 0
M  V30 1651 H 155.336 2.70901 3.38814 0
M  V30 1652 H 156.007 2.3685 4.98604 0
M  V30 1653 H 158.483 0.652529 4.10952 0
M  V30 1654 H 157.359 0.419336 5.47296 0
M  V30 1655 H 157.62 -0.889275 4.33064 0
M  V30 1656 N 156.679 -1.44442 0.630414 0
M  V30 1657 C 157.626 -2.30678 -0.0749355 0
M  V30 1658 C 158.596 -1.4344 -0.837502 0
M  V30 1659 O 159.781 -1.72343 -0.818684 0
M  V30 1660 C 156.921 -3.28706 -1.05103 0
M  V30 1661 C 156.034 -4.31046 -0.286954 0
M  V30 1662 C 155.169 -5.16167 -1.2548 0
M  V30 1663 C 154.208 -6.10216 -0.479843 0
M  V30 1664 N 153.345 -6.88039 -1.39811 0
M  V30 1665 H 158.185 -2.90454 0.666386 0
M  V30 1666 H 155.722 -1.43107 0.340404 0
M  V30 1667 H 157.68 -3.84027 -1.63031 0
M  V30 1668 H 156.31 -2.70632 -1.75949 0
M  V30 1669 H 155.362 -3.78203 0.408243 0
M  V30 1670 H 156.674 -4.97794 0.316657 0
M  V30 1671 H 155.828 -5.76002 -1.90544 0
M  V30 1672 H 154.567 -4.49491 -1.89233 0
M  V30 1673 H 153.572 -5.49491 0.184295 0
M  V30 1674 H 154.797 -6.78928 0.152965 0
M  V30 1675 H 152.743 -6.24032 -2.02287 0
M  V30 1676 H 152.66 -7.51223 -0.848508 0
M  V30 1677 H 153.928 -7.52397 -2.03762 0
M  V30 1678 N 158.157 -0.370918 -1.53173 0
M  V30 1679 C 159.104 0.473035 -2.259 0
M  V30 1680 C 160.074 1.07311 -1.26781 0
M  V30 1681 O 161.259 1.1046 -1.55574 0
M  V30 1682 C 158.399 1.60405 -3.05556 0
M  V30 1683 C 157.512 1.02863 -4.19575 0
M  V30 1684 C 156.647 2.12918 -4.86661 0
M  V30 1685 C 155.686 1.52869 -5.92704 0
M  V30 1686 N 154.823 2.56779 -6.53459 0
M  V30 1687 H 159.663 -0.153649 -2.97604 0
M  V30 1688 H 157.2 -0.0875946 -1.46839 0
M  V30 1689 H 159.158 2.27034 -3.50016 0
M  V30 1690 H 157.788 2.20131 -2.36097 0
M  V30 1691 H 156.84 0.252465 -3.79561 0
M  V30 1692 H 158.152 0.549642 -4.95762 0
M  V30 1693 H 157.306 2.87356 -5.34333 0
M  V30 1694 H 156.045 2.6417 -4.09958 0
M  V30 1695 H 155.05 0.769479 -5.44389 0
M  V30 1696 H 156.275 1.02435 -6.7133 0
M  V30 1697 H 154.221 3.07235 -5.79606 0
M  V30 1698 H 154.138 2.13583 -7.25202 0
M  V30 1699 H 155.406 3.30903 -7.05779 0
M  V30 1700 N 159.635 1.57281 -0.100228 0
M  V30 1701 C 160.882 1.94537 0.562268 0
M  V30 1702 C 161.21 0.982315 1.67871 0
M  V30 1703 O 160.465 0.00280936 1.957 0
M  V30 1704 C 160.764 3.38305 1.15259 0
M  V30 1705 C 160.43 4.50618 0.159409 0
M  V30 1706 C 159.092 4.81066 -0.113741 0
M  V30 1707 C 161.444 5.18615 -0.518461 0
M  V30 1708 C 158.772 5.76835 -1.07137 0
M  V30 1709 C 161.124 6.15412 -1.46459 0
M  V30 1710 C 159.788 6.44262 -1.74592 0
M  V30 1711 H 159.058 0.711863 0.205748 0
M  V30 1712 H 161.705 1.90679 -0.17715 0
M  V30 1713 H 160.01 3.38766 1.96836 0
M  V30 1714 H 161.707 3.64435 1.67297 0
M  V30 1715 H 158.297 4.2689 0.382491 0
M  V30 1716 H 162.481 4.95264 -0.320581 0
M  V30 1717 H 157.737 5.975 -1.29628 0
M  V30 1718 H 161.911 6.67194 -1.99564 0
M  V30 1719 H 159.538 7.1828 -2.48953 0
M  V30 1720 N 161.113 -0.173488 1.56642 0
M  V30 1721 C 162.359 -0.891784 1.8214 0
M  V30 1722 C 162.692 -1.8199 0.677736 0
M  V30 1723 O 161.967 -1.91842 -0.320446 0
M  V30 1724 C 162.25 -1.68933 3.18015 0
M  V30 1725 C 162.103 -0.784487 4.42906 0
M  V30 1726 C 163.422 -2.65748 3.50808 0
M  V30 1727 H 160.541 -0.322761 0.662567 0
M  V30 1728 H 163.183 -0.158095 1.89341 0
M  V30 1729 H 161.333 -2.31482 3.12007 0
M  V30 1730 H 163.005 -0.172046 4.60979 0
M  V30 1731 H 161.248 -0.0924117 4.33702 0
M  V30 1732 H 161.919 -1.37799 5.34524 0
M  V30 1733 H 164.395 -2.13327 3.57255 0
M  V30 1734 H 163.271 -3.18619 4.4696 0
M  V30 1735 H 163.532 -3.45842 2.75401 0
M  V30 1736 N 162.591 -1.51276 -0.441967 0
M  V30 1737 C 163.538 -1.72256 -1.53612 0
M  V30 1738 C 164.508 -0.564164 -1.56225 0
M  V30 1739 O 165.693 -0.798074 -1.73307 0
M  V30 1740 C 162.833 -1.84932 -2.91366 0
M  V30 1741 C 161.946 -3.12459 -2.98317 0
M  V30 1742 C 161.081 -3.15758 -4.27166 0
M  V30 1743 C 160.12 -4.37619 -4.27967 0
M  V30 1744 N 159.257 -4.38493 -5.48333 0
M  V30 1745 H 164.097 -2.65654 -1.35026 0
M  V30 1746 H 161.634 -1.31662 -0.656009 0
M  V30 1747 H 163.592 -1.90263 -3.7129 0
M  V30 1748 H 162.222 -0.949461 -3.08521 0
M  V30 1749 H 161.274 -3.1646 -2.11086 0
M  V30 1750 H 162.586 -4.02382 -2.94771 0
M  V30 1751 H 161.74 -3.19979 -5.15459 0
M  V30 1752 H 160.479 -2.23715 -4.33362 0
M  V30 1753 H 159.484 -4.33579 -3.38067 0
M  V30 1754 H 160.709 -5.30921 -4.23438 0
M  V30 1755 H 158.655 -3.49318 -5.55259 0
M  V30 1756 H 158.572 -5.22219 -5.46647 0
M  V30 1757 H 159.84 -4.469 -6.38671 0
M  V30 1758 N 164.069 0.697108 -1.41344 0
M  V30 1759 C 165.318 1.45279 -1.39918 0
M  V30 1760 C 165.631 1.95597 -0.0109624 0
M  V30 1761 O 166.837 2.71208 0.125919 0
M  V30 1762 C 165.293 2.62695 -2.46007 0
M  V30 1763 C 164.901 2.19169 -3.90729 0
M  V30 1764 C 166.645 3.40336 -2.53715 0
M  V30 1765 C 164.552 3.33535 -4.88373 0
M  V30 1766 H 163.482 0.545692 -0.520323 0
M  V30 1767 H 166.133 0.756929 -1.67161 0
M  V30 1768 H 164.515 3.34541 -2.11892 0
M  V30 1769 H 165.689 1.54623 -4.34083 0
M  V30 1770 H 164.004 1.54525 -3.86666 0
M  V30 1771 H 166.601 4.2547 -3.2385 0
M  V30 1772 H 166.944 3.85418 -1.5735 0
M  V30 1773 H 167.477 2.75546 -2.86913 0
M  V30 1774 H 164.216 2.93468 -5.86137 0
M  V30 1775 H 163.736 3.96936 -4.49668 0
M  V30 1776 H 165.415 3.99335 -5.09059 0
M  V30 1777 N 165.547 1.27147 0.931209 0
M  V30 1778 C 166.795 1.13055 1.6752 0
M  V30 1779 C 167.116 -0.324791 1.92276 0
M  V30 1780 O 166.386 -1.22775 1.52654 0
M  V30 1781 H 164.966 0.415391 0.620854 0
M  V30 1782 H 167.628 1.59623 1.11833 0
M  V30 1783 H 166.724 1.65694 2.64485 0
M  V30 1784 N 167.025 -1.13721 1.09112 0
M  V30 1785 C 168.441 -1.36914 0.820174 0
M  V30 1786 C 168.641 -1.93356 -0.567079 0
M  V30 1787 O 167.697 -2.15093 -1.32255 0
M  V30 1788 C 169.01 -2.3235 1.90877 0
M  V30 1789 C 170.558 -2.45973 1.93562 0
M  V30 1790 C 171.033 -3.44714 3.01556 0
M  V30 1791 N 172.524 -3.52263 3.00775 0
M  V30 1792 C 173.259 -4.28536 3.80978 0
M  V30 1793 N 172.755 -5.07991 4.71081 0
M  V30 1794 N 174.548 -4.23804 3.69251 0
M  V30 1795 H 166.699 -0.754348 1.98553 0
M  V30 1796 H 168.962 -0.3944 0.862063 0
M  V30 1797 H 168.668 -1.98027 2.90651 0
M  V30 1798 H 168.542 -3.32332 1.78424 0
M  V30 1799 H 170.929 -2.79584 0.944286 0
M  V30 1800 H 171.01 -1.45926 2.10093 0
M  V30 1801 H 170.654 -3.11835 4.00901 0
M  V30 1802 H 170.584 -4.44558 2.82269 0
M  V30 1803 H 173.075 -2.95567 2.35475 0
M  V30 1804 H 173.388 -5.63487 5.28869 0
M  V30 1805 H 171.733 -5.07235 4.75119 0
M  V30 1806 H 174.924 -3.60806 2.98222 0
M  V30 1807 H 175.097 -4.82995 4.31995 0
M  V30 1808 N 168.503 -0.877838 -1.30888 0
M  V30 1809 C 169.914 -0.544193 -1.78593 0
M  V30 1810 C 170.265 0.939301 -1.72254 0
M  V30 1811 O 169.39 1.7337 -1.29505 0
M  V30 1812 C 169.985 -0.98105 -3.24285 0
M  V30 1813 C 168.544 -0.698935 -3.69854 0
M  V30 1814 C 167.691 -1.168 -2.51502 0
M  V30 1815 H 170.642 -1.06278 -1.17859 0
M  V30 1816 H 170.663 -0.307009 -3.79259 0
M  V30 1817 H 170.175 -2.06079 -3.28866 0
M  V30 1818 H 168.276 0.369112 -3.70767 0
M  V30 1819 H 168.389 -1.28148 -4.61644 0
M  V30 1820 H 166.753 -0.587535 -2.47831 0
M  V30 1821 H 167.536 -2.25533 -2.58824 0
M  V30 1822 N 169.982 1.44106 -0.638065 0
M  V30 1823 C 171.23 2.01579 -0.145043 0
M  V30 1824 C 171.551 1.50496 1.24 0
M  V30 1825 O 170.821 0.711374 1.82527 0
M  V30 1826 H 169.401 0.745282 -0.05063 0
M  V30 1827 H 172.063 1.76516 -0.826327 0
M  V30 1828 H 171.159 3.11877 -0.118039 0
M  V30 1829 N 171.46 0.379036 1.52974 0
M  V30 1830 C 172.69 -0.20649 2.05566 0
M  V30 1831 C 173.098 -1.41906 1.25137 0
M  V30 1832 O 172.441 -1.81421 0.288464 0
M  V30 1833 C 172.503 -0.651086 3.53555 0
M  V30 1834 C 172.167 0.446626 4.54812 0
M  V30 1835 C 173.164 1.30079 5.03364 0
M  V30 1836 C 170.849 0.610719 4.98573 0
M  V30 1837 C 172.843 2.30426 5.94292 0
M  V30 1838 C 170.53 1.61754 5.89304 0
M  V30 1839 C 171.528 2.46274 6.37054 0
M  V30 1840 O 171.216 3.45237 7.25994 0
M  V30 1841 H 170.948 -0.0372381 0.674974 0
M  V30 1842 H 173.502 0.539718 1.98182 0
M  V30 1843 H 171.732 -1.44911 3.58522 0
M  V30 1844 H 173.421 -1.16112 3.88938 0
M  V30 1845 H 174.187 1.18527 4.70294 0
M  V30 1846 H 170.066 -0.0374044 4.60985 0
M  V30 1847 H 173.61 2.96432 6.31485 0
M  V30 1848 H 169.507 1.73348 6.21788 0
M  V30 1849 H 170.275 3.41124 7.44027 0
M  V30 1850 N 172.938 -1.57226 0.108567 0
M  V30 1851 C 173.885 -2.14756 -0.845481 0
M  V30 1852 C 174.855 -1.06971 -1.27068 0
M  V30 1853 O 176.04 -1.34827 -1.35005 0
M  V30 1854 C 173.18 -2.74298 -2.09415 0
M  V30 1855 C 172.293 -3.96358 -1.71826 0
M  V30 1856 C 171.428 -4.44021 -2.9158 0
M  V30 1857 C 170.467 -5.58637 -2.50181 0
M  V30 1858 N 169.604 -6.01091 -3.62814 0
M  V30 1859 H 174.444 -2.95961 -0.348035 0
M  V30 1860 H 171.981 -1.46226 -0.160106 0
M  V30 1861 H 173.939 -3.06945 -2.82561 0
M  V30 1862 H 172.569 -1.95801 -2.56636 0
M  V30 1863 H 171.621 -3.69939 -0.885947 0
M  V30 1864 H 172.933 -4.79504 -1.37394 0
M  V30 1865 H 172.087 -4.78522 -3.72963 0
M  V30 1866 H 170.826 -3.59803 -3.29231 0
M  V30 1867 H 169.831 -5.23751 -1.67228 0
M  V30 1868 H 171.056 -6.44613 -2.13659 0
M  V30 1869 H 169.002 -5.19817 -4.00158 0
M  V30 1870 H 168.919 -6.79066 -3.32273 0
M  V30 1871 H 170.187 -6.40227 -4.44668 0
M  V30 1872 N 174.416 0.165178 -1.56732 0
M  V30 1873 C 175.662 0.882112 -1.82611 0
M  V30 1874 C 175.995 1.81628 -0.687378 0
M  V30 1875 O 175.27 1.92009 0.310267 0
M  V30 1876 C 175.553 1.67245 -3.18906 0
M  V30 1877 C 175.406 0.760987 -4.43316 0
M  V30 1878 C 176.725 2.63884 -3.52212 0
M  V30 1879 H 173.844 0.319242 -0.664269 0
M  V30 1880 H 176.486 0.148052 -1.89422 0
M  V30 1881 H 174.636 2.29824 -3.1323 0
M  V30 1882 H 176.308 0.147596 -4.61064 0
M  V30 1883 H 174.551 0.0694102 -4.33744 0
M  V30 1884 H 175.222 1.34962 -5.35247 0
M  V30 1885 H 177.698 2.11429 -3.58381 0
M  V30 1886 H 176.574 3.16245 -4.48643 0
M  V30 1887 H 176.835 3.44377 -2.77231 0
M  V30 1888 N 175.894 1.51508 0.433938 0
M  V30 1889 C 177.122 1.68157 1.20543 0
M  V30 1890 C 177.537 0.380362 1.84929 0
M  V30 1891 O 176.894 -0.641446 1.70856 0
M  V30 1892 C 176.945 2.79965 2.28696 0
M  V30 1893 O 176.666 4.05045 1.66943 0
M  V30 1894 C 178.167 3.07912 3.18912 0
M  V30 1895 H 175.387 0.56421 0.363191 0
M  V30 1896 H 177.931 1.97941 0.513754 0
M  V30 1897 H 176.086 2.5277 2.93574 0
M  V30 1898 H 176.5 4.67165 2.38448 0
M  V30 1899 H 177.974 3.89719 3.90926 0
M  V30 1900 H 178.451 2.20456 3.79863 0
M  V30 1901 H 179.057 3.36779 2.59731 0
M  V30 1902 N 177.372 -0.689602 1.41712 0
M  V30 1903 C 178.319 -1.80345 1.44029 0
M  V30 1904 C 179.289 -1.63478 0.293948 0
M  V30 1905 O 180.474 -1.84244 0.495869 0
M  V30 1906 C 177.614 -3.18272 1.33405 0
M  V30 1907 C 176.727 -3.46529 2.57956 0
M  V30 1908 C 175.862 -4.74103 2.39582 0
M  V30 1909 C 174.901 -4.95347 3.5958 0
M  V30 1910 N 174.038 -6.14151 3.40239 0
M  V30 1911 H 178.878 -1.77698 2.39222 0
M  V30 1912 H 176.415 -0.867688 1.18784 0
M  V30 1913 H 178.373 -3.97956 1.25246 0
M  V30 1914 H 177.003 -3.2008 0.418164 0
M  V30 1915 H 176.055 -2.61207 2.76542 0
M  V30 1916 H 177.367 -3.58126 3.47199 0
M  V30 1917 H 176.521 -5.61853 2.28924 0
M  V30 1918 H 175.26 -4.64763 1.47805 0
M  V30 1919 H 174.265 -4.06044 3.70686 0
M  V30 1920 H 175.49 -5.06542 4.52318 0
M  V30 1921 H 173.436 -6.06013 2.51167 0
M  V30 1922 H 173.353 -6.26543 4.23061 0
M  V30 1923 H 174.621 -7.04619 3.33365 0
M  V30 1924 N 178.85 -1.27639 -0.924453 0
M  V30 1925 C 179.782 -1.06442 -2.02985 0
M  V30 1926 C 180.795 -0.0194771 -1.62788 0
M  V30 1927 O 181.984 -0.261388 -1.76576 0
M  V30 1928 C 179.084 -0.59327 -3.33667 0
M  V30 1929 C 178.257 -1.71123 -4.02537 0
M  V30 1930 C 177.316 -1.23527 -5.11495 0
M  V30 1931 O 176.342 -1.93553 -5.35281 0
M  V30 1932 N 177.544 -0.0926678 -5.80426 0
M  V30 1933 H 180.309 -2.01633 -2.2173 0
M  V30 1934 H 177.87 -1.19248 -1.09505 0
M  V30 1935 H 179.862 -0.258686 -4.03872 0
M  V30 1936 H 178.432 0.265502 -3.1147 0
M  V30 1937 H 177.652 -2.21593 -3.26022 0
M  V30 1938 H 178.94 -2.46145 -4.45298 0
M  V30 1939 H 178.338 0.491741 -5.63559 0
M  V30 1940 H 176.895 0.182714 -6.51544 0
M  V30 1941 N 180.328 1.1314 -1.09713 0
M  V30 1942 C 181.744 1.36477 -0.827423 0
M  V30 1943 C 181.944 1.93654 0.556817 0
M  V30 1944 O 181 2.15791 1.31112 0
M  V30 1945 C 182.313 2.31334 -1.92106 0
M  V30 1946 C 183.861 2.44943 -1.94864 0
M  V30 1947 C 184.336 3.4311 -3.0338 0
M  V30 1948 N 185.827 3.50662 -3.02639 0
M  V30 1949 C 186.562 4.2651 -3.83246 0
M  V30 1950 N 186.058 5.05485 -4.73768 0
M  V30 1951 N 187.851 4.2184 -3.71493 0
M  V30 1952 H 180.002 0.743807 -1.9895 0
M  V30 1953 H 182.265 0.389823 -0.864143 0
M  V30 1954 H 181.971 1.96483 -2.91698 0
M  V30 1955 H 181.845 3.31381 -1.80184 0
M  V30 1956 H 184.232 2.79079 -0.959099 0
M  V30 1957 H 184.313 1.4481 -2.10864 0
M  V30 1958 H 183.957 3.09704 -4.02549 0
M  V30 1959 H 183.887 4.43055 -2.84622 0
M  V30 1960 H 186.378 2.94315 -2.37039 0
M  V30 1961 H 186.691 5.60675 -5.3185 0
M  V30 1962 H 185.036 5.04708 -4.77802 0
M  V30 1963 H 188.227 3.5922 -3.00131 0
M  V30 1964 H 188.4 4.80697 -4.3455 0
M  V30 1965 N 181.806 0.884767 1.30421 0
M  V30 1966 C 183.083 0.423185 1.90967 0
M  V30 1967 C 183.463 -1.09605 1.80416 0
M  V30 1968 O 182.811 -1.93126 1.22125 0
M  V30 1969 C 183.021 0.921056 3.36627 0
M  V30 1970 C 184.369 0.955903 4.137 0
M  V30 1971 O 185.393 0.867706 3.4547 0
M  V30 1972 O 184.252 1.08614 5.35598 0
M  V30 1973 H 181.346 0.129369 0.816819 0
M  V30 1974 H 183.892 0.973653 1.3899 0
M  V30 1975 H 182.664 1.96489 3.3839 0
M  V30 1976 H 182.287 0.349741 3.96059 0
M  V30 1977 N 183.284 -1.43765 0.645699 0
M  V30 1978 C 184.509 -2.06767 0.161883 0
M  V30 1979 C 184.934 -1.48034 -1.16049 0
M  V30 1980 O 184.292 -0.587369 -1.71522 0
M  V30 1981 C 184.34 -3.60519 0.0762003 0
M  V30 1982 O 183.444 -4.00982 -0.963721 0
M  V30 1983 H 182.785 -0.657675 0.091429 0
M  V30 1984 H 185.315 -1.84397 0.886499 0
M  V30 1985 H 185.325 -4.07853 -0.109604 0
M  V30 1986 H 184 -4.02646 1.04157 0
M  V30 1987 H 182.577 -3.65253 -0.751312 0
M  V30 1988 N 184.763 -0.387143 -1.52771 0
M  V30 1989 C 185.673 0.456442 -2.30117 0
M  V30 1990 C 186.689 1.07342 -1.36944 0
M  V30 1991 O 187.865 1.07971 -1.70013 0
M  V30 1992 C 184.93 1.56957 -3.09136 0
M  V30 1993 C 183.991 0.977916 -4.18014 0
M  V30 1994 C 183.224 2.038 -4.93256 0
M  V30 1995 O 183.447 3.25271 -4.68567 0
M  V30 1996 O 182.381 1.6565 -5.78657 0
M  V30 1997 H 186.207 -0.17359 -3.03203 0
M  V30 1998 H 183.792 -0.150919 -1.48636 0
M  V30 1999 H 185.674 2.21628 -3.58412 0
M  V30 2000 H 184.349 2.18461 -2.38865 0
M  V30 2001 H 183.256 0.294525 -3.72939 0
M  V30 2002 H 184.589 0.407128 -4.90513 0
M  V30 2003 N 186.241 1.57166 -0.116904 0
M  V30 2004 C 187.174 2.10912 0.871291 0
M  V30 2005 C 188.152 1.025 1.26224 0
M  V30 2006 O 189.336 1.3014 1.36366 0
M  V30 2007 C 186.463 2.6041 2.16574 0
M  V30 2008 C 185.509 3.80687 1.92302 0
M  V30 2009 S 186.342 5.23199 1.14119 0
M  V30 2010 C 187.498 5.76064 2.44748 0
M  V30 2011 H 187.731 2.94401 0.414138 0
M  V30 2012 H 185.264 1.54096 0.096829 0
M  V30 2013 H 187.222 2.89583 2.9095 0
M  V30 2014 H 185.883 1.77106 2.59408 0
M  V30 2015 H 185.076 4.13462 2.8821 0
M  V30 2016 H 184.678 3.5212 1.26047 0
M  V30 2017 H 186.97 5.8566 3.406 0
M  V30 2018 H 187.913 6.74184 2.16521 0
M  V30 2019 H 188.321 5.04117 2.54019 0
M  V30 2020 N 187.719 -0.156864 1.56817 0
M  V30 2021 C 188.967 -0.869404 1.82444 0
M  V30 2022 C 189.288 -1.82147 0.69623 0
M  V30 2023 O 188.558 -1.93847 -0.28287 0
M  V30 2024 H 187.138 -0.324043 0.673056 0
M  V30 2025 H 189.8 -0.153224 1.94297 0
M  V30 2026 H 188.896 -1.43761 2.77019 0
M  V30 2027 N 189.197 -1.51736 -0.425897 0
M  V30 2028 C 190.129 -1.70083 -1.53638 0
M  V30 2029 C 191.142 -0.581349 -1.52066 0
M  V30 2030 O 192.331 -0.856017 -1.56635 0
M  V30 2031 C 189.431 -1.71078 -2.9255 0
M  V30 2032 C 188.604 -2.99795 -3.185 0
M  V30 2033 C 187.663 -2.92825 -4.37196 0
M  V30 2034 O 186.689 -3.66756 -4.35291 0
M  V30 2035 N 187.891 -2.0946 -5.41393 0
M  V30 2036 H 190.656 -2.65882 -1.383 0
M  V30 2037 H 188.217 -1.49765 -0.614988 0
M  V30 2038 H 190.209 -1.63969 -3.69995 0
M  V30 2039 H 188.779 -0.828242 -3.01428 0
M  V30 2040 H 187.999 -3.20684 -2.2925 0
M  V30 2041 H 189.287 -3.84977 -3.32671 0
M  V30 2042 H 188.685 -1.48792 -5.45781 0
M  V30 2043 H 187.242 -2.08221 -6.17647 0
M  V30 2044 N 190.675 0.682077 -1.42076 0
M  V30 2045 C 191.607 1.80755 -1.40926 0
M  V30 2046 C 192.62 1.59833 -0.309398 0
M  V30 2047 O 193.809 1.69087 -0.572014 0
M  V30 2048 C 190.909 3.17744 -1.17865 0
M  V30 2049 C 190.082 3.65578 -2.40149 0
M  V30 2050 C 189.141 4.81277 -2.12742 0
M  V30 2051 O 188.167 4.92197 -2.85887 0
M  V30 2052 N 189.369 5.69474 -1.12602 0
M  V30 2053 H 192.134 1.82229 -2.37935 0
M  V30 2054 H 189.695 0.864903 -1.36861 0
M  V30 2055 H 191.687 3.9279 -0.9746 0
M  V30 2056 H 190.257 3.11214 -0.294068 0
M  V30 2057 H 189.477 2.81291 -2.76169 0
M  V30 2058 H 190.765 3.94278 -3.21593 0
M  V30 2059 H 190.163 5.63297 -0.520899 0
M  V30 2060 H 188.72 6.44363 -0.981842 0
M  V30 2061 N 192.153 1.28127 0.917671 0
M  V30 2062 C 193.378 1.18007 1.70555 0
M  V30 2063 C 193.803 -0.258257 1.86319 0
M  V30 2064 O 193.161 -1.1869 1.37049 0
M  V30 2065 C 193.209 1.87948 3.07746 0
M  V30 2066 O 192.313 1.18427 3.9503 0
M  V30 2067 H 191.654 0.409867 0.522403 0
M  V30 2068 H 194.184 1.69379 1.1477 0
M  V30 2069 H 194.194 1.95701 3.58001 0
M  V30 2070 H 192.869 2.92573 2.95591 0
M  V30 2071 H 191.446 1.18811 3.53466 0
M  V30 2072 N 193.631 -1.12557 1.10312 0
M  V30 2073 C 194.561 -2.20341 0.772798 0
M  V30 2074 C 195.542 -1.68198 -0.25365 0
M  V30 2075 O 196.727 -1.93831 -0.119699 0
M  V30 2076 C 193.857 -3.46709 0.202443 0
M  V30 2077 C 192.811 -4.11996 1.15943 0
M  V30 2078 C 192.137 -5.328 0.450345 0
M  V30 2079 C 193.437 -4.5828 2.50552 0
M  V30 2080 H 195.131 -2.48229 1.674 0
M  V30 2081 H 192.677 -1.19308 0.806326 0
M  V30 2082 H 194.63 -4.2138 -0.0407752 0
M  V30 2083 H 193.354 -3.18245 -0.734001 0
M  V30 2084 H 192.013 -3.39305 1.38808 0
M  V30 2085 H 191.661 -5.00602 -0.490531 0
M  V30 2086 H 191.361 -5.7743 1.08851 0
M  V30 2087 H 192.885 -6.10219 0.215642 0
M  V30 2088 H 194.299 -5.2433 2.31843 0
M  V30 2089 H 192.696 -5.13683 3.10242 0
M  V30 2090 H 193.766 -3.72329 3.10643 0
M  V30 2091 N 195.109 -0.891671 -1.2995 0
M  V30 2092 C 196.039 -0.379797 -2.30391 0
M  V30 2093 C 197.02 0.540919 -1.6127 0
M  V30 2094 O 198.205 0.453352 -1.88834 0
M  V30 2095 C 195.335 0.400654 -3.44981 0
M  V30 2096 C 194.289 -0.428905 -4.25846 0
M  V30 2097 C 193.615 0.478557 -5.32554 0
M  V30 2098 C 194.915 -1.67458 -4.94727 0
M  V30 2099 H 196.609 -1.21914 -2.73454 0
M  V30 2100 H 194.155 -0.587675 -1.31462 0
M  V30 2101 H 196.108 0.769434 -4.14316 0
M  V30 2102 H 194.832 1.27371 -3.0074 0
M  V30 2103 H 193.491 -0.779911 -3.58208 0
M  V30 2104 H 193.139 1.34951 -4.84559 0
M  V30 2105 H 192.839 -0.0727433 -5.87555 0
M  V30 2106 H 194.363 0.843705 -6.04743 0
M  V30 2107 H 195.777 -1.376 -5.56542 0
M  V30 2108 H 194.174 -2.16659 -5.59624 0
M  V30 2109 H 195.244 -2.41518 -4.20473 0
M  V30 2110 N 196.587 1.43421 -0.653314 0
M  V30 2111 C 197.834 2.01812 -0.166745 0
M  V30 2112 C 198.162 1.51535 1.21931 0
M  V30 2113 O 197.417 0.698975 1.82792 0
M  V30 2114 C 197.716 3.57176 -0.126623 0
M  V30 2115 C 197.382 4.26798 -1.45444 0
M  V30 2116 C 196.044 4.45534 -1.81805 0
M  V30 2117 C 198.396 4.66225 -2.32989 0
M  V30 2118 C 195.724 5.00961 -3.05377 0
M  V30 2119 C 198.076 5.23021 -3.55853 0
M  V30 2120 C 196.74 5.39973 -3.9241 0
M  V30 2121 H 196.01 0.738484 -0.0610162 0
M  V30 2122 H 198.657 1.71896 -0.84404 0
M  V30 2123 H 196.962 3.86634 0.634123 0
M  V30 2124 H 198.659 4.00112 0.266723 0
M  V30 2125 H 195.249 4.12561 -1.16153 0
M  V30 2126 H 199.433 4.51443 -2.06187 0
M  V30 2127 H 194.689 5.12271 -3.3375 0
M  V30 2128 H 198.863 5.52518 -4.23907 0
M  V30 2129 H 196.49 5.82687 -4.88242 0
M  V30 2130 N 198.065 0.39524 1.52563 0
M  V30 2131 C 198.997 -0.472201 2.24283 0
M  V30 2132 C 200.01 -1.02178 1.26742 0
M  V30 2133 O 201.199 -0.923097 1.52778 0
M  V30 2134 C 198.299 -1.66775 2.95024 0
M  V30 2135 C 197.472 -1.2445 4.19322 0
M  V30 2136 C 196.531 -2.30539 4.7301 0
M  V30 2137 O 195.557 -1.91702 5.35947 0
M  V30 2138 N 196.759 -3.6253 4.53379 0
M  V30 2139 H 199.524 0.142282 2.99362 0
M  V30 2140 H 197.085 0.2219 1.60372 0
M  V30 2141 H 199.077 -2.37283 3.27839 0
M  V30 2142 H 197.647 -2.18845 2.23217 0
M  V30 2143 H 196.867 -0.368069 3.92478 0
M  V30 2144 H 198.155 -0.938457 5.0007 0
M  V30 2145 H 197.553 -3.96841 4.03154 0
M  V30 2146 H 196.11 -4.29055 4.90668 0
M  V30 2147 N 199.544 -1.57102 0.125237 0
M  V30 2148 C 200.793 -1.94582 -0.531095 0
M  V30 2149 C 201.106 -1.01126 -1.6743 0
M  V30 2150 O 202.312 -1.28097 -2.39381 0
M  V30 2151 C 200.768 -3.45839 -0.996164 0
M  V30 2152 C 200.376 -4.47842 0.118926 0
M  V30 2153 C 202.12 -3.92227 -1.62352 0
M  V30 2154 C 200.027 -5.90284 -0.363192 0
M  V30 2155 H 198.957 -0.726391 -0.20217 0
M  V30 2156 H 201.608 -1.82339 0.206092 0
M  V30 2157 H 199.99 -3.53338 -1.78796 0
M  V30 2158 H 201.164 -4.52018 0.895358 0
M  V30 2159 H 199.479 -4.11243 0.653324 0
M  V30 2160 H 202.076 -4.96069 -1.99548 0
M  V30 2161 H 202.419 -3.32552 -2.50429 0
M  V30 2162 H 202.952 -3.87554 -0.897019 0
M  V30 2163 H 199.691 -6.53728 0.481679 0
M  V30 2164 H 199.211 -5.89515 -1.10597 0
M  V30 2165 H 200.89 -6.41752 -0.822377 0
M  V30 2166 N 201.022 0.148545 -1.56898 0
M  V30 2167 C 202.299 0.890019 -1.74178 0
M  V30 2168 C 202.679 1.99407 -0.692839 0
M  V30 2169 O 202.027 2.26671 0.288505 0
M  V30 2170 C 202.237 1.43389 -3.18183 0
M  V30 2171 C 203.585 1.89791 -3.79822 0
M  V30 2172 O 204.609 1.53134 -3.21603 0
M  V30 2173 O 203.468 2.57387 -4.82093 0
M  V30 2174 H 200.562 0.420496 -0.712118 0
M  V30 2175 H 203.108 0.134591 -1.69165 0
M  V30 2176 H 201.88 0.640383 -3.86024 0
M  V30 2177 H 201.503 2.25287 -3.27615 0
M  V30 2178 N 202.5 1.5196 0.417844 0
M  V30 2179 C 203.73 1.69181 1.18581 0
M  V30 2180 C 204.138 0.397104 1.84986 0
M  V30 2181 O 203.481 -0.636011 1.72339 0
M  V30 2182 C 203.543 2.76497 2.29759 0
M  V30 2183 C 203.207 4.18514 1.83563 0
M  V30 2184 C 204.204 5.02648 1.32821 0
M  V30 2185 C 201.889 4.64708 1.90661 0
M  V30 2186 C 203.883 6.31044 0.897894 0
M  V30 2187 C 201.57 5.93096 1.47241 0
M  V30 2188 C 202.568 6.76093 0.968891 0
M  V30 2189 O 202.256 8.02078 0.540924 0
M  V30 2190 H 201.988 0.570457 0.362705 0
M  V30 2191 H 204.542 1.99249 0.498885 0
M  V30 2192 H 202.772 2.41786 3.01789 0
M  V30 2193 H 204.461 2.82403 2.91553 0
M  V30 2194 H 205.227 4.68154 1.26716 0
M  V30 2195 H 201.106 4.00216 2.28797 0
M  V30 2196 H 204.65 6.95776 0.504192 0
M  V30 2197 H 200.547 6.271 1.53022 0
M  V30 2198 H 201.315 8.15794 0.66502 0
M  V30 2199 N 203.978 -0.674533 1.42435 0
M  V30 2200 C 205.389 -1.25514 1.38214 0
M  V30 2201 C 205.74 -1.96055 0.0755464 0
M  V30 2202 O 204.865 -2.00028 -0.8257 0
M  V30 2203 C 205.46 -2.28269 2.50357 0
M  V30 2204 C 204.019 -2.81856 2.49467 0
M  V30 2205 C 203.166 -1.56182 2.29134 0
M  V30 2206 H 206.117 -0.467902 1.51646 0
M  V30 2207 H 206.138 -3.10009 2.20624 0
M  V30 2208 H 205.65 -1.769 3.45439 0
M  V30 2209 H 203.751 -3.37346 1.58204 0
M  V30 2210 H 203.864 -3.30854 3.46515 0
M  V30 2211 H 202.228 -1.82761 1.774 0
M  V30 2212 H 203.011 -1.06778 3.26272 0
M  V30 2213 N 205.456 -1.28612 -0.910864 0
M  V30 2214 C 206.366 -1.14643 -2.0468 0
M  V30 2215 C 207.382 -0.0723121 -1.7385 0
M  V30 2216 O 208.558 -0.282178 -1.99413 0
M  V30 2217 C 205.623 -0.812561 -3.37044 0
M  V30 2218 C 204.684 -1.96935 -3.81465 0
M  V30 2219 C 203.917 -1.65131 -5.07511 0
M  V30 2220 O 204.14 -0.567013 -5.67575 0
M  V30 2221 O 203.074 -2.49585 -5.47714 0
M  V30 2222 H 206.9 -2.1001 -2.19384 0
M  V30 2223 H 204.485 -1.07958 -1.03274 0
M  V30 2224 H 206.367 -0.640441 -4.16505 0
M  V30 2225 H 205.042 0.111426 -3.23508 0
M  V30 2226 H 203.949 -2.19664 -3.02818 0
M  V30 2227 H 205.282 -2.87414 -3.99567 0
M  V30 2228 N 206.934 1.1197 -1.10907 0
M  V30 2229 C 208.183 1.82947 -0.849302 0
M  V30 2230 C 208.496 1.85275 0.627112 0
M  V30 2231 O 209.702 2.52296 1.00295 0
M  V30 2232 C 208.158 3.28529 -1.46959 0
M  V30 2233 C 207.766 3.34546 -2.97965 0
M  V30 2234 C 209.51 4.04443 -1.28942 0
M  V30 2235 C 207.417 4.74491 -3.53004 0
M  V30 2236 H 206.347 0.685477 -0.314065 0
M  V30 2237 H 208.998 1.2604 -1.33365 0
M  V30 2238 H 207.38 3.85333 -0.912917 0
M  V30 2239 H 208.554 2.87654 -3.59989 0
M  V30 2240 H 206.869 2.72108 -3.15192 0
M  V30 2241 H 209.466 5.07787 -1.67502 0
M  V30 2242 H 209.809 4.15656 -0.231456 0
M  V30 2243 H 210.342 3.5401 -1.81443 0
M  V30 2244 H 207.081 4.68474 -4.58489 0
M  V30 2245 H 206.601 5.21816 -2.9575 0
M  V30 2246 H 208.28 5.4344 -3.51115 0
M  V30 2247 N 208.412 0.89855 1.29475 0
M  V30 2248 C 209.375 0.380272 2.26023 0
M  V30 2249 C 210.375 -0.484891 1.53315 0
M  V30 2250 O 211.565 -0.290108 1.71767 0
M  V30 2251 C 208.697 -0.45651 3.3783 0
M  V30 2252 H 209.89 1.23295 2.73383 0
M  V30 2253 H 207.443 0.676589 1.40897 0
M  V30 2254 H 208.178 -1.32922 2.95808 0
M  V30 2255 H 207.963 0.163393 3.91759 0
M  V30 2256 H 209.453 -0.810466 4.0966 0
M  V30 2257 N 209.89 -1.43072 0.660911 0
M  V30 2258 C 210.8 -2.34585 -0.0264163 0
M  V30 2259 C 211.816 -1.54316 -0.803898 0
M  V30 2260 O 212.992 -1.86939 -0.749391 0
M  V30 2261 C 210.057 -3.32689 -0.975639 0
M  V30 2262 C 209.118 -4.2886 -0.194236 0
M  V30 2263 C 208.351 -5.22278 -1.09825 0
M  V30 2264 O 208.574 -5.20299 -2.33763 0
M  V30 2265 O 207.508 -5.99228 -0.566513 0
M  V30 2266 H 211.334 -2.94869 0.727034 0
M  V30 2267 H 208.919 -1.43342 0.42111 0
M  V30 2268 H 210.801 -3.92995 -1.52094 0
M  V30 2269 H 209.476 -2.74898 -1.70918 0
M  V30 2270 H 208.383 -3.72011 0.394835 0
M  V30 2271 H 209.716 -4.89655 0.499899 0
M  V30 2272 N 211.368 -0.403325 -1.52352 0
M  V30 2273 C 212.616 0.174003 -2.0135 0
M  V30 2274 C 212.937 1.46139 -1.29106 0
M  V30 2275 O 212.207 1.91448 -0.415253 0
M  V30 2276 H 210.787 0.0672911 -0.743963 0
M  V30 2277 H 213.449 -0.538235 -1.87321 0
M  V30 2278 H 212.545 0.374254 -3.09848 0
M  V30 2279 N 212.846 1.57033 -0.133567 0
M  V30 2280 C 214.095 1.94861 0.520768 0
M  V30 2281 C 214.408 1.02012 1.66892 0
M  V30 2282 O 215.614 1.29365 2.38699 0
M  V30 2283 C 214.07 3.46362 0.977809 0
M  V30 2284 C 213.678 4.47773 -0.142674 0
M  V30 2285 C 215.422 3.93083 1.60269 0
M  V30 2286 C 213.329 5.90468 0.331883 0
M  V30 2287 H 212.259 0.727453 0.198315 0
M  V30 2288 H 214.91 1.82227 -0.215759 0
M  V30 2289 H 213.292 3.54282 1.7692 0
M  V30 2290 H 214.466 4.51536 -0.919317 0
M  V30 2291 H 212.781 4.10891 -0.675124 0
M  V30 2292 H 215.378 4.97121 1.96914 0
M  V30 2293 H 215.721 3.33876 2.48662 0
M  V30 2294 H 216.254 3.88025 0.876453 0
M  V30 2295 H 212.993 6.53463 -0.516341 0
M  V30 2296 H 212.513 5.90094 1.07469 0
M  V30 2297 H 214.192 6.42179 0.788332 0
M  V30 2298 N 214.325 -0.140222 1.56975 0
M  V30 2299 C 215.258 -1.20266 1.93936 0
M  V30 2300 C 216.236 -1.41212 0.806099 0
M  V30 2301 O 217.42 -1.55713 1.06234 0
M  V30 2302 C 214.547 -2.56037 2.21726 0
M  V30 2303 C 213.593 -2.51646 3.44349 0
M  V30 2304 S 214.426 -1.97678 4.97678 0
M  V30 2305 C 215.582 -3.35165 5.28597 0
M  V30 2306 H 215.815 -0.887358 2.83749 0
M  V30 2307 H 213.348 -0.346119 1.50471 0
M  V30 2308 H 215.306 -3.34167 2.38416 0
M  V30 2309 H 213.967 -2.84755 1.32566 0
M  V30 2310 H 213.16 -3.51608 3.61092 0
M  V30 2311 H 212.762 -1.81628 3.26936 0
M  V30 2312 H 215.054 -4.31302 5.2248 0
M  V30 2313 H 215.997 -3.23269 6.30002 0
M  V30 2314 H 216.405 -3.32614 4.56101 0
M  V30 2315 N 215.803 -1.52179 -0.40978 0
M  V30 2316 C 217.214 -1.58377 -0.988615 0
M  V30 2317 C 217.565 -0.423879 -1.91566 0
M  V30 2318 O 216.69 0.455844 -2.11544 0
M  V30 2319 C 217.285 -2.87044 -1.79976 0
M  V30 2320 C 215.844 -2.95722 -2.32863 0
M  V30 2321 C 214.991 -2.53309 -1.12828 0
M  V30 2322 H 217.942 -1.57558 -0.190039 0
M  V30 2323 H 217.963 -2.7236 -2.65707 0
M  V30 2324 H 217.475 -3.71444 -1.12478 0
M  V30 2325 H 215.576 -2.15814 -3.03735 0
M  V30 2326 H 215.689 -3.99951 -2.63773 0
M  V30 2327 H 214.053 -2.07142 -1.48204 0
M  V30 2328 H 214.836 -3.40082 -0.46897 0
M  V30 2329 N 217.281 0.66697 -1.42791 0
M  V30 2330 C 218.697 0.981027 -1.25889 0
M  V30 2331 C 218.897 2.00793 -0.168695 0
M  V30 2332 O 217.953 2.48321 0.45747 0
M  V30 2333 C 219.266 1.47838 -2.61848 0
M  V30 2334 C 220.814 1.59575 -2.69267 0
M  V30 2335 C 221.289 2.12704 -4.05612 0
M  V30 2336 N 222.78 2.20026 -4.07606 0
M  V30 2337 C 223.515 2.62227 -5.09926 0
M  V30 2338 N 223.011 3.03824 -6.22626 0
M  V30 2339 N 224.804 2.62045 -4.97281 0
M  V30 2340 H 216.955 -0.0127891 -2.12396 0
M  V30 2341 H 219.218 0.0568258 -0.946295 0
M  V30 2342 H 218.924 0.798299 -3.4252 0
M  V30 2343 H 218.798 2.45579 -2.86305 0
M  V30 2344 H 221.185 2.26687 -1.88936 0
M  V30 2345 H 221.266 0.60302 -2.48591 0
M  V30 2346 H 220.91 1.46198 -4.86404 0
M  V30 2347 H 220.84 3.12782 -4.23645 0
M  V30 2348 H 223.331 1.90708 -3.2625 0
M  V30 2349 H 223.644 3.34734 -6.96544 0
M  V30 2350 H 221.989 3.01662 -6.26119 0
M  V30 2351 H 225.18 2.28916 -4.08308 0
M  V30 2352 H 225.353 2.94613 -5.77154 0
M  V30 2353 N 218.759 1.29093 0.90403 0
M  V30 2354 C 219.709 1.10482 1.99443 0
M  V30 2355 C 220.693 0.0255401 1.6088 0
M  V30 2356 O 221.885 0.24677 1.75271 0
M  V30 2357 C 219.014 0.778882 3.34348 0
M  V30 2358 C 218.1 1.89749 3.79284 0
M  V30 2359 N 218.491 3.14045 3.96497 0
M  V30 2360 C 216.789 1.78955 4.08523 0
M  V30 2361 C 217.49 3.86996 4.34292 0
M  V30 2362 N 216.466 3.14909 4.43095 0
M  V30 2363 H 220.268 2.04778 2.10815 0
M  V30 2364 H 217.782 1.20155 1.09255 0
M  V30 2365 H 219.779 0.62661 4.12164 0
M  V30 2366 H 218.439 -0.156205 3.24324 0
M  V30 2367 H 219.45 3.49548 3.82148 0
M  V30 2368 H 216.127 0.926886 4.07081 0
M  V30 2369 H 217.517 4.93941 4.55491 0
M  V30 2370 N 220.237 -1.11381 1.11499 0
M  V30 2371 C 221.653 -1.35143 0.849031 0
M  V30 2372 C 221.853 -1.94515 -0.525938 0
M  V30 2373 O 220.909 -2.1785 -1.27662 0
M  V30 2374 C 222.222 -2.28249 1.95762 0
M  V30 2375 C 223.77 -2.41812 1.98736 0
M  V30 2376 C 224.245 -3.3824 3.088 0
M  V30 2377 N 225.736 -3.45803 3.08179 0
M  V30 2378 C 226.471 -4.20358 3.89982 0
M  V30 2379 N 225.967 -4.97884 4.8175 0
M  V30 2380 N 227.76 -4.15877 3.78157 0
M  V30 2381 H 219.911 -0.712062 2.00109 0
M  V30 2382 H 222.174 -0.376025 0.870235 0
M  V30 2383 H 221.88 -1.91817 2.94787 0
M  V30 2384 H 221.754 -3.28473 1.85433 0
M  V30 2385 H 224.141 -2.77518 1.00338 0
M  V30 2386 H 224.222 -1.41437 2.13141 0
M  V30 2387 H 223.866 -3.03261 4.07425 0
M  V30 2388 H 223.796 -4.38471 2.91635 0
M  V30 2389 H 226.287 -2.90506 2.41691 0
M  V30 2390 H 226.6 -5.52142 5.40702 0
M  V30 2391 H 224.945 -4.97043 4.85771 0
M  V30 2392 H 228.136 -3.544 3.05808 0
M  V30 2393 H 228.309 -4.73723 4.42143 0
M  V30 2394 N 221.715 -0.905404 -1.28997 0
M  V30 2395 C 222.962 -0.534248 -1.95325 0
M  V30 2396 C 223.29 0.920535 -1.71337 0
M  V30 2397 O 222.545 1.66861 -1.02254 0
M  V30 2398 C 222.844 -0.779906 -3.48787 0
M  V30 2399 C 222.51 -2.21293 -3.92861 0
M  V30 2400 C 221.172 -2.60475 -4.04606 0
M  V30 2401 C 223.524 -3.14587 -4.15553 0
M  V30 2402 C 220.852 -3.9212 -4.36416 0
M  V30 2403 C 223.204 -4.45787 -4.48839 0
M  V30 2404 C 221.868 -4.84834 -4.58794 0
M  V30 2405 H 221.138 -0.195495 -0.714747 0
M  V30 2406 H 223.785 -1.14514 -1.53488 0
M  V30 2407 H 222.09 -0.0861365 -3.91705 0
M  V30 2408 H 223.787 -0.472029 -3.98212 0
M  V30 2409 H 220.377 -1.89887 -3.84241 0
M  V30 2410 H 224.561 -2.85528 -4.0594 0
M  V30 2411 H 219.817 -4.22086 -4.42327 0
M  V30 2412 H 223.991 -5.18098 -4.65346 0
M  V30 2413 H 221.618 -5.86877 -4.83197 0
M  V30 2414 N 223.193 1.4272 -0.668489 0
M  V30 2415 C 224.126 2.28111 0.0637898 0
M  V30 2416 C 225.104 1.40705 0.814912 0
M  V30 2417 O 226.288 1.70146 0.81134 0
M  V30 2418 C 223.415 3.20429 1.0974 0
M  V30 2419 C 222.461 4.24197 0.442579 0
M  V30 2420 S 223.294 5.29563 -0.795173 0
M  V30 2421 C 224.45 6.25449 0.237516 0
M  V30 2422 H 224.683 2.8987 -0.660521 0
M  V30 2423 H 222.216 1.47456 -0.457821 0
M  V30 2424 H 224.174 3.74158 1.68868 0
M  V30 2425 H 222.835 2.57818 1.79411 0
M  V30 2426 H 222.028 4.88954 1.22227 0
M  V30 2427 H 221.63 3.73925 -0.0749554 0
M  V30 2428 H 223.922 6.68524 1.09915 0
M  V30 2429 H 224.865 7.07104 -0.375421 0
M  V30 2430 H 225.273 5.61511 0.580167 0
M  V30 2431 N 224.671 0.411399 1.52136 0
M  V30 2432 C 225.896 -0.165538 2.06738 0
M  V30 2433 C 226.321 -1.379 1.27926 0
M  V30 2434 O 225.679 -1.78628 0.310114 0
M  V30 2435 C 225.727 -0.492124 3.57226 0
M  V30 2436 O 224.831 -1.58276 3.80818 0
M  V30 2437 H 224.172 -0.0132132 0.663869 0
M  V30 2438 H 226.702 0.585253 1.96051 0
M  V30 2439 H 226.712 -0.750104 4.01045 0
M  V30 2440 H 225.387 0.394922 4.14021 0
M  V30 2441 H 223.964 -1.31677 3.48877 0
M  V30 2442 N 226.149 -1.5696 0.141893 0
M  V30 2443 C 227.112 -2.15316 -0.785587 0
M  V30 2444 C 228.112 -1.09366 -1.1788 0
M  V30 2445 O 229.302 -1.35031 -1.10056 0
M  V30 2446 C 226.434 -2.71211 -2.06537 0
M  V30 2447 H 227.627 -2.98608 -0.278041 0
M  V30 2448 H 225.18 -1.5593 -0.107519 0
M  V30 2449 H 225.915 -1.91571 -2.6167 0
M  V30 2450 H 225.7 -3.4872 -1.79268 0
M  V30 2451 H 227.19 -3.16189 -2.72789 0
M  V30 2452 N 227.627 0.131896 -1.57047 0
M  V30 2453 C 228.857 0.855219 -1.88068 0
M  V30 2454 C 229.265 1.74557 -0.729817 0
M  V30 2455 O 228.608 1.81083 0.308962 0
M  V30 2456 C 228.67 1.75119 -3.13964 0
M  V30 2457 C 228.334 1.03646 -4.45091 0
M  V30 2458 C 229.331 0.383276 -5.18485 0
M  V30 2459 C 227.016 1.02148 -4.91804 0
M  V30 2460 C 229.01 -0.275347 -6.36805 0
M  V30 2461 C 226.697 0.359047 -6.10044 0
M  V30 2462 C 227.695 -0.288222 -6.82392 0
M  V30 2463 O 227.383 -0.94011 -7.98384 0
M  V30 2464 H 227.115 0.251864 -0.627328 0
M  V30 2465 H 229.669 0.124782 -2.05021 0
M  V30 2466 H 227.899 2.52295 -2.9306 0
M  V30 2467 H 229.588 2.3478 -3.31109 0
M  V30 2468 H 230.354 0.386562 -4.83457 0
M  V30 2469 H 226.233 1.5147 -4.35405 0
M  V30 2470 H 229.777 -0.781148 -6.93213 0
M  V30 2471 H 225.674 0.35348 -6.44531 0
M  V30 2472 H 226.442 -0.84329 -8.14144 0
M  V30 2473 N 229.106 1.52395 0.401703 0
M  V30 2474 C 230.016 1.7917 1.51444 0
M  V30 2475 C 231.032 0.677691 1.6026 0
M  V30 2476 O 232.208 0.963909 1.76835 0
M  V30 2477 C 229.273 1.94347 2.87107 0
M  V30 2478 C 228.334 3.18257 2.88116 0
M  V30 2479 C 227.567 3.32701 4.17308 0
M  V30 2480 O 227.79 2.52238 5.11598 0
M  V30 2481 O 226.724 4.25891 4.25324 0
M  V30 2482 H 230.55 2.73633 1.31752 0
M  V30 2483 H 228.135 1.3733 0.588296 0
M  V30 2484 H 230.017 2.06109 3.67555 0
M  V30 2485 H 228.692 1.03073 3.06851 0
M  V30 2486 H 227.599 3.11947 2.06494 0
M  V30 2487 H 228.932 4.09336 2.73322 0
M  V30 2488 N 230.584 -0.659388 1.43143 0
M  V30 2489 C 231.516 -1.7849 1.43784 0
M  V30 2490 C 232.529 -1.5932 0.334787 0
M  V30 2491 O 233.718 -1.68155 0.598842 0
M  V30 2492 C 230.818 -3.15828 1.22906 0
M  V30 2493 C 229.991 -3.61711 2.45934 0
M  V30 2494 C 229.05 -4.77831 2.20371 0
M  V30 2495 O 228.076 -4.87586 2.93681 0
M  V30 2496 N 229.278 -5.67611 1.21647 0
M  V30 2497 H 232.043 -1.7842 2.40803 0
M  V30 2498 H 229.604 -0.84302 1.3822 0
M  V30 2499 H 231.596 -3.91189 1.03697 0
M  V30 2500 H 230.166 -3.10707 0.343542 0
M  V30 2501 H 229.386 -2.76861 2.80609 0
M  V30 2502 H 230.674 -3.89112 3.27825 0
M  V30 2503 H 230.072 -5.62397 0.610449 0
M  V30 2504 H 228.629 -6.42719 1.08423 0
M  V30 2505 N 232.062 -1.29571 -0.897171 0
M  V30 2506 C 233.478 -1.07637 -1.17841 0
M  V30 2507 C 233.678 0.170713 -2.00776 0
M  V30 2508 O 232.734 0.867768 -2.3712 0
M  V30 2509 C 234.047 -2.3332 -1.8969 0
M  V30 2510 C 235.595 -2.38664 -2.02505 0
M  V30 2511 C 236.07 -3.64157 -2.77765 0
M  V30 2512 N 237.561 -3.64894 -2.85318 0
M  V30 2513 C 238.296 -4.58679 -3.44094 0
M  V30 2514 N 237.792 -5.62799 -4.04017 0
M  V30 2515 N 239.585 -4.46245 -3.41793 0
M  V30 2516 H 231.736 -2.09598 -0.343883 0
M  V30 2517 H 233.999 -0.923333 -0.214848 0
M  V30 2518 H 233.705 -3.24262 -1.36187 0
M  V30 2519 H 233.579 -2.41025 -2.9015 0
M  V30 2520 H 235.966 -1.48208 -2.55183 0
M  V30 2521 H 236.047 -2.34943 -1.01171 0
M  V30 2522 H 235.691 -4.54965 -2.25763 0
M  V30 2523 H 235.621 -3.65137 -3.7945 0
M  V30 2524 H 238.112 -2.89613 -2.42761 0
M  V30 2525 H 238.425 -6.3048 -4.46895 0
M  V30 2526 H 236.77 -5.66605 -4.02472 0
M  V30 2527 H 239.961 -3.64094 -2.94199 0
M  V30 2528 H 240.134 -5.19518 -3.87304 0
M  V30 2529 N 233.54 1.10788 -1.12088 0
M  V30 2530 C 234.789 1.82036 -0.868659 0
M  V30 2531 C 235.102 1.85929 0.607426 0
M  V30 2532 O 236.308 2.53346 0.97613 0
M  V30 2533 C 234.764 3.26951 -1.50435 0
M  V30 2534 C 234.372 3.31367 -3.01496 0
M  V30 2535 C 236.116 4.03053 -1.33225 0
M  V30 2536 C 234.023 4.7072 -3.58017 0
M  V30 2537 H 232.953 0.682108 -0.321318 0
M  V30 2538 H 235.604 1.24618 -1.34694 0
M  V30 2539 H 233.986 3.84343 -0.953735 0
M  V30 2540 H 235.16 2.83819 -3.6302 0
M  V30 2541 H 233.475 2.6875 -3.18061 0
M  V30 2542 H 236.072 5.05981 -1.72878 0
M  V30 2543 H 236.415 4.15387 -0.275529 0
M  V30 2544 H 236.948 3.52066 -1.85188 0
M  V30 2545 H 233.687 4.63585 -4.63432 0
M  V30 2546 H 233.207 5.1865 -3.01268 0
M  V30 2547 H 234.886 5.39685 -3.56859 0
M  V30 2548 N 235.018 0.912232 1.28515 0
M  V30 2549 C 235.928 0.404506 2.31086 0
M  V30 2550 C 236.944 -0.50707 1.66448 0
M  V30 2551 O 238.12 -0.393624 1.97516 0
M  V30 2552 C 235.185 -0.348572 3.44943 0
M  V30 2553 C 234.246 0.59604 4.25142 0
M  V30 2554 C 233.479 -0.121194 5.33562 0
M  V30 2555 O 233.702 -1.34317 5.5436 0
M  V30 2556 O 232.636 0.542716 5.99448 0
M  V30 2557 H 236.462 1.25579 2.76521 0
M  V30 2558 H 234.047 0.676998 1.33181 0
M  V30 2559 H 235.929 -0.77395 4.14232 0
M  V30 2560 H 234.604 -1.17571 3.01594 0
M  V30 2561 H 233.511 1.07079 3.58448 0
M  V30 2562 H 234.844 1.38995 4.72167 0
M  V30 2563 N 236.496 -1.42363 0.676048 0
M  V30 2564 C 237.907 -1.84649 0.275948 0
M  V30 2565 C 238.258 -1.56588 -1.18214 0
M  V30 2566 O 237.383 -1.02634 -1.90513 0
M  V30 2567 C 237.978 -3.35178 0.494053 0
M  V30 2568 C 236.537 -3.76109 0.148061 0
M  V30 2569 C 235.684 -2.65931 0.785891 0
M  V30 2570 H 238.635 -1.32192 0.878121 0
M  V30 2571 H 238.656 -3.79655 -0.25343 0
M  V30 2572 H 238.168 -3.55571 1.55535 0
M  V30 2573 H 236.269 -3.61323 -0.909742 0
M  V30 2574 H 236.382 -4.7546 0.589454 0
M  V30 2575 H 234.746 -2.53773 0.217113 0
M  V30 2576 H 235.529 -2.89146 1.85067 0
M  V30 2577 N 237.974 -0.419461 -1.51915 0
M  V30 2578 C 239.385 0.0477853 -1.86639 0
M  V30 2579 C 239.736 1.43531 -1.33766 0
M  V30 2580 O 238.861 2.05401 -0.68113 0
M  V30 2581 C 239.456 0.0934885 -3.38671 0
M  V30 2582 C 238.015 0.505097 -3.72996 0
M  V30 2583 C 237.162 -0.313792 -2.75519 0
M  V30 2584 H 240.113 -0.636088 -1.45395 0
M  V30 2585 H 240.134 0.906667 -3.6954 0
M  V30 2586 H 239.646 -0.916501 -3.77123 0
M  V30 2587 H 237.747 1.52135 -3.40126 0
M  V30 2588 H 237.86 0.242309 -4.78487 0
M  V30 2589 H 236.224 0.225363 -2.53701 0
M  V30 2590 H 237.007 -1.32232 -3.16812 0
M  V30 2591 N 239.452 1.56882 -0.150215 0
M  V30 2592 C 240.729 1.87844 0.545327 0
M  V30 2593 C 241.109 1.0567 1.82749 0
M  V30 2594 O 240.457 0.144442 2.28043 0
M  V30 2595 C 240.667 3.39526 0.80767 0
M  V30 2596 C 242.015 4.08814 1.14703 0
M  V30 2597 O 243.039 3.44723 0.896917 0
M  V30 2598 O 241.898 5.22004 1.61784 0
M  V30 2599 H 238.992 0.778677 0.278553 0
M  V30 2600 H 241.538 1.68666 -0.187068 0
M  V30 2601 H 240.31 3.91173 -0.0996096 0
M  V30 2602 H 239.933 3.64243 1.59413 0
M  V30 2603 N 240.93 -0.123565 1.57115 0
M  V30 2604 C 242.346 -0.476961 1.52306 0
M  V30 2605 C 242.546 -1.82109 0.86248 0
M  V30 2606 O 241.602 -2.48586 0.442884 0
M  V30 2607 C 242.915 -0.465661 2.97073 0
M  V30 2608 C 244.463 -0.549534 3.08138 0
M  V30 2609 C 244.938 -0.568669 4.54456 0
M  V30 2610 N 246.429 -0.630237 4.58892 0
M  V30 2611 C 247.164 -0.666415 5.69514 0
M  V30 2612 N 246.66 -0.660514 6.89644 0
M  V30 2613 N 248.453 -0.709077 5.5761 0
M  V30 2614 H 240.604 0.757198 1.98445 0
M  V30 2615 H 242.867 0.278808 0.906074 0
M  V30 2616 H 242.573 0.454232 3.48754 0
M  V30 2617 H 242.447 -1.29513 3.54269 0
M  V30 2618 H 244.834 -1.45985 2.56461 0
M  V30 2619 H 244.915 0.307532 2.53945 0
M  V30 2620 H 244.559 0.337581 5.06777 0
M  V30 2621 H 244.489 -1.44256 5.06456 0
M  V30 2622 H 246.98 -0.641146 3.72421 0
M  V30 2623 H 247.293 -0.690616 7.69708 0
M  V30 2624 H 245.638 -0.628012 6.92157 0
M  V30 2625 H 248.829 -0.711019 4.62668 0
M  V30 2626 H 249.002 -0.733804 6.43832 0
M  V30 2627 N 242.408 -1.52605 -0.393616 0
M  V30 2628 C 243.824 -1.41753 -0.733357 0
M  V30 2629 C 244.024 -0.534293 -1.94287 0
M  V30 2630 O 243.08 -0.0059787 -2.52499 0
M  V30 2631 C 244.393 -2.84531 -0.972772 0
M  V30 2632 C 245.941 -2.93978 -1.07453 0
M  V30 2633 C 246.416 -4.37756 -1.3466 0
M  V30 2634 N 247.907 -4.4106 -1.41492 0
M  V30 2635 C 248.642 -5.49387 -1.642 0
M  V30 2636 N 248.138 -6.67806 -1.8441 0
M  V30 2637 N 249.931 -5.36923 -1.66342 0
M  V30 2638 H 242.082 -2.08555 0.402328 0
M  V30 2639 H 244.345 -0.940654 0.117789 0
M  V30 2640 H 244.051 -3.51353 -0.156204 0
M  V30 2641 H 243.925 -3.26508 -1.88871 0
M  V30 2642 H 246.312 -2.27326 -1.88167 0
M  V30 2643 H 246.393 -2.55435 -0.136605 0
M  V30 2644 H 246.037 -5.04972 -0.544581 0
M  V30 2645 H 245.967 -4.73848 -2.2973 0
M  V30 2646 H 248.458 -3.55705 -1.27601 0
M  V30 2647 H 248.771 -7.46141 -2.01231 0
M  V30 2648 H 247.116 -6.70843 -1.81644 0
M  V30 2649 H 250.307 -4.43381 -1.50102 0
M  V30 2650 H 250.48 -6.21416 -1.837 0
M  V30 2651 N 243.887 0.651787 -1.4349 0
M  V30 2652 C 245.133 1.4121 -1.46395 0
M  V30 2653 C 245.488 1.92202 -0.087366 0
M  V30 2654 O 244.781 1.69452 0.894231 0
M  V30 2655 C 244.975 2.60914 -2.44251 0
M  V30 2656 C 244.804 2.21639 -3.91288 0
M  V30 2657 C 243.574 2.09897 -4.59643 0
M  V30 2658 C 245.772 1.81835 -4.81083 0
M  V30 2659 N 243.754 1.63967 -5.91598 0
M  V30 2660 C 245.125 1.46998 -6.02322 0
M  V30 2661 C 247.18 1.69031 -4.6833 0
M  V30 2662 C 245.883 1.00638 -7.12225 0
M  V30 2663 C 247.909 1.24077 -5.78238 0
M  V30 2664 C 247.271 0.901772 -6.98604 0
M  V30 2665 H 243.37 0.512322 -0.590805 0
M  V30 2666 H 245.954 0.74989 -1.7968 0
M  V30 2667 H 244.125 3.24792 -2.1299 0
M  V30 2668 H 245.857 3.27622 -2.37584 0
M  V30 2669 H 242.612 2.297 -4.14168 0
M  V30 2670 H 243.036 1.43359 -6.61647 0
M  V30 2671 H 247.678 1.93878 -3.75727 0
M  V30 2672 H 245.396 0.745399 -8.04655 0
M  V30 2673 H 248.982 1.14657 -5.7039 0
M  V30 2674 H 247.862 0.559226 -7.82203 0
M  V30 2675 N 245.365 1.30045 0.890287 0
M  V30 2676 C 246.297 1.11786 2.00091 0
M  V30 2677 C 247.31 0.0626307 1.62679 0
M  V30 2678 O 248.499 0.308112 1.75821 0
M  V30 2679 C 245.599 0.681527 3.31977 0
M  V30 2680 C 244.772 1.81735 3.97858 0
M  V30 2681 C 243.831 1.37045 5.08041 0
M  V30 2682 O 242.857 2.07677 5.29961 0
M  V30 2683 N 244.059 0.246525 5.79976 0
M  V30 2684 H 246.824 2.07441 2.16306 0
M  V30 2685 H 244.385 1.2211 1.06305 0
M  V30 2686 H 246.377 0.365675 4.03045 0
M  V30 2687 H 244.947 -0.182828 3.12065 0
M  V30 2688 H 244.167 2.30159 3.20032 0
M  V30 2689 H 245.455 2.57865 4.38615 0
M  V30 2690 H 244.853 -0.34215 5.64664 0
M  V30 2691 H 243.41 -0.00990438 6.51799 0
M  V30 2692 N 246.843 -1.10192 1.12674 0
M  V30 2693 C 248.073 -1.85713 0.905213 0
M  V30 2694 C 248.481 -1.81056 -0.549108 0
M  V30 2695 O 247.824 -1.19927 -1.39151 0
M  V30 2696 C 247.886 -3.34972 1.30516 0
M  V30 2697 C 247.55 -3.63385 2.77129 0
M  V30 2698 C 248.547 -3.59772 3.75313 0
M  V30 2699 C 246.232 -3.91981 3.14096 0
M  V30 2700 C 248.226 -3.84354 5.08479 0
M  V30 2701 C 245.913 -4.16218 4.47443 0
M  V30 2702 C 246.911 -4.12395 5.44444 0
M  V30 2703 O 246.599 -4.36014 6.75387 0
M  V30 2704 H 246.331 -0.593719 0.323223 0
M  V30 2705 H 248.885 -1.40198 1.50112 0
M  V30 2706 H 247.115 -3.81156 0.652463 0
M  V30 2707 H 248.804 -3.91886 1.05736 0
M  V30 2708 H 249.57 -3.37716 3.48099 0
M  V30 2709 H 245.449 -3.94085 2.39202 0
M  V30 2710 H 248.993 -3.81285 5.84181 0
M  V30 2711 H 244.89 -4.37754 4.74386 0
M  V30 2712 H 245.658 -4.53516 6.8137 0
M  V30 2713 N 248.321 -0.919034 -1.28029 0
M  V30 2714 C 249.251 -0.428581 -2.29533 0
M  V30 2715 C 250.232 0.50659 -1.62381 0
M  V30 2716 O 251.417 0.413195 -1.89753 0
M  V30 2717 C 248.547 0.327388 -3.45753 0
M  V30 2718 C 247.501 -0.519137 -4.2484 0
M  V30 2719 C 246.827 0.365486 -5.33449 0
M  V30 2720 C 248.127 -1.77914 -4.91064 0
M  V30 2721 H 249.821 -1.27687 -2.70807 0
M  V30 2722 H 247.367 -0.615428 -1.30186 0
M  V30 2723 H 249.32 0.681378 -4.15855 0
M  V30 2724 H 248.044 1.20963 -3.03374 0
M  V30 2725 H 246.703 -0.855717 -3.56473 0
M  V30 2726 H 246.351 1.24642 -4.87312 0
M  V30 2727 H 246.051 -0.197356 -5.87268 0
M  V30 2728 H 247.575 0.715241 -6.06396 0
M  V30 2729 H 248.989 -1.49374 -5.53498 0
M  V30 2730 H 247.386 -2.2848 -5.54903 0
M  V30 2731 H 248.456 -2.50382 -4.15255 0
M  V30 2732 N 249.799 1.42003 -0.683588 0
M  V30 2733 C 250.729 2.33487 -0.024866 0
M  V30 2734 C 251.71 1.51163 0.779975 0
M  V30 2735 O 252.895 1.79739 0.735362 0
M  V30 2736 C 250.025 3.3487 0.920836 0
M  V30 2737 C 248.979 4.27414 0.223958 0
M  V30 2738 C 248.305 5.19074 1.2832 0
M  V30 2739 C 249.605 5.14445 -0.90242 0
M  V30 2740 H 251.299 2.88819 -0.788921 0
M  V30 2741 H 248.845 1.38873 -0.38083 0
M  V30 2742 H 250.798 3.97787 1.39081 0
M  V30 2743 H 249.522 2.77861 1.71642 0
M  V30 2744 H 248.181 3.65904 -0.225864 0
M  V30 2745 H 247.829 4.58387 2.071 0
M  V30 2746 H 247.529 5.81822 0.821995 0
M  V30 2747 H 249.053 5.84867 1.75392 0
M  V30 2748 H 250.467 5.70998 -0.513272 0
M  V30 2749 H 248.864 5.86072 -1.28997 0
M  V30 2750 H 249.934 4.52322 -1.74737 0
M  V30 2751 N 251.277 0.427512 1.51691 0
M  V30 2752 C 252.21 -0.433876 2.24037 0
M  V30 2753 C 253.188 -1.03287 1.25581 0
M  V30 2754 O 254.372 -1.07722 1.54688 0
M  V30 2755 C 251.499 -1.60385 2.98319 0
M  V30 2756 C 250.545 -1.12648 4.11355 0
M  V30 2757 S 251.378 -0.076543 5.35445 0
M  V30 2758 C 252.534 -1.25141 6.13262 0
M  V30 2759 H 252.767 0.180367 2.96752 0
M  V30 2760 H 250.3 0.211946 1.52938 0
M  V30 2761 H 252.258 -2.27462 3.41718 0
M  V30 2762 H 250.919 -2.18948 2.25213 0
M  V30 2763 H 250.112 -2.0011 4.62571 0
M  V30 2764 H 249.714 -0.534088 3.70167 0
M  V30 2765 H 252.006 -2.17162 6.41753 0
M  V30 2766 H 252.949 -0.779411 7.03797 0
M  V30 2767 H 253.357 -1.48553 5.44603 0
M  V30 2768 N 252.755 -1.56801 0.158532 0
M  V30 2769 C 253.718 -2.16138 -0.762705 0
M  V30 2770 C 254.718 -1.1061 -1.16713 0
M  V30 2771 O 255.908 -1.36191 -1.08617 0
M  V30 2772 C 253.04 -2.73386 -2.03649 0
M  V30 2773 H 254.233 -2.98886 -0.246354 0
M  V30 2774 H 251.786 -1.56035 -0.0909744 0
M  V30 2775 H 252.521 -1.94335 -2.59623 0
M  V30 2776 H 252.306 -3.50601 -1.75559 0
M  V30 2777 H 253.796 -3.19065 -2.6942 0
M  V30 2778 N 254.233 0.115231 -1.57178 0
M  V30 2779 C 255.196 1.12526 -1.99676 0
M  V30 2780 C 256.196 1.34095 -0.88742 0
M  V30 2781 O 257.386 1.30548 -1.15337 0
M  V30 2782 C 254.518 2.4789 -2.34015 0
M  V30 2783 H 255.711 0.759912 -2.90113 0
M  V30 2784 H 253.264 0.359648 -1.52106 0
M  V30 2785 H 253.999 2.89339 -1.4647 0
M  V30 2786 H 253.784 2.33588 -3.14927 0
M  V30 2787 H 255.274 3.20575 -2.67622 0
M  V30 2788 N 255.711 1.52812 0.385517 0
M  V30 2789 C 256.621 1.80766 1.49535 0
M  V30 2790 C 257.637 0.694651 1.59532 0
M  V30 2791 O 258.813 0.982611 1.75803 0
M  V30 2792 C 255.878 1.97381 2.85029 0
M  V30 2793 C 254.939 3.21295 2.84724 0
M  V30 2794 C 254.172 3.37108 4.13756 0
M  V30 2795 O 254.395 2.5765 5.08893 0
M  V30 2796 O 253.329 4.30378 4.20783 0
M  V30 2797 H 257.155 2.75015 1.28842 0
M  V30 2798 H 254.74 1.37946 0.573697 0
M  V30 2799 H 256.622 2.09996 3.65349 0
M  V30 2800 H 255.297 1.06322 3.05741 0
M  V30 2801 H 254.204 3.1412 2.03174 0
M  V30 2802 H 255.537 4.12212 2.68965 0
M  V30 2803 N 257.189 -0.644168 1.43834 0
M  V30 2804 C 258.6 -1.22554 1.40845 0
M  V30 2805 C 258.951 -1.9585 0.117115 0
M  V30 2806 O 258.076 -2.01734 -0.783086 0
M  V30 2807 C 258.671 -2.22907 2.55143 0
M  V30 2808 C 257.23 -2.76501 2.5539 0
M  V30 2809 C 256.377 -1.51287 2.32396 0
M  V30 2810 H 259.328 -0.43563 1.52604 0
M  V30 2811 H 259.349 -3.05259 2.2715 0
M  V30 2812 H 258.861 -1.69533 3.49114 0
M  V30 2813 H 256.962 -3.33914 1.65324 0
M  V30 2814 H 257.075 -3.23429 3.53455 0
M  V30 2815 H 255.439 -1.78957 1.81236 0
M  V30 2816 H 256.222 -0.998336 3.28463 0
M  V30 2817 N 258.668 -1.30515 -0.883378 0
M  V30 2818 C 259.898 -1.22182 -1.66599 0
M  V30 2819 C 260.306 0.217507 -1.87946 0
M  V30 2820 O 259.649 1.1554 -1.42815 0
M  V30 2821 C 259.711 -1.88146 -3.06335 0
M  V30 2822 C 259.375 -3.37476 -3.08154 0
M  V30 2823 C 260.372 -4.33443 -2.87094 0
M  V30 2824 C 258.057 -3.7895 -3.29701 0
M  V30 2825 C 260.051 -5.68858 -2.8754 0
M  V30 2826 C 257.738 -5.14482 -3.29776 0
M  V30 2827 C 258.736 -6.09246 -3.0872 0
M  V30 2828 O 258.424 -7.42302 -3.08615 0
M  V30 2829 H 258.156 -0.423898 -0.52658 0
M  V30 2830 H 260.71 -1.72703 -1.11188 0
M  V30 2831 H 258.94 -1.32157 -3.63416 0
M  V30 2832 H 260.629 -1.7391 -3.66756 0
M  V30 2833 H 261.395 -4.02733 -2.70243 0
M  V30 2834 H 257.274 -3.05631 -3.45124 0
M  V30 2835 H 260.818 -6.428 -2.71024 0
M  V30 2836 H 256.715 -5.44832 -3.46163 0
M  V30 2837 H 257.483 -7.5131 -3.24769 0
M  V30 2838 N 260.146 1.09593 -1.13257 0
M  V30 2839 C 261.056 2.19739 -0.821691 0
M  V30 2840 C 262.072 1.72926 0.19302 0
M  V30 2841 O 263.248 2.01385 0.0244895 0
M  V30 2842 C 260.313 3.45482 -0.290333 0
M  V30 2843 C 259.374 4.06985 -1.36607 0
M  V30 2844 C 258.607 5.26726 -0.859975 0
M  V30 2845 O 258.83 5.69594 0.303082 0
M  V30 2846 O 257.764 5.7931 -1.63351 0
M  V30 2847 H 261.59 2.48781 -1.74189 0
M  V30 2848 H 259.175 1.18496 -0.909894 0
M  V30 2849 H 261.057 4.214 0.000674022 0
M  V30 2850 H 259.732 3.18047 0.602306 0
M  V30 2851 H 258.639 3.32712 -1.71037 0
M  V30 2852 H 259.972 4.38643 -2.23279 0
M  V30 2853 N 261.624 0.925811 1.2754 0
M  V30 2854 C 262.852 0.581509 1.9856 0
M  V30 2855 C 263.267 -0.840041 1.69082 0
M  V30 2856 O 262.624 -1.55805 0.950312 0
M  V30 2857 C 262.675 0.795589 3.52637 0
M  V30 2858 O 262.396 2.16121 3.81082 0
M  V30 2859 C 263.897 0.459744 4.4091 0
M  V30 2860 H 261.117 0.220538 0.633722 0
M  V30 2861 H 263.661 1.24232 1.6244 0
M  V30 2862 H 261.816 0.18161 3.86974 0
M  V30 2863 H 262.23 2.2098 4.75676 0
M  V30 2864 H 263.704 0.660244 5.48037 0
M  V30 2865 H 264.181 -0.604625 4.35018 0
M  V30 2866 H 264.787 1.05178 4.12089 0
M  V30 2867 N 263.102 -1.41638 0.69111 0
M  V30 2868 C 264.351 -2.00526 0.217318 0
M  V30 2869 C 264.664 -1.55353 -1.18848 0
M  V30 2870 O 265.87 -2.06769 -1.75951 0
M  V30 2871 C 264.326 -3.58313 0.337639 0
M  V30 2872 C 263.934 -4.12469 1.74852 0
M  V30 2873 C 265.678 -4.24431 -0.0766066 0
M  V30 2874 C 263.585 -5.62675 1.82074 0
M  V30 2875 H 262.515 -0.750008 0.0774893 0
M  V30 2876 H 265.166 -1.6217 0.858661 0
M  V30 2877 H 263.548 -3.9425 -0.371879 0
M  V30 2878 H 264.722 -3.8796 2.48644 0
M  V30 2879 H 263.037 -3.58861 2.11205 0
M  V30 2880 H 265.634 -5.34683 -0.0430284 0
M  V30 2881 H 265.977 -4.01101 -1.1146 0
M  V30 2882 H 266.51 -3.93512 0.582476 0
M  V30 2883 H 263.249 -5.90826 2.83911 0
M  V30 2884 H 262.769 -5.89124 1.12661 0
M  V30 2885 H 264.448 -6.27371 1.58159 0
M  V30 2886 N 264.58 -0.43555 -1.51462 0
M  V30 2887 C 265.543 0.365137 -2.26273 0
M  V30 2888 C 266.543 0.951227 -1.29647 0
M  V30 2889 O 267.733 0.825958 -1.53374 0
M  V30 2890 C 264.865 1.51645 -3.05314 0
M  V30 2891 H 266.058 -0.290474 -2.9849 0
M  V30 2892 H 263.611 -0.188676 -1.55157 0
M  V30 2893 H 264.346 2.20816 -2.3751 0
M  V30 2894 H 264.131 1.10238 -3.76284 0
M  V30 2895 H 265.621 2.08218 -3.61987 0
M  V30 2896 N 266.058 1.56714 -0.166846 0
M  V30 2897 C 267.305 1.96747 0.479252 0
M  V30 2898 C 267.633 1.05263 1.63554 0
M  V30 2899 O 266.888 0.0858098 1.95512 0
M  V30 2900 C 267.187 3.42889 1.00806 0
M  V30 2901 C 266.853 4.50889 -0.0318574 0
M  V30 2902 C 265.515 4.8015 -0.317675 0
M  V30 2903 C 267.867 5.15949 -0.737956 0
M  V30 2904 C 265.195 5.71772 -1.31506 0
M  V30 2905 C 267.547 6.08647 -1.72429 0
M  V30 2906 C 266.211 6.36277 -2.0176 0
M  V30 2907 H 265.481 0.719949 0.175371 0
M  V30 2908 H 268.128 1.89756 -0.257864 0
M  V30 2909 H 266.433 3.4681 1.82291 0
M  V30 2910 H 268.13 3.71203 1.51689 0
M  V30 2911 H 264.72 4.28128 0.201088 0
M  V30 2912 H 268.904 4.93458 -0.530351 0
M  V30 2913 H 264.16 5.91465 -1.54853 0
M  V30 2914 H 268.334 6.58129 -2.27682 0
M  V30 2915 H 265.961 7.07075 -2.79194 0
M  V30 2916 N 267.536 -0.106894 1.57237 0
M  V30 2917 C 268.483 -1.13049 2.01217 0
M  V30 2918 C 269.453 -1.40471 0.886403 0
M  V30 2919 O 270.638 -1.52133 1.15153 0
M  V30 2920 C 267.778 -2.4487 2.43172 0
M  V30 2921 C 266.891 -2.24281 3.69218 0
M  V30 2922 C 266.026 -3.49417 4.00101 0
M  V30 2923 C 265.065 -3.24038 5.19294 0
M  V30 2924 N 264.202 -4.41409 5.45988 0
M  V30 2925 H 269.042 -0.748456 2.88448 0
M  V30 2926 H 266.579 -0.358054 1.42676 0
M  V30 2927 H 268.537 -3.21786 2.65537 0
M  V30 2928 H 267.167 -2.80944 1.58967 0
M  V30 2929 H 266.219 -1.38224 3.54398 0
M  V30 2930 H 267.531 -2.01512 4.56283 0
M  V30 2931 H 266.685 -4.34746 4.2318 0
M  V30 2932 H 265.424 -3.75229 3.11535 0
M  V30 2933 H 264.429 -2.37102 4.96047 0
M  V30 2934 H 265.654 -2.99584 6.09447 0
M  V30 2935 H 263.6 -4.67319 4.60379 0
M  V30 2936 H 263.517 -4.21788 6.274 0
M  V30 2937 H 264.785 -5.27836 5.73593 0
M  V30 2938 N 269.014 -1.53014 -0.377408 0
M  V30 2939 C 270.26 -1.68872 -1.12294 0
M  V30 2940 C 270.593 -0.433224 -1.89306 0
M  V30 2941 O 269.868 0.569258 -1.85983 0
M  V30 2942 C 270.151 -2.93115 -2.09179 0
M  V30 2943 C 270.004 -4.28794 -1.35853 0
M  V30 2944 C 271.323 -3.12928 -3.09458 0
M  V30 2945 H 268.442 -0.614518 -0.406862 0
M  V30 2946 H 271.084 -1.85633 -0.40503 0
M  V30 2947 H 269.234 -2.78956 -2.70399 0
M  V30 2948 H 270.906 -4.54742 -0.775082 0
M  V30 2949 H 269.149 -4.28744 -0.660364 0
M  V30 2950 H 269.82 -5.11837 -2.06706 0
M  V30 2951 H 272.296 -3.26194 -2.58334 0
M  V30 2952 H 271.172 -4.01316 -3.74482 0
M  V30 2953 H 271.433 -2.27669 -3.78971 0
M  V30 2954 N 270.492 0.636531 -1.44174 0
M  V30 2955 C 271.903 1.21806 -1.41493 0
M  V30 2956 C 272.254 1.95785 -0.1275 0
M  V30 2957 O 271.379 2.02147 0.772376 0
M  V30 2958 C 271.974 2.21551 -2.56321 0
M  V30 2959 C 270.533 2.75143 -2.56853 0
M  V30 2960 C 269.68 1.50052 -2.33195 0
M  V30 2961 H 272.631 0.427531 -1.52833 0
M  V30 2962 H 272.652 3.0405 -2.28765 0
M  V30 2963 H 272.164 1.67679 -3.50008 0
M  V30 2964 H 270.265 3.33033 -1.67093 0
M  V30 2965 H 270.378 3.2155 -3.55165 0
M  V30 2966 H 268.742 1.77993 -1.82183 0
M  V30 2967 H 269.525 0.980903 -3.28988 0
M  V30 2968 N 271.97 1.30982 0.876444 0
M  V30 2969 C 273.195 1.23373 1.66715 0
M  V30 2970 C 273.62 -0.19885 1.87046 0
M  V30 2971 O 272.978 -1.1427 1.40756 0
M  V30 2972 C 273.026 1.97644 3.01611 0
M  V30 2973 O 272.13 1.30935 3.91062 0
M  V30 2974 H 271.471 0.426279 0.509099 0
M  V30 2975 H 274.001 1.72944 1.09323 0
M  V30 2976 H 274.011 2.06992 3.51594 0
M  V30 2977 H 272.686 3.01829 2.86133 0
M  V30 2978 H 271.263 1.29996 3.49507 0
M  V30 2979 N 273.449 -1.08991 1.13837 0
M  V30 2980 C 274.865 -1.33312 0.877506 0
M  V30 2981 C 275.065 -1.95587 -0.48456 0
M  V30 2982 O 274.121 -2.20509 -1.23013 0
M  V30 2983 C 275.434 -2.24045 2.0056 0
M  V30 2984 C 276.982 -2.37542 2.03821 0
M  V30 2985 C 277.457 -3.31614 3.15905 0
M  V30 2986 N 278.948 -3.39189 3.15445 0
M  V30 2987 C 279.683 -4.11992 3.98811 0
M  V30 2988 N 279.179 -4.87553 4.92203 0
M  V30 2989 N 280.972 -4.07762 3.86894 0
M  V30 2990 H 273.123 -0.669456 2.01574 0
M  V30 2991 H 275.386 -0.357482 0.878015 0
M  V30 2992 H 275.092 -1.85521 2.98789 0
M  V30 2993 H 274.966 -3.24466 1.92359 0
M  V30 2994 H 277.353 -2.75327 1.06202 0
M  V30 2995 H 277.434 -1.36884 2.16093 0
M  V30 2996 H 277.078 -2.94551 4.13766 0
M  V30 2997 H 277.008 -4.32186 3.0087 0
M  V30 2998 H 279.499 -2.85314 2.47799 0
M  V30 2999 H 279.812 -5.40549 5.52292 0
M  V30 3000 H 278.157 -4.86627 4.96205 0
M  V30 3001 H 281.348 -3.47833 3.13257 0
M  V30 3002 H 281.521 -4.64238 4.52092 0
M  V30 3003 N 274.927 -0.932562 -1.27047 0
M  V30 3004 C 275.837 -0.441219 -2.30414 0
M  V30 3005 C 276.853 0.480525 -1.67233 0
M  V30 3006 O 278.029 0.362151 -1.98117 0
M  V30 3007 C 275.094 0.293651 -3.45454 0
M  V30 3008 C 274.155 -0.663601 -4.2414 0
M  V30 3009 C 273.388 0.0362932 -5.33688 0
M  V30 3010 O 273.611 1.2548 -5.56427 0
M  V30 3011 O 272.545 -0.638015 -5.98509 0
M  V30 3012 H 276.371 -1.29962 -2.74488 0
M  V30 3013 H 273.956 -0.6981 -1.32087 0
M  V30 3014 H 275.838 0.707951 -4.15411 0
M  V30 3015 H 274.513 1.12758 -3.03426 0
M  V30 3016 H 273.42 -1.12768 -3.56699 0
M  V30 3017 H 274.753 -1.46489 -4.69896 0
M  V30 3018 N 276.405 1.4127 -0.698611 0
M  V30 3019 C 277.654 2.00408 -0.227949 0
M  V30 3020 C 277.967 1.55981 1.18023 0
M  V30 3021 O 279.173 2.07699 1.74852 0
M  V30 3022 C 277.629 3.58129 -0.356636 0
M  V30 3023 C 277.237 4.11536 -1.77037 0
M  V30 3024 C 278.981 4.24466 0.0540969 0
M  V30 3025 C 276.888 5.61701 -1.85055 0
M  V30 3026 H 275.818 0.749586 -0.0814657 0
M  V30 3027 H 278.469 1.61713 -0.867249 0
M  V30 3028 H 276.851 3.94442 0.350965 0
M  V30 3029 H 278.025 3.86636 -2.50698 0
M  V30 3030 H 276.34 3.57736 -2.13105 0
M  V30 3031 H 278.937 5.34698 0.0146723 0
M  V30 3032 H 279.28 4.01687 1.09332 0
M  V30 3033 H 279.813 3.93198 -0.603337 0
M  V30 3034 H 276.552 5.89312 -2.8704 0
M  V30 3035 H 276.072 5.88519 -1.15783 0
M  V30 3036 H 277.751 6.26524 -1.61484 0
M  V30 3037 N 277.883 0.443576 1.51229 0
M  V30 3038 C 279.16 -0.181038 1.9476 0
M  V30 3039 C 279.54 -1.59523 1.38259 0
M  V30 3040 O 278.888 -2.2122 0.572198 0
M  V30 3041 C 279.098 -0.152422 3.48667 0
M  V30 3042 C 280.446 -0.354923 4.23114 0
M  V30 3043 O 281.47 -0.230257 3.55455 0
M  V30 3044 O 280.329 -0.603674 5.43156 0
M  V30 3045 H 277.423 -0.1266 0.817252 0
M  V30 3046 H 279.969 0.502004 1.62105 0
M  V30 3047 H 278.741 0.836022 3.82265 0
M  V30 3048 H 278.364 -0.878107 3.87782 0
M  V30 3049 N 279.361 -1.56624 0.175154 0
M  V30 3050 C 280.308 -2.18149 -0.753634 0
M  V30 3051 C 281.278 -1.12265 -1.22417 0
M  V30 3052 O 282.463 -1.40432 -1.29165 0
M  V30 3053 C 279.603 -2.82933 -1.97592 0
M  V30 3054 C 278.716 -4.03289 -1.5486 0
M  V30 3055 C 277.851 -4.55988 -2.72485 0
M  V30 3056 C 276.89 -5.68746 -2.26262 0
M  V30 3057 N 276.027 -6.15938 -3.36994 0
M  V30 3058 H 280.867 -2.9717 -0.222195 0
M  V30 3059 H 278.404 -1.46774 -0.0979422 0
M  V30 3060 H 280.362 -3.18653 -2.69288 0
M  V30 3061 H 278.992 -2.06509 -2.481 0
M  V30 3062 H 278.044 -3.73364 -0.728246 0
M  V30 3063 H 279.356 -4.849 -1.16933 0
M  V30 3064 H 278.51 -4.9391 -3.52332 0
M  V30 3065 H 277.249 -3.73443 -3.13674 0
M  V30 3066 H 276.254 -5.30372 -1.44863 0
M  V30 3067 H 277.479 -6.53095 -1.86127 0
M  V30 3068 H 275.425 -5.36321 -3.77751 0
M  V30 3069 H 275.342 -6.92548 -3.03172 0
M  V30 3070 H 276.61 -6.58511 -4.17114 0
M  V30 3071 N 280.839 0.0985539 -1.57292 0
M  V30 3072 C 281.802 1.10402 -2.00858 0
M  V30 3073 C 282.802 1.33146 -0.901593 0
M  V30 3074 O 283.992 1.29318 -1.16716 0
M  V30 3075 C 281.124 2.45394 -2.36632 0
M  V30 3076 H 282.317 0.729099 -2.90902 0
M  V30 3077 H 279.87 0.343495 -1.52479 0
M  V30 3078 H 280.605 2.87769 -1.49531 0
M  V30 3079 H 280.39 2.30235 -3.17387 0
M  V30 3080 H 281.88 3.17718 -2.71007 0
M  V30 3081 N 282.317 1.53212 0.369288 0
M  V30 3082 C 283.227 1.82342 1.47609 0
M  V30 3083 C 284.243 0.711532 1.58787 0
M  V30 3084 O 285.419 1.0012 1.74751 0
M  V30 3085 C 282.484 2.00393 2.8292 0
M  V30 3086 C 281.545 3.24297 2.81301 0
M  V30 3087 C 280.778 3.41478 4.10157 0
M  V30 3088 O 281.001 2.63033 5.06132 0
M  V30 3089 O 279.935 4.34817 4.16194 0
M  V30 3090 H 283.761 2.76366 1.25918 0
M  V30 3091 H 281.346 1.38547 0.559034 0
M  V30 3092 H 283.228 2.13859 3.63101 0
M  V30 3093 H 281.903 1.09559 3.04596 0
M  V30 3094 H 280.81 3.16257 1.99831 0
M  V30 3095 H 282.143 4.15041 2.64578 0
M  V30 3096 N 283.795 -0.628877 1.44509 0
M  V30 3097 C 285.043 -1.38565 1.4712 0
M  V30 3098 C 285.364 -1.94712 0.105899 0
M  V30 3099 O 284.634 -1.75912 -0.862079 0
M  V30 3100 H 283.214 -0.514333 0.541729 0
M  V30 3101 H 285.876 -0.740018 1.80305 0
M  V30 3102 H 284.972 -2.21583 2.19789 0
M  V30 3103 N 285.273 -1.31445 -0.869486 0
M  V30 3104 C 286.22 -1.19135 -1.97675 0
M  V30 3105 C 287.19 -0.0770266 -1.65921 0
M  V30 3106 O 288.375 -0.249972 -1.89155 0
M  V30 3107 C 285.515 -0.905149 -3.33018 0
M  V30 3108 C 284.628 -2.10285 -3.77365 0
M  V30 3109 C 283.763 -1.75339 -5.01427 0
M  V30 3110 C 282.802 -2.91515 -5.38224 0
M  V30 3111 N 281.939 -2.56762 -6.53466 0
M  V30 3112 H 286.779 -2.13853 -2.07535 0
M  V30 3113 H 284.316 -1.06379 -1.01597 0
M  V30 3114 H 286.274 -0.719765 -4.10944 0
M  V30 3115 H 284.904 0.00519624 -3.228 0
M  V30 3116 H 283.956 -2.39899 -2.95216 0
M  V30 3117 H 285.268 -2.97237 -4.00564 0
M  V30 3118 H 284.422 -1.53266 -5.87022 0
M  V30 3119 H 283.161 -0.855801 -4.80133 0
M  V30 3120 H 282.166 -3.14237 -4.51149 0
M  V30 3121 H 283.391 -3.81985 -5.61484 0
M  V30 3122 H 281.337 -1.69526 -6.33717 0
M  V30 3123 H 281.254 -3.37243 -6.76612 0
M  V30 3124 H 282.522 -2.38083 -7.42251 0
M  V30 3125 N 286.751 1.08385 -1.14413 0
M  V30 3126 C 287.998 1.80776 -0.912482 0
M  V30 3127 C 288.326 1.86236 0.560934 0
M  V30 3128 O 287.581 1.33431 1.43159 0
M  V30 3129 C 287.88 3.26273 -1.45879 0
M  V30 3130 C 287.546 3.4093 -2.95089 0
M  V30 3131 C 286.208 3.44638 -3.35824 0
M  V30 3132 C 288.56 3.44591 -3.91033 0
M  V30 3133 C 285.888 3.49597 -4.71167 0
M  V30 3134 C 288.24 3.51086 -5.26233 0
M  V30 3135 C 286.904 3.53067 -5.6648 0
M  V30 3136 H 286.174 0.661507 -0.333901 0
M  V30 3137 H 288.821 1.27613 -1.42784 0
M  V30 3138 H 287.126 3.82146 -0.864376 0
M  V30 3139 H 288.823 3.80839 -1.2555 0
M  V30 3140 H 285.413 3.38736 -2.62594 0
M  V30 3141 H 289.597 3.40957 -3.60641 0
M  V30 3142 H 284.853 3.49424 -5.0171 0
M  V30 3143 H 289.027 3.52864 -6.00383 0
M  V30 3144 H 286.654 3.56662 -6.71339 0
M  V30 3145 N 288.23 0.939286 1.26551 0
M  V30 3146 C 289.476 0.596234 1.94465 0
M  V30 3147 C 289.831 -0.855013 1.72358 0
M  V30 3148 O 289.124 -1.6034 1.04889 0
M  V30 3149 C 289.318 0.872106 3.46596 0
M  V30 3150 C 289.147 2.34862 3.83497 0
M  V30 3151 C 287.917 3.00344 4.06352 0
M  V30 3152 C 290.115 3.32697 3.92195 0
M  V30 3153 N 288.097 4.38027 4.30123 0
M  V30 3154 C 289.468 4.55631 4.20476 0
M  V30 3155 C 291.523 3.27747 3.74815 0
M  V30 3156 C 290.226 5.74233 4.33185 0
M  V30 3157 C 292.252 4.45672 3.88755 0
M  V30 3158 C 291.614 5.67388 4.17433 0
M  V30 3159 H 287.713 0.268515 0.734455 0
M  V30 3160 H 290.297 1.2083 1.5267 0
M  V30 3161 H 288.468 0.289102 3.87323 0
M  V30 3162 H 290.2 0.490513 4.01716 0
M  V30 3163 H 286.955 2.50969 4.01636 0
M  V30 3164 H 287.379 5.09288 4.46044 0
M  V30 3165 H 292.021 2.34703 3.51673 0
M  V30 3166 H 289.739 6.67731 4.55149 0
M  V30 3167 H 293.325 4.43372 3.76713 0
M  V30 3168 H 292.205 6.57115 4.27983 0
M  V30 3169 N 289.708 -1.40897 0.706093 0
M  V30 3170 C 290.936 -2.05373 0.250887 0
M  V30 3171 C 291.351 -1.53172 -1.10381 0
M  V30 3172 O 290.708 -0.684305 -1.69185 0
M  V30 3173 C 290.759 -3.6088 0.211571 0
M  V30 3174 O 290.48 -4.11153 1.51276 0
M  V30 3175 C 291.981 -4.42517 -0.263346 0
M  V30 3176 H 289.201 -0.66115 0.114552 0
M  V30 3177 H 291.745 -1.80479 0.961635 0
M  V30 3178 H 289.9 -3.84777 -0.450073 0
M  V30 3179 H 290.314 -5.05279 1.40689 0
M  V30 3180 H 291.788 -5.51479 -0.239718 0
M  V30 3181 H 292.265 -4.19396 -1.30397 0
M  V30 3182 H 292.871 -4.23708 0.367677 0
M  V30 3183 N 291.186 -0.45159 -1.50991 0
M  V30 3184 C 292.136 0.370861 -2.24964 0
M  V30 3185 C 293.12 0.978074 -1.2776 0
M  V30 3186 O 294.312 0.893854 -1.52772 0
M  V30 3187 C 291.441 1.46344 -3.10545 0
M  V30 3188 C 290.527 0.864924 -4.15187 0
M  V30 3189 N 290.918 -0.00311354 -5.058 0
M  V30 3190 C 289.216 1.13099 -4.31422 0
M  V30 3191 C 289.917 -0.340772 -5.80701 0
M  V30 3192 N 288.893 0.279203 -5.42883 0
M  V30 3193 H 292.695 -0.298134 -2.92384 0
M  V30 3194 H 290.209 -0.264528 -1.60231 0
M  V30 3195 H 292.206 2.06565 -3.62128 0
M  V30 3196 H 290.866 2.13463 -2.4467 0
M  V30 3197 H 291.877 -0.37058 -5.16572 0
M  V30 3198 H 288.554 1.79861 -3.76771 0
M  V30 3199 H 289.944 -1.048 -6.63677 0
M  V30 3200 N 292.664 1.56529 -0.183458 0
M  V30 3201 C 293.91 1.98304 0.452466 0
M  V30 3202 C 294.265 1.06799 1.60037 0
M  V30 3203 O 293.558 0.110049 1.91284 0
M  V30 3204 C 293.752 3.43939 0.971637 0
M  V30 3205 C 293.581 4.49528 -0.124425 0
M  V30 3206 C 292.351 5.01981 -0.578168 0
M  V30 3207 C 294.549 5.05836 -0.929207 0
M  V30 3208 N 292.531 5.91219 -1.65327 0
M  V30 3209 C 293.902 5.91632 -1.85396 0
M  V30 3210 C 295.957 4.88302 -0.972929 0
M  V30 3211 C 294.66 6.61768 -2.81878 0
M  V30 3212 C 296.686 5.59168 -1.92574 0
M  V30 3213 C 296.048 6.44701 -2.83795 0
M  V30 3214 H 292.147 0.770551 0.133324 0
M  V30 3215 H 294.731 1.92581 -0.286473 0
M  V30 3216 H 292.902 3.50184 1.68006 0
M  V30 3217 H 294.634 3.72702 1.5772 0
M  V30 3218 H 291.389 4.73282 -0.173639 0
M  V30 3219 H 291.813 6.40543 -2.19167 0
M  V30 3220 H 296.455 4.21861 -0.28168 0
M  V30 3221 H 294.173 7.27415 -3.51984 0
M  V30 3222 H 297.759 5.47582 -1.96583 0
M  V30 3223 H 296.639 6.98573 -3.56322 0
M  V30 3224 N 294.142 -0.090211 1.57342 0
M  V30 3225 C 295.09 -1.12792 2.03422 0
M  V30 3226 C 296.084 -1.41182 0.936166 0
M  V30 3227 O 297.29 -1.40805 1.12133 0
M  V30 3228 H 293.665 -0.380986 0.648347 0
M  V30 3229 H 295.636 -0.71299 2.89757 0
M  V30 3230 C 294.385 -2.43855 2.47851 0
M  V30 3231 H 293.708 -2.22855 3.31927 0
M  V30 3232 H 295.148 -3.14955 2.83865 0
M  V30 3233 C 293.607 -3.08503 1.3538 0
M  V30 3234 O 294.137 -3.95805 0.685641 0
M  V30 3235 N 292.343 -2.68831 1.10355 0
M  V30 3236 H 291.89 -1.97929 1.64869 0
M  V30 3237 H 291.848 -3.12412 0.353031 0
M  V30 3238 N 295.62 -1.53406 -0.361157 0
M  V30 3239 C 297.036 -1.43277 -0.703124 0
M  V30 3240 C 297.236 -0.575384 -1.9311 0
M  V30 3241 O 296.292 -0.0595362 -2.5243 0
M  V30 3242 C 297.605 -2.8653 -0.9122 0
M  V30 3243 C 299.153 -2.96191 -1.01193 0
M  V30 3244 C 299.628 -4.40514 -1.25345 0
M  V30 3245 N 301.119 -4.43962 -1.32105 0
M  V30 3246 C 301.854 -5.52746 -1.5251 0
M  V30 3247 N 301.35 -6.71567 -1.70203 0
M  V30 3248 N 303.143 -5.40331 -1.54916 0
M  V30 3249 H 295.294 -2.07654 0.446475 0
M  V30 3250 H 297.557 -0.937944 0.137715 0
M  V30 3251 H 297.263 -3.51605 -0.0816414 0
M  V30 3252 H 297.137 -3.30441 -1.81903 0
M  V30 3253 H 299.524 -2.31266 -1.83303 0
M  V30 3254 H 299.605 -2.55667 -0.0823929 0
M  V30 3255 H 299.249 -5.06014 -0.437346 0
M  V30 3256 H 299.179 -4.78614 -2.19627 0
M  V30 3257 H 301.67 -3.58332 -1.20028 0
M  V30 3258 H 301.983 -7.50241 -1.85359 0
M  V30 3259 H 300.328 -6.74545 -1.67373 0
M  V30 3260 H 303.519 -4.46465 -1.40663 0
M  V30 3261 H 303.692 -6.25173 -1.70477 0
M  V30 3262 N 297.098 0.621204 -1.44841 0
M  V30 3263 C 298.008 1.7612 -1.5498 0
M  V30 3264 C 299.024 1.68477 -0.434927 0
M  V30 3265 O 300.2 1.89076 -0.693693 0
M  V30 3266 C 297.265 3.1254 -1.50065 0
M  V30 3267 C 296.326 3.31741 -2.72482 0
M  V30 3268 C 295.559 4.61653 -2.67792 0
M  V30 3269 O 295.782 5.431 -1.74352 0
M  V30 3270 O 294.716 4.83271 -3.58794 0
M  V30 3271 H 298.542 1.70518 -2.51311 0
M  V30 3272 H 296.127 0.783643 -1.27198 0
M  V30 3273 H 298.009 3.93844 -1.49882 0
M  V30 3274 H 296.684 3.18663 -0.568806 0
M  V30 3275 H 295.591 2.50077 -2.7823 0
M  V30 3276 H 296.924 3.30486 -3.64746 0
M  V30 3277 N 298.576 1.31904 0.862503 0
M  V30 3278 C 299.804 1.24998 1.64873 0
M  V30 3279 C 300.219 -0.183425 1.87907 0
M  V30 3280 O 299.576 -1.11794 1.44251 0
M  V30 3281 C 299.627 1.99829 3.01248 0
M  V30 3282 O 299.348 3.37575 2.79239 0
M  V30 3283 C 300.849 1.99852 3.95694 0
M  V30 3284 H 298.069 0.431599 0.513773 0
M  V30 3285 H 300.613 1.73901 1.07604 0
M  V30 3286 H 298.768 1.54668 3.55185 0
M  V30 3287 H 299.182 3.75776 3.65914 0
M  V30 3288 H 300.656 2.56709 4.88676 0
M  V30 3289 H 301.133 0.982852 4.28062 0
M  V30 3290 H 301.739 2.44926 3.47694 0
M  V30 3291 N 300.054 -1.07777 1.14986 0
M  V30 3292 C 301.001 -2.14867 0.842672 0
M  V30 3293 C 301.971 -1.6486 -0.202552 0
M  V30 3294 O 303.156 -1.90668 -0.0710568 0
M  V30 3295 C 300.296 -3.43486 0.333363 0
M  V30 3296 C 299.409 -4.07306 1.43965 0
M  V30 3297 C 298.544 -5.23744 0.886914 0
M  V30 3298 C 297.583 -5.79517 1.97043 0
M  V30 3299 N 296.72 -6.87291 1.4344 0
M  V30 3300 H 301.56 -2.40485 1.75986 0
M  V30 3301 H 299.097 -1.1801 0.878179 0
M  V30 3302 H 301.055 -4.17195 0.0198163 0
M  V30 3303 H 299.685 -3.18133 -0.546916 0
M  V30 3304 H 298.737 -3.31293 1.86946 0
M  V30 3305 H 300.049 -4.44771 2.25788 0
M  V30 3306 H 299.203 -6.04419 0.525651 0
M  V30 3307 H 297.942 -4.87685 0.0377957 0
M  V30 3308 H 296.947 -4.97491 2.34057 0
M  V30 3309 H 298.172 -6.17632 2.82325 0
M  V30 3310 H 296.118 -6.5318 0.607567 0
M  V30 3311 H 296.035 -7.23617 2.18895 0
M  V30 3312 H 297.303 -7.71682 1.10124 0
M  V30 3313 N 301.532 -0.945985 -1.26051 0
M  V30 3314 C 302.464 -0.416662 -2.25381 0
M  V30 3315 C 303.477 0.462712 -1.56086 0
M  V30 3316 O 304.666 0.272383 -1.7641 0
M  V30 3317 C 301.766 0.419812 -3.3629 0
M  V30 3318 C 300.939 -0.444531 -4.35135 0
M  V30 3319 C 299.998 0.332305 -5.2515 0
M  V30 3320 O 299.024 -0.266324 -5.68577 0
M  V30 3321 N 300.226 1.62763 -5.57215 0
M  V30 3322 H 302.991 -1.27059 -2.71433 0
M  V30 3323 H 300.552 -0.815392 -1.39868 0
M  V30 3324 H 302.544 0.947013 -3.93464 0
M  V30 3325 H 301.114 1.17456 -2.89694 0
M  V30 3326 H 300.334 -1.15291 -3.76964 0
M  V30 3327 H 301.622 -1.03478 -4.98166 0
M  V30 3328 H 301.02 2.13603 -5.23823 0
M  V30 3329 H 299.577 2.10097 -6.17011 0
M  V30 3330 N 303.011 1.40521 -0.713556 0
M  V30 3331 C 304.258 2.00923 -0.25219 0
M  V30 3332 C 304.586 1.56571 1.15395 0
M  V30 3333 O 303.841 0.775874 1.79663 0
M  V30 3334 C 304.14 3.56317 -0.278 0
M  V30 3335 C 303.806 4.20246 -1.63415 0
M  V30 3336 C 302.468 4.37422 -2.00538 0
M  V30 3337 C 304.82 4.55923 -2.52554 0
M  V30 3338 C 302.148 4.87558 -3.2635 0
M  V30 3339 C 304.5 5.07458 -3.77716 0
M  V30 3340 C 303.164 5.22843 -4.14959 0
M  V30 3341 H 302.434 0.735231 -0.0922829 0
M  V30 3342 H 305.081 1.68161 -0.916188 0
M  V30 3343 H 303.386 3.88976 0.469567 0
M  V30 3344 H 305.083 4.00883 0.0967819 0
M  V30 3345 H 301.673 4.07263 -1.33546 0
M  V30 3346 H 305.857 4.42291 -2.25149 0
M  V30 3347 H 301.113 4.97654 -3.55176 0
M  V30 3348 H 305.287 5.34041 -4.4696 0
M  V30 3349 H 302.914 5.61454 -5.12516 0
M  V30 3350 N 304.489 0.459591 1.5075 0
M  V30 3351 C 305.736 -0.0993495 2.02256 0
M  V30 3352 C 306.064 -1.40751 1.34237 0
M  V30 3353 O 305.319 -1.90379 0.453228 0
M  V30 3354 C 305.618 -0.342866 3.55752 0
M  V30 3355 C 305.284 0.88218 4.42186 0
M  V30 3356 C 303.946 1.21808 4.65528 0
M  V30 3357 C 306.298 1.69837 4.92752 0
M  V30 3358 C 303.626 2.37045 5.36681 0
M  V30 3359 C 305.978 2.84192 5.65171 0
M  V30 3360 C 304.642 3.1821 5.8677 0
M  V30 3361 H 303.912 -0.0363545 0.740108 0
M  V30 3362 H 306.559 0.611329 1.8148 0
M  V30 3363 H 304.864 -1.13567 3.7498 0
M  V30 3364 H 306.561 -0.789121 3.93159 0
M  V30 3365 H 303.151 0.610467 4.2423 0
M  V30 3366 H 307.335 1.45205 4.74583 0
M  V30 3367 H 302.591 2.63689 5.51614 0
M  V30 3368 H 306.765 3.4779 6.03337 0
M  V30 3369 H 304.392 4.07613 6.41682 0
M  V30 3370 N 305.967 -1.56429 0.191757 0
M  V30 3371 C 306.897 -2.21937 -0.725696 0
M  V30 3372 C 307.878 -1.1814 -1.2238 0
M  V30 3373 O 309.063 -1.46636 -1.27325 0
M  V30 3374 C 306.193 -2.87611 -1.94672 0
M  V30 3375 C 305.147 -3.97623 -1.58366 0
M  V30 3376 C 304.473 -4.50446 -2.88102 0
M  V30 3377 C 305.773 -5.16197 -0.796133 0
M  V30 3378 H 307.467 -2.98861 -0.179606 0
M  V30 3379 H 305.013 -1.43749 -0.0849464 0
M  V30 3380 H 306.966 -3.3212 -2.59373 0
M  V30 3381 H 305.69 -2.08087 -2.51728 0
M  V30 3382 H 304.349 -3.53801 -0.960247 0
M  V30 3383 H 303.997 -3.67688 -3.43241 0
M  V30 3384 H 303.697 -5.24675 -2.64556 0
M  V30 3385 H 305.221 -4.97654 -3.53798 0
M  V30 3386 H 306.635 -5.57271 -1.34618 0
M  V30 3387 H 305.032 -5.96471 -0.658928 0
M  V30 3388 H 306.102 -4.84473 0.203478 0
M  V30 3389 N 307.445 0.0818655 -1.57387 0
M  V30 3390 C 308.377 1.12484 -1.997 0
M  V30 3391 C 309.39 1.35564 -0.90146 0
M  V30 3392 O 310.579 1.33982 -1.17945 0
M  V30 3393 C 307.679 2.47778 -2.31213 0
M  V30 3394 C 306.852 2.44793 -3.62485 0
M  V30 3395 C 305.911 3.62117 -3.81782 0
M  V30 3396 O 304.937 3.44005 -4.53486 0
M  V30 3397 N 306.139 4.82094 -3.23367 0
M  V30 3398 H 308.904 0.764585 -2.89783 0
M  V30 3399 H 306.465 0.270664 -1.59621 0
M  V30 3400 H 308.457 3.24891 -2.41304 0
M  V30 3401 H 307.027 2.75843 -1.4707 0
M  V30 3402 H 306.247 1.53134 -3.6324 0
M  V30 3403 H 307.535 2.39889 -4.48699 0
M  V30 3404 H 306.933 4.99713 -2.65148 0
M  V30 3405 H 305.49 5.56753 -3.38923 0
M  V30 3406 N 308.923 1.53595 0.353017 0
M  V30 3407 C 310.17 1.70385 1.09431 0
M  V30 3408 C 310.498 0.462113 1.88931 0
M  V30 3409 O 309.753 -0.556074 1.87633 0
M  V30 3410 C 310.052 2.91313 2.07054 0
M  V30 3411 C 309.718 4.27308 1.43939 0
M  V30 3412 C 308.38 4.64287 1.26454 0
M  V30 3413 C 310.732 5.11829 0.983883 0
M  V30 3414 C 308.06 5.83412 0.620226 0
M  V30 3415 C 310.412 6.31611 0.353516 0
M  V30 3416 C 309.076 6.67293 0.166272 0
M  V30 3417 H 308.346 0.623484 0.400436 0
M  V30 3418 H 310.993 1.87799 0.374655 0
M  V30 3419 H 309.298 2.68463 2.85368 0
M  V30 3420 H 310.995 3.01497 2.64387 0
M  V30 3421 H 307.585 3.98198 1.58543 0
M  V30 3422 H 311.769 4.838 1.10685 0
M  V30 3423 H 307.025 6.09639 0.463681 0
M  V30 3424 H 311.199 6.964 -0.00757555 0
M  V30 3425 H 308.826 7.59461 -0.335047 0
M  V30 3426 N 310.401 -0.613514 1.45168 0
M  V30 3427 C 311.351 -1.71871 1.49815 0
M  V30 3428 C 312.335 -1.56774 0.362021 0
M  V30 3429 O 313.527 -1.66212 0.608493 0
M  V30 3430 C 310.656 -3.1061 1.46207 0
M  V30 3431 C 309.742 -3.31114 2.64999 0
M  V30 3432 N 310.133 -3.21904 3.90143 0
M  V30 3433 C 308.431 -3.61966 2.6057 0
M  V30 3434 C 309.132 -3.43577 4.69393 0
M  V30 3435 N 308.108 -3.67287 4.00751 0
M  V30 3436 H 311.91 -1.63235 2.444 0
M  V30 3437 H 309.424 -0.816577 1.40377 0
M  V30 3438 H 311.421 -3.8989 1.4762 0
M  V30 3439 H 310.081 -3.20399 0.52673 0
M  V30 3440 H 311.092 -3.00436 4.21852 0
M  V30 3441 H 307.769 -3.78629 1.75916 0
M  V30 3442 H 309.159 -3.41901 5.78406 0
M  V30 3443 N 311.879 -1.3236 -0.855495 0
M  V30 3444 C 313.126 -1.22872 -1.60962 0
M  V30 3445 C 313.454 0.209658 -1.93367 0
M  V30 3446 O 312.709 1.16243 -1.57436 0
M  V30 3447 C 313.008 -2.03275 -2.93963 0
M  V30 3448 C 312.674 -3.5264 -2.80991 0
M  V30 3449 C 311.336 -3.93364 -2.7716 0
M  V30 3450 C 313.688 -4.47626 -2.66983 0
M  V30 3451 C 311.016 -5.27319 -2.572 0
M  V30 3452 C 313.368 -5.81723 -2.48558 0
M  V30 3453 C 312.032 -6.2165 -2.4312 0
M  V30 3454 H 311.302 -0.44962 -0.589001 0
M  V30 3455 H 313.949 -1.63777 -0.992442 0
M  V30 3456 H 312.254 -1.55095 -3.59795 0
M  V30 3457 H 313.951 -1.93303 -3.51333 0
M  V30 3458 H 310.541 -3.20295 -2.84797 0
M  V30 3459 H 314.725 -4.17084 -2.68988 0
M  V30 3460 H 309.981 -5.57311 -2.51424 0
M  V30 3461 H 314.155 -6.5494 -2.36699 0
M  V30 3462 H 311.782 -7.25388 -2.27412 0
M  V30 3463 N 313.357 1.07166 -1.15556 0
M  V30 3464 C 314.304 2.14417 -0.854055 0
M  V30 3465 C 315.274 1.64965 0.193806 0
M  V30 3466 O 316.459 1.90703 0.0609443 0
M  V30 3467 C 313.599 3.43304 -0.351574 0
M  V30 3468 C 312.712 4.06537 -1.46123 0
M  V30 3469 C 311.847 5.23266 -0.914677 0
M  V30 3470 C 310.886 5.78464 -2.00114 0
M  V30 3471 N 310.023 6.86521 -1.47083 0
M  V30 3472 H 314.863 2.39548 -1.77259 0
M  V30 3473 H 312.4 1.17543 -0.884425 0
M  V30 3474 H 314.358 4.17179 -0.0419409 0
M  V30 3475 H 312.988 3.18419 0.530037 0
M  V30 3476 H 312.04 3.30297 -1.88701 0
M  V30 3477 H 313.352 4.43567 -2.28144 0
M  V30 3478 H 312.506 6.04131 -0.557698 0
M  V30 3479 H 311.245 4.87658 -0.0636583 0
M  V30 3480 H 310.25 4.96243 -2.36692 0
M  V30 3481 H 311.475 6.16126 -2.85597 0
M  V30 3482 H 309.421 6.52849 -0.642198 0
M  V30 3483 H 309.338 7.22446 -2.22729 0
M  V30 3484 H 310.606 7.71087 -1.14215 0
M  V30 3485 N 314.835 0.952656 1.25548 0
M  V30 3486 C 315.768 0.415525 2.24385 0
M  V30 3487 C 316.746 -0.502046 1.54655 0
M  V30 3488 O 317.93 -0.436875 1.83368 0
M  V30 3489 C 315.057 -0.401734 3.36309 0
M  V30 3490 C 314.103 0.455949 4.24056 0
M  V30 3491 S 314.936 1.88698 5.01152 0
M  V30 3492 C 316.092 1.07809 6.16545 0
M  V30 3493 H 316.325 1.25315 2.69599 0
M  V30 3494 H 313.858 0.756587 1.34592 0
M  V30 3495 H 315.816 -0.867329 4.01233 0
M  V30 3496 H 314.477 -1.21416 2.89684 0
M  V30 3497 H 313.67 -0.170776 5.03711 0
M  V30 3498 H 313.272 0.856675 3.64056 0
M  V30 3499 H 315.564 0.325816 6.76716 0
M  V30 3500 H 316.507 1.84849 6.83547 0
M  V30 3501 H 316.915 0.60909 5.61204 0
M  V30 3502 N 316.313 -1.40141 0.720998 0
M  V30 3503 C 317.223 -2.34486 0.0731031 0
M  V30 3504 C 318.239 -1.57587 -0.737723 0
M  V30 3505 O 319.415 -1.89949 -0.669429 0
M  V30 3506 C 316.48 -3.36528 -0.833656 0
M  V30 3507 C 315.541 -4.29298 -0.0121673 0
M  V30 3508 C 314.774 -5.26466 -0.875742 0
M  V30 3509 O 314.997 -5.29745 -2.11485 0
M  V30 3510 O 313.931 -6.01092 -0.31185 0
M  V30 3511 H 317.757 -2.9152 0.851444 0
M  V30 3512 H 315.342 -1.41427 0.481527 0
M  V30 3513 H 317.224 -3.99093 -1.35289 0
M  V30 3514 H 315.899 -2.81899 -1.59105 0
M  V30 3515 H 314.806 -3.70001 0.552262 0
M  V30 3516 H 316.139 -4.87094 0.707129 0
M  V30 3517 N 317.792 -0.46758 -1.50504 0
M  V30 3518 C 318.739 0.328413 -2.28452 0
M  V30 3519 C 319.709 0.990313 -1.33349 0
M  V30 3520 O 320.894 1.00343 -1.62284 0
M  V30 3521 C 318.034 1.40648 -3.15138 0
M  V30 3522 C 317.147 0.759709 -4.25267 0
M  V30 3523 C 316.282 1.81537 -4.99217 0
M  V30 3524 C 315.321 1.14866 -6.01226 0
M  V30 3525 N 314.458 2.14702 -6.68467 0
M  V30 3526 H 319.298 -0.342603 -2.96024 0
M  V30 3527 H 316.835 -0.180801 -1.45985 0
M  V30 3528 H 318.793 2.04315 -3.63746 0
M  V30 3529 H 317.423 2.04671 -2.49619 0
M  V30 3530 H 316.475 0.0105671 -3.80399 0
M  V30 3531 H 317.787 0.233243 -4.98254 0
M  V30 3532 H 316.941 2.52793 -5.51526 0
M  V30 3533 H 315.68 2.37564 -4.25928 0
M  V30 3534 H 314.685 0.42171 -5.4818 0
M  V30 3535 H 315.91 0.595334 -6.76485 0
M  V30 3536 H 313.856 2.69752 -5.97972 0
M  V30 3537 H 313.773 1.6703 -7.37317 0
M  V30 3538 H 315.041 2.85348 -7.25394 0
M  V30 3539 N 319.27 1.56325 -0.20005 0
M  V30 3540 C 320.681 1.8408 0.31167 0
M  V30 3541 C 321.032 1.12087 1.61031 0
M  V30 3542 O 320.157 0.38332 2.12978 0
M  V30 3543 C 320.752 3.33932 0.57226 0
M  V30 3544 C 319.311 3.6208 1.02834 0
M  V30 3545 C 318.458 2.77186 0.079634 0
M  V30 3546 H 321.409 1.52939 -0.423729 0
M  V30 3547 H 321.43 3.52971 1.42096 0
M  V30 3548 H 320.942 3.86303 -0.37308 0
M  V30 3549 H 319.043 3.15147 1.98778 0
M  V30 3550 H 319.156 4.7023 0.917624 0
M  V30 3551 H 317.52 2.47951 0.582448 0
M  V30 3552 H 318.303 3.32347 -0.860238 0
M  V30 3553 N 320.748 -0.0735177 1.57428 0
M  V30 3554 C 322.159 -0.625551 1.75908 0
M  V30 3555 C 322.51 -1.78 0.825261 0
M  V30 3556 O 321.635 -2.16398 0.00893964 0
M  V30 3557 C 322.23 -1.14155 3.18989 0
M  V30 3558 C 320.789 -1.63946 3.38819 0
M  V30 3559 C 319.936 -0.558151 2.71625 0
M  V30 3560 H 322.887 0.152647 1.57964 0
M  V30 3561 H 322.908 -2.0104 3.23053 0
M  V30 3562 H 322.42 -0.301116 3.8693 0
M  V30 3563 H 320.521 -2.50321 2.7599 0
M  V30 3564 H 320.634 -1.71759 4.47253 0
M  V30 3565 H 318.998 -1.00278 2.34129 0
M  V30 3566 H 319.781 0.272071 3.4222 0
M  V30 3567 N 322.226 -1.5378 -0.344866 0
M  V30 3568 C 323.189 -1.80981 -1.40637 0
M  V30 3569 C 324.189 -0.680816 -1.45676 0
M  V30 3570 O 325.379 -0.949095 -1.46075 0
M  V30 3571 C 322.511 -1.95063 -2.79577 0
M  V30 3572 H 323.704 -2.75803 -1.17783 0
M  V30 3573 H 321.257 -1.45173 -0.579181 0
M  V30 3574 H 321.992 -1.02379 -3.07716 0
M  V30 3575 H 321.777 -2.77198 -2.77315 0
M  V30 3576 H 323.267 -2.17629 -3.56409 0
M  V30 3577 N 323.704 0.605807 -1.45491 0
M  V30 3578 C 325.115 1.18777 -1.44045 0
M  V30 3579 C 325.466 1.95471 -0.169001 0
M  V30 3580 O 324.591 2.0374 0.729324 0
M  V30 3581 C 325.186 2.16064 -2.60963 0
M  V30 3582 C 323.745 2.69633 -2.62631 0
M  V30 3583 C 322.892 1.45072 -2.36325 0
M  V30 3584 H 325.843 0.395017 -1.53705 0
M  V30 3585 H 325.864 2.9913 -2.35163 0
M  V30 3586 H 325.376 1.60217 -3.53486 0
M  V30 3587 H 323.477 3.29414 -1.74119 0
M  V30 3588 H 323.59 3.13944 -3.61906 0
M  V30 3589 H 321.954 1.74089 -1.85917 0
M  V30 3590 H 322.737 0.910899 -3.30995 0
M  V30 3591 N 325.182 1.32811 0.848464 0
M  V30 3592 C 326.593 1.21315 1.41914 0
M  V30 3593 C 326.944 -0.171847 1.95446 0
M  V30 3594 O 326.069 -1.07093 1.88043 0
M  V30 3595 C 326.664 2.19631 2.57968 0
M  V30 3596 C 325.223 2.12003 3.11017 0
M  V30 3597 C 324.37 2.07651 1.83783 0
M  V30 3598 H 327.321 1.44549 0.655071 0
M  V30 3599 H 327.342 1.79845 3.35315 0
M  V30 3600 H 326.854 3.20423 2.18976 0
M  V30 3601 H 324.955 1.14481 3.54577 0
M  V30 3602 H 325.068 3.02111 3.71841 0
M  V30 3603 H 323.432 1.52983 2.03638 0
M  V30 3604 H 324.215 3.10235 1.47 0
M  V30 3605 N 326.66 -1.06551 1.16123 0
M  V30 3606 C 327.885 -1.83544 0.965735 0
M  V30 3607 C 328.31 -1.81843 -0.481102 0
M  V30 3608 O 327.668 -1.21732 -1.34354 0
M  V30 3609 C 327.716 -3.28169 1.49457 0
M  V30 3610 O 326.82 -4.0643 0.699157 0
M  V30 3611 H 326.161 -0.568026 0.343864 0
M  V30 3612 H 328.691 -1.34362 1.54299 0
M  V30 3613 H 328.701 -3.78992 1.51092 0
M  V30 3614 H 327.376 -3.28722 2.54784 0
M  V30 3615 H 325.953 -3.65216 0.7531 0
M  V30 3616 N 328.138 -0.959301 -1.25041 0
M  V30 3617 C 329.068 -0.501388 -2.28053 0
M  V30 3618 C 330.049 0.454673 -1.63911 0
M  V30 3619 O 331.234 0.352618 -1.90972 0
M  V30 3620 C 328.364 0.217224 -3.4662 0
M  V30 3621 C 327.318 -0.654034 -4.22973 0
M  V30 3622 C 326.644 0.195589 -5.34342 0
M  V30 3623 C 327.944 -1.93447 -4.85155 0
M  V30 3624 H 329.638 -1.36238 -2.66608 0
M  V30 3625 H 327.184 -0.656534 -1.28163 0
M  V30 3626 H 329.137 0.548732 -4.17812 0
M  V30 3627 H 327.861 1.1125 -3.07068 0
M  V30 3628 H 326.52 -0.968693 -3.5357 0
M  V30 3629 H 326.168 1.09076 -4.91031 0
M  V30 3630 H 325.868 -0.384091 -5.86343 0
M  V30 3631 H 327.392 0.521958 -6.08365 0
M  V30 3632 H 328.806 -1.66908 -5.48466 0
M  V30 3633 H 327.203 -2.46018 -5.47353 0
M  V30 3634 H 328.273 -2.63466 -4.07079 0
M  V30 3635 N 329.616 1.39756 -0.72842 0
M  V30 3636 C 331.027 1.83498 -0.344289 0
M  V30 3637 C 331.378 1.60868 1.12321 0
M  V30 3638 O 330.503 1.09634 1.86573 0
M  V30 3639 C 331.098 3.33114 -0.618112 0
M  V30 3640 C 329.657 3.753 -0.287549 0
M  V30 3641 C 328.804 2.62831 -0.884048 0
M  V30 3642 H 331.755 1.28842 -0.926578 0
M  V30 3643 H 331.776 3.80334 0.112349 0
M  V30 3644 H 331.288 3.49553 -1.68625 0
M  V30 3645 H 329.389 3.64451 0.775012 0
M  V30 3646 H 329.502 4.72945 -0.765512 0
M  V30 3647 H 327.866 2.52792 -0.311149 0
M  V30 3648 H 328.649 2.82078 -1.95671 0
M  V30 3649 N 331.094 0.475555 1.50254 0
M  V30 3650 C 332.057 -0.305016 2.27161 0
M  V30 3651 C 333.057 -0.916519 1.32123 0
M  V30 3652 O 334.247 -0.785003 1.5551 0
M  V30 3653 C 331.379 -1.43496 3.09227 0
M  V30 3654 H 332.572 0.369511 2.97615 0
M  V30 3655 H 330.125 0.229747 1.54602 0
M  V30 3656 H 330.86 -2.14441 2.43281 0
M  V30 3657 H 330.645 -1.00223 3.79075 0
M  V30 3658 H 332.135 -1.98548 3.67381 0
M  V30 3659 N 332.573 -1.56217 0.208337 0
M  V30 3660 C 333.821 -1.97558 -0.426076 0
M  V30 3661 C 334.142 -1.09683 -1.61229 0
M  V30 3662 O 333.412 -0.170956 -1.95153 0
M  V30 3663 H 331.992 -0.729575 -0.160405 0
M  V30 3664 H 334.654 -1.92606 0.298155 0
M  V30 3665 H 333.75 -3.02672 -0.761312 0
M  V30 3666 N 334.051 0.0651679 -1.57465 0
M  V30 3667 C 335.462 0.616213 -1.76238 0
M  V30 3668 C 335.813 1.7756 -0.834689 0
M  V30 3669 O 334.938 2.1639 -0.0204156 0
M  V30 3670 C 335.533 1.12462 -3.1959 0
M  V30 3671 C 334.092 1.62147 -3.39684 0
M  V30 3672 C 333.239 0.543739 -2.71917 0
M  V30 3673 H 336.19 -0.161022 -1.57881 0
M  V30 3674 H 336.211 1.99324 -3.24114 0
M  V30 3675 H 335.723 0.280592 -3.87084 0
M  V30 3676 H 333.824 2.48854 -2.77313 0
M  V30 3677 H 333.937 1.69385 -4.48158 0
M  V30 3678 H 332.301 0.990352 -2.34657 0
M  V30 3679 H 333.084 -0.290216 -3.42071 0
M  V30 3680 N 335.529 1.53961 0.336706 0
M  V30 3681 C 336.94 1.62914 0.911925 0
M  V30 3682 C 337.291 0.514795 1.89326 0
M  V30 3683 O 336.416 -0.354395 2.13478 0
M  V30 3684 C 337.011 2.95304 1.66076 0
M  V30 3685 C 335.57 3.06496 2.18489 0
M  V30 3686 C 334.717 2.58403 1.00613 0
M  V30 3687 H 337.668 1.58285 0.114649 0
M  V30 3688 H 337.689 2.84727 2.5241 0
M  V30 3689 H 337.201 3.76387 0.946276 0
M  V30 3690 H 335.302 2.3006 2.93092 0
M  V30 3691 H 335.415 4.1208 2.44391 0
M  V30 3692 H 333.779 2.13977 1.38152 0
M  V30 3693 H 334.562 3.41932 0.306179 0
M  V30 3694 N 337.007 -0.598083 1.45811 0
M  V30 3695 C 338.255 -1.35413 1.50026 0
M  V30 3696 C 338.576 -1.94444 0.147177 0
M  V30 3697 O 337.846 -1.77701 -0.824571 0
M  V30 3698 H 336.426 -0.502727 0.552517 0
M  V30 3699 H 339.088 -0.701606 1.81834 0
M  V30 3700 H 338.184 -2.16871 2.2444 0
M  V30 3701 N 338.485 -1.33259 -0.841409 0
M  V30 3702 C 339.731 -1.24757 -1.59886 0
M  V30 3703 C 340.064 0.186913 -1.93298 0
M  V30 3704 O 339.339 1.12757 -1.5848 0
M  V30 3705 C 339.622 -2.12036 -2.91055 0
M  V30 3706 C 339.475 -3.63929 -2.6434 0
M  V30 3707 C 340.794 -1.9916 -3.92458 0
M  V30 3708 H 337.913 -0.454542 -0.580138 0
M  V30 3709 H 340.555 -1.63335 -0.970647 0
M  V30 3710 H 338.705 -1.79265 -3.44669 0
M  V30 3711 H 340.377 -4.06978 -2.17178 0
M  V30 3712 H 338.62 -3.85935 -1.98082 0
M  V30 3713 H 339.291 -4.20341 -3.57796 0
M  V30 3714 H 341.767 -2.27895 -3.48143 0
M  V30 3715 H 340.643 -2.62484 -4.82072 0
M  V30 3716 H 340.904 -0.963082 -4.31482 0
M  V30 3717 N 339.963 1.05934 -1.16686 0
M  V30 3718 C 340.91 2.13499 -0.876748 0
M  V30 3719 C 341.88 1.65162 0.176299 0
M  V30 3720 O 343.065 1.90757 0.0407143 0
M  V30 3721 C 340.205 3.42912 -0.387967 0
M  V30 3722 C 339.318 4.04964 -1.50426 0
M  V30 3723 C 338.453 5.22266 -0.970125 0
M  V30 3724 C 337.492 5.76309 -2.06238 0
M  V30 3725 N 336.629 6.84922 -1.54356 0
M  V30 3726 H 341.469 2.37654 -1.7979 0
M  V30 3727 H 339.006 1.16598 -0.896843 0
M  V30 3728 H 340.964 4.17111 -0.086186 0
M  V30 3729 H 339.594 3.18963 0.496235 0
M  V30 3730 H 338.646 3.28277 -1.92193 0
M  V30 3731 H 339.958 4.41122 -2.32836 0
M  V30 3732 H 339.112 6.03506 -0.621743 0
M  V30 3733 H 337.851 4.87564 -0.115377 0
M  V30 3734 H 336.856 4.93704 -2.41942 0
M  V30 3735 H 338.081 6.13062 -2.92115 0
M  V30 3736 H 336.027 6.52131 -0.711406 0
M  V30 3737 H 335.944 7.20043 -2.30379 0
M  V30 3738 H 337.212 7.69832 -1.22387 0
M  V30 3739 N 341.441 0.965919 1.2453 0
M  V30 3740 C 342.857 0.67216 1.44756 0
M  V30 3741 C 343.057 -0.766609 1.86347 0
M  V30 3742 O 342.113 -1.5407 2.00047 0
M  V30 3743 C 343.426 1.65473 2.51076 0
M  V30 3744 C 344.974 1.66716 2.64905 0
M  V30 3745 C 345.449 2.63766 3.74421 0
M  V30 3746 N 346.94 2.62198 3.81846 0
M  V30 3747 C 347.675 3.33966 4.66106 0
M  V30 3748 N 347.171 4.15245 5.54566 0
M  V30 3749 N 348.964 3.22799 4.60171 0
M  V30 3750 H 341.115 1.89553 0.958293 0
M  V30 3751 H 343.378 0.815979 0.482579 0
M  V30 3752 H 343.084 2.68296 2.27399 0
M  V30 3753 H 342.958 1.4261 3.49202 0
M  V30 3754 H 345.345 0.646057 2.87941 0
M  V30 3755 H 345.426 1.93642 1.67142 0
M  V30 3756 H 345.07 3.6601 3.52135 0
M  V30 3757 H 345 2.34121 4.71694 0
M  V30 3758 H 347.491 2.032 3.18619 0
M  V30 3759 H 347.804 4.66898 6.15814 0
M  V30 3760 H 346.149 4.1934 5.54237 0
M  V30 3761 H 349.34 2.58764 3.90075 0
M  V30 3762 H 349.513 3.78994 5.25612 0
M  V30 3763 N 342.919 -1.39368 0.735821 0
M  V30 3764 C 344.33 -1.83313 0.354015 0
M  V30 3765 C 344.681 -1.61461 -1.11466 0
M  V30 3766 O 343.806 -1.10621 -1.85989 0
M  V30 3767 C 344.401 -3.32781 0.635769 0
M  V30 3768 C 342.96 -3.75142 0.307448 0
M  V30 3769 C 342.107 -2.62358 0.897974 0
M  V30 3770 H 345.058 -1.28349 0.933398 0
M  V30 3771 H 345.079 -3.80388 -0.0921773 0
M  V30 3772 H 344.591 -3.48654 1.70476 0
M  V30 3773 H 342.692 -3.64857 -0.755674 0
M  V30 3774 H 342.805 -4.72532 0.790583 0
M  V30 3775 H 341.169 -2.52624 0.324551 0
M  V30 3776 H 341.952 -2.81036 1.97164 0
M  V30 3777 N 344.397 -0.483516 -1.5 0
M  V30 3778 C 345.808 -0.0314176 -1.86674 0
M  V30 3779 C 346.159 1.37728 -1.39733 0
M  V30 3780 O 345.284 2.02327 -0.767635 0
M  V30 3781 C 345.879 -0.0502376 -3.38763 0
M  V30 3782 C 344.438 0.346442 -3.74802 0
M  V30 3783 C 343.585 -0.430366 -2.7394 0
M  V30 3784 H 346.536 -0.697182 -1.42566 0
M  V30 3785 H 346.557 0.749116 -3.73053 0
M  V30 3786 H 346.069 -1.07563 -3.72897 0
M  V30 3787 H 344.17 1.37572 -3.46273 0
M  V30 3788 H 344.283 0.0391486 -4.79084 0
M  V30 3789 H 342.647 0.117557 -2.54429 0
M  V30 3790 H 343.43 -1.4555 -3.10918 0
M  V30 3791 N 345.875 1.56104 -0.216619 0
M  V30 3792 C 347.286 1.844 0.292128 0
M  V30 3793 C 347.637 1.13788 1.59833 0
M  V30 3794 O 346.762 0.405888 2.12559 0
M  V30 3795 C 347.357 3.3452 0.53681 0
M  V30 3796 C 345.916 3.63151 0.989876 0
M  V30 3797 C 345.063 2.77255 0.0502302 0
M  V30 3798 H 348.014 1.52481 -0.439926 0
M  V30 3799 H 348.035 3.54459 1.38345 0
M  V30 3800 H 347.547 3.85885 -0.414031 0
M  V30 3801 H 345.648 3.17238 1.95425 0
M  V30 3802 H 345.761 4.71177 0.867698 0
M  V30 3803 H 344.125 2.48555 0.556117 0
M  V30 3804 H 344.908 3.31416 -0.89544 0
M  V30 3805 N 347.353 -0.0568162 1.57498 0
M  V30 3806 C 348.764 -0.606858 1.76562 0
M  V30 3807 C 349.115 -1.77114 0.844094 0
M  V30 3808 O 348.24 -2.16376 0.0318911 0
M  V30 3809 C 348.835 -1.10766 3.20182 0
M  V30 3810 C 347.394 -1.60344 3.40539 0
M  V30 3811 C 346.541 -0.529311 2.72201 0
M  V30 3812 H 349.492 0.169393 1.57793 0
M  V30 3813 H 349.513 -1.97602 3.25167 0
M  V30 3814 H 349.025 -0.26006 3.87228 0
M  V30 3815 H 347.126 -2.47379 2.78629 0
M  V30 3816 H 347.239 -1.67006 4.4905 0
M  V30 3817 H 345.603 -0.977893 2.35179 0
M  V30 3818 H 346.386 0.308352 3.41912 0
M  V30 3819 N 348.832 -1.54138 -0.328536 0
M  V30 3820 C 349.762 -1.86167 -1.40939 0
M  V30 3821 C 350.743 -0.718044 -1.54202 0
M  V30 3822 O 351.928 -0.971328 -1.68163 0
M  V30 3823 C 349.058 -2.08461 -2.77779 0
M  V30 3824 C 348.012 -3.24299 -2.7931 0
M  V30 3825 C 347.338 -3.31955 -4.19178 0
M  V30 3826 C 348.638 -4.62065 -2.43502 0
M  V30 3827 H 350.332 -2.76689 -1.14383 0
M  V30 3828 H 347.878 -1.33132 -0.548806 0
M  V30 3829 H 349.831 -2.29453 -3.53454 0
M  V30 3830 H 348.555 -1.14684 -3.05802 0
M  V30 3831 H 347.214 -3.03187 -2.0609 0
M  V30 3832 H 346.862 -2.35745 -4.44335 0
M  V30 3833 H 346.562 -4.09805 -4.2111 0
M  V30 3834 H 348.086 -3.55175 -4.96672 0
M  V30 3835 H 349.5 -4.8297 -3.08889 0
M  V30 3836 H 347.897 -5.42429 -2.56693 0
M  V30 3837 H 348.967 -4.64652 -1.38659 0
M  V30 3838 N 350.31 0.590341 -1.46126 0
M  V30 3839 C 351.243 1.71434 -1.50617 0
M  V30 3840 C 352.221 1.58543 -0.360948 0
M  V30 3841 O 353.405 1.79865 -0.563985 0
M  V30 3842 C 350.532 3.09422 -1.37753 0
M  V30 3843 C 349.578 3.40854 -2.5636 0
M  V30 3844 S 350.411 3.33773 -4.18755 0
M  V30 3845 C 351.567 4.74312 -4.08386 0
M  V30 3846 H 351.8 1.67364 -2.45717 0
M  V30 3847 H 349.333 0.76845 -1.33919 0
M  V30 3848 H 351.291 3.8903 -1.31018 0
M  V30 3849 H 349.952 3.10989 -0.440949 0
M  V30 3850 H 349.145 4.41368 -2.43332 0
M  V30 3851 H 348.747 2.68798 -2.60046 0
M  V30 3852 H 351.039 5.64522 -3.74595 0
M  V30 3853 H 351.982 4.92397 -5.08872 0
M  V30 3854 H 352.39 4.50803 -3.3976 0
M  V30 3855 N 351.788 1.33704 0.83433 0
M  V30 3856 C 352.736 1.24323 1.96587 0
M  V30 3857 C 353.73 0.143659 1.6879 0
M  V30 3858 O 354.936 0.30791 1.77347 0
M  V30 3859 H 351.311 0.385925 0.645419 0
M  V30 3860 H 353.282 2.19978 2.01624 0
M  V30 3861 C 352.031 1.00394 3.32891 0
M  V30 3862 H 351.354 1.84231 3.54822 0
M  V30 3863 H 352.794 0.97862 4.12552 0
M  V30 3864 C 351.253 -0.293047 3.35623 0
M  V30 3865 O 351.783 -1.29823 3.80143 0
M  V30 3866 N 349.989 -0.322174 2.88809 0
M  V30 3867 H 349.536 0.496379 2.52772 0
M  V30 3868 H 349.494 -1.18977 2.91019 0
M  V30 3869 N 353.266 -1.05314 1.17247 0
M  V30 3870 C 354.514 -1.77941 0.958194 0
M  V30 3871 C 354.835 -1.88089 -0.514556 0
M  V30 3872 O 354.105 -1.39676 -1.37359 0
M  V30 3873 H 352.685 -0.659116 0.351533 0
M  V30 3874 H 355.347 -1.27166 1.47699 0
M  V30 3875 H 354.443 -2.79663 1.38546 0
M  V30 3876 N 354.744 -0.972509 -1.24016 0
M  V30 3877 C 355.674 -0.525548 -2.27509 0
M  V30 3878 C 356.655 0.437262 -1.64384 0
M  V30 3879 O 357.84 0.332343 -1.91335 0
M  V30 3880 C 354.97 0.180448 -3.46831 0
M  V30 3881 C 353.924 -0.698859 -4.22256 0
M  V30 3882 C 353.25 0.138903 -5.3452 0
M  V30 3883 C 354.55 -1.98582 -4.83076 0
M  V30 3884 H 356.244 -1.39058 -2.65148 0
M  V30 3885 H 353.79 -0.67009 -1.27459 0
M  V30 3886 H 355.743 0.504387 -4.18371 0
M  V30 3887 H 354.467 1.07987 -3.08231 0
M  V30 3888 H 353.126 -1.00614 -3.52523 0
M  V30 3889 H 352.774 1.03862 -4.9216 0
M  V30 3890 H 352.474 -0.446259 -5.85903 0
M  V30 3891 H 353.998 0.457404 -6.08884 0
M  V30 3892 H 355.412 -1.72715 -5.46665 0
M  V30 3893 H 353.809 -2.5181 -5.44713 0
M  V30 3894 H 354.879 -2.67769 -4.04262 0
M  V30 3895 N 356.222 1.38976 -0.743202 0
M  V30 3896 C 357.633 1.83123 -0.363732 0
M  V30 3897 C 357.984 1.6205 1.10609 0
M  V30 3898 O 357.109 1.11606 1.854 0
M  V30 3899 C 357.704 3.32439 -0.653408 0
M  V30 3900 C 356.263 3.74974 -0.327338 0
M  V30 3901 C 355.41 2.61878 -0.911875 0
M  V30 3902 H 358.361 1.27852 -0.940191 0
M  V30 3903 H 358.382 3.80432 0.0720031 0
M  V30 3904 H 357.894 3.47745 -1.72323 0
M  V30 3905 H 355.995 3.65252 0.736314 0
M  V30 3906 H 356.108 4.72106 -0.815631 0
M  V30 3907 H 354.472 2.52448 -0.337944 0
M  V30 3908 H 355.255 2.79987 -1.98651 0
M  V30 3909 N 357.7 0.491464 1.49741 0
M  V30 3910 C 359.111 0.0413169 1.86654 0
M  V30 3911 C 359.462 -1.36985 1.40462 0
M  V30 3912 O 358.587 -2.01917 0.778354 0
M  V30 3913 C 359.182 0.0682023 3.38731 0
M  V30 3914 C 357.741 -0.32656 3.74981 0
M  V30 3915 C 356.888 0.444888 2.73708 0
M  V30 3916 H 359.839 0.704733 1.42194 0
M  V30 3917 H 359.86 -0.729322 3.73445 0
M  V30 3918 H 359.372 1.09539 3.72321 0
M  V30 3919 H 357.473 -1.35734 3.46997 0
M  V30 3920 H 357.586 -0.013741 4.79098 0
M  V30 3921 H 355.95 -0.104062 2.54487 0
M  V30 3922 H 356.733 1.47197 3.10142 0
M  V30 3923 N 359.178 -1.55987 0.224894 0
M  V30 3924 C 360.594 -1.59066 -0.130426 0
M  V30 3925 C 360.794 -1.24176 -1.5869 0
M  V30 3926 O 359.85 -0.978592 -2.32766 0
M  V30 3927 C 361.163 -3.00042 0.198883 0
M  V30 3928 C 362.711 -3.1268 0.141391 0
M  V30 3929 C 363.186 -4.55839 0.444422 0
M  V30 3930 N 364.677 -4.6152 0.394115 0
M  V30 3931 C 365.412 -5.70231 0.602038 0
M  V30 3932 N 364.908 -6.87291 0.871914 0
M  V30 3933 N 366.701 -5.59555 0.534245 0
M  V30 3934 H 358.852 -1.76941 1.17497 0
M  V30 3935 H 361.115 -0.822604 0.471197 0
M  V30 3936 H 360.821 -3.30234 1.2099 0
M  V30 3937 H 360.695 -3.74075 -0.484535 0
M  V30 3938 H 363.082 -2.82283 -0.860265 0
M  V30 3939 H 363.163 -2.40969 0.858335 0
M  V30 3940 H 362.807 -4.86954 1.44353 0
M  V30 3941 H 362.737 -5.2578 -0.293752 0
M  V30 3942 H 365.228 -3.77405 0.193356 0
M  V30 3943 H 365.541 -7.66058 1.01858 0
M  V30 3944 H 363.886 -6.89028 0.909145 0
M  V30 3945 H 367.077 -4.6698 0.323612 0
M  V30 3946 H 367.25 -6.44211 0.699693 0
M  V30 3947 N 360.656 0.0484629 -1.57525 0
M  V30 3948 C 362.067 0.597486 -1.76881 0
M  V30 3949 C 362.418 1.76664 -0.853475 0
M  V30 3950 O 361.543 2.16357 -0.0433656 0
M  V30 3951 C 362.138 1.09066 -3.20765 0
M  V30 3952 C 360.697 1.58535 -3.41385 0
M  V30 3953 C 359.844 0.514868 -2.72478 0
M  V30 3954 H 362.795 -0.177758 -1.57701 0
M  V30 3955 H 362.816 1.95875 -3.2621 0
M  V30 3956 H 362.328 0.239521 -3.8736 0
M  V30 3957 H 360.429 2.45898 -2.79937 0
M  V30 3958 H 360.542 1.64622 -4.49929 0
M  V30 3959 H 358.906 0.965407 -2.35695 0
M  V30 3960 H 359.689 -0.32648 -3.41744 0
M  V30 3961 N 362.134 1.5431 0.320358 0
M  V30 3962 C 363.545 1.63872 0.894594 0
M  V30 3963 C 363.896 0.534847 1.88769 0
M  V30 3964 O 363.021 -0.331732 2.13842 0
M  V30 3965 C 363.616 2.97049 1.62934 0
M  V30 3966 C 362.175 3.08796 2.15226 0
M  V30 3967 C 361.322 2.59456 0.978671 0
M  V30 3968 H 364.273 1.58398 0.0978544 0
M  V30 3969 H 364.294 2.87388 2.49376 0
M  V30 3970 H 363.806 3.7737 0.906302 0
M  V30 3971 H 361.907 2.33156 2.90636 0
M  V30 3972 H 362.02 4.14649 2.40006 0
M  V30 3973 H 360.384 2.1543 1.35875 0
M  V30 3974 H 361.167 3.42237 0.269895 0
M  V30 3975 N 363.613 -0.582584 1.46437 0
M  V30 3976 C 364.543 -1.70187 1.59871 0
M  V30 3977 C 365.524 -1.64066 0.449042 0
M  V30 3978 O 366.709 -1.82081 0.6753 0
M  V30 3979 C 363.839 -3.08827 1.58881 0
M  V30 3980 C 362.793 -3.29779 2.72819 0
M  V30 3981 C 362.119 -4.68947 2.5689 0
M  V30 3982 C 363.419 -3.17601 4.1464 0
M  V30 3983 H 365.113 -1.592 2.53566 0
M  V30 3984 H 362.659 -0.764472 1.22032 0
M  V30 3985 H 364.612 -3.86951 1.66873 0
M  V30 3986 H 363.336 -3.20713 0.617306 0
M  V30 3987 H 361.995 -2.54054 2.64296 0
M  V30 3988 H 361.643 -4.77599 1.57823 0
M  V30 3989 H 361.343 -4.83919 3.33312 0
M  V30 3990 H 362.867 -5.4924 2.66773 0
M  V30 3991 H 364.281 -3.8557 4.24274 0
M  V30 3992 H 362.678 -3.44094 4.9165 0
M  V30 3993 H 363.748 -2.14681 4.34788 0
M  V30 3994 N 365.091 -1.34144 -0.827227 0
M  V30 3995 C 366.502 -1.23557 -1.39966 0
M  V30 3996 C 366.853 0.140731 -1.95695 0
M  V30 3997 O 365.978 1.04087 -1.89723 0
M  V30 3998 C 366.573 -2.23708 -2.54441 0
M  V30 3999 C 365.132 -2.16924 -3.07605 0
M  V30 4000 C 364.279 -2.10549 -1.80456 0
M  V30 4001 H 367.23 -1.45573 -0.631991 0
M  V30 4002 H 367.251 -1.85157 -3.32411 0
M  V30 4003 H 366.763 -3.23866 -2.13851 0
M  V30 4004 H 364.864 -1.20107 -3.52711 0
M  V30 4005 H 364.977 -3.07988 -3.66988 0
M  V30 4006 H 363.341 -1.56203 -2.01178 0
M  V30 4007 H 364.124 -3.12535 -1.42046 0
M  V30 4008 N 366.569 1.04691 -1.17803 0
M  V30 4009 C 367.479 2.16057 -0.914151 0
M  V30 4010 C 368.495 1.73589 0.119503 0
M  V30 4011 O 369.671 2.01308 -0.0609468 0
M  V30 4012 C 366.736 3.4394 -0.436603 0
M  V30 4013 C 365.797 4.00825 -1.53746 0
M  V30 4014 C 365.03 5.22604 -1.0826 0
M  V30 4015 O 365.253 5.70367 0.0612244 0
M  V30 4016 O 364.187 5.7186 -1.87775 0
M  V30 4017 H 368.013 2.41169 -1.84584 0
M  V30 4018 H 365.598 1.1453 -0.959334 0
M  V30 4019 H 367.48 4.21024 -0.178057 0
M  V30 4020 H 366.155 3.20316 0.466869 0
M  V30 4021 H 365.062 3.25158 -1.84995 0
M  V30 4022 H 366.395 4.28778 -2.41683 0
M  V30 4023 N 368.047 0.979072 1.23499 0
M  V30 4024 C 369.272 0.664845 1.96455 0
M  V30 4025 C 369.697 -0.761287 1.72006 0
M  V30 4026 O 369.055 -1.51837 0.990713 0
M  V30 4027 C 369.103 0.959479 3.47601 0
M  V30 4028 O 368.207 0.0508168 4.12369 0
M  V30 4029 H 367.548 0.250185 0.615064 0
M  V30 4030 H 370.078 1.31231 1.5697 0
M  V30 4031 H 370.088 0.895642 3.98048 0
M  V30 4032 H 368.763 1.99876 3.64723 0
M  V30 4033 H 367.34 0.16895 3.72517 0
M  V30 4034 N 369.525 -1.3858 0.750561 0
M  V30 4035 C 370.455 -2.33102 0.136237 0
M  V30 4036 C 371.436 -1.54713 -0.706965 0
M  V30 4037 O 372.621 -1.83043 -0.648769 0
M  V30 4038 C 369.751 -3.38882 -0.760017 0
M  V30 4039 C 368.705 -4.27995 -0.0197785 0
M  V30 4040 C 368.031 -5.24605 -1.03408 0
M  V30 4041 C 369.331 -5.09554 1.14684 0
M  V30 4042 H 371.025 -2.84726 0.925822 0
M  V30 4043 H 368.571 -1.36898 0.446654 0
M  V30 4044 H 370.524 -4.0397 -1.19943 0
M  V30 4045 H 369.248 -2.85734 -1.58189 0
M  V30 4046 H 367.907 -3.64409 0.400184 0
M  V30 4047 H 367.555 -4.67746 -1.84994 0
M  V30 4048 H 367.255 -5.85081 -0.543464 0
M  V30 4049 H 368.779 -5.9257 -1.47288 0
M  V30 4050 H 370.193 -5.67899 0.785118 0
M  V30 4051 H 368.59 -5.7925 1.56812 0
M  V30 4052 H 369.66 -4.4347 1.96118 0
M  V30 4053 N 371.003 -0.499398 -1.49478 0
M  V30 4054 C 372.414 -0.051215 -1.8663 0
M  V30 4055 C 372.765 1.36238 -1.41186 0
M  V30 4056 O 371.89 2.01502 -0.789051 0
M  V30 4057 C 372.485 -0.0861651 -3.3869 0
M  V30 4058 C 371.044 0.30667 -3.75149 0
M  V30 4059 C 370.191 -0.459397 -2.73468 0
M  V30 4060 H 373.142 -0.712264 -1.41818 0
M  V30 4061 H 373.163 0.709507 -3.73826 0
M  V30 4062 H 372.675 -1.11512 -3.71735 0
M  V30 4063 H 370.776 1.33892 -3.47712 0
M  V30 4064 H 370.889 -0.0116669 -4.79099 0
M  V30 4065 H 369.253 0.0905645 -2.54539 0
M  V30 4066 H 370.036 -1.4884 -3.09357 0
M  V30 4067 N 372.481 1.55866 -0.233164 0
M  V30 4068 C 373.892 1.847 0.272554 0
M  V30 4069 C 374.243 1.15477 1.58617 0
M  V30 4070 O 373.368 0.42841 2.12117 0
M  V30 4071 C 373.963 3.35071 0.501299 0
M  V30 4072 C 372.522 3.6418 0.951304 0
M  V30 4073 C 371.669 2.77292 0.0208209 0
M  V30 4074 H 374.62 1.52005 -0.456074 0
M  V30 4075 H 374.641 3.55906 1.34577 0
M  V30 4076 H 374.153 3.85424 -0.454936 0
M  V30 4077 H 372.254 3.19293 1.92049 0
M  V30 4078 H 372.367 4.72071 0.817675 0
M  V30 4079 H 370.731 2.49131 0.529723 0
M  V30 4080 H 371.514 3.30448 -0.93054 0
M  V30 4081 N 373.959 -0.0401083 1.57549 0
M  V30 4082 C 375.37 -0.588097 1.77196 0
M  V30 4083 C 375.721 -1.76209 0.862832 0
M  V30 4084 O 374.846 -2.16331 0.0548389 0
M  V30 4085 C 375.441 -1.07363 3.21339 0
M  V30 4086 C 374 -1.56723 3.42221 0
M  V30 4087 C 373.147 -0.50041 2.72747 0
M  V30 4088 H 376.098 0.186119 1.57605 0
M  V30 4089 H 376.119 -1.94143 3.27244 0
M  V30 4090 H 375.631 -0.218975 3.87482 0
M  V30 4091 H 373.732 -2.4441 2.81237 0
M  V30 4092 H 373.845 -1.62234 4.50796 0
M  V30 4093 H 372.209 -0.952894 2.36203 0
M  V30 4094 H 372.992 0.344599 3.41566 0
M  V30 4095 N 375.437 -1.54477 -0.31217 0
M  V30 4096 C 376.848 -1.64344 -0.885891 0
M  V30 4097 C 377.199 -0.54485 -1.88483 0
M  V30 4098 O 376.324 0.320387 -2.14015 0
M  V30 4099 C 376.919 -2.97908 -1.61357 0
M  V30 4100 C 375.478 -3.09933 -2.13585 0
M  V30 4101 C 374.625 -2.59971 -0.964897 0
M  V30 4102 H 377.576 -1.58448 -0.0894528 0
M  V30 4103 H 377.597 -2.88706 -2.47848 0
M  V30 4104 H 377.109 -3.77845 -0.886277 0
M  V30 4105 H 375.21 -2.34694 -2.89395 0
M  V30 4106 H 375.323 -4.15916 -2.37804 0
M  V30 4107 H 373.687 -2.16147 -1.34731 0
M  V30 4108 H 374.47 -3.42376 -0.251742 0
M  V30 4109 N 376.915 0.57481 -1.46744 0
M  V30 4110 C 378.326 1.15695 -1.46532 0
M  V30 4111 C 378.677 1.95068 -0.210425 0
M  V30 4112 O 377.802 2.05241 0.685944 0
M  V30 4113 C 378.397 2.1048 -2.65487 0
M  V30 4114 C 376.956 2.64002 -2.68291 0
M  V30 4115 C 376.103 1.40026 -2.39349 0
M  V30 4116 H 379.054 0.362325 -1.54509 0
M  V30 4117 H 379.075 2.94074 -2.41455 0
M  V30 4118 H 378.587 1.52683 -3.56805 0
M  V30 4119 H 376.688 3.25646 -1.81067 0
M  V30 4120 H 376.801 3.06197 -3.68483 0
M  V30 4121 H 375.165 1.70106 -1.89568 0
M  V30 4122 H 375.948 0.840485 -3.32852 0
M  V30 4123 N 378.394 1.34581 0.820102 0
M  V30 4124 C 379.642 1.26845 1.57336 0
M  V30 4125 C 379.963 -0.160667 1.94337 0
M  V30 4126 O 379.233 -1.09396 1.6251 0
M  V30 4127 H 377.813 0.466514 0.583415 0
M  V30 4128 H 380.475 1.68526 0.979027 0
M  V30 4129 H 379.571 1.87513 2.4949 0
M  V30 4130 N 379.872 -1.04064 1.18357 0
M  V30 4131 C 381.12 -1.76915 0.977013 0
M  V30 4132 C 381.441 -1.88624 -0.494577 0
M  V30 4133 O 380.711 -1.41125 -1.3587 0
M  V30 4134 H 379.291 -0.65535 0.358504 0
M  V30 4135 H 381.953 -1.25592 1.49039 0
M  V30 4136 H 381.049 -2.78178 1.41504 0
M  V30 4137 N 381.35 -0.985608 -1.22978 0
M  V30 4138 C 382.28 -0.549649 -2.26939 0
M  V30 4139 C 383.261 0.419803 -1.64838 0
M  V30 4140 O 384.446 0.31203 -1.91677 0
M  V30 4141 C 381.576 0.143652 -3.47003 0
M  V30 4142 C 380.53 -0.743606 -4.21491 0
M  V30 4143 C 379.856 0.0822027 -5.34637 0
M  V30 4144 C 381.156 -2.03694 -4.80943 0
M  V30 4145 H 382.85 -1.41862 -2.63658 0
M  V30 4146 H 380.396 -0.683571 -1.26741 0
M  V30 4147 H 382.349 0.459985 -4.18882 0
M  V30 4148 H 381.073 1.04711 -3.09359 0
M  V30 4149 H 379.732 -1.04347 -3.51436 0
M  V30 4150 H 379.38 0.986359 -4.93234 0
M  V30 4151 H 379.08 -0.508377 -5.85397 0
M  V30 4152 H 380.604 0.392797 -6.09335 0
M  V30 4153 H 382.018 -1.78504 -5.44802 0
M  V30 4154 H 380.415 -2.57573 -5.42011 0
M  V30 4155 H 381.485 -2.72042 -4.01399 0
M  V30 4156 N 382.828 1.3818 -0.7579 0
M  V30 4157 C 384.239 1.82726 -0.383134 0
M  V30 4158 C 384.59 1.63214 1.08884 0
M  V30 4159 O 383.715 1.13566 1.84205 0
M  V30 4160 C 384.31 3.31728 -0.688631 0
M  V30 4161 C 382.869 3.74606 -0.367091 0
M  V30 4162 C 382.016 2.60896 -0.939599 0
M  V30 4163 H 384.967 1.26847 -0.953699 0
M  V30 4164 H 384.988 3.80487 0.0316492 0
M  V30 4165 H 384.5 3.45898 -1.76001 0
M  V30 4166 H 382.601 3.66013 0.697532 0
M  V30 4167 H 382.714 4.71215 -0.865658 0
M  V30 4168 H 381.078 2.52075 -0.3647 0
M  V30 4169 H 381.861 2.77864 -2.0161 0
M  V30 4170 N 384.306 0.507319 1.49211 0
M  V30 4171 C 385.236 -0.256939 2.32082 0
M  V30 4172 C 386.217 -0.956609 1.40652 0
M  V30 4173 O 387.402 -0.946788 1.69557 0
M  V30 4174 C 384.532 -1.31802 3.21318 0
M  V30 4175 C 383.486 -0.737855 4.21592 0
M  V30 4176 C 382.812 -1.89992 4.99807 0
M  V30 4177 C 384.112 0.275325 5.21574 0
M  V30 4178 H 385.806 0.434798 2.96226 0
M  V30 4179 H 383.352 0.210546 1.42452 0
M  V30 4180 H 385.305 -1.86045 3.78107 0
M  V30 4181 H 384.029 -2.03903 2.5513 0
M  V30 4182 H 382.688 -0.217126 3.65956 0
M  V30 4183 H 382.336 -2.60877 4.30061 0
M  V30 4184 H 382.036 -1.51777 5.6766 0
M  V30 4185 H 383.56 -2.44657 5.59442 0
M  V30 4186 H 384.974 -0.179193 5.7302 0
M  V30 4187 H 383.371 0.573649 5.97352 0
M  V30 4188 H 384.441 1.18903 4.70096 0
M  V30 4189 N 385.784 -1.5574 0.241426 0
M  V30 4190 C 387.195 -1.84842 -0.262755 0
M  V30 4191 C 387.546 -1.16317 -1.58003 0
M  V30 4192 O 386.671 -0.439653 -2.11887 0
M  V30 4193 C 387.266 -3.35332 -0.483523 0
M  V30 4194 C 385.825 -3.6468 -0.931977 0
M  V30 4195 C 384.972 -2.77299 -0.0061151 0
M  V30 4196 H 387.923 -1.51761 0.464129 0
M  V30 4197 H 387.944 -3.56615 -1.32688 0
M  V30 4198 H 387.456 -3.85178 0.47537 0
M  V30 4199 H 385.557 -3.20307 -1.90353 0
M  V30 4200 H 385.67 -4.72498 -0.792628 0
M  V30 4201 H 384.034 -2.49408 -0.516503 0
M  V30 4202 H 384.817 -3.2995 0.948052 0
M  V30 4203 N 387.262 0.0317525 -1.57568 0
M  V30 4204 C 388.673 0.578692 -1.77505 0
M  V30 4205 C 389.024 1.75749 -0.872164 0
M  V30 4206 O 388.149 2.16298 -0.0663106 0
M  V30 4207 C 388.744 1.05658 -3.21904 0
M  V30 4208 C 387.303 1.54906 -3.43047 0
M  V30 4209 C 386.45 0.485939 -2.73009 0
M  V30 4210 H 389.401 -0.194475 -1.57504 0
M  V30 4211 H 389.422 1.92404 -3.28269 0
M  V30 4212 H 388.934 0.198422 -3.87592 0
M  V30 4213 H 387.035 2.42915 -2.82529 0
M  V30 4214 H 387.148 1.59841 -4.5165 0
M  V30 4215 H 385.512 0.940354 -2.36705 0
M  V30 4216 H 386.295 -0.362709 -3.41379 0
M  V30 4217 N 388.74 1.54641 0.303973 0
M  V30 4218 C 389.673 1.80263 1.3993 0
M  V30 4219 C 390.651 0.653657 1.48883 0
M  V30 4220 O 391.835 0.893284 1.6599 0
M  V30 4221 C 388.962 1.9367 2.77866 0
M  V30 4222 C 388.008 3.16078 2.86351 0
M  V30 4223 S 388.841 4.74219 2.4875 0
M  V30 4224 C 389.997 4.90558 3.88721 0
M  V30 4225 H 390.23 2.72886 1.17986 0
M  V30 4226 H 387.763 1.46014 0.501918 0
M  V30 4227 H 389.721 2.0208 3.57315 0
M  V30 4228 H 388.382 1.01991 2.9708 0
M  V30 4229 H 387.575 3.22252 3.87517 0
M  V30 4230 H 387.177 3.06099 2.14893 0
M  V30 4231 H 389.469 4.74398 4.83687 0
M  V30 4232 H 390.412 5.92651 3.87518 0
M  V30 4233 H 390.82 4.18728 3.78585 0
M  V30 4234 N 390.218 -0.567019 1.47046 0
M  V30 4235 C 391.629 -1.14916 1.47143 0
M  V30 4236 C 391.98 -1.94954 0.220767 0
M  V30 4237 O 391.105 -2.05602 -0.67505 0
M  V30 4238 C 391.7 -2.09069 2.666 0
M  V30 4239 C 390.259 -2.62575 2.69687 0
M  V30 4240 C 389.406 -1.38755 2.40088 0
M  V30 4241 H 392.357 -0.354126 1.54699 0
M  V30 4242 H 392.378 -2.92789 2.43011 0
M  V30 4243 H 391.89 -1.50789 3.57609 0
M  V30 4244 H 389.991 -3.24681 1.82792 0
M  V30 4245 H 390.104 -3.04239 3.70102 0
M  V30 4246 H 388.468 -1.69098 1.90468 0
M  V30 4247 H 389.251 -0.822822 3.33293 0
M  V30 4248 N 391.696 -1.35014 -0.812953 0
M  V30 4249 C 393.107 -1.25035 -1.38648 0
M  V30 4250 C 393.458 0.119967 -1.95833 0
M  V30 4251 O 392.583 1.02069 -1.90816 0
M  V30 4252 C 393.178 -2.26394 -2.52054 0
M  V30 4253 C 391.737 -2.20175 -3.05287 0
M  V30 4254 C 390.884 -2.12451 -1.78213 0
M  V30 4255 H 393.835 -1.46235 -0.616516 0
M  V30 4256 H 393.856 -1.88672 -3.30429 0
M  V30 4257 H 393.368 -3.26116 -2.10404 0
M  V30 4258 H 391.469 -1.23841 -3.51417 0
M  V30 4259 H 391.582 -3.11863 -3.63701 0
M  V30 4260 H 389.946 -1.58328 -1.9951 0
M  V30 4261 H 390.729 -3.14024 -1.38723 0
M  V30 4262 N 393.175 1.03435 -1.18907 0
M  V30 4263 C 394.403 1.80381 -1.01342 0
M  V30 4264 C 394.818 1.83649 0.438005 0
M  V30 4265 O 394.175 1.27655 1.30424 0
M  V30 4266 C 394.226 3.25689 -1.56873 0
M  V30 4267 O 393.947 3.22673 -2.96334 0
M  V30 4268 C 395.448 4.19255 -1.44014 0
M  V30 4269 H 392.668 0.56784 -0.35749 0
M  V30 4270 H 395.212 1.30317 -1.576 0
M  V30 4271 H 393.367 3.72962 -1.04777 0
M  V30 4272 H 393.781 4.13748 -3.22355 0
M  V30 4273 H 395.255 5.19123 -1.87657 0
M  V30 4274 H 395.732 4.37467 -0.389815 0
M  V30 4275 H 396.338 3.77851 -1.95214 0
M  V30 4276 N 394.653 0.992116 1.22453 0
M  V30 4277 C 395.901 0.666215 1.90804 0
M  V30 4278 C 396.222 -0.804152 1.77647 0
M  V30 4279 O 395.492 -1.57629 1.16318 0
M  V30 4280 H 394.072 0.243423 0.706225 0
M  V30 4281 H 396.734 1.25845 1.48825 0
M  V30 4282 H 395.83 0.928069 2.97982 0
M  V30 4283 N 396.131 -1.37776 0.765217 0
M  V30 4284 C 397.542 -1.82521 0.392819 0
M  V30 4285 C 397.893 -1.63789 -1.08017 0
M  V30 4286 O 397.018 -1.14542 -1.83601 0
M  V30 4287 C 397.613 -3.31358 0.706214 0
M  V30 4288 C 396.172 -3.74406 0.386952 0
M  V30 4289 C 395.319 -2.60394 0.953422 0
M  V30 4290 H 398.27 -1.2634 0.960412 0
M  V30 4291 H 398.291 -3.80498 -0.0114706 0
M  V30 4292 H 397.803 -3.44959 1.77833 0
M  V30 4293 H 395.904 -3.66377 -0.678112 0
M  V30 4294 H 396.017 -4.70749 0.890636 0
M  V30 4295 H 394.381 -2.51878 0.378064 0
M  V30 4296 H 395.164 -2.76791 2.03081 0
M  V30 4297 N 397.609 -0.515225 -1.4894 0
M  V30 4298 C 398.572 0.244681 -2.2789 0
M  V30 4299 C 399.572 0.881166 -1.34507 0
M  V30 4300 O 400.762 0.743497 -1.57537 0
M  V30 4301 C 397.894 1.35247 -3.12923 0
M  V30 4302 H 399.087 -0.448289 -2.96531 0
M  V30 4303 H 396.64 -0.270656 -1.53939 0
M  V30 4304 H 397.375 2.07916 -2.48881 0
M  V30 4305 H 397.16 0.901374 -3.81599 0
M  V30 4306 H 398.65 1.88737 -3.72516 0
M  V30 4307 N 399.087 1.5561 -0.249682 0
M  V30 4308 C 400.498 1.84979 0.252949 0
M  V30 4309 C 400.849 1.17153 1.57384 0
M  V30 4310 O 399.974 0.450884 2.11651 0
M  V30 4311 C 400.569 3.35584 0.465732 0
M  V30 4312 C 399.128 3.65169 0.912624 0
M  V30 4313 C 398.275 2.77299 -0.00859085 0
M  V30 4314 H 401.226 1.51513 -0.47217 0
M  V30 4315 H 401.247 3.57313 1.30795 0
M  V30 4316 H 400.759 3.8492 -0.49579 0
M  V30 4317 H 398.86 3.21312 1.88652 0
M  V30 4318 H 398.973 4.72912 0.767559 0
M  V30 4319 H 397.337 2.49678 0.50327 0
M  V30 4320 H 398.12 3.29442 -0.965537 0
M  V30 4321 N 400.565 -0.0233959 1.57583 0
M  V30 4322 C 401.79 -0.728376 1.94189 0
M  V30 4323 C 402.215 -1.67793 0.850119 0
M  V30 4324 O 401.573 -1.80262 -0.19371 0
M  V30 4325 C 401.621 -1.45669 3.29868 0
M  V30 4326 O 400.725 -2.57013 3.22518 0
M  V30 4327 H 400.066 -0.195493 0.63457 0
M  V30 4328 H 402.596 0.0228214 2.04587 0
M  V30 4329 H 402.606 -1.82535 3.6489 0
M  V30 4330 H 401.281 -0.760314 4.08891 0
M  V30 4331 H 399.858 -2.22648 2.99136 0
M  V30 4332 N 402.043 -1.548 -0.295768 0
M  V30 4333 C 403.291 -1.73985 -1.02828 0
M  V30 4334 C 403.612 -0.531406 -1.87619 0
M  V30 4335 O 402.882 0.454221 -1.90561 0
M  V30 4336 H 401.462 -0.641556 -0.382642 0
M  V30 4337 H 404.124 -1.92163 -0.325489 0
M  V30 4338 H 403.22 -2.63129 -1.67838 0
M  V30 4339 N 403.521 0.559213 -1.47345 0
M  V30 4340 C 404.932 1.14134 -1.47751 0
M  V30 4341 C 405.283 1.94834 -0.231103 0
M  V30 4342 O 404.408 2.05957 0.664137 0
M  V30 4343 C 405.003 2.07653 -2.67705 0
M  V30 4344 C 403.562 2.61141 -2.71076 0
M  V30 4345 C 402.709 1.3748 -2.40821 0
M  V30 4346 H 405.66 0.345917 -1.54884 0
M  V30 4347 H 405.681 2.91497 -2.44561 0
M  V30 4348 H 405.193 1.4889 -3.58404 0
M  V30 4349 H 403.294 3.23707 -1.84511 0
M  V30 4350 H 403.407 3.02272 -3.7171 0
M  V30 4351 H 401.771 1.68086 -1.91362 0
M  V30 4352 H 402.554 0.805135 -3.33725 0
M  V30 4353 N 404.999 1.35443 0.805782 0
M  V30 4354 C 406.41 1.25768 1.37983 0
M  V30 4355 C 406.761 -0.10958 1.95894 0
M  V30 4356 O 405.886 -1.01056 1.91355 0
M  V30 4357 C 406.481 2.27727 2.5085 0
M  V30 4358 C 405.04 2.2179 3.04115 0
M  V30 4359 C 404.187 2.13393 1.77084 0
M  V30 4360 H 407.138 1.4656 0.608752 0
M  V30 4361 H 407.159 1.90422 3.29424 0
M  V30 4362 H 406.671 3.27227 2.08671 0
M  V30 4363 H 404.772 1.25703 3.50756 0
M  V30 4364 H 404.885 3.13788 3.62042 0
M  V30 4365 H 403.249 1.59384 1.98668 0
M  V30 4366 H 404.032 3.14755 1.37056 0
M  V30 4367 N 406.477 -1.02803 1.19454 0
M  V30 4368 C 407.725 -1.75869 0.995722 0
M  V30 4369 C 408.046 -1.89138 -0.474543 0
M  V30 4370 O 407.316 -1.42558 -1.34366 0
M  V30 4371 H 405.896 -0.651511 0.365435 0
M  V30 4372 H 408.558 -1.24004 1.50363 0
M  V30 4373 H 407.654 -2.76661 1.44447 0
M  V30 4374 N 407.956 -0.998596 -1.21925 0
M  V30 4375 C 409.367 -0.711939 -1.72593 0
M  V30 4376 C 409.718 0.770842 -1.80423 0
M  V30 4377 O 408.843 1.60237 -1.4544 0
M  V30 4378 C 409.438 -1.28567 -3.13458 0
M  V30 4379 C 407.997 -1.04828 -3.61508 0
M  V30 4380 C 407.144 -1.4024 -2.39224 0
M  V30 4381 H 410.095 -1.17027 -1.07193 0
M  V30 4382 H 410.116 -0.667098 -3.74607 0
M  V30 4383 H 409.628 -2.36486 -3.07727 0
M  V30 4384 H 407.729 0.0140383 -3.72597 0
M  V30 4385 H 407.842 -1.71566 -4.47328 0
M  V30 4386 H 406.206 -0.821077 -2.41103 0
M  V30 4387 H 406.989 -2.49176 -2.36149 0
M  V30 4388 N 409.434 1.37368 -0.772513 0
M  V30 4389 C 410.845 1.8231 -0.402493 0
M  V30 4390 C 411.196 1.6436 1.07146 0
M  V30 4391 O 410.321 1.15514 1.82991 0
M  V30 4392 C 410.916 3.30979 -0.723776 0
M  V30 4393 C 409.475 3.74195 -0.406802 0
M  V30 4394 C 408.622 2.59885 -0.967218 0
M  V30 4395 H 411.573 1.25829 -0.967099 0
M  V30 4396 H 411.594 3.80499 -0.00870832 0
M  V30 4397 H 411.106 3.44011 -1.7966 0
M  V30 4398 H 409.207 3.66732 0.658673 0
M  V30 4399 H 409.32 4.7027 -0.915588 0
M  V30 4400 H 407.684 2.51674 -0.391416 0
M  V30 4401 H 408.467 2.7571 -2.04546 0
M  V30 4402 N 410.912 0.523116 1.48665 0
M  V30 4403 C 411.844 -0.280421 2.27478 0
M  V30 4404 C 412.857 -0.910694 1.34945 0
M  V30 4405 O 414.046 -0.790295 1.60052 0
M  V30 4406 C 411.146 -1.41171 3.08097 0
M  V30 4407 C 410.319 -0.884642 4.28361 0
M  V30 4408 C 409.378 -1.89622 4.90846 0
M  V30 4409 O 408.404 -1.4559 5.50265 0
M  V30 4410 N 409.606 -3.22801 4.82472 0
M  V30 4411 H 412.371 0.395481 2.97079 0
M  V30 4412 H 409.932 0.357018 1.57915 0
M  V30 4413 H 411.924 -2.08645 3.4677 0
M  V30 4414 H 410.494 -1.99139 2.40961 0
M  V30 4415 H 409.714 -0.0341177 3.94185 0
M  V30 4416 H 411.002 -0.511268 5.06225 0
M  V30 4417 H 410.4 -3.61246 4.35336 0
M  V30 4418 H 408.957 -3.85927 5.25265 0
M  V30 4419 N 412.39 -1.55475 0.257931 0
M  V30 4420 C 413.32 -2.24815 -0.630912 0
M  V30 4421 C 414.301 -1.23224 -1.17259 0
M  V30 4422 O 415.486 -1.51904 -1.20991 0
M  V30 4423 C 412.616 -2.95609 -1.82298 0
M  V30 4424 C 411.57 -4.03982 -1.41359 0
M  V30 4425 C 410.896 -4.6226 -2.68738 0
M  V30 4426 C 412.196 -5.19109 -0.57648 0
M  V30 4427 H 413.89 -2.99354 -0.0526878 0
M  V30 4428 H 411.436 -1.4398 -0.023901 0
M  V30 4429 H 413.389 -3.42822 -2.45054 0
M  V30 4430 H 412.113 -2.18577 -2.42676 0
M  V30 4431 H 410.772 -3.57555 -0.809324 0
M  V30 4432 H 410.42 -3.81915 -3.27338 0
M  V30 4433 H 410.12 -5.35424 -2.42065 0
M  V30 4434 H 411.644 -5.12212 -3.32372 0
M  V30 4435 H 413.058 -5.62479 -1.10861 0
M  V30 4436 H 411.455 -5.98729 -0.405351 0
M  V30 4437 H 412.525 -4.83174 0.408776 0
M  V30 4438 N 413.868 0.0150385 -1.57593 0
M  V30 4439 C 415.279 0.559832 -1.78109 0
M  V30 4440 C 415.63 1.74814 -0.890756 0
M  V30 4441 O 414.755 2.16216 -0.0892482 0
M  V30 4442 C 415.35 1.02238 -3.23006 0
M  V30 4443 C 413.909 1.51258 -3.44671 0
M  V30 4444 C 413.056 0.456955 -2.73509 0
M  V30 4445 H 416.007 -0.211169 -1.57289 0
M  V30 4446 H 416.028 1.88912 -3.30292 0
M  V30 4447 H 415.54 0.157302 -3.87781 0
M  V30 4448 H 413.641 2.39905 -2.8509 0
M  V30 4449 H 413.754 1.55042 -4.5332 0
M  V30 4450 H 412.118 0.915196 -2.37689 0
M  V30 4451 H 412.901 -0.398896 -3.40975 0
M  V30 4452 N 415.346 1.54954 0.287554 0
M  V30 4453 C 416.757 1.65732 0.859634 0
M  V30 4454 C 417.108 0.574767 1.87592 0
M  V30 4455 O 416.233 -0.286299 2.14498 0
M  V30 4456 C 416.828 3.00438 1.56597 0
M  V30 4457 C 415.387 3.13292 2.08627 0
M  V30 4458 C 414.534 2.61473 0.923416 0
M  V30 4459 H 417.485 1.5857 0.0642338 0
M  V30 4460 H 417.506 2.92613 2.43224 0
M  V30 4461 H 417.018 3.79207 0.826053 0
M  V30 4462 H 415.119 2.39268 2.85625 0
M  V30 4463 H 415.232 4.19647 2.31157 0
M  V30 4464 H 413.596 2.18264 1.31275 0
M  V30 4465 H 414.379 3.42733 0.197241 0
M  V30 4466 N 416.824 -0.551391 1.4764 0
M  V30 4467 C 418.235 -1.13349 1.48354 0
M  V30 4468 C 418.586 -1.94709 0.241432 0
M  V30 4469 O 417.711 -2.06306 -0.653205 0
M  V30 4470 C 418.306 -2.0623 2.68802 0
M  V30 4471 C 416.865 -2.597 2.72457 0
M  V30 4472 C 416.012 -1.36201 2.41546 0
M  V30 4473 H 418.963 -0.337698 1.55065 0
M  V30 4474 H 418.984 -2.90196 2.46103 0
M  V30 4475 H 418.496 -1.46987 3.59188 0
M  V30 4476 H 416.597 -3.22724 1.86225 0
M  V30 4477 H 416.71 -3.00296 3.73308 0
M  V30 4478 H 415.074 -1.67068 1.9225 0
M  V30 4479 H 415.857 -0.787425 3.34147 0
M  V30 4480 N 418.302 -1.35869 -0.798587 0
M  V30 4481 C 419.265 -1.29307 -1.89242 0
M  V30 4482 C 420.265 -0.202747 -1.59517 0
M  V30 4483 O 421.455 -0.456957 -1.681 0
M  V30 4484 C 418.587 -1.00229 -3.25833 0
M  V30 4485 H 419.78 -2.26576 -1.96478 0
M  V30 4486 H 417.333 -1.20509 -0.995358 0
M  V30 4487 H 418.068 -0.033801 -3.24282 0
M  V30 4488 H 417.853 -1.79121 -3.48795 0
M  V30 4489 H 419.343 -0.98219 -4.05885 0
M  V30 4490 N 419.78 1.02168 -1.19998 0
M  V30 4491 C 421.191 1.57135 -1.00825 0
M  V30 4492 C 421.542 1.91276 0.436818 0
M  V30 4493 O 420.667 1.71679 1.3174 0
M  V30 4494 C 421.262 2.85514 -1.82393 0
M  V30 4495 C 419.821 3.37027 -1.67601 0
M  V30 4496 C 418.968 2.10388 -1.80644 0
M  V30 4497 H 421.919 0.846106 -1.34264 0
M  V30 4498 H 421.94 3.56711 -1.32429 0
M  V30 4499 H 421.452 2.60634 -2.87561 0
M  V30 4500 H 419.553 3.66878 -0.650485 0
M  V30 4501 H 419.666 4.09572 -2.4857 0
M  V30 4502 H 418.03 2.22601 -1.23778 0
M  V30 4503 H 418.813 1.8794 -2.87286 0
M  V30 4504 N 421.258 1.00505 1.21394 0
M  V30 4505 C 422.506 0.686415 1.90086 0
M  V30 4506 C 422.827 -0.785264 1.7849 0
M  V30 4507 O 422.097 -1.56387 1.17983 0
M  V30 4508 H 420.677 0.2509 0.703604 0
M  V30 4509 H 423.339 1.27417 1.47482 0
M  V30 4510 H 422.435 0.959621 2.96981 0
M  V30 4511 N 422.737 -1.36956 0.779787 0
M  V30 4512 C 423.983 -1.99787 0.348281 0
M  V30 4513 C 424.316 -1.61756 -1.07465 0
M  V30 4514 O 423.591 -0.867639 -1.74075 0
M  V30 4515 C 423.874 -3.56597 0.50104 0
M  V30 4516 C 423.727 -4.04513 1.96697 0
M  V30 4517 C 425.046 -4.40008 -0.0898097 0
M  V30 4518 H 422.165 -0.725796 0.128022 0
M  V30 4519 H 424.807 -1.62514 0.984331 0
M  V30 4520 H 422.957 -3.88479 -0.0404347 0
M  V30 4521 H 424.629 -3.83161 2.56876 0
M  V30 4522 H 422.872 -3.56408 2.47297 0
M  V30 4523 H 423.543 -5.1352 2.02486 0
M  V30 4524 H 426.019 -4.14431 0.372293 0
M  V30 4525 H 424.895 -5.4888 0.0471605 0
M  V30 4526 H 425.156 -4.26035 -1.18096 0
M  V30 4527 N 424.215 -0.530993 -1.48385 0
M  V30 4528 C 425.165 0.251092 -2.26613 0
M  V30 4529 C 426.149 0.908977 -1.32765 0
M  V30 4530 O 427.341 0.811616 -1.57295 0
M  V30 4531 C 424.47 1.29677 -3.17866 0
M  V30 4532 C 423.556 0.643627 -4.19188 0
M  V30 4533 N 423.947 -0.271223 -5.05072 0
M  V30 4534 C 422.245 0.900711 -4.3681 0
M  V30 4535 C 422.946 -0.648109 -5.78078 0
M  V30 4536 N 421.922 -0.00895987 -5.43599 0
M  V30 4537 H 425.724 -0.452702 -2.90393 0
M  V30 4538 H 423.238 -0.349091 -1.58604 0
M  V30 4539 H 425.235 1.87079 -3.72568 0
M  V30 4540 H 423.895 2.00193 -2.55642 0
M  V30 4541 H 424.906 -0.643883 -5.13882 0
M  V30 4542 H 421.583 1.59636 -3.85775 0
M  V30 4543 H 422.973 -1.39833 -6.57188 0
M  V30 4544 N 425.693 1.55336 -0.266172 0
M  V30 4545 C 427.104 1.85236 0.233315 0
M  V30 4546 C 427.455 1.18816 1.56132 0
M  V30 4547 O 426.58 0.473307 2.11161 0
M  V30 4548 C 427.175 3.36059 0.430113 0
M  V30 4549 C 425.734 3.66116 0.873842 0
M  V30 4550 C 424.881 2.77274 -0.0380016 0
M  V30 4551 H 427.832 1.51004 -0.488214 0
M  V30 4552 H 427.853 3.58681 1.26998 0
M  V30 4553 H 427.365 3.84373 -0.536588 0
M  V30 4554 H 425.466 3.23295 1.85233 0
M  V30 4555 H 425.579 4.73699 0.717358 0
M  V30 4556 H 423.943 2.50198 0.476759 0
M  V30 4557 H 424.726 3.284 -1.00042 0
M  V30 4558 N 427.171 -0.0066808 1.57599 0
M  V30 4559 C 428.582 -0.550379 1.78403 0
M  V30 4560 C 428.933 -1.74339 0.900014 0
M  V30 4561 O 428.058 -2.16166 0.100713 0
M  V30 4562 C 428.653 -1.00523 3.23544 0
M  V30 4563 C 427.212 -1.49428 3.45468 0
M  V30 4564 C 426.359 -0.442444 2.73748 0
M  V30 4565 H 429.31 0.219508 1.57175 0
M  V30 4566 H 429.331 -1.87157 3.31289 0
M  V30 4567 H 428.843 -0.136735 3.87859 0
M  V30 4568 H 426.944 -2.3839 2.86358 0
M  V30 4569 H 427.057 -1.52635 4.54136 0
M  V30 4570 H 425.421 -0.902578 2.38171 0
M  V30 4571 H 426.204 0.416973 3.40758 0
M  V30 4572 N 428.649 -1.55105 -0.279332 0
M  V30 4573 C 429.612 -1.86783 -1.32834 0
M  V30 4574 C 430.612 -0.74199 -1.42657 0
M  V30 4575 O 431.802 -1.0102 -1.41918 0
M  V30 4576 C 428.934 -2.06746 -2.71052 0
M  V30 4577 H 430.127 -2.8055 -1.05979 0
M  V30 4578 H 427.68 -1.47499 -0.517087 0
M  V30 4579 H 428.415 -1.15339 -3.03097 0
M  V30 4580 H 428.2 -2.88711 -2.65309 0
M  V30 4581 H 429.69 -2.32549 -3.46858 0
M  V30 4582 N 430.127 0.543554 -1.4793 0
M  V30 4583 C 431.538 1.12561 -1.48953 0
M  V30 4584 C 431.889 1.94578 -0.251754 0
M  V30 4585 O 431.014 2.0665 0.642255 0
M  V30 4586 C 431.609 2.04801 -2.69892 0
M  V30 4587 C 430.168 2.58251 -2.73831 0
M  V30 4588 C 429.315 1.34918 -2.42265 0
M  V30 4589 H 432.266 0.32947 -1.55242 0
M  V30 4590 H 432.287 2.88886 -2.47639 0
M  V30 4591 H 431.799 1.4508 -3.59963 0
M  V30 4592 H 429.9 3.21732 -1.87934 0
M  V30 4593 H 430.013 2.98312 -3.74895 0
M  V30 4594 H 428.377 1.66046 -1.93134 0
M  V30 4595 H 429.16 0.769693 -3.3456 0
M  V30 4596 N 431.605 1.3629 0.791371 0
M  V30 4597 C 432.851 1.30605 1.55146 0
M  V30 4598 C 433.184 -0.115042 1.93859 0
M  V30 4599 O 432.459 -1.06798 1.62556 0
M  V30 4600 C 432.742 2.22692 2.82985 0
M  V30 4601 C 432.595 3.73489 2.50651 0
M  V30 4602 C 433.914 2.13588 3.84796 0
M  V30 4603 H 431.033 0.475761 0.562868 0
M  V30 4604 H 433.675 1.66825 0.909358 0
M  V30 4605 H 431.825 1.91933 3.37778 0
M  V30 4606 H 433.497 4.14758 2.01924 0
M  V30 4607 H 431.74 3.93021 1.83622 0
M  V30 4608 H 432.411 4.3333 3.41949 0
M  V30 4609 H 434.887 2.40659 3.39445 0
M  V30 4610 H 433.763 2.80195 4.71998 0
M  V30 4611 H 434.024 1.12256 4.27611 0
M  V30 4612 N 433.083 -1.0153 1.20538 0
M  V30 4613 C 434.329 -1.75408 1.01783 0
M  V30 4614 C 434.662 -1.88943 -0.448814 0
M  V30 4615 O 433.937 -1.4162 -1.33319 0
M  V30 4616 C 434.22 -3.17255 1.70356 0
M  V30 4617 C 434.073 -3.11508 3.24473 0
M  V30 4618 C 435.392 -4.15955 1.43769 0
M  V30 4619 H 432.511 -0.636713 0.371167 0
M  V30 4620 H 435.153 -1.18436 1.4857 0
M  V30 4621 H 433.303 -3.65898 1.30578 0
M  V30 4622 H 434.975 -2.70658 3.73553 0
M  V30 4623 H 433.218 -2.4887 3.55311 0
M  V30 4624 H 433.889 -4.11784 3.67611 0
M  V30 4625 H 436.365 -3.75973 1.7828 0
M  V30 4626 H 435.241 -5.13368 1.94279 0
M  V30 4627 H 435.502 -4.40586 0.365564 0
M  V30 4628 N 434.561 -1.01147 -1.20859 0
M  V30 4629 C 435.511 -0.548247 -2.2131 0
M  V30 4630 C 436.495 0.393646 -1.5601 0
M  V30 4631 O 437.687 0.217445 -1.75659 0
M  V30 4632 C 434.816 0.117252 -3.431 0
M  V30 4633 C 433.902 -0.846043 -4.15575 0
M  V30 4634 N 434.293 -2.00149 -4.64515 0
M  V30 4635 C 432.591 -0.665783 -4.41003 0
M  V30 4636 C 433.292 -2.60764 -5.19978 0
M  V30 4637 N 432.268 -1.88868 -5.09735 0
M  V30 4638 H 436.07 -1.42921 -2.56809 0
M  V30 4639 H 433.584 -0.876142 -1.36739 0
M  V30 4640 H 435.581 0.46662 -4.1428 0
M  V30 4641 H 434.241 0.994115 -3.09107 0
M  V30 4642 H 435.252 -2.38162 -4.5989 0
M  V30 4643 H 431.929 0.163456 -4.1718 0
M  V30 4644 H 433.319 -3.58519 -5.68255 0
M  V30 4645 N 436.039 1.36541 -0.78704 0
M  V30 4646 C 437.45 1.81873 -0.421807 0
M  V30 4647 C 437.801 1.65487 1.05397 0
M  V30 4648 O 436.926 1.17448 1.81755 0
M  V30 4649 C 437.521 3.30192 -0.758841 0
M  V30 4650 C 436.08 3.73743 -0.446468 0
M  V30 4651 C 435.227 2.58844 -0.994728 0
M  V30 4652 H 438.178 1.24796 -0.98039 0
M  V30 4653 H 438.199 3.80468 -0.0490648 0
M  V30 4654 H 437.711 3.42087 -1.83299 0
M  V30 4655 H 435.812 3.6741 0.619739 0
M  V30 4656 H 435.925 4.69272 -0.965415 0
M  V30 4657 H 434.289 2.51245 -0.418087 0
M  V30 4658 H 435.072 2.73525 -2.07458 0
M  V30 4659 N 437.518 0.538854 1.48102 0
M  V30 4660 C 438.929 0.100679 1.86428 0
M  V30 4661 C 439.28 -1.32447 1.44749 0
M  V30 4662 O 438.405 -1.99339 0.842199 0
M  V30 4663 C 439 0.175933 3.38343 0
M  V30 4664 C 437.559 -0.207098 3.7583 0
M  V30 4665 C 436.706 0.531741 2.72154 0
M  V30 4666 H 439.657 0.749614 1.3988 0
M  V30 4667 H 439.678 -0.610144 3.75576 0
M  V30 4668 H 439.19 1.21328 3.68648 0
M  V30 4669 H 437.291 -1.24626 3.5114 0
M  V30 4670 H 437.404 0.138687 4.78899 0
M  V30 4671 H 435.768 -0.0230462 2.5469 0
M  V30 4672 H 436.551 1.56989 3.05302 0
M  V30 4673 N 438.996 -1.55193 0.274407 0
M  V30 4674 C 439.959 -2.212 -0.600279 0
M  V30 4675 C 440.959 -1.18963 -1.08187 0
M  V30 4676 O 442.149 -1.43873 -0.982158 0
M  V30 4677 C 439.281 -2.87739 -1.82809 0
M  V30 4678 H 440.474 -2.9989 -0.0239682 0
M  V30 4679 H 438.027 -1.5628 0.0250192 0
M  V30 4680 H 438.762 -2.13058 -2.44493 0
M  V30 4681 H 438.547 -3.62658 -1.49069 0
M  V30 4682 H 440.037 -3.38171 -2.45011 0
M  V30 4683 N 440.474 -0.00167713 -1.576 0
M  V30 4684 C 441.699 0.69739 -1.95323 0
M  V30 4685 C 442.124 1.6642 -0.876706 0
M  V30 4686 O 441.482 1.80548 0.165007 0
M  V30 4687 C 441.53 1.40403 -3.32144 0
M  V30 4688 O 440.634 2.5185 -3.26566 0
M  V30 4689 H 439.975 0.185373 -0.637599 0
M  V30 4690 H 442.505 -0.0553665 -2.04525 0
M  V30 4691 H 442.515 1.76707 -3.67748 0
M  V30 4692 H 441.19 0.695167 -4.10049 0
M  V30 4693 H 439.767 2.17861 -3.0264 0
M  V30 4694 N 441.952 1.55251 0.271103 0
M  V30 4695 C 443.2 1.75599 1.00047 0
M  V30 4696 C 443.521 0.561188 1.8675 0
M  V30 4697 O 442.791 -0.423846 1.9126 0
M  V30 4698 H 441.371 0.647562 0.372387 0
M  V30 4699 H 444.033 1.92656 0.294876 0
M  V30 4700 H 443.129 2.65766 1.6363 0
M  V30 4701 N 443.43 -0.535701 1.48216 0
M  V30 4702 C 444.676 -1.29375 1.56173 0
M  V30 4703 C 445.009 -1.92804 0.232429 0
M  V30 4704 O 444.284 -1.78992 -0.761048 0
M  V30 4705 C 444.567 -2.38747 2.69577 0
M  V30 4706 C 444.42 -1.80046 4.12193 0
M  V30 4707 C 445.739 -3.40551 2.78771 0
M  V30 4708 H 442.858 -0.469027 0.568491 0
M  V30 4709 H 445.5 -0.597358 1.80365 0
M  V30 4710 H 443.65 -2.98147 2.4908 0
M  V30 4711 H 445.322 -1.24742 4.44114 0
M  V30 4712 H 443.565 -1.10609 4.19462 0
M  V30 4713 H 444.236 -2.59212 4.87353 0
M  V30 4714 H 446.712 -2.91099 2.97322 0
M  V30 4715 H 445.588 -4.1448 3.59857 0
M  V30 4716 H 445.849 -4.00746 1.86696 0
M  V30 4717 N 444.908 -1.36708 -0.784132 0
M  V30 4718 C 445.858 -1.2799 -1.88686 0
M  V30 4719 C 446.842 -0.170282 -1.59996 0
M  V30 4720 O 448.034 -0.403571 -1.72338 0
M  V30 4721 C 445.163 -1.07674 -3.25977 0
M  V30 4722 C 444.249 -2.23127 -3.60659 0
M  V30 4723 N 444.64 -3.48467 -3.66612 0
M  V30 4724 C 442.938 -2.15009 -3.90752 0
M  V30 4725 C 443.639 -4.24525 -3.97685 0
M  V30 4726 N 442.615 -3.53524 -4.12943 0
M  V30 4727 H 446.417 -2.22927 -1.91522 0
M  V30 4728 H 443.931 -1.29503 -0.979933 0
M  V30 4729 H 445.928 -0.995151 -4.04849 0
M  V30 4730 H 444.588 -0.13643 -3.24413 0
M  V30 4731 H 445.599 -3.82534 -3.49125 0
M  V30 4732 H 442.276 -1.28963 -3.97083 0
M  V30 4733 H 443.666 -5.32944 -4.0917 0
M  V30 4734 N 446.386 1.0089 -1.21074 0
M  V30 4735 C 447.797 1.56056 -1.02486 0
M  V30 4736 C 448.148 1.91728 0.416506 0
M  V30 4737 O 447.273 1.73066 1.29912 0
M  V30 4738 C 447.868 2.83563 -1.85411 0
M  V30 4739 C 446.427 3.3523 -1.71166 0
M  V30 4740 C 445.574 2.0846 -1.82865 0
M  V30 4741 H 448.525 0.831818 -1.35154 0
M  V30 4742 H 448.546 3.55286 -1.36205 0
M  V30 4743 H 448.058 2.57569 -2.9031 0
M  V30 4744 H 446.159 3.66167 -0.689361 0
M  V30 4745 H 446.272 4.06913 -2.52901 0
M  V30 4746 H 444.636 2.21275 -1.26132 0
M  V30 4747 H 445.419 1.84883 -2.89263 0
M  V30 4748 N 447.864 1.01787 1.20321 0
M  V30 4749 C 449.275 0.739307 1.71438 0
M  V30 4750 C 449.626 -0.742041 1.81627 0
M  V30 4751 O 448.751 -1.57903 1.47971 0
M  V30 4752 C 449.346 1.33538 3.11373 0
M  V30 4753 C 447.905 1.10566 3.59795 0
M  V30 4754 C 447.052 1.44028 2.36962 0
M  V30 4755 H 450.003 1.18718 1.05317 0
M  V30 4756 H 450.024 0.726611 3.73498 0
M  V30 4757 H 449.536 2.41352 3.03926 0
M  V30 4758 H 447.637 0.0452405 3.72573 0
M  V30 4759 H 447.75 1.78661 4.44542 0
M  V30 4760 H 446.114 0.85933 2.39766 0
M  V30 4761 H 446.897 2.52901 2.32155 0
M  V30 4762 N 449.342 -1.36122 0.79427 0
M  V30 4763 C 450.305 -2.28309 0.201889 0
M  V30 4764 C 451.305 -1.49041 -0.603603 0
M  V30 4765 O 452.495 -1.68964 -0.423888 0
M  V30 4766 C 449.627 -3.3321 -0.719978 0
M  V30 4767 H 450.82 -2.82208 1.01481 0
M  V30 4768 H 448.373 -1.45768 0.564037 0
M  V30 4769 H 449.108 -2.84475 -1.55706 0
M  V30 4770 H 448.893 -3.91835 -0.144266 0
M  V30 4771 H 450.383 -4.02044 -1.12916 0
M  V30 4772 N 450.82 -0.546701 -1.47814 0
M  V30 4773 C 452.231 -0.110564 -1.86372 0
M  V30 4774 C 452.582 1.31678 -1.45449 0
M  V30 4775 O 451.707 1.98889 -0.852758 0
M  V30 4776 C 452.302 -0.193873 -3.38245 0
M  V30 4777 C 450.861 0.187164 -3.75934 0
M  V30 4778 C 450.008 -0.546166 -2.71868 0
M  V30 4779 H 452.959 -0.757022 -1.39481 0
M  V30 4780 H 452.98 0.590218 -3.75895 0
M  V30 4781 H 452.492 -1.23282 -3.67999 0
M  V30 4782 H 450.593 1.22762 -3.51796 0
M  V30 4783 H 450.706 -0.164083 -4.78819 0
M  V30 4784 H 449.07 0.00953904 -2.54698 0
M  V30 4785 H 449.853 -1.58606 -3.04465 0
M  V30 4786 N 452.299 1.55045 -0.282633 0
M  V30 4787 C 453.547 1.99365 0.331334 0
M  V30 4788 C 453.868 1.1725 1.55812 0
M  V30 4789 O 453.138 0.263871 1.94115 0
M  V30 4790 H 451.718 0.736397 0.125414 0
M  V30 4791 H 454.38 1.90964 -0.389711 0
M  V30 4792 H 453.476 3.0596 0.616036 0
M  V30 4793 N 453.777 0.010035 1.57597 0
M  V30 4794 C 455.023 -0.673697 1.91283 0
M  V30 4795 C 455.356 -1.72863 0.884979 0
M  V30 4796 O 454.631 -1.94268 -0.0949487 0
M  V30 4797 C 454.914 -1.30766 3.35518 0
M  V30 4798 C 454.767 -0.263578 4.49027 0
M  V30 4799 C 456.086 -2.23105 3.79358 0
M  V30 4800 H 453.205 -0.243439 0.695634 0
M  V30 4801 H 455.847 0.0633864 1.89894 0
M  V30 4802 H 453.997 -1.93588 3.36832 0
M  V30 4803 H 455.669 0.365738 4.59848 0
M  V30 4804 H 453.912 0.413077 4.31829 0
M  V30 4805 H 454.583 -0.746398 5.4693 0
M  V30 4806 H 457.059 -1.70289 3.79659 0
M  V30 4807 H 455.935 -2.64424 4.81011 0
M  V30 4808 H 456.196 -3.11433 3.13787 0
M  V30 4809 N 455.255 -1.55392 -0.262866 0
M  V30 4810 C 456.205 -1.85355 -1.32768 0
M  V30 4811 C 457.189 -0.713188 -1.44231 0
M  V30 4812 O 458.381 -0.974765 -1.47741 0
M  V30 4813 C 455.51 -2.13781 -2.68612 0
M  V30 4814 C 454.596 -3.34104 -2.61219 0
M  V30 4815 N 454.987 -4.53766 -2.2345 0
M  V30 4816 C 453.285 -3.36895 -2.92263 0
M  V30 4817 C 453.986 -5.35877 -2.26298 0
M  V30 4818 N 452.962 -4.74536 -2.65172 0
M  V30 4819 H 456.764 -2.75413 -1.02591 0
M  V30 4820 H 454.278 -1.55405 -0.471503 0
M  V30 4821 H 456.275 -2.33407 -3.45437 0
M  V30 4822 H 454.935 -1.25013 -2.99669 0
M  V30 4823 H 455.946 -4.79682 -1.95258 0
M  V30 4824 H 452.623 -2.58351 -3.27965 0
M  V30 4825 H 454.013 -6.41577 -1.99572 0
M  V30 4826 N 456.733 0.527833 -1.48498 0
M  V30 4827 C 458.144 1.10975 -1.50138 0
M  V30 4828 C 458.495 1.943 -0.272378 0
M  V30 4829 O 457.62 2.07319 0.620301 0
M  V30 4830 C 458.215 2.01927 -2.72049 0
M  V30 4831 C 456.774 2.55332 -2.76554 0
M  V30 4832 C 455.921 1.32341 -2.43683 0
M  V30 4833 H 458.872 0.312986 -1.55583 0
M  V30 4834 H 458.893 2.86244 -2.50689 0
M  V30 4835 H 458.405 1.41254 -3.61481 0
M  V30 4836 H 456.506 3.19721 -1.91336 0
M  V30 4837 H 456.619 2.94319 -3.78038 0
M  V30 4838 H 454.983 1.63989 -1.94884 0
M  V30 4839 H 455.766 0.734165 -3.35358 0
M  V30 4840 N 458.211 1.37122 0.776871 0
M  V30 4841 C 459.622 1.28667 1.35284 0
M  V30 4842 C 459.973 -0.0680035 1.96082 0
M  V30 4843 O 459.098 -0.969743 1.93455 0
M  V30 4844 C 459.693 2.32997 2.45963 0
M  V30 4845 C 458.252 2.28191 2.99342 0
M  V30 4846 C 457.399 2.17101 1.72517 0
M  V30 4847 H 460.35 1.47819 0.577527 0
M  V30 4848 H 460.371 1.97366 3.2531 0
M  V30 4849 H 459.883 3.3158 2.01684 0
M  V30 4850 H 457.984 1.33115 3.4801 0
M  V30 4851 H 458.097 3.21397 3.55304 0
M  V30 4852 H 456.461 1.63562 1.95242 0
M  V30 4853 H 457.244 3.17591 1.30348 0
M  V30 4854 N 459.689 -1.00246 1.21608 0
M  V30 4855 C 460.652 -2.07233 0.979133 0
M  V30 4856 C 461.652 -1.6072 -0.0508219 0
M  V30 4857 O 462.842 -1.73196 0.186712 0
M  V30 4858 C 459.974 -3.37546 0.477016 0
M  V30 4859 H 461.167 -2.29687 1.92831 0
M  V30 4860 H 458.72 -1.17261 1.03342 0
M  V30 4861 H 459.455 -3.20773 -0.476966 0
M  V30 4862 H 459.24 -3.72638 1.21997 0
M  V30 4863 H 460.73 -4.16285 0.331181 0
M  V30 4864 N 461.167 -1.02423 -1.1978 0
M  V30 4865 C 462.578 -0.748389 -1.71044 0
M  V30 4866 C 462.929 0.732398 -1.82017 0
M  V30 4867 O 462.054 1.57116 -1.48807 0
M  V30 4868 C 462.649 -1.35187 -3.1066 0
M  V30 4869 C 461.208 -1.12472 -3.59203 0
M  V30 4870 C 460.355 -1.45283 -2.36195 0
M  V30 4871 H 463.306 -1.19275 -1.04686 0
M  V30 4872 H 463.327 -0.746408 -3.73107 0
M  V30 4873 H 462.839 -2.4296 -3.02642 0
M  V30 4874 H 460.94 -0.0649983 -3.72543 0
M  V30 4875 H 461.053 -1.81016 -4.43588 0
M  V30 4876 H 459.417 -0.872034 -2.39307 0
M  V30 4877 H 460.2 -2.54129 -2.30811 0
M  V30 4878 N 462.645 1.35699 -0.801477 0
M  V30 4879 C 463.893 1.9852 -0.37871 0
M  V30 4880 C 464.214 1.63907 1.05638 0
M  V30 4881 O 463.484 0.919013 1.73006 0
M  V30 4882 H 462.064 0.734322 -0.137042 0
M  V30 4883 H 464.726 1.65697 -1.02619 0
M  V30 4884 H 463.822 3.08382 -0.480284 0
M  V30 4885 N 464.123 0.554532 1.47522 0
M  V30 4886 C 465.369 0.0295227 2.02779 0
M  V30 4887 C 465.702 -1.31582 1.42828 0
M  V30 4888 O 464.977 -1.85561 0.582872 0
M  V30 4889 C 465.26 -0.0664057 3.60039 0
M  V30 4890 C 465.113 1.30585 4.30427 0
M  V30 4891 C 466.432 -0.781162 4.33112 0
M  V30 4892 H 463.551 0.0122027 0.736899 0
M  V30 4893 H 466.193 0.716305 1.7598 0
M  V30 4894 H 464.343 -0.651307 3.83002 0
M  V30 4895 H 466.015 1.93374 4.18813 0
M  V30 4896 H 464.258 1.88125 3.90886 0
M  V30 4897 H 464.929 1.19147 5.38988 0
M  V30 4898 H 467.405 -0.284565 4.15126 0
M  V30 4899 H 466.281 -0.817237 5.42782 0
M  V30 4900 H 466.542 -1.83672 4.0214 0
M  V30 4901 N 465.601 -1.54893 0.290851 0
M  V30 4902 C 466.551 -2.19838 -0.604599 0
M  V30 4903 C 467.535 -1.16805 -1.10659 0
M  V30 4904 O 468.727 -1.42562 -1.04905 0
M  V30 4905 C 465.856 -2.93497 -1.78086 0
M  V30 4906 C 464.942 -4.03835 -1.29531 0
M  V30 4907 N 465.333 -5.03047 -0.527024 0
M  V30 4908 C 463.631 -4.17192 -1.57693 0
M  V30 4909 C 464.332 -5.81074 -0.269728 0
M  V30 4910 N 463.308 -5.36966 -0.846651 0
M  V30 4911 H 467.11 -2.93898 -0.00995032 0
M  V30 4912 H 464.624 -1.62121 0.0951353 0
M  V30 4913 H 466.621 -3.38484 -2.43381 0
M  V30 4914 H 465.281 -2.2095 -2.37931 0
M  V30 4915 H 466.292 -5.17611 -0.172872 0
M  V30 4916 H 462.969 -3.55845 -2.18359 0
M  V30 4917 H 464.359 -6.71005 0.346643 0
M  V30 4918 N 467.08 -0.0183926 -1.57589 0
M  V30 4919 C 468.491 0.521927 -1.79256 0
M  V30 4920 C 468.842 1.72885 -0.927636 0
M  V30 4921 O 467.967 2.15978 -0.135091 0
M  V30 4922 C 468.562 0.953632 -3.25102 0
M  V30 4923 C 467.121 1.43913 -3.47801 0
M  V30 4924 C 466.268 0.398837 -2.74417 0
M  V30 4925 H 469.219 -0.244485 -1.56805 0
M  V30 4926 H 469.24 1.81863 -3.34224 0
M  V30 4927 H 468.752 0.0750123 -3.88028 0
M  V30 4928 H 466.853 2.33804 -2.90115 0
M  V30 4929 H 466.966 1.45391 -4.56507 0
M  V30 4930 H 465.33 0.864572 -2.39577 0
M  V30 4931 H 466.113 -0.471132 -3.40052 0
M  V30 4932 N 468.558 1.5553 0.254621 0
M  V30 4933 C 469.969 1.67518 0.824286 0
M  V30 4934 C 470.32 0.614429 1.86331 0
M  V30 4935 O 469.445 -0.240736 2.15057 0
M  V30 4936 C 470.04 3.03692 1.50189 0
M  V30 4937 C 468.599 3.17646 2.01935 0
M  V30 4938 C 467.746 2.63373 0.867746 0
M  V30 4939 H 470.697 1.58671 0.0305843 0
M  V30 4940 H 470.718 2.97706 2.36962 0
M  V30 4941 H 470.23 3.80874 0.745431 0
M  V30 4942 H 468.331 2.45273 2.80485 0
M  V30 4943 H 468.444 4.24455 2.22204 0
M  V30 4944 H 466.808 2.20999 1.26616 0
M  V30 4945 H 467.591 3.43074 0.124498 0
M  V30 4946 N 470.036 -0.519951 1.48776 0
M  V30 4947 C 470.999 -1.60574 1.6355 0
M  V30 4948 C 471.999 -1.52557 0.508234 0
M  V30 4949 O 473.189 -1.56047 0.774262 0
M  V30 4950 C 470.321 -3.00211 1.61512 0
M  V30 4951 H 471.514 -1.4881 2.60376 0
M  V30 4952 H 469.067 -0.742772 1.37523 0
M  V30 4953 H 469.802 -3.17471 0.662009 0
M  V30 4954 H 469.587 -3.07439 2.43359 0
M  V30 4955 H 471.077 -3.79134 1.75064 0
M  V30 4956 N 471.514 -1.37532 -0.769588 0
M  V30 4957 C 472.925 -1.29382 -1.346 0
M  V30 4958 C 473.276 0.0576039 -1.96115 0
M  V30 4959 O 472.401 0.95947 -1.93967 0
M  V30 4960 C 472.996 -2.34298 -2.44724 0
M  V30 4961 C 471.555 -2.29776 -2.98128 0
M  V30 4962 C 470.702 -2.18013 -1.71364 0
M  V30 4963 H 473.653 -1.48123 -0.56968 0
M  V30 4964 H 473.674 -1.99089 -3.24259 0
M  V30 4965 H 473.186 -3.32645 -1.99922 0
M  V30 4966 H 471.287 -1.34959 -3.47299 0
M  V30 4967 H 471.4 -3.23276 -3.53595 0
M  V30 4968 H 469.764 -1.64595 -1.94372 0
M  V30 4969 H 470.547 -3.18278 -1.28662 0
M  V30 4970 N 472.992 0.995999 -1.22138 0
M  V30 4971 C 474.24 1.73167 -1.042 0
M  V30 4972 C 474.561 1.90329 0.42423 0
M  V30 4973 O 473.831 1.4607 1.30539 0
M  V30 4974 H 472.411 0.641593 -0.38258 0
M  V30 4975 H 475.073 1.19974 -1.53598 0
M  V30 4976 H 474.169 2.72734 -1.51731 0
M  V30 4977 N 474.47 1.03057 1.19235 0
M  V30 4978 C 475.716 0.729098 1.89241 0
M  V30 4979 C 476.049 -0.740573 1.79525 0
M  V30 4980 O 475.324 -1.53946 1.18874 0
M  V30 4981 C 475.607 1.18304 3.40112 0
M  V30 4982 C 475.46 2.71406 3.5869 0
M  V30 4983 C 476.779 0.765161 4.33397 0
M  V30 4984 H 473.898 0.266338 0.687192 0
M  V30 4985 H 476.54 1.28079 1.40341 0
M  V30 4986 H 474.69 0.713672 3.81889 0
M  V30 4987 H 476.362 3.26303 3.26074 0
M  V30 4988 H 474.605 3.11717 3.01687 0
M  V30 4989 H 475.276 2.98225 4.64506 0
M  V30 4990 H 477.752 1.16889 3.99345 0
M  V30 4991 H 476.628 1.11065 5.37546 0
M  V30 4992 H 476.889 -0.332372 4.40849 0
M  V30 4993 N 475.948 -1.35272 0.808662 0
M  V30 4994 C 476.898 -2.27181 0.193124 0
M  V30 4995 C 477.882 -1.47871 -0.634265 0
M  V30 4996 O 479.074 -1.70048 -0.491182 0
M  V30 4997 C 476.203 -3.36979 -0.655751 0
M  V30 4998 C 475.289 -4.23712 0.181481 0
M  V30 4999 N 475.68 -4.90225 1.24551 0
M  V30 5000 C 473.978 -4.45985 -0.0365493 0
M  V30 5001 C 474.679 -5.54537 1.75682 0
M  V30 5002 N 473.655 -5.33107 1.06294 0
M  V30 5003 H 477.457 -2.76101 1.00724 0
M  V30 5004 H 474.971 -1.48823 0.650029 0
M  V30 5005 H 476.968 -4.01774 -1.11279 0
M  V30 5006 H 475.628 -2.89611 -1.46819 0
M  V30 5007 H 476.639 -4.91641 1.62818 0
M  V30 5008 H 473.316 -4.09409 -0.817964 0
M  V30 5009 H 474.706 -6.17597 2.64621 0
M  V30 5010 N 477.426 -0.562348 -1.47226 0
M  V30 5011 C 478.837 -0.130325 -1.86245 0
M  V30 5012 C 479.188 1.30128 -1.46838 0
M  V30 5013 O 478.313 1.97974 -0.873805 0
M  V30 5014 C 478.908 -0.229738 -3.3802 0
M  V30 5015 C 477.467 0.14728 -3.76112 0
M  V30 5016 C 476.614 -0.574971 -2.71274 0
M  V30 5017 H 479.565 -0.771773 -1.3867 0
M  V30 5018 H 479.586 0.550316 -3.76499 0
M  V30 5019 H 479.098 -1.27178 -3.66671 0
M  V30 5020 H 477.199 1.19023 -3.53078 0
M  V30 5021 H 477.312 -0.214858 -4.78618 0
M  V30 5022 H 475.676 -0.0174756 -2.54694 0
M  V30 5023 H 476.459 -1.61827 -3.02766 0
M  V30 5024 N 478.904 1.54736 -0.299062 0
M  V30 5025 C 480.315 1.8569 0.193971 0
M  V30 5026 C 480.666 1.22101 1.53577 0
M  V30 5027 O 479.791 0.51799 2.10109 0
M  V30 5028 C 480.386 3.36895 0.358733 0
M  V30 5029 C 478.945 3.67887 0.795986 0
M  V30 5030 C 478.092 2.77131 -0.096807 0
M  V30 5031 H 481.043 1.49934 -0.520134 0
M  V30 5032 H 481.064 3.61294 1.19361 0
M  V30 5033 H 480.576 3.83148 -0.617998 0
M  V30 5034 H 478.677 3.27151 1.78334 0
M  V30 5035 H 478.79 4.75114 0.616718 0
M  V30 5036 H 477.154 2.51153 0.423581 0
M  V30 5037 H 477.937 3.26204 -1.06986 0
M  V30 5038 N 480.382 0.0267497 1.57577 0
M  V30 5039 C 481.61 -0.662661 1.96001 0
M  V30 5040 C 482.025 -1.65799 0.903117 0
M  V30 5041 O 481.382 -1.82135 -0.115317 0
M  V30 5042 C 481.433 -1.37112 3.34488 0
M  V30 5043 O 481.154 -0.415683 4.36123 0
M  V30 5044 C 482.655 -2.15257 3.8753 0
M  V30 5045 H 479.875 -0.18287 0.6456 0
M  V30 5046 H 482.419 0.0858116 2.0432 0
M  V30 5047 H 480.574 -2.07101 3.27395 0
M  V30 5048 H 480.988 -0.918496 5.16395 0
M  V30 5049 H 482.462 -2.60285 4.86781 0
M  V30 5050 H 482.939 -2.99063 3.21649 0
M  V30 5051 H 483.545 -1.50231 3.97883 0
M  V30 5052 N 481.861 -1.55662 -0.24637 0
M  V30 5053 C 483.086 -1.81914 -0.996093 0
M  V30 5054 C 483.511 -0.603875 -1.78143 0
M  V30 5055 O 482.869 0.447091 -1.75701 0
M  V30 5056 C 482.917 -3.05908 -1.90925 0
M  V30 5057 O 482.021 -2.82861 -3.00105 0
M  V30 5058 H 481.362 -0.600481 -0.283406 0
M  V30 5059 H 483.892 -2.02848 -0.267199 0
M  V30 5060 H 483.902 -3.35356 -2.3238 0
M  V30 5061 H 482.577 -3.93999 -1.33183 0
M  V30 5062 H 481.154 -2.64583 -2.62775 0
M  V30 5063 N 483.339 0.512053 -1.4905 0
M  V30 5064 C 484.587 1.26436 -1.57665 0
M  V30 5065 C 484.908 1.93255 -0.260293 0
M  V30 5066 O 484.178 1.82206 0.719564 0
M  V30 5067 H 482.758 0.469658 -0.580888 0
M  V30 5068 H 485.42 0.594398 -1.85615 0
M  V30 5069 H 484.516 2.03417 -2.36702 0
M  V30 5070 N 484.817 1.37938 0.762283 0
M  V30 5071 C 486.063 1.33866 1.52341 0
M  V30 5072 C 486.396 -0.0738961 1.94059 0
M  V30 5073 O 485.671 -1.03326 1.64785 0
M  V30 5074 C 485.954 2.28644 2.78197 0
M  V30 5075 C 485.807 3.78722 2.42672 0
M  V30 5076 C 487.126 2.21702 3.80179 0
M  V30 5077 H 484.245 0.487593 0.55265 0
M  V30 5078 H 486.887 1.68717 0.873767 0
M  V30 5079 H 485.037 1.99055 3.33631 0
M  V30 5080 H 486.709 4.18948 1.93081 0
M  V30 5081 H 484.952 3.96827 1.75244 0
M  V30 5082 H 485.623 4.40486 3.3268 0
M  V30 5083 H 488.099 2.47805 3.34263 0
M  V30 5084 H 486.975 2.90143 4.65949 0
M  V30 5085 H 487.236 1.21301 4.25133 0
M  V30 5086 N 486.295 -0.989507 1.22664 0
M  V30 5087 C 487.245 -2.06478 0.967005 0
M  V30 5088 C 488.229 -1.60682 -0.0836374 0
M  V30 5089 O 489.421 -1.76541 0.127322 0
M  V30 5090 C 486.55 -3.38861 0.550313 0
M  V30 5091 C 485.636 -3.9128 1.63587 0
M  V30 5092 N 486.027 -4.16884 2.86429 0
M  V30 5093 C 484.325 -4.1972 1.50834 0
M  V30 5094 C 485.026 -4.5954 3.56648 0
M  V30 5095 N 484.002 -4.63434 2.84131 0
M  V30 5096 H 487.804 -2.24219 1.90008 0
M  V30 5097 H 485.318 -1.17153 1.12467 0
M  V30 5098 H 487.315 -4.15465 0.345612 0
M  V30 5099 H 485.975 -3.22518 -0.375822 0
M  V30 5100 H 486.986 -4.04976 3.22823 0
M  V30 5101 H 483.663 -4.1243 0.648643 0
M  V30 5102 H 485.053 -4.87944 4.61909 0
M  V30 5103 N 487.773 -1.03688 -1.18687 0
M  V30 5104 C 489.184 -0.766488 -1.70241 0
M  V30 5105 C 489.535 0.713052 -1.82784 0
M  V30 5106 O 488.66 1.55529 -1.50465 0
M  V30 5107 C 489.255 -1.38475 -3.09209 0
M  V30 5108 C 487.814 -1.16276 -3.5799 0
M  V30 5109 C 486.961 -1.4778 -2.34641 0
M  V30 5110 H 489.912 -1.20378 -1.03415 0
M  V30 5111 H 489.933 -0.785939 -3.72295 0
M  V30 5112 H 489.445 -2.46157 -3.00048 0
M  V30 5113 H 487.546 -0.104508 -3.72453 0
M  V30 5114 H 487.659 -1.8571 -4.41643 0
M  V30 5115 H 486.023 -0.897366 -2.38368 0
M  V30 5116 H 486.806 -2.56562 -2.28102 0
M  V30 5117 N 489.251 1.34841 -0.815825 0
M  V30 5118 C 490.662 1.80937 -0.46029 0
M  V30 5119 C 491.013 1.67685 1.01863 0
M  V30 5120 O 490.138 1.21277 1.79223 0
M  V30 5121 C 490.733 3.28509 -0.828708 0
M  V30 5122 C 489.292 3.72712 -0.525644 0
M  V30 5123 C 488.439 2.56676 -1.04941 0
M  V30 5124 H 491.39 1.22688 -1.00664 0
M  V30 5125 H 491.411 3.80279 -0.129757 0
M  V30 5126 H 490.923 3.38122 -1.90513 0
M  V30 5127 H 489.024 3.68642 0.541666 0
M  V30 5128 H 489.137 4.67119 -1.06474 0
M  V30 5129 H 487.501 2.50302 -0.471286 0
M  V30 5130 H 488.284 2.69063 -2.13214 0
M  V30 5131 N 490.729 0.570148 1.46925 0
M  V30 5132 C 491.692 -0.159933 2.28641 0
M  V30 5133 C 492.692 -0.830638 1.37685 0
M  V30 5134 O 493.882 -0.684516 1.60187 0
M  V30 5135 C 491.014 -1.2354 3.17727 0
M  V30 5136 H 492.207 0.558035 2.94662 0
M  V30 5137 H 489.76 0.327603 1.52828 0
M  V30 5138 H 490.495 -1.98535 2.56426 0
M  V30 5139 H 490.28 -0.759125 3.84681 0
M  V30 5140 H 491.77 -1.74782 3.79264 0
M  V30 5141 N 492.207 -1.54576 0.307264 0
M  V30 5142 C 493.618 -1.8579 -0.184121 0
M  V30 5143 C 493.969 -1.22914 -1.52927 0
M  V30 5144 O 493.094 -0.529126 -2.09831 0
M  V30 5145 C 493.689 -3.37081 -0.340862 0
M  V30 5146 C 492.248 -3.68304 -0.776465 0
M  V30 5147 C 491.395 -2.77076 0.111503 0
M  V30 5148 H 494.346 -1.49656 0.528078 0
M  V30 5149 H 494.367 -3.61922 -1.17443 0
M  V30 5150 H 493.879 -3.82815 0.638309 0
M  V30 5151 H 491.98 -3.28092 -1.76596 0
M  V30 5152 H 492.093 -4.75434 -0.591512 0
M  V30 5153 H 490.457 -2.51374 -0.410256 0
M  V30 5154 H 491.24 -3.25632 1.08714 0
M  V30 5155 N 493.685 -0.035106 -1.57561 0
M  V30 5156 C 494.933 0.64096 -1.91667 0
M  V30 5157 C 495.254 1.72323 -0.912681 0
M  V30 5158 O 494.524 1.95849 0.0449089 0
M  V30 5159 H 493.104 0.239743 -0.707483 0
M  V30 5160 H 495.766 -0.084321 -1.94718 0
M  V30 5161 H 494.862 1.08987 -2.92452 0
M  V30 5162 N 495.163 1.55791 0.238111 0
M  V30 5163 C 496.409 1.78297 0.966337 0
M  V30 5164 C 496.742 0.601903 1.84637 0
M  V30 5165 O 496.017 -0.399499 1.90353 0
M  V30 5166 C 496.3 3.10758 1.81939 0
M  V30 5167 C 496.153 4.39283 0.966958 0
M  V30 5168 C 497.472 3.39519 2.80027 0
M  V30 5169 H 494.591 0.648654 0.349882 0
M  V30 5170 H 497.233 1.88525 0.236253 0
M  V30 5171 H 495.383 3.02168 2.44185 0
M  V30 5172 H 497.055 4.59873 0.362514 0
M  V30 5173 H 495.298 4.32948 0.271669 0
M  V30 5174 H 495.969 5.28368 1.59784 0
M  V30 5175 H 498.445 3.48128 2.27917 0
M  V30 5176 H 497.321 4.33402 3.36829 0
M  V30 5177 H 497.582 2.60864 3.56934 0
M  V30 5178 N 496.642 -0.504142 1.49319 0
M  V30 5179 C 497.592 -1.60284 1.62151 0
M  V30 5180 C 498.576 -1.53657 0.477315 0
M  V30 5181 O 499.768 -1.6124 0.730108 0
M  V30 5182 C 496.897 -2.98909 1.68844 0
M  V30 5183 C 495.983 -3.10544 2.8883 0
M  V30 5184 N 496.374 -2.92078 4.12946 0
M  V30 5185 C 494.672 -3.4164 2.86702 0
M  V30 5186 C 495.373 -3.07812 4.93585 0
M  V30 5187 N 494.349 -3.36549 4.26891 0
M  V30 5188 H 498.151 -1.44656 2.55835 0
M  V30 5189 H 495.665 -0.710198 1.46048 0
M  V30 5190 H 497.662 -3.77865 1.76134 0
M  V30 5191 H 496.322 -3.15609 0.762943 0
M  V30 5192 H 497.333 -2.68316 4.42975 0
M  V30 5193 H 494.01 -3.64537 2.03517 0
M  V30 5194 H 495.4 -2.98054 6.02174 0
M  V30 5195 N 498.12 -1.38341 -0.754957 0
M  V30 5196 C 499.531 -1.30803 -1.3322 0
M  V30 5197 C 499.882 0.0368 -1.96165 0
M  V30 5198 O 499.007 0.938844 -1.94974 0
M  V30 5199 C 499.602 -2.3688 -2.42225 0
M  V30 5200 C 498.161 -2.32925 -2.95674 0
M  V30 5201 C 497.308 -2.19819 -1.69042 0
M  V30 5202 H 500.259 -1.48719 -0.553937 0
M  V30 5203 H 500.28 -2.02517 -3.22129 0
M  V30 5204 H 499.792 -3.34747 -1.96383 0
M  V30 5205 H 497.893 -1.38635 -3.45848 0
M  V30 5206 H 498.006 -3.27008 -3.50146 0
M  V30 5207 H 496.37 -1.66648 -1.92615 0
M  V30 5208 H 497.153 -3.19625 -1.25279 0
M  V30 5209 N 499.598 0.982988 -1.23187 0
M  V30 5210 C 501.009 1.53847 -1.05773 0
M  V30 5211 C 501.36 1.92568 0.375744 0
M  V30 5212 O 500.485 1.75783 1.26211 0
M  V30 5213 C 501.08 2.79567 -1.91384 0
M  V30 5214 C 499.639 3.31524 -1.78238 0
M  V30 5215 C 498.786 2.04534 -1.87246 0
M  V30 5216 H 501.737 0.802962 -1.36888 0
M  V30 5217 H 501.758 3.52317 -1.43711 0
M  V30 5218 H 501.27 2.51353 -2.95708 0
M  V30 5219 H 499.371 3.64623 -0.766875 0
M  V30 5220 H 499.484 4.01457 -2.61475 0
M  V30 5221 H 497.848 2.1855 -1.30797 0
M  V30 5222 H 498.631 1.78706 -2.9312 0
M  V30 5223 N 501.076 1.04316 1.18135 0
M  V30 5224 C 502.039 0.640794 2.2006 0
M  V30 5225 C 503.039 -0.303124 1.57917 0
M  V30 5226 O 504.229 -0.0881855 1.73977 0
M  V30 5227 C 501.361 -0.060148 3.40847 0
M  V30 5228 H 502.554 1.54281 2.57172 0
M  V30 5229 H 500.107 0.836004 1.32063 0
M  V30 5230 H 500.842 -0.975845 3.0927 0
M  V30 5231 H 500.627 0.618319 3.87194 0
M  V30 5232 H 502.117 -0.328082 4.16309 0
M  V30 5233 N 502.554 -1.34406 0.822964 0
M  V30 5234 C 503.965 -1.8069 0.469879 0
M  V30 5235 C 504.316 -1.68223 -1.00972 0
M  V30 5236 O 503.441 -1.22226 -1.78577 0
M  V30 5237 C 504.036 -3.28064 0.846118 0
M  V30 5238 C 502.595 -3.72428 0.545402 0
M  V30 5239 C 501.742 -2.56116 1.06301 0
M  V30 5240 H 504.693 -1.22153 1.01313 0
M  V30 5241 H 504.714 -3.80205 0.149922 0
M  V30 5242 H 504.226 -3.37107 1.92304 0
M  V30 5243 H 502.327 -3.68924 -0.522109 0
M  V30 5244 H 502.44 -4.66548 1.0895 0
M  V30 5245 H 500.804 -2.50048 0.484554 0
M  V30 5246 H 501.587 -2.67928 2.14638 0
M  V30 5247 N 504.032 -0.577932 -1.46621 0
M  V30 5248 C 505.28 -0.061566 -2.02006 0
M  V30 5249 C 505.601 1.30117 -1.4524 0
M  V30 5250 O 504.871 1.85313 -0.63529 0
M  V30 5251 H 503.451 -0.0197692 -0.746738 0
M  V30 5252 H 506.113 -0.752631 -1.79782 0
M  V30 5253 H 505.209 0.0110238 -3.12098 0
M  V30 5254 N 505.51 1.54411 -0.315457 0
M  V30 5255 C 506.756 2.00716 0.289972 0
M  V30 5256 C 507.089 1.2034 1.5242 0
M  V30 5257 O 506.364 0.283579 1.92422 0
M  V30 5258 C 506.647 3.54507 0.632196 0
M  V30 5259 C 506.5 4.45615 -0.61218 0
M  V30 5260 C 507.819 4.15421 1.45305 0
M  V30 5261 H 504.938 0.729637 0.10392 0
M  V30 5262 H 507.58 1.8506 -0.430427 0
M  V30 5263 H 505.73 3.67979 1.24595 0
M  V30 5264 H 507.402 4.44026 -1.25053 0
M  V30 5265 H 505.645 4.15621 -1.24264 0
M  V30 5266 H 506.316 5.51022 -0.328379 0
M  V30 5267 H 508.792 4.05474 0.934331 0
M  V30 5268 H 507.668 5.23157 1.66127 0
M  V30 5269 H 507.929 3.68223 2.44671 0
M  V30 5270 N 506.988 0.0434614 1.5754 0
M  V30 5271 C 507.938 -0.943039 2.07583 0
M  V30 5272 C 508.922 -1.27662 0.979342 0
M  V30 5273 O 510.114 -1.26034 1.24276 0
M  V30 5274 C 507.243 -2.22056 2.61813 0
M  V30 5275 C 506.329 -1.91471 3.78417 0
M  V30 5276 N 506.72 -1.31214 4.88484 0
M  V30 5277 C 505.018 -2.21384 3.87176 0
M  V30 5278 C 505.719 -1.18084 5.69588 0
M  V30 5279 N 504.695 -1.68116 5.16951 0
M  V30 5280 H 508.497 -0.472354 2.90079 0
M  V30 5281 H 506.011 -0.161191 1.61598 0
M  V30 5282 H 508.008 -2.93618 2.95963 0
M  V30 5283 H 506.668 -2.69738 1.80752 0
M  V30 5284 H 507.679 -0.985318 5.08441 0
M  V30 5285 H 504.356 -2.7164 3.17046 0
M  V30 5286 H 505.746 -0.713684 6.68099 0
M  V30 5287 N 508.466 -1.55915 -0.229846 0
M  V30 5288 C 509.877 -1.68809 -0.797531 0
M  V30 5289 C 510.228 -0.643995 -1.8533 0
M  V30 5290 O 509.353 0.206492 -2.15413 0
M  V30 5291 C 509.948 -3.06043 -1.45338 0
M  V30 5292 C 508.507 -3.20819 -1.96856 0
M  V30 5293 C 507.654 -2.6472 -0.825736 0
M  V30 5294 H 510.605 -1.58699 -0.00533733 0
M  V30 5295 H 510.626 -3.01438 -2.32196 0
M  V30 5296 H 510.138 -3.82012 -0.684743 0
M  V30 5297 H 508.239 -2.49704 -2.76548 0
M  V30 5298 H 508.352 -4.27937 -2.15423 0
M  V30 5299 H 506.716 -2.22985 -1.23084 0
M  V30 5300 H 507.499 -3.43229 -0.0699019 0
M  V30 5301 N 509.944 0.496216 -1.49584 0
M  V30 5302 C 511.355 1.07765 -1.52459 0
M  V30 5303 C 511.706 1.93679 -0.31353 0
M  V30 5304 O 510.831 2.08588 0.576186 0
M  V30 5305 C 511.426 1.96111 -2.76271 0
M  V30 5306 C 509.985 2.49409 -2.81908 0
M  V30 5307 C 509.132 1.27142 -2.46435 0
M  V30 5308 H 512.083 0.279914 -1.56212 0
M  V30 5309 H 512.104 2.80862 -2.56704 0
M  V30 5310 H 511.616 1.33555 -3.64396 0
M  V30 5311 H 509.717 3.1559 -1.98074 0
M  V30 5312 H 509.83 2.86234 -3.84196 0
M  V30 5313 H 508.194 1.59818 -1.98319 0
M  V30 5314 H 508.977 0.662866 -3.3684 0
M  V30 5315 N 511.423 1.38739 0.74761 0
M  V30 5316 C 512.386 1.36241 1.84312 0
M  V30 5317 C 513.386 0.261811 1.58654 0
M  V30 5318 O 514.576 0.519031 1.66288 0
M  V30 5319 C 511.708 1.12253 3.21888 0
M  V30 5320 H 512.901 2.33712 1.87933 0
M  V30 5321 H 510.454 1.2412 0.949946 0
M  V30 5322 H 511.189 0.154133 3.23934 0
M  V30 5323 H 510.974 1.91943 3.41907 0
M  V30 5324 H 512.464 1.13215 4.0196 0
M  V30 5325 N 512.901 -0.976442 1.23707 0
M  V30 5326 C 514.312 -1.53284 1.06587 0
M  V30 5327 C 514.663 -1.92765 -0.365526 0
M  V30 5328 O 513.788 -1.7645 -1.25277 0
M  V30 5329 C 514.383 -2.78548 1.92864 0
M  V30 5330 C 512.942 -3.30574 1.79994 0
M  V30 5331 C 512.089 -2.03538 1.88328 0
M  V30 5332 H 515.04 -0.795692 1.37311 0
M  V30 5333 H 515.061 -3.5155 1.45577 0
M  V30 5334 H 514.573 -2.49782 2.97037 0
M  V30 5335 H 512.674 -3.64211 0.786202 0
M  V30 5336 H 512.787 -4.00065 2.636 0
M  V30 5337 H 511.151 -2.17853 1.31954 0
M  V30 5338 H 511.934 -1.77149 2.94063 0
M  V30 5339 N 514.379 -1.04941 -1.1758 0
M  V30 5340 C 515.627 -0.756492 -1.87408 0
M  V30 5341 C 515.948 0.718478 -1.81281 0
M  V30 5342 O 515.218 1.519 -1.23706 0
M  V30 5343 H 513.798 -0.276841 -0.693807 0
M  V30 5344 H 516.46 -1.32803 -1.42652 0
M  V30 5345 H 515.556 -1.06918 -2.93215 0
M  V30 5346 N 515.857 1.33968 -0.830081 0
M  V30 5347 C 517.103 1.98357 -0.422191 0
M  V30 5348 C 517.436 1.65633 1.01387 0
M  V30 5349 O 516.711 0.931648 1.70735 0
M  V30 5350 C 516.994 3.54492 -0.633043 0
M  V30 5351 C 516.847 3.96934 -2.11574 0
M  V30 5352 C 518.166 4.40039 -0.0735584 0
M  V30 5353 H 515.285 0.720544 -0.154871 0
M  V30 5354 H 517.927 1.58749 -1.04397 0
M  V30 5355 H 516.077 3.88361 -0.103775 0
M  V30 5356 H 517.749 3.73363 -2.7092 0
M  V30 5357 H 515.992 3.46984 -2.60354 0
M  V30 5358 H 516.663 5.05651 -2.21406 0
M  V30 5359 H 519.139 4.12764 -0.52585 0
M  V30 5360 H 518.015 5.48327 -0.250841 0
M  V30 5361 H 518.276 4.30124 1.02202 0
M  V30 5362 N 517.335 0.585699 1.46312 0
M  V30 5363 C 518.285 -0.166813 2.27389 0
M  V30 5364 C 519.269 -0.859076 1.36047 0
M  V30 5365 O 520.461 -0.752678 1.60199 0
M  V30 5366 C 517.59 -1.17791 3.2246 0
M  V30 5367 C 516.676 -0.487605 4.21288 0
M  V30 5368 N 517.067 0.45849 5.03718 0
M  V30 5369 C 515.365 -0.737971 4.39852 0
M  V30 5370 C 516.066 0.862213 5.75275 0
M  V30 5371 N 515.042 0.210707 5.43191 0
M  V30 5372 H 518.844 0.560167 2.88512 0
M  V30 5373 H 516.358 0.407715 1.57199 0
M  V30 5374 H 518.355 -1.73122 3.79255 0
M  V30 5375 H 517.015 -1.90568 2.62896 0
M  V30 5376 H 518.026 0.834163 5.11138 0
M  V30 5377 H 514.703 -1.45209 3.91434 0
M  V30 5378 H 516.093 1.64128 6.51546 0
M  V30 5379 N 518.813 -1.54241 0.323641 0
M  V30 5380 C 520.224 -1.85975 -0.164405 0
M  V30 5381 C 520.575 -1.24529 -1.51615 0
M  V30 5382 O 519.7 -0.551351 -2.09258 0
M  V30 5383 C 520.295 -3.37424 -0.305091 0
M  V30 5384 C 518.854 -3.69107 -0.737358 0
M  V30 5385 C 518.001 -2.76942 0.140884 0
M  V30 5386 H 520.952 -1.49088 0.543922 0
M  V30 5387 H 520.973 -3.63147 -1.13598 0
M  V30 5388 H 520.485 -3.82116 0.678876 0
M  V30 5389 H 518.586 -3.29947 -1.73107 0
M  V30 5390 H 518.699 -4.76035 -0.541053 0
M  V30 5391 H 517.063 -2.51795 -0.383572 0
M  V30 5392 H 517.846 -3.24461 1.12162 0
M  V30 5393 N 520.291 -0.0518155 -1.57515 0
M  V30 5394 C 521.702 0.483787 -1.80323 0
M  V30 5395 C 522.053 1.70879 -0.964099 0
M  V30 5396 O 521.178 2.15643 -0.180872 0
M  V30 5397 C 521.773 0.884459 -3.27052 0
M  V30 5398 C 520.332 1.36504 -3.50776 0
M  V30 5399 C 519.479 0.340539 -2.75201 0
M  V30 5400 H 522.43 -0.277691 -1.56252 0
M  V30 5401 H 522.451 1.74733 -3.38007 0
M  V30 5402 H 521.963 -0.00731093 -3.88099 0
M  V30 5403 H 520.064 2.27598 -2.95009 0
M  V30 5404 H 520.177 1.35675 -4.59488 0
M  V30 5405 H 518.541 0.81356 -2.41357 0
M  V30 5406 H 519.324 -0.543156 -3.38976 0
M  V30 5407 N 521.769 1.56035 0.221574 0
M  V30 5408 C 522.732 1.91584 1.2581 0
M  V30 5409 C 523.732 0.794425 1.39805 0
M  V30 5410 O 524.922 1.06217 1.38071 0
M  V30 5411 C 522.054 2.16663 2.63192 0
M  V30 5412 H 523.247 2.8429 0.954935 0
M  V30 5413 H 520.8 1.49316 0.461988 0
M  V30 5414 H 521.535 1.26508 2.98607 0
M  V30 5415 H 521.32 2.98358 2.5441 0
M  V30 5416 H 522.81 2.45262 3.37988 0
M  V30 5417 N 523.247 -0.488276 1.49845 0
M  V30 5418 C 524.658 -1.06955 1.53028 0
M  V30 5419 C 525.009 -1.9351 0.323797 0
M  V30 5420 O 524.134 -2.08891 -0.565116 0
M  V30 5421 C 524.729 -1.94643 2.77307 0
M  V30 5422 C 523.288 -2.4791 2.83227 0
M  V30 5423 C 522.435 -1.25833 2.47106 0
M  V30 5424 H 525.386 -0.271626 1.56358 0
M  V30 5425 H 525.407 -2.79496 2.5819 0
M  V30 5426 H 524.919 -1.31621 3.65099 0
M  V30 5427 H 523.02 -3.14535 1.99745 0
M  V30 5428 H 523.133 -2.84193 3.85709 0
M  V30 5429 H 521.497 -1.58764 1.99163 0
M  V30 5430 H 522.28 -0.644993 3.37186 0
M  V30 5431 N 524.725 -1.39134 -0.740242 0
M  V30 5432 C 525.973 -1.35803 -1.49673 0
M  V30 5433 C 526.294 0.0470897 -1.94943 0
M  V30 5434 O 525.564 0.997347 -1.68611 0
M  V30 5435 H 524.144 -0.499736 -0.555224 0
M  V30 5436 H 526.806 -1.73947 -0.879107 0
M  V30 5437 H 525.902 -2.0174 -2.38133 0
M  V30 5438 N 526.204 0.969867 -1.24223 0
M  V30 5439 C 527.45 1.7151 -1.08223 0
M  V30 5440 C 527.783 1.90478 0.37838 0
M  V30 5441 O 527.058 1.4647 1.27971 0
M  V30 5442 C 527.341 3.10714 -1.82013 0
M  V30 5443 C 527.194 2.9925 -3.35811 0
M  V30 5444 C 528.513 4.10332 -1.59108 0
M  V30 5445 H 525.632 0.622499 -0.394543 0
M  V30 5446 H 528.274 1.1284 -1.52863 0
M  V30 5447 H 526.424 3.608 -1.44068 0
M  V30 5448 H 528.096 2.56608 -3.83341 0
M  V30 5449 H 526.339 2.35512 -3.64303 0
M  V30 5450 H 527.01 3.97857 -3.82641 0
M  V30 5451 H 529.486 3.69097 -1.92111 0
M  V30 5452 H 528.362 5.05804 -2.13198 0
M  V30 5453 H 528.623 4.38926 -0.528832 0
M  V30 5454 N 527.682 1.05563 1.17022 0
M  V30 5455 C 528.632 0.630007 2.19123 0
M  V30 5456 C 529.616 -0.335472 1.57364 0
M  V30 5457 O 530.808 -0.1521 1.76345 0
M  V30 5458 C 527.937 0.0101676 3.43298 0
M  V30 5459 C 527.023 0.999698 4.12149 0
M  V30 5460 N 527.414 2.17251 4.56766 0
M  V30 5461 C 525.712 0.829 4.38228 0
M  V30 5462 C 526.413 2.79883 5.09942 0
M  V30 5463 N 525.389 2.07656 5.02374 0
M  V30 5464 H 529.191 1.52353 2.51328 0
M  V30 5465 H 526.705 0.926288 1.33393 0
M  V30 5466 H 528.702 -0.312541 4.15727 0
M  V30 5467 H 527.362 -0.878707 3.12584 0
M  V30 5468 H 528.373 2.55067 4.50734 0
M  V30 5469 H 525.05 -0.00850974 4.17499 0
M  V30 5470 H 526.44 3.79362 5.54558 0
M  V30 5471 N 529.16 -1.33526 0.837174 0
M  V30 5472 C 530.571 -1.80182 0.489017 0
M  V30 5473 C 530.922 -1.69285 -0.991826 0
M  V30 5474 O 530.047 -1.24113 -1.77271 0
M  V30 5475 C 530.642 -3.27149 0.880866 0
M  V30 5476 C 529.201 -3.71828 0.584872 0
M  V30 5477 C 528.348 -2.54974 1.09011 0
M  V30 5478 H 531.299 -1.21071 1.02603 0
M  V30 5479 H 531.32 -3.80024 0.190239 0
M  V30 5480 H 530.832 -3.35048 1.95869 0
M  V30 5481 H 528.933 -3.69457 -0.48295 0
M  V30 5482 H 529.046 -4.65366 1.13892 0
M  V30 5483 H 527.41 -2.4952 0.511047 0
M  V30 5484 H 528.193 -2.65637 2.17467 0
M  V30 5485 N 530.638 -0.59345 -1.46 0
M  V30 5486 C 532.049 -0.169801 -1.85926 0
M  V30 5487 C 532.4 1.26984 -1.49565 0
M  V30 5488 O 531.525 1.96076 -0.915602 0
M  V30 5489 C 532.12 -0.301385 -3.37457 0
M  V30 5490 C 530.679 0.0674684 -3.7634 0
M  V30 5491 C 529.826 -0.632383 -2.69993 0
M  V30 5492 H 532.777 -0.801014 -1.37002 0
M  V30 5493 H 532.798 0.470331 -3.77582 0
M  V30 5494 H 532.31 -1.34927 -3.63891 0
M  V30 5495 H 530.411 1.11507 -3.55523 0
M  V30 5496 H 530.524 -0.316332 -4.78055 0
M  V30 5497 H 528.888 -0.0714961 -2.546 0
M  V30 5498 H 529.671 -1.68212 -2.99265 0
M  V30 5499 N 532.116 1.54067 -0.331816 0
M  V30 5500 C 533.079 2.23275 0.517768 0
M  V30 5501 C 534.079 1.22897 1.03697 0
M  V30 5502 O 535.269 1.47419 0.928084 0
M  V30 5503 C 532.401 2.94326 1.72004 0
M  V30 5504 H 533.594 2.99773 -0.0873507 0
M  V30 5505 H 531.147 1.56079 -0.0830042 0
M  V30 5506 H 531.882 2.21986 2.36417 0
M  V30 5507 H 531.667 3.67941 1.35507 0
M  V30 5508 H 533.157 3.47031 2.32291 0
M  V30 5509 N 533.594 0.0601682 1.57485 0
M  V30 5510 C 535.005 -0.474217 1.80577 0
M  V30 5511 C 535.356 -1.70365 0.973147 0
M  V30 5512 O 534.481 -2.15544 0.192306 0
M  V30 5513 C 535.076 -0.867102 3.27516 0
M  V30 5514 C 533.635 -1.34642 3.51495 0
M  V30 5515 C 532.782 -0.32594 2.75378 0
M  V30 5516 H 535.733 0.285973 1.56102 0
M  V30 5517 H 535.754 -1.72938 3.38929 0
M  V30 5518 H 535.266 0.0278927 3.8809 0
M  V30 5519 H 533.367 -2.2603 2.96212 0
M  V30 5520 H 533.48 -1.33237 4.60201 0
M  V30 5521 H 531.844 -0.800749 2.41785 0
M  V30 5522 H 532.627 0.561125 3.38683 0
M  V30 5523 N 535.072 -1.5615 -0.213296 0
M  V30 5524 C 536.32 -1.79191 -0.934612 0
M  V30 5525 C 536.641 -0.630112 -1.84539 0
M  V30 5526 O 535.911 0.35257 -1.92701 0
M  V30 5527 H 534.491 -0.660937 -0.348097 0
M  V30 5528 H 537.153 -1.93618 -0.22317 0
M  V30 5529 H 536.249 -2.71656 -1.53654 0
M  V30 5530 N 536.55 0.480323 -1.50102 0
M  V30 5531 C 537.796 1.23489 -1.60867 0
M  V30 5532 C 538.129 1.91809 -0.303827 0
M  V30 5533 O 537.404 1.81694 0.694092 0
M  V30 5534 C 537.687 2.28578 -2.78252 0
M  V30 5535 C 537.54 1.64624 -4.18592 0
M  V30 5536 C 538.859 3.2997 -2.91218 0
M  V30 5537 H 535.978 0.447605 -0.585507 0
M  V30 5538 H 538.62 0.530005 -1.82458 0
M  V30 5539 H 536.77 2.88697 -2.59974 0
M  V30 5540 H 538.442 1.08173 -4.48438 0
M  V30 5541 H 536.685 0.949645 -4.23278 0
M  V30 5542 H 537.356 2.40946 -4.96638 0
M  V30 5543 H 539.832 2.79864 -3.07921 0
M  V30 5544 H 538.708 4.00839 -3.74993 0
M  V30 5545 H 538.969 3.93541 -2.0144 0
M  V30 5546 N 538.028 1.39524 0.732853 0
M  V30 5547 C 538.978 1.34905 1.83806 0
M  V30 5548 C 539.962 0.229546 1.59254 0
M  V30 5549 O 541.154 0.467255 1.70721 0
M  V30 5550 C 538.283 1.19699 3.21756 0
M  V30 5551 C 537.369 2.36359 3.5213 0
M  V30 5552 N 537.76 3.61834 3.53426 0
M  V30 5553 C 536.058 2.29363 3.82503 0
M  V30 5554 C 536.759 4.38992 3.81655 0
M  V30 5555 N 535.735 3.68606 3.99538 0
M  V30 5556 H 539.537 2.29882 1.83116 0
M  V30 5557 H 537.051 1.33051 0.931194 0
M  V30 5558 H 539.048 1.14472 4.00876 0
M  V30 5559 H 537.708 0.256739 3.23683 0
M  V30 5560 H 538.719 3.95228 3.34686 0
M  V30 5561 H 535.396 1.43612 3.92023 0
M  V30 5562 H 536.786 5.47763 3.89108 0
M  V30 5563 N 539.506 -0.963266 1.24736 0
M  V30 5564 C 540.917 -1.52145 1.08207 0
M  V30 5565 C 541.268 -1.93142 -0.345061 0
M  V30 5566 O 540.393 -1.77769 -1.23399 0
M  V30 5567 C 540.988 -2.76486 1.95808 0
M  V30 5568 C 539.547 -3.28646 1.8349 0
M  V30 5569 C 538.694 -2.01529 1.90476 0
M  V30 5570 H 541.645 -0.781083 1.38148 0
M  V30 5571 H 541.666 -3.49986 1.49297 0
M  V30 5572 H 541.178 -2.46617 2.99669 0
M  V30 5573 H 539.279 -3.63357 0.824787 0
M  V30 5574 H 539.392 -3.97246 2.67829 0
M  V30 5575 H 537.756 -2.16442 1.34258 0
M  V30 5576 H 538.539 -1.7402 2.95926 0
M  V30 5577 N 540.985 -1.06182 -1.16461 0
M  V30 5578 C 542.396 -0.802426 -1.68576 0
M  V30 5579 C 542.747 0.67412 -1.84255 0
M  V30 5580 O 541.872 1.52303 -1.5373 0
M  V30 5581 C 542.467 -1.45002 -3.06202 0
M  V30 5582 C 541.026 -1.23843 -3.55443 0
M  V30 5583 C 540.173 -1.52724 -2.31454 0
M  V30 5584 H 543.124 -1.22545 -1.00839 0
M  V30 5585 H 543.145 -0.864731 -3.70544 0
M  V30 5586 H 542.657 -2.52466 -2.94759 0
M  V30 5587 H 540.758 -0.183487 -3.72148 0
M  V30 5588 H 540.871 -1.95036 -4.37604 0
M  V30 5589 H 539.235 -0.947726 -2.36411 0
M  V30 5590 H 540.018 -2.61343 -2.22609 0
M  V30 5591 N 542.463 1.3308 -0.844243 0
M  V30 5592 C 543.874 1.7992 -0.498566 0
M  V30 5593 C 544.225 1.69808 0.982834 0
M  V30 5594 O 543.35 1.25051 1.7661 0
M  V30 5595 C 543.945 3.26677 -0.898204 0
M  V30 5596 C 542.504 3.71513 -0.604583 0
M  V30 5597 C 541.651 2.54393 -1.10362 0
M  V30 5598 H 544.602 1.20526 -1.03244 0
M  V30 5599 H 544.623 3.79918 -0.21039 0
M  V30 5600 H 544.135 3.34004 -1.97643 0
M  V30 5601 H 542.236 3.69708 0.46335 0
M  V30 5602 H 542.349 4.64755 -1.16358 0
M  V30 5603 H 540.713 2.49246 -0.524273 0
M  V30 5604 H 541.496 2.6448 -2.18873 0
M  V30 5605 N 543.941 0.601185 1.45683 0
M  V30 5606 C 545.166 0.0982245 2.07167 0
M  V30 5607 C 545.591 -1.20546 1.44396 0
M  V30 5608 O 544.949 -1.73247 0.534347 0
M  V30 5609 C 544.997 -0.0346976 3.60583 0
M  V30 5610 O 544.101 -1.08657 3.97828 0
M  V30 5611 H 543.442 0.0711618 0.660176 0
M  V30 5612 H 545.972 0.829376 1.87036 0
M  V30 5613 H 545.982 -0.234969 4.07323 0
M  V30 5614 H 544.657 0.917265 4.05659 0
M  V30 5615 H 543.234 -0.863275 3.6277 0
M  V30 5616 N 545.419 -1.53889 0.339982 0
M  V30 5617 C 546.382 -2.23547 -0.50592 0
M  V30 5618 C 547.382 -1.23445 -1.03044 0
M  V30 5619 O 548.572 -1.47909 -0.920253 0
M  V30 5620 C 545.704 -2.95234 -1.7044 0
M  V30 5621 H 546.897 -2.99722 0.103247 0
M  V30 5622 H 544.45 -1.56033 0.0912804 0
M  V30 5623 H 545.185 -2.23236 -2.35236 0
M  V30 5624 H 544.97 -3.68654 -1.33553 0
M  V30 5625 H 546.46 -3.48258 -2.30447 0
M  V30 5626 N 546.897 -0.0685191 -1.57451 0
M  V30 5627 C 548.145 0.60016 -1.92983 0
M  V30 5628 C 548.466 1.70348 -0.949028 0
M  V30 5629 O 547.736 1.959 0.00335647 0
M  V30 5630 H 546.316 0.224682 -0.712409 0
M  V30 5631 H 548.978 -0.125605 -1.94495 0
M  V30 5632 H 548.074 1.02759 -2.94698 0
M  V30 5633 N 548.375 1.56261 0.205012 0
M  V30 5634 C 549.621 1.80306 0.9283 0
M  V30 5635 C 549.954 0.640932 1.83319 0
M  V30 5636 O 549.229 -0.359032 1.91158 0
M  V30 5637 C 549.512 3.14547 1.75306 0
M  V30 5638 C 549.365 4.41236 0.873562 0
M  V30 5639 C 550.684 3.45382 2.72762 0
M  V30 5640 H 547.803 0.655929 0.336044 0
M  V30 5641 H 550.445 1.88984 0.196211 0
M  V30 5642 H 548.595 3.0728 2.37721 0
M  V30 5643 H 550.267 4.60539 0.264887 0
M  V30 5644 H 548.51 4.33427 0.179773 0
M  V30 5645 H 549.181 5.31639 1.48541 0
M  V30 5646 H 551.657 3.52884 2.20481 0
M  V30 5647 H 550.533 4.40449 3.2756 0
M  V30 5648 H 550.794 2.68377 3.51321 0
M  V30 5649 N 549.853 -0.472356 1.50355 0
M  V30 5650 C 550.803 -1.56809 1.65514 0
M  V30 5651 C 551.787 -1.5261 0.509801 0
M  V30 5652 O 552.979 -1.59655 0.764145 0
M  V30 5653 C 550.108 -2.9526 1.75146 0
M  V30 5654 C 549.194 -3.04348 2.95353 0
M  V30 5655 N 549.585 -2.83253 4.19048 0
M  V30 5656 C 547.883 -3.35482 2.93884 0
M  V30 5657 C 548.584 -2.97273 5.00003 0
M  V30 5658 N 547.56 -3.27418 4.33934 0
M  V30 5659 H 551.362 -1.39197 2.58846 0
M  V30 5660 H 548.876 -0.67906 1.47521 0
M  V30 5661 H 550.873 -3.74044 1.8411 0
M  V30 5662 H 549.533 -3.1392 0.829717 0
M  V30 5663 H 550.544 -2.5886 4.48567 0
M  V30 5664 H 547.221 -3.60138 2.11204 0
M  V30 5665 H 548.611 -2.85214 6.08361 0
M  V30 5666 N 551.331 -1.39911 -0.725443 0
M  V30 5667 C 552.742 -1.33599 -1.30415 0
M  V30 5668 C 553.093 -0.00481792 -1.96199 0
M  V30 5669 O 552.218 0.897275 -1.96921 0
M  V30 5670 C 552.813 -2.41965 -2.37146 0
M  V30 5671 C 551.372 -2.39144 -2.90667 0
M  V30 5672 C 550.519 -2.23355 -1.64341 0
M  V30 5673 H 553.47 -1.4986 -0.522267 0
M  V30 5674 H 553.491 -2.09304 -3.17761 0
M  V30 5675 H 553.003 -3.38837 -1.89238 0
M  V30 5676 H 551.104 -1.4594 -3.4283 0
M  V30 5677 H 551.217 -3.34362 -3.43131 0
M  V30 5678 H 549.581 -1.70696 -1.89037 0
M  V30 5679 H 550.364 -3.2221 -1.18471 0
M  V30 5680 N 552.809 0.956637 -1.25245 0
M  V30 5681 C 553.741 2.05628 -1.01242 0
M  V30 5682 C 554.754 1.62785 0.0219579 0
M  V30 5683 O 555.943 1.77184 -0.216365 0
M  V30 5684 C 553.043 3.35069 -0.508161 0
M  V30 5685 C 552.216 4.06761 -1.60823 0
M  V30 5686 C 551.275 5.14473 -1.1047 0
M  V30 5687 O 550.301 5.40033 -1.79868 0
M  V30 5688 N 551.503 5.80474 0.0550773 0
M  V30 5689 H 554.268 2.2679 -1.95925 0
M  V30 5690 H 551.829 1.12505 -1.16423 0
M  V30 5691 H 553.821 4.044 -0.155819 0
M  V30 5692 H 552.391 3.10694 0.344683 0
M  V30 5693 H 551.611 3.31555 -2.13224 0
M  V30 5694 H 552.899 4.51418 -2.34733 0
M  V30 5695 H 552.297 5.62125 0.635004 0
M  V30 5696 H 550.854 6.50868 0.348469 0
M  V30 5697 N 554.287 1.06798 1.15896 0
M  V30 5698 C 555.25 0.687328 2.18651 0
M  V30 5699 C 556.25 -0.269559 1.58524 0
M  V30 5700 O 557.44 -0.0512627 1.74125 0
M  V30 5701 C 554.572 0.0121642 3.40898 0
M  V30 5702 H 555.765 1.59701 2.53842 0
M  V30 5703 H 553.318 0.863828 1.3026 0
M  V30 5704 H 554.053 -0.910025 3.1127 0
M  V30 5705 H 553.838 0.700309 3.85795 0
M  V30 5706 H 555.328 -0.239703 4.16911 0
M  V30 5707 N 555.766 -1.3263 0.851289 0
M  V30 5708 C 557.177 -1.79653 0.5081 0
M  V30 5709 C 557.528 -1.70327 -0.973815 0
M  V30 5710 O 556.653 -1.25986 -1.75944 0
M  V30 5711 C 557.248 -3.26196 0.915515 0
M  V30 5712 C 555.807 -3.71187 0.624277 0
M  V30 5713 C 554.954 -2.53804 1.11709 0
M  V30 5714 H 557.905 -1.19976 1.03882 0
M  V30 5715 H 557.926 -3.79801 0.230535 0
M  V30 5716 H 557.438 -3.32952 1.99411 0
M  V30 5717 H 555.539 -3.69948 -0.443737 0
M  V30 5718 H 555.652 -4.64132 1.18821 0
M  V30 5719 H 554.016 -2.48964 0.537484 0
M  V30 5720 H 554.799 -2.63315 2.20272 0
M  V30 5721 N 557.244 -0.608902 -1.45362 0
M  V30 5722 C 558.492 -0.104401 -2.0183 0
M  V30 5723 C 558.813 1.27007 -1.47967 0
M  V30 5724 O 558.083 1.83924 -0.674455 0
M  V30 5725 H 556.663 -0.0356042 -0.746151 0
M  V30 5726 H 559.325 -0.790596 -1.78145 0
M  V30 5727 H 558.421 -0.0551793 -3.12051 0
M  V30 5728 N 558.722 1.53707 -0.348139 0
M  V30 5729 C 559.968 2.01286 0.247332 0
M  V30 5730 C 560.301 1.23546 1.49834 0
M  V30 5731 O 559.576 0.324331 1.91777 0
M  V30 5732 C 559.859 3.55768 0.556858 0
M  V30 5733 C 559.712 4.44216 -0.706564 0
M  V30 5734 C 561.031 4.1841 1.3646 0
M  V30 5735 H 558.15 0.731677 0.0884201 0
M  V30 5736 H 560.792 1.84106 -0.469584 0
M  V30 5737 H 558.942 3.70539 1.16761 0
M  V30 5738 H 560.614 4.41274 -1.34444 0
M  V30 5739 H 558.857 4.12892 -1.33052 0
M  V30 5740 H 559.528 5.50202 -0.445186 0
M  V30 5741 H 562.004 4.07365 0.848113 0
M  V30 5742 H 560.88 5.26563 1.54992 0
M  V30 5743 H 561.141 3.7333 2.36805 0
M  V30 5744 N 560.2 0.0768682 1.57412 0
M  V30 5745 C 561.15 -0.898795 2.09537 0
M  V30 5746 C 562.134 -1.25556 1.0062 0
M  V30 5747 O 563.326 -1.23369 1.26921 0
M  V30 5748 C 560.455 -2.16453 2.66464 0
M  V30 5749 C 559.541 -1.83401 3.82393 0
M  V30 5750 N 559.932 -1.20823 4.91157 0
M  V30 5751 C 558.23 -2.13121 3.91785 0
M  V30 5752 C 558.931 -1.05976 5.71965 0
M  V30 5753 N 557.907 -1.57113 5.204 0
M  V30 5754 H 561.709 -0.410718 2.91016 0
M  V30 5755 H 559.223 -0.126878 1.61904 0
M  V30 5756 H 561.22 -2.87274 3.02125 0
M  V30 5757 H 559.88 -2.65844 1.86433 0
M  V30 5758 H 560.891 -0.877249 5.10416 0
M  V30 5759 H 557.568 -2.64854 3.22736 0
M  V30 5760 H 558.958 -0.571809 6.69462 0
M  V30 5761 N 561.678 -1.56367 -0.196722 0
M  V30 5762 C 563.089 -1.70462 -0.761545 0
M  V30 5763 C 563.44 -0.683161 -1.83922 0
M  V30 5764 O 562.565 0.160753 -2.15802 0
M  V30 5765 C 563.16 -3.09057 -1.38814 0
M  V30 5766 C 561.719 -3.24922 -1.90007 0
M  V30 5767 C 560.866 -2.66412 -0.769399 0
M  V30 5768 H 563.817 -1.58675 0.0283263 0
M  V30 5769 H 563.838 -3.06296 -2.2575 0
M  V30 5770 H 563.35 -3.83378 -0.603559 0
M  V30 5771 H 561.451 -2.55514 -2.71189 0
M  V30 5772 H 561.564 -4.3241 -2.06297 0
M  V30 5773 H 559.928 -2.25546 -1.18326 0
M  V30 5774 H 560.711 -3.433 0.00291773 0
M  V30 5775 N 563.156 0.464375 -1.50603 0
M  V30 5776 C 564.119 1.54393 -1.69397 0
M  V30 5777 C 565.119 1.50566 -0.564504 0
M  V30 5778 O 566.309 1.53066 -0.831645 0
M  V30 5779 C 563.441 2.9401 -1.72543 0
M  V30 5780 H 564.634 1.39044 -2.65719 0
M  V30 5781 H 562.187 0.69122 -1.40185 0
M  V30 5782 H 562.922 3.14795 -0.77938 0
M  V30 5783 H 562.707 2.98195 -2.54602 0
M  V30 5784 H 564.197 3.72375 -1.89015 0
M  V30 5785 N 564.634 1.40294 0.718013 0
M  V30 5786 C 565.597 1.4012 1.81381 0
M  V30 5787 C 566.597 0.295405 1.58063 0
M  V30 5788 O 567.787 0.554187 1.6515 0
M  V30 5789 C 564.919 1.19056 3.19435 0
M  V30 5790 H 566.112 2.37645 1.82933 0
M  V30 5791 H 563.665 1.26107 0.923405 0
M  V30 5792 H 564.4 0.222809 3.23534 0
M  V30 5793 H 564.185 1.99152 3.37758 0
M  V30 5794 H 565.675 1.21716 3.99468 0
M  V30 5795 N 566.112 -0.949982 1.2575 0
M  V30 5796 C 567.523 -1.50989 1.09815 0
M  V30 5797 C 567.874 -1.93497 -0.324556 0
M  V30 5798 O 566.999 -1.79068 -1.21506 0
M  V30 5799 C 567.594 -2.74394 1.98729 0
M  V30 5800 C 566.153 -3.26682 1.86965 0
M  V30 5801 C 565.3 -1.99498 1.92603 0
M  V30 5802 H 568.251 -0.766387 1.38968 0
M  V30 5803 H 568.272 -3.48383 1.53001 0
M  V30 5804 H 567.784 -2.43425 3.02268 0
M  V30 5805 H 565.885 -3.62461 0.863279 0
M  V30 5806 H 565.998 -3.94383 2.72027 0
M  V30 5807 H 564.362 -2.15005 1.36546 0
M  V30 5808 H 565.145 -1.70871 2.97755 0
M  V30 5809 N 567.59 -1.07411 -1.15328 0
M  V30 5810 C 568.553 -0.698914 -2.18284 0
M  V30 5811 C 569.553 0.261149 -1.58665 0
M  V30 5812 O 570.743 0.0420277 -1.74149 0
M  V30 5813 C 567.875 -0.0302427 -3.40887 0
M  V30 5814 H 569.068 -1.61045 -2.52991 0
M  V30 5815 H 566.621 -0.870724 -1.298 0
M  V30 5816 H 567.356 0.893505 -3.11748 0
M  V30 5817 H 567.141 -0.720759 -3.85419 0
M  V30 5818 H 568.631 0.21759 -4.17033 0
M  V30 5819 N 569.068 1.32177 -0.85831 0
M  V30 5820 C 570.314 1.97417 -0.46417 0
M  V30 5821 C 570.647 1.67746 0.978514 0
M  V30 5822 O 569.922 0.967654 1.68721 0
M  V30 5823 C 570.205 3.53069 -0.708094 0
M  V30 5824 C 570.058 3.92357 -2.19946 0
M  V30 5825 C 571.377 4.39783 -0.166881 0
M  V30 5826 H 568.496 0.717097 -0.17012 0
M  V30 5827 H 571.138 1.56499 -1.07741 0
M  V30 5828 H 569.288 3.88054 -0.186128 0
M  V30 5829 H 570.96 3.67533 -2.78779 0
M  V30 5830 H 569.203 3.41384 -2.67656 0
M  V30 5831 H 569.874 5.00841 -2.32082 0
M  V30 5832 H 572.35 4.11556 -0.613285 0
M  V30 5833 H 571.226 5.47671 -0.367093 0
M  V30 5834 H 571.487 4.32196 0.930559 0
M  V30 5835 N 570.547 0.616602 1.45037 0
M  V30 5836 C 571.497 -0.118543 2.27692 0
M  V30 5837 C 572.481 -0.830025 1.37838 0
M  V30 5838 O 573.673 -0.718528 1.6176 0
M  V30 5839 C 570.802 -1.10924 3.24886 0
M  V30 5840 C 569.888 -0.398134 4.22227 0
M  V30 5841 N 570.279 0.565233 5.02632 0
M  V30 5842 C 568.577 -0.644506 4.41319 0
M  V30 5843 C 569.278 0.984043 5.73316 0
M  V30 5844 N 568.254 0.325879 5.42622 0
M  V30 5845 H 572.056 0.621239 2.87259 0
M  V30 5846 H 569.57 0.440968 1.56299 0
M  V30 5847 H 571.567 -1.65038 3.82842 0
M  V30 5848 H 570.227 -1.84948 2.66879 0
M  V30 5849 H 571.238 0.942395 5.09254 0
M  V30 5850 H 567.915 -1.36873 3.94426 0
M  V30 5851 H 569.305 1.77911 6.47918 0
M  V30 5852 N 572.025 -1.5352 0.356285 0
M  V30 5853 C 573.436 -1.86282 -0.12492 0
M  V30 5854 C 573.787 -1.27717 -1.48939 0
M  V30 5855 O 572.912 -0.595614 -2.08042 0
M  V30 5856 C 573.507 -3.37995 -0.23345 0
M  V30 5857 C 572.066 -3.70588 -0.658899 0
M  V30 5858 C 571.213 -2.76581 0.199596 0
M  V30 5859 H 574.164 -1.47901 0.575423 0
M  V30 5860 H 574.185 -3.65475 -1.0587 0
M  V30 5861 H 573.697 -3.8059 0.759776 0
M  V30 5862 H 571.798 -3.33544 -1.66069 0
M  V30 5863 H 571.911 -4.77076 -0.439957 0
M  V30 5864 H 570.275 -2.52552 -0.330076 0
M  V30 5865 H 571.058 -3.22008 1.19019 0
M  V30 5866 N 573.503 -0.0852151 -1.57369 0
M  V30 5867 C 574.435 0.907099 -2.10486 0
M  V30 5868 C 575.448 1.25259 -1.03991 0
M  V30 5869 O 576.637 1.20743 -1.31467 0
M  V30 5870 C 573.737 2.21908 -2.56145 0
M  V30 5871 C 572.91 2.05042 -3.86363 0
M  V30 5872 C 571.969 3.19664 -4.17973 0
M  V30 5873 O 570.995 2.94062 -4.87356 0
M  V30 5874 N 572.197 4.45151 -3.72587 0
M  V30 5875 H 574.962 0.453505 -2.96249 0
M  V30 5876 H 572.523 0.100157 -1.6159 0
M  V30 5877 H 574.515 2.97519 -2.74343 0
M  V30 5878 H 573.085 2.58723 -1.75446 0
M  V30 5879 H 572.305 1.13819 -3.77411 0
M  V30 5880 H 573.593 1.91039 -4.71574 0
M  V30 5881 H 572.991 4.68834 -3.16561 0
M  V30 5882 H 571.548 5.17744 -3.9596 0
M  V30 5883 N 574.981 1.5647 0.188427 0
M  V30 5884 C 575.944 1.9421 1.21718 0
M  V30 5885 C 576.944 0.823901 1.38089 0
M  V30 5886 O 578.134 1.09122 1.35787 0
M  V30 5887 C 575.266 2.22197 2.58537 0
M  V30 5888 H 576.459 2.86252 0.894418 0
M  V30 5889 H 574.012 1.50263 0.430211 0
M  V30 5890 H 574.747 1.32814 2.95856 0
M  V30 5891 H 574.532 3.03688 2.48025 0
M  V30 5892 H 576.022 2.52376 3.3271 0
M  V30 5893 N 576.459 -0.456382 1.50847 0
M  V30 5894 C 577.87 -1.03685 1.55262 0
M  V30 5895 C 578.221 -1.92779 0.364771 0
M  V30 5896 O 577.346 -2.10043 -0.52068 0
M  V30 5897 C 577.941 -1.88718 2.81374 0
M  V30 5898 C 576.5 -2.41847 2.88422 0
M  V30 5899 C 575.647 -1.20564 2.49719 0
M  V30 5900 H 578.598 -0.238399 1.56899 0
M  V30 5901 H 578.619 -2.73957 2.6406 0
M  V30 5902 H 578.131 -1.23847 3.67809 0
M  V30 5903 H 576.232 -3.10228 2.06372 0
M  V30 5904 H 576.345 -2.75947 3.9165 0
M  V30 5905 H 574.709 -1.54504 2.02486 0
M  V30 5906 H 575.492 -0.573326 3.38479 0
M  V30 5907 N 577.937 -1.40673 -0.710563 0
M  V30 5908 C 579.185 -1.38947 -1.46759 0
M  V30 5909 C 579.506 0.00572879 -1.94999 0
M  V30 5910 O 578.776 0.961358 -1.70689 0
M  V30 5911 H 577.356 -0.5114 -0.544499 0
M  V30 5912 H 580.018 -1.75773 -0.842012 0
M  V30 5913 H 579.114 -2.06745 -2.33801 0
M  V30 5914 N 579.415 0.9433 -1.26252 0
M  V30 5915 C 580.661 1.69175 -1.11837 0
M  V30 5916 C 580.994 1.91238 0.337891 0
M  V30 5917 O 580.269 1.49152 1.24836 0
M  V30 5918 C 580.552 3.06783 -1.88563 0
M  V30 5919 C 580.405 2.9206 -3.42083 0
M  V30 5920 C 581.724 4.06865 -1.67776 0
M  V30 5921 H 578.843 0.61399 -0.407658 0
M  V30 5922 H 581.485 1.09572 -1.55222 0
M  V30 5923 H 579.635 3.57663 -1.51689 0
M  V30 5924 H 581.307 2.48419 -3.88698 0
M  V30 5925 H 579.55 2.27731 -3.69217 0
M  V30 5926 H 580.221 3.89651 -3.90994 0
M  V30 5927 H 582.697 3.64939 -1.99897 0
M  V30 5928 H 581.573 5.01168 -2.23879 0
M  V30 5929 H 581.834 4.37705 -0.621816 0
M  V30 5930 N 580.893 1.08022 1.14757 0
M  V30 5931 C 581.843 0.676345 2.17737 0
M  V30 5932 C 582.827 -0.302018 1.5804 0
M  V30 5933 O 584.019 -0.11466 1.76628 0
M  V30 5934 C 581.148 0.082984 3.432 0
M  V30 5935 C 580.234 1.0869 4.09936 0
M  V30 5936 N 580.625 2.26891 4.52055 0
M  V30 5937 C 578.923 0.921768 4.36371 0
M  V30 5938 C 579.624 2.90636 5.0389 0
M  V30 5939 N 578.6 2.18266 4.97856 0
M  V30 5940 H 582.402 1.5765 2.4804 0
M  V30 5941 H 579.916 0.954374 1.31398 0
M  V30 5942 H 581.913 -0.224289 4.16296 0
M  V30 5943 H 580.573 -0.812206 3.14378 0
M  V30 5944 H 581.584 2.6457 4.45223 0
M  V30 5945 H 578.261 0.0800499 4.17423 0
M  V30 5946 H 579.651 3.9104 5.46386 0
M  V30 5947 N 582.371 -1.3172 0.865308 0
M  V30 5948 C 583.782 -1.79104 0.527126 0
M  V30 5949 C 584.133 -1.7135 -0.955695 0
M  V30 5950 O 583.258 -1.27845 -1.74598 0
M  V30 5951 C 583.853 -3.25207 0.950061 0
M  V30 5952 C 582.412 -3.70504 0.663611 0
M  V30 5953 C 581.559 -2.52605 1.14395 0
M  V30 5954 H 584.51 -1.18868 1.05148 0
M  V30 5955 H 584.531 -3.79535 0.270805 0
M  V30 5956 H 584.043 -3.30818 2.02931 0
M  V30 5957 H 582.144 -3.70398 -0.404474 0
M  V30 5958 H 582.257 -4.62845 1.23737 0
M  V30 5959 H 580.621 -2.4838 0.563859 0
M  V30 5960 H 581.404 -2.60964 2.23053 0
M  V30 5961 N 583.85 -0.624285 -1.44708 0
M  V30 5962 C 585.26 -0.2092 -1.85524 0
M  V30 5963 C 585.611 1.23783 -1.52225 0
M  V30 5964 O 584.736 1.94089 -0.956986 0
M  V30 5965 C 585.332 -0.372897 -3.36742 0
M  V30 5966 C 583.891 -0.012374 -3.76398 0
M  V30 5967 C 583.038 -0.68951 -2.68591 0
M  V30 5968 H 585.989 -0.829894 -1.35272 0
M  V30 5969 H 586.01 0.390134 -3.78495 0
M  V30 5970 H 585.522 -1.42615 -3.60947 0
M  V30 5971 H 583.623 1.03941 -3.57809 0
M  V30 5972 H 583.736 -0.417663 -4.77276 0
M  V30 5973 H 582.1 -0.125484 -2.54391 0
M  V30 5974 H 582.883 -1.74522 -2.9563 0
M  V30 5975 N 585.328 1.53329 -0.364422 0
M  V30 5976 C 586.291 2.24323 0.470292 0
M  V30 5977 C 587.291 1.25068 1.01067 0
M  V30 5978 O 588.481 1.49354 0.896605 0
M  V30 5979 C 585.613 2.97908 1.65722 0
M  V30 5980 H 586.806 2.9952 -0.150917 0
M  V30 5981 H 584.359 1.55868 -0.116092 0
M  V30 5982 H 585.094 2.2695 2.31655 0
M  V30 5983 H 584.879 3.70732 1.27671 0
M  V30 5984 H 586.369 3.5188 2.24878 0
M  V30 5985 N 586.806 0.0935595 1.57322 0
M  V30 5986 C 588.217 -0.435807 1.81542 0
M  V30 5987 C 588.568 -1.68263 1.00907 0
M  V30 5988 O 587.693 -2.15087 0.237983 0
M  V30 5989 C 588.288 -0.797436 3.29282 0
M  V30 5990 C 586.847 -1.27155 3.54272 0
M  V30 5991 C 585.994 -0.267455 2.76007 0
M  V30 5992 H 588.945 0.31902 1.5546 0
M  V30 5993 H 588.966 -1.6571 3.42521 0
M  V30 5994 H 588.478 0.110206 3.87943 0
M  V30 5995 H 586.579 -2.19696 3.00939 0
M  V30 5996 H 586.692 -1.23445 4.62923 0
M  V30 5997 H 585.056 -0.749282 2.43429 0
M  V30 5998 H 585.839 0.632839 3.37417 0
M  V30 5999 N 588.284 -1.56567 -0.180126 0
M  V30 6000 C 589.532 -1.81133 -0.896392 0
M  V30 6001 C 589.853 -0.669114 -1.83161 0
M  V30 6002 O 589.123 0.311616 -1.93406 0
M  V30 6003 H 587.703 -0.668172 -0.333999 0
M  V30 6004 H 590.365 -1.94048 -0.182051 0
M  V30 6005 H 589.461 -2.74854 -1.47857 0
M  V30 6006 N 589.762 0.448376 -1.51087 0
M  V30 6007 C 590.695 1.56298 -1.66272 0
M  V30 6008 C 591.673 1.54381 -0.510419 0
M  V30 6009 O 592.857 1.73671 -0.732854 0
M  V30 6010 C 589.984 2.94883 -1.66618 0
M  V30 6011 C 589.03 3.14868 -2.87681 0
M  V30 6012 S 589.863 2.9234 -4.48662 0
M  V30 6013 C 591.019 4.33227 -4.51735 0
M  V30 6014 H 591.252 1.43182 -2.6055 0
M  V30 6015 H 588.785 0.637309 -1.40633 0
M  V30 6016 H 590.743 3.74771 -1.67502 0
M  V30 6017 H 589.404 3.05371 -0.735358 0
M  V30 6018 H 588.597 4.16166 -2.84292 0
M  V30 6019 H 588.199 2.42788 -2.84482 0
M  V30 6020 H 590.491 5.26247 -4.26697 0
M  V30 6021 H 591.434 4.41653 -5.53487 0
M  V30 6022 H 591.842 4.16367 -3.81181 0
M  V30 6023 N 591.24 1.41047 0.703093 0
M  V30 6024 C 592.19 1.38774 1.80903 0
M  V30 6025 C 593.174 0.263275 1.58731 0
M  V30 6026 O 594.366 0.503362 1.69692 0
M  V30 6027 C 591.495 1.26497 3.19145 0
M  V30 6028 C 590.581 2.43775 3.47037 0
M  V30 6029 N 590.972 3.69249 3.45672 0
M  V30 6030 C 589.27 2.37425 3.77552 0
M  V30 6031 C 589.971 4.46989 3.72258 0
M  V30 6032 N 588.947 3.76998 3.91629 0
M  V30 6033 H 592.749 2.33714 1.78199 0
M  V30 6034 H 590.263 1.34996 0.902762 0
M  V30 6035 H 592.26 1.2295 3.98358 0
M  V30 6036 H 590.92 0.32534 3.23066 0
M  V30 6037 H 591.931 4.02239 3.26228 0
M  V30 6038 H 588.608 1.51895 3.88888 0
M  V30 6039 H 589.998 5.55894 3.77402 0
M  V30 6040 N 592.718 -0.936591 1.26751 0
M  V30 6041 C 594.129 -1.49816 1.1141 0
M  V30 6042 C 594.48 -1.9383 -0.304015 0
M  V30 6043 O 593.605 -1.80346 -1.196 0
M  V30 6044 C 594.2 -2.72271 2.01629 0
M  V30 6045 C 592.759 -3.2468 1.9042 0
M  V30 6046 C 591.906 -1.97444 1.94708 0
M  V30 6047 H 594.857 -0.751604 1.39773 0
M  V30 6048 H 594.878 -3.46741 1.56688 0
M  V30 6049 H 594.39 -2.40205 3.04833 0
M  V30 6050 H 592.491 -3.61525 0.901674 0
M  V30 6051 H 592.604 -3.91476 2.76195 0
M  V30 6052 H 590.968 -2.13545 1.38818 0
M  V30 6053 H 591.751 -1.67703 2.9955 0
M  V30 6054 N 594.196 -1.08629 -1.14182 0
M  V30 6055 C 595.128 -0.676189 -2.18998 0
M  V30 6056 C 596.141 0.277871 -1.60411 0
M  V30 6057 O 597.33 0.0651771 -1.78381 0
M  V30 6058 C 594.43 0.0254916 -3.3889 0
M  V30 6059 C 593.603 -0.948039 -4.27002 0
M  V30 6060 C 592.662 -0.281268 -5.25448 0
M  V30 6061 O 591.688 -0.926378 -5.61611 0
M  V30 6062 N 592.89 0.967923 -5.72374 0
M  V30 6063 H 595.655 -1.57792 -2.54798 0
M  V30 6064 H 593.216 -0.972665 -1.29425 0
M  V30 6065 H 595.208 0.482554 -4.01813 0
M  V30 6066 H 593.778 0.829348 -3.01398 0
M  V30 6067 H 592.998 -1.58388 -3.6098 0
M  V30 6068 H 594.286 -1.60765 -4.82734 0
M  V30 6069 H 593.684 1.51175 -5.45126 0
M  V30 6070 H 592.241 1.36844 -6.37273 0
M  V30 6071 N 595.674 1.31259 -0.872281 0
M  V30 6072 C 596.637 2.26744 -0.334656 0
M  V30 6073 C 597.637 1.52307 0.515681 0
M  V30 6074 O 598.827 1.71148 0.324656 0
M  V30 6075 C 595.959 3.36841 0.524482 0
M  V30 6076 H 597.152 2.75812 -1.17762 0
M  V30 6077 H 594.705 1.42232 -0.648064 0
M  V30 6078 H 595.44 2.93069 1.38855 0
M  V30 6079 H 595.225 3.92009 -0.0844299 0
M  V30 6080 H 596.715 4.07944 0.892838 0
M  V30 6081 N 597.152 0.631951 1.44375 0
M  V30 6082 C 598.563 0.219036 1.85411 0
M  V30 6083 C 598.914 -1.22974 1.52879 0
M  V30 6084 O 598.039 -1.93579 0.967266 0
M  V30 6085 C 598.634 0.39075 3.36539 0
M  V30 6086 C 597.193 0.0323351 3.76386 0
M  V30 6087 C 596.34 0.703744 2.68221 0
M  V30 6088 H 599.291 0.837056 1.3483 0
M  V30 6089 H 599.312 -0.370056 3.78696 0
M  V30 6090 H 598.824 1.44527 3.60185 0
M  V30 6091 H 596.925 -1.02042 3.58355 0
M  V30 6092 H 597.038 0.442969 4.77048 0
M  V30 6093 H 595.402 0.138974 2.54321 0
M  V30 6094 H 596.185 1.76088 2.947 0
M  V30 6095 N 598.631 -1.53133 0.372548 0
M  V30 6096 C 599.879 -2.00958 -0.214534 0
M  V30 6097 C 600.2 -1.26135 -1.48711 0
M  V30 6098 O 599.47 -0.376597 -1.92246 0
M  V30 6099 H 598.05 -0.742456 -0.0822664 0
M  V30 6100 H 600.712 -1.88367 0.500385 0
M  V30 6101 H 599.808 -3.09031 -0.436605 0
M  V30 6102 N 600.109 -0.101901 -1.5727 0
M  V30 6103 C 601.355 0.561027 -1.94885 0
M  V30 6104 C 601.688 1.6741 -0.984258 0
M  V30 6105 O 600.963 1.94491 -0.0184767 0
M  V30 6106 C 601.246 1.10982 -3.42571 0
M  V30 6107 C 601.099 0.00133418 -4.498 0
M  V30 6108 C 602.418 2.00608 -3.9172 0
M  V30 6109 H 599.537 0.202467 -0.708644 0
M  V30 6110 H 602.179 -0.173992 -1.89202 0
M  V30 6111 H 600.329 1.73621 -3.47546 0
M  V30 6112 H 602.001 -0.63322 -4.56933 0
M  V30 6113 H 600.244 -0.664143 -4.28686 0
M  V30 6114 H 600.915 0.426253 -5.50352 0
M  V30 6115 H 603.391 1.47864 -3.88941 0
M  V30 6116 H 602.267 2.3593 -4.95609 0
M  V30 6117 H 602.528 2.92608 -3.3141 0
M  V30 6118 N 601.587 1.56661 0.17182 0
M  V30 6119 C 602.537 1.92781 1.21736 0
M  V30 6120 C 603.521 0.796065 1.39827 0
M  V30 6121 O 604.713 1.05924 1.41806 0
M  V30 6122 C 601.842 2.29079 2.55691 0
M  V30 6123 C 600.928 3.48765 2.41296 0
M  V30 6124 N 601.319 4.66022 1.96614 0
M  V30 6125 C 599.617 3.53362 2.72124 0
M  V30 6126 C 600.318 5.48159 1.94669 0
M  V30 6127 N 599.294 4.89189 2.37054 0
M  V30 6128 H 603.096 2.80926 0.863592 0
M  V30 6129 H 600.61 1.57889 0.380096 0
M  V30 6130 H 602.607 2.5315 3.31241 0
M  V30 6131 H 601.267 1.42272 2.91871 0
M  V30 6132 H 602.278 4.9025 1.66959 0
M  V30 6133 H 598.955 2.77033 3.12345 0
M  V30 6134 H 600.345 6.52121 1.61826 0
M  V30 6135 N 603.065 -0.440357 1.51323 0
M  V30 6136 C 604.476 -1.02032 1.56353 0
M  V30 6137 C 604.827 -1.92382 0.385197 0
M  V30 6138 O 603.952 -2.10583 -0.498373 0
M  V30 6139 C 604.547 -1.85723 2.83359 0
M  V30 6140 C 603.106 -2.38774 2.90971 0
M  V30 6141 C 602.253 -1.17908 2.50984 0
M  V30 6142 H 605.204 -0.221744 1.57143 0
M  V30 6143 H 605.225 -2.71141 2.66951 0
M  V30 6144 H 604.737 -1.19939 3.69102 0
M  V30 6145 H 602.838 -3.08021 2.09651 0
M  V30 6146 H 602.951 -2.71778 3.94555 0
M  V30 6147 H 601.315 -1.52347 2.04114 0
M  V30 6148 H 602.098 -0.537393 3.39068 0
M  V30 6149 N 604.543 -1.41418 -0.695603 0
M  V30 6150 C 605.475 -1.39195 -1.82092 0
M  V30 6151 C 606.488 -0.294132 -1.60121 0
M  V30 6152 O 607.677 -0.555854 -1.69625 0
M  V30 6153 C 604.777 -1.14828 -3.18854 0
M  V30 6154 C 603.95 -2.36649 -3.67853 0
M  V30 6155 C 603.009 -2.08139 -4.83285 0
M  V30 6156 O 602.035 -2.81177 -4.94902 0
M  V30 6157 N 603.237 -1.07162 -5.70523 0
M  V30 6158 H 606.002 -2.36185 -1.84491 0
M  V30 6159 H 603.563 -1.3603 -0.877923 0
M  V30 6160 H 605.555 -0.937075 -3.93702 0
M  V30 6161 H 604.125 -0.264358 -3.1148 0
M  V30 6162 H 603.345 -2.73472 -2.83913 0
M  V30 6163 H 604.633 -3.17816 -3.97329 0
M  V30 6164 H 604.031 -0.467124 -5.63768 0
M  V30 6165 H 602.588 -0.920311 -6.4527 0
M  V30 6166 N 606.021 0.929856 -1.27246 0
M  V30 6167 C 607.432 1.49223 -1.12203 0
M  V30 6168 C 607.783 1.93989 0.293731 0
M  V30 6169 O 606.908 1.80978 1.18642 0
M  V30 6170 C 607.503 2.71198 -2.0307 0
M  V30 6171 C 606.062 3.23666 -1.92139 0
M  V30 6172 C 605.209 1.96409 -1.95752 0
M  V30 6173 H 608.16 0.744181 -1.4017 0
M  V30 6174 H 608.181 3.45905 -1.58524 0
M  V30 6175 H 607.693 2.38585 -3.06102 0
M  V30 6176 H 605.794 3.61042 -0.920834 0
M  V30 6177 H 605.907 3.90006 -2.78267 0
M  V30 6178 H 604.271 2.12806 -1.39949 0
M  V30 6179 H 605.054 1.66113 -3.00436 0
M  V30 6180 N 607.499 1.09233 1.13605 0
M  V30 6181 C 608.91 0.846839 1.6639 0
M  V30 6182 C 609.261 -0.625031 1.85978 0
M  V30 6183 O 608.386 -1.48173 1.57714 0
M  V30 6184 C 608.981 1.5307 3.0225 0
M  V30 6185 C 607.54 1.33223 3.52035 0
M  V30 6186 C 606.687 1.58806 2.27323 0
M  V30 6187 H 609.638 1.25175 0.975541 0
M  V30 6188 H 609.659 0.96267 3.68121 0
M  V30 6189 H 609.171 2.60192 2.87961 0
M  V30 6190 H 607.272 0.282091 3.71531 0
M  V30 6191 H 607.385 2.0657 4.32279 0
M  V30 6192 H 605.749 1.01007 2.33815 0
M  V30 6193 H 606.532 2.67153 2.15602 0
M  V30 6194 N 608.977 -1.30795 0.87923 0
M  V30 6195 C 610.225 -1.95974 0.493809 0
M  V30 6196 C 610.546 -1.69787 -0.959021 0
M  V30 6197 O 609.816 -1.01832 -1.67353 0
M  V30 6198 H 608.396 -0.725083 0.179622 0
M  V30 6199 H 611.058 -1.59432 1.12105 0
M  V30 6200 H 610.154 -3.05058 0.659263 0
M  V30 6201 N 610.455 -0.639598 -1.44038 0
M  V30 6202 C 611.701 -0.147698 -2.02261 0
M  V30 6203 C 612.034 1.23031 -1.50256 0
M  V30 6204 O 611.309 1.81847 -0.690068 0
M  V30 6205 C 611.592 -0.14362 -3.59813 0
M  V30 6206 C 611.445 -1.55458 -4.22082 0
M  V30 6207 C 612.764 0.527317 -4.36929 0
M  V30 6208 H 609.883 -0.0551453 -0.734934 0
M  V30 6209 H 612.525 -0.817688 -1.71505 0
M  V30 6210 H 610.675 0.426898 -3.86147 0
M  V30 6211 H 612.347 -2.17464 -4.06826 0
M  V30 6212 H 610.59 -2.10594 -3.79253 0
M  V30 6213 H 611.261 -1.50369 -5.31124 0
M  V30 6214 H 613.737 0.0420504 -4.16079 0
M  V30 6215 H 612.613 0.499389 -5.46624 0
M  V30 6216 H 612.874 1.59914 -4.12165 0
M  V30 6217 N 611.933 1.52934 -0.380664 0
M  V30 6218 C 612.883 2.22989 0.475399 0
M  V30 6219 C 613.867 1.23058 1.03661 0
M  V30 6220 O 615.059 1.48436 0.964146 0
M  V30 6221 C 612.188 3.0338 1.60671 0
M  V30 6222 C 611.274 4.107 1.05766 0
M  V30 6223 N 611.665 5.05264 0.232837 0
M  V30 6224 C 609.963 4.25676 1.33101 0
M  V30 6225 C 610.664 5.81658 -0.0695134 0
M  V30 6226 N 609.64 5.40989 0.532144 0
M  V30 6227 H 613.442 2.93456 -0.161418 0
M  V30 6228 H 610.956 1.61291 -0.189495 0
M  V30 6229 H 612.953 3.52098 2.23232 0
M  V30 6230 H 611.613 2.34446 2.24644 0
M  V30 6231 H 612.624 5.17739 -0.129204 0
M  V30 6232 H 609.301 3.6797 1.97241 0
M  V30 6233 H 610.691 6.67843 -0.737269 0
M  V30 6234 N 613.412 0.11024 1.57214 0
M  V30 6235 C 614.823 -0.416527 1.81994 0
M  V30 6236 C 615.174 -1.67183 1.02686 0
M  V30 6237 O 614.299 -2.14823 0.260782 0
M  V30 6238 C 614.894 -0.762466 3.30109 0
M  V30 6239 C 613.453 -1.23391 3.556 0
M  V30 6240 C 612.6 -0.238166 2.76275 0
M  V30 6241 H 615.551 0.335491 1.55113 0
M  V30 6242 H 615.572 -1.62068 3.44259 0
M  V30 6243 H 615.084 0.151346 3.87805 0
M  V30 6244 H 613.185 -2.16492 3.03253 0
M  V30 6245 H 613.298 -1.18528 4.64207 0
M  V30 6246 H 611.662 -0.723421 2.4421 0
M  V30 6247 H 612.445 0.668591 3.36727 0
M  V30 6248 N 614.89 -1.56749 -0.16351 0
M  V30 6249 C 616.115 -1.86938 -0.898264 0
M  V30 6250 C 616.54 -0.697456 -1.74692 0
M  V30 6251 O 615.898 0.353327 -1.77824 0
M  V30 6252 C 615.946 -3.15599 -1.74441 0
M  V30 6253 O 615.05 -2.98371 -2.8469 0
M  V30 6254 H 614.391 -0.614659 -0.251178 0
M  V30 6255 H 616.921 -2.03979 -0.159298 0
M  V30 6256 H 616.931 -3.47202 -2.14277 0
M  V30 6257 H 615.606 -4.00505 -1.1211 0
M  V30 6258 H 614.183 -2.7814 -2.4838 0
M  V30 6259 N 616.368 0.432326 -1.51554 0
M  V30 6260 C 617.331 1.50765 -1.72634 0
M  V30 6261 C 618.331 1.49334 -0.596314 0
M  V30 6262 O 619.521 1.51268 -0.863925 0
M  V30 6263 C 616.653 2.90284 -1.7874 0
M  V30 6264 H 617.846 1.33377 -2.68609 0
M  V30 6265 H 615.399 0.661329 -1.4162 0
M  V30 6266 H 616.134 3.13071 -0.845977 0
M  V30 6267 H 615.919 2.92727 -2.6087 0
M  V30 6268 H 617.409 3.68282 -1.96871 0
M  V30 6269 N 617.846 1.41785 0.688094 0
M  V30 6270 C 619.257 1.3701 1.26828 0
M  V30 6271 C 619.608 0.056835 1.96118 0
M  V30 6272 O 618.733 -0.84475 1.99231 0
M  V30 6273 C 619.328 2.48168 2.30648 0
M  V30 6274 C 617.887 2.46766 2.84224 0
M  V30 6275 C 617.034 2.27633 1.58361 0
M  V30 6276 H 619.985 1.51192 0.482351 0
M  V30 6277 H 620.006 2.17655 3.121 0
M  V30 6278 H 619.518 3.43735 1.80188 0
M  V30 6279 H 617.619 1.54978 3.3884 0
M  V30 6280 H 617.732 3.43342 3.34145 0
M  V30 6281 H 616.096 1.75648 1.84445 0
M  V30 6282 H 616.879 3.25238 1.09887 0
M  V30 6283 N 619.324 -0.923095 1.27737 0
M  V30 6284 C 620.572 -1.66797 1.14119 0
M  V30 6285 C 620.893 -1.92479 -0.312541 0
M  V30 6286 O 620.163 -1.53432 -1.218 0
M  V30 6287 H 618.743 -0.618196 0.419336 0
M  V30 6288 H 621.405 -1.10815 1.60331 0
M  V30 6289 H 620.501 -2.63424 1.67374 0
M  V30 6290 N 620.802 -1.09834 -1.13024 0
M  V30 6291 C 622.048 -0.83819 -1.84668 0
M  V30 6292 C 622.381 0.634645 -1.83537 0
M  V30 6293 O 621.656 1.46753 -1.27647 0
M  V30 6294 C 621.939 -1.37933 -3.32636 0
M  V30 6295 C 621.792 -2.91857 -3.42257 0
M  V30 6296 C 623.111 -1.01654 -4.28199 0
M  V30 6297 H 620.23 -0.30595 -0.670495 0
M  V30 6298 H 622.872 -1.36044 -1.32635 0
M  V30 6299 H 621.022 -0.935111 -3.77078 0
M  V30 6300 H 622.694 -3.44759 -3.06495 0
M  V30 6301 H 620.937 -3.28776 -2.83 0
M  V30 6302 H 621.608 -3.24799 -4.46329 0
M  V30 6303 H 624.084 -1.39973 -3.9185 0
M  V30 6304 H 622.96 -1.42217 -5.30156 0
M  V30 6305 H 623.221 0.0747794 -4.42037 0
M  V30 6306 N 622.28 1.30327 -0.886154 0
M  V30 6307 C 623.23 2.25668 -0.325248 0
M  V30 6308 C 624.214 1.51318 0.546972 0
M  V30 6309 O 625.406 1.72623 0.391203 0
M  V30 6310 C 622.535 3.40229 0.458167 0
M  V30 6311 C 621.621 4.21933 -0.428208 0
M  V30 6312 N 622.012 4.82129 -1.52921 0
M  V30 6313 C 620.31 4.45439 -0.223535 0
M  V30 6314 C 621.011 5.43351 -2.07714 0
M  V30 6315 N 619.987 5.26002 -1.37195 0
M  V30 6316 H 623.789 2.69759 -1.1665 0
M  V30 6317 H 621.303 1.4478 -0.735691 0
M  V30 6318 H 623.3 4.07579 0.876648 0
M  V30 6319 H 621.96 2.97678 1.29684 0
M  V30 6320 H 622.971 4.81312 -1.91205 0
M  V30 6321 H 619.648 4.13481 0.577875 0
M  V30 6322 H 621.038 6.01118 -3.00178 0
M  V30 6323 N 623.758 0.647228 1.43697 0
M  V30 6324 C 625.169 0.238689 1.85168 0
M  V30 6325 C 625.52 -1.21345 1.54175 0
M  V30 6326 O 624.645 -1.92542 0.987743 0
M  V30 6327 C 625.24 0.426422 3.36106 0
M  V30 6328 C 623.799 0.0722541 3.76331 0
M  V30 6329 C 622.946 0.732153 2.6746 0
M  V30 6330 H 625.897 0.851309 1.33934 0
M  V30 6331 H 625.918 -0.32987 3.79067 0
M  V30 6332 H 625.43 1.48339 3.58632 0
M  V30 6333 H 623.531 -0.982355 3.59417 0
M  V30 6334 H 623.644 0.493541 4.76551 0
M  V30 6335 H 622.008 0.16594 2.54159 0
M  V30 6336 H 622.791 1.79204 2.92816 0
M  V30 6337 N 625.236 -1.5273 0.388769 0
M  V30 6338 C 626.168 -2.24081 -0.481704 0
M  V30 6339 C 627.181 -1.26307 -1.02715 0
M  V30 6340 O 628.37 -1.52386 -0.929565 0
M  V30 6341 C 625.47 -2.94315 -1.68024 0
M  V30 6342 C 624.643 -4.18791 -1.26226 0
M  V30 6343 C 623.702 -4.72028 -2.32542 0
M  V30 6344 O 622.728 -5.35129 -1.93972 0
M  V30 6345 N 623.93 -4.51838 -3.64448 0
M  V30 6346 H 626.695 -2.9942 0.129591 0
M  V30 6347 H 624.256 -1.60465 0.2151 0
M  V30 6348 H 626.248 -3.26831 -2.38671 0
M  V30 6349 H 624.818 -2.22287 -2.19789 0
M  V30 6350 H 624.038 -3.92318 -0.384703 0
M  V30 6351 H 625.326 -4.99668 -0.959647 0
M  V30 6352 H 624.724 -4.01468 -3.98547 0
M  V30 6353 H 623.281 -4.88845 -4.31131 0
M  V30 6354 N 626.714 -0.118576 -1.57153 0
M  V30 6355 C 628.125 0.40687 -1.82213 0
M  V30 6356 C 628.476 1.66636 -1.03571 0
M  V30 6357 O 627.601 2.14682 -0.272171 0
M  V30 6358 C 628.196 0.744949 -3.30509 0
M  V30 6359 C 626.755 1.21503 -3.5625 0
M  V30 6360 C 625.902 0.223511 -2.76398 0
M  V30 6361 H 628.853 -0.343712 -1.54933 0
M  V30 6362 H 628.874 1.6024 -3.45114 0
M  V30 6363 H 628.386 -0.171911 -3.87719 0
M  V30 6364 H 626.487 2.1488 -3.04396 0
M  V30 6365 H 626.6 1.16065 -4.64829 0
M  V30 6366 H 624.964 0.71046 -2.44591 0
M  V30 6367 H 625.747 -0.686439 -3.36367 0
M  V30 6368 N 628.193 1.56834 0.155195 0
M  V30 6369 C 629.604 1.72421 0.716082 0
M  V30 6370 C 629.955 0.731685 1.82046 0
M  V30 6371 O 629.08 -0.103481 2.16152 0
M  V30 6372 C 629.675 3.12629 1.30571 0
M  V30 6373 C 628.234 3.29846 1.81325 0
M  V30 6374 C 627.381 2.68359 0.698494 0
M  V30 6375 H 630.332 1.58544 -0.0703861 0
M  V30 6376 H 630.353 3.12174 2.1755 0
M  V30 6377 H 629.865 3.84844 0.501701 0
M  V30 6378 H 627.966 2.62614 2.64319 0
M  V30 6379 H 628.079 4.37727 1.9476 0
M  V30 6380 H 626.443 2.28604 1.12305 0
M  V30 6381 H 627.226 3.43171 -0.0939366 0
M  V30 6382 N 629.671 -0.424282 1.51781 0
M  V30 6383 C 630.919 -1.17028 1.64769 0
M  V30 6384 C 631.24 -1.91409 0.372523 0
M  V30 6385 O 630.51 -1.86091 -0.612108 0
M  V30 6386 H 629.09 -0.434992 0.607282 0
M  V30 6387 H 631.752 -0.485169 1.88765 0
M  V30 6388 H 630.848 -1.8927 2.4816 0
M  V30 6389 N 631.149 -1.42148 -0.680565 0
M  V30 6390 C 632.395 -1.42521 -1.44277 0
M  V30 6391 C 632.728 -0.0393718 -1.9416 0
M  V30 6392 O 632.003 0.935425 -1.70529 0
M  V30 6393 C 632.286 -2.44475 -2.64394 0
M  V30 6394 C 632.139 -3.92226 -2.20179 0
M  V30 6395 C 633.458 -2.43491 -3.66606 0
M  V30 6396 H 630.577 -0.518985 -0.523282 0
M  V30 6397 H 633.219 -1.73524 -0.773914 0
M  V30 6398 H 631.369 -2.18168 -3.21458 0
M  V30 6399 H 633.041 -4.29493 -1.68327 0
M  V30 6400 H 631.284 -4.0637 -1.5181 0
M  V30 6401 H 631.955 -4.59133 -3.06433 0
M  V30 6402 H 634.431 -2.66872 -3.19247 0
M  V30 6403 H 633.307 -3.16816 -4.4824 0
M  V30 6404 H 633.568 -1.45881 -4.17338 0
M  V30 6405 N 632.627 0.916307 -1.28225 0
M  V30 6406 C 633.577 2.00488 -1.08574 0
M  V30 6407 C 634.561 1.60897 -0.0101874 0
M  V30 6408 O 635.753 1.75499 -0.230034 0
M  V30 6409 C 632.882 3.35076 -0.746943 0
M  V30 6410 C 631.968 3.81077 -1.86121 0
M  V30 6411 N 632.359 3.99475 -3.10247 0
M  V30 6412 C 630.657 4.10212 -1.75048 0
M  V30 6413 C 631.358 4.37965 -3.82834 0
M  V30 6414 N 630.334 4.4608 -3.10667 0
M  V30 6415 H 634.136 2.1276 -2.02757 0
M  V30 6416 H 631.65 1.10397 -1.19107 0
M  V30 6417 H 633.647 4.12743 -0.587252 0
M  V30 6418 H 632.307 3.2416 0.187146 0
M  V30 6419 H 633.318 3.85466 -3.45885 0
M  V30 6420 H 629.995 4.07947 -0.887999 0
M  V30 6421 H 631.385 4.60183 -4.89572 0
M  V30 6422 N 634.105 1.10431 1.1244 0
M  V30 6423 C 635.516 0.864439 1.65482 0
M  V30 6424 C 635.867 -0.60527 1.8663 0
M  V30 6425 O 634.992 -1.46492 1.59276 0
M  V30 6426 C 635.587 1.56267 3.0061 0
M  V30 6427 C 634.146 1.3695 3.50602 0
M  V30 6428 C 633.293 1.61209 2.25626 0
M  V30 6429 H 636.244 1.26203 0.962209 0
M  V30 6430 H 636.265 1.00166 3.67079 0
M  V30 6431 H 635.777 2.63231 2.85186 0
M  V30 6432 H 633.878 0.321481 3.71211 0
M  V30 6433 H 633.991 2.11143 4.30064 0
M  V30 6434 H 632.355 1.03482 2.32731 0
M  V30 6435 H 633.138 2.69425 2.12756 0
M  V30 6436 N 635.583 -1.29855 0.893053 0
M  V30 6437 C 636.808 -2.00512 0.530066 0
M  V30 6438 C 637.233 -1.66446 -0.876199 0
M  V30 6439 O 636.591 -0.885446 -1.58207 0
M  V30 6440 C 636.639 -3.53308 0.721505 0
M  V30 6441 O 635.743 -4.11764 -0.228994 0
M  V30 6442 H 635.084 -0.630617 0.207891 0
M  V30 6443 H 637.614 -1.6551 1.20282 0
M  V30 6444 H 637.624 -4.03206 0.623599 0
M  V30 6445 H 636.299 -3.77439 1.74678 0
M  V30 6446 H 634.876 -3.72805 -0.0841034 0
M  V30 6447 N 637.061 -0.65484 -1.43351 0
M  V30 6448 C 638.009 0.0476784 -2.32551 0
M  V30 6449 C 639.003 0.811403 -1.48703 0
M  V30 6450 O 640.209 0.721621 -1.64902 0
M  V30 6451 H 636.584 0.0342038 -0.751222 0
M  V30 6452 H 638.555 -0.722342 -2.89525 0
M  V30 6453 C 637.304 0.999251 -3.33032 0
M  V30 6454 H 636.627 0.421005 -3.97577 0
M  V30 6455 H 638.067 1.45986 -3.98076 0
M  V30 6456 C 636.526 2.09606 -2.63756 0
M  V30 6457 O 637.056 3.18004 -2.4543 0
M  V30 6458 N 635.262 1.86207 -2.23103 0
M  V30 6459 H 634.809 0.980555 -2.38208 0
M  V30 6460 H 634.767 2.59787 -1.77081 0
M  V30 6461 N 638.539 1.52521 -0.396863 0
M  V30 6462 C 639.95 1.86547 0.0754868 0
M  V30 6463 C 640.301 1.31621 1.45501 0
M  V30 6464 O 639.426 0.650563 2.0639 0
M  V30 6465 C 640.021 3.38495 0.143754 0
M  V30 6466 C 638.58 3.72205 0.560413 0
M  V30 6467 C 637.727 2.75954 -0.272856 0
M  V30 6468 H 640.678 1.46323 -0.614434 0
M  V30 6469 H 640.699 3.68153 0.961425 0
M  V30 6470 H 640.211 3.78442 -0.860415 0
M  V30 6471 H 638.312 3.3783 1.57167 0
M  V30 6472 H 638.425 4.78074 0.313314 0
M  V30 6473 H 636.789 2.53339 0.263 0
M  V30 6474 H 637.572 3.1874 -1.27515 0
M  V30 6475 N 640.017 0.126909 1.57088 0
M  V30 6476 C 641.265 -0.528123 1.95078 0
M  V30 6477 C 641.586 -1.66708 1.0116 0
M  V30 6478 O 640.856 -1.95777 0.0693527 0
M  V30 6479 H 639.436 -0.198087 0.720257 0
M  V30 6480 H 642.098 0.197703 1.93895 0
M  V30 6481 H 641.194 -0.917507 2.98309 0
M  V30 6482 N 641.495 -1.56914 -0.146875 0
M  V30 6483 C 642.741 -1.83628 -0.860741 0
M  V30 6484 C 643.074 -0.708528 -1.80813 0
M  V30 6485 O 642.349 0.287838 -1.92358 0
M  V30 6486 C 642.632 -3.20836 -1.63511 0
M  V30 6487 C 642.485 -4.44174 -0.709199 0
M  V30 6488 C 643.804 -3.55268 -2.59756 0
M  V30 6489 H 640.923 -0.667949 -0.311468 0
M  V30 6490 H 643.565 -1.89582 -0.125936 0
M  V30 6491 H 641.715 -3.15891 -2.26153 0
M  V30 6492 H 643.387 -4.61205 -0.0937781 0
M  V30 6493 H 641.63 -4.33796 -0.0187856 0
M  V30 6494 H 642.301 -5.36785 -1.28707 0
M  V30 6495 H 644.777 -3.60824 -2.07232 0
M  V30 6496 H 643.653 -4.52303 -3.10987 0
M  V30 6497 H 643.914 -2.81231 -3.41118 0
M  V30 6498 N 642.974 0.416227 -1.52004 0
M  V30 6499 C 643.924 1.50558 -1.7122 0
M  V30 6500 C 644.908 1.50613 -0.56609 0
M  V30 6501 O 646.1 1.56709 -0.822874 0
M  V30 6502 C 643.229 2.88556 -1.85984 0
M  V30 6503 C 642.315 2.93177 -3.06445 0
M  V30 6504 N 642.706 2.67505 -4.29272 0
M  V30 6505 C 641.004 3.24343 -3.06133 0
M  V30 6506 C 641.705 2.78511 -5.10692 0
M  V30 6507 N 640.681 3.11087 -4.45787 0
M  V30 6508 H 644.483 1.29494 -2.63834 0
M  V30 6509 H 641.997 0.62384 -1.4994 0
M  V30 6510 H 643.994 3.66954 -1.97865 0
M  V30 6511 H 642.654 3.10624 -0.945654 0
M  V30 6512 H 643.665 2.42033 -4.57865 0
M  V30 6513 H 640.342 3.52051 -2.24425 0
M  V30 6514 H 641.732 2.62438 -6.18527 0
M  V30 6515 N 644.452 1.42507 0.673017 0
M  V30 6516 C 645.863 1.38347 1.25367 0
M  V30 6517 C 646.214 0.0776327 1.96046 0
M  V30 6518 O 645.339 -0.823571 2.00116 0
M  V30 6519 C 645.934 2.506 2.28002 0
M  V30 6520 C 644.493 2.49767 2.81591 0
M  V30 6521 C 643.64 2.293 1.55938 0
M  V30 6522 H 646.591 1.51695 0.466288 0
M  V30 6523 H 646.612 2.20953 3.09774 0
M  V30 6524 H 646.124 3.45627 1.76532 0
M  V30 6525 H 644.225 1.58563 3.37177 0
M  V30 6526 H 644.338 3.46867 3.30485 0
M  V30 6527 H 642.702 1.77594 1.82572 0
M  V30 6528 H 643.485 3.26385 1.06431 0
M  V30 6529 N 645.93 -0.909495 1.28709 0
M  V30 6530 C 647.341 -1.47419 1.14563 0
M  V30 6531 C 647.692 -1.94432 -0.262832 0
M  V30 6532 O 646.817 -1.82842 -1.15748 0
M  V30 6533 C 647.412 -2.67933 2.07358 0
M  V30 6534 C 645.971 -3.20568 1.97264 0
M  V30 6535 C 645.118 -1.93269 1.98852 0
M  V30 6536 H 648.069 -0.721787 1.41336 0
M  V30 6537 H 648.09 -3.43339 1.64007 0
M  V30 6538 H 647.602 -2.33685 3.09859 0
M  V30 6539 H 645.703 -3.59531 0.978157 0
M  V30 6540 H 645.816 -3.85529 2.84436 0
M  V30 6541 H 644.18 -2.10553 1.43317 0
M  V30 6542 H 644.963 -1.61312 3.0304 0
M  V30 6543 N 647.408 -1.11026 -1.11852 0
M  V30 6544 C 648.636 -0.878818 -1.87308 0
M  V30 6545 C 649.051 0.57111 -1.79955 0
M  V30 6546 O 648.408 1.39409 -1.17777 0
M  V30 6547 C 648.459 -1.3264 -3.36287 0
M  V30 6548 O 648.18 -2.71948 -3.43476 0
M  V30 6549 C 649.681 -1.12974 -4.28663 0
M  V30 6550 H 646.901 -0.315015 -0.592458 0
M  V30 6551 H 649.445 -1.47649 -1.41492 0
M  V30 6552 H 647.6 -0.772269 -3.79625 0
M  V30 6553 H 648.014 -2.91241 -4.3621 0
M  V30 6554 H 649.488 -1.49198 -5.31454 0
M  V30 6555 H 649.965 -0.0689127 -4.39146 0
M  V30 6556 H 650.571 -1.67064 -3.91113 0
M  V30 6557 N 648.886 1.2938 -0.899927 0
M  V30 6558 C 650.297 1.77644 -0.574427 0
M  V30 6559 C 650.648 1.73824 0.909928 0
M  V30 6560 O 649.773 1.32429 1.71147 0
M  V30 6561 C 650.368 3.22573 -1.03595 0
M  V30 6562 C 648.927 3.68614 -0.76161 0
M  V30 6563 C 648.074 2.49483 -1.21052 0
M  V30 6564 H 651.025 1.16038 -1.08263 0
M  V30 6565 H 651.046 3.78684 -0.371337 0
M  V30 6566 H 650.558 3.25321 -2.11631 0
M  V30 6567 H 648.659 3.7134 0.306127 0
M  V30 6568 H 648.772 4.59402 -1.35965 0
M  V30 6569 H 647.136 2.46798 -0.629515 0
M  V30 6570 H 647.919 2.54959 -2.29893 0
M  V30 6571 N 650.364 0.662433 1.43002 0
M  V30 6572 C 651.297 -0.073459 2.28082 0
M  V30 6573 C 652.275 -0.820869 1.40358 0
M  V30 6574 O 653.459 -0.818545 1.698 0
M  V30 6575 C 650.586 -1.11097 3.19961 0
M  V30 6576 C 649.632 -0.460557 4.24006 0
M  V30 6577 S 650.465 0.772717 5.29896 0
M  V30 6578 C 651.621 -0.264028 6.25343 0
M  V30 6579 H 651.854 0.648227 2.90147 0
M  V30 6580 H 649.387 0.451566 1.47649 0
M  V30 6581 H 651.345 -1.70452 3.73439 0
M  V30 6582 H 650.006 -1.80503 2.57056 0
M  V30 6583 H 649.199 -1.24299 4.88432 0
M  V30 6584 H 648.801 0.0591038 3.73953 0
M  V30 6585 H 651.093 -1.12748 6.68052 0
M  V30 6586 H 652.036 0.345443 7.07257 0
M  V30 6587 H 652.444 -0.603964 5.6126 0
M  V30 6588 N 651.842 -1.52309 0.404946 0
M  V30 6589 C 653.253 -1.86585 -0.0655926 0
M  V30 6590 C 653.604 -1.3239 -1.44801 0
M  V30 6591 O 652.729 -0.6615 -2.06042 0
M  V30 6592 C 653.324 -3.38566 -0.125801 0
M  V30 6593 C 651.883 -3.72497 -0.540666 0
M  V30 6594 C 651.03 -2.75806 0.287487 0
M  V30 6595 H 653.981 -1.45995 0.622185 0
M  V30 6596 H 654.002 -3.68658 -0.941888 0
M  V30 6597 H 653.514 -3.77981 0.880473 0
M  V30 6598 H 651.615 -3.38659 -1.55373 0
M  V30 6599 H 651.728 -4.78234 -0.287956 0
M  V30 6600 H 650.092 -2.53474 -0.249561 0
M  V30 6601 H 650.875 -3.18059 1.29203 0
M  V30 6602 N 653.32 -0.135238 -1.57019 0
M  V30 6603 C 654.731 0.387521 -1.82634 0
M  V30 6604 C 655.082 1.65528 -1.05332 0
M  V30 6605 O 654.207 2.14381 -0.294926 0
M  V30 6606 C 654.802 0.709852 -3.3128 0
M  V30 6607 C 653.361 1.17718 -3.57518 0
M  V30 6608 C 652.508 0.194183 -2.76619 0
M  V30 6609 H 655.459 -0.360126 -1.5456 0
M  V30 6610 H 655.48 1.5657 -3.46794 0
M  V30 6611 H 654.992 -0.213024 -3.87515 0
M  V30 6612 H 653.093 2.1164 -3.06658 0
M  V30 6613 H 653.206 1.11128 -4.66034 0
M  V30 6614 H 651.57 0.684478 -2.4533 0
M  V30 6615 H 652.353 -0.722076 -3.3562 0
M  V30 6616 N 654.798 1.5699 0.138552 0
M  V30 6617 C 655.731 1.94064 1.2006 0
M  V30 6618 C 656.709 0.807601 1.41126 0
M  V30 6619 O 657.893 1.06399 1.556 0
M  V30 6620 C 655.02 2.21999 2.55801 0
M  V30 6621 C 654.066 3.44617 2.5128 0
M  V30 6622 S 654.899 4.97888 1.97149 0
M  V30 6623 C 656.055 5.28954 3.34602 0
M  V30 6624 H 656.288 2.83843 0.884337 0
M  V30 6625 H 653.821 1.50507 0.344517 0
M  V30 6626 H 655.779 2.38772 3.33914 0
M  V30 6627 H 654.44 1.32869 2.84613 0
M  V30 6628 H 653.633 3.61466 3.51224 0
M  V30 6629 H 653.235 3.27129 1.8128 0
M  V30 6630 H 655.527 5.22938 4.30745 0
M  V30 6631 H 656.47 6.30346 3.22598 0
M  V30 6632 H 656.878 4.56455 3.32128 0
M  V30 6633 N 656.276 -0.40816 1.52223 0
M  V30 6634 C 657.206 -1.5042 1.78595 0
M  V30 6635 C 658.187 -1.57723 0.636974 0
M  V30 6636 O 659.372 -1.72982 0.882664 0
M  V30 6637 C 656.502 -2.88232 1.93751 0
M  V30 6638 C 655.456 -2.95779 3.09352 0
M  V30 6639 C 654.782 -4.35855 3.09732 0
M  V30 6640 C 656.082 -2.67175 4.48793 0
M  V30 6641 H 657.776 -1.28601 2.70374 0
M  V30 6642 H 655.322 -0.617221 1.30101 0
M  V30 6643 H 657.275 -3.64895 2.10783 0
M  V30 6644 H 655.999 -3.11347 0.986443 0
M  V30 6645 H 654.658 -2.21561 2.92072 0
M  V30 6646 H 654.306 -4.55981 2.12346 0
M  V30 6647 H 654.006 -4.41829 3.87377 0
M  V30 6648 H 655.53 -5.14451 3.28895 0
M  V30 6649 H 656.944 -3.3356 4.66273 0
M  V30 6650 H 655.341 -2.84523 5.28362 0
M  V30 6651 H 656.411 -1.62609 4.56822 0
M  V30 6652 N 657.755 -1.42862 -0.66545 0
M  V30 6653 C 659.171 -1.25993 -0.979687 0
M  V30 6654 C 659.371 -0.170831 -2.00775 0
M  V30 6655 O 658.427 0.454827 -2.4837 0
M  V30 6656 C 659.74 -2.62005 -1.47559 0
M  V30 6657 C 661.288 -2.69437 -1.59288 0
M  V30 6658 C 661.763 -4.05838 -2.12272 0
M  V30 6659 N 663.254 -4.0784 -2.19592 0
M  V30 6660 C 663.989 -5.10205 -2.61684 0
M  V30 6661 N 663.485 -6.22949 -3.03161 0
M  V30 6662 N 665.278 -4.9756 -2.61516 0
M  V30 6663 H 657.429 -2.12395 0.0150493 0
M  V30 6664 H 659.692 -0.946355 -0.0558187 0
M  V30 6665 H 659.398 -3.42605 -0.794654 0
M  V30 6666 H 659.272 -2.86566 -2.45275 0
M  V30 6667 H 661.659 -1.89178 -2.26486 0
M  V30 6668 H 661.74 -2.48655 -0.600374 0
M  V30 6669 H 661.384 -4.86559 -1.4568 0
M  V30 6670 H 661.314 -4.23977 -3.12331 0
M  V30 6671 H 663.805 -3.26452 -1.90361 0
M  V30 6672 H 664.118 -6.96899 -3.33993 0
M  V30 6673 H 662.463 -6.2644 -3.00995 0
M  V30 6674 H 665.654 -4.08551 -2.28481 0
M  V30 6675 H 665.827 -5.77468 -2.93999 0
M  V30 6676 N 659.233 0.902656 -1.29189 0
M  V30 6677 C 660.644 1.46809 -1.15343 0
M  V30 6678 C 660.995 1.94568 0.252517 0
M  V30 6679 O 660.12 1.83454 1.14777 0
M  V30 6680 C 660.715 2.66829 -2.08776 0
M  V30 6681 C 659.274 3.19518 -1.98961 0
M  V30 6682 C 658.421 1.92212 -1.99874 0
M  V30 6683 H 661.372 0.714282 -1.41717 0
M  V30 6684 H 661.393 3.42465 -1.65826 0
M  V30 6685 H 660.905 2.32039 -3.11094 0
M  V30 6686 H 659.006 3.59008 -0.99721 0
M  V30 6687 H 659.119 3.84016 -2.86477 0
M  V30 6688 H 657.483 2.0979 -1.44431 0
M  V30 6689 H 658.266 1.59702 -3.03891 0
M  V30 6690 N 660.711 1.11618 1.11262 0
M  V30 6691 C 662.122 0.881942 1.64556 0
M  V30 6692 C 662.473 -0.585442 1.87262 0
M  V30 6693 O 661.598 -1.44795 1.60821 0
M  V30 6694 C 662.193 1.59446 2.98935 0
M  V30 6695 C 660.752 1.40661 3.4913 0
M  V30 6696 C 659.899 1.63593 2.23903 0
M  V30 6697 H 662.85 1.27217 0.94877 0
M  V30 6698 H 662.871 1.04054 3.65996 0
M  V30 6699 H 662.383 2.66241 2.82378 0
M  V30 6700 H 660.484 0.360835 3.70849 0
M  V30 6701 H 660.597 2.15693 4.27801 0
M  V30 6702 H 658.961 1.05944 2.3162 0
M  V30 6703 H 659.744 2.71666 2.09886 0
M  V30 6704 N 662.189 -1.289 0.906776 0
M  V30 6705 C 663.119 -2.29932 0.406659 0
M  V30 6706 C 664.1 -1.6189 -0.522061 0
M  V30 6707 O 665.285 -1.8935 -0.431283 0
M  V30 6708 C 662.415 -3.45425 -0.360366 0
M  V30 6709 C 661.369 -4.25316 0.478574 0
M  V30 6710 C 660.695 -5.33076 -0.416373 0
M  V30 6711 C 661.995 -4.92739 1.7322 0
M  V30 6712 H 663.689 -2.72013 1.25097 0
M  V30 6713 H 661.235 -1.30768 0.602977 0
M  V30 6714 H 663.188 -4.15186 -0.721029 0
M  V30 6715 H 661.912 -3.02206 -1.23852 0
M  V30 6716 H 660.571 -3.57273 0.821662 0
M  V30 6717 H 660.219 -4.86101 -1.29287 0
M  V30 6718 H 659.919 -5.8743 0.141309 0
M  V30 6719 H 661.443 -6.05686 -0.773072 0
M  V30 6720 H 662.857 -5.54898 1.44086 0
M  V30 6721 H 661.254 -5.57057 2.23175 0
M  V30 6722 H 662.324 -4.17625 2.46408 0
M  V30 6723 N 663.667 -0.670007 -1.42649 0
M  V30 6724 C 665.078 -0.268118 -1.84765 0
M  V30 6725 C 665.429 1.18877 -1.56086 0
M  V30 6726 O 664.554 1.90947 -1.01825 0
M  V30 6727 C 665.149 -0.47984 -3.35385 0
M  V30 6728 C 663.708 -0.132116 -3.76168 0
M  V30 6729 C 662.855 -0.774611 -2.66261 0
M  V30 6730 H 665.806 -0.872509 -1.32563 0
M  V30 6731 H 665.827 0.269522 -3.79544 0
M  V30 6732 H 665.339 -1.54026 -3.56227 0
M  V30 6733 H 663.44 0.92505 -3.60934 0
M  V30 6734 H 663.553 -0.569294 -4.75706 0
M  V30 6735 H 661.917 -0.206353 -2.53863 0
M  V30 6736 H 662.7 -1.83839 -2.89928 0
M  V30 6737 N 665.145 1.52092 -0.413018 0
M  V30 6738 C 666.37 2.06756 0.163338 0
M  V30 6739 C 666.795 1.28073 1.37764 0
M  V30 6740 O 666.153 0.312015 1.78595 0
M  V30 6741 C 666.201 3.57278 0.488322 0
M  V30 6742 O 665.305 3.80986 1.57871 0
M  V30 6743 H 664.646 0.663882 0.0125068 0
M  V30 6744 H 667.176 1.95988 -0.587339 0
M  V30 6745 H 667.186 4.01125 0.745836 0
M  V30 6746 H 665.861 4.13978 -0.399327 0
M  V30 6747 H 664.438 3.49017 1.31306 0
M  V30 6748 N 666.623 0.143563 1.56945 0
M  V30 6749 C 667.533 -0.810562 2.20152 0
M  V30 6750 C 668.549 -1.27431 1.1848 0
M  V30 6751 O 669.725 -1.33221 1.51044 0
M  V30 6752 C 666.79 -2.03353 2.80799 0
M  V30 6753 C 665.851 -1.61936 3.97587 0
M  V30 6754 C 665.084 -2.78403 4.55332 0
M  V30 6755 O 665.307 -3.94521 4.11958 0
M  V30 6756 O 664.241 -2.54073 5.45647 0
M  V30 6757 H 668.067 -0.30253 3.02189 0
M  V30 6758 H 665.652 -0.0832925 1.49168 0
M  V30 6759 H 667.534 -2.74932 3.19359 0
M  V30 6760 H 666.209 -2.53116 2.01777 0
M  V30 6761 H 665.116 -0.873904 3.6375 0
M  V30 6762 H 666.449 -1.16892 4.78118 0
M  V30 6763 N 668.101 -1.57061 -0.130224 0
M  V30 6764 C 669.349 -1.83893 -0.838313 0
M  V30 6765 C 669.67 -0.727046 -1.80939 0
M  V30 6766 O 668.94 0.249927 -1.94299 0
M  V30 6767 H 667.52 -0.67846 -0.312573 0
M  V30 6768 H 670.182 -1.94529 -0.120224 0
M  V30 6769 H 669.278 -2.79419 -1.39038 0
M  V30 6770 N 669.579 0.400081 -1.52437 0
M  V30 6771 C 670.99 0.97851 -1.59003 0
M  V30 6772 C 671.341 1.91293 -0.436068 0
M  V30 6773 O 670.466 2.1183 0.442365 0
M  V30 6774 C 671.061 1.78145 -2.88184 0
M  V30 6775 C 669.62 2.30976 -2.97199 0
M  V30 6776 C 668.767 1.11212 -2.54022 0
M  V30 6777 H 671.718 0.180002 -1.57676 0
M  V30 6778 H 671.739 2.63968 -2.74046 0
M  V30 6779 H 671.251 1.1011 -3.72152 0
M  V30 6780 H 669.352 3.02355 -2.17744 0
M  V30 6781 H 669.465 2.61221 -4.01622 0
M  V30 6782 H 667.829 1.46882 -2.08081 0
M  V30 6783 H 668.612 0.447307 -3.40373 0
M  V30 6784 N 671.057 1.43213 0.657864 0
M  V30 6785 C 672.305 1.44298 1.41501 0
M  V30 6786 C 672.626 0.0666478 1.94886 0
M  V30 6787 O 671.896 -0.897345 1.74139 0
M  V30 6788 H 670.476 0.531257 0.525143 0
M  V30 6789 H 673.138 1.78777 0.776195 0
M  V30 6790 H 672.234 2.1528 2.25966 0
M  V30 6791 N 672.536 -0.895792 1.29666 0
M  V30 6792 C 673.484 -2.02173 1.15017 0
M  V30 6793 C 674.478 -1.69276 0.0647651 0
M  V30 6794 O 675.684 -1.7859 0.224846 0
M  V30 6795 H 672.059 -0.662719 0.355397 0
M  V30 6796 H 674.03 -2.11666 2.10334 0
M  V30 6797 C 672.779 -3.37212 0.847555 0
M  V30 6798 H 672.102 -3.6303 1.67479 0
M  V30 6799 H 673.542 -4.16668 0.785106 0
M  V30 6800 C 672.001 -3.33891 -0.44929 0
M  V30 6801 O 672.531 -3.73673 -1.47415 0
M  V30 6802 N 670.737 -2.86991 -0.456547 0
M  V30 6803 H 670.284 -2.54813 0.377925 0
M  V30 6804 H 670.242 -2.85152 -1.32423 0
M  V30 6805 N 674.014 -1.12206 -1.10668 0
M  V30 6806 C 675.263 -0.870595 -1.81944 0
M  V30 6807 C 675.576 0.605447 -1.85994 0
M  V30 6808 O 676.782 0.973433 -2.53449 0
M  V30 6809 C 675.238 -1.50783 -3.26791 0
M  V30 6810 C 674.846 -3.01849 -3.31046 0
M  V30 6811 C 676.59 -1.33653 -4.02911 0
M  V30 6812 C 674.497 -3.58518 -4.70339 0
M  V30 6813 H 673.427 -0.322043 -0.681765 0
M  V30 6814 H 676.078 -1.34827 -1.24475 0
M  V30 6815 H 674.46 -0.957825 -3.84242 0
M  V30 6816 H 675.634 -3.63321 -2.83433 0
M  V30 6817 H 673.949 -3.18346 -2.68411 0
M  V30 6818 H 676.546 -1.73416 -5.05797 0
M  V30 6819 H 676.889 -0.279949 -4.15358 0
M  V30 6820 H 677.422 -1.85562 -3.51868 0
M  V30 6821 H 674.161 -4.63925 -4.63091 0
M  V30 6822 H 673.681 -3.01819 -5.18329 0
M  V30 6823 H 675.36 -3.57434 -5.39305 0
M  V30 6824 N 675.492 1.28418 -0.913599 0
M  V30 6825 C 676.903 1.77024 -0.593237 0
M  V30 6826 C 677.254 1.74779 0.891441 0
M  V30 6827 O 676.379 1.34237 1.69733 0
M  V30 6828 C 676.974 3.21456 -1.07011 0
M  V30 6829 C 675.533 3.67786 -0.800664 0
M  V30 6830 C 674.68 2.48185 -1.23691 0
M  V30 6831 H 677.631 1.14883 -1.09487 0
M  V30 6832 H 677.652 3.78269 -0.411481 0
M  V30 6833 H 677.164 3.23058 -2.1507 0
M  V30 6834 H 675.265 3.71644 0.266725 0
M  V30 6835 H 675.378 4.57934 -1.4083 0
M  V30 6836 H 673.742 2.46116 -0.655655 0
M  V30 6837 H 674.525 2.52506 -2.32585 0
M  V30 6838 N 676.97 0.677563 1.42291 0
M  V30 6839 C 678.381 0.277912 1.8462 0
M  V30 6840 C 678.732 -1.18048 1.56714 0
M  V30 6841 O 677.857 -1.90404 1.02836 0
M  V30 6842 C 678.452 0.497619 3.35126 0
M  V30 6843 C 677.011 0.152063 3.76093 0
M  V30 6844 C 676.158 0.78872 2.65847 0
M  V30 6845 H 679.109 0.879527 1.32098 0
M  V30 6846 H 679.13 -0.24939 3.79682 0
M  V30 6847 H 678.642 1.55913 3.55405 0
M  V30 6848 H 676.743 -0.905896 3.6142 0
M  V30 6849 H 676.856 0.594514 4.75397 0
M  V30 6850 H 675.22 0.219813 2.5375 0
M  V30 6851 H 676.003 1.85374 2.88949 0
M  V30 6852 N 678.448 -1.51871 0.421078 0
M  V30 6853 C 679.859 -1.86644 -0.0457991 0
M  V30 6854 C 680.21 -1.33919 -1.43388 0
M  V30 6855 O 679.335 -0.683316 -2.05328 0
M  V30 6856 C 679.93 -3.38681 -0.0898844 0
M  V30 6857 C 678.489 -3.73049 -0.501127 0
M  V30 6858 C 677.636 -2.75485 0.316723 0
M  V30 6859 H 680.587 -1.45327 0.637635 0
M  V30 6860 H 680.608 -3.69636 -0.902734 0
M  V30 6861 H 680.12 -3.77025 0.920513 0
M  V30 6862 H 678.221 -3.40288 -1.51773 0
M  V30 6863 H 678.334 -4.78512 -0.237217 0
M  V30 6864 H 676.698 -2.53725 -0.222663 0
M  V30 6865 H 677.481 -3.16671 1.32569 0
M  V30 6866 N 679.926 -0.151884 -1.56866 0
M  V30 6867 C 681.337 0.368128 -1.83035 0
M  V30 6868 C 681.688 1.64402 -1.07082 0
M  V30 6869 O 680.813 2.14056 -0.317647 0
M  V30 6870 C 681.408 0.674676 -3.32014 0
M  V30 6871 C 679.967 1.13919 -3.58747 0
M  V30 6872 C 679.114 0.164833 -2.7681 0
M  V30 6873 H 682.065 -0.376499 -1.54169 0
M  V30 6874 H 682.086 1.52883 -3.48435 0
M  V30 6875 H 681.598 -0.254113 -3.87267 0
M  V30 6876 H 679.699 2.08375 -3.08886 0
M  V30 6877 H 679.812 1.06179 -4.67186 0
M  V30 6878 H 678.176 0.658419 -2.46043 0
M  V30 6879 H 678.959 -0.757633 -3.34836 0
M  V30 6880 N 681.404 1.57128 0.121893 0
M  V30 6881 C 682.815 1.73902 0.679348 0
M  V30 6882 C 683.166 0.770135 1.80453 0
M  V30 6883 O 682.291 -0.0576083 2.16323 0
M  V30 6884 C 682.886 3.15328 1.2391 0
M  V30 6885 C 681.445 3.33618 1.74288 0
M  V30 6886 C 680.592 2.6978 0.641414 0
M  V30 6887 H 683.543 1.58359 -0.104 0
M  V30 6888 H 683.564 3.16718 2.10879 0
M  V30 6889 H 683.076 3.85821 0.419957 0
M  V30 6890 H 681.177 2.68162 2.58689 0
M  V30 6891 H 681.29 4.4176 1.85432 0
M  V30 6892 H 679.654 2.30935 1.0743 0
M  V30 6893 H 680.437 3.42895 -0.166707 0
M  V30 6894 N 682.882 -0.391992 1.52647 0
M  V30 6895 C 684.11 -1.1586 1.71418 0
M  V30 6896 C 684.525 -1.8381 0.431216 0
M  V30 6897 O 683.882 -1.7256 -0.594085 0
M  V30 6898 C 683.933 -2.20888 2.86165 0
M  V30 6899 O 683.654 -1.5571 4.09495 0
M  V30 6900 C 685.155 -3.103 3.1659 0
M  V30 6901 H 682.375 -0.347494 0.574011 0
M  V30 6902 H 684.919 -0.458972 1.99283 0
M  V30 6903 H 683.074 -2.86492 2.6077 0
M  V30 6904 H 683.488 -2.25474 4.73563 0
M  V30 6905 H 684.962 -3.8003 4.00351 0
M  V30 6906 H 685.439 -3.73639 2.30848 0
M  V30 6907 H 686.045 -2.50345 3.43813 0
M  V30 6908 N 684.36 -1.4356 -0.65026 0
M  V30 6909 C 685.308 -1.49219 -1.78427 0
M  V30 6910 C 686.302 -0.365528 -1.65409 0
M  V30 6911 O 687.508 -0.539649 -1.7172 0
M  V30 6912 H 683.883 -0.467858 -0.588738 0
M  V30 6913 H 685.854 -2.44701 -1.70774 0
M  V30 6914 C 684.603 -1.43519 -3.16698 0
M  V30 6915 H 683.926 -2.2952 -3.27354 0
M  V30 6916 H 685.366 -1.5154 -3.95995 0
M  V30 6917 C 683.825 -0.153197 -3.36552 0
M  V30 6918 O 684.355 0.784317 -3.93969 0
M  V30 6919 N 682.561 -0.0624402 -2.90533 0
M  V30 6920 H 682.108 -0.826172 -2.43992 0
M  V30 6921 H 682.066 0.794616 -3.04193 0
M  V30 6922 O 685.877 0.793351 -1.40671 0
M  V30 6923 H 686.568 1.43915 -1.29646 0
M  V30 END ATOM
M  V30 BEGIN BOND
M  V30 END BOND
M  V30 END CTAB
M  END
$$$$
