drugbank_target|Q15569 Dual specificity testis-specific protein kinase 1 (DB12010)
 OpenBabel12092121143D

  0  0  0     0  0            999 V3000
M  V30 BEGIN CTAB
M  V30 COUNTS 9496 9644 0 0 0
M  V30 BEGIN ATOM
M  V30 1 H -0.908 1.98254 -0.117106 0
M  V30 2 N 0 1.576 0 0
M  V30 3 C 0.933 2.03868 1.02534 0
M  V30 4 C 1.911 0.928543 1.3348 0
M  V30 5 O 3.095 1.19667 1.45644 0
M  V30 6 C 0.222 2.43627 2.35294 0
M  V30 7 C -0.732 3.65373 2.2001 0
M  V30 8 S 0.101 5.13292 1.52614 0
M  V30 9 C 1.257 5.56322 2.86805 0
M  V30 10 H 1.49 2.90518 0.631377 0
M  V30 11 H -0.977 1.52953 0.210867 0
M  V30 12 H 0.981 2.67203 3.11629 0
M  V30 13 H -0.358 1.57376 2.7183 0
M  V30 14 H -1.165 3.90944 3.18086 0
M  V30 15 H -1.563 3.418 1.51819 0
M  V30 16 H 0.729 5.58782 3.83104 0
M  V30 17 H 1.672 6.56266 2.65933 0
M  V30 18 H 2.08 4.83886 2.90714 0
M  V30 19 N 1.4781 -0.272755 1.55222 0
M  V30 20 C 2.4411 -1.32041 1.87344 0
M  V30 21 C 3.4411 -1.42342 0.74803 0
M  V30 22 O 4.6311 -1.41488 1.0162 0
M  V30 23 C 1.7631 -2.70173 2.07893 0
M  V30 24 H 2.9561 -1.04789 2.80997 0
M  V30 25 H 0.5091 -0.51083 1.47717 0
M  V30 26 H 1.2441 -3.02605 1.16622 0
M  V30 27 H 1.0291 -2.64082 2.89833 0
M  V30 28 H 2.5191 -3.45869 2.34017 0
M  V30 29 N 2.9562 -1.48159 -0.537278 0
M  V30 30 C 4.2042 -1.55497 -1.29094 0
M  V30 31 C 4.5252 -0.227454 -1.93669 0
M  V30 32 O 3.7952 0.750386 -1.80959 0
M  V30 33 H 2.3752 -0.572832 -0.47945 0
M  V30 34 H 5.0372 -1.84579 -0.625818 0
M  V30 35 H 4.1332 -2.33216 -2.07405 0
M  V30 36 N 4.4343 0.785586 -1.36625 0
M  V30 37 C 5.3443 1.92964 -1.33425 0
M  V30 38 C 6.3603 1.72394 -0.235851 0
M  V30 39 O 7.5363 1.95866 -0.468878 0
M  V30 40 C 4.6013 3.27884 -1.12662 0
M  V30 41 C 3.6623 3.61204 -2.32013 0
M  V30 42 C 2.8953 4.89687 -2.12231 0
M  V30 43 O 3.1183 5.59704 -1.09945 0
M  V30 44 O 2.0523 5.21752 -3.00098 0
M  V30 45 H 5.8783 1.98613 -2.29753 0
M  V30 46 H 3.4633 0.926384 -1.17211 0
M  V30 47 H 5.3453 4.08614 -1.03016 0
M  V30 48 H 4.0203 3.23118 -0.193991 0
M  V30 49 H 2.9273 2.80765 -2.47228 0
M  V30 50 H 4.2603 3.70698 -3.23796 0
M  V30 51 N 5.9124 1.20967 1.01018 0
M  V30 52 C 7.3284 0.965905 1.27053 0
M  V30 53 C 7.5284 -0.350785 1.98423 0
M  V30 54 O 6.5844 -1.07773 2.28344 0
M  V30 55 C 7.8974 2.15294 2.09926 0
M  V30 56 C 9.4454 2.19463 2.23171 0
M  V30 57 C 9.9204 3.3767 3.09424 0
M  V30 58 N 11.4114 3.37724 3.17012 0
M  V30 59 C 12.1464 4.25837 3.83993 0
M  V30 60 N 11.6424 5.24138 4.53047 0
M  V30 61 N 13.4354 4.1366 3.80581 0
M  V30 62 H 5.5864 2.0565 0.531194 0
M  V30 63 H 7.8494 0.90024 0.297106 0
M  V30 64 H 7.5554 3.10684 1.64828 0
M  V30 65 H 7.4294 2.13923 3.10672 0
M  V30 66 H 9.8164 1.24632 2.6749 0
M  V30 67 H 9.8974 2.2488 1.21912 0
M  V30 68 H 9.5414 4.32791 2.65808 0
M  V30 69 H 9.4714 3.29491 4.10784 0
M  V30 70 H 11.9624 2.6658 2.6785 0
M  V30 71 H 12.2754 5.87684 5.01844 0
M  V30 72 H 10.6204 5.28068 4.5185 0
M  V30 73 H 13.8114 3.36127 3.25785 0
M  V30 74 H 13.9844 4.82538 4.32505 0
M  V30 75 N 7.3905 -1.2043 1.01659 0
M  V30 76 C 8.8015 -1.71517 0.737482 0
M  V30 77 C 9.1525 -1.81547 -0.743973 0
M  V30 78 O 8.2775 -1.47803 -1.58061 0
M  V30 79 C 8.8725 -3.11515 1.33206 0
M  V30 80 C 7.4315 -3.59912 1.10183 0
M  V30 81 C 6.5785 -2.37116 1.43776 0
M  V30 82 H 9.5295 -1.05444 1.18606 0
M  V30 83 H 9.5505 -3.73575 0.722636 0
M  V30 84 H 9.0625 -3.04182 2.41028 0
M  V30 85 H 7.1635 -3.72577 0.0412756 0
M  V30 86 H 7.2765 -4.44731 1.78188 0
M  V30 87 H 5.6405 -2.39857 0.856778 0
M  V30 88 H 6.4235 -2.32424 2.52654 0
M  V30 89 N 8.8686 -0.792821 -1.36206 0
M  V30 90 C 10.2796 -0.429513 -1.81692 0
M  V30 91 C 10.6306 1.04695 -1.65932 0
M  V30 92 O 9.7556 1.81256 -1.18218 0
M  V30 93 C 10.3506 -0.772831 -3.29868 0
M  V30 94 C 8.9096 -0.462307 -3.7355 0
M  V30 95 C 8.0566 -1.00569 -2.5842 0
M  V30 96 H 11.0076 -0.985672 -1.24379 0
M  V30 97 H 11.0286 -0.0651928 -3.80444 0
M  V30 98 H 10.5406 -1.84747 -3.41307 0
M  V30 99 H 8.6416 0.604158 -3.67669 0
M  V30 100 H 8.7546 -0.985299 -4.68859 0
M  V30 101 H 7.1186 -0.428734 -2.51066 0
M  V30 102 H 7.9016 -2.08616 -2.72643 0
M  V30 103 N 10.3467 1.47872 -0.545128 0
M  V30 104 C 11.2767 2.32661 0.197793 0
M  V30 105 C 12.2577 1.43041 0.920504 0
M  V30 106 O 13.4427 1.71912 0.90333 0
M  V30 107 C 10.5727 3.24569 1.23582 0
M  V30 108 C 9.5267 4.23333 0.630323 0
M  V30 109 C 8.8527 5.0448 1.77211 0
M  V30 110 C 10.1527 5.20704 -0.407974 0
M  V30 111 H 11.8467 2.95024 -0.510045 0
M  V30 112 H 9.3927 1.4187 -0.246731 0
M  V30 113 H 11.3457 3.8272 1.76362 0
M  V30 114 H 10.0697 2.60236 1.97344 0
M  V30 115 H 8.7287 3.6639 0.123922 0
M  V30 116 H 8.3767 4.36561 2.49847 0
M  V30 117 H 8.0767 5.71339 1.37281 0
M  V30 118 H 9.6007 5.65487 2.3034 0
M  V30 119 H 11.0147 5.7329 0.033305 0
M  V30 120 H 9.4117 5.95699 -0.725486 0
M  V30 121 H 10.4817 4.66917 -1.30828 0
M  V30 122 N 11.8248 0.280983 1.55075 0
M  V30 123 C 13.2408 -0.0729964 1.59433 0
M  V30 124 C 13.4408 -1.5411 1.29817 0
M  V30 125 O 12.4968 -2.29086 1.06187 0
M  V30 126 C 13.8098 0.306921 2.9913 0
M  V30 127 C 15.3578 0.254023 3.11968 0
M  V30 128 C 15.8328 0.608467 4.5394 0
M  V30 129 N 17.3238 0.560241 4.59799 0
M  V30 130 C 18.0588 0.80722 5.6769 0
M  V30 131 N 17.5548 1.11912 6.83701 0
M  V30 132 N 19.3478 0.735623 5.57266 0
M  V30 133 H 11.4988 1.238 1.7259 0
M  V30 134 H 13.7618 0.500547 0.805082 0
M  V30 135 H 13.4678 1.32816 3.25657 0
M  V30 136 H 13.3418 -0.349363 3.75579 0
M  V30 137 H 15.7288 -0.75794 2.852 0
M  V30 138 H 15.8098 0.944649 2.37718 0
M  V30 139 H 15.4538 1.61814 4.81434 0
M  V30 140 H 15.3838 -0.104013 5.26497 0
M  V30 141 H 17.8748 0.329288 3.76463 0
M  V30 142 H 18.1878 1.29409 7.61888 0
M  V30 143 H 16.5328 1.15695 6.85303 0
M  V30 144 H 19.7238 0.491752 4.6551 0
M  V30 145 H 19.8968 0.931482 6.4127 0
M  V30 146 N 13.3029 -1.57598 0.00835791 0
M  V30 147 C 14.5509 -1.90551 -0.6734 0
M  V30 148 C 14.8719 -0.883301 -1.73847 0
M  V30 149 O 14.1419 0.0781442 -1.95744 0
M  V30 150 H 12.7219 -0.703312 -0.251717 0
M  V30 151 H 15.3839 -1.94833 0.0512592 0
M  V30 152 H 14.4799 -2.9056 -1.13935 0
M  V30 153 N 14.781 0.264519 -1.55364 0
M  V30 154 C 16.192 0.834936 -1.6699 0
M  V30 155 C 16.543 1.86718 -0.602552 0
M  V30 156 O 15.668 2.14899 0.254425 0
M  V30 157 C 16.263 1.5212 -3.02729 0
M  V30 158 C 14.822 2.03954 -3.16354 0
M  V30 159 C 13.969 0.884498 -2.62815 0
M  V30 160 H 16.92 0.0406869 -1.58648 0
M  V30 161 H 16.941 2.38853 -2.96191 0
M  V30 162 H 16.453 0.769668 -3.80392 0
M  V30 163 H 14.554 2.82041 -2.43482 0
M  V30 164 H 14.667 2.24902 -4.23032 0
M  V30 165 H 13.031 1.2802 -2.20188 0
M  V30 166 H 13.814 0.14634 -3.42988 0
M  V30 167 N 16.2591 1.48442 0.529413 0
M  V30 168 C 17.5071 1.56179 1.28267 0
M  V30 169 C 17.8281 0.237721 1.93546 0
M  V30 170 O 17.0981 -0.740779 1.81354 0
M  V30 171 H 15.6781 0.575367 0.476405 0
M  V30 172 H 18.3401 1.84909 0.61602 0
M  V30 173 H 17.4361 2.34312 2.06165 0
M  V30 174 N 17.7372 -0.778329 1.37039 0
M  V30 175 C 19.1482 -1.35421 1.28523 0
M  V30 176 C 19.4992 -1.96075 -0.0700901 0
M  V30 177 O 18.6242 -1.93352 -0.971801 0
M  V30 178 C 19.2192 -2.46211 2.32735 0
M  V30 179 C 17.7782 -2.99585 2.27873 0
M  V30 180 C 16.9252 -1.72748 2.16918 0
M  V30 181 H 19.8762 -0.5791 1.47757 0
M  V30 182 H 19.8972 -3.2552 1.9702 0
M  V30 183 H 19.4092 -2.02036 3.31365 0
M  V30 184 H 17.5102 -3.48152 1.32745 0
M  V30 185 H 17.6232 -3.55646 3.21018 0
M  V30 186 H 15.9872 -1.95416 1.63354 0
M  V30 187 H 16.7702 -1.30686 3.17452 0
M  V30 188 N 19.2153 -1.21501 -1.00376 0
M  V30 189 C 20.4633 -1.03095 -1.73827 0
M  V30 190 C 20.7843 0.436341 -1.90055 0
M  V30 191 O 20.0543 1.31466 -1.45236 0
M  V30 192 H 18.6343 -0.378487 -0.644016 0
M  V30 193 H 21.2963 -1.52831 -1.20949 0
M  V30 194 H 20.3923 -1.49991 -2.73695 0
M  V30 195 N 20.6934 1.19889 -1.02296 0
M  V30 196 C 22.1044 1.71124 -0.746568 0
M  V30 197 C 22.4554 1.81939 0.734335 0
M  V30 198 O 21.5804 1.48639 1.57275 0
M  V30 199 C 22.1754 3.10804 -1.34857 0
M  V30 200 C 20.7344 3.59323 -1.1209 0
M  V30 201 C 19.8814 2.3635 -1.45031 0
M  V30 202 H 22.8324 1.04813 -1.19163 0
M  V30 203 H 22.8534 3.73186 -0.742437 0
M  V30 204 H 22.3654 3.029 -2.42638 0
M  V30 205 H 20.4664 3.7255 -0.0610337 0
M  V30 206 H 20.5794 4.4378 -1.80544 0
M  V30 207 H 18.9434 2.39399 -0.869487 0
M  V30 208 H 19.7264 2.31081 -2.53883 0
M  V30 209 N 22.1715 0.800033 1.35784 0
M  V30 210 C 23.4195 0.376597 1.9856 0
M  V30 211 C 23.7405 -1.05812 1.63795 0
M  V30 212 O 23.0105 -1.73103 0.917171 0
M  V30 213 H 21.5905 0.136261 0.734467 0
M  V30 214 H 24.2525 1.02442 1.65806 0
M  V30 215 H 23.3485 0.477002 3.08433 0
M  V30 216 N 23.6496 -1.47581 0.552962 0
M  V30 217 C 24.5596 -2.33743 -0.200353 0
M  V30 218 C 25.5756 -1.47928 -0.916151 0
M  V30 219 O 26.7516 -1.80865 -0.885993 0
M  V30 220 C 23.8166 -3.24536 -1.21973 0
M  V30 221 C 22.8776 -4.26238 -0.511819 0
M  V30 222 C 22.1106 -5.12693 -1.48263 0
M  V30 223 O 22.3336 -5.01525 -2.71714 0
M  V30 224 O 21.2676 -5.93375 -1.00945 0
M  V30 225 H 25.0936 -2.9945 0.506304 0
M  V30 226 H 22.6786 -1.46071 0.313622 0
M  V30 227 H 24.5606 -3.80631 -1.80827 0
M  V30 228 H 23.2356 -2.61462 -1.90839 0
M  V30 229 H 22.1426 -3.73914 0.117799 0
M  V30 230 H 23.4756 -4.92014 0.135308 0
M  V30 231 N 25.1277 -0.289203 -1.54924 0
M  V30 232 C 26.3737 0.323998 -2.00195 0
M  V30 233 C 26.7067 1.54441 -1.17735 0
M  V30 234 O 25.9817 1.92875 -0.250878 0
M  V30 235 C 26.2647 0.692276 -3.53383 0
M  V30 236 C 26.1177 -0.536457 -4.46589 0
M  V30 237 C 27.4367 1.52335 -4.12895 0
M  V30 238 H 24.5557 0.116289 -0.727768 0
M  V30 239 H 27.1977 -0.398954 -1.85764 0
M  V30 240 H 25.3477 1.30822 -3.65811 0
M  V30 241 H 27.0197 -1.17499 -4.46085 0
M  V30 242 H 25.2627 -1.17192 -4.1767 0
M  V30 243 H 25.9337 -0.234806 -5.515 0
M  V30 244 H 28.4097 1.00302 -4.0383 0
M  V30 245 H 27.2857 1.74982 -5.20262 0
M  V30 246 H 27.5467 2.50886 -3.64018 0
M  V30 247 N 26.6058 1.57591 -0.0167156 0
M  V30 248 C 28.0168 1.79201 0.523834 0
M  V30 249 C 28.3678 0.925796 1.72984 0
M  V30 250 O 27.4928 0.132792 2.15992 0
M  V30 251 C 28.0878 3.25 0.957091 0
M  V30 252 C 26.6468 3.47648 1.44283 0
M  V30 253 C 25.7938 2.74374 0.401757 0
M  V30 254 H 28.7448 1.56831 -0.242816 0
M  V30 255 H 28.7658 3.34031 1.82219 0
M  V30 256 H 28.2778 3.88019 0.0791415 0
M  V30 257 H 26.3788 2.89866 2.34113 0
M  V30 258 H 26.4918 4.56352 1.45877 0
M  V30 259 H 24.8558 2.39485 0.867121 0
M  V30 260 H 25.6388 3.40102 -0.467513 0
M  V30 261 N 28.0839 -0.256276 1.55502 0
M  V30 262 C 29.3319 -0.983672 1.76545 0
M  V30 263 C 29.6529 -1.86206 0.578982 0
M  V30 264 O 28.9229 -1.91656 -0.405577 0
M  V30 265 H 27.5029 -0.366191 0.651086 0
M  V30 266 H 30.1649 -0.276479 1.92929 0
M  V30 267 H 29.2609 -1.61087 2.67315 0
M  V30 268 N 29.562 -1.4872 -0.521534 0
M  V30 269 C 30.472 -1.66569 -1.65203 0
M  V30 270 C 31.488 -0.548197 -1.65139 0
M  V30 271 O 32.664 -0.820339 -1.83936 0
M  V30 272 C 29.729 -1.70917 -3.01642 0
M  V30 273 C 28.79 -2.94356 -3.12495 0
M  V30 274 C 28.023 -2.98487 -4.42426 0
M  V30 275 O 28.246 -2.10786 -5.30024 0
M  V30 276 O 27.18 -3.90746 -4.57822 0
M  V30 277 H 31.006 -2.62298 -1.5308 0
M  V30 278 H 28.591 -1.3222 -0.695565 0
M  V30 279 H 30.473 -1.7625 -3.82771 0
M  V30 280 H 29.148 -0.783633 -3.14071 0
M  V30 281 H 28.055 -2.94552 -2.3063 0
M  V30 282 H 29.388 -3.86322 -3.04986 0
M  V30 283 N 31.0401 0.771051 -1.3745 0
M  V30 284 C 32.2881 1.52661 -1.32435 0
M  V30 285 C 32.6091 1.9479 0.0905024 0
M  V30 286 O 31.8791 1.66348 1.03466 0
M  V30 287 H 30.4591 0.566218 -0.487244 0
M  V30 288 H 33.1211 0.917636 -1.71946 0
M  V30 289 H 32.2171 2.42568 -1.96385 0
M  V30 290 N 32.5182 1.22032 0.997298 0
M  V30 291 C 33.9292 1.0397 1.55071 0
M  V30 292 C 34.2802 -0.398192 1.92117 0
M  V30 293 O 33.4052 -1.28254 1.74298 0
M  V30 294 C 34.0002 1.88109 2.81781 0
M  V30 295 C 32.5592 1.74357 3.33581 0
M  V30 296 C 31.7062 1.84846 2.06706 0
M  V30 297 H 34.6572 1.35941 0.818883 0
M  V30 298 H 34.6782 1.39589 3.53971 0
M  V30 299 H 34.1902 2.92754 2.54787 0
M  V30 300 H 32.2912 0.72427 3.65493 0
M  V30 301 H 32.4042 2.56772 4.04481 0
M  V30 302 H 30.7682 1.28238 2.20062 0
M  V30 303 H 31.5512 2.91014 1.82114 0
M  V30 304 N 33.9963 -1.19345 1.0293 0
M  V30 305 C 35.4073 -1.70725 0.755633 0
M  V30 306 C 35.7583 -1.82326 -0.724676 0
M  V30 307 O 34.8833 -1.49471 -1.56484 0
M  V30 308 C 35.4783 -3.10084 1.36503 0
M  V30 309 C 34.0373 -3.58723 1.13994 0
M  V30 310 C 33.1843 -2.35577 1.46283 0
M  V30 311 H 36.1353 -1.0418 1.19718 0
M  V30 312 H 36.1563 -3.72787 0.762217 0
M  V30 313 H 35.6683 -3.01609 2.44241 0
M  V30 314 H 33.7693 -3.72512 0.0807901 0
M  V30 315 H 33.8823 -4.42816 1.82894 0
M  V30 316 H 32.2463 -2.38935 0.88217 0
M  V30 317 H 33.0293 -2.29731 2.55105 0
M  V30 318 N 35.4744 -0.807222 -1.35358 0
M  V30 319 C 36.7224 -0.387122 -1.98358 0
M  V30 320 C 37.0434 1.04942 -1.64354 0
M  V30 321 O 36.3134 1.72615 -0.926339 0
M  V30 322 H 34.8934 -0.140154 -0.733734 0
M  V30 323 H 37.5554 -1.0332 -1.6526 0
M  V30 324 H 36.6514 -0.493352 -3.08176 0
M  V30 325 N 36.9525 1.47285 -0.560781 0
M  V30 326 C 38.3635 1.86258 -0.128343 0
M  V30 327 C 38.7145 1.46699 1.30284 0
M  V30 328 O 37.8395 0.871698 1.98067 0
M  V30 329 C 38.4345 3.38044 -0.22614 0
M  V30 330 C 36.9935 3.76096 0.151283 0
M  V30 331 C 36.1405 2.71335 -0.572084 0
M  V30 332 H 39.0915 1.38752 -0.770297 0
M  V30 333 H 39.1125 3.76441 0.554322 0
M  V30 334 H 38.6245 3.66806 -1.26788 0
M  V30 335 H 36.7255 3.52951 1.19399 0
M  V30 336 H 36.8385 4.78641 -0.209765 0
M  V30 337 H 35.2025 2.54696 -0.0147653 0
M  V30 338 H 35.9855 3.02938 -1.61504 0
M  V30 339 N 38.4306 0.297415 1.54768 0
M  V30 340 C 39.6786 -0.312295 1.99673 0
M  V30 341 C 39.9996 -1.54686 1.18732 0
M  V30 342 O 39.2696 -1.93854 0.282382 0
M  V30 343 H 37.8496 -0.118381 0.73756 0
M  V30 344 H 40.5116 0.407915 1.90583 0
M  V30 345 H 39.6076 -0.586813 3.06534 0
M  V30 346 N 39.9087 -1.5758 0.0250728 0
M  V30 347 C 41.1567 -1.91255 -0.653151 0
M  V30 348 C 41.4777 -0.901691 -1.729 0
M  V30 349 O 40.7477 0.0573785 -1.95816 0
M  V30 350 H 39.3277 -0.705942 -0.244243 0
M  V30 351 H 41.9897 -1.94767 0.0719209 0
M  V30 352 H 41.0857 -2.91752 -1.10847 0
M  V30 353 N 41.3868 0.248026 -1.55636 0
M  V30 354 C 42.6148 0.993808 -1.81469 0
M  V30 355 C 43.0298 1.78991 -0.60064 0
M  V30 356 O 42.3868 1.77345 0.430682 0
M  V30 357 C 42.4378 1.93258 -3.05506 0
M  V30 358 O 42.1588 1.16869 -4.22224 0
M  V30 359 C 43.6598 2.79444 -3.4413 0
M  V30 360 H 40.8798 0.292486 -0.603898 0
M  V30 361 H 43.4238 0.271253 -2.02693 0
M  V30 362 H 41.5788 2.60943 -2.86335 0
M  V30 363 H 41.9928 1.80359 -4.92515 0
M  V30 364 H 43.4668 3.41066 -4.34026 0
M  V30 365 H 43.9438 3.50499 -2.64665 0
M  V30 366 H 44.5498 2.17214 -3.65648 0
M  V30 367 N 42.8649 1.48995 0.513639 0
M  V30 368 C 44.1129 1.57531 1.26604 0
M  V30 369 C 44.4339 0.258236 1.93283 0
M  V30 370 O 43.7039 -0.721502 1.8213 0
M  V30 371 H 42.2839 0.580387 0.470276 0
M  V30 372 H 44.9459 1.85552 0.596373 0
M  V30 373 H 44.0419 2.36486 2.03669 0
M  V30 374 N 44.343 -0.763751 1.37857 0
M  V30 375 C 45.591 -1.51957 1.33243 0
M  V30 376 C 45.912 -1.94835 -0.0801709 0
M  V30 377 O 45.182 -1.66894 -1.02582 0
M  V30 378 H 43.762 -0.563626 0.49024 0
M  V30 379 H 46.424 -0.908504 1.7243 0
M  V30 380 H 45.52 -2.41523 1.97669 0
M  V30 381 N 45.8211 -1.22559 -0.990812 0
M  V30 382 C 47.0691 -1.04933 -1.72724 0
M  V30 383 C 47.3901 0.416158 -1.90508 0
M  V30 384 O 46.6601 1.29918 -1.46622 0
M  V30 385 H 45.2401 -0.385296 -0.639965 0
M  V30 386 H 47.9021 -1.54105 -1.19322 0
M  V30 387 H 46.9981 -1.52886 -2.72089 0
M  V30 388 N 47.2992 1.18797 -1.03562 0
M  V30 389 C 48.7102 1.70322 -0.764676 0
M  V30 390 C 49.0612 1.82708 0.714996 0
M  V30 391 O 48.1862 1.50299 1.55689 0
M  V30 392 C 48.7812 3.09356 -1.38145 0
M  V30 393 C 47.3402 3.58114 -1.15895 0
M  V30 394 C 46.4872 2.34798 -1.4753 0
M  V30 395 H 49.4382 1.03543 -1.20268 0
M  V30 396 H 49.4592 3.72378 -0.781977 0
M  V30 397 H 48.9712 3.00309 -2.45837 0
M  V30 398 H 47.0722 3.72464 -0.100544 0
M  V30 399 H 47.1852 4.4184 -1.8524 0
M  V30 400 H 45.5492 2.38464 -0.894829 0
M  V30 401 H 46.3322 2.28375 -2.56319 0
M  V30 402 N 48.7773 0.814389 1.34928 0
M  V30 403 C 50.0253 0.397636 1.9815 0
M  V30 404 C 50.3463 -1.04069 1.64908 0
M  V30 405 O 49.6163 -1.72121 0.93548 0
M  V30 406 H 48.1963 0.144043 0.732981 0
M  V30 407 H 50.8583 1.04195 1.6471 0
M  V30 408 H 49.9543 0.509688 3.0791 0
M  V30 409 N 50.2554 -1.46986 0.568584 0
M  V30 410 C 51.6714 -1.57946 0.229189 0
M  V30 411 C 51.8714 -1.56567 -1.26843 0
M  V30 412 O 50.9274 -1.47511 -2.04931 0
M  V30 413 C 52.2404 -2.87963 0.865909 0
M  V30 414 C 53.7884 -3.01568 0.838188 0
M  V30 415 C 54.2634 -4.34301 1.45419 0
M  V30 416 N 55.7544 -4.40965 1.41788 0
M  V30 417 C 56.4894 -5.42256 1.86403 0
M  V30 418 N 55.9854 -6.50297 2.38926 0
M  V30 419 N 57.7784 -5.3337 1.77405 0
M  V30 420 H 49.9294 -1.46126 1.54146 0
M  V30 421 H 52.1924 -0.696156 0.643484 0
M  V30 422 H 51.8984 -2.94742 1.91886 0
M  V30 423 H 51.7724 -3.75423 0.365687 0
M  V30 424 H 54.1594 -2.94379 -0.206106 0
M  V30 425 H 54.2404 -2.1562 1.37629 0
M  V30 426 H 53.8844 -4.42247 2.49761 0
M  V30 427 H 53.8144 -5.19 0.891435 0
M  V30 428 H 56.3054 -3.63484 1.03381 0
M  V30 429 H 56.6184 -7.23777 2.70863 0
M  V30 430 H 54.9634 -6.51155 2.42944 0
M  V30 431 H 58.1544 -4.47865 1.3614 0
M  V30 432 H 58.3274 -6.12169 2.12492 0
M  V30 433 N 51.7335 -0.305618 -1.54608 0
M  V30 434 C 52.9815 0.301701 -1.99835 0
M  V30 435 C 53.3025 1.54054 -1.19551 0
M  V30 436 O 52.5725 1.93702 -0.292658 0
M  V30 437 H 51.1525 0.114468 -0.738178 0
M  V30 438 H 53.8145 -0.418016 -1.90364 0
M  V30 439 H 52.9105 0.570548 -3.06841 0
M  V30 440 N 53.2116 1.57565 -0.0334293 0
M  V30 441 C 54.6276 1.56297 0.322997 0
M  V30 442 C 54.8276 1.03945 1.7262 0
M  V30 443 O 53.8836 0.688109 2.42943 0
M  V30 444 C 55.1966 3.00232 0.167664 0
M  V30 445 C 56.7446 3.12078 0.240107 0
M  V30 446 C 57.2196 4.57859 0.113513 0
M  V30 447 N 58.7106 4.62887 0.170359 0
M  V30 448 C 59.4456 5.73319 0.0962517 0
M  V30 449 N 58.9416 6.92794 -0.0291881 0
M  V30 450 N 60.7346 5.61898 0.150551 0
M  V30 451 H 52.8856 1.89923 -0.950956 0
M  V30 452 H 55.1486 0.873824 -0.367608 0
M  V30 453 H 54.8546 3.42501 -0.799102 0
M  V30 454 H 54.7286 3.654 0.936083 0
M  V30 455 H 57.1156 2.69718 1.19733 0
M  V30 456 H 57.1966 2.49623 -0.558763 0
M  V30 457 H 56.8406 5.009 -0.840314 0
M  V30 458 H 56.7706 5.18299 0.931302 0
M  V30 459 H 59.2616 3.76954 0.26728 0
M  V30 460 H 59.5746 7.7276 -0.0789252 0
M  V30 461 H 57.9196 6.94971 -0.0640299 0
M  V30 462 H 61.1106 4.67448 0.246981 0
M  V30 463 H 61.2836 6.47938 0.0893365 0
M  V30 464 N 54.6897 -0.239769 1.55765 0
M  V30 465 C 56.1007 -0.808263 1.68297 0
M  V30 466 C 56.4517 -1.85736 0.632181 0
M  V30 467 O 55.5767 -2.15277 -0.220204 0
M  V30 468 C 56.1717 -1.47284 3.05111 0
M  V30 469 C 54.7307 -1.98895 3.19559 0
M  V30 470 C 53.8777 -0.842575 2.64189 0
M  V30 471 H 56.8287 -0.0154422 1.58692 0
M  V30 472 H 56.8497 -2.34111 2.99954 0
M  V30 473 H 56.3617 -0.709053 3.81568 0
M  V30 474 H 54.4627 -2.78132 2.47938 0
M  V30 475 H 54.5757 -2.18143 4.26556 0
M  V30 476 H 52.9397 -1.24501 2.22197 0
M  V30 477 H 53.7227 -0.0917552 3.43177 0
M  V30 478 N 56.1678 -1.49265 -0.50573 0
M  V30 479 C 57.3928 -1.62478 -1.28902 0
M  V30 480 C 57.8178 -0.294332 -1.85783 0
M  V30 481 O 57.1758 0.737412 -1.65626 0
M  V30 482 C 57.2238 -2.69268 -2.39848 0
M  V30 483 O 56.3278 -2.28113 -3.43567 0
M  V30 484 H 55.6688 -0.54399 -0.380751 0
M  V30 485 H 58.1988 -1.95421 -0.605952 0
M  V30 486 H 58.2088 -2.91291 -2.85681 0
M  V30 487 H 56.8838 -3.65846 -1.97812 0
M  V30 488 H 55.4608 -2.16401 -3.03685 0
M  V30 489 N 57.6459 0.756429 -1.3826 0
M  V30 490 C 58.8709 1.55077 -1.37717 0
M  V30 491 C 59.2959 1.88073 0.03164 0
M  V30 492 O 58.6539 1.50364 1.01293 0
M  V30 493 C 58.7019 2.8283 -2.23695 0
M  V30 494 O 57.8059 3.77862 -1.6521 0
M  V30 495 H 57.1469 0.469152 -0.469885 0
M  V30 496 H 59.6769 0.935019 -1.81985 0
M  V30 497 H 59.6869 3.31783 -2.37453 0
M  V30 498 H 58.3619 2.58144 -3.2609 0
M  V30 499 H 56.9389 3.36555 -1.60578 0
M  V30 500 N 59.124 1.23083 0.984299 0
M  V30 501 C 60.354 1.08556 1.75781 0
M  V30 502 C 60.762 -0.366171 1.85623 0
M  V30 503 O 60.105 -1.26524 1.33182 0
M  V30 504 C 60.167 1.63208 3.20318 0
M  V30 505 C 59.831 3.11922 3.33997 0
M  V30 506 C 60.828 4.09259 3.2063 0
M  V30 507 C 58.513 3.51552 3.58771 0
M  V30 508 C 60.507 5.4421 3.31835 0
M  V30 509 C 58.194 4.86649 3.69616 0
M  V30 510 C 59.192 5.82787 3.56157 0
M  V30 511 O 58.88 7.15431 3.66626 0
M  V30 512 H 58.612 0.380713 0.5586 0
M  V30 513 H 61.166 1.63321 1.2456 0
M  V30 514 H 59.396 1.0286 3.72769 0
M  V30 515 H 61.085 1.44216 3.79416 0
M  V30 516 H 61.851 3.79984 3.01392 0
M  V30 517 H 57.73 2.77239 3.6832 0
M  V30 518 H 61.274 6.1923 3.21247 0
M  V30 519 H 57.171 5.15601 3.88363 0
M  V30 520 H 57.939 7.23127 3.83445 0
M  V30 521 N 60.6021 -1.18246 1.0419 0
M  V30 522 C 62.0181 -1.40269 0.761366 0
M  V30 523 C 62.2181 -1.90777 -0.648578 0
M  V30 524 O 61.2741 -2.0929 -1.41258 0
M  V30 525 C 62.5871 -2.40237 1.8085 0
M  V30 526 C 64.1351 -2.53961 1.82955 0
M  V30 527 C 64.6101 -3.57194 2.86664 0
M  V30 528 N 66.1011 -3.64702 2.85563 0
M  V30 529 C 66.8361 -4.44309 3.6246 0
M  V30 530 N 66.3321 -5.27514 4.49111 0
M  V30 531 N 68.1251 -4.39084 3.50944 0
M  V30 532 H 60.2761 -0.837882 1.95175 0
M  V30 533 H 62.5391 -0.430608 0.84456 0
M  V30 534 H 62.2451 -2.10176 2.81991 0
M  V30 535 H 62.1191 -3.39601 1.64168 0
M  V30 536 H 64.5061 -2.83338 0.824855 0
M  V30 537 H 64.5871 -1.54706 2.03715 0
M  V30 538 H 64.2311 -3.28558 3.87314 0
M  V30 539 H 64.1611 -4.5613 2.6316 0
M  V30 540 H 66.6521 -3.05289 2.22727 0
M  V30 541 H 66.9651 -5.85411 5.04493 0
M  V30 542 H 65.3101 -5.2693 4.53178 0
M  V30 543 H 68.5011 -3.7313 2.82651 0
M  V30 544 H 68.6741 -5.00883 4.11121 0
M  V30 545 N 62.0802 -0.821533 -1.34494 0
M  V30 546 C 63.0432 -0.247847 -2.27856 0
M  V30 547 C 64.0432 0.573453 -1.50227 0
M  V30 548 O 65.2332 0.389759 -1.69784 0
M  V30 549 C 62.3652 0.652698 -3.34593 0
M  V30 550 H 63.5582 -1.07146 -2.80107 0
M  V30 551 H 61.1112 -0.593291 -1.44602 0
M  V30 552 H 61.8462 1.49943 -2.87555 0
M  V30 553 H 61.6312 0.065292 -3.92046 0
M  V30 554 H 63.1212 1.04793 -4.04238 0
M  V30 555 N 63.5583 1.46682 -0.576371 0
M  V30 556 C 64.4883 2.33028 0.148397 0
M  V30 557 C 65.4693 1.44961 0.889956 0
M  V30 558 O 66.6543 1.73789 0.866662 0
M  V30 559 C 63.7843 3.27117 1.1667 0
M  V30 560 C 62.7383 4.24575 0.540386 0
M  V30 561 C 62.0643 5.08126 1.6647 0
M  V30 562 C 63.3643 5.19722 -0.518331 0
M  V30 563 H 65.0583 2.93875 -0.572509 0
M  V30 564 H 62.6043 1.41315 -0.276768 0
M  V30 565 H 64.5573 3.86374 1.68204 0
M  V30 566 H 63.2813 2.64364 1.9178 0
M  V30 567 H 61.9403 3.66571 0.0461769 0
M  V30 568 H 61.5883 4.41762 2.40531 0
M  V30 569 H 61.2883 5.74122 1.25131 0
M  V30 570 H 62.8123 5.70246 2.18293 0
M  V30 571 H 64.2263 5.73232 -0.0883058 0
M  V30 572 H 62.6233 5.94026 -0.851679 0
M  V30 573 H 63.6933 4.64037 -1.40703 0
M  V30 574 N 65.0364 0.313813 1.54444 0
M  V30 575 C 66.4524 -0.0391619 1.59552 0
M  V30 576 C 66.6524 -1.51322 1.33056 0
M  V30 577 O 65.7084 -2.26782 1.11022 0
M  V30 578 C 67.0214 0.370302 2.98411 0
M  V30 579 C 68.5694 0.320139 3.11358 0
M  V30 580 C 69.0444 0.704617 4.52547 0
M  V30 581 N 70.5354 0.657645 4.58508 0
M  V30 582 C 71.2704 0.927453 5.6585 0
M  V30 583 N 70.7664 1.26389 6.81174 0
M  V30 584 N 72.5594 0.853662 5.5558 0
M  V30 585 H 64.7104 1.27433 1.69925 0
M  V30 586 H 66.9734 0.517511 0.794284 0
M  V30 587 H 66.6794 1.39694 3.22767 0
M  V30 588 H 66.5534 -0.269619 3.76235 0
M  V30 589 H 68.9404 -0.697275 2.86744 0
M  V30 590 H 69.0214 0.99486 2.35661 0
M  V30 591 H 68.6654 1.7199 4.77893 0
M  V30 592 H 68.5954 0.00768843 5.26599 0
M  V30 593 H 71.0864 0.409067 3.75679 0
M  V30 594 H 71.3994 1.4554 7.58972 0
M  V30 595 H 69.7444 1.30206 6.82694 0
M  V30 596 H 72.9354 0.590383 4.64362 0
M  V30 597 H 73.1084 1.0673 6.3915 0
M  V30 598 N 66.5145 -1.57545 0.0417849 0
M  V30 599 C 67.7395 -1.97035 -0.647455 0
M  V30 600 C 68.1645 -0.918775 -1.64135 0
M  V30 601 O 67.5225 0.119006 -1.80909 0
M  V30 602 C 67.5705 -3.35609 -1.31905 0
M  V30 603 O 66.6745 -3.3287 -2.43457 0
M  V30 604 H 66.0155 -0.64211 -0.169086 0
M  V30 605 H 68.5455 -2.04318 0.107399 0
M  V30 606 H 68.5555 -3.72126 -1.67291 0
M  V30 607 H 67.2305 -4.11685 -0.590586 0
M  V30 608 H 65.8075 -3.08087 -2.10088 0
M  V30 609 N 67.9926 0.231505 -1.5589 0
M  V30 610 C 68.9556 1.27028 -1.90779 0
M  V30 611 C 69.9556 1.40308 -0.785507 0
M  V30 612 O 71.1456 1.38744 -1.05336 0
M  V30 613 C 68.2776 2.64566 -2.14983 0
M  V30 614 H 69.4706 0.973017 -2.83677 0
M  V30 615 H 67.0236 0.471486 -1.49019 0
M  V30 616 H 67.7586 2.99406 -1.24604 0
M  V30 617 H 67.5436 2.56305 -2.96732 0
M  V30 618 H 69.0336 3.39543 -2.43105 0
M  V30 619 N 69.4707 1.49531 0.497807 0
M  V30 620 C 70.7167 1.59415 1.25358 0
M  V30 621 C 71.0497 0.281422 1.9215 0
M  V30 622 O 70.3247 -0.715249 1.80871 0
M  V30 623 C 70.6077 2.75566 2.3181 0
M  V30 624 C 70.4607 4.16642 1.69498 0
M  V30 625 C 71.7797 2.87347 3.33346 0
M  V30 626 H 68.8987 0.580244 0.454408 0
M  V30 627 H 71.5407 1.81827 0.551262 0
M  V30 628 H 69.6907 2.56587 2.91711 0
M  V30 629 H 71.3627 4.47145 1.13399 0
M  V30 630 H 69.6057 4.22141 0.998978 0
M  V30 631 H 70.2767 4.93792 2.46725 0
M  V30 632 H 72.7527 3.04634 2.83438 0
M  V30 633 H 71.6287 3.70289 4.05188 0
M  V30 634 H 71.8897 1.96834 3.95865 0
M  V30 635 N 70.9488 -0.749086 1.3866 0
M  V30 636 C 72.1738 -1.54344 1.38538 0
M  V30 637 C 72.5988 -1.88088 -0.0216655 0
M  V30 638 O 71.9568 -1.50899 -1.00494 0
M  V30 639 C 72.0048 -2.8164 2.25192 0
M  V30 640 O 71.1088 -3.7698 1.67212 0
M  V30 641 H 70.4498 -0.466654 0.472367 0
M  V30 642 H 72.9798 -0.925355 1.82478 0
M  V30 643 H 72.9898 -3.30519 2.3921 0
M  V30 644 H 71.6648 -2.56411 3.27454 0
M  V30 645 H 70.2418 -3.35699 1.6236 0
M  V30 646 N 72.4269 -1.23603 -0.977757 0
M  V30 647 C 73.6519 -1.09735 -1.75991 0
M  V30 648 C 74.0769 0.346858 -1.84874 0
M  V30 649 O 73.4349 1.25093 -1.3123 0
M  V30 650 C 73.4829 -1.73051 -3.16363 0
M  V30 651 O 72.5869 -0.994452 -4.0023 0
M  V30 652 H 71.9279 -0.384476 -0.541364 0
M  V30 653 H 74.4579 -1.6371 -1.2272 0
M  V30 654 H 74.4679 -1.78398 -3.66931 0
M  V30 655 H 73.1429 -2.78137 -3.09213 0
M  V30 656 H 71.7199 -1.01812 -3.58732 0
M  V30 657 N 73.905 1.17692 -1.04816 0
M  V30 658 C 74.835 2.23777 -0.666791 0
M  V30 659 C 75.816 1.66796 0.33361 0
M  V30 660 O 77.001 1.93039 0.212042 0
M  V30 661 C 74.131 3.47281 -0.0367933 0
M  V30 662 C 73.085 4.17059 -0.961546 0
M  V30 663 C 72.411 5.34342 -0.195626 0
M  V30 664 C 73.711 4.69713 -2.28402 0
M  V30 665 H 75.405 2.55933 -1.55367 0
M  V30 666 H 72.951 1.23019 -0.748484 0
M  V30 667 H 74.904 4.20706 0.241775 0
M  V30 668 H 73.628 3.14381 0.885004 0
M  V30 669 H 72.287 3.45541 -1.22462 0
M  V30 670 H 71.935 4.97692 0.728816 0
M  V30 671 H 71.635 5.81966 -0.811775 0
M  V30 672 H 73.159 6.10553 0.0757473 0
M  V30 673 H 74.573 5.34794 -2.06563 0
M  V30 674 H 72.97 5.279 -2.8538 0
M  V30 675 H 74.04 3.86726 -2.92525 0
M  V30 676 N 75.3831 0.828654 1.34056 0
M  V30 677 C 76.3461 0.259927 2.27721 0
M  V30 678 C 77.3461 -0.565478 1.50529 0
M  V30 679 O 78.5361 -0.38075 1.69988 0
M  V30 680 C 75.6681 -0.634944 3.34935 0
M  V30 681 H 76.8611 1.0863 2.79534 0
M  V30 682 H 74.4141 0.600951 1.44285 0
M  V30 683 H 75.1491 -1.48416 2.88346 0
M  V30 684 H 74.9341 -0.0444999 3.92075 0
M  V30 685 H 76.4241 -1.02648 4.04788 0
M  V30 686 N 76.8612 -1.46375 0.584142 0
M  V30 687 C 78.2772 -1.57694 0.245929 0
M  V30 688 C 78.4772 -1.57903 -1.25175 0
M  V30 689 O 77.5332 -1.49676 -2.03355 0
M  V30 690 C 78.8462 -2.87028 0.896402 0
M  V30 691 C 80.3942 -3.00662 0.870127 0
M  V30 692 C 80.8692 -4.32734 1.50017 0
M  V30 693 N 82.3602 -4.39436 1.46458 0
M  V30 694 C 83.0952 -5.40248 1.92144 0
M  V30 695 N 82.5912 -6.47726 2.4581 0
M  V30 696 N 84.3842 -5.31459 1.83052 0
M  V30 697 H 76.5352 -1.44483 1.55687 0
M  V30 698 H 78.7982 -0.689291 0.650831 0
M  V30 699 H 78.5042 -2.9269 1.95002 0
M  V30 700 H 78.3782 -3.75014 0.405486 0
M  V30 701 H 80.7652 -2.94581 -0.174871 0
M  V30 702 H 80.8462 -2.14148 1.39908 0
M  V30 703 H 80.4902 -4.39573 2.54437 0
M  V30 704 H 80.4202 -5.18025 0.946432 0
M  V30 705 H 82.9112 -3.62367 1.07231 0
M  V30 706 H 83.2242 -7.20863 2.78525 0
M  V30 707 H 81.5692 -6.48542 2.49836 0
M  V30 708 H 84.7602 -4.46396 1.40883 0
M  V30 709 H 84.9332 -6.09881 2.18973 0
M  V30 710 N 78.3393 -0.321999 -1.54275 0
M  V30 711 C 79.5853 0.281461 -2.00837 0
M  V30 712 C 79.9183 1.51909 -1.20985 0
M  V30 713 O 79.1933 1.923 -0.291733 0
M  V30 714 C 79.4763 0.617162 -3.54772 0
M  V30 715 C 79.3293 -0.631064 -4.45351 0
M  V30 716 C 80.6483 1.43542 -4.16033 0
M  V30 717 H 77.7673 0.100826 -0.730071 0
M  V30 718 H 80.4093 -0.438268 -1.84876 0
M  V30 719 H 78.5593 1.23034 -3.68504 0
M  V30 720 H 80.2313 -1.26934 -4.43492 0
M  V30 721 H 78.4743 -1.26025 -4.15091 0
M  V30 722 H 79.1453 -0.351735 -5.50878 0
M  V30 723 H 81.6213 0.917134 -4.05867 0
M  V30 724 H 80.4973 1.63907 -5.23856 0
M  V30 725 H 80.7583 2.43108 -3.69257 0
M  V30 726 N 79.8174 1.5752 -0.0501392 0
M  V30 727 C 81.0944 1.83996 0.663685 0
M  V30 728 C 81.4744 0.938339 1.89099 0
M  V30 729 O 80.8224 -0.00087759 2.285 0
M  V30 730 C 81.0324 3.33702 1.02196 0
M  V30 731 C 82.3804 4.00691 1.40469 0
M  V30 732 O 83.4044 3.38321 1.11433 0
M  V30 733 O 82.2634 5.10658 1.94654 0
M  V30 734 H 79.3574 0.759385 0.32751 0
M  V30 735 H 81.9034 1.69514 -0.0794238 0
M  V30 736 H 80.6754 3.91015 0.149364 0
M  V30 737 H 80.2984 3.53368 1.82255 0
M  V30 738 N 81.2955 -0.223234 1.56011 0
M  V30 739 C 82.5725 -0.972108 1.69733 0
M  V30 740 C 82.9525 -2.02485 0.59691 0
M  V30 741 O 82.3005 -2.25037 -0.396324 0
M  V30 742 C 82.5105 -1.58407 3.10979 0
M  V30 743 C 83.8585 -2.07696 3.70334 0
M  V30 744 O 84.8825 -1.68304 3.1393 0
M  V30 745 O 83.7415 -2.80096 4.69264 0
M  V30 746 H 80.8355 -0.453993 0.691245 0
M  V30 747 H 83.3815 -0.215149 1.68331 0
M  V30 748 H 82.1535 -0.823831 3.82529 0
M  V30 749 H 81.7765 -2.40661 3.16493 0
M  V30 750 N 82.7736 -1.49793 -0.48987 0
M  V30 751 C 84.0206 -1.59841 -1.24327 0
M  V30 752 C 84.3486 -0.290135 -1.92324 0
M  V30 753 O 83.6036 0.722749 -1.81865 0
M  V30 754 C 83.9026 -2.71488 -2.32441 0
M  V30 755 C 83.5686 -4.12614 -1.81826 0
M  V30 756 C 82.2306 -4.51017 -1.67742 0
M  V30 757 C 84.5826 -5.00892 -1.4407 0
M  V30 758 C 81.9106 -5.75459 -1.14297 0
M  V30 759 C 84.2626 -6.25863 -0.920742 0
M  V30 760 C 82.9266 -6.63086 -0.766383 0
M  V30 761 H 82.1966 -0.584899 -0.454944 0
M  V30 762 H 84.8436 -1.83663 -0.542215 0
M  V30 763 H 83.1486 -2.4168 -3.0838 0
M  V30 764 H 84.8456 -2.76469 -2.90458 0
M  V30 765 H 81.4356 -3.82307 -1.93751 0
M  V30 766 H 85.6196 -4.7187 -1.53794 0
M  V30 767 H 80.8756 -6.02989 -1.01068 0
M  V30 768 H 85.0496 -6.9364 -0.619448 0
M  V30 769 H 82.6766 -7.59393 -0.350083 0
M  V30 770 N 84.2517 0.741722 -1.39055 0
M  V30 771 C 85.2017 1.84661 -1.33732 0
M  V30 772 C 86.1857 1.59397 -0.219401 0
M  V30 773 O 87.3777 1.71015 -0.456375 0
M  V30 774 C 84.5067 3.22512 -1.17647 0
M  V30 775 C 83.5927 3.53628 -2.34112 0
M  V30 776 N 83.9837 3.55723 -3.59576 0
M  V30 777 C 82.2817 3.83956 -2.26923 0
M  V30 778 C 82.9827 3.84443 -4.36553 0
M  V30 779 N 81.9587 4.01877 -3.66055 0
M  V30 780 H 85.7607 1.84576 -2.28711 0
M  V30 781 H 83.2747 0.939647 -1.32455 0
M  V30 782 H 85.2717 4.01597 -1.11917 0
M  V30 783 H 83.9317 3.2384 -0.236124 0
M  V30 784 H 84.9427 3.37196 -3.93089 0
M  V30 785 H 81.6197 3.92929 -1.41113 0
M  V30 786 H 83.0097 3.92588 -5.45274 0
M  V30 787 N 85.7298 1.2412 0.971189 0
M  V30 788 C 86.9698 1.09066 1.7287 0
M  V30 789 C 87.3338 -0.364794 1.88503 0
M  V30 790 O 88.5348 -0.636748 2.61149 0
M  V30 791 C 86.8058 1.80629 3.08396 0
M  V30 792 S 88.3648 1.81263 3.99611 0
M  V30 793 H 85.1828 0.390145 0.594397 0
M  V30 794 H 87.7848 1.57397 1.15959 0
M  V30 795 H 86.4888 2.85647 2.94676 0
M  V30 796 H 86.0198 1.32617 3.70373 0
M  V30 797 H 88.0348 0.877804 4.88374 0
M  V30 798 N 87.2079 -1.17134 1.05439 0
M  V30 799 C 88.1709 -2.19439 0.661764 0
M  V30 800 C 89.1709 -1.58199 -0.288042 0
M  V30 801 O 90.3609 -1.74053 -0.0715803 0
M  V30 802 C 87.4929 -3.40889 -0.0276209 0
M  V30 803 H 88.6859 -2.55688 1.56728 0
M  V30 804 H 86.2389 -1.31259 0.848567 0
M  V30 805 H 86.9739 -3.10187 -0.94629 0
M  V30 806 H 86.7589 -3.86586 0.655238 0
M  V30 807 H 88.2489 -4.16603 -0.288342 0
M  V30 808 N 88.686 -0.835752 -1.33615 0
M  V30 809 C 89.596 -0.269088 -2.33052 0
M  V30 810 C 90.612 0.603251 -1.63208 0
M  V30 811 O 91.788 0.508112 -1.94885 0
M  V30 812 C 88.853 0.549091 -3.42324 0
M  V30 813 C 87.914 -0.347156 -4.27894 0
M  V30 814 C 87.147 0.43207 -5.31948 0
M  V30 815 O 87.37 1.66409 -5.45586 0
M  V30 816 O 86.304 -0.192298 -6.01593 0
M  V30 817 H 90.13 -1.09243 -2.83372 0
M  V30 818 H 87.715 -0.598198 -1.36901 0
M  V30 819 H 89.597 1.01414 -4.09015 0
M  V30 820 H 88.272 1.34955 -2.94226 0
M  V30 821 H 87.179 -0.859979 -3.64081 0
M  V30 822 H 88.512 -1.1123 -4.79467 0
M  V30 823 N 90.1641 1.46063 -0.591896 0
M  V30 824 C 91.1111 2.30399 0.136069 0
M  V30 825 C 92.0811 1.41169 0.875238 0
M  V30 826 O 93.2661 1.70112 0.86409 0
M  V30 827 C 90.4061 3.25804 1.13781 0
M  V30 828 C 89.5191 4.30134 0.401137 0
M  V30 829 C 88.6541 5.12659 1.39121 0
M  V30 830 C 87.6931 6.0873 0.641462 0
M  V30 831 N 86.8301 6.8409 1.58004 0
M  V30 832 H 91.6701 2.92118 -0.589144 0
M  V30 833 H 89.2071 1.43959 -0.302342 0
M  V30 834 H 91.1651 3.79569 1.73156 0
M  V30 835 H 89.7951 2.65872 1.83062 0
M  V30 836 H 88.8471 3.79152 -0.307826 0
M  V30 837 H 90.1591 4.98458 -0.184565 0
M  V30 838 H 89.3131 5.70747 2.05749 0
M  V30 839 H 88.0521 4.44316 2.01084 0
M  V30 840 H 87.0571 5.49786 -0.0385419 0
M  V30 841 H 88.2821 6.79095 0.0270945 0
M  V30 842 H 86.2281 6.18449 2.18761 0
M  V30 843 H 86.1451 7.48709 1.04738 0
M  V30 844 H 87.4131 7.4673 2.23639 0
M  V30 845 N 91.6422 0.330177 1.54103 0
M  V30 846 C 92.8912 -0.271336 1.99867 0
M  V30 847 C 93.2042 -1.52723 1.22209 0
M  V30 848 O 94.4102 -2.20515 1.58383 0
M  V30 849 C 92.8662 -0.534032 3.55916 0
M  V30 850 C 92.4742 0.705193 4.42415 0
M  V30 851 C 94.2182 -1.09514 4.1013 0
M  V30 852 C 92.1252 0.414035 5.89949 0
M  V30 853 H 91.0552 -0.105166 0.74663 0
M  V30 854 H 93.7062 0.443429 1.78062 0
M  V30 855 H 92.0882 -1.30915 3.73734 0
M  V30 856 H 93.2622 1.4804 4.36372 0
M  V30 857 H 91.5772 1.18698 3.99124 0
M  V30 858 H 94.1742 -1.3277 5.17954 0
M  V30 859 H 94.5172 -2.04656 3.62521 0
M  V30 860 H 95.0502 -0.381038 3.95971 0
M  V30 861 H 91.7892 1.33481 6.41766 0
M  V30 862 H 91.3092 -0.323336 5.98928 0
M  V30 863 H 92.9882 0.0263105 6.46995 0
M  V30 864 N 93.1203 -1.57491 0.0584922 0
M  V30 865 C 94.3683 -1.92597 -0.612436 0
M  V30 866 C 94.6893 -0.938162 -1.70949 0
M  V30 867 O 93.9593 0.0158301 -1.95894 0
M  V30 868 H 92.5393 -0.710964 -0.229214 0
M  V30 869 H 95.2013 -1.94571 0.113218 0
M  V30 870 H 94.2973 -2.94038 -1.04633 0
M  V30 871 N 94.5984 0.214957 -1.56127 0
M  V30 872 C 95.5614 1.24997 -1.92116 0
M  V30 873 C 96.5614 1.39467 -0.800344 0
M  V30 874 O 97.7514 1.37619 -1.06802 0
M  V30 875 C 94.8834 2.62271 -2.17777 0
M  V30 876 H 96.0764 0.942875 -2.84693 0
M  V30 877 H 93.6294 0.455654 -1.49511 0
M  V30 878 H 94.3644 2.98068 -1.27773 0
M  V30 879 H 94.1494 2.53143 -2.99434 0
M  V30 880 H 95.6394 3.36946 -2.46693 0
M  V30 881 N 96.0765 1.50051 0.48192 0
M  V30 882 C 97.3245 1.60181 1.23234 0
M  V30 883 C 97.6455 0.299176 1.92691 0
M  V30 884 O 96.9155 -0.682708 1.83619 0
M  V30 885 H 95.4955 0.590232 0.457859 0
M  V30 886 H 98.1575 1.86775 0.556881 0
M  V30 887 H 97.2535 2.40753 1.98607 0
M  V30 888 N 97.5546 -0.734337 1.39446 0
M  V30 889 C 98.8016 -1.49391 1.36706 0
M  V30 890 C 99.1296 -1.94465 -0.0367813 0
M  V30 891 O 98.3846 -1.67154 -1.01774 0
M  V30 892 C 98.6836 -2.74711 2.28623 0
M  V30 893 C 98.3496 -2.48501 3.76242 0
M  V30 894 C 97.0116 -2.41062 4.16464 0
M  V30 895 C 99.3636 -2.26098 4.69606 0
M  V30 896 C 96.6916 -2.09262 5.48112 0
M  V30 897 C 99.0436 -1.95814 6.01531 0
M  V30 898 C 97.7076 -1.86845 6.40816 0
M  V30 899 H 96.9776 -0.546661 0.500243 0
M  V30 900 H 99.6246 -0.842788 1.71957 0
M  V30 901 H 97.9296 -3.44569 1.86492 0
M  V30 902 H 99.6266 -3.32741 2.23796 0
M  V30 903 H 96.2166 -2.55169 3.44364 0
M  V30 904 H 100.401 -2.30812 4.39363 0
M  V30 905 H 95.6566 -2.00841 5.77471 0
M  V30 906 H 99.8306 -1.77488 6.73403 0
M  V30 907 H 97.4576 -1.6197 7.42745 0
M  V30 908 N 99.0327 -1.24633 -0.964593 0
M  V30 909 C 100.28 -1.08788 -1.70796 0
M  V30 910 C 100.608 0.372783 -1.90894 0
M  V30 911 O 99.8627 1.29167 -1.47018 0
M  V30 912 C 100.162 -1.7763 -3.10133 0
M  V30 913 C 99.8277 -3.27557 -3.09866 0
M  V30 914 C 98.4897 -3.6846 -3.09501 0
M  V30 915 C 100.842 -4.23389 -3.03959 0
M  V30 916 C 98.1697 -5.03624 -3.00965 0
M  V30 917 C 100.522 -5.58565 -2.96965 0
M  V30 918 C 99.1857 -5.98809 -2.9493 0
M  V30 919 H 98.4557 -0.398084 -0.624988 0
M  V30 920 H 101.103 -1.54777 -1.12767 0
M  V30 921 H 99.4077 -1.24044 -3.71645 0
M  V30 922 H 101.105 -1.62832 -3.66451 0
M  V30 923 H 97.6947 -2.95006 -3.10917 0
M  V30 924 H 101.879 -3.92787 -3.03368 0
M  V30 925 H 97.1347 -5.33998 -2.97752 0
M  V30 926 H 101.309 -6.32523 -2.91354 0
M  V30 927 H 98.9357 -7.03505 -2.88071 0
M  V30 928 N 100.511 1.16574 -1.06058 0
M  V30 929 C 101.736 1.91493 -0.796562 0
M  V30 930 C 102.161 1.76773 0.642868 0
M  V30 931 O 101.519 1.09142 1.44768 0
M  V30 932 C 101.567 3.40293 -1.19303 0
M  V30 933 O 100.671 4.11074 -0.330394 0
M  V30 934 H 100.012 0.596678 -0.291326 0
M  V30 935 H 102.542 1.47708 -1.41575 0
M  V30 936 H 102.552 3.91057 -1.16356 0
M  V30 937 H 101.227 3.50326 -2.24153 0
M  V30 938 H 99.8038 3.70513 -0.421225 0
M  V30 939 N 101.989 0.842826 1.3317 0
M  V30 940 C 102.899 0.281444 2.32906 0
M  V30 941 C 103.915 -0.594587 1.63526 0
M  V30 942 O 105.091 -0.49777 1.95152 0
M  V30 943 C 102.156 -0.530929 3.42611 0
M  V30 944 C 101.217 0.369843 4.27704 0
M  V30 945 C 100.45 -0.403853 5.3217 0
M  V30 946 O 100.673 -1.63513 5.46461 0
M  V30 947 O 99.6069 0.224199 6.01482 0
M  V30 948 H 103.433 1.10744 2.82789 0
M  V30 949 H 101.018 0.60545 1.36582 0
M  V30 950 H 102.9 -0.992437 4.09547 0
M  V30 951 H 101.575 -1.33392 2.94938 0
M  V30 952 H 100.482 0.879275 3.6362 0
M  V30 953 H 101.815 1.13771 4.78871 0
M  V30 954 N 103.467 -1.45747 0.599634 0
M  V30 955 C 104.713 -2.02592 0.0918643 0
M  V30 956 C 105.046 -1.46806 -1.27128 0
M  V30 957 O 104.321 -0.639658 -1.83681 0
M  V30 958 C 104.604 -3.60073 0.0443398 0
M  V30 959 C 104.457 -4.26208 1.43759 0
M  V30 960 C 105.776 -4.35309 -0.647608 0
M  V30 961 H 102.895 -0.736175 0.034857 0
M  V30 962 H 105.537 -1.73694 0.770081 0
M  V30 963 H 103.687 -3.84823 -0.533224 0
M  V30 964 H 105.359 -4.12668 2.06162 0
M  V30 965 H 103.602 -3.84916 2.00056 0
M  V30 966 H 104.273 -5.35069 1.35665 0
M  V30 967 H 106.749 -4.15805 -0.156776 0
M  V30 968 H 105.625 -5.45038 -0.649942 0
M  V30 969 H 105.886 -4.07598 -1.71219 0
M  V30 970 N 104.945 -0.338344 -1.53925 0
M  V30 971 C 106.175 0.260919 -2.04946 0
M  V30 972 C 106.583 1.45174 -1.2133 0
M  V30 973 O 105.926 1.82122 -0.240262 0
M  V30 974 C 105.988 0.744596 -3.51704 0
M  V30 975 C 105.652 -0.325883 -4.55837 0
M  V30 976 C 106.649 -1.16687 -5.06636 0
M  V30 977 C 104.334 -0.478317 -5.00017 0
M  V30 978 C 106.328 -2.14588 -6.00192 0
M  V30 979 C 104.015 -1.46073 -5.93385 0
M  V30 980 C 105.013 -2.29297 -6.4336 0
M  V30 981 O 104.701 -3.25867 -7.34892 0
M  V30 982 H 104.433 0.0551207 -0.673749 0
M  V30 983 H 106.987 -0.486984 -1.99544 0
M  V30 984 H 105.217 1.54366 -3.54553 0
M  V30 985 H 106.906 1.26383 -3.85723 0
M  V30 986 H 107.672 -1.06016 -4.73271 0
M  V30 987 H 103.551 0.159613 -4.60724 0
M  V30 988 H 107.095 -2.79585 -6.39123 0
M  V30 989 H 102.992 -1.56802 -6.26166 0
M  V30 990 H 103.76 -3.21278 -7.5281 0
M  V30 991 N 106.423 1.57458 -0.0668435 0
M  V30 992 C 107.37 2.12439 0.902122 0
M  V30 993 C 108.34 1.03565 1.2986 0
M  V30 994 O 109.525 1.312 1.38532 0
M  V30 995 C 106.665 2.6865 2.16614 0
M  V30 996 C 105.778 3.91663 1.82274 0
M  V30 997 C 104.913 4.36134 3.0325 0
M  V30 998 C 103.952 5.51808 2.64904 0
M  V30 999 N 103.089 5.9126 3.78624 0
M  V30 1000 H 107.929 2.94934 0.426382 0
M  V30 1001 H 105.466 1.4575 0.198819 0
M  V30 1002 H 107.424 2.99346 2.90599 0
M  V30 1003 H 106.054 1.88928 2.61737 0
M  V30 1004 H 105.106 3.6746 0.983719 0
M  V30 1005 H 106.418 4.75693 1.50059 0
M  V30 1006 H 105.572 4.68465 3.85519 0
M  V30 1007 H 104.311 3.50948 3.38655 0
M  V30 1008 H 103.316 5.19133 1.81055 0
M  V30 1009 H 104.541 6.38722 2.30675 0
M  V30 1010 H 102.487 5.09024 4.138 0
M  V30 1011 H 102.404 6.70018 3.5016 0
M  V30 1012 H 103.672 6.28212 4.61486 0
M  V30 1013 N 107.901 -0.206675 1.56239 0
M  V30 1014 C 109.147 -0.930218 1.80208 0
M  V30 1015 C 109.48 -1.83387 0.638981 0
M  V30 1016 O 108.755 -1.91119 -0.361066 0
M  V30 1017 C 109.038 -1.75641 3.1436 0
M  V30 1018 C 108.891 -0.878257 4.41142 0
M  V30 1019 C 110.21 -2.73129 3.45092 0
M  V30 1020 H 107.329 -0.336742 0.655571 0
M  V30 1021 H 109.971 -0.198222 1.88963 0
M  V30 1022 H 108.121 -2.38048 3.07027 0
M  V30 1023 H 109.793 -0.269787 4.6051 0
M  V30 1024 H 108.036 -0.184385 4.33408 0
M  V30 1025 H 108.707 -1.49106 5.3148 0
M  V30 1026 H 111.183 -2.20856 3.52649 0
M  V30 1027 H 110.059 -3.28028 4.40101 0
M  V30 1028 H 110.32 -3.51606 2.68003 0
M  V30 1029 N 109.379 -1.50304 -0.473955 0
M  V30 1030 C 110.795 -1.37667 -0.807466 0
M  V30 1031 C 110.995 -0.430555 -1.96846 0
M  V30 1032 O 110.051 0.127874 -2.52176 0
M  V30 1033 C 111.364 -2.78974 -1.12223 0
M  V30 1034 C 112.912 -2.87868 -1.22885 0
M  V30 1035 C 113.387 -4.30003 -1.57676 0
M  V30 1036 N 114.878 -4.3294 -1.64673 0
M  V30 1037 C 115.613 -5.3991 -1.93091 0
M  V30 1038 N 115.109 -6.57092 -2.1955 0
M  V30 1039 N 116.902 -5.27351 -1.94569 0
M  V30 1040 H 109.053 -2.10394 0.291212 0
M  V30 1041 H 111.316 -0.945575 0.0677609 0
M  V30 1042 H 111.022 -3.50031 -0.342229 0
M  V30 1043 H 110.896 -3.16038 -2.05913 0
M  V30 1044 H 113.283 -2.17032 -1.99953 0
M  V30 1045 H 113.364 -2.54352 -0.271814 0
M  V30 1046 H 113.008 -5.01375 -0.81149 0
M  V30 1047 H 112.938 -4.61004 -2.54525 0
M  V30 1048 H 115.429 -3.48441 -1.46277 0
M  V30 1049 H 115.742 -7.34425 -2.405 0
M  V30 1050 H 114.087 -6.60272 -2.16948 0
M  V30 1051 H 117.278 -4.34801 -1.73394 0
M  V30 1052 H 117.451 -6.10805 -2.16381 0
M  V30 1053 N 110.857 0.726932 -1.39834 0
M  V30 1054 C 111.807 1.83232 -1.35683 0
M  V30 1055 C 112.791 1.59155 -0.236295 0
M  V30 1056 O 113.983 1.70522 -0.474488 0
M  V30 1057 C 111.112 3.21246 -1.21062 0
M  V30 1058 C 110.198 3.51125 -2.37849 0
M  V30 1059 N 110.589 3.51889 -3.63329 0
M  V30 1060 C 108.887 3.81527 -2.30982 0
M  V30 1061 C 109.588 3.79791 -4.40606 0
M  V30 1062 N 108.564 3.97971 -3.70297 0
M  V30 1063 H 112.366 1.8214 -2.30656 0
M  V30 1064 H 109.88 0.925545 -1.33444 0
M  V30 1065 H 111.877 4.00387 -1.16171 0
M  V30 1066 H 110.537 3.23572 -0.270458 0
M  V30 1067 H 111.548 3.33008 -3.96643 0
M  V30 1068 H 108.225 3.91411 -1.45272 0
M  V30 1069 H 109.615 3.86783 -5.49408 0
M  V30 1070 N 112.336 1.25143 0.95797 0
M  V30 1071 C 113.752 1.01892 1.22842 0
M  V30 1072 C 113.952 -0.266311 1.99732 0
M  V30 1073 O 113.008 -0.979913 2.3271 0
M  V30 1074 C 114.321 2.24004 2.00606 0
M  V30 1075 C 115.869 2.28731 2.13662 0
M  V30 1076 C 116.344 3.5049 2.94823 0
M  V30 1077 N 117.835 3.50866 3.02403 0
M  V30 1078 C 118.57 4.4174 3.65586 0
M  V30 1079 N 118.066 5.42882 4.30408 0
M  V30 1080 N 119.859 4.29429 3.62694 0
M  V30 1081 H 112.01 2.07718 0.443493 0
M  V30 1082 H 114.273 0.912031 0.258657 0
M  V30 1083 H 113.979 3.17395 1.51503 0
M  V30 1084 H 113.853 2.26907 3.01319 0
M  V30 1085 H 116.24 1.35865 2.61963 0
M  V30 1086 H 116.321 2.29848 1.12265 0
M  V30 1087 H 115.965 4.43676 2.47213 0
M  V30 1088 H 115.895 3.46617 3.96439 0
M  V30 1089 H 118.386 2.777 2.56302 0
M  V30 1090 H 118.699 6.0844 4.76467 0
M  V30 1091 H 117.044 5.46758 4.29047 0
M  V30 1092 H 120.235 3.49643 3.11236 0
M  V30 1093 H 120.408 5.00448 4.1165 0
M  V30 1094 N 113.814 -1.1601 1.06675 0
M  V30 1095 C 114.746 -2.20115 0.638921 0
M  V30 1096 C 115.759 -1.59916 -0.305057 0
M  V30 1097 O 116.948 -1.78245 -0.0954446 0
M  V30 1098 C 114.048 -3.38798 -0.0830083 0
M  V30 1099 C 113.221 -4.2855 0.875426 0
M  V30 1100 C 112.28 -5.25849 0.192042 0
M  V30 1101 O 111.306 -5.63102 0.830921 0
M  V30 1102 N 112.508 -5.70648 -1.06493 0
M  V30 1103 H 115.273 -2.57439 1.53444 0
M  V30 1104 H 112.834 -1.31057 0.950557 0
M  V30 1105 H 114.826 -4.00936 -0.550685 0
M  V30 1106 H 113.396 -2.99947 -0.880386 0
M  V30 1107 H 112.616 -3.63617 1.52238 0
M  V30 1108 H 113.904 -4.85393 1.52548 0
M  V30 1109 H 113.302 -5.42482 -1.60405 0
M  V30 1110 H 111.859 -6.34859 -1.47641 0
M  V30 1111 N 115.292 -0.849877 -1.32721 0
M  V30 1112 C 116.517 -0.463856 -2.02146 0
M  V30 1113 C 116.942 0.930449 -1.63476 0
M  V30 1114 O 116.3 1.61033 -0.832952 0
M  V30 1115 C 116.348 -0.604955 -3.55489 0
M  V30 1116 O 115.452 0.36425 -4.10788 0
M  V30 1117 H 114.793 -0.187046 -0.637111 0
M  V30 1118 H 117.323 -1.14775 -1.69375 0
M  V30 1119 H 117.333 -0.490696 -4.05038 0
M  V30 1120 H 116.008 -1.62174 -3.82978 0
M  V30 1121 H 114.585 0.206628 -3.72327 0
M  V30 1122 N 116.77 1.45427 -0.607355 0
M  V30 1123 C 118.018 2.01841 -0.102253 0
M  V30 1124 C 118.339 1.47832 1.27164 0
M  V30 1125 O 117.609 0.672497 1.83995 0
M  V30 1126 H 116.189 0.746188 -0.0348101 0
M  V30 1127 H 118.851 1.78229 -0.7887 0
M  V30 1128 H 117.947 3.12057 -0.0518585 0
M  V30 1129 N 118.248 0.346503 1.53744 0
M  V30 1130 C 119.18 -0.543316 2.22667 0
M  V30 1131 C 120.193 -1.06159 1.23427 0
M  V30 1132 O 121.382 -0.971235 1.49764 0
M  V30 1133 C 118.482 -1.76076 2.89569 0
M  V30 1134 C 117.655 -1.37727 4.15151 0
M  V30 1135 C 116.714 -2.45471 4.65436 0
M  V30 1136 O 115.74 -2.08655 5.29577 0
M  V30 1137 N 116.942 -3.7677 4.41616 0
M  V30 1138 H 119.707 0.0469703 2.99663 0
M  V30 1139 H 117.268 0.170766 1.60997 0
M  V30 1140 H 119.26 -2.47593 3.20125 0
M  V30 1141 H 117.83 -2.25835 2.16142 0
M  V30 1142 H 117.05 -0.492746 3.91108 0
M  V30 1143 H 118.338 -1.09708 4.96832 0
M  V30 1144 H 117.736 -4.09467 3.90325 0
M  V30 1145 H 116.293 -4.44448 4.7677 0
M  V30 1146 N 119.726 -1.57421 0.075193 0
M  V30 1147 C 120.972 -1.93905 -0.594025 0
M  V30 1148 C 121.305 -0.955701 -1.69056 0
M  V30 1149 O 120.58 0.0145373 -1.94495 0
M  V30 1150 C 120.863 -3.40638 -1.1678 0
M  V30 1151 C 120.716 -4.49733 -0.0776792 0
M  V30 1152 C 122.035 -3.88259 -2.07228 0
M  V30 1153 H 119.154 -0.705105 -0.214466 0
M  V30 1154 H 121.796 -1.8947 0.141854 0
M  V30 1155 H 119.946 -3.44549 -1.79494 0
M  V30 1156 H 121.618 -4.57942 0.555573 0
M  V30 1157 H 119.861 -4.29751 0.591286 0
M  V30 1158 H 120.532 -5.49549 -0.519603 0
M  V30 1159 H 123.008 -3.86376 -1.54445 0
M  V30 1160 H 121.884 -4.91533 -2.44308 0
M  V30 1161 H 122.145 -3.26396 -2.98191 0
M  V30 1162 N 121.204 0.198386 -1.56346 0
M  V30 1163 C 122.137 1.27381 -1.89339 0
M  V30 1164 C 123.115 1.44106 -0.753134 0
M  V30 1165 O 124.299 1.59549 -1.00381 0
M  V30 1166 C 121.426 2.6409 -2.12071 0
M  V30 1167 C 120.472 2.64253 -3.34772 0
M  V30 1168 S 121.305 2.16013 -4.89999 0
M  V30 1169 C 122.461 3.54553 -5.15794 0
M  V30 1170 H 122.694 0.992058 -2.8026 0
M  V30 1171 H 120.227 0.401726 -1.49082 0
M  V30 1172 H 122.185 3.42786 -2.2585 0
M  V30 1173 H 120.846 2.89478 -1.21906 0
M  V30 1174 H 120.039 3.64768 -3.47794 0
M  V30 1175 H 119.641 1.93637 -3.1997 0
M  V30 1176 H 121.933 4.50396 -5.06112 0
M  V30 1177 H 122.876 3.46428 -6.1757 0
M  V30 1178 H 123.284 3.49313 -4.43442 0
M  V30 1179 N 122.682 1.50554 0.465978 0
M  V30 1180 C 123.928 1.62038 1.21949 0
M  V30 1181 C 124.261 0.322116 1.9151 0
M  V30 1182 O 123.536 -0.676723 1.82348 0
M  V30 1183 C 123.819 2.80421 2.25912 0
M  V30 1184 C 123.672 4.20144 1.60622 0
M  V30 1185 C 124.991 2.94354 3.27176 0
M  V30 1186 H 122.11 0.589752 0.441998 0
M  V30 1187 H 124.752 1.82956 0.51257 0
M  V30 1188 H 122.902 2.62717 2.86203 0
M  V30 1189 H 124.574 4.49449 1.03889 0
M  V30 1190 H 122.817 4.24165 0.909211 0
M  V30 1191 H 123.488 4.98914 2.36196 0
M  V30 1192 H 125.964 3.10578 2.76913 0
M  V30 1193 H 124.84 3.788 3.97242 0
M  V30 1194 H 125.101 2.05186 3.916 0
M  V30 1195 N 124.16 -0.719506 1.40217 0
M  V30 1196 C 125.09 -1.8465 1.42922 0
M  V30 1197 C 126.071 -1.67599 0.29062 0
M  V30 1198 O 127.256 -1.87688 0.498677 0
M  V30 1199 C 124.386 -3.22565 1.28722 0
M  V30 1200 C 123.34 -3.54281 2.40144 0
M  V30 1201 C 122.666 -4.91298 2.11023 0
M  V30 1202 C 123.966 -3.55676 3.82481 0
M  V30 1203 H 125.66 -1.82644 2.37237 0
M  V30 1204 H 123.206 -0.877305 1.1419 0
M  V30 1205 H 125.159 -4.01095 1.29232 0
M  V30 1206 H 123.883 -3.25137 0.308811 0
M  V30 1207 H 122.542 -2.78088 2.38877 0
M  V30 1208 H 122.19 -4.90468 1.11582 0
M  V30 1209 H 121.89 -5.13485 2.8567 0
M  V30 1210 H 123.414 -5.72166 2.13209 0
M  V30 1211 H 124.828 -4.24254 3.85592 0
M  V30 1212 H 123.225 -3.89388 4.56614 0
M  V30 1213 H 124.295 -2.55144 4.12346 0
M  V30 1214 N 125.638 -1.25649 -0.95132 0
M  V30 1215 C 126.585 -1.06323 -2.04851 0
M  V30 1216 C 127.555 0.0286491 -1.66075 0
M  V30 1217 O 128.74 -0.12917 -1.90362 0
M  V30 1218 C 125.88 -0.691529 -3.381 0
M  V30 1219 C 124.993 -1.85861 -3.89974 0
M  V30 1220 C 124.128 -1.43096 -5.11563 0
M  V30 1221 C 123.167 -2.56696 -5.55674 0
M  V30 1222 N 122.304 -2.14684 -6.68472 0
M  V30 1223 H 127.144 -2.00222 -2.20715 0
M  V30 1224 H 124.681 -0.997027 -1.08156 0
M  V30 1225 H 126.639 -0.456963 -4.1469 0
M  V30 1226 H 125.269 0.210474 -3.22113 0
M  V30 1227 H 124.321 -2.20639 -3.09875 0
M  V30 1228 H 125.633 -2.71161 -4.18657 0
M  V30 1229 H 124.787 -1.15624 -5.9558 0
M  V30 1230 H 123.526 -0.548722 -4.84603 0
M  V30 1231 H 122.531 -2.84909 -4.7022 0
M  V30 1232 H 123.756 -3.45503 -5.8464 0
M  V30 1233 H 121.702 -1.28881 -6.43215 0
M  V30 1234 H 121.619 -2.9353 -6.96689 0
M  V30 1235 H 122.887 -1.90397 -7.5589 0
M  V30 1236 N 127.117 1.15442 -1.07289 0
M  V30 1237 C 128.05 2.19135 -0.636798 0
M  V30 1238 C 129.028 1.58884 0.34562 0
M  V30 1239 O 130.212 1.86805 0.252195 0
M  V30 1240 C 127.339 3.38638 0.0650014 0
M  V30 1241 C 126.385 4.17412 -0.87576 0
M  V30 1242 S 127.218 4.79882 -2.37642 0
M  V30 1243 C 128.374 6.02753 -1.6864 0
M  V30 1244 H 128.607 2.55787 -1.51526 0
M  V30 1245 H 126.14 1.26394 -0.886793 0
M  V30 1246 H 128.098 4.07873 0.463664 0
M  V30 1247 H 126.759 3.00331 0.919801 0
M  V30 1248 H 125.952 5.02909 -0.33143 0
M  V30 1249 H 125.554 3.53722 -1.21478 0
M  V30 1250 H 127.846 6.70113 -0.997753 0
M  V30 1251 H 128.789 6.61754 -2.51967 0
M  V30 1252 H 129.197 5.52355 -1.16465 0
M  V30 1253 N 128.595 0.856903 1.32268 0
M  V30 1254 C 129.543 0.291987 2.3076 0
M  V30 1255 C 130.537 -0.585857 1.58947 0
M  V30 1256 O 131.743 -0.47341 1.73663 0
M  V30 1257 H 128.118 0.075721 0.748178 0
M  V30 1258 H 130.089 1.13687 2.75895 0
M  V30 1259 C 128.838 -0.502869 3.44044 0
M  V30 1260 H 128.161 0.163328 3.99466 0
M  V30 1261 H 129.601 -0.863691 4.1511 0
M  V30 1262 C 128.06 -1.68898 2.91505 0
M  V30 1263 O 128.59 -2.78811 2.89184 0
M  V30 1264 N 126.796 -1.51679 2.47875 0
M  V30 1265 H 126.343 -0.622666 2.49961 0
M  V30 1266 H 126.301 -2.31184 2.13076 0
M  V30 1267 N 130.073 -1.45103 0.615059 0
M  V30 1268 C 131.02 -2.30586 -0.0993978 0
M  V30 1269 C 131.99 -1.42544 -0.852669 0
M  V30 1270 O 133.175 -1.71465 -0.836917 0
M  V30 1271 C 130.315 -3.27572 -1.08583 0
M  V30 1272 C 129.428 -4.30717 -0.332656 0
M  V30 1273 C 128.563 -5.14807 -1.30947 0
M  V30 1274 C 127.602 -6.09673 -0.544538 0
M  V30 1275 N 126.739 -6.86517 -1.47101 0
M  V30 1276 H 131.579 -2.91144 0.635542 0
M  V30 1277 H 129.116 -1.4346 0.325206 0
M  V30 1278 H 131.074 -3.82276 -1.67095 0
M  V30 1279 H 129.704 -2.68751 -1.78809 0
M  V30 1280 H 128.756 -3.78615 0.368107 0
M  V30 1281 H 130.068 -4.98102 0.263842 0
M  V30 1282 H 129.222 -5.73948 -1.96643 0
M  V30 1283 H 127.961 -4.47458 -1.9399 0
M  V30 1284 H 126.966 -5.49656 0.126003 0
M  V30 1285 H 128.191 -6.79052 0.080947 0
M  V30 1286 H 126.137 -6.21851 -2.08895 0
M  V30 1287 H 126.054 -7.50281 -0.928137 0
M  V30 1288 H 127.322 -7.50194 -2.11731 0
M  V30 1289 N 131.551 -0.354651 -1.53558 0
M  V30 1290 C 132.481 0.489091 -2.2832 0
M  V30 1291 C 133.462 1.09324 -1.30316 0
M  V30 1292 O 134.647 1.11255 -1.59173 0
M  V30 1293 C 131.777 1.63456 -3.0643 0
M  V30 1294 C 130.731 1.1582 -4.12031 0
M  V30 1295 C 130.057 2.39305 -4.7816 0
M  V30 1296 C 131.357 0.250731 -5.21698 0
M  V30 1297 H 133.051 -0.134614 -2.99097 0
M  V30 1298 H 130.597 -0.0661826 -1.43848 0
M  V30 1299 H 132.55 2.23136 -3.57475 0
M  V30 1300 H 131.274 2.28533 -2.33325 0
M  V30 1301 H 129.933 0.584146 -3.61916 0
M  V30 1302 H 129.581 3.02814 -4.01637 0
M  V30 1303 H 129.281 2.08109 -5.49513 0
M  V30 1304 H 130.805 2.99691 -5.31994 0
M  V30 1305 H 132.219 0.754695 -5.68311 0
M  V30 1306 H 130.616 0.0301468 -6.00092 0
M  V30 1307 H 131.686 -0.710125 -4.79672 0
M  V30 1308 N 133.029 1.57378 -0.0835403 0
M  V30 1309 C 134.44 1.81261 0.447358 0
M  V30 1310 C 134.791 0.998331 1.68902 0
M  V30 1311 O 133.916 0.224282 2.15235 0
M  V30 1312 C 134.511 3.28767 0.818386 0
M  V30 1313 C 133.07 3.53455 1.29409 0
M  V30 1314 C 132.217 2.75831 0.285024 0
M  V30 1315 H 135.168 1.5566 -0.309115 0
M  V30 1316 H 135.189 3.41459 1.67887 0
M  V30 1317 H 134.701 3.88006 -0.0855019 0
M  V30 1318 H 132.802 2.99534 2.21608 0
M  V30 1319 H 132.915 4.62128 1.2639 0
M  V30 1320 H 131.279 2.42947 0.764767 0
M  V30 1321 H 132.062 3.37813 -0.611341 0
M  V30 1322 N 134.507 -0.190092 1.56449 0
M  V30 1323 C 135.732 -0.929864 1.85387 0
M  V30 1324 C 136.157 -1.7585 0.667704 0
M  V30 1325 O 135.515 -1.77198 -0.383459 0
M  V30 1326 C 135.563 -1.79773 3.12593 0
M  V30 1327 O 134.667 -2.89713 2.93496 0
M  V30 1328 H 134.008 -0.261574 0.610307 0
M  V30 1329 H 136.538 -0.193896 2.03679 0
M  V30 1330 H 136.548 -2.20139 3.43515 0
M  V30 1331 H 135.223 -1.18892 3.98544 0
M  V30 1332 H 133.8 -2.53065 2.73884 0
M  V30 1333 N 135.985 -1.50799 -0.457987 0
M  V30 1334 C 136.933 -1.71162 -1.575 0
M  V30 1335 C 137.927 -0.577592 -1.59249 0
M  V30 1336 O 139.133 -0.758443 -1.63241 0
M  V30 1337 H 135.508 -0.540468 -0.522875 0
M  V30 1338 H 137.479 -2.64837 -1.37492 0
M  V30 1339 C 136.228 -1.83496 -2.95338 0
M  V30 1340 H 135.551 -2.70153 -2.94716 0
M  V30 1341 H 136.991 -2.01765 -3.72917 0
M  V30 1342 C 135.45 -0.589694 -3.31699 0
M  V30 1343 O 135.98 0.265163 -4.00824 0
M  V30 1344 N 134.186 -0.439845 -2.87252 0
M  V30 1345 H 133.733 -1.13655 -2.31172 0
M  V30 1346 H 133.691 0.392159 -3.11945 0
M  V30 1347 N 137.463 0.71206 -1.40597 0
M  V30 1348 C 138.879 1.02058 -1.22704 0
M  V30 1349 C 139.079 2.01228 -0.104729 0
M  V30 1350 O 138.135 2.4674 0.53624 0
M  V30 1351 C 139.448 1.56094 -2.57012 0
M  V30 1352 C 140.996 1.6806 -2.64054 0
M  V30 1353 C 141.471 2.25501 -3.9864 0
M  V30 1354 N 142.962 2.32882 -4.004 0
M  V30 1355 C 143.697 2.78317 -5.01325 0
M  V30 1356 N 143.193 3.23478 -6.12645 0
M  V30 1357 N 144.986 2.77733 -4.88693 0
M  V30 1358 H 137.137 0.0547896 -2.12329 0
M  V30 1359 H 139.4 0.0869027 -0.944008 0
M  V30 1360 H 139.106 0.906865 -3.39807 0
M  V30 1361 H 138.98 2.54564 -2.78347 0
M  V30 1362 H 141.367 2.32583 -1.81629 0
M  V30 1363 H 141.448 0.681802 -2.46546 0
M  V30 1364 H 141.092 1.61598 -4.81506 0
M  V30 1365 H 141.022 3.26102 -4.13479 0
M  V30 1366 H 143.513 2.00991 -3.20017 0
M  V30 1367 H 143.826 3.56725 -6.85542 0
M  V30 1368 H 142.171 3.21429 -6.16205 0
M  V30 1369 H 145.362 2.4179 -4.00818 0
M  V30 1370 H 145.535 3.12826 -5.67489 0
M  V30 1371 N 138.941 1.26152 0.944643 0
M  V30 1372 C 140.189 1.11271 1.6871 0
M  V30 1373 C 140.51 -0.345166 1.91921 0
M  V30 1374 O 139.78 -1.24387 1.51343 0
M  V30 1375 H 138.36 0.408783 0.625224 0
M  V30 1376 H 141.022 1.58427 1.1352 0
M  V30 1377 H 140.118 1.62879 2.66227 0
M  V30 1378 N 140.419 -1.14872 1.07899 0
M  V30 1379 C 141.367 -2.21857 0.698727 0
M  V30 1380 C 142.361 -1.66845 -0.293086 0
M  V30 1381 O 143.567 -1.79321 -0.156204 0
M  V30 1382 H 139.942 -0.722691 0.207899 0
M  V30 1383 H 141.913 -2.51205 1.61054 0
M  V30 1384 C 140.662 -3.47498 0.11858 0
M  V30 1385 H 139.985 -3.90154 0.872914 0
M  V30 1386 H 141.425 -4.23858 -0.109759 0
M  V30 1387 C 139.884 -3.16947 -1.1422 0
M  V30 1388 O 140.414 -3.3426 -2.22785 0
M  V30 1389 N 138.62 -2.70946 -1.05055 0
M  V30 1390 H 138.167 -2.57058 -0.167038 0
M  V30 1391 H 138.125 -2.50879 -1.89491 0
M  V30 1392 N 141.898 -0.863906 -1.31812 0
M  V30 1393 C 143.126 -0.486111 -2.01108 0
M  V30 1394 C 143.541 0.919755 -1.64882 0
M  V30 1395 O 142.898 1.60162 -0.874893 0
M  V30 1396 C 142.949 -0.626435 -3.56031 0
M  V30 1397 O 142.67 -1.97693 -3.90959 0
M  V30 1398 C 144.171 -0.248857 -4.42601 0
M  V30 1399 H 141.391 -0.190052 -0.643523 0
M  V30 1400 H 143.935 -1.1634 -1.68182 0
M  V30 1401 H 142.09 0.00322717 -3.874 0
M  V30 1402 H 142.504 -1.98034 -4.85678 0
M  V30 1403 H 143.978 -0.398016 -5.50563 0
M  V30 1404 H 144.455 0.811489 -4.31638 0
M  V30 1405 H 145.061 -0.853971 -4.16638 0
M  V30 1406 N 143.376 1.44774 -0.622745 0
M  V30 1407 C 144.306 2.33382 0.0741861 0
M  V30 1408 C 145.287 1.47719 0.843387 0
M  V30 1409 O 146.472 1.76458 0.810934 0
M  V30 1410 C 143.602 3.30663 1.06204 0
M  V30 1411 C 142.556 4.26079 0.405037 0
M  V30 1412 C 141.882 5.13165 1.5022 0
M  V30 1413 C 143.182 5.1781 -0.683414 0
M  V30 1414 H 144.876 2.91905 -0.665713 0
M  V30 1415 H 142.422 1.40363 -0.321587 0
M  V30 1416 H 144.375 3.9153 1.55827 0
M  V30 1417 H 143.099 2.70331 1.83272 0
M  V30 1418 H 141.758 3.66532 -0.0704683 0
M  V30 1419 H 141.406 4.49191 2.26355 0
M  V30 1420 H 141.106 5.77812 1.06803 0
M  V30 1421 H 142.63 5.76902 2.00041 0
M  V30 1422 H 144.044 5.72661 -0.270631 0
M  V30 1423 H 142.441 5.91015 -1.04023 0
M  V30 1424 H 143.511 4.59326 -1.55395 0
M  V30 1425 N 144.854 0.36279 1.53368 0
M  V30 1426 C 146.27 0.0116182 1.59596 0
M  V30 1427 C 146.47 -1.47012 1.37803 0
M  V30 1428 O 145.526 -2.23136 1.18181 0
M  V30 1429 C 146.839 0.465052 2.97082 0
M  V30 1430 C 148.387 0.419033 3.10182 0
M  V30 1431 C 148.862 0.848235 4.50077 0
M  V30 1432 N 150.353 0.803183 4.56183 0
M  V30 1433 C 151.088 1.107 5.62613 0
M  V30 1434 N 150.584 1.47996 6.76808 0
M  V30 1435 N 152.377 1.02998 5.52583 0
M  V30 1436 H 144.528 1.32775 1.65785 0
M  V30 1437 H 146.791 0.542518 0.777417 0
M  V30 1438 H 146.497 1.49892 3.18159 0
M  V30 1439 H 146.371 -0.149786 3.76902 0
M  V30 1440 H 148.758 -0.605696 2.88817 0
M  V30 1441 H 148.839 1.06933 2.32377 0
M  V30 1442 H 148.483 1.87107 4.7218 0
M  V30 1443 H 148.413 0.175218 5.26308 0
M  V30 1444 H 150.904 0.52838 3.74188 0
M  V30 1445 H 151.217 1.69613 7.53957 0
M  V30 1446 H 149.562 1.51859 6.78206 0
M  V30 1447 H 152.753 0.737817 4.62249 0
M  V30 1448 H 152.926 1.2701 6.35431 0
M  V30 1449 N 146.332 -1.57332 0.0918853 0
M  V30 1450 C 147.242 -2.17368 -0.882505 0
M  V30 1451 C 148.258 -1.14226 -1.31257 0
M  V30 1452 O 149.434 -1.46582 -1.38115 0
M  V30 1453 C 146.499 -2.73962 -2.12476 0
M  V30 1454 C 145.56 -3.92048 -1.7492 0
M  V30 1455 C 144.793 -4.45933 -2.93223 0
M  V30 1456 O 145.016 -3.98764 -4.07852 0
M  V30 1457 O 143.95 -5.36999 -2.71875 0
M  V30 1458 H 147.776 -3.01031 -0.40172 0
M  V30 1459 H 145.361 -1.48813 -0.132291 0
M  V30 1460 H 147.243 -3.10147 -2.85283 0
M  V30 1461 H 145.918 -1.93347 -2.59613 0
M  V30 1462 H 144.825 -3.6068 -0.993025 0
M  V30 1463 H 146.158 -4.74017 -1.32548 0
M  V30 1464 N 147.81 0.181792 -1.56548 0
M  V30 1465 C 149.056 0.901431 -1.81665 0
M  V30 1466 C 149.389 1.82347 -0.668075 0
M  V30 1467 O 148.664 1.91669 0.330615 0
M  V30 1468 C 148.947 1.70618 -3.17115 0
M  V30 1469 C 148.8 0.807964 -4.42484 0
M  V30 1470 C 150.119 2.67605 -3.49393 0
M  V30 1471 H 147.238 0.32627 -0.660846 0
M  V30 1472 H 149.88 0.168134 -1.89255 0
M  V30 1473 H 148.03 2.33133 -3.10775 0
M  V30 1474 H 149.702 0.19649 -4.60881 0
M  V30 1475 H 147.945 0.115411 -4.33646 0
M  V30 1476 H 148.616 1.40632 -5.33785 0
M  V30 1477 H 151.092 2.15218 -3.56118 0
M  V30 1478 H 149.968 3.20985 -4.45264 0
M  V30 1479 H 150.229 3.47298 -2.73563 0
M  V30 1480 N 149.288 1.51039 0.449983 0
M  V30 1481 C 150.22 1.67617 1.56324 0
M  V30 1482 C 151.233 0.557083 1.52972 0
M  V30 1483 O 152.422 0.830989 1.57977 0
M  V30 1484 C 149.522 1.66402 2.95235 0
M  V30 1485 C 148.695 2.9469 3.23229 0
M  V30 1486 C 147.754 2.85832 4.41799 0
M  V30 1487 O 146.78 3.59785 4.41071 0
M  V30 1488 N 147.982 2.00821 5.44657 0
M  V30 1489 H 150.747 2.63648 1.42512 0
M  V30 1490 H 148.308 1.48767 0.638737 0
M  V30 1491 H 150.3 1.58062 3.72557 0
M  V30 1492 H 148.87 0.780182 3.02708 0
M  V30 1493 H 148.09 3.16996 2.34323 0
M  V30 1494 H 149.378 3.79636 3.38754 0
M  V30 1495 H 148.776 1.40091 5.48079 0
M  V30 1496 H 147.333 1.98368 6.20881 0
M  V30 1497 N 150.766 -0.704594 1.40972 0
M  V30 1498 C 151.696 -1.83124 1.44872 0
M  V30 1499 C 152.677 -1.67281 0.30838 0
M  V30 1500 O 153.862 -1.87149 0.518556 0
M  V30 1501 C 150.992 -3.21181 1.32136 0
M  V30 1502 C 149.946 -3.51714 2.43888 0
M  V30 1503 C 149.272 -4.89032 2.16222 0
M  V30 1504 C 150.572 -3.516 3.86232 0
M  V30 1505 H 152.266 -1.80117 2.39161 0
M  V30 1506 H 149.812 -0.865145 1.15114 0
M  V30 1507 H 151.765 -3.99702 1.33479 0
M  V30 1508 H 150.489 -3.24791 0.343279 0
M  V30 1509 H 149.148 -2.75539 2.41813 0
M  V30 1510 H 148.796 -4.89256 1.16778 0
M  V30 1511 H 148.496 -5.10426 2.911 0
M  V30 1512 H 150.02 -5.69873 2.19265 0
M  V30 1513 H 151.434 -4.2014 3.9007 0
M  V30 1514 H 149.831 -3.84523 4.60719 0
M  V30 1515 H 150.901 -2.50757 4.15029 0
M  V30 1516 N 152.244 -1.26651 -0.937939 0
M  V30 1517 C 153.177 -1.02811 -2.03728 0
M  V30 1518 C 154.155 0.0481915 -1.62529 0
M  V30 1519 O 155.339 -0.0948839 -1.88261 0
M  V30 1520 C 152.466 -0.557517 -3.3408 0
M  V30 1521 C 151.512 -1.62686 -3.94253 0
M  V30 1522 S 152.345 -3.21667 -4.28125 0
M  V30 1523 C 153.501 -2.76384 -5.61572 0
M  V30 1524 H 153.734 -1.95891 -2.23638 0
M  V30 1525 H 151.267 -1.10367 -1.07974 0
M  V30 1526 H 153.225 -0.292674 -4.09455 0
M  V30 1527 H 151.886 0.353062 -3.12109 0
M  V30 1528 H 151.079 -1.24866 -4.88287 0
M  V30 1529 H 150.681 -1.84324 -3.25424 0
M  V30 1530 H 152.973 -2.2105 -6.40424 0
M  V30 1531 H 153.916 -3.69123 -6.0428 0
M  V30 1532 H 154.324 -2.15847 -5.21604 0
M  V30 1533 N 153.722 1.14298 -1.08507 0
M  V30 1534 C 154.67 2.21483 -0.710483 0
M  V30 1535 C 155.664 1.66998 0.284234 0
M  V30 1536 O 156.87 1.79401 0.146692 0
M  V30 1537 H 153.245 0.721578 -0.211729 0
M  V30 1538 H 155.216 2.50348 -1.62384 0
M  V30 1539 C 153.965 3.4743 -0.137007 0
M  V30 1540 H 153.288 3.89686 -0.893592 0
M  V30 1541 H 154.728 4.2391 0.0872789 0
M  V30 1542 C 153.187 3.17548 1.12538 0
M  V30 1543 O 153.717 3.35437 2.21009 0
M  V30 1544 N 151.923 2.71499 1.03617 0
M  V30 1545 H 151.47 2.57143 0.153403 0
M  V30 1546 H 151.428 2.51881 1.88158 0
M  V30 1547 N 155.201 0.870884 1.31352 0
M  V30 1548 C 156.617 0.562932 1.49343 0
M  V30 1549 C 156.817 -0.902725 1.80148 0
M  V30 1550 O 155.873 -1.68484 1.88067 0
M  V30 1551 C 157.186 1.46393 2.62659 0
M  V30 1552 C 158.734 1.46607 2.76542 0
M  V30 1553 C 159.209 2.35266 3.92955 0
M  V30 1554 N 160.7 2.33151 4.00243 0
M  V30 1555 C 161.435 2.98471 4.89594 0
M  V30 1556 N 160.931 3.72964 5.8384 0
M  V30 1557 N 162.724 2.87775 4.82848 0
M  V30 1558 H 154.875 1.81923 1.09626 0
M  V30 1559 H 157.138 0.777934 0.541777 0
M  V30 1560 H 156.844 2.50689 2.46674 0
M  V30 1561 H 156.718 1.16314 3.58819 0
M  V30 1562 H 159.105 0.43069 2.9194 0
M  V30 1563 H 159.186 1.8071 1.81046 0
M  V30 1564 H 158.83 3.38881 3.78315 0
M  V30 1565 H 158.76 1.98487 4.87761 0
M  V30 1566 H 161.251 1.79006 3.32814 0
M  V30 1567 H 161.564 4.19932 6.4875 0
M  V30 1568 H 159.909 3.77073 5.83816 0
M  V30 1569 H 163.1 2.29116 4.08195 0
M  V30 1570 H 163.273 3.38961 5.52277 0
M  V30 1571 N 156.679 -1.44442 0.630414 0
M  V30 1572 C 157.609 -2.33418 -0.0618083 0
M  V30 1573 C 158.59 -1.48165 -0.835541 0
M  V30 1574 O 159.775 -1.76886 -0.801564 0
M  V30 1575 C 156.905 -3.31222 -1.04449 0
M  V30 1576 C 155.859 -4.26288 -0.382436 0
M  V30 1577 C 155.185 -5.13954 -1.47497 0
M  V30 1578 C 156.485 -5.1744 0.710865 0
M  V30 1579 H 158.179 -2.91548 0.681184 0
M  V30 1580 H 155.725 -1.40191 0.329026 0
M  V30 1581 H 157.678 -3.92351 -1.53748 0
M  V30 1582 H 156.402 -2.71299 -1.81836 0
M  V30 1583 H 155.061 -3.6649 0.0899054 0
M  V30 1584 H 154.709 -4.50385 -2.2397 0
M  V30 1585 H 154.409 -5.7837 -1.03737 0
M  V30 1586 H 155.933 -5.77955 -1.96979 0
M  V30 1587 H 157.347 -5.72509 0.300996 0
M  V30 1588 H 155.744 -5.90455 1.07156 0
M  V30 1589 H 156.814 -4.58496 1.57829 0
M  V30 1590 N 158.157 -0.370918 -1.53173 0
M  V30 1591 C 159.573 -0.0200818 -1.59587 0
M  V30 1592 C 159.773 1.46279 -1.38581 0
M  V30 1593 O 158.829 2.22506 -1.19363 0
M  V30 1594 C 160.142 -0.4808 -2.96831 0
M  V30 1595 C 161.69 -0.435477 -3.09956 0
M  V30 1596 C 162.165 -0.872092 -4.4962 0
M  V30 1597 N 163.656 -0.827364 -4.55751 0
M  V30 1598 C 164.391 -1.13683 -5.62018 0
M  V30 1599 N 163.887 -1.51584 -6.76014 0
M  V30 1600 N 165.68 -1.05927 -5.52029 0
M  V30 1601 H 157.831 -1.33652 -1.65079 0
M  V30 1602 H 160.094 -0.546634 -0.774529 0
M  V30 1603 H 159.8 -1.51577 -3.1736 0
M  V30 1604 H 159.674 0.129796 -3.76977 0
M  V30 1605 H 162.061 0.590371 -2.89134 0
M  V30 1606 H 162.142 -1.08164 -2.31806 0
M  V30 1607 H 161.786 -1.89608 -4.71181 0
M  V30 1608 H 161.716 -0.203127 -5.26208 0
M  V30 1609 H 164.207 -0.548216 -3.73902 0
M  V30 1610 H 164.52 -1.73609 -7.53047 0
M  V30 1611 H 162.865 -1.55454 -6.77391 0
M  V30 1612 H 166.056 -0.762321 -4.61851 0
M  V30 1613 H 166.229 -1.30378 -6.34749 0
M  V30 1614 N 159.635 1.57281 -0.100228 0
M  V30 1615 C 160.585 2.10848 0.86759 0
M  V30 1616 C 161.569 1.02473 1.24049 0
M  V30 1617 O 162.761 1.28739 1.21471 0
M  V30 1618 C 159.89 2.69648 2.12474 0
M  V30 1619 C 158.976 3.85074 1.77704 0
M  V30 1620 N 159.367 4.92897 1.13518 0
M  V30 1621 C 157.665 3.94905 2.07282 0
M  V30 1622 C 158.366 5.73475 0.974735 0
M  V30 1623 N 157.342 5.22675 1.4937 0
M  V30 1624 H 161.144 2.91594 0.367471 0
M  V30 1625 H 158.658 1.62074 0.102829 0
M  V30 1626 H 160.655 3.06356 2.82757 0
M  V30 1627 H 159.315 1.90359 2.63047 0
M  V30 1628 H 160.326 5.11662 0.801381 0
M  V30 1629 H 157.003 3.26633 2.60033 0
M  V30 1630 H 158.393 6.70238 0.472364 0
M  V30 1631 N 161.113 -0.173488 1.56642 0
M  V30 1632 C 162.524 -0.736155 1.71574 0
M  V30 1633 C 162.875 -1.82888 0.710389 0
M  V30 1634 O 162 -2.16017 -0.1287 0
M  V30 1635 C 162.595 -1.34211 3.11083 0
M  V30 1636 C 161.154 -1.85162 3.27707 0
M  V30 1637 C 160.301 -0.729765 2.67525 0
M  V30 1638 H 163.252 0.0518786 1.58615 0
M  V30 1639 H 163.273 -2.21178 3.09613 0
M  V30 1640 H 162.785 -0.546579 3.84232 0
M  V30 1641 H 160.886 -2.67366 2.59512 0
M  V30 1642 H 160.999 -1.99855 4.35425 0
M  V30 1643 H 159.363 -1.14965 2.27278 0
M  V30 1644 H 160.146 0.0538806 3.43258 0
M  V30 1645 N 162.591 -1.51276 -0.441967 0
M  V30 1646 C 163.539 -1.72823 -1.55676 0
M  V30 1647 C 164.533 -0.59445 -1.58627 0
M  V30 1648 O 165.739 -0.775715 -1.62427 0
M  V30 1649 H 162.114 -0.545983 -0.517113 0
M  V30 1650 H 164.085 -2.6628 -1.34675 0
M  V30 1651 C 162.834 -1.86619 -2.93375 0
M  V30 1652 H 162.157 -2.73264 -2.91834 0
M  V30 1653 H 163.597 -2.05709 -3.70756 0
M  V30 1654 C 162.056 -0.624842 -3.31055 0
M  V30 1655 O 162.586 0.222636 -4.01083 0
M  V30 1656 N 160.792 -0.470288 -2.86769 0
M  V30 1657 H 160.339 -1.161 -2.29953 0
M  V30 1658 H 160.297 0.359051 -3.12343 0
M  V30 1659 N 164.069 0.697108 -1.41344 0
M  V30 1660 C 165.318 1.45279 -1.39918 0
M  V30 1661 C 165.631 1.95597 -0.0109624 0
M  V30 1662 O 166.837 2.71208 0.125919 0
M  V30 1663 C 165.293 2.62695 -2.46007 0
M  V30 1664 C 164.901 2.19169 -3.90729 0
M  V30 1665 C 166.645 3.40336 -2.53715 0
M  V30 1666 C 164.552 3.33535 -4.88373 0
M  V30 1667 H 163.482 0.545692 -0.520323 0
M  V30 1668 H 166.133 0.756929 -1.67161 0
M  V30 1669 H 164.515 3.34541 -2.11892 0
M  V30 1670 H 165.689 1.54623 -4.34083 0
M  V30 1671 H 164.004 1.54525 -3.86666 0
M  V30 1672 H 166.601 4.2547 -3.2385 0
M  V30 1673 H 166.944 3.85418 -1.5735 0
M  V30 1674 H 167.477 2.75546 -2.86913 0
M  V30 1675 H 164.216 2.93468 -5.86137 0
M  V30 1676 H 163.736 3.96936 -4.49668 0
M  V30 1677 H 165.415 3.99335 -5.09059 0
M  V30 1678 N 165.547 1.27147 0.931209 0
M  V30 1679 C 166.477 1.12081 2.04842 0
M  V30 1680 C 167.458 0.0232364 1.70084 0
M  V30 1681 O 168.643 0.197085 1.93197 0
M  V30 1682 C 165.773 0.76354 3.38803 0
M  V30 1683 C 164.727 1.81396 3.87659 0
M  V30 1684 C 164.053 1.31075 5.18385 0
M  V30 1685 C 165.353 3.21739 4.11438 0
M  V30 1686 H 167.047 2.05537 2.17703 0
M  V30 1687 H 164.593 0.989603 1.04608 0
M  V30 1688 H 166.546 0.644982 4.16435 0
M  V30 1689 H 165.27 -0.206727 3.25945 0
M  V30 1690 H 163.929 1.92136 3.12217 0
M  V30 1691 H 163.577 0.330037 5.01916 0
M  V30 1692 H 163.277 2.013 5.52044 0
M  V30 1693 H 164.801 1.20506 5.98591 0
M  V30 1694 H 166.215 3.14019 4.79651 0
M  V30 1695 H 164.612 3.89644 4.56397 0
M  V30 1696 H 165.682 3.67054 3.16859 0
M  V30 1697 N 167.025 -1.13721 1.09112 0
M  V30 1698 C 168.441 -1.36914 0.820174 0
M  V30 1699 C 168.641 -1.93356 -0.567079 0
M  V30 1700 O 167.697 -2.15093 -1.32255 0
M  V30 1701 C 169.01 -2.3235 1.90877 0
M  V30 1702 C 170.558 -2.45973 1.93562 0
M  V30 1703 C 171.033 -3.44714 3.01556 0
M  V30 1704 N 172.524 -3.52263 3.00775 0
M  V30 1705 C 173.259 -4.28536 3.80978 0
M  V30 1706 N 172.755 -5.07991 4.71081 0
M  V30 1707 N 174.548 -4.23804 3.69251 0
M  V30 1708 H 166.699 -0.754348 1.98553 0
M  V30 1709 H 168.962 -0.3944 0.862063 0
M  V30 1710 H 168.668 -1.98027 2.90651 0
M  V30 1711 H 168.542 -3.32332 1.78424 0
M  V30 1712 H 170.929 -2.79584 0.944286 0
M  V30 1713 H 171.01 -1.45926 2.10093 0
M  V30 1714 H 170.654 -3.11835 4.00901 0
M  V30 1715 H 170.584 -4.44558 2.82269 0
M  V30 1716 H 173.075 -2.95567 2.35475 0
M  V30 1717 H 173.388 -5.63487 5.28869 0
M  V30 1718 H 171.733 -5.07235 4.75119 0
M  V30 1719 H 174.924 -3.60806 2.98222 0
M  V30 1720 H 175.097 -4.82995 4.31995 0
M  V30 1721 N 168.503 -0.877838 -1.30888 0
M  V30 1722 C 169.75 -0.492696 -1.96415 0
M  V30 1723 C 170.078 0.956671 -1.69346 0
M  V30 1724 O 169.333 1.68993 -0.986913 0
M  V30 1725 C 169.632 -0.705748 -3.50363 0
M  V30 1726 C 169.298 -2.1291 -3.97467 0
M  V30 1727 C 167.96 -2.51834 -4.1004 0
M  V30 1728 C 170.312 -3.05702 -4.22132 0
M  V30 1729 C 167.64 -3.82775 -4.44635 0
M  V30 1730 C 169.992 -4.36166 -4.58194 0
M  V30 1731 C 168.656 -4.74993 -4.68975 0
M  V30 1732 H 167.926 -0.18029 -0.718733 0
M  V30 1733 H 170.573 -1.11233 -1.55883 0
M  V30 1734 H 168.878 -0.00303058 -3.918 0
M  V30 1735 H 170.575 -0.387456 -3.99124 0
M  V30 1736 H 167.165 -1.81694 -3.88182 0
M  V30 1737 H 171.349 -2.76853 -4.11906 0
M  V30 1738 H 166.605 -4.12609 -4.51181 0
M  V30 1739 H 170.779 -5.08111 -4.76231 0
M  V30 1740 H 168.406 -5.76495 -4.95537 0
M  V30 1741 N 169.982 1.44106 -0.638065 0
M  V30 1742 C 170.915 2.27924 0.112161 0
M  V30 1743 C 171.893 1.38945 0.844574 0
M  V30 1744 O 173.077 1.68386 0.847248 0
M  V30 1745 C 170.204 3.18029 1.16512 0
M  V30 1746 C 169.25 4.23163 0.532458 0
M  V30 1747 S 170.083 5.31131 -0.682666 0
M  V30 1748 C 171.239 6.24805 0.37013 0
M  V30 1749 H 171.472 2.91205 -0.598887 0
M  V30 1750 H 169.005 1.48394 -0.426441 0
M  V30 1751 H 170.963 3.70492 1.76766 0
M  V30 1752 H 169.624 2.53955 1.8484 0
M  V30 1753 H 168.817 4.86252 1.32571 0
M  V30 1754 H 168.419 3.74 0.00437644 0
M  V30 1755 H 170.711 6.66042 1.24071 0
M  V30 1756 H 171.654 7.07741 -0.225349 0
M  V30 1757 H 172.062 5.60154 0.699141 0
M  V30 1758 N 171.46 0.379036 1.52974 0
M  V30 1759 C 172.708 -0.206014 2.01047 0
M  V30 1760 C 173.029 -1.48175 1.26765 0
M  V30 1761 O 172.299 -1.92085 0.384743 0
M  V30 1762 H 170.879 -0.0791184 0.742798 0
M  V30 1763 H 173.541 0.508366 1.88153 0
M  V30 1764 H 172.637 -0.423501 3.09213 0
M  V30 1765 N 172.938 -1.57226 0.108567 0
M  V30 1766 C 174.184 -1.95121 -0.552761 0
M  V30 1767 C 174.517 -0.991345 -1.66991 0
M  V30 1768 O 173.792 -0.0267211 -1.94482 0
M  V30 1769 C 174.075 -3.43039 -1.09528 0
M  V30 1770 C 173.928 -4.49797 0.0177332 0
M  V30 1771 C 175.247 -3.92567 -1.98945 0
M  V30 1772 H 172.366 -0.709496 -0.199461 0
M  V30 1773 H 175.008 -1.89126 0.182011 0
M  V30 1774 H 173.158 -3.48279 -1.72146 0
M  V30 1775 H 174.83 -4.56661 0.652584 0
M  V30 1776 H 173.073 -4.284 0.682309 0
M  V30 1777 H 173.744 -5.50528 -0.402919 0
M  V30 1778 H 176.22 -3.89565 -1.46214 0
M  V30 1779 H 175.096 -4.96605 -2.33827 0
M  V30 1780 H 175.357 -3.32648 -2.91201 0
M  V30 1781 N 174.416 0.165178 -1.56732 0
M  V30 1782 C 175.656 0.887231 -1.8414 0
M  V30 1783 C 176.02 1.79159 -0.690353 0
M  V30 1784 O 177.221 2.55172 -0.845032 0
M  V30 1785 C 175.492 1.65674 -3.16681 0
M  V30 1786 S 177.051 2.42671 -3.6559 0
M  V30 1787 H 173.869 0.297042 -0.645978 0
M  V30 1788 H 176.471 0.148439 -1.94936 0
M  V30 1789 H 175.175 0.983507 -3.98441 0
M  V30 1790 H 174.706 2.43679 -3.08843 0
M  V30 1791 H 176.721 3.67499 -3.33406 0
M  V30 1792 N 175.894 1.51508 0.433938 0
M  V30 1793 C 177.14 1.64588 1.18484 0
M  V30 1794 C 177.473 0.362666 1.90784 0
M  V30 1795 O 176.748 -0.637892 1.83742 0
M  V30 1796 C 177.031 2.85149 2.19913 0
M  V30 1797 C 176.884 4.23456 1.51674 0
M  V30 1798 C 178.203 3.01227 3.20858 0
M  V30 1799 H 175.322 0.598994 0.429389 0
M  V30 1800 H 177.964 1.84002 0.473647 0
M  V30 1801 H 176.114 2.68729 2.80566 0
M  V30 1802 H 177.786 4.51552 0.943322 0
M  V30 1803 H 176.029 4.25998 0.819035 0
M  V30 1804 H 176.7 5.03812 2.2556 0
M  V30 1805 H 179.176 3.16382 2.70263 0
M  V30 1806 H 178.052 3.87141 3.89118 0
M  V30 1807 H 178.313 2.13447 3.8716 0
M  V30 1808 N 177.372 -0.689602 1.41712 0
M  V30 1809 C 178.322 -1.79571 1.40493 0
M  V30 1810 C 179.306 -1.58473 0.278409 0
M  V30 1811 O 180.498 -1.69204 0.519532 0
M  V30 1812 C 177.627 -3.17923 1.29536 0
M  V30 1813 C 176.713 -3.44695 2.47075 0
M  V30 1814 N 177.104 -3.42132 3.72531 0
M  V30 1815 C 175.402 -3.75269 2.41017 0
M  V30 1816 C 176.103 -3.67976 4.50521 0
M  V30 1817 N 175.079 -3.88014 3.80718 0
M  V30 1818 H 178.881 -1.75961 2.35404 0
M  V30 1819 H 176.395 -0.889839 1.35851 0
M  V30 1820 H 178.392 -3.97167 1.26745 0
M  V30 1821 H 177.052 -3.22741 0.356153 0
M  V30 1822 H 178.063 -3.22375 4.05333 0
M  V30 1823 H 174.74 -3.87421 1.55599 0
M  V30 1824 H 176.13 -3.7208 5.59469 0
M  V30 1825 N 178.85 -1.27639 -0.924453 0
M  V30 1826 C 179.782 -1.06442 -2.02985 0
M  V30 1827 C 180.795 -0.0194771 -1.62788 0
M  V30 1828 O 181.984 -0.261388 -1.76576 0
M  V30 1829 C 179.084 -0.59327 -3.33667 0
M  V30 1830 C 178.257 -1.71123 -4.02537 0
M  V30 1831 C 177.316 -1.23527 -5.11495 0
M  V30 1832 O 176.342 -1.93553 -5.35281 0
M  V30 1833 N 177.544 -0.0926678 -5.80426 0
M  V30 1834 H 180.309 -2.01633 -2.2173 0
M  V30 1835 H 177.87 -1.19248 -1.09505 0
M  V30 1836 H 179.862 -0.258686 -4.03872 0
M  V30 1837 H 178.432 0.265502 -3.1147 0
M  V30 1838 H 177.652 -2.21593 -3.26022 0
M  V30 1839 H 178.94 -2.46145 -4.45298 0
M  V30 1840 H 178.338 0.491741 -5.63559 0
M  V30 1841 H 176.895 0.182714 -6.51544 0
M  V30 1842 N 180.328 1.1314 -1.09713 0
M  V30 1843 C 181.576 1.84119 -0.833338 0
M  V30 1844 C 181.897 1.84097 0.642904 0
M  V30 1845 O 181.167 1.29881 1.46655 0
M  V30 1846 H 179.747 0.681766 -0.305293 0
M  V30 1847 H 182.409 1.37038 -1.38588 0
M  V30 1848 H 181.505 2.88543 -1.18951 0
M  V30 1849 N 181.806 0.884767 1.30421 0
M  V30 1850 C 182.738 0.308655 2.27112 0
M  V30 1851 C 183.751 -0.536655 1.53701 0
M  V30 1852 O 184.94 -0.35624 1.74909 0
M  V30 1853 C 182.04 -0.579782 3.33904 0
M  V30 1854 C 181.213 0.236417 4.36761 0
M  V30 1855 C 180.272 -0.582482 5.22966 0
M  V30 1856 O 179.298 -0.00525502 5.692 0
M  V30 1857 N 180.5 -1.89163 5.48815 0
M  V30 1858 H 183.265 1.13964 2.77186 0
M  V30 1859 H 180.826 0.747731 1.43599 0
M  V30 1860 H 182.818 -1.13366 3.88497 0
M  V30 1861 H 181.388 -1.31144 2.83761 0
M  V30 1862 H 180.608 0.97174 3.82035 0
M  V30 1863 H 181.896 0.795924 5.02536 0
M  V30 1864 H 181.294 -2.38352 5.13035 0
M  V30 1865 H 179.851 -2.39296 6.06284 0
M  V30 1866 N 183.284 -1.43765 0.645699 0
M  V30 1867 C 184.214 -2.33471 -0.0370477 0
M  V30 1868 C 185.195 -1.49042 -0.819779 0
M  V30 1869 O 186.38 -1.77726 -0.782758 0
M  V30 1870 C 183.51 -3.32311 -1.0093 0
M  V30 1871 C 182.464 -4.2667 -0.337201 0
M  V30 1872 C 181.79 -5.1549 -1.42037 0
M  V30 1873 C 183.09 -5.16657 0.765706 0
M  V30 1874 H 184.784 -2.90809 0.712069 0
M  V30 1875 H 182.33 -1.39834 0.343876 0
M  V30 1876 H 184.283 -3.9396 -1.49578 0
M  V30 1877 H 183.007 -2.73213 -1.78948 0
M  V30 1878 H 181.666 -3.66374 0.128771 0
M  V30 1879 H 181.314 -4.52735 -2.1918 0
M  V30 1880 H 181.014 -5.79438 -0.975966 0
M  V30 1881 H 182.538 -5.80012 -1.90838 0
M  V30 1882 H 183.952 -5.72158 0.361702 0
M  V30 1883 H 182.349 -5.89286 1.13413 0
M  V30 1884 H 183.419 -4.56796 1.62683 0
M  V30 1885 N 184.763 -0.387143 -1.52771 0
M  V30 1886 C 185.713 0.465942 -2.23188 0
M  V30 1887 C 186.697 1.03138 -1.23496 0
M  V30 1888 O 187.889 0.957845 -1.48843 0
M  V30 1889 C 185.018 1.59384 -3.04059 0
M  V30 1890 C 184.104 1.04024 -4.11144 0
M  V30 1891 N 184.495 0.211416 -5.05358 0
M  V30 1892 C 182.793 1.31295 -4.26237 0
M  V30 1893 C 183.494 -0.0941698 -5.81624 0
M  V30 1894 N 182.47 0.509207 -5.4121 0
M  V30 1895 H 186.272 -0.173856 -2.93385 0
M  V30 1896 H 183.786 -0.19633 -1.61209 0
M  V30 1897 H 185.783 2.21738 -3.53041 0
M  V30 1898 H 184.443 2.23648 -2.35397 0
M  V30 1899 H 185.454 -0.151151 -5.17679 0
M  V30 1900 H 182.131 1.95679 -3.68803 0
M  V30 1901 H 183.521 -0.765572 -6.67524 0
M  V30 1902 N 186.241 1.57166 -0.116904 0
M  V30 1903 C 187.204 2.14039 0.819742 0
M  V30 1904 C 188.204 1.07477 1.19605 0
M  V30 1905 O 189.394 1.33263 1.1219 0
M  V30 1906 C 186.526 2.67891 2.10826 0
M  V30 1907 H 187.719 2.98128 0.325511 0
M  V30 1908 H 185.272 1.55739 0.132312 0
M  V30 1909 H 186.007 1.87384 2.64685 0
M  V30 1910 H 185.792 3.45823 1.84793 0
M  V30 1911 H 187.282 3.11809 2.77785 0
M  V30 1912 N 187.719 -0.156864 1.56817 0
M  V30 1913 C 188.649 -1.19589 2.00551 0
M  V30 1914 C 189.63 -1.4536 0.883426 0
M  V30 1915 O 190.815 -1.56449 1.15054 0
M  V30 1916 C 187.945 -2.53143 2.37773 0
M  V30 1917 C 186.899 -2.41913 3.53075 0
M  V30 1918 C 186.225 -3.80088 3.76081 0
M  V30 1919 C 187.525 -1.91157 4.86062 0
M  V30 1920 H 189.219 -0.832293 2.87599 0
M  V30 1921 H 186.765 -0.398918 1.38364 0
M  V30 1922 H 188.718 -3.26047 2.66967 0
M  V30 1923 H 187.442 -2.91319 1.4765 0
M  V30 1924 H 186.101 -1.71462 3.24031 0
M  V30 1925 H 185.749 -4.15683 2.83225 0
M  V30 1926 H 185.449 -3.73439 4.53671 0
M  V30 1927 H 186.973 -4.54556 4.0769 0
M  V30 1928 H 188.387 -2.53846 5.14038 0
M  V30 1929 H 186.784 -1.95422 5.67389 0
M  V30 1930 H 187.854 -0.866673 4.77092 0
M  V30 1931 N 189.197 -1.51736 -0.425897 0
M  V30 1932 C 190.425 -1.68794 -1.1965 0
M  V30 1933 C 190.84 -0.390164 -1.84725 0
M  V30 1934 O 190.197 0.632376 -1.71194 0
M  V30 1935 C 190.248 -2.81174 -2.27208 0
M  V30 1936 O 189.969 -4.05925 -1.64793 0
M  V30 1937 C 191.47 -3.09599 -3.17275 0
M  V30 1938 H 188.69 -0.566128 -0.360194 0
M  V30 1939 H 191.234 -1.98211 -0.503249 0
M  V30 1940 H 189.389 -2.54324 -2.9223 0
M  V30 1941 H 189.803 -4.68423 -2.35967 0
M  V30 1942 H 191.277 -3.91786 -3.88854 0
M  V30 1943 H 191.754 -2.22468 -3.78688 0
M  V30 1944 H 192.36 -3.38151 -2.57941 0
M  V30 1945 N 190.675 0.682077 -1.42076 0
M  V30 1946 C 191.585 1.82535 -1.47371 0
M  V30 1947 C 192.601 1.7017 -0.363079 0
M  V30 1948 O 193.777 1.91848 -0.612875 0
M  V30 1949 C 190.842 3.18624 -1.36674 0
M  V30 1950 C 189.903 3.42999 -2.58167 0
M  V30 1951 C 189.136 4.72595 -2.4797 0
M  V30 1952 O 189.359 5.50006 -1.5116 0
M  V30 1953 O 188.293 4.98054 -3.37974 0
M  V30 1954 H 192.119 1.81023 -2.43853 0
M  V30 1955 H 189.704 0.836887 -1.2376 0
M  V30 1956 H 191.586 3.99847 -1.33043 0
M  V30 1957 H 190.261 3.20789 -0.433138 0
M  V30 1958 H 189.168 2.61653 -2.67373 0
M  V30 1959 H 190.501 3.45659 -3.50401 0
M  V30 1960 N 192.153 1.28127 0.917671 0
M  V30 1961 C 193.383 1.17722 1.6978 0
M  V30 1962 C 193.791 -0.267261 1.87303 0
M  V30 1963 O 193.134 -1.19286 1.39702 0
M  V30 1964 C 193.196 1.79958 3.11216 0
M  V30 1965 C 192.86 3.29187 3.16993 0
M  V30 1966 C 193.857 4.25679 2.98485 0
M  V30 1967 C 191.542 3.70075 3.39632 0
M  V30 1968 C 193.536 5.61035 3.02521 0
M  V30 1969 C 191.223 5.05557 3.433 0
M  V30 1970 C 192.221 6.00847 3.24764 0
M  V30 1971 O 191.909 7.33859 3.28187 0
M  V30 1972 H 191.641 0.409788 0.537634 0
M  V30 1973 H 194.195 1.69694 1.15728 0
M  V30 1974 H 192.425 1.22475 3.66793 0
M  V30 1975 H 194.114 1.64125 3.71238 0
M  V30 1976 H 194.88 3.95426 2.80826 0
M  V30 1977 H 190.759 2.96373 3.53106 0
M  V30 1978 H 194.303 6.35388 2.87971 0
M  V30 1979 H 190.2 5.35462 3.60486 0
M  V30 1980 H 190.968 7.42436 3.44575 0
M  V30 1981 N 193.631 -1.12557 1.10312 0
M  V30 1982 C 194.564 -2.1737 0.694674 0
M  V30 1983 C 195.542 -1.59745 -0.303373 0
M  V30 1984 O 196.726 -1.87408 -0.202578 0
M  V30 1985 C 193.853 -3.38691 0.0248052 0
M  V30 1986 C 192.899 -4.14943 0.986121 0
M  V30 1987 S 193.732 -4.73413 2.50281 0
M  V30 1988 C 194.888 -5.9807 1.84562 0
M  V30 1989 H 195.121 -2.5168 1.58255 0
M  V30 1990 H 192.654 -1.23998 0.919992 0
M  V30 1991 H 194.612 -4.08959 -0.355361 0
M  V30 1992 H 193.273 -3.02664 -0.839851 0
M  V30 1993 H 192.466 -5.01854 0.464651 0
M  V30 1994 H 192.068 -3.50377 1.30813 0
M  V30 1995 H 194.36 -6.67232 1.17507 0
M  V30 1996 H 195.303 -6.54841 2.69423 0
M  V30 1997 H 195.711 -5.49073 1.31069 0
M  V30 1998 N 195.109 -0.891671 -1.2995 0
M  V30 1999 C 196.057 -0.353066 -2.29905 0
M  V30 2000 C 197.051 0.543509 -1.60444 0
M  V30 2001 O 198.257 0.4272 -1.74857 0
M  V30 2002 H 194.632 -0.095531 -0.745907 0
M  V30 2003 H 196.603 -1.20961 -2.72784 0
M  V30 2004 C 195.352 0.411475 -3.45257 0
M  V30 2005 H 194.675 -0.269182 -3.98893 0
M  V30 2006 H 196.115 0.753328 -4.17254 0
M  V30 2007 C 194.574 1.6111 -2.9588 0
M  V30 2008 O 195.104 2.71045 -2.96475 0
M  V30 2009 N 193.31 1.45054 -2.51809 0
M  V30 2010 H 192.857 0.556175 -2.51524 0
M  V30 2011 H 192.815 2.25453 -2.1913 0
M  V30 2012 N 196.587 1.43421 -0.653314 0
M  V30 2013 C 197.835 2.01414 -0.166415 0
M  V30 2014 C 198.156 1.51803 1.22397 0
M  V30 2015 O 197.426 0.730693 1.81763 0
M  V30 2016 H 196.006 0.744703 -0.0585319 0
M  V30 2017 H 198.668 1.75629 -0.845003 0
M  V30 2018 H 197.764 3.11734 -0.151111 0
M  V30 2019 N 198.065 0.39524 1.52563 0
M  V30 2020 C 199.313 -0.184678 2.01254 0
M  V30 2021 C 199.634 -1.46822 1.28329 0
M  V30 2022 O 198.904 -1.91666 0.405094 0
M  V30 2023 H 197.484 -0.0712355 0.743596 0
M  V30 2024 H 200.146 0.528293 1.87603 0
M  V30 2025 H 199.242 -0.390681 3.09645 0
M  V30 2026 N 199.544 -1.57102 0.125237 0
M  V30 2027 C 200.772 -1.99761 -0.538797 0
M  V30 2028 C 201.187 -1.00503 -1.59827 0
M  V30 2029 O 200.544 0.00119474 -1.825 0
M  V30 2030 C 200.595 -3.42408 -1.15927 0
M  V30 2031 O 200.316 -4.37869 -0.142143 0
M  V30 2032 C 201.817 -4.00232 -1.90602 0
M  V30 2033 H 199.037 -0.655772 -0.14214 0
M  V30 2034 H 201.581 -2.03383 0.213413 0
M  V30 2035 H 199.736 -3.39706 -1.86223 0
M  V30 2036 H 200.15 -5.21128 -0.593775 0
M  V30 2037 H 201.624 -5.02105 -2.29335 0
M  V30 2038 H 202.101 -3.39721 -2.78363 0
M  V30 2039 H 202.707 -4.06499 -1.25055 0
M  V30 2040 N 201.022 0.148545 -1.56898 0
M  V30 2041 C 201.952 1.18524 -2.01182 0
M  V30 2042 C 202.933 1.4489 -0.891123 0
M  V30 2043 O 204.118 1.55836 -1.15882 0
M  V30 2044 C 201.248 2.51879 -2.39112 0
M  V30 2045 C 200.202 2.40038 -3.54353 0
M  V30 2046 C 199.528 3.78089 -3.78091 0
M  V30 2047 C 200.828 1.88577 -4.87069 0
M  V30 2048 H 202.522 0.817029 -2.88036 0
M  V30 2049 H 200.068 0.391575 -1.38574 0
M  V30 2050 H 202.021 3.24627 -2.68692 0
M  V30 2051 H 200.745 2.90532 -1.49193 0
M  V30 2052 H 199.404 1.69742 -3.24936 0
M  V30 2053 H 199.052 4.14175 -2.85426 0
M  V30 2054 H 198.752 3.71028 -4.55645 0
M  V30 2055 H 200.276 4.52387 -4.10095 0
M  V30 2056 H 201.69 2.51117 -5.15377 0
M  V30 2057 H 200.087 1.9241 -5.68417 0
M  V30 2058 H 201.157 0.84136 -4.77545 0
M  V30 2059 N 202.5 1.5196 0.417844 0
M  V30 2060 C 203.41 1.77554 1.53336 0
M  V30 2061 C 204.426 0.660655 1.6097 0
M  V30 2062 O 205.602 0.945099 1.77848 0
M  V30 2063 C 202.667 1.91291 2.89152 0
M  V30 2064 C 201.728 3.15183 2.91475 0
M  V30 2065 C 200.961 3.28256 4.20813 0
M  V30 2066 O 201.184 2.46798 5.14244 0
M  V30 2067 O 200.118 4.21356 4.29817 0
M  V30 2068 H 203.944 2.7222 1.34647 0
M  V30 2069 H 201.529 1.36698 0.602828 0
M  V30 2070 H 203.411 2.02199 3.69721 0
M  V30 2071 H 202.086 0.998129 3.07927 0
M  V30 2072 H 200.993 3.09739 2.09791 0
M  V30 2073 H 202.326 4.06414 2.77648 0
M  V30 2074 N 203.978 -0.674533 1.42435 0
M  V30 2075 C 204.91 -1.80005 1.41883 0
M  V30 2076 C 205.923 -1.59667 0.31787 0
M  V30 2077 O 207.112 -1.68781 0.580973 0
M  V30 2078 C 204.212 -3.17114 1.19549 0
M  V30 2079 C 203.385 -3.64299 2.42084 0
M  V30 2080 C 202.444 -4.80142 2.15291 0
M  V30 2081 O 201.47 -4.90673 2.88493 0
M  V30 2082 N 202.672 -5.68869 1.1562 0
M  V30 2083 H 205.437 -1.80964 2.38898 0
M  V30 2084 H 202.998 -0.857633 1.37318 0
M  V30 2085 H 204.99 -3.92267 0.995417 0
M  V30 2086 H 203.56 -3.11053 0.310569 0
M  V30 2087 H 202.78 -2.79822 2.77657 0
M  V30 2088 H 204.068 -3.92567 3.23679 0
M  V30 2089 H 203.466 -5.63012 0.550765 0
M  V30 2090 H 202.023 -6.43833 1.016 0
M  V30 2091 N 205.456 -1.28612 -0.910864 0
M  V30 2092 C 206.386 -1.15326 -2.03032 0
M  V30 2093 C 207.367 -0.0502924 -1.70026 0
M  V30 2094 O 208.552 -0.227797 -1.92859 0
M  V30 2095 C 205.682 -0.817343 -3.37545 0
M  V30 2096 C 204.636 -1.8754 -3.84724 0
M  V30 2097 C 203.962 -1.39305 -5.16235 0
M  V30 2098 C 205.262 -3.28244 -4.06267 0
M  V30 2099 H 206.956 -2.08975 -2.14406 0
M  V30 2100 H 204.502 -1.00612 -1.03021 0
M  V30 2101 H 206.455 -0.711151 -4.15356 0
M  V30 2102 H 205.179 0.154846 -3.26233 0
M  V30 2103 H 203.838 -1.97079 -3.09121 0
M  V30 2104 H 203.486 -0.409846 -5.01328 0
M  V30 2105 H 203.186 -2.10057 -5.48771 0
M  V30 2106 H 204.71 -1.30014 -5.96598 0
M  V30 2107 H 206.124 -3.21611 -4.74594 0
M  V30 2108 H 204.521 -3.96855 -4.5014 0
M  V30 2109 H 205.591 -3.72048 -3.10979 0
M  V30 2110 N 206.934 1.1197 -1.10907 0
M  V30 2111 C 207.864 2.19928 -0.784473 0
M  V30 2112 C 208.845 1.6833 0.244726 0
M  V30 2113 O 210.03 1.93892 0.109418 0
M  V30 2114 C 207.16 3.46597 -0.220827 0
M  V30 2115 C 206.114 4.11376 -1.18127 0
M  V30 2116 C 205.44 5.32554 -0.478594 0
M  V30 2117 C 206.74 4.56945 -2.52979 0
M  V30 2118 H 208.434 2.47337 -1.68715 0
M  V30 2119 H 205.98 1.18879 -0.812642 0
M  V30 2120 H 207.933 4.21396 0.0184278 0
M  V30 2121 H 206.657 3.1863 0.717113 0
M  V30 2122 H 205.316 3.38564 -1.40606 0
M  V30 2123 H 204.964 5.00856 0.463976 0
M  V30 2124 H 204.664 5.76844 -1.11912 0
M  V30 2125 H 206.188 6.10096 -0.248 0
M  V30 2126 H 207.602 5.23093 -2.3462 0
M  V30 2127 H 205.999 5.1203 -3.12962 0
M  V30 2128 H 207.069 3.70676 -3.12614 0
M  V30 2129 N 208.412 0.89855 1.29475 0
M  V30 2130 C 209.637 0.538561 2.00285 0
M  V30 2131 C 210.062 -0.869135 1.66816 0
M  V30 2132 O 209.42 -1.57831 0.892145 0
M  V30 2133 C 209.468 0.736475 3.52999 0
M  V30 2134 O 208.572 -0.211537 4.11857 0
M  V30 2135 H 207.913 0.210563 0.62973 0
M  V30 2136 H 210.443 1.20982 1.64998 0
M  V30 2137 H 210.453 0.640685 4.02938 0
M  V30 2138 H 209.128 1.76276 3.76696 0
M  V30 2139 H 207.705 -0.0682991 3.72837 0
M  V30 2140 N 209.89 -1.43072 0.660911 0
M  V30 2141 C 211.115 -2.06584 0.183805 0
M  V30 2142 C 211.54 -1.49257 -1.14472 0
M  V30 2143 O 210.898 -0.605528 -1.70889 0
M  V30 2144 C 210.946 -3.60418 0.114434 0
M  V30 2145 O 210.05 -4.01981 -0.921137 0
M  V30 2146 H 209.391 -0.656669 0.0983994 0
M  V30 2147 H 211.921 -1.83447 0.906006 0
M  V30 2148 H 211.931 -4.07946 -0.0663394 0
M  V30 2149 H 210.606 -4.01519 1.08422 0
M  V30 2150 H 209.183 -3.66029 -0.71253 0
M  V30 2151 N 211.368 -0.403325 -1.52352 0
M  V30 2152 C 212.779 0.0675782 -1.86578 0
M  V30 2153 C 213.13 1.44941 -1.32236 0
M  V30 2154 O 212.255 2.06112 -0.659307 0
M  V30 2155 C 212.85 0.129404 -3.38553 0
M  V30 2156 C 211.409 0.544629 -3.72439 0
M  V30 2157 C 210.556 -0.284551 -2.75836 0
M  V30 2158 H 213.507 -0.620631 -1.46061 0
M  V30 2159 H 213.528 0.94581 -3.68558 0
M  V30 2160 H 213.04 -0.87645 -3.78074 0
M  V30 2161 H 211.141 1.55734 -3.38493 0
M  V30 2162 H 211.254 0.293046 -4.78203 0
M  V30 2163 H 209.618 0.252258 -2.53448 0
M  V30 2164 H 210.401 -1.28865 -3.18196 0
M  V30 2165 N 212.846 1.57033 -0.133567 0
M  V30 2166 C 213.756 2.19632 0.824564 0
M  V30 2167 C 214.772 1.17666 1.28182 0
M  V30 2168 O 215.948 1.50193 1.3418 0
M  V30 2169 C 213.013 2.79499 2.05137 0
M  V30 2170 C 212.074 3.96548 1.64464 0
M  V30 2171 C 211.307 4.5355 2.81297 0
M  V30 2172 O 211.53 4.09438 3.97136 0
M  V30 2173 O 210.464 5.44018 2.57542 0
M  V30 2174 H 214.29 3.01991 0.321766 0
M  V30 2175 H 211.875 1.49112 0.0927889 0
M  V30 2176 H 213.757 3.17602 2.7696 0
M  V30 2177 H 212.432 2.00162 2.54395 0
M  V30 2178 H 211.339 3.63186 0.897048 0
M  V30 2179 H 212.672 4.77364 1.19934 0
M  V30 2180 N 214.325 -0.140222 1.56975 0
M  V30 2181 C 215.736 -0.699596 1.73097 0
M  V30 2182 C 216.087 -1.8134 0.749022 0
M  V30 2183 O 215.212 -2.16241 -0.0828503 0
M  V30 2184 C 215.807 -1.27582 3.1386 0
M  V30 2185 C 214.366 -1.78169 3.31561 0
M  V30 2186 C 213.513 -0.672855 2.69013 0
M  V30 2187 H 216.464 0.0855115 1.58469 0
M  V30 2188 H 216.485 -2.14561 3.14235 0
M  V30 2189 H 215.997 -0.464955 3.85305 0
M  V30 2190 H 214.098 -2.61801 2.65124 0
M  V30 2191 H 214.211 -1.90574 4.39566 0
M  V30 2192 H 212.575 -1.10118 2.29665 0
M  V30 2193 H 213.358 0.126679 3.43066 0
M  V30 2194 N 215.803 -1.52179 -0.40978 0
M  V30 2195 C 216.733 -1.78435 -1.5061 0
M  V30 2196 C 217.714 -0.635295 -1.57791 0
M  V30 2197 O 218.899 -0.880823 -1.73076 0
M  V30 2198 C 216.029 -1.93444 -2.88439 0
M  V30 2199 C 214.983 -3.09038 -2.96108 0
M  V30 2200 C 214.309 -3.09268 -4.36185 0
M  V30 2201 C 215.609 -4.48508 -2.67652 0
M  V30 2202 H 217.303 -2.70237 -1.28889 0
M  V30 2203 H 214.849 -1.30036 -0.618605 0
M  V30 2204 H 216.802 -2.10394 -3.65119 0
M  V30 2205 H 215.526 -0.983129 -3.11452 0
M  V30 2206 H 214.185 -2.91837 -2.21872 0
M  V30 2207 H 213.833 -2.11861 -4.56206 0
M  V30 2208 H 213.533 -3.86907 -4.42241 0
M  V30 2209 H 215.057 -3.28348 -5.14801 0
M  V30 2210 H 216.471 -4.65918 -3.34056 0
M  V30 2211 H 214.868 -5.28059 -2.85085 0
M  V30 2212 H 215.938 -4.56649 -1.63095 0
M  V30 2213 N 217.281 0.66697 -1.42791 0
M  V30 2214 C 218.506 1.46004 -1.47301 0
M  V30 2215 C 218.931 1.87894 -0.0880317 0
M  V30 2216 O 218.289 1.56502 0.915253 0
M  V30 2217 C 218.337 2.68031 -2.41229 0
M  V30 2218 O 217.441 3.6659 -1.88906 0
M  V30 2219 H 216.782 0.43832 -0.49877 0
M  V30 2220 H 219.312 0.817391 -1.87563 0
M  V30 2221 H 219.322 3.1601 -2.58073 0
M  V30 2222 H 217.997 2.36883 -3.41847 0
M  V30 2223 H 216.574 3.25661 -1.81656 0
M  V30 2224 N 218.759 1.29093 0.90403 0
M  V30 2225 C 220.005 1.17996 1.65676 0
M  V30 2226 C 220.36 -0.266816 1.90541 0
M  V30 2227 O 219.653 -1.19 1.50165 0
M  V30 2228 C 219.847 1.92224 3.01305 0
M  V30 2229 C 219.676 3.43972 2.89678 0
M  V30 2230 C 218.446 4.1332 2.90679 0
M  V30 2231 C 220.644 4.39546 2.67028 0
M  V30 2232 N 218.626 5.51463 2.69743 0
M  V30 2233 C 219.997 5.65119 2.5503 0
M  V30 2234 C 222.052 4.29359 2.52101 0
M  V30 2235 C 220.755 6.81663 2.29626 0
M  V30 2236 C 222.781 5.4565 2.28079 0
M  V30 2237 C 222.143 6.70193 2.16843 0
M  V30 2238 H 218.242 0.486759 0.612037 0
M  V30 2239 H 220.826 1.62868 1.06688 0
M  V30 2240 H 218.997 1.49773 3.58361 0
M  V30 2241 H 220.729 1.73429 3.65656 0
M  V30 2242 H 217.484 3.64984 3.01801 0
M  V30 2243 H 217.908 6.24105 2.6234 0
M  V30 2244 H 222.55 3.33769 2.59534 0
M  V30 2245 H 220.268 7.77313 2.20932 0
M  V30 2246 H 223.854 5.39664 2.1738 0
M  V30 2247 H 222.734 7.58659 1.98511 0
M  V30 2248 N 220.237 -1.11381 1.11499 0
M  V30 2249 C 221.648 -1.6465 0.880191 0
M  V30 2250 C 221.999 -1.87199 -0.587434 0
M  V30 2251 O 221.124 -1.60667 -1.44966 0
M  V30 2252 C 221.719 -2.99105 1.59128 0
M  V30 2253 C 220.278 -3.49279 1.40289 0
M  V30 2254 C 219.425 -2.24077 1.63354 0
M  V30 2255 H 222.376 -0.950123 1.27116 0
M  V30 2256 H 222.397 -3.66107 1.03664 0
M  V30 2257 H 221.909 -2.82661 2.65941 0
M  V30 2258 H 220.01 -3.70887 0.356888 0
M  V30 2259 H 220.123 -4.2803 2.15238 0
M  V30 2260 H 218.487 -2.31733 1.05698 0
M  V30 2261 H 219.27 -2.10175 2.71443 0
M  V30 2262 N 221.715 -0.905404 -1.28997 0
M  V30 2263 C 222.961 -0.535039 -1.95615 0
M  V30 2264 C 223.294 0.917404 -1.71165 0
M  V30 2265 O 222.569 1.65123 -1.02785 0
M  V30 2266 C 222.852 -0.834918 -3.50287 0
M  V30 2267 C 222.705 -2.33948 -3.84172 0
M  V30 2268 C 224.024 -0.325318 -4.38896 0
M  V30 2269 H 221.143 -0.195861 -0.710498 0
M  V30 2270 H 223.785 -1.13313 -1.52513 0
M  V30 2271 H 221.935 -0.325904 -3.87131 0
M  V30 2272 H 223.607 -2.91847 -3.57243 0
M  V30 2273 H 221.85 -2.79789 -3.31513 0
M  V30 2274 H 222.521 -2.49987 -4.92149 0
M  V30 2275 H 224.997 -0.761256 -4.09077 0
M  V30 2276 H 223.873 -0.564295 -5.45992 0
M  V30 2277 H 224.134 0.774144 -4.35269 0
M  V30 2278 N 223.193 1.4272 -0.668489 0
M  V30 2279 C 224.609 1.55992 -0.33745 0
M  V30 2280 C 224.809 1.64933 1.15756 0
M  V30 2281 O 223.865 1.61278 1.94282 0
M  V30 2282 C 225.178 2.81314 -1.06222 0
M  V30 2283 C 226.726 2.95078 -1.04394 0
M  V30 2284 C 227.201 4.23252 -1.74991 0
M  V30 2285 N 228.692 4.3015 -1.71829 0
M  V30 2286 C 229.427 5.28127 -2.23315 0
M  V30 2287 N 228.923 6.32293 -2.83156 0
M  V30 2288 N 230.716 5.19882 -2.13726 0
M  V30 2289 H 222.867 1.3516 -1.63846 0
M  V30 2290 H 225.13 0.650174 -0.689912 0
M  V30 2291 H 224.836 2.80823 -2.11734 0
M  V30 2292 H 224.71 3.72012 -0.62344 0
M  V30 2293 H 227.097 2.951 0.0028244 0
M  V30 2294 H 227.178 2.05627 -1.52155 0
M  V30 2295 H 226.822 4.2399 -2.79633 0
M  V30 2296 H 226.752 5.11626 -1.24685 0
M  V30 2297 H 229.243 3.55499 -1.28175 0
M  V30 2298 H 229.556 7.03398 -3.20079 0
M  V30 2299 H 227.901 6.32873 -2.87223 0
M  V30 2300 H 231.092 4.37423 -1.66669 0
M  V30 2301 H 231.265 5.96077 -2.54158 0
M  V30 2302 N 224.671 0.411399 1.52136 0
M  V30 2303 C 225.601 -0.404015 2.29978 0
M  V30 2304 C 226.582 -1.04412 1.34284 0
M  V30 2305 O 227.767 -1.0527 1.63192 0
M  V30 2306 C 224.897 -1.5197 3.12286 0
M  V30 2307 C 223.851 -1.00448 4.16046 0
M  V30 2308 C 223.177 -2.21393 4.86712 0
M  V30 2309 C 224.477 -0.0569336 5.22269 0
M  V30 2310 H 226.171 0.245529 2.98392 0
M  V30 2311 H 223.717 0.119525 1.43503 0
M  V30 2312 H 225.67 -2.09715 3.6551 0
M  V30 2313 H 224.394 -2.19716 2.41646 0
M  V30 2314 H 223.053 -0.449421 3.63835 0
M  V30 2315 H 222.701 -2.87699 4.12599 0
M  V30 2316 H 222.401 -1.87571 5.56858 0
M  V30 2317 H 223.925 -2.7974 5.4275 0
M  V30 2318 H 225.339 -0.54325 5.7072 0
M  V30 2319 H 223.736 0.192594 5.99791 0
M  V30 2320 H 224.806 0.887663 4.76706 0
M  V30 2321 N 226.149 -1.5696 0.141893 0
M  V30 2322 C 227.099 -2.13074 -0.811383 0
M  V30 2323 C 228.083 -1.05726 -1.21288 0
M  V30 2324 O 229.275 -1.31914 -1.18015 0
M  V30 2325 C 226.404 -2.75186 -2.0525 0
M  V30 2326 C 225.49 -3.8965 -1.67432 0
M  V30 2327 N 225.881 -4.95733 -1.0041 0
M  V30 2328 C 224.179 -4.00262 -1.96739 0
M  V30 2329 C 224.88 -5.75858 -0.822345 0
M  V30 2330 N 223.856 -5.26452 -1.3546 0
M  V30 2331 H 227.658 -2.92465 -0.290031 0
M  V30 2332 H 225.172 -1.6229 -0.0598218 0
M  V30 2333 H 227.169 -3.13745 -2.74535 0
M  V30 2334 H 225.829 -1.97266 -2.57907 0
M  V30 2335 H 226.84 -5.13607 -0.665441 0
M  V30 2336 H 223.517 -3.33412 -2.51282 0
M  V30 2337 H 224.907 -6.71254 -0.294496 0
M  V30 2338 N 227.627 0.131896 -1.57047 0
M  V30 2339 C 228.557 1.16384 -2.02428 0
M  V30 2340 C 229.538 1.43936 -0.90644 0
M  V30 2341 O 230.723 1.54599 -1.17528 0
M  V30 2342 C 227.853 2.49328 -2.4177 0
M  V30 2343 C 226.807 2.36266 -3.56879 0
M  V30 2344 C 226.133 3.74057 -3.8208 0
M  V30 2345 C 227.433 1.834 -4.89042 0
M  V30 2346 H 229.127 0.786433 -2.88887 0
M  V30 2347 H 226.673 0.376855 -1.38981 0
M  V30 2348 H 228.626 3.21759 -2.7212 0
M  V30 2349 H 227.35 2.88934 -1.52266 0
M  V30 2350 H 226.009 1.66286 -3.26718 0
M  V30 2351 H 225.657 4.11125 -2.89803 0
M  V30 2352 H 225.357 3.66174 -4.59554 0
M  V30 2353 H 226.881 4.48012 -4.1487 0
M  V30 2354 H 228.295 2.45636 -5.18011 0
M  V30 2355 H 226.692 1.8637 -5.70426 0
M  V30 2356 H 227.762 0.790662 -4.7841 0
M  V30 2357 N 229.106 1.52395 0.401703 0
M  V30 2358 C 230.069 1.75636 1.47257 0
M  V30 2359 C 231.069 0.62628 1.48103 0
M  V30 2360 O 232.259 0.894227 1.49497 0
M  V30 2361 C 229.391 1.84553 2.86624 0
M  V30 2362 H 230.584 2.71241 1.27938 0
M  V30 2363 H 228.137 1.42923 0.632662 0
M  V30 2364 H 228.872 0.908882 3.11303 0
M  V30 2365 H 228.657 2.66715 2.87412 0
M  V30 2366 H 230.147 2.04251 3.64241 0
M  V30 2367 N 230.584 -0.659388 1.43143 0
M  V30 2368 C 231.514 -1.78422 1.50625 0
M  V30 2369 C 232.495 -1.66216 0.361443 0
M  V30 2370 O 233.68 -1.85404 0.577834 0
M  V30 2371 C 230.81 -3.16815 1.42287 0
M  V30 2372 C 229.764 -3.43777 2.54954 0
M  V30 2373 C 229.09 -4.81905 2.31671 0
M  V30 2374 C 230.39 -3.39134 3.97222 0
M  V30 2375 H 232.084 -1.72417 2.44771 0
M  V30 2376 H 229.63 -0.828084 1.17808 0
M  V30 2377 H 231.583 -3.95253 1.46127 0
M  V30 2378 H 230.307 -3.23534 0.446435 0
M  V30 2379 H 228.966 -2.67707 2.50457 0
M  V30 2380 H 228.614 -4.85294 1.32284 0
M  V30 2381 H 228.314 -5.00906 3.07192 0
M  V30 2382 H 229.838 -5.62609 2.37284 0
M  V30 2383 H 231.252 -4.07518 4.03239 0
M  V30 2384 H 229.649 -3.69671 4.72719 0
M  V30 2385 H 230.719 -2.37426 4.22797 0
M  V30 2386 N 232.062 -1.29571 -0.897171 0
M  V30 2387 C 233.339 -1.08365 -1.62839 0
M  V30 2388 C 233.719 0.371331 -2.07808 0
M  V30 2389 O 233.067 1.3606 -1.83576 0
M  V30 2390 C 233.277 -2.0735 -2.80726 0
M  V30 2391 C 234.625 -2.38406 -3.51351 0
M  V30 2392 O 235.649 -2.05564 -2.90898 0
M  V30 2393 O 234.508 -2.9453 -4.60341 0
M  V30 2394 H 231.602 -0.415345 -0.715134 0
M  V30 2395 H 234.148 -1.40952 -0.945018 0
M  V30 2396 H 232.92 -3.05339 -2.44711 0
M  V30 2397 H 232.543 -1.75507 -3.56767 0
M  V30 2398 N 233.54 1.10788 -1.12088 0
M  V30 2399 C 234.789 1.82036 -0.868659 0
M  V30 2400 C 235.102 1.85929 0.607426 0
M  V30 2401 O 236.308 2.53346 0.97613 0
M  V30 2402 C 234.764 3.26951 -1.50435 0
M  V30 2403 C 234.372 3.31367 -3.01496 0
M  V30 2404 C 236.116 4.03053 -1.33225 0
M  V30 2405 C 234.023 4.7072 -3.58017 0
M  V30 2406 H 232.953 0.682108 -0.321318 0
M  V30 2407 H 235.604 1.24618 -1.34694 0
M  V30 2408 H 233.986 3.84343 -0.953735 0
M  V30 2409 H 235.16 2.83819 -3.6302 0
M  V30 2410 H 233.475 2.6875 -3.18061 0
M  V30 2411 H 236.072 5.05981 -1.72878 0
M  V30 2412 H 236.415 4.15387 -0.275529 0
M  V30 2413 H 236.948 3.52066 -1.85188 0
M  V30 2414 H 233.687 4.63585 -4.63432 0
M  V30 2415 H 233.207 5.1865 -3.01268 0
M  V30 2416 H 234.886 5.39685 -3.56859 0
M  V30 2417 N 235.018 0.912232 1.28515 0
M  V30 2418 C 235.981 0.404223 2.25607 0
M  V30 2419 C 236.981 -0.468602 1.53821 0
M  V30 2420 O 238.171 -0.271873 1.72065 0
M  V30 2421 C 235.303 -0.420653 3.38295 0
M  V30 2422 H 236.496 1.26188 2.7206 0
M  V30 2423 H 234.049 0.691495 1.40171 0
M  V30 2424 H 234.784 -1.29777 2.97201 0
M  V30 2425 H 234.569 0.204935 3.91564 0
M  V30 2426 H 236.059 -0.766971 4.10496 0
M  V30 2427 N 236.496 -1.42363 0.676048 0
M  V30 2428 C 237.912 -1.55811 0.345718 0
M  V30 2429 C 238.112 -1.65544 -1.14879 0
M  V30 2430 O 237.168 -1.62306 -1.93424 0
M  V30 2431 C 238.481 -2.80746 1.07713 0
M  V30 2432 C 240.029 -2.9452 1.05958 0
M  V30 2433 C 240.504 -4.22318 1.77233 0
M  V30 2434 N 241.995 -4.29233 1.74108 0
M  V30 2435 C 242.73 -5.26935 2.26113 0
M  V30 2436 N 242.226 -6.30783 2.86505 0
M  V30 2437 N 244.019 -5.18741 2.1648 0
M  V30 2438 H 236.17 -1.34289 1.6456 0
M  V30 2439 H 238.433 -0.646506 0.69335 0
M  V30 2440 H 238.139 -2.79696 2.13221 0
M  V30 2441 H 238.013 -3.71676 0.64316 0
M  V30 2442 H 240.4 -2.95097 0.0128255 0
M  V30 2443 H 240.481 -2.04817 1.53244 0
M  V30 2444 H 240.125 -4.22502 2.81877 0
M  V30 2445 H 240.055 -5.10958 1.27396 0
M  V30 2446 H 242.546 -3.54814 1.30059 0
M  V30 2447 H 242.859 -7.01691 3.23805 0
M  V30 2448 H 241.204 -6.31341 2.90575 0
M  V30 2449 H 244.395 -4.36533 1.68987 0
M  V30 2450 H 244.568 -5.94721 2.57316 0
M  V30 2451 N 237.974 -0.419461 -1.51915 0
M  V30 2452 C 239.222 0.152637 -2.01523 0
M  V30 2453 C 239.543 1.44762 -1.30649 0
M  V30 2454 O 238.813 1.90997 -0.435535 0
M  V30 2455 H 237.393 0.0593966 -0.744635 0
M  V30 2456 H 240.055 -0.558073 -1.86739 0
M  V30 2457 H 239.151 0.341369 -3.10227 0
M  V30 2458 N 239.452 1.56882 -0.150215 0
M  V30 2459 C 240.382 2.19935 0.784284 0
M  V30 2460 C 241.363 1.14854 1.25469 0
M  V30 2461 O 242.548 1.43209 1.31168 0
M  V30 2462 C 239.678 2.82349 2.02229 0
M  V30 2463 C 238.632 3.93285 1.68853 0
M  V30 2464 C 237.958 4.42649 2.99944 0
M  V30 2465 C 239.258 5.13904 0.932714 0
M  V30 2466 H 240.952 2.9828 0.258781 0
M  V30 2467 H 238.498 1.43473 0.123029 0
M  V30 2468 H 240.451 3.25126 2.68088 0
M  V30 2469 H 239.175 2.0134 2.57157 0
M  V30 2470 H 237.834 3.5113 1.05371 0
M  V30 2471 H 237.482 3.58458 3.52869 0
M  V30 2472 H 237.182 5.17476 2.78374 0
M  V30 2473 H 238.706 4.88099 3.66868 0
M  V30 2474 H 240.12 5.53506 1.49345 0
M  V30 2475 H 238.517 5.94515 0.81684 0
M  V30 2476 H 239.587 4.84842 -0.0749568 0
M  V30 2477 N 240.93 -0.123565 1.57115 0
M  V30 2478 C 242.346 -0.476961 1.52306 0
M  V30 2479 C 242.546 -1.82109 0.86248 0
M  V30 2480 O 241.602 -2.48586 0.442884 0
M  V30 2481 C 242.915 -0.465661 2.97073 0
M  V30 2482 C 244.463 -0.549534 3.08138 0
M  V30 2483 C 244.938 -0.568669 4.54456 0
M  V30 2484 N 246.429 -0.630237 4.58892 0
M  V30 2485 C 247.164 -0.666415 5.69514 0
M  V30 2486 N 246.66 -0.660514 6.89644 0
M  V30 2487 N 248.453 -0.709077 5.5761 0
M  V30 2488 H 240.604 0.757198 1.98445 0
M  V30 2489 H 242.867 0.278808 0.906074 0
M  V30 2490 H 242.573 0.454232 3.48754 0
M  V30 2491 H 242.447 -1.29513 3.54269 0
M  V30 2492 H 244.834 -1.45985 2.56461 0
M  V30 2493 H 244.915 0.307532 2.53945 0
M  V30 2494 H 244.559 0.337581 5.06777 0
M  V30 2495 H 244.489 -1.44256 5.06456 0
M  V30 2496 H 246.98 -0.641146 3.72421 0
M  V30 2497 H 247.293 -0.690616 7.69708 0
M  V30 2498 H 245.638 -0.628012 6.92157 0
M  V30 2499 H 248.829 -0.711019 4.62668 0
M  V30 2500 H 249.002 -0.733804 6.43832 0
M  V30 2501 N 242.408 -1.52605 -0.393616 0
M  V30 2502 C 243.638 -1.71046 -1.15874 0
M  V30 2503 C 244.046 -0.426483 -1.84331 0
M  V30 2504 O 243.389 0.608513 -1.73329 0
M  V30 2505 C 243.451 -2.80118 -2.25332 0
M  V30 2506 C 243.115 -4.21381 -1.76881 0
M  V30 2507 C 244.112 -5.04697 -1.24808 0
M  V30 2508 C 241.797 -4.67683 -1.83244 0
M  V30 2509 C 243.791 -6.32393 -0.797387 0
M  V30 2510 C 241.478 -5.95364 -1.37787 0
M  V30 2511 C 242.476 -6.77549 -0.861208 0
M  V30 2512 O 242.164 -8.02837 -0.413252 0
M  V30 2513 H 241.896 -0.576155 -0.353583 0
M  V30 2514 H 244.45 -2.00018 -0.467123 0
M  V30 2515 H 242.68 -2.46557 -2.97904 0
M  V30 2516 H 244.369 -2.87006 -2.87023 0
M  V30 2517 H 245.135 -4.70111 -1.19252 0
M  V30 2518 H 241.014 -4.03805 -2.22401 0
M  V30 2519 H 244.558 -6.9649 -0.393437 0
M  V30 2520 H 240.455 -6.29455 -1.43026 0
M  V30 2521 H 241.223 -8.16749 -0.53515 0
M  V30 2522 N 243.887 0.651787 -1.4349 0
M  V30 2523 C 244.817 1.77621 -1.51569 0
M  V30 2524 C 245.798 1.66022 -0.370253 0
M  V30 2525 O 246.983 1.85095 -0.587658 0
M  V30 2526 C 244.113 3.16056 -1.43966 0
M  V30 2527 C 243.067 3.4242 -2.56774 0
M  V30 2528 C 242.393 4.8067 -2.34223 0
M  V30 2529 C 243.693 3.37023 -3.99015 0
M  V30 2530 H 245.387 1.71117 -2.45681 0
M  V30 2531 H 242.933 0.821825 -1.18246 0
M  V30 2532 H 244.886 3.94472 -1.48221 0
M  V30 2533 H 243.61 3.23293 -0.463586 0
M  V30 2534 H 242.269 2.66375 -2.51873 0
M  V30 2535 H 241.917 4.84585 -1.34856 0
M  V30 2536 H 241.617 4.9927 -3.09844 0
M  V30 2537 H 243.141 5.61342 -2.40265 0
M  V30 2538 H 244.555 4.05374 -4.05395 0
M  V30 2539 H 242.952 3.67159 -4.74673 0
M  V30 2540 H 244.022 2.3518 -4.2405 0
M  V30 2541 N 245.365 1.30045 0.890287 0
M  V30 2542 C 246.315 1.12592 1.9826 0
M  V30 2543 C 247.299 0.0426021 1.60844 0
M  V30 2544 O 248.491 0.265346 1.75 0
M  V30 2545 C 245.62 0.814301 3.33503 0
M  V30 2546 C 244.706 1.93761 3.7725 0
M  V30 2547 N 245.097 3.18232 3.93143 0
M  V30 2548 C 243.395 1.83277 4.06602 0
M  V30 2549 C 244.096 3.9158 4.30163 0
M  V30 2550 N 243.072 3.19591 4.3973 0
M  V30 2551 H 246.874 2.07003 2.08631 0
M  V30 2552 H 244.388 1.21307 1.07974 0
M  V30 2553 H 246.385 0.67029 4.11476 0
M  V30 2554 H 245.045 -0.121797 3.24471 0
M  V30 2555 H 246.056 3.53581 3.78419 0
M  V30 2556 H 242.733 0.97001 4.06075 0
M  V30 2557 H 244.123 4.98744 4.50226 0
M  V30 2558 N 246.843 -1.10192 1.12674 0
M  V30 2559 C 248.068 -1.86523 0.906853 0
M  V30 2560 C 248.493 -1.80221 -0.538711 0
M  V30 2561 O 247.851 -1.17396 -1.38158 0
M  V30 2562 C 247.899 -3.32758 1.3894 0
M  V30 2563 O 247.003 -4.08449 0.5695 0
M  V30 2564 H 246.344 -0.578678 0.325619 0
M  V30 2565 H 248.874 -1.39203 1.49946 0
M  V30 2566 H 248.884 -3.83608 1.38958 0
M  V30 2567 H 247.559 -3.36661 2.44197 0
M  V30 2568 H 246.136 -3.67427 0.636528 0
M  V30 2569 N 248.321 -0.919034 -1.28029 0
M  V30 2570 C 249.268 -0.410005 -2.27129 0
M  V30 2571 C 250.238 0.518405 -1.57803 0
M  V30 2572 O 251.423 0.439451 -1.8567 0
M  V30 2573 C 248.563 0.339054 -3.4343 0
M  V30 2574 C 247.676 -0.622468 -4.27492 0
M  V30 2575 C 246.811 0.145567 -5.31001 0
M  V30 2576 C 245.85 -0.809226 -6.06727 0
M  V30 2577 N 244.987 -0.0743728 -7.02061 0
M  V30 2578 H 249.827 -1.26011 -2.70047 0
M  V30 2579 H 247.364 -0.632663 -1.328 0
M  V30 2580 H 249.322 0.789586 -4.0966 0
M  V30 2581 H 247.952 1.15346 -3.01488 0
M  V30 2582 H 247.004 -1.19153 -3.61257 0
M  V30 2583 H 248.316 -1.35252 -4.80113 0
M  V30 2584 H 247.47 0.656417 -6.03139 0
M  V30 2585 H 246.209 0.908643 -4.79161 0
M  V30 2586 H 245.214 -1.3314 -5.33436 0
M  V30 2587 H 246.439 -1.57194 -6.60656 0
M  V30 2588 H 244.385 0.670616 -6.52563 0
M  V30 2589 H 244.302 -0.744157 -7.52329 0
M  V30 2590 H 245.57 0.416109 -7.78389 0
M  V30 2591 N 249.799 1.42003 -0.683588 0
M  V30 2592 C 251.047 2.01015 -0.209101 0
M  V30 2593 C 251.368 1.54365 1.19149 0
M  V30 2594 O 250.638 0.769083 1.80172 0
M  V30 2595 H 249.218 0.743294 -0.074315 0
M  V30 2596 H 251.88 1.73798 -0.882066 0
M  V30 2597 H 250.976 3.11343 -0.2172 0
M  V30 2598 N 251.277 0.427512 1.51691 0
M  V30 2599 C 252.523 -0.142439 2.02299 0
M  V30 2600 C 252.856 -1.43214 1.31162 0
M  V30 2601 O 252.131 -1.89833 0.423511 0
M  V30 2602 C 252.414 -0.371301 3.58181 0
M  V30 2603 C 252.267 0.936358 4.39946 0
M  V30 2604 C 253.586 -1.14542 4.24933 0
M  V30 2605 H 250.705 -0.0502937 0.735282 0
M  V30 2606 H 253.347 0.564584 1.81418 0
M  V30 2607 H 251.497 -0.973559 3.76104 0
M  V30 2608 H 253.169 1.57184 4.33694 0
M  V30 2609 H 251.412 1.5432 4.05423 0
M  V30 2610 H 252.083 0.730388 5.47147 0
M  V30 2611 H 254.559 -0.635362 4.11221 0
M  V30 2612 H 253.435 -1.27431 5.33903 0
M  V30 2613 H 253.696 -2.17093 3.85127 0
M  V30 2614 N 252.755 -1.56801 0.158532 0
M  V30 2615 C 254.002 -1.9649 -0.489679 0
M  V30 2616 C 254.33 -1.04394 -1.6411 0
M  V30 2617 O 253.585 -0.0754401 -1.95555 0
M  V30 2618 C 253.884 -3.4235 -1.02623 0
M  V30 2619 C 253.55 -4.50899 0.00794526 0
M  V30 2620 C 252.212 -4.80312 0.292207 0
M  V30 2621 C 254.564 -5.16333 0.710584 0
M  V30 2622 C 251.892 -5.72461 1.28472 0
M  V30 2623 C 254.244 -6.09553 1.69199 0
M  V30 2624 C 252.908 -6.37339 1.98383 0
M  V30 2625 H 252.178 -0.719009 -0.179186 0
M  V30 2626 H 254.825 -1.8989 0.247798 0
M  V30 2627 H 253.13 -3.45838 -1.84128 0
M  V30 2628 H 254.827 -3.70393 -1.53656 0
M  V30 2629 H 251.417 -4.28015 -0.22379 0
M  V30 2630 H 255.601 -4.93732 0.504174 0
M  V30 2631 H 250.857 -5.92278 1.51714 0
M  V30 2632 H 255.031 -6.59327 2.24189 0
M  V30 2633 H 252.658 -7.08546 2.7544 0
M  V30 2634 N 254.233 0.115231 -1.57178 0
M  V30 2635 C 255.183 1.14707 -1.97044 0
M  V30 2636 C 256.167 1.36866 -0.845957 0
M  V30 2637 O 257.359 1.37895 -1.10968 0
M  V30 2638 C 254.488 2.47266 -2.38148 0
M  V30 2639 C 253.574 2.28566 -3.57237 0
M  V30 2640 N 253.965 1.79685 -4.72807 0
M  V30 2641 C 252.263 2.59208 -3.62943 0
M  V30 2642 C 252.964 1.74781 -5.54821 0
M  V30 2643 N 251.94 2.19264 -4.97417 0
M  V30 2644 H 255.742 0.761754 -2.83857 0
M  V30 2645 H 253.256 0.322928 -1.59157 0
M  V30 2646 H 255.253 3.219 -2.64927 0
M  V30 2647 H 253.913 2.86552 -1.52702 0
M  V30 2648 H 254.924 1.49177 -4.9595 0
M  V30 2649 H 251.601 3.02154 -2.88113 0
M  V30 2650 H 252.991 1.38212 -6.57531 0
M  V30 2651 N 255.711 1.52812 0.385517 0
M  V30 2652 C 257.127 1.4214 0.725829 0
M  V30 2653 C 257.327 0.544589 1.94001 0
M  V30 2654 O 256.383 0.0193693 2.52493 0
M  V30 2655 C 257.696 2.85042 0.957668 0
M  V30 2656 C 259.244 2.94543 1.05892 0
M  V30 2657 C 259.719 4.38464 1.32337 0
M  V30 2658 N 261.21 4.41804 1.39151 0
M  V30 2659 C 261.945 5.5025 1.61285 0
M  V30 2660 N 261.441 6.68775 1.80866 0
M  V30 2661 N 263.234 5.37798 1.63492 0
M  V30 2662 H 255.385 2.08338 -0.413383 0
M  V30 2663 H 257.648 0.940016 -0.122775 0
M  V30 2664 H 257.354 3.51431 0.137568 0
M  V30 2665 H 257.228 3.27505 1.87137 0
M  V30 2666 H 259.615 2.28321 1.86959 0
M  V30 2667 H 259.696 2.55504 0.123057 0
M  V30 2668 H 259.34 5.05254 0.517793 0
M  V30 2669 H 259.27 4.75059 2.27214 0
M  V30 2670 H 261.761 3.56377 1.25713 0
M  V30 2671 H 262.074 7.47197 1.97271 0
M  V30 2672 H 260.419 6.71797 1.78083 0
M  V30 2673 H 263.61 4.44171 1.47749 0
M  V30 2674 H 263.783 6.22382 1.80402 0
M  V30 2675 N 257.189 -0.644168 1.43834 0
M  V30 2676 C 258.466 -1.40188 1.36406 0
M  V30 2677 C 258.846 -2.11094 0.0163124 0
M  V30 2678 O 258.194 -2.05426 -1.00062 0
M  V30 2679 C 258.404 -2.3791 2.55343 0
M  V30 2680 C 259.752 -3.01637 2.98832 0
M  V30 2681 O 260.776 -2.48237 2.55455 0
M  V30 2682 O 259.635 -3.98477 3.74003 0
M  V30 2683 H 256.729 -0.626773 0.539523 0
M  V30 2684 H 259.275 -0.670317 1.559 0
M  V30 2685 H 258.047 -1.84525 3.4506 0
M  V30 2686 H 257.67 -3.18503 2.37995 0
M  V30 2687 N 258.668 -1.30515 -0.883378 0
M  V30 2688 C 259.598 -1.19607 -2.00541 0
M  V30 2689 C 260.579 -0.086346 -1.69881 0
M  V30 2690 O 261.764 -0.268654 -1.92333 0
M  V30 2691 C 258.894 -0.888758 -3.35736 0
M  V30 2692 C 257.848 -1.95659 -3.8066 0
M  V30 2693 C 257.174 -1.50224 -5.13164 0
M  V30 2694 C 258.474 -3.36788 -3.99213 0
M  V30 2695 H 260.168 -2.13476 -2.09925 0
M  V30 2696 H 257.714 -1.02775 -1.00863 0
M  V30 2697 H 259.667 -0.799094 -4.13754 0
M  V30 2698 H 258.391 0.0856125 -3.26488 0
M  V30 2699 H 257.05 -2.03591 -3.04871 0
M  V30 2700 H 256.698 -0.516092 -5.00345 0
M  V30 2701 H 256.398 -2.2165 -5.44192 0
M  V30 2702 H 257.922 -1.42639 -5.93706 0
M  V30 2703 H 259.336 -3.31605 -4.67665 0
M  V30 2704 H 257.733 -4.06314 -4.41621 0
M  V30 2705 H 258.803 -3.78561 -3.03017 0
M  V30 2706 N 260.146 1.09593 -1.13257 0
M  V30 2707 C 261.374 1.855 -0.916378 0
M  V30 2708 C 261.789 1.81069 0.534738 0
M  V30 2709 O 261.146 1.20562 1.37007 0
M  V30 2710 C 261.197 3.33546 -1.39388 0
M  V30 2711 O 260.918 3.37927 -2.78813 0
M  V30 2712 C 262.419 4.26299 -1.21588 0
M  V30 2713 H 259.639 0.585991 -0.326887 0
M  V30 2714 H 262.183 1.38488 -1.5047 0
M  V30 2715 H 260.338 3.77992 -0.848597 0
M  V30 2716 H 260.752 4.30254 -2.9997 0
M  V30 2717 H 262.226 5.28341 -1.59876 0
M  V30 2718 H 262.703 4.38918 -0.157376 0
M  V30 2719 H 263.309 3.87668 -1.7491 0
M  V30 2720 N 261.624 0.925811 1.2754 0
M  V30 2721 C 262.849 0.580924 1.99098 0
M  V30 2722 C 263.274 -0.833555 1.68622 0
M  V30 2723 O 262.632 -1.55903 0.925422 0
M  V30 2724 C 262.68 0.811186 3.51358 0
M  V30 2725 O 261.784 -0.124129 4.12213 0
M  V30 2726 H 261.125 0.223873 0.625122 0
M  V30 2727 H 263.655 1.24455 1.62395 0
M  V30 2728 H 263.665 0.72601 4.01489 0
M  V30 2729 H 262.34 1.84227 3.72872 0
M  V30 2730 H 260.917 0.0108006 3.72898 0
M  V30 2731 N 263.102 -1.41638 0.69111 0
M  V30 2732 C 264.049 -2.30789 0.0229705 0
M  V30 2733 C 265.019 -1.46863 -0.775911 0
M  V30 2734 O 266.204 -1.75661 -0.74485 0
M  V30 2735 C 263.344 -3.32868 -0.910666 0
M  V30 2736 C 262.457 -4.31875 -0.103874 0
M  V30 2737 C 261.592 -5.21024 -1.03475 0
M  V30 2738 C 260.631 -6.11702 -0.220598 0
M  V30 2739 N 259.768 -6.93349 -1.10504 0
M  V30 2740 H 264.608 -2.87366 0.788978 0
M  V30 2741 H 262.145 -1.41535 0.400794 0
M  V30 2742 H 264.103 -3.90596 -1.46597 0
M  V30 2743 H 262.733 -2.77851 -1.64312 0
M  V30 2744 H 261.785 -3.76131 0.568285 0
M  V30 2745 H 263.097 -4.96003 0.527504 0
M  V30 2746 H 262.251 -5.83565 -1.65943 0
M  V30 2747 H 260.99 -4.57112 -1.69999 0
M  V30 2748 H 259.995 -5.48215 0.417187 0
M  V30 2749 H 261.22 -6.77668 0.440784 0
M  V30 2750 H 259.166 -6.3205 -1.75638 0
M  V30 2751 H 259.083 -7.54146 -0.529125 0
M  V30 2752 H 260.351 -7.60362 -1.71667 0
M  V30 2753 N 264.58 -0.43555 -1.51462 0
M  V30 2754 C 265.528 0.391205 -2.29287 0
M  V30 2755 C 266.522 1.02247 -1.35062 0
M  V30 2756 O 267.728 0.957646 -1.52411 0
M  V30 2757 H 264.103 0.144968 -0.737895 0
M  V30 2758 H 266.074 -0.286051 -2.97026 0
M  V30 2759 C 264.823 1.48096 -3.14583 0
M  V30 2760 H 264.146 1.00457 -3.86973 0
M  V30 2761 H 265.586 2.03273 -3.72097 0
M  V30 2762 C 264.045 2.46321 -2.29843 0
M  V30 2763 O 264.575 3.50815 -1.95682 0
M  V30 2764 N 262.781 2.17166 -1.931 0
M  V30 2765 H 262.328 1.32218 -2.21079 0
M  V30 2766 H 262.286 2.83127 -1.36698 0
M  V30 2767 N 266.058 1.56714 -0.166846 0
M  V30 2768 C 267.298 1.98641 0.481763 0
M  V30 2769 C 267.662 1.05038 1.6072 0
M  V30 2770 O 268.863 1.36087 2.31805 0
M  V30 2771 C 267.134 3.44362 0.956517 0
M  V30 2772 S 268.693 4.08317 1.60694 0
M  V30 2773 H 265.511 0.693873 0.155116 0
M  V30 2774 H 268.113 1.93719 -0.263251 0
M  V30 2775 H 266.817 4.10204 0.126936 0
M  V30 2776 H 266.348 3.53041 1.73568 0
M  V30 2777 H 268.363 4.02999 2.89494 0
M  V30 2778 N 267.536 -0.106894 1.57237 0
M  V30 2779 C 268.466 -1.13148 2.04254 0
M  V30 2780 C 269.447 -1.42476 0.929224 0
M  V30 2781 O 270.632 -1.52709 1.19973 0
M  V30 2782 C 267.762 -2.4545 2.45706 0
M  V30 2783 C 266.716 -2.30558 3.60592 0
M  V30 2784 C 266.042 -3.67931 3.87983 0
M  V30 2785 C 267.342 -1.75597 4.91897 0
M  V30 2786 H 269.036 -0.740374 2.90101 0
M  V30 2787 H 266.582 -0.354696 1.39563 0
M  V30 2788 H 268.535 -3.17389 2.77205 0
M  V30 2789 H 267.259 -2.86475 1.56843 0
M  V30 2790 H 265.918 -1.61067 3.29322 0
M  V30 2791 H 265.566 -4.06462 2.96306 0
M  V30 2792 H 265.266 -3.58817 4.65322 0
M  V30 2793 H 266.79 -4.41356 4.21945 0
M  V30 2794 H 268.204 -2.37364 5.21854 0
M  V30 2795 H 266.601 -1.77272 5.73319 0
M  V30 2796 H 267.671 -0.714451 4.79608 0
M  V30 2797 N 269.014 -1.53014 -0.377408 0
M  V30 2798 C 270.26 -1.68872 -1.12294 0
M  V30 2799 C 270.593 -0.433224 -1.89306 0
M  V30 2800 O 269.868 0.569258 -1.85983 0
M  V30 2801 C 270.151 -2.93115 -2.09179 0
M  V30 2802 C 270.004 -4.28794 -1.35853 0
M  V30 2803 C 271.323 -3.12928 -3.09458 0
M  V30 2804 H 268.442 -0.614518 -0.406862 0
M  V30 2805 H 271.084 -1.85633 -0.40503 0
M  V30 2806 H 269.234 -2.78956 -2.70399 0
M  V30 2807 H 270.906 -4.54742 -0.775082 0
M  V30 2808 H 269.149 -4.28744 -0.660364 0
M  V30 2809 H 269.82 -5.11837 -2.06706 0
M  V30 2810 H 272.296 -3.26194 -2.58334 0
M  V30 2811 H 271.172 -4.01316 -3.74482 0
M  V30 2812 H 271.433 -2.27669 -3.78971 0
M  V30 2813 N 270.492 0.636531 -1.44174 0
M  V30 2814 C 271.908 0.954104 -1.27941 0
M  V30 2815 C 272.108 2.0039 -0.211248 0
M  V30 2816 O 271.164 2.49236 0.404695 0
M  V30 2817 C 272.477 1.4225 -2.64925 0
M  V30 2818 C 274.025 1.53827 -2.72592 0
M  V30 2819 C 274.5 2.04053 -4.10032 0
M  V30 2820 N 275.991 2.11331 -4.12182 0
M  V30 2821 C 276.726 2.51352 -5.15374 0
M  V30 2822 N 276.222 2.90549 -6.2893 0
M  V30 2823 N 278.015 2.51438 -5.02728 0
M  V30 2824 H 270.166 -0.0578386 -2.12321 0
M  V30 2825 H 272.429 0.0367406 -0.947288 0
M  V30 2826 H 272.135 0.725466 -3.44136 0
M  V30 2827 H 272.009 2.39451 -2.9145 0
M  V30 2828 H 274.396 2.22628 -1.93702 0
M  V30 2829 H 274.477 0.550154 -2.49814 0
M  V30 2830 H 274.121 1.35848 -4.89395 0
M  V30 2831 H 274.051 3.03726 -4.30184 0
M  V30 2832 H 276.542 1.83745 -3.30222 0
M  V30 2833 H 276.855 3.19884 -7.03487 0
M  V30 2834 H 275.2 2.88313 -6.32377 0
M  V30 2835 H 278.391 2.20203 -4.13072 0
M  V30 2836 H 278.564 2.82304 -5.83274 0
M  V30 2837 N 271.97 1.30982 0.876444 0
M  V30 2838 C 273.386 1.09498 1.16113 0
M  V30 2839 C 273.586 -0.13875 2.01022 0
M  V30 2840 O 272.642 -0.829935 2.38471 0
M  V30 2841 C 273.955 2.36308 1.85954 0
M  V30 2842 C 275.503 2.41856 1.98683 0
M  V30 2843 C 275.978 3.6853 2.71937 0
M  V30 2844 N 277.469 3.69387 2.79477 0
M  V30 2845 C 278.204 4.64096 3.36753 0
M  V30 2846 N 277.7 5.69155 3.95012 0
M  V30 2847 N 279.493 4.51626 3.3465 0
M  V30 2848 H 271.644 2.10118 0.310494 0
M  V30 2849 H 273.907 0.926634 0.200131 0
M  V30 2850 H 273.613 3.26388 1.31011 0
M  V30 2851 H 273.487 2.4561 2.86278 0
M  V30 2852 H 275.874 1.52249 2.52793 0
M  V30 2853 H 275.955 2.36523 0.9742 0
M  V30 2854 H 275.599 4.58499 2.18496 0
M  V30 2855 H 275.529 3.71127 3.73593 0
M  V30 2856 H 278.02 2.93438 2.38123 0
M  V30 2857 H 278.333 6.3751 4.36808 0
M  V30 2858 H 276.678 5.72937 3.93406 0
M  V30 2859 H 279.869 3.68728 2.8837 0
M  V30 2860 H 280.042 5.25614 3.7899 0
M  V30 2861 N 273.449 -1.08991 1.13837 0
M  V30 2862 C 274.359 -2.19301 0.833333 0
M  V30 2863 C 275.375 -1.73026 -0.183847 0
M  V30 2864 O 276.551 -2.01395 -0.0138092 0
M  V30 2865 C 273.616 -3.45323 0.308651 0
M  V30 2866 C 272.677 -4.06255 1.38764 0
M  V30 2867 C 271.91 -5.26262 0.887896 0
M  V30 2868 O 272.133 -5.69747 -0.27287 0
M  V30 2869 O 271.067 -5.78435 1.66421 0
M  V30 2870 H 274.893 -2.47854 1.75506 0
M  V30 2871 H 272.478 -1.18012 0.916166 0
M  V30 2872 H 274.36 -4.21394 0.0216739 0
M  V30 2873 H 273.035 -3.18362 -0.585431 0
M  V30 2874 H 271.942 -3.318 1.72799 0
M  V30 2875 H 273.275 -4.37452 2.25602 0
M  V30 2876 N 274.927 -0.932562 -1.27047 0
M  V30 2877 C 276.204 -0.49377 -1.89265 0
M  V30 2878 C 276.584 1.02833 -1.8436 0
M  V30 2879 O 275.932 1.88461 -1.29209 0
M  V30 2880 C 276.142 -1.04536 -3.32976 0
M  V30 2881 C 277.49 -1.10879 -4.09867 0
M  V30 2882 O 278.514 -0.995327 -3.42011 0
M  V30 2883 O 277.373 -1.28417 -5.31198 0
M  V30 2884 H 274.467 -0.159596 -0.811454 0
M  V30 2885 H 277.013 -1.02457 -1.3528 0
M  V30 2886 H 275.785 -2.08913 -3.30864 0
M  V30 2887 H 275.408 -0.496494 -3.94488 0
M  V30 2888 N 276.405 1.4127 -0.698611 0
M  V30 2889 C 277.821 1.55241 -0.370462 0
M  V30 2890 C 278.021 1.67351 1.12231 0
M  V30 2891 O 277.077 1.65363 1.90818 0
M  V30 2892 C 278.39 2.78997 -1.12165 0
M  V30 2893 C 279.938 2.92797 -1.1063 0
M  V30 2894 C 280.413 4.19445 -1.8393 0
M  V30 2895 N 281.904 4.26409 -1.80914 0
M  V30 2896 C 282.639 5.23271 -2.34467 0
M  V30 2897 N 282.135 6.26145 -2.96504 0
M  V30 2898 N 283.928 5.15232 -2.24706 0
M  V30 2899 H 276.079 1.31654 -1.66676 0
M  V30 2900 H 278.342 0.635393 -0.703548 0
M  V30 2901 H 278.048 2.76268 -2.17644 0
M  V30 2902 H 277.922 3.70606 -0.702209 0
M  V30 2903 H 280.309 2.95039 -0.0597713 0
M  V30 2904 H 280.39 2.02353 -1.56483 0
M  V30 2905 H 280.034 4.17964 -2.88563 0
M  V30 2906 H 279.964 5.08866 -1.35509 0
M  V30 2907 H 282.455 3.527 -1.35687 0
M  V30 2908 H 282.768 6.96451 -3.34927 0
M  V30 2909 H 281.113 6.26638 -3.00583 0
M  V30 2910 H 284.304 4.33789 -1.7591 0
M  V30 2911 H 284.477 5.90552 -2.66745 0
M  V30 2912 N 277.883 0.443576 1.51229 0
M  V30 2913 C 279.131 -0.120557 2.0174 0
M  V30 2914 C 279.452 -1.42665 1.32935 0
M  V30 2915 O 278.722 -1.9028 0.465866 0
M  V30 2916 H 277.302 -0.0475426 0.745486 0
M  V30 2917 H 279.964 0.587711 1.85828 0
M  V30 2918 H 279.06 -0.291972 3.10731 0
M  V30 2919 N 279.361 -1.56624 0.175154 0
M  V30 2920 C 280.608 -1.96999 -0.468811 0
M  V30 2921 C 280.936 -1.06129 -1.62994 0
M  V30 2922 O 280.191 -0.0961771 -1.95464 0
M  V30 2923 C 280.49 -3.43419 -0.989864 0
M  V30 2924 C 280.156 -4.50866 0.0557687 0
M  V30 2925 C 278.818 -4.79975 0.343134 0
M  V30 2926 C 281.17 -5.15551 0.765308 0
M  V30 2927 C 278.498 -5.71066 1.34536 0
M  V30 2928 C 280.85 -6.07724 1.75654 0
M  V30 2929 C 279.514 -6.35199 2.05132 0
M  V30 2930 H 278.784 -0.720869 -0.17155 0
M  V30 2931 H 281.431 -1.89616 0.267924 0
M  V30 2932 H 279.736 -3.47772 -1.80449 0
M  V30 2933 H 281.433 -3.72002 -1.49719 0
M  V30 2934 H 278.023 -4.28229 -0.178381 0
M  V30 2935 H 282.207 -4.9317 0.556513 0
M  V30 2936 H 277.463 -5.90635 1.57988 0
M  V30 2937 H 281.637 -6.56912 2.31169 0
M  V30 2938 H 279.264 -7.05584 2.8294 0
M  V30 2939 N 280.839 0.0985539 -1.57292 0
M  V30 2940 C 282.067 0.816318 -1.90115 0
M  V30 2941 C 282.482 1.72451 -0.768509 0
M  V30 2942 O 281.839 1.80643 0.259687 0
M  V30 2943 C 281.89 1.63259 -3.22535 0
M  V30 2944 O 281.611 0.760934 -4.31441 0
M  V30 2945 C 283.112 2.45372 -3.69199 0
M  V30 2946 H 280.332 0.233595 -0.629027 0
M  V30 2947 H 282.876 0.0768229 -2.04356 0
M  V30 2948 H 281.031 2.32463 -3.09903 0
M  V30 2949 H 281.445 1.32595 -5.07463 0
M  V30 2950 H 282.919 2.98144 -4.64558 0
M  V30 2951 H 283.396 3.23677 -2.96867 0
M  V30 2952 H 284.002 1.81373 -3.84687 0
M  V30 2953 N 282.317 1.53212 0.369288 0
M  V30 2954 C 283.28 1.7872 1.43498 0
M  V30 2955 C 284.28 0.657554 1.46741 0
M  V30 2956 O 285.47 0.925736 1.47566 0
M  V30 2957 C 282.602 1.90591 2.82645 0
M  V30 2958 H 283.795 2.73894 1.22156 0
M  V30 2959 H 281.348 1.44233 0.602203 0
M  V30 2960 H 282.083 0.974709 3.09306 0
M  V30 2961 H 281.868 2.72751 2.8169 0
M  V30 2962 H 283.358 2.11931 3.59826 0
M  V30 2963 N 283.795 -0.628877 1.44509 0
M  V30 2964 C 285.041 -1.39045 1.47629 0
M  V30 2965 C 285.374 -1.93892 0.109343 0
M  V30 2966 O 284.649 -1.7379 -0.87334 0
M  V30 2967 C 284.932 -2.55408 2.53848 0
M  V30 2968 C 284.785 -2.05896 3.99909 0
M  V30 2969 C 286.104 -3.5759 2.56549 0
M  V30 2970 H 283.223 -0.504232 0.537512 0
M  V30 2971 H 285.865 -0.710854 1.76201 0
M  V30 2972 H 284.015 -3.13384 2.29615 0
M  V30 2973 H 285.687 -1.52734 4.35282 0
M  V30 2974 H 283.93 -1.37061 4.11578 0
M  V30 2975 H 284.601 -2.89681 4.69882 0
M  V30 2976 H 287.077 -3.09419 2.78207 0
M  V30 2977 H 285.953 -4.36527 3.32769 0
M  V30 2978 H 286.214 -4.11808 1.60832 0
M  V30 2979 N 285.273 -1.31445 -0.869486 0
M  V30 2980 C 286.519 -1.21337 -1.62496 0
M  V30 2981 C 286.852 0.227872 -1.92858 0
M  V30 2982 O 286.127 1.16094 -1.56053 0
M  V30 2983 C 286.41 -2.05814 -2.95487 0
M  V30 2984 C 286.263 -3.5824 -2.72 0
M  V30 2985 C 287.582 -1.9079 -3.96594 0
M  V30 2986 H 284.701 -0.442135 -0.589649 0
M  V30 2987 H 287.343 -1.6124 -1.00507 0
M  V30 2988 H 285.493 -1.71913 -3.48394 0
M  V30 2989 H 287.165 -4.0228 -2.25762 0
M  V30 2990 H 285.408 -3.81647 -2.06224 0
M  V30 2991 H 286.079 -4.12657 -3.66631 0
M  V30 2992 H 288.555 -2.20459 -3.52898 0
M  V30 2993 H 287.431 -2.52199 -4.87531 0
M  V30 2994 H 287.692 -0.871341 -4.33428 0
M  V30 2995 N 286.751 1.08385 -1.14413 0
M  V30 2996 C 287.999 1.80419 -0.910679 0
M  V30 2997 C 288.32 1.86658 0.564243 0
M  V30 2998 O 287.59 1.35985 1.41014 0
M  V30 2999 H 286.17 0.668204 -0.333934 0
M  V30 3000 H 288.832 1.31037 -1.44275 0
M  V30 3001 H 287.928 2.83238 -1.31082 0
M  V30 3002 N 288.23 0.939286 1.26551 0
M  V30 3003 C 289.507 0.5038 1.89001 0
M  V30 3004 C 289.887 -1.01854 1.84903 0
M  V30 3005 O 289.235 -1.87773 1.30206 0
M  V30 3006 C 289.445 1.063 3.32417 0
M  V30 3007 C 290.793 1.13051 4.09273 0
M  V30 3008 O 291.817 1.01345 3.41479 0
M  V30 3009 O 290.676 1.31233 5.30509 0
M  V30 3010 H 287.77 0.163897 0.810597 0
M  V30 3011 H 290.316 1.03173 1.34735 0
M  V30 3012 H 289.088 2.10665 3.29752 0
M  V30 3013 H 288.711 0.517408 3.94219 0
M  V30 3014 N 289.708 -1.40897 0.706093 0
M  V30 3015 C 290.955 -2.01054 0.241531 0
M  V30 3016 C 291.283 -1.55956 -1.16223 0
M  V30 3017 O 290.538 -0.766336 -1.80072 0
M  V30 3018 C 290.837 -3.5646 0.259099 0
M  V30 3019 C 290.503 -4.21106 1.61184 0
M  V30 3020 C 289.165 -4.38479 1.98216 0
M  V30 3021 C 291.517 -4.57256 2.50132 0
M  V30 3022 C 288.845 -4.89282 3.2376 0
M  V30 3023 C 291.197 -5.09454 3.7502 0
M  V30 3024 C 289.861 -5.25037 4.12181 0
M  V30 3025 H 289.131 -0.73571 0.0883825 0
M  V30 3026 H 291.778 -1.68645 0.907257 0
M  V30 3027 H 290.083 -3.88721 -0.490189 0
M  V30 3028 H 291.78 -4.00826 -0.11804 0
M  V30 3029 H 288.37 -4.07966 1.31384 0
M  V30 3030 H 292.554 -4.43479 2.228 0
M  V30 3031 H 287.81 -4.99531 3.52532 0
M  V30 3032 H 291.984 -5.36404 4.44121 0
M  V30 3033 H 289.611 -5.64164 5.09532 0
M  V30 3034 N 291.186 -0.45159 -1.50991 0
M  V30 3035 C 292.434 0.109857 -2.01801 0
M  V30 3036 C 292.755 1.41958 -1.3369 0
M  V30 3037 O 292.025 1.9003 -0.475951 0
M  V30 3038 H 290.605 0.0435884 -0.745727 0
M  V30 3039 H 293.267 -0.597557 -1.85514 0
M  V30 3040 H 292.363 0.275489 -3.10882 0
M  V30 3041 N 292.664 1.56529 -0.183458 0
M  V30 3042 C 293.594 2.21549 0.737456 0
M  V30 3043 C 294.575 1.17489 1.23005 0
M  V30 3044 O 295.76 1.45959 1.281 0
M  V30 3045 C 292.89 2.86575 1.96194 0
M  V30 3046 C 291.844 3.96778 1.60473 0
M  V30 3047 C 291.17 4.48911 2.90487 0
M  V30 3048 C 292.47 5.15767 0.823497 0
M  V30 3049 H 294.164 2.98761 0.195453 0
M  V30 3050 H 291.71 1.43702 0.0925686 0
M  V30 3051 H 293.663 3.30739 2.61131 0
M  V30 3052 H 292.387 2.06749 2.52828 0
M  V30 3053 H 291.046 3.53286 0.978997 0
M  V30 3054 H 290.694 3.65862 3.45186 0
M  V30 3055 H 290.394 5.23265 2.67335 0
M  V30 3056 H 291.918 4.95771 3.56432 0
M  V30 3057 H 293.332 5.56549 1.37571 0
M  V30 3058 H 291.729 5.96114 0.690551 0
M  V30 3059 H 292.799 4.84574 -0.177782 0
M  V30 3060 N 294.142 -0.090211 1.57342 0
M  V30 3061 C 295.105 -1.09335 2.01441 0
M  V30 3062 C 296.105 -1.32666 0.908641 0
M  V30 3063 O 297.295 -1.28697 1.174 0
M  V30 3064 C 294.427 -2.44136 2.3793 0
M  V30 3065 H 295.62 -0.713662 2.91285 0
M  V30 3066 H 293.173 -0.335404 1.52659 0
M  V30 3067 H 293.908 -2.86972 1.51055 0
M  V30 3068 H 293.693 -2.28548 3.18603 0
M  V30 3069 H 295.183 -3.16277 2.72688 0
M  V30 3070 N 295.62 -1.53406 -0.361157 0
M  V30 3071 C 296.53 -1.83122 -1.4664 0
M  V30 3072 C 297.546 -0.719943 -1.58407 0
M  V30 3073 O 298.722 -1.01046 -1.74218 0
M  V30 3074 C 295.787 -2.01891 -2.81853 0
M  V30 3075 C 294.848 -3.25784 -2.79577 0
M  V30 3076 C 294.081 -3.43648 -4.0834 0
M  V30 3077 O 294.304 -2.65714 -5.0473 0
M  V30 3078 O 293.238 -4.37018 -4.13883 0
M  V30 3079 H 297.064 -2.7703 -1.24451 0
M  V30 3080 H 294.649 -1.38841 -0.551678 0
M  V30 3081 H 296.531 -2.15782 -3.61962 0
M  V30 3082 H 295.206 -1.11173 -3.0401 0
M  V30 3083 H 294.113 -3.17312 -1.98151 0
M  V30 3084 H 295.446 -4.16439 -2.62373 0
M  V30 3085 N 297.098 0.621204 -1.44841 0
M  V30 3086 C 298.045 1.73267 -1.5247 0
M  V30 3087 C 299.015 1.6189 -0.371611 0
M  V30 3088 O 300.2 1.81668 -0.58321 0
M  V30 3089 C 297.34 3.11545 -1.48438 0
M  V30 3090 C 296.453 3.33827 -2.74196 0
M  V30 3091 C 295.588 4.62133 -2.61929 0
M  V30 3092 C 294.627 4.77627 -3.82804 0
M  V30 3093 N 293.764 5.97219 -3.69153 0
M  V30 3094 H 298.604 1.66082 -2.47428 0
M  V30 3095 H 296.141 0.810026 -1.22788 0
M  V30 3096 H 298.099 3.91528 -1.4409 0
M  V30 3097 H 296.729 3.1772 -0.570402 0
M  V30 3098 H 295.781 2.47715 -2.88689 0
M  V30 3099 H 297.093 3.41153 -3.6389 0
M  V30 3100 H 296.247 5.50291 -2.5547 0
M  V30 3101 H 294.986 4.57182 -1.69811 0
M  V30 3102 H 293.991 3.87896 -3.89637 0
M  V30 3103 H 295.216 4.84385 -4.75971 0
M  V30 3104 H 293.162 5.93339 -2.79794 0
M  V30 3105 H 293.079 6.05644 -4.52472 0
M  V30 3106 H 294.347 6.87912 -3.66603 0
M  V30 3107 N 298.576 1.31904 0.862503 0
M  V30 3108 C 299.825 1.21373 1.61094 0
M  V30 3109 C 300.138 -0.22504 1.94301 0
M  V30 3110 O 301.344 -0.452121 2.67709 0
M  V30 3111 C 299.8 2.12525 2.9045 0
M  V30 3112 C 299.408 3.61441 2.64697 0
M  V30 3113 C 301.152 2.10813 3.68454 0
M  V30 3114 C 299.059 4.44578 3.90006 0
M  V30 3115 H 297.989 0.450705 0.604468 0
M  V30 3116 H 300.64 1.56811 0.953027 0
M  V30 3117 H 299.022 1.69994 3.57656 0
M  V30 3118 H 300.196 4.12264 2.05851 0
M  V30 3119 H 298.511 3.65205 2.00036 0
M  V30 3120 H 301.108 2.70167 4.61426 0
M  V30 3121 H 301.451 1.09713 4.01583 0
M  V30 3122 H 301.984 2.51583 3.08141 0
M  V30 3123 H 298.723 5.46461 3.62023 0
M  V30 3124 H 298.243 3.98508 4.48276 0
M  V30 3125 H 299.922 4.57176 4.5782 0
M  V30 3126 N 300.054 -1.07777 1.14986 0
M  V30 3127 C 301.465 -1.61766 0.932127 0
M  V30 3128 C 301.816 -1.88974 -0.527581 0
M  V30 3129 O 300.941 -1.65198 -1.39781 0
M  V30 3130 C 301.536 -2.93891 1.68563 0
M  V30 3131 C 300.095 -3.44639 1.5133 0
M  V30 3132 C 299.242 -2.18767 1.704 0
M  V30 3133 H 302.193 -0.909201 1.30074 0
M  V30 3134 H 302.214 -3.62623 1.15259 0
M  V30 3135 H 301.726 -2.74057 2.74799 0
M  V30 3136 H 299.827 -3.69564 0.474702 0
M  V30 3137 H 299.94 -4.20966 2.28746 0
M  V30 3138 H 298.304 -2.28253 1.13016 0
M  V30 3139 H 299.087 -2.01433 2.77992 0
M  V30 3140 N 301.532 -0.945985 -1.26051 0
M  V30 3141 C 302.778 -0.597002 -1.93814 0
M  V30 3142 C 303.111 0.862484 -1.73997 0
M  V30 3143 O 302.386 1.61769 -1.07986 0
M  V30 3144 C 302.669 -0.945937 -3.47454 0
M  V30 3145 C 302.522 -2.46052 -3.76535 0
M  V30 3146 C 303.841 -0.464785 -4.37639 0
M  V30 3147 H 300.96 -0.218366 -0.703907 0
M  V30 3148 H 303.602 -1.18107 -1.48831 0
M  V30 3149 H 301.752 -0.448902 -3.85898 0
M  V30 3150 H 303.424 -3.03065 -3.47778 0
M  V30 3151 H 301.667 -2.90194 -3.22444 0
M  V30 3152 H 302.338 -2.65517 -4.83947 0
M  V30 3153 H 304.814 -0.891016 -4.06448 0
M  V30 3154 H 303.69 -0.737712 -5.4392 0
M  V30 3155 H 303.951 0.635274 -4.37512 0
M  V30 3156 N 303.011 1.40521 -0.713556 0
M  V30 3157 C 304.241 2.0494 -0.261395 0
M  V30 3158 C 304.649 1.53861 1.10107 0
M  V30 3159 O 303.992 0.689321 1.70276 0
M  V30 3160 C 304.054 3.59138 -0.161227 0
M  V30 3161 C 303.718 4.33096 -1.45865 0
M  V30 3162 C 304.715 4.61182 -2.40016 0
M  V30 3163 C 302.4 4.72043 -1.71701 0
M  V30 3164 C 304.394 5.27196 -3.58251 0
M  V30 3165 C 302.081 5.37789 -2.90218 0
M  V30 3166 C 303.079 5.65295 -3.83315 0
M  V30 3167 O 302.767 6.29683 -4.99754 0
M  V30 3168 H 302.499 0.666041 -0.115608 0
M  V30 3169 H 305.053 1.80954 -0.971849 0
M  V30 3170 H 303.283 3.81936 0.605153 0
M  V30 3171 H 304.972 4.05091 0.256105 0
M  V30 3172 H 305.738 4.31559 -2.21318 0
M  V30 3173 H 301.617 4.50003 -1.00092 0
M  V30 3174 H 305.161 5.48582 -4.30934 0
M  V30 3175 H 301.058 5.66831 -3.08825 0
M  V30 3176 H 301.826 6.4818 -4.99805 0
M  V30 3177 N 304.489 0.459591 1.5075 0
M  V30 3178 C 305.905 0.113092 1.59199 0
M  V30 3179 C 306.105 -1.37951 1.46874 0
M  V30 3180 O 305.161 -2.15168 1.32132 0
M  V30 3181 C 306.474 0.653043 2.93523 0
M  V30 3182 C 308.022 0.615449 3.0689 0
M  V30 3183 C 308.497 1.13275 4.43771 0
M  V30 3184 N 309.988 1.09167 4.50152 0
M  V30 3185 C 310.723 1.46256 5.54434 0
M  V30 3186 N 310.219 1.90739 6.66026 0
M  V30 3187 N 312.012 1.37932 5.44914 0
M  V30 3188 H 304.163 1.43049 1.57005 0
M  V30 3189 H 306.426 0.590861 0.741341 0
M  V30 3190 H 306.132 1.69822 3.07983 0
M  V30 3191 H 306.006 0.0902132 3.77092 0
M  V30 3192 H 308.393 -0.420793 2.92084 0
M  V30 3193 H 308.474 1.21495 2.25106 0
M  V30 3194 H 308.118 2.16757 4.59324 0
M  V30 3195 H 308.048 0.509576 5.24129 0
M  V30 3196 H 310.539 0.76528 3.7007 0
M  V30 3197 H 310.852 2.17218 7.41644 0
M  V30 3198 H 309.197 1.94683 6.67176 0
M  V30 3199 H 312.388 1.0303 4.56621 0
M  V30 3200 H 312.561 1.67164 6.26067 0
M  V30 3201 N 305.967 -1.56429 0.191757 0
M  V30 3202 C 306.877 -2.22541 -0.742481 0
M  V30 3203 C 307.893 -1.22342 -1.23727 0
M  V30 3204 O 309.069 -1.55069 -1.28513 0
M  V30 3205 C 306.134 -2.8692 -1.94623 0
M  V30 3206 C 305.195 -4.02378 -1.49633 0
M  V30 3207 C 304.428 -4.63678 -2.6427 0
M  V30 3208 O 304.651 -4.23895 -3.81666 0
M  V30 3209 O 303.585 -5.53202 -2.37174 0
M  V30 3210 H 307.411 -3.02977 -0.209462 0
M  V30 3211 H 304.996 -1.49353 -0.0373832 0
M  V30 3212 H 306.878 -3.27663 -2.64982 0
M  V30 3213 H 305.553 -2.09466 -2.46791 0
M  V30 3214 H 304.46 -3.66265 -0.761636 0
M  V30 3215 H 305.793 -4.81487 -1.02134 0
M  V30 3216 N 307.445 0.0818655 -1.57387 0
M  V30 3217 C 308.693 0.781368 -1.86384 0
M  V30 3218 C 309.014 1.78618 -0.782342 0
M  V30 3219 O 308.284 1.94976 0.190061 0
M  V30 3220 H 306.864 0.291562 -0.687751 0
M  V30 3221 H 309.526 0.060348 -1.94807 0
M  V30 3222 H 308.622 1.3038 -2.83562 0
M  V30 3223 N 308.923 1.53595 0.353017 0
M  V30 3224 C 309.886 1.80232 1.41594 0
M  V30 3225 C 310.886 0.673081 1.46035 0
M  V30 3226 O 312.076 0.941335 1.46576 0
M  V30 3227 C 309.208 1.93578 2.80607 0
M  V30 3228 H 310.401 2.75174 1.19244 0
M  V30 3229 H 307.954 1.44864 0.586872 0
M  V30 3230 H 308.689 1.00746 3.08254 0
M  V30 3231 H 308.474 2.75724 2.78781 0
M  V30 3232 H 309.964 2.15735 3.57558 0
M  V30 3233 N 310.401 -0.613514 1.45168 0
M  V30 3234 C 311.817 -0.933629 1.29443 0
M  V30 3235 C 312.017 -2.00028 0.243101 0
M  V30 3236 O 311.073 -2.49848 -0.364992 0
M  V30 3237 C 312.386 -1.38018 2.67155 0
M  V30 3238 C 313.934 -1.49471 2.75004 0
M  V30 3239 C 314.409 -1.97503 4.13227 0
M  V30 3240 N 315.9 -2.04746 4.15491 0
M  V30 3241 C 316.635 -2.43121 5.19307 0
M  V30 3242 N 316.131 -2.80506 6.33473 0
M  V30 3243 N 317.924 -2.43408 5.06664 0
M  V30 3244 H 310.075 0.0916097 2.12202 0
M  V30 3245 H 312.338 -0.0216655 0.947752 0
M  V30 3246 H 312.044 -0.670625 3.45247 0
M  V30 3247 H 311.918 -2.34784 2.95222 0
M  V30 3248 H 314.305 -2.19519 1.9722 0
M  V30 3249 H 314.386 -0.510342 2.50657 0
M  V30 3250 H 314.03 -1.28045 4.91495 0
M  V30 3251 H 313.96 -2.96843 4.34962 0
M  V30 3252 H 316.451 -1.78468 3.33103 0
M  V30 3253 H 316.764 -3.08652 7.08487 0
M  V30 3254 H 315.109 -2.78216 6.36884 0
M  V30 3255 H 318.3 -2.13604 4.16523 0
M  V30 3256 H 318.473 -2.72989 5.87691 0
M  V30 3257 N 311.879 -1.3236 -0.855495 0
M  V30 3258 C 312.826 -1.21225 -1.964 0
M  V30 3259 C 313.796 -0.0946204 -1.6583 0
M  V30 3260 O 314.981 -0.27002 -1.8888 0
M  V30 3261 C 312.121 -0.940419 -3.32039 0
M  V30 3262 C 311.234 -2.14276 -3.75113 0
M  V30 3263 C 310.369 -1.80648 -4.9954 0
M  V30 3264 C 309.408 -2.97208 -5.35102 0
M  V30 3265 N 308.545 -2.63678 -6.50706 0
M  V30 3266 H 313.385 -2.16042 -2.05255 0
M  V30 3267 H 310.922 -1.07451 -1.00463 0
M  V30 3268 H 312.88 -0.763311 -4.10158 0
M  V30 3269 H 311.51 -0.0290413 -3.22787 0
M  V30 3270 H 310.562 -2.43017 -2.92655 0
M  V30 3271 H 311.874 -3.01468 -3.97389 0
M  V30 3272 H 311.028 -1.59484 -5.85363 0
M  V30 3273 H 309.767 -0.906678 -4.79198 0
M  V30 3274 H 308.772 -3.19004 -4.47791 0
M  V30 3275 H 309.997 -3.87918 -5.57401 0
M  V30 3276 H 307.943 -1.76238 -6.31883 0
M  V30 3277 H 307.86 -3.444 -6.72997 0
M  V30 3278 H 309.128 -2.45942 -7.39684 0
M  V30 3279 N 313.357 1.07166 -1.15556 0
M  V30 3280 C 314.267 2.17947 -0.868116 0
M  V30 3281 C 315.283 1.73297 0.156297 0
M  V30 3282 O 316.459 2.01392 -0.0182327 0
M  V30 3283 C 313.524 3.44789 -0.36355 0
M  V30 3284 C 312.585 4.03996 -1.45209 0
M  V30 3285 C 311.818 5.24783 -0.971508 0
M  V30 3286 O 312.041 5.70109 0.182194 0
M  V30 3287 O 310.975 5.75715 -1.75603 0
M  V30 3288 H 314.801 2.4503 -1.79427 0
M  V30 3289 H 312.386 1.16539 -0.934824 0
M  V30 3290 H 314.268 4.21307 -0.0887113 0
M  V30 3291 H 312.943 3.19253 0.534708 0
M  V30 3292 H 311.85 3.29009 -1.78056 0
M  V30 3293 H 313.183 4.33808 -2.32533 0
M  V30 3294 N 314.835 0.952656 1.25548 0
M  V30 3295 C 316.246 0.647392 1.75116 0
M  V30 3296 C 316.597 -0.837274 1.77438 0
M  V30 3297 O 315.722 -1.65525 1.39393 0
M  V30 3298 C 316.317 1.16845 3.18014 0
M  V30 3299 C 314.876 0.913382 3.6515 0
M  V30 3300 C 314.023 1.31265 2.44264 0
M  V30 3301 H 316.974 1.12968 1.11462 0
M  V30 3302 H 316.995 0.527606 3.76824 0
M  V30 3303 H 316.507 2.24902 3.16292 0
M  V30 3304 H 314.608 -0.152316 3.72289 0
M  V30 3305 H 314.721 1.54845 4.53387 0
M  V30 3306 H 313.085 0.731028 2.43984 0
M  V30 3307 H 313.868 2.40239 2.45234 0
M  V30 3308 N 316.313 -1.40141 0.720998 0
M  V30 3309 C 317.243 -2.33339 0.0867621 0
M  V30 3310 C 318.224 -1.53178 -0.739622 0
M  V30 3311 O 319.409 -1.81625 -0.687449 0
M  V30 3312 C 316.539 -3.37194 -0.831728 0
M  V30 3313 C 315.493 -4.27857 -0.110558 0
M  V30 3314 C 314.819 -5.22294 -1.14513 0
M  V30 3315 C 316.119 -5.11872 1.0385 0
M  V30 3316 H 317.813 -2.86626 0.865219 0
M  V30 3317 H 315.359 -1.37814 0.417516 0
M  V30 3318 H 317.312 -4.01335 -1.28485 0
M  V30 3319 H 316.036 -2.82314 -1.64214 0
M  V30 3320 H 314.695 -3.65176 0.322797 0
M  V30 3321 H 314.343 -4.63717 -1.94874 0
M  V30 3322 H 314.043 -5.83797 -0.667446 0
M  V30 3323 H 315.567 -5.89312 -1.59824 0
M  V30 3324 H 316.981 -5.69436 0.664482 0
M  V30 3325 H 315.378 -5.82445 1.4449 0
M  V30 3326 H 316.448 -4.4753 1.86668 0
M  V30 3327 N 317.792 -0.46758 -1.50504 0
M  V30 3328 C 318.755 0.317059 -2.26996 0
M  V30 3329 C 319.755 0.923513 -1.31635 0
M  V30 3330 O 320.945 0.793239 -1.55091 0
M  V30 3331 C 318.077 1.45134 -3.08462 0
M  V30 3332 H 319.27 -0.353723 -2.97807 0
M  V30 3333 H 316.823 -0.221545 -1.54722 0
M  V30 3334 H 317.558 2.15728 -2.4214 0
M  V30 3335 H 317.343 1.02232 -3.78538 0
M  V30 3336 H 318.833 2.00493 -3.66323 0
M  V30 3337 N 319.27 1.56325 -0.20005 0
M  V30 3338 C 320.516 1.98012 0.438059 0
M  V30 3339 C 320.849 1.08702 1.60927 0
M  V30 3340 O 320.124 0.140064 1.93995 0
M  V30 3341 C 320.407 3.48841 0.893419 0
M  V30 3342 C 320.26 4.48928 -0.279947 0
M  V30 3343 C 321.579 4.03498 1.75719 0
M  V30 3344 H 318.698 0.719918 0.157757 0
M  V30 3345 H 321.34 1.87743 -0.291968 0
M  V30 3346 H 319.49 3.57723 1.51547 0
M  V30 3347 H 321.162 4.52079 -0.91772 0
M  V30 3348 H 319.405 4.23694 -0.930919 0
M  V30 3349 H 320.076 5.5194 0.0812601 0
M  V30 3350 H 322.552 3.97427 1.23253 0
M  V30 3351 H 321.428 5.09393 2.04476 0
M  V30 3352 H 321.689 3.4906 2.71311 0
M  V30 3353 N 320.748 -0.0735177 1.57428 0
M  V30 3354 C 321.994 -0.774145 1.87443 0
M  V30 3355 C 322.327 -1.77311 0.792103 0
M  V30 3356 O 321.602 -1.93492 -0.197793 0
M  V30 3357 C 321.885 -1.48367 3.28115 0
M  V30 3358 C 321.738 -0.501227 4.46999 0
M  V30 3359 C 323.057 -2.429 3.66998 0
M  V30 3360 H 320.176 -0.279971 0.681752 0
M  V30 3361 H 322.818 -0.0373616 1.89963 0
M  V30 3362 H 320.968 -2.11171 3.26097 0
M  V30 3363 H 322.64 0.121468 4.6114 0
M  V30 3364 H 320.883 0.183593 4.33411 0
M  V30 3365 H 321.554 -1.03526 5.42205 0
M  V30 3366 H 324.03 -1.90175 3.70098 0
M  V30 3367 H 322.906 -2.89549 4.66318 0
M  V30 3368 H 323.167 -3.27628 2.96837 0
M  V30 3369 N 322.226 -1.5378 -0.344866 0
M  V30 3370 C 323.474 -1.70625 -1.08311 0
M  V30 3371 C 323.795 -0.471447 -1.89215 0
M  V30 3372 O 323.065 0.514616 -1.8902 0
M  V30 3373 H 321.645 -0.629058 -0.402859 0
M  V30 3374 H 324.307 -1.9103 -0.386459 0
M  V30 3375 H 323.403 -2.57656 -1.76124 0
M  V30 3376 N 323.704 0.605807 -1.45491 0
M  V30 3377 C 324.929 1.39625 -1.53361 0
M  V30 3378 C 325.354 1.87351 -0.167645 0
M  V30 3379 O 324.712 1.60243 0.848051 0
M  V30 3380 C 324.76 2.57559 -2.5238 0
M  V30 3381 O 323.864 3.58248 -2.04285 0
M  V30 3382 H 323.205 0.416771 -0.516912 0
M  V30 3383 H 325.735 0.737103 -1.90861 0
M  V30 3384 H 325.745 3.0478 -2.71244 0
M  V30 3385 H 324.42 2.22171 -3.51586 0
M  V30 3386 H 322.997 3.17664 -1.95305 0
M  V30 3387 N 325.182 1.32811 0.848464 0
M  V30 3388 C 326.593 1.21315 1.41914 0
M  V30 3389 C 326.944 -0.171847 1.95446 0
M  V30 3390 O 326.069 -1.07093 1.88043 0
M  V30 3391 C 326.664 2.19631 2.57968 0
M  V30 3392 C 325.223 2.12003 3.11017 0
M  V30 3393 C 324.37 2.07651 1.83783 0
M  V30 3394 H 327.321 1.44549 0.655071 0
M  V30 3395 H 327.342 1.79845 3.35315 0
M  V30 3396 H 326.854 3.20423 2.18976 0
M  V30 3397 H 324.955 1.14481 3.54577 0
M  V30 3398 H 325.068 3.02111 3.71841 0
M  V30 3399 H 323.432 1.52983 2.03638 0
M  V30 3400 H 324.215 3.10235 1.47 0
M  V30 3401 N 326.66 -1.06551 1.16123 0
M  V30 3402 C 327.89 -1.8274 0.963838 0
M  V30 3403 C 328.298 -1.82712 -0.491228 0
M  V30 3404 O 327.641 -1.24294 -1.35265 0
M  V30 3405 C 327.703 -3.3065 1.41106 0
M  V30 3406 C 327.367 -3.54384 2.88549 0
M  V30 3407 C 328.364 -3.4765 3.86569 0
M  V30 3408 C 326.049 -3.81789 3.26408 0
M  V30 3409 C 328.043 -3.67982 5.2045 0
M  V30 3410 C 325.73 -4.01772 4.60459 0
M  V30 3411 C 326.728 -3.94866 5.57288 0
M  V30 3412 O 326.416 -4.14306 6.88916 0
M  V30 3413 H 326.148 -0.583136 0.341948 0
M  V30 3414 H 328.702 -1.35351 1.54497 0
M  V30 3415 H 326.932 -3.78887 0.773394 0
M  V30 3416 H 328.621 -3.88324 1.1815 0
M  V30 3417 H 329.387 -3.2647 3.58667 0
M  V30 3418 H 325.266 -3.86276 2.51619 0
M  V30 3419 H 328.81 -3.62507 5.96015 0
M  V30 3420 H 324.707 -4.2244 4.88072 0
M  V30 3421 H 325.475 -4.31609 6.95454 0
M  V30 3422 N 328.138 -0.959301 -1.25041 0
M  V30 3423 C 329.384 -0.627096 -1.93492 0
M  V30 3424 C 329.739 0.827484 -1.73696 0
M  V30 3425 O 329.032 1.58651 -1.07427 0
M  V30 3426 C 329.226 -0.927136 -3.45165 0
M  V30 3427 C 329.055 -2.40933 -3.79712 0
M  V30 3428 C 327.825 -3.0677 -4.01522 0
M  V30 3429 C 330.023 -3.38894 -3.86853 0
M  V30 3430 N 328.005 -4.44815 -4.231 0
M  V30 3431 C 329.376 -4.62263 -4.13174 0
M  V30 3432 C 331.431 -3.33668 -3.69554 0
M  V30 3433 C 330.134 -5.81052 -4.23995 0
M  V30 3434 C 332.16 -4.518 -3.81616 0
M  V30 3435 C 331.522 -5.73957 -4.08354 0
M  V30 3436 H 327.621 -0.280166 -0.73009 0
M  V30 3437 H 330.205 -1.23244 -1.50729 0
M  V30 3438 H 328.376 -0.350685 -3.86814 0
M  V30 3439 H 330.108 -0.554361 -4.00885 0
M  V30 3440 H 326.863 -2.57327 -3.97593 0
M  V30 3441 H 327.287 -5.16319 -4.37885 0
M  V30 3442 H 331.929 -2.40268 -3.47895 0
M  V30 3443 H 329.647 -6.74888 -4.44468 0
M  V30 3444 H 333.233 -4.49309 -3.69612 0
M  V30 3445 H 332.113 -6.6384 -4.17475 0
M  V30 3446 N 329.616 1.39756 -0.72842 0
M  V30 3447 C 330.549 2.28176 -0.0330172 0
M  V30 3448 C 331.527 1.44035 0.754501 0
M  V30 3449 O 332.711 1.73434 0.738445 0
M  V30 3450 C 329.838 3.24795 0.960504 0
M  V30 3451 C 328.884 4.25693 0.262264 0
M  V30 3452 S 329.717 5.25714 -1.01906 0
M  V30 3453 C 330.873 6.25894 -0.0279717 0
M  V30 3454 H 331.106 2.86807 -0.78287 0
M  V30 3455 H 328.639 1.45382 -0.519951 0
M  V30 3456 H 330.597 3.80983 1.52846 0
M  V30 3457 H 329.258 2.65196 1.68315 0
M  V30 3458 H 328.451 4.93699 1.01379 0
M  V30 3459 H 328.053 3.7327 -0.233482 0
M  V30 3460 H 330.345 6.72585 0.814621 0
M  V30 3461 H 331.288 7.04876 -0.67499 0
M  V30 3462 H 331.696 5.63466 0.341489 0
M  V30 3463 N 331.094 0.475555 1.50254 0
M  V30 3464 C 332.057 -0.305016 2.27161 0
M  V30 3465 C 333.057 -0.916519 1.32123 0
M  V30 3466 O 334.247 -0.785003 1.5551 0
M  V30 3467 C 331.379 -1.43496 3.09227 0
M  V30 3468 H 332.572 0.369511 2.97615 0
M  V30 3469 H 330.125 0.229747 1.54602 0
M  V30 3470 H 330.86 -2.14441 2.43281 0
M  V30 3471 H 330.645 -1.00223 3.79075 0
M  V30 3472 H 332.135 -1.98548 3.67381 0
M  V30 3473 N 332.573 -1.56217 0.208337 0
M  V30 3474 C 333.984 -1.84243 -0.301904 0
M  V30 3475 C 334.335 -1.12939 -1.60434 0
M  V30 3476 O 333.46 -0.39461 -2.12772 0
M  V30 3477 C 334.055 -3.34231 -0.554543 0
M  V30 3478 C 332.614 -3.62621 -1.00912 0
M  V30 3479 C 331.761 -2.77224 -0.064933 0
M  V30 3480 H 334.712 -1.52712 0.431833 0
M  V30 3481 H 334.733 -3.5372 -1.40223 0
M  V30 3482 H 334.245 -3.86099 0.393561 0
M  V30 3483 H 332.346 -3.16197 -1.97104 0
M  V30 3484 H 332.459 -4.7071 -0.892674 0
M  V30 3485 H 330.823 -2.48256 -0.56929 0
M  V30 3486 H 331.606 -3.31887 0.877851 0
M  V30 3487 N 334.051 0.0651679 -1.57465 0
M  V30 3488 C 334.961 1.09448 -2.07505 0
M  V30 3489 C 335.977 1.41974 -1.00595 0
M  V30 3490 O 337.153 1.52018 -1.32107 0
M  V30 3491 C 334.218 2.38689 -2.51453 0
M  V30 3492 C 333.279 2.13073 -3.72691 0
M  V30 3493 C 332.512 3.36152 -4.14533 0
M  V30 3494 O 332.735 4.45517 -3.56189 0
M  V30 3495 O 331.669 3.23974 -5.07272 0
M  V30 3496 H 335.495 0.69935 -2.95538 0
M  V30 3497 H 333.08 0.279752 -1.46757 0
M  V30 3498 H 334.962 3.14736 -2.80212 0
M  V30 3499 H 333.637 2.77568 -1.66546 0
M  V30 3500 H 332.544 1.34709 -3.49005 0
M  V30 3501 H 333.877 1.79071 -4.5847 0
M  V30 3502 N 335.529 1.53961 0.336706 0
M  V30 3503 C 336.775 1.7179 1.07777 0
M  V30 3504 C 337.108 0.483263 1.88091 0
M  V30 3505 O 336.383 -0.519747 1.87427 0
M  V30 3506 C 336.666 2.98558 2.01334 0
M  V30 3507 C 336.519 4.32245 1.24437 0
M  V30 3508 C 337.838 3.21023 3.01052 0
M  V30 3509 H 334.957 0.625089 0.390426 0
M  V30 3510 H 337.599 1.86641 0.35567 0
M  V30 3511 H 335.749 2.86028 2.62908 0
M  V30 3512 H 337.421 4.56637 0.654243 0
M  V30 3513 H 335.664 4.30344 0.546458 0
M  V30 3514 H 336.335 5.17137 1.93063 0
M  V30 3515 H 338.811 3.32929 2.49595 0
M  V30 3516 H 337.687 4.11104 3.6371 0
M  V30 3517 H 337.948 2.37637 3.72802 0
M  V30 3518 N 337.007 -0.598083 1.45811 0
M  V30 3519 C 337.937 -1.71873 1.58057 0
M  V30 3520 C 338.918 -1.64533 0.431615 0
M  V30 3521 O 340.103 -1.82787 0.65595 0
M  V30 3522 C 337.233 -3.10495 1.55597 0
M  V30 3523 C 336.187 -3.32654 2.69305 0
M  V30 3524 C 335.513 -4.71646 2.51902 0
M  V30 3525 C 336.813 -3.21981 4.11248 0
M  V30 3526 H 338.507 -1.61881 2.51863 0
M  V30 3527 H 336.053 -0.777372 1.21214 0
M  V30 3528 H 338.006 -3.88699 1.6276 0
M  V30 3529 H 336.73 -3.2135 0.583255 0
M  V30 3530 H 335.389 -2.56843 2.61586 0
M  V30 3531 H 335.037 -4.79246 1.52748 0
M  V30 3532 H 334.737 -4.87426 3.2816 0
M  V30 3533 H 336.261 -5.52038 2.60933 0
M  V30 3534 H 337.675 -3.90049 4.20161 0
M  V30 3535 H 336.072 -3.49289 4.87972 0
M  V30 3536 H 337.142 -2.1928 4.32486 0
M  V30 3537 N 338.485 -1.33259 -0.841409 0
M  V30 3538 C 339.901 -1.12538 -1.13169 0
M  V30 3539 C 340.101 0.0854037 -2.01319 0
M  V30 3540 O 339.157 0.766417 -2.40587 0
M  V30 3541 C 340.47 -2.41156 -1.79623 0
M  V30 3542 C 342.018 -2.47038 -1.922 0
M  V30 3543 C 342.493 -3.7561 -2.6207 0
M  V30 3544 N 343.984 -3.76667 -2.69585 0
M  V30 3545 C 344.719 -4.72861 -3.2433 0
M  V30 3546 N 344.215 -5.79428 -3.79783 0
M  V30 3547 N 346.008 -4.6034 -3.22558 0
M  V30 3548 H 338.159 -2.10868 -0.254676 0
M  V30 3549 H 340.422 -0.931615 -0.175493 0
M  V30 3550 H 340.128 -3.29747 -1.22311 0
M  V30 3551 H 340.002 -2.53114 -2.79666 0
M  V30 3552 H 342.389 -1.58898 -2.48667 0
M  V30 3553 H 342.47 -2.39022 -0.911148 0
M  V30 3554 H 342.114 -4.64131 -2.06263 0
M  V30 3555 H 342.044 -3.80902 -3.63622 0
M  V30 3556 H 344.535 -2.99648 -2.30259 0
M  V30 3557 H 344.848 -6.48867 -4.19752 0
M  V30 3558 H 343.193 -5.83166 -3.78078 0
M  V30 3559 H 346.384 -3.76244 -2.78492 0
M  V30 3560 H 346.557 -5.35478 -3.64921 0
M  V30 3561 N 339.963 1.05934 -1.16686 0
M  V30 3562 C 341.211 1.78447 -0.948744 0
M  V30 3563 C 341.532 1.87813 0.524523 0
M  V30 3564 O 340.802 1.38945 1.38098 0
M  V30 3565 H 339.382 0.660971 -0.348033 0
M  V30 3566 H 342.044 1.27947 -1.47022 0
M  V30 3567 H 341.14 2.80394 -1.37061 0
M  V30 3568 N 341.441 0.965919 1.2453 0
M  V30 3569 C 342.351 0.502154 2.29163 0
M  V30 3570 C 343.367 -0.436017 1.68448 0
M  V30 3571 O 344.543 -0.309497 1.99008 0
M  V30 3572 C 341.608 -0.201956 3.46111 0
M  V30 3573 C 340.669 0.775821 4.22232 0
M  V30 3574 C 339.902 0.105217 5.33596 0
M  V30 3575 O 340.125 -1.10683 5.59558 0
M  V30 3576 O 339.059 0.796475 5.96607 0
M  V30 3577 H 342.885 1.37194 2.70946 0
M  V30 3578 H 340.47 0.732875 1.30189 0
M  V30 3579 H 342.352 -0.597564 4.17142 0
M  V30 3580 H 341.027 -1.04673 3.06309 0
M  V30 3581 H 339.934 1.22185 3.53584 0
M  V30 3582 H 341.267 1.58896 4.65846 0
M  V30 3583 N 342.919 -1.39368 0.735821 0
M  V30 3584 C 343.849 -2.33234 0.111506 0
M  V30 3585 C 344.83 -1.53954 -0.723334 0
M  V30 3586 O 346.015 -1.82344 -0.668147 0
M  V30 3587 C 343.145 -3.38057 -0.795917 0
M  V30 3588 C 342.099 -4.2795 -0.065172 0
M  V30 3589 C 341.425 -5.23479 -1.08967 0
M  V30 3590 C 342.725 -5.10741 1.09273 0
M  V30 3591 H 344.419 -2.85692 0.895571 0
M  V30 3592 H 341.965 -1.37364 0.432109 0
M  V30 3593 H 343.918 -4.02675 -1.24221 0
M  V30 3594 H 342.642 -2.8404 -1.61211 0
M  V30 3595 H 341.301 -3.64813 0.361511 0
M  V30 3596 H 340.949 -4.65758 -1.89944 0
M  V30 3597 H 340.649 -5.84472 -0.605489 0
M  V30 3598 H 342.173 -5.90974 -1.53565 0
M  V30 3599 H 343.587 -5.68699 0.724841 0
M  V30 3600 H 341.984 -5.8088 1.50659 0
M  V30 3601 H 343.054 -4.45525 1.91404 0
M  V30 3602 N 344.397 -0.483516 -1.5 0
M  V30 3603 C 345.627 0.0643896 -2.065 0
M  V30 3604 C 346.035 1.32949 -1.34615 0
M  V30 3605 O 345.378 1.79003 -0.412756 0
M  V30 3606 C 345.44 0.405983 -3.572 0
M  V30 3607 C 345.104 -0.758875 -4.50655 0
M  V30 3608 C 346.101 -1.64445 -4.93208 0
M  V30 3609 C 343.786 -0.952725 -4.93182 0
M  V30 3610 C 345.78 -2.70818 -5.77006 0
M  V30 3611 C 343.467 -2.01966 -5.76761 0
M  V30 3612 C 344.465 -2.89574 -6.18576 0
M  V30 3613 O 344.153 -3.94429 -7.00486 0
M  V30 3614 H 343.885 -0.00934786 -0.675935 0
M  V30 3615 H 346.439 -0.674959 -1.93993 0
M  V30 3616 H 344.669 1.19869 -3.67652 0
M  V30 3617 H 346.358 0.890433 -3.96013 0
M  V30 3618 H 347.124 -1.50643 -4.61012 0
M  V30 3619 H 343.003 -0.280247 -4.60147 0
M  V30 3620 H 346.547 -3.3923 -6.09565 0
M  V30 3621 H 342.444 -2.1577 -6.0837 0
M  V30 3622 H 343.212 -3.91568 -7.1876 0
M  V30 3623 N 345.875 1.56104 -0.216619 0
M  V30 3624 C 347.152 1.89988 0.465165 0
M  V30 3625 C 347.532 1.13326 1.78102 0
M  V30 3626 O 346.88 0.241033 2.27225 0
M  V30 3627 C 347.09 3.42646 0.662939 0
M  V30 3628 C 348.438 4.13311 0.972602 0
M  V30 3629 O 349.462 3.48217 0.749901 0
M  V30 3630 O 348.321 5.28396 1.39499 0
M  V30 3631 H 345.415 0.78979 0.245276 0
M  V30 3632 H 347.961 1.67721 -0.258436 0
M  V30 3633 H 346.733 3.90399 -0.26543 0
M  V30 3634 H 346.356 3.70677 1.43821 0
M  V30 3635 N 347.353 -0.0568162 1.57498 0
M  V30 3636 C 348.263 -1.08346 2.08083 0
M  V30 3637 C 349.279 -1.41439 1.01346 0
M  V30 3638 O 350.455 -1.51316 1.32912 0
M  V30 3639 C 347.52 -2.37352 2.52715 0
M  V30 3640 C 346.581 -2.11093 3.73816 0
M  V30 3641 C 345.814 -3.33949 4.1631 0
M  V30 3642 O 346.037 -4.43622 3.58547 0
M  V30 3643 O 344.971 -3.21279 5.08983 0
M  V30 3644 H 348.797 -0.683667 2.95905 0
M  V30 3645 H 346.382 -0.271965 1.46904 0
M  V30 3646 H 348.264 -3.13246 2.81877 0
M  V30 3647 H 346.939 -2.76681 1.68016 0
M  V30 3648 H 345.846 -1.32856 3.49714 0
M  V30 3649 H 347.179 -1.76637 4.59413 0
M  V30 3650 N 348.832 -1.54138 -0.328536 0
M  V30 3651 C 349.779 -1.83176 -1.40411 0
M  V30 3652 C 350.749 -0.678494 -1.5161 0
M  V30 3653 O 351.934 -0.92443 -1.6691 0
M  V30 3654 C 349.074 -2.06035 -2.76846 0
M  V30 3655 C 348.187 -3.33727 -2.74318 0
M  V30 3656 C 347.322 -3.46574 -4.02567 0
M  V30 3657 C 346.361 -4.68159 -3.94327 0
M  V30 3658 N 345.498 -4.77959 -5.14296 0
M  V30 3659 H 350.338 -2.74938 -1.14948 0
M  V30 3660 H 347.875 -1.36166 -0.556538 0
M  V30 3661 H 349.833 -2.1728 -3.56153 0
M  V30 3662 H 348.463 -1.1757 -3.00628 0
M  V30 3663 H 347.515 -3.31246 -1.8703 0
M  V30 3664 H 348.827 -4.23139 -2.64111 0
M  V30 3665 H 347.981 -3.57333 -4.90304 0
M  V30 3666 H 346.72 -2.55245 -4.15574 0
M  V30 3667 H 345.725 -4.57461 -3.04974 0
M  V30 3668 H 346.95 -5.60868 -3.82889 0
M  V30 3669 H 344.896 -3.89544 -5.27818 0
M  V30 3670 H 344.813 -5.6133 -5.06404 0
M  V30 3671 H 346.081 -4.93044 -6.03761 0
M  V30 3672 N 350.31 0.590341 -1.46126 0
M  V30 3673 C 351.273 1.68194 -1.55703 0
M  V30 3674 C 352.273 1.54808 -0.434868 0
M  V30 3675 O 353.463 1.59564 -0.698928 0
M  V30 3676 C 350.595 3.07575 -1.47005 0
M  V30 3677 H 351.788 1.61064 -2.52979 0
M  V30 3678 H 349.341 0.807541 -1.33823 0
M  V30 3679 H 350.076 3.20268 -0.509785 0
M  V30 3680 H 349.861 3.187 -2.28414 0
M  V30 3681 H 351.351 3.87055 -1.56776 0
M  V30 3682 N 351.788 1.33704 0.83433 0
M  V30 3683 C 353.065 1.16011 1.57483 0
M  V30 3684 C 353.445 -0.27176 2.09343 0
M  V30 3685 O 352.793 -1.27146 1.89858 0
M  V30 3686 C 353.003 2.20507 2.70514 0
M  V30 3687 C 354.351 2.54898 3.39577 0
M  V30 3688 O 355.375 2.19209 2.80759 0
M  V30 3689 O 354.234 3.16158 4.45765 0
M  V30 3690 H 351.328 0.448992 0.694503 0
M  V30 3691 H 353.874 1.453 0.876691 0
M  V30 3692 H 352.646 3.16667 2.29865 0
M  V30 3693 H 352.269 1.92329 3.47987 0
M  V30 3694 N 353.266 -1.05314 1.17247 0
M  V30 3695 C 354.512 -1.78557 0.961513 0
M  V30 3696 C 354.845 -1.87419 -0.508697 0
M  V30 3697 O 354.12 -1.37307 -1.37757 0
M  V30 3698 C 354.403 -3.22514 1.60176 0
M  V30 3699 C 354.256 -3.21673 3.14399 0
M  V30 3700 C 355.575 -4.20318 1.30463 0
M  V30 3701 H 352.694 -0.6482 0.350723 0
M  V30 3702 H 355.336 -1.23102 1.44727 0
M  V30 3703 H 353.486 -3.69867 1.18871 0
M  V30 3704 H 355.158 -2.82405 3.64753 0
M  V30 3705 H 353.401 -2.60048 3.47214 0
M  V30 3706 H 354.072 -4.23271 3.54324 0
M  V30 3707 H 356.548 -3.81454 1.66229 0
M  V30 3708 H 355.424 -5.19289 1.77848 0
M  V30 3709 H 355.685 -4.41526 0.22521 0
M  V30 3710 N 354.744 -0.972509 -1.24016 0
M  V30 3711 C 355.991 -0.637034 -1.92219 0
M  V30 3712 C 356.319 0.828418 -1.75976 0
M  V30 3713 O 355.574 1.61206 -1.10955 0
M  V30 3714 C 355.873 -0.963694 -3.44162 0
M  V30 3715 C 355.539 -2.41807 -3.80579 0
M  V30 3716 C 354.201 -2.81556 -3.9023 0
M  V30 3717 C 356.553 -3.36172 -3.98293 0
M  V30 3718 C 353.881 -4.14702 -4.15017 0
M  V30 3719 C 356.233 -4.68952 -4.24578 0
M  V30 3720 C 354.897 -5.08472 -4.32449 0
M  V30 3721 H 354.167 -0.233107 -0.703379 0
M  V30 3722 H 356.814 -1.2249 -1.47202 0
M  V30 3723 H 355.119 -0.29365 -3.90698 0
M  V30 3724 H 356.816 -0.682449 -3.9515 0
M  V30 3725 H 353.406 -2.09988 -3.73635 0
M  V30 3726 H 357.59 -3.06644 -3.90234 0
M  V30 3727 H 352.846 -4.4494 -4.19331 0
M  V30 3728 H 357.02 -5.42037 -4.37229 0
M  V30 3729 H 354.647 -6.11665 -4.51409 0
M  V30 3730 N 356.222 1.38976 -0.743202 0
M  V30 3731 C 357.185 2.28901 -0.117014 0
M  V30 3732 C 358.185 1.46698 0.658503 0
M  V30 3733 O 359.375 1.67274 0.486305 0
M  V30 3734 C 356.507 3.30309 0.84315 0
M  V30 3735 H 357.7 2.8578 -0.909373 0
M  V30 3736 H 355.253 1.47761 -0.509547 0
M  V30 3737 H 355.988 2.785 1.66157 0
M  V30 3738 H 355.773 3.91029 0.289594 0
M  V30 3739 H 357.263 3.97577 1.2776 0
M  V30 3740 N 357.7 0.491464 1.49741 0
M  V30 3741 C 358.947 -0.0564256 2.02421 0
M  V30 3742 C 359.275 -1.37872 1.37192 0
M  V30 3743 O 358.53 -1.89375 0.493508 0
M  V30 3744 C 358.829 -0.267329 3.56399 0
M  V30 3745 C 358.495 0.975775 4.40215 0
M  V30 3746 C 357.157 1.31655 4.62839 0
M  V30 3747 C 359.509 1.80251 4.89039 0
M  V30 3748 C 356.837 2.48375 5.31532 0
M  V30 3749 C 359.189 2.96116 5.59015 0
M  V30 3750 C 357.853 3.30585 5.79888 0
M  V30 3751 H 357.123 -0.0206476 0.740712 0
M  V30 3752 H 359.77 0.649686 1.80143 0
M  V30 3753 H 358.075 -1.05588 3.77304 0
M  V30 3754 H 359.772 -0.705549 3.94744 0
M  V30 3755 H 356.362 0.700315 4.2284 0
M  V30 3756 H 360.546 1.55239 4.71396 0
M  V30 3757 H 355.802 2.7533 5.45897 0
M  V30 3758 H 359.976 3.60509 5.95824 0
M  V30 3759 H 357.603 4.21132 6.32892 0
M  V30 3760 N 359.178 -1.55987 0.224894 0
M  V30 3761 C 360.426 -1.97998 -0.405099 0
M  V30 3762 C 360.747 -1.11387 -1.60056 0
M  V30 3763 O 360.017 -0.191645 -1.9496 0
M  V30 3764 H 358.597 -0.731235 -0.152658 0
M  V30 3765 H 361.259 -1.92279 0.318567 0
M  V30 3766 H 360.355 -3.03463 -0.729167 0
M  V30 3767 N 360.656 0.0484629 -1.57525 0
M  V30 3768 C 361.905 0.742065 -1.87553 0
M  V30 3769 C 362.218 1.77545 -0.820802 0
M  V30 3770 O 363.424 2.52027 -1.00967 0
M  V30 3771 C 361.88 1.37081 -3.32771 0
M  V30 3772 C 361.488 0.374786 -4.4643 0
M  V30 3773 C 363.232 2.04542 -3.71972 0
M  V30 3774 C 361.139 1.01077 -5.82698 0
M  V30 3775 H 360.069 0.280903 -0.699721 0
M  V30 3776 H 362.72 -0.00411877 -1.835 0
M  V30 3777 H 361.102 2.16605 -3.31509 0
M  V30 3778 H 362.276 -0.392331 -4.59127 0
M  V30 3779 H 360.591 -0.196653 -4.15935 0
M  V30 3780 H 363.188 2.52943 -4.71088 0
M  V30 3781 H 363.531 2.85515 -3.02964 0
M  V30 3782 H 364.064 1.31819 -3.75325 0
M  V30 3783 H 360.803 0.240878 -6.55057 0
M  V30 3784 H 360.323 1.74819 -5.73758 0
M  V30 3785 H 362.002 1.52383 -6.28799 0
M  V30 3786 N 362.134 1.5431 0.320358 0
M  V30 3787 C 363.38 1.72924 1.05949 0
M  V30 3788 C 363.713 0.503185 1.87568 0
M  V30 3789 O 362.988 -0.499839 1.87968 0
M  V30 3790 C 363.271 3.00676 1.98156 0
M  V30 3791 C 363.124 4.3354 1.19845 0
M  V30 3792 C 364.443 3.24198 2.9763 0
M  V30 3793 H 361.562 0.629195 0.383774 0
M  V30 3794 H 364.204 1.87008 0.335854 0
M  V30 3795 H 362.354 2.888 2.59859 0
M  V30 3796 H 364.026 4.57305 0.605773 0
M  V30 3797 H 362.269 4.309 0.500784 0
M  V30 3798 H 362.94 5.19156 1.87567 0
M  V30 3799 H 365.416 3.35557 2.4605 0
M  V30 3800 H 364.292 4.14938 3.59329 0
M  V30 3801 H 364.553 2.41577 3.7026 0
M  V30 3802 N 363.613 -0.582584 1.46437 0
M  V30 3803 C 364.543 -1.70187 1.59871 0
M  V30 3804 C 365.524 -1.64066 0.449042 0
M  V30 3805 O 366.709 -1.82081 0.6753 0
M  V30 3806 C 363.839 -3.08827 1.58881 0
M  V30 3807 C 362.793 -3.29779 2.72819 0
M  V30 3808 C 362.119 -4.68947 2.5689 0
M  V30 3809 C 363.419 -3.17601 4.1464 0
M  V30 3810 H 365.113 -1.592 2.53566 0
M  V30 3811 H 362.659 -0.764472 1.22032 0
M  V30 3812 H 364.612 -3.86951 1.66873 0
M  V30 3813 H 363.336 -3.20713 0.617306 0
M  V30 3814 H 361.995 -2.54054 2.64296 0
M  V30 3815 H 361.643 -4.77599 1.57823 0
M  V30 3816 H 361.343 -4.83919 3.33312 0
M  V30 3817 H 362.867 -5.4924 2.66773 0
M  V30 3818 H 364.281 -3.8557 4.24274 0
M  V30 3819 H 362.678 -3.44094 4.9165 0
M  V30 3820 H 363.748 -2.14681 4.34788 0
M  V30 3821 N 365.091 -1.34144 -0.827227 0
M  V30 3822 C 366.331 -1.27603 -1.59677 0
M  V30 3823 C 366.695 0.153035 -1.91389 0
M  V30 3824 O 367.896 0.342566 -2.66608 0
M  V30 3825 C 366.167 -2.13784 -2.86411 0
M  V30 3826 S 367.726 -2.24552 -3.76991 0
M  V30 3827 H 364.544 -0.453789 -0.547354 0
M  V30 3828 H 367.146 -1.69309 -0.977479 0
M  V30 3829 H 365.85 -3.16627 -2.61104 0
M  V30 3830 H 365.381 -1.72959 -3.5334 0
M  V30 3831 H 367.396 -1.41514 -4.75593 0
M  V30 3832 N 366.569 1.04691 -1.17803 0
M  V30 3833 C 367.479 2.16057 -0.914151 0
M  V30 3834 C 368.495 1.73589 0.119503 0
M  V30 3835 O 369.671 2.01308 -0.0609468 0
M  V30 3836 C 366.736 3.4394 -0.436603 0
M  V30 3837 C 365.797 4.00825 -1.53746 0
M  V30 3838 C 365.03 5.22604 -1.0826 0
M  V30 3839 O 365.253 5.70367 0.0612244 0
M  V30 3840 O 364.187 5.7186 -1.87775 0
M  V30 3841 H 368.013 2.41169 -1.84584 0
M  V30 3842 H 365.598 1.1453 -0.959334 0
M  V30 3843 H 367.48 4.21024 -0.178057 0
M  V30 3844 H 366.155 3.20316 0.466869 0
M  V30 3845 H 365.062 3.25158 -1.84995 0
M  V30 3846 H 366.395 4.28778 -2.41683 0
M  V30 3847 N 368.047 0.979072 1.23499 0
M  V30 3848 C 368.977 0.537606 2.27227 0
M  V30 3849 C 369.958 -0.428539 1.64613 0
M  V30 3850 O 371.143 -0.322191 1.91509 0
M  V30 3851 C 368.273 -0.162052 3.46922 0
M  V30 3852 C 367.227 0.721242 4.21879 0
M  V30 3853 C 366.553 -0.110555 5.34586 0
M  V30 3854 C 367.853 2.01141 4.82016 0
M  V30 3855 H 369.547 1.40462 2.64406 0
M  V30 3856 H 367.093 0.67684 1.27102 0
M  V30 3857 H 369.046 -0.482192 4.18632 0
M  V30 3858 H 367.77 -1.06351 3.08799 0
M  V30 3859 H 366.429 1.02482 3.51984 0
M  V30 3860 H 366.077 -1.0125 4.92704 0
M  V30 3861 H 365.777 0.477325 5.85658 0
M  V30 3862 H 367.301 -0.425107 6.09118 0
M  V30 3863 H 368.715 1.75612 5.45741 0
M  V30 3864 H 367.112 2.54695 5.43369 0
M  V30 3865 H 368.182 2.69909 4.02836 0
M  V30 3866 N 369.525 -1.3858 0.750561 0
M  V30 3867 C 370.774 -1.99424 0.302172 0
M  V30 3868 C 371.087 -1.60254 -1.12152 0
M  V30 3869 O 372.293 -2.14046 -1.67023 0
M  V30 3870 C 370.749 -3.56558 0.489307 0
M  V30 3871 C 370.357 -4.04682 1.92189 0
M  V30 3872 C 372.101 -4.24374 0.103478 0
M  V30 3873 C 370.008 -5.54446 2.05775 0
M  V30 3874 H 368.938 -0.746046 0.10923 0
M  V30 3875 H 371.589 -1.58383 0.92667 0
M  V30 3876 H 369.971 -3.95472 -0.204329 0
M  V30 3877 H 371.145 -3.77065 2.64875 0
M  V30 3878 H 369.46 -3.4958 2.26236 0
M  V30 3879 H 372.057 -5.34384 0.183787 0
M  V30 3880 H 372.4 -4.05468 -0.943481 0
M  V30 3881 H 372.933 -3.90688 0.748854 0
M  V30 3882 H 369.672 -5.78252 3.08714 0
M  V30 3883 H 369.192 -5.83816 1.37546 0
M  V30 3884 H 370.871 -6.20099 1.84626 0
M  V30 3885 N 371.003 -0.499398 -1.49478 0
M  V30 3886 C 371.966 0.268838 -2.27618 0
M  V30 3887 C 372.966 0.895383 -1.33565 0
M  V30 3888 O 374.156 0.760164 -1.56739 0
M  V30 3889 C 371.288 1.38559 -3.11471 0
M  V30 3890 H 372.481 -0.416812 -2.96989 0
M  V30 3891 H 370.034 -0.254313 -1.54217 0
M  V30 3892 H 370.769 2.10544 -2.46661 0
M  V30 3893 H 370.554 0.941797 -3.80621 0
M  V30 3894 H 372.044 1.92678 -3.70493 0
M  V30 3895 N 372.481 1.55866 -0.233164 0
M  V30 3896 C 373.897 1.59133 0.121988 0
M  V30 3897 C 374.097 1.25016 1.58029 0
M  V30 3898 O 373.153 0.990922 2.32243 0
M  V30 3899 C 374.466 2.99932 -0.214792 0
M  V30 3900 C 376.014 3.12601 -0.157971 0
M  V30 3901 C 376.489 4.55597 -0.46859 0
M  V30 3902 N 377.98 4.61305 -0.418585 0
M  V30 3903 C 378.715 5.69903 -0.63227 0
M  V30 3904 N 378.211 6.86819 -0.90835 0
M  V30 3905 N 380.004 5.59264 -0.563913 0
M  V30 3906 H 372.155 1.76315 -1.18434 0
M  V30 3907 H 374.418 0.820093 -0.475553 0
M  V30 3908 H 374.124 3.29588 -1.22739 0
M  V30 3909 H 373.998 3.74327 0.464691 0
M  V30 3910 H 376.385 2.82735 0.845283 0
M  V30 3911 H 376.466 2.40511 -0.871102 0
M  V30 3912 H 376.11 4.86182 -1.46934 0
M  V30 3913 H 376.04 5.25928 0.265865 0
M  V30 3914 H 378.531 3.77297 -0.213368 0
M  V30 3915 H 378.844 7.65507 -1.05919 0
M  V30 3916 H 377.189 6.88536 -0.945673 0
M  V30 3917 H 380.38 4.66802 -0.348372 0
M  V30 3918 H 380.553 6.43831 -0.733847 0
M  V30 3919 N 373.959 -0.0401083 1.57549 0
M  V30 3920 C 375.205 -0.734211 1.89043 0
M  V30 3921 C 375.538 -1.75591 0.829535 0
M  V30 3922 O 374.813 -1.93868 -0.156706 0
M  V30 3923 C 375.096 -1.41374 3.31188 0
M  V30 3924 C 374.949 -0.406299 4.47961 0
M  V30 3925 C 376.268 -2.35061 3.72068 0
M  V30 3926 H 373.387 -0.265447 0.687537 0
M  V30 3927 H 376.029 0.00294087 1.9 0
M  V30 3928 H 374.179 -2.04206 3.30503 0
M  V30 3929 H 375.851 0.219255 4.60779 0
M  V30 3930 H 374.094 0.275485 4.32924 0
M  V30 3931 H 374.765 -0.920022 5.44279 0
M  V30 3932 H 377.241 -1.82282 3.74049 0
M  V30 3933 H 376.117 -2.79593 4.72355 0
M  V30 3934 H 376.378 -3.21258 3.0372 0
M  V30 3935 N 375.437 -1.54477 -0.31217 0
M  V30 3936 C 376.848 -1.64344 -0.885891 0
M  V30 3937 C 377.199 -0.54485 -1.88483 0
M  V30 3938 O 376.324 0.320387 -2.14015 0
M  V30 3939 C 376.919 -2.97908 -1.61357 0
M  V30 3940 C 375.478 -3.09933 -2.13585 0
M  V30 3941 C 374.625 -2.59971 -0.964897 0
M  V30 3942 H 377.576 -1.58448 -0.0894528 0
M  V30 3943 H 377.597 -2.88706 -2.47848 0
M  V30 3944 H 377.109 -3.77845 -0.886277 0
M  V30 3945 H 375.21 -2.34694 -2.89395 0
M  V30 3946 H 375.323 -4.15916 -2.37804 0
M  V30 3947 H 373.687 -2.16147 -1.34731 0
M  V30 3948 H 374.47 -3.42376 -0.251742 0
M  V30 3949 N 376.915 0.57481 -1.46744 0
M  V30 3950 C 377.878 1.66533 -1.57478 0
M  V30 3951 C 378.878 1.54338 -0.451263 0
M  V30 3952 O 380.068 1.58814 -0.715813 0
M  V30 3953 C 377.2 3.05999 -1.50259 0
M  V30 3954 H 378.393 1.58372 -2.54673 0
M  V30 3955 H 375.946 0.793301 -1.34672 0
M  V30 3956 H 376.681 3.19709 -0.543725 0
M  V30 3957 H 376.466 3.16259 -2.31781 0
M  V30 3958 H 377.956 3.8537 -1.60872 0
M  V30 3959 N 378.394 1.34581 0.820102 0
M  V30 3960 C 379.671 1.17675 1.56244 0
M  V30 3961 C 380.051 -0.249541 2.0962 0
M  V30 3962 O 379.399 -1.25125 1.91196 0
M  V30 3963 C 379.609 2.23364 2.6816 0
M  V30 3964 C 380.957 2.58485 3.36854 0
M  V30 3965 O 381.981 2.22175 2.78418 0
M  V30 3966 O 380.84 3.20868 4.42386 0
M  V30 3967 H 377.934 0.456333 0.689702 0
M  V30 3968 H 380.48 1.46222 0.861231 0
M  V30 3969 H 379.252 3.19087 2.26493 0
M  V30 3970 H 378.875 1.96009 3.45928 0
M  V30 3971 N 379.872 -1.04064 1.18357 0
M  V30 3972 C 381.283 -1.58719 0.98312 0
M  V30 3973 C 381.634 -1.90556 -0.467193 0
M  V30 3974 O 380.759 -1.69561 -1.34454 0
M  V30 3975 C 381.354 -2.88379 1.77828 0
M  V30 3976 C 379.913 -3.3965 1.62218 0
M  V30 3977 C 379.06 -2.13235 1.77274 0
M  V30 3978 H 382.011 -0.867359 1.32901 0
M  V30 3979 H 382.032 -3.58773 1.26737 0
M  V30 3980 H 381.544 -2.65176 2.83379 0
M  V30 3981 H 379.645 -3.67866 0.592036 0
M  V30 3982 H 379.758 -4.13475 2.42023 0
M  V30 3983 H 378.122 -2.24542 1.20221 0
M  V30 3984 H 378.905 -1.92487 2.8426 0
M  V30 3985 N 381.35 -0.985608 -1.22978 0
M  V30 3986 C 382.627 -0.573599 -1.87001 0
M  V30 3987 C 383.007 0.949213 -1.88555 0
M  V30 3988 O 382.355 1.82811 -1.37086 0
M  V30 3989 C 382.565 -1.18564 -3.28243 0
M  V30 3990 C 383.913 -1.28163 -4.04796 0
M  V30 3991 O 384.937 -1.13949 -3.37482 0
M  V30 3992 O 383.796 -1.50832 -5.25273 0
M  V30 3993 H 380.89 -0.193868 -0.803955 0
M  V30 3994 H 383.436 -1.08102 -1.30813 0
M  V30 3995 H 382.208 -2.22758 -3.21706 0
M  V30 3996 H 381.831 -0.663363 -3.92027 0
M  V30 3997 N 382.828 1.3818 -0.7579 0
M  V30 3998 C 384.058 2.04004 -0.326463 0
M  V30 3999 C 384.466 1.57286 1.05156 0
M  V30 4000 O 383.809 0.743144 1.67997 0
M  V30 4001 C 383.871 3.58444 -0.275402 0
M  V30 4002 C 383.535 4.28237 -1.59569 0
M  V30 4003 C 384.532 4.53312 -2.54566 0
M  V30 4004 C 382.217 4.66341 -1.86631 0
M  V30 4005 C 384.211 5.15531 -3.74842 0
M  V30 4006 C 381.898 5.28283 -3.0718 0
M  V30 4007 C 382.896 5.52814 -4.01106 0
M  V30 4008 O 382.584 6.13465 -5.19534 0
M  V30 4009 H 382.316 0.662026 -0.136739 0
M  V30 4010 H 384.87 1.7777 -1.02893 0
M  V30 4011 H 383.1 3.83667 0.483337 0
M  V30 4012 H 384.789 4.05701 0.127099 0
M  V30 4013 H 385.555 4.24299 -2.34936 0
M  V30 4014 H 381.434 4.46591 -1.14358 0
M  V30 4015 H 384.978 5.34594 -4.48168 0
M  V30 4016 H 380.875 5.56719 -3.26702 0
M  V30 4017 H 381.643 6.31951 -5.20173 0
M  V30 4018 N 384.306 0.507319 1.49211 0
M  V30 4019 C 385.236 -0.256939 2.32082 0
M  V30 4020 C 386.217 -0.956609 1.40652 0
M  V30 4021 O 387.402 -0.946788 1.69557 0
M  V30 4022 C 384.532 -1.31802 3.21318 0
M  V30 4023 C 383.486 -0.737855 4.21592 0
M  V30 4024 C 382.812 -1.89992 4.99807 0
M  V30 4025 C 384.112 0.275325 5.21574 0
M  V30 4026 H 385.806 0.434798 2.96226 0
M  V30 4027 H 383.352 0.210546 1.42452 0
M  V30 4028 H 385.305 -1.86045 3.78107 0
M  V30 4029 H 384.029 -2.03903 2.5513 0
M  V30 4030 H 382.688 -0.217126 3.65956 0
M  V30 4031 H 382.336 -2.60877 4.30061 0
M  V30 4032 H 382.036 -1.51777 5.6766 0
M  V30 4033 H 383.56 -2.44657 5.59442 0
M  V30 4034 H 384.974 -0.179193 5.7302 0
M  V30 4035 H 383.371 0.573649 5.97352 0
M  V30 4036 H 384.441 1.18903 4.70096 0
M  V30 4037 N 385.784 -1.5574 0.241426 0
M  V30 4038 C 387.195 -1.84842 -0.262755 0
M  V30 4039 C 387.546 -1.16317 -1.58003 0
M  V30 4040 O 386.671 -0.439653 -2.11887 0
M  V30 4041 C 387.266 -3.35332 -0.483523 0
M  V30 4042 C 385.825 -3.6468 -0.931977 0
M  V30 4043 C 384.972 -2.77299 -0.0061151 0
M  V30 4044 H 387.923 -1.51761 0.464129 0
M  V30 4045 H 387.944 -3.56615 -1.32688 0
M  V30 4046 H 387.456 -3.85178 0.47537 0
M  V30 4047 H 385.557 -3.20307 -1.90353 0
M  V30 4048 H 385.67 -4.72498 -0.792628 0
M  V30 4049 H 384.034 -2.49408 -0.516503 0
M  V30 4050 H 384.817 -3.2995 0.948052 0
M  V30 4051 N 387.262 0.0317525 -1.57568 0
M  V30 4052 C 388.678 0.38735 -1.54828 0
M  V30 4053 C 388.878 1.7677 -0.967187 0
M  V30 4054 O 387.934 2.45581 -0.587063 0
M  V30 4055 C 389.247 0.291667 -2.99282 0
M  V30 4056 C 390.795 0.368946 -3.10818 0
M  V30 4057 C 391.27 0.302741 -4.56998 0
M  V30 4058 N 392.761 0.361617 -4.61786 0
M  V30 4059 C 393.496 0.333238 -5.72431 0
M  V30 4060 N 392.992 0.257308 -6.92322 0
M  V30 4061 N 394.785 0.382769 -5.60795 0
M  V30 4062 H 386.936 -0.871609 -1.93692 0
M  V30 4063 H 389.199 -0.331161 -0.888277 0
M  V30 4064 H 388.905 -0.656794 -3.45513 0
M  V30 4065 H 388.779 1.08638 -3.61217 0
M  V30 4066 H 391.166 1.30784 -2.64536 0
M  V30 4067 H 391.247 -0.455066 -2.5172 0
M  V30 4068 H 390.891 -0.632473 -5.03947 0
M  V30 4069 H 390.821 1.14482 -5.14005 0
M  V30 4070 H 393.312 0.422923 -3.75526 0
M  V30 4071 H 393.625 0.24068 -7.72425 0
M  V30 4072 H 391.97 0.223396 -6.94641 0
M  V30 4073 H 395.161 0.44006 -4.66027 0
M  V30 4074 H 395.334 0.357184 -6.47015 0
M  V30 4075 N 388.74 1.54641 0.303973 0
M  V30 4076 C 389.968 1.77768 1.05858 0
M  V30 4077 C 390.383 0.535722 1.8104 0
M  V30 4078 O 389.74 -0.494337 1.75677 0
M  V30 4079 C 389.791 2.9834 2.04146 0
M  V30 4080 O 389.512 4.17736 1.32015 0
M  V30 4081 C 391.013 3.33832 2.91669 0
M  V30 4082 H 388.233 0.592961 0.314067 0
M  V30 4083 H 390.777 2.01583 0.344149 0
M  V30 4084 H 388.932 2.76742 2.71096 0
M  V30 4085 H 389.346 4.85693 1.97998 0
M  V30 4086 H 390.82 4.21448 3.56491 0
M  V30 4087 H 391.297 2.51857 3.59812 0
M  V30 4088 H 391.903 3.57579 2.30254 0
M  V30 4089 N 390.218 -0.567019 1.47046 0
M  V30 4090 C 391.128 -1.70247 1.6141 0
M  V30 4091 C 392.144 -1.66746 0.497157 0
M  V30 4092 O 393.32 -1.86371 0.763389 0
M  V30 4093 C 390.385 -3.06756 1.61561 0
M  V30 4094 C 389.446 -3.21399 2.84607 0
M  V30 4095 C 388.679 -4.51396 2.84741 0
M  V30 4096 O 388.902 -5.36255 1.94388 0
M  V30 4097 O 387.836 -4.69621 3.76483 0
M  V30 4098 H 391.662 -1.61073 2.57467 0
M  V30 4099 H 389.247 -0.735894 1.30019 0
M  V30 4100 H 391.129 -3.8801 1.64396 0
M  V30 4101 H 389.804 -3.16333 0.686684 0
M  V30 4102 H 388.711 -2.39579 2.8732 0
M  V30 4103 H 390.044 -3.16721 3.76761 0
M  V30 4104 N 391.696 -1.35014 -0.812953 0
M  V30 4105 C 392.973 -1.18502 -1.55617 0
M  V30 4106 C 393.353 0.238421 -2.09749 0
M  V30 4107 O 392.701 1.2411 -1.91857 0
M  V30 4108 C 392.911 -2.24783 -2.66971 0
M  V30 4109 C 394.259 -2.60268 -3.35478 0
M  V30 4110 O 395.283 -2.23648 -2.77236 0
M  V30 4111 O 394.142 -3.2321 -4.40678 0
M  V30 4112 H 391.236 -0.459984 -0.687272 0
M  V30 4113 H 393.782 -1.46677 -0.853464 0
M  V30 4114 H 392.554 -3.20284 -2.24798 0
M  V30 4115 H 392.177 -1.97841 -3.44884 0
M  V30 4116 N 393.175 1.03435 -1.18907 0
M  V30 4117 C 394.422 1.76743 -0.988334 0
M  V30 4118 C 394.75 1.88447 0.481441 0
M  V30 4119 O 394.005 1.39383 1.37371 0
M  V30 4120 C 394.304 3.19792 -1.59586 0
M  V30 4121 C 393.97 3.28108 -3.09283 0
M  V30 4122 C 392.632 3.30084 -3.5014 0
M  V30 4123 C 394.984 3.27696 -4.05296 0
M  V30 4124 C 392.312 3.29299 -4.85571 0
M  V30 4125 C 394.664 3.28451 -5.4065 0
M  V30 4126 C 393.328 3.28723 -5.80946 0
M  V30 4127 H 392.598 0.64675 -0.361657 0
M  V30 4128 H 395.245 1.21442 -1.48068 0
M  V30 4129 H 393.55 3.78136 -1.02568 0
M  V30 4130 H 395.247 3.75171 -1.41589 0
M  V30 4131 H 391.837 3.27294 -2.76725 0
M  V30 4132 H 396.021 3.25354 -3.74778 0
M  V30 4133 H 391.277 3.2783 -5.16079 0
M  V30 4134 H 395.451 3.27082 -6.14809 0
M  V30 4135 H 393.078 3.27868 -6.85862 0
M  V30 4136 N 394.653 0.992116 1.22453 0
M  V30 4137 C 395.901 0.666215 1.90804 0
M  V30 4138 C 396.222 -0.804152 1.77647 0
M  V30 4139 O 395.492 -1.57629 1.16318 0
M  V30 4140 H 394.072 0.243423 0.706225 0
M  V30 4141 H 396.734 1.25845 1.48825 0
M  V30 4142 H 395.83 0.928069 2.97982 0
M  V30 4143 N 396.131 -1.37776 0.765217 0
M  V30 4144 C 397.061 -2.32945 0.160953 0
M  V30 4145 C 398.042 -1.55454 -0.690516 0
M  V30 4146 O 399.227 -1.83721 -0.629318 0
M  V30 4147 C 396.357 -3.39669 -0.724031 0
M  V30 4148 C 395.311 -4.27992 0.0256173 0
M  V30 4149 C 394.637 -5.25673 -0.978383 0
M  V30 4150 C 395.937 -5.08309 1.20082 0
M  V30 4151 H 397.631 -2.83728 0.955969 0
M  V30 4152 H 395.177 -1.36416 0.461149 0
M  V30 4153 H 397.13 -4.05219 -1.15652 0
M  V30 4154 H 395.854 -2.87396 -1.5515 0
M  V30 4155 H 394.513 -3.63964 0.438812 0
M  V30 4156 H 394.161 -4.69682 -1.80022 0
M  V30 4157 H 393.861 -5.85625 -0.481378 0
M  V30 4158 H 395.385 -5.94098 -1.40995 0
M  V30 4159 H 396.799 -5.67034 0.845307 0
M  V30 4160 H 395.196 -5.77554 1.62947 0
M  V30 4161 H 396.266 -4.41365 2.00811 0
M  V30 4162 N 397.609 -0.515225 -1.4894 0
M  V30 4163 C 398.886 0.0879088 -1.95402 0
M  V30 4164 C 399.266 1.52745 -1.45712 0
M  V30 4165 O 398.614 2.18238 -0.677093 0
M  V30 4166 C 398.824 -0.0141055 -3.48997 0
M  V30 4167 C 400.172 0.152646 -4.24326 0
M  V30 4168 O 401.196 0.0604025 -3.56149 0
M  V30 4169 O 400.055 0.34384 -5.45417 0
M  V30 4170 H 397.149 0.0874636 -0.822362 0
M  V30 4171 H 399.695 -0.578775 -1.59525 0
M  V30 4172 H 398.467 -1.01745 -3.77841 0
M  V30 4173 H 398.09 0.692091 -3.9153 0
M  V30 4174 N 399.087 1.5561 -0.249682 0
M  V30 4175 C 400.333 1.99306 0.374841 0
M  V30 4176 C 400.666 1.13767 1.57387 0
M  V30 4177 O 399.941 0.201711 1.93451 0
M  V30 4178 C 400.224 3.51507 0.781986 0
M  V30 4179 C 400.077 4.4781 -0.422629 0
M  V30 4180 C 401.396 4.08884 1.62793 0
M  V30 4181 H 398.515 0.724572 0.134773 0
M  V30 4182 H 401.157 1.86719 -0.351549 0
M  V30 4183 H 399.307 3.62363 1.4009 0
M  V30 4184 H 400.979 4.48931 -1.06108 0
M  V30 4185 H 399.222 4.20518 -1.06524 0
M  V30 4186 H 399.893 5.51919 -0.0943766 0
M  V30 4187 H 402.369 4.01147 1.10547 0
M  V30 4188 H 401.245 5.1564 1.88166 0
M  V30 4189 H 401.506 3.57515 2.60068 0
M  V30 4190 N 400.565 -0.0233959 1.57583 0
M  V30 4191 C 401.976 -0.56927 1.77809 0
M  V30 4192 C 402.327 -1.75284 0.881472 0
M  V30 4193 O 401.452 -2.1626 0.0777805 0
M  V30 4194 C 402.047 -1.03949 3.22459 0
M  V30 4195 C 400.606 -1.53084 3.43864 0
M  V30 4196 C 399.753 -0.471454 2.73263 0
M  V30 4197 H 402.704 0.202825 1.57399 0
M  V30 4198 H 402.725 -1.90661 3.29285 0
M  V30 4199 H 402.237 -0.177865 3.87692 0
M  V30 4200 H 400.338 -2.41414 2.83814 0
M  V30 4201 H 400.451 -1.57443 4.52491 0
M  V30 4202 H 398.815 -0.927788 2.37201 0
M  V30 4203 H 399.598 0.380808 3.41181 0
M  V30 4204 N 402.043 -1.548 -0.295768 0
M  V30 4205 C 403.006 -1.85363 -1.34808 0
M  V30 4206 C 404.006 -0.726817 -1.43436 0
M  V30 4207 O 405.196 -0.995088 -1.42981 0
M  V30 4208 C 402.328 -2.03859 -2.73229 0
M  V30 4209 H 403.521 -2.7941 -1.08949 0
M  V30 4210 H 401.074 -1.46942 -0.532702 0
M  V30 4211 H 401.809 -1.12117 -3.04303 0
M  V30 4212 H 401.594 -2.8588 -2.68356 0
M  V30 4213 H 403.084 -2.28857 -3.49305 0
M  V30 4214 N 403.521 0.559213 -1.47345 0
M  V30 4215 C 404.768 1.31648 -1.53867 0
M  V30 4216 C 405.096 1.93468 -0.200104 0
M  V30 4217 O 404.351 1.78295 0.806799 0
M  V30 4218 C 404.65 2.44853 -2.6035 0
M  V30 4219 C 404.316 2.00876 -4.03683 0
M  V30 4220 C 402.978 1.88599 -4.42701 0
M  V30 4221 C 405.33 1.67279 -4.93626 0
M  V30 4222 C 402.658 1.41017 -5.69501 0
M  V30 4223 C 405.01 1.21169 -6.20887 0
M  V30 4224 C 403.674 1.07487 -6.58789 0
M  V30 4225 H 402.944 0.481734 -0.56304 0
M  V30 4226 H 405.591 0.627301 -1.80934 0
M  V30 4227 H 403.896 3.19318 -2.27032 0
M  V30 4228 H 405.593 3.03039 -2.62619 0
M  V30 4229 H 402.183 2.11374 -3.72853 0
M  V30 4230 H 406.367 1.75638 -4.64182 0
M  V30 4231 H 401.623 1.29086 -5.97618 0
M  V30 4232 H 405.797 0.942345 -6.89995 0
M  V30 4233 H 403.424 0.703946 -7.56934 0
M  V30 4234 N 404.999 1.35443 0.805782 0
M  V30 4235 C 406.415 1.15499 1.10146 0
M  V30 4236 C 406.615 -0.0319975 2.01475 0
M  V30 4237 O 405.671 -0.70236 2.42535 0
M  V30 4238 C 406.984 2.45833 1.73166 0
M  V30 4239 C 408.532 2.52047 1.85583 0
M  V30 4240 C 409.007 3.82427 2.52019 0
M  V30 4241 N 410.498 3.83682 2.59504 0
M  V30 4242 C 411.233 4.81294 3.11679 0
M  V30 4243 N 410.729 5.89294 3.64287 0
M  V30 4244 N 412.522 4.6873 3.1024 0
M  V30 4245 H 404.673 2.11469 0.198678 0
M  V30 4246 H 406.936 0.93594 0.150731 0
M  V30 4247 H 406.642 3.32874 1.13526 0
M  V30 4248 H 406.516 2.6044 2.72857 0
M  V30 4249 H 408.903 1.65435 2.44367 0
M  V30 4250 H 408.984 2.41354 0.847455 0
M  V30 4251 H 408.628 4.69437 1.93885 0
M  V30 4252 H 408.558 3.90409 3.53395 0
M  V30 4253 H 411.049 3.05648 2.22234 0
M  V30 4254 H 411.362 6.59768 4.02401 0
M  V30 4255 H 409.707 5.92985 3.62483 0
M  V30 4256 H 412.898 3.83496 2.68419 0
M  V30 4257 H 413.071 5.44965 3.50596 0
M  V30 4258 N 406.477 -1.02803 1.19454 0
M  V30 4259 C 407.705 -1.79841 1.02297 0
M  V30 4260 C 408.12 -1.83879 -0.428259 0
M  V30 4261 O 407.477 -1.28345 -1.29745 0
M  V30 4262 C 407.528 -3.24852 1.58598 0
M  V30 4263 O 407.249 -3.21097 2.98041 0
M  V30 4264 C 408.75 -4.18485 1.46236 0
M  V30 4265 H 405.97 -0.565936 0.360496 0
M  V30 4266 H 408.514 -1.2948 1.58288 0
M  V30 4267 H 406.669 -3.72401 1.06753 0
M  V30 4268 H 407.083 -4.12033 3.24545 0
M  V30 4269 H 408.557 -5.18121 1.90407 0
M  V30 4270 H 409.034 -4.37254 0.41301 0
M  V30 4271 H 409.64 -3.76811 1.97215 0
M  V30 4272 N 407.956 -0.998596 -1.21925 0
M  V30 4273 C 408.886 -0.573688 -2.26343 0
M  V30 4274 C 409.867 0.402296 -1.65274 0
M  V30 4275 O 411.052 0.291683 -1.91997 0
M  V30 4276 C 408.182 0.106839 -3.47136 0
M  V30 4277 C 407.136 -0.788269 -4.20678 0
M  V30 4278 C 406.462 0.0254927 -5.34694 0
M  V30 4279 C 407.762 -2.08784 -4.78755 0
M  V30 4280 H 409.456 -1.44651 -2.62138 0
M  V30 4281 H 407.002 -0.696975 -1.26009 0
M  V30 4282 H 408.955 0.415531 -4.19346 0
M  V30 4283 H 407.679 1.01424 -3.10452 0
M  V30 4284 H 406.338 -1.08069 -3.50309 0
M  V30 4285 H 405.986 0.933989 -4.94253 0
M  V30 4286 H 405.686 -0.570437 -5.84825 0
M  V30 4287 H 407.21 0.328147 -6.09718 0
M  V30 4288 H 408.624 -1.84272 -5.42878 0
M  V30 4289 H 407.021 -2.63307 -5.39249 0
M  V30 4290 H 408.091 -2.76284 -3.98491 0
M  V30 4291 N 409.434 1.37368 -0.772513 0
M  V30 4292 C 410.68 1.99969 -0.337681 0
M  V30 4293 C 411.013 1.61184 1.08321 0
M  V30 4294 O 410.288 0.858395 1.74533 0
M  V30 4295 C 410.571 3.56858 -0.482121 0
M  V30 4296 C 410.424 4.0555 -1.94549 0
M  V30 4297 C 411.743 4.39955 0.113143 0
M  V30 4298 H 408.862 0.726464 -0.124171 0
M  V30 4299 H 411.504 1.63034 -0.975699 0
M  V30 4300 H 409.654 3.88452 0.0610361 0
M  V30 4301 H 411.326 3.84518 -2.54841 0
M  V30 4302 H 409.569 3.57715 -2.45403 0
M  V30 4303 H 410.24 5.14587 -1.9976 0
M  V30 4304 H 412.716 4.14623 -0.35031 0
M  V30 4305 H 411.592 5.48897 -0.0180514 0
M  V30 4306 H 411.853 4.25403 1.20354 0
M  V30 4307 N 410.912 0.523116 1.48665 0
M  V30 4308 C 412.16 -0.0134497 2.02096 0
M  V30 4309 C 412.481 -1.35418 1.40311 0
M  V30 4310 O 411.751 -1.87543 0.566074 0
M  V30 4311 H 410.331 -0.00795915 0.746958 0
M  V30 4312 H 412.993 0.685388 1.82451 0
M  V30 4313 H 412.089 -0.126849 3.11842 0
M  V30 4314 N 412.39 -1.55475 0.257931 0
M  V30 4315 C 413.667 -1.91155 -0.414629 0
M  V30 4316 C 414.047 -1.18008 -1.75035 0
M  V30 4317 O 413.395 -0.301193 -2.26506 0
M  V30 4318 C 413.605 -3.44283 -0.571859 0
M  V30 4319 C 414.953 -4.15744 -0.862678 0
M  V30 4320 O 415.977 -3.50083 -0.657314 0
M  V30 4321 O 414.836 -5.31909 -1.2544 0
M  V30 4322 H 411.93 -0.796016 -0.22425 0
M  V30 4323 H 414.476 -1.66976 0.302814 0
M  V30 4324 H 413.248 -3.89558 0.368844 0
M  V30 4325 H 412.871 -3.7436 -1.33943 0
M  V30 4326 N 413.868 0.0150385 -1.57593 0
M  V30 4327 C 415.145 0.7392 -1.81094 0
M  V30 4328 C 415.525 1.92817 -0.859344 0
M  V30 4329 O 414.873 2.28301 0.095362 0
M  V30 4330 C 415.083 1.15907 -3.29191 0
M  V30 4331 C 416.431 1.56918 -3.9454 0
M  V30 4332 O 417.455 1.25328 -3.33424 0
M  V30 4333 O 416.314 2.15604 -5.02173 0
M  V30 4334 H 413.408 0.358631 -0.745193 0
M  V30 4335 H 415.954 -0.00926156 -1.69697 0
M  V30 4336 H 414.726 0.310921 -3.90063 0
M  V30 4337 H 414.349 1.96711 -3.45529 0
M  V30 4338 N 415.346 1.54954 0.287554 0
M  V30 4339 C 416.586 1.76617 1.02887 0
M  V30 4340 C 416.95 0.547759 1.84021 0
M  V30 4341 O 418.151 0.642365 2.61012 0
M  V30 4342 C 416.422 3.02717 1.89993 0
M  V30 4343 S 417.981 3.45438 2.70588 0
M  V30 4344 H 414.799 0.6207 0.346775 0
M  V30 4345 H 417.401 1.93172 0.30082 0
M  V30 4346 H 416.105 3.89503 1.29287 0
M  V30 4347 H 415.636 2.88787 2.67144 0
M  V30 4348 H 417.651 3.03566 3.92508 0
M  V30 4349 N 416.824 -0.551391 1.4764 0
M  V30 4350 C 418.235 -1.13349 1.48354 0
M  V30 4351 C 418.586 -1.94709 0.241432 0
M  V30 4352 O 417.711 -2.06306 -0.653205 0
M  V30 4353 C 418.306 -2.0623 2.68802 0
M  V30 4354 C 416.865 -2.597 2.72457 0
M  V30 4355 C 416.012 -1.36201 2.41546 0
M  V30 4356 H 418.963 -0.337698 1.55065 0
M  V30 4357 H 418.984 -2.90196 2.46103 0
M  V30 4358 H 418.496 -1.46987 3.59188 0
M  V30 4359 H 416.597 -3.22724 1.86225 0
M  V30 4360 H 416.71 -3.00296 3.73308 0
M  V30 4361 H 415.074 -1.67068 1.9225 0
M  V30 4362 H 415.857 -0.787425 3.34147 0
M  V30 4363 N 418.302 -1.35869 -0.798587 0
M  V30 4364 C 419.232 -1.32118 -1.92528 0
M  V30 4365 C 420.213 -0.194209 -1.68988 0
M  V30 4366 O 421.398 -0.390426 -1.90235 0
M  V30 4367 C 418.528 -1.10047 -3.29404 0
M  V30 4368 C 417.482 -2.19471 -3.67446 0
M  V30 4369 C 416.808 -1.82555 -5.02571 0
M  V30 4370 C 418.108 -3.61495 -3.76987 0
M  V30 4371 H 419.802 -2.26394 -1.95924 0
M  V30 4372 H 417.348 -1.08981 -0.94123 0
M  V30 4373 H 419.301 -1.06061 -4.07835 0
M  V30 4374 H 418.025 -0.122195 -3.26371 0
M  V30 4375 H 416.684 -2.22568 -2.91306 0
M  V30 4376 H 416.332 -0.833249 -4.9605 0
M  V30 4377 H 416.032 -2.5581 -5.28995 0
M  V30 4378 H 417.556 -1.80108 -5.83432 0
M  V30 4379 H 418.97 -3.60676 -4.4563 0
M  V30 4380 H 417.367 -4.33577 -4.14887 0
M  V30 4381 H 418.437 -3.97065 -2.78329 0
M  V30 4382 N 419.78 1.02168 -1.19998 0
M  V30 4383 C 421.191 1.57135 -1.00825 0
M  V30 4384 C 421.542 1.91276 0.436818 0
M  V30 4385 O 420.667 1.71679 1.3174 0
M  V30 4386 C 421.262 2.85514 -1.82393 0
M  V30 4387 C 419.821 3.37027 -1.67601 0
M  V30 4388 C 418.968 2.10388 -1.80644 0
M  V30 4389 H 421.919 0.846106 -1.34264 0
M  V30 4390 H 421.94 3.56711 -1.32429 0
M  V30 4391 H 421.452 2.60634 -2.87561 0
M  V30 4392 H 419.553 3.66878 -0.650485 0
M  V30 4393 H 419.666 4.09572 -2.4857 0
M  V30 4394 H 418.03 2.22601 -1.23778 0
M  V30 4395 H 418.813 1.8794 -2.87286 0
M  V30 4396 N 421.258 1.00505 1.21394 0
M  V30 4397 C 422.505 0.687774 1.90462 0
M  V30 4398 C 422.833 -0.78147 1.7811 0
M  V30 4399 O 422.088 -1.58208 1.1519 0
M  V30 4400 C 422.387 1.0546 3.41486 0
M  V30 4401 C 422.053 2.51812 3.74034 0
M  V30 4402 C 420.715 2.91804 3.82628 0
M  V30 4403 C 423.067 3.46614 3.8924 0
M  V30 4404 C 420.395 4.2556 4.03876 0
M  V30 4405 C 422.747 4.80044 4.11995 0
M  V30 4406 C 421.411 5.19759 4.18816 0
M  V30 4407 H 420.681 0.251674 0.696951 0
M  V30 4408 H 423.328 1.26349 1.43903 0
M  V30 4409 H 421.633 0.397133 3.89782 0
M  V30 4410 H 423.33 0.786976 3.93202 0
M  V30 4411 H 419.92 2.1982 3.67936 0
M  V30 4412 H 424.104 3.16883 3.81967 0
M  V30 4413 H 419.36 4.55901 4.07387 0
M  V30 4414 H 423.534 5.53439 4.22704 0
M  V30 4415 H 421.161 6.23418 4.35033 0
M  V30 4416 N 422.737 -1.36956 0.779787 0
M  V30 4417 C 423.667 -2.32761 0.185651 0
M  V30 4418 C 424.648 -1.56177 -0.673989 0
M  V30 4419 O 425.833 -1.84378 -0.609797 0
M  V30 4420 C 422.963 -3.40418 -0.687964 0
M  V30 4421 C 421.917 -4.27941 0.0710102 0
M  V30 4422 C 421.243 -5.26681 -0.922573 0
M  V30 4423 C 422.543 -5.07006 1.25467 0
M  V30 4424 H 424.237 -2.82698 0.986008 0
M  V30 4425 H 421.783 -1.3592 0.475592 0
M  V30 4426 H 423.736 -4.06423 -1.11348 0
M  V30 4427 H 422.46 -2.89025 -1.52093 0
M  V30 4428 H 421.119 -3.63478 0.47739 0
M  V30 4429 H 420.767 -4.71565 -1.7503 0
M  V30 4430 H 420.467 -5.86103 -0.419237 0
M  V30 4431 H 421.991 -5.9556 -1.34686 0
M  V30 4432 H 423.405 -5.66105 0.905401 0
M  V30 4433 H 421.802 -5.75793 1.69063 0
M  V30 4434 H 422.872 -4.3921 2.05481 0
M  V30 4435 N 424.215 -0.530993 -1.48385 0
M  V30 4436 C 425.145 0.219985 -2.32461 0
M  V30 4437 C 426.126 0.934111 -1.42156 0
M  V30 4438 O 427.311 0.919694 -1.71042 0
M  V30 4439 C 424.441 1.26674 -3.23375 0
M  V30 4440 C 423.395 0.67069 -4.22712 0
M  V30 4441 C 422.721 1.82017 -5.02766 0
M  V30 4442 C 424.021 -0.358268 -5.2107 0
M  V30 4443 H 425.715 -0.48187 -2.95497 0
M  V30 4444 H 423.261 -0.233182 -1.42099 0
M  V30 4445 H 425.214 1.80006 -3.81019 0
M  V30 4446 H 423.938 1.99818 -2.58341 0
M  V30 4447 H 422.597 0.158878 -3.66256 0
M  V30 4448 H 422.245 2.54002 -4.34157 0
M  V30 4449 H 421.945 1.42727 -5.70003 0
M  V30 4450 H 423.469 2.35725 -5.63264 0
M  V30 4451 H 424.883 0.0880081 -5.73232 0
M  V30 4452 H 423.28 -0.66861 -5.96364 0
M  V30 4453 H 424.35 -1.26367 -4.68145 0
M  V30 4454 N 425.693 1.55336 -0.266172 0
M  V30 4455 C 426.623 2.25146 0.618981 0
M  V30 4456 C 427.604 1.23845 1.16604 0
M  V30 4457 O 428.789 1.52544 1.20183 0
M  V30 4458 C 425.919 2.96572 1.80728 0
M  V30 4459 C 424.873 4.04726 1.39215 0
M  V30 4460 C 424.199 4.63678 2.66283 0
M  V30 4461 C 425.499 5.19407 0.548942 0
M  V30 4462 H 427.193 2.99377 0.0368116 0
M  V30 4463 H 424.739 1.43991 0.0162651 0
M  V30 4464 H 426.692 3.44116 2.43232 0
M  V30 4465 H 425.416 2.19861 2.41514 0
M  V30 4466 H 424.075 3.57979 0.790351 0
M  V30 4467 H 423.723 3.83646 3.25308 0
M  V30 4468 H 423.423 5.367 2.39222 0
M  V30 4469 H 424.947 5.13967 3.29651 0
M  V30 4470 H 426.361 5.63059 1.07876 0
M  V30 4471 H 424.758 5.98936 0.373593 0
M  V30 4472 H 425.828 4.8295 -0.434394 0
M  V30 4473 N 427.171 -0.0066808 1.57599 0
M  V30 4474 C 428.134 -0.985035 2.06953 0
M  V30 4475 C 429.134 -1.27663 0.977687 0
M  V30 4476 O 430.324 -1.22293 1.24057 0
M  V30 4477 C 427.456 -2.3118 2.50536 0
M  V30 4478 H 428.649 -0.558255 2.94658 0
M  V30 4479 H 426.202 -0.254011 1.54222 0
M  V30 4480 H 426.937 -2.78561 1.66054 0
M  V30 4481 H 426.722 -2.11338 3.3027 0
M  V30 4482 H 428.212 -3.01377 2.8907 0
M  V30 4483 N 428.649 -1.55105 -0.279332 0
M  V30 4484 C 429.898 -1.74618 -1.00952 0
M  V30 4485 C 430.211 -0.551096 -1.87676 0
M  V30 4486 O 431.417 -0.628507 -2.64125 0
M  V30 4487 C 429.873 -3.09025 -1.84476 0
M  V30 4488 C 429.481 -4.36081 -1.0265 0
M  V30 4489 C 431.225 -3.37891 -2.56963 0
M  V30 4490 C 429.132 -5.6153 -1.85576 0
M  V30 4491 H 428.062 -0.650868 -0.38064 0
M  V30 4492 H 430.713 -1.81569 -0.265475 0
M  V30 4493 H 429.095 -2.96095 -2.62952 0
M  V30 4494 H 430.269 -4.59909 -0.286354 0
M  V30 4495 H 428.584 -4.14312 -0.416464 0
M  V30 4496 H 431.181 -4.28822 -3.19399 0
M  V30 4497 H 431.524 -2.57737 -3.26921 0
M  V30 4498 H 432.057 -3.5189 -1.85522 0
M  V30 4499 H 428.796 -6.44413 -1.2005 0
M  V30 4500 H 428.316 -5.41854 -2.57204 0
M  V30 4501 H 429.995 -5.99594 -2.43096 0
M  V30 4502 N 430.127 0.543554 -1.4793 0
M  V30 4503 C 431.077 1.64527 -1.57844 0
M  V30 4504 C 432.061 1.54869 -0.436408 0
M  V30 4505 O 433.253 1.63119 -0.687101 0
M  V30 4506 C 430.382 3.03281 -1.6086 0
M  V30 4507 C 429.468 3.18093 -2.80495 0
M  V30 4508 N 429.859 3.02923 -4.05057 0
M  V30 4509 C 428.157 3.49121 -2.77543 0
M  V30 4510 C 428.858 3.20791 -4.85251 0
M  V30 4511 N 427.834 3.47749 -4.17818 0
M  V30 4512 H 431.636 1.51388 -2.5191 0
M  V30 4513 H 429.15 0.748671 -1.44113 0
M  V30 4514 H 431.147 3.82403 -1.66054 0
M  V30 4515 H 429.807 3.17521 -0.678996 0
M  V30 4516 H 430.818 2.79966 -4.35705 0
M  V30 4517 H 427.495 3.69804 -1.93781 0
M  V30 4518 H 428.885 3.13915 -5.9406 0
M  V30 4519 N 431.605 1.3629 0.791371 0
M  V30 4520 C 432.845 1.31792 1.56238 0
M  V30 4521 C 433.209 -0.102237 1.91728 0
M  V30 4522 O 434.41 -0.271759 2.67423 0
M  V30 4523 C 432.681 2.21303 2.80642 0
M  V30 4524 S 434.24 2.34468 3.70904 0
M  V30 4525 H 431.058 0.468141 0.535131 0
M  V30 4526 H 433.66 1.71841 0.932246 0
M  V30 4527 H 432.364 3.23439 2.52617 0
M  V30 4528 H 431.895 1.82266 3.4863 0
M  V30 4529 H 433.91 1.54074 4.71673 0
M  V30 4530 N 433.083 -1.0153 1.20538 0
M  V30 4531 C 434.323 -1.76689 1.02763 0
M  V30 4532 C 434.687 -1.87065 -0.432513 0
M  V30 4533 O 435.888 -2.58684 -0.730481 0
M  V30 4534 C 434.159 -3.14707 1.69393 0
M  V30 4535 S 435.718 -4.05886 1.66738 0
M  V30 4536 H 432.536 -0.608076 0.368463 0
M  V30 4537 H 435.138 -1.21558 1.53114 0
M  V30 4538 H 433.842 -3.04782 2.74838 0
M  V30 4539 H 433.373 -3.74913 1.19179 0
M  V30 4540 H 435.388 -4.91221 0.70117 0
M  V30 4541 N 434.561 -1.01147 -1.20859 0
M  V30 4542 C 435.509 -0.57059 -2.25493 0
M  V30 4543 C 436.503 0.388109 -1.64894 0
M  V30 4544 O 437.709 0.258592 -1.78133 0
M  V30 4545 H 434.084 -0.166191 -0.733406 0
M  V30 4546 H 436.055 -1.46411 -2.60012 0
M  V30 4547 C 434.804 0.0805241 -3.47607 0
M  V30 4548 H 434.127 -0.648156 -3.94511 0
M  V30 4549 H 435.567 0.352197 -4.22535 0
M  V30 4550 C 434.026 1.32175 -3.09889 0
M  V30 4551 O 434.556 2.41553 -3.20959 0
M  V30 4552 N 432.762 1.20392 -2.64488 0
M  V30 4553 H 432.309 0.313905 -2.5568 0
M  V30 4554 H 432.267 2.03541 -2.39621 0
M  V30 4555 N 436.039 1.36541 -0.78704 0
M  V30 4556 C 436.969 2.32659 -0.197992 0
M  V30 4557 C 437.95 1.56533 0.665697 0
M  V30 4558 O 439.135 1.84698 0.60001 0
M  V30 4559 C 436.265 3.40778 0.669901 0
M  V30 4560 C 435.219 4.27897 -0.0937039 0
M  V30 4561 C 434.545 5.27163 0.894629 0
M  V30 4562 C 435.845 5.06334 -1.28154 0
M  V30 4563 H 437.539 2.82171 -1.00099 0
M  V30 4564 H 435.085 1.35665 -0.482793 0
M  V30 4565 H 437.038 4.07008 1.09191 0
M  V30 4566 H 435.762 2.89827 1.50558 0
M  V30 4567 H 434.421 3.6322 -0.49666 0
M  V30 4568 H 434.069 4.72486 1.72527 0
M  V30 4569 H 433.769 5.86317 0.388149 0
M  V30 4570 H 435.293 5.96266 1.31525 0
M  V30 4571 H 436.707 5.65617 -0.93541 0
M  V30 4572 H 435.104 5.74888 -1.72115 0
M  V30 4573 H 436.174 4.38114 -2.07807 0
M  V30 4574 N 437.518 0.538854 1.48102 0
M  V30 4575 C 438.428 -0.222648 2.33541 0
M  V30 4576 C 439.444 -0.930225 1.47047 0
M  V30 4577 O 440.62 -0.903211 1.80011 0
M  V30 4578 C 437.685 -1.25064 3.23357 0
M  V30 4579 C 436.746 -0.552469 4.2573 0
M  V30 4580 C 435.979 -1.53149 5.11254 0
M  V30 4581 O 436.202 -2.76487 4.9891 0
M  V30 4582 O 435.136 -1.06602 5.92385 0
M  V30 4583 H 438.962 0.477707 2.99919 0
M  V30 4584 H 436.547 0.299669 1.46364 0
M  V30 4585 H 438.429 -1.8445 3.78888 0
M  V30 4586 H 437.104 -1.93325 2.59629 0
M  V30 4587 H 436.011 0.082114 3.7401 0
M  V30 4588 H 437.344 0.0883526 4.92121 0
M  V30 4589 N 438.996 -1.55193 0.274407 0
M  V30 4590 C 440.407 -1.85358 -0.223488 0
M  V30 4591 C 440.758 -1.19642 -1.555 0
M  V30 4592 O 439.883 -0.484498 -2.10907 0
M  V30 4593 C 440.478 -3.36282 -0.412285 0
M  V30 4594 C 439.037 -3.66574 -0.854413 0
M  V30 4595 C 438.184 -2.7725 0.0527056 0
M  V30 4596 H 441.135 -1.50743 0.496215 0
M  V30 4597 H 441.156 -3.59349 -1.25094 0
M  V30 4598 H 440.668 -3.84083 0.556965 0
M  V30 4599 H 438.769 -3.24273 -1.83516 0
M  V30 4600 H 438.882 -4.74073 -0.692226 0
M  V30 4601 H 437.246 -2.50447 -0.463484 0
M  V30 4602 H 438.029 -3.27865 1.01783 0
M  V30 4603 N 440.474 -0.00167713 -1.576 0
M  V30 4604 C 441.699 0.69739 -1.95323 0
M  V30 4605 C 442.124 1.6642 -0.876706 0
M  V30 4606 O 441.482 1.80548 0.165007 0
M  V30 4607 C 441.53 1.40403 -3.32144 0
M  V30 4608 O 440.634 2.5185 -3.26566 0
M  V30 4609 H 439.975 0.185373 -0.637599 0
M  V30 4610 H 442.505 -0.0553665 -2.04525 0
M  V30 4611 H 442.515 1.76707 -3.67748 0
M  V30 4612 H 441.19 0.695167 -4.10049 0
M  V30 4613 H 439.767 2.17861 -3.0264 0
M  V30 4614 N 441.952 1.55251 0.271103 0
M  V30 4615 C 443.18 1.79974 1.02064 0
M  V30 4616 C 443.595 0.574003 1.79863 0
M  V30 4617 O 442.952 -0.456962 1.76686 0
M  V30 4618 C 443.003 3.02603 1.97772 0
M  V30 4619 O 442.724 4.20443 1.23124 0
M  V30 4620 C 444.225 3.39944 2.84522 0
M  V30 4621 H 441.445 0.599489 0.301419 0
M  V30 4622 H 443.989 2.02268 0.301313 0
M  V30 4623 H 442.144 2.8243 2.65165 0
M  V30 4624 H 442.558 4.89783 1.87651 0
M  V30 4625 H 444.032 4.28915 3.47471 0
M  V30 4626 H 444.509 2.59432 3.54389 0
M  V30 4627 H 445.115 3.62383 2.22618 0
M  V30 4628 N 443.43 -0.535701 1.48216 0
M  V30 4629 C 444.846 -0.863701 1.3421 0
M  V30 4630 C 445.046 -1.98458 0.34879 0
M  V30 4631 O 444.102 -2.51432 -0.23204 0
M  V30 4632 C 445.415 -1.23662 2.74095 0
M  V30 4633 C 446.963 -1.34683 2.82541 0
M  V30 4634 C 447.438 -1.75322 4.23115 0
M  V30 4635 N 448.929 -1.82434 4.2576 0
M  V30 4636 C 449.664 -2.15252 5.31464 0
M  V30 4637 N 449.16 -2.46533 6.47452 0
M  V30 4638 N 450.953 -2.16209 5.18855 0
M  V30 4639 H 443.104 0.203965 2.11418 0
M  V30 4640 H 445.367 0.0286033 0.947568 0
M  V30 4641 H 445.073 -0.486674 3.48316 0
M  V30 4642 H 444.947 -2.18805 3.07253 0
M  V30 4643 H 447.334 -2.08756 2.08579 0
M  V30 4644 H 447.415 -0.376756 2.5301 0
M  V30 4645 H 447.059 -1.01812 4.97591 0
M  V30 4646 H 446.989 -2.7337 4.50085 0
M  V30 4647 H 449.48 -1.6056 3.42095 0
M  V30 4648 H 449.793 -2.70662 7.23852 0
M  V30 4649 H 448.138 -2.44065 6.50736 0
M  V30 4650 H 451.329 -1.91224 4.2726 0
M  V30 4651 H 451.502 -2.41453 6.01335 0
M  V30 4652 N 444.908 -1.36708 -0.784132 0
M  V30 4653 C 445.871 -1.31307 -1.87859 0
M  V30 4654 C 446.871 -0.219654 -1.59293 0
M  V30 4655 O 448.061 -0.47476 -1.67606 0
M  V30 4656 C 445.193 -1.03679 -3.24751 0
M  V30 4657 H 446.386 -2.28647 -1.94064 0
M  V30 4658 H 443.939 -1.21558 -0.98252 0
M  V30 4659 H 444.674 -0.0681936 -3.24228 0
M  V30 4660 H 444.459 -1.82811 -3.46876 0
M  V30 4661 H 445.949 -1.02518 -4.04821 0
M  V30 4662 N 446.386 1.0089 -1.21074 0
M  V30 4663 C 447.797 1.56056 -1.02486 0
M  V30 4664 C 448.148 1.91728 0.416506 0
M  V30 4665 O 447.273 1.73066 1.29912 0
M  V30 4666 C 447.868 2.83563 -1.85411 0
M  V30 4667 C 446.427 3.3523 -1.71166 0
M  V30 4668 C 445.574 2.0846 -1.82865 0
M  V30 4669 H 448.525 0.831818 -1.35154 0
M  V30 4670 H 448.546 3.55286 -1.36205 0
M  V30 4671 H 448.058 2.57569 -2.9031 0
M  V30 4672 H 446.159 3.66167 -0.689361 0
M  V30 4673 H 446.272 4.06913 -2.52901 0
M  V30 4674 H 444.636 2.21275 -1.26132 0
M  V30 4675 H 445.419 1.84883 -2.89263 0
M  V30 4676 N 447.864 1.01787 1.20321 0
M  V30 4677 C 449.111 0.707936 1.89722 0
M  V30 4678 C 449.439 -0.762535 1.78929 0
M  V30 4679 O 448.694 -1.56977 1.16861 0
M  V30 4680 C 448.993 1.09076 3.40349 0
M  V30 4681 C 448.659 2.55765 3.71342 0
M  V30 4682 C 447.321 2.95845 3.79511 0
M  V30 4683 C 449.673 3.50723 3.85542 0
M  V30 4684 C 447.001 4.2982 3.99339 0
M  V30 4685 C 449.353 4.84387 4.06881 0
M  V30 4686 C 448.017 5.24172 4.1328 0
M  V30 4687 H 447.287 0.259052 0.694243 0
M  V30 4688 H 449.934 1.27868 1.42555 0
M  V30 4689 H 448.239 0.438453 3.89339 0
M  V30 4690 H 449.936 0.828636 3.92345 0
M  V30 4691 H 446.526 2.2371 3.65584 0
M  V30 4692 H 450.71 3.20916 3.78585 0
M  V30 4693 H 445.966 4.60196 4.02529 0
M  V30 4694 H 450.14 5.57891 4.1681 0
M  V30 4695 H 447.767 6.27997 4.28396 0
M  V30 4696 N 449.342 -1.36122 0.79427 0
M  V30 4697 C 450.57 -2.03362 0.380989 0
M  V30 4698 C 450.985 -1.59881 -1.00416 0
M  V30 4699 O 450.342 -0.790515 -1.6449 0
M  V30 4700 C 450.393 -3.58804 0.440649 0
M  V30 4701 O 450.114 -4.007 1.77118 0
M  V30 4702 C 451.615 -4.43296 0.0186117 0
M  V30 4703 H 448.835 -0.652526 0.156367 0
M  V30 4704 H 451.379 -1.73998 1.07447 0
M  V30 4705 H 449.534 -3.8686 -0.204458 0
M  V30 4706 H 449.948 -4.95309 1.72538 0
M  V30 4707 H 451.422 -5.51887 0.111488 0
M  V30 4708 H 451.899 -4.2684 -1.03461 0
M  V30 4709 H 452.505 -4.20512 0.636395 0
M  V30 4710 N 450.82 -0.546701 -1.47814 0
M  V30 4711 C 451.73 0.21026 -2.33656 0
M  V30 4712 C 452.746 0.922413 -1.47538 0
M  V30 4713 O 453.922 0.893652 -1.80488 0
M  V30 4714 C 450.987 1.23348 -3.24016 0
M  V30 4715 C 450.048 0.529883 -4.26017 0
M  V30 4716 C 449.281 1.50435 -5.12059 0
M  V30 4717 O 449.504 2.73837 -5.00369 0
M  V30 4718 O 448.438 1.03459 -5.92942 0
M  V30 4719 H 452.264 -0.493605 -2.99662 0
M  V30 4720 H 449.849 -0.307427 -1.46203 0
M  V30 4721 H 451.731 1.82438 -3.79861 0
M  V30 4722 H 450.406 1.91945 -2.60651 0
M  V30 4723 H 449.313 -0.101948 -3.73961 0
M  V30 4724 H 450.646 -0.11445 -4.92067 0
M  V30 4725 N 452.299 1.55045 -0.282633 0
M  V30 4726 C 453.548 1.98938 0.332667 0
M  V30 4727 C 453.861 1.17455 1.56409 0
M  V30 4728 O 455.067 1.51527 2.25282 0
M  V30 4729 C 453.523 3.54105 0.643226 0
M  V30 4730 C 453.131 4.44374 -0.568814 0
M  V30 4731 C 454.875 4.06569 1.22074 0
M  V30 4732 C 452.782 5.90943 -0.232426 0
M  V30 4733 H 451.712 0.743043 0.128075 0
M  V30 4734 H 454.363 1.79341 -0.388464 0
M  V30 4735 H 452.745 3.69532 1.42346 0
M  V30 4736 H 453.919 4.40718 -1.34551 0
M  V30 4737 H 452.234 4.02585 -1.06369 0
M  V30 4738 H 454.831 5.13626 1.48635 0
M  V30 4739 H 455.174 3.56057 2.15707 0
M  V30 4740 H 455.707 3.94612 0.502621 0
M  V30 4741 H 452.446 6.45567 -1.13683 0
M  V30 4742 H 451.966 5.9765 0.507357 0
M  V30 4743 H 453.645 6.4677 0.172657 0
M  V30 4744 N 453.777 0.010035 1.57597 0
M  V30 4745 C 455.005 -0.683413 1.95287 0
M  V30 4746 C 455.42 -1.66747 0.885481 0
M  V30 4747 O 454.777 -1.82003 -0.134629 0
M  V30 4748 C 454.828 -1.40652 3.33015 0
M  V30 4749 O 454.549 -0.461916 4.35658 0
M  V30 4750 C 456.05 -2.19356 3.85225 0
M  V30 4751 H 453.27 -0.189708 0.643624 0
M  V30 4752 H 455.814 0.0641359 2.04399 0
M  V30 4753 H 453.969 -2.10562 3.2518 0
M  V30 4754 H 454.383 -0.973215 5.15392 0
M  V30 4755 H 455.857 -2.65433 4.83993 0
M  V30 4756 H 456.334 -3.02457 3.18459 0
M  V30 4757 H 456.94 -1.54442 3.96267 0
M  V30 4758 N 455.255 -1.55392 -0.262866 0
M  V30 4759 C 456.187 -1.85392 -1.34768 0
M  V30 4760 C 457.2 -0.739069 -1.45057 0
M  V30 4761 O 458.389 -1.01703 -1.46693 0
M  V30 4762 C 455.489 -2.01088 -2.72795 0
M  V30 4763 C 454.662 -3.31828 -2.84972 0
M  V30 4764 C 453.721 -3.37464 -4.03738 0
M  V30 4765 O 452.747 -4.10778 -3.94018 0
M  V30 4766 N 453.949 -2.65599 -5.16176 0
M  V30 4767 H 456.714 -2.79029 -1.09375 0
M  V30 4768 H 454.275 -1.55434 -0.452981 0
M  V30 4769 H 456.267 -2.02217 -3.50557 0
M  V30 4770 H 454.837 -1.1427 -2.90966 0
M  V30 4771 H 454.057 -3.43152 -1.94012 0
M  V30 4772 H 455.345 -4.18032 -2.90045 0
M  V30 4773 H 454.743 -2.05736 -5.26962 0
M  V30 4774 H 453.3 -2.72439 -5.92132 0
M  V30 4775 N 456.733 0.527833 -1.48498 0
M  V30 4776 C 457.683 1.62844 -1.5958 0
M  V30 4777 C 458.667 1.54397 -0.452809 0
M  V30 4778 O 459.859 1.62381 -0.704364 0
M  V30 4779 C 456.988 3.01557 -1.64067 0
M  V30 4780 C 456.074 3.151 -2.83853 0
M  V30 4781 N 456.465 2.9861 -4.08247 0
M  V30 4782 C 454.763 3.46158 -2.8123 0
M  V30 4783 C 455.464 3.15626 -4.88626 0
M  V30 4784 N 454.44 3.43298 -4.21483 0
M  V30 4785 H 458.242 1.48708 -2.53502 0
M  V30 4786 H 455.756 0.733343 -1.44899 0
M  V30 4787 H 457.753 3.8062 -1.70101 0
M  V30 4788 H 456.413 3.16783 -0.712636 0
M  V30 4789 H 457.424 2.75329 -4.3865 0
M  V30 4790 H 454.101 3.67728 -1.97692 0
M  V30 4791 H 455.491 3.07596 -5.97356 0
M  V30 4792 N 458.211 1.37122 0.776871 0
M  V30 4793 C 459.141 1.35164 1.90402 0
M  V30 4794 C 460.122 0.221069 1.68657 0
M  V30 4795 O 461.307 0.420642 1.8959 0
M  V30 4796 C 458.437 1.15274 3.27611 0
M  V30 4797 C 457.391 2.25289 3.63908 0
M  V30 4798 C 456.717 1.90527 4.99603 0
M  V30 4799 C 458.017 3.67446 3.71188 0
M  V30 4800 H 459.711 2.29482 1.92297 0
M  V30 4801 H 457.257 1.10465 0.923773 0
M  V30 4802 H 459.21 1.12536 4.06096 0
M  V30 4803 H 457.934 0.174102 3.26136 0
M  V30 4804 H 456.593 2.27174 2.87728 0
M  V30 4805 H 456.241 0.91206 4.94662 0
M  V30 4806 H 455.941 2.64193 5.24858 0
M  V30 4807 H 457.465 1.89367 5.80493 0
M  V30 4808 H 458.879 3.67719 4.39836 0
M  V30 4809 H 457.276 4.40123 4.07936 0
M  V30 4810 H 458.346 4.01443 2.71977 0
M  V30 4811 N 459.689 -1.00246 1.21608 0
M  V30 4812 C 460.599 -2.12515 0.993709 0
M  V30 4813 C 461.615 -1.73913 -0.0549939 0
M  V30 4814 O 462.791 -2.00943 0.135619 0
M  V30 4815 C 459.856 -3.42083 0.563953 0
M  V30 4816 C 458.917 -3.94843 1.68516 0
M  V30 4817 C 458.15 -5.18226 1.27582 0
M  V30 4818 O 458.373 -5.70201 0.150506 0
M  V30 4819 O 457.307 -5.64497 2.0887 0
M  V30 4820 H 461.133 -2.34152 1.93407 0
M  V30 4821 H 458.718 -1.10891 1.00118 0
M  V30 4822 H 460.6 -4.20073 0.334194 0
M  V30 4823 H 459.275 -3.21828 -0.347665 0
M  V30 4824 H 458.182 -3.18068 1.96935 0
M  V30 4825 H 459.515 -4.19512 2.5743 0
M  V30 4826 N 461.167 -1.02423 -1.1978 0
M  V30 4827 C 462.413 -0.72878 -1.89896 0
M  V30 4828 C 462.768 0.734248 -1.77839 0
M  V30 4829 O 462.061 1.52733 -1.15685 0
M  V30 4830 C 462.255 -1.1088 -3.39765 0
M  V30 4831 C 462.084 -2.60722 -3.66407 0
M  V30 4832 C 460.854 -3.27623 -3.84696 0
M  V30 4833 C 463.052 -3.58924 -3.68345 0
M  V30 4834 N 461.034 -4.66617 -3.98926 0
M  V30 4835 C 462.405 -4.83514 -3.8809 0
M  V30 4836 C 464.46 -3.52788 -3.51347 0
M  V30 4837 C 463.163 -6.0271 -3.92598 0
M  V30 4838 C 465.189 -4.71394 -3.5713 0
M  V30 4839 C 464.551 -5.94796 -3.77356 0
M  V30 4840 H 460.65 -0.318473 -0.714212 0
M  V30 4841 H 463.234 -1.3106 -1.43984 0
M  V30 4842 H 461.405 -0.555233 -3.84411 0
M  V30 4843 H 463.137 -0.766082 -3.97383 0
M  V30 4844 H 459.892 -2.7804 -3.83393 0
M  V30 4845 H 460.316 -5.38805 -4.099 0
M  V30 4846 H 464.958 -2.58372 -3.3467 0
M  V30 4847 H 462.676 -6.97499 -4.08069 0
M  V30 4848 H 466.262 -4.6827 -3.45275 0
M  V30 4849 H 465.142 -6.85037 -3.81699 0
M  V30 4850 N 462.645 1.35699 -0.801477 0
M  V30 4851 C 463.894 1.98165 -0.375979 0
M  V30 4852 C 464.207 1.64306 1.06127 0
M  V30 4853 O 465.413 2.20097 1.58964 0
M  V30 4854 C 463.869 3.54497 -0.621305 0
M  V30 4855 C 463.477 3.9727 -2.07076 0
M  V30 4856 C 465.221 4.23697 -0.26091 0
M  V30 4857 C 463.128 5.46427 -2.26211 0
M  V30 4858 H 462.058 0.741478 -0.136844 0
M  V30 4859 H 464.709 1.54834 -0.984814 0
M  V30 4860 H 463.091 3.95958 0.0574112 0
M  V30 4861 H 464.265 3.66974 -2.78687 0
M  V30 4862 H 462.58 3.40943 -2.39054 0
M  V30 4863 H 465.177 5.33334 -0.381994 0
M  V30 4864 H 465.52 4.0869 0.792344 0
M  V30 4865 H 466.053 3.87639 -0.893339 0
M  V30 4866 H 462.792 5.66396 -3.29963 0
M  V30 4867 H 462.312 5.78309 -1.59119 0
M  V30 4868 H 463.991 6.12819 -2.07513 0
M  V30 4869 N 464.123 0.554532 1.47522 0
M  V30 4870 C 465.053 -0.182974 2.32782 0
M  V30 4871 C 466.034 -0.911377 1.43624 0
M  V30 4872 O 467.219 -0.892366 1.72483 0
M  V30 4873 C 464.349 -1.21513 3.25349 0
M  V30 4874 C 463.303 -0.603355 4.23726 0
M  V30 4875 C 462.629 -1.73995 5.05598 0
M  V30 4876 C 463.929 0.441121 5.20434 0
M  V30 4877 H 465.623 0.52882 2.94693 0
M  V30 4878 H 463.169 0.255759 1.41711 0
M  V30 4879 H 465.122 -1.73922 3.83835 0
M  V30 4880 H 463.846 -1.95683 2.61487 0
M  V30 4881 H 462.505 -0.10059 3.66462 0
M  V30 4882 H 462.153 -2.47063 4.38143 0
M  V30 4883 H 461.853 -1.3364 5.72201 0
M  V30 4884 H 463.377 -2.26735 5.66942 0
M  V30 4885 H 464.791 0.00319931 5.733 0
M  V30 4886 H 463.188 0.763402 5.95224 0
M  V30 4887 H 464.258 1.33799 4.66075 0
M  V30 4888 N 465.601 -1.54893 0.290851 0
M  V30 4889 C 466.511 -2.26812 -0.59945 0
M  V30 4890 C 467.527 -1.29963 -1.15696 0
M  V30 4891 O 468.703 -1.62928 -1.18391 0
M  V30 4892 C 465.768 -2.98716 -1.75982 0
M  V30 4893 C 464.829 -4.1108 -1.2374 0
M  V30 4894 C 464.062 -4.79546 -2.34246 0
M  V30 4895 O 464.285 -4.47309 -3.53936 0
M  V30 4896 O 463.219 -5.67165 -2.01512 0
M  V30 4897 H 467.045 -3.03696 -0.0163561 0
M  V30 4898 H 464.63 -1.49289 0.0576755 0
M  V30 4899 H 466.512 -3.43851 -2.43607 0
M  V30 4900 H 465.187 -2.24737 -2.3297 0
M  V30 4901 H 464.094 -3.70367 -0.527163 0
M  V30 4902 H 465.427 -4.87007 -0.71307 0
M  V30 4903 N 467.08 -0.0183926 -1.57589 0
M  V30 4904 C 468.012 0.995557 -2.06449 0
M  V30 4905 C 469.025 1.29556 -0.985849 0
M  V30 4906 O 470.214 1.2621 -1.26227 0
M  V30 4907 C 467.314 2.32572 -2.46502 0
M  V30 4908 C 466.487 2.21245 -3.77319 0
M  V30 4909 C 465.546 3.37104 -4.04039 0
M  V30 4910 O 464.572 3.14468 -4.74445 0
M  V30 4911 N 465.774 4.60553 -3.53372 0
M  V30 4912 H 468.539 0.578746 -2.94059 0
M  V30 4913 H 466.1 0.168603 -1.6102 0
M  V30 4914 H 468.092 3.08887 -2.61478 0
M  V30 4915 H 466.662 2.65931 -1.64315 0
M  V30 4916 H 465.882 1.29723 -3.72244 0
M  V30 4917 H 467.17 2.10868 -4.63047 0
M  V30 4918 H 466.568 4.81839 -2.96391 0
M  V30 4919 H 465.125 5.34072 -3.73644 0
M  V30 4920 N 468.558 1.5553 0.254621 0
M  V30 4921 C 469.488 1.9268 1.31897 0
M  V30 4922 C 470.469 0.790797 1.506 0
M  V30 4923 O 471.654 1.05045 1.63337 0
M  V30 4924 C 468.784 2.21477 2.67517 0
M  V30 4925 C 467.738 3.37256 2.63519 0
M  V30 4926 C 467.064 3.51576 4.02862 0
M  V30 4927 C 468.364 4.73157 2.21179 0
M  V30 4928 H 470.058 2.81832 1.01051 0
M  V30 4929 H 467.604 1.35599 0.484662 0
M  V30 4930 H 469.557 2.46055 3.42104 0
M  V30 4931 H 468.281 1.29144 2.99982 0
M  V30 4932 H 466.94 3.12675 1.9139 0
M  V30 4933 H 466.588 2.56676 4.32581 0
M  V30 4934 H 466.288 4.2943 4.01078 0
M  V30 4935 H 467.812 3.78467 4.79161 0
M  V30 4936 H 469.226 4.97158 2.85494 0
M  V30 4937 H 467.623 5.54058 2.30521 0
M  V30 4938 H 468.693 4.70739 1.16332 0
M  V30 4939 N 470.036 -0.519951 1.48776 0
M  V30 4940 C 471.447 -1.10177 1.50725 0
M  V30 4941 C 471.798 -1.94153 0.282678 0
M  V30 4942 O 470.923 -2.07645 -0.609298 0
M  V30 4943 C 471.518 -2.00482 2.73116 0
M  V30 4944 C 470.077 -2.53862 2.77905 0
M  V30 4945 C 469.224 -1.31047 2.44381 0
M  V30 4946 H 472.175 -0.30473 1.55747 0
M  V30 4947 H 472.196 -2.8491 2.52203 0
M  V30 4948 H 471.708 -1.39335 3.62225 0
M  V30 4949 H 469.809 -3.18702 1.93029 0
M  V30 4950 H 469.922 -2.9231 3.79594 0
M  V30 4951 H 468.286 -1.62953 1.95751 0
M  V30 4952 H 469.069 -0.71637 3.35743 0
M  V30 4953 N 471.514 -1.37532 -0.769588 0
M  V30 4954 C 472.424 -1.35668 -1.91393 0
M  V30 4955 C 473.44 -0.255954 -1.72107 0
M  V30 4956 O 474.616 -0.491704 -1.95305 0
M  V30 4957 C 471.681 -1.16481 -3.26547 0
M  V30 4958 C 470.742 -2.36212 -3.58472 0
M  V30 4959 C 469.975 -2.17932 -4.87177 0
M  V30 4960 O 470.198 -1.1647 -5.58382 0
M  V30 4961 O 469.132 -3.06167 -5.18214 0
M  V30 4962 H 472.958 -2.32055 -1.95918 0
M  V30 4963 H 470.543 -1.18284 -0.912641 0
M  V30 4964 H 472.425 -1.07778 -4.07384 0
M  V30 4965 H 471.1 -0.231687 -3.2287 0
M  V30 4966 H 470.007 -2.50488 -2.77861 0
M  V30 4967 H 471.34 -3.281 -3.66894 0
M  V30 4968 N 472.992 0.995999 -1.22138 0
M  V30 4969 C 474.403 1.54961 -1.04135 0
M  V30 4970 C 474.754 1.92159 0.396147 0
M  V30 4971 O 473.879 1.74435 1.28069 0
M  V30 4972 C 474.474 2.81581 -1.88408 0
M  V30 4973 C 473.033 3.33396 -1.74712 0
M  V30 4974 C 472.18 2.06509 -1.85066 0
M  V30 4975 H 475.131 0.817436 -1.36028 0
M  V30 4976 H 475.152 3.53822 -1.39966 0
M  V30 4977 H 474.664 2.54476 -2.93025 0
M  V30 4978 H 472.765 3.65416 -0.728159 0
M  V30 4979 H 472.878 4.04208 -2.57202 0
M  V30 4980 H 471.242 2.19925 -1.28472 0
M  V30 4981 H 472.025 1.81804 -2.91208 0
M  V30 4982 N 474.47 1.03057 1.19235 0
M  V30 4983 C 475.433 0.617418 2.20727 0
M  V30 4984 C 476.433 -0.319856 1.57587 0
M  V30 4985 O 477.623 -0.106633 1.73873 0
M  V30 4986 C 474.755 -0.096296 3.40764 0
M  V30 4987 H 475.948 1.51544 2.58794 0
M  V30 4988 H 473.501 0.821949 1.32942 0
M  V30 4989 H 474.236 -1.00859 3.08217 0
M  V30 4990 H 474.021 0.577217 3.87828 0
M  V30 4991 H 475.511 -0.372219 4.15938 0
M  V30 4992 N 475.948 -1.35272 0.808662 0
M  V30 4993 C 477.359 -1.81179 0.450688 0
M  V30 4994 C 477.71 -1.67143 -1.02751 0
M  V30 4995 O 476.835 -1.20325 -1.79864 0
M  V30 4996 C 477.43 -3.28943 0.811275 0
M  V30 4997 C 475.989 -3.72985 0.505871 0
M  V30 4998 C 475.136 -2.57229 1.03578 0
M  V30 4999 H 478.087 -1.2322 1.00012 0
M  V30 5000 H 478.108 -3.80342 0.109588 0
M  V30 5001 H 477.62 -3.39127 1.88718 0
M  V30 5002 H 475.721 -3.68349 -0.561209 0
M  V30 5003 H 475.834 -4.67677 1.03995 0
M  V30 5004 H 474.198 -2.50548 0.458005 0
M  V30 5005 H 474.981 -2.7019 2.11784 0
M  V30 5006 N 477.426 -0.562348 -1.47226 0
M  V30 5007 C 478.356 0.170627 -2.32876 0
M  V30 5008 C 479.337 0.903748 -1.44106 0
M  V30 5009 O 480.522 0.883206 -1.72954 0
M  V30 5010 C 477.652 1.19786 -3.25989 0
M  V30 5011 C 476.606 0.580875 -4.2404 0
M  V30 5012 C 475.932 1.71311 -5.06514 0
M  V30 5013 C 477.232 -0.468714 -5.20193 0
M  V30 5014 H 478.926 -0.544441 -2.94408 0
M  V30 5015 H 476.472 -0.263271 -1.41573 0
M  V30 5016 H 478.425 1.71884 -3.84752 0
M  V30 5017 H 477.149 1.94294 -2.62521 0
M  V30 5018 H 475.808 0.0811538 -3.6651 0
M  V30 5019 H 475.456 2.44736 -4.39447 0
M  V30 5020 H 475.156 1.30604 -5.72902 0
M  V30 5021 H 476.68 2.23725 -5.68137 0
M  V30 5022 H 478.094 -0.0336028 -5.7329 0
M  V30 5023 H 476.491 -0.794957 -5.94811 0
M  V30 5024 H 477.561 -1.36269 -4.65359 0
M  V30 5025 N 478.904 1.54736 -0.299062 0
M  V30 5026 C 480.132 2.04512 0.313447 0
M  V30 5027 C 480.547 1.17643 1.47667 0
M  V30 5028 O 479.904 0.20164 1.81383 0
M  V30 5029 C 479.955 3.53171 0.771542 0
M  V30 5030 O 479.676 4.36736 -0.345379 0
M  V30 5031 C 481.177 4.18936 1.4494 0
M  V30 5032 H 478.397 0.667507 0.0683784 0
M  V30 5033 H 480.941 1.99752 -0.438129 0
M  V30 5034 H 479.096 3.58298 1.47314 0
M  V30 5035 H 479.51 5.24499 0.0109219 0
M  V30 5036 H 480.984 5.24482 1.72111 0
M  V30 5037 H 481.461 3.68554 2.38883 0
M  V30 5038 H 482.067 4.17879 0.791028 0
M  V30 5039 N 480.382 0.0267497 1.57577 0
M  V30 5040 C 481.798 -0.32962 1.56159 0
M  V30 5041 C 481.998 -1.73059 1.03213 0
M  V30 5042 O 481.054 -2.43233 0.677804 0
M  V30 5043 C 482.367 -0.18039 3.00158 0
M  V30 5044 C 483.915 -0.253334 3.11973 0
M  V30 5045 C 484.39 -0.132921 4.57807 0
M  V30 5046 N 485.881 -0.189979 4.6281 0
M  V30 5047 C 486.616 -0.120554 5.73273 0
M  V30 5048 N 486.112 -0.000180315 6.928 0
M  V30 5049 N 487.905 -0.174369 5.61829 0
M  V30 5050 H 480.056 0.942896 1.90324 0
M  V30 5051 H 482.319 0.3639 0.875375 0
M  V30 5052 H 482.025 0.784576 3.42837 0
M  V30 5053 H 481.899 -0.951565 3.65 0
M  V30 5054 H 484.286 -1.20876 2.69208 0
M  V30 5055 H 484.367 0.548177 2.49857 0
M  V30 5056 H 484.011 0.819073 5.01252 0
M  V30 5057 H 483.941 -0.953264 5.179 0
M  V30 5058 H 486.432 -0.283257 3.76837 0
M  V30 5059 H 486.745 0.0461666 7.72786 0
M  V30 5060 H 485.09 0.034569 6.94991 0
M  V30 5061 H 488.281 -0.266794 4.67339 0
M  V30 5062 H 488.454 -0.116802 6.47895 0
M  V30 5063 N 481.861 -1.55662 -0.24637 0
M  V30 5064 C 483.089 -1.81575 -0.991876 0
M  V30 5065 C 483.504 -0.602545 -1.78927 0
M  V30 5066 O 482.861 0.428795 -1.77391 0
M  V30 5067 C 482.912 -3.05711 -1.92933 0
M  V30 5068 O 482.633 -4.22348 -1.1642 0
M  V30 5069 C 484.134 -3.44428 -2.79078 0
M  V30 5070 H 481.354 -0.604209 -0.291844 0
M  V30 5071 H 483.898 -2.02722 -0.269095 0
M  V30 5072 H 482.053 -2.86612 -2.60638 0
M  V30 5073 H 482.467 -4.92706 -1.79835 0
M  V30 5074 H 483.941 -4.34388 -3.40603 0
M  V30 5075 H 484.418 -2.65037 -3.50217 0
M  V30 5076 H 485.024 -3.65879 -2.16824 0
M  V30 5077 N 483.339 0.512053 -1.4905 0
M  V30 5078 C 484.302 1.59704 -1.64399 0
M  V30 5079 C 485.302 1.52285 -0.516317 0
M  V30 5080 O 486.492 1.55635 -0.782527 0
M  V30 5081 C 483.624 2.9935 -1.63102 0
M  V30 5082 H 484.817 1.47428 -2.61161 0
M  V30 5083 H 482.37 0.735469 -1.37915 0
M  V30 5084 H 483.105 3.17116 -0.678836 0
M  V30 5085 H 482.89 3.06144 -2.44986 0
M  V30 5086 H 484.38 3.782 -1.77072 0
M  V30 5087 N 484.817 1.37938 0.762283 0
M  V30 5088 C 485.747 1.37176 1.88958 0
M  V30 5089 C 486.728 0.238945 1.68413 0
M  V30 5090 O 487.913 0.440726 1.89133 0
M  V30 5091 C 485.043 1.18742 3.2637 0
M  V30 5092 C 483.997 2.29136 3.61498 0
M  V30 5093 C 483.323 1.95816 4.97554 0
M  V30 5094 C 484.623 3.71363 3.6727 0
M  V30 5095 H 486.317 2.31509 1.89853 0
M  V30 5096 H 483.863 1.11438 0.912005 0
M  V30 5097 H 485.816 1.16837 4.04879 0
M  V30 5098 H 484.54 0.208683 3.25933 0
M  V30 5099 H 483.199 2.30213 2.85303 0
M  V30 5100 H 482.847 0.964475 4.93667 0
M  V30 5101 H 482.547 2.69745 5.22026 0
M  V30 5102 H 484.071 1.95513 5.78452 0
M  V30 5103 H 485.485 3.72364 4.35911 0
M  V30 5104 H 483.882 4.44425 4.03245 0
M  V30 5105 H 484.952 4.04305 2.67704 0
M  V30 5106 N 486.295 -0.989507 1.22664 0
M  V30 5107 C 487.523 -1.76496 1.07967 0
M  V30 5108 C 487.938 -1.85148 -0.369543 0
M  V30 5109 O 487.295 -1.32408 -1.25596 0
M  V30 5110 C 487.346 -3.19642 1.68853 0
M  V30 5111 O 487.067 -3.11453 3.08105 0
M  V30 5112 C 488.568 -4.13621 1.59475 0
M  V30 5113 H 485.788 -0.55418 0.378319 0
M  V30 5114 H 488.332 -1.24378 1.62328 0
M  V30 5115 H 486.487 -3.68816 1.18547 0
M  V30 5116 H 486.901 -4.01499 3.37489 0
M  V30 5117 H 488.375 -5.11801 2.06795 0
M  V30 5118 H 488.852 -4.35718 0.55191 0
M  V30 5119 H 489.458 -3.70346 2.09103 0
M  V30 5120 N 487.773 -1.03688 -1.18687 0
M  V30 5121 C 488.723 -0.595067 -2.20098 0
M  V30 5122 C 489.707 0.360465 -1.5681 0
M  V30 5123 O 490.899 0.180136 -1.76081 0
M  V30 5124 C 488.028 0.0444495 -3.43271 0
M  V30 5125 C 487.114 -0.934002 -4.13687 0
M  V30 5126 N 487.505 -2.09957 -4.60165 0
M  V30 5127 C 485.803 -0.759177 -4.39491 0
M  V30 5128 C 486.504 -2.71735 -5.1433 0
M  V30 5129 N 485.48 -1.99638 -5.05614 0
M  V30 5130 H 489.282 -1.48336 -2.5372 0
M  V30 5131 H 486.796 -0.904949 -1.3485 0
M  V30 5132 H 488.793 0.37864 -4.15177 0
M  V30 5133 H 487.453 0.928325 -3.11147 0
M  V30 5134 H 488.464 -2.47863 -4.54735 0
M  V30 5135 H 485.141 0.0749292 -4.17433 0
M  V30 5136 H 486.531 -3.70492 -5.60523 0
M  V30 5137 N 489.251 1.34841 -0.815825 0
M  V30 5138 C 490.199 2.31549 -0.220888 0
M  V30 5139 C 491.193 1.5707 0.634457 0
M  V30 5140 O 492.399 1.72125 0.526589 0
M  V30 5141 H 488.774 0.750153 -0.0526782 0
M  V30 5142 H 490.745 2.7926 -1.05149 0
M  V30 5143 C 489.494 3.42335 0.608427 0
M  V30 5144 H 488.817 3.9978 -0.0404121 0
M  V30 5145 H 490.257 4.12258 0.990931 0
M  V30 5146 C 488.716 2.86173 1.77782 0
M  V30 5147 O 489.246 2.80474 2.87571 0
M  V30 5148 N 487.452 2.43093 1.59229 0
M  V30 5149 H 486.999 2.47928 0.699237 0
M  V30 5150 H 486.957 2.05866 2.37627 0
M  V30 5151 N 490.729 0.570148 1.46925 0
M  V30 5152 C 491.661 -0.207909 2.28255 0
M  V30 5153 C 492.674 -0.867301 1.37774 0
M  V30 5154 O 493.863 -0.738976 1.62485 0
M  V30 5155 C 490.963 -1.31298 3.12433 0
M  V30 5156 C 490.136 -0.747915 4.30958 0
M  V30 5157 C 489.195 -1.7391 4.9663 0
M  V30 5158 O 488.221 -1.2801 5.54619 0
M  V30 5159 N 489.423 -3.07288 4.92498 0
M  V30 5160 H 492.188 0.489794 2.95671 0
M  V30 5161 H 489.749 0.407076 1.56699 0
M  V30 5162 H 491.741 -1.97507 3.53232 0
M  V30 5163 H 490.311 -1.91373 2.47175 0
M  V30 5164 H 489.531 0.0913066 3.94094 0
M  V30 5165 H 490.819 -0.349958 5.07595 0
M  V30 5166 H 490.217 -3.47213 4.46609 0
M  V30 5167 H 488.774 -3.69021 5.37277 0
M  V30 5168 N 492.207 -1.54576 0.307264 0
M  V30 5169 C 493.455 -1.99867 -0.299574 0
M  V30 5170 C 493.776 -1.19714 -1.53927 0
M  V30 5171 O 493.046 -0.29472 -1.9367 0
M  V30 5172 H 491.626 -0.738299 -0.113683 0
M  V30 5173 H 494.288 -1.9032 0.420042 0
M  V30 5174 H 493.384 -3.06901 -0.567283 0
M  V30 5175 N 493.685 -0.035106 -1.57561 0
M  V30 5176 C 494.91 0.655802 -1.96759 0
M  V30 5177 C 495.335 1.64523 -0.911809 0
M  V30 5178 O 494.693 1.80857 0.126673 0
M  V30 5179 C 494.741 1.33326 -3.35047 0
M  V30 5180 O 493.845 2.44866 -3.31835 0
M  V30 5181 H 493.186 0.171807 -0.641388 0
M  V30 5182 H 495.716 -0.0987369 -2.04362 0
M  V30 5183 H 495.726 1.68867 -3.71413 0
M  V30 5184 H 494.401 0.608033 -4.11431 0
M  V30 5185 H 492.978 2.11392 -3.07193 0
M  V30 5186 N 495.163 1.55791 0.238111 0
M  V30 5187 C 496.409 1.78297 0.966337 0
M  V30 5188 C 496.742 0.601903 1.84637 0
M  V30 5189 O 496.017 -0.399499 1.90353 0
M  V30 5190 C 496.3 3.10758 1.81939 0
M  V30 5191 C 496.153 4.39283 0.966958 0
M  V30 5192 C 497.472 3.39519 2.80027 0
M  V30 5193 H 494.591 0.648654 0.349882 0
M  V30 5194 H 497.233 1.88525 0.236253 0
M  V30 5195 H 495.383 3.02168 2.44185 0
M  V30 5196 H 497.055 4.59873 0.362514 0
M  V30 5197 H 495.298 4.32948 0.271669 0
M  V30 5198 H 495.969 5.28368 1.59784 0
M  V30 5199 H 498.445 3.48128 2.27917 0
M  V30 5200 H 497.321 4.33402 3.36829 0
M  V30 5201 H 497.582 2.60864 3.56934 0
M  V30 5202 N 496.642 -0.504142 1.49319 0
M  V30 5203 C 497.605 -1.5883 1.65244 0
M  V30 5204 C 498.605 -1.52009 0.524386 0
M  V30 5205 O 499.795 -1.55218 0.79077 0
M  V30 5206 C 496.927 -2.98481 1.64687 0
M  V30 5207 H 498.12 -1.4604 2.61939 0
M  V30 5208 H 495.673 -0.728144 1.38303 0
M  V30 5209 H 496.408 -3.16751 0.695644 0
M  V30 5210 H 496.193 -3.0484 2.46607 0
M  V30 5211 H 497.683 -3.77256 1.79075 0
M  V30 5212 N 498.12 -1.38341 -0.754957 0
M  V30 5213 C 499.536 -1.19508 -1.05783 0
M  V30 5214 C 499.736 -0.0428005 -2.01455 0
M  V30 5215 O 498.792 0.611861 -2.44975 0
M  V30 5216 C 500.105 -2.52091 -1.63923 0
M  V30 5217 C 501.653 -2.58762 -1.76101 0
M  V30 5218 C 502.128 -3.91517 -2.37652 0
M  V30 5219 N 503.619 -3.93049 -2.45085 0
M  V30 5220 C 504.354 -4.9253 -2.93602 0
M  V30 5221 N 503.85 -6.02408 -3.42165 0
M  V30 5222 N 505.643 -4.79921 -2.92629 0
M  V30 5223 H 497.794 -2.1206 -0.120056 0
M  V30 5224 H 500.057 -0.94089 -0.11589 0
M  V30 5225 H 499.763 -3.36858 -1.01093 0
M  V30 5226 H 499.637 -2.70388 -2.63003 0
M  V30 5227 H 502.024 -1.74391 -2.38058 0
M  V30 5228 H 502.105 -2.44333 -0.757294 0
M  V30 5229 H 501.749 -4.76309 -1.76329 0
M  V30 5230 H 501.679 -4.03256 -3.38662 0
M  V30 5231 H 504.17 -3.13685 -2.10736 0
M  V30 5232 H 504.483 -6.74248 -3.77637 0
M  V30 5233 H 502.828 -6.0603 -3.40225 0
M  V30 5234 H 506.019 -3.93194 -2.54001 0
M  V30 5235 H 506.192 -5.57601 -3.30128 0
M  V30 5236 N 499.598 0.982988 -1.23187 0
M  V30 5237 C 500.846 1.72052 -1.06031 0
M  V30 5238 C 501.167 1.90769 0.404019 0
M  V30 5239 O 500.437 1.47446 1.28982 0
M  V30 5240 H 499.017 0.637499 -0.389363 0
M  V30 5241 H 501.679 1.18338 -1.54862 0
M  V30 5242 H 500.775 2.7111 -1.54615 0
M  V30 5243 N 501.076 1.04316 1.18135 0
M  V30 5244 C 502.324 0.746542 1.87806 0
M  V30 5245 C 502.645 -0.728082 1.80898 0
M  V30 5246 O 501.915 -1.52554 1.22899 0
M  V30 5247 H 500.495 0.273157 0.695265 0
M  V30 5248 H 503.157 1.32044 1.43354 0
M  V30 5249 H 502.253 1.05362 2.93778 0
M  V30 5250 N 502.554 -1.34406 0.822964 0
M  V30 5251 C 503.965 -1.8069 0.469879 0
M  V30 5252 C 504.316 -1.68223 -1.00972 0
M  V30 5253 O 503.441 -1.22226 -1.78577 0
M  V30 5254 C 504.036 -3.28064 0.846118 0
M  V30 5255 C 502.595 -3.72428 0.545402 0
M  V30 5256 C 501.742 -2.56116 1.06301 0
M  V30 5257 H 504.693 -1.22153 1.01313 0
M  V30 5258 H 504.714 -3.80205 0.149922 0
M  V30 5259 H 504.226 -3.37107 1.92304 0
M  V30 5260 H 502.327 -3.68924 -0.522109 0
M  V30 5261 H 502.44 -4.66548 1.0895 0
M  V30 5262 H 500.804 -2.50048 0.484554 0
M  V30 5263 H 501.587 -2.67928 2.14638 0
M  V30 5264 N 504.032 -0.577932 -1.46621 0
M  V30 5265 C 505.257 -0.0652536 -2.07297 0
M  V30 5266 C 505.682 1.22828 -1.4246 0
M  V30 5267 O 505.04 1.74075 -0.506718 0
M  V30 5268 C 505.088 0.0920589 -3.60482 0
M  V30 5269 O 504.192 1.14972 -3.96049 0
M  V30 5270 H 503.533 -0.06065 -0.661224 0
M  V30 5271 H 506.063 -0.799515 -1.88332 0
M  V30 5272 H 506.073 0.299741 -4.06897 0
M  V30 5273 H 504.748 -0.852612 -4.07067 0
M  V30 5274 H 503.325 0.920879 -3.61351 0
M  V30 5275 N 505.51 1.54411 -0.315457 0
M  V30 5276 C 506.473 2.22713 0.54142 0
M  V30 5277 C 507.473 1.2179 1.04995 0
M  V30 5278 O 508.663 1.46426 0.943667 0
M  V30 5279 C 505.795 2.92485 1.75116 0
M  V30 5280 H 506.988 2.99849 -0.0555508 0
M  V30 5281 H 504.541 1.56159 -0.0664453 0
M  V30 5282 H 505.276 2.19466 2.38758 0
M  V30 5283 H 505.061 3.66483 1.39401 0
M  V30 5284 H 506.551 3.44548 2.35959 0
M  V30 5285 N 506.988 0.0434614 1.5754 0
M  V30 5286 C 508.216 -0.641835 1.96693 0
M  V30 5287 C 508.631 -1.64832 0.920652 0
M  V30 5288 O 507.988 -1.82247 -0.095993 0
M  V30 5289 C 508.039 -1.33557 3.35924 0
M  V30 5290 O 507.76 -0.369403 4.3654 0
M  V30 5291 C 509.261 -2.11135 3.89791 0
M  V30 5292 H 506.481 -0.176013 0.647503 0
M  V30 5293 H 509.025 0.107478 2.04217 0
M  V30 5294 H 507.18 -2.03617 3.29574 0
M  V30 5295 H 507.594 -0.863674 5.1734 0
M  V30 5296 H 509.068 -2.55107 4.89514 0
M  V30 5297 H 509.545 -2.95634 3.24803 0
M  V30 5298 H 510.151 -1.46002 3.99454 0
M  V30 5299 N 508.466 -1.55915 -0.229846 0
M  V30 5300 C 509.396 -1.94754 -1.28815 0
M  V30 5301 C 510.377 -0.814657 -1.49323 0
M  V30 5302 O 511.562 -1.07631 -1.61645 0
M  V30 5303 C 508.692 -2.25705 -2.63959 0
M  V30 5304 C 507.646 -3.41406 -2.5812 0
M  V30 5305 C 506.972 -3.57941 -3.97218 0
M  V30 5306 C 508.272 -4.76616 -2.13623 0
M  V30 5307 H 509.966 -2.83404 -0.965547 0
M  V30 5308 H 507.512 -1.36353 -0.463028 0
M  V30 5309 H 509.465 -2.51467 -3.38146 0
M  V30 5310 H 508.189 -1.339 -2.9789 0
M  V30 5311 H 506.848 -3.1568 -1.86391 0
M  V30 5312 H 506.496 -2.63526 -4.28443 0
M  V30 5313 H 506.196 -4.35757 -3.94195 0
M  V30 5314 H 507.72 -3.86042 -4.73079 0
M  V30 5315 H 509.134 -5.01637 -2.77549 0
M  V30 5316 H 507.531 -5.57655 -2.21677 0
M  V30 5317 H 508.601 -4.7253 -1.08829 0
M  V30 5318 N 509.944 0.496216 -1.49584 0
M  V30 5319 C 511.355 1.07765 -1.52459 0
M  V30 5320 C 511.706 1.93679 -0.31353 0
M  V30 5321 O 510.831 2.08588 0.576186 0
M  V30 5322 C 511.426 1.96111 -2.76271 0
M  V30 5323 C 509.985 2.49409 -2.81908 0
M  V30 5324 C 509.132 1.27142 -2.46435 0
M  V30 5325 H 512.083 0.279914 -1.56212 0
M  V30 5326 H 512.104 2.80862 -2.56704 0
M  V30 5327 H 511.616 1.33555 -3.64396 0
M  V30 5328 H 509.717 3.1559 -1.98074 0
M  V30 5329 H 509.83 2.86234 -3.84196 0
M  V30 5330 H 508.194 1.59818 -1.98319 0
M  V30 5331 H 508.977 0.662866 -3.3684 0
M  V30 5332 N 511.423 1.38739 0.74761 0
M  V30 5333 C 512.839 1.20067 1.05148 0
M  V30 5334 C 513.039 0.0534835 2.01429 0
M  V30 5335 O 512.095 -0.59886 2.45296 0
M  V30 5336 C 513.408 2.52957 1.62584 0
M  V30 5337 C 514.956 2.59692 1.74726 0
M  V30 5338 C 515.431 3.92772 2.35573 0
M  V30 5339 N 516.922 3.94343 2.42997 0
M  V30 5340 C 517.657 4.9408 2.90985 0
M  V30 5341 N 517.153 6.04214 3.38965 0
M  V30 5342 N 518.946 4.81466 2.9008 0
M  V30 5343 H 511.097 2.12121 0.108808 0
M  V30 5344 H 513.36 0.941491 0.110899 0
M  V30 5345 H 513.066 3.37389 0.993051 0
M  V30 5346 H 512.94 2.71779 2.61565 0
M  V30 5347 H 515.327 1.75651 2.3713 0
M  V30 5348 H 515.408 2.44731 0.744326 0
M  V30 5349 H 515.052 4.77238 1.738 0
M  V30 5350 H 514.982 4.05046 3.36519 0
M  V30 5351 H 517.473 3.14799 2.0907 0
M  V30 5352 H 517.786 6.76241 3.74056 0
M  V30 5353 H 516.131 6.07825 3.37007 0
M  V30 5354 H 519.322 3.94535 2.51912 0
M  V30 5355 H 519.495 5.59344 3.27166 0
M  V30 5356 N 512.901 -0.976442 1.23707 0
M  V30 5357 C 514.312 -1.53284 1.06587 0
M  V30 5358 C 514.663 -1.92765 -0.365526 0
M  V30 5359 O 513.788 -1.7645 -1.25277 0
M  V30 5360 C 514.383 -2.78548 1.92864 0
M  V30 5361 C 512.942 -3.30574 1.79994 0
M  V30 5362 C 512.089 -2.03538 1.88328 0
M  V30 5363 H 515.04 -0.795692 1.37311 0
M  V30 5364 H 515.061 -3.5155 1.45577 0
M  V30 5365 H 514.573 -2.49782 2.97037 0
M  V30 5366 H 512.674 -3.64211 0.786202 0
M  V30 5367 H 512.787 -4.00065 2.636 0
M  V30 5368 H 511.151 -2.17853 1.31954 0
M  V30 5369 H 511.934 -1.77149 2.94063 0
M  V30 5370 N 514.379 -1.04941 -1.1758 0
M  V30 5371 C 515.656 -0.671918 -1.83697 0
M  V30 5372 C 516.036 0.847929 -1.93322 0
M  V30 5373 O 515.384 1.75287 -1.46583 0
M  V30 5374 C 515.594 -1.35797 -3.21497 0
M  V30 5375 C 516.942 -1.4944 -3.97433 0
M  V30 5376 O 517.966 -1.31678 -3.30967 0
M  V30 5377 O 516.825 -1.78463 -5.1654 0
M  V30 5378 H 513.919 -0.236212 -0.792548 0
M  V30 5379 H 516.465 -1.14884 -1.24899 0
M  V30 5380 H 515.237 -2.39498 -3.09446 0
M  V30 5381 H 514.86 -0.870236 -3.8796 0
M  V30 5382 N 515.857 1.33968 -0.830081 0
M  V30 5383 C 517.268 1.80439 -0.479455 0
M  V30 5384 C 517.619 1.68756 1.00079 0
M  V30 5385 O 516.744 1.23171 1.77927 0
M  V30 5386 C 517.339 3.27611 -0.863505 0
M  V30 5387 C 515.898 3.72133 -0.565145 0
M  V30 5388 C 515.045 2.55549 -1.07657 0
M  V30 5389 H 517.996 1.21614 -1.0196 0
M  V30 5390 H 518.017 3.8012 -0.170083 0
M  V30 5391 H 517.529 3.36082 -1.94089 0
M  V30 5392 H 515.63 3.69196 0.502536 0
M  V30 5393 H 515.743 4.65963 -1.11422 0
M  V30 5394 H 514.107 2.49788 -0.497807 0
M  V30 5395 H 514.89 2.66786 -2.16055 0
M  V30 5396 N 517.335 0.585699 1.46312 0
M  V30 5397 C 518.751 0.247607 1.57668 0
M  V30 5398 C 518.951 -1.25007 1.58037 0
M  V30 5399 O 518.007 -2.03196 1.49893 0
M  V30 5400 C 519.32 0.899456 2.86933 0
M  V30 5401 C 520.868 0.873326 3.00569 0
M  V30 5402 C 521.343 1.50477 4.32574 0
M  V30 5403 N 522.834 1.46925 4.3928 0
M  V30 5404 C 523.569 1.92719 5.40044 0
M  V30 5405 N 523.065 2.46499 6.47464 0
M  V30 5406 N 524.858 1.83617 5.31264 0
M  V30 5407 H 517.009 1.55841 1.44317 0
M  V30 5408 H 519.272 0.651564 0.688599 0
M  V30 5409 H 518.978 1.95313 2.92482 0
M  V30 5410 H 518.852 0.409476 3.74971 0
M  V30 5411 H 521.239 -0.171736 2.946 0
M  V30 5412 H 521.32 1.40136 2.13999 0
M  V30 5413 H 520.964 2.54905 4.39302 0
M  V30 5414 H 520.894 0.951944 5.17924 0
M  V30 5415 H 523.385 1.07616 3.62253 0
M  V30 5416 H 523.698 2.79291 7.20567 0
M  V30 5417 H 522.043 2.50526 6.48276 0
M  V30 5418 H 525.234 1.41358 4.46246 0
M  V30 5419 H 525.407 2.19622 6.09648 0
M  V30 5420 N 518.813 -1.54241 0.323641 0
M  V30 5421 C 519.743 -2.27289 -0.534993 0
M  V30 5422 C 520.724 -1.28087 -1.11927 0
M  V30 5423 O 521.909 -1.56899 -1.14439 0
M  V30 5424 C 519.039 -3.03075 -1.69596 0
M  V30 5425 C 517.993 -4.09614 -1.24098 0
M  V30 5426 C 517.319 -4.73242 -2.4889 0
M  V30 5427 C 518.619 -5.21087 -0.355789 0
M  V30 5428 H 520.313 -2.99308 0.0743257 0
M  V30 5429 H 517.859 -1.43952 0.0371874 0
M  V30 5430 H 519.812 -3.52907 -2.30293 0
M  V30 5431 H 518.536 -2.28673 -2.33187 0
M  V30 5432 H 517.195 -3.60666 -0.656945 0
M  V30 5433 H 516.843 -3.95455 -3.10845 0
M  V30 5434 H 516.543 -5.45209 -2.19138 0
M  V30 5435 H 518.067 -5.25848 -3.10348 0
M  V30 5436 H 519.481 -5.66675 -0.869042 0
M  V30 5437 H 517.878 -5.9991 -0.151045 0
M  V30 5438 H 518.948 -4.81005 0.613339 0
M  V30 5439 N 520.291 -0.0518155 -1.57515 0
M  V30 5440 C 521.516 0.634896 -1.97443 0
M  V30 5441 C 521.941 1.63546 -0.929207 0
M  V30 5442 O 521.299 1.80981 0.107484 0
M  V30 5443 C 521.347 1.29765 -3.36442 0
M  V30 5444 O 520.451 2.41333 -3.34413 0
M  V30 5445 H 519.792 0.164994 -0.643174 0
M  V30 5446 H 522.322 -0.120407 -2.04245 0
M  V30 5447 H 522.332 1.64918 -3.73184 0
M  V30 5448 H 521.007 0.564361 -4.12053 0
M  V30 5449 H 519.584 2.08122 -3.09418 0
M  V30 5450 N 521.769 1.56035 0.221574 0
M  V30 5451 C 523.185 1.49026 0.571271 0
M  V30 5452 C 523.385 0.746912 1.87146 0
M  V30 5453 O 522.441 0.286566 2.50869 0
M  V30 5454 C 523.754 2.93579 0.650522 0
M  V30 5455 C 525.302 3.04099 0.741151 0
M  V30 5456 C 525.777 4.5001 0.851747 0
M  V30 5457 N 527.268 4.54053 0.915968 0
M  V30 5458 C 528.003 5.64232 1.02125 0
M  V30 5459 N 527.499 6.84164 1.09049 0
M  V30 5460 N 529.292 5.52084 1.05639 0
M  V30 5461 H 521.443 2.02791 -0.63162 0
M  V30 5462 H 523.706 0.921736 -0.221602 0
M  V30 5463 H 523.412 3.50912 -0.235253 0
M  V30 5464 H 523.286 3.45476 1.51413 0
M  V30 5465 H 525.673 2.4683 1.61737 0
M  V30 5466 H 525.754 2.55371 -0.148128 0
M  V30 5467 H 525.398 5.07896 -0.0200117 0
M  V30 5468 H 525.328 4.96444 1.75644 0
M  V30 5469 H 527.819 3.67683 0.872782 0
M  V30 5470 H 528.132 7.63883 1.1706 0
M  V30 5471 H 526.477 6.86875 1.05962 0
M  V30 5472 H 529.668 4.57317 0.998953 0
M  V30 5473 H 529.841 6.37983 1.13498 0
M  V30 5474 N 523.247 -0.488276 1.49845 0
M  V30 5475 C 524.472 -1.26997 1.63971 0
M  V30 5476 C 524.897 -1.85427 0.315994 0
M  V30 5477 O 524.255 -1.66475 -0.718032 0
M  V30 5478 C 524.303 -2.36689 2.72049 0
M  V30 5479 O 523.407 -3.40882 2.32107 0
M  V30 5480 H 522.748 -0.374376 0.548396 0
M  V30 5481 H 525.278 -0.583104 1.96115 0
M  V30 5482 H 525.288 -2.82262 2.94605 0
M  V30 5483 H 523.963 -1.93529 3.68129 0
M  V30 5484 H 522.54 -3.01139 2.19931 0
M  V30 5485 N 524.725 -1.39134 -0.740242 0
M  V30 5486 C 526.141 -1.20623 -1.0451 0
M  V30 5487 C 526.341 -0.0641651 -2.01398 0
M  V30 5488 O 525.397 0.585843 -2.4561 0
M  V30 5489 C 526.71 -2.53815 -1.6124 0
M  V30 5490 C 528.258 -2.60615 -1.73346 0
M  V30 5491 C 528.733 -3.94015 -2.33486 0
M  V30 5492 N 530.224 -3.95627 -2.40902 0
M  V30 5493 C 530.959 -4.95616 -2.88361 0
M  V30 5494 N 530.455 -6.06003 -3.35756 0
M  V30 5495 N 532.248 -4.82998 -2.87523 0
M  V30 5496 H 524.399 -2.12176 -0.0975576 0
M  V30 5497 H 526.662 -0.942066 -0.105904 0
M  V30 5498 H 526.368 -3.37911 -0.975144 0
M  V30 5499 H 526.242 -2.73162 -2.6012 0
M  V30 5500 H 528.629 -1.76906 -2.36195 0
M  V30 5501 H 528.71 -2.45123 -0.731336 0
M  V30 5502 H 528.354 -4.78153 -1.71267 0
M  V30 5503 H 528.284 -4.06825 -3.34366 0
M  V30 5504 H 530.775 -3.15903 -2.07398 0
M  V30 5505 H 531.088 -6.78215 -3.70464 0
M  V30 5506 H 529.433 -6.09604 -3.33778 0
M  V30 5507 H 532.624 -3.95866 -2.49816 0
M  V30 5508 H 532.797 -5.61072 -3.24196 0
M  V30 5509 N 526.204 0.969867 -1.24223 0
M  V30 5510 C 527.429 1.75289 -1.10853 0
M  V30 5511 C 527.854 1.85091 0.335079 0
M  V30 5512 O 527.212 1.32024 1.24255 0
M  V30 5513 C 527.26 3.15255 -1.75062 0
M  V30 5514 O 526.364 3.99589 -1.01992 0
M  V30 5515 H 525.705 0.538904 -0.387915 0
M  V30 5516 H 528.235 1.21675 -1.64488 0
M  V30 5517 H 528.245 3.65787 -1.80731 0
M  V30 5518 H 526.92 3.07436 -2.801 0
M  V30 5519 H 525.497 3.58077 -1.04094 0
M  V30 5520 N 527.682 1.05563 1.17022 0
M  V30 5521 C 528.959 0.68165 1.83338 0
M  V30 5522 C 529.339 -0.837665 1.93769 0
M  V30 5523 O 528.687 -1.74507 1.47511 0
M  V30 5524 C 528.897 1.375 3.20772 0
M  V30 5525 C 530.245 1.51545 3.96635 0
M  V30 5526 O 531.269 1.33431 3.30264 0
M  V30 5527 O 530.128 1.812 5.15586 0
M  V30 5528 H 527.222 0.240412 0.791285 0
M  V30 5529 H 529.768 1.15545 1.24288 0
M  V30 5530 H 528.54 2.41135 3.08171 0
M  V30 5531 H 528.163 0.890798 3.87493 0
M  V30 5532 N 529.16 -1.33526 0.837174 0
M  V30 5533 C 530.09 -2.31764 0.284206 0
M  V30 5534 C 531.071 -1.58896 -0.607142 0
M  V30 5535 O 532.256 -1.86798 -0.531047 0
M  V30 5536 C 529.386 -3.43029 -0.542962 0
M  V30 5537 C 528.34 -4.27255 0.252451 0
M  V30 5538 C 527.666 -5.3012 -0.69836 0
M  V30 5539 C 528.966 -5.01229 1.46858 0
M  V30 5540 H 530.66 -2.78262 1.10502 0
M  V30 5541 H 528.206 -1.3378 0.532812 0
M  V30 5542 H 530.159 -4.1078 -0.940096 0
M  V30 5543 H 528.883 -2.95216 -1.39697 0
M  V30 5544 H 527.542 -3.61127 0.631124 0
M  V30 5545 H 527.19 -4.78564 -1.54872 0
M  V30 5546 H 526.89 -5.87353 -0.170274 0
M  V30 5547 H 528.414 -6.00737 -1.09305 0
M  V30 5548 H 529.828 -5.61756 1.14469 0
M  V30 5549 H 528.225 -5.68104 1.93333 0
M  V30 5550 H 529.295 -4.301 2.23924 0
M  V30 5551 N 530.638 -0.59345 -1.46 0
M  V30 5552 C 531.885 -0.0831523 -2.02329 0
M  V30 5553 C 532.213 1.28093 -1.46364 0
M  V30 5554 O 531.468 1.85526 -0.622793 0
M  V30 5555 C 531.767 0.021178 -3.57394 0
M  V30 5556 C 531.433 -1.27671 -4.32448 0
M  V30 5557 C 530.095 -1.63227 -4.5267 0
M  V30 5558 C 532.447 -2.13511 -4.7546 0
M  V30 5559 C 529.775 -2.84401 -5.1316 0
M  V30 5560 C 532.127 -3.33922 -5.37289 0
M  V30 5561 C 530.791 -3.69747 -5.55737 0
M  V30 5562 H 530.061 -0.0304276 -0.740375 0
M  V30 5563 H 532.708 -0.772239 -1.75239 0
M  V30 5564 H 531.013 0.793454 -3.83682 0
M  V30 5565 H 532.71 0.431942 -3.98667 0
M  V30 5566 H 529.3 -0.989937 -4.17011 0
M  V30 5567 H 533.484 -1.87344 -4.59582 0
M  V30 5568 H 528.74 -3.12282 -5.25633 0
M  V30 5569 H 532.914 -4.00698 -5.69574 0
M  V30 5570 H 530.541 -4.6373 -6.02377 0
M  V30 5571 N 532.116 1.54067 -0.331816 0
M  V30 5572 C 533.046 2.27569 0.522932 0
M  V30 5573 C 534.027 1.28679 1.11247 0
M  V30 5574 O 535.212 1.57504 1.13605 0
M  V30 5575 C 532.342 3.0397 1.67987 0
M  V30 5576 C 531.296 4.10267 1.21924 0
M  V30 5577 C 530.622 4.74555 2.46377 0
M  V30 5578 C 531.922 5.21268 0.32815 0
M  V30 5579 H 533.616 2.99264 -0.0901977 0
M  V30 5580 H 531.162 1.4393 -0.044821 0
M  V30 5581 H 533.115 3.54123 2.28418 0
M  V30 5582 H 531.839 2.29906 2.31971 0
M  V30 5583 H 530.498 3.61009 0.637809 0
M  V30 5584 H 530.146 3.97098 3.08743 0
M  V30 5585 H 529.846 5.46363 2.16243 0
M  V30 5586 H 531.37 5.27487 3.07555 0
M  V30 5587 H 532.784 5.67128 0.838978 0
M  V30 5588 H 531.181 5.99982 0.119228 0
M  V30 5589 H 532.251 4.80673 -0.638839 0
M  V30 5590 N 533.594 0.0601682 1.57485 0
M  V30 5591 C 535.005 -0.474217 1.80577 0
M  V30 5592 C 535.356 -1.70365 0.973147 0
M  V30 5593 O 534.481 -2.15544 0.192306 0
M  V30 5594 C 535.076 -0.867102 3.27516 0
M  V30 5595 C 533.635 -1.34642 3.51495 0
M  V30 5596 C 532.782 -0.32594 2.75378 0
M  V30 5597 H 535.733 0.285973 1.56102 0
M  V30 5598 H 535.754 -1.72938 3.38929 0
M  V30 5599 H 535.266 0.0278927 3.8809 0
M  V30 5600 H 533.367 -2.2603 2.96212 0
M  V30 5601 H 533.48 -1.33237 4.60201 0
M  V30 5602 H 531.844 -0.800749 2.41785 0
M  V30 5603 H 532.627 0.561125 3.38683 0
M  V30 5604 N 535.072 -1.5615 -0.213296 0
M  V30 5605 C 536.483 -1.69645 -0.779582 0
M  V30 5606 C 536.834 -0.663615 -1.84636 0
M  V30 5607 O 535.959 0.183633 -2.15619 0
M  V30 5608 C 536.554 -3.07567 -1.42084 0
M  V30 5609 C 535.113 -3.22889 -1.93442 0
M  V30 5610 C 534.26 -2.65581 -0.797612 0
M  V30 5611 H 537.211 -1.58696 0.0114951 0
M  V30 5612 H 537.232 -3.03884 -2.28986 0
M  V30 5613 H 536.744 -3.82716 -0.644187 0
M  V30 5614 H 534.845 -2.52623 -2.73884 0
M  V30 5615 H 534.958 -4.30197 -2.10872 0
M  V30 5616 H 533.322 -2.24278 -1.20712 0
M  V30 5617 H 534.105 -3.43284 -0.033494 0
M  V30 5618 N 536.55 0.480323 -1.50102 0
M  V30 5619 C 537.775 1.26126 -1.64642 0
M  V30 5620 C 538.2 1.85257 -0.325823 0
M  V30 5621 O 537.558 1.66854 0.709194 0
M  V30 5622 C 537.606 2.35243 -2.73301 0
M  V30 5623 O 536.71 3.39646 -2.33911 0
M  V30 5624 H 536.051 0.371463 -0.550374 0
M  V30 5625 H 538.581 0.572696 -1.96421 0
M  V30 5626 H 538.591 2.80695 -2.96098 0
M  V30 5627 H 537.266 1.91574 -3.6915 0
M  V30 5628 H 535.843 2.99969 -2.21525 0
M  V30 5629 N 538.028 1.39524 0.732853 0
M  V30 5630 C 539.439 1.32905 1.31122 0
M  V30 5631 C 539.79 -0.00558708 1.96199 0
M  V30 5632 O 538.915 -0.907706 1.96443 0
M  V30 5633 C 539.51 2.40704 2.38426 0
M  V30 5634 C 538.069 2.37599 2.91931 0
M  V30 5635 C 537.216 2.2248 1.65523 0
M  V30 5636 H 540.167 1.49581 0.530207 0
M  V30 5637 H 540.188 2.07616 3.18867 0
M  V30 5638 H 539.7 3.37829 1.91033 0
M  V30 5639 H 537.801 1.44119 3.43599 0
M  V30 5640 H 537.914 3.32538 3.44899 0
M  V30 5641 H 536.278 1.69691 1.8994 0
M  V30 5642 H 537.061 3.21577 1.20178 0
M  V30 5643 N 539.506 -0.963266 1.24736 0
M  V30 5644 C 540.416 -2.09246 1.06082 0
M  V30 5645 C 541.432 -1.74 0.000363101 0
M  V30 5646 O 542.608 -2.0041 0.199479 0
M  V30 5647 C 539.673 -3.40115 0.672498 0
M  V30 5648 C 538.734 -3.89282 1.80993 0
M  V30 5649 C 537.967 -5.13905 1.44004 0
M  V30 5650 O 538.19 -5.69434 0.331835 0
M  V30 5651 O 537.124 -5.57566 2.26723 0
M  V30 5652 H 540.95 -2.27881 2.00759 0
M  V30 5653 H 538.535 -1.07649 1.03595 0
M  V30 5654 H 540.417 -4.18797 0.467668 0
M  V30 5655 H 539.092 -3.22771 -0.245102 0
M  V30 5656 H 537.999 -3.11642 2.06955 0
M  V30 5657 H 539.332 -4.1111 2.70646 0
M  V30 5658 N 540.985 -1.06182 -1.16461 0
M  V30 5659 C 542.21 -0.798599 -1.91408 0
M  V30 5660 C 542.635 0.640987 -1.76842 0
M  V30 5661 O 541.993 1.44652 -1.09296 0
M  V30 5662 C 542.041 -1.19665 -3.40165 0
M  V30 5663 O 541.145 -0.334768 -4.11039 0
M  V30 5664 H 540.486 -0.291961 -0.596368 0
M  V30 5665 H 543.016 -1.41732 -1.47557 0
M  V30 5666 H 543.026 -1.16772 -3.90933 0
M  V30 5667 H 541.701 -2.24526 -3.50087 0
M  V30 5668 H 540.278 -0.425168 -3.70468 0
M  V30 5669 N 542.463 1.3308 -0.844243 0
M  V30 5670 C 543.874 1.7992 -0.498566 0
M  V30 5671 C 544.225 1.69808 0.982834 0
M  V30 5672 O 543.35 1.25051 1.7661 0
M  V30 5673 C 543.945 3.26677 -0.898204 0
M  V30 5674 C 542.504 3.71513 -0.604583 0
M  V30 5675 C 541.651 2.54393 -1.10362 0
M  V30 5676 H 544.602 1.20526 -1.03244 0
M  V30 5677 H 544.623 3.79918 -0.21039 0
M  V30 5678 H 544.135 3.34004 -1.97643 0
M  V30 5679 H 542.236 3.69708 0.46335 0
M  V30 5680 H 542.349 4.64755 -1.16358 0
M  V30 5681 H 540.713 2.49246 -0.524273 0
M  V30 5682 H 541.496 2.6448 -2.18873 0
M  V30 5683 N 543.941 0.601185 1.45683 0
M  V30 5684 C 545.352 0.179659 1.85834 0
M  V30 5685 C 545.703 -1.26189 1.50236 0
M  V30 5686 O 544.828 -1.95587 0.925987 0
M  V30 5687 C 545.423 0.319277 3.37292 0
M  V30 5688 C 543.982 -0.0475092 3.7637 0
M  V30 5689 C 543.129 0.646692 2.69654 0
M  V30 5690 H 546.08 0.808268 1.36575 0
M  V30 5691 H 546.101 -0.4503 3.77826 0
M  V30 5692 H 545.613 1.36855 3.6317 0
M  V30 5693 H 543.714 -1.0962 3.5611 0
M  V30 5694 H 543.827 0.34168 4.7788 0
M  V30 5695 H 542.191 0.0849971 2.54558 0
M  V30 5696 H 542.974 1.69797 2.98369 0
M  V30 5697 N 545.419 -1.53889 0.339982 0
M  V30 5698 C 546.367 -2.26391 -0.533822 0
M  V30 5699 C 547.361 -1.28404 -1.10493 0
M  V30 5700 O 548.567 -1.46124 -1.05108 0
M  V30 5701 H 544.942 -0.727385 -0.190828 0
M  V30 5702 H 546.913 -2.98233 0.0997484 0
M  V30 5703 C 545.662 -3.04707 -1.67479 0
M  V30 5704 H 544.985 -3.79934 -1.2446 0
M  V30 5705 H 546.425 -3.58657 -2.26144 0
M  V30 5706 C 544.884 -2.13989 -2.60212 0
M  V30 5707 O 545.414 -1.73361 -3.62366 0
M  V30 5708 N 543.62 -1.79141 -2.28816 0
M  V30 5709 H 543.167 -2.12378 -1.45785 0
M  V30 5710 H 543.125 -1.18725 -2.91121 0
M  V30 5711 N 546.897 -0.0685191 -1.57451 0
M  V30 5712 C 548.143 0.596247 -1.94465 0
M  V30 5713 C 548.498 1.67417 -0.948117 0
M  V30 5714 O 547.791 1.91576 0.0301056 0
M  V30 5715 C 547.985 1.22051 -3.35914 0
M  V30 5716 C 547.814 0.204586 -4.49234 0
M  V30 5717 C 546.584 -0.20959 -5.04865 0
M  V30 5718 C 548.782 -0.556872 -5.11276 0
M  V30 5719 N 546.764 -1.21656 -6.01725 0
M  V30 5720 C 548.135 -1.41642 -6.03604 0
M  V30 5721 C 550.19 -0.613297 -4.94108 0
M  V30 5722 C 548.893 -2.32737 -6.80607 0
M  V30 5723 C 550.919 -1.51174 -5.71752 0
M  V30 5724 C 550.281 -2.35898 -6.63726 0
M  V30 5725 H 546.38 0.189307 -0.75874 0
M  V30 5726 H 548.964 -0.144899 -1.9416 0
M  V30 5727 H 547.135 1.9316 -3.36963 0
M  V30 5728 H 548.867 1.84548 -3.60172 0
M  V30 5729 H 545.622 0.172871 -4.73284 0
M  V30 5730 H 546.046 -1.71746 -6.54853 0
M  V30 5731 H 550.688 0.0275228 -4.22791 0
M  V30 5732 H 548.406 -2.97856 -7.51204 0
M  V30 5733 H 551.992 -1.5602 -5.6049 0
M  V30 5734 H 550.872 -3.04291 -7.22756 0
M  V30 5735 N 548.375 1.56261 0.205012 0
M  V30 5736 C 549.623 1.79684 0.925096 0
M  V30 5737 C 549.944 0.63989 1.84202 0
M  V30 5738 O 549.214 -0.342345 1.92885 0
M  V30 5739 H 547.794 0.662774 0.344587 0
M  V30 5740 H 550.456 1.93734 0.212899 0
M  V30 5741 H 549.552 2.72467 1.52211 0
M  V30 5742 N 549.853 -0.472356 1.50355 0
M  V30 5743 C 551.13 -1.23356 1.51798 0
M  V30 5744 C 551.51 -2.09469 0.26193 0
M  V30 5745 O 550.858 -2.15677 -0.754691 0
M  V30 5746 C 551.068 -2.06568 2.81302 0
M  V30 5747 C 552.416 -2.648 3.31913 0
M  V30 5748 O 553.44 -2.16812 2.82614 0
M  V30 5749 O 552.299 -3.52231 4.17846 0
M  V30 5750 H 549.393 -0.559707 0.608816 0
M  V30 5751 H 551.939 -0.48428 1.62643 0
M  V30 5752 H 550.711 -1.43103 3.64194 0
M  V30 5753 H 550.334 -2.88633 2.73454 0
M  V30 5754 N 551.331 -1.39911 -0.725443 0
M  V30 5755 C 552.279 -1.39552 -1.86086 0
M  V30 5756 C 553.273 -0.277334 -1.67114 0
M  V30 5757 O 554.479 -0.447865 -1.74339 0
M  V30 5758 H 550.854 -0.435993 -0.612711 0
M  V30 5759 H 552.825 -2.35305 -1.83505 0
M  V30 5760 C 551.574 -1.26529 -3.2386 0
M  V30 5761 H 550.897 -2.11845 -3.3906 0
M  V30 5762 H 552.337 -1.30336 -4.03471 0
M  V30 5763 C 550.796 0.0254168 -3.3689 0
M  V30 5764 O 551.326 0.992048 -3.89257 0
M  V30 5765 N 549.532 0.0916528 -2.90455 0
M  V30 5766 H 549.079 -0.695675 -2.48028 0
M  V30 5767 H 549.037 0.954745 -2.99553 0
M  V30 5768 N 552.809 0.956637 -1.25245 0
M  V30 5769 C 553.739 2.07058 -1.07931 0
M  V30 5770 C 554.72 1.70096 0.0110361 0
M  V30 5771 O 555.905 1.93555 -0.158121 0
M  V30 5772 C 553.035 3.40272 -0.695124 0
M  V30 5773 C 551.989 3.91235 -1.73549 0
M  V30 5774 C 551.315 5.20921 -1.20604 0
M  V30 5775 C 552.615 4.17837 -3.13385 0
M  V30 5776 H 554.309 2.218 -2.01109 0
M  V30 5777 H 551.855 1.06581 -0.968326 0
M  V30 5778 H 553.808 4.1765 -0.560949 0
M  V30 5779 H 552.532 3.25462 0.272355 0
M  V30 5780 H 551.191 3.16025 -1.85807 0
M  V30 5781 H 550.839 5.02479 -0.228846 0
M  V30 5782 H 550.539 5.55987 -1.90136 0
M  V30 5783 H 552.063 6.00897 -1.08421 0
M  V30 5784 H 553.477 4.8588 -3.04292 0
M  V30 5785 H 551.874 4.64154 -3.80369 0
M  V30 5786 H 552.944 3.2419 -3.60595 0
M  V30 5787 N 554.287 1.06798 1.15896 0
M  V30 5788 C 555.515 0.808694 1.90441 0
M  V30 5789 C 555.93 -0.637506 1.77711 0
M  V30 5790 O 555.287 -1.43684 1.12522 0
M  V30 5791 C 555.338 1.20068 3.40978 0
M  V30 5792 O 555.059 2.59013 3.53333 0
M  V30 5793 C 556.56 0.96987 4.3256 0
M  V30 5794 H 553.78 0.292809 0.603742 0
M  V30 5795 H 556.324 1.42296 1.46874 0
M  V30 5796 H 554.479 0.630842 3.82229 0
M  V30 5797 H 554.893 2.7485 4.46719 0
M  V30 5798 H 556.367 1.29371 5.36626 0
M  V30 5799 H 556.844 -0.0941209 4.39099 0
M  V30 5800 H 557.45 1.52433 3.97044 0
M  V30 5801 N 555.766 -1.3263 0.851289 0
M  V30 5802 C 557.182 -1.50162 0.5407 0
M  V30 5803 C 557.382 -1.78788 -0.929369 0
M  V30 5804 O 556.438 -1.85545 -1.71258 0
M  V30 5805 C 557.751 -2.64803 1.42478 0
M  V30 5806 C 559.299 -2.78688 1.42485 0
M  V30 5807 C 559.774 -3.96405 2.29407 0
M  V30 5808 N 561.265 -4.0366 2.27184 0
M  V30 5809 C 562 -4.93971 2.9117 0
M  V30 5810 N 561.496 -5.89313 3.64256 0
M  V30 5811 N 563.289 -4.87066 2.80576 0
M  V30 5812 H 555.44 -1.12315 1.80275 0
M  V30 5813 H 557.703 -0.553266 0.769806 0
M  V30 5814 H 557.409 -2.50368 2.46999 0
M  V30 5815 H 557.283 -3.60506 1.10974 0
M  V30 5816 H 559.67 -2.92547 0.387304 0
M  V30 5817 H 559.751 -1.83708 1.78002 0
M  V30 5818 H 559.395 -3.83304 3.33228 0
M  V30 5819 H 559.325 -4.90654 1.91224 0
M  V30 5820 H 561.816 -3.35435 1.74045 0
M  V30 5821 H 562.129 -6.54913 4.10255 0
M  V30 5822 H 560.474 -5.8935 3.68364 0
M  V30 5823 H 563.665 -4.11552 2.23031 0
M  V30 5824 H 563.838 -5.57248 3.30725 0
M  V30 5825 N 557.244 -0.608902 -1.45362 0
M  V30 5826 C 558.49 -0.104762 -2.02529 0
M  V30 5827 C 558.823 1.26191 -1.47613 0
M  V30 5828 O 558.098 1.8327 -0.65134 0
M  V30 5829 C 558.381 -0.0672661 -3.60037 0
M  V30 5830 C 558.234 -1.4647 -4.25284 0
M  V30 5831 C 559.553 0.619877 -4.35713 0
M  V30 5832 H 556.672 -0.0395438 -0.735938 0
M  V30 5833 H 559.314 -0.781126 -1.73201 0
M  V30 5834 H 557.464 0.50871 -3.85155 0
M  V30 5835 H 559.136 -2.08785 -4.11347 0
M  V30 5836 H 557.379 -2.02502 -3.83634 0
M  V30 5837 H 558.05 -1.39069 -5.34195 0
M  V30 5838 H 560.526 0.130297 -4.15896 0
M  V30 5839 H 559.402 0.615224 -5.45441 0
M  V30 5840 H 559.663 1.68621 -4.0868 0
M  V30 5841 N 558.722 1.53707 -0.348139 0
M  V30 5842 C 559.67 2.26671 0.521808 0
M  V30 5843 C 560.664 1.28988 1.09811 0
M  V30 5844 O 561.87 1.4668 1.04332 0
M  V30 5845 H 558.245 0.728387 0.186968 0
M  V30 5846 H 560.216 2.98176 -0.115563 0
M  V30 5847 C 558.965 3.05591 1.6586 0
M  V30 5848 H 558.288 3.80589 1.22443 0
M  V30 5849 H 559.728 3.59851 2.24239 0
M  V30 5850 C 558.187 2.15366 2.59073 0
M  V30 5851 O 558.717 1.7528 3.61441 0
M  V30 5852 N 556.923 1.80352 2.27863 0
M  V30 5853 H 556.47 2.13149 1.44656 0
M  V30 5854 H 556.428 1.20268 2.90488 0
M  V30 5855 N 560.2 0.0768682 1.57412 0
M  V30 5856 C 561.611 -0.455037 1.8107 0
M  V30 5857 C 561.962 -1.69323 0.991162 0
M  V30 5858 O 561.087 -2.15328 0.215156 0
M  V30 5859 C 561.682 -0.832316 3.28417 0
M  V30 5860 C 560.241 -1.30906 3.52903 0
M  V30 5861 C 559.388 -0.296714 2.75708 0
M  V30 5862 H 562.339 0.302514 1.5579 0
M  V30 5863 H 562.36 -1.69333 3.40744 0
M  V30 5864 H 561.872 0.0690532 3.88039 0
M  V30 5865 H 559.973 -2.22875 2.98592 0
M  V30 5866 H 560.086 -1.28348 4.61588 0
M  V30 5867 H 558.45 -0.775059 2.42621 0
M  V30 5868 H 559.233 0.597015 3.38069 0
M  V30 5869 N 561.678 -1.56367 -0.196722 0
M  V30 5870 C 562.925 -1.80529 -0.917366 0
M  V30 5871 C 563.253 -0.649817 -1.83324 0
M  V30 5872 O 562.508 0.36451 -1.92275 0
M  V30 5873 C 562.807 -3.10663 -1.767 0
M  V30 5874 C 562.473 -4.3962 -1.00225 0
M  V30 5875 C 561.135 -4.74653 -0.791095 0
M  V30 5876 C 563.487 -5.1913 -0.464035 0
M  V30 5877 C 560.815 -5.86692 -0.0302155 0
M  V30 5878 C 563.167 -6.31964 0.283625 0
M  V30 5879 C 561.831 -6.65581 0.505813 0
M  V30 5880 H 561.101 -0.660602 -0.335688 0
M  V30 5881 H 563.748 -1.90615 -0.183844 0
M  V30 5882 H 562.053 -2.95807 -2.56915 0
M  V30 5883 H 563.75 -3.26563 -2.32718 0
M  V30 5884 H 560.34 -4.12127 -1.17684 0
M  V30 5885 H 564.524 -4.9248 -0.614575 0
M  V30 5886 H 559.78 -6.11211 0.151917 0
M  V30 5887 H 563.954 -6.92791 0.708057 0
M  V30 5888 H 561.581 -7.52239 1.0973 0
M  V30 5889 N 563.156 0.464375 -1.50603 0
M  V30 5890 C 564.381 1.24372 -1.65971 0
M  V30 5891 C 564.806 1.84901 -0.345453 0
M  V30 5892 O 564.164 1.67596 0.691457 0
M  V30 5893 C 564.212 2.32331 -2.7578 0
M  V30 5894 O 563.316 3.37146 -2.375 0
M  V30 5895 H 562.657 0.365604 -0.554283 0
M  V30 5896 H 565.187 0.55183 -1.97018 0
M  V30 5897 H 565.197 2.77539 -2.99059 0
M  V30 5898 H 563.872 1.87648 -3.71162 0
M  V30 5899 H 562.449 2.97602 -2.24694 0
M  V30 5900 N 564.634 1.40294 0.718013 0
M  V30 5901 C 565.564 1.43118 1.84498 0
M  V30 5902 C 566.545 0.292403 1.67568 0
M  V30 5903 O 567.73 0.500675 1.87635 0
M  V30 5904 C 564.86 1.29065 3.22427 0
M  V30 5905 C 563.814 2.40521 3.54025 0
M  V30 5906 C 563.14 2.11546 4.91073 0
M  V30 5907 C 564.44 3.82859 3.55269 0
M  V30 5908 H 566.134 2.37432 1.82391 0
M  V30 5909 H 563.68 1.14283 0.87609 0
M  V30 5910 H 565.633 1.29658 4.00957 0
M  V30 5911 H 564.357 0.312271 3.25104 0
M  V30 5912 H 563.016 2.39173 2.77834 0
M  V30 5913 H 562.664 1.12104 4.90348 0
M  V30 5914 H 562.364 2.86216 5.1318 0
M  V30 5915 H 563.888 2.13817 5.71939 0
M  V30 5916 H 565.302 3.86044 4.23843 0
M  V30 5917 H 563.699 4.57029 3.88902 0
M  V30 5918 H 564.769 4.12617 2.54706 0
M  V30 5919 N 566.112 -0.949982 1.2575 0
M  V30 5920 C 567.528 -1.22191 1.02672 0
M  V30 5921 C 567.728 -1.99898 -0.253588 0
M  V30 5922 O 566.784 -2.33329 -0.965076 0
M  V30 5923 C 568.097 -1.99175 2.25277 0
M  V30 5924 C 569.645 -2.12201 2.30087 0
M  V30 5925 C 570.12 -2.92586 3.5236 0
M  V30 5926 N 571.611 -3.00163 3.52784 0
M  V30 5927 C 572.346 -3.62766 4.44059 0
M  V30 5928 N 571.842 -4.26943 5.45611 0
M  V30 5929 N 573.635 -3.59953 4.3173 0
M  V30 5930 H 565.786 -0.430258 2.07996 0
M  V30 5931 H 568.049 -0.252844 0.91366 0
M  V30 5932 H 567.755 -1.49479 3.18354 0
M  V30 5933 H 567.629 -2.99868 2.28821 0
M  V30 5934 H 570.016 -2.61093 1.3753 0
M  V30 5935 H 570.097 -1.10799 2.30559 0
M  V30 5936 H 569.741 -2.44383 4.45241 0
M  V30 5937 H 569.671 -3.94224 3.49134 0
M  V30 5938 H 572.162 -2.54529 2.79327 0
M  V30 5939 H 572.475 -4.72583 6.11461 0
M  V30 5940 H 570.82 -4.25557 5.49478 0
M  V30 5941 H 574.011 -3.09003 3.51617 0
M  V30 5942 H 574.184 -4.08455 5.03059 0
M  V30 5943 N 567.59 -1.07411 -1.15328 0
M  V30 5944 C 568.5 -0.706438 -2.23711 0
M  V30 5945 C 569.516 0.282586 -1.7169 0
M  V30 5946 O 570.692 0.129066 -2.00986 0
M  V30 5947 C 567.757 -0.11048 -3.46524 0
M  V30 5948 C 566.818 -1.15282 -4.13532 0
M  V30 5949 C 566.051 -0.585205 -5.30482 0
M  V30 5950 O 566.274 0.598549 -5.67251 0
M  V30 5951 O 565.208 -1.33039 -5.87013 0
M  V30 5952 H 569.034 -1.61031 -2.57493 0
M  V30 5953 H 566.619 -0.847113 -1.23062 0
M  V30 5954 H 568.501 0.21957 -4.20828 0
M  V30 5955 H 567.176 0.766703 -3.14489 0
M  V30 5956 H 566.083 -1.53523 -3.41147 0
M  V30 5957 H 567.416 -2.00192 -4.49649 0
M  V30 5958 N 569.068 1.32177 -0.85831 0
M  V30 5959 C 570.345 1.91781 -0.384624 0
M  V30 5960 C 570.725 1.78171 1.13217 0
M  V30 5961 O 570.073 1.18209 1.95548 0
M  V30 5962 C 570.283 3.38414 -0.853047 0
M  V30 5963 C 571.631 4.15542 -0.872359 0
M  V30 5964 O 572.655 3.47148 -0.797926 0
M  V30 5965 O 571.514 5.37678 -0.978009 0
M  V30 5966 H 568.608 0.819259 -0.112886 0
M  V30 5967 H 571.154 1.40923 -0.945453 0
M  V30 5968 H 569.926 3.4228 -1.89632 0
M  V30 5969 H 569.549 3.96683 -0.269874 0
M  V30 5970 N 570.547 0.616602 1.45037 0
M  V30 5971 C 571.477 -0.0840787 2.33349 0
M  V30 5972 C 572.458 -0.849641 1.4736 0
M  V30 5973 O 573.643 -0.818407 1.76113 0
M  V30 5974 C 570.773 -1.07604 3.3021 0
M  V30 5975 C 569.727 -0.423096 4.25904 0
M  V30 5976 C 569.053 -1.52394 5.12523 0
M  V30 5977 C 570.353 0.661457 5.18095 0
M  V30 5978 H 572.047 0.653333 2.92185 0
M  V30 5979 H 569.593 0.315634 1.40498 0
M  V30 5980 H 571.546 -1.57485 3.90866 0
M  V30 5981 H 570.27 -1.84416 2.69552 0
M  V30 5982 H 568.929 0.05493 3.66559 0
M  V30 5983 H 568.577 -2.28257 4.48227 0
M  V30 5984 H 568.277 -1.09251 5.77354 0
M  V30 5985 H 569.801 -2.02485 5.76049 0
M  V30 5986 H 571.215 0.246353 5.7277 0
M  V30 5987 H 569.612 1.01517 5.91451 0
M  V30 5988 H 570.682 1.53446 4.59981 0
M  V30 5989 N 572.025 -1.5352 0.356285 0
M  V30 5990 C 573.441 -1.59599 0.00485267 0
M  V30 5991 C 573.641 -1.37179 -1.47595 0
M  V30 5992 O 572.697 -1.17234 -2.23635 0
M  V30 5993 C 574.01 -2.97277 0.452454 0
M  V30 5994 C 575.558 -3.10357 0.405881 0
M  V30 5995 C 576.033 -4.50432 0.829148 0
M  V30 5996 N 577.524 -4.5652 0.783838 0
M  V30 5997 C 578.259 -5.63077 1.08315 0
M  V30 5998 N 577.755 -6.77429 1.45126 0
M  V30 5999 N 579.548 -5.53014 1.00655 0
M  V30 6000 H 571.699 -1.66346 1.32071 0
M  V30 6001 H 573.962 -0.77971 0.539218 0
M  V30 6002 H 573.668 -3.18792 1.48542 0
M  V30 6003 H 573.542 -3.76836 -0.165762 0
M  V30 6004 H 575.929 -2.88558 -0.617934 0
M  V30 6005 H 576.01 -2.32828 1.05947 0
M  V30 6006 H 575.654 -4.72968 1.85103 0
M  V30 6007 H 575.584 -5.26378 0.152906 0
M  V30 6008 H 578.075 -3.74408 0.512513 0
M  V30 6009 H 578.388 -7.54669 1.66415 0
M  V30 6010 H 576.733 -6.78844 1.48983 0
M  V30 6011 H 579.924 -4.62557 0.718215 0
M  V30 6012 H 580.097 -6.35964 1.24315 0
M  V30 6013 N 573.503 -0.0852151 -1.57369 0
M  V30 6014 C 574.751 0.579658 -1.93609 0
M  V30 6015 C 575.072 1.69332 -0.967043 0
M  V30 6016 O 574.342 1.95892 -0.0174215 0
M  V30 6017 H 572.922 0.217113 -0.714752 0
M  V30 6018 H 575.584 -0.146226 -1.94351 0
M  V30 6019 H 574.68 0.996276 -2.95771 0
M  V30 6020 N 574.981 1.5647 0.188427 0
M  V30 6021 C 576.229 1.80655 0.905986 0
M  V30 6022 C 576.55 0.659391 1.83513 0
M  V30 6023 O 575.82 -0.321868 1.93238 0
M  V30 6024 H 574.4 0.666391 0.337538 0
M  V30 6025 H 577.062 1.93949 0.192339 0
M  V30 6026 H 576.158 2.74066 1.49313 0
M  V30 6027 N 576.459 -0.456382 1.50847 0
M  V30 6028 C 577.406 -1.55249 1.70782 0
M  V30 6029 C 578.376 -1.56757 0.549231 0
M  V30 6030 O 579.561 -1.74061 0.7815 0
M  V30 6031 C 576.701 -2.93118 1.82143 0
M  V30 6032 C 575.814 -3.01285 3.09598 0
M  V30 6033 C 574.949 -4.30159 3.11667 0
M  V30 6034 C 573.988 -4.32124 4.33515 0
M  V30 6035 N 573.125 -5.52492 4.3324 0
M  V30 6036 H 577.965 -1.37555 2.64353 0
M  V30 6037 H 575.502 -0.668543 1.3103 0
M  V30 6038 H 577.46 -3.73088 1.86711 0
M  V30 6039 H 576.09 -3.09413 0.919978 0
M  V30 6040 H 575.142 -2.14096 3.14431 0
M  V30 6041 H 576.454 -2.98597 3.99551 0
M  V30 6042 H 575.608 -5.18489 3.15046 0
M  V30 6043 H 574.347 -4.35477 2.1957 0
M  V30 6044 H 573.352 -3.42189 4.30333 0
M  V30 6045 H 574.577 -4.28485 5.26856 0
M  V30 6046 H 572.523 -5.58567 3.44004 0
M  V30 6047 H 572.44 -5.51605 5.16979 0
M  V30 6048 H 573.708 -6.42906 4.40786 0
M  V30 6049 N 577.937 -1.40673 -0.710563 0
M  V30 6050 C 579.186 -1.38525 -1.46607 0
M  V30 6051 C 579.499 0.0077024 -1.95598 0
M  V30 6052 O 580.705 0.151792 -2.71075 0
M  V30 6053 C 579.161 -2.43489 -2.6503 0
M  V30 6054 C 578.769 -3.88619 -2.22888 0
M  V30 6055 C 580.513 -2.50456 -3.42742 0
M  V30 6056 C 578.42 -4.85168 -3.3818 0
M  V30 6057 H 577.35 -0.515092 -0.550632 0
M  V30 6058 H 580.001 -1.66431 -0.772846 0
M  V30 6059 H 578.383 -2.0869 -3.36548 0
M  V30 6060 H 579.557 -4.32588 -1.58758 0
M  V30 6061 H 577.872 -3.85174 -1.58208 0
M  V30 6062 H 580.469 -3.19776 -4.28541 0
M  V30 6063 H 580.812 -1.53665 -3.86902 0
M  V30 6064 H 581.345 -2.84271 -2.78271 0
M  V30 6065 H 578.084 -5.8331 -2.99047 0
M  V30 6066 H 577.604 -4.4586 -4.01209 0
M  V30 6067 H 579.283 -5.05225 -4.04174 0
M  V30 6068 N 579.415 0.9433 -1.26252 0
M  V30 6069 C 580.362 2.0417 -1.07625 0
M  V30 6070 C 581.332 1.6609 0.0180738 0
M  V30 6071 O 582.517 1.90276 -0.141289 0
M  V30 6072 C 579.657 3.37653 -0.713043 0
M  V30 6073 C 578.77 3.88783 -1.8834 0
M  V30 6074 C 577.905 5.10642 -1.4635 0
M  V30 6075 C 576.944 5.54028 -2.60229 0
M  V30 6076 N 576.081 6.67092 -2.18936 0
M  V30 6077 H 580.921 2.19436 -2.01623 0
M  V30 6078 H 578.458 1.07519 -1.00389 0
M  V30 6079 H 580.416 4.14391 -0.483358 0
M  V30 6080 H 579.046 3.22241 0.18996 0
M  V30 6081 H 578.098 3.08464 -2.22608 0
M  V30 6082 H 579.41 4.16922 -2.73821 0
M  V30 6083 H 578.564 5.94832 -1.19414 0
M  V30 6084 H 577.303 4.84244 -0.579568 0
M  V30 6085 H 576.308 4.68396 -2.87898 0
M  V30 6086 H 577.533 5.82429 -3.49219 0
M  V30 6087 H 575.479 6.42381 -1.32974 0
M  V30 6088 H 575.396 6.94806 -2.97961 0
M  V30 6089 H 576.664 7.54662 -1.95206 0
M  V30 6090 N 580.893 1.08022 1.14757 0
M  V30 6091 C 581.823 0.728248 2.21853 0
M  V30 6092 C 582.804 -0.287486 1.67653 0
M  V30 6093 O 583.989 -0.158727 1.9355 0
M  V30 6094 C 581.119 0.132549 3.47047 0
M  V30 6095 C 580.073 1.07619 4.14249 0
M  V30 6096 C 579.399 0.342907 5.33599 0
M  V30 6097 C 580.699 2.41268 4.63235 0
M  V30 6098 H 582.393 1.62365 2.51551 0
M  V30 6099 H 579.939 0.782125 1.20908 0
M  V30 6100 H 581.892 -0.125665 4.21213 0
M  V30 6101 H 580.616 -0.797971 3.16702 0
M  V30 6102 H 579.275 1.31944 3.42033 0
M  V30 6103 H 578.923 -0.59129 4.99513 0
M  V30 6104 H 578.623 0.971955 5.79506 0
M  V30 6105 H 580.147 0.0926538 6.1053 0
M  V30 6106 H 581.561 2.21232 5.28894 0
M  V30 6107 H 579.958 2.9983 5.19829 0
M  V30 6108 H 581.028 3.03079 3.78512 0
M  V30 6109 N 582.371 -1.3172 0.865308 0
M  V30 6110 C 583.301 -2.31109 0.333302 0
M  V30 6111 C 584.282 -1.60148 -0.573301 0
M  V30 6112 O 585.467 -1.87882 -0.491305 0
M  V30 6113 C 582.597 -3.44104 -0.470078 0
M  V30 6114 C 581.551 -4.26623 0.343021 0
M  V30 6115 C 580.877 -5.31482 -0.585756 0
M  V30 6116 C 582.177 -4.98001 1.57456 0
M  V30 6117 H 583.871 -2.75855 1.1638 0
M  V30 6118 H 581.417 -1.3262 0.561069 0
M  V30 6119 H 583.37 -4.12682 -0.852752 0
M  V30 6120 H 582.094 -2.98112 -1.33404 0
M  V30 6121 H 580.753 -3.59707 0.707583 0
M  V30 6122 H 580.401 -4.81741 -1.44686 0
M  V30 6123 H 580.101 -5.87582 -0.0456494 0
M  V30 6124 H 581.625 -6.0292 -0.965375 0
M  V30 6125 H 583.039 -5.59201 1.26359 0
M  V30 6126 H 581.436 -5.63876 2.05339 0
M  V30 6127 H 582.506 -4.25253 2.32997 0
M  V30 6128 N 583.85 -0.624285 -1.44708 0
M  V30 6129 C 585.127 -0.0572781 -1.95516 0
M  V30 6130 C 585.507 1.41516 -1.56641 0
M  V30 6131 O 584.855 2.12614 -0.837111 0
M  V30 6132 C 585.065 -0.272944 -3.47931 0
M  V30 6133 C 586.413 -0.162529 -4.24289 0
M  V30 6134 O 587.437 -0.203946 -3.55616 0
M  V30 6135 O 586.296 -0.0616847 -5.46465 0
M  V30 6136 H 583.389 0.0262219 -0.826584 0
M  V30 6137 H 585.936 -0.695512 -1.54793 0
M  V30 6138 H 584.707 -1.29492 -3.69253 0
M  V30 6139 H 584.331 0.399756 -3.95585 0
M  V30 6140 N 585.328 1.53329 -0.364422 0
M  V30 6141 C 586.556 2.05657 0.226424 0
M  V30 6142 C 586.971 1.23801 1.42544 0
M  V30 6143 O 586.328 0.27839 1.80364 0
M  V30 6144 C 586.379 3.56125 0.621056 0
M  V30 6145 O 586.1 4.34879 -0.530304 0
M  V30 6146 C 587.601 4.24706 1.27041 0
M  V30 6147 H 584.821 0.669806 0.0400056 0
M  V30 6148 H 587.365 1.97714 -0.522456 0
M  V30 6149 H 585.52 3.64223 1.31985 0
M  V30 6150 H 585.934 5.24073 -0.211546 0
M  V30 6151 H 587.408 5.3131 1.49711 0
M  V30 6152 H 587.885 3.78354 2.23036 0
M  V30 6153 H 588.491 4.20858 0.613079 0
M  V30 6154 N 586.806 0.0935595 1.57322 0
M  V30 6155 C 588.217 -0.435807 1.81542 0
M  V30 6156 C 588.568 -1.68263 1.00907 0
M  V30 6157 O 587.693 -2.15087 0.237983 0
M  V30 6158 C 588.288 -0.797436 3.29282 0
M  V30 6159 C 586.847 -1.27155 3.54272 0
M  V30 6160 C 585.994 -0.267455 2.76007 0
M  V30 6161 H 588.945 0.31902 1.5546 0
M  V30 6162 H 588.966 -1.6571 3.42521 0
M  V30 6163 H 588.478 0.110206 3.87943 0
M  V30 6164 H 586.579 -2.19696 3.00939 0
M  V30 6165 H 586.692 -1.23445 4.62923 0
M  V30 6166 H 585.056 -0.749282 2.43429 0
M  V30 6167 H 585.839 0.632839 3.37417 0
M  V30 6168 N 588.284 -1.56567 -0.180126 0
M  V30 6169 C 589.509 -1.85975 -0.918041 0
M  V30 6170 C 589.934 -0.678888 -1.75422 0
M  V30 6171 O 589.292 0.372168 -1.77439 0
M  V30 6172 C 589.34 -3.13731 -1.77779 0
M  V30 6173 O 588.444 -2.95335 -2.87838 0
M  V30 6174 H 587.785 -0.61196 -0.257683 0
M  V30 6175 H 590.315 -2.03798 -0.180923 0
M  V30 6176 H 590.325 -3.4491 -2.17948 0
M  V30 6177 H 589 -3.99293 -1.16352 0
M  V30 6178 H 587.577 -2.7549 -2.51316 0
M  V30 6179 N 589.762 0.448376 -1.51087 0
M  V30 6180 C 590.709 1.54341 -1.71603 0
M  V30 6181 C 591.679 1.56463 -0.557536 0
M  V30 6182 O 592.864 1.73644 -0.79072 0
M  V30 6183 C 590.004 2.92148 -1.83695 0
M  V30 6184 C 589.117 2.99639 -3.11192 0
M  V30 6185 C 588.252 4.285 -3.13944 0
M  V30 6186 C 587.291 4.29819 -4.35801 0
M  V30 6187 N 586.428 5.50186 -4.36164 0
M  V30 6188 H 591.268 1.36151 -2.65079 0
M  V30 6189 H 588.805 0.661585 -1.31383 0
M  V30 6190 H 590.763 3.72093 -1.88687 0
M  V30 6191 H 589.393 3.0892 -0.936374 0
M  V30 6192 H 588.445 2.12425 -3.15562 0
M  V30 6193 H 589.757 2.96474 -4.01129 0
M  V30 6194 H 588.911 5.16811 -3.17791 0
M  V30 6195 H 587.65 4.34307 -2.21876 0
M  V30 6196 H 586.655 3.39902 -4.32142 0
M  V30 6197 H 587.88 4.25685 -5.29121 0
M  V30 6198 H 585.826 5.56735 -3.46961 0
M  V30 6199 H 585.743 5.48856 -5.19897 0
M  V30 6200 H 587.011 6.40559 -4.44189 0
M  V30 6201 N 591.24 1.41047 0.703093 0
M  V30 6202 C 592.651 1.35657 1.28274 0
M  V30 6203 C 593.002 0.0360309 1.96167 0
M  V30 6204 O 592.127 -0.865833 1.98324 0
M  V30 6205 C 592.722 2.45707 2.33267 0
M  V30 6206 C 591.281 2.43738 2.86825 0
M  V30 6207 C 590.428 2.25941 1.60767 0
M  V30 6208 H 593.379 1.50672 0.49836 0
M  V30 6209 H 593.4 2.14333 3.14391 0
M  V30 6210 H 592.912 3.41805 1.83824 0
M  V30 6211 H 591.013 1.51375 3.40465 0
M  V30 6212 H 591.126 3.39779 3.37768 0
M  V30 6213 H 589.49 1.73681 1.86298 0
M  V30 6214 H 590.273 3.24054 1.1333 0
M  V30 6215 N 592.718 -0.936591 1.26751 0
M  V30 6216 C 593.964 -1.6858 1.12733 0
M  V30 6217 C 594.297 -1.91414 -0.327745 0
M  V30 6218 O 593.572 -1.49812 -1.24043 0
M  V30 6219 C 593.855 -3.05779 1.90187 0
M  V30 6220 C 593.708 -2.90242 3.43627 0
M  V30 6221 C 595.027 -4.0597 1.69931 0
M  V30 6222 H 592.146 -0.61182 0.410908 0
M  V30 6223 H 594.788 -1.08747 1.55801 0
M  V30 6224 H 592.938 -3.56853 1.53584 0
M  V30 6225 H 594.61 -2.46354 3.9001 0
M  V30 6226 H 592.853 -2.2577 3.70419 0
M  V30 6227 H 593.524 -3.87572 3.93055 0
M  V30 6228 H 596 -3.63874 2.0183 0
M  V30 6229 H 594.876 -4.99974 2.26534 0
M  V30 6230 H 595.137 -4.37369 0.64502 0
M  V30 6231 N 594.196 -1.08629 -1.14182 0
M  V30 6232 C 595.126 -0.740003 -2.21464 0
M  V30 6233 C 596.107 0.278591 -1.67803 0
M  V30 6234 O 597.292 0.148461 -1.93632 0
M  V30 6235 C 594.422 -0.150952 -3.46972 0
M  V30 6236 C 593.376 -1.09815 -4.13672 0
M  V30 6237 C 592.702 -0.3712 -5.3341 0
M  V30 6238 C 594.002 -2.43722 -4.61949 0
M  V30 6239 H 595.696 -1.63697 -2.50686 0
M  V30 6240 H 593.242 -0.788526 -1.20492 0
M  V30 6241 H 595.195 0.103325 -4.21273 0
M  V30 6242 H 593.919 0.781164 -3.1712 0
M  V30 6243 H 592.578 -1.33756 -3.41328 0
M  V30 6244 H 592.226 0.564792 -4.99819 0
M  V30 6245 H 591.926 -1.00267 -5.78982 0
M  V30 6246 H 593.45 -0.12503 -6.10472 0
M  V30 6247 H 594.864 -2.24034 -5.27714 0
M  V30 6248 H 593.261 -3.02582 -5.18232 0
M  V30 6249 H 594.331 -3.05082 -3.76899 0
M  V30 6250 N 595.674 1.31259 -0.872281 0
M  V30 6251 C 597.085 1.78822 -0.536617 0
M  V30 6252 C 597.436 1.71855 0.946594 0
M  V30 6253 O 596.561 1.28769 1.73918 0
M  V30 6254 C 597.156 3.24698 -0.967294 0
M  V30 6255 C 595.715 3.70147 -0.683251 0
M  V30 6256 C 594.862 2.51994 -1.15733 0
M  V30 6257 H 597.813 1.18308 -1.05777 0
M  V30 6258 H 597.834 3.79386 -0.290929 0
M  V30 6259 H 597.346 3.29737 -2.04683 0
M  V30 6260 H 595.447 3.70607 0.384825 0
M  V30 6261 H 595.56 4.62183 -1.2619 0
M  V30 6262 H 593.924 2.48078 -0.577024 0
M  V30 6263 H 594.707 2.59778 -2.24434 0
M  V30 6264 N 597.152 0.631951 1.44375 0
M  V30 6265 C 598.082 -0.0593243 2.33425 0
M  V30 6266 C 599.063 -0.833964 1.48253 0
M  V30 6267 O 600.248 -0.799682 1.76971 0
M  V30 6268 C 597.378 -1.04096 3.31333 0
M  V30 6269 C 596.332 -0.377899 4.26328 0
M  V30 6270 C 595.658 -1.4695 5.14111 0
M  V30 6271 C 596.958 0.716371 5.17364 0
M  V30 6272 H 598.652 0.684287 2.91475 0
M  V30 6273 H 596.198 0.330518 1.40156 0
M  V30 6274 H 598.151 -1.53331 3.92514 0
M  V30 6275 H 596.875 -1.81547 2.71493 0
M  V30 6276 H 595.534 0.0938054 3.6648 0
M  V30 6277 H 595.182 -2.2349 4.50623 0
M  V30 6278 H 594.882 -1.03121 5.78481 0
M  V30 6279 H 596.406 -1.96363 5.78164 0
M  V30 6280 H 597.82 0.307089 5.72477 0
M  V30 6281 H 596.217 1.07784 5.90341 0
M  V30 6282 H 597.287 1.58316 4.58327 0
M  V30 6283 N 598.631 -1.53133 0.372548 0
M  V30 6284 C 599.877 -2.01654 -0.215277 0
M  V30 6285 C 600.21 -1.25914 -1.47849 0
M  V30 6286 O 599.485 -0.3548 -1.91237 0
M  V30 6287 C 599.768 -3.56609 -0.500187 0
M  V30 6288 C 599.621 -4.43036 0.777145 0
M  V30 6289 C 600.94 -4.20528 -1.29786 0
M  V30 6290 H 598.059 -0.732991 -0.0767686 0
M  V30 6291 H 600.701 -1.83335 0.498814 0
M  V30 6292 H 598.851 -3.7235 -1.10852 0
M  V30 6293 H 600.523 -4.39079 1.41447 0
M  V30 6294 H 598.766 -4.10723 1.39604 0
M  V30 6295 H 599.437 -5.49424 0.532662 0
M  V30 6296 H 601.913 -4.08663 -0.783198 0
M  V30 6297 H 600.789 -5.28962 -1.46596 0
M  V30 6298 H 601.05 -3.77051 -2.30836 0
M  V30 6299 N 600.109 -0.101901 -1.5727 0
M  V30 6300 C 601.52 0.426173 -1.81771 0
M  V30 6301 C 601.871 1.67725 -1.01797 0
M  V30 6302 O 600.996 2.14958 -0.249386 0
M  V30 6303 C 601.591 0.779962 -3.297 0
M  V30 6304 C 600.15 1.25275 -3.54941 0
M  V30 6305 C 599.297 0.252814 -2.76145 0
M  V30 6306 H 602.248 -0.32726 -1.55289 0
M  V30 6307 H 602.269 1.63891 -3.43395 0
M  V30 6308 H 601.781 -0.130778 -3.8788 0
M  V30 6309 H 599.882 2.18097 -3.021 0
M  V30 6310 H 599.995 1.20988 -4.63572 0
M  V30 6311 H 598.359 0.736362 -2.43823 0
M  V30 6312 H 599.142 -0.650724 -3.37076 0
M  V30 6313 N 601.587 1.56661 0.17182 0
M  V30 6314 C 602.998 1.71652 0.734329 0
M  V30 6315 C 603.349 0.712335 1.82812 0
M  V30 6316 O 602.474 -0.126401 2.16031 0
M  V30 6317 C 603.069 3.11226 1.3388 0
M  V30 6318 C 601.628 3.27904 1.84813 0
M  V30 6319 C 600.775 2.67603 0.726917 0
M  V30 6320 H 603.726 1.5861 -0.0535665 0
M  V30 6321 H 603.747 3.09849 2.20849 0
M  V30 6322 H 603.259 3.8429 0.54249 0
M  V30 6323 H 601.36 2.59796 2.6709 0
M  V30 6324 H 601.473 4.35637 1.99392 0
M  V30 6325 H 599.837 2.274 1.14723 0
M  V30 6326 H 600.62 3.43252 -0.0575334 0
M  V30 6327 N 603.065 -0.440357 1.51323 0
M  V30 6328 C 604.29 -1.21716 1.67928 0
M  V30 6329 C 604.715 -1.84328 0.374826 0
M  V30 6330 O 604.073 -1.68675 -0.664706 0
M  V30 6331 C 604.121 -2.27914 2.79442 0
M  V30 6332 O 603.225 -3.33325 2.42834 0
M  V30 6333 H 602.566 -0.35674 0.560029 0
M  V30 6334 H 605.096 -0.520417 1.97871 0
M  V30 6335 H 605.106 -2.72746 3.03436 0
M  V30 6336 H 603.781 -1.8172 3.741 0
M  V30 6337 H 602.358 -2.9399 2.294 0
M  V30 6338 N 604.543 -1.41418 -0.695603 0
M  V30 6339 C 605.954 -1.36335 -1.27552 0
M  V30 6340 C 606.305 -0.0464336 -1.96145 0
M  V30 6341 O 605.43 0.855304 -1.9878 0
M  V30 6342 C 606.025 -2.46941 -2.3196 0
M  V30 6343 C 604.584 -2.45256 -2.85529 0
M  V30 6344 C 603.731 -2.2679 -1.59566 0
M  V30 6345 H 606.682 -1.50934 -0.490362 0
M  V30 6346 H 606.703 -2.15997 -3.1325 0
M  V30 6347 H 606.215 -3.42775 -1.82008 0
M  V30 6348 H 604.316 -1.53179 -3.39657 0
M  V30 6349 H 604.429 -3.41565 -3.35961 0
M  V30 6350 H 602.793 -1.74667 -1.85374 0
M  V30 6351 H 603.576 -3.24651 -1.1161 0
M  V30 6352 N 606.021 0.929856 -1.27246 0
M  V30 6353 C 607.268 1.67731 -1.13457 0
M  V30 6354 C 607.596 1.9185 0.319998 0
M  V30 6355 O 606.851 1.50524 1.25064 0
M  V30 6356 C 607.15 3.05116 -1.86115 0
M  V30 6357 C 606.816 3.00715 -3.35978 0
M  V30 6358 C 605.478 2.99222 -3.76855 0
M  V30 6359 C 607.83 2.92168 -4.3161 0
M  V30 6360 C 605.158 2.86962 -5.11732 0
M  V30 6361 C 607.51 2.81449 -5.66542 0
M  V30 6362 C 606.174 2.78305 -6.06715 0
M  V30 6363 H 605.444 0.613772 -0.415168 0
M  V30 6364 H 608.091 1.08456 -1.57827 0
M  V30 6365 H 606.396 3.68083 -1.34246 0
M  V30 6366 H 608.093 3.61822 -1.72876 0
M  V30 6367 H 604.683 3.02664 -3.03468 0
M  V30 6368 H 608.867 2.92421 -4.01003 0
M  V30 6369 H 604.123 2.82913 -5.42006 0
M  V30 6370 H 608.297 2.738 -6.40317 0
M  V30 6371 H 605.924 2.68561 -7.11181 0
M  V30 6372 N 607.499 1.09233 1.13605 0
M  V30 6373 C 608.91 0.846839 1.6639 0
M  V30 6374 C 609.261 -0.625031 1.85978 0
M  V30 6375 O 608.386 -1.48173 1.57714 0
M  V30 6376 C 608.981 1.5307 3.0225 0
M  V30 6377 C 607.54 1.33223 3.52035 0
M  V30 6378 C 606.687 1.58806 2.27323 0
M  V30 6379 H 609.638 1.25175 0.975541 0
M  V30 6380 H 609.659 0.96267 3.68121 0
M  V30 6381 H 609.171 2.60192 2.87961 0
M  V30 6382 H 607.272 0.282091 3.71531 0
M  V30 6383 H 607.385 2.0657 4.32279 0
M  V30 6384 H 605.749 1.01007 2.33815 0
M  V30 6385 H 606.532 2.67153 2.15602 0
M  V30 6386 N 608.977 -1.30795 0.87923 0
M  V30 6387 C 610.202 -2.01063 0.508769 0
M  V30 6388 C 610.627 -1.65508 -0.893803 0
M  V30 6389 O 609.985 -0.868616 -1.59138 0
M  V30 6390 C 610.033 -3.54054 0.683991 0
M  V30 6391 O 609.137 -4.11498 -0.272654 0
M  V30 6392 H 608.478 -0.632786 0.201191 0
M  V30 6393 H 611.008 -1.66776 1.18519 0
M  V30 6394 H 611.018 -4.03845 0.580798 0
M  V30 6395 H 609.693 -3.79271 1.70665 0
M  V30 6396 H 608.27 -3.72695 -0.12364 0
M  V30 6397 N 610.455 -0.639598 -1.44038 0
M  V30 6398 C 611.683 -0.154811 -2.0632 0
M  V30 6399 C 612.098 1.17406 -1.47856 0
M  V30 6400 O 611.455 1.72193 -0.604638 0
M  V30 6401 C 611.506 -0.0429958 -3.61474 0
M  V30 6402 O 611.227 -1.31932 -4.17763 0
M  V30 6403 C 612.728 0.469486 -4.40807 0
M  V30 6404 H 609.948 -0.0835862 -0.665773 0
M  V30 6405 H 612.492 -0.876397 -1.84769 0
M  V30 6406 H 610.647 0.629075 -3.82258 0
M  V30 6407 H 611.061 -1.16965 -5.11292 0
M  V30 6408 H 612.535 0.496712 -5.49761 0
M  V30 6409 H 613.012 1.49819 -4.12857 0
M  V30 6410 H 613.618 -0.169624 -4.24962 0
M  V30 6411 N 611.933 1.52934 -0.380664 0
M  V30 6412 C 612.865 2.23822 0.493581 0
M  V30 6413 C 613.878 1.25761 1.03383 0
M  V30 6414 O 615.067 1.5189 0.937633 0
M  V30 6415 C 612.167 2.9342 1.69582 0
M  V30 6416 C 611.34 4.18115 1.28445 0
M  V30 6417 C 610.399 4.70788 2.35042 0
M  V30 6418 O 609.425 5.34093 1.96807 0
M  V30 6419 N 610.627 4.49899 3.66839 0
M  V30 6420 H 613.392 2.99484 -0.11371 0
M  V30 6421 H 610.953 1.60577 -0.206587 0
M  V30 6422 H 612.945 3.2556 2.40401 0
M  V30 6423 H 611.515 2.21119 2.20965 0
M  V30 6424 H 610.735 3.92109 0.405503 0
M  V30 6425 H 612.023 4.99152 0.986132 0
M  V30 6426 H 611.421 3.99349 4.0067 0
M  V30 6427 H 609.978 4.86551 4.33718 0
M  V30 6428 N 613.412 0.11024 1.57214 0
M  V30 6429 C 614.342 -0.840002 2.17867 0
M  V30 6430 C 615.323 -1.28352 1.11624 0
M  V30 6431 O 616.508 -1.3477 1.39824 0
M  V30 6432 C 613.638 -2.09349 2.77111 0
M  V30 6433 C 612.592 -1.78807 3.8886 0
M  V30 6434 C 611.918 -3.11112 4.34872 0
M  V30 6435 C 613.218 -1.0632 5.11364 0
M  V30 6436 H 614.912 -0.334608 2.97524 0
M  V30 6437 H 612.458 -0.159502 1.43114 0
M  V30 6438 H 614.411 -2.76275 3.18198 0
M  V30 6439 H 613.135 -2.62198 1.9473 0
M  V30 6440 H 611.794 -1.14273 3.48335 0
M  V30 6441 H 611.442 -3.61877 3.49362 0
M  V30 6442 H 611.142 -2.91453 5.10224 0
M  V30 6443 H 612.666 -3.79171 4.78604 0
M  V30 6444 H 614.08 -1.63383 5.49526 0
M  V30 6445 H 612.477 -0.967876 5.92243 0
M  V30 6446 H 613.547 -0.0484569 4.84876 0
M  V30 6447 N 614.89 -1.56749 -0.16351 0
M  V30 6448 C 616.301 -1.72039 -0.725216 0
M  V30 6449 C 616.652 -0.72202 -1.82432 0
M  V30 6450 O 615.777 0.114942 -2.16095 0
M  V30 6451 C 616.372 -3.11932 -1.32227 0
M  V30 6452 C 614.931 -3.28879 -1.83072 0
M  V30 6453 C 614.078 -2.67984 -0.712716 0
M  V30 6454 H 617.029 -1.58579 0.0619772 0
M  V30 6455 H 617.05 -3.11015 -2.19202 0
M  V30 6456 H 616.562 -3.84572 -0.522103 0
M  V30 6457 H 614.663 -2.61209 -2.65708 0
M  V30 6458 H 614.776 -4.36688 -1.97079 0
M  V30 6459 H 613.14 -2.28005 -1.13515 0
M  V30 6460 H 613.923 -3.43216 0.0757361 0
M  V30 6461 N 616.368 0.432326 -1.51554 0
M  V30 6462 C 617.298 1.53242 -1.76179 0
M  V30 6463 C 618.279 1.58717 -0.611801 0
M  V30 6464 O 619.464 1.74364 -0.855033 0
M  V30 6465 C 616.594 2.91278 -1.89141 0
M  V30 6466 C 615.548 3.00663 -3.04608 0
M  V30 6467 C 614.874 4.40728 -3.02759 0
M  V30 6468 C 616.174 2.74281 -4.44485 0
M  V30 6469 H 617.868 1.32886 -2.68294 0
M  V30 6470 H 615.414 0.637841 -1.29103 0
M  V30 6471 H 617.367 3.68203 -2.04951 0
M  V30 6472 H 616.091 3.12877 -0.936785 0
M  V30 6473 H 614.75 2.26179 -2.88511 0
M  V30 6474 H 614.398 4.59301 -2.05065 0
M  V30 6475 H 614.098 4.47936 -3.80299 0
M  V30 6476 H 615.622 5.19619 -3.20669 0
M  V30 6477 H 617.036 3.40936 -4.60907 0
M  V30 6478 H 615.433 2.92893 -5.23769 0
M  V30 6479 H 616.503 1.69856 -4.54177 0
M  V30 6480 N 617.846 1.41785 0.688094 0
M  V30 6481 C 619.092 1.41753 1.4503 0
M  V30 6482 C 619.425 0.0290745 1.94178 0
M  V30 6483 O 618.7 -0.944456 1.7003 0
M  V30 6484 C 618.983 2.43069 2.65686 0
M  V30 6485 C 618.836 3.91053 2.22256 0
M  V30 6486 C 620.155 2.41543 3.67893 0
M  V30 6487 H 617.274 0.516202 0.526027 0
M  V30 6488 H 619.916 1.73111 0.783105 0
M  V30 6489 H 618.066 2.1646 3.2261 0
M  V30 6490 H 619.738 4.28594 1.70602 0
M  V30 6491 H 617.981 4.05559 1.53963 0
M  V30 6492 H 618.652 4.57501 3.08863 0
M  V30 6493 H 621.128 2.65175 3.20658 0
M  V30 6494 H 620.004 3.14434 4.49914 0
M  V30 6495 H 620.265 1.43666 4.18106 0
M  V30 6496 N 619.324 -0.923095 1.27737 0
M  V30 6497 C 620.552 -1.70525 1.17171 0
M  V30 6498 C 620.967 -1.86847 -0.270881 0
M  V30 6499 O 620.324 -1.38879 -1.18401 0
M  V30 6500 C 620.375 -3.10242 1.85559 0
M  V30 6501 O 620.096 -2.94683 3.24182 0
M  V30 6502 C 621.597 -4.04586 1.81176 0
M  V30 6503 H 618.817 -0.533347 0.407163 0
M  V30 6504 H 621.361 -1.15599 1.68692 0
M  V30 6505 H 619.516 -3.62014 1.3793 0
M  V30 6506 H 619.93 -3.83045 3.58297 0
M  V30 6507 H 621.404 -5.00119 2.33633 0
M  V30 6508 H 621.881 -4.3218 0.782099 0
M  V30 6509 H 622.487 -3.58741 2.2844 0
M  V30 6510 N 620.802 -1.09834 -1.13024 0
M  V30 6511 C 622.03 -0.858902 -1.8823 0
M  V30 6512 C 622.445 0.590164 -1.79339 0
M  V30 6513 O 621.802 1.4065 -1.16292 0
M  V30 6514 C 621.853 -1.29066 -3.37675 0
M  V30 6515 O 621.574 -2.6829 -3.46341 0
M  V30 6516 C 623.075 -1.08421 -4.29837 0
M  V30 6517 H 620.295 -0.308713 -0.595766 0
M  V30 6518 H 622.839 -1.4614 -1.4305 0
M  V30 6519 H 620.994 -0.731961 -3.80422 0
M  V30 6520 H 621.408 -2.86598 -4.39274 0
M  V30 6521 H 622.882 -1.43553 -5.33007 0
M  V30 6522 H 623.359 -0.0223315 -4.39194 0
M  V30 6523 H 623.965 -1.62907 -3.92863 0
M  V30 6524 N 622.28 1.30327 -0.886154 0
M  V30 6525 C 623.691 1.78243 -0.555554 0
M  V30 6526 C 624.042 1.72849 0.928314 0
M  V30 6527 O 623.167 1.30607 1.72542 0
M  V30 6528 C 623.762 3.23654 -1.00168 0
M  V30 6529 C 622.321 3.69401 -0.722471 0
M  V30 6530 C 621.468 2.50753 -1.18399 0
M  V30 6531 H 624.419 1.1718 -1.07026 0
M  V30 6532 H 624.44 3.79056 -0.331152 0
M  V30 6533 H 623.952 3.27548 -2.08169 0
M  V30 6534 H 622.053 3.70995 0.345496 0
M  V30 6535 H 622.166 4.60818 -1.31085 0
M  V30 6536 H 620.53 2.47452 -0.603303 0
M  V30 6537 H 621.313 2.57383 -2.27176 0
M  V30 6538 N 623.758 0.647228 1.43697 0
M  V30 6539 C 624.668 -0.0487997 2.34549 0
M  V30 6540 C 625.684 -0.818586 1.53542 0
M  V30 6541 O 626.86 -0.767195 1.86215 0
M  V30 6542 C 623.925 -1.00734 3.31743 0
M  V30 6543 C 622.986 -0.23515 4.28655 0
M  V30 6544 C 622.219 -1.14803 5.21206 0
M  V30 6545 O 622.442 -2.38717 5.18045 0
M  V30 6546 O 621.376 -0.623667 5.9866 0
M  V30 6547 H 625.202 0.698863 2.9555 0
M  V30 6548 H 622.787 0.407412 1.43738 0
M  V30 6549 H 624.669 -1.55837 3.91526 0
M  V30 6550 H 623.344 -1.73534 2.73254 0
M  V30 6551 H 622.251 0.359319 3.7237 0
M  V30 6552 H 623.584 0.453152 4.9011 0
M  V30 6553 N 625.236 -1.5273 0.388769 0
M  V30 6554 C 626.464 -2.05992 -0.193677 0
M  V30 6555 C 626.879 -1.26053 -1.40557 0
M  V30 6556 O 626.236 -0.307049 -1.79898 0
M  V30 6557 C 626.287 -3.57068 -0.564321 0
M  V30 6558 O 626.008 -4.3398 0.599422 0
M  V30 6559 C 627.509 -4.26674 -1.20269 0
M  V30 6560 H 624.729 -0.670358 -0.0293445 0
M  V30 6561 H 627.273 -1.96857 0.553844 0
M  V30 6562 H 625.428 -3.66277 -1.26174 0
M  V30 6563 H 625.842 -5.2367 0.294895 0
M  V30 6564 H 627.316 -5.33625 -1.4124 0
M  V30 6565 H 627.793 -3.81854 -2.16989 0
M  V30 6566 H 628.399 -4.2178 -0.546047 0
M  V30 6567 N 626.714 -0.118576 -1.57153 0
M  V30 6568 C 627.644 0.828436 -2.1831 0
M  V30 6569 C 628.625 1.27758 -1.12303 0
M  V30 6570 O 629.81 1.34026 -1.40537 0
M  V30 6571 C 626.94 2.07876 -2.78217 0
M  V30 6572 C 625.894 1.76742 -3.89803 0
M  V30 6573 C 625.22 3.08801 -4.36516 0
M  V30 6574 C 626.52 1.03606 -5.11921 0
M  V30 6575 H 628.214 0.318824 -2.97698 0
M  V30 6576 H 625.76 0.151911 -1.43196 0
M  V30 6577 H 627.713 2.74584 -3.19659 0
M  V30 6578 H 626.437 2.61161 -1.96118 0
M  V30 6579 H 625.096 1.12424 -3.48936 0
M  V30 6580 H 624.744 3.6002 -3.51276 0
M  V30 6581 H 624.444 2.88743 -5.11763 0
M  V30 6582 H 625.968 3.76627 -4.80608 0
M  V30 6583 H 627.382 1.60467 -5.50385 0
M  V30 6584 H 625.779 0.936454 -5.92748 0
M  V30 6585 H 626.849 0.0227421 -4.84895 0
M  V30 6586 N 628.193 1.56834 0.155195 0
M  V30 6587 C 629.439 1.83169 0.870467 0
M  V30 6588 C 629.772 0.698929 1.81187 0
M  V30 6589 O 629.047 -0.298035 1.92203 0
M  V30 6590 C 629.33 3.19965 1.65211 0
M  V30 6591 C 629.183 4.43792 0.732744 0
M  V30 6592 C 630.502 3.53885 2.61636 0
M  V30 6593 H 627.621 0.666288 0.315006 0
M  V30 6594 H 630.263 1.89513 0.135988 0
M  V30 6595 H 628.413 3.14687 2.27825 0
M  V30 6596 H 630.085 4.61148 0.118236 0
M  V30 6597 H 628.328 4.3378 0.0417906 0
M  V30 6598 H 628.999 5.36095 1.31552 0
M  V30 6599 H 631.475 3.5972 2.09143 0
M  V30 6600 H 630.351 4.50648 3.13381 0
M  V30 6601 H 630.612 2.79418 3.42605 0
M  V30 6602 N 629.671 -0.424282 1.51781 0
M  V30 6603 C 630.603 -1.53457 1.70246 0
M  V30 6604 C 631.616 -1.52004 0.582967 0
M  V30 6605 O 632.805 -1.56544 0.857683 0
M  V30 6606 C 629.905 -2.92368 1.71389 0
M  V30 6607 C 629.078 -3.1818 3.00133 0
M  V30 6608 C 628.137 -4.36884 2.9329 0
M  V30 6609 O 627.163 -4.34901 3.67219 0
M  V30 6610 N 628.365 -5.4117 2.10036 0
M  V30 6611 H 631.13 -1.38017 2.66029 0
M  V30 6612 H 628.691 -0.613394 1.4983 0
M  V30 6613 H 630.683 -3.6982 1.64362 0
M  V30 6614 H 629.253 -3.0134 0.831449 0
M  V30 6615 H 628.473 -2.28908 3.20928 0
M  V30 6616 H 629.761 -3.32261 3.85331 0
M  V30 6617 H 629.159 -5.45623 1.49373 0
M  V30 6618 H 627.716 -6.17425 2.08878 0
M  V30 6619 N 631.149 -1.42148 -0.680565 0
M  V30 6620 C 632.56 -1.3768 -1.26099 0
M  V30 6621 C 632.911 -0.0672348 -1.96085 0
M  V30 6622 O 632.036 0.834172 -1.99676 0
M  V30 6623 C 632.631 -2.49387 -2.29328 0
M  V30 6624 C 631.19 -2.4827 -2.82911 0
M  V30 6625 C 630.337 -2.2847 -1.57152 0
M  V30 6626 H 633.288 -1.51446 -0.474326 0
M  V30 6627 H 633.309 -2.19307 -3.10941 0
M  V30 6628 H 632.821 -3.44686 -1.78363 0
M  V30 6629 H 630.922 -1.56773 -3.38013 0
M  V30 6630 H 631.035 -3.45109 -3.3232 0
M  V30 6631 H 629.399 -1.76623 -1.83511 0
M  V30 6632 H 630.182 -3.25816 -1.0816 0
M  V30 6633 N 632.627 0.916307 -1.28225 0
M  V30 6634 C 633.875 1.6619 -1.15002 0
M  V30 6635 C 634.196 1.92642 0.302329 0
M  V30 6636 O 633.466 1.54076 1.20985 0
M  V30 6637 H 632.046 0.615964 -0.422608 0
M  V30 6638 H 634.708 1.09963 -1.60917 0
M  V30 6639 H 633.804 2.62533 -1.68769 0
M  V30 6640 N 634.105 1.10431 1.1244 0
M  V30 6641 C 635.333 0.868872 1.87772 0
M  V30 6642 C 635.748 -0.580645 1.7965 0
M  V30 6643 O 635.105 -1.40031 1.17036 0
M  V30 6644 C 635.156 1.30855 3.36986 0
M  V30 6645 O 634.877 2.70123 3.44914 0
M  V30 6646 C 636.378 1.107 4.29256 0
M  V30 6647 H 633.598 0.311868 0.59412 0
M  V30 6648 H 636.142 1.46897 1.42273 0
M  V30 6649 H 634.297 0.752126 3.80029 0
M  V30 6650 H 634.711 2.88923 4.37748 0
M  V30 6651 H 636.185 1.46378 5.32238 0
M  V30 6652 H 636.662 0.0456228 4.39176 0
M  V30 6653 H 637.268 1.64988 3.91994 0
M  V30 6654 N 635.583 -1.29855 0.893053 0
M  V30 6655 C 636.994 -1.77946 0.564998 0
M  V30 6656 C 637.345 -1.73339 -0.919134 0
M  V30 6657 O 636.47 -1.3152 -1.71847 0
M  V30 6658 C 637.065 -3.23118 1.01883 0
M  V30 6659 C 635.624 -3.69013 0.742051 0
M  V30 6660 C 634.771 -2.50121 1.19727 0
M  V30 6661 H 637.722 -1.16611 1.07646 0
M  V30 6662 H 637.743 -3.78875 0.351249 0
M  V30 6663 H 637.255 -3.26439 2.09903 0
M  V30 6664 H 635.356 -3.71173 -0.325816 0
M  V30 6665 H 635.469 -4.60117 1.33527 0
M  V30 6666 H 633.833 -2.47128 0.616418 0
M  V30 6667 H 634.616 -2.56174 2.28538 0
M  V30 6668 N 637.061 -0.65484 -1.43351 0
M  V30 6669 C 638.024 0.0263562 -2.29185 0
M  V30 6670 C 639.024 0.748951 -1.42293 0
M  V30 6671 O 640.214 0.589957 -1.63906 0
M  V30 6672 C 637.346 1.04806 -3.2439 0
M  V30 6673 H 638.539 -0.728883 -2.90908 0
M  V30 6674 H 636.092 -0.416149 -1.50658 0
M  V30 6675 H 636.827 1.83247 -2.67565 0
M  V30 6676 H 636.612 0.533554 -3.88453 0
M  V30 6677 H 638.102 1.52372 -3.88809 0
M  V30 6678 N 638.539 1.52521 -0.396863 0
M  V30 6679 C 639.955 1.5953 -0.0471659 0
M  V30 6680 C 640.155 1.41044 1.43906 0
M  V30 6681 O 639.211 1.23122 2.20448 0
M  V30 6682 C 640.524 2.95972 -0.531113 0
M  V30 6683 C 642.072 3.09172 -0.488024 0
M  V30 6684 C 642.547 4.48075 -0.948281 0
M  V30 6685 N 644.038 4.54281 -0.9046 0
M  V30 6686 C 644.773 5.60007 -1.23205 0
M  V30 6687 N 644.269 6.73343 -1.63036 0
M  V30 6688 N 646.062 5.50151 -1.15282 0
M  V30 6689 H 638.213 1.62786 -1.36435 0
M  V30 6690 H 640.476 0.76514 -0.559701 0
M  V30 6691 H 640.182 3.14741 -1.56942 0
M  V30 6692 H 640.056 3.77143 0.0657922 0
M  V30 6693 H 642.443 2.90095 0.541211 0
M  V30 6694 H 642.524 2.29937 -1.12083 0
M  V30 6695 H 642.168 4.67894 -1.97578 0
M  V30 6696 H 642.098 5.25788 -0.292412 0
M  V30 6697 H 644.589 3.72918 -0.6116 0
M  V30 6698 H 644.902 7.49992 -1.86365 0
M  V30 6699 H 643.247 6.74655 -1.66929 0
M  V30 6700 H 646.438 4.6049 -0.840602 0
M  V30 6701 H 646.611 6.32444 -1.41133 0
M  V30 6702 N 640.017 0.126909 1.57088 0
M  V30 6703 C 641.433 -0.229641 1.57939 0
M  V30 6704 C 641.633 -1.66145 1.1401 0
M  V30 6705 O 640.689 -2.3843 0.831119 0
M  V30 6706 C 642.002 0.0108648 3.00698 0
M  V30 6707 C 643.55 -0.054418 3.12953 0
M  V30 6708 C 644.025 0.158497 4.57726 0
M  V30 6709 N 645.516 0.104735 4.63082 0
M  V30 6710 C 646.251 0.24427 5.72879 0
M  V30 6711 N 645.747 0.440415 6.91399 0
M  V30 6712 N 647.54 0.183286 5.61801 0
M  V30 6713 H 639.691 1.06203 1.83942 0
M  V30 6714 H 641.954 0.418834 0.85046 0
M  V30 6715 H 641.66 1.00102 3.37154 0
M  V30 6716 H 641.534 -0.717512 3.70313 0
M  V30 6717 H 643.921 -1.0351 2.7635 0
M  V30 6718 H 644.002 0.705967 2.45865 0
M  V30 6719 H 643.646 1.13619 4.95028 0
M  V30 6720 H 643.576 -0.62197 5.22914 0
M  V30 6721 H 646.067 -0.0430298 3.77876 0
M  V30 6722 H 646.38 0.537536 7.70928 0
M  V30 6723 H 644.725 0.476488 6.93365 0
M  V30 6724 H 647.916 0.0309561 4.6809 0
M  V30 6725 H 648.089 0.295471 6.47326 0
M  V30 6726 N 641.495 -1.56914 -0.146875 0
M  V30 6727 C 642.735 -1.85163 -0.86568 0
M  V30 6728 C 643.099 -0.711215 -1.78342 0
M  V30 6729 O 644.3 -0.874754 -2.54168 0
M  V30 6730 C 642.571 -3.18593 -1.61967 0
M  V30 6731 S 644.13 -3.68397 -2.38388 0
M  V30 6732 H 640.948 -0.6494 -0.289483 0
M  V30 6733 H 643.55 -1.95096 -0.125679 0
M  V30 6734 H 642.254 -3.99562 -0.93694 0
M  V30 6735 H 641.785 -3.11666 -2.40058 0
M  V30 6736 H 643.8 -3.37672 -3.63582 0
M  V30 6737 N 642.974 0.416227 -1.52004 0
M  V30 6738 C 644.39 0.754319 -1.40649 0
M  V30 6739 C 644.59 1.95059 -0.505392 0
M  V30 6740 O 643.646 2.5248 0.0315057 0
M  V30 6741 C 644.959 1.0149 -2.83055 0
M  V30 6742 C 646.507 1.11805 -2.9235 0
M  V30 6743 C 646.982 1.41144 -4.35709 0
M  V30 6744 N 648.473 1.48024 -4.38911 0
M  V30 6745 C 649.208 1.72338 -5.46889 0
M  V30 6746 N 648.704 1.94303 -6.64995 0
M  V30 6747 N 650.497 1.74294 -5.34395 0
M  V30 6748 H 642.648 -0.371324 -2.09129 0
M  V30 6749 H 644.911 -0.103811 -0.942299 0
M  V30 6750 H 644.617 0.208345 -3.51082 0
M  V30 6751 H 644.491 1.93697 -3.23668 0
M  V30 6752 H 646.878 1.91521 -2.24508 0
M  V30 6753 H 646.959 0.17451 -2.55204 0
M  V30 6754 H 646.603 0.619484 -5.04108 0
M  V30 6755 H 646.533 2.36739 -4.70385 0
M  V30 6756 H 649.024 1.32868 -3.53772 0
M  V30 6757 H 649.337 2.12286 -7.43071 0
M  V30 6758 H 647.682 1.91582 -6.68073 0
M  V30 6759 H 650.873 1.56667 -4.41104 0
M  V30 6760 H 651.046 1.92904 -6.18621 0
M  V30 6761 N 644.452 1.42507 0.673017 0
M  V30 6762 C 645.677 1.4668 1.46627 0
M  V30 6763 C 646.102 0.080066 1.8793 0
M  V30 6764 O 645.46 -0.921879 1.56112 0
M  V30 6765 C 645.508 2.40091 2.69051 0
M  V30 6766 O 644.612 1.8735 3.67387 0
M  V30 6767 H 643.953 0.496908 0.44043 0
M  V30 6768 H 646.483 1.87215 0.825334 0
M  V30 6769 H 646.493 2.56731 3.17101 0
M  V30 6770 H 645.168 3.4084 2.3833 0
M  V30 6771 H 643.745 1.80274 3.26429 0
M  V30 6772 N 645.93 -0.909495 1.28709 0
M  V30 6773 C 646.86 -2.0291 1.15542 0
M  V30 6774 C 647.841 -1.7002 0.0521017 0
M  V30 6775 O 649.026 -1.92835 0.229849 0
M  V30 6776 C 646.156 -3.37458 0.820935 0
M  V30 6777 C 645.11 -3.84524 1.87949 0
M  V30 6778 C 644.436 -5.16086 1.39854 0
M  V30 6779 C 645.736 -4.05918 3.28676 0
M  V30 6780 H 647.43 -2.14183 2.09203 0
M  V30 6781 H 644.976 -1.02913 1.00722 0
M  V30 6782 H 646.929 -4.1528 0.715571 0
M  V30 6783 H 645.653 -3.26249 -0.151374 0
M  V30 6784 H 644.312 -3.08911 1.97408 0
M  V30 6785 H 643.96 -5.01284 0.41518 0
M  V30 6786 H 643.66 -5.48547 2.1064 0
M  V30 6787 H 645.184 -5.96459 1.30649 0
M  V30 6788 H 646.598 -4.74252 3.22115 0
M  V30 6789 H 644.995 -4.49717 3.97334 0
M  V30 6790 H 646.065 -3.10583 3.72379 0
M  V30 6791 N 647.408 -1.11026 -1.11852 0
M  V30 6792 C 648.819 -0.873203 -1.65021 0
M  V30 6793 C 649.17 0.595364 -1.86949 0
M  V30 6794 O 648.295 1.45645 -1.60051 0
M  V30 6795 C 648.89 -1.57859 -2.99777 0
M  V30 6796 C 647.449 -1.38807 -3.49871 0
M  V30 6797 C 646.596 -1.62403 -2.24768 0
M  V30 6798 H 649.547 -1.26712 -0.955503 0
M  V30 6799 H 649.568 -1.02111 -3.66543 0
M  V30 6800 H 649.08 -2.6474 -2.83786 0
M  V30 6801 H 647.181 -0.341163 -3.71035 0
M  V30 6802 H 647.294 -2.13421 -4.28938 0
M  V30 6803 H 645.658 -1.04714 -2.32179 0
M  V30 6804 H 646.441 -2.70549 -2.11324 0
M  V30 6805 N 648.886 1.2938 -0.899927 0
M  V30 6806 C 650.111 2.00228 -0.540692 0
M  V30 6807 C 650.536 1.66909 0.867359 0
M  V30 6808 O 649.894 0.893824 1.57735 0
M  V30 6809 C 649.942 3.52921 -0.740232 0
M  V30 6810 O 649.046 4.11879 0.207154 0
M  V30 6811 H 648.387 0.629505 -0.211233 0
M  V30 6812 H 650.917 1.6487 -1.21158 0
M  V30 6813 H 650.927 4.0287 -0.644973 0
M  V30 6814 H 649.602 3.76508 -1.76677 0
M  V30 6815 H 648.179 3.72845 0.0643315 0
M  V30 6816 N 650.364 0.662433 1.43002 0
M  V30 6817 C 651.589 0.186003 2.06564 0
M  V30 6818 C 652.014 -1.14314 1.49379 0
M  V30 6819 O 651.372 -1.70824 0.607346 0
M  V30 6820 C 651.42 0.118269 3.60406 0
M  V30 6821 O 650.524 -0.916859 4.02079 0
M  V30 6822 H 649.865 0.0990981 0.656563 0
M  V30 6823 H 652.395 0.907958 1.8335 0
M  V30 6824 H 652.405 -0.0619981 4.07953 0
M  V30 6825 H 651.08 1.08849 4.01403 0
M  V30 6826 H 649.657 -0.708635 3.66105 0
M  V30 6827 N 651.842 -1.52309 0.404946 0
M  V30 6828 C 653.253 -1.86585 -0.0655926 0
M  V30 6829 C 653.604 -1.3239 -1.44801 0
M  V30 6830 O 652.729 -0.6615 -2.06042 0
M  V30 6831 C 653.324 -3.38566 -0.125801 0
M  V30 6832 C 651.883 -3.72497 -0.540666 0
M  V30 6833 C 651.03 -2.75806 0.287487 0
M  V30 6834 H 653.981 -1.45995 0.622185 0
M  V30 6835 H 654.002 -3.68658 -0.941888 0
M  V30 6836 H 653.514 -3.77981 0.880473 0
M  V30 6837 H 651.615 -3.38659 -1.55373 0
M  V30 6838 H 651.728 -4.78234 -0.287956 0
M  V30 6839 H 650.092 -2.53474 -0.249561 0
M  V30 6840 H 650.875 -3.18059 1.29203 0
M  V30 6841 N 653.32 -0.135238 -1.57019 0
M  V30 6842 C 654.23 0.822226 -2.19719 0
M  V30 6843 C 655.246 1.28057 -1.17802 0
M  V30 6844 O 656.422 1.3402 -1.50335 0
M  V30 6845 C 653.487 2.0484 -2.79717 0
M  V30 6846 C 652.548 1.64042 -3.96723 0
M  V30 6847 C 651.781 2.80814 -4.53849 0
M  V30 6848 O 652.004 3.967 -4.0986 0
M  V30 6849 O 650.938 2.56963 -5.44292 0
M  V30 6850 H 654.764 0.318552 -3.02025 0
M  V30 6851 H 652.349 0.0912021 -1.49121 0
M  V30 6852 H 654.231 2.76622 -3.17897 0
M  V30 6853 H 652.906 2.54182 -2.00432 0
M  V30 6854 H 651.813 0.893182 -3.63281 0
M  V30 6855 H 653.146 1.19426 -4.77492 0
M  V30 6856 N 654.798 1.5699 0.138552 0
M  V30 6857 C 655.728 2.01933 1.17241 0
M  V30 6858 C 656.709 0.90033 1.44319 0
M  V30 6859 O 657.894 1.16872 1.55095 0
M  V30 6860 C 655.024 2.40711 2.50351 0
M  V30 6861 C 653.978 3.55874 2.37776 0
M  V30 6862 C 653.304 3.80491 3.75674 0
M  V30 6863 C 654.604 4.8826 1.85472 0
M  V30 6864 H 656.298 2.88551 0.798672 0
M  V30 6865 H 653.844 1.3882 0.382743 0
M  V30 6866 H 655.797 2.70754 3.22909 0
M  V30 6867 H 654.521 1.5104 2.89576 0
M  V30 6868 H 653.18 3.2601 1.67669 0
M  V30 6869 H 652.828 2.88057 4.12349 0
M  V30 6870 H 652.528 4.57998 3.68119 0
M  V30 6871 H 654.052 4.12967 4.49767 0
M  V30 6872 H 655.466 5.16965 2.4783 0
M  V30 6873 H 653.863 5.69631 1.88787 0
M  V30 6874 H 654.933 4.78071 0.810935 0
M  V30 6875 N 656.276 -0.40816 1.52223 0
M  V30 6876 C 657.687 -0.986929 1.58482 0
M  V30 6877 C 658.038 -1.91521 0.425917 0
M  V30 6878 O 657.163 -2.11593 -0.453593 0
M  V30 6879 C 657.758 -1.7967 2.87235 0
M  V30 6880 C 656.317 -2.32549 2.9597 0
M  V30 6881 C 655.464 -1.12558 2.53428 0
M  V30 6882 H 658.415 -0.188362 1.57578 0
M  V30 6883 H 658.436 -2.65417 2.72642 0
M  V30 6884 H 657.948 -1.12082 3.71563 0
M  V30 6885 H 656.049 -3.03505 2.16137 0
M  V30 6886 H 656.162 -2.63348 4.00231 0
M  V30 6887 H 654.526 -1.47984 2.07299 0
M  V30 6888 H 655.309 -0.465351 3.40131 0
M  V30 6889 N 657.755 -1.42862 -0.66545 0
M  V30 6890 C 659.171 -1.25993 -0.979687 0
M  V30 6891 C 659.371 -0.170831 -2.00775 0
M  V30 6892 O 658.427 0.454827 -2.4837 0
M  V30 6893 C 659.74 -2.62005 -1.47559 0
M  V30 6894 C 661.288 -2.69437 -1.59288 0
M  V30 6895 C 661.763 -4.05838 -2.12272 0
M  V30 6896 N 663.254 -4.0784 -2.19592 0
M  V30 6897 C 663.989 -5.10205 -2.61684 0
M  V30 6898 N 663.485 -6.22949 -3.03161 0
M  V30 6899 N 665.278 -4.9756 -2.61516 0
M  V30 6900 H 657.429 -2.12395 0.0150493 0
M  V30 6901 H 659.692 -0.946355 -0.0558187 0
M  V30 6902 H 659.398 -3.42605 -0.794654 0
M  V30 6903 H 659.272 -2.86566 -2.45275 0
M  V30 6904 H 661.659 -1.89178 -2.26486 0
M  V30 6905 H 661.74 -2.48655 -0.600374 0
M  V30 6906 H 661.384 -4.86559 -1.4568 0
M  V30 6907 H 661.314 -4.23977 -3.12331 0
M  V30 6908 H 663.805 -3.26452 -1.90361 0
M  V30 6909 H 664.118 -6.96899 -3.33993 0
M  V30 6910 H 662.463 -6.2644 -3.00995 0
M  V30 6911 H 665.654 -4.08551 -2.28481 0
M  V30 6912 H 665.827 -5.77468 -2.93999 0
M  V30 6913 N 659.233 0.902656 -1.29189 0
M  V30 6914 C 660.649 1.18296 -1.07137 0
M  V30 6915 C 660.849 2.00701 0.179223 0
M  V30 6916 O 659.905 2.3675 0.877812 0
M  V30 6917 C 661.218 1.90677 -2.32514 0
M  V30 6918 C 662.766 2.03515 -2.37804 0
M  V30 6919 C 663.241 2.79307 -3.62976 0
M  V30 6920 N 664.732 2.86862 -3.63681 0
M  V30 6921 C 665.467 3.46035 -4.57217 0
M  V30 6922 N 664.963 4.06399 -5.61081 0
M  V30 6923 N 666.756 3.43681 -4.44792 0
M  V30 6924 H 658.907 0.352765 -2.0945 0
M  V30 6925 H 661.17 0.21876 -0.922414 0
M  V30 6926 H 660.876 1.3756 -3.23682 0
M  V30 6927 H 660.75 2.91169 -2.39793 0
M  V30 6928 H 663.137 2.55809 -1.47125 0
M  V30 6929 H 663.218 1.02166 -2.34512 0
M  V30 6930 H 662.862 2.2769 -4.54004 0
M  V30 6931 H 662.792 3.80995 -3.63525 0
M  V30 6932 H 665.283 2.43987 -2.88581 0
M  V30 6933 H 665.596 4.49564 -6.2858 0
M  V30 6934 H 663.941 4.0487 -5.64894 0
M  V30 6935 H 667.132 2.9574 -3.62843 0
M  V30 6936 H 667.305 3.89503 -5.17872 0
M  V30 6937 N 660.711 1.11618 1.11262 0
M  V30 6938 C 661.644 0.719995 2.16544 0
M  V30 6939 C 662.622 -0.28471 1.60088 0
M  V30 6940 O 663.806 -0.180693 1.87632 0
M  V30 6941 C 660.933 0.0643302 3.38639 0
M  V30 6942 C 659.979 1.03448 4.13764 0
M  V30 6943 S 660.812 2.55789 4.70459 0
M  V30 6944 C 661.968 1.91529 5.95875 0
M  V30 6945 H 662.201 1.61181 2.49816 0
M  V30 6946 H 659.734 0.934401 1.22916 0
M  V30 6947 H 661.692 -0.307609 4.09346 0
M  V30 6948 H 660.353 -0.804471 3.03623 0
M  V30 6949 H 659.546 0.523188 5.01277 0
M  V30 6950 H 659.148 1.34893 3.48826 0
M  V30 6951 H 661.44 1.25286 6.65815 0
M  V30 6952 H 662.383 2.77047 6.51652 0
M  V30 6953 H 662.791 1.37468 5.47506 0
M  V30 6954 N 662.189 -1.289 0.906776 0
M  V30 6955 C 663.099 -2.31256 0.394707 0
M  V30 6956 C 664.115 -1.66231 -0.514121 0
M  V30 6957 O 665.291 -1.97347 -0.401994 0
M  V30 6958 C 662.356 -3.44792 -0.363191 0
M  V30 6959 C 661.417 -4.25391 0.578012 0
M  V30 6960 C 660.65 -5.33506 -0.143811 0
M  V30 6961 O 660.873 -5.53786 -1.36665 0
M  V30 6962 O 659.807 -5.99673 0.5173 0
M  V30 6963 H 663.633 -2.77051 1.24405 0
M  V30 6964 H 661.218 -1.33466 0.671346 0
M  V30 6965 H 663.1 -4.139 -0.791503 0
M  V30 6966 H 661.775 -3.01093 -1.18848 0
M  V30 6967 H 660.682 -3.58899 1.05558 0
M  V30 6968 H 662.015 -4.72752 1.36992 0
M  V30 6969 N 663.667 -0.670007 -1.42649 0
M  V30 6970 C 664.895 -0.19854 -2.05945 0
M  V30 6971 C 665.31 1.14243 -1.50313 0
M  V30 6972 O 664.667 1.70872 -0.641027 0
M  V30 6973 C 664.718 -0.11966 -3.61302 0
M  V30 6974 O 664.439 -1.40764 -4.1487 0
M  V30 6975 C 665.94 0.375878 -4.41704 0
M  V30 6976 H 663.16 -0.0976894 -0.663851 0
M  V30 6977 H 665.704 -0.915392 -1.82868 0
M  V30 6978 H 663.859 0.547851 -3.83507 0
M  V30 6979 H 664.273 -1.27784 -5.08696 0
M  V30 6980 H 665.747 0.379988 -5.50691 0
M  V30 6981 H 666.224 1.41028 -4.15942 0
M  V30 6982 H 666.83 -0.259727 -4.24506 0
M  V30 6983 N 665.145 1.52092 -0.413018 0
M  V30 6984 C 666.108 2.25706 0.398687 0
M  V30 6985 C 667.108 1.28221 0.970368 0
M  V30 6986 O 668.298 1.52131 0.848635 0
M  V30 6987 C 665.43 3.03029 1.5616 0
M  V30 6988 H 666.623 2.98888 -0.246131 0
M  V30 6989 H 664.176 1.5542 -0.165622 0
M  V30 6990 H 664.911 2.34205 2.24317 0
M  V30 6991 H 664.696 3.74606 1.15812 0
M  V30 6992 H 666.186 3.58857 2.13569 0
M  V30 6993 N 666.623 0.143563 1.56945 0
M  V30 6994 C 667.553 -0.7936 2.196 0
M  V30 6995 C 668.534 -1.25955 1.14321 0
M  V30 6996 O 669.719 -1.31773 1.42651 0
M  V30 6997 C 666.849 -2.03424 2.81489 0
M  V30 6998 C 665.803 -1.70519 3.92565 0
M  V30 6999 C 665.129 -3.01817 4.41373 0
M  V30 7000 C 666.429 -0.95449 5.13504 0
M  V30 7001 H 668.123 -0.271423 2.98167 0
M  V30 7002 H 665.669 -0.12911 1.4342 0
M  V30 7003 H 667.622 -2.69463 3.23987 0
M  V30 7004 H 666.346 -2.58008 2.00248 0
M  V30 7005 H 665.005 -1.06859 3.5068 0
M  V30 7006 H 664.653 -3.54386 3.56959 0
M  V30 7007 H 664.353 -2.80565 5.16292 0
M  V30 7008 H 665.877 -3.68934 4.86539 0
M  V30 7009 H 667.291 -1.5169 5.52868 0
M  V30 7010 H 665.688 -0.842035 5.94163 0
M  V30 7011 H 666.758 0.0544033 4.84869 0
M  V30 7012 N 668.101 -1.57061 -0.130224 0
M  V30 7013 C 669.512 -1.73539 -0.68856 0
M  V30 7014 C 669.863 -0.760554 -1.80859 0
M  V30 7015 O 668.988 0.0690796 -2.1629 0
M  V30 7016 C 669.583 -3.14666 -1.25581 0
M  V30 7017 C 668.142 -3.32689 -1.76055 0
M  V30 7018 C 667.289 -2.69436 -0.655712 0
M  V30 7019 H 670.24 -1.58412 0.0956002 0
M  V30 7020 H 670.261 -3.15595 -2.12556 0
M  V30 7021 H 669.773 -3.85593 -0.440412 0
M  V30 7022 H 667.874 -2.66786 -2.60108 0
M  V30 7023 H 667.987 -4.4077 -1.87772 0
M  V30 7024 H 666.351 -2.30362 -1.08654 0
M  V30 7025 H 667.134 -3.42979 0.14852 0
M  V30 7026 N 669.579 0.400081 -1.52437 0
M  V30 7027 C 670.827 1.14392 -1.6661 0
M  V30 7028 C 671.148 1.90792 -0.402927 0
M  V30 7029 O 670.418 1.87042 0.582425 0
M  V30 7030 H 668.998 0.425275 -0.614125 0
M  V30 7031 H 671.66 0.455076 -1.89513 0
M  V30 7032 H 670.756 1.85298 -2.51139 0
M  V30 7033 N 671.057 1.43213 0.657864 0
M  V30 7034 C 672.468 1.39669 1.23893 0
M  V30 7035 C 672.819 0.0984217 1.95953 0
M  V30 7036 O 671.944 -0.8023 2.00978 0
M  V30 7037 C 672.539 2.53004 2.25332 0
M  V30 7038 C 671.098 2.5274 2.78926 0
M  V30 7039 C 670.245 2.30941 1.53497 0
M  V30 7040 H 673.196 1.52181 0.450172 0
M  V30 7041 H 673.217 2.24226 3.07413 0
M  V30 7042 H 672.729 3.4748 1.72856 0
M  V30 7043 H 670.83 1.6213 3.35477 0
M  V30 7044 H 670.943 3.50352 3.26787 0
M  V30 7045 H 669.307 1.7952 1.80678 0
M  V30 7046 H 670.09 3.27496 1.02963 0
M  V30 7047 N 672.536 -0.895792 1.29666 0
M  V30 7048 C 673.784 -1.64339 1.17631 0
M  V30 7049 C 674.105 -1.93099 -0.271643 0
M  V30 7050 O 673.375 -1.55981 -1.18518 0
M  V30 7051 H 671.955 -0.609162 0.432354 0
M  V30 7052 H 674.617 -1.07389 1.62646 0
M  V30 7053 H 673.713 -2.59815 1.72924 0
M  V30 7054 N 674.014 -1.12206 -1.10668 0
M  V30 7055 C 675.425 -0.890657 -1.64086 0
M  V30 7056 C 675.776 0.575502 -1.8757 0
M  V30 7057 O 674.901 1.4394 -1.61587 0
M  V30 7058 C 675.496 -1.61029 -2.98085 0
M  V30 7059 C 674.055 -1.4251 -3.48379 0
M  V30 7060 C 673.202 -1.64778 -2.23033 0
M  V30 7061 H 676.153 -1.27718 -0.94201 0
M  V30 7062 H 676.174 -1.05993 -3.65439 0
M  V30 7063 H 675.686 -2.67735 -2.80962 0
M  V30 7064 H 673.787 -0.380497 -3.70652 0
M  V30 7065 H 673.9 -2.17959 -4.26651 0
M  V30 7066 H 672.264 -1.07171 -2.31055 0
M  V30 7067 H 673.047 -2.72776 -2.08443 0
M  V30 7068 N 675.492 1.28418 -0.913599 0
M  V30 7069 C 676.903 1.77024 -0.593237 0
M  V30 7070 C 677.254 1.74779 0.891441 0
M  V30 7071 O 676.379 1.34237 1.69733 0
M  V30 7072 C 676.974 3.21456 -1.07011 0
M  V30 7073 C 675.533 3.67786 -0.800664 0
M  V30 7074 C 674.68 2.48185 -1.23691 0
M  V30 7075 H 677.631 1.14883 -1.09487 0
M  V30 7076 H 677.652 3.78269 -0.411481 0
M  V30 7077 H 677.164 3.23058 -2.1507 0
M  V30 7078 H 675.265 3.71644 0.266725 0
M  V30 7079 H 675.378 4.57934 -1.4083 0
M  V30 7080 H 673.742 2.46116 -0.655655 0
M  V30 7081 H 674.525 2.52506 -2.32585 0
M  V30 7082 N 676.97 0.677563 1.42291 0
M  V30 7083 C 677.933 0.0101085 2.29198 0
M  V30 7084 C 678.933 -0.726219 1.43467 0
M  V30 7085 O 680.123 -0.563807 1.64824 0
M  V30 7086 C 677.255 -0.996316 3.26016 0
M  V30 7087 H 678.448 0.775071 2.89711 0
M  V30 7088 H 676.001 0.440065 1.49977 0
M  V30 7089 H 676.736 -1.78967 2.70446 0
M  V30 7090 H 676.521 -0.471687 3.89253 0
M  V30 7091 H 678.011 -1.46167 3.91184 0
M  V30 7092 N 678.448 -1.51871 0.421078 0
M  V30 7093 C 679.694 -2.02237 -0.151014 0
M  V30 7094 C 680.027 -1.30554 -1.43768 0
M  V30 7095 O 679.302 -0.41546 -1.90011 0
M  V30 7096 C 679.585 -3.5802 -0.386482 0
M  V30 7097 C 679.438 -4.40339 0.9177 0
M  V30 7098 C 680.757 -4.24444 -1.16342 0
M  V30 7099 H 677.876 -0.735062 -0.0534102 0
M  V30 7100 H 680.518 -1.81656 0.556888 0
M  V30 7101 H 678.668 -3.75688 -0.989494 0
M  V30 7102 H 680.34 -4.34357 1.55344 0
M  V30 7103 H 678.583 -4.06073 1.526 0
M  V30 7104 H 679.254 -5.47451 0.707187 0
M  V30 7105 H 681.73 -4.10948 -0.652788 0
M  V30 7106 H 680.606 -5.33358 -1.29693 0
M  V30 7107 H 680.867 -3.84204 -2.18724 0
M  V30 7108 N 679.926 -0.151884 -1.56866 0
M  V30 7109 C 681.174 0.497021 -1.95893 0
M  V30 7110 C 681.495 1.65078 -1.03799 0
M  V30 7111 O 680.765 1.95642 -0.10049 0
M  V30 7112 H 679.345 0.186603 -0.723318 0
M  V30 7113 H 682.007 -0.228525 -1.93556 0
M  V30 7114 H 681.103 0.869933 -2.99731 0
M  V30 7115 N 681.404 1.57128 0.121893 0
M  V30 7116 C 682.815 1.73902 0.679348 0
M  V30 7117 C 683.166 0.770135 1.80453 0
M  V30 7118 O 682.291 -0.0576083 2.16323 0
M  V30 7119 C 682.886 3.15328 1.2391 0
M  V30 7120 C 681.445 3.33618 1.74288 0
M  V30 7121 C 680.592 2.6978 0.641414 0
M  V30 7122 H 683.543 1.58359 -0.104 0
M  V30 7123 H 683.564 3.16718 2.10879 0
M  V30 7124 H 683.076 3.85821 0.419957 0
M  V30 7125 H 681.177 2.68162 2.58689 0
M  V30 7126 H 681.29 4.4176 1.85432 0
M  V30 7127 H 679.654 2.30935 1.0743 0
M  V30 7128 H 680.437 3.42895 -0.166707 0
M  V30 7129 N 682.882 -0.391992 1.52647 0
M  V30 7130 C 684.107 -1.16312 1.71716 0
M  V30 7131 C 684.532 -1.83042 0.433279 0
M  V30 7132 O 683.89 -1.70705 -0.610707 0
M  V30 7133 C 683.938 -2.18908 2.86551 0
M  V30 7134 O 683.042 -3.2543 2.53316 0
M  V30 7135 H 682.383 -0.338743 0.571095 0
M  V30 7136 H 684.913 -0.457202 1.99426 0
M  V30 7137 H 684.923 -2.62954 3.1196 0
M  V30 7138 H 683.598 -1.69726 3.79692 0
M  V30 7139 H 682.175 -2.86543 2.38637 0
M  V30 7140 N 684.36 -1.4356 -0.65026 0
M  V30 7141 C 685.323 -1.48615 -1.74489 0
M  V30 7142 C 686.323 -0.370483 -1.56474 0
M  V30 7143 O 687.513 -0.632351 -1.62317 0
M  V30 7144 C 684.645 -1.34161 -3.13391 0
M  V30 7145 H 685.838 -2.46103 -1.71387 0
M  V30 7146 H 683.391 -1.30369 -0.862186 0
M  V30 7147 H 684.126 -0.376918 -3.22102 0
M  V30 7148 H 683.911 -2.1504 -3.27872 0
M  V30 7149 H 685.401 -1.40637 -3.93206 0
M  V30 7150 N 685.838 0.888903 -1.30139 0
M  V30 7151 C 686.748 2.02705 -1.18101 0
M  V30 7152 C 687.764 1.73702 -0.101809 0
M  V30 7153 O 688.94 1.98906 -0.315984 0
M  V30 7154 C 686.005 3.35616 -0.869651 0
M  V30 7155 C 685.066 3.78067 -2.03381 0
M  V30 7156 C 684.299 5.04635 -1.73721 0
M  V30 7157 O 684.522 5.66531 -0.663267 0
M  V30 7158 O 683.456 5.43399 -2.58845 0
M  V30 7159 H 687.282 2.15788 -2.13704 0
M  V30 7160 H 684.867 1.01426 -1.09695 0
M  V30 7161 H 686.749 4.15358 -0.711043 0
M  V30 7162 H 685.424 3.23651 0.0565002 0
M  V30 7163 H 684.331 2.99046 -2.24772 0
M  V30 7164 H 685.664 3.94631 -2.94155 0
M  V30 7165 N 687.317 1.12792 1.10072 0
M  V30 7166 C 688.227 0.812369 2.20086 0
M  V30 7167 C 689.243 -0.200349 1.72843 0
M  V30 7168 O 690.419 -0.0330262 2.01373 0
M  V30 7169 C 687.484 0.275685 3.45602 0
M  V30 7170 C 686.545 1.34881 4.07561 0
M  V30 7171 C 685.778 0.837639 5.27086 0
M  V30 7172 O 686.001 -0.327224 5.69461 0
M  V30 7173 O 684.935 1.60894 5.79997 0
M  V30 7174 H 688.761 1.73133 2.49517 0
M  V30 7175 H 686.346 0.904863 1.18881 0
M  V30 7176 H 688.228 -0.0185375 4.21396 0
M  V30 7177 H 686.903 -0.615783 3.17789 0
M  V30 7178 H 685.81 1.69625 3.33434 0
M  V30 7179 H 687.143 2.21418 4.39585 0
M  V30 7180 N 688.795 -1.27931 0.920396 0
M  V30 7181 C 689.742 -2.27085 0.412422 0
M  V30 7182 C 690.712 -1.57858 -0.516725 0
M  V30 7183 O 691.897 -1.85717 -0.437475 0
M  V30 7184 C 689.037 -3.43466 -0.335399 0
M  V30 7185 C 688.15 -4.27425 0.627017 0
M  V30 7186 C 687.285 -5.31016 -0.139916 0
M  V30 7187 C 686.324 -6.06641 0.815683 0
M  V30 7188 N 685.461 -7.02052 0.0818439 0
M  V30 7189 H 690.301 -2.69913 1.26298 0
M  V30 7190 H 687.838 -1.32732 0.634076 0
M  V30 7191 H 689.796 -4.09744 -0.785226 0
M  V30 7192 H 688.426 -3.01611 -1.15025 0
M  V30 7193 H 687.478 -3.6113 1.19537 0
M  V30 7194 H 688.79 -4.79969 1.35763 0
M  V30 7195 H 687.944 -6.03208 -0.649998 0
M  V30 7196 H 686.683 -4.79257 -0.903543 0
M  V30 7197 H 685.688 -5.33294 1.33708 0
M  V30 7198 H 686.913 -6.60489 1.57897 0
M  V30 7199 H 684.859 -6.52634 -0.663671 0
M  V30 7200 H 684.776 -7.52249 0.752163 0
M  V30 7201 H 686.044 -7.78432 -0.407825 0
M  V30 7202 N 690.273 -0.685099 -1.4193 0
M  V30 7203 C 691.206 0.0371639 -2.2817 0
M  V30 7204 C 692.184 0.798436 -1.41647 0
M  V30 7205 O 693.368 0.791428 -1.71081 0
M  V30 7206 C 690.495 1.05993 -3.21688 0
M  V30 7207 C 689.541 0.393043 -4.24685 0
M  V30 7208 S 690.374 -0.856921 -5.28599 0
M  V30 7209 C 691.53 0.164508 -6.25684 0
M  V30 7210 H 691.763 -0.694305 -2.89079 0
M  V30 7211 H 689.296 -0.474999 -1.46912 0
M  V30 7212 H 691.254 1.64489 -3.76103 0
M  V30 7213 H 689.915 1.7639 -2.59895 0
M  V30 7214 H 689.108 1.16513 -4.90348 0
M  V30 7215 H 688.71 -0.118589 -3.73812 0
M  V30 7216 H 691.002 1.02106 -6.69762 0
M  V30 7217 H 691.945 -0.457917 -7.06618 0
M  V30 7218 H 692.353 0.514596 -5.6215 0
M  V30 7219 N 691.751 1.51645 -0.429126 0
M  V30 7220 C 692.661 2.31288 0.392809 0
M  V30 7221 C 693.677 1.39852 1.03525 0
M  V30 7222 O 694.853 1.72926 1.03241 0
M  V30 7223 C 691.918 3.13347 1.48372 0
M  V30 7224 C 690.979 4.20551 0.862268 0
M  V30 7225 C 690.212 4.98688 1.9012 0
M  V30 7226 O 690.435 4.77359 3.12225 0
M  V30 7227 O 689.369 5.83005 1.4963 0
M  V30 7228 H 693.195 3.02609 -0.257138 0
M  V30 7229 H 690.78 1.48163 -0.191851 0
M  V30 7230 H 692.662 3.64387 2.1166 0
M  V30 7231 H 691.337 2.44799 2.1179 0
M  V30 7232 H 690.244 3.73609 0.191568 0
M  V30 7233 H 691.577 4.91449 0.271704 0
M  V30 7234 N 693.229 0.160201 1.56784 0
M  V30 7235 C 694.469 -0.490179 1.98435 0
M  V30 7236 C 694.833 -1.61164 1.04355 0
M  V30 7237 O 696.034 -2.3238 1.35103 0
M  V30 7238 C 694.305 -0.971106 3.43954 0
M  V30 7239 S 695.864 -1.62423 4.07632 0
M  V30 7240 H 692.682 -0.158056 0.693209 0
M  V30 7241 H 695.284 0.255036 1.93829 0
M  V30 7242 H 693.988 -0.144323 4.10146 0
M  V30 7243 H 693.519 -1.75063 3.52302 0
M  V30 7244 H 695.534 -2.91199 4.01768 0
M  V30 7245 N 694.707 -1.5719 -0.113559 0
M  V30 7246 C 695.617 -2.04041 -1.15777 0
M  V30 7247 C 696.633 -0.961812 -1.45001 0
M  V30 7248 O 697.809 -1.2737 -1.56009 0
M  V30 7249 C 694.874 -2.43994 -2.46308 0
M  V30 7250 C 693.935 -3.65962 -2.24433 0
M  V30 7251 C 693.168 -4.04 -3.4874 0
M  V30 7252 O 693.391 -3.42321 -4.56259 0
M  V30 7253 O 692.325 -4.97069 -3.3942 0
M  V30 7254 H 696.151 -2.93248 -0.789899 0
M  V30 7255 H 693.736 -1.45828 -0.324748 0
M  V30 7256 H 695.618 -2.70401 -3.23204 0
M  V30 7257 H 694.293 -1.57932 -2.82558 0
M  V30 7258 H 693.2 -3.44697 -1.45377 0
M  V30 7259 H 694.533 -4.52746 -1.93084 0
M  V30 7260 N 696.185 0.383891 -1.52853 0
M  V30 7261 C 697.433 1.12619 -1.67814 0
M  V30 7262 C 697.754 1.90354 -0.423141 0
M  V30 7263 O 697.024 1.87649 0.562554 0
M  V30 7264 H 695.604 0.418738 -0.618601 0
M  V30 7265 H 698.266 0.43495 -1.89985 0
M  V30 7266 H 697.362 1.82624 -2.5309 0
M  V30 7267 N 697.663 1.43903 0.642637 0
M  V30 7268 C 698.888 1.49758 1.43483 0
M  V30 7269 C 699.313 0.119911 1.87717 0
M  V30 7270 O 698.671 -0.888558 1.58033 0
M  V30 7271 C 698.719 2.45744 2.63898 0
M  V30 7272 O 697.823 1.95101 3.63331 0
M  V30 7273 H 697.164 0.506138 0.429791 0
M  V30 7274 H 699.694 1.88923 0.785438 0
M  V30 7275 H 699.704 2.63399 3.11584 0
M  V30 7276 H 698.379 3.45818 2.31046 0
M  V30 7277 H 696.956 1.87158 3.22531 0
M  V30 7278 N 699.141 -0.881989 1.30609 0
M  V30 7279 C 700.366 -1.67236 1.22665 0
M  V30 7280 C 700.791 -1.8696 -0.206777 0
M  V30 7281 O 700.149 -1.4027 -1.14865 0
M  V30 7282 C 700.197 -3.02446 1.96363 0
M  V30 7283 O 699.301 -3.91614 1.29276 0
M  V30 7284 H 698.642 -0.510902 0.424117 0
M  V30 7285 H 701.172 -1.10055 1.72479 0
M  V30 7286 H 701.182 -3.52468 2.055 0
M  V30 7287 H 699.857 -2.8741 3.00613 0
M  V30 7288 H 698.434 -3.50055 1.28514 0
M  V30 7289 N 700.619 -1.13374 -1.09472 0
M  V30 7290 C 702.03 -0.90801 -1.63132 0
M  V30 7291 C 702.381 0.555576 -1.8817 0
M  V30 7292 O 701.506 1.42218 -1.63104 0
M  V30 7293 C 702.101 -1.64182 -2.96361 0
M  V30 7294 C 700.66 -1.46197 -3.46848 0
M  V30 7295 C 699.807 -1.67134 -2.21273 0
M  V30 7296 H 702.758 -1.2871 -0.928411 0
M  V30 7297 H 702.779 -1.09863 -3.64294 0
M  V30 7298 H 702.291 -2.707 -2.78106 0
M  V30 7299 H 700.392 -0.419788 -3.70228 0
M  V30 7300 H 700.505 -2.22472 -4.24315 0
M  V30 7301 H 698.869 -1.09616 -2.29905 0
M  V30 7302 H 699.652 -2.74971 -2.05538 0
M  V30 7303 N 702.098 1.27442 -0.927168 0
M  V30 7304 C 703.008 2.30599 -0.431448 0
M  V30 7305 C 704.024 1.67028 0.48761 0
M  V30 7306 O 705.2 1.97962 0.370546 0
M  V30 7307 C 702.265 3.45327 0.308292 0
M  V30 7308 C 701.326 4.24418 -0.645615 0
M  V30 7309 C 700.559 5.33667 0.0589164 0
M  V30 7310 O 700.782 5.5589 1.27838 0
M  V30 7311 O 699.716 5.98774 -0.612638 0
M  V30 7312 H 703.542 2.75036 -1.28797 0
M  V30 7313 H 701.127 1.32382 -0.692495 0
M  V30 7314 H 703.009 4.15107 0.725555 0
M  V30 7315 H 701.684 3.02945 1.14043 0
M  V30 7316 H 700.591 3.57174 -1.11255 0
M  V30 7317 H 701.924 4.70512 -1.44496 0
M  V30 7318 N 703.576 0.692616 1.41565 0
M  V30 7319 C 704.987 0.297478 1.84315 0
M  V30 7320 C 705.338 -1.16379 1.57957 0
M  V30 7321 O 704.463 -1.89303 1.0485 0
M  V30 7322 C 705.058 0.533136 3.34579 0
M  V30 7323 C 703.617 0.191944 3.7591 0
M  V30 7324 C 702.764 0.816873 2.64995 0
M  V30 7325 H 705.715 0.893488 1.31158 0
M  V30 7326 H 705.736 -0.209105 3.79925 0
M  V30 7327 H 705.248 1.59674 3.53731 0
M  V30 7328 H 703.349 -0.867512 3.6236 0
M  V30 7329 H 703.462 0.644902 4.7474 0
M  V30 7330 H 701.826 0.246715 2.53502 0
M  V30 7331 H 702.609 1.88429 2.86966 0
M  V30 7332 N 705.054 -1.51416 0.437162 0
M  V30 7333 C 705.964 -2.31493 -0.380537 0
M  V30 7334 C 706.98 -1.40399 -1.02782 0
M  V30 7335 O 708.156 -1.73471 -1.02323 0
M  V30 7336 C 705.221 -3.1413 -1.46709 0
M  V30 7337 C 704.282 -4.21003 -0.839953 0
M  V30 7338 C 703.515 -4.9969 -1.87473 0
M  V30 7339 O 703.738 -4.79008 -3.09689 0
M  V30 7340 O 702.672 -5.8379 -1.46536 0
M  V30 7341 H 706.498 -3.02469 0.273183 0
M  V30 7342 H 704.083 -1.48059 0.199706 0
M  V30 7343 H 705.965 -3.65505 -2.09724 0
M  V30 7344 H 704.64 -2.45919 -2.10489 0
M  V30 7345 H 703.547 -3.73706 -0.171752 0
M  V30 7346 H 704.88 -4.91587 -0.245638 0
M  V30 7347 N 706.532 -0.168513 -1.56696 0
M  V30 7348 C 707.943 0.348694 -1.83415 0
M  V30 7349 C 708.294 1.63257 -1.0882 0
M  V30 7350 O 707.419 2.13707 -0.340333 0
M  V30 7351 C 708.014 0.639423 -3.32711 0
M  V30 7352 C 706.573 1.10108 -3.59935 0
M  V30 7353 C 705.72 0.135464 -2.76969 0
M  V30 7354 H 708.671 -0.392829 -1.53761 0
M  V30 7355 H 708.692 1.49179 -3.50037 0
M  V30 7356 H 708.204 -0.295173 -3.86976 0
M  V30 7357 H 706.305 2.05088 -3.11079 0
M  V30 7358 H 706.418 1.01218 -4.68286 0
M  V30 7359 H 704.782 0.632286 -2.46727 0
M  V30 7360 H 705.565 -0.793104 -3.34013 0
M  V30 7361 N 708.01 1.57248 0.105221 0
M  V30 7362 C 709.421 1.74612 0.660865 0
M  V30 7363 C 709.772 0.789231 1.79626 0
M  V30 7364 O 708.897 -0.0346611 2.16372 0
M  V30 7365 C 709.492 3.16624 1.20559 0
M  V30 7366 C 708.051 3.35447 1.7074 0
M  V30 7367 C 707.198 2.70445 0.612764 0
M  V30 7368 H 710.149 1.5824 -0.12079 0
M  V30 7369 H 710.17 3.18937 2.07508 0
M  V30 7370 H 709.682 3.86245 0.379012 0
M  V30 7371 H 707.783 2.7089 2.5583 0
M  V30 7372 H 707.896 4.43702 1.80736 0
M  V30 7373 H 706.26 2.32061 1.04975 0
M  V30 7374 H 707.043 3.42699 -0.203066 0
M  V30 7375 N 709.488 -0.375779 1.53054 0
M  V30 7376 C 710.736 -1.11727 1.68409 0
M  V30 7377 C 711.057 -1.90127 0.43323 0
M  V30 7378 O 710.327 -1.87945 -0.552595 0
M  V30 7379 H 708.907 -0.415451 0.620813 0
M  V30 7380 H 711.569 -0.424869 1.90213 0
M  V30 7381 H 710.665 -1.8128 2.54055 0
M  V30 7382 N 710.966 -1.44241 -0.634997 0
M  V30 7383 C 712.377 -1.41622 -1.21655 0
M  V30 7384 C 712.728 -0.129584 -1.95772 0
M  V30 7385 O 711.853 0.770225 -2.02229 0
M  V30 7386 C 712.448 -2.56557 -2.21278 0
M  V30 7387 C 711.007 -2.57145 -2.7487 0
M  V30 7388 C 710.154 -2.33354 -1.49804 0
M  V30 7389 H 713.105 -1.52878 -0.425905 0
M  V30 7390 H 713.126 -2.29089 -3.03807 0
M  V30 7391 H 712.638 -3.50186 -1.67306 0
M  V30 7392 H 710.739 -1.67447 -3.32855 0
M  V30 7393 H 710.852 -3.55507 -3.21172 0
M  V30 7394 H 709.216 -1.82372 -1.77799 0
M  V30 7395 H 709.999 -3.29092 -0.977402 0
M  V30 7396 N 712.444 0.87505 -1.31075 0
M  V30 7397 C 713.407 1.96333 -1.18263 0
M  V30 7398 C 714.407 1.60416 -0.111106 0
M  V30 7399 O 715.597 1.7044 -0.359987 0
M  V30 7400 C 712.729 3.31036 -0.81414 0
M  V30 7401 H 713.922 2.09125 -2.14958 0
M  V30 7402 H 711.475 1.06271 -1.14614 0
M  V30 7403 H 712.21 3.23944 0.151875 0
M  V30 7404 H 711.995 3.58476 -1.58862 0
M  V30 7405 H 713.485 4.10842 -0.748249 0
M  V30 7406 N 713.922 1.13953 1.08869 0
M  V30 7407 C 715.333 0.916649 1.62648 0
M  V30 7408 C 715.684 -0.545589 1.88462 0
M  V30 7409 O 714.809 -1.41351 1.63856 0
M  V30 7410 C 715.404 1.65751 2.95486 0
M  V30 7411 C 713.963 1.48034 3.46068 0
M  V30 7412 C 713.11 1.68305 2.20383 0
M  V30 7413 H 716.061 1.292 0.921572 0
M  V30 7414 H 716.082 1.11794 3.63707 0
M  V30 7415 H 715.594 2.72171 2.76667 0
M  V30 7416 H 713.695 0.439416 3.7 0
M  V30 7417 H 713.808 2.24719 4.23129 0
M  V30 7418 H 712.172 1.10833 2.29321 0
M  V30 7419 H 712.955 2.76057 2.04077 0
M  V30 7420 N 715.4 -1.26948 0.933913 0
M  V30 7421 C 716.332 -2.25768 0.395137 0
M  V30 7422 C 717.345 -1.55637 -0.477585 0
M  V30 7423 O 718.534 -1.76142 -0.289204 0
M  V30 7424 C 715.634 -3.35874 -0.451882 0
M  V30 7425 C 714.807 -4.3554 0.40299 0
M  V30 7426 C 713.866 -5.24809 -0.3824 0
M  V30 7427 O 712.892 -5.68805 0.212057 0
M  V30 7428 N 714.094 -5.55636 -1.68072 0
M  V30 7429 H 716.859 -2.72634 1.24463 0
M  V30 7430 H 714.42 -1.40639 0.802008 0
M  V30 7431 H 716.412 -3.92542 -0.984516 0
M  V30 7432 H 714.982 -2.8856 -1.20215 0
M  V30 7433 H 714.202 -3.78047 1.11688 0
M  V30 7434 H 715.49 -4.99131 0.987201 0
M  V30 7435 H 714.888 -5.2176 -2.18592 0
M  V30 7436 H 713.445 -6.14978 -2.15975 0
M  V30 7437 N 716.879 -0.700114 -1.41195 0
M  V30 7438 C 717.809 -0.0521132 -2.33442 0
M  V30 7439 C 718.79 0.76228 -1.52063 0
M  V30 7440 O 719.975 0.714336 -1.80585 0
M  V30 7441 C 717.105 0.881693 -3.35922 0
M  V30 7442 C 716.059 0.174062 -4.27646 0
M  V30 7443 C 715.385 1.22254 -5.20536 0
M  V30 7444 C 716.685 -0.962396 -5.13357 0
M  V30 7445 H 718.379 -0.822574 -2.87879 0
M  V30 7446 H 715.925 -0.397011 -1.38419 0
M  V30 7447 H 717.878 1.34429 -3.99383 0
M  V30 7448 H 716.602 1.68387 -2.79845 0
M  V30 7449 H 715.261 -0.268551 -3.65615 0
M  V30 7450 H 714.909 2.01736 -4.60773 0
M  V30 7451 H 714.609 0.754038 -5.82742 0
M  V30 7452 H 716.133 1.68555 -5.86874 0
M  V30 7453 H 717.547 -0.579875 -5.7036 0
M  V30 7454 H 715.944 -1.35828 -5.84526 0
M  V30 7455 H 717.014 -1.80003 -4.50252 0
M  V30 7456 N 718.357 1.51182 -0.445186 0
M  V30 7457 C 719.768 1.86693 0.0160999 0
M  V30 7458 C 720.119 1.36183 1.4124 0
M  V30 7459 O 719.244 0.715895 2.04215 0
M  V30 7460 C 719.839 3.38781 0.0359918 0
M  V30 7461 C 718.398 3.73799 0.441715 0
M  V30 7462 C 717.545 2.74947 -0.360511 0
M  V30 7463 H 720.496 1.44294 -0.660674 0
M  V30 7464 H 720.517 3.71026 0.843813 0
M  V30 7465 H 720.029 3.75513 -0.980378 0
M  V30 7466 H 718.13 3.42659 1.4634 0
M  V30 7467 H 718.243 4.78829 0.16106 0
M  V30 7468 H 716.607 2.54047 0.182269 0
M  V30 7469 H 717.39 3.14521 -1.3759 0
M  V30 7470 N 719.835 0.176821 1.56605 0
M  V30 7471 C 720.765 -0.746841 2.21234 0
M  V30 7472 C 721.746 -1.23502 1.16967 0
M  V30 7473 O 722.931 -1.28718 1.45414 0
M  V30 7474 C 720.061 -1.97407 2.8574 0
M  V30 7475 C 719.015 -1.62153 3.96094 0
M  V30 7476 C 718.341 -2.92387 4.47676 0
M  V30 7477 C 719.641 -0.845353 5.15413 0
M  V30 7478 H 721.335 -0.208116 2.98676 0
M  V30 7479 H 718.881 -0.0986594 1.43662 0
M  V30 7480 H 720.834 -2.62531 3.2963 0
M  V30 7481 H 719.558 -2.53703 2.05676 0
M  V30 7482 H 718.217 -0.993964 3.52868 0
M  V30 7483 H 717.865 -3.46734 3.64396 0
M  V30 7484 H 717.565 -2.69551 5.22127 0
M  V30 7485 H 719.089 -3.5853 4.94255 0
M  V30 7486 H 720.503 -1.39929 5.55961 0
M  V30 7487 H 718.9 -0.715814 5.95815 0
M  V30 7488 H 719.97 0.157239 4.84645 0
M  V30 7489 N 721.313 -1.57302 -0.09688 0
M  V30 7490 C 722.276 -2.00976 -1.10188 0
M  V30 7491 C 723.276 -0.903009 -1.3305 0
M  V30 7492 O 724.466 -1.16853 -1.29194 0
M  V30 7493 C 721.598 -2.36893 -2.45142 0
M  V30 7494 H 722.791 -2.9098 -0.726003 0
M  V30 7495 H 720.344 -1.52515 -0.341872 0
M  V30 7496 H 721.079 -1.49837 -2.8761 0
M  V30 7497 H 720.864 -3.17632 -2.29897 0
M  V30 7498 H 722.354 -2.71345 -3.1743 0
M  V30 7499 N 722.791 0.367657 -1.53252 0
M  V30 7500 C 724.037 1.11216 -1.69584 0
M  V30 7501 C 724.37 1.89026 -0.445269 0
M  V30 7502 O 723.645 1.86342 0.557404 0
M  V30 7503 C 723.928 2.07308 -2.94441 0
M  V30 7504 C 723.781 1.3312 -4.2965 0
M  V30 7505 C 725.1 3.07459 -3.14892 0
M  V30 7506 H 722.219 0.40294 -0.617096 0
M  V30 7507 H 724.861 0.393201 -1.85887 0
M  V30 7508 H 723.011 2.68617 -2.80673 0
M  V30 7509 H 724.683 0.746111 -4.55226 0
M  V30 7510 H 722.926 0.633051 -4.29156 0
M  V30 7511 H 723.597 2.03443 -5.13142 0
M  V30 7512 H 726.073 2.56252 -3.27832 0
M  V30 7513 H 724.949 3.71919 -4.03693 0
M  V30 7514 H 725.21 3.77514 -2.30077 0
M  V30 7515 N 724.269 1.44576 0.627338 0
M  V30 7516 C 725.232 1.51372 1.72102 0
M  V30 7517 C 726.232 0.395329 1.55865 0
M  V30 7518 O 727.422 0.658094 1.61291 0
M  V30 7519 C 724.554 1.39129 3.11217 0
M  V30 7520 H 725.747 2.48798 1.6745 0
M  V30 7521 H 723.3 1.31724 0.841336 0
M  V30 7522 H 724.035 0.428114 3.21462 0
M  V30 7523 H 723.82 2.20229 3.24409 0
M  V30 7524 H 725.31 1.46874 3.90919 0
M  V30 7525 N 725.747 -0.868086 1.31537 0
M  V30 7526 C 726.975 -1.65402 1.24298 0
M  V30 7527 C 727.39 -1.87827 -0.191389 0
M  V30 7528 O 726.747 -1.43776 -1.12404 0
M  V30 7529 C 726.798 -3.02093 1.9855 0
M  V30 7530 O 726.519 -2.80668 3.36388 0
M  V30 7531 C 728.02 -3.96538 1.98173 0
M  V30 7532 H 725.24 -0.515598 0.429417 0
M  V30 7533 H 727.784 -1.0834 1.73444 0
M  V30 7534 H 725.939 -3.55838 1.53161 0
M  V30 7535 H 726.353 -3.67504 3.74221 0
M  V30 7536 H 727.827 -4.8976 2.54635 0
M  V30 7537 H 728.304 -4.28474 0.964697 0
M  V30 7538 H 728.91 -3.48729 2.4345 0
M  V30 7539 N 727.225 -1.14528 -1.08264 0
M  V30 7540 C 728.502 -0.825185 -1.77342 0
M  V30 7541 C 728.882 0.681037 -1.99813 0
M  V30 7542 O 728.23 1.62234 -1.60912 0
M  V30 7543 C 728.44 -1.62556 -3.08831 0
M  V30 7544 C 729.788 -1.82585 -3.83338 0
M  V30 7545 O 730.812 -1.59254 -3.18617 0
M  V30 7546 O 729.671 -2.21598 -4.99556 0
M  V30 7547 H 726.765 -0.302531 -0.769678 0
M  V30 7548 H 729.311 -1.25056 -1.14713 0
M  V30 7549 H 728.083 -2.64862 -2.88035 0
M  V30 7550 H 727.706 -1.1959 -3.79189 0
M  V30 7551 N 728.703 1.26451 -0.940633 0
M  V30 7552 C 729.651 2.28389 -0.440581 0
M  V30 7553 C 730.645 1.62402 0.481859 0
M  V30 7554 O 731.851 1.76361 0.360132 0
M  V30 7555 H 728.226 0.741716 -0.123938 0
M  V30 7556 H 730.197 2.67967 -1.31288 0
M  V30 7557 C 728.946 3.46576 0.279364 0
M  V30 7558 H 728.269 3.97574 -0.421274 0
M  V30 7559 H 729.709 4.19826 0.59348 0
M  V30 7560 C 728.168 3.01815 1.49697 0
M  V30 7561 O 728.698 3.06607 2.59529 0
M  V30 7562 N 726.904 2.57163 1.35334 0
M  V30 7563 H 726.451 2.53464 0.459743 0
M  V30 7564 H 726.409 2.27578 2.16923 0
M  V30 7565 N 730.181 0.707592 1.40822 0
M  V30 7566 C 731.428 0.243671 2.01029 0
M  V30 7567 C 731.756 -1.16057 1.5608 0
M  V30 7568 O 731.011 -1.7999 0.768251 0
M  V30 7569 C 731.31 0.262892 3.56432 0
M  V30 7570 C 730.976 1.61632 4.20935 0
M  V30 7571 C 729.638 1.98682 4.38268 0
M  V30 7572 C 731.99 2.50619 4.5699 0
M  V30 7573 C 729.318 3.2428 4.88937 0
M  V30 7574 C 731.67 3.75562 5.09054 0
M  V30 7575 C 730.334 4.12739 5.24598 0
M  V30 7576 H 729.604 0.0891654 0.735616 0
M  V30 7577 H 732.251 0.909051 1.68548 0
M  V30 7578 H 730.556 -0.486052 3.88773 0
M  V30 7579 H 732.253 -0.113775 4.00839 0
M  V30 7580 H 728.843 1.31818 4.07826 0
M  V30 7581 H 733.027 2.23272 4.43242 0
M  V30 7582 H 728.283 3.53064 4.99155 0
M  V30 7583 H 732.457 4.44692 5.35931 0
M  V30 7584 H 730.084 5.10132 5.63622 0
M  V30 7585 N 731.66 -1.50943 0.453197 0
M  V30 7586 C 732.909 -2.01402 -0.10951 0
M  V30 7587 C 733.222 -1.3411 -1.42386 0
M  V30 7588 O 734.428 -1.75626 -2.07045 0
M  V30 7589 C 732.884 -3.5906 -0.245693 0
M  V30 7590 C 732.492 -4.353 1.05916 0
M  V30 7591 C 734.236 -4.17617 -0.761318 0
M  V30 7592 C 732.143 -5.84699 0.887752 0
M  V30 7593 H 731.073 -0.752674 -0.0447013 0
M  V30 7594 H 733.724 -1.73913 0.585375 0
M  V30 7595 H 732.106 -3.83062 -1.00395 0
M  V30 7596 H 733.28 -4.23034 1.82698 0
M  V30 7597 H 731.595 -3.88269 1.50452 0
M  V30 7598 H 734.192 -5.26963 -0.906306 0
M  V30 7599 H 734.535 -3.77824 -1.74799 0
M  V30 7600 H 735.068 -3.97753 -0.0609416 0
M  V30 7601 H 731.807 -6.28933 1.84726 0
M  V30 7602 H 731.327 -5.99587 0.160006 0
M  V30 7603 H 733.006 -6.44682 0.547223 0
M  V30 7604 N 733.138 -0.185124 -1.56509 0
M  V30 7605 C 734.363 0.465278 -2.02114 0
M  V30 7606 C 734.788 1.55083 -1.06447 0
M  V30 7607 O 734.146 1.81241 -0.0462852 0
M  V30 7608 C 734.194 1.00784 -3.46229 0
M  V30 7609 O 733.298 2.12123 -3.53663 0
M  V30 7610 H 732.639 0.109891 -0.654843 0
M  V30 7611 H 735.169 -0.293072 -2.0249 0
M  V30 7612 H 735.179 1.32697 -3.85818 0
M  V30 7613 H 733.854 0.213113 -4.15354 0
M  V30 7614 H 732.431 1.8115 -3.25943 0
M  V30 7615 N 734.616 1.57351 0.0885366 0
M  V30 7616 C 735.844 1.90631 0.804196 0
M  V30 7617 C 736.259 0.779474 1.71958 0
M  V30 7618 O 735.616 -0.248179 1.80805 0
M  V30 7619 C 735.667 3.23568 1.61202 0
M  V30 7620 O 735.388 4.31917 0.733447 0
M  V30 7621 C 736.889 3.70753 2.43016 0
M  V30 7622 H 734.109 0.630501 0.229585 0
M  V30 7623 H 736.653 2.044 0.0638092 0
M  V30 7624 H 734.808 3.11377 2.30485 0
M  V30 7625 H 735.222 5.08297 1.29361 0
M  V30 7626 H 736.696 4.66447 2.9518 0
M  V30 7627 H 737.173 2.98922 3.2178 0
M  V30 7628 H 737.779 3.85834 1.7892 0
M  V30 7629 N 736.094 -0.359525 1.53444 0
M  V30 7630 C 737.334 -1.11014 1.71625 0
M  V30 7631 C 737.698 -1.86376 0.46132 0
M  V30 7632 O 738.899 -2.63724 0.519908 0
M  V30 7633 C 737.17 -2.03907 2.93524 0
M  V30 7634 S 738.729 -2.86408 3.3244 0
M  V30 7635 H 735.547 -0.375352 0.603847 0
M  V30 7636 H 738.149 -0.390604 1.91558 0
M  V30 7637 H 736.853 -1.47316 3.83048 0
M  V30 7638 H 736.384 -2.80324 2.76011 0
M  V30 7639 H 738.399 -4.06241 2.84926 0
M  V30 7640 N 737.572 -1.44907 -0.619662 0
M  V30 7641 C 738.797 -1.52021 -1.41083 0
M  V30 7642 C 739.222 -0.14976 -1.87503 0
M  V30 7643 O 738.58 0.863303 -1.59426 0
M  V30 7644 C 738.628 -2.49911 -2.59955 0
M  V30 7645 O 737.732 -2.00857 -3.60181 0
M  V30 7646 H 737.073 -0.512912 -0.421684 0
M  V30 7647 H 739.603 -1.90149 -0.755282 0
M  V30 7648 H 739.613 -2.68323 -3.07354 0
M  V30 7649 H 738.288 -3.4945 -2.25516 0
M  V30 7650 H 736.865 -1.92265 -3.19513 0
M  V30 7651 N 739.05 0.861098 -1.31996 0
M  V30 7652 C 740.275 1.65264 -1.2531 0
M  V30 7653 C 740.7 1.87265 0.177007 0
M  V30 7654 O 740.058 1.4208 1.12619 0
M  V30 7655 C 740.106 2.99284 -2.0115 0
M  V30 7656 O 739.21 3.89508 -1.3549 0
M  V30 7657 H 738.551 0.50409 -0.432192 0
M  V30 7658 H 741.081 1.07297 -1.74208 0
M  V30 7659 H 741.091 3.49154 -2.11081 0
M  V30 7660 H 739.766 2.82591 -3.05148 0
M  V30 7661 H 738.343 3.47966 -1.34066 0
M  V30 7662 N 740.528 1.15101 1.07655 0
M  V30 7663 C 741.491 0.847625 2.12951 0
M  V30 7664 C 742.491 -0.151227 1.60087 0
M  V30 7665 O 743.681 0.0780399 1.74025 0
M  V30 7666 C 740.813 0.265 3.39868 0
M  V30 7667 H 742.006 1.7809 2.41296 0
M  V30 7668 H 739.559 0.958072 1.23494 0
M  V30 7669 H 740.294 -0.676625 3.17163 0
M  V30 7670 H 740.079 0.984554 3.79538 0
M  V30 7671 H 741.569 0.0702121 4.17541 0
M  V30 7672 N 742.006 -1.2595 0.947325 0
M  V30 7673 C 743.231 -1.98083 0.614633 0
M  V30 7674 C 743.656 -1.70013 -0.804815 0
M  V30 7675 O 743.014 -0.95175 -1.54309 0
M  V30 7676 C 743.062 -3.4993 0.870706 0
M  V30 7677 O 742.166 -4.12364 -0.0541451 0
M  V30 7678 H 741.507 -0.621232 0.234451 0
M  V30 7679 H 744.037 -1.60259 1.27193 0
M  V30 7680 H 744.047 -4.00198 0.794051 0
M  V30 7681 H 742.722 -3.69691 1.90529 0
M  V30 7682 H 741.299 -3.72826 0.0740917 0
M  V30 7683 N 743.484 -0.715051 -1.40445 0
M  V30 7684 C 744.416 -0.0227516 -2.29189 0
M  V30 7685 C 745.429 0.724313 -1.458 0
M  V30 7686 O 746.618 0.571781 -1.69094 0
M  V30 7687 C 743.718 0.992038 -3.24055 0
M  V30 7688 C 742.891 0.310613 -4.36296 0
M  V30 7689 C 741.95 1.23071 -5.11605 0
M  V30 7690 O 740.976 0.71571 -5.64682 0
M  V30 7691 N 742.178 2.56188 -5.2091 0
M  V30 7692 H 744.943 -0.78473 -2.89244 0
M  V30 7693 H 742.504 -0.562637 -1.51809 0
M  V30 7694 H 744.496 1.60973 -3.71308 0
M  V30 7695 H 743.066 1.65538 -2.65171 0
M  V30 7696 H 742.286 -0.487269 -3.91177 0
M  V30 7697 H 743.574 -0.162415 -5.08541 0
M  V30 7698 H 742.972 3.00527 -4.7927 0
M  V30 7699 H 741.529 3.13103 -5.71673 0
M  V30 7700 N 744.962 1.50701 -0.461195 0
M  V30 7701 C 746.373 1.867 -0.00370227 0
M  V30 7702 C 746.724 1.37673 1.39787 0
M  V30 7703 O 745.849 0.737515 2.03445 0
M  V30 7704 C 746.444 3.388 5.75786e-05 0
M  V30 7705 C 745.003 3.74247 0.402044 0
M  V30 7706 C 744.15 2.74549 -0.389652 0
M  V30 7707 H 747.101 1.43585 -0.675942 0
M  V30 7708 H 747.122 3.719 0.804414 0
M  V30 7709 H 746.634 3.74452 -1.02015 0
M  V30 7710 H 744.735 3.44192 1.42697 0
M  V30 7711 H 744.848 4.78973 0.110265 0
M  V30 7712 H 743.212 2.54226 0.155314 0
M  V30 7713 H 743.995 3.13044 -1.40919 0
M  V30 7714 N 746.441 0.193421 1.56409 0
M  V30 7715 C 747.687 -0.43983 1.98588 0
M  V30 7716 C 748.042 -1.59353 1.07816 0
M  V30 7717 O 747.335 -1.9121 0.122226 0
M  V30 7718 C 747.529 -0.949718 3.44551 0
M  V30 7719 C 747.358 0.153045 4.49439 0
M  V30 7720 C 746.128 0.610119 5.01603 0
M  V30 7721 C 748.326 0.961397 5.05234 0
M  V30 7722 N 746.308 1.69088 5.90155 0
M  V30 7723 C 747.679 1.8916 5.90439 0
M  V30 7724 C 749.734 1.004 4.87672 0
M  V30 7725 C 748.437 2.86086 6.5996 0
M  V30 7726 C 750.463 1.96131 5.57931 0
M  V30 7727 C 749.825 2.87895 6.42881 0
M  V30 7728 H 745.924 -0.128415 0.771384 0
M  V30 7729 H 748.508 0.29873 1.92395 0
M  V30 7730 H 746.679 -1.65772 3.51246 0
M  V30 7731 H 748.411 -1.55344 3.73698 0
M  V30 7732 H 745.166 0.203771 4.73161 0
M  V30 7733 H 745.59 2.23241 6.39134 0
M  V30 7734 H 750.232 0.308536 4.21673 0
M  V30 7735 H 747.95 3.56609 7.25159 0
M  V30 7736 H 751.536 2.00066 5.46319 0
M  V30 7737 H 750.416 3.60763 6.9629 0
M  V30 7738 N 747.919 -1.57396 -0.0801906 0
M  V30 7739 C 749.144 -1.91437 -0.797909 0
M  V30 7740 C 749.569 -0.789075 -1.70749 0
M  V30 7741 O 748.927 0.25857 -1.79447 0
M  V30 7742 C 748.975 -3.24402 -1.57467 0
M  V30 7743 O 748.079 -3.13043 -2.68473 0
M  V30 7744 H 747.42 -0.627109 -0.218243 0
M  V30 7745 H 749.95 -2.04537 -0.050949 0
M  V30 7746 H 749.96 -3.58072 -1.95571 0
M  V30 7747 H 748.635 -4.05884 -0.907229 0
M  V30 7748 H 747.212 -2.90915 -2.33287 0
M  V30 7749 N 749.397 0.351382 -1.53633 0
M  V30 7750 C 750.808 0.927429 -1.62036 0
M  V30 7751 C 751.159 1.89809 -0.496706 0
M  V30 7752 O 750.284 2.1313 0.374749 0
M  V30 7753 C 750.879 1.68886 -2.93706 0
M  V30 7754 C 749.438 2.21404 -3.04397 0
M  V30 7755 C 748.585 1.03075 -2.57431 0
M  V30 7756 H 751.536 0.129748 -1.58169 0
M  V30 7757 H 751.557 2.55116 -2.82305 0
M  V30 7758 H 751.069 0.982149 -3.75467 0
M  V30 7759 H 749.17 2.95274 -2.27253 0
M  V30 7760 H 749.283 2.48312 -4.09729 0
M  V30 7761 H 747.647 1.40188 -2.12649 0
M  V30 7762 H 748.43 0.338793 -3.41624 0
M  V30 7763 N 750.875 1.45233 0.611969 0
M  V30 7764 C 752.291 1.29542 0.932251 0
M  V30 7765 C 752.491 0.24523 2.00002 0
M  V30 7766 O 751.547 -0.362333 2.49887 0
M  V30 7767 C 752.86 2.67301 1.37733 0
M  V30 7768 C 754.408 2.75163 1.49178 0
M  V30 7769 C 754.883 4.13437 1.97064 0
M  V30 7770 N 756.374 4.15709 2.04304 0
M  V30 7771 C 757.109 5.19566 2.42568 0
M  V30 7772 N 756.605 6.33771 2.79832 0
M  V30 7773 N 758.398 5.06923 2.42869 0
M  V30 7774 H 750.549 2.12192 -0.0938679 0
M  V30 7775 H 752.812 0.947775 0.0206569 0
M  V30 7776 H 752.518 3.45318 0.666951 0
M  V30 7777 H 752.392 2.95472 2.3447 0
M  V30 7778 H 754.779 1.97453 2.19309 0
M  V30 7779 H 754.86 2.50712 0.507674 0
M  V30 7780 H 754.504 4.91631 1.27521 0
M  V30 7781 H 754.434 4.35277 2.9638 0
M  V30 7782 H 756.925 3.33293 1.78113 0
M  V30 7783 H 757.238 7.08815 3.07898 0
M  V30 7784 H 755.583 6.37179 2.77538 0
M  V30 7785 H 758.774 4.1675 2.1316 0
M  V30 7786 H 758.947 5.87981 2.72364 0
M  V30 7787 N 752.353 -0.854086 1.3245 0
M  V30 7788 C 753.578 -1.64597 1.26185 0
M  V30 7789 C 754.003 -1.87357 -0.167074 0
M  V30 7790 O 753.361 -1.42675 -1.11864 0
M  V30 7791 C 753.409 -2.98213 2.02734 0
M  V30 7792 O 752.513 -3.88784 1.37554 0
M  V30 7793 H 751.854 -0.50179 0.434859 0
M  V30 7794 H 754.384 -1.06372 1.74775 0
M  V30 7795 H 754.394 -3.4803 2.1293 0
M  V30 7796 H 753.069 -2.80969 3.06642 0
M  V30 7797 H 751.646 -3.4725 1.3591 0
M  V30 7798 N 753.831 -1.1567 -1.07043 0
M  V30 7799 C 755.079 -0.931673 -1.79344 0
M  V30 7800 C 755.4 0.542421 -1.87304 0
M  V30 7801 O 754.67 1.39418 -1.37621 0
M  V30 7802 H 753.25 -0.34171 -0.664262 0
M  V30 7803 H 755.912 -1.45795 -1.29344 0
M  V30 7804 H 755.008 -1.34379 -2.81689 0
M  V30 7805 N 755.309 1.25446 -0.953992 0
M  V30 7806 C 756.72 1.75047 -0.649255 0
M  V30 7807 C 757.071 1.77527 0.835385 0
M  V30 7808 O 756.196 1.39569 1.65377 0
M  V30 7809 C 756.791 3.17889 -1.17183 0
M  V30 7810 C 755.35 3.65052 -0.917267 0
M  V30 7811 C 754.497 2.44124 -1.31525 0
M  V30 7812 H 757.448 1.11342 -1.13087 0
M  V30 7813 H 757.469 3.76768 -0.531616 0
M  V30 7814 H 756.981 3.16052 -2.25239 0
M  V30 7815 H 755.082 3.72305 0.148354 0
M  V30 7816 H 755.195 4.53222 -1.55328 0
M  V30 7817 H 753.559 2.43906 -0.733624 0
M  V30 7818 H 754.342 2.44979 -2.405 0
M  V30 7819 N 756.787 0.722489 1.40064 0
M  V30 7820 C 758.033 0.265371 2.01056 0
M  V30 7821 C 758.366 -1.14062 1.57174 0
M  V30 7822 O 757.641 -1.77514 0.794916 0
M  V30 7823 C 757.924 0.353157 3.58364 0
M  V30 7824 C 757.777 1.79802 4.123 0
M  V30 7825 C 759.096 -0.271677 4.39261 0
M  V30 7826 H 756.215 0.0979002 0.730469 0
M  V30 7827 H 758.857 0.916289 1.66446 0
M  V30 7828 H 757.007 -0.201037 3.87979 0
M  V30 7829 H 758.679 2.40813 3.93455 0
M  V30 7830 H 756.922 2.32348 3.66329 0
M  V30 7831 H 757.593 1.81079 5.21454 0
M  V30 7832 H 760.069 0.200607 4.15616 0
M  V30 7833 H 758.945 -0.179843 5.48605 0
M  V30 7834 H 759.206 -1.35611 4.20787 0
M  V30 7835 N 758.265 -1.50454 0.469181 0
M  V30 7836 C 759.195 -2.31353 -0.31592 0
M  V30 7837 C 760.176 -1.38172 -0.992094 0
M  V30 7838 O 761.361 -1.67093 -0.989633 0
M  V30 7839 C 758.491 -3.1786 -1.39937 0
M  V30 7840 C 757.445 -4.19578 -0.844909 0
M  V30 7841 C 756.771 -4.9481 -2.0265 0
M  V30 7842 C 758.071 -5.22106 0.142499 0
M  V30 7843 H 759.765 -2.97237 0.359269 0
M  V30 7844 H 757.311 -1.42942 0.174224 0
M  V30 7845 H 759.264 -3.7325 -1.95607 0
M  V30 7846 H 757.988 -2.49858 -2.1033 0
M  V30 7847 H 756.647 -3.65285 -0.310189 0
M  V30 7848 H 756.295 -4.23282 -2.71737 0
M  V30 7849 H 755.995 -5.63613 -1.66174 0
M  V30 7850 H 757.519 -5.53035 -2.58815 0
M  V30 7851 H 758.933 -5.72378 -0.324966 0
M  V30 7852 H 757.33 -5.98618 0.421441 0
M  V30 7853 H 758.4 -4.7297 1.06901 0
M  V30 7854 N 759.743 -0.201713 -1.56304 0
M  V30 7855 C 760.691 0.733133 -2.20744 0
M  V30 7856 C 761.685 1.2148 -1.18064 0
M  V30 7857 O 762.891 1.17692 -1.36193 0
M  V30 7858 H 759.266 0.254789 -0.707521 0
M  V30 7859 H 761.237 0.165996 -2.97938 0
M  V30 7860 C 759.986 1.93925 -2.88597 0
M  V30 7861 H 759.309 1.5777 -3.67353 0
M  V30 7862 H 760.749 2.57158 -3.37114 0
M  V30 7863 C 759.208 2.78219 -1.89989 0
M  V30 7864 O 759.738 3.76353 -1.40432 0
M  V30 7865 N 757.944 2.43847 -1.58072 0
M  V30 7866 H 757.491 1.64103 -1.98565 0
M  V30 7867 H 757.449 3.0053 -0.923524 0
M  V30 7868 N 761.222 1.57436 0.0718424 0
M  V30 7869 C 762.17 2.04725 1.10411 0
M  V30 7870 C 763.164 0.952579 1.4008 0
M  V30 7871 O 764.37 1.13769 1.39487 0
M  V30 7872 H 760.745 0.652749 0.373393 0
M  V30 7873 H 762.716 2.90569 0.679126 0
M  V30 7874 C 761.465 2.5068 2.40946 0
M  V30 7875 H 760.788 3.34505 2.18967 0
M  V30 7876 H 762.228 2.87521 3.11621 0
M  V30 7877 C 760.687 1.38971 3.06902 0
M  V30 7878 O 761.217 0.731786 3.94978 0
M  V30 7879 N 759.423 1.13485 2.67525 0
M  V30 7880 H 758.97 1.67168 1.95991 0
M  V30 7881 H 758.928 0.389467 3.11978 0
M  V30 7882 N 762.7 -0.34323 1.53817 0
M  V30 7883 C 763.648 -1.44176 1.82527 0
M  V30 7884 C 764.642 -1.54452 0.695772 0
M  V30 7885 O 765.848 -1.57072 0.879114 0
M  V30 7886 H 762.223 -0.480729 0.578277 0
M  V30 7887 H 764.194 -1.17176 2.74431 0
M  V30 7888 C 762.943 -2.80695 2.05197 0
M  V30 7889 H 762.266 -2.73554 2.91561 0
M  V30 7890 H 763.706 -3.56679 2.29251 0
M  V30 7891 C 762.165 -3.26322 0.837589 0
M  V30 7892 O 762.695 -4.01683 0.0371631 0
M  V30 7893 N 760.901 -2.83128 0.654724 0
M  V30 7894 H 760.448 -2.21965 1.30725 0
M  V30 7895 H 760.406 -3.14011 -0.156345 0
M  V30 7896 N 764.178 -1.45556 -0.604258 0
M  V30 7897 C 765.589 -1.44171 -1.18624 0
M  V30 7898 C 765.94 -0.171081 -1.95453 0
M  V30 7899 O 765.065 0.727156 -2.03817 0
M  V30 7900 C 765.66 -2.61193 -2.15786 0
M  V30 7901 C 764.219 -2.62918 -2.69353 0
M  V30 7902 C 763.366 -2.36479 -1.4482 0
M  V30 7903 H 766.317 -1.53747 -0.393381 0
M  V30 7904 H 766.338 -2.35481 -2.98879 0
M  V30 7905 H 765.85 -3.53656 -1.59841 0
M  V30 7906 H 763.951 -1.7447 -3.29228 0
M  V30 7907 H 764.064 -3.6224 -3.13559 0
M  V30 7908 H 762.428 -1.86103 -1.73891 0
M  V30 7909 H 763.211 -3.31091 -0.907376 0
M  V30 7910 N 765.656 0.84705 -1.32902 0
M  V30 7911 C 767.067 1.41785 -1.21466 0
M  V30 7912 C 767.418 1.95464 0.169767 0
M  V30 7913 O 766.543 1.88157 1.06892 0
M  V30 7914 C 767.138 2.57734 -2.19906 0
M  V30 7915 C 765.697 3.10791 -2.12334 0
M  V30 7916 C 764.844 1.83562 -2.07847 0
M  V30 7917 H 767.795 0.653532 -1.44619 0
M  V30 7918 H 767.816 3.35123 -1.80202 0
M  V30 7919 H 767.328 2.18635 -3.20656 0
M  V30 7920 H 765.429 3.54455 -1.14858 0
M  V30 7921 H 765.542 3.71519 -3.02506 0
M  V30 7922 H 763.906 2.03475 -1.53199 0
M  V30 7923 H 764.689 1.4667 -3.10392 0
M  V30 7924 N 767.134 1.16236 1.06428 0
M  V30 7925 C 768.097 0.870163 2.1204 0
M  V30 7926 C 769.097 -0.134239 1.60239 0
M  V30 7927 O 770.287 0.0964932 1.73933 0
M  V30 7928 C 767.419 0.301033 3.39568 0
M  V30 7929 H 768.612 1.8064 2.39394 0
M  V30 7930 H 766.165 0.971116 1.2247 0
M  V30 7931 H 766.9 -0.642948 3.17863 0
M  V30 7932 H 766.685 1.02475 3.78472 0
M  V30 7933 H 768.175 0.114494 4.17443 0
M  V30 7934 N 768.612 -1.24939 0.960631 0
M  V30 7935 C 769.858 -1.93104 0.61958 0
M  V30 7936 C 770.191 -1.74991 -0.84212 0
M  V30 7937 O 769.466 -1.09867 -1.60498 0
M  V30 7938 C 769.749 -3.46326 0.986422 0
M  V30 7939 C 769.602 -3.73638 2.50429 0
M  V30 7940 C 770.921 -4.37067 0.515827 0
M  V30 7941 H 768.04 -0.701311 0.226566 0
M  V30 7942 H 770.682 -1.47442 1.19836 0
M  V30 7943 H 768.832 -3.85348 0.493907 0
M  V30 7944 H 770.504 -3.44217 3.07103 0
M  V30 7945 H 768.747 -3.19035 2.93937 0
M  V30 7946 H 769.418 -4.80815 2.71147 0
M  V30 7947 H 771.894 -4.05381 0.938389 0
M  V30 7948 H 770.77 -5.43022 0.80114 0
M  V30 7949 H 771.031 -4.38224 -0.584171 0
M  V30 7950 N 770.09 -0.729906 -1.39679 0
M  V30 7951 C 771.336 -0.27603 -2.00913 0
M  V30 7952 C 771.669 1.13227 -1.57776 0
M  V30 7953 O 770.944 1.7709 -0.804319 0
M  V30 7954 C 771.227 -0.372157 -3.58172 0
M  V30 7955 C 771.08 -1.81986 -4.11341 0
M  V30 7956 C 772.399 0.248378 -4.39399 0
M  V30 7957 H 769.518 -0.101773 -0.729939 0
M  V30 7958 H 772.16 -0.925104 -1.65957 0
M  V30 7959 H 770.31 0.180459 -3.88081 0
M  V30 7960 H 771.982 -2.42896 -3.92172 0
M  V30 7961 H 770.225 -2.34287 -3.65092 0
M  V30 7962 H 770.896 -1.83842 -5.20486 0
M  V30 7963 H 773.372 -0.222645 -4.15504 0
M  V30 7964 H 772.248 0.150746 -5.48693 0
M  V30 7965 H 772.509 1.33378 -4.21501 0
M  V30 7966 N 771.568 1.50203 -0.477153 0
M  V30 7967 C 772.814 2.02658 0.0758507 0
M  V30 7968 C 773.147 1.358 1.38824 0
M  V30 7969 O 772.422 0.485696 1.88338 0
M  V30 7970 C 772.705 3.59208 0.253339 0
M  V30 7971 C 772.558 4.36629 -1.0805 0
M  V30 7972 C 773.877 4.28469 1.00509 0
M  V30 7973 H 770.996 0.736538 0.0260921 0
M  V30 7974 H 773.638 1.79464 -0.623925 0
M  V30 7975 H 771.788 3.79101 0.849378 0
M  V30 7976 H 773.46 4.28292 -1.71358 0
M  V30 7977 H 771.703 4.0013 -1.67566 0
M  V30 7978 H 772.374 5.44449 -0.909883 0
M  V30 7979 H 774.85 4.13087 0.499818 0
M  V30 7980 H 773.726 5.37804 1.09808 0
M  V30 7981 H 773.987 3.92057 2.04314 0
M  V30 7982 N 773.046 0.209999 1.56195 0
M  V30 7983 C 773.994 -0.721416 2.2113 0
M  V30 7984 C 774.988 -1.20852 1.18706 0
M  V30 7985 O 776.194 -1.16968 1.36815 0
M  V30 7986 H 772.569 -0.251033 0.708863 0
M  V30 7987 H 774.54 -0.150193 2.98022 0
M  V30 7988 C 773.289 -1.92392 2.89621 0
M  V30 7989 H 772.612 -1.5582 3.68185 0
M  V30 7990 H 774.052 -2.55367 3.38473 0
M  V30 7991 C 772.511 -2.77208 1.91461 0
M  V30 7992 O 773.041 -3.75603 1.42426 0
M  V30 7993 N 771.247 -2.43006 1.59363 0
M  V30 7994 H 770.794 -1.63047 1.99433 0
M  V30 7995 H 770.752 -3.00036 0.939449 0
M  V30 7996 N 774.524 -1.57472 -0.0634922 0
M  V30 7997 C 775.749 -1.92273 -0.77756 0
M  V30 7998 C 776.174 -0.807141 -1.69902 0
M  V30 7999 O 775.532 0.239523 -1.79711 0
M  V30 8000 C 775.58 -3.26054 -1.54017 0
M  V30 8001 O 774.684 -3.15873 -2.65138 0
M  V30 8002 H 774.025 -0.629389 -0.211579 0
M  V30 8003 H 776.555 -2.04579 -0.0292523 0
M  V30 8004 H 776.565 -3.60127 -1.91763 0
M  V30 8005 H 775.24 -4.06824 -0.864128 0
M  V30 8006 H 773.817 -2.93373 -2.30189 0
M  V30 8007 N 776.003 0.335068 -1.53997 0
M  V30 8008 C 777.414 0.910191 -1.6301 0
M  V30 8009 C 777.765 1.89271 -0.516809 0
M  V30 8010 O 776.89 2.13516 0.352123 0
M  V30 8011 C 777.485 1.65761 -2.9548 0
M  V30 8012 C 776.044 2.18163 -3.06728 0
M  V30 8013 C 775.191 1.00338 -2.5851 0
M  V30 8014 H 778.142 0.112965 -1.58297 0
M  V30 8015 H 778.163 2.52107 -2.84995 0
M  V30 8016 H 777.675 0.94227 -3.76488 0
M  V30 8017 H 775.776 2.92847 -2.30372 0
M  V30 8018 H 775.889 2.43952 -4.1234 0
M  V30 8019 H 774.253 1.37925 -2.14124 0
M  V30 8020 H 775.036 0.30254 -3.41964 0
M  V30 8021 N 777.481 1.45874 0.596531 0
M  V30 8022 C 778.413 1.51408 1.7207 0
M  V30 8023 C 779.426 0.403738 1.57714 0
M  V30 8024 O 780.615 0.671384 1.65393 0
M  V30 8025 C 777.715 1.3652 3.10186 0
M  V30 8026 C 776.888 2.61428 3.50677 0
M  V30 8027 C 775.947 2.40937 4.67799 0
M  V30 8028 O 774.973 3.14602 4.74357 0
M  V30 8029 N 776.175 1.4621 5.61785 0
M  V30 8030 H 778.94 2.48333 1.67782 0
M  V30 8031 H 776.501 1.41755 0.782129 0
M  V30 8032 H 778.493 1.20606 3.86311 0
M  V30 8033 H 777.063 0.478302 3.08919 0
M  V30 8034 H 776.283 2.92381 2.644 0
M  V30 8035 H 777.571 3.44432 3.74491 0
M  V30 8036 H 776.969 0.854382 5.59211 0
M  V30 8037 H 775.526 1.36264 6.37397 0
M  V30 8038 N 778.959 -0.83999 1.33349 0
M  V30 8039 C 780.207 -1.59202 1.24496 0
M  V30 8040 C 780.528 -1.94077 -0.189499 0
M  V30 8041 O 779.798 -1.60868 -1.11796 0
M  V30 8042 H 778.378 -0.590276 0.457802 0
M  V30 8043 H 781.04 -1.00394 1.67054 0
M  V30 8044 H 780.136 -2.52247 1.83788 0
M  V30 8045 N 780.437 -1.16799 -1.0581 0
M  V30 8046 C 781.683 -0.963929 -1.79109 0
M  V30 8047 C 782.038 0.502569 -1.8572 0
M  V30 8048 O 781.331 1.36813 -1.34137 0
M  V30 8049 C 781.525 -1.53111 -3.22942 0
M  V30 8050 C 781.354 -3.05123 -3.30348 0
M  V30 8051 C 780.124 -3.73804 -3.39998 0
M  V30 8052 C 782.322 -4.02777 -3.19805 0
M  V30 8053 N 780.304 -5.1348 -3.36469 0
M  V30 8054 C 781.675 -5.28866 -3.23576 0
M  V30 8055 C 783.73 -3.94533 -3.03724 0
M  V30 8056 C 782.433 -6.47669 -3.12918 0
M  V30 8057 C 784.459 -5.12913 -2.94405 0
M  V30 8058 C 783.821 -6.37884 -2.98803 0
M  V30 8059 H 779.92 -0.406555 -0.66801 0
M  V30 8060 H 782.504 -1.48277 -1.26183 0
M  V30 8061 H 780.675 -1.03869 -3.74254 0
M  V30 8062 H 782.407 -1.2643 -3.84444 0
M  V30 8063 H 779.162 -3.24457 -3.44999 0
M  V30 8064 H 779.586 -5.86477 -3.38191 0
M  V30 8065 H 784.228 -2.98763 -2.99166 0
M  V30 8066 H 781.946 -7.43656 -3.16231 0
M  V30 8067 H 785.532 -5.08309 -2.83042 0
M  V30 8068 H 784.412 -7.27946 -2.91657 0
M  V30 8069 N 781.915 1.24427 -0.967243 0
M  V30 8070 C 782.878 2.23637 -0.501927 0
M  V30 8071 C 783.878 1.55712 0.401283 0
M  V30 8072 O 785.068 1.73085 0.196808 0
M  V30 8073 C 782.2 3.39804 0.273176 0
M  V30 8074 H 783.393 2.66317 -1.37897 0
M  V30 8075 H 780.946 1.37033 -0.751783 0
M  V30 8076 H 781.681 3.02562 1.16733 0
M  V30 8077 H 781.466 3.90303 -0.37498 0
M  V30 8078 H 782.956 4.13443 0.587776 0
M  V30 8079 N 783.393 0.737304 1.3929 0
M  V30 8080 C 784.641 0.285691 2.00071 0
M  V30 8081 C 784.962 -1.13169 1.58801 0
M  V30 8082 O 784.232 -1.77104 0.837308 0
M  V30 8083 H 782.812 0.102638 0.739915 0
M  V30 8084 H 785.474 0.947775 1.70303 0
M  V30 8085 H 784.57 0.335906 3.10287 0
M  V30 8086 N 784.871 -1.49948 0.485112 0
M  V30 8087 C 785.781 -2.32587 -0.306697 0
M  V30 8088 C 786.797 -1.43598 -0.982632 0
M  V30 8089 O 787.973 -1.76638 -0.967519 0
M  V30 8090 C 785.038 -3.18638 -1.3664 0
M  V30 8091 C 784.099 -4.23462 -0.705589 0
M  V30 8092 C 783.332 -5.05401 -1.7148 0
M  V30 8093 O 783.555 -4.88618 -2.94293 0
M  V30 8094 O 782.489 -5.88157 -1.27889 0
M  V30 8095 H 786.315 -3.01447 0.369272 0
M  V30 8096 H 783.9 -1.47349 0.246709 0
M  V30 8097 H 785.782 -3.71992 -1.9799 0
M  V30 8098 H 784.457 -2.52491 -2.02559 0
M  V30 8099 H 783.364 -3.74063 -0.0527733 0
M  V30 8100 H 784.697 -4.92119 -0.0891187 0
M  V30 8101 N 786.349 -0.21828 -1.56081 0
M  V30 8102 C 787.76 0.290166 -1.84431 0
M  V30 8103 C 788.111 1.59712 -1.13958 0
M  V30 8104 O 787.236 2.12516 -0.40815 0
M  V30 8105 C 787.831 0.53325 -3.34577 0
M  V30 8106 C 786.39 0.986011 -3.63256 0
M  V30 8107 C 785.537 0.0472798 -2.7726 0
M  V30 8108 H 788.488 -0.441548 -1.52434 0
M  V30 8109 H 788.509 1.37967 -3.54606 0
M  V30 8110 H 788.021 -0.418137 -3.85841 0
M  V30 8111 H 786.122 1.95087 -3.17446 0
M  V30 8112 H 786.235 0.862684 -4.71269 0
M  V30 8113 H 784.599 0.553471 -2.48614 0
M  V30 8114 H 785.382 -0.898966 -3.31321 0
M  V30 8115 N 787.827 1.57504 0.0551401 0
M  V30 8116 C 789.073 1.89191 0.74688 0
M  V30 8117 C 789.428 0.813936 1.74335 0
M  V30 8118 O 788.721 -0.180217 1.90751 0
M  V30 8119 C 788.915 3.25311 1.48013 0
M  V30 8120 C 788.744 4.46247 0.556176 0
M  V30 8121 C 787.514 5.04954 0.186891 0
M  V30 8122 C 789.712 5.14068 -0.154295 0
M  V30 8123 N 787.694 6.09411 -0.741041 0
M  V30 8124 C 789.065 6.12851 -0.938809 0
M  V30 8125 C 791.12 4.97396 -0.224007 0
M  V30 8126 C 789.823 6.96759 -1.78658 0
M  V30 8127 C 791.849 5.81845 -1.05881 0
M  V30 8128 C 791.211 6.80178 -1.83133 0
M  V30 8129 H 787.31 0.741562 0.248213 0
M  V30 8130 H 789.894 1.94698 0.00777734 0
M  V30 8131 H 788.065 3.20781 2.18985 0
M  V30 8132 H 789.797 3.44594 2.12219 0
M  V30 8133 H 786.552 4.70472 0.543415 0
M  V30 8134 H 786.976 6.66303 -1.19874 0
M  V30 8135 H 791.618 4.21274 0.358924 0
M  V30 8136 H 789.336 7.72245 -2.38042 0
M  V30 8137 H 792.922 5.70997 -1.11595 0
M  V30 8138 H 791.802 7.44389 -2.46687 0
M  V30 8139 N 789.305 -0.326896 1.54172 0
M  V30 8140 C 790.253 -1.42232 1.84046 0
M  V30 8141 C 791.247 -1.53705 0.712115 0
M  V30 8142 O 792.453 -1.56131 0.895724 0
M  V30 8143 H 788.828 -0.474568 0.583343 0
M  V30 8144 H 790.799 -1.14259 2.75658 0
M  V30 8145 C 789.548 -2.78502 2.08163 0
M  V30 8146 H 788.871 -2.70447 2.94446 0
M  V30 8147 H 790.311 -3.54228 2.33021 0
M  V30 8148 C 788.77 -3.25415 0.872152 0
M  V30 8149 O 789.3 -4.01621 0.0797648 0
M  V30 8150 N 787.506 -2.82418 0.684716 0
M  V30 8151 H 787.053 -2.20566 1.33072 0
M  V30 8152 H 787.011 -3.14159 -0.123031 0
M  V30 8153 N 790.784 -1.46188 -0.588786 0
M  V30 8154 C 792.2 -1.31009 -0.911524 0
M  V30 8155 C 792.4 -0.277017 -1.99587 0
M  V30 8156 O 791.456 0.322532 -2.50432 0
M  V30 8157 C 792.769 -2.69459 -1.33463 0
M  V30 8158 C 794.317 -2.77502 -1.44782 0
M  V30 8159 C 794.792 -4.1652 -1.90461 0
M  V30 8160 N 796.283 -4.18907 -1.97665 0
M  V30 8161 C 797.018 -5.23359 -2.34271 0
M  V30 8162 N 796.514 -6.38143 -2.69714 0
M  V30 8163 N 798.307 -5.10723 -2.34774 0
M  V30 8164 H 790.458 -2.12016 0.127614 0
M  V30 8165 H 792.721 -0.947984 -0.00557599 0
M  V30 8166 H 792.427 -3.46336 -0.611929 0
M  V30 8167 H 792.301 -2.99165 -2.2974 0
M  V30 8168 H 794.688 -2.00917 -2.1614 0
M  V30 8169 H 794.769 -2.51488 -0.467724 0
M  V30 8170 H 794.413 -4.93597 -1.19684 0
M  V30 8171 H 794.343 -4.39937 -2.89418 0
M  V30 8172 H 796.834 -3.36084 -1.72789 0
M  V30 8173 H 797.147 -7.13624 -2.96582 0
M  V30 8174 H 795.492 -6.41514 -2.67366 0
M  V30 8175 H 798.683 -4.20088 -2.06503 0
M  V30 8176 H 798.856 -5.9224 -2.62975 0
M  V30 8177 N 792.262 0.832906 -1.33792 0
M  V30 8178 C 793.225 1.92471 -1.24449 0
M  V30 8179 C 794.225 1.59981 -0.162085 0
M  V30 8180 O 795.415 1.69208 -0.414029 0
M  V30 8181 C 792.547 3.28278 -0.919044 0
M  V30 8182 H 793.74 2.0218 -2.21502 0
M  V30 8183 H 791.293 1.0257 -1.17936 0
M  V30 8184 H 792.028 3.24263 0.048738 0
M  V30 8185 H 791.813 3.53241 -1.70187 0
M  V30 8186 H 793.303 4.08253 -0.878576 0
M  V30 8187 N 793.74 1.17359 1.05189 0
M  V30 8188 C 794.672 0.848078 2.12933 0
M  V30 8189 C 795.685 -0.149521 1.62112 0
M  V30 8190 O 796.874 0.0767797 1.78335 0
M  V30 8191 C 793.974 0.243889 3.38021 0
M  V30 8192 C 793.147 1.28436 4.18118 0
M  V30 8193 C 792.206 0.697926 5.21551 0
M  V30 8194 O 791.232 1.36973 5.52473 0
M  V30 8195 N 792.434 -0.510024 5.78255 0
M  V30 8196 H 795.199 1.7754 2.41453 0
M  V30 8197 H 792.76 1.07244 1.21286 0
M  V30 8198 H 794.752 -0.161727 4.04377 0
M  V30 8199 H 793.322 -0.58722 3.07035 0
M  V30 8200 H 792.542 1.86573 3.47252 0
M  V30 8201 H 793.83 1.98617 4.68432 0
M  V30 8202 H 793.228 -1.07378 5.55416 0
M  V30 8203 H 791.785 -0.857705 6.46132 0
M  V30 8204 N 795.218 -1.23913 0.973828 0
M  V30 8205 C 796.168 -2.22892 0.479933 0
M  V30 8206 C 797.152 -1.54726 -0.441434 0
M  V30 8207 O 798.344 -1.74908 -0.271358 0
M  V30 8208 C 795.473 -3.42577 -0.222702 0
M  V30 8209 C 794.559 -4.17981 0.717851 0
M  V30 8210 N 794.95 -4.7045 1.8577 0
M  V30 8211 C 793.248 -4.42841 0.529858 0
M  V30 8212 C 793.949 -5.27751 2.44651 0
M  V30 8213 N 792.925 -5.15302 1.73104 0
M  V30 8214 H 796.727 -2.61083 1.34956 0
M  V30 8215 H 794.241 -1.39368 0.83368 0
M  V30 8216 H 796.238 -4.1265 -0.593793 0
M  V30 8217 H 794.898 -3.05904 -1.0887 0
M  V30 8218 H 795.909 -4.66997 2.23908 0
M  V30 8219 H 792.586 -4.1648 -0.291664 0
M  V30 8220 H 793.976 -5.79011 3.40875 0
M  V30 8221 N 796.696 -0.74468 -1.38897 0
M  V30 8222 C 797.921 -0.306119 -2.05128 0
M  V30 8223 C 798.346 1.0541 -1.55789 0
M  V30 8224 O 797.704 1.66993 -0.705909 0
M  V30 8225 C 797.752 -0.328195 -3.59103 0
M  V30 8226 O 796.856 0.680876 -4.06741 0
M  V30 8227 H 796.197 -0.137209 -0.649669 0
M  V30 8228 H 798.727 -1.01331 -1.77745 0
M  V30 8229 H 798.737 -0.175956 -4.0762 0
M  V30 8230 H 797.412 -1.32067 -3.94374 0
M  V30 8231 H 795.989 0.49398 -3.69614 0
M  V30 8232 N 798.174 1.49689 -0.493057 0
M  V30 8233 C 799.104 2.31826 0.279073 0
M  V30 8234 C 800.085 1.39733 0.969987 0
M  V30 8235 O 801.27 1.68646 0.962925 0
M  V30 8236 C 798.4 3.20046 1.34862 0
M  V30 8237 C 797.354 4.20869 0.77805 0
M  V30 8238 C 796.68 4.97971 1.94753 0
M  V30 8239 C 797.98 5.21813 -0.225543 0
M  V30 8240 H 799.674 2.96627 -0.406512 0
M  V30 8241 H 797.22 1.42647 -0.196943 0
M  V30 8242 H 799.173 3.76315 1.89645 0
M  V30 8243 H 797.897 2.53172 2.06328 0
M  V30 8244 H 796.556 3.65733 0.252036 0
M  V30 8245 H 796.204 4.27552 2.64969 0
M  V30 8246 H 795.904 5.66186 1.57187 0
M  V30 8247 H 797.428 5.57082 2.49984 0
M  V30 8248 H 798.842 5.72823 0.233864 0
M  V30 8249 H 797.239 5.97872 -0.516622 0
M  V30 8250 H 798.309 4.71209 -1.14412 0
M  V30 8251 N 799.652 0.226554 1.55963 0
M  V30 8252 C 801.063 -0.280381 1.84583 0
M  V30 8253 C 801.414 -1.59105 1.14804 0
M  V30 8254 O 800.539 -2.12297 0.419414 0
M  V30 8255 C 801.134 -0.515499 3.34855 0
M  V30 8256 C 799.693 -0.966733 3.63774 0
M  V30 8257 C 798.84 -0.0325753 2.77281 0
M  V30 8258 H 801.791 0.449626 1.52197 0
M  V30 8259 H 801.812 -1.36085 3.55332 0
M  V30 8260 H 801.324 0.438594 3.85614 0
M  V30 8261 H 799.425 -1.93401 3.18476 0
M  V30 8262 H 799.538 -0.837679 4.7172 0
M  V30 8263 H 797.902 -0.540279 2.48904 0
M  V30 8264 H 798.685 0.916524 3.30839 0
M  V30 8265 N 801.13 -1.57531 -0.0467866 0
M  V30 8266 C 802.546 -1.54451 -0.402107 0
M  V30 8267 C 802.746 -0.950275 -1.77685 0
M  V30 8268 O 801.802 -0.563602 -2.4613 0
M  V30 8269 C 803.115 -2.9899 -0.320212 0
M  V30 8270 C 804.663 -3.10452 -0.398588 0
M  V30 8271 C 805.138 -4.56689 -0.346335 0
M  V30 8272 N 806.629 -4.6142 -0.405666 0
M  V30 8273 C 807.364 -5.72087 -0.387845 0
M  V30 8274 N 806.86 -6.92045 -0.32336 0
M  V30 8275 N 808.653 -5.60404 -0.436263 0
M  V30 8276 H 800.804 -1.94515 0.853087 0
M  V30 8277 H 803.067 -0.891397 0.322669 0
M  V30 8278 H 802.773 -3.46124 0.623794 0
M  V30 8279 H 802.647 -3.60164 -1.1208 0
M  V30 8280 H 805.034 -2.63276 -1.33302 0
M  V30 8281 H 805.115 -2.52142 0.431026 0
M  V30 8282 H 804.759 -5.04527 0.584356 0
M  V30 8283 H 804.689 -5.12889 -1.19382 0
M  V30 8284 H 807.18 -3.75105 -0.458737 0
M  V30 8285 H 807.493 -7.7216 -0.314375 0
M  V30 8286 H 805.838 -6.94396 -0.28967 0
M  V30 8287 H 809.029 -4.65586 -0.48451 0
M  V30 8288 H 809.202 -6.46645 -0.418907 0
M  V30 8289 N 802.608 0.318715 -1.54344 0
M  V30 8290 C 803.571 1.37545 -1.83342 0
M  V30 8291 C 804.571 1.445 -0.705444 0
M  V30 8292 O 805.761 1.44443 -0.973752 0
M  V30 8293 C 802.893 2.76225 -1.99781 0
M  V30 8294 H 804.086 1.13084 -2.77762 0
M  V30 8295 H 801.639 0.554457 -1.46135 0
M  V30 8296 H 802.374 3.05934 -1.07588 0
M  V30 8297 H 802.159 2.7257 -2.81865 0
M  V30 8298 H 803.649 3.52664 -2.23647 0
M  V30 8299 N 804.086 1.46499 0.581025 0
M  V30 8300 C 805.049 1.5677 1.672 0
M  V30 8301 C 806.049 0.444716 1.54528 0
M  V30 8302 O 807.239 0.709074 1.59116 0
M  V30 8303 C 804.371 1.4896 3.06633 0
M  V30 8304 H 805.564 2.54 1.5945 0
M  V30 8305 H 803.117 1.34334 0.799003 0
M  V30 8306 H 803.852 0.530168 3.19937 0
M  V30 8307 H 803.637 2.30439 3.17239 0
M  V30 8308 H 805.127 1.59237 3.86048 0
M  V30 8309 N 805.565 -0.825799 1.34232 0
M  V30 8310 C 806.528 -1.91808 1.25468 0
M  V30 8311 C 807.528 -1.59893 0.170567 0
M  V30 8312 O 808.718 -1.68986 0.422996 0
M  V30 8313 C 805.85 -3.27786 0.93644 0
M  V30 8314 H 807.043 -2.01003 2.22571 0
M  V30 8315 H 804.596 -1.01944 1.18479 0
M  V30 8316 H 805.331 -3.24285 -0.0315408 0
M  V30 8317 H 805.116 -3.52333 1.72057 0
M  V30 8318 H 806.606 -4.07782 0.900214 0
M  V30 8319 N 807.043 -1.17915 -1.04565 0
M  V30 8320 C 807.973 -0.925033 -2.14395 0
M  V30 8321 C 808.954 0.135375 -1.6956 0
M  V30 8322 O 810.139 -0.0161774 -1.94193 0
M  V30 8323 C 807.269 -0.444469 -3.44444 0
M  V30 8324 C 806.223 -1.44478 -4.02877 0
M  V30 8325 C 805.549 -0.821933 -5.28345 0
M  V30 8326 C 806.849 -2.81995 -4.39632 0
M  V30 8327 H 808.543 -1.84354 -2.35911 0
M  V30 8328 H 806.089 -0.887806 -1.13375 0
M  V30 8329 H 808.042 -0.254078 -4.20633 0
M  V30 8330 H 806.766 0.509592 -3.226 0
M  V30 8331 H 805.425 -1.62203 -3.28764 0
M  V30 8332 H 805.073 0.139161 -5.02807 0
M  V30 8333 H 804.773 -1.48976 -5.68401 0
M  V30 8334 H 806.297 -0.641959 -6.07216 0
M  V30 8335 H 807.711 -2.67952 -5.06828 0
M  V30 8336 H 806.108 -3.45414 -4.90723 0
M  V30 8337 H 807.178 -3.35927 -3.49687 0
M  V30 8338 N 808.521 1.23394 -0.980386 0
M  V30 8339 C 809.431 2.28561 -0.528864 0
M  V30 8340 C 810.447 1.68946 0.416329 0
M  V30 8341 O 811.623 1.99355 0.286251 0
M  V30 8342 C 808.688 3.46323 0.16155 0
M  V30 8343 C 807.749 4.21297 -0.825044 0
M  V30 8344 C 806.982 5.33437 -0.167483 0
M  V30 8345 O 807.205 5.60812 1.04146 0
M  V30 8346 O 806.139 5.95637 -0.866047 0
M  V30 8347 H 809.965 2.69326 -1.40346 0
M  V30 8348 H 807.55 1.29325 -0.748019 0
M  V30 8349 H 809.432 4.17811 0.548841 0
M  V30 8350 H 808.107 3.0751 1.01092 0
M  V30 8351 H 807.014 3.52134 -1.26303 0
M  V30 8352 H 808.347 4.6396 -1.64322 0
M  V30 8353 N 809.999 0.752036 1.385 0
M  V30 8354 C 811.415 0.42946 1.53713 0
M  V30 8355 C 811.615 -1.0576 1.71514 0
M  V30 8356 O 810.671 -1.84366 1.72527 0
M  V30 8357 C 811.984 1.22735 2.74511 0
M  V30 8358 C 813.532 1.21727 2.8836 0
M  V30 8359 C 814.007 1.99809 4.12117 0
M  V30 8360 N 815.498 1.97062 4.19191 0
M  V30 8361 C 816.233 2.54274 5.13938 0
M  V30 8362 N 815.729 3.20193 6.14368 0
M  V30 8363 N 817.522 2.44212 5.06277 0
M  V30 8364 H 809.673 1.71581 1.25195 0
M  V30 8365 H 811.936 0.727293 0.60807 0
M  V30 8366 H 811.642 2.28032 2.67758 0
M  V30 8367 H 811.516 0.843186 3.67655 0
M  V30 8368 H 813.903 0.172367 2.94596 0
M  V30 8369 H 813.984 1.64094 1.96232 0
M  V30 8370 H 813.628 3.0431 4.06642 0
M  V30 8371 H 813.558 1.54837 5.03322 0
M  V30 8372 H 816.049 1.49054 3.47263 0
M  V30 8373 H 816.362 3.61272 6.83156 0
M  V30 8374 H 814.707 3.24287 6.14705 0
M  V30 8375 H 817.898 1.92343 4.26757 0
M  V30 8376 H 818.071 2.89096 5.79937 0
M  V30 8377 N 811.477 -1.49425 0.500989 0
M  V30 8378 C 812.705 -2.06861 -0.0403443 0
M  V30 8379 C 813.12 -1.36132 -1.30819 0
M  V30 8380 O 812.477 -0.439647 -1.77125 0
M  V30 8381 C 812.528 -3.6027 -0.297902 0
M  V30 8382 O 812.249 -4.28338 0.919686 0
M  V30 8383 C 813.75 -4.34419 -0.882876 0
M  V30 8384 H 810.97 -0.670688 0.0204619 0
M  V30 8385 H 813.514 -1.92207 0.698342 0
M  V30 8386 H 811.669 -3.74627 -0.98657 0
M  V30 8387 H 812.083 -5.2004 0.682528 0
M  V30 8388 H 813.557 -5.42631 -1.01268 0
M  V30 8389 H 814.034 -3.96898 -1.88066 0
M  V30 8390 H 814.64 -4.24669 -0.231677 0
M  V30 8391 N 812.955 -0.234822 -1.55841 0
M  V30 8392 C 813.865 0.680828 -2.24504 0
M  V30 8393 C 814.881 1.20306 -1.25708 0
M  V30 8394 O 816.057 1.24188 -1.58554 0
M  V30 8395 C 813.122 1.86636 -2.92178 0
M  V30 8396 C 812.183 1.3848 -4.06352 0
M  V30 8397 C 811.416 2.51382 -4.70789 0
M  V30 8398 O 811.639 3.69831 -4.34259 0
M  V30 8399 O 810.573 2.21828 -5.59532 0
M  V30 8400 H 814.399 0.12583 -3.03439 0
M  V30 8401 H 811.984 -0.00381817 -1.494 0
M  V30 8402 H 813.866 2.55845 -3.34845 0
M  V30 8403 H 812.541 2.40921 -2.16192 0
M  V30 8404 H 811.448 0.660341 -3.68226 0
M  V30 8405 H 812.781 0.888177 -4.8412 0
M  V30 8406 N 814.433 1.57553 0.0384317 0
M  V30 8407 C 815.844 1.77258 0.586211 0
M  V30 8408 C 816.195 0.864706 1.76117 0
M  V30 8409 O 815.32 0.057141 2.16325 0
M  V30 8410 C 815.915 3.21453 1.07021 0
M  V30 8411 C 814.474 3.42387 1.56358 0
M  V30 8412 C 813.621 2.72801 0.497508 0
M  V30 8413 H 816.572 1.57585 -0.187796 0
M  V30 8414 H 816.593 3.27451 1.93794 0
M  V30 8415 H 816.105 3.87505 0.214851 0
M  V30 8416 H 814.206 2.81497 2.44111 0
M  V30 8417 H 814.319 4.50968 1.61754 0
M  V30 8418 H 812.683 2.36305 0.95038 0
M  V30 8419 H 813.466 3.41529 -0.348234 0
M  V30 8420 N 815.911 -0.310526 1.54511 0
M  V30 8421 C 817.136 -1.07046 1.7764 0
M  V30 8422 C 817.561 -1.80488 0.529696 0
M  V30 8423 O 816.919 -1.73702 -0.519361 0
M  V30 8424 C 816.967 -2.03411 2.97752 0
M  V30 8425 O 816.071 -3.11545 2.7021 0
M  V30 8426 H 815.412 -0.307994 0.588248 0
M  V30 8427 H 817.942 -0.350848 2.01569 0
M  V30 8428 H 817.952 -2.46048 3.2546 0
M  V30 8429 H 816.627 -1.49361 3.88155 0
M  V30 8430 H 815.204 -2.7349 2.53491 0
M  V30 8431 N 817.389 -1.46805 -0.573248 0
M  V30 8432 C 818.8 -1.46655 -1.15539 0
M  V30 8433 C 819.151 -0.2125 -1.95046 0
M  V30 8434 O 818.276 0.683759 -2.05314 0
M  V30 8435 C 818.871 -2.65711 -2.10198 0
M  V30 8436 C 817.43 -2.68572 -2.63716 0
M  V30 8437 C 816.577 -2.39498 -1.39772 0
M  V30 8438 H 819.528 -1.54547 -0.36068 0
M  V30 8439 H 819.549 -2.41768 -2.93817 0
M  V30 8440 H 819.061 -3.56967 -1.52303 0
M  V30 8441 H 817.162 -1.81414 -3.25453 0
M  V30 8442 H 817.275 -3.68809 -3.05805 0
M  V30 8443 H 815.639 -1.89749 -1.69904 0
M  V30 8444 H 816.422 -3.32942 -0.836943 0
M  V30 8445 N 818.867 0.818669 -1.34668 0
M  V30 8446 C 820.278 1.39177 -1.24446 0
M  V30 8447 C 820.629 1.9578 0.128268 0
M  V30 8448 O 819.754 1.90382 1.02877 0
M  V30 8449 C 820.349 2.53012 -2.25323 0
M  V30 8450 C 818.908 3.06218 -2.18878 0
M  V30 8451 C 818.055 1.79112 -2.11694 0
M  V30 8452 H 821.006 0.622709 -1.45973 0
M  V30 8453 H 821.027 3.31226 -1.8727 0
M  V30 8454 H 820.539 2.11784 -3.25221 0
M  V30 8455 H 818.64 3.51939 -1.22351 0
M  V30 8456 H 818.753 3.65019 -3.10319 0
M  V30 8457 H 817.117 2.0018 -1.57481 0
M  V30 8458 H 817.9 1.40053 -3.13433 0
M  V30 8459 N 820.346 1.18468 1.03938 0
M  V30 8460 C 821.757 0.984808 1.58614 0
M  V30 8461 C 822.108 -0.465165 1.90606 0
M  V30 8462 O 821.233 -1.34274 1.69704 0
M  V30 8463 C 821.828 1.78135 2.8819 0
M  V30 8464 C 820.387 1.62579 3.39478 0
M  V30 8465 C 819.534 1.77501 2.13046 0
M  V30 8466 H 822.485 1.32993 0.865944 0
M  V30 8467 H 822.506 1.27119 3.58638 0
M  V30 8468 H 822.018 2.83661 2.64874 0
M  V30 8469 H 820.119 0.59595 3.67803 0
M  V30 8470 H 820.232 2.42463 4.13217 0
M  V30 8471 H 818.596 1.2046 2.24414 0
M  V30 8472 H 819.379 2.84464 1.92185 0
M  V30 8473 N 821.824 -1.22873 0.986916 0
M  V30 8474 C 823.049 -1.96028 0.677341 0
M  V30 8475 C 823.474 -1.72487 -0.750319 0
M  V30 8476 O 822.832 -1.00036 -1.51203 0
M  V30 8477 C 822.88 -3.46983 0.981593 0
M  V30 8478 O 821.984 -4.12328 0.0770729 0
M  V30 8479 H 821.325 -0.613458 0.254096 0
M  V30 8480 H 823.855 -1.56132 1.32227 0
M  V30 8481 H 823.865 -3.9747 0.920969 0
M  V30 8482 H 822.54 -3.63442 2.02194 0
M  V30 8483 H 821.117 -3.72402 0.192666 0
M  V30 8484 N 823.302 -0.75937 -1.38099 0
M  V30 8485 C 824.265 -0.14372 -2.28749 0
M  V30 8486 C 825.265 0.641338 -1.47457 0
M  V30 8487 O 826.455 0.466751 -1.67831 0
M  V30 8488 C 823.587 0.804545 -3.3127 0
M  V30 8489 H 824.78 -0.942663 -2.847 0
M  V30 8490 H 822.333 -0.526757 -1.47156 0
M  V30 8491 H 823.068 1.62895 -2.80421 0
M  V30 8492 H 822.853 0.243939 -3.9134 0
M  V30 8493 H 824.343 1.23111 -3.99041 0
M  V30 8494 N 824.78 1.49157 -0.508906 0
M  V30 8495 C 826.191 1.86593 -0.0630975 0
M  V30 8496 C 826.542 1.42051 1.35337 0
M  V30 8497 O 825.667 0.801866 2.00995 0
M  V30 8498 C 826.262 3.38629 -0.107729 0
M  V30 8499 C 824.821 3.75336 0.282776 0
M  V30 8500 C 823.968 2.7317 -0.4768 0
M  V30 8501 H 826.919 1.41362 -0.72128 0
M  V30 8502 H 826.94 3.74271 0.685689 0
M  V30 8503 H 826.452 3.71017 -1.13876 0
M  V30 8504 H 824.553 3.48558 1.31675 0
M  V30 8505 H 824.666 4.79081 -0.0421728 0
M  V30 8506 H 823.03 2.54591 0.0743552 0
M  V30 8507 H 823.813 3.08403 -1.50807 0
M  V30 8508 N 826.258 0.243083 1.55714 0
M  V30 8509 C 827.674 -0.111853 1.59208 0
M  V30 8510 C 827.874 -1.5723 1.2602 0
M  V30 8511 O 826.93 -2.31608 1.00569 0
M  V30 8512 C 828.243 0.233885 2.99789 0
M  V30 8513 C 829.791 0.177873 3.12494 0
M  V30 8514 C 830.266 0.49759 4.55289 0
M  V30 8515 N 831.757 0.447949 4.61029 0
M  V30 8516 C 832.492 0.668545 5.69489 0
M  V30 8517 N 831.988 0.952064 6.86227 0
M  V30 8518 N 833.781 0.599512 5.58894 0
M  V30 8519 H 825.932 1.19554 1.75558 0
M  V30 8520 H 828.195 0.480765 0.817049 0
M  V30 8521 H 827.901 1.24835 3.28799 0
M  V30 8522 H 827.775 -0.440846 3.74615 0
M  V30 8523 H 830.162 -0.827263 2.83267 0
M  V30 8524 H 830.243 0.886399 2.39951 0
M  V30 8525 H 829.887 1.50026 4.85237 0
M  V30 8526 H 829.817 -0.232371 5.26087 0
M  V30 8527 H 832.308 0.237388 3.77154 0
M  V30 8528 H 832.621 1.10791 7.64817 0
M  V30 8529 H 830.966 0.989496 6.8792 0
M  V30 8530 H 834.157 0.378088 4.66571 0
M  V30 8531 H 834.33 0.774828 6.43351 0
M  V30 8532 N 827.736 -1.57571 -0.0300757 0
M  V30 8533 C 828.646 -2.09892 -1.04798 0
M  V30 8534 C 829.662 -1.03732 -1.39698 0
M  V30 8535 O 830.838 -1.35461 -1.49038 0
M  V30 8536 C 827.903 -2.56707 -2.33028 0
M  V30 8537 C 826.964 -3.77345 -2.04718 0
M  V30 8538 C 826.197 -4.21918 -3.26834 0
M  V30 8539 O 826.42 -3.66025 -4.37472 0
M  V30 8540 O 825.354 -5.14362 -3.12594 0
M  V30 8541 H 829.18 -2.97023 -0.633344 0
M  V30 8542 H 826.765 -1.47344 -0.246991 0
M  V30 8543 H 828.647 -2.87154 -3.08417 0
M  V30 8544 H 827.322 -1.72688 -2.73789 0
M  V30 8545 H 826.229 -3.51919 -1.26901 0
M  V30 8546 H 827.562 -4.62345 -1.68813 0
M  V30 8547 N 829.214 0.302327 -1.54673 0
M  V30 8548 C 830.625 0.875409 -1.64904 0
M  V30 8549 C 830.976 1.88132 -0.55684 0
M  V30 8550 O 830.101 2.14215 0.306754 0
M  V30 8551 C 830.696 1.59457 -2.9893 0
M  V30 8552 C 829.255 2.11607 -3.11287 0
M  V30 8553 C 828.402 0.948324 -2.6058 0
M  V30 8554 H 831.353 0.079362 -1.58501 0
M  V30 8555 H 831.374 2.46005 -2.90279 0
M  V30 8556 H 830.886 0.8622 -3.78402 0
M  V30 8557 H 828.987 2.87895 -2.36532 0
M  V30 8558 H 829.1 2.35151 -4.17422 0
M  V30 8559 H 827.464 1.33352 -2.17001 0
M  V30 8560 H 828.247 0.229936 -3.42529 0
M  V30 8561 N 830.692 1.47107 0.565454 0
M  V30 8562 C 831.969 1.43787 1.32607 0
M  V30 8563 C 832.349 0.130428 2.10697 0
M  V30 8564 O 831.697 -0.888086 2.10536 0
M  V30 8565 C 831.907 2.67833 2.23755 0
M  V30 8566 C 833.255 3.14704 2.85037 0
M  V30 8567 O 834.279 2.68503 2.34061 0
M  V30 8568 O 833.138 3.95002 3.77671 0
M  V30 8569 H 830.232 0.572623 0.596684 0
M  V30 8570 H 832.778 1.59296 0.58504 0
M  V30 8571 H 831.55 3.54532 1.65597 0
M  V30 8572 H 831.173 2.54869 3.05168 0
M  V30 8573 N 832.17 -0.811516 1.35101 0
M  V30 8574 C 833.08 -1.95475 1.29718 0
M  V30 8575 C 834.096 -1.72813 0.202909 0
M  V30 8576 O 835.272 -1.96725 0.431414 0
M  V30 8577 C 832.337 -3.29975 1.06385 0
M  V30 8578 C 831.398 -3.65566 2.25077 0
M  V30 8579 C 830.631 -4.93648 2.02848 0
M  V30 8580 O 830.854 -5.617 0.992442 0
M  V30 8581 O 829.788 -5.27384 2.90087 0
M  V30 8582 H 833.614 -2.02961 2.25921 0
M  V30 8583 H 831.199 -0.948583 1.15422 0
M  V30 8584 H 833.081 -4.10506 0.951999 0
M  V30 8585 H 831.756 -3.2343 0.132294 0
M  V30 8586 H 830.663 -2.85432 2.41825 0
M  V30 8587 H 831.996 -3.7681 3.16662 0
M  V30 8588 N 833.648 -1.19017 -1.03309 0
M  V30 8589 C 834.896 -0.988258 -1.76289 0
M  V30 8590 C 835.217 0.482557 -1.88935 0
M  V30 8591 O 834.487 1.34969 -1.41987 0
M  V30 8592 H 833.067 -0.36267 -0.653054 0
M  V30 8593 H 835.729 -1.49836 -1.2464 0
M  V30 8594 H 834.825 -1.43273 -2.77271 0
M  V30 8595 N 835.127 1.22348 -0.993418 0
M  V30 8596 C 836.057 2.26584 -0.564088 0
M  V30 8597 C 837.038 1.65102 0.409298 0
M  V30 8598 O 838.223 1.91872 0.299819 0
M  V30 8599 C 835.353 3.47087 0.121554 0
M  V30 8600 C 834.307 4.21009 -0.770429 0
M  V30 8601 C 833.633 5.34678 0.0481586 0
M  V30 8602 C 834.933 4.79636 -2.06752 0
M  V30 8603 H 836.627 2.62749 -1.43538 0
M  V30 8604 H 834.173 1.26303 -0.691628 0
M  V30 8605 H 836.126 4.19166 0.433303 0
M  V30 8606 H 834.85 3.1002 1.0274 0
M  V30 8607 H 833.509 3.50764 -1.06583 0
M  V30 8608 H 833.157 4.93852 0.954933 0
M  V30 8609 H 832.857 5.85061 -0.545641 0
M  V30 8610 H 834.381 6.09573 0.353991 0
M  V30 8611 H 835.795 5.43654 -1.81969 0
M  V30 8612 H 834.192 5.4036 -2.61019 0
M  V30 8613 H 835.262 3.99659 -2.74592 0
M  V30 8614 N 836.605 0.766683 1.37694 0
M  V30 8615 C 838.016 0.394761 1.82479 0
M  V30 8616 C 838.367 -1.07842 1.63904 0
M  V30 8617 O 837.492 -1.83479 1.14737 0
M  V30 8618 C 838.087 0.70974 3.31283 0
M  V30 8619 C 836.646 0.390936 3.74364 0
M  V30 8620 C 835.793 0.956192 2.60293 0
M  V30 8621 H 838.744 0.961756 1.26238 0
M  V30 8622 H 838.765 -0.00742144 3.80499 0
M  V30 8623 H 838.277 1.782 3.4477 0
M  V30 8624 H 836.378 -0.674213 3.66449 0
M  V30 8625 H 836.491 0.895645 4.70654 0
M  V30 8626 H 834.855 0.380744 2.51838 0
M  V30 8627 H 835.638 2.03375 2.76575 0
M  V30 8628 N 838.083 -1.48885 0.516809 0
M  V30 8629 C 839.323 -2.0439 -0.0202232 0
M  V30 8630 C 839.687 -1.38652 -1.32814 0
M  V30 8631 O 840.888 -1.84968 -1.95039 0
M  V30 8632 C 839.159 -3.57071 -0.153257 0
M  V30 8633 S 840.718 -4.34074 -0.642256 0
M  V30 8634 H 837.536 -0.710977 0.00576322 0
M  V30 8635 H 840.138 -1.82753 0.694376 0
M  V30 8636 H 838.842 -4.02454 0.803695 0
M  V30 8637 H 838.373 -3.83139 -0.892627 0
M  V30 8638 H 840.388 -4.58011 -1.90893 0
M  V30 8639 N 839.561 -0.251338 -1.55583 0
M  V30 8640 C 840.972 0.25098 -1.85005 0
M  V30 8641 C 841.323 1.57259 -1.17321 0
M  V30 8642 O 840.448 2.11603 -0.453136 0
M  V30 8643 C 841.043 0.462161 -3.35633 0
M  V30 8644 C 839.602 0.908737 -3.65266 0
M  V30 8645 C 838.749 -0.0115418 -2.77298 0
M  V30 8646 H 841.7 -0.473782 -1.51463 0
M  V30 8647 H 841.721 1.30415 -3.57452 0
M  V30 8648 H 841.233 -0.499886 -3.84867 0
M  V30 8649 H 839.334 1.8831 -3.21512 0
M  V30 8650 H 839.447 0.762526 -4.72993 0
M  V30 8651 H 837.811 0.500612 -2.49732 0
M  V30 8652 H 838.594 -0.969042 -3.29339 0
M  V30 8653 N 841.039 1.57585 0.0217189 0
M  V30 8654 C 842.287 1.89231 0.709641 0
M  V30 8655 C 842.608 0.849964 1.75501 0
M  V30 8656 O 841.878 -0.115485 1.95559 0
M  V30 8657 H 840.458 0.69838 0.265092 0
M  V30 8658 H 843.12 1.94895 -0.0140688 0
M  V30 8659 H 842.216 2.88333 1.19459 0
M  V30 8660 N 842.517 -0.29412 1.54831 0
M  V30 8661 C 843.757 -1.03635 1.76179 0
M  V30 8662 C 844.121 -1.84251 0.539953 0
M  V30 8663 O 845.322 -2.61282 0.631295 0
M  V30 8664 C 843.593 -1.91275 3.01909 0
M  V30 8665 S 845.152 -2.7205 3.44288 0
M  V30 8666 H 841.97 -0.349403 0.619224 0
M  V30 8667 H 844.572 -0.309006 1.93042 0
M  V30 8668 H 843.276 -1.30937 3.88952 0
M  V30 8669 H 842.807 -2.68365 2.87652 0
M  V30 8670 H 844.822 -3.93791 3.01899 0
M  V30 8671 N 843.995 -1.47404 -0.557645 0
M  V30 8672 C 845.235 -1.55585 -1.32562 0
M  V30 8673 C 845.599 -0.212926 -1.90816 0
M  V30 8674 O 846.8 -0.169574 -2.68265 0
M  V30 8675 C 845.071 -2.64249 -2.40639 0
M  V30 8676 S 846.63 -2.9201 -3.2753 0
M  V30 8677 H 843.448 -0.549409 -0.451298 0
M  V30 8678 H 846.05 -1.84782 -0.638438 0
M  V30 8679 H 844.754 -3.60421 -1.96277 0
M  V30 8680 H 844.285 -2.36866 -3.14099 0
M  V30 8681 H 846.3 -2.29191 -4.40098 0
M  V30 8682 N 845.473 0.80434 -1.35529 0
M  V30 8683 C 846.403 1.93086 -1.31301 0
M  V30 8684 C 847.384 1.69068 -0.187044 0
M  V30 8685 O 848.569 1.90399 -0.382359 0
M  V30 8686 C 845.699 3.29867 -1.0865 0
M  V30 8687 C 844.653 3.68373 -2.17911 0
M  V30 8688 C 843.979 5.0334 -1.80423 0
M  V30 8689 C 845.279 3.78516 -3.59893 0
M  V30 8690 H 846.973 1.96882 -2.25561 0
M  V30 8691 H 844.519 0.945841 -1.08581 0
M  V30 8692 H 846.472 4.08281 -1.04331 0
M  V30 8693 H 845.196 3.2642 -0.108359 0
M  V30 8694 H 843.855 2.92247 -2.21331 0
M  V30 8695 H 843.503 4.96399 -0.812213 0
M  V30 8696 H 843.203 5.30074 -2.53565 0
M  V30 8697 H 844.727 5.84191 -1.77633 0
M  V30 8698 H 846.141 4.47155 -3.58783 0
M  V30 8699 H 844.538 4.16721 -4.31814 0
M  V30 8700 H 845.608 2.8001 -3.95882 0
M  V30 8701 N 846.951 1.19563 1.02676 0
M  V30 8702 C 848.199 0.997593 1.75763 0
M  V30 8703 C 848.52 -0.47253 1.89188 0
M  V30 8704 O 847.79 -1.34214 1.42701 0
M  V30 8705 H 846.37 0.366128 0.651122 0
M  V30 8706 H 849.032 1.50495 1.23844 0
M  V30 8707 H 848.128 1.44741 2.76508 0
M  V30 8708 N 848.429 -1.21819 0.999893 0
M  V30 8709 C 849.84 -1.72517 0.713775 0
M  V30 8710 C 850.191 -1.80505 -0.768922 0
M  V30 8711 O 849.316 -1.45611 -1.60083 0
M  V30 8712 C 849.911 -3.13321 1.28901 0
M  V30 8713 C 848.47 -3.61396 1.05212 0
M  V30 8714 C 847.617 -2.39074 1.40494 0
M  V30 8715 H 850.568 -1.07068 1.17141 0
M  V30 8716 H 850.589 -3.74535 0.671084 0
M  V30 8717 H 850.101 -3.07475 2.36814 0
M  V30 8718 H 848.202 -3.72599 -0.0100732 0
M  V30 8719 H 848.315 -4.47145 1.72042 0
M  V30 8720 H 846.679 -2.41015 0.823642 0
M  V30 8721 H 847.462 -2.35884 2.49427 0
M  V30 8722 N 849.908 -0.773975 -1.37286 0
M  V30 8723 C 851.155 -0.339306 -1.99637 0
M  V30 8724 C 851.483 1.08478 -1.61439 0
M  V30 8725 O 850.738 1.7612 -0.853252 0
M  V30 8726 C 851.037 -0.432651 -3.54772 0
M  V30 8727 C 850.703 -1.81531 -4.12744 0
M  V30 8728 C 849.365 -2.19366 -4.2829 0
M  V30 8729 C 851.717 -2.72137 -4.44512 0
M  V30 8730 C 849.045 -3.47239 -4.72908 0
M  V30 8731 C 851.397 -3.99421 -4.90556 0
M  V30 8732 C 850.061 -4.37298 -5.04308 0
M  V30 8733 H 849.331 -0.124161 -0.730524 0
M  V30 8734 H 851.978 -0.988432 -1.64019 0
M  V30 8735 H 850.283 0.30001 -3.9065 0
M  V30 8736 H 851.98 -0.0776 -4.00925 0
M  V30 8737 H 848.57 -1.51126 -4.01072 0
M  V30 8738 H 852.754 -2.44165 -4.32084 0
M  V30 8739 H 848.01 -3.76477 -4.81742 0
M  V30 8740 H 852.184 -4.69756 -5.14104 0
M  V30 8741 H 849.811 -5.36442 -5.38641 0
M  V30 8742 N 851.386 1.48609 -0.524698 0
M  V30 8743 C 852.611 2.07398 0.00952139 0
M  V30 8744 C 853.036 1.37939 1.27884 0
M  V30 8745 O 852.394 0.443633 1.75788 0
M  V30 8746 C 852.442 3.59916 0.221956 0
M  V30 8747 O 851.546 3.91647 1.29175 0
M  V30 8748 H 850.887 0.662981 -0.0367729 0
M  V30 8749 H 853.417 1.91092 -0.7311 0
M  V30 8750 H 853.427 4.05552 0.446236 0
M  V30 8751 H 852.102 4.09876 -0.705306 0
M  V30 8752 H 850.679 3.57796 1.05055 0
M  V30 8753 N 852.864 0.259585 1.55447 0
M  V30 8754 C 854.111 -0.361607 1.99245 0
M  V30 8755 C 854.439 -1.57017 1.14787 0
M  V30 8756 O 853.694 -1.94658 0.201724 0
M  V30 8757 C 853.993 -0.802727 3.48269 0
M  V30 8758 C 853.659 0.299472 4.49904 0
M  V30 8759 C 852.321 0.602157 4.77418 0
M  V30 8760 C 854.673 1.04295 5.10658 0
M  V30 8761 C 852.001 1.65217 5.62957 0
M  V30 8762 C 854.353 2.08257 5.97337 0
M  V30 8763 C 853.017 2.39177 6.23178 0
M  V30 8764 H 852.287 -0.132322 0.72909 0
M  V30 8765 H 854.934 0.370059 1.8789 0
M  V30 8766 H 853.239 -1.61381 3.5702 0
M  V30 8767 H 854.936 -1.29385 3.79553 0
M  V30 8768 H 851.526 0.0534256 4.28567 0
M  V30 8769 H 855.71 0.822358 4.89439 0
M  V30 8770 H 850.966 1.89692 5.81229 0
M  V30 8771 H 855.14 2.6635 6.43452 0
M  V30 8772 H 852.767 3.20677 6.89253 0
M  V30 8773 N 854.342 -1.57594 -0.0133615 0
M  V30 8774 C 855.59 -1.89605 -0.699596 0
M  V30 8775 C 855.911 -0.85926 -1.75048 0
M  V30 8776 O 855.181 0.105112 -1.95618 0
M  V30 8777 H 853.761 -0.699776 -0.261385 0
M  V30 8778 H 856.423 -1.94885 0.0244044 0
M  V30 8779 H 855.519 -2.88962 -1.17928 0
M  V30 8780 N 855.82 0.285905 -1.54985 0
M  V30 8781 C 857.067 1.0192 -1.74982 0
M  V30 8782 C 857.395 1.86743 -0.543816 0
M  V30 8783 O 856.65 1.89874 0.473972 0
M  V30 8784 C 856.949 1.94193 -3.0004 0
M  V30 8785 C 856.615 1.25225 -4.33162 0
M  V30 8786 C 855.277 1.06149 -4.69346 0
M  V30 8787 C 857.629 0.760427 -5.15623 0
M  V30 8788 C 854.957 0.365991 -5.85557 0
M  V30 8789 C 857.309 0.0785787 -6.32551 0
M  V30 8790 C 855.973 -0.124002 -6.67385 0
M  V30 8791 H 855.243 0.372951 -0.640304 0
M  V30 8792 H 857.89 0.292652 -1.89251 0
M  V30 8793 H 856.195 2.73426 -2.80616 0
M  V30 8794 H 857.892 2.51029 -3.12707 0
M  V30 8795 H 854.482 1.41081 -4.04715 0
M  V30 8796 H 858.666 0.895466 -4.88155 0
M  V30 8797 H 853.922 0.198193 -6.11079 0
M  V30 8798 H 858.096 -0.310339 -6.95708 0
M  V30 8799 H 855.723 -0.664918 -7.57287 0
M  V30 8800 N 857.298 1.47698 0.54982 0
M  V30 8801 C 858.228 1.63622 1.66583 0
M  V30 8802 C 859.209 0.485477 1.63025 0
M  V30 8803 O 860.394 0.715692 1.80531 0
M  V30 8804 C 857.524 1.65721 3.05211 0
M  V30 8805 C 856.478 2.80097 3.2362 0
M  V30 8806 C 855.804 2.67272 4.63109 0
M  V30 8807 C 857.104 4.21612 3.08286 0
M  V30 8808 H 858.798 2.57049 1.53512 0
M  V30 8809 H 856.344 1.23705 0.737099 0
M  V30 8810 H 858.297 1.75451 3.83138 0
M  V30 8811 H 857.021 0.688593 3.19258 0
M  V30 8812 H 855.68 2.69889 2.48104 0
M  V30 8813 H 855.328 1.68422 4.73965 0
M  V30 8814 H 855.028 3.44008 4.76374 0
M  V30 8815 H 856.552 2.78942 5.43161 0
M  V30 8816 H 857.966 4.32758 3.76024 0
M  V30 8817 H 856.363 4.99193 3.33057 0
M  V30 8818 H 857.433 4.39462 2.04942 0
M  V30 8819 N 858.776 -0.797141 1.35954 0
M  V30 8820 C 860.001 -1.59097 1.33053 0
M  V30 8821 C 860.426 -1.87897 -0.0874592 0
M  V30 8822 O 859.784 -1.47291 -1.05712 0
M  V30 8823 C 859.832 -2.89346 2.152 0
M  V30 8824 O 858.936 -3.826 1.5392 0
M  V30 8825 H 858.277 -0.482895 0.45575 0
M  V30 8826 H 860.807 -0.988633 1.79129 0
M  V30 8827 H 860.817 -3.38686 2.27499 0
M  V30 8828 H 859.492 -2.6771 3.18283 0
M  V30 8829 H 858.069 -3.41174 1.50516 0
M  V30 8830 N 860.254 -1.20106 -1.0204 0
M  V30 8831 C 861.187 -0.889795 -2.10138 0
M  V30 8832 C 862.165 0.156595 -1.61844 0
M  V30 8833 O 863.349 0.0310192 -1.88474 0
M  V30 8834 C 860.476 -0.333227 -3.37057 0
M  V30 8835 C 859.522 -1.36001 -4.04235 0
M  V30 8836 S 860.355 -2.92366 -4.48645 0
M  V30 8837 C 861.511 -2.38274 -5.78771 0
M  V30 8838 H 861.744 -1.80523 -2.36217 0
M  V30 8839 H 859.277 -1.02912 -1.15102 0
M  V30 8840 H 861.235 -0.0186507 -4.10496 0
M  V30 8841 H 859.896 0.560652 -3.09056 0
M  V30 8842 H 859.089 -0.919874 -4.95534 0
M  V30 8843 H 858.691 -1.62186 -3.37004 0
M  V30 8844 H 860.983 -1.77799 -6.53754 0
M  V30 8845 H 861.926 -3.27955 -6.27576 0
M  V30 8846 H 862.334 -1.8054 -5.34851 0
M  V30 8847 N 861.732 1.21287 -1.00634 0
M  V30 8848 C 862.972 1.92106 -0.698194 0
M  V30 8849 C 863.336 1.76437 0.757222 0
M  V30 8850 O 864.537 2.41641 1.17741 0
M  V30 8851 C 862.808 3.39748 -1.10932 0
M  V30 8852 S 864.367 4.29013 -0.921586 0
M  V30 8853 H 861.185 0.663755 -0.254853 0
M  V30 8854 H 863.787 1.46772 -1.29145 0
M  V30 8855 H 862.491 3.48669 -2.16467 0
M  V30 8856 H 862.022 3.90101 -0.508419 0
M  V30 8857 H 864.037 4.95871 0.180578 0
M  V30 8858 N 863.21 0.781244 1.36873 0
M  V30 8859 C 864.621 0.414093 1.8205 0
M  V30 8860 C 864.972 -1.06098 1.65039 0
M  V30 8861 O 864.097 -1.82251 1.16677 0
M  V30 8862 C 864.692 0.744837 3.30511 0
M  V30 8863 C 863.251 0.430621 3.73929 0
M  V30 8864 C 862.398 0.983746 2.59264 0
M  V30 8865 H 865.349 0.975091 1.2521 0
M  V30 8866 H 865.37 0.032936 3.80486 0
M  V30 8867 H 864.882 1.81847 3.42861 0
M  V30 8868 H 862.983 -0.635308 3.67144 0
M  V30 8869 H 863.096 0.945514 4.69677 0
M  V30 8870 H 861.46 0.407433 2.5142 0
M  V30 8871 H 862.243 2.06297 2.74402 0
M  V30 8872 N 864.689 -1.48329 0.532571 0
M  V30 8873 C 866.105 -1.58458 0.190605 0
M  V30 8874 C 866.305 -1.53427 -1.30623 0
M  V30 8875 O 865.361 -1.4247 -2.08467 0
M  V30 8876 C 866.674 -2.89989 0.79543 0
M  V30 8877 C 868.222 -3.03523 0.7644 0
M  V30 8878 C 868.697 -4.37718 1.34785 0
M  V30 8879 N 870.188 -4.44292 1.30993 0
M  V30 8880 C 870.923 -5.4664 1.73124 0
M  V30 8881 N 870.419 -6.5593 2.22997 0
M  V30 8882 N 872.212 -5.37538 1.64346 0
M  V30 8883 H 864.363 -1.49842 1.50537 0
M  V30 8884 H 866.626 -0.71164 0.626316 0
M  V30 8885 H 866.332 -2.99333 1.84642 0
M  V30 8886 H 866.206 -3.76203 0.27403 0
M  V30 8887 H 868.593 -2.93789 -0.277831 0
M  V30 8888 H 868.674 -2.18912 1.3233 0
M  V30 8889 H 868.318 -4.48206 2.38902 0
M  V30 8890 H 868.248 -5.21019 0.764609 0
M  V30 8891 H 870.739 -3.65897 0.944868 0
M  V30 8892 H 871.052 -7.30167 2.53133 0
M  V30 8893 H 869.397 -6.56886 2.26992 0
M  V30 8894 H 872.588 -4.51052 1.25178 0
M  V30 8895 H 872.761 -6.17169 1.97501 0
M  V30 8896 N 866.167 -0.267825 -1.55308 0
M  V30 8897 C 867.578 0.231344 -1.85261 0
M  V30 8898 C 867.929 1.56006 -1.18982 0
M  V30 8899 O 867.054 2.1111 -0.475554 0
M  V30 8900 C 867.649 0.426537 -3.36104 0
M  V30 8901 C 866.208 0.869945 -3.66209 0
M  V30 8902 C 865.355 -0.0409522 -2.7727 0
M  V30 8903 H 868.306 -0.489821 -1.50952 0
M  V30 8904 H 868.327 1.26616 -3.58816 0
M  V30 8905 H 867.839 -0.540678 -3.84315 0
M  V30 8906 H 865.94 1.84889 -3.23492 0
M  V30 8907 H 866.053 0.712316 -4.73775 0
M  V30 8908 H 864.417 0.474097 -2.50249 0
M  V30 8909 H 865.2 -1.00392 -3.28293 0
M  V30 8910 N 867.645 1.57599 0.00500368 0
M  V30 8911 C 868.873 1.94626 0.702016 0
M  V30 8912 C 869.288 0.86953 1.67585 0
M  V30 8913 O 868.645 -0.15199 1.81866 0
M  V30 8914 C 868.696 3.31658 1.43824 0
M  V30 8915 O 868.417 4.35197 0.503467 0
M  V30 8916 C 869.918 3.83114 2.23021 0
M  V30 8917 H 867.138 0.641785 0.195841 0
M  V30 8918 H 869.682 2.04451 -0.0446287 0
M  V30 8919 H 867.837 3.23156 2.13655 0
M  V30 8920 H 868.251 5.1444 1.02235 0
M  V30 8921 H 869.725 4.81438 2.7004 0
M  V30 8922 H 870.202 3.15559 3.05482 0
M  V30 8923 H 870.808 3.94775 1.58216 0
M  V30 8924 N 869.123 -0.277682 1.55134 0
M  V30 8925 C 870.534 -0.849063 1.66276 0
M  V30 8926 C 870.885 -1.87223 0.5867 0
M  V30 8927 O 870.01 -2.14676 -0.272635 0
M  V30 8928 C 870.605 -1.54681 3.01429 0
M  V30 8929 C 869.164 -2.06628 3.14614 0
M  V30 8930 C 868.311 -0.906748 2.62056 0
M  V30 8931 H 871.262 -0.0541357 1.58608 0
M  V30 8932 H 871.283 -2.41356 2.94156 0
M  V30 8933 H 870.795 -0.80189 3.79725 0
M  V30 8934 H 868.896 -2.84095 2.41082 0
M  V30 8935 H 869.009 -2.2848 4.2111 0
M  V30 8936 H 867.373 -1.29882 2.19095 0
M  V30 8937 H 868.156 -0.175414 3.42852 0
M  V30 8938 N 870.601 -1.47988 -0.541979 0
M  V30 8939 C 871.564 -1.61148 -1.62984 0
M  V30 8940 C 872.564 -0.48553 -1.53295 0
M  V30 8941 O 873.754 -0.751012 -1.5718 0
M  V30 8942 C 870.886 -1.57038 -3.02576 0
M  V30 8943 H 872.079 -2.58138 -1.52659 0
M  V30 8944 H 869.632 -1.36405 -0.763106 0
M  V30 8945 H 870.367 -0.614807 -3.18419 0
M  V30 8946 H 870.152 -2.38769 -3.11018 0
M  V30 8947 H 871.642 -1.69416 -3.81691 0
M  V30 8948 N 872.079 0.78992 -1.36375 0
M  V30 8949 C 873.325 1.55007 -1.3077 0
M  V30 8950 C 873.658 1.93871 0.112979 0
M  V30 8951 O 872.933 1.6267 1.06625 0
M  V30 8952 C 873.216 2.82748 -2.22993 0
M  V30 8953 C 873.069 2.50253 -3.73756 0
M  V30 8954 C 874.388 3.84569 -2.13998 0
M  V30 8955 H 871.507 0.562362 -0.476359 0
M  V30 8956 H 874.149 0.907582 -1.66922 0
M  V30 8957 H 872.299 3.37573 -1.92292 0
M  V30 8958 H 873.971 2.01482 -4.14973 0
M  V30 8959 H 872.214 1.83203 -3.93216 0
M  V30 8960 H 872.885 3.41487 -4.33694 0
M  V30 8961 H 875.361 3.39188 -2.4102 0
M  V30 8962 H 874.237 4.717 -2.80697 0
M  V30 8963 H 874.498 4.27491 -1.12711 0
M  V30 8964 N 873.557 1.20646 1.01402 0
M  V30 8965 C 874.52 0.959314 2.08158 0
M  V30 8966 C 875.52 -0.0661558 1.60664 0
M  V30 8967 O 876.71 0.170177 1.73367 0
M  V30 8968 C 873.842 0.444785 3.37986 0
M  V30 8969 H 875.035 1.90631 2.31517 0
M  V30 8970 H 872.588 1.02219 1.18241 0
M  V30 8971 H 873.323 -0.507553 3.20304 0
M  V30 8972 H 873.108 1.18435 3.73785 0
M  V30 8973 H 874.598 0.291443 4.16582 0
M  V30 8974 N 875.035 -1.20752 1.01276 0
M  V30 8975 C 876.451 -1.42084 0.726934 0
M  V30 8976 C 876.651 -1.89138 -0.694907 0
M  V30 8977 O 875.707 -2.05783 -1.4632 0
M  V30 8978 C 877.02 -2.44575 1.74938 0
M  V30 8979 C 878.568 -2.58347 1.76708 0
M  V30 8980 C 879.043 -3.64078 2.77869 0
M  V30 8981 N 880.534 -3.71558 2.76585 0
M  V30 8982 C 881.269 -4.53016 3.51517 0
M  V30 8983 N 880.765 -5.38309 4.36114 0
M  V30 8984 N 882.558 -4.47512 3.40132 0
M  V30 8985 H 874.709 -0.885228 1.93074 0
M  V30 8986 H 876.972 -0.451075 0.833808 0
M  V30 8987 H 876.678 -2.1699 2.76782 0
M  V30 8988 H 876.552 -3.43503 1.55838 0
M  V30 8989 H 878.939 -2.85265 0.755516 0
M  V30 8990 H 879.02 -1.59628 1.99882 0
M  V30 8991 H 878.664 -3.37905 3.79187 0
M  V30 8992 H 878.594 -4.62412 2.51958 0
M  V30 8993 H 881.085 -3.10629 2.15216 0
M  V30 8994 H 881.398 -5.9754 4.90068 0
M  V30 8995 H 879.743 -5.37824 4.40194 0
M  V30 8996 H 882.934 -3.79912 2.73467 0
M  V30 8997 H 883.107 -5.10759 3.98784 0
M  V30 8998 N 876.513 -0.788492 -1.36457 0
M  V30 8999 C 877.743 -0.371825 -2.03227 0
M  V30 9000 C 878.151 1.01627 -1.59589 0
M  V30 9001 O 877.494 1.663 -0.780382 0
M  V30 9002 C 877.556 -0.355179 -3.57741 0
M  V30 9003 C 877.22 -1.69069 -4.24576 0
M  V30 9004 C 878.217 -2.64601 -4.47529 0
M  V30 9005 C 875.902 -1.96973 -4.62068 0
M  V30 9006 C 877.896 -3.86232 -5.07054 0
M  V30 9007 C 875.583 -3.18872 -5.2131 0
M  V30 9008 C 876.581 -4.1332 -5.43742 0
M  V30 9009 O 876.269 -5.3307 -6.0174 0
M  V30 9010 H 876.001 -0.151452 -0.658816 0
M  V30 9011 H 878.555 -1.06827 -1.75434 0
M  V30 9012 H 876.785 0.397753 -3.84649 0
M  V30 9013 H 878.474 0.0366955 -4.05883 0
M  V30 9014 H 879.24 -2.44329 -4.18961 0
M  V30 9015 H 875.119 -1.24277 -4.43933 0
M  V30 9016 H 878.663 -4.59965 -5.24478 0
M  V30 9017 H 874.56 -3.39022 -5.49304 0
M  V30 9018 H 875.328 -5.34121 -6.20207 0
M  V30 9019 N 877.991 1.48044 -0.54043 0
M  V30 9020 C 879.407 1.58354 -0.199006 0
M  V30 9021 C 879.607 1.54118 1.29807 0
M  V30 9022 O 878.663 1.43573 2.07709 0
M  V30 9023 C 879.976 2.89563 -0.810797 0
M  V30 9024 C 881.524 3.03113 -0.780486 0
M  V30 9025 C 881.999 4.36997 -1.37104 0
M  V30 9026 N 883.49 4.43591 -1.33347 0
M  V30 9027 C 884.225 5.45714 -1.76021 0
M  V30 9028 N 883.721 6.54738 -2.26473 0
M  V30 9029 N 885.514 5.36659 -1.67194 0
M  V30 9030 H 877.665 1.49041 -1.51329 0
M  V30 9031 H 879.928 0.708309 -0.630081 0
M  V30 9032 H 879.634 2.9835 -1.86227 0
M  V30 9033 H 879.508 3.76053 -0.293977 0
M  V30 9034 H 881.895 2.93932 0.262246 0
M  V30 9035 H 881.976 2.18207 -1.33489 0
M  V30 9036 H 881.62 4.46932 -2.41276 0
M  V30 9037 H 881.55 5.20607 -0.792229 0
M  V30 9038 H 884.041 3.65391 -0.964259 0
M  V30 9039 H 884.354 7.28814 -2.57002 0
M  V30 9040 H 882.699 6.55673 -2.30473 0
M  V30 9041 H 885.89 4.50382 -1.27569 0
M  V30 9042 H 886.063 6.16113 -2.00771 0
M  V30 9043 N 879.47 0.276058 1.55163 0
M  V30 9044 C 880.418 -0.626978 2.2399 0
M  V30 9045 C 881.412 -1.15708 1.23725 0
M  V30 9046 O 882.618 -1.1106 1.41653 0
M  V30 9047 H 878.993 -0.220742 0.718872 0
M  V30 9048 H 880.964 -0.0236569 2.98391 0
M  V30 9049 C 879.713 -1.79935 2.97521 0
M  V30 9050 H 879.036 -1.40064 3.74463 0
M  V30 9051 H 880.476 -2.40781 3.48999 0
M  V30 9052 C 878.935 -2.68838 2.03046 0
M  V30 9053 O 879.465 -3.69224 1.58229 0
M  V30 9054 N 877.671 -2.36028 1.69527 0
M  V30 9055 H 877.218 -1.54442 2.06169 0
M  V30 9056 H 877.176 -2.95782 1.06586 0
M  V30 9057 N 880.948 -1.576 0.00335426 0
M  V30 9058 C 881.878 -2.11668 -0.985839 0
M  V30 9059 C 882.859 -1.02661 -1.35627 0
M  V30 9060 O 884.044 -1.30361 -1.43943 0
M  V30 9061 C 881.174 -2.62273 -2.27662 0
M  V30 9062 C 880.128 -3.75837 -2.0477 0
M  V30 9063 C 879.454 -4.12769 -3.39891 0
M  V30 9064 C 880.754 -5.02975 -1.40759 0
M  V30 9065 H 882.448 -2.9457 -0.535637 0
M  V30 9066 H 879.994 -1.41702 -0.256204 0
M  V30 9067 H 881.947 -2.98727 -2.97221 0
M  V30 9068 H 880.671 -1.76498 -2.74802 0
M  V30 9069 H 879.33 -3.39782 -1.37636 0
M  V30 9070 H 878.978 -3.24013 -3.8474 0
M  V30 9071 H 878.678 -4.89281 -3.25389 0
M  V30 9072 H 880.202 -4.51784 -4.1076 0
M  V30 9073 H 881.616 -5.37179 -2.00279 0
M  V30 9074 H 880.013 -5.84315 -1.36734 0
M  V30 9075 H 881.083 -4.83431 -0.377218 0
M  V30 9076 N 882.426 0.269451 -1.5528 0
M  V30 9077 C 883.374 1.35303 -1.89198 0
M  V30 9078 C 884.368 1.50956 -0.768671 0
M  V30 9079 O 885.574 1.52699 -0.953054 0
M  V30 9080 H 881.949 0.452591 -0.600554 0
M  V30 9081 H 883.92 1.03949 -2.79709 0
M  V30 9082 C 882.669 2.70585 -2.18356 0
M  V30 9083 H 881.992 2.59332 -3.04281 0
M  V30 9084 H 883.432 3.45335 -2.46007 0
M  V30 9085 C 881.891 3.21954 -0.992327 0
M  V30 9086 O 882.421 4.01048 -0.228769 0
M  V30 9087 N 880.627 2.79682 -0.789062 0
M  V30 9088 H 880.174 2.15475 -1.41167 0
M  V30 9089 H 880.132 3.14399 0.00634776 0
M  V30 9090 N 883.904 1.48273 0.534124 0
M  V30 9091 C 885.144 1.57674 1.3007 0
M  V30 9092 C 885.508 0.243256 1.90453 0
M  V30 9093 O 886.709 0.212231 2.67961 0
M  V30 9094 C 884.98 2.68044 2.36405 0
M  V30 9095 S 886.539 2.97183 3.22843 0
M  V30 9096 H 883.357 0.55652 0.442501 0
M  V30 9097 H 885.959 1.85774 0.60896 0
M  V30 9098 H 884.663 3.63498 1.90518 0
M  V30 9099 H 884.194 2.41833 3.10291 0
M  V30 9100 H 886.209 2.36164 4.36396 0
M  V30 9101 N 885.382 -0.782676 1.36792 0
M  V30 9102 C 886.292 -1.92679 1.33835 0
M  V30 9103 C 887.308 -1.72344 0.23952 0
M  V30 9104 O 888.484 -1.95766 0.473045 0
M  V30 9105 C 885.549 -3.27644 1.1336 0
M  V30 9106 C 884.61 -3.6071 2.32781 0
M  V30 9107 C 883.843 -4.89234 2.13273 0
M  V30 9108 O 884.066 -5.59468 1.11136 0
M  V30 9109 O 883 -5.21112 3.01208 0
M  V30 9110 H 886.826 -1.98124 2.30175 0
M  V30 9111 H 884.411 -0.923887 1.17408 0
M  V30 9112 H 886.293 -4.08394 1.03886 0
M  V30 9113 H 884.968 -3.23076 0.200868 0
M  V30 9114 H 883.875 -2.80238 2.47825 0
M  V30 9115 H 885.208 -3.70008 3.24584 0
M  V30 9116 N 886.86 -1.21182 -1.00761 0
M  V30 9117 C 887.823 -0.970339 -2.07646 0
M  V30 9118 C 888.823 0.0576345 -1.60697 0
M  V30 9119 O 890.013 -0.179369 -1.73274 0
M  V30 9120 C 887.145 -0.462703 -3.37745 0
M  V30 9121 H 888.338 -1.91856 -2.30502 0
M  V30 9122 H 885.891 -1.02844 -1.17698 0
M  V30 9123 H 886.626 0.490559 -3.20568 0
M  V30 9124 H 886.411 -1.20416 -3.73152 0
M  V30 9125 H 887.901 -0.313531 -4.16421 0
M  V30 9126 N 888.338 1.20213 -1.01915 0
M  V30 9127 C 889.586 1.89272 -0.708552 0
M  V30 9128 C 889.907 1.79394 0.76438 0
M  V30 9129 O 889.177 1.198 1.54999 0
M  V30 9130 H 887.757 0.700628 -0.259094 0
M  V30 9131 H 890.419 1.45985 -1.29129 0
M  V30 9132 H 889.515 2.95841 -0.994215 0
M  V30 9133 N 889.816 0.795718 1.36037 0
M  V30 9134 C 891.041 0.38204 2.03851 0
M  V30 9135 C 891.466 -0.995553 1.59594 0
M  V30 9136 O 890.824 -1.64258 0.767401 0
M  V30 9137 C 890.872 0.461248 3.57638 0
M  V30 9138 O 889.976 -0.529448 4.08987 0
M  V30 9139 H 889.317 0.161227 0.644129 0
M  V30 9140 H 891.847 1.07858 1.73861 0
M  V30 9141 H 891.857 0.32712 4.06687 0
M  V30 9142 H 890.532 1.46613 3.89201 0
M  V30 9143 H 889.109 -0.35646 3.71192 0
M  V30 9144 N 891.294 -1.47756 0.548274 0
M  V30 9145 C 892.224 -2.32702 -0.19284 0
M  V30 9146 C 893.205 -1.43237 -0.917457 0
M  V30 9147 O 894.39 -1.72103 -0.89967 0
M  V30 9148 C 891.52 -3.24831 -1.22891 0
M  V30 9149 C 890.474 -4.23466 -0.621312 0
M  V30 9150 C 889.8 -5.04856 -1.76137 0
M  V30 9151 C 891.1 -5.20616 0.419055 0
M  V30 9152 H 892.794 -2.94914 0.516323 0
M  V30 9153 H 890.34 -1.41818 0.24975 0
M  V30 9154 H 892.293 -3.83094 -1.75547 0
M  V30 9155 H 891.017 -2.60656 -1.9679 0
M  V30 9156 H 889.676 -3.66416 -0.116123 0
M  V30 9157 H 889.324 -4.37091 -2.48918 0
M  V30 9158 H 889.024 -5.71629 -1.36065 0
M  V30 9159 H 890.548 -5.65976 -2.29136 0
M  V30 9160 H 891.962 -5.73296 -0.0211034 0
M  V30 9161 H 890.359 -5.95543 0.738163 0
M  V30 9162 H 891.429 -4.66638 1.31822 0
M  V30 9163 N 892.772 -0.284283 -1.55015 0
M  V30 9164 C 893.702 0.592663 -2.25853 0
M  V30 9165 C 894.683 1.15151 -1.25197 0
M  V30 9166 O 895.868 1.18395 -1.53936 0
M  V30 9167 C 892.998 1.77254 -2.98661 0
M  V30 9168 C 891.952 1.34482 -4.06323 0
M  V30 9169 C 891.278 2.60853 -4.66754 0
M  V30 9170 C 892.578 0.488288 -5.20013 0
M  V30 9171 H 894.272 0.00187041 -2.994 0
M  V30 9172 H 891.818 -0.000540402 -1.44 0
M  V30 9173 H 893.771 2.39199 -3.46932 0
M  V30 9174 H 892.495 2.38931 -2.22664 0
M  V30 9175 H 891.154 0.748519 -3.58877 0
M  V30 9176 H 890.802 3.20808 -3.87416 0
M  V30 9177 H 890.502 2.32942 -5.39455 0
M  V30 9178 H 892.026 3.23631 -5.1778 0
M  V30 9179 H 893.44 1.01298 -5.6428 0
M  V30 9180 H 891.837 0.303669 -5.99331 0
M  V30 9181 H 892.907 -0.490727 -4.8241 0
M  V30 9182 N 894.251 1.57596 -0.0117121 0
M  V30 9183 C 895.491 1.92932 0.675031 0
M  V30 9184 C 895.855 0.887004 1.70283 0
M  V30 9185 O 897.056 1.12599 2.4408 0
M  V30 9186 C 895.327 3.3327 1.29098 0
M  V30 9187 S 896.886 3.90509 2.00121 0
M  V30 9188 H 893.704 0.675226 0.22269 0
M  V30 9189 H 896.306 1.9537 -0.071208 0
M  V30 9190 H 895.01 4.0696 0.530262 0
M  V30 9191 H 894.541 3.34233 2.0749 0
M  V30 9192 H 896.556 3.72532 3.27771 0
M  V30 9193 N 895.729 -0.261212 1.5542 0
M  V30 9194 C 896.679 -1.32571 1.85496 0
M  V30 9195 C 897.663 -1.44155 0.714722 0
M  V30 9196 O 898.855 -1.47637 0.976336 0
M  V30 9197 C 895.984 -2.68384 2.14067 0
M  V30 9198 C 895.07 -2.60864 3.34381 0
M  V30 9199 N 895.461 -2.22967 4.54004 0
M  V30 9200 C 893.759 -2.91904 3.37206 0
M  V30 9201 C 894.46 -2.25727 5.36118 0
M  V30 9202 N 893.436 -2.64667 4.74818 0
M  V30 9203 H 897.238 -1.02298 2.75522 0
M  V30 9204 H 894.752 -0.469849 1.55455 0
M  V30 9205 H 896.749 -3.45189 2.33774 0
M  V30 9206 H 895.409 -2.99536 1.25332 0
M  V30 9207 H 896.42 -1.94748 4.79889 0
M  V30 9208 H 893.097 -3.2769 2.587 0
M  V30 9209 H 894.487 -1.98889 6.41789 0
M  V30 9210 N 897.207 -1.48554 -0.526253 0
M  V30 9211 C 898.623 -1.34757 -0.855138 0
M  V30 9212 C 898.823 -0.36142 -1.98232 0
M  V30 9213 O 897.879 0.216026 -2.51574 0
M  V30 9214 C 899.192 -2.74877 -1.21915 0
M  V30 9215 C 900.74 -2.83393 -1.32882 0
M  V30 9216 C 901.215 -4.24223 -1.72624 0
M  V30 9217 N 902.706 -4.26913 -1.7972 0
M  V30 9218 C 903.441 -5.32824 -2.11863 0
M  V30 9219 N 902.937 -6.49008 -2.42405 0
M  V30 9220 N 904.73 -5.20221 -2.12901 0
M  V30 9221 H 896.881 -2.11284 0.217422 0
M  V30 9222 H 899.144 -0.947367 0.0346362 0
M  V30 9223 H 898.85 -3.48619 -0.464486 0
M  V30 9224 H 898.724 -3.0864 -2.16844 0
M  V30 9225 H 901.111 -2.09904 -2.07424 0
M  V30 9226 H 901.192 -2.53245 -0.360638 0
M  V30 9227 H 900.836 -4.98229 -0.986411 0
M  V30 9228 H 900.766 -4.51817 -2.70498 0
M  V30 9229 H 903.257 -3.4311 -1.58379 0
M  V30 9230 H 903.57 -7.25561 -2.66048 0
M  V30 9231 H 901.915 -6.52277 -2.39917 0
M  V30 9232 H 905.106 -4.28469 -1.885 0
M  V30 9233 H 905.279 -6.02861 -2.37619 0
M  V30 9234 N 898.685 0.775411 -1.37205 0
M  V30 9235 C 899.933 1.53081 -1.3195 0
M  V30 9236 C 900.254 1.9476 0.0966864 0
M  V30 9237 O 899.524 1.66019 1.03993 0
M  V30 9238 H 898.104 0.567762 -0.485444 0
M  V30 9239 H 900.766 0.92309 -1.71654 0
M  V30 9240 H 899.862 2.4319 -1.95614 0
M  V30 9241 N 900.163 1.21714 1.00117 0
M  V30 9242 C 901.113 0.947259 2.07391 0
M  V30 9243 C 902.097 -0.0989662 1.60595 0
M  V30 9244 O 903.289 0.11047 1.76655 0
M  V30 9245 C 900.418 0.517954 3.3937 0
M  V30 9246 C 899.504 1.59846 3.92823 0
M  V30 9247 N 899.895 2.82438 4.19598 0
M  V30 9248 C 898.193 1.46822 4.2114 0
M  V30 9249 C 898.894 3.52247 4.62922 0
M  V30 9250 N 897.87 2.79696 4.66124 0
M  V30 9251 H 901.672 1.8786 2.26022 0
M  V30 9252 H 899.186 1.11344 1.18221 0
M  V30 9253 H 901.183 0.305951 4.15776 0
M  V30 9254 H 899.843 -0.40658 3.22144 0
M  V30 9255 H 900.854 3.18944 4.08038 0
M  V30 9256 H 897.531 0.609259 4.13031 0
M  V30 9257 H 898.921 4.57232 4.9233 0
M  V30 9258 N 901.641 -1.19671 1.02551 0
M  V30 9259 C 902.591 -2.20655 0.574037 0
M  V30 9260 C 903.575 -1.56459 -0.375412 0
M  V30 9261 O 904.767 -1.75901 -0.196929 0
M  V30 9262 C 901.896 -3.43213 -0.0772031 0
M  V30 9263 C 900.982 -4.1456 0.894485 0
M  V30 9264 N 901.373 -4.62147 2.05557 0
M  V30 9265 C 899.671 -4.40196 0.717205 0
M  V30 9266 C 900.372 -5.16899 2.66814 0
M  V30 9267 N 899.348 -5.07496 1.94804 0
M  V30 9268 H 903.15 -2.55124 1.45908 0
M  V30 9269 H 900.664 -1.35707 0.89204 0
M  V30 9270 H 902.661 -4.14797 -0.41824 0
M  V30 9271 H 901.321 -3.10247 -0.957973 0
M  V30 9272 H 902.332 -4.5708 2.43513 0
M  V30 9273 H 899.009 -4.17342 -0.114758 0
M  V30 9274 H 900.399 -5.64032 3.65126 0
M  V30 9275 N 903.119 -0.802921 -1.35613 0
M  V30 9276 C 904.082 -0.216422 -2.28176 0
M  V30 9277 C 905.082 0.594101 -1.49422 0
M  V30 9278 O 906.272 0.41312 -1.6923 0
M  V30 9279 C 903.404 0.698746 -3.33662 0
M  V30 9280 H 904.597 -1.03276 -2.81557 0
M  V30 9281 H 902.15 -0.573307 -1.45406 0
M  V30 9282 H 902.885 1.53891 -2.85461 0
M  V30 9283 H 902.67 0.119314 -3.91918 0
M  V30 9284 H 904.16 1.10354 -4.02755 0
M  V30 9285 N 904.597 1.47463 -0.556102 0
M  V30 9286 C 905.544 2.29998 0.192213 0
M  V30 9287 C 906.514 1.38993 0.909403 0
M  V30 9288 O 907.699 1.67954 0.905316 0
M  V30 9289 C 904.839 3.22932 1.21692 0
M  V30 9290 C 903.952 4.29027 0.505908 0
M  V30 9291 C 903.087 5.09114 1.51581 0
M  V30 9292 C 902.126 6.06984 0.789714 0
M  V30 9293 N 901.263 6.80033 1.74639 0
M  V30 9294 H 906.103 2.93468 -0.517734 0
M  V30 9295 H 903.64 1.44654 -0.267147 0
M  V30 9296 H 905.598 3.75234 1.8236 0
M  V30 9297 H 904.228 2.61329 1.89491 0
M  V30 9298 H 903.28 3.7979 -0.215276 0
M  V30 9299 H 904.592 4.9876 -0.062958 0
M  V30 9300 H 903.746 5.6556 2.19606 0
M  V30 9301 H 902.485 4.3928 2.11859 0
M  V30 9302 H 901.49 5.49717 0.0955382 0
M  V30 9303 H 902.715 6.78827 0.192688 0
M  V30 9304 H 900.661 6.12931 2.33777 0
M  V30 9305 H 900.578 7.45933 1.22965 0
M  V30 9306 H 901.846 7.41054 2.41782 0
M  V30 9307 N 906.075 0.2925 1.54862 0
M  V30 9308 C 907.486 -0.201841 1.85606 0
M  V30 9309 C 907.837 -1.54093 1.21449 0
M  V30 9310 O 906.962 -2.10327 0.509079 0
M  V30 9311 C 907.557 -0.373011 3.3674 0
M  V30 9312 C 906.116 -0.811574 3.67547 0
M  V30 9313 C 905.263 0.0850583 2.7717 0
M  V30 9314 H 908.214 0.513774 1.50153 0
M  V30 9315 H 908.235 -1.20892 3.60785 0
M  V30 9316 H 907.747 0.601751 3.83407 0
M  V30 9317 H 905.848 -1.79719 3.26392 0
M  V30 9318 H 905.961 -0.636853 4.74848 0
M  V30 9319 H 904.325 -0.434224 2.50971 0
M  V30 9320 H 905.108 1.05602 3.26654 0
M  V30 9321 N 907.553 -1.57587 0.0200696 0
M  V30 9322 C 908.964 -1.79312 -0.520019 0
M  V30 9323 C 909.315 -0.929475 -1.72787 0
M  V30 9324 O 908.44 -0.137389 -2.15963 0
M  V30 9325 C 909.035 -3.25203 -0.950172 0
M  V30 9326 C 907.594 -3.47954 -1.43543 0
M  V30 9327 C 906.741 -2.74459 -0.395917 0
M  V30 9328 H 909.692 -1.56779 0.246153 0
M  V30 9329 H 909.713 -3.34418 -1.81508 0
M  V30 9330 H 909.225 -3.88035 -0.070883 0
M  V30 9331 H 907.326 -2.90363 -2.33495 0
M  V30 9332 H 907.439 -4.56661 -1.44905 0
M  V30 9333 H 905.803 -2.39669 -0.862022 0
M  V30 9334 H 906.586 -3.40001 0.47475 0
M  V30 9335 N 909.032 0.252966 -1.55557 0
M  V30 9336 C 910.26 0.999565 -1.81153 0
M  V30 9337 C 910.675 1.79181 -0.594955 0
M  V30 9338 O 910.032 1.77208 0.436311 0
M  V30 9339 C 910.083 1.94227 -3.04891 0
M  V30 9340 O 909.804 1.18209 -4.21851 0
M  V30 9341 C 911.305 2.80536 -3.43241 0
M  V30 9342 H 908.525 0.294402 -0.602966 0
M  V30 9343 H 911.069 0.277686 -2.02606 0
M  V30 9344 H 909.224 2.6185 -2.85505 0
M  V30 9345 H 909.638 1.81922 -4.9194 0
M  V30 9346 H 911.112 3.42442 -4.32941 0
M  V30 9347 H 911.589 3.51337 -2.6355 0
M  V30 9348 H 912.195 2.18373 -3.64956 0
M  V30 9349 N 910.51 1.48831 0.518367 0
M  V30 9350 C 911.921 1.50842 1.10016 0
M  V30 9351 C 912.272 0.284744 1.94123 0
M  V30 9352 O 911.397 -0.607088 2.0771 0
M  V30 9353 C 911.992 2.73329 2.00191 0
M  V30 9354 C 910.551 2.78175 2.53566 0
M  V30 9355 C 909.698 2.4452 1.30786 0
M  V30 9356 H 912.649 1.55779 0.303073 0
M  V30 9357 H 912.67 2.52506 2.84642 0
M  V30 9358 H 912.182 3.62374 1.3895 0
M  V30 9359 H 910.283 1.93368 3.18496 0
M  V30 9360 H 910.396 3.79905 2.91906 0
M  V30 9361 H 908.76 1.95924 1.62744 0
M  V30 9362 H 909.543 3.35819 0.712797 0
M  V30 9363 N 911.988 -0.768124 1.37614 0
M  V30 9364 C 913.213 -1.56239 1.36397 0
M  V30 9365 C 913.638 -1.8804 -0.0475839 0
M  V30 9366 O 912.996 -1.495 -1.02564 0
M  V30 9367 C 913.044 -2.84716 2.21289 0
M  V30 9368 O 912.148 -3.79249 1.62001 0
M  V30 9369 H 911.489 -0.473119 0.465891 0
M  V30 9370 H 914.019 -0.950415 1.81186 0
M  V30 9371 H 914.029 -3.33784 2.34632 0
M  V30 9372 H 912.704 -2.60899 3.2389 0
M  V30 9373 H 911.281 -3.37904 1.57719 0
M  V30 9374 N 913.466 -1.22244 -0.994698 0
M  V30 9375 C 914.396 -1.01513 -2.10279 0
M  V30 9376 C 915.377 0.0633365 -1.69982 0
M  V30 9377 O 916.562 -0.0985268 -1.9395 0
M  V30 9378 C 913.692 -0.59016 -3.42249 0
M  V30 9379 C 912.646 -1.61436 -3.96387 0
M  V30 9380 C 911.972 -1.04528 -5.24383 0
M  V30 9381 C 913.272 -3.00388 -4.27276 0
M  V30 9382 H 914.966 -1.94194 -2.2788 0
M  V30 9383 H 912.512 -0.935094 -1.09508 0
M  V30 9384 H 914.465 -0.432254 -4.19177 0
M  V30 9385 H 913.189 0.372308 -3.24471 0
M  V30 9386 H 911.848 -1.76001 -3.21589 0
M  V30 9387 H 911.496 -0.0742225 -5.02945 0
M  V30 9388 H 911.196 -1.72949 -5.61571 0
M  V30 9389 H 912.72 -0.898922 -6.03947 0
M  V30 9390 H 914.134 -2.89207 -4.95007 0
M  V30 9391 H 912.531 -3.65916 -4.75631 0
M  V30 9392 H 913.601 -3.50456 -3.35125 0
M  V30 9393 N 914.944 1.19125 -1.03184 0
M  V30 9394 C 915.876 2.21914 -0.573294 0
M  V30 9395 C 916.889 1.5894 0.352397 0
M  V30 9396 O 918.078 1.77883 0.148318 0
M  V30 9397 C 915.178 3.38403 0.18355 0
M  V30 9398 C 914.351 4.3096 -0.747817 0
M  V30 9399 C 913.41 5.26188 -0.0358489 0
M  V30 9400 O 912.436 5.65321 -0.663388 0
M  V30 9401 N 913.638 5.67235 1.23387 0
M  V30 9402 H 916.403 2.61881 -1.45734 0
M  V30 9403 H 913.964 1.33821 -0.911231 0
M  V30 9404 H 915.956 3.99124 0.669468 0
M  V30 9405 H 914.526 2.97201 0.969043 0
M  V30 9406 H 913.746 3.67976 -1.41377 0
M  V30 9407 H 915.034 4.89708 -1.38071 0
M  V30 9408 H 914.432 5.37481 1.76439 0
M  V30 9409 H 912.989 6.30196 1.66423 0
M  V30 9410 N 916.422 0.810101 1.35185 0
M  V30 9411 C 917.352 0.237453 2.32289 0
M  V30 9412 C 918.333 -0.639032 1.5764 0
M  V30 9413 O 919.518 -0.568575 1.8569 0
M  V30 9414 C 916.648 -0.611964 3.41866 0
M  V30 9415 C 915.602 0.166318 4.27677 0
M  V30 9416 C 914.928 -0.805024 5.28605 0
M  V30 9417 C 916.228 1.36729 5.04086 0
M  V30 9418 H 917.922 1.04874 2.80432 0
M  V30 9419 H 915.468 0.505751 1.34826 0
M  V30 9420 H 917.421 -1.02267 4.08802 0
M  V30 9421 H 916.145 -1.45617 2.92341 0
M  V30 9422 H 914.804 0.558238 3.62325 0
M  V30 9423 H 914.452 -1.64483 4.75347 0
M  V30 9424 H 914.152 -0.288577 5.86891 0
M  V30 9425 H 915.676 -1.21386 5.98413 0
M  V30 9426 H 917.09 1.03128 5.63948 0
M  V30 9427 H 915.487 1.81848 5.71884 0
M  V30 9428 H 916.557 2.15214 4.34524 0
M  V30 9429 N 917.9 -1.47166 0.563914 0
M  V30 9430 C 919.311 -1.86231 0.132307 0
M  V30 9431 C 919.662 -1.46976 -1.29971 0
M  V30 9432 O 918.787 -0.875911 -1.97881 0
M  V30 9433 C 919.382 -3.37996 0.233335 0
M  V30 9434 C 917.941 -3.76127 -0.143278 0
M  V30 9435 C 917.088 -2.71212 0.577857 0
M  V30 9436 H 920.039 -1.38588 0.773249 0
M  V30 9437 H 920.06 -3.76558 -0.546309 0
M  V30 9438 H 919.572 -3.66535 1.27568 0
M  V30 9439 H 917.673 -3.53205 -1.18648 0
M  V30 9440 H 917.786 -4.78595 0.219952 0
M  V30 9441 H 916.15 -2.54692 0.020186 0
M  V30 9442 H 916.933 -3.02593 1.62149 0
M  V30 9443 N 919.378 -0.300708 -1.54705 0
M  V30 9444 C 920.626 0.308044 -1.99739 0
M  V30 9445 C 920.947 1.54433 -1.19061 0
M  V30 9446 O 920.217 1.93794 -0.286507 0
M  V30 9447 H 918.797 0.116811 -0.73781 0
M  V30 9448 H 921.459 -0.41197 -1.90496 0
M  V30 9449 H 920.555 0.580287 -3.06658 0
M  V30 9450 N 920.856 1.57574 -0.0284266 0
M  V30 9451 C 921.819 2.09096 0.938691 0
M  V30 9452 C 922.819 1.00588 1.25454 0
M  V30 9453 O 924.009 1.2675 1.19499 0
M  V30 9454 C 921.141 2.55624 2.25542 0
M  V30 9455 H 922.334 2.95829 0.49248 0
M  V30 9456 H 919.887 1.5475 0.219594 0
M  V30 9457 H 920.622 1.72218 2.74793 0
M  V30 9458 H 920.407 3.34896 2.03929 0
M  V30 9459 H 921.897 2.95712 2.94863 0
M  V30 9460 N 922.334 -0.244713 1.55689 0
M  V30 9461 C 923.75 -0.593331 1.48161 0
M  V30 9462 C 923.95 -1.88234 0.719047 0
M  V30 9463 O 923.006 -2.51266 0.249292 0
M  V30 9464 C 924.319 -0.694032 2.92581 0
M  V30 9465 C 925.867 -0.786213 3.02965 0
M  V30 9466 C 926.342 -0.918457 4.48696 0
M  V30 9467 N 927.833 -0.983272 4.52643 0
M  V30 9468 C 928.568 -1.1049 5.62654 0
M  V30 9469 N 928.064 -1.19193 6.8247 0
M  V30 9470 N 929.857 -1.13823 5.50455 0
M  V30 9471 H 922.008 0.601446 2.03707 0
M  V30 9472 H 924.271 0.207894 0.924924 0
M  V30 9473 H 923.977 0.183133 3.51223 0
M  V30 9474 H 923.851 -1.56525 3.4319 0
M  V30 9475 H 926.238 -1.65383 2.44402 0
M  V30 9476 H 926.319 0.110202 2.55563 0
M  V30 9477 H 925.963 -0.0553881 5.0787 0
M  V30 9478 H 925.893 -1.82994 4.93782 0
M  V30 9479 H 928.384 -0.927269 3.66347 0
M  V30 9480 H 928.697 -1.28387 7.62061 0
M  V30 9481 H 927.042 -1.16147 6.85226 0
M  V30 9482 H 930.233 -1.06673 4.55783 0
M  V30 9483 H 930.406 -1.22957 6.36228 0
M  V30 9484 N 923.813 -1.49104 -0.510467 0
M  V30 9485 C 925.038 -1.62068 -1.29417 0
M  V30 9486 C 925.463 -0.288432 -1.85875 0
M  V30 9487 O 924.821 0.742667 -1.65391 0
M  V30 9488 C 924.869 -2.68506 -2.40701 0
M  V30 9489 O 923.973 -2.27021 -3.4429 0
M  V30 9490 H 923.314 -0.542778 -0.382476 0
M  V30 9491 H 925.844 -1.95228 -0.612154 0
M  V30 9492 H 925.854 -2.90383 -2.86604 0
M  V30 9493 H 924.529 -3.65216 -1.98973 0
M  V30 9494 H 923.106 -2.15436 -3.04371 0
M  V30 9495 O 925.33 0.655661 -1.47592 0
M  V30 9496 H 926.021 1.30903 -1.42773 0
M  V30 END ATOM
M  V30 BEGIN BOND
M  V30 END BOND
M  V30 END CTAB
M  END
$$$$
