drugbank_target|Q15738 Sterol-4-alpha-carboxylate 3-dehydrogenase, decarboxylating (DB00157)
 OpenBabel12092119233D

  0  0  0     0  0            999 V3000
M  V30 BEGIN CTAB
M  V30 COUNTS 5914 5984 0 0 0
M  V30 BEGIN ATOM
M  V30 1 H -0.908 1.98254 -0.117106 0
M  V30 2 N 0 1.576 0 0
M  V30 3 C 0.933 2.03868 1.02534 0
M  V30 4 C 1.911 0.928543 1.3348 0
M  V30 5 O 3.095 1.19667 1.45644 0
M  V30 6 C 0.222 2.43627 2.35294 0
M  V30 7 C -0.732 3.65373 2.2001 0
M  V30 8 S 0.101 5.13292 1.52614 0
M  V30 9 C 1.257 5.56322 2.86805 0
M  V30 10 H 1.49 2.90518 0.631377 0
M  V30 11 H -0.977 1.52953 0.210867 0
M  V30 12 H 0.981 2.67203 3.11629 0
M  V30 13 H -0.358 1.57376 2.7183 0
M  V30 14 H -1.165 3.90944 3.18086 0
M  V30 15 H -1.563 3.418 1.51819 0
M  V30 16 H 0.729 5.58782 3.83104 0
M  V30 17 H 1.672 6.56266 2.65933 0
M  V30 18 H 2.08 4.83886 2.90714 0
M  V30 19 N 1.4781 -0.272755 1.55222 0
M  V30 20 C 2.3881 -1.35918 1.91216 0
M  V30 21 C 3.4041 -1.54026 0.809436 0
M  V30 22 O 4.5801 -1.68148 1.10852 0
M  V30 23 C 1.6451 -2.69834 2.17693 0
M  V30 24 C 0.7061 -2.6047 3.41253 0
M  V30 25 C -0.0609 -3.88 3.66458 0
M  V30 26 O 0.1621 -4.88693 2.94169 0
M  V30 27 O -0.9039 -3.88189 4.59992 0
M  V30 28 H 2.9221 -1.0839 2.83699 0
M  V30 29 H 0.5071 -0.471301 1.41771 0
M  V30 30 H 2.3891 -3.49017 2.36147 0
M  V30 31 H 1.0641 -2.97148 1.28392 0
M  V30 32 H -0.0289 -1.79663 3.28134 0
M  V30 33 H 1.3041 -2.38106 4.30774 0
M  V30 34 N 2.9562 -1.48159 -0.537278 0
M  V30 35 C 4.3672 -1.49429 -1.11928 0
M  V30 36 C 4.7182 -0.26 -1.9447 0
M  V30 37 O 3.8432 0.633489 -2.0692 0
M  V30 38 C 4.4382 -2.70758 -2.03656 0
M  V30 39 C 2.9972 -2.74923 -2.57088 0
M  V30 40 C 2.1442 -2.42835 -1.3389 0
M  V30 41 H 5.0952 -1.55381 -0.322886 0
M  V30 42 H 5.1162 -2.48861 -2.87834 0
M  V30 43 H 4.6282 -3.60575 -1.43553 0
M  V30 44 H 2.7292 -1.89296 -3.20933 0
M  V30 45 H 2.8422 -3.76157 -2.9672 0
M  V30 46 H 1.2062 -1.93836 -1.65226 0
M  V30 47 H 1.9892 -3.34884 -0.755504 0
M  V30 48 N 4.4343 0.785586 -1.36625 0
M  V30 49 C 5.3973 1.87999 -1.31107 0
M  V30 50 C 6.3973 1.59316 -0.217959 0
M  V30 51 O 7.5873 1.67656 -0.472977 0
M  V30 52 C 4.7193 3.24861 -1.03334 0
M  V30 53 H 5.9123 1.94307 -2.2844 0
M  V30 54 H 3.4653 0.983813 -1.21453 0
M  V30 55 H 4.2003 3.24235 -0.0647432 0
M  V30 56 H 3.9853 3.4707 -1.82441 0
M  V30 57 H 5.4753 4.04929 -1.02088 0
M  V30 58 N 5.9124 1.20967 1.01018 0
M  V30 59 C 7.1584 1.02526 1.74975 0
M  V30 60 C 7.4914 -0.4408 1.89131 0
M  V30 61 O 6.7664 -1.32718 1.42184 0
M  V30 62 C 7.0494 1.71699 3.1653 0
M  V30 63 C 6.9024 3.25791 3.10129 0
M  V30 64 C 8.2214 1.45531 4.15342 0
M  V30 65 H 5.3404 0.373863 0.635134 0
M  V30 66 H 7.9824 1.49071 1.17805 0
M  V30 67 H 6.1324 1.32128 3.65341 0
M  V30 68 H 7.8044 3.74697 2.69072 0
M  V30 69 H 6.0474 3.56363 2.47362 0
M  V30 70 H 6.7184 3.69353 4.10222 0
M  V30 71 H 9.1944 1.79872 3.75213 0
M  V30 72 H 8.0704 1.96453 5.1254 0
M  V30 73 H 8.3314 0.384237 4.40427 0
M  V30 74 N 7.3905 -1.2043 1.01659 0
M  V30 75 C 8.6155 -1.94318 0.724942 0
M  V30 76 C 9.0405 -1.74266 -0.708034 0
M  V30 77 O 8.3985 -1.03694 -1.48719 0
M  V30 78 C 8.4465 -3.44486 1.06591 0
M  V30 79 O 7.5505 -4.12017 0.177599 0
M  V30 80 H 6.8915 -0.60708 0.26898 0
M  V30 81 H 9.4215 -1.52861 1.35995 0
M  V30 82 H 9.4315 -3.95106 1.01762 0
M  V30 83 H 8.1065 -3.58404 2.10997 0
M  V30 84 H 6.6835 -3.71821 0.283421 0
M  V30 85 N 8.8686 -0.792821 -1.36206 0
M  V30 86 C 9.7786 -0.194808 -2.3379 0
M  V30 87 C 10.7946 0.654869 -1.61206 0
M  V30 88 O 11.9706 0.569856 -1.9317 0
M  V30 89 C 9.0356 0.657721 -3.40404 0
M  V30 90 C 8.0966 -0.210849 -4.28782 0
M  V30 91 C 7.3296 0.601086 -5.30304 0
M  V30 92 O 7.5526 1.83682 -5.40016 0
M  V30 93 O 6.4866 -0.000808277 -6.019 0
M  V30 94 H 10.3126 -1.00172 -2.86704 0
M  V30 95 H 7.8976 -0.554341 -1.38735 0
M  V30 96 H 9.7796 1.14375 -4.05581 0
M  V30 97 H 8.4546 1.44247 -2.89784 0
M  V30 98 H 7.3616 -0.743714 -3.66633 0
M  V30 99 H 8.6946 -0.959195 -4.82763 0
M  V30 100 N 10.3467 1.47872 -0.545128 0
M  V30 101 C 11.7577 1.86384 -0.108581 0
M  V30 102 C 12.1087 1.45309 1.31832 0
M  V30 103 O 11.2337 0.850641 1.9898 0
M  V30 104 C 11.8287 3.38265 -0.190274 0
M  V30 105 C 10.3877 3.75914 0.191164 0
M  V30 106 C 9.5347 2.71926 -0.543273 0
M  V30 107 H 12.4857 1.39561 -0.755537 0
M  V30 108 H 12.5067 3.75831 0.594217 0
M  V30 109 H 12.0187 3.6813 -1.2289 0
M  V30 110 H 10.1197 3.51665 1.23136 0
M  V30 111 H 10.2327 4.78836 -0.158987 0
M  V30 112 H 8.5967 2.54697 0.0122495 0
M  V30 113 H 9.3797 3.04634 -1.58282 0
M  V30 114 N 11.8248 0.280983 1.55075 0
M  V30 115 C 12.7578 -0.645439 2.18882 0
M  V30 116 C 13.7358 -1.14786 1.15165 0
M  V30 117 O 14.9198 -1.21975 1.43716 0
M  V30 118 C 12.0468 -1.88088 2.81674 0
M  V30 119 C 11.0928 -1.51343 3.98745 0
M  V30 120 S 11.9258 -0.586548 5.32278 0
M  V30 121 C 13.0818 -1.83024 5.98543 0
M  V30 122 H 13.3148 -0.1033 2.9712 0
M  V30 123 H 10.8478 0.0652099 1.54262 0
M  V30 124 H 12.8058 -2.58997 3.18482 0
M  V30 125 H 11.4668 -2.39417 2.03318 0
M  V30 126 H 10.6598 -2.43289 4.41392 0
M  V30 127 H 10.2618 -0.884477 3.63391 0
M  V30 128 H 12.5538 -2.77342 6.18133 0
M  V30 129 H 13.4968 -1.44668 6.93164 0
M  V30 130 H 13.9048 -1.99785 5.27964 0
M  V30 131 N 13.3029 -1.57598 0.00835791 0
M  V30 132 C 14.7189 -1.55764 -0.347822 0
M  V30 133 C 14.9189 -1.01186 -1.74252 0
M  V30 134 O 13.9749 -0.649371 -2.44007 0
M  V30 135 C 15.2879 -2.99927 -0.215407 0
M  V30 136 C 16.8359 -3.11656 -0.289725 0
M  V30 137 C 17.3109 -4.57621 -0.18634 0
M  V30 138 N 18.8019 -4.62557 -0.243978 0
M  V30 139 C 19.5369 -5.73094 -0.18745 0
M  V30 140 N 19.0329 -6.92753 -0.0810331 0
M  V30 141 N 20.8259 -5.61588 -0.239925 0
M  V30 142 H 12.9769 -1.91411 0.92062 0
M  V30 143 H 15.2399 -0.879562 0.353659 0
M  V30 144 H 14.9459 -3.43729 0.744512 0
M  V30 145 H 14.8199 -3.63865 -0.994097 0
M  V30 146 H 17.2069 -2.67779 -1.24009 0
M  V30 147 H 17.2879 -2.5048 0.51898 0
M  V30 148 H 16.9319 -5.02174 0.760519 0
M  V30 149 H 16.8619 -5.16752 -1.01364 0
M  V30 150 H 19.3529 -3.76481 -0.327217 0
M  V30 151 H 19.6659 -7.72787 -0.0440241 0
M  V30 152 H 18.0109 -6.94984 -0.0465419 0
M  V30 153 H 21.2019 -4.66996 -0.321317 0
M  V30 154 H 21.3749 -6.47714 -0.192407 0
M  V30 155 N 14.781 0.264519 -1.55364 0
M  V30 156 C 16.058 1.01677 -1.67096 0
M  V30 157 C 16.438 2.03996 -0.543015 0
M  V30 158 O 15.786 2.23907 0.45585 0
M  V30 159 C 15.996 1.66596 -3.0667 0
M  V30 160 C 17.344 2.17442 -3.64697 0
M  V30 161 O 18.368 1.76568 -3.09358 0
M  V30 162 O 17.227 2.92439 -4.61673 0
M  V30 163 H 14.321 0.472161 -0.678965 0
M  V30 164 H 16.867 0.259703 -1.67701 0
M  V30 165 H 15.639 0.924962 -3.80211 0
M  V30 166 H 15.262 2.48968 -3.10001 0
M  V30 167 N 16.2591 1.48442 0.529413 0
M  V30 168 C 17.1911 1.59095 1.64989 0
M  V30 169 C 18.2041 0.475212 1.5571 0
M  V30 170 O 19.3931 0.746081 1.6216 0
M  V30 171 C 16.4931 1.50518 3.0364 0
M  V30 172 C 15.6661 2.77142 3.38395 0
M  V30 173 C 14.7251 2.62012 4.56329 0
M  V30 174 O 13.7511 3.35898 4.59522 0
M  V30 175 N 14.9531 1.71667 5.54536 0
M  V30 176 H 17.7181 2.55723 1.56287 0
M  V30 177 H 15.2791 1.45173 0.716697 0
M  V30 178 H 17.2711 1.38091 3.80412 0
M  V30 179 H 15.8411 0.618627 3.06418 0
M  V30 180 H 15.0611 3.0413 2.50796 0
M  V30 181 H 16.3491 3.61146 3.58401 0
M  V30 182 H 15.7471 1.10841 5.54735 0
M  V30 183 H 14.3041 1.65178 6.30523 0
M  V30 184 N 17.7372 -0.778329 1.37039 0
M  V30 185 C 18.9832 -1.53892 1.32079 0
M  V30 186 C 19.3162 -1.9396 -0.0965386 0
M  V30 187 O 18.5912 -1.63568 -1.05242 0
M  V30 188 C 18.8742 -2.80847 2.25382 0
M  V30 189 C 18.7272 -2.47076 3.75864 0
M  V30 190 C 20.0462 -3.82741 2.1725 0
M  V30 191 H 17.1652 -0.558303 0.48111 0
M  V30 192 H 19.8072 -0.893397 1.67685 0
M  V30 193 H 17.9572 -3.35931 1.95148 0
M  V30 194 H 19.6292 -1.97957 4.16666 0
M  V30 195 H 17.8722 -1.79863 3.94755 0
M  V30 196 H 18.5432 -3.37798 4.36574 0
M  V30 197 H 21.0192 -3.37133 2.43887 0
M  V30 198 H 19.8952 -4.69303 2.84686 0
M  V30 199 H 20.1562 -4.2652 1.16331 0
M  V30 200 N 19.2153 -1.21501 -1.00376 0
M  V30 201 C 20.1783 -0.976927 -2.07337 0
M  V30 202 C 21.1783 0.0525322 -1.60714 0
M  V30 203 O 22.3683 -0.184869 -1.73216 0
M  V30 204 C 19.5003 -0.473423 -3.37597 0
M  V30 205 H 20.6933 -1.92587 -2.29892 0
M  V30 206 H 18.2463 -1.03217 -1.17371 0
M  V30 207 H 18.9813 0.480379 -3.20722 0
M  V30 208 H 18.7663 -1.216 -3.72768 0
M  V30 209 H 20.2563 -0.32675 -4.1632 0
M  V30 210 N 20.6934 1.19889 -1.02296 0
M  V30 211 C 22.1094 1.41462 -0.738954 0
M  V30 212 C 22.3094 1.89721 0.678846 0
M  V30 213 O 21.3654 2.07016 1.4457 0
M  V30 214 C 22.6784 2.43083 -1.77005 0
M  V30 215 C 24.2264 2.5684 -1.78892 0
M  V30 216 C 24.7014 3.61709 -2.80945 0
M  V30 217 N 26.1924 3.69199 -2.79725 0
M  V30 218 C 26.9274 4.50019 -3.55345 0
M  V30 219 N 26.4234 5.34592 -4.40662 0
M  V30 220 N 28.2164 4.44612 -3.43914 0
M  V30 221 H 20.3674 0.868827 -1.93817 0
M  V30 222 H 22.6304 0.44399 -0.837602 0
M  V30 223 H 22.3364 2.14636 -2.78612 0
M  V30 224 H 22.2104 3.4217 -1.58744 0
M  V30 225 H 24.5974 2.84614 -0.779674 0
M  V30 226 H 24.6784 1.57927 -2.01228 0
M  V30 227 H 24.3224 3.34678 -3.82038 0
M  V30 228 H 24.2524 4.60259 -2.5587 0
M  V30 229 H 26.7434 3.08794 -2.17842 0
M  V30 230 H 27.0564 5.93363 -4.95116 0
M  V30 231 H 25.4014 5.34073 -4.44737 0
M  V30 232 H 28.5924 3.7758 -2.76679 0
M  V30 233 H 28.7654 5.0736 -4.031 0
M  V30 234 N 22.1715 0.800033 1.35784 0
M  V30 235 C 23.3995 0.389606 2.03199 0
M  V30 236 C 23.8145 -0.997375 1.60306 0
M  V30 237 O 23.1715 -1.64154 0.797481 0
M  V30 238 C 23.2225 0.455855 3.58614 0
M  V30 239 O 22.9435 1.78815 3.99946 0
M  V30 240 C 24.4445 0.0374032 4.43284 0
M  V30 241 H 21.6645 0.159132 0.651857 0
M  V30 242 H 24.2085 1.08183 1.73541 0
M  V30 243 H 22.3635 -0.188057 3.86943 0
M  V30 244 H 22.7775 1.74636 4.94573 0
M  V30 245 H 24.2515 0.134882 5.51835 0
M  V30 246 H 24.7285 -1.01651 4.27275 0
M  V30 247 H 25.3345 0.654215 4.20238 0
M  V30 248 N 23.6496 -1.47581 0.552962 0
M  V30 249 C 24.5996 -2.26961 -0.217423 0
M  V30 250 C 25.5836 -1.34099 -0.889168 0
M  V30 251 O 26.7756 -1.58483 -0.788176 0
M  V30 252 C 23.9046 -3.19756 -1.24944 0
M  V30 253 C 22.9906 -4.20097 -0.581327 0
M  V30 254 N 23.3816 -5.04614 0.346171 0
M  V30 255 C 21.6796 -4.38099 -0.835767 0
M  V30 256 C 22.3806 -5.77052 0.733854 0
M  V30 257 N 21.3566 -5.43526 0.0896567 0
M  V30 258 H 25.1586 -2.89688 0.495761 0
M  V30 259 H 22.6726 -1.58068 0.372597 0
M  V30 260 H 24.6696 -3.75305 -1.81527 0
M  V30 261 H 23.3296 -2.58585 -1.96376 0
M  V30 262 H 24.3406 -5.12869 0.720098 0
M  V30 263 H 21.0176 -3.88102 -1.53892 0
M  V30 264 H 22.4076 -6.5504 1.49574 0
M  V30 265 N 25.1277 -0.289203 -1.54924 0
M  V30 266 C 26.0577 0.58549 -2.2604 0
M  V30 267 C 27.0387 1.14753 -1.25562 0
M  V30 268 O 28.2237 1.17906 -1.54311 0
M  V30 269 C 25.3537 1.76305 -2.99222 0
M  V30 270 C 24.3077 1.33191 -4.06748 0
M  V30 271 C 23.6337 2.5937 -4.6758 0
M  V30 272 C 24.9337 0.471775 -5.20165 0
M  V30 273 H 26.6277 -0.00763532 -2.99399 0
M  V30 274 H 24.1737 -0.00511229 -1.43999 0
M  V30 275 H 26.1267 2.38097 -3.47689 0
M  V30 276 H 24.8507 2.38223 -2.23422 0
M  V30 277 H 23.5097 0.737121 -3.59113 0
M  V30 278 H 23.1577 3.19576 -3.88433 0
M  V30 279 H 22.8577 2.31228 -5.40192 0
M  V30 280 H 24.3817 3.21985 -5.18804 0
M  V30 281 H 25.7957 0.995056 -5.64599 0
M  V30 282 H 24.1927 0.284639 -5.99425 0
M  V30 283 H 25.2627 -0.506041 -4.82252 0
M  V30 284 N 26.6058 1.57591 -0.0167156 0
M  V30 285 C 27.8338 1.95575 0.675128 0
M  V30 286 C 28.2488 0.892542 1.6637 0
M  V30 287 O 27.6058 -0.126912 1.82058 0
M  V30 288 C 27.6568 3.33608 1.39239 0
M  V30 289 O 27.3778 4.3585 0.443444 0
M  V30 290 C 28.8788 3.86151 2.17721 0
M  V30 291 H 26.0988 0.644423 0.186978 0
M  V30 292 H 28.6428 2.0437 -0.0728 0
M  V30 293 H 26.7978 3.2607 2.09182 0
M  V30 294 H 27.2118 5.158 0.951358 0
M  V30 295 H 28.6858 4.85114 2.63379 0
M  V30 296 H 29.1628 3.19738 3.01105 0
M  V30 297 H 29.7688 3.96918 1.52761 0
M  V30 298 N 28.0839 -0.256276 1.55502 0
M  V30 299 C 28.9939 -1.33882 1.92647 0
M  V30 300 C 30.0099 -1.53159 0.825727 0
M  V30 301 O 31.1859 -1.66963 1.12629 0
M  V30 302 C 28.2509 -2.6751 2.20543 0
M  V30 303 C 27.3119 -2.56836 3.43997 0
M  V30 304 C 26.5449 -3.84092 3.70553 0
M  V30 305 O 26.7679 -4.85545 2.99336 0
M  V30 306 O 25.7019 -3.83288 4.64084 0
M  V30 307 H 29.5279 -1.05374 2.84833 0
M  V30 308 H 27.1129 -0.456237 1.42263 0
M  V30 309 H 28.9949 -3.46492 2.39835 0
M  V30 310 H 27.6699 -2.9577 1.31536 0
M  V30 311 H 26.5769 -1.76172 3.30021 0
M  V30 312 H 27.9099 -2.33523 4.33275 0
M  V30 313 N 29.562 -1.4872 -0.521534 0
M  V30 314 C 30.839 -1.4766 -1.2828 0
M  V30 315 C 31.219 -0.19292 -2.10217 0
M  V30 316 O 30.567 0.825193 -2.13079 0
M  V30 317 C 30.777 -2.74358 -2.15705 0
M  V30 318 C 32.125 -3.23028 -2.75569 0
M  V30 319 O 33.149 -2.75333 -2.25987 0
M  V30 320 O 32.008 -4.0604 -3.65778 0
M  V30 321 H 29.102 -0.590085 -0.579421 0
M  V30 322 H 31.648 -1.60963 -0.537492 0
M  V30 323 H 30.42 -3.59292 -1.54999 0
M  V30 324 H 30.043 -2.63816 -2.97467 0
M  V30 325 N 31.0401 0.771051 -1.3745 0
M  V30 326 C 32.2681 1.56015 -1.35893 0
M  V30 327 C 32.6831 1.88718 0.0555523 0
M  V30 328 O 32.0401 1.51502 1.01752 0
M  V30 329 C 32.0911 2.87001 -2.19801 0
M  V30 330 O 31.8121 2.557 -3.55738 0
M  V30 331 C 33.3131 3.81228 -2.26231 0
M  V30 332 H 30.5331 0.483317 -0.465453 0
M  V30 333 H 33.0771 0.955611 -1.80799 0
M  V30 334 H 31.2321 3.43877 -1.78402 0
M  V30 335 H 31.6461 3.39584 -3.99729 0
M  V30 336 H 33.1201 4.70139 -2.89263 0
M  V30 337 H 33.5971 4.20409 -1.27093 0
M  V30 338 H 34.2031 3.30281 -2.67945 0
M  V30 339 N 32.5182 1.22032 0.997298 0
M  V30 340 C 33.9292 1.0397 1.55071 0
M  V30 341 C 34.2802 -0.398192 1.92117 0
M  V30 342 O 33.4052 -1.28254 1.74298 0
M  V30 343 C 34.0002 1.88109 2.81781 0
M  V30 344 C 32.5592 1.74357 3.33581 0
M  V30 345 C 31.7062 1.84846 2.06706 0
M  V30 346 H 34.6572 1.35941 0.818883 0
M  V30 347 H 34.6782 1.39589 3.53971 0
M  V30 348 H 34.1902 2.92754 2.54787 0
M  V30 349 H 32.2912 0.72427 3.65493 0
M  V30 350 H 32.4042 2.56772 4.04481 0
M  V30 351 H 30.7682 1.28238 2.20062 0
M  V30 352 H 31.5512 2.91014 1.82114 0
M  V30 353 N 33.9963 -1.19345 1.0293 0
M  V30 354 C 34.9433 -2.2258 0.610464 0
M  V30 355 C 35.9133 -1.6179 -0.375946 0
M  V30 356 O 37.0983 -1.88844 -0.272511 0
M  V30 357 C 34.2383 -3.45085 -0.0321473 0
M  V30 358 C 33.3513 -4.20258 1.00035 0
M  V30 359 C 32.4863 -5.3019 0.32746 0
M  V30 360 C 31.5253 -5.97121 1.34584 0
M  V30 361 N 30.6623 -6.98615 0.698726 0
M  V30 362 H 35.5023 -2.57764 1.49538 0
M  V30 363 H 33.0393 -1.26644 0.748311 0
M  V30 364 H 34.9973 -4.15061 -0.421966 0
M  V30 365 H 33.6273 -3.10555 -0.88064 0
M  V30 366 H 32.6793 -3.49223 1.50823 0
M  V30 367 H 33.9913 -4.66175 1.77433 0
M  V30 368 H 33.1453 -6.06587 -0.11718 0
M  V30 369 H 31.8843 -4.85345 -0.478713 0
M  V30 370 H 30.8893 -5.19474 1.80074 0
M  V30 371 H 32.1143 -6.4405 2.15352 0
M  V30 372 H 30.0603 -6.55942 -0.0873471 0
M  V30 373 H 29.9773 -7.42724 1.41058 0
M  V30 374 H 31.2453 -7.79004 0.278102 0
M  V30 375 N 35.4744 -0.807222 -1.35358 0
M  V30 376 C 36.7204 -0.388463 -1.99045 0
M  V30 377 C 37.0534 1.04184 -1.63888 0
M  V30 378 O 36.3284 1.72292 -0.902535 0
M  V30 379 C 36.6114 -0.572783 -3.55515 0
M  V30 380 C 36.4644 -2.04807 -4.00468 0
M  V30 381 C 37.7834 0.00114064 -4.401 0
M  V30 382 H 34.9024 -0.142619 -0.723069 0
M  V30 383 H 37.5444 -1.01687 -1.60498 0
M  V30 384 H 35.6944 -0.0378425 -3.88482 0
M  V30 385 H 37.3664 -2.64544 -3.77908 0
M  V30 386 H 35.6094 -2.54427 -3.51353 0
M  V30 387 H 36.2804 -2.12792 -5.09337 0
M  V30 388 H 38.7564 -0.455716 -4.13597 0
M  V30 389 H 37.6324 -0.157737 -5.48673 0
M  V30 390 H 37.8934 1.09488 -4.28328 0
M  V30 391 N 36.9525 1.47285 -0.560781 0
M  V30 392 C 37.9005 2.31756 0.197942 0
M  V30 393 C 38.8945 1.43146 0.905854 0
M  V30 394 O 40.1005 1.59891 0.826733 0
M  V30 395 H 36.4755 0.747438 0.0827049 0
M  V30 396 H 38.4465 2.9359 -0.533629 0
M  V30 397 C 37.1955 3.25874 1.21249 0
M  V30 398 H 36.5185 3.94023 0.67719 0
M  V30 399 H 37.9585 3.87803 1.71419 0
M  V30 400 C 36.4175 2.49651 2.26221 0
M  V30 401 O 36.9475 2.24355 3.33208 0
M  V30 402 N 35.1535 2.10597 2.00243 0
M  V30 403 H 34.7005 2.31369 1.13252 0
M  V30 404 H 34.6585 1.59913 2.70694 0
M  V30 405 N 38.4306 0.297415 1.54768 0
M  V30 406 C 39.3936 -0.567375 2.22066 0
M  V30 407 C 40.3936 -1.06409 1.20556 0
M  V30 408 O 41.5836 -0.960691 1.45315 0
M  V30 409 C 38.7156 -1.78517 2.90421 0
M  V30 410 H 39.9086 0.0205534 2.99893 0
M  V30 411 H 37.4616 0.0482163 1.56226 0
M  V30 412 H 38.1966 -2.41303 2.16664 0
M  V30 413 H 37.9816 -1.43669 3.64831 0
M  V30 414 H 39.4716 -2.39964 3.41771 0
M  V30 415 N 39.9087 -1.5758 0.0250728 0
M  V30 416 C 41.1857 -1.82917 -0.692873 0
M  V30 417 C 41.5657 -0.908137 -1.90568 0
M  V30 418 O 40.9137 0.0372298 -2.2847 0
M  V30 419 C 41.1237 -3.32034 -1.07492 0
M  V30 420 C 42.4717 -3.98406 -1.46826 0
M  V30 421 O 43.4957 -3.36505 -1.16801 0
M  V30 422 O 42.3547 -5.07497 -2.02754 0
M  V30 423 H 39.4487 -0.754079 -0.33955 0
M  V30 424 H 41.9947 -1.69619 0.0524456 0
M  V30 425 H 40.7667 -3.90728 -0.211552 0
M  V30 426 H 40.3897 -3.50424 -1.87854 0
M  V30 427 N 41.3868 0.248026 -1.55636 0
M  V30 428 C 42.6358 0.974134 -1.76617 0
M  V30 429 C 42.9488 1.86528 -0.588796 0
M  V30 430 O 44.1548 2.62805 -0.681594 0
M  V30 431 C 42.6108 1.78213 -3.12679 0
M  V30 432 C 42.2188 0.93843 -4.38061 0
M  V30 433 C 43.9628 2.50104 -3.42999 0
M  V30 434 C 41.8698 1.74225 -5.65155 0
M  V30 435 H 40.7998 0.36745 -0.658405 0
M  V30 436 H 43.4508 0.22884 -1.82067 0
M  V30 437 H 41.8328 2.56933 -3.01333 0
M  V30 438 H 43.0068 0.193635 -4.60393 0
M  V30 439 H 41.3218 0.332905 -4.15067 0
M  V30 440 H 43.9188 3.10694 -4.3517 0
M  V30 441 H 44.2618 3.21662 -2.64271 0
M  V30 442 H 44.7948 1.78395 -3.55556 0
M  V30 443 H 41.5338 1.07043 -6.46701 0
M  V30 444 H 41.0538 2.46235 -5.46926 0
M  V30 445 H 42.7328 2.30967 -6.0437 0
M  V30 446 N 42.8649 1.48995 0.513639 0
M  V30 447 C 43.7749 1.67443 1.64317 0
M  V30 448 C 44.7909 0.556947 1.64846 0
M  V30 449 O 45.9669 0.830082 1.83498 0
M  V30 450 C 43.0319 1.72515 3.00732 0
M  V30 451 C 42.0929 2.96009 3.1093 0
M  V30 452 C 41.3259 3.00829 4.40837 0
M  V30 453 O 41.5489 2.13594 5.28898 0
M  V30 454 O 40.4829 3.93168 4.55744 0
M  V30 455 H 44.3089 2.63106 1.51687 0
M  V30 456 H 41.8939 1.32588 0.688543 0
M  V30 457 H 43.7759 1.78277 3.81831 0
M  V30 458 H 42.4509 0.800278 3.13651 0
M  V30 459 H 41.3579 2.9577 2.29065 0
M  V30 460 H 42.6909 3.87934 3.02933 0
M  V30 461 N 44.343 -0.763751 1.37857 0
M  V30 462 C 45.29 -1.87726 1.34267 0
M  V30 463 C 46.26 -1.64807 0.206879 0
M  V30 464 O 47.445 -1.86613 0.397508 0
M  V30 465 C 44.585 -3.24896 1.16346 0
M  V30 466 C 43.698 -3.59716 2.39225 0
M  V30 467 C 42.833 -4.86137 2.14114 0
M  V30 468 C 41.872 -5.13711 3.32817 0
M  V30 469 N 41.009 -6.31323 3.07206 0
M  V30 470 H 45.849 -1.90129 2.29466 0
M  V30 471 H 43.386 -0.929433 1.14017 0
M  V30 472 H 45.344 -4.04036 1.03975 0
M  V30 473 H 43.974 -3.21847 0.247909 0
M  V30 474 H 43.026 -2.75498 2.62307 0
M  V30 475 H 44.338 -3.76027 3.27728 0
M  V30 476 H 43.492 -5.73198 1.9882 0
M  V30 477 H 42.231 -4.71945 1.22961 0
M  V30 478 H 41.236 -4.25123 3.48641 0
M  V30 479 H 42.461 -5.29807 4.24832 0
M  V30 480 H 40.407 -6.18474 2.1869 0
M  V30 481 H 40.324 -6.48087 3.89254 0
M  V30 482 H 41.592 -7.213 2.95546 0
M  V30 483 N 45.8211 -1.22559 -0.990812 0
M  V30 484 C 47.0671 -1.05297 -1.73322 0
M  V30 485 C 47.4001 0.410655 -1.89808 0
M  V30 486 O 46.6751 1.30439 -1.44277 0
M  V30 487 C 46.9581 -1.76713 -3.13759 0
M  V30 488 C 46.8111 -3.30684 -3.04907 0
M  V30 489 C 48.1301 -1.52121 -4.12974 0
M  V30 490 H 45.2491 -0.38392 -0.629106 0
M  V30 491 H 47.8911 -1.50926 -1.15418 0
M  V30 492 H 46.0411 -1.37924 -3.63193 0
M  V30 493 H 47.7131 -3.7893 -2.63077 0
M  V30 494 H 45.9561 -3.60253 -2.41661 0
M  V30 495 H 46.6271 -3.75833 -4.04294 0
M  V30 496 H 49.1031 -1.85819 -3.72304 0
M  V30 497 H 47.9791 -2.04582 -5.0935 0
M  V30 498 H 48.2401 -0.454257 -4.3976 0
M  V30 499 N 47.2992 1.18797 -1.03562 0
M  V30 500 C 48.2472 2.24297 -0.615905 0
M  V30 501 C 49.2412 1.65643 0.354808 0
M  V30 502 O 50.4472 1.78618 0.22265 0
M  V30 503 H 46.8222 0.729909 -0.180934 0
M  V30 504 H 48.7932 2.5701 -1.5162 0
M  V30 505 C 47.5422 3.47698 0.0104735 0
M  V30 506 H 46.8652 3.93125 -0.727509 0
M  V30 507 H 48.3052 4.23159 0.266995 0
M  V30 508 C 46.7642 3.12489 1.25905 0
M  V30 509 O 47.2942 3.25761 2.35038 0
M  V30 510 N 45.5002 2.6686 1.15039 0
M  V30 511 H 45.0472 2.56261 0.262328 0
M  V30 512 H 45.0052 2.43674 1.98672 0
M  V30 513 N 48.7773 0.814389 1.34928 0
M  V30 514 C 49.7093 0.187834 2.28429 0
M  V30 515 C 50.7223 -0.617374 1.5064 0
M  V30 516 O 51.9113 -0.448454 1.72775 0
M  V30 517 C 49.0113 -0.755962 3.30361 0
M  V30 518 C 48.1843 0.00456686 4.374 0
M  V30 519 C 47.2433 -0.858876 5.19143 0
M  V30 520 O 46.2693 -0.306968 5.68372 0
M  V30 521 N 47.4713 -2.17988 5.38016 0
M  V30 522 H 50.2363 0.991105 2.82838 0
M  V30 523 H 47.7973 0.670561 1.4736 0
M  V30 524 H 49.7893 -1.338 3.81942 0
M  V30 525 H 48.3593 -1.46001 2.7641 0
M  V30 526 H 47.5793 0.767865 3.86649 0
M  V30 527 H 48.8673 0.528422 5.06049 0
M  V30 528 H 48.2653 -2.65212 4.99679 0
M  V30 529 H 46.8223 -2.71098 5.92747 0
M  V30 530 N 50.2554 -1.46986 0.568584 0
M  V30 531 C 51.2034 -2.31858 -0.185649 0
M  V30 532 C 52.1974 -1.43624 -0.898249 0
M  V30 533 O 53.4034 -1.60327 -0.818242 0
M  V30 534 H 49.7784 -0.747866 -0.0787399 0
M  V30 535 H 51.7494 -2.93303 0.549191 0
M  V30 536 C 50.4984 -3.26513 -1.19519 0
M  V30 537 H 49.8214 -3.94377 -0.656285 0
M  V30 538 H 51.2614 -3.88707 -1.6936 0
M  V30 539 C 49.7204 -2.50847 -2.24894 0
M  V30 540 O 50.2504 -2.26119 -3.32014 0
M  V30 541 N 48.4564 -2.11656 -1.99124 0
M  V30 542 H 48.0034 -2.31966 -1.12024 0
M  V30 543 H 47.9614 -1.61347 -2.69842 0
M  V30 544 N 51.7335 -0.305618 -1.54608 0
M  V30 545 C 52.6655 0.602161 -2.21149 0
M  V30 546 C 53.6785 1.09394 -1.20569 0
M  V30 547 O 54.8675 1.0106 -1.47136 0
M  V30 548 C 51.9675 1.83692 -2.84799 0
M  V30 549 C 51.1405 1.48686 -4.11353 0
M  V30 550 C 50.1995 2.57725 -4.58764 0
M  V30 551 O 49.2255 2.22623 -5.23858 0
M  V30 552 N 50.4275 3.88346 -4.31471 0
M  V30 553 H 53.1925 0.0324966 -2.99682 0
M  V30 554 H 50.7535 -0.128021 -1.61393 0
M  V30 555 H 52.7455 2.55994 -3.13448 0
M  V30 556 H 51.3155 2.31486 -2.10078 0
M  V30 557 H 50.5355 0.596269 -3.89664 0
M  V30 558 H 51.8235 1.22842 -4.93748 0
M  V30 559 H 51.2215 4.19671 -3.79331 0
M  V30 560 H 49.7785 4.56932 -4.64818 0
M  V30 561 N 53.2116 1.57565 -0.0334293 0
M  V30 562 C 54.1746 2.09393 0.932048 0
M  V30 563 C 55.1746 1.00986 1.25134 0
M  V30 564 O 56.3646 1.27129 1.19096 0
M  V30 565 C 53.4966 2.56338 2.2473 0
M  V30 566 H 54.6896 2.95984 0.483085 0
M  V30 567 H 52.2426 1.54819 0.21468 0
M  V30 568 H 52.9776 1.7309 2.74245 0
M  V30 569 H 52.7626 3.35542 2.02865 0
M  V30 570 H 54.2526 2.96646 2.93923 0
M  V30 571 N 54.6897 -0.239769 1.55765 0
M  V30 572 C 55.6367 -1.29696 1.90913 0
M  V30 573 C 56.6067 -1.47478 0.764164 0
M  V30 574 O 57.7917 -1.61345 1.01845 0
M  V30 575 C 54.9317 -2.64598 2.21544 0
M  V30 576 C 54.0447 -2.54765 3.48882 0
M  V30 577 C 53.1797 -3.82069 3.69049 0
M  V30 578 C 52.2187 -3.66883 4.89963 0
M  V30 579 N 51.3557 -4.86094 5.06614 0
M  V30 580 H 56.1957 -0.990224 2.81067 0
M  V30 581 H 53.7327 -0.477684 1.39128 0
M  V30 582 H 55.6907 -3.43132 2.3731 0
M  V30 583 H 54.3207 -2.93405 1.34585 0
M  V30 584 H 53.3727 -1.67763 3.41409 0
M  V30 585 H 54.6847 -2.39457 4.37563 0
M  V30 586 H 53.8387 -4.69046 3.84812 0
M  V30 587 H 52.5777 -4.00282 2.78614 0
M  V30 588 H 51.5827 -2.78289 4.74168 0
M  V30 589 H 52.8077 -3.50157 5.81865 0
M  V30 590 H 50.7537 -5.04655 4.19117 0
M  V30 591 H 50.6707 -4.73443 5.89396 0
M  V30 592 H 51.9387 -5.74549 5.26795 0
M  V30 593 N 56.1678 -1.49265 -0.50573 0
M  V30 594 C 57.5838 -1.35923 -0.836486 0
M  V30 595 C 57.7838 -0.388704 -1.97715 0
M  V30 596 O 56.8398 0.181336 -2.51848 0
M  V30 597 C 58.1528 -2.76531 -1.18115 0
M  V30 598 C 59.7008 -2.85197 -1.28964 0
M  V30 599 C 60.1758 -4.26561 -1.66761 0
M  V30 600 N 61.6668 -4.2935 -1.73819 0
M  V30 601 C 62.4018 -5.35693 -2.045 0
M  V30 602 N 61.8978 -6.52287 -2.33438 0
M  V30 603 N 63.6908 -5.23105 -2.05711 0
M  V30 604 H 55.8418 -2.10965 0.246519 0
M  V30 605 H 58.1048 -0.9468 0.0476887 0
M  V30 606 H 57.8108 -3.49226 -0.416398 0
M  V30 607 H 57.6848 -3.11599 -2.1257 0
M  V30 608 H 60.0718 -2.12742 -2.04511 0
M  V30 609 H 60.1528 -2.53718 -0.325704 0
M  V30 610 H 59.7968 -4.99541 -0.917656 0
M  V30 611 H 59.7268 -4.55502 -2.64246 0
M  V30 612 H 62.2178 -3.4526 -1.53635 0
M  V30 613 H 62.5308 -7.29158 -2.56024 0
M  V30 614 H 60.8758 -6.55521 -2.30905 0
M  V30 615 H 64.0668 -4.31026 -1.82577 0
M  V30 616 H 64.2398 -6.06078 -2.29289 0
M  V30 617 N 57.6459 0.756429 -1.3826 0
M  V30 618 C 58.8859 1.52833 -1.35725 0
M  V30 619 C 59.2499 1.91926 0.0534106 0
M  V30 620 O 60.4509 2.68028 0.203613 0
M  V30 621 C 58.7219 2.74919 -2.28373 0
M  V30 622 S 60.2809 3.64817 -2.43832 0
M  V30 623 H 57.0989 0.523043 -0.481608 0
M  V30 624 H 59.7009 0.888212 -1.74158 0
M  V30 625 H 58.4049 2.44304 -3.29763 0
M  V30 626 H 57.9359 3.43878 -1.91079 0
M  V30 627 H 59.9509 4.676 -1.66027 0
M  V30 628 N 59.124 1.23083 0.984299 0
M  V30 629 C 60.352 1.08714 1.76037 0
M  V30 630 C 60.767 -0.361691 1.85303 0
M  V30 631 O 60.124 -1.25034 1.32939 0
M  V30 632 C 60.175 1.70206 3.18923 0
M  V30 633 O 59.896 3.09423 3.10144 0
M  V30 634 C 61.397 1.61227 4.12941 0
M  V30 635 H 58.617 0.380664 0.552572 0
M  V30 636 H 61.161 1.62853 1.23689 0
M  V30 637 H 59.316 1.20109 3.6831 0
M  V30 638 H 59.73 3.39188 4.00065 0
M  V30 639 H 61.204 2.08962 5.10919 0
M  V30 640 H 61.681 0.570375 4.35481 0
M  V30 641 H 62.287 2.10671 3.69456 0
M  V30 642 N 60.6021 -1.18246 1.0419 0
M  V30 643 C 61.8481 -1.88536 0.747122 0
M  V30 644 C 62.1811 -1.80223 -0.723409 0
M  V30 645 O 61.4561 -1.20337 -1.52804 0
M  V30 646 C 61.7391 -3.38968 1.21544 0
M  V30 647 C 61.5921 -3.56084 2.74816 0
M  V30 648 C 62.9111 -4.32648 0.806482 0
M  V30 649 H 60.0301 -0.684619 0.272883 0
M  V30 650 H 62.6721 -1.39113 1.29413 0
M  V30 651 H 60.8221 -3.8119 0.750081 0
M  V30 652 H 62.4941 -3.22946 3.29399 0
M  V30 653 H 60.7371 -2.98699 3.14582 0
M  V30 654 H 61.4081 -4.61639 3.02644 0
M  V30 655 H 63.8841 -3.98211 1.20695 0
M  V30 656 H 62.7601 -5.36462 1.1619 0
M  V30 657 H 63.0211 -4.41146 -0.29029 0
M  V30 658 N 62.0802 -0.821533 -1.34494 0
M  V30 659 C 63.3292 -0.405355 -1.97585 0
M  V30 660 C 63.6422 1.03677 -1.65863 0
M  V30 661 O 64.8482 1.55679 -2.22433 0
M  V30 662 C 63.3042 -0.673861 -3.53535 0
M  V30 663 C 62.9122 -2.12951 -3.94152 0
M  V30 664 C 64.6562 -0.32378 -4.23263 0
M  V30 665 C 62.5632 -2.34298 -5.43009 0
M  V30 666 H 61.4932 -0.147836 -0.739365 0
M  V30 667 H 64.1442 -1.00769 -1.53355 0
M  V30 668 H 62.5262 -0.00137554 -3.96 0
M  V30 669 H 63.7002 -2.84104 -3.62797 0
M  V30 670 H 62.0152 -2.44089 -3.37356 0
M  V30 671 H 64.6122 -0.461126 -5.32708 0
M  V30 672 H 64.9552 0.731586 -4.09821 0
M  V30 673 H 65.4882 -0.950786 -3.8627 0
M  V30 674 H 62.2272 -3.38335 -5.61435 0
M  V30 675 H 61.7472 -1.67687 -5.75883 0
M  V30 676 H 63.4262 -2.16588 -6.09671 0
M  V30 677 N 63.5583 1.46682 -0.576371 0
M  V30 678 C 64.8063 2.02013 -0.0594163 0
M  V30 679 C 65.1273 1.45101 1.30271 0
M  V30 680 O 64.3973 0.633317 1.8538 0
M  V30 681 H 62.9773 0.746759 -0.0189745 0
M  V30 682 H 65.6393 1.79862 -0.750717 0
M  V30 683 H 64.7353 3.12097 0.014345 0
M  V30 684 N 65.0364 0.313813 1.54444 0
M  V30 685 C 66.2844 -0.291099 1.99993 0
M  V30 686 C 66.6054 -1.53418 1.20366 0
M  V30 687 O 65.8754 -1.93544 0.302927 0
M  V30 688 H 64.4554 -0.110552 0.738774 0
M  V30 689 H 67.1174 0.428106 1.9014 0
M  V30 690 H 66.2134 -0.554268 3.07139 0
M  V30 691 N 66.5145 -1.57545 0.0417849 0
M  V30 692 C 67.7395 -1.97035 -0.647455 0
M  V30 693 C 68.1645 -0.918775 -1.64135 0
M  V30 694 O 67.5225 0.119006 -1.80909 0
M  V30 695 C 67.5705 -3.35609 -1.31905 0
M  V30 696 O 66.6745 -3.3287 -2.43457 0
M  V30 697 H 66.0155 -0.64211 -0.169086 0
M  V30 698 H 68.5455 -2.04318 0.107399 0
M  V30 699 H 68.5555 -3.72126 -1.67291 0
M  V30 700 H 67.2305 -4.11685 -0.590586 0
M  V30 701 H 65.8075 -3.08087 -2.10088 0
M  V30 702 N 67.9926 0.231505 -1.5589 0
M  V30 703 C 69.2406 0.955461 -1.78088 0
M  V30 704 C 69.5616 1.85262 -0.608533 0
M  V30 705 O 68.8316 1.92277 0.375035 0
M  V30 706 H 67.4116 0.355787 -0.656829 0
M  V30 707 H 70.0736 0.245751 -1.93344 0
M  V30 708 H 69.1696 1.56814 -2.69844 0
M  V30 709 N 69.4707 1.49531 0.497807 0
M  V30 710 C 70.7177 1.59179 1.25173 0
M  V30 711 C 71.0457 0.279932 1.92475 0
M  V30 712 O 70.3007 -0.732383 1.81479 0
M  V30 713 C 70.5997 2.70252 2.33878 0
M  V30 714 C 70.2657 4.11644 1.84012 0
M  V30 715 C 68.9277 4.50121 1.70132 0
M  V30 716 C 71.2797 5.00121 1.46725 0
M  V30 717 C 68.6077 5.74845 1.17348 0
M  V30 718 C 70.9597 6.25366 0.95392 0
M  V30 719 C 69.6237 6.6267 0.801538 0
M  V30 720 H 68.8937 0.582478 0.45804 0
M  V30 721 H 71.5407 1.83373 0.551948 0
M  V30 722 H 69.8457 2.40041 3.09657 0
M  V30 723 H 71.5427 2.74925 2.9192 0
M  V30 724 H 68.1327 3.81274 1.95775 0
M  V30 725 H 72.3167 4.71048 1.56294 0
M  V30 726 H 67.5727 6.02444 1.04264 0
M  V30 727 H 71.7467 6.93301 0.656225 0
M  V30 728 H 69.3737 7.59197 0.390351 0
M  V30 729 N 70.9488 -0.749086 1.3866 0
M  V30 730 C 71.8788 -1.8764 1.38973 0
M  V30 731 C 72.8598 -1.68178 0.255004 0
M  V30 732 O 74.0448 -1.88704 0.458754 0
M  V30 733 C 71.1748 -3.25222 1.21851 0
M  V30 734 C 70.1288 -3.59295 2.32575 0
M  V30 735 C 69.4548 -4.95663 2.00555 0
M  V30 736 C 70.7548 -3.63709 3.7485 0
M  V30 737 H 72.4488 -1.87635 2.3331 0
M  V30 738 H 69.9948 -0.901329 1.12303 0
M  V30 739 H 71.9478 -4.03746 1.20695 0
M  V30 740 H 70.6718 -3.25719 0.239775 0
M  V30 741 H 69.3308 -2.83093 2.32925 0
M  V30 742 H 68.9788 -4.92724 1.01154 0
M  V30 743 H 68.6788 -5.19429 2.74714 0
M  V30 744 H 70.2028 -5.7656 2.01024 0
M  V30 745 H 71.6168 -4.32338 3.76506 0
M  V30 746 H 70.0138 -3.98986 4.48252 0
M  V30 747 H 71.0838 -2.63834 4.06841 0
M  V30 748 N 72.4269 -1.23603 -0.977757 0
M  V30 749 C 73.6749 -1.06759 -1.71601 0
M  V30 750 C 73.9959 0.395929 -1.90938 0
M  V30 751 O 73.2659 1.28356 -1.47992 0
M  V30 752 H 71.8459 -0.392062 -0.635843 0
M  V30 753 H 74.5079 -1.55362 -1.1768 0
M  V30 754 H 73.6039 -1.55763 -2.70452 0
M  V30 755 N 73.905 1.17692 -1.04816 0
M  V30 756 C 74.837 2.21103 -0.603822 0
M  V30 757 C 75.85 1.59411 0.33046 0
M  V30 758 O 77.039 1.7807 0.12379 0
M  V30 759 C 74.139 3.38623 0.136898 0
M  V30 760 C 73.312 4.29888 -0.807137 0
M  V30 761 C 72.371 5.26088 -0.10836 0
M  V30 762 O 71.397 5.64353 -0.741232 0
M  V30 763 N 72.599 5.68882 1.15558 0
M  V30 764 H 75.364 2.59848 -1.49329 0
M  V30 765 H 72.925 1.32553 -0.929587 0
M  V30 766 H 74.917 4.00009 0.614401 0
M  V30 767 H 73.487 2.98508 0.927993 0
M  V30 768 H 72.707 3.65993 -1.46434 0
M  V30 769 H 73.995 4.87759 -1.44807 0
M  V30 770 H 73.393 5.39861 1.69015 0
M  V30 771 H 71.95 6.32429 1.57722 0
M  V30 772 N 75.3831 0.828654 1.34056 0
M  V30 773 C 76.3331 0.226828 2.26869 0
M  V30 774 C 77.3171 -0.612243 1.48796 0
M  V30 775 O 78.5091 -0.465884 1.70759 0
M  V30 776 C 75.6381 -0.605654 3.37915 0
M  V30 777 C 74.7241 0.244361 4.23395 0
M  V30 778 N 75.1151 1.31815 4.88322 0
M  V30 779 C 73.4131 0.0296616 4.4599 0
M  V30 780 C 74.1141 1.83895 5.51867 0
M  V30 781 N 73.0901 1.14196 5.3147 0
M  V30 782 H 76.8921 1.04811 2.74576 0
M  V30 783 H 74.4061 0.67205 1.47842 0
M  V30 784 H 76.4031 -1.05302 4.03382 0
M  V30 785 H 75.0631 -1.42504 2.91758 0
M  V30 786 H 76.0741 1.70099 4.8917 0
M  V30 787 H 72.7511 -0.757097 4.10578 0
M  V30 788 H 74.1411 2.7376 6.136 0
M  V30 789 N 76.8612 -1.46375 0.584142 0
M  V30 790 C 77.7942 -2.27351 -0.196676 0
M  V30 791 C 78.7722 -1.35715 -0.895561 0
M  V30 792 O 79.9562 -1.65126 -0.90916 0
M  V30 793 C 77.0832 -3.13486 -1.28235 0
M  V30 794 C 76.1292 -4.20896 -0.689145 0
M  V30 795 S 76.9622 -5.33299 0.48507 0
M  V30 796 C 78.1182 -6.23 -0.601767 0
M  V30 797 H 78.3512 -2.93228 0.490395 0
M  V30 798 H 75.8842 -1.49875 0.371071 0
M  V30 799 H 77.8422 -3.63676 -1.90395 0
M  V30 800 H 76.5032 -2.4692 -1.94138 0
M  V30 801 H 75.6962 -4.80997 -1.50527 0
M  V30 802 H 75.2982 -3.73726 -0.143181 0
M  V30 803 H 77.5902 -6.60979 -1.48705 0
M  V30 804 H 78.5332 -7.0809 -0.0374799 0
M  V30 805 H 78.9412 -5.57173 -0.906557 0
M  V30 806 N 78.3393 -0.321999 -1.54275 0
M  V30 807 C 79.5853 0.281461 -2.00837 0
M  V30 808 C 79.9183 1.51909 -1.20985 0
M  V30 809 O 79.1933 1.923 -0.291733 0
M  V30 810 C 79.4763 0.617162 -3.54772 0
M  V30 811 C 79.3293 -0.631064 -4.45351 0
M  V30 812 C 80.6483 1.43542 -4.16033 0
M  V30 813 H 77.7673 0.100826 -0.730071 0
M  V30 814 H 80.4093 -0.438268 -1.84876 0
M  V30 815 H 78.5593 1.23034 -3.68504 0
M  V30 816 H 80.2313 -1.26934 -4.43492 0
M  V30 817 H 78.4743 -1.26025 -4.15091 0
M  V30 818 H 79.1453 -0.351735 -5.50878 0
M  V30 819 H 81.6213 0.917134 -4.05867 0
M  V30 820 H 80.4973 1.63907 -5.23856 0
M  V30 821 H 80.7583 2.43108 -3.69257 0
M  V30 822 N 79.8174 1.5752 -0.0501392 0
M  V30 823 C 80.7274 2.14952 0.939827 0
M  V30 824 C 81.7434 1.10706 1.34239 0
M  V30 825 O 82.9194 1.42869 1.41952 0
M  V30 826 C 79.9844 2.68232 2.19665 0
M  V30 827 C 79.0454 3.87272 1.85253 0
M  V30 828 C 78.2784 4.38002 3.04943 0
M  V30 829 O 78.5014 3.87811 4.18281 0
M  V30 830 O 77.4354 5.29602 2.86017 0
M  V30 831 H 81.2614 2.9986 0.481392 0
M  V30 832 H 78.8464 1.4841 0.171699 0
M  V30 833 H 80.7284 3.02475 2.93406 0
M  V30 834 H 79.4034 1.86395 2.64648 0
M  V30 835 H 78.3104 3.5792 1.0883 0
M  V30 836 H 79.6434 4.70336 1.4507 0
M  V30 837 N 81.2955 -0.223234 1.56011 0
M  V30 838 C 82.2275 -1.30006 1.88762 0
M  V30 839 C 83.2405 -1.43129 0.775746 0
M  V30 840 O 84.4295 -1.44057 1.05403 0
M  V30 841 C 81.5295 -2.67589 2.07965 0
M  V30 842 C 80.7025 -2.76434 3.38973 0
M  V30 843 C 79.7615 -3.95019 3.47629 0
M  V30 844 O 78.7875 -3.83436 4.20672 0
M  V30 845 N 79.9895 -5.09249 2.78649 0
M  V30 846 H 82.7545 -1.02238 2.81722 0
M  V30 847 H 80.3155 -0.413278 1.56536 0
M  V30 848 H 82.3075 -3.45297 2.11073 0
M  V30 849 H 80.8775 -2.87964 1.21638 0
M  V30 850 H 80.0975 -1.85216 3.47978 0
M  V30 851 H 81.3855 -2.79313 4.25278 0
M  V30 852 H 80.7835 -5.21556 2.19081 0
M  V30 853 H 79.3405 -5.85007 2.8742 0
M  V30 854 N 82.7736 -1.49793 -0.48987 0
M  V30 855 C 83.7036 -1.70201 -1.59856 0
M  V30 856 C 84.6846 -0.55076 -1.60937 0
M  V30 857 O 85.8696 -0.787841 -1.77501 0
M  V30 858 C 82.9996 -1.77882 -2.98287 0
M  V30 859 C 81.9536 -2.92907 -3.12073 0
M  V30 860 C 81.2796 -2.85712 -4.51965 0
M  V30 861 C 82.5796 -4.3369 -2.91051 0
M  V30 862 H 84.2736 -2.63025 -1.43032 0
M  V30 863 H 81.8196 -1.26574 -0.686664 0
M  V30 864 H 83.7726 -1.90744 -3.75759 0
M  V30 865 H 82.4966 -0.816653 -3.16225 0
M  V30 866 H 81.1556 -2.79665 -2.37029 0
M  V30 867 H 80.8036 -1.8738 -4.66795 0
M  V30 868 H 80.5036 -3.62921 -4.62128 0
M  V30 869 H 82.0276 -3.00598 -5.31482 0
M  V30 870 H 83.4416 -4.47555 -3.58284 0
M  V30 871 H 81.8386 -5.12205 -3.12675 0
M  V30 872 H 82.9086 -4.47362 -1.87071 0
M  V30 873 N 84.2517 0.741722 -1.39055 0
M  V30 874 C 85.1817 1.869 -1.39966 0
M  V30 875 C 86.1627 1.6804 -0.26392 0
M  V30 876 O 87.3477 1.88458 -0.468755 0
M  V30 877 C 84.4777 3.24572 -1.23574 0
M  V30 878 C 83.4317 3.58056 -2.34477 0
M  V30 879 C 82.7577 4.94593 -2.0318 0
M  V30 880 C 84.0577 3.61716 -3.76774 0
M  V30 881 H 85.7517 1.86395 -2.34302 0
M  V30 882 H 83.2977 0.895361 -1.1278 0
M  V30 883 H 85.2507 4.031 -1.22834 0
M  V30 884 H 83.9747 3.25587 -0.257045 0
M  V30 885 H 82.6337 2.81854 -2.34423 0
M  V30 886 H 82.2817 4.92181 -1.03765 0
M  V30 887 H 81.9817 5.17964 -2.77465 0
M  V30 888 H 83.5057 5.75486 -2.04079 0
M  V30 889 H 84.9197 4.30335 -3.78794 0
M  V30 890 H 83.3167 3.96603 -4.50362 0
M  V30 891 H 84.3867 2.61672 -4.08235 0
M  V30 892 N 85.7298 1.2412 0.971189 0
M  V30 893 C 86.6928 1.03156 2.04674 0
M  V30 894 C 87.6928 -0.00990322 1.60797 0
M  V30 895 O 88.8828 0.230729 1.72665 0
M  V30 896 C 86.0148 0.562765 3.36223 0
M  V30 897 H 87.2078 1.98614 2.24705 0
M  V30 898 H 84.7608 1.06293 1.14593 0
M  V30 899 H 85.4958 -0.395176 3.21883 0
M  V30 900 H 85.2808 1.31441 3.69413 0
M  V30 901 H 86.7708 0.437015 4.15307 0
M  V30 902 N 87.2079 -1.17134 1.05439 0
M  V30 903 C 88.6239 -1.39454 0.776201 0
M  V30 904 C 88.8239 -1.91454 -0.628307 0
M  V30 905 O 87.8799 -2.10777 -1.39031 0
M  V30 906 C 89.1929 -2.38305 1.83388 0
M  V30 907 C 90.7409 -2.52006 1.85639 0
M  V30 908 C 91.2159 -3.54133 2.90437 0
M  V30 909 N 92.7069 -3.61653 2.89415 0
M  V30 910 C 93.4419 -4.4044 3.67152 0
M  V30 911 N 92.9379 -5.22721 4.54681 0
M  V30 912 N 94.7309 -4.35337 3.55581 0
M  V30 913 H 86.8819 -0.817134 1.96053 0
M  V30 914 H 89.1449 -0.421626 0.849079 0
M  V30 915 H 88.8509 -2.07173 2.84204 0
M  V30 916 H 88.7249 -3.37841 1.67761 0
M  V30 917 H 91.1119 -2.82447 0.85486 0
M  V30 918 H 91.1929 -1.52537 2.05344 0
M  V30 919 H 90.8369 -3.24431 3.90777 0
M  V30 920 H 90.7669 -4.53313 2.67983 0
M  V30 921 H 93.2579 -3.02909 2.25952 0
M  V30 922 H 93.5709 -5.80027 5.10674 0
M  V30 923 H 91.9159 -5.22093 4.58741 0
M  V30 924 H 95.1069 -3.70112 2.86592 0
M  V30 925 H 95.2799 -4.96494 4.1641 0
M  V30 926 N 88.686 -0.835752 -1.33615 0
M  V30 927 C 89.934 -0.429109 -1.97492 0
M  V30 928 C 90.255 1.01433 -1.66543 0
M  V30 929 O 89.525 1.70611 -0.962744 0
M  V30 930 H 88.105 -0.155686 -0.730596 0
M  V30 931 H 90.767 -1.06802 -1.63031 0
M  V30 932 H 89.863 -0.55861 -3.0706 0
M  V30 933 N 90.1641 1.46063 -0.591896 0
M  V30 934 C 91.3941 2.06418 -0.0867676 0
M  V30 935 C 91.8021 1.43975 1.22751 0
M  V30 936 O 91.1451 0.542531 1.75506 0
M  V30 937 C 91.2071 3.59213 0.143725 0
M  V30 938 C 90.8711 4.439 -1.08635 0
M  V30 939 C 91.8681 4.79864 -2.00067 0
M  V30 940 C 89.5531 4.84896 -1.31077 0
M  V30 941 C 91.5471 5.55661 -3.12282 0
M  V30 942 C 89.2341 5.6045 -2.43596 0
M  V30 943 C 90.2321 5.95747 -3.34027 0
M  V30 944 O 89.9201 6.69772 -4.4459 0
M  V30 945 H 89.6521 0.673443 -0.0587447 0
M  V30 946 H 92.2061 1.88539 -0.814994 0
M  V30 947 H 90.4361 3.75433 0.926668 0
M  V30 948 H 92.1251 4.01463 0.5985 0
M  V30 949 H 92.8911 4.48763 -1.83947 0
M  V30 950 H 88.7701 4.56867 -0.61594 0
M  V30 951 H 92.3141 5.8313 -3.82891 0
M  V30 952 H 88.2111 5.90965 -2.59674 0
M  V30 953 H 88.9791 6.88207 -4.43073 0
M  V30 954 N 91.6422 0.330177 1.54103 0
M  V30 955 C 92.6052 -0.520144 2.2322 0
M  V30 956 C 93.6052 -1.03828 1.22786 0
M  V30 957 O 94.7952 -0.929652 1.4732 0
M  V30 958 C 91.9272 -1.72317 2.94142 0
M  V30 959 H 93.1202 0.0841605 2.99782 0
M  V30 960 H 90.6732 0.0813433 1.56088 0
M  V30 961 H 91.4082 -2.36653 2.21734 0
M  V30 962 H 91.1932 -1.35898 3.67796 0
M  V30 963 H 92.6832 -2.3266 3.46784 0
M  V30 964 N 93.1203 -1.57491 0.0584922 0
M  V30 965 C 94.3663 -1.93264 -0.614558 0
M  V30 966 C 94.6993 -0.937717 -1.7006 0
M  V30 967 O 93.9743 0.0351652 -1.94468 0
M  V30 968 C 94.2573 -3.3938 -1.20386 0
M  V30 969 C 94.1103 -4.49625 -0.125375 0
M  V30 970 C 95.4293 -3.86039 -2.11334 0
M  V30 971 H 92.5483 -0.702791 -0.221933 0
M  V30 972 H 95.1903 -1.8961 0.12175 0
M  V30 973 H 93.3403 -3.42626 -1.83139 0
M  V30 974 H 95.0123 -4.58506 0.506971 0
M  V30 975 H 93.2553 -4.30354 0.545672 0
M  V30 976 H 93.9263 -5.48967 -0.577861 0
M  V30 977 H 96.4023 -3.84716 -1.58534 0
M  V30 978 H 95.2783 -4.88914 -2.49507 0
M  V30 979 H 95.5393 -3.23215 -3.01636 0
M  V30 980 N 94.5984 0.214957 -1.56127 0
M  V30 981 C 95.5464 1.28601 -1.93816 0
M  V30 982 C 96.5404 1.48175 -0.821016 0
M  V30 983 O 97.7464 1.49271 -1.0059 0
M  V30 984 H 94.1214 0.431302 -0.616022 0
M  V30 985 H 96.0924 0.940991 -2.83175 0
M  V30 986 C 94.8414 2.62779 -2.27689 0
M  V30 987 H 94.1644 2.48527 -3.13168 0
M  V30 988 H 95.6044 3.36517 -2.57939 0
M  V30 989 C 94.0634 3.18285 -1.10436 0
M  V30 990 O 94.5934 4.00002 -0.368945 0
M  V30 991 N 92.7994 2.7675 -0.886433 0
M  V30 992 H 92.3464 2.10404 -1.48619 0
M  V30 993 H 92.3044 3.14229 -0.103656 0
M  V30 994 N 96.0765 1.50051 0.48192 0
M  V30 995 C 97.3225 1.60736 1.2366 0
M  V30 996 C 97.6555 0.301786 1.91841 0
M  V30 997 O 96.9305 -0.696025 1.8162 0
M  V30 998 C 97.2135 2.78009 2.28874 0
M  V30 999 C 97.0665 4.18416 1.65069 0
M  V30 1000 C 98.3855 2.90867 3.30279 0
M  V30 1001 H 95.5045 0.585031 0.448228 0
M  V30 1002 H 98.1465 1.82402 0.531946 0
M  V30 1003 H 96.2965 2.59667 2.88973 0
M  V30 1004 H 97.9685 4.48322 1.0865 0
M  V30 1005 H 96.2115 4.23177 0.954148 0
M  V30 1006 H 96.8825 4.96381 2.41474 0
M  V30 1007 H 99.3585 3.07623 2.80191 0
M  V30 1008 H 98.2345 3.74566 4.01238 0
M  V30 1009 H 98.4955 2.01021 3.93755 0
M  V30 1010 N 97.5546 -0.734337 1.39446 0
M  V30 1011 C 98.8016 -1.49391 1.36706 0
M  V30 1012 C 99.1296 -1.94465 -0.0367813 0
M  V30 1013 O 98.3846 -1.67154 -1.01774 0
M  V30 1014 C 98.6836 -2.74711 2.28623 0
M  V30 1015 C 98.3496 -2.48501 3.76242 0
M  V30 1016 C 97.0116 -2.41062 4.16464 0
M  V30 1017 C 99.3636 -2.26098 4.69606 0
M  V30 1018 C 96.6916 -2.09262 5.48112 0
M  V30 1019 C 99.0436 -1.95814 6.01531 0
M  V30 1020 C 97.7076 -1.86845 6.40816 0
M  V30 1021 H 96.9776 -0.546661 0.500243 0
M  V30 1022 H 99.6246 -0.842788 1.71957 0
M  V30 1023 H 97.9296 -3.44569 1.86492 0
M  V30 1024 H 99.6266 -3.32741 2.23796 0
M  V30 1025 H 96.2166 -2.55169 3.44364 0
M  V30 1026 H 100.401 -2.30812 4.39363 0
M  V30 1027 H 95.6566 -2.00841 5.77471 0
M  V30 1028 H 99.8306 -1.77488 6.73403 0
M  V30 1029 H 97.4576 -1.6197 7.42745 0
M  V30 1030 N 99.0327 -1.24633 -0.964593 0
M  V30 1031 C 100.31 -0.995809 -1.68354 0
M  V30 1032 C 100.69 0.480964 -2.05548 0
M  V30 1033 O 100.038 1.45599 -1.76105 0
M  V30 1034 C 100.248 -1.92177 -2.91323 0
M  V30 1035 C 101.596 -2.19446 -3.63495 0
M  V30 1036 O 102.62 -1.89855 -3.01386 0
M  V30 1037 O 101.479 -2.69714 -4.75307 0
M  V30 1038 H 98.5727 -0.376854 -0.736146 0
M  V30 1039 H 101.119 -1.35745 -1.0184 0
M  V30 1040 H 99.8907 -2.91938 -2.60553 0
M  V30 1041 H 99.5137 -1.56349 -3.65569 0
M  V30 1042 N 100.511 1.16574 -1.06058 0
M  V30 1043 C 101.76 1.86385 -0.770944 0
M  V30 1044 C 102.073 1.82448 0.705129 0
M  V30 1045 O 103.279 2.47815 1.10905 0
M  V30 1046 C 101.735 3.34466 -1.32893 0
M  V30 1047 C 101.343 3.46883 -2.83507 0
M  V30 1048 C 103.087 4.09548 -1.11672 0
M  V30 1049 C 100.994 4.89036 -3.32562 0
M  V30 1050 H 99.9238 0.698181 -0.284709 0
M  V30 1051 H 102.575 1.31583 -1.27899 0
M  V30 1052 H 100.957 3.88859 -0.748662 0
M  V30 1053 H 102.131 3.02663 -3.47465 0
M  V30 1054 H 100.446 2.85232 -3.03368 0
M  V30 1055 H 103.043 5.14434 -1.45814 0
M  V30 1056 H 103.386 4.16264 -0.0549535 0
M  V30 1057 H 103.919 3.61387 -1.66265 0
M  V30 1058 H 100.658 4.87499 -4.38207 0
M  V30 1059 H 100.178 5.3389 -2.73351 0
M  V30 1060 H 101.857 5.57843 -3.2775 0
M  V30 1061 N 101.989 0.842826 1.3317 0
M  V30 1062 C 102.921 0.236245 2.27979 0
M  V30 1063 C 103.934 -0.585282 1.51915 0
M  V30 1064 O 105.123 -0.411705 1.73687 0
M  V30 1065 C 102.223 -0.685717 3.3189 0
M  V30 1066 C 101.396 0.0973448 4.37292 0
M  V30 1067 C 100.455 -0.748565 5.20848 0
M  V30 1068 O 99.4809 -0.186339 5.68895 0
M  V30 1069 N 100.683 -2.06527 5.42519 0
M  V30 1070 H 103.448 1.05088 2.80672 0
M  V30 1071 H 101.009 0.701667 1.45905 0
M  V30 1072 H 103.001 -1.25669 3.84694 0
M  V30 1073 H 101.571 -1.40105 2.79445 0
M  V30 1074 H 100.791 0.849706 3.84933 0
M  V30 1075 H 102.079 0.635643 5.04814 0
M  V30 1076 H 101.477 -2.54554 5.05192 0
M  V30 1077 H 100.034 -2.58464 5.98364 0
M  V30 1078 N 103.467 -1.45747 0.599634 0
M  V30 1079 C 104.399 -2.28628 -0.161879 0
M  V30 1080 C 105.412 -1.39494 -0.839367 0
M  V30 1081 O 106.601 -1.63941 -0.706089 0
M  V30 1082 C 103.701 -3.15014 -1.24976 0
M  V30 1083 C 102.874 -4.32378 -0.660935 0
M  V30 1084 C 101.933 -5.00033 -1.63869 0
M  V30 1085 O 100.959 -5.57085 -1.1681 0
M  V30 1086 N 102.161 -4.98589 -2.97303 0
M  V30 1087 H 104.926 -2.94624 0.549265 0
M  V30 1088 H 102.487 -1.55847 0.438565 0
M  V30 1089 H 104.479 -3.5714 -1.9035 0
M  V30 1090 H 103.049 -2.5098 -1.86354 0
M  V30 1091 H 102.269 -3.9383 0.170688 0
M  V30 1092 H 103.557 -5.08197 -0.247619 0
M  V30 1093 H 102.955 -4.53514 -3.38145 0
M  V30 1094 H 101.512 -5.44603 -3.58121 0
M  V30 1095 N 104.945 -0.338344 -1.53925 0
M  V30 1096 C 106.193 0.259245 -2.0043 0
M  V30 1097 C 106.514 1.51484 -1.22791 0
M  V30 1098 O 105.784 1.93037 -0.33368 0
M  V30 1099 H 104.364 0.0987845 -0.740439 0
M  V30 1100 H 107.026 -0.458302 -1.89435 0
M  V30 1101 H 106.122 0.505334 -3.07982 0
M  V30 1102 N 106.423 1.57458 -0.0668435 0
M  V30 1103 C 107.67 1.93301 0.603406 0
M  V30 1104 C 107.998 0.946486 1.69917 0
M  V30 1105 O 107.253 -0.0387021 1.95662 0
M  V30 1106 C 107.552 3.35784 1.22409 0
M  V30 1107 C 107.218 4.50179 0.254955 0
M  V30 1108 C 105.88 4.81199 -0.0116746 0
M  V30 1109 C 108.232 5.19598 -0.408338 0
M  V30 1110 C 105.56 5.78978 -0.94877 0
M  V30 1111 C 107.912 6.18381 -1.33372 0
M  V30 1112 C 106.576 6.47821 -1.60887 0
M  V30 1113 H 105.846 0.707338 0.220802 0
M  V30 1114 H 108.493 1.91012 -0.136665 0
M  V30 1115 H 106.798 3.34515 2.03978 0
M  V30 1116 H 108.495 3.60804 1.74989 0
M  V30 1117 H 105.085 4.25983 0.472954 0
M  V30 1118 H 109.269 4.95832 -0.215456 0
M  V30 1119 H 104.525 6.00115 -1.16925 0
M  V30 1120 H 108.699 6.71277 -1.85367 0
M  V30 1121 H 106.326 7.23399 -2.33661 0
M  V30 1122 N 107.901 -0.206675 1.56239 0
M  V30 1123 C 109.178 -0.954051 1.70755 0
M  V30 1124 C 109.558 -2.01841 0.618353 0
M  V30 1125 O 108.906 -2.25444 -0.372434 0
M  V30 1126 C 109.116 -1.551 3.12642 0
M  V30 1127 C 110.464 -2.03757 3.72516 0
M  V30 1128 O 111.488 -1.64965 3.15698 0
M  V30 1129 O 110.347 -2.75103 4.72208 0
M  V30 1130 H 107.441 -0.446636 0.696021 0
M  V30 1131 H 109.987 -0.197283 1.68549 0
M  V30 1132 H 108.759 -0.783212 3.83382 0
M  V30 1133 H 108.382 -2.37291 3.19028 0
M  V30 1134 N 109.379 -1.50304 -0.473955 0
M  V30 1135 C 110.327 -1.69482 -1.59307 0
M  V30 1136 C 111.321 -0.560669 -1.59853 0
M  V30 1137 O 112.527 -0.741087 -1.64036 0
M  V30 1138 H 108.902 -0.534892 -0.528578 0
M  V30 1139 H 110.873 -2.63364 -1.40293 0
M  V30 1140 C 109.622 -1.80354 -2.97267 0
M  V30 1141 H 108.945 -2.67012 -2.97564 0
M  V30 1142 H 110.385 -1.97798 -3.75036 0
M  V30 1143 C 108.844 -0.55448 -3.32306 0
M  V30 1144 O 109.374 0.307661 -4.0052 0
M  V30 1145 N 107.58 -0.409354 -2.87702 0
M  V30 1146 H 107.127 -1.11196 -2.32364 0
M  V30 1147 H 107.085 0.425223 -3.11511 0
M  V30 1148 N 110.857 0.726932 -1.39834 0
M  V30 1149 C 112.268 1.30558 -1.3346 0
M  V30 1150 C 112.619 1.962 -0.00273003 0
M  V30 1151 O 111.744 1.96826 0.899371 0
M  V30 1152 C 112.339 2.37404 -2.41713 0
M  V30 1153 C 110.898 2.90921 -2.38835 0
M  V30 1154 C 110.045 1.64578 -2.2318 0
M  V30 1155 H 112.996 0.523862 -1.49804 0
M  V30 1156 H 113.017 3.17984 -2.08966 0
M  V30 1157 H 112.529 1.89599 -3.38635 0
M  V30 1158 H 110.63 3.42985 -1.45575 0
M  V30 1159 H 110.743 3.43487 -3.33997 0
M  V30 1160 H 109.107 1.89219 -1.70494 0
M  V30 1161 H 109.89 1.18814 -3.22084 0
M  V30 1162 N 112.336 1.25143 0.95797 0
M  V30 1163 C 113.268 1.01023 2.05735 0
M  V30 1164 C 114.281 -0.0236902 1.62783 0
M  V30 1165 O 115.47 0.21448 1.77207 0
M  V30 1166 C 112.57 0.504595 3.35122 0
M  V30 1167 C 111.743 1.6039 4.06932 0
M  V30 1168 C 110.802 1.09922 5.14591 0
M  V30 1169 O 109.828 1.79293 5.40225 0
M  V30 1170 N 111.03 -0.0612545 5.80468 0
M  V30 1171 H 113.795 1.95683 2.26998 0
M  V30 1172 H 111.356 1.16303 1.12629 0
M  V30 1173 H 113.348 0.151516 4.04416 0
M  V30 1174 H 111.918 -0.347989 3.10657 0
M  V30 1175 H 111.138 2.12872 3.31782 0
M  V30 1176 H 112.426 2.34252 4.51667 0
M  V30 1177 H 111.824 -0.640985 5.62057 0
M  V30 1178 H 110.381 -0.355395 6.5083 0
M  V30 1179 N 113.814 -1.1601 1.06675 0
M  V30 1180 C 115.06 -1.86909 0.786945 0
M  V30 1181 C 115.393 -1.81717 -0.685018 0
M  V30 1182 O 114.668 -1.23551 -1.50218 0
M  V30 1183 C 114.951 -3.36313 1.28707 0
M  V30 1184 C 114.804 -3.50175 2.82308 0
M  V30 1185 C 116.123 -4.3084 0.898071 0
M  V30 1186 H 113.242 -0.678677 0.287343 0
M  V30 1187 H 115.884 -1.36336 1.32334 0
M  V30 1188 H 114.034 -3.79513 0.830768 0
M  V30 1189 H 115.706 -3.15886 3.36175 0
M  V30 1190 H 113.949 -2.91959 3.20847 0
M  V30 1191 H 114.62 -4.55116 3.12368 0
M  V30 1192 H 117.096 -3.95561 1.29114 0
M  V30 1193 H 115.972 -5.33876 1.27543 0
M  V30 1194 H 116.233 -4.41662 -0.196651 0
M  V30 1195 N 115.292 -0.849877 -1.32721 0
M  V30 1196 C 116.708 -0.539102 -1.50219 0
M  V30 1197 C 116.908 0.931271 -1.78689 0
M  V30 1198 O 115.964 1.71455 -1.85363 0
M  V30 1199 C 117.277 -1.42196 -2.64954 0
M  V30 1200 C 118.825 -1.42189 -2.78839 0
M  V30 1201 C 119.3 -2.28985 -3.96648 0
M  V30 1202 N 120.791 -2.26754 -4.03902 0
M  V30 1203 C 121.526 -2.90644 -4.94281 0
M  V30 1204 N 121.022 -3.63629 -5.897 0
M  V30 1205 N 122.815 -2.80057 -4.87365 0
M  V30 1206 H 114.966 -1.80156 -1.12506 0
M  V30 1207 H 117.229 -0.769217 -0.554085 0
M  V30 1208 H 116.935 -2.46733 -2.50631 0
M  V30 1209 H 116.809 -1.10591 -3.60624 0
M  V30 1210 H 119.196 -0.38419 -2.92588 0
M  V30 1211 H 119.277 -1.77807 -1.83898 0
M  V30 1212 H 118.921 -3.32819 -3.83658 0
M  V30 1213 H 118.851 -1.90702 -4.90857 0
M  V30 1214 H 121.342 -1.73688 -3.3562 0
M  V30 1215 H 121.655 -4.09558 -6.55349 0
M  V30 1216 H 120 -3.67737 -5.89741 0
M  V30 1217 H 123.191 -2.22593 -4.11789 0
M  V30 1218 H 123.364 -3.30132 -5.57599 0
M  V30 1219 N 116.77 1.45427 -0.607355 0
M  V30 1220 C 118.017 2.02241 -0.102455 0
M  V30 1221 C 118.345 1.4758 1.26691 0
M  V30 1222 O 117.6 0.640468 1.84923 0
M  V30 1223 C 117.899 3.57398 -0.0129263 0
M  V30 1224 C 117.565 4.3121 -1.31792 0
M  V30 1225 C 116.227 4.51092 -1.67539 0
M  V30 1226 C 118.579 4.73401 -2.18039 0
M  V30 1227 C 115.907 5.10422 -2.89285 0
M  V30 1228 C 118.259 5.34078 -3.39034 0
M  V30 1229 C 116.923 5.52184 -3.75033 0
M  V30 1230 H 116.193 0.740051 -0.037491 0
M  V30 1231 H 118.84 1.74494 -0.788926 0
M  V30 1232 H 117.145 3.84421 0.756806 0
M  V30 1233 H 118.842 3.99061 0.393881 0
M  V30 1234 H 115.432 4.16047 -1.02968 0
M  V30 1235 H 119.616 4.57774 -1.91721 0
M  V30 1236 H 114.872 5.22629 -3.17283 0
M  V30 1237 H 119.046 5.65724 -4.06115 0
M  V30 1238 H 116.673 5.97925 -4.69457 0
M  V30 1239 N 118.248 0.346503 1.53744 0
M  V30 1240 C 119.495 -0.249104 2.00962 0
M  V30 1241 C 119.823 -1.5032 1.23426 0
M  V30 1242 O 119.078 -1.93217 0.310761 0
M  V30 1243 C 119.377 -0.605809 3.52228 0
M  V30 1244 C 119.043 0.551747 4.47512 0
M  V30 1245 C 117.705 0.86941 4.73281 0
M  V30 1246 C 120.057 1.32818 5.03993 0
M  V30 1247 C 117.385 1.96582 5.52786 0
M  V30 1248 C 119.737 2.41486 5.84694 0
M  V30 1249 C 118.401 2.73808 6.08757 0
M  V30 1250 H 117.671 -0.0911538 0.735372 0
M  V30 1251 H 120.318 0.475027 1.85515 0
M  V30 1252 H 118.623 -1.4107 3.65522 0
M  V30 1253 H 120.32 -1.07858 3.86222 0
M  V30 1254 H 116.91 0.294102 4.2759 0
M  V30 1255 H 121.094 1.09602 4.84047 0
M  V30 1256 H 116.35 2.22045 5.69654 0
M  V30 1257 H 120.524 3.02078 6.27473 0
M  V30 1258 H 118.151 3.58892 6.7015 0
M  V30 1259 N 119.726 -1.57421 0.075193 0
M  V30 1260 C 120.656 -2.15942 -0.888324 0
M  V30 1261 C 121.637 -1.08737 -1.30806 0
M  V30 1262 O 122.822 -1.36787 -1.37851 0
M  V30 1263 C 119.952 -2.72379 -2.1547 0
M  V30 1264 C 118.906 -3.8478 -1.87425 0
M  V30 1265 C 118.232 -4.27834 -3.20721 0
M  V30 1266 C 119.532 -5.08869 -1.17684 0
M  V30 1267 H 121.226 -2.96705 -0.400799 0
M  V30 1268 H 118.772 -1.42723 -0.191342 0
M  V30 1269 H 120.725 -3.11965 -2.83295 0
M  V30 1270 H 119.449 -1.88841 -2.6647 0
M  V30 1271 H 118.108 -3.45703 -1.22004 0
M  V30 1272 H 117.756 -3.41214 -3.6957 0
M  V30 1273 H 117.456 -5.03605 -3.02746 0
M  V30 1274 H 118.98 -4.70039 -3.89738 0
M  V30 1275 H 120.394 -5.4575 -1.75584 0
M  V30 1276 H 118.791 -5.8994 -1.09956 0
M  V30 1277 H 119.861 -4.84648 -0.156453 0
M  V30 1278 N 121.204 0.198386 -1.56346 0
M  V30 1279 C 122.452 0.91747 -1.80075 0
M  V30 1280 C 122.773 1.83929 -0.647692 0
M  V30 1281 O 122.043 1.93029 0.334166 0
M  V30 1282 H 120.623 0.341774 -0.664228 0
M  V30 1283 H 123.285 0.204684 -1.93822 0
M  V30 1284 H 122.381 1.51055 -2.7311 0
M  V30 1285 N 122.682 1.50554 0.465978 0
M  V30 1286 C 123.959 1.5232 1.22712 0
M  V30 1287 C 124.339 0.270807 2.09356 0
M  V30 1288 O 123.687 -0.745541 2.15995 0
M  V30 1289 C 123.897 2.82175 2.05374 0
M  V30 1290 C 125.245 3.33033 2.6339 0
M  V30 1291 O 126.269 2.83531 2.15612 0
M  V30 1292 O 125.128 4.19336 3.50456 0
M  V30 1293 H 122.222 0.611183 0.557122 0
M  V30 1294 H 124.768 1.62847 0.477381 0
M  V30 1295 H 123.54 3.64797 1.41558 0
M  V30 1296 H 123.163 2.74675 2.87471 0
M  V30 1297 N 124.16 -0.719506 1.40217 0
M  V30 1298 C 125.09 -1.8465 1.42922 0
M  V30 1299 C 126.071 -1.67599 0.29062 0
M  V30 1300 O 127.256 -1.87688 0.498677 0
M  V30 1301 C 124.386 -3.22565 1.28722 0
M  V30 1302 C 123.34 -3.54281 2.40144 0
M  V30 1303 C 122.666 -4.91298 2.11023 0
M  V30 1304 C 123.966 -3.55676 3.82481 0
M  V30 1305 H 125.66 -1.82644 2.37237 0
M  V30 1306 H 123.206 -0.877305 1.1419 0
M  V30 1307 H 125.159 -4.01095 1.29232 0
M  V30 1308 H 123.883 -3.25137 0.308811 0
M  V30 1309 H 122.542 -2.78088 2.38877 0
M  V30 1310 H 122.19 -4.90468 1.11582 0
M  V30 1311 H 121.89 -5.13485 2.8567 0
M  V30 1312 H 123.414 -5.72166 2.13209 0
M  V30 1313 H 124.828 -4.24254 3.85592 0
M  V30 1314 H 123.225 -3.89388 4.56614 0
M  V30 1315 H 124.295 -2.55144 4.12346 0
M  V30 1316 N 125.638 -1.25649 -0.95132 0
M  V30 1317 C 126.878 -1.11802 -1.71113 0
M  V30 1318 C 127.242 0.334758 -1.89059 0
M  V30 1319 O 128.443 0.595121 -2.62129 0
M  V30 1320 C 126.714 -1.85512 -3.05483 0
M  V30 1321 S 128.273 -1.87597 -3.96677 0
M  V30 1322 H 125.091 -0.399552 -0.588115 0
M  V30 1323 H 127.693 -1.59222 -1.1344 0
M  V30 1324 H 126.397 -2.90299 -2.90094 0
M  V30 1325 H 125.928 -1.38493 -3.68216 0
M  V30 1326 H 127.943 -0.955389 -4.86916 0
M  V30 1327 N 127.117 1.15442 -1.07289 0
M  V30 1328 C 128.342 1.90638 -0.816828 0
M  V30 1329 C 128.767 1.77445 0.624083 0
M  V30 1330 O 128.125 1.10671 1.43602 0
M  V30 1331 C 128.173 3.39008 -1.22906 0
M  V30 1332 O 127.277 4.10701 -0.373975 0
M  V30 1333 H 126.618 0.593555 -0.297638 0
M  V30 1334 H 129.148 1.46198 -1.43134 0
M  V30 1335 H 129.158 3.89801 -1.20497 0
M  V30 1336 H 127.833 3.47929 -2.27856 0
M  V30 1337 H 126.41 3.70046 -0.460499 0
M  V30 1338 N 128.595 0.856903 1.32268 0
M  V30 1339 C 130.011 0.547061 1.49931 0
M  V30 1340 C 130.211 -0.921781 1.7918 0
M  V30 1341 O 129.267 -1.70469 1.8627 0
M  V30 1342 C 130.58 1.43599 2.64196 0
M  V30 1343 C 132.128 1.43665 2.78081 0
M  V30 1344 C 132.603 2.31085 3.95428 0
M  V30 1345 N 134.094 2.28893 4.02694 0
M  V30 1346 C 134.829 2.93262 4.92732 0
M  V30 1347 N 134.325 3.66751 5.87763 0
M  V30 1348 N 136.118 2.82638 4.85873 0
M  V30 1349 H 128.269 1.8075 1.11549 0
M  V30 1350 H 130.532 0.772144 0.549997 0
M  V30 1351 H 130.238 2.48058 2.49319 0
M  V30 1352 H 130.112 1.12502 3.60032 0
M  V30 1353 H 132.499 0.399701 2.92381 0
M  V30 1354 H 132.58 1.7878 1.82952 0
M  V30 1355 H 132.224 3.34849 3.81888 0
M  V30 1356 H 132.154 1.93302 4.89839 0
M  V30 1357 H 134.645 1.75466 3.34694 0
M  V30 1358 H 134.958 4.13027 6.53168 0
M  V30 1359 H 133.303 3.70859 5.87783 0
M  V30 1360 H 136.494 2.24774 4.10602 0
M  V30 1361 H 136.667 3.33084 5.55841 0
M  V30 1362 N 130.073 -1.45103 0.615059 0
M  V30 1363 C 131.005 -2.28786 -0.13762 0
M  V30 1364 C 132.018 -1.40376 -0.824525 0
M  V30 1365 O 133.207 -1.64681 -0.688662 0
M  V30 1366 C 130.307 -3.16322 -1.21628 0
M  V30 1367 C 129.48 -4.33054 -0.615039 0
M  V30 1368 C 128.539 -5.01743 -1.58556 0
M  V30 1369 O 127.565 -5.58293 -1.10895 0
M  V30 1370 N 128.767 -5.01714 -2.91998 0
M  V30 1371 H 131.532 -2.94025 0.580483 0
M  V30 1372 H 129.093 -1.55373 0.45507 0
M  V30 1373 H 131.085 -3.59139 -1.86552 0
M  V30 1374 H 129.655 -2.52943 -1.83681 0
M  V30 1375 H 128.875 -3.93627 0.21245 0
M  V30 1376 H 130.163 -5.08431 -0.193704 0
M  V30 1377 H 129.561 -4.57075 -3.33316 0
M  V30 1378 H 128.118 -5.48371 -3.52325 0
M  V30 1379 N 131.551 -0.354651 -1.53558 0
M  V30 1380 C 132.828 0.294281 -1.93374 0
M  V30 1381 C 133.208 1.67313 -1.28723 0
M  V30 1382 O 132.556 2.24179 -0.442247 0
M  V30 1383 C 132.766 0.355445 -3.47185 0
M  V30 1384 C 134.114 0.601007 -4.20325 0
M  V30 1385 O 135.138 0.437106 -3.53508 0
M  V30 1386 O 133.997 0.919322 -5.38712 0
M  V30 1387 H 131.091 0.174033 -0.808481 0
M  V30 1388 H 133.637 -0.406638 -1.64756 0
M  V30 1389 H 132.409 -0.611729 -3.86489 0
M  V30 1390 H 132.032 1.1027 -3.82003 0
M  V30 1391 N 133.029 1.57378 -0.0835403 0
M  V30 1392 C 133.959 2.1641 0.87686 0
M  V30 1393 C 134.94 1.09429 1.30228 0
M  V30 1394 O 136.125 1.37516 1.37124 0
M  V30 1395 C 133.255 2.73517 2.14022 0
M  V30 1396 C 132.209 3.85769 1.85381 0
M  V30 1397 C 131.535 4.29529 3.18448 0
M  V30 1398 C 132.835 5.09486 1.14984 0
M  V30 1399 H 134.529 2.96914 0.385059 0
M  V30 1400 H 132.075 1.42823 0.18377 0
M  V30 1401 H 134.028 3.13463 2.81636 0
M  V30 1402 H 132.752 1.90252 2.65465 0
M  V30 1403 H 131.411 3.46345 1.20169 0
M  V30 1404 H 131.059 3.43169 3.67755 0
M  V30 1405 H 130.759 5.05204 3.00071 0
M  V30 1406 H 132.283 4.72099 3.8724 0
M  V30 1407 H 133.697 5.46674 1.72687 0
M  V30 1408 H 132.094 5.90515 1.06826 0
M  V30 1409 H 133.164 4.84724 0.130749 0
M  V30 1410 N 134.507 -0.190092 1.56449 0
M  V30 1411 C 135.737 -0.92443 1.84764 0
M  V30 1412 C 136.145 -1.77146 0.664529 0
M  V30 1413 O 135.488 -1.79812 -0.375957 0
M  V30 1414 C 135.55 -1.86651 3.07248 0
M  V30 1415 C 135.214 -1.20094 4.40938 0
M  V30 1416 C 136.211 -0.575445 5.16706 0
M  V30 1417 C 133.896 -1.2033 4.87674 0
M  V30 1418 C 135.89 0.0388111 6.37388 0
M  V30 1419 C 133.577 -0.585214 6.08291 0
M  V30 1420 C 134.575 0.0347578 6.82991 0
M  V30 1421 O 134.263 0.643147 8.01323 0
M  V30 1422 H 133.995 -0.274974 0.617548 0
M  V30 1423 H 136.549 -0.200788 2.04416 0
M  V30 1424 H 134.779 -2.62998 2.83494 0
M  V30 1425 H 136.468 -2.46907 3.22167 0
M  V30 1426 H 137.234 -0.565728 4.81689 0
M  V30 1427 H 133.113 -1.67526 4.29484 0
M  V30 1428 H 136.657 0.523329 6.95634 0
M  V30 1429 H 132.554 -0.592451 6.42775 0
M  V30 1430 H 133.322 0.540545 8.16713 0
M  V30 1431 N 135.985 -1.50799 -0.457987 0
M  V30 1432 C 137.396 -1.55152 -1.0385 0
M  V30 1433 C 137.747 -0.362719 -1.92818 0
M  V30 1434 O 136.872 0.522915 -2.09987 0
M  V30 1435 C 137.467 -2.81173 -1.89017 0
M  V30 1436 C 136.026 -2.88164 -2.42154 0
M  V30 1437 C 135.173 -2.49591 -1.20829 0
M  V30 1438 H 138.124 -1.56874 -0.240068 0
M  V30 1439 H 138.145 -2.63769 -2.74238 0
M  V30 1440 H 137.657 -3.67677 -1.24238 0
M  V30 1441 H 135.758 -2.06042 -3.10447 0
M  V30 1442 H 135.871 -3.91356 -2.76364 0
M  V30 1443 H 134.235 -2.02322 -1.54719 0
M  V30 1444 H 135.018 -3.38418 -0.576927 0
M  V30 1445 N 137.463 0.71206 -1.40597 0
M  V30 1446 C 138.426 1.80785 -1.40888 0
M  V30 1447 C 139.426 1.57937 -0.302103 0
M  V30 1448 O 140.616 1.64913 -0.561182 0
M  V30 1449 C 137.748 3.18927 -1.20409 0
M  V30 1450 H 138.941 1.81924 -2.38419 0
M  V30 1451 H 136.494 0.91805 -1.26497 0
M  V30 1452 H 137.229 3.23436 -0.236522 0
M  V30 1453 H 137.014 3.36911 -2.00582 0
M  V30 1454 H 138.504 3.98949 -1.23408 0
M  V30 1455 N 138.941 1.26152 0.944643 0
M  V30 1456 C 139.871 1.09902 2.06019 0
M  V30 1457 C 140.852 0.00519538 1.70099 0
M  V30 1458 O 142.037 0.176583 1.93396 0
M  V30 1459 C 139.167 0.727562 3.39594 0
M  V30 1460 C 138.121 1.77274 3.89561 0
M  V30 1461 C 137.447 1.25569 5.19747 0
M  V30 1462 C 138.747 3.17357 4.14827 0
M  V30 1463 H 140.441 2.03217 2.19871 0
M  V30 1464 H 137.987 0.978452 1.05652 0
M  V30 1465 H 139.94 0.600777 4.17095 0
M  V30 1466 H 138.664 -0.241287 3.25707 0
M  V30 1467 H 137.323 1.88814 3.14237 0
M  V30 1468 H 136.971 0.276783 5.02238 0
M  V30 1469 H 136.671 1.95433 5.54148 0
M  V30 1470 H 138.195 1.1415 5.99835 0
M  V30 1471 H 139.609 3.08914 4.82954 0
M  V30 1472 H 138.006 3.84781 4.60504 0
M  V30 1473 H 139.076 3.63673 3.20734 0
M  V30 1474 N 140.419 -1.14872 1.07899 0
M  V30 1475 C 141.366 -2.19791 0.704319 0
M  V30 1476 C 142.336 -1.63238 -0.306987 0
M  V30 1477 O 143.521 -1.8983 -0.192171 0
M  V30 1478 C 140.661 -3.44911 0.114244 0
M  V30 1479 C 139.774 -4.15637 1.1777 0
M  V30 1480 C 138.909 -5.28324 0.552037 0
M  V30 1481 C 137.948 -5.90875 1.59789 0
M  V30 1482 N 137.085 -6.95022 0.994404 0
M  V30 1483 H 141.925 -2.5119 1.60336 0
M  V30 1484 H 139.462 -1.23356 0.801352 0
M  V30 1485 H 141.42 -4.16477 -0.245544 0
M  V30 1486 H 140.05 -3.14011 -0.74813 0
M  V30 1487 H 139.102 -3.42512 1.65499 0
M  V30 1488 H 140.414 -4.5823 1.97046 0
M  V30 1489 H 139.568 -6.06538 0.1402 0
M  V30 1490 H 138.307 -4.86939 -0.272431 0
M  V30 1491 H 137.312 -5.11369 2.01945 0
M  V30 1492 H 138.537 -6.34337 2.42474 0
M  V30 1493 H 136.483 -6.55722 0.190939 0
M  V30 1494 H 136.4 -7.36073 1.72432 0
M  V30 1495 H 137.668 -7.77123 0.608253 0
M  V30 1496 N 141.898 -0.863906 -1.31812 0
M  V30 1497 C 143.146 -0.470904 -1.96537 0
M  V30 1498 C 143.467 0.978771 -1.68657 0
M  V30 1499 O 142.737 1.6853 -0.998717 0
M  V30 1500 H 141.317 -0.171148 -0.72713 0
M  V30 1501 H 143.979 -1.10236 -1.60729 0
M  V30 1502 H 143.075 -0.623616 -3.05806 0
M  V30 1503 N 143.376 1.44774 -0.622745 0
M  V30 1504 C 144.622 2.0242 -0.124083 0
M  V30 1505 C 144.955 1.4881 1.24777 0
M  V30 1506 O 144.23 0.668799 1.8264 0
M  V30 1507 C 144.513 3.59957 -0.101619 0
M  V30 1508 C 144.366 4.23867 -1.50521 0
M  V30 1509 C 145.685 4.36284 0.578272 0
M  V30 1510 H 142.804 0.735528 -0.0465645 0
M  V30 1511 H 145.446 1.72447 -0.797617 0
M  V30 1512 H 143.596 3.85623 0.471934 0
M  V30 1513 H 145.268 4.09336 -2.12701 0
M  V30 1514 H 143.511 3.81684 -2.06154 0
M  V30 1515 H 144.182 5.32843 -1.4416 0
M  V30 1516 H 146.658 4.16001 0.0906057 0
M  V30 1517 H 145.534 5.46004 0.563149 0
M  V30 1518 H 145.795 4.10271 1.64713 0
M  V30 1519 N 144.854 0.36279 1.53368 0
M  V30 1520 C 145.802 -0.500155 2.27159 0
M  V30 1521 C 146.796 -1.08575 1.3003 0
M  V30 1522 O 148.002 -1.02927 1.47668 0
M  V30 1523 H 144.377 -0.180009 0.730138 0
M  V30 1524 H 146.348 0.14401 2.98052 0
M  V30 1525 C 145.097 -1.62937 3.07159 0
M  V30 1526 H 144.42 -1.18806 3.8174 0
M  V30 1527 H 145.86 -2.20795 3.61975 0
M  V30 1528 C 144.319 -2.57007 2.17829 0
M  V30 1529 O 144.849 -3.59752 1.78721 0
M  V30 1530 N 143.055 -2.26131 1.82518 0
M  V30 1531 H 142.602 -1.42616 2.14519 0
M  V30 1532 H 142.56 -2.89327 1.23034 0
M  V30 1533 N 146.332 -1.57332 0.0918853 0
M  V30 1534 C 147.56 -1.98574 -0.581048 0
M  V30 1535 C 147.975 -0.970903 -1.61923 0
M  V30 1536 O 147.332 0.0399054 -1.82456 0
M  V30 1537 C 147.383 -3.39872 -1.23164 0
M  V30 1538 O 147.104 -4.37469 -0.234989 0
M  V30 1539 C 148.605 -3.96099 -1.99049 0
M  V30 1540 H 145.825 -0.65261 -0.156018 0
M  V30 1541 H 148.369 -2.0379 0.170225 0
M  V30 1542 H 146.524 -3.35679 -1.93386 0
M  V30 1543 H 146.938 -5.19751 -0.70418 0
M  V30 1544 H 148.412 -4.97127 -2.39934 0
M  V30 1545 H 148.889 -3.3374 -2.85507 0
M  V30 1546 H 149.495 -4.03755 -1.3365 0
M  V30 1547 N 147.81 0.181792 -1.56548 0
M  V30 1548 C 149.056 0.901431 -1.81665 0
M  V30 1549 C 149.389 1.82347 -0.668075 0
M  V30 1550 O 148.664 1.91669 0.330615 0
M  V30 1551 C 148.947 1.70618 -3.17115 0
M  V30 1552 C 148.8 0.807964 -4.42484 0
M  V30 1553 C 150.119 2.67605 -3.49393 0
M  V30 1554 H 147.238 0.32627 -0.660846 0
M  V30 1555 H 149.88 0.168134 -1.89255 0
M  V30 1556 H 148.03 2.33133 -3.10775 0
M  V30 1557 H 149.702 0.19649 -4.60881 0
M  V30 1558 H 147.945 0.115411 -4.33646 0
M  V30 1559 H 148.616 1.40632 -5.33785 0
M  V30 1560 H 151.092 2.15218 -3.56118 0
M  V30 1561 H 149.968 3.20985 -4.45264 0
M  V30 1562 H 150.229 3.47298 -2.73563 0
M  V30 1563 N 149.288 1.51039 0.449983 0
M  V30 1564 C 150.535 1.63081 1.20045 0
M  V30 1565 C 150.863 0.341024 1.91487 0
M  V30 1566 O 150.118 -0.674276 1.83717 0
M  V30 1567 C 150.417 2.77556 2.25161 0
M  V30 1568 C 150.083 4.17289 1.70823 0
M  V30 1569 C 148.745 4.55305 1.55725 0
M  V30 1570 C 151.097 5.04536 1.3074 0
M  V30 1571 C 148.425 5.78287 0.989999 0
M  V30 1572 C 150.777 6.28085 0.754482 0
M  V30 1573 C 149.441 6.64885 0.590308 0
M  V30 1574 H 148.711 0.596755 0.439277 0
M  V30 1575 H 151.358 1.85037 0.49333 0
M  V30 1576 H 149.663 2.49771 3.01863 0
M  V30 1577 H 151.36 2.84073 2.83026 0
M  V30 1578 H 147.95 3.8731 1.83546 0
M  V30 1579 H 152.134 4.75782 1.41229 0
M  V30 1580 H 147.39 6.05456 0.850451 0
M  V30 1581 H 151.564 6.95038 0.435324 0
M  V30 1582 H 149.191 7.60055 0.14862 0
M  V30 1583 N 150.766 -0.704594 1.40972 0
M  V30 1584 C 151.716 -1.81051 1.38581 0
M  V30 1585 C 152.7 -1.58759 0.261585 0
M  V30 1586 O 153.892 -1.69745 0.501556 0
M  V30 1587 C 151.021 -3.19279 1.26157 0
M  V30 1588 C 150.107 -3.47296 2.43405 0
M  V30 1589 N 150.498 -3.46064 3.68881 0
M  V30 1590 C 148.796 -3.77804 2.37023 0
M  V30 1591 C 149.497 -3.72733 4.46592 0
M  V30 1592 N 148.473 -3.9203 3.76581 0
M  V30 1593 H 152.275 -1.78448 2.33525 0
M  V30 1594 H 149.789 -0.904198 1.349 0
M  V30 1595 H 151.786 -3.98488 1.22526 0
M  V30 1596 H 150.446 -3.231 0.321902 0
M  V30 1597 H 151.457 -3.26656 4.01891 0
M  V30 1598 H 148.134 -3.8905 1.51481 0
M  V30 1599 H 149.524 -3.77993 5.55492 0
M  V30 1600 N 152.244 -1.26651 -0.937939 0
M  V30 1601 C 153.484 -1.13611 -1.69917 0
M  V30 1602 C 153.848 0.314687 -1.89404 0
M  V30 1603 O 155.049 0.567285 -2.62746 0
M  V30 1604 C 153.32 -1.88742 -3.03498 0
M  V30 1605 S 154.879 -1.91794 -3.94665 0
M  V30 1606 H 151.697 -0.405767 -0.583844 0
M  V30 1607 H 154.299 -1.60416 -1.11745 0
M  V30 1608 H 153.003 -2.9336 -2.86999 0
M  V30 1609 H 152.534 -1.42391 -3.66727 0
M  V30 1610 H 154.549 -1.00698 -4.85875 0
M  V30 1611 N 153.722 1.14298 -1.08507 0
M  V30 1612 C 154.685 2.17607 -0.719711 0
M  V30 1613 C 155.685 1.58907 0.245997 0
M  V30 1614 O 156.875 1.74181 0.0254081 0
M  V30 1615 C 154.007 3.40842 -0.0627695 0
M  V30 1616 H 155.2 2.51443 -1.63452 0
M  V30 1617 H 152.753 1.28963 -0.88307 0
M  V30 1618 H 153.488 3.12587 0.863716 0
M  V30 1619 H 153.273 3.84713 -0.757504 0
M  V30 1620 H 154.763 4.17221 0.177786 0
M  V30 1621 N 155.201 0.870884 1.31352 0
M  V30 1622 C 156.426 0.495957 2.01383 0
M  V30 1623 C 156.851 -0.904324 1.64935 0
M  V30 1624 O 156.209 -1.59687 0.858466 0
M  V30 1625 C 156.257 0.661433 3.54482 0
M  V30 1626 O 155.361 -0.298851 4.11316 0
M  V30 1627 H 154.702 0.197158 0.634054 0
M  V30 1628 H 157.232 1.17455 1.67527 0
M  V30 1629 H 157.242 0.555072 4.04207 0
M  V30 1630 H 155.917 1.68246 3.8035 0
M  V30 1631 H 154.494 -0.147368 3.72609 0
M  V30 1632 N 156.679 -1.44442 0.630414 0
M  V30 1633 C 158.09 -1.85434 0.217063 0
M  V30 1634 C 158.441 -1.52748 -1.23136 0
M  V30 1635 O 157.566 -0.965205 -1.93682 0
M  V30 1636 C 158.161 -3.36581 0.387168 0
M  V30 1637 C 156.72 -3.76389 0.0283297 0
M  V30 1638 C 155.867 -2.68296 0.700889 0
M  V30 1639 H 158.818 -1.34919 0.83562 0
M  V30 1640 H 158.839 -3.78657 -0.374086 0
M  V30 1641 H 158.351 -3.60339 1.44144 0
M  V30 1642 H 156.452 -3.58246 -1.02423 0
M  V30 1643 H 156.565 -4.77095 0.437892 0
M  V30 1644 H 154.929 -2.54335 0.136267 0
M  V30 1645 H 155.712 -2.94887 1.75774 0
M  V30 1646 N 158.157 -0.370918 -1.53173 0
M  V30 1647 C 159.568 0.107139 -1.86392 0
M  V30 1648 C 159.919 1.47714 -1.29132 0
M  V30 1649 O 159.044 2.07464 -0.615439 0
M  V30 1650 C 159.639 0.201187 -3.38202 0
M  V30 1651 C 158.198 0.623507 -3.712 0
M  V30 1652 C 157.345 -0.225978 -2.76378 0
M  V30 1653 H 160.296 -0.58951 -1.47345 0
M  V30 1654 H 160.317 1.02377 -3.66468 0
M  V30 1655 H 159.829 -0.796058 -3.79848 0
M  V30 1656 H 157.93 1.62879 -3.35114 0
M  V30 1657 H 158.043 0.394414 -4.77474 0
M  V30 1658 H 156.407 0.305962 -2.52856 0
M  V30 1659 H 157.19 -1.22086 -3.20858 0
M  V30 1660 N 159.635 1.57281 -0.100228 0
M  V30 1661 C 161.046 1.81725 0.428107 0
M  V30 1662 C 161.397 1.01619 1.67833 0
M  V30 1663 O 160.522 0.247098 2.14985 0
M  V30 1664 C 161.117 3.29617 0.78347 0
M  V30 1665 C 159.676 3.54808 1.25653 0
M  V30 1666 C 158.823 2.76118 0.255752 0
M  V30 1667 H 161.774 1.55324 -0.325608 0
M  V30 1668 H 161.795 3.4322 1.64256 0
M  V30 1669 H 161.307 3.87893 -0.12665 0
M  V30 1670 H 159.408 3.01868 2.18418 0
M  V30 1671 H 159.521 4.63443 1.21482 0
M  V30 1672 H 157.885 2.43745 0.738956 0
M  V30 1673 H 158.668 3.37145 -0.647136 0
M  V30 1674 N 161.113 -0.173488 1.56642 0
M  V30 1675 C 162.338 -0.910149 1.86363 0
M  V30 1676 C 162.763 -1.75132 0.686318 0
M  V30 1677 O 162.121 -1.77595 -0.364643 0
M  V30 1678 C 162.169 -1.76447 3.14482 0
M  V30 1679 O 161.273 -2.86584 2.96553 0
M  V30 1680 H 160.614 -0.255086 0.613047 0
M  V30 1681 H 163.144 -0.172283 2.03873 0
M  V30 1682 H 163.154 -2.16483 3.45831 0
M  V30 1683 H 161.829 -1.14658 3.99783 0
M  V30 1684 H 160.406 -2.50146 2.76553 0
M  V30 1685 N 162.591 -1.51276 -0.441967 0
M  V30 1686 C 163.816 -1.67799 -1.21895 0
M  V30 1687 C 164.241 -0.372864 -1.84367 0
M  V30 1688 O 163.599 0.666501 -1.68604 0
M  V30 1689 C 163.647 -2.79199 -2.28211 0
M  V30 1690 O 162.751 -2.42479 -3.33583 0
M  V30 1691 H 162.092 -0.559649 -0.357336 0
M  V30 1692 H 164.622 -1.97815 -0.522522 0
M  V30 1693 H 164.632 -3.03146 -2.73069 0
M  V30 1694 H 163.307 -3.73906 -1.82118 0
M  V30 1695 H 161.884 -2.29087 -2.94234 0
M  V30 1696 N 164.069 0.697108 -1.41344 0
M  V30 1697 C 165.017 1.83237 -1.43272 0
M  V30 1698 C 166.011 1.66522 -0.310947 0
M  V30 1699 O 167.217 1.73402 -0.482899 0
M  V30 1700 H 163.592 0.603802 -0.448249 0
M  V30 1701 H 165.563 1.78727 -2.38954 0
M  V30 1702 C 164.312 3.21245 -1.33029 0
M  V30 1703 H 163.635 3.34723 -2.18633 0
M  V30 1704 H 165.075 4.00763 -1.38439 0
M  V30 1705 C 163.534 3.36873 -0.0424635 0
M  V30 1706 O 164.064 3.91177 0.913421 0
M  V30 1707 N 162.27 2.90581 0.0331145 0
M  V30 1708 H 161.817 2.46577 -0.745506 0
M  V30 1709 H 161.775 3.01416 0.894199 0
M  V30 1710 N 165.547 1.27147 0.931209 0
M  V30 1711 C 166.495 1.09398 2.05268 0
M  V30 1712 C 167.489 0.0180591 1.6939 0
M  V30 1713 O 168.695 0.17551 1.79142 0
M  V30 1714 H 165.07 0.336986 0.672268 0
M  V30 1715 H 167.041 2.04416 2.17386 0
M  V30 1716 C 165.79 0.75424 3.39421 0
M  V30 1717 H 165.113 1.57404 3.67511 0
M  V30 1718 H 166.553 0.669903 4.18674 0
M  V30 1719 C 165.012 -0.541197 3.32525 0
M  V30 1720 O 165.542 -1.57664 3.69466 0
M  V30 1721 N 163.748 -0.535517 2.85623 0
M  V30 1722 H 163.295 0.307511 2.55758 0
M  V30 1723 H 163.253 -1.40236 2.81392 0
M  V30 1724 N 167.025 -1.13721 1.09112 0
M  V30 1725 C 167.972 -2.19031 0.727591 0
M  V30 1726 C 168.942 -1.63555 -0.289656 0
M  V30 1727 O 170.127 -1.90023 -0.172026 0
M  V30 1728 C 167.267 -3.4477 0.15082 0
M  V30 1729 C 166.38 -4.14365 1.22172 0
M  V30 1730 C 165.515 -5.27709 0.608042 0
M  V30 1731 C 164.554 -5.89147 1.66047 0
M  V30 1732 N 163.691 -6.93929 1.06806 0
M  V30 1733 H 168.531 -2.49475 1.62991 0
M  V30 1734 H 166.068 -1.22499 0.81439 0
M  V30 1735 H 168.026 -4.16714 -0.201358 0
M  V30 1736 H 166.656 -3.14787 -0.714783 0
M  V30 1737 H 165.708 -3.40737 1.69122 0
M  V30 1738 H 167.02 -4.56114 2.01895 0
M  V30 1739 H 166.174 -6.06355 0.204523 0
M  V30 1740 H 164.913 -4.872 -0.220769 0
M  V30 1741 H 163.918 -5.09198 2.07357 0
M  V30 1742 H 165.143 -6.31729 2.49189 0
M  V30 1743 H 163.089 -6.55483 0.260476 0
M  V30 1744 H 163.006 -7.34202 1.8023 0
M  V30 1745 H 164.274 -7.76434 0.690644 0
M  V30 1746 N 168.503 -0.877838 -1.30888 0
M  V30 1747 C 169.413 -0.343096 -2.32078 0
M  V30 1748 C 170.429 0.551022 -1.65045 0
M  V30 1749 O 171.605 0.445854 -1.96403 0
M  V30 1750 C 168.67 0.439905 -3.43898 0
M  V30 1751 C 167.731 -0.483111 -4.26573 0
M  V30 1752 C 166.964 0.262616 -5.33053 0
M  V30 1753 O 167.187 1.48967 -5.50604 0
M  V30 1754 O 166.121 -0.383593 -6.00676 0
M  V30 1755 H 169.947 -1.18203 -2.79753 0
M  V30 1756 H 167.532 -0.64145 -1.34929 0
M  V30 1757 H 169.414 0.883504 -4.12034 0
M  V30 1758 H 168.089 1.25526 -2.98371 0
M  V30 1759 H 166.996 -0.975374 -3.61161 0
M  V30 1760 H 168.329 -1.26427 -4.75686 0
M  V30 1761 N 169.982 1.44106 -0.638065 0
M  V30 1762 C 170.912 2.33448 0.0494287 0
M  V30 1763 C 171.893 1.48606 0.827672 0
M  V30 1764 O 173.078 1.77308 0.792173 0
M  V30 1765 C 170.208 3.31771 1.02691 0
M  V30 1766 C 169.162 4.26485 0.359823 0
M  V30 1767 C 168.488 5.14729 1.44769 0
M  V30 1768 C 169.788 5.17056 -0.738296 0
M  V30 1769 H 171.482 2.91183 -0.696636 0
M  V30 1770 H 169.028 1.40014 -0.336456 0
M  V30 1771 H 170.981 3.93161 1.51666 0
M  V30 1772 H 169.705 2.7226 1.80395 0
M  V30 1773 H 168.364 3.66437 -0.10934 0
M  V30 1774 H 168.012 4.51566 2.21578 0
M  V30 1775 H 167.712 5.78913 1.00668 0
M  V30 1776 H 169.236 5.78991 1.93911 0
M  V30 1777 H 170.65 5.72342 -0.331354 0
M  V30 1778 H 169.047 5.89879 -1.10286 0
M  V30 1779 H 170.117 4.57652 -1.60258 0
M  V30 1780 N 171.46 0.379036 1.52974 0
M  V30 1781 C 172.707 -0.206421 2.01445 0
M  V30 1782 C 173.035 -1.47668 1.26587 0
M  V30 1783 O 172.29 -1.92514 0.351675 0
M  V30 1784 C 172.589 -0.53096 3.53434 0
M  V30 1785 C 172.255 0.646546 4.46241 0
M  V30 1786 C 170.917 0.969604 4.7133 0
M  V30 1787 C 173.269 1.43479 5.01062 0
M  V30 1788 C 170.597 2.08263 5.48492 0
M  V30 1789 C 172.949 2.53834 5.7944 0
M  V30 1790 C 171.613 2.86659 6.02812 0
M  V30 1791 H 170.883 -0.0755349 0.73714 0
M  V30 1792 H 173.53 0.514271 1.84465 0
M  V30 1793 H 171.835 -1.33285 3.68432 0
M  V30 1794 H 173.532 -0.996417 3.88423 0
M  V30 1795 H 170.122 0.384734 4.2687 0
M  V30 1796 H 174.306 1.19844 4.81613 0
M  V30 1797 H 169.562 2.34078 5.64816 0
M  V30 1798 H 173.736 3.15319 6.20924 0
M  V30 1799 H 171.363 3.73026 6.62387 0
M  V30 1800 N 172.938 -1.57226 0.108567 0
M  V30 1801 C 174.168 -1.9889 -0.559142 0
M  V30 1802 C 174.576 -0.986889 -1.61422 0
M  V30 1803 O 173.919 0.0298705 -1.83676 0
M  V30 1804 C 173.981 -3.36952 -1.25315 0
M  V30 1805 C 173.645 -4.55679 -0.347248 0
M  V30 1806 C 174.642 -5.18281 0.409996 0
M  V30 1807 C 172.327 -5.0162 -0.261367 0
M  V30 1808 C 174.321 -6.25203 1.24096 0
M  V30 1809 C 172.008 -6.08405 0.573238 0
M  V30 1810 C 173.006 -6.70063 1.32304 0
M  V30 1811 O 172.694 -7.74788 2.14381 0
M  V30 1812 H 172.426 -0.658343 -0.153492 0
M  V30 1813 H 174.98 -2.04532 0.188584 0
M  V30 1814 H 173.21 -3.28032 -2.04773 0
M  V30 1815 H 174.899 -3.62974 -1.81673 0
M  V30 1816 H 175.665 -4.8371 0.353457 0
M  V30 1817 H 171.544 -4.53381 -0.834656 0
M  V30 1818 H 175.088 -6.73259 1.82669 0
M  V30 1819 H 170.985 -6.42406 0.631208 0
M  V30 1820 H 171.753 -7.91837 2.07209 0
M  V30 1821 N 174.416 0.165178 -1.56732 0
M  V30 1822 C 175.832 0.517174 -1.50988 0
M  V30 1823 C 176.032 1.84331 -0.813894 0
M  V30 1824 O 175.088 2.49672 -0.37682 0
M  V30 1825 C 176.401 0.544261 -2.95733 0
M  V30 1826 C 177.949 0.631039 -3.06573 0
M  V30 1827 C 178.424 0.68896 -4.52788 0
M  V30 1828 N 179.915 0.751683 -4.5706 0
M  V30 1829 C 180.65 0.817177 -5.67547 0
M  V30 1830 N 180.146 0.843129 -6.8765 0
M  V30 1831 N 181.939 0.856668 -5.55534 0
M  V30 1832 H 174.09 -0.704318 -2.00382 0
M  V30 1833 H 176.353 -0.254687 -0.913148 0
M  V30 1834 H 176.059 -0.361607 -3.49836 0
M  V30 1835 H 175.933 1.3886 -3.5071 0
M  V30 1836 H 178.32 1.52733 -2.52501 0
M  V30 1837 H 178.401 -0.240095 -2.54671 0
M  V30 1838 H 178.045 -0.2031 -5.07494 0
M  V30 1839 H 177.975 1.57633 -5.02454 0
M  V30 1840 H 180.466 0.739661 -3.70591 0
M  V30 1841 H 180.779 0.894448 -7.67606 0
M  V30 1842 H 179.124 0.811304 -6.90248 0
M  V30 1843 H 182.315 0.833437 -4.60621 0
M  V30 1844 H 182.488 0.904247 -6.4166 0
M  V30 1845 N 175.894 1.51508 0.433938 0
M  V30 1846 C 177.14 1.64588 1.18484 0
M  V30 1847 C 177.473 0.362666 1.90784 0
M  V30 1848 O 176.748 -0.637892 1.83742 0
M  V30 1849 C 177.031 2.85149 2.19913 0
M  V30 1850 C 176.884 4.23456 1.51674 0
M  V30 1851 C 178.203 3.01227 3.20858 0
M  V30 1852 H 175.322 0.598994 0.429389 0
M  V30 1853 H 177.964 1.84002 0.473647 0
M  V30 1854 H 176.114 2.68729 2.80566 0
M  V30 1855 H 177.786 4.51552 0.943322 0
M  V30 1856 H 176.029 4.25998 0.819035 0
M  V30 1857 H 176.7 5.03812 2.2556 0
M  V30 1858 H 179.176 3.16382 2.70263 0
M  V30 1859 H 178.052 3.87141 3.89118 0
M  V30 1860 H 178.313 2.13447 3.8716 0
M  V30 1861 N 177.372 -0.689602 1.41712 0
M  V30 1862 C 178.32 -1.82475 1.44242 0
M  V30 1863 C 179.314 -1.66354 0.319774 0
M  V30 1864 O 180.52 -1.73143 0.492089 0
M  V30 1865 H 176.895 -0.601416 0.451445 0
M  V30 1866 H 178.866 -1.77458 2.39899 0
M  V30 1867 C 177.615 -3.20535 1.3473 0
M  V30 1868 H 176.938 -3.33559 2.20405 0
M  V30 1869 H 178.378 -4.00023 1.40562 0
M  V30 1870 C 176.837 -3.36846 0.0603281 0
M  V30 1871 O 177.367 -3.91656 -0.892663 0
M  V30 1872 N 175.573 -2.90595 -0.0177039 0
M  V30 1873 H 175.12 -2.46178 0.758572 0
M  V30 1874 H 175.078 -3.01886 -0.878201 0
M  V30 1875 N 178.85 -1.27639 -0.924453 0
M  V30 1876 C 180.08 -1.16819 -1.70402 0
M  V30 1877 C 180.488 0.277191 -1.87158 0
M  V30 1878 O 179.831 1.20025 -1.39067 0
M  V30 1879 C 179.893 -1.78305 -3.12166 0
M  V30 1880 C 179.557 -3.27502 -3.18734 0
M  V30 1881 C 180.554 -4.2409 -3.00738 0
M  V30 1882 C 178.239 -3.68269 -3.4159 0
M  V30 1883 C 180.233 -5.59422 -3.05492 0
M  V30 1884 C 177.92 -5.0373 -3.45977 0
M  V30 1885 C 178.918 -5.99116 -3.27946 0
M  V30 1886 O 178.606 -7.32108 -3.32074 0
M  V30 1887 H 178.338 -0.406931 -0.539799 0
M  V30 1888 H 180.892 -1.69078 -1.16626 0
M  V30 1889 H 179.122 -1.20528 -3.67437 0
M  V30 1890 H 180.811 -1.62154 -3.72103 0
M  V30 1891 H 181.577 -3.93931 -2.82919 0
M  V30 1892 H 177.456 -2.94496 -3.54673 0
M  V30 1893 H 181 -6.33852 -2.91337 0
M  V30 1894 H 176.897 -5.33543 -3.63321 0
M  V30 1895 H 177.665 -7.40598 -3.48507 0
M  V30 1896 N 180.328 1.1314 -1.09713 0
M  V30 1897 C 181.577 1.83838 -0.829851 0
M  V30 1898 C 181.89 1.84599 0.646728 0
M  V30 1899 O 183.096 2.51218 1.02965 0
M  V30 1900 C 181.552 3.30069 -1.43466 0
M  V30 1901 C 181.16 3.37688 -2.94399 0
M  V30 1902 C 182.904 4.05788 -1.24645 0
M  V30 1903 C 180.811 4.78209 -3.47952 0
M  V30 1904 H 179.741 0.68877 -0.306777 0
M  V30 1905 H 182.392 1.27448 -1.3202 0
M  V30 1906 H 180.774 3.8628 -0.871996 0
M  V30 1907 H 181.948 2.91456 -3.56918 0
M  V30 1908 H 180.263 2.75436 -3.12289 0
M  V30 1909 H 182.86 5.09535 -1.62107 0
M  V30 1910 H 183.203 4.15878 -0.187357 0
M  V30 1911 H 183.736 3.55915 -1.77678 0
M  V30 1912 H 180.475 4.73311 -4.53495 0
M  V30 1913 H 179.995 5.24924 -2.90198 0
M  V30 1914 H 181.674 5.47133 -3.45332 0
M  V30 1915 N 181.806 0.884767 1.30421 0
M  V30 1916 C 183.054 0.502112 1.95763 0
M  V30 1917 C 183.375 -0.951815 1.70192 0
M  V30 1918 O 182.645 -1.6692 1.0254 0
M  V30 1919 H 181.225 0.182694 0.724315 0
M  V30 1920 H 183.887 1.1278 1.58955 0
M  V30 1921 H 182.983 0.672188 3.04775 0
M  V30 1922 N 183.284 -1.43765 0.645699 0
M  V30 1923 C 184.512 -2.06253 0.163556 0
M  V30 1924 C 184.927 -1.48352 -1.16778 0
M  V30 1925 O 184.284 -0.611932 -1.71935 0
M  V30 1926 C 184.335 -3.61453 0.0583186 0
M  V30 1927 O 184.056 -4.172 1.33702 0
M  V30 1928 C 185.557 -4.41002 -0.450795 0
M  V30 1929 H 182.777 -0.665413 0.0864077 0
M  V30 1930 H 185.321 -1.84396 0.884222 0
M  V30 1931 H 183.476 -3.82522 -0.612865 0
M  V30 1932 H 183.89 -5.10791 1.19131 0
M  V30 1933 H 185.364 -5.49966 -0.473403 0
M  V30 1934 H 185.841 -4.13488 -1.48068 0
M  V30 1935 H 186.447 -4.24886 0.187637 0
M  V30 1936 N 184.763 -0.387143 -1.52771 0
M  V30 1937 C 185.71 0.449048 -2.26389 0
M  V30 1938 C 186.68 1.05961 -1.27912 0
M  V30 1939 O 187.865 1.08804 -1.56737 0
M  V30 1940 C 185.005 1.57155 -3.0724 0
M  V30 1941 C 184.118 0.984066 -4.20643 0
M  V30 1942 C 183.253 2.07745 -4.88892 0
M  V30 1943 C 182.292 1.46574 -5.94292 0
M  V30 1944 N 181.429 2.49834 -6.56146 0
M  V30 1945 H 186.269 -0.185205 -2.97424 0
M  V30 1946 H 183.806 -0.103164 -1.46738 0
M  V30 1947 H 185.764 2.23309 -3.52405 0
M  V30 1948 H 184.394 2.17615 -2.38419 0
M  V30 1949 H 183.446 0.212193 -3.79808 0
M  V30 1950 H 184.758 0.497029 -4.96318 0
M  V30 1951 H 183.912 2.81673 -5.3735 0
M  V30 1952 H 182.651 2.59807 -4.12737 0
M  V30 1953 H 181.656 0.711696 -5.45174 0
M  V30 1954 H 182.881 0.953088 -6.72379 0
M  V30 1955 H 180.827 3.0107 -5.82832 0
M  V30 1956 H 180.744 2.05879 -7.27427 0
M  V30 1957 H 182.012 3.23399 -7.09249 0
M  V30 1958 N 186.241 1.57166 -0.116904 0
M  V30 1959 C 187.189 2.16457 0.851418 0
M  V30 1960 C 188.183 1.11323 1.27686 0
M  V30 1961 O 189.389 1.2963 1.24884 0
M  V30 1962 H 185.764 0.69271 0.292672 0
M  V30 1963 H 187.735 2.96605 0.32685 0
M  V30 1964 C 186.484 2.77689 2.09246 0
M  V30 1965 H 185.807 3.58285 1.77402 0
M  V30 1966 H 187.247 3.22716 2.7501 0
M  V30 1967 C 185.706 1.74667 2.88085 0
M  V30 1968 O 186.236 1.19877 3.83396 0
M  V30 1969 N 184.442 1.44656 2.52038 0
M  V30 1970 H 183.989 1.89402 1.74599 0
M  V30 1971 H 183.947 0.759675 3.05084 0
M  V30 1972 N 187.719 -0.156864 1.56817 0
M  V30 1973 C 188.965 -0.872416 1.83076 0
M  V30 1974 C 189.298 -1.81261 0.697001 0
M  V30 1975 O 188.573 -1.92171 -0.30008 0
M  V30 1976 C 188.856 -1.65551 3.19789 0
M  V30 1977 C 188.709 -0.737467 4.43713 0
M  V30 1978 C 190.028 -2.62012 3.53606 0
M  V30 1979 H 187.147 -0.315715 0.665953 0
M  V30 1980 H 189.789 -0.138004 1.89498 0
M  V30 1981 H 187.939 -2.28159 3.14445 0
M  V30 1982 H 189.611 -0.123143 4.61136 0
M  V30 1983 H 187.854 -0.0464067 4.33775 0
M  V30 1984 H 188.525 -1.32122 5.35955 0
M  V30 1985 H 191.001 -2.09525 3.59497 0
M  V30 1986 H 189.877 -3.13861 4.50314 0
M  V30 1987 H 190.138 -3.42902 2.79053 0
M  V30 1988 N 189.197 -1.51736 -0.425897 0
M  V30 1989 C 190.446 -1.64201 -1.17136 0
M  V30 1990 C 190.759 -0.369705 -1.92074 0
M  V30 1991 O 191.965 -0.373898 -2.68913 0
M  V30 1992 C 190.421 -2.90035 -2.13091 0
M  V30 1993 C 190.029 -4.24312 -1.43747 0
M  V30 1994 C 191.773 -3.1186 -2.87999 0
M  V30 1995 C 189.68 -5.41285 -2.38253 0
M  V30 1996 H 188.61 -0.611624 -0.440944 0
M  V30 1997 H 191.261 -1.78212 -0.437328 0
M  V30 1998 H 189.643 -2.69684 -2.89977 0
M  V30 1999 H 190.817 -4.55086 -0.723408 0
M  V30 2000 H 189.132 -4.08456 -0.809465 0
M  V30 2001 H 191.729 -3.96427 -3.58817 0
M  V30 2002 H 192.072 -2.25403 -3.49999 0
M  V30 2003 H 192.605 -3.32605 -2.18217 0
M  V30 2004 H 189.344 -6.30037 -1.80925 0
M  V30 2005 H 188.864 -5.14872 -3.0768 0
M  V30 2006 H 190.543 -5.73694 -2.99139 0
M  V30 2007 N 190.675 0.682077 -1.42076 0
M  V30 2008 C 191.585 1.82535 -1.47371 0
M  V30 2009 C 192.601 1.7017 -0.363079 0
M  V30 2010 O 193.777 1.91848 -0.612875 0
M  V30 2011 C 190.842 3.18624 -1.36674 0
M  V30 2012 C 189.903 3.42999 -2.58167 0
M  V30 2013 C 189.136 4.72595 -2.4797 0
M  V30 2014 O 189.359 5.50006 -1.5116 0
M  V30 2015 O 188.293 4.98054 -3.37974 0
M  V30 2016 H 192.119 1.81023 -2.43853 0
M  V30 2017 H 189.704 0.836887 -1.2376 0
M  V30 2018 H 191.586 3.99847 -1.33043 0
M  V30 2019 H 190.261 3.20789 -0.433138 0
M  V30 2020 H 189.168 2.61653 -2.67373 0
M  V30 2021 H 190.501 3.45659 -3.50401 0
M  V30 2022 N 192.153 1.28127 0.917671 0
M  V30 2023 C 193.381 1.17892 1.70026 0
M  V30 2024 C 193.796 -0.262958 1.8696 0
M  V30 2025 O 193.153 -1.17811 1.3938 0
M  V30 2026 C 193.204 1.86872 3.09453 0
M  V30 2027 O 192.925 3.25428 2.93306 0
M  V30 2028 C 194.426 1.8289 4.03815 0
M  V30 2029 H 191.646 0.40942 0.531617 0
M  V30 2030 H 194.19 1.69181 1.14883 0
M  V30 2031 H 192.345 1.39464 3.61426 0
M  V30 2032 H 192.759 3.59918 3.81523 0
M  V30 2033 H 194.233 2.35751 4.99125 0
M  V30 2034 H 194.71 0.800412 4.31845 0
M  V30 2035 H 195.316 2.29959 3.57769 0
M  V30 2036 N 193.631 -1.12557 1.10312 0
M  V30 2037 C 194.871 -1.8568 0.854543 0
M  V30 2038 C 195.235 -1.82091 -0.608843 0
M  V30 2039 O 196.436 -2.50544 -0.973717 0
M  V30 2040 C 194.707 -3.2942 1.38626 0
M  V30 2041 S 196.266 -4.19931 1.27293 0
M  V30 2042 H 193.084 -0.640427 0.308827 0
M  V30 2043 H 195.686 -1.35599 1.40831 0
M  V30 2044 H 194.39 -3.2959 2.44537 0
M  V30 2045 H 193.921 -3.84566 0.82902 0
M  V30 2046 H 195.936 -4.95668 0.229776 0
M  V30 2047 N 195.109 -0.891671 -1.2995 0
M  V30 2048 C 196.056 -0.361736 -2.27948 0
M  V30 2049 C 197.026 0.551761 -1.56668 0
M  V30 2050 O 198.211 0.478736 -1.84696 0
M  V30 2051 C 195.351 0.411825 -3.42634 0
M  V30 2052 C 194.464 -0.531651 -4.28716 0
M  V30 2053 C 193.599 0.258167 -5.30572 0
M  V30 2054 C 192.638 -0.680349 -6.08307 0
M  V30 2055 N 191.775 0.0745613 -7.0206 0
M  V30 2056 H 196.615 -1.20254 -2.72659 0
M  V30 2057 H 194.152 -0.604352 -1.34112 0
M  V30 2058 H 196.11 0.876304 -4.07893 0
M  V30 2059 H 194.74 1.21715 -2.98974 0
M  V30 2060 H 193.792 -1.11463 -3.63703 0
M  V30 2061 H 195.104 -1.25038 -4.82874 0
M  V30 2062 H 194.258 0.784204 -6.0161 0
M  V30 2063 H 192.997 1.01008 -4.77126 0
M  V30 2064 H 192.002 -1.21796 -5.3614 0
M  V30 2065 H 193.227 -1.43145 -6.63842 0
M  V30 2066 H 191.173 0.808883 -6.50994 0
M  V30 2067 H 191.09 -0.584409 -7.53738 0
M  V30 2068 H 192.358 0.581123 -7.77331 0
M  V30 2069 N 196.587 1.43421 -0.653314 0
M  V30 2070 C 197.497 2.34568 0.0388565 0
M  V30 2071 C 198.513 1.53888 0.81207 0
M  V30 2072 O 199.689 1.86539 0.759294 0
M  V30 2073 C 196.754 3.32167 0.993269 0
M  V30 2074 C 195.815 4.28751 0.216977 0
M  V30 2075 C 195.048 5.21688 1.12593 0
M  V30 2076 O 195.271 5.19052 2.36519 0
M  V30 2077 O 194.205 5.98919 0.598284 0
M  V30 2078 H 198.031 2.95251 -0.711386 0
M  V30 2079 H 195.616 1.43564 -0.413502 0
M  V30 2080 H 197.498 3.92183 1.54176 0
M  V30 2081 H 196.173 2.73987 1.72374 0
M  V30 2082 H 195.08 3.72215 -0.375101 0
M  V30 2083 H 196.413 4.89913 -0.473924 0
M  V30 2084 N 198.065 0.39524 1.52563 0
M  V30 2085 C 199.028 -0.425001 2.25225 0
M  V30 2086 C 200.028 -0.985266 1.27079 0
M  V30 2087 O 201.218 -0.866332 1.5113 0
M  V30 2088 C 198.35 -1.59686 3.01186 0
M  V30 2089 H 199.543 0.211233 2.99155 0
M  V30 2090 H 197.096 0.147472 1.55603 0
M  V30 2091 H 197.831 -2.27035 2.31572 0
M  V30 2092 H 197.616 -1.20176 3.73229 0
M  V30 2093 H 199.106 -2.17743 3.5634 0
M  V30 2094 N 199.544 -1.57102 0.125237 0
M  V30 2095 C 200.792 -1.95021 -0.530198 0
M  V30 2096 C 201.113 -1.00982 -1.66816 0
M  V30 2097 O 200.383 -0.0672693 -1.95784 0
M  V30 2098 H 198.963 -0.720046 -0.198853 0
M  V30 2099 H 201.625 -1.93916 0.19564 0
M  V30 2100 H 200.721 -2.98211 -0.920681 0
M  V30 2101 N 201.022 0.148545 -1.56898 0
M  V30 2102 C 202.268 0.862694 -1.83536 0
M  V30 2103 C 202.601 1.80889 -0.706604 0
M  V30 2104 O 201.876 1.92328 0.289885 0
M  V30 2105 C 202.159 1.63853 -3.20662 0
M  V30 2106 C 202.012 0.713925 -4.44098 0
M  V30 2107 C 203.331 2.60133 -3.54991 0
M  V30 2108 H 200.45 0.312179 -0.667618 0
M  V30 2109 H 203.092 0.127953 -1.89569 0
M  V30 2110 H 201.242 2.26489 -3.1565 0
M  V30 2111 H 202.914 0.098686 -4.61194 0
M  V30 2112 H 201.157 0.0234019 -4.33794 0
M  V30 2113 H 201.828 1.29278 -5.36648 0
M  V30 2114 H 204.304 2.07616 -3.60603 0
M  V30 2115 H 203.18 3.11468 -4.51972 0
M  V30 2116 H 203.441 3.41417 -2.80868 0
M  V30 2117 N 202.5 1.5196 0.417844 0
M  V30 2118 C 203.432 1.70895 1.52733 0
M  V30 2119 C 204.445 0.589405 1.51756 0
M  V30 2120 O 205.634 0.864312 1.56179 0
M  V30 2121 C 202.734 1.72627 2.91639 0
M  V30 2122 C 201.907 3.01479 3.16905 0
M  V30 2123 C 200.966 2.95139 4.35637 0
M  V30 2124 O 199.992 3.69059 4.3334 0
M  V30 2125 N 201.194 2.12328 5.40275 0
M  V30 2126 H 203.959 2.66612 1.36888 0
M  V30 2127 H 201.52 1.50089 0.607037 0
M  V30 2128 H 203.512 1.65928 3.6912 0
M  V30 2129 H 202.082 0.844216 3.00985 0
M  V30 2130 H 201.302 3.21895 2.27546 0
M  V30 2131 H 202.59 3.86736 3.30625 0
M  V30 2132 H 201.988 1.51685 5.44985 0
M  V30 2133 H 200.545 2.11494 6.16534 0
M  V30 2134 N 203.978 -0.674533 1.42435 0
M  V30 2135 C 204.925 -1.78807 1.45934 0
M  V30 2136 C 205.895 -1.63157 0.311271 0
M  V30 2137 O 207.08 -1.83707 0.515383 0
M  V30 2138 C 204.22 -3.16839 1.36773 0
M  V30 2139 C 203.333 -3.43774 2.61617 0
M  V30 2140 C 202.468 -4.71536 2.44597 0
M  V30 2141 C 201.507 -4.91505 3.64814 0
M  V30 2142 N 200.644 -6.10508 3.46734 0
M  V30 2143 H 205.484 -1.75151 2.41093 0
M  V30 2144 H 203.021 -0.85504 1.19697 0
M  V30 2145 H 204.979 -3.96606 1.29459 0
M  V30 2146 H 203.609 -3.19619 0.452089 0
M  V30 2147 H 202.661 -2.58259 2.79297 0
M  V30 2148 H 203.973 -3.54423 3.50978 0
M  V30 2149 H 203.127 -5.59393 2.3487 0
M  V30 2150 H 201.866 -4.6317 1.52726 0
M  V30 2151 H 200.871 -4.0209 3.74972 0
M  V30 2152 H 202.096 -5.01716 4.57665 0
M  V30 2153 H 200.042 -6.03315 2.5758 0
M  V30 2154 H 199.959 -6.2202 4.29682 0
M  V30 2155 H 201.227 -7.01044 3.40819 0
M  V30 2156 N 205.456 -1.28612 -0.910864 0
M  V30 2157 C 206.386 -1.15326 -2.03032 0
M  V30 2158 C 207.367 -0.0502924 -1.70026 0
M  V30 2159 O 208.552 -0.227797 -1.92859 0
M  V30 2160 C 205.682 -0.817343 -3.37545 0
M  V30 2161 C 204.636 -1.8754 -3.84724 0
M  V30 2162 C 203.962 -1.39305 -5.16235 0
M  V30 2163 C 205.262 -3.28244 -4.06267 0
M  V30 2164 H 206.956 -2.08975 -2.14406 0
M  V30 2165 H 204.502 -1.00612 -1.03021 0
M  V30 2166 H 206.455 -0.711151 -4.15356 0
M  V30 2167 H 205.179 0.154846 -3.26233 0
M  V30 2168 H 203.838 -1.97079 -3.09121 0
M  V30 2169 H 203.486 -0.409846 -5.01328 0
M  V30 2170 H 203.186 -2.10057 -5.48771 0
M  V30 2171 H 204.71 -1.30014 -5.96598 0
M  V30 2172 H 206.124 -3.21611 -4.74594 0
M  V30 2173 H 204.521 -3.96855 -4.5014 0
M  V30 2174 H 205.591 -3.72048 -3.10979 0
M  V30 2175 N 206.934 1.1197 -1.10907 0
M  V30 2176 C 208.183 1.82947 -0.849302 0
M  V30 2177 C 208.496 1.85275 0.627112 0
M  V30 2178 O 209.702 2.52296 1.00295 0
M  V30 2179 C 208.158 3.28529 -1.46959 0
M  V30 2180 C 207.766 3.34546 -2.97965 0
M  V30 2181 C 209.51 4.04443 -1.28942 0
M  V30 2182 C 207.417 4.74491 -3.53004 0
M  V30 2183 H 206.347 0.685477 -0.314065 0
M  V30 2184 H 208.998 1.2604 -1.33365 0
M  V30 2185 H 207.38 3.85333 -0.912917 0
M  V30 2186 H 208.554 2.87654 -3.59989 0
M  V30 2187 H 206.869 2.72108 -3.15192 0
M  V30 2188 H 209.466 5.07787 -1.67502 0
M  V30 2189 H 209.809 4.15656 -0.231456 0
M  V30 2190 H 210.342 3.5401 -1.81443 0
M  V30 2191 H 207.081 4.68474 -4.58489 0
M  V30 2192 H 206.601 5.21816 -2.9575 0
M  V30 2193 H 208.28 5.4344 -3.51115 0
M  V30 2194 N 208.412 0.89855 1.29475 0
M  V30 2195 C 209.342 0.39201 2.30186 0
M  V30 2196 C 210.323 -0.532359 1.61555 0
M  V30 2197 O 211.508 -0.443331 1.89072 0
M  V30 2198 C 208.638 -0.382353 3.45189 0
M  V30 2199 C 207.592 0.451483 4.25612 0
M  V30 2200 C 206.918 -0.450307 5.328 0
M  V30 2201 C 208.218 1.70079 4.93832 0
M  V30 2202 H 209.912 1.23362 2.72804 0
M  V30 2203 H 207.458 0.594638 1.31149 0
M  V30 2204 H 209.411 -0.747451 4.14718 0
M  V30 2205 H 208.135 -1.25774 3.01411 0
M  V30 2206 H 206.794 0.798897 3.57789 0
M  V30 2207 H 206.442 -1.32379 4.85268 0
M  V30 2208 H 206.142 0.103902 5.87508 0
M  V30 2209 H 207.666 -0.811623 6.05182 0
M  V30 2210 H 209.08 1.40549 5.55805 0
M  V30 2211 H 207.477 2.19623 5.58467 0
M  V30 2212 H 208.547 2.43744 4.19186 0
M  V30 2213 N 209.89 -1.43072 0.660911 0
M  V30 2214 C 211.118 -2.06067 0.185422 0
M  V30 2215 C 211.533 -1.49582 -1.15198 0
M  V30 2216 O 210.89 -0.630134 -1.71276 0
M  V30 2217 C 210.941 -3.61371 0.0966523 0
M  V30 2218 O 210.662 -4.15758 1.38119 0
M  V30 2219 C 212.163 -4.41455 -0.403996 0
M  V30 2220 H 209.383 -0.664459 0.0934604 0
M  V30 2221 H 211.927 -1.83447 0.90373 0
M  V30 2222 H 210.082 -3.8315 -0.572259 0
M  V30 2223 H 210.496 -5.09499 1.24542 0
M  V30 2224 H 211.97 -5.50437 -0.415045 0
M  V30 2225 H 212.447 -4.15036 -1.43674 0
M  V30 2226 H 213.053 -4.24663 0.232691 0
M  V30 2227 N 211.368 -0.403325 -1.52352 0
M  V30 2228 C 212.593 0.176499 -2.06648 0
M  V30 2229 C 213.018 1.38577 -1.27193 0
M  V30 2230 O 212.376 1.7879 -0.300637 0
M  V30 2231 C 212.424 0.511061 -3.5696 0
M  V30 2232 O 211.528 1.60294 -3.79973 0
M  V30 2233 H 210.869 0.0167337 -0.663789 0
M  V30 2234 H 213.399 -0.574848 -1.96359 0
M  V30 2235 H 213.409 0.771362 -4.00642 0
M  V30 2236 H 212.084 -0.37296 -4.14224 0
M  V30 2237 H 210.661 1.33526 -3.48174 0
M  V30 2238 N 212.846 1.57033 -0.133567 0
M  V30 2239 C 214.071 2.00475 0.531477 0
M  V30 2240 C 214.496 1.01291 1.58499 0
M  V30 2241 O 213.854 -0.0133279 1.81295 0
M  V30 2242 C 213.902 3.42729 1.12113 0
M  V30 2243 O 213.006 3.46498 2.23636 0
M  V30 2244 H 212.347 0.650876 0.131362 0
M  V30 2245 H 214.877 2.03344 -0.22634 0
M  V30 2246 H 214.887 3.81246 1.4531 0
M  V30 2247 H 213.562 4.14428 0.349557 0
M  V30 2248 H 212.139 3.19811 1.91769 0
M  V30 2249 N 214.325 -0.140222 1.56975 0
M  V30 2250 C 215.288 -1.15689 1.97861 0
M  V30 2251 C 216.288 -1.3549 0.865974 0
M  V30 2252 O 217.478 -1.32367 1.13246 0
M  V30 2253 C 214.61 -2.51582 2.30042 0
M  V30 2254 H 215.803 -0.805971 2.88867 0
M  V30 2255 H 213.356 -0.383801 1.51515 0
M  V30 2256 H 214.091 -2.91632 1.41849 0
M  V30 2257 H 213.876 -2.38569 3.11171 0
M  V30 2258 H 215.366 -3.24792 2.62488 0
M  V30 2259 N 215.803 -1.52179 -0.40978 0
M  V30 2260 C 217.028 -1.70347 -1.18308 0
M  V30 2261 C 217.453 -0.411887 -1.83535 0
M  V30 2262 O 216.811 0.630587 -1.6998 0
M  V30 2263 C 216.859 -2.83977 -2.22238 0
M  V30 2264 O 215.963 -2.495 -3.28365 0
M  V30 2265 H 215.304 -0.567103 -0.345384 0
M  V30 2266 H 217.834 -1.98879 -0.480445 0
M  V30 2267 H 217.844 -3.0887 -2.66577 0
M  V30 2268 H 216.519 -3.77685 -1.74146 0
M  V30 2269 H 215.096 -2.35277 -2.89308 0
M  V30 2270 N 217.281 0.66697 -1.42791 0
M  V30 2271 C 218.527 1.4291 -1.43891 0
M  V30 2272 C 218.86 1.94114 -0.0578972 0
M  V30 2273 O 218.135 1.71414 0.91911 0
M  V30 2274 C 218.418 2.62049 -2.46987 0
M  V30 2275 C 218.271 2.16426 -3.94309 0
M  V30 2276 C 219.59 3.64266 -2.46978 0
M  V30 2277 H 216.709 0.518306 -0.523954 0
M  V30 2278 H 219.351 0.757321 -1.74255 0
M  V30 2279 H 217.501 3.19361 -2.21225 0
M  V30 2280 H 219.173 1.64221 -4.31079 0
M  V30 2281 H 217.416 1.47925 -4.078 0
M  V30 2282 H 218.087 3.02038 -4.62036 0
M  V30 2283 H 220.563 3.16686 -2.69906 0
M  V30 2284 H 219.439 4.45196 -3.21079 0
M  V30 2285 H 219.7 4.15927 -1.49857 0
M  V30 2286 N 218.759 1.29093 0.90403 0
M  V30 2287 C 220.008 1.16187 1.64874 0
M  V30 2288 C 220.321 -0.286742 1.93487 0
M  V30 2289 O 221.527 -0.537062 2.66135 0
M  V30 2290 C 219.983 2.03177 2.97064 0
M  V30 2291 C 219.591 3.52836 2.76062 0
M  V30 2292 C 221.335 1.98984 3.74974 0
M  V30 2293 C 219.242 4.31945 4.03952 0
M  V30 2294 H 218.172 0.431246 0.618501 0
M  V30 2295 H 220.823 1.53699 1.00243 0
M  V30 2296 H 219.205 1.5853 3.62883 0
M  V30 2297 H 220.379 4.05507 2.18863 0
M  V30 2298 H 218.694 3.58656 2.11553 0
M  V30 2299 H 221.291 2.55351 4.69787 0
M  V30 2300 H 221.634 0.968815 4.0487 0
M  V30 2301 H 222.167 2.41652 3.15989 0
M  V30 2302 H 218.906 5.34667 3.79225 0
M  V30 2303 H 218.426 3.84045 4.60727 0
M  V30 2304 H 220.105 4.42379 4.72133 0
M  V30 2305 N 220.237 -1.11381 1.11499 0
M  V30 2306 C 221.484 -1.83132 0.864231 0
M  V30 2307 C 221.812 -1.84683 -0.610114 0
M  V30 2308 O 221.067 -1.29589 -1.46646 0
M  V30 2309 C 221.366 -3.30026 1.37177 0
M  V30 2310 C 221.032 -3.48634 2.85946 0
M  V30 2311 C 219.694 -3.53421 3.26569 0
M  V30 2312 C 222.046 -3.54837 3.81759 0
M  V30 2313 C 219.374 -3.61967 4.61733 0
M  V30 2314 C 221.726 -3.64915 5.1674 0
M  V30 2315 C 220.39 -3.67962 5.5692 0
M  V30 2316 H 219.66 -0.670127 0.316245 0
M  V30 2317 H 222.307 -1.31354 1.3935 0
M  V30 2318 H 220.612 -3.84304 0.762753 0
M  V30 2319 H 222.309 -3.84034 1.15408 0
M  V30 2320 H 218.899 -3.45579 2.53521 0
M  V30 2321 H 223.083 -3.50399 3.51474 0
M  V30 2322 H 218.339 -3.62603 4.92269 0
M  V30 2323 H 222.513 -3.68658 5.90816 0
M  V30 2324 H 220.14 -3.74336 6.61647 0
M  V30 2325 N 221.715 -0.905404 -1.28997 0
M  V30 2326 C 222.625 -0.392246 -2.31298 0
M  V30 2327 C 223.641 0.515889 -1.66176 0
M  V30 2328 O 224.817 0.404093 -1.97304 0
M  V30 2329 C 221.882 0.36686 -3.44754 0
M  V30 2330 C 220.943 -0.573485 -4.25452 0
M  V30 2331 C 220.176 0.149488 -5.33491 0
M  V30 2332 O 220.399 1.37255 -5.5364 0
M  V30 2333 O 219.333 -0.510919 -5.99728 0
M  V30 2334 H 223.159 -1.2411 -2.77183 0
M  V30 2335 H 220.744 -0.669926 -1.33538 0
M  V30 2336 H 222.626 0.795907 -4.13816 0
M  V30 2337 H 221.301 1.19169 -3.00966 0
M  V30 2338 H 220.208 -1.05176 -3.59011 0
M  V30 2339 H 221.541 -1.36489 -4.72897 0
M  V30 2340 N 223.193 1.4272 -0.668489 0
M  V30 2341 C 224.441 2.01226 -0.187769 0
M  V30 2342 C 224.762 1.53092 1.2078 0
M  V30 2343 O 224.032 0.74993 1.80977 0
M  V30 2344 H 222.612 0.744041 -0.0664272 0
M  V30 2345 H 225.274 1.74723 -0.863583 0
M  V30 2346 H 224.37 3.11556 -0.184166 0
M  V30 2347 N 224.671 0.411399 1.52136 0
M  V30 2348 C 225.917 -0.163888 2.02137 0
M  V30 2349 C 226.25 -1.44597 1.29636 0
M  V30 2350 O 225.525 -1.90272 0.403353 0
M  V30 2351 C 225.808 -0.40927 3.57767 0
M  V30 2352 C 225.661 0.889643 4.40914 0
M  V30 2353 C 226.98 -1.19042 4.23694 0
M  V30 2354 H 224.099 -0.0580896 0.734707 0
M  V30 2355 H 226.741 0.54531 1.82007 0
M  V30 2356 H 224.891 -1.0134 3.7505 0
M  V30 2357 H 226.563 1.52575 4.35337 0
M  V30 2358 H 224.806 1.50011 4.07037 0
M  V30 2359 H 225.477 0.672314 5.4789 0
M  V30 2360 H 227.953 -0.678942 4.10524 0
M  V30 2361 H 226.829 -1.33086 5.32522 0
M  V30 2362 H 227.09 -2.21166 3.82803 0
M  V30 2363 N 226.149 -1.5696 0.141893 0
M  V30 2364 C 227.426 -1.87553 -0.555281 0
M  V30 2365 C 227.806 -1.04699 -1.83306 0
M  V30 2366 O 227.154 -0.132346 -2.28116 0
M  V30 2367 C 227.364 -3.39093 -0.825664 0
M  V30 2368 C 228.712 -4.08199 -1.16869 0
M  V30 2369 O 229.736 -3.44242 -0.915185 0
M  V30 2370 O 228.595 -5.21139 -1.6455 0
M  V30 2371 H 225.689 -0.777188 -0.282679 0
M  V30 2372 H 228.235 -1.68763 0.17812 0
M  V30 2373 H 227.007 -3.91221 0.0788633 0
M  V30 2374 H 226.63 -3.63393 -1.61343 0
M  V30 2375 N 227.627 0.131896 -1.57047 0
M  V30 2376 C 228.876 0.84044 -1.83356 0
M  V30 2377 C 229.189 1.81646 -0.725535 0
M  V30 2378 O 230.395 2.57025 -0.874659 0
M  V30 2379 C 228.851 1.54528 -3.25037 0
M  V30 2380 C 228.459 0.610902 -4.43815 0
M  V30 2381 C 230.203 2.23972 -3.60606 0
M  V30 2382 C 228.11 1.31823 -5.76521 0
M  V30 2383 H 227.04 0.317599 -0.683847 0
M  V30 2384 H 229.691 0.0931561 -1.83263 0
M  V30 2385 H 228.073 2.33873 -3.19561 0
M  V30 2386 H 229.247 -0.148407 -4.60561 0
M  V30 2387 H 227.562 0.0241016 -4.16393 0
M  V30 2388 H 230.159 2.77558 -4.57018 0
M  V30 2389 H 230.502 3.01173 -2.87403 0
M  V30 2390 H 231.035 1.51529 -3.6781 0
M  V30 2391 H 227.774 0.587771 -6.52859 0
M  V30 2392 H 227.294 2.04987 -5.63685 0
M  V30 2393 H 228.973 1.855 -6.19838 0
M  V30 2394 N 229.106 1.52395 0.401703 0
M  V30 2395 C 230.053 1.76268 1.48991 0
M  V30 2396 C 231.023 0.605386 1.54675 0
M  V30 2397 O 232.208 0.843742 1.7113 0
M  V30 2398 C 229.348 1.92592 2.86361 0
M  V30 2399 C 228.461 3.20259 2.89928 0
M  V30 2400 C 227.596 3.26972 4.18644 0
M  V30 2401 C 226.635 4.48812 4.16214 0
M  V30 2402 N 225.772 4.52877 5.36514 0
M  V30 2403 H 230.612 2.6914 1.27935 0
M  V30 2404 H 228.149 1.33355 0.620871 0
M  V30 2405 H 230.107 2.0004 3.66115 0
M  V30 2406 H 228.737 1.03093 3.05895 0
M  V30 2407 H 227.789 3.21945 2.02621 0
M  V30 2408 H 229.101 4.10056 2.83999 0
M  V30 2409 H 228.255 3.33533 5.06794 0
M  V30 2410 H 226.994 2.35126 4.27278 0
M  V30 2411 H 225.999 4.4239 3.26453 0
M  V30 2412 H 227.224 5.41961 4.09213 0
M  V30 2413 H 225.17 3.63917 5.45802 0
M  V30 2414 H 225.087 5.36529 5.32609 0
M  V30 2415 H 226.355 4.63676 6.26597 0
M  V30 2416 N 230.584 -0.659388 1.43143 0
M  V30 2417 C 231.532 -1.79374 1.4808 0
M  V30 2418 C 232.526 -1.65639 0.354988 0
M  V30 2419 O 233.732 -1.7206 0.528704 0
M  V30 2420 H 230.107 -0.591705 0.4641 0
M  V30 2421 H 232.078 -1.72329 2.43609 0
M  V30 2422 C 230.827 -3.17606 1.41499 0
M  V30 2423 H 230.15 -3.28809 2.27431 0
M  V30 2424 H 231.59 -3.96951 1.49015 0
M  V30 2425 C 230.049 -3.36642 0.131765 0
M  V30 2426 O 230.579 -3.93461 -0.809386 0
M  V30 2427 N 228.785 -2.90567 0.0439396 0
M  V30 2428 H 228.332 -2.44513 0.810619 0
M  V30 2429 H 228.29 -3.03681 -0.813969 0
M  V30 2430 N 232.062 -1.29571 -0.897171 0
M  V30 2431 C 233.31 -1.17456 -1.64464 0
M  V30 2432 C 233.631 0.273698 -1.9307 0
M  V30 2433 O 232.901 1.18684 -1.55855 0
M  V30 2434 H 231.481 -0.431706 -0.609622 0
M  V30 2435 H 234.143 -1.62531 -1.07562 0
M  V30 2436 H 233.239 -1.72648 -2.59998 0
M  V30 2437 N 233.54 1.10788 -1.12088 0
M  V30 2438 C 234.768 1.86461 -0.896651 0
M  V30 2439 C 235.183 1.80492 0.553912 0
M  V30 2440 O 234.54 1.19102 1.38278 0
M  V30 2441 C 234.591 3.35006 -1.35843 0
M  V30 2442 O 234.312 3.40866 -2.75213 0
M  V30 2443 C 235.813 4.27565 -1.1706 0
M  V30 2444 H 233.033 0.589425 -0.320654 0
M  V30 2445 H 235.577 1.40076 -1.48993 0
M  V30 2446 H 233.732 3.7887 -0.808458 0
M  V30 2447 H 234.146 4.33411 -2.9539 0
M  V30 2448 H 235.62 5.30007 -1.54263 0
M  V30 2449 H 236.097 4.3906 -0.110814 0
M  V30 2450 H 236.703 3.89501 -1.70789 0
M  V30 2451 N 235.018 0.912232 1.28515 0
M  V30 2452 C 235.928 0.404506 2.31086 0
M  V30 2453 C 236.944 -0.50707 1.66448 0
M  V30 2454 O 238.12 -0.393624 1.97516 0
M  V30 2455 C 235.185 -0.348572 3.44943 0
M  V30 2456 C 234.246 0.59604 4.25142 0
M  V30 2457 C 233.479 -0.121194 5.33562 0
M  V30 2458 O 233.702 -1.34317 5.5436 0
M  V30 2459 O 232.636 0.542716 5.99448 0
M  V30 2460 H 236.462 1.25579 2.76521 0
M  V30 2461 H 234.047 0.676998 1.33181 0
M  V30 2462 H 235.929 -0.77395 4.14232 0
M  V30 2463 H 234.604 -1.17571 3.01594 0
M  V30 2464 H 233.511 1.07079 3.58448 0
M  V30 2465 H 234.844 1.38995 4.72167 0
M  V30 2466 N 236.496 -1.42363 0.676048 0
M  V30 2467 C 237.773 -1.95183 0.127726 0
M  V30 2468 C 238.153 -1.61641 -1.35777 0
M  V30 2469 O 237.501 -0.913216 -2.09458 0
M  V30 2470 C 237.711 -3.46721 0.398199 0
M  V30 2471 C 239.059 -4.23427 0.315383 0
M  V30 2472 O 240.083 -3.54649 0.332016 0
M  V30 2473 O 238.942 -5.45888 0.25865 0
M  V30 2474 H 236.036 -0.826992 0.00359427 0
M  V30 2475 H 238.582 -1.52184 0.750864 0
M  V30 2476 H 237.354 -3.64344 1.4272 0
M  V30 2477 H 236.977 -3.96769 -0.256885 0
M  V30 2478 N 237.974 -0.419461 -1.51915 0
M  V30 2479 C 238.904 0.391813 -2.30189 0
M  V30 2480 C 239.885 1.03699 -1.34836 0
M  V30 2481 O 241.07 1.04403 -1.63748 0
M  V30 2482 C 238.2 1.50312 -3.13087 0
M  V30 2483 C 237.154 0.9824 -4.16573 0
M  V30 2484 C 236.48 2.18809 -4.8788 0
M  V30 2485 C 237.78 0.0292356 -5.22292 0
M  V30 2486 H 239.474 -0.26135 -2.98257 0
M  V30 2487 H 237.02 -0.127134 -1.43438 0
M  V30 2488 H 238.973 2.07773 -3.66617 0
M  V30 2489 H 237.697 2.18431 -2.42807 0
M  V30 2490 H 236.356 0.430119 -3.64068 0
M  V30 2491 H 236.004 2.85507 -4.14119 0
M  V30 2492 H 235.704 1.84615 -5.57845 0
M  V30 2493 H 237.228 2.76858 -5.44226 0
M  V30 2494 H 238.642 0.512976 -5.71 0
M  V30 2495 H 237.039 -0.2244 -5.9968 0
M  V30 2496 H 238.109 -0.912931 -4.76228 0
M  V30 2497 N 239.452 1.56882 -0.150215 0
M  V30 2498 C 240.863 1.82995 0.370076 0
M  V30 2499 C 241.214 1.06907 1.64515 0
M  V30 2500 O 240.339 0.315369 2.1409 0
M  V30 2501 C 240.934 3.31942 0.678208 0
M  V30 2502 C 239.493 3.58625 1.14301 0
M  V30 2503 C 238.64 2.76792 0.167778 0
M  V30 2504 H 241.591 1.54209 -0.374858 0
M  V30 2505 H 241.612 3.48272 1.53254 0
M  V30 2506 H 241.124 3.87294 -0.249991 0
M  V30 2507 H 239.225 3.08664 2.08704 0
M  V30 2508 H 239.338 4.67073 1.06676 0
M  V30 2509 H 237.702 2.45972 0.661037 0
M  V30 2510 H 238.485 3.34916 -0.754069 0
M  V30 2511 N 240.93 -0.123565 1.57115 0
M  V30 2512 C 242.16 -0.845233 1.88519 0
M  V30 2513 C 242.568 -1.74168 0.739064 0
M  V30 2514 O 241.911 -1.81244 -0.299355 0
M  V30 2515 C 241.973 -1.73452 3.14888 0
M  V30 2516 C 241.637 -1.01285 4.45635 0
M  V30 2517 C 242.634 -0.355774 5.18681 0
M  V30 2518 C 240.319 -0.99538 4.92339 0
M  V30 2519 C 242.313 0.309114 6.3665 0
M  V30 2520 C 240 -0.32669 6.10226 0
M  V30 2521 C 240.998 0.324406 6.82229 0
M  V30 2522 O 240.686 0.982437 7.97874 0
M  V30 2523 H 240.418 -0.248534 0.628655 0
M  V30 2524 H 242.972 -0.113907 2.05084 0
M  V30 2525 H 241.202 -2.50737 2.94394 0
M  V30 2526 H 242.891 -2.33021 3.32349 0
M  V30 2527 H 243.657 -0.360918 4.83655 0
M  V30 2528 H 239.536 -1.49159 4.36202 0
M  V30 2529 H 243.08 0.8179 6.92789 0
M  V30 2530 H 238.977 -0.319294 6.4471 0
M  V30 2531 H 239.745 0.886454 8.13686 0
M  V30 2532 N 242.408 -1.52605 -0.393616 0
M  V30 2533 C 243.371 -1.76415 -1.46323 0
M  V30 2534 C 244.371 -0.634126 -1.47768 0
M  V30 2535 O 245.561 -0.902142 -1.4902 0
M  V30 2536 C 242.693 -1.8607 -2.85641 0
M  V30 2537 H 243.886 -2.71916 -1.26498 0
M  V30 2538 H 241.439 -1.43257 -0.625073 0
M  V30 2539 H 242.174 -0.925378 -3.10817 0
M  V30 2540 H 241.959 -2.68235 -2.85993 0
M  V30 2541 H 243.449 -2.06179 -3.63153 0
M  V30 2542 N 243.887 0.651787 -1.4349 0
M  V30 2543 C 244.82 1.77668 -1.43211 0
M  V30 2544 C 245.798 1.59931 -0.29338 0
M  V30 2545 O 246.982 1.82095 -0.487191 0
M  V30 2546 C 244.109 3.14986 -1.24505 0
M  V30 2547 C 243.155 3.51421 -2.41673 0
M  V30 2548 S 243.988 3.51234 -4.04222 0
M  V30 2549 C 245.144 4.91206 -3.87902 0
M  V30 2550 H 245.377 1.77635 -2.38397 0
M  V30 2551 H 242.91 0.824558 -1.30539 0
M  V30 2552 H 244.868 3.94237 -1.144 0
M  V30 2553 H 243.529 3.1258 -0.308651 0
M  V30 2554 H 242.722 4.51291 -2.24393 0
M  V30 2555 H 242.324 2.79585 -2.48411 0
M  V30 2556 H 244.616 5.79902 -3.50315 0
M  V30 2557 H 245.559 5.13537 -4.8753 0
M  V30 2558 H 245.967 4.64808 -3.20334 0
M  V30 2559 N 245.365 1.30045 0.890287 0
M  V30 2560 C 246.312 1.15976 1.99545 0
M  V30 2561 C 247.282 0.0506202 1.66023 0
M  V30 2562 O 248.467 0.219847 1.89529 0
M  V30 2563 C 245.607 0.852054 3.34416 0
M  V30 2564 C 244.72 2.04255 3.80662 0
M  V30 2565 C 243.855 1.6734 5.04154 0
M  V30 2566 C 242.894 2.82916 5.42794 0
M  V30 2567 N 242.031 2.46333 6.57468 0
M  V30 2568 H 246.871 2.10524 2.10911 0
M  V30 2569 H 244.408 1.04749 1.03276 0
M  V30 2570 H 246.366 0.654296 4.12037 0
M  V30 2571 H 244.996 -0.0565502 3.2275 0
M  V30 2572 H 244.048 2.35172 2.98995 0
M  V30 2573 H 245.36 2.90826 4.05242 0
M  V30 2574 H 244.514 1.43908 5.89386 0
M  V30 2575 H 243.253 0.779308 4.81433 0
M  V30 2576 H 242.258 3.0702 4.56091 0
M  V30 2577 H 243.483 3.73004 5.6749 0
M  V30 2578 H 241.429 1.59423 6.36334 0
M  V30 2579 H 241.346 3.26436 6.81891 0
M  V30 2580 H 242.614 2.26244 7.45945 0
M  V30 2581 N 246.843 -1.10192 1.12674 0
M  V30 2582 C 248.254 -1.63707 0.897604 0
M  V30 2583 C 248.605 -1.87812 -0.567546 0
M  V30 2584 O 247.73 -1.62196 -1.43253 0
M  V30 2585 C 248.325 -2.974 1.62292 0
M  V30 2586 C 246.884 -3.47772 1.43986 0
M  V30 2587 C 246.031 -2.22332 1.65722 0
M  V30 2588 H 248.982 -0.936587 1.28116 0
M  V30 2589 H 249.003 -3.64986 1.07541 0
M  V30 2590 H 248.515 -2.79824 2.68924 0
M  V30 2591 H 246.616 -3.70487 0.396206 0
M  V30 2592 H 246.729 -4.25723 2.19765 0
M  V30 2593 H 245.093 -2.30599 1.08149 0
M  V30 2594 H 245.876 -2.07285 2.73657 0
M  V30 2595 N 248.321 -0.919034 -1.28029 0
M  V30 2596 C 249.57 -0.550802 -1.94034 0
M  V30 2597 C 249.883 0.910877 -1.73096 0
M  V30 2598 O 251.089 1.3875 -2.33368 0
M  V30 2599 C 249.545 -0.934249 -3.47563 0
M  V30 2600 C 249.153 -2.41602 -3.7727 0
M  V30 2601 C 250.897 -0.636854 -4.19696 0
M  V30 2602 C 248.804 -2.73932 -5.24133 0
M  V30 2603 H 247.734 -0.202273 -0.726362 0
M  V30 2604 H 250.385 -1.11867 -1.45458 0
M  V30 2605 H 248.767 -0.295115 -3.94899 0
M  V30 2606 H 249.941 -3.10233 -3.40723 0
M  V30 2607 H 248.256 -2.68441 -3.18321 0
M  V30 2608 H 250.853 -0.855005 -5.2782 0
M  V30 2609 H 251.196 0.425575 -4.14119 0
M  V30 2610 H 251.729 -1.23469 -3.78154 0
M  V30 2611 H 248.468 -3.79049 -5.34792 0
M  V30 2612 H 247.988 -2.09942 -5.61858 0
M  V30 2613 H 249.667 -2.61215 -5.91925 0
M  V30 2614 N 249.799 1.42003 -0.683588 0
M  V30 2615 C 251.076 1.95112 -0.138075 0
M  V30 2616 C 251.456 1.62359 1.34918 0
M  V30 2617 O 250.804 0.924311 2.08971 0
M  V30 2618 C 251.014 3.46505 -0.416581 0
M  V30 2619 C 252.362 4.23254 -0.337834 0
M  V30 2620 O 253.386 3.54468 -0.35082 0
M  V30 2621 O 252.245 5.45743 -0.287596 0
M  V30 2622 H 249.339 0.826961 -0.00797996 0
M  V30 2623 H 251.885 1.51784 -0.758924 0
M  V30 2624 H 250.657 3.63582 -1.4465 0
M  V30 2625 H 250.28 3.969 0.235839 0
M  V30 2626 N 251.277 0.427512 1.51691 0
M  V30 2627 C 252.507 -0.140986 2.06118 0
M  V30 2628 C 252.915 -1.37854 1.29588 0
M  V30 2629 O 252.258 -1.80411 0.346036 0
M  V30 2630 C 252.32 -0.538276 3.55447 0
M  V30 2631 C 251.984 0.591095 4.53161 0
M  V30 2632 C 252.981 1.46027 4.98971 0
M  V30 2633 C 250.666 0.769028 4.96378 0
M  V30 2634 C 252.66 2.49216 5.8666 0
M  V30 2635 C 250.347 1.80421 5.83859 0
M  V30 2636 C 251.345 2.66417 6.28897 0
M  V30 2637 O 251.033 3.68159 7.14643 0
M  V30 2638 H 250.765 -0.0157455 0.675817 0
M  V30 2639 H 253.319 0.602495 1.96365 0
M  V30 2640 H 251.549 -1.33432 3.6295 0
M  V30 2641 H 253.238 -1.0368 3.92435 0
M  V30 2642 H 254.004 1.33429 4.66285 0
M  V30 2643 H 249.883 0.109273 4.6087 0
M  V30 2644 H 253.427 3.16372 6.21735 0
M  V30 2645 H 249.324 1.93042 6.15959 0
M  V30 2646 H 250.092 3.64622 7.32798 0
M  V30 2647 N 252.755 -1.56801 0.158532 0
M  V30 2648 C 253.985 -2.00568 -0.495583 0
M  V30 2649 C 254.393 -1.03774 -1.58201 0
M  V30 2650 O 253.736 -0.0285797 -1.83678 0
M  V30 2651 C 253.798 -3.40768 -1.14532 0
M  V30 2652 C 253.462 -4.56553 -0.202101 0
M  V30 2653 C 254.459 -5.16714 0.574675 0
M  V30 2654 C 252.144 -5.02197 -0.101648 0
M  V30 2655 C 254.138 -6.20939 1.43924 0
M  V30 2656 C 251.825 -6.06274 0.766508 0
M  V30 2657 C 252.823 -6.65515 1.53555 0
M  V30 2658 O 252.511 -7.67575 2.38922 0
M  V30 2659 H 252.243 -0.662893 -0.13247 0
M  V30 2660 H 254.797 -2.03829 0.253559 0
M  V30 2661 H 253.027 -3.34381 -1.94233 0
M  V30 2662 H 254.716 -3.6857 -1.70033 0
M  V30 2663 H 255.482 -4.82341 0.507167 0
M  V30 2664 H 251.361 -4.55807 -0.689994 0
M  V30 2665 H 254.905 -6.67107 2.03996 0
M  V30 2666 H 250.802 -6.40073 0.835266 0
M  V30 2667 H 251.57 -7.84844 2.32296 0
M  V30 2668 N 254.233 0.115231 -1.57178 0
M  V30 2669 C 255.461 0.836437 -1.89239 0
M  V30 2670 C 255.876 1.73256 -0.750175 0
M  V30 2671 O 255.233 1.80357 0.278832 0
M  V30 2672 C 255.284 1.66671 -3.20785 0
M  V30 2673 O 255.005 0.806652 -4.3061 0
M  V30 2674 C 256.506 2.49274 -3.66575 0
M  V30 2675 H 253.726 0.240253 -0.626514 0
M  V30 2676 H 256.27 0.0984932 -2.04263 0
M  V30 2677 H 254.425 2.35737 -3.0742 0
M  V30 2678 H 254.839 1.37969 -5.06028 0
M  V30 2679 H 256.313 3.03055 -4.6137 0
M  V30 2680 H 256.79 3.26807 -2.93417 0
M  V30 2681 H 257.396 1.85443 -3.82741 0
M  V30 2682 N 255.711 1.52812 0.385517 0
M  V30 2683 C 256.621 1.80766 1.49535 0
M  V30 2684 C 257.637 0.694651 1.59532 0
M  V30 2685 O 258.813 0.982611 1.75803 0
M  V30 2686 C 255.878 1.97381 2.85029 0
M  V30 2687 C 254.939 3.21295 2.84724 0
M  V30 2688 C 254.172 3.37108 4.13756 0
M  V30 2689 O 254.395 2.5765 5.08893 0
M  V30 2690 O 253.329 4.30378 4.20783 0
M  V30 2691 H 257.155 2.75015 1.28842 0
M  V30 2692 H 254.74 1.37946 0.573697 0
M  V30 2693 H 256.622 2.09996 3.65349 0
M  V30 2694 H 255.297 1.06322 3.05741 0
M  V30 2695 H 254.204 3.1412 2.03174 0
M  V30 2696 H 255.537 4.12212 2.68965 0
M  V30 2697 N 257.189 -0.644168 1.43834 0
M  V30 2698 C 258.417 -1.43147 1.49387 0
M  V30 2699 C 258.832 -1.88452 0.114583 0
M  V30 2700 O 258.189 -1.60047 -0.876989 0
M  V30 2701 C 258.24 -2.66046 2.44748 0
M  V30 2702 O 257.961 -2.22633 3.77314 0
M  V30 2703 C 259.462 -3.59311 2.59635 0
M  V30 2704 H 256.682 -0.439447 0.507077 0
M  V30 2705 H 259.226 -0.78895 1.88669 0
M  V30 2706 H 257.381 -3.26418 2.08638 0
M  V30 2707 H 257.795 -3.02216 4.28679 0
M  V30 2708 H 259.269 -4.42187 3.30416 0
M  V30 2709 H 259.746 -4.07259 1.64427 0
M  V30 2710 H 260.352 -3.04816 2.96593 0
M  V30 2711 N 258.668 -1.30515 -0.883378 0
M  V30 2712 C 259.615 -1.17032 -1.98927 0
M  V30 2713 C 260.585 -0.0594241 -1.65994 0
M  V30 2714 O 261.77 -0.229895 -1.8941 0
M  V30 2715 C 258.91 -0.869777 -3.33959 0
M  V30 2716 C 258.023 -2.06271 -3.79574 0
M  V30 2717 C 257.158 -1.70011 -5.03259 0
M  V30 2718 C 256.197 -2.8579 -5.41286 0
M  V30 2719 N 255.334 -2.49816 -6.56153 0
M  V30 2720 H 260.174 -2.1164 -2.09792 0
M  V30 2721 H 257.711 -1.05296 -1.02719 0
M  V30 2722 H 259.669 -0.676138 -4.11685 0
M  V30 2723 H 258.299 0.0394332 -3.22776 0
M  V30 2724 H 257.351 -2.36755 -2.97744 0
M  V30 2725 H 258.663 -2.92971 -4.03694 0
M  V30 2726 H 257.817 -1.47032 -5.88614 0
M  V30 2727 H 256.556 -0.804829 -4.81013 0
M  V30 2728 H 255.561 -3.09434 -4.54456 0
M  V30 2729 H 256.786 -3.76008 -5.65504 0
M  V30 2730 H 254.732 -1.62795 -6.35479 0
M  V30 2731 H 254.649 -3.30048 -6.8015 0
M  V30 2732 H 255.917 -2.30197 -7.44735 0
M  V30 2733 N 260.146 1.09593 -1.13257 0
M  V30 2734 C 261.395 1.81105 -0.887917 0
M  V30 2735 C 261.708 1.86563 0.587672 0
M  V30 2736 O 262.914 2.54367 0.949204 0
M  V30 2737 C 261.37 3.25338 -1.53895 0
M  V30 2738 C 260.978 3.28151 -3.04994 0
M  V30 2739 C 262.722 4.01617 -1.37492 0
M  V30 2740 C 260.629 4.66897 -3.6299 0
M  V30 2741 H 259.559 0.678661 -0.328534 0
M  V30 2742 H 262.21 1.23183 -1.36008 0
M  V30 2743 H 260.592 3.8331 -0.994446 0
M  V30 2744 H 261.766 2.79953 -3.66009 0
M  V30 2745 H 260.081 2.65361 -3.20893 0
M  V30 2746 H 262.678 5.04119 -1.78235 0
M  V30 2747 H 263.021 4.15072 -0.31957 0
M  V30 2748 H 263.554 3.50082 -1.88912 0
M  V30 2749 H 260.293 4.58643 -4.68323 0
M  V30 2750 H 259.813 5.15426 -3.06752 0
M  V30 2751 H 261.492 5.3587 -3.62563 0
M  V30 2752 N 261.624 0.925811 1.2754 0
M  V30 2753 C 262.554 0.440748 2.29303 0
M  V30 2754 C 263.535 -0.497971 1.62648 0
M  V30 2755 O 264.72 -0.403126 1.8997 0
M  V30 2756 C 261.85 -0.309048 3.45922 0
M  V30 2757 C 260.804 0.54166 4.24559 0
M  V30 2758 C 260.13 -0.337191 5.33636 0
M  V30 2759 C 261.43 1.80516 4.90114 0
M  V30 2760 H 263.124 1.29121 2.70126 0
M  V30 2761 H 260.67 0.622323 1.29858 0
M  V30 2762 H 262.623 -0.659315 4.1621 0
M  V30 2763 H 261.347 -1.19352 3.04011 0
M  V30 2764 H 260.006 0.874609 3.56014 0
M  V30 2765 H 259.654 -1.22056 4.87966 0
M  V30 2766 H 259.354 0.228497 5.87156 0
M  V30 2767 H 260.878 -0.683072 6.06767 0
M  V30 2768 H 262.292 1.52307 5.52698 0
M  V30 2769 H 260.689 2.3142 5.53683 0
M  V30 2770 H 261.759 2.52581 4.13921 0
M  V30 2771 N 263.102 -1.41638 0.69111 0
M  V30 2772 C 264.034 -2.29194 -0.0161523 0
M  V30 2773 C 265.047 -1.44549 -0.748955 0
M  V30 2774 O 266.236 -1.681 -0.6004 0
M  V30 2775 C 263.336 -3.22325 -1.0469 0
M  V30 2776 C 262.509 -4.35706 -0.384621 0
M  V30 2777 C 261.568 -5.09443 -1.31737 0
M  V30 2778 O 260.594 -5.63386 -0.811451 0
M  V30 2779 N 261.796 -5.16487 -2.64993 0
M  V30 2780 H 264.561 -2.90534 0.735523 0
M  V30 2781 H 262.122 -1.52742 0.53679 0
M  V30 2782 H 264.114 -3.68522 -1.67252 0
M  V30 2783 H 262.684 -2.62323 -1.70015 0
M  V30 2784 H 261.904 -3.91948 0.420804 0
M  V30 2785 H 263.192 -5.08743 0.0760765 0
M  V30 2786 H 262.59 -4.741 -3.08619 0
M  V30 2787 H 261.147 -5.66276 -3.22761 0
M  V30 2788 N 264.58 -0.43555 -1.51462 0
M  V30 2789 C 265.49 0.383001 -2.31453 0
M  V30 2790 C 266.506 1.02931 -1.4029 0
M  V30 2791 O 267.682 1.02507 -1.73362 0
M  V30 2792 C 264.747 1.47043 -3.13973 0
M  V30 2793 C 263.808 0.844433 -4.20913 0
M  V30 2794 C 263.041 1.88004 -4.9949 0
M  V30 2795 O 263.264 3.10199 -4.78678 0
M  V30 2796 O 262.198 1.47157 -5.83634 0
M  V30 2797 H 266.024 -0.269964 -3.02498 0
M  V30 2798 H 263.609 -0.19813 -1.4808 0
M  V30 2799 H 265.491 2.10113 -3.65281 0
M  V30 2800 H 264.166 2.10751 -2.45695 0
M  V30 2801 H 263.073 0.175729 -3.73687 0
M  V30 2802 H 264.406 0.250869 -4.9156 0
M  V30 2803 N 266.058 1.56714 -0.166846 0
M  V30 2804 C 267.474 1.58473 0.189372 0
M  V30 2805 C 267.674 1.18201 1.63189 0
M  V30 2806 O 266.73 0.891528 2.36237 0
M  V30 2807 C 268.043 3.00573 -0.0873872 0
M  V30 2808 C 269.591 3.1299 -0.0252443 0
M  V30 2809 C 270.066 4.57174 -0.274934 0
M  V30 2810 N 271.557 4.62665 -0.222553 0
M  V30 2811 C 272.292 5.72072 -0.389985 0
M  V30 2812 N 271.788 6.90054 -0.616229 0
M  V30 2813 N 273.581 5.61153 -0.326202 0
M  V30 2814 H 265.732 1.8118 -1.10849 0
M  V30 2815 H 267.995 0.839525 -0.440342 0
M  V30 2816 H 267.701 3.34497 -1.0865 0
M  V30 2817 H 267.575 3.72019 0.623037 0
M  V30 2818 H 269.962 2.78895 0.96444 0
M  V30 2819 H 270.043 2.43989 -0.768309 0
M  V30 2820 H 269.687 4.91976 -1.26181 0
M  V30 2821 H 269.617 5.24328 0.48869 0
M  V30 2822 H 272.108 3.77863 -0.0531512 0
M  V30 2823 H 272.421 7.69311 -0.733559 0
M  V30 2824 H 270.766 6.91927 -0.652791 0
M  V30 2825 H 273.957 4.67859 -0.150072 0
M  V30 2826 H 274.13 6.46364 -0.460116 0
M  V30 2827 N 267.536 -0.106894 1.57237 0
M  V30 2828 C 268.499 -1.11466 2.0027 0
M  V30 2829 C 269.499 -1.33623 0.894519 0
M  V30 2830 O 270.689 -1.29935 1.16028 0
M  V30 2831 C 267.821 -2.46646 2.35327 0
M  V30 2832 H 269.014 -0.744516 2.90512 0
M  V30 2833 H 266.567 -0.351576 1.52295 0
M  V30 2834 H 267.302 -2.88558 1.48003 0
M  V30 2835 H 267.087 -2.31915 3.16161 0
M  V30 2836 H 268.577 -3.19151 2.69318 0
M  V30 2837 N 269.014 -1.53014 -0.377408 0
M  V30 2838 C 270.26 -1.68872 -1.12294 0
M  V30 2839 C 270.593 -0.433224 -1.89306 0
M  V30 2840 O 269.868 0.569258 -1.85983 0
M  V30 2841 C 270.151 -2.93115 -2.09179 0
M  V30 2842 C 270.004 -4.28794 -1.35853 0
M  V30 2843 C 271.323 -3.12928 -3.09458 0
M  V30 2844 H 268.442 -0.614518 -0.406862 0
M  V30 2845 H 271.084 -1.85633 -0.40503 0
M  V30 2846 H 269.234 -2.78956 -2.70399 0
M  V30 2847 H 270.906 -4.54742 -0.775082 0
M  V30 2848 H 269.149 -4.28744 -0.660364 0
M  V30 2849 H 269.82 -5.11837 -2.06706 0
M  V30 2850 H 272.296 -3.26194 -2.58334 0
M  V30 2851 H 271.172 -4.01316 -3.74482 0
M  V30 2852 H 271.433 -2.27669 -3.78971 0
M  V30 2853 N 270.492 0.636531 -1.44174 0
M  V30 2854 C 271.422 1.76003 -1.53444 0
M  V30 2855 C 272.403 1.65619 -0.387841 0
M  V30 2856 O 273.588 1.84461 -0.607257 0
M  V30 2857 C 270.718 3.14511 -1.4731 0
M  V30 2858 C 269.672 3.39677 -2.60391 0
M  V30 2859 C 268.998 4.78159 -2.39308 0
M  V30 2860 C 270.298 3.32772 -4.02567 0
M  V30 2861 H 271.992 1.68501 -2.47483 0
M  V30 2862 H 269.538 0.809237 -1.19111 0
M  V30 2863 H 271.491 3.92878 -1.52397 0
M  V30 2864 H 270.215 3.22783 -0.49785 0
M  V30 2865 H 268.874 2.63688 -2.54684 0
M  V30 2866 H 268.522 4.83128 -1.39988 0
M  V30 2867 H 268.222 4.95956 -3.15122 0
M  V30 2868 H 269.746 5.58762 -2.46205 0
M  V30 2869 H 271.16 4.01051 -4.09672 0
M  V30 2870 H 269.557 3.62104 -4.7854 0
M  V30 2871 H 270.627 2.30669 -4.2652 0
M  V30 2872 N 271.97 1.30982 0.876444 0
M  V30 2873 C 273.218 1.20058 1.62575 0
M  V30 2874 C 273.539 -0.242947 1.93481 0
M  V30 2875 O 272.809 -1.1619 1.57724 0
M  V30 2876 H 271.389 0.44135 0.602677 0
M  V30 2877 H 274.051 1.64222 1.04962 0
M  V30 2878 H 273.147 1.76762 2.57219 0
M  V30 2879 N 273.449 -1.08991 1.13837 0
M  V30 2880 C 274.412 -2.13925 0.822715 0
M  V30 2881 C 275.412 -1.599 -0.1699 0
M  V30 2882 O 276.602 -1.74104 0.0577251 0
M  V30 2883 C 273.734 -3.40155 0.225318 0
M  V30 2884 H 274.927 -2.43358 1.75262 0
M  V30 2885 H 272.48 -1.24603 0.943594 0
M  V30 2886 H 273.215 -3.16352 -0.713594 0
M  V30 2887 H 273 -3.80661 0.940193 0
M  V30 2888 H 274.49 -4.17594 0.0214784 0
M  V30 2889 N 274.927 -0.932562 -1.27047 0
M  V30 2890 C 275.875 -0.42603 -2.28665 0
M  V30 2891 C 276.869 0.49219 -1.62092 0
M  V30 2892 O 278.075 0.371355 -1.76128 0
M  V30 2893 H 274.45 -0.119213 -0.742491 0
M  V30 2894 H 276.421 -1.29579 -2.68797 0
M  V30 2895 C 275.17 0.301426 -3.46391 0
M  V30 2896 H 274.493 -0.39595 -3.97834 0
M  V30 2897 H 275.933 0.6202 -4.1944 0
M  V30 2898 C 274.392 1.51616 -3.00856 0
M  V30 2899 O 274.922 2.61476 -3.04948 0
M  V30 2900 N 273.128 1.36969 -2.56296 0
M  V30 2901 H 272.675 0.475873 -2.53166 0
M  V30 2902 H 272.633 2.18368 -2.26192 0
M  V30 2903 N 276.405 1.4127 -0.698611 0
M  V30 2904 C 277.682 1.94955 -0.158762 0
M  V30 2905 C 278.062 1.63781 1.33188 0
M  V30 2906 O 277.41 0.946423 2.07979 0
M  V30 2907 C 277.62 3.46044 -0.453309 0
M  V30 2908 C 278.968 4.22872 -0.382707 0
M  V30 2909 O 279.992 3.54076 -0.388396 0
M  V30 2910 O 278.851 5.45407 -0.345463 0
M  V30 2911 H 275.945 0.82683 -0.0167505 0
M  V30 2912 H 278.491 1.50971 -0.77498 0
M  V30 2913 H 277.263 3.62028 -1.48498 0
M  V30 2914 H 276.886 3.97128 0.19373 0
M  V30 2915 N 277.883 0.443576 1.51229 0
M  V30 2916 C 279.294 -0.0180867 1.86691 0
M  V30 2917 C 279.645 -1.41384 1.36033 0
M  V30 2918 O 278.77 -2.04291 0.713722 0
M  V30 2919 C 279.365 -0.039597 3.38777 0
M  V30 2920 C 277.924 -0.445692 3.73752 0
M  V30 2921 C 277.071 0.357584 2.74985 0
M  V30 2922 H 280.022 0.659138 1.44364 0
M  V30 2923 H 280.043 -0.847761 3.70936 0
M  V30 2924 H 279.555 0.976382 3.75617 0
M  V30 2925 H 277.656 -1.46704 3.42503 0
M  V30 2926 H 277.769 -0.166155 4.78812 0
M  V30 2927 H 276.133 -0.184973 2.54027 0
M  V30 2928 H 276.916 1.37256 3.14668 0
M  V30 2929 N 279.361 -1.56624 0.175154 0
M  V30 2930 C 280.271 -2.21741 -0.766042 0
M  V30 2931 C 281.287 -1.21023 -1.25018 0
M  V30 2932 O 282.463 -1.53697 -1.3015 0
M  V30 2933 C 279.528 -2.84839 -1.97655 0
M  V30 2934 C 278.589 -4.00769 -1.53892 0
M  V30 2935 C 277.822 -4.60849 -2.69173 0
M  V30 2936 O 278.045 -4.19823 -3.86141 0
M  V30 2937 O 276.979 -5.50655 -2.43028 0
M  V30 2938 H 280.805 -3.02738 -0.241585 0
M  V30 2939 H 278.39 -1.49305 -0.053222 0
M  V30 2940 H 280.272 -3.24834 -2.68442 0
M  V30 2941 H 278.947 -2.06836 -2.48999 0
M  V30 2942 H 277.854 -3.65436 -0.80044 0
M  V30 2943 H 279.187 -4.80376 -1.07236 0
M  V30 2944 N 280.839 0.0985539 -1.57292 0
M  V30 2945 C 281.786 1.11981 -2.01814 0
M  V30 2946 C 282.756 1.39999 -0.89384 0
M  V30 2947 O 283.941 1.5152 -1.15958 0
M  V30 2948 C 281.081 2.43577 -2.44467 0
M  V30 2949 C 280.194 2.2232 -3.70402 0
M  V30 2950 C 279.329 3.4729 -4.01949 0
M  V30 2951 C 278.368 3.2128 -5.21005 0
M  V30 2952 N 277.505 4.38507 -5.48321 0
M  V30 2953 H 282.345 0.733149 -2.88841 0
M  V30 2954 H 279.882 0.350482 -1.42864 0
M  V30 2955 H 281.84 3.20373 -2.6724 0
M  V30 2956 H 280.47 2.80097 -1.60455 0
M  V30 2957 H 279.522 1.36343 -3.55126 0
M  V30 2958 H 280.834 1.99089 -4.57345 0
M  V30 2959 H 279.988 4.32495 -4.25479 0
M  V30 2960 H 278.727 3.73572 -3.13521 0
M  V30 2961 H 277.732 2.34468 -4.97298 0
M  V30 2962 H 278.957 2.96348 -6.11028 0
M  V30 2963 H 276.903 4.64871 -4.62851 0
M  V30 2964 H 276.82 4.18455 -6.29628 0
M  V30 2965 H 278.088 5.24787 -5.76385 0
M  V30 2966 N 282.317 1.53212 0.369288 0
M  V30 2967 C 283.265 1.80054 1.47253 0
M  V30 2968 C 284.259 0.669456 1.55611 0
M  V30 2969 O 285.465 0.852328 1.58541 0
M  V30 2970 H 281.84 0.570034 0.490475 0
M  V30 2971 H 283.811 2.72403 1.21817 0
M  V30 2972 C 282.56 2.00403 2.84137 0
M  V30 2973 H 281.883 2.86876 2.78464 0
M  V30 2974 H 283.323 2.23164 3.60519 0
M  V30 2975 C 281.782 0.782081 3.27697 0
M  V30 2976 O 282.312 -0.0310205 4.01688 0
M  V30 2977 N 280.518 0.606573 2.84199 0
M  V30 2978 H 280.065 1.26939 2.24152 0
M  V30 2979 H 280.023 -0.20962 3.137 0
M  V30 2980 N 283.795 -0.628877 1.44509 0
M  V30 2981 C 285.042 -1.38839 1.47411 0
M  V30 2982 C 285.37 -1.94202 0.10757 0
M  V30 2983 O 284.625 -1.74243 -0.890947 0
M  V30 2984 C 284.924 -2.56995 2.48371 0
M  V30 2985 C 284.59 -2.19908 3.93639 0
M  V30 2986 C 283.252 -2.09506 4.33198 0
M  V30 2987 C 285.604 -1.9064 4.85083 0
M  V30 2988 C 282.932 -1.68028 5.62124 0
M  V30 2989 C 285.284 -1.50655 6.14399 0
M  V30 2990 C 283.948 -1.38796 6.5291 0
M  V30 2991 H 283.218 -0.508048 0.539414 0
M  V30 2992 H 285.865 -0.712913 1.77735 0
M  V30 2993 H 284.17 -3.29786 2.11538 0
M  V30 2994 H 285.867 -3.15223 2.47861 0
M  V30 2995 H 282.457 -2.28922 3.62343 0
M  V30 2996 H 286.641 -1.97585 4.55273 0
M  V30 2997 H 281.897 -1.57452 5.90778 0
M  V30 2998 H 286.071 -1.27048 6.84713 0
M  V30 2999 H 283.698 -1.06429 7.52713 0
M  V30 3000 N 285.273 -1.31445 -0.869486 0
M  V30 3001 C 286.203 -1.21727 -1.99261 0
M  V30 3002 C 287.184 -0.104359 -1.6978 0
M  V30 3003 O 288.369 -0.289038 -1.92037 0
M  V30 3004 C 285.499 -0.924317 -3.34774 0
M  V30 3005 C 284.453 -1.99685 -3.78563 0
M  V30 3006 C 283.779 -1.55658 -5.11541 0
M  V30 3007 C 285.079 -3.41003 -3.95619 0
M  V30 3008 H 286.773 -2.1569 -2.07649 0
M  V30 3009 H 284.319 -1.03839 -0.997675 0
M  V30 3010 H 286.272 -0.842934 -4.12883 0
M  V30 3011 H 284.996 0.0509793 -3.2656 0
M  V30 3012 H 283.655 -2.06813 -3.02694 0
M  V30 3013 H 283.303 -0.569132 -4.9977 0
M  V30 3014 H 283.003 -2.27409 -5.41811 0
M  V30 3015 H 284.527 -1.48928 -5.92159 0
M  V30 3016 H 285.941 -3.36547 -4.64122 0
M  V30 3017 H 284.338 -4.10975 -4.37286 0
M  V30 3018 H 285.408 -3.81754 -2.98985 0
M  V30 3019 N 286.751 1.08385 -1.14413 0
M  V30 3020 C 287.979 1.84517 -0.936001 0
M  V30 3021 C 288.394 1.81626 0.515503 0
M  V30 3022 O 287.751 1.22008 1.35721 0
M  V30 3023 C 287.802 3.32049 -1.42918 0
M  V30 3024 O 287.523 3.34951 -2.82381 0
M  V30 3025 C 289.024 4.24986 -1.26103 0
M  V30 3026 H 286.244 0.582491 -0.333084 0
M  V30 3027 H 288.788 1.36885 -1.5193 0
M  V30 3028 H 286.943 3.7707 -0.888641 0
M  V30 3029 H 287.357 4.27048 -3.04517 0
M  V30 3030 H 288.831 5.26615 -1.6547 0
M  V30 3031 H 289.308 4.38726 -0.20392 0
M  V30 3032 H 289.914 3.85791 -1.79012 0
M  V30 3033 N 288.23 0.939286 1.26551 0
M  V30 3034 C 289.458 0.602536 1.97932 0
M  V30 3035 C 289.873 -0.82206 1.69964 0
M  V30 3036 O 289.23 -1.54789 0.966784 0
M  V30 3037 C 289.281 0.832946 3.51773 0
M  V30 3038 O 289.002 2.20151 3.78768 0
M  V30 3039 C 290.503 0.506483 4.40397 0
M  V30 3040 H 287.723 0.227248 0.631347 0
M  V30 3041 H 290.267 1.25948 1.61113 0
M  V30 3042 H 288.422 0.222644 3.8676 0
M  V30 3043 H 288.836 2.26013 4.73306 0
M  V30 3044 H 290.31 0.718333 5.47306 0
M  V30 3045 H 290.787 -0.558451 4.35635 0
M  V30 3046 H 291.393 1.09543 4.10951 0
M  V30 3047 N 289.708 -1.40897 0.706093 0
M  V30 3048 C 290.671 -2.29131 0.0562841 0
M  V30 3049 C 291.671 -1.44901 -0.697166 0
M  V30 3050 O 292.861 -1.65926 -0.530484 0
M  V30 3051 C 289.993 -3.27957 -0.93043 0
M  V30 3052 H 291.186 -2.88091 0.833284 0
M  V30 3053 H 288.739 -1.4906 0.470192 0
M  V30 3054 H 289.474 -2.73997 -1.73482 0
M  V30 3055 H 289.259 -3.90124 -0.393166 0
M  V30 3056 H 290.749 -3.94049 -1.38256 0
M  V30 3057 N 291.186 -0.45159 -1.50991 0
M  V30 3058 C 292.435 0.111653 -2.01391 0
M  V30 3059 C 292.748 1.42529 -1.33959 0
M  V30 3060 O 293.954 2.07232 -1.75405 0
M  V30 3061 C 292.41 0.249514 -3.59034 0
M  V30 3062 C 292.018 -1.05453 -4.35412 0
M  V30 3063 C 293.762 0.765762 -4.17536 0
M  V30 3064 C 291.669 -0.881529 -5.84793 0
M  V30 3065 H 290.599 0.0455022 -0.752626 0
M  V30 3066 H 293.25 -0.583524 -1.73975 0
M  V30 3067 H 291.632 1.00803 -3.82955 0
M  V30 3068 H 292.806 -1.82248 -4.23229 0
M  V30 3069 H 291.121 -1.50039 -3.88429 0
M  V30 3070 H 293.718 0.911913 -5.26866 0
M  V30 3071 H 294.061 1.75201 -3.77638 0
M  V30 3072 H 294.594 0.0651744 -3.97747 0
M  V30 3073 H 291.333 -1.84057 -6.29129 0
M  V30 3074 H 290.853 -0.153625 -5.99603 0
M  V30 3075 H 292.532 -0.540363 -6.4474 0
M  V30 3076 N 292.664 1.56529 -0.183458 0
M  V30 3077 C 294.08 1.58664 0.172554 0
M  V30 3078 C 294.28 1.19925 1.61926 0
M  V30 3079 O 293.336 0.916534 2.35278 0
M  V30 3080 C 294.649 3.00463 -0.119262 0
M  V30 3081 C 296.197 3.12945 -0.0584396 0
M  V30 3082 C 296.672 4.56857 -0.323408 0
M  V30 3083 N 298.163 4.62403 -0.271612 0
M  V30 3084 C 298.898 5.71626 -0.450639 0
M  V30 3085 N 298.394 6.89362 -0.689384 0
M  V30 3086 N 300.187 5.60775 -0.385701 0
M  V30 3087 H 292.338 1.79994 -1.12765 0
M  V30 3088 H 294.601 0.834808 -0.449222 0
M  V30 3089 H 294.307 3.33326 -1.12192 0
M  V30 3090 H 294.181 3.72659 0.583544 0
M  V30 3091 H 296.568 2.79902 0.934805 0
M  V30 3092 H 296.649 2.4316 -0.794144 0
M  V30 3093 H 296.293 4.9061 -1.31392 0
M  V30 3094 H 296.223 5.24816 0.43305 0
M  V30 3095 H 298.714 3.77785 -0.0932256 0
M  V30 3096 H 299.027 7.68489 -0.815113 0
M  V30 3097 H 297.372 6.91196 -0.726142 0
M  V30 3098 H 300.563 4.67674 -0.199687 0
M  V30 3099 H 300.736 6.4584 -0.528646 0
M  V30 3100 N 294.142 -0.090211 1.57342 0
M  V30 3101 C 295.553 -0.644173 1.75235 0
M  V30 3102 C 295.904 -1.78865 0.806335 0
M  V30 3103 O 295.029 -2.16395 -0.0140128 0
M  V30 3104 C 295.624 -1.17532 3.1776 0
M  V30 3105 C 294.183 -1.67531 3.37061 0
M  V30 3106 C 293.33 -0.58693 2.71017 0
M  V30 3107 H 296.281 0.135884 1.58117 0
M  V30 3108 H 296.302 -2.04455 3.20902 0
M  V30 3109 H 295.814 -0.342138 3.86589 0
M  V30 3110 H 293.915 -2.53234 2.73319 0
M  V30 3111 H 294.028 -1.76493 4.45406 0
M  V30 3112 H 292.392 -1.02756 2.33052 0
M  V30 3113 H 293.175 0.235758 3.4249 0
M  V30 3114 N 295.62 -1.53406 -0.361157 0
M  V30 3115 C 296.57 -1.76536 -1.44287 0
M  V30 3116 C 297.554 -0.620019 -1.48474 0
M  V30 3117 O 298.746 -0.878834 -1.53641 0
M  V30 3118 C 295.875 -1.96266 -2.81664 0
M  V30 3119 C 294.961 -3.16815 -2.81938 0
M  V30 3120 N 295.352 -4.38637 -2.51855 0
M  V30 3121 C 293.65 -3.17627 -3.13096 0
M  V30 3122 C 294.351 -5.20401 -2.59919 0
M  V30 3123 N 293.327 -4.56712 -2.94814 0
M  V30 3124 H 297.129 -2.68331 -1.19899 0
M  V30 3125 H 294.643 -1.52091 -0.56938 0
M  V30 3126 H 296.64 -2.10966 -3.59582 0
M  V30 3127 H 295.3 -1.05702 -3.07013 0
M  V30 3128 H 296.311 -4.66293 -2.25369 0
M  V30 3129 H 292.988 -2.36971 -3.43731 0
M  V30 3130 H 294.378 -6.27586 -2.39969 0
M  V30 3131 N 297.098 0.621204 -1.44841 0
M  V30 3132 C 298.346 1.37783 -1.47852 0
M  V30 3133 C 298.667 1.94653 -0.116224 0
M  V30 3134 O 297.937 1.76367 0.852737 0
M  V30 3135 H 296.517 0.511453 -0.544449 0
M  V30 3136 H 299.179 0.730446 -1.80694 0
M  V30 3137 H 298.275 2.20414 -2.20961 0
M  V30 3138 N 298.576 1.31904 0.862503 0
M  V30 3139 C 299.825 1.21373 1.61094 0
M  V30 3140 C 300.138 -0.22504 1.94301 0
M  V30 3141 O 301.344 -0.452121 2.67709 0
M  V30 3142 C 299.8 2.12525 2.9045 0
M  V30 3143 C 299.408 3.61441 2.64697 0
M  V30 3144 C 301.152 2.10813 3.68454 0
M  V30 3145 C 299.059 4.44578 3.90006 0
M  V30 3146 H 297.989 0.450705 0.604468 0
M  V30 3147 H 300.64 1.56811 0.953027 0
M  V30 3148 H 299.022 1.69994 3.57656 0
M  V30 3149 H 300.196 4.12264 2.05851 0
M  V30 3150 H 298.511 3.65205 2.00036 0
M  V30 3151 H 301.108 2.70167 4.61426 0
M  V30 3152 H 301.451 1.09713 4.01583 0
M  V30 3153 H 301.984 2.51583 3.08141 0
M  V30 3154 H 298.723 5.46461 3.62023 0
M  V30 3155 H 298.243 3.98508 4.48276 0
M  V30 3156 H 299.922 4.57176 4.5782 0
M  V30 3157 N 300.054 -1.07777 1.14986 0
M  V30 3158 C 301.301 -1.8029 0.922056 0
M  V30 3159 C 301.629 -1.86531 -0.55105 0
M  V30 3160 O 300.884 -1.34189 -1.42449 0
M  V30 3161 C 301.183 -3.25495 1.47608 0
M  V30 3162 C 300.849 -3.39361 2.96893 0
M  V30 3163 C 299.511 -3.42852 3.37647 0
M  V30 3164 C 301.863 -3.42512 3.92854 0
M  V30 3165 C 299.191 -3.47094 4.73015 0
M  V30 3166 C 301.543 -3.4829 5.28088 0
M  V30 3167 C 300.207 -3.50058 5.68345 0
M  V30 3168 H 299.477 -0.659727 0.337404 0
M  V30 3169 H 302.124 -1.26854 1.43459 0
M  V30 3170 H 300.429 -3.81683 0.88463 0
M  V30 3171 H 302.126 -3.80168 1.27568 0
M  V30 3172 H 298.716 -3.37339 2.64387 0
M  V30 3173 H 302.9 -3.3904 3.62444 0
M  V30 3174 H 298.156 -3.46758 5.03556 0
M  V30 3175 H 302.33 -3.49675 6.02246 0
M  V30 3176 H 299.957 -3.53097 6.73221 0
M  V30 3177 N 301.532 -0.945985 -1.26051 0
M  V30 3178 C 302.78 -0.594941 -1.93145 0
M  V30 3179 C 303.101 0.86953 -1.7454 0
M  V30 3180 O 302.371 1.61838 -1.10387 0
M  V30 3181 H 300.951 -0.217044 -0.714773 0
M  V30 3182 H 303.613 -1.20235 -1.53393 0
M  V30 3183 H 302.709 -0.816835 -3.01221 0
M  V30 3184 N 303.011 1.40521 -0.713556 0
M  V30 3185 C 304.422 1.83853 -0.324807 0
M  V30 3186 C 304.773 1.59667 1.14021 0
M  V30 3187 O 303.898 1.07649 1.87725 0
M  V30 3188 C 304.493 3.33751 -0.582746 0
M  V30 3189 C 303.052 3.75584 -0.247727 0
M  V30 3190 C 302.199 2.63753 -0.856121 0
M  V30 3191 H 305.15 1.29817 -0.91286 0
M  V30 3192 H 305.171 3.80194 0.152682 0
M  V30 3193 H 304.683 3.51322 -1.64908 0
M  V30 3194 H 302.784 3.63608 0.813624 0
M  V30 3195 H 302.897 4.7373 -0.715307 0
M  V30 3196 H 301.261 2.53108 -0.28432 0
M  V30 3197 H 302.044 2.84137 -1.92668 0
M  V30 3198 N 304.489 0.459591 1.5075 0
M  V30 3199 C 305.905 0.113092 1.59199 0
M  V30 3200 C 306.105 -1.37951 1.46874 0
M  V30 3201 O 305.161 -2.15168 1.32132 0
M  V30 3202 C 306.474 0.653043 2.93523 0
M  V30 3203 C 308.022 0.615449 3.0689 0
M  V30 3204 C 308.497 1.13275 4.43771 0
M  V30 3205 N 309.988 1.09167 4.50152 0
M  V30 3206 C 310.723 1.46256 5.54434 0
M  V30 3207 N 310.219 1.90739 6.66026 0
M  V30 3208 N 312.012 1.37932 5.44914 0
M  V30 3209 H 304.163 1.43049 1.57005 0
M  V30 3210 H 306.426 0.590861 0.741341 0
M  V30 3211 H 306.132 1.69822 3.07983 0
M  V30 3212 H 306.006 0.0902132 3.77092 0
M  V30 3213 H 308.393 -0.420793 2.92084 0
M  V30 3214 H 308.474 1.21495 2.25106 0
M  V30 3215 H 308.118 2.16757 4.59324 0
M  V30 3216 H 308.048 0.509576 5.24129 0
M  V30 3217 H 310.539 0.76528 3.7007 0
M  V30 3218 H 310.852 2.17218 7.41644 0
M  V30 3219 H 309.197 1.94683 6.67176 0
M  V30 3220 H 312.388 1.0303 4.56621 0
M  V30 3221 H 312.561 1.67164 6.26067 0
M  V30 3222 N 305.967 -1.56429 0.191757 0
M  V30 3223 C 307.244 -1.89224 -0.495332 0
M  V30 3224 C 307.624 -1.10478 -1.79883 0
M  V30 3225 O 306.972 -0.204852 -2.2758 0
M  V30 3226 C 307.182 -3.41548 -0.717367 0
M  V30 3227 C 308.53 -4.11711 -1.03823 0
M  V30 3228 O 309.554 -3.4698 -0.805204 0
M  V30 3229 O 308.413 -5.2611 -1.47887 0
M  V30 3230 H 305.507 -0.785788 -0.25781 0
M  V30 3231 H 308.053 -1.68111 0.231721 0
M  V30 3232 H 306.825 -3.90772 0.203287 0
M  V30 3233 H 306.448 -3.68342 -1.497 0
M  V30 3234 N 307.445 0.0818655 -1.57387 0
M  V30 3235 C 308.856 0.634871 -1.75574 0
M  V30 3236 C 309.207 1.78435 -0.815809 0
M  V30 3237 O 308.332 2.164 0.0025366 0
M  V30 3238 C 308.927 1.15845 -3.18379 0
M  V30 3239 C 307.486 1.65741 -3.37945 0
M  V30 3240 C 306.633 0.572549 -2.71325 0
M  V30 3241 H 309.584 -0.144268 -1.58043 0
M  V30 3242 H 309.605 2.02751 -3.21982 0
M  V30 3243 H 309.117 0.321631 -3.86765 0
M  V30 3244 H 307.218 2.51781 -2.74658 0
M  V30 3245 H 307.331 1.74129 -4.46336 0
M  V30 3246 H 305.695 1.01518 -2.33594 0
M  V30 3247 H 306.478 -0.253918 -3.4236 0
M  V30 3248 N 308.923 1.53595 0.353017 0
M  V30 3249 C 309.855 1.77219 1.45348 0
M  V30 3250 C 310.868 0.65324 1.49119 0
M  V30 3251 O 312.057 0.929775 1.52373 0
M  V30 3252 C 309.157 1.84841 2.84055 0
M  V30 3253 C 308.33 3.14649 3.03833 0
M  V30 3254 C 307.389 3.13351 4.22727 0
M  V30 3255 O 306.415 3.87107 4.17297 0
M  V30 3256 N 307.617 2.35052 5.30783 0
M  V30 3257 H 310.382 2.72178 1.25457 0
M  V30 3258 H 307.943 1.52528 0.542833 0
M  V30 3259 H 309.935 1.81435 3.61751 0
M  V30 3260 H 308.505 0.971114 2.97133 0
M  V30 3261 H 307.725 3.31256 2.13689 0
M  V30 3262 H 309.013 4.00411 3.13925 0
M  V30 3263 H 308.411 1.74663 5.38061 0
M  V30 3264 H 306.968 2.37453 6.07009 0
M  V30 3265 N 310.401 -0.613514 1.45168 0
M  V30 3266 C 311.331 -1.7354 1.56225 0
M  V30 3267 C 312.312 -1.64981 0.41414 0
M  V30 3268 O 313.497 -1.83472 0.636526 0
M  V30 3269 C 310.627 -3.12128 1.52295 0
M  V30 3270 C 309.581 -3.35491 2.65762 0
M  V30 3271 C 308.907 -4.74291 2.46885 0
M  V30 3272 C 310.207 -3.26325 4.0781 0
M  V30 3273 H 311.901 -1.64543 2.50132 0
M  V30 3274 H 309.447 -0.790185 1.20383 0
M  V30 3275 H 311.4 -3.90404 1.58628 0
M  V30 3276 H 310.124 -3.2195 0.549139 0
M  V30 3277 H 308.783 -2.59603 2.58847 0
M  V30 3278 H 308.431 -4.80839 1.47657 0
M  V30 3279 H 308.131 -4.9088 3.22972 0
M  V30 3280 H 309.655 -5.54775 2.55063 0
M  V30 3281 H 311.069 -3.94483 4.16 0
M  V30 3282 H 309.466 -3.54445 4.8424 0
M  V30 3283 H 310.536 -2.23855 4.30136 0
M  V30 3284 N 311.879 -1.3236 -0.855495 0
M  V30 3285 C 313.125 -1.23054 -1.612 0
M  V30 3286 C 313.458 0.207404 -1.93089 0
M  V30 3287 O 312.733 1.14432 -1.57275 0
M  V30 3288 C 313.016 -2.08937 -2.93287 0
M  V30 3289 C 312.869 -3.61105 -2.68185 0
M  V30 3290 C 314.188 -1.94986 -3.94549 0
M  V30 3291 H 311.307 -0.448364 -0.584926 0
M  V30 3292 H 313.949 -1.62297 -0.987917 0
M  V30 3293 H 312.099 -1.75599 -3.46551 0
M  V30 3294 H 313.771 -4.04652 -2.21483 0
M  V30 3295 H 312.014 -3.83813 -2.02164 0
M  V30 3296 H 312.685 -4.16522 -3.62234 0
M  V30 3297 H 315.161 -2.24189 -3.5054 0
M  V30 3298 H 314.037 -2.57356 -4.84829 0
M  V30 3299 H 314.298 -0.917263 -4.3248 0
M  V30 3300 N 313.357 1.07166 -1.15556 0
M  V30 3301 C 314.768 1.6127 -0.940693 0
M  V30 3302 C 315.119 1.89251 0.517551 0
M  V30 3303 O 314.244 1.65937 1.38903 0
M  V30 3304 C 314.839 2.92993 -1.7012 0
M  V30 3305 C 313.398 3.43832 -1.53156 0
M  V30 3306 C 312.545 2.1786 -1.71558 0
M  V30 3307 H 315.496 0.90229 -1.30554 0
M  V30 3308 H 315.517 3.62007 -1.17181 0
M  V30 3309 H 315.029 2.72596 -2.76248 0
M  V30 3310 H 313.13 3.69307 -0.494294 0
M  V30 3311 H 313.243 4.19747 -2.30975 0
M  V30 3312 H 311.607 2.2765 -1.14225 0
M  V30 3313 H 312.39 1.99956 -2.79056 0
M  V30 3314 N 314.835 0.952656 1.25548 0
M  V30 3315 C 316.084 0.602053 1.92505 0
M  V30 3316 C 316.397 -0.864663 1.75451 0
M  V30 3317 O 317.603 -1.32514 2.36965 0
M  V30 3318 C 316.059 1.02607 3.44963 0
M  V30 3319 C 315.667 2.51519 3.70732 0
M  V30 3320 C 317.411 0.747905 4.1786 0
M  V30 3321 C 315.318 2.87732 5.16686 0
M  V30 3322 H 314.248 0.22146 0.720744 0
M  V30 3323 H 316.899 1.15684 1.42441 0
M  V30 3324 H 315.281 0.399712 3.93978 0
M  V30 3325 H 316.455 3.19157 3.32378 0
M  V30 3326 H 314.77 2.76786 3.11092 0
M  V30 3327 H 317.367 0.994647 5.25367 0
M  V30 3328 H 317.71 -0.315629 4.15102 0
M  V30 3329 H 318.243 1.33452 3.74747 0
M  V30 3330 H 314.982 3.93095 5.24554 0
M  V30 3331 H 314.502 2.24765 5.56094 0
M  V30 3332 H 316.181 2.76817 5.84792 0
M  V30 3333 N 316.313 -1.40141 0.720998 0
M  V30 3334 C 317.243 -2.33339 0.0867621 0
M  V30 3335 C 318.224 -1.53178 -0.739622 0
M  V30 3336 O 319.409 -1.81625 -0.687449 0
M  V30 3337 C 316.539 -3.37194 -0.831728 0
M  V30 3338 C 315.493 -4.27857 -0.110558 0
M  V30 3339 C 314.819 -5.22294 -1.14513 0
M  V30 3340 C 316.119 -5.11872 1.0385 0
M  V30 3341 H 317.813 -2.86626 0.865219 0
M  V30 3342 H 315.359 -1.37814 0.417516 0
M  V30 3343 H 317.312 -4.01335 -1.28485 0
M  V30 3344 H 316.036 -2.82314 -1.64214 0
M  V30 3345 H 314.695 -3.65176 0.322797 0
M  V30 3346 H 314.343 -4.63717 -1.94874 0
M  V30 3347 H 314.043 -5.83797 -0.667446 0
M  V30 3348 H 315.567 -5.89312 -1.59824 0
M  V30 3349 H 316.981 -5.69436 0.664482 0
M  V30 3350 H 315.378 -5.82445 1.4449 0
M  V30 3351 H 316.448 -4.4753 1.86668 0
M  V30 3352 N 317.792 -0.46758 -1.50504 0
M  V30 3353 C 319.041 0.0902868 -2.01498 0
M  V30 3354 C 319.354 1.411 -1.35463 0
M  V30 3355 O 320.56 2.0536 -1.77594 0
M  V30 3356 C 319.016 0.21142 -3.59278 0
M  V30 3357 C 318.624 -1.10065 -4.34269 0
M  V30 3358 C 320.368 0.721433 -4.18325 0
M  V30 3359 C 318.275 -0.943505 -5.83825 0
M  V30 3360 H 317.205 0.037517 -0.753066 0
M  V30 3361 H 319.856 -0.601943 -1.73346 0
M  V30 3362 H 318.238 0.967352 -3.84003 0
M  V30 3363 H 319.412 -1.86726 -4.21272 0
M  V30 3364 H 317.727 -1.5415 -3.86816 0
M  V30 3365 H 320.324 0.85598 -5.27804 0
M  V30 3366 H 320.667 1.71186 -3.79475 0
M  V30 3367 H 321.2 0.0229843 -3.97793 0
M  V30 3368 H 317.939 -1.90719 -6.27141 0
M  V30 3369 H 317.459 -0.217213 -5.99407 0
M  V30 3370 H 319.138 -0.608715 -6.4413 0
M  V30 3371 N 319.27 1.56325 -0.20005 0
M  V30 3372 C 320.18 2.22931 0.730668 0
M  V30 3373 C 321.196 1.22997 1.23076 0
M  V30 3374 O 322.372 1.55748 1.27689 0
M  V30 3375 C 319.437 2.87948 1.93098 0
M  V30 3376 C 318.498 4.03166 1.47497 0
M  V30 3377 C 317.731 4.65073 2.61807 0
M  V30 3378 O 317.954 4.25913 3.79413 0
M  V30 3379 O 316.888 5.54452 2.34237 0
M  V30 3380 H 320.714 3.03084 0.193391 0
M  V30 3381 H 318.299 1.49371 0.0294621 0
M  V30 3382 H 320.181 3.29063 2.6324 0
M  V30 3383 H 318.856 2.10771 2.45677 0
M  V30 3384 H 317.763 3.66664 0.742201 0
M  V30 3385 H 319.096 4.82022 0.995796 0
M  V30 3386 N 320.748 -0.0735177 1.57428 0
M  V30 3387 C 321.711 -1.07192 2.02589 0
M  V30 3388 C 322.711 -1.31695 0.922661 0
M  V30 3389 O 323.901 -1.27445 1.18758 0
M  V30 3390 C 321.033 -2.41599 2.40506 0
M  V30 3391 H 322.226 -0.682727 2.92025 0
M  V30 3392 H 319.779 -0.319193 1.53006 0
M  V30 3393 H 320.514 -2.85354 1.5409 0
M  V30 3394 H 320.299 -2.25156 3.21009 0
M  V30 3395 H 321.789 -3.13367 2.76027 0
M  V30 3396 N 322.226 -1.5378 -0.344866 0
M  V30 3397 C 323.189 -1.80981 -1.40637 0
M  V30 3398 C 324.189 -0.680816 -1.45676 0
M  V30 3399 O 325.379 -0.949095 -1.46075 0
M  V30 3400 C 322.511 -1.95063 -2.79577 0
M  V30 3401 H 323.704 -2.75803 -1.17783 0
M  V30 3402 H 321.257 -1.45173 -0.579181 0
M  V30 3403 H 321.992 -1.02379 -3.07716 0
M  V30 3404 H 321.777 -2.77198 -2.77315 0
M  V30 3405 H 323.267 -2.17629 -3.56409 0
M  V30 3406 N 323.704 0.605807 -1.45491 0
M  V30 3407 C 325.12 0.926751 -1.29936 0
M  V30 3408 C 325.32 1.99896 -0.253706 0
M  V30 3409 O 324.376 2.50038 0.351737 0
M  V30 3410 C 325.689 1.36599 -2.67883 0
M  V30 3411 C 327.237 1.4801 -2.75793 0
M  V30 3412 C 327.712 1.95309 -4.14268 0
M  V30 3413 N 329.203 2.0254 -4.16571 0
M  V30 3414 C 329.938 2.40363 -5.20589 0
M  V30 3415 N 329.434 2.77143 -6.34952 0
M  V30 3416 N 331.227 2.40718 -5.07948 0
M  V30 3417 H 323.378 -0.102862 -2.12151 0
M  V30 3418 H 325.641 0.016639 -0.947854 0
M  V30 3419 H 325.347 0.652306 -3.45598 0
M  V30 3420 H 325.221 2.33215 -2.96463 0
M  V30 3421 H 327.608 2.1847 -1.98381 0
M  V30 3422 H 327.689 0.497041 -2.50925 0
M  V30 3423 H 327.333 1.25436 -4.92167 0
M  V30 3424 H 327.263 2.94532 -4.3653 0
M  V30 3425 H 329.754 1.76699 -3.34045 0
M  V30 3426 H 330.067 3.0489 -7.10114 0
M  V30 3427 H 328.412 2.74834 -6.3835 0
M  V30 3428 H 331.603 2.11392 -4.1765 0
M  V30 3429 H 331.776 2.69869 -5.89131 0
M  V30 3430 N 325.182 1.32811 0.848464 0
M  V30 3431 C 326.13 1.22231 1.97895 0
M  V30 3432 C 327.124 0.125749 1.68933 0
M  V30 3433 O 328.33 0.289083 1.77663 0
M  V30 3434 H 324.705 0.379058 0.649476 0
M  V30 3435 H 326.676 2.17828 2.03945 0
M  V30 3436 C 325.425 0.968572 3.33937 0
M  V30 3437 H 324.748 1.80458 3.56756 0
M  V30 3438 H 326.188 0.934808 4.13567 0
M  V30 3439 C 324.647 -0.328628 3.35293 0
M  V30 3440 O 325.177 -1.33848 3.78745 0
M  V30 3441 N 323.383 -0.352788 2.88451 0
M  V30 3442 H 322.93 0.469541 2.53285 0
M  V30 3443 H 322.888 -1.22057 2.89741 0
M  V30 3444 N 326.66 -1.06551 1.16123 0
M  V30 3445 C 327.908 -1.78947 0.939267 0
M  V30 3446 C 328.229 -1.87532 -0.534476 0
M  V30 3447 O 327.499 -1.38211 -1.38833 0
M  V30 3448 H 326.079 -0.662807 0.344523 0
M  V30 3449 H 328.741 -1.28725 1.46342 0
M  V30 3450 H 327.837 -2.81117 1.35572 0
M  V30 3451 N 328.138 -0.959301 -1.25041 0
M  V30 3452 C 329.085 -0.482057 -2.2571 0
M  V30 3453 C 330.055 0.467939 -1.59372 0
M  V30 3454 O 331.24 0.380159 -1.86974 0
M  V30 3455 C 328.38 0.229623 -3.44335 0
M  V30 3456 C 327.493 -0.758156 -4.25295 0
M  V30 3457 C 326.628 -0.0234403 -5.31195 0
M  V30 3458 C 325.667 -1.00184 -6.03846 0
M  V30 3459 N 324.804 -0.29769 -7.01469 0
M  V30 3460 H 329.644 -1.34538 -2.65901 0
M  V30 3461 H 327.181 -0.674592 -1.3072 0
M  V30 3462 H 329.139 0.658856 -4.11965 0
M  V30 3463 H 327.769 1.05696 -3.05005 0
M  V30 3464 H 326.821 -1.30586 -3.57284 0
M  V30 3465 H 328.133 -1.50458 -4.75567 0
M  V30 3466 H 327.287 0.464201 -6.04922 0
M  V30 3467 H 326.026 0.755741 -4.81809 0
M  V30 3468 H 325.031 -1.50044 -5.2893 0
M  V30 3469 H 326.256 -1.78133 -6.55321 0
M  V30 3470 H 324.202 0.462668 -6.54366 0
M  V30 3471 H 324.119 -0.983128 -7.4958 0
M  V30 3472 H 325.387 0.16826 -7.79318 0
M  V30 3473 N 329.616 1.39756 -0.72842 0
M  V30 3474 C 330.549 2.28176 -0.0330172 0
M  V30 3475 C 331.527 1.44035 0.754501 0
M  V30 3476 O 332.711 1.73434 0.738445 0
M  V30 3477 C 329.838 3.24795 0.960504 0
M  V30 3478 C 328.884 4.25693 0.262264 0
M  V30 3479 S 329.717 5.25714 -1.01906 0
M  V30 3480 C 330.873 6.25894 -0.0279717 0
M  V30 3481 H 331.106 2.86807 -0.78287 0
M  V30 3482 H 328.639 1.45382 -0.519951 0
M  V30 3483 H 330.597 3.80983 1.52846 0
M  V30 3484 H 329.258 2.65196 1.68315 0
M  V30 3485 H 328.451 4.93699 1.01379 0
M  V30 3486 H 328.053 3.7327 -0.233482 0
M  V30 3487 H 330.345 6.72585 0.814621 0
M  V30 3488 H 331.288 7.04876 -0.67499 0
M  V30 3489 H 331.696 5.63466 0.341489 0
M  V30 3490 N 331.094 0.475555 1.50254 0
M  V30 3491 C 332.041 -0.316293 2.28622 0
M  V30 3492 C 333.011 -0.983227 1.33873 0
M  V30 3493 O 334.196 -0.994805 1.62814 0
M  V30 3494 C 331.336 -1.38975 3.1588 0
M  V30 3495 C 330.449 -0.737146 4.25664 0
M  V30 3496 C 329.584 -1.78887 5.00173 0
M  V30 3497 C 328.623 -1.11676 6.01826 0
M  V30 3498 N 327.76 -2.11154 6.69596 0
M  V30 3499 H 332.6 0.358297 2.95838 0
M  V30 3500 H 330.137 0.188541 1.45887 0
M  V30 3501 H 332.095 -2.02383 3.64825 0
M  V30 3502 H 330.725 -2.03344 2.50701 0
M  V30 3503 H 329.777 0.0096065 3.80399 0
M  V30 3504 H 331.089 -0.206816 4.98371 0
M  V30 3505 H 330.243 -2.49865 5.52859 0
M  V30 3506 H 328.982 -2.35302 4.27182 0
M  V30 3507 H 327.987 -0.392633 5.48396 0
M  V30 3508 H 329.212 -0.55945 6.76792 0
M  V30 3509 H 327.158 -2.66577 5.99394 0
M  V30 3510 H 327.075 -1.63118 7.38193 0
M  V30 3511 H 328.343 -2.81497 7.26897 0
M  V30 3512 N 332.573 -1.56217 0.208337 0
M  V30 3513 C 333.82 -1.97949 -0.42692 0
M  V30 3514 C 334.148 -1.09562 -1.60706 0
M  V30 3515 O 333.403 -0.137616 -1.95216 0
M  V30 3516 C 333.702 -3.45441 -0.916797 0
M  V30 3517 C 333.368 -4.50646 0.151391 0
M  V30 3518 C 332.03 -4.79139 0.444867 0
M  V30 3519 C 334.382 -5.13811 0.874492 0
M  V30 3520 C 331.71 -5.68084 1.46619 0
M  V30 3521 C 334.062 -6.03861 1.88506 0
M  V30 3522 C 332.726 -6.30704 2.18559 0
M  V30 3523 H 331.996 -0.724345 -0.156221 0
M  V30 3524 H 334.643 -1.89006 0.308084 0
M  V30 3525 H 332.948 -3.51521 -1.73032 0
M  V30 3526 H 334.645 -3.75094 -1.41794 0
M  V30 3527 H 331.235 -4.28511 -0.0875068 0
M  V30 3528 H 335.419 -4.91879 0.660996 0
M  V30 3529 H 330.675 -5.87151 1.7048 0
M  V30 3530 H 334.849 -6.51861 2.45051 0
M  V30 3531 H 332.476 -6.99424 2.97843 0
M  V30 3532 N 334.051 0.0651679 -1.57465 0
M  V30 3533 C 335.297 0.764193 -1.87851 0
M  V30 3534 C 335.63 1.76889 -0.801495 0
M  V30 3535 O 334.905 1.93594 0.187528 0
M  V30 3536 C 335.188 1.46625 -3.28897 0
M  V30 3537 C 335.041 0.477515 -4.47258 0
M  V30 3538 C 336.36 2.4095 -3.68281 0
M  V30 3539 H 333.479 0.276351 -0.683227 0
M  V30 3540 H 336.121 0.0272868 -1.8998 0
M  V30 3541 H 334.271 2.09438 -3.27212 0
M  V30 3542 H 335.943 -0.145922 -4.61069 0
M  V30 3543 H 334.186 -0.206576 -4.33308 0
M  V30 3544 H 334.857 1.0065 -5.42746 0
M  V30 3545 H 337.333 1.88209 -3.71102 0
M  V30 3546 H 336.209 2.87072 -4.67847 0
M  V30 3547 H 336.47 3.26049 -2.98571 0
M  V30 3548 N 335.529 1.53961 0.336706 0
M  V30 3549 C 336.778 1.70751 1.07363 0
M  V30 3550 C 337.091 0.481061 1.89592 0
M  V30 3551 O 338.297 0.530046 2.66276 0
M  V30 3552 C 336.753 3.01965 1.95818 0
M  V30 3553 C 336.361 4.31971 1.18764 0
M  V30 3554 C 338.105 3.28121 2.69327 0
M  V30 3555 C 336.012 5.54255 2.06289 0
M  V30 3556 H 334.942 0.636292 0.404535 0
M  V30 3557 H 337.593 1.80459 0.332681 0
M  V30 3558 H 335.975 2.86132 2.7376 0
M  V30 3559 H 337.149 4.5853 0.456849 0
M  V30 3560 H 335.464 4.12481 0.569946 0
M  V30 3561 H 338.061 4.16673 3.35094 0
M  V30 3562 H 338.404 2.45426 3.36261 0
M  V30 3563 H 338.937 3.44762 1.98454 0
M  V30 3564 H 335.676 6.39513 1.43885 0
M  V30 3565 H 335.196 5.31935 2.77138 0
M  V30 3566 H 336.875 5.90159 2.65182 0
M  V30 3567 N 337.007 -0.598083 1.45811 0
M  V30 3568 C 338.255 -1.35413 1.50026 0
M  V30 3569 C 338.576 -1.94444 0.147177 0
M  V30 3570 O 337.846 -1.77701 -0.824571 0
M  V30 3571 H 336.426 -0.502727 0.552517 0
M  V30 3572 H 339.088 -0.701606 1.81834 0
M  V30 3573 H 338.184 -2.16871 2.2444 0
M  V30 3574 N 338.485 -1.33259 -0.841409 0
M  V30 3575 C 339.433 -1.23279 -1.97244 0
M  V30 3576 C 340.427 -0.134706 -1.68864 0
M  V30 3577 O 341.633 -0.298501 -1.77508 0
M  V30 3578 H 338.008 -0.382497 -0.647457 0
M  V30 3579 H 339.979 -2.18906 -2.02787 0
M  V30 3580 C 338.728 -0.986268 -3.33419 0
M  V30 3581 H 338.051 -1.82347 -3.55794 0
M  V30 3582 H 339.491 -0.956728 -4.13065 0
M  V30 3583 C 337.95 0.310842 -3.35463 0
M  V30 3584 O 338.48 1.31838 -3.79449 0
M  V30 3585 N 336.686 0.337485 -2.88634 0
M  V30 3586 H 336.233 -0.482967 -2.53032 0
M  V30 3587 H 336.191 1.20518 -2.90384 0
M  V30 3588 N 339.963 1.05934 -1.16686 0
M  V30 3589 C 341.211 1.78447 -0.948744 0
M  V30 3590 C 341.532 1.87813 0.524523 0
M  V30 3591 O 340.802 1.38945 1.38098 0
M  V30 3592 H 339.382 0.660971 -0.348033 0
M  V30 3593 H 342.044 1.27947 -1.47022 0
M  V30 3594 H 341.14 2.80394 -1.37061 0
M  V30 3595 N 341.441 0.965919 1.2453 0
M  V30 3596 C 342.388 0.49402 2.25451 0
M  V30 3597 C 343.358 -0.45948 1.59618 0
M  V30 3598 O 344.543 -0.370238 1.87173 0
M  V30 3599 C 341.683 -0.211359 3.44452 0
M  V30 3600 C 340.796 0.7807 4.24887 0
M  V30 3601 C 339.931 0.0516105 5.31175 0
M  V30 3602 C 338.97 1.03385 6.03306 0
M  V30 3603 N 338.107 0.334887 7.01301 0
M  V30 3604 H 342.947 1.35946 2.65184 0
M  V30 3605 H 340.484 0.681515 1.3036 0
M  V30 3606 H 342.442 -0.637 4.12308 0
M  V30 3607 H 341.072 -1.04077 3.05562 0
M  V30 3608 H 340.124 1.32479 3.56586 0
M  V30 3609 H 341.436 1.52978 4.74762 0
M  V30 3610 H 340.59 -0.432114 6.05159 0
M  V30 3611 H 339.329 -0.730179 4.82203 0
M  V30 3612 H 338.334 1.52847 5.28127 0
M  V30 3613 H 339.559 1.81606 6.54367 0
M  V30 3614 H 337.505 -0.427959 6.54603 0
M  V30 3615 H 337.422 1.02287 7.49048 0
M  V30 3616 H 338.69 -0.126928 7.79397 0
M  V30 3617 N 342.919 -1.39368 0.735821 0
M  V30 3618 C 343.867 -2.32443 0.0855131 0
M  V30 3619 C 344.861 -1.53104 -0.724954 0
M  V30 3620 O 346.067 -1.68762 -0.626047 0
M  V30 3621 H 342.442 -0.751948 0.00885257 0
M  V30 3622 H 344.413 -2.84916 0.886883 0
M  V30 3623 C 343.162 -3.38206 -0.806983 0
M  V30 3624 H 342.485 -3.99335 -0.19274 0
M  V30 3625 H 343.925 -4.05779 -1.2296 0
M  V30 3626 C 342.384 -2.75321 -1.94165 0
M  V30 3627 O 342.914 -2.63231 -3.03435 0
M  V30 3628 N 341.12 -2.33396 -1.73132 0
M  V30 3629 H 340.667 -2.4343 -0.842596 0
M  V30 3630 H 340.625 -1.91661 -2.49225 0
M  V30 3631 N 344.397 -0.483516 -1.5 0
M  V30 3632 C 345.327 0.293829 -2.31644 0
M  V30 3633 C 346.308 0.978864 -1.39112 0
M  V30 3634 O 347.493 0.973644 -1.68029 0
M  V30 3635 C 344.623 1.36897 -3.19181 0
M  V30 3636 C 343.577 0.804833 -4.20365 0
M  V30 3637 C 342.903 1.9792 -4.96721 0
M  V30 3638 C 344.203 -0.192313 -5.21946 0
M  V30 3639 H 345.897 -0.387616 -2.9688 0
M  V30 3640 H 343.443 -0.187856 -1.42769 0
M  V30 3641 H 345.396 1.92037 -3.751 0
M  V30 3642 H 344.12 2.07936 -2.51853 0
M  V30 3643 H 342.779 0.275319 -3.65565 0
M  V30 3644 H 342.427 2.67686 -4.25856 0
M  V30 3645 H 342.127 1.60789 -5.65173 0
M  V30 3646 H 343.651 2.53526 -5.55479 0
M  V30 3647 H 345.065 0.270333 -5.72662 0
M  V30 3648 H 343.462 -0.478543 -5.98189 0
M  V30 3649 H 344.532 -1.11409 -4.71928 0
M  V30 3650 N 345.875 1.56104 -0.216619 0
M  V30 3651 C 347.121 1.98466 0.417033 0
M  V30 3652 C 347.454 1.10403 1.59765 0
M  V30 3653 O 346.729 0.160632 1.93836 0
M  V30 3654 C 347.012 3.49769 0.85637 0
M  V30 3655 C 346.865 4.48606 -0.327546 0
M  V30 3656 C 348.184 4.05339 1.7143 0
M  V30 3657 H 345.303 0.721551 0.150112 0
M  V30 3658 H 347.945 1.87423 -0.311864 0
M  V30 3659 H 346.095 3.5931 1.47745 0
M  V30 3660 H 347.767 4.5108 -0.965618 0
M  V30 3661 H 346.01 4.22682 -0.975805 0
M  V30 3662 H 346.681 5.51995 0.0227149 0
M  V30 3663 H 349.157 3.98712 1.19031 0
M  V30 3664 H 348.033 5.11533 1.99061 0
M  V30 3665 H 348.294 3.51918 2.67593 0
M  V30 3666 N 347.353 -0.0568162 1.57498 0
M  V30 3667 C 348.63 -0.786954 1.79071 0
M  V30 3668 C 349.01 -1.95028 0.80792 0
M  V30 3669 O 348.358 -2.27968 -0.155858 0
M  V30 3670 C 348.568 -1.24594 3.26002 0
M  V30 3671 C 349.916 -1.67323 3.90241 0
M  V30 3672 O 350.94 -1.34124 3.29984 0
M  V30 3673 O 349.799 -2.28842 4.9628 0
M  V30 3674 H 346.893 -0.378262 0.735423 0
M  V30 3675 H 349.439 -0.035734 1.69662 0
M  V30 3676 H 348.211 -0.41423 3.89101 0
M  V30 3677 H 347.834 -2.05803 3.40192 0
M  V30 3678 N 348.832 -1.54138 -0.328536 0
M  V30 3679 C 350.079 -1.72105 -1.06706 0
M  V30 3680 C 350.407 -0.492111 -1.88171 0
M  V30 3681 O 349.662 0.526153 -1.88494 0
M  V30 3682 C 349.961 -2.9457 -2.02393 0
M  V30 3683 C 349.627 -4.29544 -1.37122 0
M  V30 3684 C 348.289 -4.6624 -1.19052 0
M  V30 3685 C 350.641 -5.1333 -0.902331 0
M  V30 3686 C 347.969 -5.84325 -0.527331 0
M  V30 3687 C 350.321 -6.32094 -0.252988 0
M  V30 3688 C 348.985 -6.67473 -0.0600901 0
M  V30 3689 H 348.255 -0.629775 -0.390466 0
M  V30 3690 H 350.902 -1.88372 -0.34473 0
M  V30 3691 H 349.207 -2.72969 -2.81061 0
M  V30 3692 H 350.904 -3.05665 -2.59557 0
M  V30 3693 H 347.494 -4.0067 -1.52188 0
M  V30 3694 H 351.678 -4.855 -1.02974 0
M  V30 3695 H 346.934 -6.103 -0.366634 0
M  V30 3696 H 351.108 -6.96299 0.118366 0
M  V30 3697 H 348.735 -7.58832 0.455828 0
M  V30 3698 N 350.31 0.590341 -1.46126 0
M  V30 3699 C 351.538 1.37504 -1.54597 0
M  V30 3700 C 351.953 1.87897 -0.184447 0
M  V30 3701 O 351.31 1.63192 0.816984 0
M  V30 3702 C 351.361 2.56779 -2.54454 0
M  V30 3703 O 351.082 2.08476 -3.85317 0
M  V30 3704 C 352.583 3.49427 -2.72792 0
M  V30 3705 H 349.803 0.420325 -0.523037 0
M  V30 3706 H 352.347 0.718383 -1.91467 0
M  V30 3707 H 350.502 3.1845 -2.20609 0
M  V30 3708 H 350.916 2.86097 -4.396 0
M  V30 3709 H 352.39 4.29619 -3.466 0
M  V30 3710 H 352.867 4.00876 -1.79429 0
M  V30 3711 H 353.473 2.93598 -3.07702 0
M  V30 3712 N 351.788 1.33704 0.83433 0
M  V30 3713 C 353.035 1.25417 1.58987 0
M  V30 3714 C 353.363 -0.178869 1.93676 0
M  V30 3715 O 352.618 -1.13723 1.59265 0
M  V30 3716 C 352.917 2.07926 2.90692 0
M  V30 3717 C 352.583 3.57066 2.75345 0
M  V30 3718 C 351.245 3.97724 2.70867 0
M  V30 3719 C 353.597 4.51817 2.59828 0
M  V30 3720 C 350.925 5.31344 2.48778 0
M  V30 3721 C 353.277 5.85604 2.39272 0
M  V30 3722 C 351.941 6.25439 2.33199 0
M  V30 3723 H 351.211 0.458934 0.581774 0
M  V30 3724 H 353.858 1.65335 0.966261 0
M  V30 3725 H 352.163 1.608 3.57282 0
M  V30 3726 H 353.86 1.98868 3.48213 0
M  V30 3727 H 350.45 3.24785 2.79665 0
M  V30 3728 H 354.634 4.21311 2.62319 0
M  V30 3729 H 349.89 5.61241 2.42526 0
M  V30 3730 H 354.064 6.58623 2.2625 0
M  V30 3731 H 351.691 7.28914 2.15843 0
M  V30 3732 N 353.266 -1.05314 1.17247 0
M  V30 3733 C 354.512 -1.78557 0.961513 0
M  V30 3734 C 354.845 -1.87419 -0.508697 0
M  V30 3735 O 354.12 -1.37307 -1.37757 0
M  V30 3736 C 354.403 -3.22514 1.60176 0
M  V30 3737 C 354.256 -3.21673 3.14399 0
M  V30 3738 C 355.575 -4.20318 1.30463 0
M  V30 3739 H 352.694 -0.6482 0.350723 0
M  V30 3740 H 355.336 -1.23102 1.44727 0
M  V30 3741 H 353.486 -3.69867 1.18871 0
M  V30 3742 H 355.158 -2.82405 3.64753 0
M  V30 3743 H 353.401 -2.60048 3.47214 0
M  V30 3744 H 354.072 -4.23271 3.54324 0
M  V30 3745 H 356.548 -3.81454 1.66229 0
M  V30 3746 H 355.424 -5.19289 1.77848 0
M  V30 3747 H 355.685 -4.41526 0.22521 0
M  V30 3748 N 354.744 -0.972509 -1.24016 0
M  V30 3749 C 355.654 -0.5143 -2.28893 0
M  V30 3750 C 356.67 0.427078 -1.68677 0
M  V30 3751 O 357.846 0.298939 -1.99169 0
M  V30 3752 C 354.911 0.183598 -3.46214 0
M  V30 3753 C 353.972 -0.798202 -4.21814 0
M  V30 3754 C 353.205 -0.133514 -5.33533 0
M  V30 3755 O 353.428 1.07714 -5.60137 0
M  V30 3756 O 352.362 -0.828103 -5.96176 0
M  V30 3757 H 356.188 -1.38629 -2.70214 0
M  V30 3758 H 353.773 -0.739769 -1.29799 0
M  V30 3759 H 355.655 0.575433 -4.17453 0
M  V30 3760 H 354.33 1.03048 -3.0686 0
M  V30 3761 H 353.237 -1.24059 -3.52931 0
M  V30 3762 H 354.57 -1.61364 -4.64997 0
M  V30 3763 N 356.222 1.38976 -0.743202 0
M  V30 3764 C 357.17 2.32394 -0.0978389 0
M  V30 3765 C 358.164 1.53486 0.716824 0
M  V30 3766 O 359.37 1.69092 0.617088 0
M  V30 3767 H 355.745 0.75189 -0.0128402 0
M  V30 3768 H 357.716 2.84441 -0.901981 0
M  V30 3769 C 356.465 3.38629 0.789036 0
M  V30 3770 H 355.788 3.99432 0.171559 0
M  V30 3771 H 357.228 4.06426 1.20807 0
M  V30 3772 C 355.687 2.76347 1.92702 0
M  V30 3773 O 356.217 2.64836 3.02034 0
M  V30 3774 N 354.423 2.34311 1.71891 0
M  V30 3775 H 353.97 2.43873 0.829675 0
M  V30 3776 H 353.928 1.9298 2.48205 0
M  V30 3777 N 357.7 0.491464 1.49741 0
M  V30 3778 C 358.946 -0.0565092 2.02721 0
M  V30 3779 C 359.279 -1.37522 1.37118 0
M  V30 3780 O 358.554 -1.87866 0.503645 0
M  V30 3781 C 358.837 -0.219051 3.59433 0
M  V30 3782 C 358.69 1.12211 4.35579 0
M  V30 3783 C 360.009 -0.964157 4.29409 0
M  V30 3784 H 357.128 -0.0190627 0.736753 0
M  V30 3785 H 359.77 0.641021 1.7886 0
M  V30 3786 H 357.92 -0.813165 3.79895 0
M  V30 3787 H 359.592 1.75437 4.26637 0
M  V30 3788 H 357.835 1.71377 3.98513 0
M  V30 3789 H 358.506 0.961794 5.43556 0
M  V30 3790 H 360.982 -0.460378 4.13545 0
M  V30 3791 H 359.858 -1.04671 5.38828 0
M  V30 3792 H 360.119 -2.00563 3.93988 0
M  V30 3793 N 359.178 -1.55987 0.224894 0
M  V30 3794 C 360.424 -1.98684 -0.406502 0
M  V30 3795 C 360.757 -1.11248 -1.59177 0
M  V30 3796 O 360.032 -0.170909 -1.93748 0
M  V30 3797 C 360.315 -3.50218 -0.837808 0
M  V30 3798 C 360.168 -4.48426 0.351332 0
M  V30 3799 C 361.487 -4.06243 -1.69278 0
M  V30 3800 H 358.606 -0.722337 -0.146283 0
M  V30 3801 H 361.248 -1.87255 0.321799 0
M  V30 3802 H 359.398 -3.60089 -1.45837 0
M  V30 3803 H 361.07 -4.50562 0.989526 0
M  V30 3804 H 359.313 -4.22159 0.998207 0
M  V30 3805 H 359.984 -5.52 0.00655905 0
M  V30 3806 H 362.46 -3.99337 -1.16914 0
M  V30 3807 H 361.336 -5.12581 -1.96346 0
M  V30 3808 H 361.597 -3.53332 -2.65723 0
M  V30 3809 N 360.656 0.0484629 -1.57525 0
M  V30 3810 C 361.606 1.06246 -2.01732 0
M  V30 3811 C 362.59 1.33155 -0.903245 0
M  V30 3812 O 363.782 1.33065 -1.16717 0
M  V30 3813 C 360.911 2.36943 -2.48421 0
M  V30 3814 C 359.997 2.13208 -3.6661 0
M  V30 3815 N 360.388 1.5947 -4.80003 0
M  V30 3816 C 358.686 2.43581 -3.7361 0
M  V30 3817 C 359.387 1.51092 -5.61735 0
M  V30 3818 N 358.363 1.9797 -5.0627 0
M  V30 3819 H 362.165 0.640675 -2.86832 0
M  V30 3820 H 359.679 0.255134 -1.60383 0
M  V30 3821 H 361.676 3.10374 -2.78341 0
M  V30 3822 H 360.336 2.79818 -1.64718 0
M  V30 3823 H 361.347 1.28008 -5.01831 0
M  V30 3824 H 358.024 2.89662 -3.00669 0
M  V30 3825 H 359.414 1.10199 -6.62801 0
M  V30 3826 N 362.134 1.5431 0.320358 0
M  V30 3827 C 363.382 1.72327 1.05583 0
M  V30 3828 C 363.703 0.50149 1.88441 0
M  V30 3829 O 362.973 -0.48448 1.89815 0
M  V30 3830 H 361.553 0.635387 0.3928 0
M  V30 3831 H 364.215 1.91621 0.356019 0
M  V30 3832 H 363.311 2.60426 1.72003 0
M  V30 3833 N 363.613 -0.582584 1.46437 0
M  V30 3834 C 364.563 -1.68654 1.53426 0
M  V30 3835 C 365.547 -1.55971 0.395194 0
M  V30 3836 O 366.739 -1.64884 0.643612 0
M  V30 3837 C 363.868 -3.07439 1.52762 0
M  V30 3838 C 362.954 -3.25418 2.71963 0
M  V30 3839 N 363.345 -3.13556 3.96883 0
M  V30 3840 C 361.643 -3.56357 2.68189 0
M  V30 3841 C 362.344 -3.33543 4.76575 0
M  V30 3842 N 361.32 -3.58704 4.08451 0
M  V30 3843 H 365.122 -1.58014 2.47808 0
M  V30 3844 H 362.636 -0.786617 1.42078 0
M  V30 3845 H 364.633 -3.86671 1.55857 0
M  V30 3846 H 363.293 -3.1921 0.594573 0
M  V30 3847 H 364.304 -2.9142 4.28129 0
M  V30 3848 H 360.981 -3.74812 1.83908 0
M  V30 3849 H 362.371 -3.29555 5.85528 0
M  V30 3850 N 365.091 -1.34144 -0.827227 0
M  V30 3851 C 366.34 -1.25602 -1.5782 0
M  V30 3852 C 366.653 0.173445 -1.94829 0
M  V30 3853 O 367.859 0.380984 -2.68814 0
M  V30 3854 C 366.315 -2.20151 -2.84713 0
M  V30 3855 C 365.923 -3.68331 -2.55021 0
M  V30 3856 C 367.667 -2.20508 -3.62735 0
M  V30 3857 C 365.574 -4.54762 -3.78082 0
M  V30 3858 H 364.504 -0.466573 -0.592306 0
M  V30 3859 H 367.155 -1.59283 -0.911116 0
M  V30 3860 H 365.537 -1.79417 -3.53023 0
M  V30 3861 H 366.711 -4.17577 -1.94849 0
M  V30 3862 H 365.026 -3.7038 -1.90283 0
M  V30 3863 H 367.623 -2.82306 -4.54101 0
M  V30 3864 H 367.966 -1.20322 -3.98533 0
M  V30 3865 H 368.499 -2.59664 -3.01362 0
M  V30 3866 H 365.238 -5.55867 -3.47407 0
M  V30 3867 H 364.758 -4.10254 -4.37552 0
M  V30 3868 H 366.437 -4.69153 -4.45538 0
M  V30 3869 N 366.569 1.04691 -1.17803 0
M  V30 3870 C 367.499 2.14494 -0.92275 0
M  V30 3871 C 368.48 1.69546 0.137179 0
M  V30 3872 O 369.665 1.94195 -0.0141108 0
M  V30 3873 C 366.795 3.44491 -0.440803 0
M  V30 3874 C 365.749 4.03031 -1.4405 0
M  V30 3875 C 365.075 5.28432 -0.81631 0
M  V30 3876 C 366.375 4.39932 -2.81527 0
M  V30 3877 H 368.069 2.36107 -1.84103 0
M  V30 3878 H 365.615 1.1347 -0.886599 0
M  V30 3879 H 367.568 4.2066 -0.249602 0
M  V30 3880 H 366.292 3.22546 0.513025 0
M  V30 3881 H 364.951 3.28937 -1.61853 0
M  V30 3882 H 364.599 5.02792 0.144511 0
M  V30 3883 H 364.299 5.68559 -1.48371 0
M  V30 3884 H 365.823 6.07284 -0.635496 0
M  V30 3885 H 367.237 5.07113 -2.67412 0
M  V30 3886 H 365.634 4.9109 -3.44892 0
M  V30 3887 H 366.704 3.50045 -3.35554 0
M  V30 3888 N 368.047 0.979072 1.23499 0
M  V30 3889 C 369.01 0.523244 2.23147 0
M  V30 3890 C 370.01 -0.386406 1.56088 0
M  V30 3891 O 371.2 -0.180283 1.73265 0
M  V30 3892 C 368.332 -0.240739 3.40049 0
M  V30 3893 H 369.525 1.40432 2.64989 0
M  V30 3894 H 367.078 0.764824 1.36309 0
M  V30 3895 H 367.813 -1.13841 3.03662 0
M  V30 3896 H 367.598 0.412207 3.89927 0
M  V30 3897 H 369.088 -0.548297 4.13985 0
M  V30 3898 N 369.525 -1.3858 0.750561 0
M  V30 3899 C 370.488 -2.28836 0.129152 0
M  V30 3900 C 371.488 -1.47045 -0.650714 0
M  V30 3901 O 372.678 -1.6753 -0.477428 0
M  V30 3902 C 369.81 -3.30751 -0.825622 0
M  V30 3903 H 371.003 -2.85294 0.924516 0
M  V30 3904 H 368.556 -1.47489 0.517376 0
M  V30 3905 H 369.291 -2.79378 -1.64677 0
M  V30 3906 H 369.076 -3.91177 -0.268852 0
M  V30 3907 H 370.566 -3.98249 -1.2565 0
M  V30 3908 N 371.003 -0.499398 -1.49478 0
M  V30 3909 C 371.913 0.284489 -2.32869 0
M  V30 3910 C 372.929 0.968885 -1.44529 0
M  V30 3911 O 374.105 0.95062 -1.77553 0
M  V30 3912 C 371.17 1.33594 -3.19928 0
M  V30 3913 C 370.231 0.665149 -4.24116 0
M  V30 3914 C 369.464 1.6665 -5.07014 0
M  V30 3915 O 369.687 2.89618 -4.91404 0
M  V30 3916 O 368.621 1.22271 -5.8935 0
M  V30 3917 H 372.447 -0.39802 -3.01081 0
M  V30 3918 H 370.032 -0.260758 -1.47107 0
M  V30 3919 H 371.914 1.94431 -3.73864 0
M  V30 3920 H 370.589 2.0014 -2.54412 0
M  V30 3921 H 369.496 0.0170769 -3.74096 0
M  V30 3922 H 370.829 0.0421555 -4.92182 0
M  V30 3923 N 372.481 1.55866 -0.233164 0
M  V30 3924 C 373.413 2.18099 0.704668 0
M  V30 3925 C 374.426 1.15334 1.14899 0
M  V30 3926 O 375.615 1.42262 1.07814 0
M  V30 3927 C 372.715 2.7592 1.96777 0
M  V30 3928 C 371.888 4.03969 1.67713 0
M  V30 3929 C 370.947 4.46242 2.78845 0
M  V30 3930 O 369.973 5.12903 2.46818 0
M  V30 3931 N 371.175 4.12886 4.08051 0
M  V30 3932 H 373.94 2.99205 0.172258 0
M  V30 3933 H 371.501 1.61815 -0.0525945 0
M  V30 3934 H 373.493 3.01165 2.70337 0
M  V30 3935 H 372.063 1.99051 2.41034 0
M  V30 3936 H 371.283 3.86459 0.777391 0
M  V30 3937 H 372.571 4.8748 1.4574 0
M  V30 3938 H 371.969 3.59342 4.3691 0
M  V30 3939 H 370.526 4.42997 4.78118 0
M  V30 3940 N 373.959 -0.0401083 1.57549 0
M  V30 3941 C 374.889 -1.04384 2.08869 0
M  V30 3942 C 375.87 -1.38407 0.988817 0
M  V30 3943 O 377.055 -1.47483 1.26342 0
M  V30 3944 C 374.185 -2.34808 2.55895 0
M  V30 3945 C 373.139 -2.15057 3.70047 0
M  V30 3946 C 372.465 -3.51145 4.03239 0
M  V30 3947 C 373.765 -1.54576 4.98902 0
M  V30 3948 H 375.459 -0.616666 2.92981 0
M  V30 3949 H 373.005 -0.295184 1.40942 0
M  V30 3950 H 374.958 -3.05346 2.90417 0
M  V30 3951 H 373.682 -2.79565 1.68853 0
M  V30 3952 H 372.341 -1.46954 3.35857 0
M  V30 3953 H 371.989 -3.93529 3.13279 0
M  V30 3954 H 371.689 -3.38758 4.80122 0
M  V30 3955 H 373.213 -4.23062 4.40285 0
M  V30 3956 H 374.627 -2.15017 5.31451 0
M  V30 3957 H 373.024 -1.52796 5.80322 0
M  V30 3958 H 374.094 -0.51039 4.82206 0
M  V30 3959 N 375.437 -1.54477 -0.31217 0
M  V30 3960 C 376.662 -1.77526 -1.07235 0
M  V30 3961 C 377.087 -0.527775 -1.80544 0
M  V30 3962 O 376.445 0.52121 -1.73646 0
M  V30 3963 C 376.493 -2.97535 -2.03728 0
M  V30 3964 O 375.597 -2.69878 -3.11833 0
M  V30 3965 H 374.938 -0.58792 -0.30862 0
M  V30 3966 H 377.468 -2.01532 -0.352993 0
M  V30 3967 H 377.478 -3.25198 -2.46395 0
M  V30 3968 H 376.153 -3.87996 -1.49774 0
M  V30 3969 H 374.73 -2.53199 -2.7376 0
M  V30 3970 N 376.915 0.57481 -1.46744 0
M  V30 3971 C 378.331 0.898981 -1.31873 0
M  V30 3972 C 378.531 1.99313 -0.29605 0
M  V30 3973 O 377.587 2.50728 0.298621 0
M  V30 3974 C 378.9 1.30886 -2.7072 0
M  V30 3975 C 380.448 1.42127 -2.78871 0
M  V30 3976 C 380.923 1.86478 -4.18318 0
M  V30 3977 N 382.414 1.93658 -4.20774 0
M  V30 3978 C 383.149 2.29267 -5.2557 0
M  V30 3979 N 382.645 2.63612 -6.40688 0
M  V30 3980 N 384.438 2.29889 -5.1294 0
M  V30 3981 H 376.589 -0.147839 -2.11885 0
M  V30 3982 H 378.852 -0.00347013 -0.947994 0
M  V30 3983 H 378.558 0.578853 -3.46904 0
M  V30 3984 H 378.432 2.26874 -3.01343 0
M  V30 3985 H 380.819 2.14213 -2.0297 0
M  V30 3986 H 380.9 0.443705 -2.51922 0
M  V30 3987 H 380.544 1.14968 -4.94717 0
M  V30 3988 H 380.474 2.85207 -4.42679 0
M  V30 3989 H 382.965 1.69574 -3.37718 0
M  V30 3990 H 383.278 2.89759 -7.16421 0
M  V30 3991 H 381.623 2.61232 -6.44036 0
M  V30 3992 H 384.814 2.02485 -4.22039 0
M  V30 3993 H 384.987 2.57312 -5.94722 0
M  V30 3994 N 378.394 1.34581 0.820102 0
M  V30 3995 C 379.671 1.17675 1.56244 0
M  V30 3996 C 380.051 -0.249541 2.0962 0
M  V30 3997 O 379.399 -1.25125 1.91196 0
M  V30 3998 C 379.609 2.23364 2.6816 0
M  V30 3999 C 380.957 2.58485 3.36854 0
M  V30 4000 O 381.981 2.22175 2.78418 0
M  V30 4001 O 380.84 3.20868 4.42386 0
M  V30 4002 H 377.934 0.456333 0.689702 0
M  V30 4003 H 380.48 1.46222 0.861231 0
M  V30 4004 H 379.252 3.19087 2.26493 0
M  V30 4005 H 378.875 1.96009 3.45928 0
M  V30 4006 N 379.872 -1.04064 1.18357 0
M  V30 4007 C 381.097 -1.81454 1.00445 0
M  V30 4008 C 381.522 -1.82823 -0.442423 0
M  V30 4009 O 380.88 -1.24555 -1.31741 0
M  V30 4010 C 380.928 -3.24925 1.56384 0
M  V30 4011 O 380.032 -4.04856 0.785209 0
M  V30 4012 H 379.373 -0.560604 0.355835 0
M  V30 4013 H 381.903 -1.31059 1.57114 0
M  V30 4014 H 381.913 -3.75702 1.59097 0
M  V30 4015 H 380.588 -3.23244 2.61699 0
M  V30 4016 H 379.165 -3.63537 0.830399 0
M  V30 4017 N 381.35 -0.985608 -1.22978 0
M  V30 4018 C 382.578 -0.675582 -1.95559 0
M  V30 4019 C 382.993 0.758413 -1.72897 0
M  V30 4020 O 382.35 1.51094 -1.02357 0
M  V30 4021 C 382.401 -0.96293 -3.48439 0
M  V30 4022 O 382.122 -2.34057 -3.70336 0
M  V30 4023 C 383.623 -0.669585 -4.38214 0
M  V30 4024 H 380.843 -0.250523 -0.622478 0
M  V30 4025 H 383.387 -1.3184 -1.56328 0
M  V30 4026 H 381.542 -0.366033 -3.85667 0
M  V30 4027 H 381.956 -2.43424 -4.64591 0
M  V30 4028 H 383.43 -0.920967 -5.44263 0
M  V30 4029 H 383.907 0.396383 -4.37408 0
M  V30 4030 H 384.513 -1.2472 -4.06602 0
M  V30 4031 N 382.828 1.3818 -0.7579 0
M  V30 4032 C 383.758 2.33027 -0.148597 0
M  V30 4033 C 384.739 1.55085 0.69875 0
M  V30 4034 O 385.924 1.83384 0.639053 0
M  V30 4035 C 383.054 3.3928 0.742034 0
M  V30 4036 C 382.008 4.28 -0.00291946 0
M  V30 4037 C 381.334 5.25146 1.00625 0
M  V30 4038 C 382.634 5.08938 -1.17385 0
M  V30 4039 H 384.328 2.84231 -0.940909 0
M  V30 4040 H 381.874 1.36659 -0.453908 0
M  V30 4041 H 383.827 4.046 1.17799 0
M  V30 4042 H 382.551 2.86569 1.56671 0
M  V30 4043 H 381.21 3.64192 -0.419504 0
M  V30 4044 H 380.858 4.68721 1.8251 0
M  V30 4045 H 380.558 5.85361 0.512428 0
M  V30 4046 H 382.082 5.93342 1.44143 0
M  V30 4047 H 383.496 5.67474 -0.815224 0
M  V30 4048 H 381.893 5.7841 -1.59882 0
M  V30 4049 H 382.963 4.42424 -1.98468 0
M  V30 4050 N 384.306 0.507319 1.49211 0
M  V30 4051 C 385.554 -0.0348839 2.0207 0
M  V30 4052 C 385.875 -1.36898 1.38866 0
M  V30 4053 O 385.145 -1.88133 0.546151 0
M  V30 4054 H 383.725 -0.0158812 0.746831 0
M  V30 4055 H 386.387 0.665998 1.83168 0
M  V30 4056 H 385.483 -0.159917 3.1169 0
M  V30 4057 N 385.784 -1.5574 0.241426 0
M  V30 4058 C 387.032 -1.98417 -0.384075 0
M  V30 4059 C 387.353 -1.13078 -1.58866 0
M  V30 4060 O 386.623 -0.212312 -1.94746 0
M  V30 4061 H 385.203 -0.732813 -0.144894 0
M  V30 4062 H 387.865 -1.9193 0.338943 0
M  V30 4063 H 386.961 -3.04219 -0.696939 0
M  V30 4064 N 387.262 0.0317525 -1.57568 0
M  V30 4065 C 388.209 1.0332 -2.06382 0
M  V30 4066 C 389.179 1.36082 -0.952414 0
M  V30 4067 O 390.364 1.46466 -1.2228 0
M  V30 4068 C 387.504 2.32989 -2.54578 0
M  V30 4069 C 386.617 2.0641 -3.79498 0
M  V30 4070 C 385.752 3.2993 -4.16317 0
M  V30 4071 C 384.791 2.98893 -5.34162 0
M  V30 4072 N 383.928 4.14857 -5.66426 0
M  V30 4073 H 388.768 0.609982 -2.9169 0
M  V30 4074 H 386.305 0.289573 -1.44222 0
M  V30 4075 H 388.263 3.0875 -2.80587 0
M  V30 4076 H 386.893 2.73039 -1.7219 0
M  V30 4077 H 385.945 1.21158 -3.6059 0
M  V30 4078 H 387.257 1.79513 -4.65378 0
M  V30 4079 H 386.411 4.1406 -4.4344 0
M  V30 4080 H 385.15 3.59938 -3.29083 0
M  V30 4081 H 384.155 2.13164 -5.06795 0
M  V30 4082 H 385.38 2.70165 -6.23047 0
M  V30 4083 H 383.326 4.44821 -4.82151 0
M  V30 4084 H 383.243 3.91374 -6.4681 0
M  V30 4085 H 384.511 4.99868 -5.98124 0
M  V30 4086 N 388.74 1.54641 0.303973 0
M  V30 4087 C 389.703 1.84646 1.35789 0
M  V30 4088 C 390.703 0.7192 1.4382 0
M  V30 4089 O 391.893 0.987491 1.43507 0
M  V30 4090 C 389.025 2.02407 2.74307 0
M  V30 4091 H 390.218 2.78829 1.10429 0
M  V30 4092 H 387.771 1.46658 0.540487 0
M  V30 4093 H 388.506 1.10502 3.04893 0
M  V30 4094 H 388.291 2.84453 2.69868 0
M  V30 4095 H 389.781 2.27002 3.50514 0
M  V30 4096 N 390.218 -0.567019 1.47046 0
M  V30 4097 C 391.465 -1.32462 1.53167 0
M  V30 4098 C 391.793 -1.93571 0.189841 0
M  V30 4099 O 391.048 -1.77865 -0.816243 0
M  V30 4100 C 391.347 -2.4623 2.59047 0
M  V30 4101 C 391.013 -2.03014 4.02612 0
M  V30 4102 C 389.675 -1.90944 4.41694 0
M  V30 4103 C 392.027 -1.69895 4.92732 0
M  V30 4104 C 389.355 -1.44035 5.68745 0
M  V30 4105 C 391.707 -1.2446 6.20236 0
M  V30 4106 C 390.371 -1.10979 6.5821 0
M  V30 4107 H 389.641 -0.484713 0.560477 0
M  V30 4108 H 392.288 -0.636888 1.80599 0
M  V30 4109 H 390.593 -3.20517 2.25335 0
M  V30 4110 H 392.29 -3.04427 2.61008 0
M  V30 4111 H 388.88 -2.13348 3.71726 0
M  V30 4112 H 393.064 -1.78098 4.63244 0
M  V30 4113 H 388.32 -1.32254 5.96925 0
M  V30 4114 H 392.494 -0.978924 6.89485 0
M  V30 4115 H 390.121 -0.744078 7.5655 0
M  V30 4116 N 391.696 -1.35014 -0.812953 0
M  V30 4117 C 392.646 -1.23959 -1.91359 0
M  V30 4118 C 393.63 -0.136306 -1.60322 0
M  V30 4119 O 394.822 -0.366925 -1.73155 0
M  V30 4120 C 391.951 -1.00736 -3.28188 0
M  V30 4121 C 391.037 -2.15426 -3.65311 0
M  V30 4122 N 391.428 -3.40612 -3.73921 0
M  V30 4123 C 389.726 -2.06672 -3.95225 0
M  V30 4124 C 390.427 -4.15994 -4.06601 0
M  V30 4125 N 389.403 -3.44685 -4.20349 0
M  V30 4126 H 393.205 -2.18815 -1.96208 0
M  V30 4127 H 390.719 -1.27395 -1.00718 0
M  V30 4128 H 392.716 -0.909052 -4.06868 0
M  V30 4129 H 391.376 -0.067586 -3.2463 0
M  V30 4130 H 392.387 -3.75043 -3.5716 0
M  V30 4131 H 389.064 -1.20511 -3.99729 0
M  V30 4132 H 390.454 -5.24145 -4.20382 0
M  V30 4133 N 393.175 1.03435 -1.18907 0
M  V30 4134 C 394.424 1.76143 -0.982669 0
M  V30 4135 C 394.737 1.89416 0.487953 0
M  V30 4136 O 395.943 2.59041 0.813036 0
M  V30 4137 C 394.399 3.16722 -1.70924 0
M  V30 4138 C 394.007 3.11522 -3.21959 0
M  V30 4139 C 395.751 3.93764 -1.58588 0
M  V30 4140 C 393.658 4.46999 -3.87228 0
M  V30 4141 H 392.588 0.660292 -0.364047 0
M  V30 4142 H 395.239 1.158 -1.42347 0
M  V30 4143 H 393.621 3.775 -1.19623 0
M  V30 4144 H 394.795 2.60158 -3.80335 0
M  V30 4145 H 393.11 2.47978 -3.34508 0
M  V30 4146 H 395.707 4.93963 -2.04707 0
M  V30 4147 H 396.05 4.12794 -0.539142 0
M  V30 4148 H 396.583 3.39576 -2.07203 0
M  V30 4149 H 393.322 4.33174 -4.91976 0
M  V30 4150 H 392.842 4.98441 -3.33642 0
M  V30 4151 H 394.521 5.15898 -3.90459 0
M  V30 4152 N 394.653 0.992116 1.22453 0
M  V30 4153 C 395.881 0.685944 1.95198 0
M  V30 4154 C 396.296 -0.749233 1.73297 0
M  V30 4155 O 395.653 -1.50549 1.03156 0
M  V30 4156 C 395.704 0.981395 3.47924 0
M  V30 4157 O 395.425 2.36018 3.6909 0
M  V30 4158 C 396.926 0.692815 4.37853 0
M  V30 4159 H 394.146 0.253821 0.621141 0
M  V30 4160 H 396.69 1.32668 1.55626 0
M  V30 4161 H 394.845 0.386481 3.85467 0
M  V30 4162 H 395.259 2.45884 4.63294 0
M  V30 4163 H 396.733 0.949818 5.43767 0
M  V30 4164 H 397.21 -0.373181 4.37612 0
M  V30 4165 H 397.816 1.26874 4.05935 0
M  V30 4166 N 396.131 -1.37776 0.765217 0
M  V30 4167 C 397.079 -2.32209 0.134798 0
M  V30 4168 C 398.073 -1.54607 -0.692315 0
M  V30 4169 O 399.279 -1.70052 -0.590109 0
M  V30 4170 H 395.654 -0.751591 0.0248005 0
M  V30 4171 H 397.625 -2.8297 0.947119 0
M  V30 4172 C 396.374 -3.39841 -0.735063 0
M  V30 4173 H 395.697 -3.99654 -0.107991 0
M  V30 4174 H 397.137 -4.08296 -1.14326 0
M  V30 4175 C 395.596 -2.79378 -1.88281 0
M  V30 4176 O 396.126 -2.69608 -2.97783 0
M  V30 4177 N 394.332 -2.37016 -1.68142 0
M  V30 4178 H 393.879 -2.45162 -0.790772 0
M  V30 4179 H 393.837 -1.96905 -2.45104 0
M  V30 4180 N 397.609 -0.515225 -1.4894 0
M  V30 4181 C 398.886 0.0879088 -1.95402 0
M  V30 4182 C 399.266 1.52745 -1.45712 0
M  V30 4183 O 398.614 2.18238 -0.677093 0
M  V30 4184 C 398.824 -0.0141055 -3.48997 0
M  V30 4185 C 400.172 0.152646 -4.24326 0
M  V30 4186 O 401.196 0.0604025 -3.56149 0
M  V30 4187 O 400.055 0.34384 -5.45417 0
M  V30 4188 H 397.149 0.0874636 -0.822362 0
M  V30 4189 H 399.695 -0.578775 -1.59525 0
M  V30 4190 H 398.467 -1.01745 -3.77841 0
M  V30 4191 H 398.09 0.692091 -3.9153 0
M  V30 4192 N 399.087 1.5561 -0.249682 0
M  V30 4193 C 399.997 2.25143 0.659375 0
M  V30 4194 C 401.013 1.2685 1.19101 0
M  V30 4195 O 402.189 1.59732 1.22669 0
M  V30 4196 C 399.254 2.93945 1.8384 0
M  V30 4197 C 398.315 4.07655 1.34596 0
M  V30 4198 C 397.548 4.73167 2.46878 0
M  V30 4199 O 397.771 4.37768 3.65671 0
M  V30 4200 O 396.705 5.61623 2.16478 0
M  V30 4201 H 400.531 3.03545 0.0968698 0
M  V30 4202 H 398.116 1.49389 -0.018074 0
M  V30 4203 H 399.998 3.37271 2.52638 0
M  V30 4204 H 398.673 2.18481 2.38847 0
M  V30 4205 H 397.58 3.68839 0.625174 0
M  V30 4206 H 398.913 4.84946 0.841941 0
M  V30 4207 N 400.565 -0.0233959 1.57583 0
M  V30 4208 C 401.976 -0.56927 1.77809 0
M  V30 4209 C 402.327 -1.75284 0.881472 0
M  V30 4210 O 401.452 -2.1626 0.0777805 0
M  V30 4211 C 402.047 -1.03949 3.22459 0
M  V30 4212 C 400.606 -1.53084 3.43864 0
M  V30 4213 C 399.753 -0.471454 2.73263 0
M  V30 4214 H 402.704 0.202825 1.57399 0
M  V30 4215 H 402.725 -1.90661 3.29285 0
M  V30 4216 H 402.237 -0.177865 3.87692 0
M  V30 4217 H 400.338 -2.41414 2.83814 0
M  V30 4218 H 400.451 -1.57443 4.52491 0
M  V30 4219 H 398.815 -0.927788 2.37201 0
M  V30 4220 H 399.598 0.380808 3.41181 0
M  V30 4221 N 402.043 -1.548 -0.295768 0
M  V30 4222 C 403.292 -1.73538 -1.02798 0
M  V30 4223 C 403.605 -0.531159 -1.8825 0
M  V30 4224 O 404.811 -0.600458 -2.64777 0
M  V30 4225 C 403.267 -3.07051 -1.87744 0
M  V30 4226 C 402.875 -4.34968 -1.07269 0
M  V30 4227 C 404.619 -3.35146 -2.60533 0
M  V30 4228 C 402.526 -5.5953 -1.91521 0
M  V30 4229 H 401.456 -0.646794 -0.387522 0
M  V30 4230 H 404.107 -1.81278 -0.284718 0
M  V30 4231 H 402.489 -2.93289 -2.66078 0
M  V30 4232 H 403.663 -4.5958 -0.335117 0
M  V30 4233 H 401.978 -4.13847 -0.460384 0
M  V30 4234 H 404.575 -4.2541 -3.23929 0
M  V30 4235 H 404.918 -2.54255 -3.29636 0
M  V30 4236 H 405.451 -3.49902 -1.89244 0
M  V30 4237 H 402.19 -6.43103 -1.26878 0
M  V30 4238 H 401.71 -5.39096 -2.62937 0
M  V30 4239 H 403.389 -5.96982 -2.49442 0
M  V30 4240 N 403.521 0.559213 -1.47345 0
M  V30 4241 C 404.932 1.14134 -1.47751 0
M  V30 4242 C 405.283 1.94834 -0.231103 0
M  V30 4243 O 404.408 2.05957 0.664137 0
M  V30 4244 C 405.003 2.07653 -2.67705 0
M  V30 4245 C 403.562 2.61141 -2.71076 0
M  V30 4246 C 402.709 1.3748 -2.40821 0
M  V30 4247 H 405.66 0.345917 -1.54884 0
M  V30 4248 H 405.681 2.91497 -2.44561 0
M  V30 4249 H 405.193 1.4889 -3.58404 0
M  V30 4250 H 403.294 3.23707 -1.84511 0
M  V30 4251 H 403.407 3.02272 -3.7171 0
M  V30 4252 H 401.771 1.68086 -1.91362 0
M  V30 4253 H 402.554 0.805135 -3.33725 0
M  V30 4254 N 404.999 1.35443 0.805782 0
M  V30 4255 C 406.246 1.28761 1.56291 0
M  V30 4256 C 406.574 -0.137747 1.94012 0
M  V30 4257 O 405.829 -1.1032 1.61642 0
M  V30 4258 C 406.128 2.14045 2.86216 0
M  V30 4259 C 405.794 3.62826 2.67709 0
M  V30 4260 C 404.456 4.0338 2.6237 0
M  V30 4261 C 406.808 4.57227 2.50186 0
M  V30 4262 C 404.136 5.36501 2.37451 0
M  V30 4263 C 406.488 5.90547 2.26797 0
M  V30 4264 C 405.152 6.30245 2.1988 0
M  V30 4265 H 404.422 0.471171 0.571908 0
M  V30 4266 H 407.069 1.67347 0.930974 0
M  V30 4267 H 405.374 1.68342 3.53791 0
M  V30 4268 H 407.071 2.0621 3.43917 0
M  V30 4269 H 403.661 3.30644 2.72713 0
M  V30 4270 H 407.845 4.2678 2.53323 0
M  V30 4271 H 403.101 5.66259 2.30567 0
M  V30 4272 H 407.275 6.63274 2.12228 0
M  V30 4273 H 404.902 7.33328 2.00333 0
M  V30 4274 N 406.477 -1.02803 1.19454 0
M  V30 4275 C 407.723 -1.76598 1.0092 0
M  V30 4276 C 408.078 -1.86939 -0.455142 0
M  V30 4277 O 407.371 -1.37575 -1.33355 0
M  V30 4278 C 407.565 -3.18941 1.6128 0
M  V30 4279 C 407.394 -3.22476 3.13431 0
M  V30 4280 C 406.164 -3.30375 3.82336 0
M  V30 4281 C 408.362 -3.09451 4.10785 0
M  V30 4282 N 406.344 -3.23292 5.21877 0
M  V30 4283 C 407.715 -3.10012 5.36929 0
M  V30 4284 C 409.77 -2.93585 4.02135 0
M  V30 4285 C 408.473 -2.96334 6.55423 0
M  V30 4286 C 410.499 -2.81256 5.20239 0
M  V30 4287 C 409.861 -2.82472 6.45282 0
M  V30 4288 H 405.96 -0.657447 0.423424 0
M  V30 4289 H 408.544 -1.22369 1.5144 0
M  V30 4290 H 406.715 -3.71489 1.1336 0
M  V30 4291 H 408.447 -3.81102 1.36173 0
M  V30 4292 H 405.202 -3.3663 3.33132 0
M  V30 4293 H 405.626 -3.23156 5.94894 0
M  V30 4294 H 410.268 -2.91466 3.0628 0
M  V30 4295 H 407.986 -2.97203 7.51463 0
M  V30 4296 H 411.572 -2.70014 5.15348 0
M  V30 4297 H 410.452 -2.73036 7.35133 0
M  V30 4298 N 407.956 -0.998596 -1.21925 0
M  V30 4299 C 409.184 -0.696286 -1.94832 0
M  V30 4300 C 409.599 0.740032 -1.73692 0
M  V30 4301 O 408.956 1.5 -1.03953 0
M  V30 4302 C 409.007 -0.999833 -3.47398 0
M  V30 4303 O 408.728 -2.37972 -3.67833 0
M  V30 4304 C 410.229 -0.716025 -4.37479 0
M  V30 4305 H 407.449 -0.257111 -0.619786 0
M  V30 4306 H 409.993 -1.33491 -1.54921 0
M  V30 4307 H 408.148 -0.406918 -3.85257 0
M  V30 4308 H 408.562 -2.48338 -4.61983 0
M  V30 4309 H 410.036 -0.978642 -5.43256 0
M  V30 4310 H 410.513 0.349968 -4.37803 0
M  V30 4311 H 411.119 -1.29025 -4.05256 0
M  V30 4312 N 409.434 1.37368 -0.772513 0
M  V30 4313 C 410.681 1.99673 -0.337182 0
M  V30 4314 C 411.009 1.61324 1.0865 0
M  V30 4315 O 410.264 0.851377 1.7621 0
M  V30 4316 C 410.563 3.54817 -0.428876 0
M  V30 4317 C 410.229 4.12936 -1.81092 0
M  V30 4318 C 408.891 4.28523 -2.1891 0
M  V30 4319 C 411.243 4.44801 -2.71664 0
M  V30 4320 C 408.571 4.73277 -3.46735 0
M  V30 4321 C 410.923 4.90981 -3.98899 0
M  V30 4322 C 409.587 5.04773 -4.36761 0
M  V30 4323 H 408.857 0.730656 -0.123384 0
M  V30 4324 H 411.504 1.64124 -0.986686 0
M  V30 4325 H 409.809 3.90618 0.304167 0
M  V30 4326 H 411.506 4.00933 -0.0733334 0
M  V30 4327 H 408.096 4.01233 -1.50699 0
M  V30 4328 H 412.28 4.32344 -2.43706 0
M  V30 4329 H 407.536 4.82142 -3.75964 0
M  V30 4330 H 411.71 5.14603 -4.69208 0
M  V30 4331 H 409.337 5.39211 -5.35868 0
M  V30 4332 N 410.912 0.523116 1.48665 0
M  V30 4333 C 411.842 -0.23231 2.32342 0
M  V30 4334 C 412.823 -0.941637 1.41659 0
M  V30 4335 O 414.008 -0.928751 1.70552 0
M  V30 4336 C 411.138 -1.28387 3.22698 0
M  V30 4337 C 410.092 -0.693098 4.22351 0
M  V30 4338 C 409.418 -1.8468 5.01794 0
M  V30 4339 C 410.718 0.33063 5.21252 0
M  V30 4340 H 412.412 0.466192 2.95748 0
M  V30 4341 H 409.958 0.225643 1.42221 0
M  V30 4342 H 411.911 -1.82024 3.80059 0
M  V30 4343 H 410.635 -2.01186 2.57278 0
M  V30 4344 H 409.294 -0.178299 3.66166 0
M  V30 4345 H 408.942 -2.56301 4.32804 0
M  V30 4346 H 408.642 -1.45747 5.69238 0
M  V30 4347 H 410.166 -2.38709 5.62006 0
M  V30 4348 H 411.58 -0.118407 5.73178 0
M  V30 4349 H 409.977 0.636974 5.9671 0
M  V30 4350 H 411.047 1.23883 4.68808 0
M  V30 4351 N 412.39 -1.55475 0.257931 0
M  V30 4352 C 413.615 -2.04064 -0.370488 0
M  V30 4353 C 414.04 -1.13565 -1.49948 0
M  V30 4354 O 413.398 -0.130781 -1.80828 0
M  V30 4355 C 413.446 -3.50554 -0.845237 0
M  V30 4356 O 412.55 -3.63173 -1.95394 0
M  V30 4357 H 411.891 -0.659257 -0.0792243 0
M  V30 4358 H 414.421 -2.00903 0.387212 0
M  V30 4359 H 414.431 -3.91588 -1.14555 0
M  V30 4360 H 413.106 -4.15896 -0.0191259 0
M  V30 4361 H 411.683 -3.34039 -1.65748 0
M  V30 4362 N 413.868 0.0150385 -1.57593 0
M  V30 4363 C 415.284 0.370907 -1.5523 0
M  V30 4364 C 415.484 1.75735 -0.985882 0
M  V30 4365 O 414.54 2.44944 -0.613077 0
M  V30 4366 C 415.853 0.259908 -2.99575 0
M  V30 4367 C 417.401 0.335959 -3.11192 0
M  V30 4368 C 417.876 0.254253 -4.57294 0
M  V30 4369 N 419.367 0.312618 -4.62144 0
M  V30 4370 C 420.102 0.272505 -5.72752 0
M  V30 4371 N 419.598 0.183864 -6.92556 0
M  V30 4372 N 421.391 0.323267 -5.6117 0
M  V30 4373 H 413.542 -0.892104 -1.92757 0
M  V30 4374 H 415.805 -0.340563 -0.884715 0
M  V30 4375 H 415.511 -0.693403 -3.44797 0
M  V30 4376 H 415.385 1.048 -3.62349 0
M  V30 4377 H 417.772 1.27971 -2.65909 0
M  V30 4378 H 417.853 -0.481739 -2.51223 0
M  V30 4379 H 417.497 -0.685887 -5.03247 0
M  V30 4380 H 417.427 1.09024 -5.15191 0
M  V30 4381 H 419.918 0.38307 -3.75953 0
M  V30 4382 H 420.231 0.15874 -7.72637 0
M  V30 4383 H 418.576 0.149708 -6.94839 0
M  V30 4384 H 421.767 0.390607 -4.66467 0
M  V30 4385 H 421.94 0.288539 -6.47357 0
M  V30 4386 N 415.346 1.54954 0.287554 0
M  V30 4387 C 416.595 1.74081 1.01877 0
M  V30 4388 C 416.908 0.541135 1.87966 0
M  V30 4389 O 418.114 0.614491 2.64455 0
M  V30 4390 C 416.57 3.08042 1.86113 0
M  V30 4391 C 416.178 4.35531 1.04961 0
M  V30 4392 C 417.922 3.36523 2.58752 0
M  V30 4393 C 415.829 5.60538 1.88551 0
M  V30 4394 H 414.759 0.64884 0.384087 0
M  V30 4395 H 417.41 1.81426 0.275101 0
M  V30 4396 H 415.792 2.94696 2.64519 0
M  V30 4397 H 416.966 4.59751 0.31074 0
M  V30 4398 H 415.281 4.14085 0.43843 0
M  V30 4399 H 417.878 4.27122 3.21668 0
M  V30 4400 H 418.221 2.56 3.28283 0
M  V30 4401 H 418.754 3.50901 1.87386 0
M  V30 4402 H 415.493 6.43767 1.23466 0
M  V30 4403 H 415.013 5.40483 2.60074 0
M  V30 4404 H 416.692 5.98297 2.46273 0
M  V30 4405 N 416.824 -0.551391 1.4764 0
M  V30 4406 C 417.754 -1.66757 1.63445 0
M  V30 4407 C 418.735 -1.63077 0.483742 0
M  V30 4408 O 419.92 -1.80607 0.71377 0
M  V30 4409 C 417.05 -3.05387 1.65396 0
M  V30 4410 C 416.004 -3.23918 2.79752 0
M  V30 4411 C 415.33 -4.63393 2.66779 0
M  V30 4412 C 416.63 -3.08735 4.21284 0
M  V30 4413 H 418.324 -1.53786 2.56886 0
M  V30 4414 H 415.87 -0.738415 1.23626 0
M  V30 4415 H 417.823 -3.83325 1.75043 0
M  V30 4416 H 416.547 -3.19332 0.685195 0
M  V30 4417 H 415.206 -2.48391 2.69625 0
M  V30 4418 H 414.854 -4.74144 1.67918 0
M  V30 4419 H 414.554 -4.7674 3.43501 0
M  V30 4420 H 416.078 -5.43458 2.78364 0
M  V30 4421 H 417.492 -3.76484 4.32357 0
M  V30 4422 H 415.889 -3.33588 4.98838 0
M  V30 4423 H 416.959 -2.0541 4.39243 0
M  V30 4424 N 418.302 -1.35869 -0.798587 0
M  V30 4425 C 419.53 -1.32722 -1.58722 0
M  V30 4426 C 419.945 0.0935631 -1.88568 0
M  V30 4427 O 419.302 1.04784 -1.49421 0
M  V30 4428 C 419.353 -2.13974 -2.91371 0
M  V30 4429 O 419.074 -3.50514 -2.62815 0
M  V30 4430 C 420.575 -2.18504 -3.85708 0
M  V30 4431 H 417.795 -0.45562 -0.492596 0
M  V30 4432 H 420.339 -1.78837 -0.991843 0
M  V30 4433 H 418.494 -1.71438 -3.47402 0
M  V30 4434 H 418.908 -3.92806 -3.47568 0
M  V30 4435 H 420.382 -2.79732 -4.75872 0
M  V30 4436 H 420.859 -1.18597 -4.22885 0
M  V30 4437 H 421.465 -2.61236 -3.35612 0
M  V30 4438 N 419.78 1.02168 -1.19998 0
M  V30 4439 C 421.028 1.75338 -1.00504 0
M  V30 4440 C 421.349 1.89387 0.464506 0
M  V30 4441 O 420.619 1.43268 1.33608 0
M  V30 4442 H 419.199 0.649564 -0.368885 0
M  V30 4443 H 421.861 1.23205 -1.51018 0
M  V30 4444 H 420.957 2.75892 -1.45912 0
M  V30 4445 N 421.258 1.00505 1.21394 0
M  V30 4446 C 422.188 0.585684 2.26035 0
M  V30 4447 C 423.169 -0.393525 1.65485 0
M  V30 4448 O 424.354 -0.281497 1.92149 0
M  V30 4449 C 421.484 -0.0884283 3.47187 0
M  V30 4450 C 420.438 0.810567 4.20254 0
M  V30 4451 C 419.764 0.00286382 5.347 0
M  V30 4452 C 421.064 2.1132 4.77641 0
M  V30 4453 H 422.758 1.46039 2.61368 0
M  V30 4454 H 420.304 0.703648 1.25638 0
M  V30 4455 H 422.257 -0.393286 4.19561 0
M  V30 4456 H 420.981 -0.997766 3.10986 0
M  V30 4457 H 419.64 1.09925 3.49731 0
M  V30 4458 H 419.288 -0.907765 4.94741 0
M  V30 4459 H 418.988 0.601444 5.84514 0
M  V30 4460 H 420.512 -0.295808 6.09883 0
M  V30 4461 H 421.926 1.87148 5.41893 0
M  V30 4462 H 420.323 2.66164 5.37845 0
M  V30 4463 H 421.393 2.78393 3.9702 0
M  V30 4464 N 422.737 -1.36956 0.779787 0
M  V30 4465 C 423.685 -2.32053 0.15942 0
M  V30 4466 C 424.679 -1.55333 -0.675878 0
M  V30 4467 O 425.885 -1.70668 -0.57204 0
M  V30 4468 H 422.26 -0.751286 0.0327707 0
M  V30 4469 H 424.231 -2.8195 0.977078 0
M  V30 4470 C 422.98 -3.40602 -0.698977 0
M  V30 4471 H 422.303 -3.99746 -0.0655966 0
M  V30 4472 H 423.743 -4.09486 -1.09989 0
M  V30 4473 C 422.202 -2.81359 -1.85307 0
M  V30 4474 O 422.732 -2.72751 -2.94906 0
M  V30 4475 N 420.938 -2.38786 -1.65619 0
M  V30 4476 H 420.485 -2.45987 -0.764725 0
M  V30 4477 H 420.443 -1.99493 -2.43002 0
M  V30 4478 N 424.215 -0.530993 -1.48385 0
M  V30 4479 C 425.445 -0.00133928 -2.066 0
M  V30 4480 C 425.853 1.28599 -1.38777 0
M  V30 4481 O 425.196 1.77599 -0.469495 0
M  V30 4482 C 425.258 0.292137 -3.58311 0
M  V30 4483 C 424.922 -0.901864 -4.48013 0
M  V30 4484 C 425.919 -1.80053 -4.87726 0
M  V30 4485 C 423.604 -1.10915 -4.89901 0
M  V30 4486 C 425.598 -2.89038 -5.68098 0
M  V30 4487 C 423.285 -2.20213 -5.70043 0
M  V30 4488 C 424.283 -3.09107 -6.0905 0
M  V30 4489 O 423.971 -4.16514 -6.87583 0
M  V30 4490 H 423.703 -0.0308475 -0.675296 0
M  V30 4491 H 426.257 -0.736335 -1.91748 0
M  V30 4492 H 424.487 1.08112 -3.7128 0
M  V30 4493 H 426.176 0.763994 -3.98645 0
M  V30 4494 H 426.942 -1.65234 -4.55986 0
M  V30 4495 H 422.821 -0.426498 -4.59023 0
M  V30 4496 H 426.365 -3.58451 -5.98464 0
M  V30 4497 H 422.262 -2.35016 -6.01197 0
M  V30 4498 H 423.03 -4.14237 -7.05939 0
M  V30 4499 N 425.693 1.55336 -0.266172 0
M  V30 4500 C 426.603 2.2583 0.635458 0
M  V30 4501 C 427.619 1.28106 1.17749 0
M  V30 4502 O 428.795 1.61024 1.20968 0
M  V30 4503 C 425.86 2.95879 1.80712 0
M  V30 4504 C 424.921 4.09059 1.30265 0
M  V30 4505 C 424.154 4.75759 2.41846 0
M  V30 4506 O 424.377 4.41622 3.61007 0
M  V30 4507 O 423.311 5.63888 2.1051 0
M  V30 4508 H 427.137 3.03631 0.0646693 0
M  V30 4509 H 424.722 1.49361 -0.0339177 0
M  V30 4510 H 426.604 3.39932 2.49047 0
M  V30 4511 H 425.279 2.21002 2.36516 0
M  V30 4512 H 424.186 3.69482 0.586019 0
M  V30 4513 H 425.519 4.85811 0.790458 0
M  V30 4514 N 427.171 -0.0066808 1.57599 0
M  V30 4515 C 428.134 -0.985035 2.06953 0
M  V30 4516 C 429.134 -1.27663 0.977687 0
M  V30 4517 O 430.324 -1.22293 1.24057 0
M  V30 4518 C 427.456 -2.3118 2.50536 0
M  V30 4519 H 428.649 -0.558255 2.94658 0
M  V30 4520 H 426.202 -0.254011 1.54222 0
M  V30 4521 H 426.937 -2.78561 1.66054 0
M  V30 4522 H 426.722 -2.11338 3.3027 0
M  V30 4523 H 428.212 -3.01377 2.8907 0
M  V30 4524 N 428.649 -1.55105 -0.279332 0
M  V30 4525 C 430.06 -1.66186 -0.850832 0
M  V30 4526 C 430.411 -0.584707 -1.87285 0
M  V30 4527 O 429.536 0.274919 -2.14647 0
M  V30 4528 C 430.131 -3.01264 -1.55001 0
M  V30 4529 C 428.69 -3.14394 -2.06963 0
M  V30 4530 C 427.837 -2.61959 -0.909536 0
M  V30 4531 H 430.788 -1.58602 -0.0558235 0
M  V30 4532 H 430.809 -2.93899 -2.41669 0
M  V30 4533 H 430.321 -3.7964 -0.805931 0
M  V30 4534 H 428.422 -2.4078 -2.84352 0
M  V30 4535 H 428.535 -4.20867 -2.28928 0
M  V30 4536 H 426.899 -2.18957 -1.30116 0
M  V30 4537 H 427.682 -3.42833 -0.179062 0
M  V30 4538 N 430.127 0.543554 -1.4793 0
M  V30 4539 C 431.074 1.64942 -1.6144 0
M  V30 4540 C 432.044 1.59692 -0.456903 0
M  V30 4541 O 433.229 1.78321 -0.678688 0
M  V30 4542 C 430.369 3.03238 -1.64744 0
M  V30 4543 C 429.482 3.18823 -2.91506 0
M  V30 4544 C 428.617 4.47599 -2.86057 0
M  V30 4545 C 427.656 4.56664 -4.07584 0
M  V30 4546 N 426.793 5.76811 -4.00292 0
M  V30 4547 H 431.633 1.52733 -2.55884 0
M  V30 4548 H 429.17 0.7438 -1.2691 0
M  V30 4549 H 431.128 3.83339 -1.64641 0
M  V30 4550 H 429.758 3.1425 -0.738017 0
M  V30 4551 H 428.81 2.32064 -3.01414 0
M  V30 4552 H 430.122 3.21384 -3.81463 0
M  V30 4553 H 429.276 5.35975 -2.84281 0
M  V30 4554 H 428.015 4.47538 -1.93807 0
M  V30 4555 H 427.02 3.66697 -4.09651 0
M  V30 4556 H 428.245 4.58474 -5.00978 0
M  V30 4557 H 426.191 5.77673 -3.10853 0
M  V30 4558 H 426.108 5.80808 -4.8394 0
M  V30 4559 H 427.376 6.67512 -4.02553 0
M  V30 4560 N 431.605 1.3629 0.791371 0
M  V30 4561 C 432.835 1.33368 1.57786 0
M  V30 4562 C 433.243 -0.0875188 1.88997 0
M  V30 4563 O 432.586 -1.05427 1.50435 0
M  V30 4564 C 432.648 2.08802 2.92646 0
M  V30 4565 C 432.312 3.57903 2.84174 0
M  V30 4566 C 433.309 4.52191 2.56553 0
M  V30 4567 C 430.994 4.00762 3.02812 0
M  V30 4568 C 432.988 5.87315 2.47669 0
M  V30 4569 C 430.675 5.35977 2.93551 0
M  V30 4570 C 431.673 6.29066 2.66017 0
M  V30 4571 O 431.361 7.61798 2.56746 0
M  V30 4572 H 431.093 0.459166 0.496128 0
M  V30 4573 H 433.647 1.79952 0.990269 0
M  V30 4574 H 431.877 1.56878 3.53449 0
M  V30 4575 H 433.566 1.98762 3.53904 0
M  V30 4576 H 434.332 4.20393 2.41858 0
M  V30 4577 H 430.211 3.2868 3.2325 0
M  V30 4578 H 433.755 6.59943 2.26099 0
M  V30 4579 H 429.652 5.67384 3.07808 0
M  V30 4580 H 430.42 7.71898 2.72242 0
M  V30 4581 N 433.083 -1.0153 1.20538 0
M  V30 4582 C 434.033 -2.08482 0.922991 0
M  V30 4583 C 435.017 -1.60469 -0.117702 0
M  V30 4584 O 436.209 -1.76772 0.0898465 0
M  V30 4585 C 433.338 -3.39952 0.478312 0
M  V30 4586 C 432.424 -3.94662 1.5525 0
M  V30 4587 N 432.815 -4.22866 2.77521 0
M  V30 4588 C 431.113 -4.22825 1.41897 0
M  V30 4589 C 431.814 -4.67002 3.4682 0
M  V30 4590 N 430.79 -4.69356 2.74237 0
M  V30 4591 H 434.592 -2.28199 1.85209 0
M  V30 4592 H 432.106 -1.19512 1.09957 0
M  V30 4593 H 434.103 -4.16105 0.257408 0
M  V30 4594 H 432.763 -3.21648 -0.444148 0
M  V30 4595 H 433.774 -4.11732 3.1416 0
M  V30 4596 H 430.451 -4.13714 0.561015 0
M  V30 4597 H 431.841 -4.97632 4.51455 0
M  V30 4598 N 434.561 -1.01147 -1.20859 0
M  V30 4599 C 435.81 -0.693214 -1.89413 0
M  V30 4600 C 436.123 0.779969 -1.79376 0
M  V30 4601 O 437.329 1.21057 -2.43017 0
M  V30 4602 C 435.785 -1.18949 -3.39675 0
M  V30 4603 C 435.393 -2.68921 -3.58309 0
M  V30 4604 C 437.137 -0.94642 -4.13815 0
M  V30 4605 C 435.044 -3.12056 -5.0237 0
M  V30 4606 H 433.974 -0.255595 -0.709357 0
M  V30 4607 H 436.625 -1.22349 -1.36759 0
M  V30 4608 H 435.007 -0.587228 -3.91622 0
M  V30 4609 H 436.181 -3.34652 -3.16772 0
M  V30 4610 H 434.496 -2.91314 -2.97532 0
M  V30 4611 H 437.093 -1.24417 -5.20023 0
M  V30 4612 H 437.436 0.117219 -4.16135 0
M  V30 4613 H 437.969 -1.5118 -3.67953 0
M  V30 4614 H 434.708 -4.17674 -5.05202 0
M  V30 4615 H 434.228 -2.51041 -5.44737 0
M  V30 4616 H 435.907 -3.04403 -5.70918 0
M  V30 4617 N 436.039 1.36541 -0.78704 0
M  V30 4618 C 437.45 1.81873 -0.421807 0
M  V30 4619 C 437.801 1.65487 1.05397 0
M  V30 4620 O 436.926 1.17448 1.81755 0
M  V30 4621 C 437.521 3.30192 -0.758841 0
M  V30 4622 C 436.08 3.73743 -0.446468 0
M  V30 4623 C 435.227 2.58844 -0.994728 0
M  V30 4624 H 438.178 1.24796 -0.98039 0
M  V30 4625 H 438.199 3.80468 -0.0490648 0
M  V30 4626 H 437.711 3.42087 -1.83299 0
M  V30 4627 H 435.812 3.6741 0.619739 0
M  V30 4628 H 435.925 4.69272 -0.965415 0
M  V30 4629 H 434.289 2.51245 -0.418087 0
M  V30 4630 H 435.072 2.73525 -2.07458 0
M  V30 4631 N 437.518 0.538854 1.48102 0
M  V30 4632 C 438.748 0.0122958 2.06596 0
M  V30 4633 C 439.156 -1.27861 1.39457 0
M  V30 4634 O 438.499 -1.77348 0.478907 0
M  V30 4635 C 438.561 -0.273131 3.58461 0
M  V30 4636 C 438.225 0.92561 4.47528 0
M  V30 4637 C 439.222 1.82637 4.86765 0
M  V30 4638 C 436.907 1.13511 4.89306 0
M  V30 4639 C 438.901 2.92047 5.66558 0
M  V30 4640 C 436.588 2.23233 5.68868 0
M  V30 4641 C 437.586 3.12333 6.07402 0
M  V30 4642 O 437.274 4.20155 6.85365 0
M  V30 4643 H 437.006 0.0344283 0.675123 0
M  V30 4644 H 439.56 0.746494 1.91355 0
M  V30 4645 H 437.79 -1.06141 3.71848 0
M  V30 4646 H 439.479 -0.742842 3.99045 0
M  V30 4647 H 440.245 1.67649 4.55103 0
M  V30 4648 H 436.124 0.450835 4.5879 0
M  V30 4649 H 439.668 3.6162 5.96554 0
M  V30 4650 H 435.565 2.38201 5.99942 0
M  V30 4651 H 436.333 4.17975 7.03732 0
M  V30 4652 N 438.996 -1.55193 0.274407 0
M  V30 4653 C 440.242 -2.00604 -0.33608 0
M  V30 4654 C 440.597 -1.15948 -1.53538 0
M  V30 4655 O 439.89 -0.221385 -1.90317 0
M  V30 4656 C 440.084 -3.49019 -0.769458 0
M  V30 4657 C 439.913 -4.48038 0.386301 0
M  V30 4658 C 438.683 -4.97757 0.869854 0
M  V30 4659 C 440.881 -4.99558 1.22254 0
M  V30 4660 N 438.863 -5.80575 1.99515 0
M  V30 4661 C 440.234 -5.79816 2.19575 0
M  V30 4662 C 442.289 -4.81799 1.25597 0
M  V30 4663 C 440.992 -6.44208 3.19981 0
M  V30 4664 C 443.018 -5.46989 2.24848 0
M  V30 4665 C 442.38 -6.27058 3.20901 0
M  V30 4666 H 438.479 -0.777013 -0.088172 0
M  V30 4667 H 441.063 -1.90583 0.398266 0
M  V30 4668 H 439.234 -3.59383 -1.47303 0
M  V30 4669 H 440.966 -3.81263 -1.35722 0
M  V30 4670 H 437.721 -4.71464 0.449281 0
M  V30 4671 H 438.145 -6.26675 2.5614 0
M  V30 4672 H 442.787 -4.19501 0.527158 0
M  V30 4673 H 440.505 -7.05656 3.93796 0
M  V30 4674 H 444.091 -5.35189 2.28174 0
M  V30 4675 H 442.971 -6.7661 3.96445 0
M  V30 4676 N 440.474 -0.00167713 -1.576 0
M  V30 4677 C 441.72 0.683832 -1.90923 0
M  V30 4678 C 442.053 1.7333 -0.875799 0
M  V30 4679 O 441.328 1.94215 0.10525 0
M  V30 4680 C 441.611 1.32543 -3.3482 0
M  V30 4681 C 441.464 0.287387 -4.48881 0
M  V30 4682 C 442.783 2.25114 -3.78169 0
M  V30 4683 H 439.902 0.247125 -0.694333 0
M  V30 4684 H 442.544 -0.0533149 -1.89925 0
M  V30 4685 H 440.694 1.95372 -3.35801 0
M  V30 4686 H 442.366 -0.341346 -4.60035 0
M  V30 4687 H 440.609 -0.39017 -4.32042 0
M  V30 4688 H 441.28 0.775393 -5.46527 0
M  V30 4689 H 443.756 1.723 -3.7875 0
M  V30 4690 H 442.632 2.66971 -4.79602 0
M  V30 4691 H 442.893 3.13092 -3.12131 0
M  V30 4692 N 441.952 1.55251 0.271103 0
M  V30 4693 C 442.915 1.87484 1.31842 0
M  V30 4694 C 443.915 0.749545 1.42262 0
M  V30 4695 O 445.105 1.01771 1.4138 0
M  V30 4696 C 442.237 2.0818 2.69951 0
M  V30 4697 H 443.43 2.81108 1.0449 0
M  V30 4698 H 440.983 1.47771 0.509258 0
M  V30 4699 H 441.718 1.16944 3.02481 0
M  V30 4700 H 441.503 2.90114 2.63774 0
M  V30 4701 H 442.993 2.34385 3.4562 0
M  V30 4702 N 443.43 -0.535701 1.48216 0
M  V30 4703 C 444.66 -1.3148 1.59363 0
M  V30 4704 C 445.068 -1.8753 0.250844 0
M  V30 4705 O 444.411 -1.66821 -0.769174 0
M  V30 4706 C 444.473 -2.50731 2.57632 0
M  V30 4707 C 444.137 -2.15811 4.02833 0
M  V30 4708 C 445.134 -1.71822 4.90686 0
M  V30 4709 C 442.819 -2.26509 4.48329 0
M  V30 4710 C 444.813 -1.3899 6.22062 0
M  V30 4711 C 442.5 -1.93289 5.79726 0
M  V30 4712 C 443.498 -1.49599 6.66415 0
M  V30 4713 O 443.186 -1.16812 7.95368 0
M  V30 4714 H 442.918 -0.406315 0.540263 0
M  V30 4715 H 445.472 -0.653569 1.94725 0
M  V30 4716 H 443.702 -3.19817 2.1738 0
M  V30 4717 H 445.391 -3.12797 2.58675 0
M  V30 4718 H 446.157 -1.63031 4.56778 0
M  V30 4719 H 442.036 -2.59471 3.81045 0
M  V30 4720 H 445.58 -1.04816 6.89681 0
M  V30 4721 H 441.477 -2.01718 6.13172 0
M  V30 4722 H 442.245 -1.30259 8.08069 0
M  V30 4723 N 444.908 -1.36708 -0.784132 0
M  V30 4724 C 446.138 -1.34203 -1.57077 0
M  V30 4725 C 446.546 0.0774945 -1.89041 0
M  V30 4726 O 445.889 1.04628 -1.50992 0
M  V30 4727 C 445.951 -2.10351 -2.91535 0
M  V30 4728 C 445.615 -3.59405 -2.82272 0
M  V30 4729 C 446.612 -4.53545 -2.54151 0
M  V30 4730 C 444.297 -4.02362 -3.00683 0
M  V30 4731 C 446.291 -5.8862 -2.44551 0
M  V30 4732 C 443.978 -5.37526 -2.90704 0
M  V30 4733 C 444.976 -6.30468 -2.62677 0
M  V30 4734 O 444.664 -7.63149 -2.52702 0
M  V30 4735 H 444.396 -0.461791 -0.493685 0
M  V30 4736 H 446.95 -1.80475 -0.980712 0
M  V30 4737 H 445.18 -1.5875 -3.52612 0
M  V30 4738 H 446.869 -2.00636 -3.52845 0
M  V30 4739 H 447.635 -4.21669 -2.39625 0
M  V30 4740 H 443.514 -3.30389 -3.21503 0
M  V30 4741 H 447.058 -6.61133 -2.22596 0
M  V30 4742 H 442.955 -5.69008 -3.04795 0
M  V30 4743 H 443.723 -7.73331 -2.68144 0
M  V30 4744 N 446.386 1.0089 -1.21074 0
M  V30 4745 C 447.316 2.1145 -0.990523 0
M  V30 4746 C 448.297 1.69897 0.0831699 0
M  V30 4747 O 449.482 1.94052 -0.0758853 0
M  V30 4748 C 446.612 3.42914 -0.550177 0
M  V30 4749 C 445.566 3.98244 -1.56799 0
M  V30 4750 C 444.892 5.25568 -0.984013 0
M  V30 4751 C 446.192 4.30752 -2.95381 0
M  V30 4752 H 447.886 2.3013 -1.91521 0
M  V30 4753 H 445.432 1.10592 -0.92225 0
M  V30 4754 H 447.385 4.19653 -0.383305 0
M  V30 4755 H 446.109 3.24014 0.41015 0
M  V30 4756 H 444.768 3.23621 -1.72236 0
M  V30 4757 H 444.416 5.02998 -0.0155216 0
M  V30 4758 H 444.116 5.63551 -1.66384 0
M  V30 4759 H 445.64 6.04955 -0.828378 0
M  V30 4760 H 447.054 4.98349 -2.8341 0
M  V30 4761 H 445.451 4.79869 -3.60341 0
M  V30 4762 H 446.521 3.39192 -3.46521 0
M  V30 4763 N 447.864 1.01787 1.20321 0
M  V30 4764 C 448.827 0.593972 2.2137 0
M  V30 4765 C 449.827 -0.336553 1.57239 0
M  V30 4766 O 451.017 -0.125069 1.7375 0
M  V30 4767 C 448.149 -0.132433 3.40643 0
M  V30 4768 H 449.342 1.48791 2.60387 0
M  V30 4769 H 446.895 0.807803 1.33807 0
M  V30 4770 H 447.63 -1.04123 3.0713 0
M  V30 4771 H 447.415 0.53605 3.88418 0
M  V30 4772 H 448.905 -0.416314 4.1552 0
M  V30 4773 N 449.342 -1.36122 0.79427 0
M  V30 4774 C 450.272 -2.32551 0.210328 0
M  V30 4775 C 451.253 -1.56884 -0.657386 0
M  V30 4776 O 452.438 -1.85014 -0.590207 0
M  V30 4777 C 449.568 -3.41128 -0.651819 0
M  V30 4778 C 448.522 -4.27842 0.116395 0
M  V30 4779 C 447.848 -5.2763 -0.86666 0
M  V30 4780 C 449.148 -5.05647 1.30837 0
M  V30 4781 H 450.842 -2.81636 1.01594 0
M  V30 4782 H 448.388 -1.35407 0.489981 0
M  V30 4783 H 450.341 -4.07581 -1.07031 0
M  V30 4784 H 449.065 -2.90622 -1.49019 0
M  V30 4785 H 447.724 -3.62952 0.515915 0
M  V30 4786 H 447.372 -4.73395 -1.70019 0
M  V30 4787 H 447.072 -5.86514 -0.35705 0
M  V30 4788 H 448.596 -5.96955 -1.28361 0
M  V30 4789 H 450.01 -5.65113 0.965393 0
M  V30 4790 H 448.407 -5.73967 1.75161 0
M  V30 4791 H 449.477 -4.37006 2.10128 0
M  V30 4792 N 450.82 -0.546701 -1.47814 0
M  V30 4793 C 451.75 0.195317 -2.32682 0
M  V30 4794 C 452.731 0.918981 -1.43139 0
M  V30 4795 O 453.916 0.901501 -1.72008 0
M  V30 4796 C 451.046 1.23237 -3.247 0
M  V30 4797 C 450 0.625818 -4.234 0
M  V30 4798 C 449.326 1.76674 -5.04669 0
M  V30 4799 C 450.626 -0.413515 -5.2066 0
M  V30 4800 H 452.32 -0.513184 -2.94969 0
M  V30 4801 H 449.866 -0.248241 -1.41844 0
M  V30 4802 H 451.819 1.75955 -3.82907 0
M  V30 4803 H 450.543 1.97067 -2.60446 0
M  V30 4804 H 449.202 0.120023 -3.66403 0
M  V30 4805 H 448.85 2.49383 -4.36826 0
M  V30 4806 H 448.55 1.36673 -5.71484 0
M  V30 4807 H 450.074 2.29738 -5.65732 0
M  V30 4808 H 451.488 0.0272042 -5.73294 0
M  V30 4809 H 449.885 -0.731825 -5.95621 0
M  V30 4810 H 450.955 -1.31325 -4.66778 0
M  V30 4811 N 452.299 1.55045 -0.282633 0
M  V30 4812 C 453.229 2.2579 0.595066 0
M  V30 4813 C 454.21 1.25074 1.15284 0
M  V30 4814 O 455.395 1.5381 1.18559 0
M  V30 4815 C 452.525 2.98472 1.77572 0
M  V30 4816 C 451.479 4.0618 1.34914 0
M  V30 4817 C 450.805 4.66477 2.6135 0
M  V30 4818 C 452.105 5.1996 0.493821 0
M  V30 4819 H 453.799 2.994 0.00505653 0
M  V30 4820 H 451.345 1.44 0.000992001 0
M  V30 4821 H 453.298 3.46677 2.39568 0
M  V30 4822 H 452.022 2.2241 2.39168 0
M  V30 4823 H 450.681 3.58797 0.752338 0
M  V30 4824 H 450.329 3.87074 3.2122 0
M  V30 4825 H 450.029 5.39207 2.33516 0
M  V30 4826 H 451.553 5.17435 3.24181 0
M  V30 4827 H 452.967 5.64172 1.01898 0
M  V30 4828 H 451.364 5.99299 0.310047 0
M  V30 4829 H 452.434 4.82462 -0.485593 0
M  V30 4830 N 453.777 0.010035 1.57597 0
M  V30 4831 C 455.002 -0.687021 1.95691 0
M  V30 4832 C 455.427 -1.65952 0.885519 0
M  V30 4833 O 454.785 -1.80633 -0.15543 0
M  V30 4834 C 454.833 -1.3864 3.32884 0
M  V30 4835 O 453.937 -2.50115 3.27897 0
M  V30 4836 H 453.278 -0.181989 0.638573 0
M  V30 4837 H 455.808 0.0662122 2.04493 0
M  V30 4838 H 455.818 -1.74754 3.6868 0
M  V30 4839 H 454.493 -0.673411 4.10412 0
M  V30 4840 H 453.07 -2.16253 3.03791 0
M  V30 4841 N 455.255 -1.55392 -0.262866 0
M  V30 4842 C 456.185 -1.91978 -1.32917 0
M  V30 4843 C 457.166 -0.7828 -1.51017 0
M  V30 4844 O 458.351 -1.04178 -1.63892 0
M  V30 4845 C 455.481 -2.20055 -2.68687 0
M  V30 4846 C 454.435 -3.35854 -2.65304 0
M  V30 4847 C 453.761 -3.49435 -4.04721 0
M  V30 4848 C 455.061 -4.71977 -2.23685 0
M  V30 4849 H 456.755 -2.81292 -1.02544 0
M  V30 4850 H 454.301 -1.3534 -0.491846 0
M  V30 4851 H 456.254 -2.44237 -3.43404 0
M  V30 4852 H 454.978 -1.27551 -3.00663 0
M  V30 4853 H 453.637 -3.11655 -1.93045 0
M  V30 4854 H 453.285 -2.54379 -4.33936 0
M  V30 4855 H 452.985 -4.27297 -4.0335 0
M  V30 4856 H 454.509 -3.7592 -4.81161 0
M  V30 4857 H 455.923 -4.95637 -2.88127 0
M  V30 4858 H 454.32 -5.52828 -2.33456 0
M  V30 4859 H 455.39 -4.70115 -1.18827 0
M  V30 4860 N 456.733 0.527833 -1.48498 0
M  V30 4861 C 457.663 1.64136 -1.66077 0
M  V30 4862 C 458.644 1.62286 -0.509625 0
M  V30 4863 O 459.829 1.79449 -0.742413 0
M  V30 4864 C 456.959 3.02717 -1.70234 0
M  V30 4865 C 455.913 3.19426 -2.8487 0
M  V30 4866 C 455.239 4.5909 -2.74118 0
M  V30 4867 C 456.539 3.01993 -4.26142 0
M  V30 4868 H 458.233 1.4968 -2.593 0
M  V30 4869 H 455.779 0.718654 -1.24785 0
M  V30 4870 H 457.732 3.80491 -1.8112 0
M  V30 4871 H 456.456 3.18201 -0.735911 0
M  V30 4872 H 455.115 2.4407 -2.73542 0
M  V30 4873 H 454.763 4.71413 -1.7544 0
M  V30 4874 H 454.463 4.71214 -3.51042 0
M  V30 4875 H 455.987 5.3896 -2.86974 0
M  V30 4876 H 457.401 3.69558 -4.38292 0
M  V30 4877 H 455.798 3.2561 -5.04082 0
M  V30 4878 H 456.868 1.98396 -4.42456 0
M  V30 4879 N 458.211 1.37122 0.776871 0
M  V30 4880 C 459.457 1.32243 1.53752 0
M  V30 4881 C 459.79 -0.0944745 1.9397 0
M  V30 4882 O 459.065 -1.05068 1.6368 0
M  V30 4883 C 459.348 2.25681 2.80607 0
M  V30 4884 C 459.201 3.76127 2.46676 0
M  V30 4885 C 460.52 2.17657 3.82509 0
M  V30 4886 H 457.639 0.481704 0.557791 0
M  V30 4887 H 460.281 1.6778 0.891612 0
M  V30 4888 H 458.431 1.95505 3.35723 0
M  V30 4889 H 460.103 4.16877 1.97513 0
M  V30 4890 H 458.346 3.94946 1.79443 0
M  V30 4891 H 459.017 4.36933 3.37333 0
M  V30 4892 H 461.493 2.44245 3.36873 0
M  V30 4893 H 460.369 2.85185 4.69 0
M  V30 4894 H 460.63 1.16785 4.26396 0
M  V30 4895 N 459.689 -1.00246 1.21608 0
M  V30 4896 C 460.622 -2.08794 0.920892 0
M  V30 4897 C 461.6 -1.62059 -0.132552 0
M  V30 4898 O 462.784 -1.885 -0.0030366 0
M  V30 4899 C 459.911 -3.36525 0.383226 0
M  V30 4900 C 458.957 -4.02172 1.41987 0
M  V30 4901 S 459.79 -4.44256 2.98994 0
M  V30 4902 C 460.946 -5.7517 2.4684 0
M  V30 4903 H 461.179 -2.33511 1.8401 0
M  V30 4904 H 458.712 -1.13562 1.04609 0
M  V30 4905 H 460.67 -4.10423 0.0795871 0
M  V30 4906 H 459.331 -3.09854 -0.514711 0
M  V30 4907 H 458.524 -4.94114 0.993335 0
M  V30 4908 H 458.126 -3.34559 1.67171 0
M  V30 4909 H 460.418 -6.51042 1.87484 0
M  V30 4910 H 461.361 -6.22638 3.37235 0
M  V30 4911 H 461.769 -5.32112 1.88461 0
M  V30 4912 N 461.167 -1.02423 -1.1978 0
M  V30 4913 C 462.413 -0.719051 -1.89625 0
M  V30 4914 C 462.746 0.750083 -1.7913 0
M  V30 4915 O 462.021 1.54574 -1.18056 0
M  V30 4916 C 462.304 -1.16499 -3.40735 0
M  V30 4917 C 462.157 -2.695 -3.60125 0
M  V30 4918 C 463.476 -0.742166 -4.33797 0
M  V30 4919 H 460.595 -0.26269 -0.688595 0
M  V30 4920 H 463.237 -1.27333 -1.41018 0
M  V30 4921 H 461.387 -0.69341 -3.82262 0
M  V30 4922 H 463.059 -3.24569 -3.278 0
M  V30 4923 H 461.302 -3.10113 -3.03336 0
M  V30 4924 H 461.973 -2.95757 -4.66081 0
M  V30 4925 H 464.449 -1.1477 -3.99959 0
M  V30 4926 H 463.325 -1.08213 -5.38127 0
M  V30 4927 H 463.586 0.355747 -4.40666 0
M  V30 4928 N 462.645 1.35699 -0.801477 0
M  V30 4929 C 463.894 1.98165 -0.375979 0
M  V30 4930 C 464.207 1.64306 1.06127 0
M  V30 4931 O 465.413 2.20097 1.58964 0
M  V30 4932 C 463.869 3.54497 -0.621305 0
M  V30 4933 C 463.477 3.9727 -2.07076 0
M  V30 4934 C 465.221 4.23697 -0.26091 0
M  V30 4935 C 463.128 5.46427 -2.26211 0
M  V30 4936 H 462.058 0.741478 -0.136844 0
M  V30 4937 H 464.709 1.54834 -0.984814 0
M  V30 4938 H 463.091 3.95958 0.0574112 0
M  V30 4939 H 464.265 3.66974 -2.78687 0
M  V30 4940 H 462.58 3.40943 -2.39054 0
M  V30 4941 H 465.177 5.33334 -0.381994 0
M  V30 4942 H 465.52 4.0869 0.792344 0
M  V30 4943 H 466.053 3.87639 -0.893339 0
M  V30 4944 H 462.792 5.66396 -3.29963 0
M  V30 4945 H 462.312 5.78309 -1.59119 0
M  V30 4946 H 463.991 6.12819 -2.07513 0
M  V30 4947 N 464.123 0.554532 1.47522 0
M  V30 4948 C 465.348 0.0322661 2.07375 0
M  V30 4949 C 465.773 -1.25079 1.40488 0
M  V30 4950 O 465.131 -1.74859 0.47896 0
M  V30 4951 C 465.179 -0.149397 3.6029 0
M  V30 4952 O 464.283 -1.21259 3.9417 0
M  V30 4953 H 463.624 0.0501228 0.662106 0
M  V30 4954 H 466.154 0.769452 1.8958 0
M  V30 4955 H 466.164 -0.364437 4.06369 0
M  V30 4956 H 464.839 0.787743 4.08372 0
M  V30 4957 H 463.416 -0.97825 3.5984 0
M  V30 4958 N 465.601 -1.54893 0.290851 0
M  V30 4959 C 467.012 -1.85584 -0.203816 0
M  V30 4960 C 467.363 -1.21285 -1.54222 0
M  V30 4961 O 466.488 -0.506841 -2.10381 0
M  V30 4962 C 467.083 -3.367 -0.376595 0
M  V30 4963 C 465.642 -3.6746 -0.815485 0
M  V30 4964 C 464.789 -2.77178 0.0821087 0
M  V30 4965 H 467.74 -1.50208 0.512175 0
M  V30 4966 H 467.761 -3.60656 -1.21275 0
M  V30 4967 H 467.273 -3.8347 0.59767 0
M  V30 4968 H 465.374 -3.26201 -1.80066 0
M  V30 4969 H 465.487 -4.7478 -0.641905 0
M  V30 4970 H 463.851 -2.50925 -0.436895 0
M  V30 4971 H 464.634 -3.26767 1.05254 0
M  V30 4972 N 467.08 -0.0183926 -1.57589 0
M  V30 4973 C 468.326 0.663543 -1.91638 0
M  V30 4974 C 468.659 1.72392 -0.894134 0
M  V30 4975 O 467.934 1.94316 0.0846449 0
M  V30 4976 C 468.217 1.28984 -3.36207 0
M  V30 4977 C 468.07 0.239761 -4.49161 0
M  V30 4978 C 469.389 2.2109 -3.80536 0
M  V30 4979 H 466.508 0.239746 -0.696915 0
M  V30 4980 H 469.15 -0.073456 -1.89858 0
M  V30 4981 H 467.3 1.91799 -3.37854 0
M  V30 4982 H 468.972 -0.390119 -4.59647 0
M  V30 4983 H 467.215 -0.435972 -4.31604 0
M  V30 4984 H 467.886 0.717383 -5.47319 0
M  V30 4985 H 470.362 1.68273 -3.80557 0
M  V30 4986 H 469.238 2.61869 -4.82406 0
M  V30 4987 H 469.499 3.09764 -3.15434 0
M  V30 4988 N 468.558 1.5553 0.254621 0
M  V30 4989 C 469.807 1.76202 0.981612 0
M  V30 4990 C 470.12 0.580883 1.86776 0
M  V30 4991 O 471.326 0.670448 2.63092 0
M  V30 4992 C 469.782 3.11921 1.79537 0
M  V30 4993 C 469.39 4.37659 0.956991 0
M  V30 4994 C 471.134 3.41936 2.51555 0
M  V30 4995 C 469.041 5.64411 1.76619 0
M  V30 4996 H 467.971 0.656841 0.370237 0
M  V30 4997 H 470.622 1.81969 0.236556 0
M  V30 4998 H 469.004 3.00241 2.58208 0
M  V30 4999 H 470.178 4.60307 0.21315 0
M  V30 5000 H 468.493 4.14922 0.350497 0
M  V30 5001 H 471.09 4.33849 3.12536 0
M  V30 5002 H 471.433 2.62905 3.22779 0
M  V30 5003 H 471.966 3.54797 1.799 0
M  V30 5004 H 468.705 6.46241 1.09783 0
M  V30 5005 H 468.225 5.45877 2.48551 0
M  V30 5006 H 469.904 6.03386 2.33527 0
M  V30 5007 N 470.036 -0.519951 1.48776 0
M  V30 5008 C 470.968 -1.63973 1.60142 0
M  V30 5009 C 471.981 -1.55404 0.485117 0
M  V30 5010 O 473.17 -1.61682 0.756391 0
M  V30 5011 C 470.27 -3.02676 1.52449 0
M  V30 5012 C 469.443 -3.36624 2.79291 0
M  V30 5013 C 468.502 -4.54652 2.64912 0
M  V30 5014 O 467.528 -4.57374 3.38818 0
M  V30 5015 N 468.73 -5.53432 1.75195 0
M  V30 5016 H 471.495 -1.54656 2.56713 0
M  V30 5017 H 469.056 -0.707439 1.45626 0
M  V30 5018 H 471.048 -3.79525 1.4051 0
M  V30 5019 H 469.618 -3.06018 0.638125 0
M  V30 5020 H 468.838 -2.48855 3.0572 0
M  V30 5021 H 470.126 -3.56094 3.6342 0
M  V30 5022 H 469.524 -5.54018 1.14371 0
M  V30 5023 H 468.081 -6.29459 1.69189 0
M  V30 5024 N 471.514 -1.37532 -0.769588 0
M  V30 5025 C 472.444 -1.36172 -1.89682 0
M  V30 5026 C 473.425 -0.23001 -1.68538 0
M  V30 5027 O 474.61 -0.43069 -1.89364 0
M  V30 5028 C 471.74 -1.1701 -3.26995 0
M  V30 5029 C 470.694 -2.27216 -3.62708 0
M  V30 5030 C 470.02 -1.93174 -4.98586 0
M  V30 5031 C 471.32 -3.6941 -3.69234 0
M  V30 5032 H 473.014 -2.30499 -1.91078 0
M  V30 5033 H 470.56 -1.10953 -0.917902 0
M  V30 5034 H 472.513 -1.14688 -4.05493 0
M  V30 5035 H 471.237 -0.191395 -3.26039 0
M  V30 5036 H 469.896 -2.28697 -2.86519 0
M  V30 5037 H 469.544 -0.938281 -4.94171 0
M  V30 5038 H 469.244 -2.66973 -5.23449 0
M  V30 5039 H 470.768 -1.92443 -5.79481 0
M  V30 5040 H 472.182 -3.70047 -4.37879 0
M  V30 5041 H 470.579 -4.4228 -4.05597 0
M  V30 5042 H 471.649 -4.0288 -2.69844 0
M  V30 5043 N 472.992 0.995999 -1.22138 0
M  V30 5044 C 473.924 2.08745 -0.946485 0
M  V30 5045 C 474.937 1.62633 0.0737356 0
M  V30 5046 O 476.126 1.77782 -0.159886 0
M  V30 5047 C 473.226 3.36516 -0.401305 0
M  V30 5048 C 472.399 4.11672 -1.47801 0
M  V30 5049 C 471.458 5.17728 -0.940461 0
M  V30 5050 O 470.484 5.45482 -1.62596 0
M  V30 5051 N 471.686 5.80005 0.239723 0
M  V30 5052 H 474.451 2.32908 -1.88611 0
M  V30 5053 H 472.012 1.16152 -1.12785 0
M  V30 5054 H 474.004 4.04691 -0.0270837 0
M  V30 5055 H 472.574 3.0944 0.443354 0
M  V30 5056 H 471.794 3.38171 -2.02568 0
M  V30 5057 H 473.082 4.58657 -2.20253 0
M  V30 5058 H 472.48 5.5982 0.813518 0
M  V30 5059 H 471.037 6.4943 0.555361 0
M  V30 5060 N 474.47 1.03057 1.19235 0
M  V30 5061 C 475.881 0.757449 1.70645 0
M  V30 5062 C 476.232 -0.722735 1.82403 0
M  V30 5063 O 475.357 -1.56325 1.49638 0
M  V30 5064 C 475.952 1.36833 3.09939 0
M  V30 5065 C 474.511 1.14375 3.58602 0
M  V30 5066 C 473.658 1.46533 2.35422 0
M  V30 5067 H 476.609 1.19828 1.04052 0
M  V30 5068 H 476.63 0.766184 3.72706 0
M  V30 5069 H 476.142 2.44562 3.01349 0
M  V30 5070 H 474.243 0.0847542 3.72504 0
M  V30 5071 H 474.356 1.83366 4.42622 0
M  V30 5072 H 472.72 0.884712 2.38841 0
M  V30 5073 H 473.503 2.55349 2.2946 0
M  V30 5074 N 475.948 -1.35272 0.808662 0
M  V30 5075 C 477.176 -2.02946 0.402537 0
M  V30 5076 C 477.591 -1.60937 -0.987147 0
M  V30 5077 O 476.948 -0.807917 -1.63643 0
M  V30 5078 C 476.999 -3.58317 0.47868 0
M  V30 5079 O 476.72 -3.98799 1.81358 0
M  V30 5080 C 478.221 -4.43251 0.0656281 0
M  V30 5081 H 475.441 -0.650831 0.163279 0
M  V30 5082 H 477.985 -1.72849 1.09286 0
M  V30 5083 H 476.14 -3.87055 -0.163415 0
M  V30 5084 H 476.554 -4.93451 1.77781 0
M  V30 5085 H 478.028 -5.51738 0.170017 0
M  V30 5086 H 478.505 -4.27913 -0.989278 0
M  V30 5087 H 479.111 -4.19813 0.68096 0
M  V30 5088 N 477.426 -0.562348 -1.47226 0
M  V30 5089 C 478.673 -0.0402165 -2.0246 0
M  V30 5090 C 479.001 1.31169 -1.43614 0
M  V30 5091 O 478.256 1.86805 -0.5833 0
M  V30 5092 C 478.555 0.0969817 -3.57268 0
M  V30 5093 C 478.221 -1.1847 -4.35058 0
M  V30 5094 C 476.883 -1.53588 -4.56031 0
M  V30 5095 C 479.235 -2.03378 -4.79882 0
M  V30 5096 C 476.563 -2.73452 -5.19077 0
M  V30 5097 C 478.915 -3.2245 -5.44251 0
M  V30 5098 C 477.579 -3.57876 -5.63455 0
M  V30 5099 H 476.849 -0.0147163 -0.740854 0
M  V30 5100 H 479.496 -0.734895 -1.76838 0
M  V30 5101 H 477.801 0.87466 -3.81912 0
M  V30 5102 H 479.498 0.516408 -3.97661 0
M  V30 5103 H 476.088 -0.90126 -4.19017 0
M  V30 5104 H 480.272 -1.77553 -4.63453 0
M  V30 5105 H 475.528 -3.01062 -5.32139 0
M  V30 5106 H 479.702 -3.88526 -5.77945 0
M  V30 5107 H 477.329 -4.50849 -6.12078 0
M  V30 5108 N 478.904 1.54736 -0.299062 0
M  V30 5109 C 480.132 2.04512 0.313447 0
M  V30 5110 C 480.547 1.17643 1.47667 0
M  V30 5111 O 479.904 0.20164 1.81383 0
M  V30 5112 C 479.955 3.53171 0.771542 0
M  V30 5113 O 479.676 4.36736 -0.345379 0
M  V30 5114 C 481.177 4.18936 1.4494 0
M  V30 5115 H 478.397 0.667507 0.0683784 0
M  V30 5116 H 480.941 1.99752 -0.438129 0
M  V30 5117 H 479.096 3.58298 1.47314 0
M  V30 5118 H 479.51 5.24499 0.0109219 0
M  V30 5119 H 480.984 5.24482 1.72111 0
M  V30 5120 H 481.461 3.68554 2.38883 0
M  V30 5121 H 482.067 4.17879 0.791028 0
M  V30 5122 N 480.382 0.0267497 1.57577 0
M  V30 5123 C 481.793 -0.512413 1.79531 0
M  V30 5124 C 482.144 -1.72391 0.936791 0
M  V30 5125 O 481.269 -2.15903 0.146543 0
M  V30 5126 C 481.864 -0.936378 3.25603 0
M  V30 5127 C 480.423 -1.42067 3.4856 0
M  V30 5128 C 479.57 -0.384278 2.74624 0
M  V30 5129 H 482.521 0.252797 1.56674 0
M  V30 5130 H 482.542 -1.80088 3.35184 0
M  V30 5131 H 482.054 -0.0544332 3.88062 0
M  V30 5132 H 480.155 -2.32262 2.9135 0
M  V30 5133 H 480.268 -1.42968 4.57271 0
M  V30 5134 H 478.632 -0.851855 2.40032 0
M  V30 5135 H 479.415 0.489159 3.39797 0
M  V30 5136 N 481.861 -1.55662 -0.24637 0
M  V30 5137 C 482.794 -1.85332 -1.33143 0
M  V30 5138 C 483.772 -0.708464 -1.46354 0
M  V30 5139 O 484.956 -0.954274 -1.6256 0
M  V30 5140 C 482.083 -2.0385 -2.70487 0
M  V30 5141 C 481.129 -3.26488 -2.74423 0
M  V30 5142 S 481.962 -4.83124 -2.30979 0
M  V30 5143 C 483.118 -5.04647 -3.70246 0
M  V30 5144 H 483.351 -2.77077 -1.07777 0
M  V30 5145 H 480.884 -1.47776 -0.44738 0
M  V30 5146 H 482.842 -2.15202 -3.49569 0
M  V30 5147 H 481.503 -1.12947 -2.9309 0
M  V30 5148 H 480.696 -3.36413 -3.7529 0
M  V30 5149 H 480.298 -3.13864 -2.03385 0
M  V30 5150 H 482.59 -4.92023 -4.65746 0
M  V30 5151 H 483.533 -6.06625 -3.65255 0
M  V30 5152 H 483.941 -4.32491 -3.62784 0
M  V30 5153 N 483.339 0.512053 -1.4905 0
M  V30 5154 C 484.755 0.84224 -1.35567 0
M  V30 5155 C 484.955 1.97878 -0.380319 0
M  V30 5156 O 484.011 2.51769 0.19201 0
M  V30 5157 C 485.324 1.19286 -2.76028 0
M  V30 5158 C 486.872 1.30171 -2.84648 0
M  V30 5159 C 487.347 1.68568 -4.25851 0
M  V30 5160 N 488.838 1.75638 -4.28609 0
M  V30 5161 C 489.573 2.06769 -5.34821 0
M  V30 5162 N 489.069 2.36201 -6.51292 0
M  V30 5163 N 490.862 2.07927 -5.22229 0
M  V30 5164 H 483.013 -0.237574 -2.11067 0
M  V30 5165 H 485.276 -0.0436747 -0.946993 0
M  V30 5166 H 484.982 0.431199 -3.49047 0
M  V30 5167 H 484.856 2.13889 -3.10695 0
M  V30 5168 H 487.243 2.05411 -2.11873 0
M  V30 5169 H 487.324 0.336457 -2.53578 0
M  V30 5170 H 486.968 0.938824 -4.99148 0
M  V30 5171 H 486.898 2.66174 -4.54377 0
M  V30 5172 H 489.389 1.55097 -3.44606 0
M  V30 5173 H 489.702 2.59112 -7.28066 0
M  V30 5174 H 488.047 2.33681 -6.54536 0
M  V30 5175 H 491.238 1.84403 -4.30248 0
M  V30 5176 H 491.411 2.31856 -6.05101 0
M  V30 5177 N 484.817 1.37938 0.762283 0
M  V30 5178 C 486.063 1.33866 1.52341 0
M  V30 5179 C 486.396 -0.0738961 1.94059 0
M  V30 5180 O 485.671 -1.03326 1.64785 0
M  V30 5181 C 485.954 2.28644 2.78197 0
M  V30 5182 C 485.807 3.78722 2.42672 0
M  V30 5183 C 487.126 2.21702 3.80179 0
M  V30 5184 H 484.245 0.487593 0.55265 0
M  V30 5185 H 486.887 1.68717 0.873767 0
M  V30 5186 H 485.037 1.99055 3.33631 0
M  V30 5187 H 486.709 4.18948 1.93081 0
M  V30 5188 H 484.952 3.96827 1.75244 0
M  V30 5189 H 485.623 4.40486 3.3268 0
M  V30 5190 H 488.099 2.47805 3.34263 0
M  V30 5191 H 486.975 2.90143 4.65949 0
M  V30 5192 H 487.236 1.21301 4.25133 0
M  V30 5193 N 486.295 -0.989507 1.22664 0
M  V30 5194 C 487.258 -2.06183 1.00106 0
M  V30 5195 C 488.258 -1.60765 -0.0337726 0
M  V30 5196 O 489.448 -1.72989 0.205072 0
M  V30 5197 C 486.58 -3.37021 0.51279 0
M  V30 5198 H 487.773 -2.27629 1.95256 0
M  V30 5199 H 485.326 -1.16158 1.0458 0
M  V30 5200 H 486.061 -3.21261 -0.442917 0
M  V30 5201 H 485.846 -3.71323 1.25942 0
M  V30 5202 H 487.336 -4.1591 0.375315 0
M  V30 5203 N 487.773 -1.03688 -1.18687 0
M  V30 5204 C 488.703 -0.645407 -2.24403 0
M  V30 5205 C 489.684 0.349511 -1.66471 0
M  V30 5206 O 490.869 0.230453 -1.92828 0
M  V30 5207 C 487.999 -0.00365337 -3.473 0
M  V30 5208 C 486.953 -0.921705 -4.17958 0
M  V30 5209 C 486.279 -0.144629 -5.34504 0
M  V30 5210 C 487.579 -2.23909 -4.71871 0
M  V30 5211 H 489.273 -1.52917 -2.57404 0
M  V30 5212 H 486.819 -0.736711 -1.23728 0
M  V30 5213 H 488.772 0.281908 -4.20456 0
M  V30 5214 H 487.496 0.914963 -3.13522 0
M  V30 5215 H 486.155 -1.19159 -3.46694 0
M  V30 5216 H 485.803 0.776274 -4.96974 0
M  V30 5217 H 485.503 -0.756206 -5.82714 0
M  V30 5218 H 487.027 0.134004 -6.10453 0
M  V30 5219 H 488.441 -2.0145 -5.36741 0
M  V30 5220 H 486.838 -2.8033 -5.30599 0
M  V30 5221 H 487.908 -2.88822 -3.895 0
M  V30 5222 N 489.251 1.34841 -0.815825 0
M  V30 5223 C 490.214 2.27959 -0.238185 0
M  V30 5224 C 491.214 1.49983 0.579816 0
M  V30 5225 O 492.404 1.69617 0.396953 0
M  V30 5226 C 489.536 3.34314 0.666876 0
M  V30 5227 H 490.729 2.80558 -1.05958 0
M  V30 5228 H 488.282 1.44852 -0.587156 0
M  V30 5229 H 489.017 2.86916 1.5116 0
M  V30 5230 H 488.802 3.92014 0.0819106 0
M  V30 5231 H 490.292 4.0379 1.06506 0
M  V30 5232 N 490.729 0.570148 1.46925 0
M  V30 5233 C 491.977 0.0508523 2.02036 0
M  V30 5234 C 492.298 -1.30885 1.44548 0
M  V30 5235 O 491.568 -1.85647 0.625453 0
M  V30 5236 H 490.148 0.0158088 0.746833 0
M  V30 5237 H 492.81 0.743086 1.80178 0
M  V30 5238 H 491.906 -0.027575 3.12088 0
M  V30 5239 N 492.207 -1.54576 0.307264 0
M  V30 5240 C 493.435 -2.04675 -0.302597 0
M  V30 5241 C 493.85 -1.18425 -1.47041 0
M  V30 5242 O 493.207 -0.211257 -1.81273 0
M  V30 5243 C 493.258 -3.53575 -0.752801 0
M  V30 5244 O 492.979 -4.36547 0.368536 0
M  V30 5245 C 494.48 -4.19699 -1.42717 0
M  V30 5246 H 491.7 -0.66786 -0.0648374 0
M  V30 5247 H 494.244 -1.99516 0.448716 0
M  V30 5248 H 492.399 -3.59074 -1.45412 0
M  V30 5249 H 492.813 -5.24497 0.0168937 0
M  V30 5250 H 494.287 -5.25388 -1.69327 0
M  V30 5251 H 494.764 -3.69815 -2.36925 0
M  V30 5252 H 495.37 -4.18293 -0.768856 0
M  V30 5253 N 493.685 -0.035106 -1.57561 0
M  V30 5254 C 494.932 0.642229 -1.92046 0
M  V30 5255 C 495.26 1.7179 -0.91206 0
M  V30 5256 O 494.515 1.95544 0.0781153 0
M  V30 5257 C 494.814 1.29149 -3.3325 0
M  V30 5258 C 494.48 0.345604 -4.49574 0
M  V30 5259 C 493.142 0.0852775 -4.81124 0
M  V30 5260 C 495.494 -0.303569 -5.20315 0
M  V30 5261 C 492.822 -0.831927 -5.80772 0
M  V30 5262 C 495.174 -1.20886 -6.20942 0
M  V30 5263 C 493.838 -1.47802 -6.50931 0
M  V30 5264 H 493.108 0.235008 -0.702746 0
M  V30 5265 H 495.755 -0.0981529 -1.91248 0
M  V30 5266 H 494.06 2.10676 -3.30337 0
M  V30 5267 H 495.757 1.82223 -3.57205 0
M  V30 5268 H 492.347 0.558683 -4.24943 0
M  V30 5269 H 496.531 -0.115515 -4.96166 0
M  V30 5270 H 491.787 -1.0481 -6.02349 0
M  V30 5271 H 495.961 -1.71804 -6.74875 0
M  V30 5272 H 493.588 -2.19039 -7.2796 0
M  V30 5273 N 495.163 1.55791 0.238111 0
M  V30 5274 C 496.113 1.87444 1.29803 0
M  V30 5275 C 497.097 0.736043 1.43078 0
M  V30 5276 O 498.289 0.998146 1.46171 0
M  V30 5277 C 495.418 2.18028 2.65177 0
M  V30 5278 C 494.504 3.38217 2.55871 0
M  V30 5279 N 494.895 4.57264 2.16202 0
M  V30 5280 C 493.193 3.41502 2.86866 0
M  V30 5281 C 493.894 5.3941 2.17744 0
M  V30 5282 N 492.87 4.78695 2.57589 0
M  V30 5283 H 496.672 2.7701 0.981965 0
M  V30 5284 H 494.186 1.56135 0.44672 0
M  V30 5285 H 496.183 2.38873 3.4168 0
M  V30 5286 H 494.843 1.29765 2.97643 0
M  V30 5287 H 495.854 4.82727 1.87602 0
M  V30 5288 H 492.531 2.63536 3.23813 0
M  V30 5289 H 493.921 6.44671 1.89339 0
M  V30 5290 N 496.642 -0.504142 1.49319 0
M  V30 5291 C 497.872 -1.28071 1.62116 0
M  V30 5292 C 498.28 -1.86955 0.290566 0
M  V30 5293 O 497.623 -1.68415 -0.733616 0
M  V30 5294 C 497.685 -2.4521 2.62893 0
M  V30 5295 C 497.349 -2.07218 4.0732 0
M  V30 5296 C 498.346 -1.61375 4.94221 0
M  V30 5297 C 496.031 -2.16949 4.53033 0
M  V30 5298 C 498.025 -1.25763 6.2487 0
M  V30 5299 C 495.712 -1.80949 5.83696 0
M  V30 5300 C 496.71 -1.3543 6.69438 0
M  V30 5301 O 496.398 -0.99915 7.97667 0
M  V30 5302 H 496.13 -0.394763 0.54876 0
M  V30 5303 H 498.684 -0.612118 1.96067 0
M  V30 5304 H 496.914 -3.15134 2.24115 0
M  V30 5305 H 498.603 -3.0724 2.65252 0
M  V30 5306 H 499.369 -1.53306 4.60133 0
M  V30 5307 H 495.248 -2.5133 3.86463 0
M  V30 5308 H 498.792 -0.901631 6.91749 0
M  V30 5309 H 494.689 -1.88667 6.17313 0
M  V30 5310 H 495.457 -1.13089 8.1065 0
M  V30 5311 N 498.12 -1.38341 -0.754957 0
M  V30 5312 C 499.35 -1.37504 -1.54195 0
M  V30 5313 C 499.758 0.0373787 -1.89163 0
M  V30 5314 O 499.101 1.01402 -1.53178 0
M  V30 5315 C 499.163 -2.16488 -2.87008 0
M  V30 5316 C 498.827 -3.65311 -2.74585 0
M  V30 5317 C 499.824 -4.58834 -2.44474 0
M  V30 5318 C 497.509 -4.08649 -2.9208 0
M  V30 5319 C 499.503 -5.93675 -2.32011 0
M  V30 5320 C 497.19 -5.43571 -2.79237 0
M  V30 5321 C 498.188 -6.35898 -2.49245 0
M  V30 5322 O 497.876 -7.68338 -2.36458 0
M  V30 5323 H 497.608 -0.472159 -0.483779 0
M  V30 5324 H 500.162 -1.82515 -0.94221 0
M  V30 5325 H 498.392 -1.66194 -3.49166 0
M  V30 5326 H 500.081 -2.08076 -3.4851 0
M  V30 5327 H 500.847 -4.26657 -2.30627 0
M  V30 5328 H 496.726 -3.37134 -3.14422 0
M  V30 5329 H 500.27 -6.65706 -2.08522 0
M  V30 5330 H 496.167 -5.75345 -2.92657 0
M  V30 5331 H 496.935 -7.78845 -2.5168 0
M  V30 5332 N 499.598 0.982988 -1.23187 0
M  V30 5333 C 500.823 1.76455 -1.08988 0
M  V30 5334 C 501.248 1.84726 0.354691 0
M  V30 5335 O 500.606 1.30699 1.25649 0
M  V30 5336 C 500.654 3.17094 -1.71708 0
M  V30 5337 O 499.758 4.00648 -0.977477 0
M  V30 5338 H 499.099 0.542988 -0.382177 0
M  V30 5339 H 501.629 1.23413 -1.63188 0
M  V30 5340 H 501.639 3.67684 -1.76841 0
M  V30 5341 H 500.314 3.10389 -2.76823 0
M  V30 5342 H 498.891 3.59161 -1.0029 0
M  V30 5343 N 501.076 1.04316 1.18135 0
M  V30 5344 C 502.316 0.756937 1.89868 0
M  V30 5345 C 502.68 -0.702609 1.78682 0
M  V30 5346 O 503.881 -1.10255 2.45148 0
M  V30 5347 C 502.152 1.21327 3.36176 0
M  V30 5348 S 503.711 1.05307 4.25976 0
M  V30 5349 H 500.529 0.275143 0.655604 0
M  V30 5350 H 503.131 1.33597 1.42731 0
M  V30 5351 H 501.835 2.27086 3.41848 0
M  V30 5352 H 501.366 0.628137 3.88353 0
M  V30 5353 H 503.381 -0.0280093 4.96192 0
M  V30 5354 N 502.554 -1.34406 0.822964 0
M  V30 5355 C 503.464 -2.33298 0.246838 0
M  V30 5356 C 504.48 -1.62625 -0.618797 0
M  V30 5357 O 505.656 -1.94391 -0.526685 0
M  V30 5358 C 502.721 -3.41785 -0.581731 0
M  V30 5359 C 501.782 -4.28206 0.306309 0
M  V30 5360 C 501.015 -5.31512 -0.48281 0
M  V30 5361 O 501.238 -5.43973 -1.71607 0
M  V30 5362 O 500.172 -6.01749 0.134884 0
M  V30 5363 H 503.998 -2.84401 1.06534 0
M  V30 5364 H 501.583 -1.37466 0.585108 0
M  V30 5365 H 503.465 -4.08028 -1.05313 0
M  V30 5366 H 502.14 -2.92925 -1.37756 0
M  V30 5367 H 501.047 -3.64885 0.825199 0
M  V30 5368 H 502.38 -4.80507 1.06649 0
M  V30 5369 N 504.032 -0.577932 -1.46621 0
M  V30 5370 C 505.448 -0.239242 -1.57797 0
M  V30 5371 C 505.648 1.25843 -1.57371 0
M  V30 5372 O 504.704 2.03988 -1.48813 0
M  V30 5373 C 506.017 -0.884227 -2.87405 0
M  V30 5374 C 507.565 -0.857373 -3.01028 0
M  V30 5375 C 508.04 -1.48181 -4.33366 0
M  V30 5376 N 509.531 -1.44593 -4.40053 0
M  V30 5377 C 510.266 -1.89852 -5.41058 0
M  V30 5378 N 509.762 -2.43062 -6.48762 0
M  V30 5379 N 511.555 -1.80797 -5.3223 0
M  V30 5380 H 503.706 -1.55073 -1.45142 0
M  V30 5381 H 505.969 -0.647903 -0.692044 0
M  V30 5382 H 505.675 -1.93759 -2.93514 0
M  V30 5383 H 505.549 -0.389585 -3.75183 0
M  V30 5384 H 507.936 0.187357 -2.94505 0
M  V30 5385 H 508.017 -1.38999 -2.14739 0
M  V30 5386 H 507.661 -2.52572 -4.40647 0
M  V30 5387 H 507.591 -0.924464 -5.18422 0
M  V30 5388 H 510.082 -1.05694 -3.62819 0
M  V30 5389 H 510.395 -2.75466 -7.22038 0
M  V30 5390 H 508.74 -2.47085 -6.49595 0
M  V30 5391 H 511.931 -1.38989 -4.46989 0
M  V30 5392 H 512.104 -2.16385 -6.10804 0
M  V30 5393 N 505.51 1.54411 -0.315457 0
M  V30 5394 C 506.473 2.22713 0.54142 0
M  V30 5395 C 507.473 1.2179 1.04995 0
M  V30 5396 O 508.663 1.46426 0.943667 0
M  V30 5397 C 505.795 2.92485 1.75116 0
M  V30 5398 H 506.988 2.99849 -0.0555508 0
M  V30 5399 H 504.541 1.56159 -0.0664453 0
M  V30 5400 H 505.276 2.19466 2.38758 0
M  V30 5401 H 505.061 3.66483 1.39401 0
M  V30 5402 H 506.551 3.44548 2.35959 0
M  V30 5403 N 506.988 0.0434614 1.5754 0
M  V30 5404 C 507.935 -0.93356 2.11077 0
M  V30 5405 C 508.905 -1.31383 1.01626 0
M  V30 5406 O 510.09 -1.40465 1.29129 0
M  V30 5407 C 507.23 -2.20578 2.65404 0
M  V30 5408 C 506.343 -1.88068 3.88914 0
M  V30 5409 C 505.478 -3.09691 4.31584 0
M  V30 5410 C 504.517 -2.73067 5.47815 0
M  V30 5411 N 503.654 -3.87359 5.85574 0
M  V30 5412 H 508.494 -0.470118 2.94268 0
M  V30 5413 H 506.031 -0.220434 1.45439 0
M  V30 5414 H 507.989 -2.95011 2.94999 0
M  V30 5415 H 506.619 -2.64513 1.85021 0
M  V30 5416 H 505.671 -1.03816 3.6596 0
M  V30 5417 H 506.983 -1.57104 4.73413 0
M  V30 5418 H 506.137 -3.92431 4.62691 0
M  V30 5419 H 504.876 -3.43827 3.45882 0
M  V30 5420 H 503.881 -1.88742 5.16388 0
M  V30 5421 H 505.106 -2.40131 6.35227 0
M  V30 5422 H 503.052 -4.21311 5.02825 0
M  V30 5423 H 502.969 -3.60068 6.64746 0
M  V30 5424 H 504.237 -4.70761 6.21292 0
M  V30 5425 N 508.466 -1.55915 -0.229846 0
M  V30 5426 C 509.413 -1.91734 -1.28478 0
M  V30 5427 C 510.383 -0.773539 -1.46988 0
M  V30 5428 O 511.568 -1.02871 -1.60693 0
M  V30 5429 C 508.708 -2.23224 -2.63182 0
M  V30 5430 C 507.821 -3.50497 -2.52539 0
M  V30 5431 C 506.956 -3.71474 -3.79711 0
M  V30 5432 C 505.995 -4.92289 -3.63755 0
M  V30 5433 N 505.132 -5.09698 -4.82858 0
M  V30 5434 H 509.972 -2.81692 -0.972308 0
M  V30 5435 H 507.509 -1.39429 -0.468815 0
M  V30 5436 H 509.467 -2.3949 -3.41614 0
M  V30 5437 H 508.097 -1.36451 -2.92542 0
M  V30 5438 H 507.149 -3.4247 -1.65585 0
M  V30 5439 H 508.461 -4.39079 -2.36666 0
M  V30 5440 H 507.615 -3.87791 -4.66586 0
M  V30 5441 H 506.354 -2.81157 -3.985 0
M  V30 5442 H 505.359 -4.7593 -2.75264 0
M  V30 5443 H 506.584 -5.84083 -3.46445 0
M  V30 5444 H 504.53 -4.22322 -5.01976 0
M  V30 5445 H 504.447 -5.92399 -4.69681 0
M  V30 5446 H 505.715 -5.30443 -5.71183 0
M  V30 5447 N 509.944 0.496216 -1.49584 0
M  V30 5448 C 510.907 1.57952 -1.66084 0
M  V30 5449 C 511.907 1.51729 -0.53244 0
M  V30 5450 O 513.097 1.54796 -0.79899 0
M  V30 5451 C 510.229 2.97604 -1.66268 0
M  V30 5452 H 511.422 1.44649 -2.6271 0
M  V30 5453 H 508.975 0.7208 -1.38687 0
M  V30 5454 H 509.71 3.16378 -0.712432 0
M  V30 5455 H 509.495 3.03528 -2.4822 0
M  V30 5456 H 510.985 3.76301 -1.81073 0
M  V30 5457 N 511.423 1.38739 0.74761 0
M  V30 5458 C 512.356 1.3083 1.86972 0
M  V30 5459 C 513.334 0.184229 1.61553 0
M  V30 5460 O 514.518 0.36256 1.8498 0
M  V30 5461 C 511.645 1.02854 3.22705 0
M  V30 5462 C 510.691 2.17281 3.67003 0
M  V30 5463 S 511.524 3.79468 3.77842 0
M  V30 5464 C 512.68 3.53692 5.16385 0
M  V30 5465 H 512.913 2.258 1.93395 0
M  V30 5466 H 510.446 1.24646 0.911199 0
M  V30 5467 H 512.404 0.87397 4.01089 0
M  V30 5468 H 511.065 0.0959295 3.13953 0
M  V30 5469 H 510.258 1.93267 4.65472 0
M  V30 5470 H 509.86 2.28876 2.9579 0
M  V30 5471 H 512.152 3.10176 6.02327 0
M  V30 5472 H 513.095 4.51576 5.45422 0
M  V30 5473 H 513.503 2.8807 4.85464 0
M  V30 5474 N 512.901 -0.976442 1.23707 0
M  V30 5475 C 514.149 -1.71487 1.06942 0
M  V30 5476 C 514.47 -1.9098 -0.393897 0
M  V30 5477 O 513.74 -1.48128 -1.28198 0
M  V30 5478 H 512.32 -0.635425 0.392739 0
M  V30 5479 H 514.982 -1.17515 1.55487 0
M  V30 5480 H 514.078 -2.70286 1.56051 0
M  V30 5481 N 514.379 -1.04941 -1.1758 0
M  V30 5482 C 515.609 -0.777166 -1.91425 0
M  V30 5483 C 516.017 0.670647 -1.76915 0
M  V30 5484 O 515.36 1.46965 -1.10213 0
M  V30 5485 C 515.422 -1.07495 -3.43052 0
M  V30 5486 C 515.086 -2.51844 -3.81345 0
M  V30 5487 C 516.083 -3.50047 -3.844 0
M  V30 5488 C 513.768 -2.86787 -4.12382 0
M  V30 5489 C 515.762 -4.81239 -4.17957 0
M  V30 5490 C 513.449 -4.18182 -4.45608 0
M  V30 5491 C 514.447 -5.15219 -4.48373 0
M  V30 5492 O 514.135 -6.44258 -4.80819 0
M  V30 5493 H 513.867 -0.282209 -0.614275 0
M  V30 5494 H 516.421 -1.40258 -1.50056 0
M  V30 5495 H 514.651 -0.392437 -3.84704 0
M  V30 5496 H 516.34 -0.78912 -3.98155 0
M  V30 5497 H 517.106 -3.24391 -3.60548 0
M  V30 5498 H 512.985 -2.11922 -4.09402 0
M  V30 5499 H 516.529 -5.56974 -4.2003 0
M  V30 5500 H 512.426 -4.43602 -4.68922 0
M  V30 5501 H 513.194 -6.49041 -4.98686 0
M  V30 5502 N 515.857 1.33968 -0.830081 0
M  V30 5503 C 516.789 2.28194 -0.21448 0
M  V30 5504 C 517.802 1.5135 0.599752 0
M  V30 5505 O 518.991 1.73286 0.42826 0
M  V30 5506 C 516.091 3.31221 0.717356 0
M  V30 5507 C 515.264 4.37365 -0.055613 0
M  V30 5508 C 514.323 5.2011 0.798231 0
M  V30 5509 O 513.349 5.68691 0.240616 0
M  V30 5510 N 514.551 5.40523 2.11695 0
M  V30 5511 H 517.316 2.81662 -1.02405 0
M  V30 5512 H 514.877 1.46568 -0.687713 0
M  V30 5513 H 516.869 3.83477 1.29334 0
M  V30 5514 H 515.439 2.78095 1.42765 0
M  V30 5515 H 514.659 3.85727 -0.812936 0
M  V30 5516 H 515.947 5.05397 -0.587444 0
M  V30 5517 H 515.345 5.0274 2.59363 0
M  V30 5518 H 513.902 5.95871 2.64162 0
M  V30 5519 N 517.335 0.585699 1.46312 0
M  V30 5520 C 518.746 0.159938 1.86014 0
M  V30 5521 C 519.097 -1.27775 1.48889 0
M  V30 5522 O 518.222 -1.96559 0.90519 0
M  V30 5523 C 518.817 0.283485 3.37612 0
M  V30 5524 C 517.376 -0.0874256 3.76298 0
M  V30 5525 C 516.523 0.618055 2.70325 0
M  V30 5526 H 519.474 0.793737 1.37425 0
M  V30 5527 H 519.495 -0.490348 3.77327 0
M  V30 5528 H 519.007 1.32995 3.64601 0
M  V30 5529 H 517.108 -1.13391 3.54927 0
M  V30 5530 H 517.221 0.290975 4.78216 0
M  V30 5531 H 515.585 0.057993 2.54634 0
M  V30 5532 H 516.368 1.66623 3.00153 0
M  V30 5533 N 518.813 -1.54241 0.323641 0
M  V30 5534 C 519.743 -2.27289 -0.534993 0
M  V30 5535 C 520.724 -1.28087 -1.11927 0
M  V30 5536 O 521.909 -1.56899 -1.14439 0
M  V30 5537 C 519.039 -3.03075 -1.69596 0
M  V30 5538 C 517.993 -4.09614 -1.24098 0
M  V30 5539 C 517.319 -4.73242 -2.4889 0
M  V30 5540 C 518.619 -5.21087 -0.355789 0
M  V30 5541 H 520.313 -2.99308 0.0743257 0
M  V30 5542 H 517.859 -1.43952 0.0371874 0
M  V30 5543 H 519.812 -3.52907 -2.30293 0
M  V30 5544 H 518.536 -2.28673 -2.33187 0
M  V30 5545 H 517.195 -3.60666 -0.656945 0
M  V30 5546 H 516.843 -3.95455 -3.10845 0
M  V30 5547 H 516.543 -5.45209 -2.19138 0
M  V30 5548 H 518.067 -5.25848 -3.10348 0
M  V30 5549 H 519.481 -5.66675 -0.869042 0
M  V30 5550 H 517.878 -5.9991 -0.151045 0
M  V30 5551 H 518.948 -4.81005 0.613339 0
M  V30 5552 N 520.291 -0.0518155 -1.57515 0
M  V30 5553 C 521.537 0.622745 -1.93002 0
M  V30 5554 C 521.87 1.70456 -0.930499 0
M  V30 5555 O 521.145 1.94452 0.0434086 0
M  V30 5556 C 521.428 1.21824 -3.38867 0
M  V30 5557 C 521.281 0.144434 -4.49568 0
M  V30 5558 C 522.6 2.12968 -3.8514 0
M  V30 5559 H 519.719 0.22491 -0.701844 0
M  V30 5560 H 522.361 -0.113711 -1.89659 0
M  V30 5561 H 520.511 1.8459 -3.41846 0
M  V30 5562 H 522.183 -0.48753 -4.58717 0
M  V30 5563 H 520.426 -0.527424 -4.30582 0
M  V30 5564 H 521.097 0.601127 -5.48717 0
M  V30 5565 H 523.573 1.60163 -3.8404 0
M  V30 5566 H 522.449 2.51578 -4.87852 0
M  V30 5567 H 522.71 3.03004 -3.21934 0
M  V30 5568 N 521.769 1.56035 0.221574 0
M  V30 5569 C 522.997 1.8313 0.962864 0
M  V30 5570 C 523.412 0.630934 1.77946 0
M  V30 5571 O 522.769 -0.400519 1.78051 0
M  V30 5572 C 522.82 3.08742 1.88045 0
M  V30 5573 O 522.541 4.24147 1.09686 0
M  V30 5574 C 524.042 3.48824 2.73563 0
M  V30 5575 H 521.262 0.608775 0.282194 0
M  V30 5576 H 523.806 2.03124 0.23681 0
M  V30 5577 H 521.961 2.90723 2.56045 0
M  V30 5578 H 522.375 4.95505 1.71974 0
M  V30 5579 H 523.849 4.39752 3.3365 0
M  V30 5580 H 524.326 2.70575 3.45956 0
M  V30 5581 H 524.932 3.69282 2.10976 0
M  V30 5582 N 523.247 -0.488276 1.49845 0
M  V30 5583 C 524.18 -1.60651 1.62069 0
M  V30 5584 C 525.158 -1.5568 0.469308 0
M  V30 5585 O 526.342 -1.75553 0.686551 0
M  V30 5586 C 523.469 -2.99197 1.58741 0
M  V30 5587 C 522.515 -3.22385 2.79232 0
M  V30 5588 S 523.348 -3.04133 4.40753 0
M  V30 5589 C 524.504 -4.45052 4.4009 0
M  V30 5590 H 524.737 -1.50039 2.56662 0
M  V30 5591 H 522.27 -0.674371 1.38894 0
M  V30 5592 H 524.228 -3.79081 1.57506 0
M  V30 5593 H 522.889 -3.07213 0.654136 0
M  V30 5594 H 522.082 -4.23557 2.73159 0
M  V30 5595 H 521.684 -2.50245 2.77945 0
M  V30 5596 H 523.976 -5.37375 4.12594 0
M  V30 5597 H 524.919 -4.56172 5.41583 0
M  V30 5598 H 525.327 -4.26327 3.70008 0
M  V30 5599 N 524.725 -1.39134 -0.740242 0
M  V30 5600 C 526.002 -1.26584 -1.49117 0
M  V30 5601 C 526.382 0.126902 -2.10718 0
M  V30 5602 O 525.73 1.13765 -1.98166 0
M  V30 5603 C 525.94 -2.38619 -2.54681 0
M  V30 5604 C 527.288 -2.77685 -3.21211 0
M  V30 5605 O 528.312 -2.38029 -2.64991 0
M  V30 5606 O 527.171 -3.46115 -4.22926 0
M  V30 5607 H 524.265 -0.495769 -0.661923 0
M  V30 5608 H 526.811 -1.50995 -0.774514 0
M  V30 5609 H 525.583 -3.3175 -2.07504 0
M  V30 5610 H 525.206 -2.15845 -3.33911 0
M  V30 5611 N 526.204 0.969867 -1.24223 0
M  V30 5612 C 527.481 1.68774 -0.988664 0
M  V30 5613 C 527.861 2.05342 0.489673 0
M  V30 5614 O 527.209 1.75486 1.46345 0
M  V30 5615 C 527.419 2.92135 -1.90941 0
M  V30 5616 C 528.767 3.64422 -2.17903 0
M  V30 5617 O 529.791 3.02188 -1.88576 0
M  V30 5618 O 528.65 4.76446 -2.67697 0
M  V30 5619 H 525.744 0.737736 -0.37373 0
M  V30 5620 H 528.29 1.02415 -1.35312 0
M  V30 5621 H 527.062 2.61788 -2.90831 0
M  V30 5622 H 526.685 3.66228 -1.54798 0
M  V30 5623 N 527.682 1.05563 1.17022 0
M  V30 5624 C 528.645 0.664098 2.19368 0
M  V30 5625 C 529.645 -0.286358 1.5823 0
M  V30 5626 O 530.835 -0.069728 1.7406 0
M  V30 5627 C 527.967 -0.0239932 3.40892 0
M  V30 5628 H 529.16 1.57 2.55521 0
M  V30 5629 H 526.713 0.849964 1.31169 0
M  V30 5630 H 527.448 -0.942988 3.10287 0
M  V30 5631 H 527.233 0.659351 3.86516 0
M  V30 5632 H 528.723 -0.283909 4.16634 0
M  V30 5633 N 529.16 -1.33526 0.837174 0
M  V30 5634 C 530.093 -2.27192 0.214233 0
M  V30 5635 C 531.071 -1.49575 -0.637657 0
M  V30 5636 O 532.255 -1.78753 -0.598291 0
M  V30 5637 C 529.382 -3.31401 -0.699367 0
M  V30 5638 C 528.428 -4.26431 0.0768429 0
M  V30 5639 S 529.261 -5.15954 1.4336 0
M  V30 5640 C 530.417 -6.23692 0.525251 0
M  V30 5641 H 530.65 -2.79679 1.00831 0
M  V30 5642 H 528.183 -1.4079 0.633834 0
M  V30 5643 H 530.141 -3.91924 -1.22088 0
M  V30 5644 H 528.802 -2.77732 -1.46709 0
M  V30 5645 H 527.995 -5.00193 -0.618268 0
M  V30 5646 H 527.597 -3.70235 0.529364 0
M  V30 5647 H 529.889 -6.76931 -0.277575 0
M  V30 5648 H 530.832 -6.97283 1.23299 0
M  V30 5649 H 531.24 -5.64398 0.107351 0
M  V30 5650 N 530.638 -0.59345 -1.46 0
M  V30 5651 C 531.548 0.135817 -2.34207 0
M  V30 5652 C 532.564 0.875008 -1.50398 0
M  V30 5653 O 533.74 0.835778 -1.83239 0
M  V30 5654 C 530.805 1.12977 -3.27776 0
M  V30 5655 C 529.866 0.394081 -4.27487 0
M  V30 5656 C 529.099 1.34068 -5.16586 0
M  V30 5657 O 529.322 2.5778 -5.08828 0
M  V30 5658 O 528.256 0.845426 -5.95933 0
M  V30 5659 H 532.082 -0.588691 -2.9794 0
M  V30 5660 H 529.667 -0.353784 -1.45151 0
M  V30 5661 H 531.549 1.70261 -3.85473 0
M  V30 5662 H 530.224 1.83556 -2.66625 0
M  V30 5663 H 529.131 -0.220869 -3.73447 0
M  V30 5664 H 530.464 -0.270939 -4.91454 0
M  V30 5665 N 532.116 1.54067 -0.331816 0
M  V30 5666 C 533.532 1.59587 0.0205388 0
M  V30 5667 C 533.732 1.34813 1.49759 0
M  V30 5668 O 532.788 1.13661 2.25471 0
M  V30 5669 C 534.101 2.97959 -0.405103 0
M  V30 5670 C 535.649 3.10964 -0.356454 0
M  V30 5671 C 536.124 4.51694 -0.757384 0
M  V30 5672 N 537.615 4.57709 -0.71111 0
M  V30 5673 C 538.35 5.64729 -0.993427 0
M  V30 5674 N 537.846 6.79652 -1.3433 0
M  V30 5675 N 539.639 5.54546 -0.918442 0
M  V30 5676 H 531.79 1.68426 -1.29407 0
M  V30 5677 H 534.053 0.78819 -0.526745 0
M  V30 5678 H 533.759 3.21115 -1.43451 0
M  V30 5679 H 533.633 3.76524 0.225692 0
M  V30 5680 H 536.02 2.87538 0.663763 0
M  V30 5681 H 536.101 2.34484 -1.02229 0
M  V30 5682 H 535.745 4.75853 -1.77555 0
M  V30 5683 H 535.675 5.26555 -0.0691444 0
M  V30 5684 H 538.166 3.75176 -0.452883 0
M  V30 5685 H 538.479 7.57221 -1.54388 0
M  V30 5686 H 536.824 6.81128 -1.38164 0
M  V30 5687 H 540.015 4.63641 -0.644536 0
M  V30 5688 H 540.188 6.37861 -1.14181 0
M  V30 5689 N 533.594 0.0601682 1.57485 0
M  V30 5690 C 534.822 -0.620937 1.97363 0
M  V30 5691 C 535.237 -1.63846 0.938082 0
M  V30 5692 O 534.594 -1.82339 -0.0766578 0
M  V30 5693 C 534.645 -1.29987 3.37321 0
M  V30 5694 O 534.366 -0.323081 4.36907 0
M  V30 5695 C 535.867 -2.06989 3.92008 0
M  V30 5696 H 533.087 -0.169135 0.649334 0
M  V30 5697 H 535.631 0.129132 2.04092 0
M  V30 5698 H 533.786 -2.0011 3.31715 0
M  V30 5699 H 534.2 -0.808754 5.18227 0
M  V30 5700 H 535.674 -2.49901 4.92192 0
M  V30 5701 H 536.151 -2.92173 3.2792 0
M  V30 5702 H 536.757 -1.41757 4.0098 0
M  V30 5703 N 535.072 -1.5615 -0.213296 0
M  V30 5704 C 536.318 -1.79812 -0.937849 0
M  V30 5705 C 536.651 -0.631201 -1.83656 0
M  V30 5706 O 535.926 0.369165 -1.90964 0
M  V30 5707 C 536.209 -3.13613 -1.76972 0
M  V30 5708 C 536.062 -4.40766 -0.89695 0
M  V30 5709 C 537.381 -3.43931 -2.7459 0
M  V30 5710 H 534.5 -0.654138 -0.339518 0
M  V30 5711 H 537.142 -1.88877 -0.20623 0
M  V30 5712 H 535.292 -3.06015 -2.39347 0
M  V30 5713 H 536.964 -4.60392 -0.289306 0
M  V30 5714 H 535.207 -4.33326 -0.202756 0
M  V30 5715 H 535.878 -5.30843 -1.51358 0
M  V30 5716 H 538.354 -3.5171 -2.22349 0
M  V30 5717 H 537.23 -4.38706 -3.29891 0
M  V30 5718 H 537.491 -2.6651 -3.52739 0
M  V30 5719 N 536.55 0.480323 -1.50102 0
M  V30 5720 C 537.482 1.59669 -1.64433 0
M  V30 5721 C 538.495 1.54063 -0.52615 0
M  V30 5722 O 539.684 1.59619 -0.798992 0
M  V30 5723 C 536.784 2.98527 -1.6042 0
M  V30 5724 C 535.957 3.291 -2.88117 0
M  V30 5725 C 535.016 4.47468 -2.76873 0
M  V30 5726 O 534.042 4.4823 -3.50825 0
M  V30 5727 N 535.244 5.48593 -1.89806 0
M  V30 5728 H 538.009 1.47795 -2.60723 0
M  V30 5729 H 535.57 0.66858 -1.4745 0
M  V30 5730 H 537.562 3.75666 -1.50523 0
M  V30 5731 H 536.132 3.04218 -0.719036 0
M  V30 5732 H 535.352 2.40662 -3.12211 0
M  V30 5733 H 536.64 3.46334 -3.72734 0
M  V30 5734 H 536.038 5.50791 -1.2902 0
M  V30 5735 H 534.595 6.24752 -1.85819 0
M  V30 5736 N 538.028 1.39524 0.732853 0
M  V30 5737 C 539.253 1.40329 1.52717 0
M  V30 5738 C 539.678 0.000286574 1.881 0
M  V30 5739 O 539.036 -0.987262 1.52062 0
M  V30 5740 C 539.084 2.28464 2.78992 0
M  V30 5741 O 538.188 1.716 3.75003 0
M  V30 5742 H 537.529 0.47778 0.461109 0
M  V30 5743 H 540.059 1.83546 0.903996 0
M  V30 5744 H 540.069 2.43051 3.27705 0
M  V30 5745 H 538.744 3.30425 2.52572 0
M  V30 5746 H 537.321 1.66267 3.33781 0
M  V30 5747 N 539.506 -0.963266 1.24736 0
M  V30 5748 C 540.753 -1.7068 1.0897 0
M  V30 5749 C 541.081 -1.90934 -0.370751 0
M  V30 5750 O 540.336 -1.47155 -1.29011 0
M  V30 5751 C 540.635 -3.09944 1.7796 0
M  V30 5752 C 540.301 -3.09518 3.27887 0
M  V30 5753 C 538.963 -3.09109 3.68789 0
M  V30 5754 C 541.315 -3.03509 4.23712 0
M  V30 5755 C 538.643 -3.00429 5.03944 0
M  V30 5756 C 540.995 -2.96371 5.5888 0
M  V30 5757 C 539.659 -2.94293 5.99123 0
M  V30 5758 H 538.929 -0.624564 0.398749 0
M  V30 5759 H 541.576 -1.12603 1.54896 0
M  V30 5760 H 539.881 -3.71513 1.2444 0
M  V30 5761 H 541.578 -3.66278 1.63222 0
M  V30 5762 H 538.168 -3.10603 2.95337 0
M  V30 5763 H 542.352 -3.0295 3.93109 0
M  V30 5764 H 537.608 -2.97183 5.34314 0
M  V30 5765 H 541.782 -2.90681 6.32833 0
M  V30 5766 H 539.409 -2.87322 7.03811 0
M  V30 5767 N 540.985 -1.06182 -1.16461 0
M  V30 5768 C 542.401 -0.785065 -1.38956 0
M  V30 5769 C 542.601 0.616103 -1.9185 0
M  V30 5770 O 541.657 1.37686 -2.11657 0
M  V30 5771 C 542.97 -1.84902 -2.37132 0
M  V30 5772 C 544.518 -1.8724 -2.50819 0
M  V30 5773 C 544.993 -2.92686 -3.52277 0
M  V30 5774 N 546.484 -2.91712 -3.59803 0
M  V30 5775 C 547.219 -3.69949 -4.38093 0
M  V30 5776 N 546.715 -4.58 -5.19815 0
M  V30 5777 N 548.508 -3.58346 -4.33064 0
M  V30 5778 H 540.659 -1.96569 -0.804634 0
M  V30 5779 H 542.922 -0.851747 -0.416211 0
M  V30 5780 H 542.628 -2.85518 -2.0536 0
M  V30 5781 H 542.502 -1.69908 -3.36766 0
M  V30 5782 H 544.889 -0.872827 -2.81897 0
M  V30 5783 H 544.97 -2.06311 -1.51226 0
M  V30 5784 H 544.614 -3.92835 -3.21937 0
M  V30 5785 H 544.544 -2.70864 -4.51598 0
M  V30 5786 H 547.035 -2.27876 -3.01464 0
M  V30 5787 H 547.348 -5.14357 -5.76764 0
M  V30 5788 H 545.693 -4.62056 -5.19162 0
M  V30 5789 H 548.884 -2.88943 -3.68279 0
M  V30 5790 H 549.057 -4.19563 -4.93833 0
M  V30 5791 N 542.463 1.3308 -0.844243 0
M  V30 5792 C 543.413 2.26589 -0.253289 0
M  V30 5793 C 544.397 1.49501 0.594836 0
M  V30 5794 O 545.589 1.71291 0.445924 0
M  V30 5795 C 542.718 3.38599 0.566176 0
M  V30 5796 C 541.804 4.23081 -0.293756 0
M  V30 5797 N 542.195 4.86751 -1.37505 0
M  V30 5798 C 540.493 4.45925 -0.0817086 0
M  V30 5799 C 541.194 5.49684 -1.90323 0
M  V30 5800 N 540.17 5.30101 -1.20391 0
M  V30 5801 H 543.972 2.73334 -1.08009 0
M  V30 5802 H 541.486 1.47048 -0.689258 0
M  V30 5803 H 543.483 4.04584 1.00587 0
M  V30 5804 H 542.143 2.93401 1.39089 0
M  V30 5805 H 543.154 4.87151 -1.75796 0
M  V30 5806 H 539.831 4.11434 0.709129 0
M  V30 5807 H 541.221 6.10363 -2.80902 0
M  V30 5808 N 543.941 0.601185 1.45683 0
M  V30 5809 C 544.871 -0.108824 2.33246 0
M  V30 5810 C 545.852 -0.865223 1.46451 0
M  V30 5811 O 547.037 -0.83704 1.75235 0
M  V30 5812 C 544.167 -1.11101 3.2905 0
M  V30 5813 C 543.121 -0.468244 4.25431 0
M  V30 5814 C 542.447 -1.57822 5.10878 0
M  V30 5815 C 543.747 0.606469 5.18767 0
M  V30 5816 H 545.441 0.622306 2.92861 0
M  V30 5817 H 542.987 0.300714 1.40825 0
M  V30 5818 H 544.94 -1.61622 3.89174 0
M  V30 5819 H 543.664 -1.87265 2.67581 0
M  V30 5820 H 542.323 0.0160484 3.66596 0
M  V30 5821 H 541.971 -2.32998 4.45781 0
M  V30 5822 H 541.671 -1.15369 5.76163 0
M  V30 5823 H 543.195 -2.08583 5.73869 0
M  V30 5824 H 544.609 0.185589 5.73 0
M  V30 5825 H 543.006 0.952381 5.92494 0
M  V30 5826 H 544.076 1.48559 4.61582 0
M  V30 5827 N 545.419 -1.53889 0.339982 0
M  V30 5828 C 546.835 -1.59595 -0.0120752 0
M  V30 5829 C 547.035 -1.35605 -1.49042 0
M  V30 5830 O 546.091 -1.14856 -2.24865 0
M  V30 5831 C 547.404 -2.9774 0.420898 0
M  V30 5832 C 548.952 -3.1077 0.37294 0
M  V30 5833 C 549.427 -4.51286 0.781327 0
M  V30 5834 N 550.918 -4.57325 0.735374 0
M  V30 5835 C 551.653 -5.64194 1.02336 0
M  V30 5836 N 551.149 -6.7893 1.37933 0
M  V30 5837 N 552.942 -5.54051 0.947838 0
M  V30 5838 H 545.093 -1.67738 1.30299 0
M  V30 5839 H 547.356 -0.785385 0.530918 0
M  V30 5840 H 547.062 -3.20349 1.45152 0
M  V30 5841 H 546.936 -3.76639 -0.205721 0
M  V30 5842 H 549.323 -2.87886 -0.648505 0
M  V30 5843 H 549.404 -2.33939 1.03472 0
M  V30 5844 H 549.048 -4.74905 1.80077 0
M  V30 5845 H 548.978 -5.26511 0.0970679 0
M  V30 5846 H 551.469 -3.74931 0.472773 0
M  V30 5847 H 551.782 -7.56392 1.58402 0
M  V30 5848 H 550.127 -6.80386 1.41774 0
M  V30 5849 H 553.318 -4.63293 0.669115 0
M  V30 5850 H 553.491 -6.37246 1.17563 0
M  V30 5851 N 546.897 -0.0685191 -1.57451 0
M  V30 5852 C 548.313 0.288101 -1.56978 0
M  V30 5853 C 548.513 1.70262 -1.07765 0
M  V30 5854 O 547.569 2.4135 -0.742054 0
M  V30 5855 C 548.882 0.100745 -3.00531 0
M  V30 5856 C 550.43 0.170531 -3.12535 0
M  V30 5857 C 550.905 0.0114944 -4.57999 0
M  V30 5858 N 552.396 0.0672065 -4.63151 0
M  V30 5859 C 553.131 -0.0314813 -5.73391 0
M  V30 5860 N 552.627 -0.183503 -6.92557 0
M  V30 5861 N 554.42 0.0253489 -5.62094 0
M  V30 5862 H 546.571 -0.993026 -1.87757 0
M  V30 5863 H 548.834 -0.386981 -0.865419 0
M  V30 5864 H 548.54 -0.875197 -3.40636 0
M  V30 5865 H 548.414 0.854457 -3.67395 0
M  V30 5866 H 550.801 1.13696 -2.72318 0
M  V30 5867 H 550.882 -0.614229 -2.48316 0
M  V30 5868 H 550.526 -0.951684 -4.98904 0
M  V30 5869 H 550.456 0.815617 -5.20245 0
M  V30 5870 H 552.947 0.183246 -3.77455 0
M  V30 5871 H 553.26 -0.251041 -7.72392 0
M  V30 5872 H 551.605 -0.218822 -6.94655 0
M  V30 5873 H 554.796 0.142794 -4.67882 0
M  V30 5874 H 554.969 -0.0550166 -6.47977 0
M  V30 5875 N 548.375 1.56261 0.205012 0
M  V30 5876 C 549.621 1.80306 0.9283 0
M  V30 5877 C 549.954 0.640932 1.83319 0
M  V30 5878 O 549.229 -0.359032 1.91158 0
M  V30 5879 C 549.512 3.14547 1.75306 0
M  V30 5880 C 549.365 4.41236 0.873562 0
M  V30 5881 C 550.684 3.45382 2.72762 0
M  V30 5882 H 547.803 0.655929 0.336044 0
M  V30 5883 H 550.445 1.88984 0.196211 0
M  V30 5884 H 548.595 3.0728 2.37721 0
M  V30 5885 H 550.267 4.60539 0.264887 0
M  V30 5886 H 548.51 4.33427 0.179773 0
M  V30 5887 H 549.181 5.31639 1.48541 0
M  V30 5888 H 551.657 3.52884 2.20481 0
M  V30 5889 H 550.533 4.40449 3.2756 0
M  V30 5890 H 550.794 2.68377 3.51321 0
M  V30 5891 N 549.853 -0.472356 1.50355 0
M  V30 5892 C 550.8 -1.57051 1.69126 0
M  V30 5893 C 551.77 -1.5733 0.532574 0
M  V30 5894 O 552.955 -1.7488 0.762994 0
M  V30 5895 C 550.095 -2.95033 1.79024 0
M  V30 5896 C 549.208 -3.04552 3.06386 0
M  V30 5897 C 548.343 -4.33441 3.07087 0
M  V30 5898 C 547.382 -4.36697 4.28908 0
M  V30 5899 N 546.519 -5.57056 4.27356 0
M  V30 5900 H 551.359 -1.40351 2.62879 0
M  V30 5901 H 548.896 -0.682403 1.30314 0
M  V30 5902 H 550.854 -3.75048 1.82744 0
M  V30 5903 H 549.484 -3.10371 0.887109 0
M  V30 5904 H 548.536 -2.17419 3.12143 0
M  V30 5905 H 549.848 -3.02818 3.96362 0
M  V30 5906 H 549.002 -5.21801 3.09529 0
M  V30 5907 H 547.741 -4.37782 2.14939 0
M  V30 5908 H 546.746 -3.46734 4.2668 0
M  V30 5909 H 547.971 -4.34049 5.22282 0
M  V30 5910 H 545.917 -5.62184 3.3806 0
M  V30 5911 H 545.834 -5.57058 5.111 0
M  V30 5912 H 547.102 -6.47545 4.33942 0
M  V30 5913 O 551.37 -1.49213 -0.617887 0
M  V30 5914 H 552.061 -1.46058 -1.27227 0
M  V30 END ATOM
M  V30 BEGIN BOND
M  V30 END BOND
M  V30 END CTAB
M  END
$$$$
