drugbank_target|Q15761 Neuropeptide Y receptor type 5 (DB05004)
 OpenBabel12092120213D

  0  0  0     0  0            999 V3000
M  V30 BEGIN CTAB
M  V30 COUNTS 7205 7292 0 0 0
M  V30 BEGIN ATOM
M  V30 1 H -0.908 1.98254 -0.117106 0
M  V30 2 N 0 1.576 0 0
M  V30 3 C 0.933 2.03868 1.02534 0
M  V30 4 C 1.911 0.928543 1.3348 0
M  V30 5 O 3.095 1.19667 1.45644 0
M  V30 6 C 0.222 2.43627 2.35294 0
M  V30 7 C -0.732 3.65373 2.2001 0
M  V30 8 S 0.101 5.13292 1.52614 0
M  V30 9 C 1.257 5.56322 2.86805 0
M  V30 10 H 1.49 2.90518 0.631377 0
M  V30 11 H -0.977 1.52953 0.210867 0
M  V30 12 H 0.981 2.67203 3.11629 0
M  V30 13 H -0.358 1.57376 2.7183 0
M  V30 14 H -1.165 3.90944 3.18086 0
M  V30 15 H -1.563 3.418 1.51819 0
M  V30 16 H 0.729 5.58782 3.83104 0
M  V30 17 H 1.672 6.56266 2.65933 0
M  V30 18 H 2.08 4.83886 2.90714 0
M  V30 19 N 1.4781 -0.272755 1.55222 0
M  V30 20 C 2.7551 -1.02562 1.66555 0
M  V30 21 C 3.1351 -2.04282 0.532189 0
M  V30 22 O 2.4831 -2.23662 -0.467717 0
M  V30 23 C 2.6931 -1.6822 3.05782 0
M  V30 24 C 4.0411 -2.19373 3.63539 0
M  V30 25 O 5.0651 -1.78206 3.08417 0
M  V30 26 O 3.9241 -2.94883 4.60115 0
M  V30 27 H 1.0181 -0.475755 0.676451 0
M  V30 28 H 3.5641 -0.268593 1.67561 0
M  V30 29 H 2.3361 -0.945112 3.79715 0
M  V30 30 H 1.9591 -2.50609 3.08676 0
M  V30 31 N 2.9562 -1.48159 -0.537278 0
M  V30 32 C 3.8862 -1.65029 -1.6519 0
M  V30 33 C 4.8672 -0.499281 -1.62607 0
M  V30 34 O 6.0522 -0.730972 -1.79918 0
M  V30 35 C 3.1822 -1.68303 -3.03795 0
M  V30 36 C 2.1362 -2.8283 -3.21234 0
M  V30 37 C 1.4622 -2.71189 -4.60826 0
M  V30 38 C 2.7622 -4.24211 -3.04701 0
M  V30 39 H 4.4562 -2.58341 -1.51328 0
M  V30 40 H 2.0022 -1.24325 -0.726585 0
M  V30 41 H 3.9552 -1.78693 -3.81637 0
M  V30 42 H 2.6792 -0.715635 -3.18663 0
M  V30 43 H 1.3382 -2.71983 -2.45807 0
M  V30 44 H 0.9862 -1.72435 -4.7252 0
M  V30 45 H 0.6862 -3.48035 -4.7344 0
M  V30 46 H 2.2102 -2.83537 -5.40777 0
M  V30 47 H 3.6242 -4.3593 -3.72341 0
M  V30 48 H 2.0212 -5.01998 -3.28813 0
M  V30 49 H 3.0912 -4.41184 -2.01209 0
M  V30 50 N 4.4343 0.785586 -1.36625 0
M  V30 51 C 5.3443 1.92964 -1.33425 0
M  V30 52 C 6.3603 1.72394 -0.235851 0
M  V30 53 O 7.5363 1.95866 -0.468878 0
M  V30 54 C 4.6013 3.27884 -1.12662 0
M  V30 55 C 3.6623 3.61204 -2.32013 0
M  V30 56 C 2.8953 4.89687 -2.12231 0
M  V30 57 O 3.1183 5.59704 -1.09945 0
M  V30 58 O 2.0523 5.21752 -3.00098 0
M  V30 59 H 5.8783 1.98613 -2.29753 0
M  V30 60 H 3.4633 0.926384 -1.17211 0
M  V30 61 H 5.3453 4.08614 -1.03016 0
M  V30 62 H 4.0203 3.23118 -0.193991 0
M  V30 63 H 2.9273 2.80765 -2.47228 0
M  V30 64 H 4.2603 3.70698 -3.23796 0
M  V30 65 N 5.9124 1.20967 1.01018 0
M  V30 66 C 6.8424 0.988272 2.11555 0
M  V30 67 C 7.8234 -0.0849778 1.69888 0
M  V30 68 O 9.0084 0.0738202 1.9406 0
M  V30 69 C 6.1384 0.546528 3.42973 0
M  V30 70 C 5.0924 1.56375 3.9841 0
M  V30 71 C 4.4184 0.97842 5.25672 0
M  V30 72 C 5.7184 2.94922 4.31066 0
M  V30 73 H 7.4124 1.91276 2.30334 0
M  V30 74 H 4.9584 0.921073 1.1069 0
M  V30 75 H 6.9114 0.378839 4.19694 0
M  V30 76 H 5.6354 -0.413598 3.23971 0
M  V30 77 H 4.2944 1.71891 3.23804 0
M  V30 78 H 3.9424 0.0101688 5.02999 0
M  V30 79 H 3.6424 1.65784 5.63728 0
M  V30 80 H 5.1664 0.821939 6.05043 0
M  V30 81 H 6.5804 2.8288 4.9865 0
M  V30 82 H 4.9774 3.5983 4.80253 0
M  V30 83 H 6.0474 3.4616 3.39561 0
M  V30 84 N 7.3905 -1.2043 1.01659 0
M  V30 85 C 8.6675 -1.8548 0.621004 0
M  V30 86 C 9.0475 -1.9091 -0.900919 0
M  V30 87 O 8.3955 -1.41694 -1.79263 0
M  V30 88 C 8.6055 -3.25119 1.2688 0
M  V30 89 C 9.9535 -4.01403 1.38423 0
M  V30 90 O 10.9775 -3.34473 1.22501 0
M  V30 91 O 9.8365 -5.21265 1.64151 0
M  V30 92 H 6.9305 -0.798761 0.214266 0
M  V30 93 H 9.4765 -1.28019 1.11396 0
M  V30 94 H 8.2485 -3.15932 2.30873 0
M  V30 95 H 7.8715 -3.90212 0.762917 0
M  V30 96 N 8.8686 -0.792821 -1.36206 0
M  V30 97 C 9.7786 -0.194808 -2.3379 0
M  V30 98 C 10.7946 0.654869 -1.61206 0
M  V30 99 O 11.9706 0.569856 -1.9317 0
M  V30 100 C 9.0356 0.657721 -3.40404 0
M  V30 101 C 8.0966 -0.210849 -4.28782 0
M  V30 102 C 7.3296 0.601086 -5.30304 0
M  V30 103 O 7.5526 1.83682 -5.40016 0
M  V30 104 O 6.4866 -0.000808277 -6.019 0
M  V30 105 H 10.3126 -1.00172 -2.86704 0
M  V30 106 H 7.8976 -0.554341 -1.38735 0
M  V30 107 H 9.7796 1.14375 -4.05581 0
M  V30 108 H 8.4546 1.44247 -2.89784 0
M  V30 109 H 7.3616 -0.743714 -3.66633 0
M  V30 110 H 8.6946 -0.959195 -4.82763 0
M  V30 111 N 10.3467 1.47872 -0.545128 0
M  V30 112 C 11.5767 2.06589 -0.0210534 0
M  V30 113 C 11.9847 1.39997 1.27269 0
M  V30 114 O 11.3277 0.486421 1.77143 0
M  V30 115 C 11.3897 3.58574 0.257933 0
M  V30 116 C 11.0537 4.47132 -0.944573 0
M  V30 117 C 12.0507 4.85986 -1.84699 0
M  V30 118 C 9.7357 4.88821 -1.15584 0
M  V30 119 C 11.7297 5.65314 -2.94446 0
M  V30 120 C 9.4167 5.67916 -2.25642 0
M  V30 121 C 10.4147 6.06073 -3.14905 0
M  V30 122 O 10.1027 6.83578 -4.23057 0
M  V30 123 H 9.8347 0.674971 -0.0372899 0
M  V30 124 H 12.3887 1.91037 -0.754599 0
M  V30 125 H 10.6187 3.72295 1.04564 0
M  V30 126 H 12.3077 3.99356 0.72592 0
M  V30 127 H 13.0737 4.54388 -1.69577 0
M  V30 128 H 8.9527 4.58595 -0.470279 0
M  V30 129 H 12.4967 5.95016 -3.64145 0
M  V30 130 H 8.3937 5.98927 -2.40742 0
M  V30 131 H 9.1617 7.01954 -4.20954 0
M  V30 132 N 11.8248 0.280983 1.55075 0
M  V30 133 C 13.0548 -0.336804 2.03836 0
M  V30 134 C 13.4628 -1.49577 1.15859 0
M  V30 135 O 12.8058 -1.82888 0.172503 0
M  V30 136 C 12.8678 -0.874616 3.48699 0
M  V30 137 C 12.5318 0.156478 4.56732 0
M  V30 138 C 13.5288 0.978032 5.10618 0
M  V30 139 C 11.2138 0.292409 5.01448 0
M  V30 140 C 13.2078 1.92165 6.07743 0
M  V30 141 C 10.8948 1.23949 5.98398 0
M  V30 142 C 11.8928 2.05261 6.51427 0
M  V30 143 O 11.5808 2.98367 7.4648 0
M  V30 144 H 11.3128 -0.0800885 0.671239 0
M  V30 145 H 13.8668 0.412589 2.01213 0
M  V30 146 H 12.0968 -1.67418 3.4858 0
M  V30 147 H 13.7858 -1.40612 3.80766 0
M  V30 148 H 14.5518 0.883782 4.7688 0
M  V30 149 H 10.4308 -0.330498 4.59814 0
M  V30 150 H 13.9748 2.55672 6.49059 0
M  V30 151 H 9.8718 1.33454 6.31554 0
M  V30 152 H 10.6398 2.93116 7.64215 0
M  V30 153 N 13.3029 -1.57598 0.00835791 0
M  V30 154 C 14.2509 -2.10078 -0.998508 0
M  V30 155 C 15.2449 -1.02262 -1.35051 0
M  V30 156 O 16.4509 -1.20719 -1.33518 0
M  V30 157 H 12.8259 -0.670903 -0.339696 0
M  V30 158 H 14.7969 -2.93648 -0.530398 0
M  V30 159 C 13.5459 -2.62615 -2.27879 0
M  V30 160 H 12.8689 -3.45213 -2.01662 0
M  V30 161 H 14.3089 -3.03004 -2.96588 0
M  V30 162 C 12.7679 -1.54407 -2.99433 0
M  V30 163 O 13.2979 -0.931812 -3.90743 0
M  V30 164 N 11.5039 -1.2695 -2.61404 0
M  V30 165 H 11.0509 -1.76924 -1.87232 0
M  V30 166 H 11.0089 -0.547704 -3.09593 0
M  V30 167 N 14.781 0.264519 -1.55364 0
M  V30 168 C 15.728 1.32717 -1.88825 0
M  V30 169 C 16.698 1.48675 -0.740605 0
M  V30 170 O 17.883 1.62945 -0.992657 0
M  V30 171 C 15.023 2.68089 -2.17307 0
M  V30 172 C 14.136 2.60284 -3.44785 0
M  V30 173 C 13.271 3.87892 -3.62924 0
M  V30 174 C 12.31 3.74631 -4.84064 0
M  V30 175 N 11.447 4.94092 -4.98816 0
M  V30 176 H 16.287 1.03481 -2.79456 0
M  V30 177 H 13.824 0.499757 -1.3835 0
M  V30 178 H 15.782 3.46864 -2.31821 0
M  V30 179 H 14.412 2.95509 -1.299 0
M  V30 180 H 13.464 1.73173 -3.38697 0
M  V30 181 H 14.776 2.46388 -4.33698 0
M  V30 182 H 13.93 4.75109 -3.77302 0
M  V30 183 H 12.669 4.04664 -2.7221 0
M  V30 184 H 11.674 2.85797 -4.69681 0
M  V30 185 H 12.899 3.5937 -5.76221 0
M  V30 186 H 10.845 5.11259 -4.11036 0
M  V30 187 H 10.762 4.8276 -5.81789 0
M  V30 188 H 12.03 5.82857 -5.17588 0
M  V30 189 N 16.2591 1.48442 0.529413 0
M  V30 190 C 17.4871 1.60151 1.30994 0
M  V30 191 C 17.9021 0.261985 1.86973 0
M  V30 192 O 17.2591 -0.748805 1.66431 0
M  V30 193 C 17.3101 2.64854 2.46038 0
M  V30 194 O 17.0311 3.93608 1.92365 0
M  V30 195 C 18.5321 2.87007 3.37849 0
M  V30 196 H 15.7521 0.539971 0.398338 0
M  V30 197 H 18.2961 1.94273 0.638597 0
M  V30 198 H 16.4511 2.33589 3.09055 0
M  V30 199 H 16.8651 4.51055 2.67675 0
M  V30 200 H 18.3391 3.64068 4.14919 0
M  V30 201 H 18.8161 1.95852 3.93114 0
M  V30 202 H 19.4221 3.19579 2.80623 0
M  V30 203 N 17.7372 -0.778329 1.37039 0
M  V30 204 C 18.6672 -1.90546 1.34962 0
M  V30 205 C 19.6482 -1.68681 0.219274 0
M  V30 206 O 20.8332 -1.89634 0.418624 0
M  V30 207 C 17.9632 -3.27734 1.14925 0
M  V30 208 C 16.9172 -3.64147 2.24902 0
M  V30 209 C 16.2432 -4.99806 1.89996 0
M  V30 210 C 17.5432 -3.71579 3.67051 0
M  V30 211 H 19.2372 -1.92541 2.29277 0
M  V30 212 H 16.7832 -0.924948 1.10366 0
M  V30 213 H 18.7362 -4.06215 1.12104 0
M  V30 214 H 17.4602 -3.26154 0.170631 0
M  V30 215 H 16.1192 -2.8797 2.26868 0
M  V30 216 H 15.7672 -4.94759 0.906796 0
M  V30 217 H 15.4672 -5.25139 2.63634 0
M  V30 218 H 16.9912 -5.80694 1.88749 0
M  V30 219 H 18.4052 -4.40227 3.67251 0
M  V30 220 H 16.8022 -4.08405 4.39688 0
M  V30 221 H 17.8722 -2.72404 4.01154 0
M  V30 222 N 19.2153 -1.21501 -1.00376 0
M  V30 223 C 20.1783 -0.976927 -2.07337 0
M  V30 224 C 21.1783 0.0525322 -1.60714 0
M  V30 225 O 22.3683 -0.184869 -1.73216 0
M  V30 226 C 19.5003 -0.473423 -3.37597 0
M  V30 227 H 20.6933 -1.92587 -2.29892 0
M  V30 228 H 18.2463 -1.03217 -1.17371 0
M  V30 229 H 18.9813 0.480379 -3.20722 0
M  V30 230 H 18.7663 -1.216 -3.72768 0
M  V30 231 H 20.2563 -0.32675 -4.1632 0
M  V30 232 N 20.6934 1.19889 -1.02296 0
M  V30 233 C 21.9214 1.9339 -0.735399 0
M  V30 234 C 22.3364 1.75148 0.704887 0
M  V30 235 O 21.6934 1.06954 1.47875 0
M  V30 236 C 21.7444 3.45313 -1.06962 0
M  V30 237 O 21.4654 3.62964 -2.45334 0
M  V30 238 C 22.9664 4.35948 -0.804021 0
M  V30 239 H 20.1864 0.61448 -0.269546 0
M  V30 240 H 22.7304 1.522 -1.36585 0
M  V30 241 H 20.8854 3.84359 -0.484455 0
M  V30 242 H 21.2994 4.56886 -2.57595 0
M  V30 243 H 22.7734 5.41174 -1.0879 0
M  V30 244 H 23.2504 4.3842 0.261691 0
M  V30 245 H 23.8564 4.02574 -1.37164 0
M  V30 246 N 22.1715 0.800033 1.35784 0
M  V30 247 C 23.0815 0.207204 2.33683 0
M  V30 248 C 24.0975 -0.64631 1.61551 0
M  V30 249 O 25.2735 -0.559604 1.93469 0
M  V30 250 C 22.3385 -0.639659 3.40748 0
M  V30 251 C 21.3995 0.233585 4.28664 0
M  V30 252 C 20.6325 -0.572954 5.30616 0
M  V30 253 O 20.8555 -1.80816 5.40982 0
M  V30 254 O 19.7895 0.0327285 6.01891 0
M  V30 255 H 23.6155 1.01692 2.86169 0
M  V30 256 H 21.2005 0.561691 1.38439 0
M  V30 257 H 23.0825 -1.12223 4.06182 0
M  V30 258 H 21.7575 -1.42708 2.90544 0
M  V30 259 H 20.6645 0.763147 3.66233 0
M  V30 260 H 21.9975 0.984784 4.82248 0
M  V30 261 N 23.6496 -1.47581 0.552962 0
M  V30 262 C 24.5976 -2.31648 -0.21023 0
M  V30 263 C 25.5916 -1.42663 -0.913432 0
M  V30 264 O 26.7976 -1.5945 -0.835201 0
M  V30 265 H 23.1726 -0.746989 -0.0866676 0
M  V30 266 H 25.1436 -2.93869 0.518051 0
M  V30 267 C 23.8926 -3.25226 -1.22976 0
M  V30 268 H 23.2156 -3.93658 -0.698077 0
M  V30 269 H 24.6556 -3.86889 -1.73473 0
M  V30 270 C 23.1146 -2.48448 -2.27542 0
M  V30 271 O 23.6446 -2.22585 -3.34393 0
M  V30 272 N 21.8506 -2.09532 -2.01357 0
M  V30 273 H 21.3976 -2.30765 -1.14478 0
M  V30 274 H 21.3556 -1.58476 -2.71538 0
M  V30 275 N 25.1277 -0.289203 -1.54924 0
M  V30 276 C 26.0757 0.607966 -2.24514 0
M  V30 277 C 27.0697 1.14655 -1.24702 0
M  V30 278 O 28.2757 1.09856 -1.4259 0
M  V30 279 H 24.6507 0.21464 -0.720718 0
M  V30 280 H 26.6217 -0.00164182 -2.984 0
M  V30 281 C 25.3707 1.77406 -2.99036 0
M  V30 282 H 24.6937 1.36884 -3.75637 0
M  V30 283 H 26.1337 2.37814 -3.51028 0
M  V30 284 C 24.5927 2.67107 -2.05318 0
M  V30 285 O 25.1227 3.6787 -1.61353 0
M  V30 286 N 23.3287 2.34582 -1.71521 0
M  V30 287 H 22.8757 1.52688 -2.07471 0
M  V30 288 H 22.8337 2.94867 -1.0909 0
M  V30 289 N 26.6058 1.57591 -0.0167156 0
M  V30 290 C 27.8338 1.95575 0.675128 0
M  V30 291 C 28.2488 0.892542 1.6637 0
M  V30 292 O 27.6058 -0.126912 1.82058 0
M  V30 293 C 27.6568 3.33608 1.39239 0
M  V30 294 O 27.3778 4.3585 0.443444 0
M  V30 295 C 28.8788 3.86151 2.17721 0
M  V30 296 H 26.0988 0.644423 0.186978 0
M  V30 297 H 28.6428 2.0437 -0.0728 0
M  V30 298 H 26.7978 3.2607 2.09182 0
M  V30 299 H 27.2118 5.158 0.951358 0
M  V30 300 H 28.6858 4.85114 2.63379 0
M  V30 301 H 29.1628 3.19738 3.01105 0
M  V30 302 H 29.7688 3.96918 1.52761 0
M  V30 303 N 28.0839 -0.256276 1.55502 0
M  V30 304 C 29.0469 -1.30047 1.88734 0
M  V30 305 C 30.0469 -1.4154 0.763086 0
M  V30 306 O 31.2369 -1.40403 1.03115 0
M  V30 307 C 28.3689 -2.67953 2.10747 0
M  V30 308 H 29.5619 -1.01802 2.82093 0
M  V30 309 H 27.1149 -0.495134 1.4825 0
M  V30 310 H 27.8499 -3.01351 1.19825 0
M  V30 311 H 27.6349 -2.60993 2.92617 0
M  V30 312 H 29.1249 -3.43368 2.37673 0
M  V30 313 N 29.562 -1.4872 -0.521534 0
M  V30 314 C 30.525 -1.63379 -1.60748 0
M  V30 315 C 31.525 -0.50661 -1.52611 0
M  V30 316 O 32.715 -0.772601 -1.5613 0
M  V30 317 C 29.847 -1.61192 -3.00383 0
M  V30 318 H 31.04 -2.60217 -1.49087 0
M  V30 319 H 28.593 -1.37444 -0.744235 0
M  V30 320 H 29.328 -0.65863 -3.17541 0
M  V30 321 H 29.113 -2.43032 -3.07698 0
M  V30 322 H 30.603 -1.7466 -3.7932 0
M  V30 323 N 31.0401 0.771051 -1.3745 0
M  V30 324 C 32.2681 1.56015 -1.35893 0
M  V30 325 C 32.6831 1.88718 0.0555523 0
M  V30 326 O 32.0401 1.51502 1.01752 0
M  V30 327 C 32.0911 2.87001 -2.19801 0
M  V30 328 O 31.8121 2.557 -3.55738 0
M  V30 329 C 33.3131 3.81228 -2.26231 0
M  V30 330 H 30.5331 0.483317 -0.465453 0
M  V30 331 H 33.0771 0.955611 -1.80799 0
M  V30 332 H 31.2321 3.43877 -1.78402 0
M  V30 333 H 31.6461 3.39584 -3.99729 0
M  V30 334 H 33.1201 4.70139 -2.89263 0
M  V30 335 H 33.5971 4.20409 -1.27093 0
M  V30 336 H 34.2031 3.30281 -2.67945 0
M  V30 337 N 32.5182 1.22032 0.997298 0
M  V30 338 C 33.9342 0.979326 1.26021 0
M  V30 339 C 34.1342 -0.32972 1.98784 0
M  V30 340 O 33.1902 -1.05345 2.29475 0
M  V30 341 C 34.5032 2.17509 2.07631 0
M  V30 342 C 36.0512 2.21817 2.2083 0
M  V30 343 C 36.5262 3.40933 3.05825 0
M  V30 344 N 38.0172 3.41067 3.13412 0
M  V30 345 C 38.7522 4.29885 3.79455 0
M  V30 346 N 38.2482 5.28914 4.47462 0
M  V30 347 N 40.0412 4.17673 3.76173 0
M  V30 348 H 32.1922 2.06202 0.509352 0
M  V30 349 H 34.4552 0.90334 0.287541 0
M  V30 350 H 34.1612 3.12415 1.61524 0
M  V30 351 H 34.0352 2.17206 3.08385 0
M  V30 352 H 36.4222 1.27462 2.66153 0
M  V30 353 H 36.5032 2.2616 1.1952 0
M  V30 354 H 36.1472 4.35586 2.61203 0
M  V30 355 H 36.0772 3.33829 4.07266 0
M  V30 356 H 38.5682 2.69406 2.65007 0
M  V30 357 H 38.8812 5.92973 4.95583 0
M  V30 358 H 37.2262 5.32831 4.46224 0
M  V30 359 H 40.4172 3.39564 3.22202 0
M  V30 360 H 40.5902 4.87098 4.27363 0
M  V30 361 N 33.9963 -1.19345 1.0293 0
M  V30 362 C 34.9443 -2.24621 0.604001 0
M  V30 363 C 35.9383 -1.65452 -0.363587 0
M  V30 364 O 37.1443 -1.78497 -0.23212 0
M  V30 365 H 33.5193 -0.730858 0.177061 0
M  V30 366 H 35.4903 -2.5781 1.50255 0
M  V30 367 C 34.2393 -3.47688 -0.0289127 0
M  V30 368 H 33.5623 -3.93505 0.706651 0
M  V30 369 H 35.0023 -4.23011 -0.289432 0
M  V30 370 C 33.4613 -3.11817 -1.2756 0
M  V30 371 O 33.9913 -3.2451 -2.36762 0
M  V30 372 N 32.1973 -2.66246 -1.16453 0
M  V30 373 H 31.7443 -2.56118 -0.275914 0
M  V30 374 H 31.7023 -2.42617 -1.99961 0
M  V30 375 N 35.4744 -0.807222 -1.35358 0
M  V30 376 C 36.6994 -0.399309 -2.0352 0
M  V30 377 C 37.1244 0.981986 -1.60433 0
M  V30 378 O 36.4824 1.63601 -0.781299 0
M  V30 379 C 36.5304 -0.491552 -3.57234 0
M  V30 380 O 35.6344 0.494754 -4.09421 0
M  V30 381 H 34.9754 -0.166682 -0.642739 0
M  V30 382 H 37.5054 -1.09328 -1.72941 0
M  V30 383 H 37.5154 -0.361588 -4.06395 0
M  V30 384 H 36.1904 -1.49907 -3.87944 0
M  V30 385 H 34.7674 0.324977 -3.71481 0
M  V30 386 N 36.9525 1.47285 -0.560781 0
M  V30 387 C 38.2295 1.9558 0.0277798 0
M  V30 388 C 38.6095 1.5034 1.48192 0
M  V30 389 O 37.9575 0.743882 2.16052 0
M  V30 390 C 38.1675 3.48789 -0.121418 0
M  V30 391 C 39.5155 4.24594 0.0220912 0
M  V30 392 O 40.5395 3.56166 -0.0491439 0
M  V30 393 O 39.3985 5.46217 0.175958 0
M  V30 394 H 36.4925 0.824663 0.0621342 0
M  V30 395 H 39.0385 1.5767 -0.627556 0
M  V30 396 H 37.8105 3.74533 -1.13316 0
M  V30 397 H 37.4335 3.93473 0.571366 0
M  V30 398 N 38.4306 0.297415 1.54768 0
M  V30 399 C 39.6776 -0.312913 2.00068 0
M  V30 400 C 40.0056 -1.54171 1.18582 0
M  V30 401 O 39.2606 -1.94108 0.249133 0
M  V30 402 C 39.5596 -0.717561 3.50123 0
M  V30 403 C 39.2256 0.409095 4.4904 0
M  V30 404 C 37.8876 0.718399 4.75807 0
M  V30 405 C 40.2396 1.16717 5.07963 0
M  V30 406 C 37.5676 1.78896 5.5876 0
M  V30 407 C 39.9196 2.22762 5.92081 0
M  V30 408 C 38.5836 2.54303 6.1716 0
M  V30 409 H 37.8536 -0.114503 0.7321 0
M  V30 410 H 40.5006 0.415767 1.86932 0
M  V30 411 H 38.8056 -1.52627 3.60849 0
M  V30 412 H 40.5026 -1.20091 3.82595 0
M  V30 413 H 37.0926 0.157918 4.28309 0
M  V30 414 H 41.2766 0.941466 4.87289 0
M  V30 415 H 36.5326 2.0381 5.7643 0
M  V30 416 H 40.7066 2.81962 6.36765 0
M  V30 417 H 38.3336 3.3739 6.81229 0
M  V30 418 N 39.9087 -1.5758 0.0250728 0
M  V30 419 C 41.3197 -1.79476 -0.514323 0
M  V30 420 C 41.6707 -0.934956 -1.72491 0
M  V30 421 O 40.7957 -0.144245 -2.15919 0
M  V30 422 C 41.3907 -3.25503 -0.939842 0
M  V30 423 C 39.9497 -3.48408 -1.42438 0
M  V30 424 C 39.0967 -2.74583 -0.387201 0
M  V30 425 H 42.0477 -1.567 0.25113 0
M  V30 426 H 42.0687 -3.34992 -1.80445 0
M  V30 427 H 41.5807 -3.88056 -0.0585628 0
M  V30 428 H 39.6817 -2.91103 -2.32572 0
M  V30 429 H 39.7947 -4.57119 -1.43455 0
M  V30 430 H 38.1587 -2.39942 -0.854409 0
M  V30 431 H 38.9417 -3.39849 0.485543 0
M  V30 432 N 41.3868 0.248026 -1.55636 0
M  V30 433 C 42.6328 0.97767 -1.77678 0
M  V30 434 C 42.9658 1.85016 -0.590135 0
M  V30 435 O 42.2408 1.90095 0.411611 0
M  V30 436 C 42.5238 1.83914 -3.09593 0
M  V30 437 C 42.3768 0.99491 -4.38659 0
M  V30 438 C 43.6958 2.82183 -3.37729 0
M  V30 439 H 40.8148 0.354005 -0.646413 0
M  V30 440 H 43.4568 0.248253 -1.88371 0
M  V30 441 H 41.6068 2.46104 -3.00608 0
M  V30 442 H 43.2788 0.391789 -4.59633 0
M  V30 443 H 41.5218 0.299231 -4.32767 0
M  V30 444 H 42.1928 1.63145 -5.2734 0
M  V30 445 H 44.6688 2.30129 -3.4667 0
M  V30 446 H 43.5448 3.39582 -4.31249 0
M  V30 447 H 43.8058 3.58588 -2.58586 0
M  V30 448 N 42.8649 1.48995 0.513639 0
M  V30 449 C 44.1109 1.59053 1.26783 0
M  V30 450 C 44.4659 0.268136 1.90522 0
M  V30 451 O 43.7589 -0.730534 1.77126 0
M  V30 452 C 43.9529 2.67756 2.36731 0
M  V30 453 C 43.7819 4.10437 1.83771 0
M  V30 454 C 42.5519 4.7738 1.65639 0
M  V30 455 C 44.7499 4.9608 1.35681 0
M  V30 456 N 42.7319 6.04419 1.07476 0
M  V30 457 C 44.1029 6.13496 0.895715 0
M  V30 458 C 46.1579 4.82177 1.24136 0
M  V30 459 C 44.8609 7.1854 0.3306 0
M  V30 460 C 46.8869 5.87358 0.690229 0
M  V30 461 C 46.2489 7.03993 0.239292 0
M  V30 462 H 42.3479 0.636463 0.454355 0
M  V30 463 H 44.9319 1.85948 0.577196 0
M  V30 464 H 43.1029 2.42655 3.03271 0
M  V30 465 H 44.8349 2.67406 3.0377 0
M  V30 466 H 41.5899 4.33974 1.8964 0
M  V30 467 H 42.0139 6.72214 0.803579 0
M  V30 468 H 46.6559 3.92329 1.57601 0
M  V30 469 H 44.3739 8.08098 -0.0163435 0
M  V30 470 H 47.9599 5.78658 0.603852 0
M  V30 471 H 46.8399 7.83992 -0.180526 0
M  V30 472 N 44.343 -0.763751 1.37857 0
M  V30 473 C 45.62 -1.51244 1.24035 0
M  V30 474 C 46 -2.10472 -0.162649 0
M  V30 475 O 45.348 -1.96206 -1.17112 0
M  V30 476 C 45.558 -2.58694 2.34261 0
M  V30 477 C 46.906 -3.25878 2.72193 0
M  V30 478 O 47.93 -2.68993 2.33497 0
M  V30 479 O 46.789 -4.2874 3.38887 0
M  V30 480 H 43.883 -0.670243 0.484462 0
M  V30 481 H 46.429 -0.800031 1.49658 0
M  V30 482 H 45.201 -2.13105 3.2818 0
M  V30 483 H 44.824 -3.37527 2.10146 0
M  V30 484 N 45.8211 -1.22559 -0.990812 0
M  V30 485 C 47.0981 -0.959875 -1.70428 0
M  V30 486 C 47.4781 0.524455 -2.04481 0
M  V30 487 O 46.8261 1.49302 -1.72977 0
M  V30 488 C 47.0361 -1.85955 -2.95333 0
M  V30 489 C 48.3841 -2.11687 -3.68068 0
M  V30 490 O 49.4081 -1.8342 -3.05345 0
M  V30 491 O 48.2671 -2.59572 -4.80921 0
M  V30 492 H 45.3611 -0.361154 -0.743974 0
M  V30 493 H 47.9071 -1.33554 -1.04697 0
M  V30 494 H 46.6791 -2.86346 -2.66687 0
M  V30 495 H 46.3021 -1.4856 -3.68803 0
M  V30 496 N 47.2992 1.18797 -1.03562 0
M  V30 497 C 48.5292 1.92319 -0.754773 0
M  V30 498 C 48.9372 1.7612 0.691248 0
M  V30 499 O 48.2802 1.08491 1.48241 0
M  V30 500 C 48.3422 3.44284 -1.03484 0
M  V30 501 C 48.0062 3.84258 -2.47376 0
M  V30 502 C 49.0032 3.88459 -3.45537 0
M  V30 503 C 46.6882 4.15701 -2.81954 0
M  V30 504 C 48.6822 4.23545 -4.76328 0
M  V30 505 C 46.3692 4.50458 -4.12954 0
M  V30 506 C 47.3672 4.54356 -5.09951 0
M  V30 507 O 47.0552 4.88305 -6.38603 0
M  V30 508 H 46.7872 0.617527 -0.275021 0
M  V30 509 H 49.3412 1.51683 -1.38497 0
M  V30 510 H 47.5712 3.85135 -0.347513 0
M  V30 511 H 49.2602 3.99049 -0.7426 0
M  V30 512 H 50.0262 3.6431 -3.20162 0
M  V30 513 H 45.9052 4.11847 -2.0713 0
M  V30 514 H 49.4492 4.26502 -5.52035 0
M  V30 515 H 45.3462 4.74067 -4.38099 0
M  V30 516 H 46.1142 5.06227 -6.43177 0
M  V30 517 N 48.7773 0.814389 1.34928 0
M  V30 518 C 49.7243 0.22822 2.29669 0
M  V30 519 C 50.6943 -0.642164 1.53184 0
M  V30 520 O 51.8793 -0.585605 1.81591 0
M  V30 521 C 49.0193 -0.61089 3.3965 0
M  V30 522 C 48.1323 0.280792 4.31086 0
M  V30 523 C 47.2673 -0.567067 5.28165 0
M  V30 524 C 46.3063 0.324531 6.11239 0
M  V30 525 N 45.4433 -0.483756 7.00431 0
M  V30 526 H 50.2833 1.04153 2.79206 0
M  V30 527 H 47.8203 0.525133 1.37407 0
M  V30 528 H 49.7783 -1.11263 4.0209 0
M  V30 529 H 48.4083 -1.38939 2.91369 0
M  V30 530 H 47.4603 0.900688 3.69583 0
M  V30 531 H 48.7723 0.966723 4.89342 0
M  V30 532 H 47.9263 -1.13363 5.96015 0
M  V30 533 H 46.6653 -1.28654 4.70425 0
M  V30 534 H 45.6703 0.903298 5.42329 0
M  V30 535 H 46.8953 1.04198 6.71059 0
M  V30 536 H 44.8413 -1.18706 6.45171 0
M  V30 537 H 44.7583 0.143965 7.55863 0
M  V30 538 H 46.0263 -1.03334 7.7262 0
M  V30 539 N 50.2554 -1.46986 0.568584 0
M  V30 540 C 51.4804 -2.07335 0.0520528 0
M  V30 541 C 51.9054 -1.41675 -1.23733 0
M  V30 542 O 51.2634 -0.495623 -1.74394 0
M  V30 543 C 51.3114 -3.60417 -0.11501 0
M  V30 544 O 50.4154 -3.95309 -1.17492 0
M  V30 545 H 49.7564 -0.661597 0.0564385 0
M  V30 546 H 52.2864 -1.88837 0.787507 0
M  V30 547 H 52.2964 -4.06698 -0.325644 0
M  V30 548 H 50.9714 -4.07601 0.826675 0
M  V30 549 H 49.5484 -3.60757 -0.943869 0
M  V30 550 N 51.7335 -0.305618 -1.54608 0
M  V30 551 C 52.9585 0.307562 -2.05107 0
M  V30 552 C 53.3835 1.46385 -1.18123 0
M  V30 553 O 52.7415 1.8034 -0.186324 0
M  V30 554 C 52.7895 0.73704 -3.52987 0
M  V30 555 O 51.8935 1.84134 -3.6901 0
M  V30 556 H 51.2345 0.0589143 -0.661381 0
M  V30 557 H 53.7645 -0.448807 -1.99617 0
M  V30 558 H 53.7745 1.02459 -3.94925 0
M  V30 559 H 52.4495 -0.108773 -4.15758 0
M  V30 560 H 51.0265 1.55398 -3.38978 0
M  V30 561 N 53.2116 1.57565 -0.0334293 0
M  V30 562 C 54.4576 1.92262 0.645226 0
M  V30 563 C 54.7906 0.910543 1.71531 0
M  V30 564 O 54.0656 -0.066099 1.94388 0
M  V30 565 C 54.3486 3.37422 1.2577 0
M  V30 566 C 54.2016 4.49369 0.196891 0
M  V30 567 C 55.5206 3.82628 2.17449 0
M  V30 568 H 52.6396 0.699171 0.233085 0
M  V30 569 H 55.2816 1.89779 -0.0915694 0
M  V30 570 H 53.4316 3.39669 1.88566 0
M  V30 571 H 55.1036 4.59254 -0.433962 0
M  V30 572 H 53.3466 4.31168 -0.477137 0
M  V30 573 H 54.0176 5.47978 0.665124 0
M  V30 574 H 56.4936 3.82145 1.64634 0
M  V30 575 H 55.3696 4.84883 2.57254 0
M  V30 576 H 55.6306 3.18376 3.0674 0
M  V30 577 N 54.6897 -0.239769 1.55765 0
M  V30 578 C 55.9667 -0.990056 1.68693 0
M  V30 579 C 56.3467 -2.03107 0.5754 0
M  V30 580 O 55.6947 -2.24604 -0.42017 0
M  V30 581 C 55.9047 -1.61696 3.09282 0
M  V30 582 C 57.2527 -2.11613 3.6811 0
M  V30 583 O 58.2767 -1.71624 3.12127 0
M  V30 584 O 57.1357 -2.85057 4.66267 0
M  V30 585 H 54.2297 -0.461299 0.686391 0
M  V30 586 H 56.7757 -0.232991 1.68093 0
M  V30 587 H 55.5477 -0.864357 3.81634 0
M  V30 588 H 55.1707 -2.44005 3.13923 0
M  V30 589 N 56.1678 -1.49265 -0.50573 0
M  V30 590 C 57.4448 -1.49012 -1.26707 0
M  V30 591 C 57.8248 -0.215205 -2.1 0
M  V30 592 O 57.1728 0.802547 -2.13943 0
M  V30 593 C 57.3828 -2.7663 -2.12783 0
M  V30 594 C 58.7308 -3.25932 -2.72127 0
M  V30 595 O 59.7548 -2.77715 -2.23054 0
M  V30 596 O 58.6138 -4.09897 -3.61451 0
M  V30 597 H 55.7078 -0.596197 -0.57313 0
M  V30 598 H 58.2538 -1.61524 -0.52039 0
M  V30 599 H 57.0258 -3.60916 -1.5118 0
M  V30 600 H 56.6488 -2.66956 -2.94653 0
M  V30 601 N 57.6459 0.756429 -1.3826 0
M  V30 602 C 58.5759 1.88374 -1.37976 0
M  V30 603 C 59.5569 1.68311 -0.246082 0
M  V30 604 O 60.7419 1.88944 -0.44874 0
M  V30 605 C 57.8719 3.25864 -1.20125 0
M  V30 606 C 56.8259 3.60523 -2.30666 0
M  V30 607 C 56.1519 4.9672 -1.97923 0
M  V30 608 C 57.4519 3.65692 -3.72916 0
M  V30 609 H 59.1459 1.88869 -2.32312 0
M  V30 610 H 56.6919 0.907272 -1.11824 0
M  V30 611 H 58.6449 4.0438 -1.18552 0
M  V30 612 H 57.3689 3.25841 -0.222498 0
M  V30 613 H 56.0279 2.84324 -2.3142 0
M  V30 614 H 55.6759 4.93253 -0.985393 0
M  V30 615 H 55.3759 5.20878 -2.71955 0
M  V30 616 H 56.8999 5.77618 -1.97964 0
M  V30 617 H 58.3139 4.34328 -3.74208 0
M  V30 618 H 56.7109 4.01358 -4.4613 0
M  V30 619 H 57.7809 2.65987 -4.05436 0
M  V30 620 N 59.124 1.23083 0.984299 0
M  V30 621 C 60.056 0.96636 2.07832 0
M  V30 622 C 61.069 -0.0582135 1.62696 0
M  V30 623 O 62.258 0.176843 1.77622 0
M  V30 624 C 59.358 0.433397 3.36117 0
M  V30 625 C 58.531 1.51722 4.10243 0
M  V30 626 C 57.59 0.989821 5.16807 0
M  V30 627 O 56.616 1.67794 5.43906 0
M  V30 628 N 57.818 -0.184367 5.80207 0
M  V30 629 H 60.583 1.90824 2.31098 0
M  V30 630 H 58.144 1.13888 1.1507 0
M  V30 631 H 60.136 0.065699 4.04647 0
M  V30 632 H 58.706 -0.413806 3.09849 0
M  V30 633 H 57.926 2.05786 3.36223 0
M  V30 634 H 59.214 2.24619 4.56534 0
M  V30 635 H 58.612 -0.760062 5.60571 0
M  V30 636 H 57.169 -0.493366 6.4993 0
M  V30 637 N 60.6021 -1.18246 1.0419 0
M  V30 638 C 61.8321 -1.91916 0.764961 0
M  V30 639 C 62.2401 -1.76485 -0.681898 0
M  V30 640 O 61.5831 -1.09275 -1.47664 0
M  V30 641 C 61.6451 -3.4373 1.05309 0
M  V30 642 C 61.3091 -3.8294 2.4941 0
M  V30 643 C 62.3061 -3.86621 3.47592 0
M  V30 644 C 59.9911 -4.142 2.84155 0
M  V30 645 C 61.9851 -4.21013 4.78568 0
M  V30 646 C 59.6721 -4.48262 4.15337 0
M  V30 647 C 60.6701 -4.51645 5.12353 0
M  V30 648 O 60.3581 -4.84911 6.41183 0
M  V30 649 H 60.0901 -0.61606 0.278292 0
M  V30 650 H 62.6441 -1.50947 1.39299 0
M  V30 651 H 60.8741 -3.84946 0.367933 0
M  V30 652 H 62.5631 -3.9865 0.763752 0
M  V30 653 H 63.3291 -3.62607 3.22089 0
M  V30 654 H 59.2081 -4.10743 2.09311 0
M  V30 655 H 62.7521 -4.23568 5.54289 0
M  V30 656 H 58.6491 -4.71737 4.40607 0
M  V30 657 H 59.4171 -5.02809 6.45852 0
M  V30 658 N 62.0802 -0.821533 -1.34494 0
M  V30 659 C 63.3272 -0.408946 -1.98328 0
M  V30 660 C 63.6552 1.02764 -1.65136 0
M  V30 661 O 62.9102 1.73026 -0.914349 0
M  V30 662 C 63.2092 -0.556512 -3.53041 0
M  V30 663 C 62.8752 -1.95861 -4.0614 0
M  V30 664 C 61.5372 -2.34217 -4.20352 0
M  V30 665 C 63.8892 -2.87523 -4.34718 0
M  V30 666 C 61.2172 -3.63572 -4.6047 0
M  V30 667 C 63.5692 -4.1634 -4.76281 0
M  V30 668 C 62.2332 -4.54675 -4.88699 0
M  V30 669 H 61.5032 -0.149644 -0.725732 0
M  V30 670 H 64.1502 -1.04521 -1.6046 0
M  V30 671 H 62.4552 0.163148 -3.9146 0
M  V30 672 H 64.1522 -0.217826 -4.00408 0
M  V30 673 H 60.7422 -1.65066 -3.95539 0
M  V30 674 H 64.9262 -2.59133 -4.23277 0
M  V30 675 H 60.1822 -3.93101 -4.68275 0
M  V30 676 H 64.3562 -4.87455 -4.97354 0
M  V30 677 H 61.9832 -5.54959 -5.19542 0
M  V30 678 N 63.5583 1.46682 -0.576371 0
M  V30 679 C 64.4883 2.33028 0.148397 0
M  V30 680 C 65.4693 1.44961 0.889956 0
M  V30 681 O 66.6543 1.73789 0.866662 0
M  V30 682 C 63.7843 3.27117 1.1667 0
M  V30 683 C 62.7383 4.24575 0.540386 0
M  V30 684 C 62.0643 5.08126 1.6647 0
M  V30 685 C 63.3643 5.19722 -0.518331 0
M  V30 686 H 65.0583 2.93875 -0.572509 0
M  V30 687 H 62.6043 1.41315 -0.276768 0
M  V30 688 H 64.5573 3.86374 1.68204 0
M  V30 689 H 63.2813 2.64364 1.9178 0
M  V30 690 H 61.9403 3.66571 0.0461769 0
M  V30 691 H 61.5883 4.41762 2.40531 0
M  V30 692 H 61.2883 5.74122 1.25131 0
M  V30 693 H 62.8123 5.70246 2.18293 0
M  V30 694 H 64.2263 5.73232 -0.0883058 0
M  V30 695 H 62.6233 5.94026 -0.851679 0
M  V30 696 H 63.6933 4.64037 -1.40703 0
M  V30 697 N 65.0364 0.313813 1.54444 0
M  V30 698 C 66.2854 -0.292519 1.99568 0
M  V30 699 C 66.5984 -1.54011 1.20582 0
M  V30 700 O 67.8044 -2.22183 1.56035 0
M  V30 701 C 66.2604 -0.571752 3.55329 0
M  V30 702 C 65.8684 0.658229 4.43138 0
M  V30 703 C 67.6124 -1.13857 4.08946 0
M  V30 704 C 65.5194 0.351439 5.90355 0
M  V30 705 H 64.4494 -0.113079 0.745472 0
M  V30 706 H 67.1004 0.424518 1.78522 0
M  V30 707 H 65.4824 -1.34872 3.72325 0
M  V30 708 H 66.6564 1.43403 4.37918 0
M  V30 709 H 64.9714 1.14458 4.0036 0
M  V30 710 H 67.5684 -1.38257 5.16516 0
M  V30 711 H 67.9114 -2.08489 3.6033 0
M  V30 712 H 68.4444 -0.423015 3.95544 0
M  V30 713 H 65.1834 1.26667 6.43145 0
M  V30 714 H 64.7034 -0.386842 5.98551 0
M  V30 715 H 66.3824 -0.0423134 6.46986 0
M  V30 716 N 66.5145 -1.57545 0.0417849 0
M  V30 717 C 67.7625 -1.91937 -0.632829 0
M  V30 718 C 68.0835 -0.919978 -1.71934 0
M  V30 719 O 67.3535 0.0366064 -1.95866 0
M  V30 720 H 65.9335 -0.708493 -0.236742 0
M  V30 721 H 68.5955 -1.9468 0.0925745 0
M  V30 722 H 67.6915 -2.92912 -1.07746 0
M  V30 723 N 67.9926 0.231505 -1.5589 0
M  V30 724 C 68.9226 1.29022 -1.94617 0
M  V30 725 C 69.9036 1.4941 -0.813067 0
M  V30 726 O 71.0886 1.6176 -1.07459 0
M  V30 727 C 68.2186 2.64199 -2.25424 0
M  V30 728 C 67.1726 2.58484 -3.41131 0
M  V30 729 C 66.4986 3.97599 -3.57518 0
M  V30 730 C 67.7986 2.1413 -4.76388 0
M  V30 731 H 69.4926 0.968563 -2.83301 0
M  V30 732 H 67.0386 0.464479 -1.36303 0
M  V30 733 H 68.9916 3.38413 -2.51107 0
M  V30 734 H 67.7156 2.98032 -1.33583 0
M  V30 735 H 66.3746 1.86727 -3.15481 0
M  V30 736 H 66.0226 4.28723 -2.6307 0
M  V30 737 H 65.7226 3.94659 -4.35337 0
M  V30 738 H 67.2466 4.7349 -3.85538 0
M  V30 739 H 68.6606 2.78083 -5.01341 0
M  V30 740 H 67.0576 2.2227 -5.57419 0
M  V30 741 H 68.1276 1.09331 -4.72414 0
M  V30 742 N 69.4707 1.49531 0.497807 0
M  V30 743 C 70.7007 1.62657 1.27382 0
M  V30 744 C 71.1087 0.298488 1.86831 0
M  V30 745 O 70.4517 -0.72647 1.68725 0
M  V30 746 C 70.5137 2.6393 2.44093 0
M  V30 747 C 70.1777 4.08195 2.05489 0
M  V30 748 C 71.1747 4.949 1.59279 0
M  V30 749 C 68.8597 4.53948 2.15026 0
M  V30 750 C 70.8537 6.25397 1.23113 0
M  V30 751 C 68.5407 5.84458 1.78473 0
M  V30 752 C 69.5387 6.70006 1.32591 0
M  V30 753 O 69.2267 7.98083 0.965327 0
M  V30 754 H 68.9587 0.550429 0.392434 0
M  V30 755 H 71.5127 1.96325 0.603801 0
M  V30 756 H 69.7427 2.25449 3.14181 0
M  V30 757 H 71.4317 2.66552 3.06113 0
M  V30 758 H 72.1977 4.60779 1.51354 0
M  V30 759 H 68.0767 3.87525 2.4969 0
M  V30 760 H 71.6207 6.92125 0.872299 0
M  V30 761 H 67.5177 6.18107 1.86048 0
M  V30 762 H 68.2857 8.11122 1.09652 0
M  V30 763 N 70.9488 -0.749086 1.3866 0
M  V30 764 C 72.1768 -1.53834 1.38358 0
M  V30 765 C 72.5918 -1.88783 -0.0255219 0
M  V30 766 O 71.9488 -1.53101 -0.993292 0
M  V30 767 C 71.9998 -2.83468 2.2434 0
M  V30 768 O 71.7208 -2.50008 3.5976 0
M  V30 769 C 73.2218 -3.7758 2.32267 0
M  V30 770 H 70.4418 -0.47585 0.473083 0
M  V30 771 H 72.9858 -0.926726 1.82297 0
M  V30 772 H 71.1408 -3.40995 1.83851 0
M  V30 773 H 71.5548 -3.33182 4.05081 0
M  V30 774 H 73.0288 -4.65478 2.96706 0
M  V30 775 H 73.5058 -4.18334 1.33765 0
M  V30 776 H 74.1118 -3.25976 2.73166 0
M  V30 777 N 72.4269 -1.23603 -0.977757 0
M  V30 778 C 73.6739 -1.06971 -1.71941 0
M  V30 779 C 74.0019 0.393009 -1.90488 0
M  V30 780 O 73.2569 1.30719 -1.4564 0
M  V30 781 C 73.5559 -1.7433 -3.11999 0
M  V30 782 C 73.2219 -3.24252 -3.13323 0
M  V30 783 C 71.8839 -3.65156 -3.13392 0
M  V30 784 C 74.2359 -4.20141 -3.08433 0
M  V30 785 C 71.5639 -5.00403 -3.0629 0
M  V30 786 C 73.9159 -5.55384 -3.02873 0
M  V30 787 C 72.5799 -5.95647 -3.01265 0
M  V30 788 H 71.8499 -0.391433 -0.629175 0
M  V30 789 H 74.4969 -1.53572 -1.14403 0
M  V30 790 H 72.8019 -1.20096 -3.7294 0
M  V30 791 H 74.4989 -1.58936 -3.68158 0
M  V30 792 H 71.0889 -2.91692 -3.14029 0
M  V30 793 H 75.2729 -3.89547 -3.07517 0
M  V30 794 H 70.5289 -5.3081 -3.03399 0
M  V30 795 H 74.7029 -6.29398 -2.98046 0
M  V30 796 H 72.3299 -7.0041 -2.95516 0
M  V30 797 N 73.905 1.17692 -1.04816 0
M  V30 798 C 75.151 1.88137 -0.75711 0
M  V30 799 C 75.484 1.80604 0.713841 0
M  V30 800 O 74.759 1.21146 1.52164 0
M  V30 801 C 75.042 3.38318 -1.2334 0
M  V30 802 C 74.895 3.54622 -2.76701 0
M  V30 803 C 76.214 4.32214 -0.829415 0
M  V30 804 H 73.333 0.683163 -0.27651 0
M  V30 805 H 75.975 1.38424 -1.30149 0
M  V30 806 H 74.125 3.80787 -0.770286 0
M  V30 807 H 75.797 3.21194 -3.31107 0
M  V30 808 H 74.04 2.97026 -3.16161 0
M  V30 809 H 74.711 4.60028 -3.05088 0
M  V30 810 H 77.187 3.97565 -1.22805 0
M  V30 811 H 76.063 5.35838 -1.19033 0
M  V30 812 H 76.324 4.41294 0.266891 0
M  V30 813 N 75.3831 0.828654 1.34056 0
M  V30 814 C 76.6081 0.431637 2.02859 0
M  V30 815 C 77.0331 -0.956339 1.61975 0
M  V30 816 O 76.3911 -1.62338 0.807228 0
M  V30 817 C 76.4391 0.548323 3.56407 0
M  V30 818 O 75.5431 -0.429556 4.10157 0
M  V30 819 H 74.8841 0.176886 0.640006 0
M  V30 820 H 77.4141 1.12066 1.71179 0
M  V30 821 H 77.4241 0.426196 4.05768 0
M  V30 822 H 76.0991 1.5606 3.8551 0
M  V30 823 H 74.6761 -0.265836 3.71951 0
M  V30 824 N 76.8612 -1.46375 0.584142 0
M  V30 825 C 77.7912 -2.33103 -0.136037 0
M  V30 826 C 78.7722 -1.45431 -0.882255 0
M  V30 827 O 79.9572 -1.74246 -0.857434 0
M  V30 828 C 77.0872 -3.27731 -1.14933 0
M  V30 829 C 76.0412 -4.24855 -0.517862 0
M  V30 830 C 75.3672 -5.09001 -1.63773 0
M  V30 831 C 76.6672 -5.19439 0.545886 0
M  V30 832 H 78.3612 -2.93568 0.588086 0
M  V30 833 H 75.9072 -1.41166 0.284259 0
M  V30 834 H 77.8602 -3.87261 -1.66153 0
M  V30 835 H 76.5842 -2.65377 -1.90375 0
M  V30 836 H 75.2432 -3.6659 -0.0267361 0
M  V30 837 H 74.8912 -4.43031 -2.38185 0
M  V30 838 H 74.5912 -5.74777 -1.22085 0
M  V30 839 H 76.1152 -5.71396 -2.15266 0
M  V30 840 H 77.5292 -5.73177 0.118704 0
M  V30 841 H 75.9262 -5.93566 0.88317 0
M  V30 842 H 76.9962 -4.63285 1.43162 0
M  V30 843 N 78.3393 -0.321999 -1.54275 0
M  V30 844 C 79.2693 0.537411 -2.27231 0
M  V30 845 C 80.2503 1.12064 -1.27968 0
M  V30 846 O 81.4353 1.14606 -1.56777 0
M  V30 847 C 78.5653 1.69919 -3.02894 0
M  V30 848 C 77.5193 1.24534 -4.09482 0
M  V30 849 C 76.8453 2.49394 -4.72977 0
M  V30 850 C 78.1453 0.361335 -5.21049 0
M  V30 851 H 79.8393 -0.0711406 -2.99315 0
M  V30 852 H 77.3853 -0.0356555 -1.43956 0
M  V30 853 H 79.3383 2.30668 -3.52662 0
M  V30 854 H 78.0623 2.33431 -2.28424 0
M  V30 855 H 76.7213 0.660782 -3.60596 0
M  V30 856 H 76.3693 3.11265 -3.95124 0
M  V30 857 H 76.0693 2.19718 -5.44975 0
M  V30 858 H 77.5933 3.10908 -5.25517 0
M  V30 859 H 79.0073 0.875072 -5.66582 0
M  V30 860 H 77.4043 0.157428 -5.99893 0
M  V30 861 H 78.4743 -0.60822 -4.8107 0
M  V30 862 N 79.8174 1.5752 -0.0501392 0
M  V30 863 C 81.0654 1.9227 0.622642 0
M  V30 864 C 81.3864 0.929083 1.71444 0
M  V30 865 O 80.6564 -0.0262186 1.95882 0
M  V30 866 H 79.2364 0.709739 0.232981 0
M  V30 867 H 81.8984 1.94628 -0.102898 0
M  V30 868 H 80.9944 2.93479 1.06191 0
M  V30 869 N 81.2955 -0.223234 1.56011 0
M  V30 870 C 82.5425 -0.947875 1.78946 0
M  V30 871 C 82.8705 -1.844 0.618608 0
M  V30 872 O 82.1255 -1.91629 -0.397093 0
M  V30 873 C 82.4245 -1.81948 3.0762 0
M  V30 874 C 82.0905 -1.07672 4.37856 0
M  V30 875 C 80.7525 -0.871544 4.73242 0
M  V30 876 C 83.1045 -0.552081 5.18268 0
M  V30 877 C 80.4325 -0.129791 5.86556 0
M  V30 878 C 82.7845 0.17632 6.32354 0
M  V30 879 C 81.4485 0.39277 6.66343 0
M  V30 880 H 80.7185 -0.346852 0.654809 0
M  V30 881 H 83.3655 -0.216171 1.90276 0
M  V30 882 H 81.6705 -2.61899 2.91404 0
M  V30 883 H 83.3675 -2.38227 3.22566 0
M  V30 884 H 79.9575 -1.24662 4.1007 0
M  V30 885 H 84.1415 -0.698076 4.91366 0
M  V30 886 H 79.3975 0.048153 6.11381 0
M  V30 887 H 83.5715 0.590367 6.93893 0
M  V30 888 H 81.1985 0.969466 7.53993 0
M  V30 889 N 82.7736 -1.49793 -0.48987 0
M  V30 890 C 83.7066 -1.61898 -1.60823 0
M  V30 891 C 84.6846 -0.467651 -1.5573 0
M  V30 892 O 85.8686 -0.684682 -1.75626 0
M  V30 893 C 82.9956 -1.58422 -2.99366 0
M  V30 894 C 82.0416 -2.78889 -3.22682 0
M  V30 895 S 82.8746 -4.40429 -3.04602 0
M  V30 896 C 84.0306 -4.39617 -4.4552 0
M  V30 897 H 84.2636 -2.56502 -1.50312 0
M  V30 898 H 81.7966 -1.38822 -0.675849 0
M  V30 899 H 83.7546 -1.57103 -3.79248 0
M  V30 900 H 82.4156 -0.650866 -3.07283 0
M  V30 901 H 81.6086 -2.72708 -4.23847 0
M  V30 902 H 81.2106 -2.77678 -2.50541 0
M  V30 903 H 83.5026 -4.12022 -5.37814 0
M  V30 904 H 84.4456 -5.41097 -4.56749 0
M  V30 905 H 84.8536 -3.69554 -4.2672 0
M  V30 906 N 84.2517 0.741722 -1.39055 0
M  V30 907 C 85.4997 1.49818 -1.35643 0
M  V30 908 C 85.8207 1.94938 0.0491642 0
M  V30 909 O 85.0907 1.68505 0.999141 0
M  V30 910 H 83.6707 0.555755 -0.499144 0
M  V30 911 H 86.3327 0.880957 -1.73854 0
M  V30 912 H 85.4287 2.38348 -2.01486 0
M  V30 913 N 85.7298 1.2412 0.971189 0
M  V30 914 C 86.6778 1.02812 2.08644 0
M  V30 915 C 87.6718 -0.0358403 1.69362 0
M  V30 916 O 88.8778 0.118429 1.7961 0
M  V30 917 H 85.2528 0.315428 0.682649 0
M  V30 918 H 87.2238 1.97397 2.23779 0
M  V30 919 C 85.9728 0.645874 3.41649 0
M  V30 920 H 85.2958 1.45632 3.72332 0
M  V30 921 H 86.7358 0.536366 4.20594 0
M  V30 922 C 85.1948 -0.646713 3.30635 0
M  V30 923 O 85.7248 -1.69338 3.64263 0
M  V30 924 N 83.9308 -0.626115 2.83775 0
M  V30 925 H 83.4778 0.225988 2.56607 0
M  V30 926 H 83.4358 -1.49117 2.76788 0
M  V30 927 N 87.2079 -1.17134 1.05439 0
M  V30 928 C 88.1379 -2.2342 0.678649 0
M  V30 929 C 89.1189 -1.66971 -0.32476 0
M  V30 930 O 90.3039 -1.93149 -0.201802 0
M  V30 931 C 87.4339 -3.47256 0.0552099 0
M  V30 932 C 86.3879 -4.16543 0.98365 0
M  V30 933 C 85.7139 -5.34231 0.223961 0
M  V30 934 C 87.0139 -4.68495 2.3089 0
M  V30 935 H 88.7079 -2.55105 1.56722 0
M  V30 936 H 86.2539 -1.2262 0.754998 0
M  V30 937 H 88.2069 -4.20828 -0.21946 0
M  V30 938 H 86.9309 -3.14846 -0.868319 0
M  V30 939 H 85.5899 -3.44887 1.24293 0
M  V30 940 H 85.2379 -4.98071 -0.702412 0
M  V30 941 H 84.9379 -5.81527 0.842627 0
M  V30 942 H 86.4619 -6.10585 -0.0433671 0
M  V30 943 H 87.8759 -5.33691 2.09396 0
M  V30 944 H 86.2729 -5.26379 2.88176 0
M  V30 945 H 87.3429 -3.85169 2.94572 0
M  V30 946 N 88.686 -0.835752 -1.33615 0
M  V30 947 C 89.616 -0.281739 -2.31794 0
M  V30 948 C 90.597 0.608833 -1.58831 0
M  V30 949 O 91.782 0.533035 -1.86741 0
M  V30 950 C 88.912 0.546612 -3.42971 0
M  V30 951 C 87.866 -0.247904 -4.27281 0
M  V30 952 C 87.192 0.704001 -5.30045 0
M  V30 953 C 88.492 -1.46324 -5.01385 0
M  V30 954 H 90.186 -1.10206 -2.78379 0
M  V30 955 H 87.732 -0.531388 -1.33837 0
M  V30 956 H 89.685 0.944467 -4.1068 0
M  V30 957 H 88.409 1.40011 -2.95067 0
M  V30 958 H 87.068 -0.627281 -3.61194 0
M  V30 959 H 86.716 1.55381 -4.78399 0
M  V30 960 H 86.416 0.176524 -5.87335 0
M  V30 961 H 87.94 1.09944 -6.0062 0
M  V30 962 H 89.354 -1.13871 -5.61877 0
M  V30 963 H 87.751 -1.92728 -5.6831 0
M  V30 964 H 88.821 -2.23467 -4.30338 0
M  V30 965 N 90.1641 1.46063 -0.591896 0
M  V30 966 C 91.4131 2.01547 -0.0786637 0
M  V30 967 C 91.7261 1.46796 1.29268 0
M  V30 968 O 92.9321 1.94157 1.89777 0
M  V30 969 C 91.3881 3.59787 -0.0900024 0
M  V30 970 C 90.9961 4.23534 -1.46023 0
M  V30 971 C 92.7401 4.22895 0.368806 0
M  V30 972 C 90.6471 5.73881 -1.4288 0
M  V30 973 H 89.5771 0.753564 -0.0256388 0
M  V30 974 H 92.2281 1.677 -0.744905 0
M  V30 975 H 90.6101 3.90752 0.642586 0
M  V30 976 H 91.7841 4.04167 -2.21328 0
M  V30 977 H 90.0991 3.72558 -1.85982 0
M  V30 978 H 92.6961 5.33116 0.411258 0
M  V30 979 H 93.0391 3.9247 1.38827 0
M  V30 980 H 93.5721 3.9659 -0.31001 0
M  V30 981 H 90.3111 6.0898 -2.42536 0
M  V30 982 H 89.8311 5.95486 -0.718095 0
M  V30 983 H 91.5101 6.36776 -1.14565 0
M  V30 984 N 91.6422 0.330177 1.54103 0
M  V30 985 C 92.5722 -0.525353 2.27513 0
M  V30 986 C 93.5532 -1.11383 1.2856 0
M  V30 987 O 94.7382 -1.13773 1.57383 0
M  V30 988 C 91.8682 -1.6831 3.03791 0
M  V30 989 C 90.8222 -1.2236 4.10137 0
M  V30 990 C 90.1482 -2.46882 4.74293 0
M  V30 991 C 91.4482 -0.333697 5.21233 0
M  V30 992 H 93.1422 0.087013 2.99274 0
M  V30 993 H 90.6882 0.0432893 1.43935 0
M  V30 994 H 92.6412 -2.28795 3.5388 0
M  V30 995 H 91.3652 -2.32216 2.29659 0
M  V30 996 H 90.0242 -0.64165 3.60941 0
M  V30 997 H 89.6722 -3.09165 3.96769 0
M  V30 998 H 89.3722 -2.16825 5.46133 0
M  V30 999 H 90.8962 -3.08117 5.27159 0
M  V30 1000 H 92.3102 -0.845013 5.67038 0
M  V30 1001 H 90.7072 -0.125612 5.99969 0
M  V30 1002 H 91.7772 0.633724 4.80741 0
M  V30 1003 N 93.1203 -1.57491 0.0584922 0
M  V30 1004 C 94.0533 -2.07533 -0.948969 0
M  V30 1005 C 95.0313 -0.977444 -1.29942 0
M  V30 1006 O 96.2153 -1.2499 -1.41102 0
M  V30 1007 C 93.3423 -2.52192 -2.2609 0
M  V30 1008 C 92.3883 -3.73287 -2.06298 0
M  V30 1009 S 93.2213 -5.18603 -1.33459 0
M  V30 1010 C 94.3773 -5.66583 -2.65959 0
M  V30 1011 H 94.6103 -2.92662 -0.523118 0
M  V30 1012 H 92.1433 -1.53631 -0.153954 0
M  V30 1013 H 94.1013 -2.78585 -3.01498 0
M  V30 1014 H 92.7623 -1.67356 -2.65802 0
M  V30 1015 H 91.9553 -4.0248 -3.03357 0
M  V30 1016 H 91.5573 -3.47199 -1.39029 0
M  V30 1017 H 93.8493 -5.72616 -3.62101 0
M  V30 1018 H 94.7923 -6.65684 -2.41393 0
M  V30 1019 H 95.2003 -4.94342 -2.72554 0
M  V30 1020 N 94.5984 0.214957 -1.56127 0
M  V30 1021 C 95.5614 1.24997 -1.92116 0
M  V30 1022 C 96.5614 1.39467 -0.800344 0
M  V30 1023 O 97.7514 1.37619 -1.06802 0
M  V30 1024 C 94.8834 2.62271 -2.17777 0
M  V30 1025 H 96.0764 0.942875 -2.84693 0
M  V30 1026 H 93.6294 0.455654 -1.49511 0
M  V30 1027 H 94.3644 2.98068 -1.27773 0
M  V30 1028 H 94.1494 2.53143 -2.99434 0
M  V30 1029 H 95.6394 3.36946 -2.46693 0
M  V30 1030 N 96.0765 1.50051 0.48192 0
M  V30 1031 C 97.0065 1.71046 1.58951 0
M  V30 1032 C 97.9875 0.559288 1.60642 0
M  V30 1033 O 99.1725 0.797243 1.77081 0
M  V30 1034 C 96.3025 1.79462 2.97339 0
M  V30 1035 C 95.2565 2.94558 3.10515 0
M  V30 1036 C 94.5825 2.88105 4.50444 0
M  V30 1037 C 95.8825 4.35227 2.88747 0
M  V30 1038 H 97.5765 2.6378 1.41635 0
M  V30 1039 H 95.1225 1.26936 0.679942 0
M  V30 1040 H 97.0755 1.92734 3.74742 0
M  V30 1041 H 95.7995 0.833412 3.15788 0
M  V30 1042 H 94.4585 2.80918 2.35543 0
M  V30 1043 H 94.1065 1.89853 4.65795 0
M  V30 1044 H 93.8065 3.65366 4.60197 0
M  V30 1045 H 95.3305 3.03412 5.29881 0
M  V30 1046 H 96.7445 4.49449 3.55905 0
M  V30 1047 H 95.1415 5.13856 3.09955 0
M  V30 1048 H 96.2115 4.48347 1.84696 0
M  V30 1049 N 97.5546 -0.734337 1.39446 0
M  V30 1050 C 98.4876 -1.85715 1.32609 0
M  V30 1051 C 99.4656 -1.6137 0.199636 0
M  V30 1052 O 100.65 -1.84626 0.380195 0
M  V30 1053 C 97.7766 -3.21709 1.05929 0
M  V30 1054 C 96.8226 -3.64913 2.20773 0
M  V30 1055 S 97.6556 -3.74203 3.83056 0
M  V30 1056 C 98.8116 -5.12986 3.58603 0
M  V30 1057 H 99.0446 -1.91232 2.27635 0
M  V30 1058 H 96.5776 -0.899263 1.25509 0
M  V30 1059 H 98.5356 -4.00236 0.912203 0
M  V30 1060 H 97.1966 -3.13848 0.125883 0
M  V30 1061 H 96.3896 -4.63606 1.97699 0
M  V30 1062 H 95.9916 -2.93593 2.31688 0
M  V30 1063 H 98.2836 -5.99339 3.15909 0
M  V30 1064 H 99.2266 -5.41088 4.5676 0
M  V30 1065 H 99.6346 -4.82694 2.9269 0
M  V30 1066 N 99.0327 -1.24633 -0.964593 0
M  V30 1067 C 99.9797 -1.04144 -2.05968 0
M  V30 1068 C 100.95 0.046262 -1.66036 0
M  V30 1069 O 102.135 -0.108972 -1.90489 0
M  V30 1070 C 99.2747 -0.65563 -3.38815 0
M  V30 1071 C 98.3877 -1.81714 -3.91923 0
M  V30 1072 C 97.5227 -1.37662 -5.13052 0
M  V30 1073 C 96.5617 -2.50788 -5.58365 0
M  V30 1074 N 95.6987 -2.07582 -6.70712 0
M  V30 1075 H 100.539 -1.9787 -2.22827 0
M  V30 1076 H 98.0757 -0.9855 -1.09208 0
M  V30 1077 H 100.034 -0.412954 -4.15151 0
M  V30 1078 H 98.6637 0.244627 -3.21872 0
M  V30 1079 H 97.7157 -2.1734 -3.12198 0
M  V30 1080 H 99.0277 -2.66705 -4.21509 0
M  V30 1081 H 98.1817 -1.093 -5.96773 0
M  V30 1082 H 96.9207 -0.497293 -4.85158 0
M  V30 1083 H 95.9257 -2.79906 -4.73215 0
M  V30 1084 H 97.1507 -3.39283 -5.88272 0
M  V30 1085 H 95.0967 -1.22051 -6.44546 0
M  V30 1086 H 95.0137 -2.86125 -6.99763 0
M  V30 1087 H 96.2817 -1.82369 -7.57867 0
M  V30 1088 N 100.511 1.16574 -1.06058 0
M  V30 1089 C 101.458 2.20883 -0.669263 0
M  V30 1090 C 102.428 1.62729 0.332918 0
M  V30 1091 O 103.613 1.895 0.222346 0
M  V30 1092 C 100.753 3.45049 -0.0593572 0
M  V30 1093 C 99.8658 4.17458 -1.11143 0
M  V30 1094 C 99.0008 5.29135 -0.467916 0
M  V30 1095 C 98.0398 5.93343 -1.50369 0
M  V30 1096 N 97.1768 6.96516 -0.883706 0
M  V30 1097 H 102.017 2.53709 -1.5632 0
M  V30 1098 H 99.5538 1.24616 -0.781625 0
M  V30 1099 H 101.512 4.16033 0.311771 0
M  V30 1100 H 100.142 3.12781 0.797992 0
M  V30 1101 H 99.1938 3.45101 -1.60029 0
M  V30 1102 H 100.506 4.61307 -1.89731 0
M  V30 1103 H 99.6598 6.06684 -0.0436871 0
M  V30 1104 H 98.3988 4.86443 0.349864 0
M  V30 1105 H 97.4038 5.14517 -1.93784 0
M  V30 1106 H 98.6288 6.38114 -2.32352 0
M  V30 1107 H 96.5748 6.55943 -0.086595 0
M  V30 1108 H 96.4918 7.38723 -1.607 0
M  V30 1109 H 97.7598 7.77993 -0.484543 0
M  V30 1110 N 101.989 0.842826 1.3317 0
M  V30 1111 C 103.405 0.531128 1.50503 0
M  V30 1112 C 103.605 -0.940734 1.78192 0
M  V30 1113 O 102.661 -1.72436 1.84451 0
M  V30 1114 C 103.974 1.40789 2.65705 0
M  V30 1115 C 105.522 1.40708 2.79589 0
M  V30 1116 C 105.997 2.26878 3.97857 0
M  V30 1117 N 107.488 2.24609 4.05099 0
M  V30 1118 C 108.223 2.88019 4.95815 0
M  V30 1119 N 107.719 3.60496 5.9162 0
M  V30 1120 N 109.512 2.77469 4.88843 0
M  V30 1121 H 101.663 1.79557 1.1346 0
M  V30 1122 H 103.926 0.766267 0.558156 0
M  V30 1123 H 103.632 2.454 2.51936 0
M  V30 1124 H 103.506 1.08677 3.61205 0
M  V30 1125 H 105.893 0.368668 2.92788 0
M  V30 1126 H 105.974 1.76829 1.84838 0
M  V30 1127 H 105.618 3.3078 3.85418 0
M  V30 1128 H 105.548 1.88096 4.91861 0
M  V30 1129 H 108.039 1.71906 3.36536 0
M  V30 1130 H 108.352 4.06076 6.57512 0
M  V30 1131 H 106.697 3.64604 5.91683 0
M  V30 1132 H 109.888 2.20406 4.12963 0
M  V30 1133 H 110.061 3.2717 5.59342 0
M  V30 1134 N 103.467 -1.45747 0.599634 0
M  V30 1135 C 104.415 -2.322 -0.136426 0
M  V30 1136 C 105.409 -1.45497 -0.867583 0
M  V30 1137 O 106.615 -1.62027 -0.78405 0
M  V30 1138 H 102.99 -0.749368 -0.0628588 0
M  V30 1139 H 104.961 -2.92072 0.611281 0
M  V30 1140 C 103.71 -3.28974 -1.12567 0
M  V30 1141 H 103.033 -3.9568 -0.572484 0
M  V30 1142 H 104.473 -3.92212 -1.61077 0
M  V30 1143 C 102.932 -2.55561 -2.19523 0
M  V30 1144 O 103.462 -2.33111 -3.27143 0
M  V30 1145 N 101.668 -2.15832 -1.94589 0
M  V30 1146 H 101.215 -2.3429 -1.07078 0
M  V30 1147 H 101.173 -1.67034 -2.66359 0
M  V30 1148 N 104.945 -0.338344 -1.53925 0
M  V30 1149 C 105.877 0.555117 -2.22376 0
M  V30 1150 C 106.89 1.06812 -1.22862 0
M  V30 1151 O 108.079 0.979163 -1.49247 0
M  V30 1152 C 105.179 1.77609 -2.88631 0
M  V30 1153 C 104.352 1.39927 -4.14414 0
M  V30 1154 C 103.411 2.47936 -4.64127 0
M  V30 1155 O 102.437 2.11461 -5.28463 0
M  V30 1156 N 103.639 3.79107 -4.39612 0
M  V30 1157 H 106.404 -0.0310778 -2.99684 0
M  V30 1158 H 103.965 -0.162226 -1.61085 0
M  V30 1159 H 105.957 2.49287 -3.18807 0
M  V30 1160 H 104.527 2.26978 -2.14941 0
M  V30 1161 H 103.747 0.513481 -3.90841 0
M  V30 1162 H 105.035 1.12341 -4.96243 0
M  V30 1163 H 104.433 4.11531 -3.88148 0
M  V30 1164 H 102.99 4.4697 -4.74406 0
M  V30 1165 N 106.423 1.57458 -0.0668435 0
M  V30 1166 C 107.37 2.12439 0.902122 0
M  V30 1167 C 108.34 1.03565 1.2986 0
M  V30 1168 O 109.525 1.312 1.38532 0
M  V30 1169 C 106.665 2.6865 2.16614 0
M  V30 1170 C 105.778 3.91663 1.82274 0
M  V30 1171 C 104.913 4.36134 3.0325 0
M  V30 1172 C 103.952 5.51808 2.64904 0
M  V30 1173 N 103.089 5.9126 3.78624 0
M  V30 1174 H 107.929 2.94934 0.426382 0
M  V30 1175 H 105.466 1.4575 0.198819 0
M  V30 1176 H 107.424 2.99346 2.90599 0
M  V30 1177 H 106.054 1.88928 2.61737 0
M  V30 1178 H 105.106 3.6746 0.983719 0
M  V30 1179 H 106.418 4.75693 1.50059 0
M  V30 1180 H 105.572 4.68465 3.85519 0
M  V30 1181 H 104.311 3.50948 3.38655 0
M  V30 1182 H 103.316 5.19133 1.81055 0
M  V30 1183 H 104.541 6.38722 2.30675 0
M  V30 1184 H 102.487 5.09024 4.138 0
M  V30 1185 H 102.404 6.70018 3.5016 0
M  V30 1186 H 103.672 6.28212 4.61486 0
M  V30 1187 N 107.901 -0.206675 1.56239 0
M  V30 1188 C 109.129 -0.945345 1.8404 0
M  V30 1189 C 109.544 -1.77336 0.647885 0
M  V30 1190 O 108.901 -1.78425 -0.383511 0
M  V30 1191 C 108.952 -1.8509 3.10522 0
M  V30 1192 O 108.673 -1.05634 4.25174 0
M  V30 1193 C 110.174 -2.70222 3.51418 0
M  V30 1194 H 107.394 -0.276372 0.61144 0
M  V30 1195 H 109.938 -0.217417 2.03341 0
M  V30 1196 H 108.093 -2.53259 2.93153 0
M  V30 1197 H 108.507 -1.67238 4.97124 0
M  V30 1198 H 109.981 -3.29438 4.42916 0
M  V30 1199 H 110.458 -3.43358 2.73864 0
M  V30 1200 H 111.064 -2.07443 3.71278 0
M  V30 1201 N 109.379 -1.50304 -0.473955 0
M  V30 1202 C 110.607 -1.64902 -1.24959 0
M  V30 1203 C 111.022 -0.331198 -1.85872 0
M  V30 1204 O 110.379 0.68652 -1.69095 0
M  V30 1205 C 110.43 -2.73803 -2.36038 0
M  V30 1206 O 110.151 -4.00477 -1.77624 0
M  V30 1207 C 111.652 -2.99349 -3.26964 0
M  V30 1208 H 108.872 -0.554383 -0.378022 0
M  V30 1209 H 111.416 -1.9651 -0.566054 0
M  V30 1210 H 109.571 -2.44898 -3.00173 0
M  V30 1211 H 109.985 -4.60678 -2.5075 0
M  V30 1212 H 111.459 -3.79217 -4.01121 0
M  V30 1213 H 111.936 -2.10307 -3.85574 0
M  V30 1214 H 112.542 -3.29774 -2.68569 0
M  V30 1215 N 110.857 0.726932 -1.39834 0
M  V30 1216 C 112.103 1.48884 -1.377 0
M  V30 1217 C 112.436 1.94185 0.0244852 0
M  V30 1218 O 111.711 1.67361 0.990986 0
M  V30 1219 C 111.994 2.72288 -2.3565 0
M  V30 1220 C 111.847 2.32956 -3.84775 0
M  V30 1221 C 113.166 3.74414 -2.31306 0
M  V30 1222 H 110.285 0.540062 -0.5015 0
M  V30 1223 H 112.927 0.830547 -1.70886 0
M  V30 1224 H 111.077 3.28457 -2.07481 0
M  V30 1225 H 112.749 1.82356 -4.23726 0
M  V30 1226 H 110.992 1.65088 -4.01159 0
M  V30 1227 H 111.663 3.21362 -4.4881 0
M  V30 1228 H 114.139 3.27849 -2.56231 0
M  V30 1229 H 113.015 4.58414 -3.01907 0
M  V30 1230 H 113.276 4.21909 -1.32081 0
M  V30 1231 N 112.336 1.25143 0.95797 0
M  V30 1232 C 113.284 1.05019 2.07542 0
M  V30 1233 C 114.278 -0.0178751 1.69391 0
M  V30 1234 O 115.484 0.137472 1.79474 0
M  V30 1235 H 111.859 0.32265 0.679265 0
M  V30 1236 H 113.83 1.99759 2.21673 0
M  V30 1237 C 112.579 0.682074 3.40944 0
M  V30 1238 H 111.902 1.49573 3.70767 0
M  V30 1239 H 113.342 0.580945 4.20001 0
M  V30 1240 C 111.801 -0.611608 3.31302 0
M  V30 1241 O 112.331 -1.65465 3.66038 0
M  V30 1242 N 110.537 -0.595982 2.84423 0
M  V30 1243 H 110.084 0.253192 2.56353 0
M  V30 1244 H 110.042 -1.46173 2.78354 0
M  V30 1245 N 113.814 -1.1601 1.06675 0
M  V30 1246 C 115.061 -1.86633 0.785781 0
M  V30 1247 C 115.389 -1.81929 -0.687896 0
M  V30 1248 O 114.644 -1.23253 -1.52011 0
M  V30 1249 C 114.943 -3.35547 1.23057 0
M  V30 1250 C 114.609 -3.60448 2.70902 0
M  V30 1251 C 113.271 -3.66954 3.11285 0
M  V30 1252 C 115.623 -3.7071 3.66365 0
M  V30 1253 C 112.951 -3.81225 4.45965 0
M  V30 1254 C 115.303 -3.86503 5.00797 0
M  V30 1255 C 113.967 -3.91252 5.40813 0
M  V30 1256 H 113.237 -0.682937 0.287538 0
M  V30 1257 H 115.884 -1.37146 1.33654 0
M  V30 1258 H 114.189 -3.87193 0.59907 0
M  V30 1259 H 115.886 -3.88583 0.990163 0
M  V30 1260 H 112.476 -3.56021 2.38636 0
M  V30 1261 H 116.66 -3.64991 3.36296 0
M  V30 1262 H 111.916 -3.83155 4.76447 0
M  V30 1263 H 116.09 -3.93385 5.74649 0
M  V30 1264 H 113.717 -4.02062 6.45174 0
M  V30 1265 N 115.292 -0.849877 -1.32721 0
M  V30 1266 C 116.222 -0.306308 -2.31482 0
M  V30 1267 C 117.203 0.591952 -1.59468 0
M  V30 1268 O 118.388 0.513199 -1.87296 0
M  V30 1269 C 115.518 0.510204 -3.43532 0
M  V30 1270 C 114.472 -0.293209 -4.26994 0
M  V30 1271 C 113.798 0.647743 -5.30762 0
M  V30 1272 C 115.098 -1.51634 -4.99804 0
M  V30 1273 H 116.792 -1.13153 -2.77195 0
M  V30 1274 H 114.338 -0.545553 -1.33266 0
M  V30 1275 H 116.291 0.900856 -4.11658 0
M  V30 1276 H 115.015 1.36874 -2.96535 0
M  V30 1277 H 113.674 -0.665555 -3.60508 0
M  V30 1278 H 113.322 1.50299 -4.8002 0
M  V30 1279 H 113.022 0.11422 -5.87489 0
M  V30 1280 H 114.546 1.03567 -6.01753 0
M  V30 1281 H 115.96 -1.19824 -5.60638 0
M  V30 1282 H 114.357 -1.98745 -5.66234 0
M  V30 1283 H 115.427 -2.28018 -4.27943 0
M  V30 1284 N 116.77 1.45427 -0.607355 0
M  V30 1285 C 118.019 2.01452 -0.100036 0
M  V30 1286 C 118.332 1.48159 1.27704 0
M  V30 1287 O 119.538 1.96159 1.87707 0
M  V30 1288 C 117.994 3.59672 -0.128158 0
M  V30 1289 C 117.602 4.21962 -1.50507 0
M  V30 1290 C 119.346 4.23262 0.323932 0
M  V30 1291 C 117.253 5.72333 -1.48959 0
M  V30 1292 H 116.183 0.75325 -0.0336299 0
M  V30 1293 H 118.834 1.66901 -0.76265 0
M  V30 1294 H 117.216 3.91411 0.601105 0
M  V30 1295 H 118.39 4.01796 -2.25602 0
M  V30 1296 H 116.705 3.70565 -1.89923 0
M  V30 1297 H 119.302 5.33522 0.354691 0
M  V30 1298 H 119.645 3.93921 1.34656 0
M  V30 1299 H 120.178 3.96239 -0.352056 0
M  V30 1300 H 116.917 6.06373 -2.48981 0
M  V30 1301 H 116.437 5.94691 -0.781214 0
M  V30 1302 H 118.116 6.35525 -1.21313 0
M  V30 1303 N 118.248 0.346503 1.53744 0
M  V30 1304 C 119.496 -0.248612 2.00565 0
M  V30 1305 C 119.817 -1.5083 1.23593 0
M  V30 1306 O 119.087 -1.92858 0.343912 0
M  V30 1307 H 117.667 -0.0948564 0.740953 0
M  V30 1308 H 120.329 0.468341 1.89189 0
M  V30 1309 H 119.425 -0.488994 3.08245 0
M  V30 1310 N 119.726 -1.57421 0.075193 0
M  V30 1311 C 120.674 -2.14124 -0.908508 0
M  V30 1312 C 121.668 -1.07898 -1.30592 0
M  V30 1313 O 122.874 -1.26273 -1.28277 0
M  V30 1314 H 119.249 -0.684707 -0.310935 0
M  V30 1315 H 121.22 -2.95634 -0.405374 0
M  V30 1316 C 119.969 -2.72044 -2.16535 0
M  V30 1317 H 119.292 -3.53456 -1.86839 0
M  V30 1318 H 120.732 -3.15311 -2.83469 0
M  V30 1319 C 119.191 -1.66968 -2.92615 0
M  V30 1320 O 119.721 -1.0967 -3.86439 0
M  V30 1321 N 117.927 -1.37923 -2.55784 0
M  V30 1322 H 117.474 -1.84706 -1.79559 0
M  V30 1323 H 117.432 -0.67852 -3.06991 0
M  V30 1324 N 121.204 0.198386 -1.56346 0
M  V30 1325 C 122.134 1.24865 -1.9731 0
M  V30 1326 C 123.115 1.47651 -0.844576 0
M  V30 1327 O 124.3 1.59444 -1.10866 0
M  V30 1328 C 121.43 2.59358 -2.30977 0
M  V30 1329 C 120.384 2.5119 -3.46537 0
M  V30 1330 C 119.71 3.89926 -3.65871 0
M  V30 1331 C 121.01 2.03977 -4.80823 0
M  V30 1332 H 122.704 0.908252 -2.85291 0
M  V30 1333 H 120.25 0.435462 -1.37258 0
M  V30 1334 H 122.203 3.33011 -2.58228 0
M  V30 1335 H 120.927 2.95132 -1.39874 0
M  V30 1336 H 119.586 1.79993 -3.19371 0
M  V30 1337 H 119.234 4.23046 -2.72105 0
M  V30 1338 H 118.934 3.85336 -4.4361 0
M  V30 1339 H 120.458 4.65205 -3.95495 0
M  V30 1340 H 121.872 2.67386 -5.07127 0
M  V30 1341 H 120.269 2.10397 -5.62008 0
M  V30 1342 H 121.339 0.992861 -4.74626 0
M  V30 1343 N 122.682 1.50554 0.465978 0
M  V30 1344 C 123.645 1.69233 1.54574 0
M  V30 1345 C 124.645 0.562901 1.50626 0
M  V30 1346 O 125.835 0.830016 1.53155 0
M  V30 1347 C 122.967 1.7223 2.94193 0
M  V30 1348 H 124.16 2.65571 1.39327 0
M  V30 1349 H 121.713 1.40111 0.692711 0
M  V30 1350 H 122.448 0.77603 3.14878 0
M  V30 1351 H 122.233 2.54285 2.98466 0
M  V30 1352 H 123.723 1.88618 3.72576 0
M  V30 1353 N 124.16 -0.719506 1.40217 0
M  V30 1354 C 125.407 -1.47933 1.38283 0
M  V30 1355 C 125.735 -1.94493 -0.0161536 0
M  V30 1356 O 124.99 -1.68224 -0.999956 0
M  V30 1357 C 125.289 -2.72271 2.31524 0
M  V30 1358 C 124.955 -2.44496 3.78857 0
M  V30 1359 C 123.617 -2.36631 4.18998 0
M  V30 1360 C 125.969 -2.21104 4.71977 0
M  V30 1361 C 123.297 -2.03437 5.503 0
M  V30 1362 C 125.649 -1.89423 6.03574 0
M  V30 1363 C 124.313 -1.80038 6.42762 0
M  V30 1364 H 123.583 -0.541325 0.506012 0
M  V30 1365 H 126.23 -0.824502 1.72842 0
M  V30 1366 H 124.535 -3.42572 1.90137 0
M  V30 1367 H 126.232 -3.30348 2.27313 0
M  V30 1368 H 122.822 -2.51503 3.47051 0
M  V30 1369 H 127.006 -2.26139 4.41786 0
M  V30 1370 H 122.262 -1.94705 5.79569 0
M  V30 1371 H 126.436 -1.70336 6.75247 0
M  V30 1372 H 124.063 -1.54083 7.44421 0
M  V30 1373 N 125.638 -1.25649 -0.95132 0
M  V30 1374 C 126.863 -1.13443 -1.73624 0
M  V30 1375 C 127.288 0.307565 -1.85568 0
M  V30 1376 O 126.646 1.22282 -1.33854 0
M  V30 1377 C 126.694 -1.79723 -3.12621 0
M  V30 1378 O 125.798 -1.07912 -3.98031 0
M  V30 1379 H 125.139 -0.395872 -0.533086 0
M  V30 1380 H 127.669 -1.66276 -1.1922 0
M  V30 1381 H 127.679 -1.86141 -3.63064 0
M  V30 1382 H 126.354 -2.84633 -3.03244 0
M  V30 1383 H 124.931 -1.09398 -3.56492 0
M  V30 1384 N 127.117 1.15442 -1.07289 0
M  V30 1385 C 128.394 1.82306 -0.708792 0
M  V30 1386 C 128.774 1.94991 0.808807 0
M  V30 1387 O 128.122 1.50085 1.72298 0
M  V30 1388 C 128.332 3.18695 -1.42247 0
M  V30 1389 C 129.68 3.94341 -1.57417 0
M  V30 1390 O 130.704 3.28247 -1.38319 0
M  V30 1391 O 129.563 5.12839 -1.88834 0
M  V30 1392 H 126.657 0.787628 -0.252132 0
M  V30 1393 H 129.203 1.22559 -1.17377 0
M  V30 1394 H 127.975 3.04557 -2.45684 0
M  V30 1395 H 127.598 3.86128 -0.948223 0
M  V30 1396 N 128.595 0.856903 1.32268 0
M  V30 1397 C 129.844 0.457599 1.96441 0
M  V30 1398 C 130.157 -0.992426 1.68553 0
M  V30 1399 O 131.363 -1.49727 2.26482 0
M  V30 1400 C 129.819 0.767358 3.51624 0
M  V30 1401 C 129.427 2.23326 3.88367 0
M  V30 1402 C 131.171 0.435887 4.22256 0
M  V30 1403 C 129.078 2.48613 5.36606 0
M  V30 1404 H 128.008 0.167387 0.735185 0
M  V30 1405 H 130.659 1.048 1.5063 0
M  V30 1406 H 129.041 0.106367 3.95857 0
M  V30 1407 H 130.215 2.93623 3.55137 0
M  V30 1408 H 128.53 2.52948 3.30766 0
M  V30 1409 H 131.127 0.602202 5.31298 0
M  V30 1410 H 131.47 -0.622672 4.11617 0
M  V30 1411 H 132.003 1.05286 3.83614 0
M  V30 1412 H 128.742 3.53101 5.52268 0
M  V30 1413 H 128.262 1.82896 5.71235 0
M  V30 1414 H 129.941 2.32676 6.03714 0
M  V30 1415 N 130.073 -1.45103 0.615059 0
M  V30 1416 C 131.003 -2.33339 -0.0865619 0
M  V30 1417 C 131.984 -1.4727 -0.851209 0
M  V30 1418 O 133.169 -1.76026 -0.820281 0
M  V30 1419 C 130.299 -3.30095 -1.07956 0
M  V30 1420 C 129.253 -4.25858 -0.427628 0
M  V30 1421 C 128.579 -5.12361 -1.5294 0
M  V30 1422 C 129.879 -5.18165 0.655944 0
M  V30 1423 H 131.573 -2.92254 0.650224 0
M  V30 1424 H 129.119 -1.40532 0.314138 0
M  V30 1425 H 131.072 -3.90698 -1.57901 0
M  V30 1426 H 129.796 -2.69355 -1.84703 0
M  V30 1427 H 128.455 -3.66564 0.0510292 0
M  V30 1428 H 128.103 -4.47984 -2.28734 0
M  V30 1429 H 127.803 -5.77238 -1.09865 0
M  V30 1430 H 129.327 -5.75833 -2.03098 0
M  V30 1431 H 130.741 -5.72796 0.240257 0
M  V30 1432 H 129.138 -5.91559 1.00888 0
M  V30 1433 H 130.208 -4.60144 1.52957 0
M  V30 1434 N 131.551 -0.354651 -1.53558 0
M  V30 1435 C 132.797 0.238797 -2.01389 0
M  V30 1436 C 133.13 1.49309 -1.2418 0
M  V30 1437 O 132.405 1.91638 -0.332457 0
M  V30 1438 C 132.688 0.541771 -3.56001 0
M  V30 1439 C 132.541 -0.725388 -4.43912 0
M  V30 1440 C 133.86 1.34685 -4.18984 0
M  V30 1441 H 130.979 0.0853177 -0.732045 0
M  V30 1442 H 133.621 -0.477384 -1.83905 0
M  V30 1443 H 131.771 1.15189 -3.71031 0
M  V30 1444 H 133.443 -1.36313 -4.407 0
M  V30 1445 H 131.686 -1.34801 -4.12324 0
M  V30 1446 H 132.357 -0.468505 -5.50008 0
M  V30 1447 H 134.833 0.830837 -4.07721 0
M  V30 1448 H 133.709 1.52759 -5.27215 0
M  V30 1449 H 133.97 2.35221 -3.74331 0
M  V30 1450 N 133.029 1.57378 -0.0835403 0
M  V30 1451 C 134.275 1.94217 0.583733 0
M  V30 1452 C 134.608 0.964653 1.68547 0
M  V30 1453 O 133.883 -0.00422258 1.945 0
M  V30 1454 C 134.166 3.41253 1.14972 0
M  V30 1455 C 134.019 4.49768 0.0538277 0
M  V30 1456 C 135.338 3.89352 2.05166 0
M  V30 1457 H 132.457 0.706233 0.210724 0
M  V30 1458 H 135.099 1.89392 -0.1519 0
M  V30 1459 H 133.249 3.45496 1.77665 0
M  V30 1460 H 134.921 4.57641 -0.579851 0
M  V30 1461 H 133.164 4.29432 -0.614068 0
M  V30 1462 H 133.835 5.49817 0.490452 0
M  V30 1463 H 136.311 3.87189 1.52393 0
M  V30 1464 H 135.187 4.92822 2.41698 0
M  V30 1465 H 135.448 3.27973 2.96456 0
M  V30 1466 N 134.507 -0.190092 1.56449 0
M  V30 1467 C 135.437 -1.23816 1.97969 0
M  V30 1468 C 136.418 -1.47201 0.852395 0
M  V30 1469 O 137.603 -1.58854 1.1171 0
M  V30 1470 C 134.733 -2.5813 2.3235 0
M  V30 1471 C 133.687 -2.49348 3.47864 0
M  V30 1472 C 133.013 -3.8798 3.67934 0
M  V30 1473 C 134.313 -2.01424 4.81898 0
M  V30 1474 H 136.007 -0.89311 2.85769 0
M  V30 1475 H 133.553 -0.428177 1.37487 0
M  V30 1476 H 135.506 -3.31637 2.59991 0
M  V30 1477 H 134.23 -2.94386 1.41438 0
M  V30 1478 H 132.889 -1.78297 3.20321 0
M  V30 1479 H 132.537 -4.21597 2.74344 0
M  V30 1480 H 132.237 -3.82978 4.45648 0
M  V30 1481 H 133.761 -4.63101 3.97957 0
M  V30 1482 H 135.175 -2.64693 5.08538 0
M  V30 1483 H 133.572 -2.07413 5.63116 0
M  V30 1484 H 134.642 -0.967677 4.75146 0
M  V30 1485 N 135.985 -1.50799 -0.457987 0
M  V30 1486 C 137.232 -1.62442 -1.20908 0
M  V30 1487 C 137.56 -0.330865 -1.91665 0
M  V30 1488 O 136.815 0.68401 -1.83357 0
M  V30 1489 C 137.114 -2.76358 -2.2663 0
M  V30 1490 C 136.78 -4.16378 -1.73033 0
M  V30 1491 C 135.442 -4.54473 -1.58138 0
M  V30 1492 C 137.794 -5.03836 -1.33413 0
M  V30 1493 C 135.122 -5.77754 -1.02065 0
M  V30 1494 C 137.474 -6.27676 -0.78778 0
M  V30 1495 C 136.138 -6.64562 -0.625561 0
M  V30 1496 H 135.408 -0.594417 -0.442435 0
M  V30 1497 H 138.055 -1.84772 -0.503136 0
M  V30 1498 H 136.36 -2.48167 -3.03184 0
M  V30 1499 H 138.057 -2.82568 -2.84528 0
M  V30 1500 H 134.647 -3.86331 -1.85598 0
M  V30 1501 H 138.831 -4.75026 -1.4375 0
M  V30 1502 H 134.087 -6.04997 -0.882547 0
M  V30 1503 H 138.261 -6.94797 -0.472177 0
M  V30 1504 H 135.888 -7.59965 -0.188926 0
M  V30 1505 N 137.463 0.71206 -1.40597 0
M  V30 1506 C 138.703 1.48438 -1.40519 0
M  V30 1507 C 139.067 1.91998 -0.00767611 0
M  V30 1508 O 140.268 2.6854 0.118239 0
M  V30 1509 C 138.539 2.67514 -2.37004 0
M  V30 1510 S 140.098 3.56875 -2.55315 0
M  V30 1511 H 136.916 0.507457 -0.498005 0
M  V30 1512 H 139.518 0.832355 -1.76896 0
M  V30 1513 H 138.222 2.33689 -3.37368 0
M  V30 1514 H 137.753 3.37625 -2.01923 0
M  V30 1515 H 139.768 4.62081 -1.8082 0
M  V30 1516 N 138.941 1.26152 0.944643 0
M  V30 1517 C 140.166 1.14363 1.7302 0
M  V30 1518 C 140.591 -0.29772 1.85729 0
M  V30 1519 O 139.949 -1.2157 1.34501 0
M  V30 1520 C 139.997 1.81378 3.11664 0
M  V30 1521 O 139.101 1.10022 3.97453 0
M  V30 1522 H 138.442 0.398694 0.53098 0
M  V30 1523 H 140.972 1.66906 1.18337 0
M  V30 1524 H 140.982 1.88064 3.62072 0
M  V30 1525 H 139.657 2.86237 3.0173 0
M  V30 1526 H 138.234 1.11287 3.55907 0
M  V30 1527 N 140.419 -1.14872 1.07899 0
M  V30 1528 C 141.83 -1.67367 0.827363 0
M  V30 1529 C 142.181 -1.85236 -0.646693 0
M  V30 1530 O 141.306 -1.55974 -1.50004 0
M  V30 1531 C 141.901 -3.04016 1.49532 0
M  V30 1532 C 140.46 -3.53566 1.29106 0
M  V30 1533 C 139.607 -2.29161 1.56143 0
M  V30 1534 H 142.558 -0.990083 1.24028 0
M  V30 1535 H 142.579 -3.69219 0.919643 0
M  V30 1536 H 142.091 -2.90978 2.56814 0
M  V30 1537 H 140.192 -3.71835 0.238713 0
M  V30 1538 H 140.305 -4.34661 2.01511 0
M  V30 1539 H 138.669 -2.34978 0.982717 0
M  V30 1540 H 139.452 -2.18705 2.64619 0
M  V30 1541 N 141.898 -0.863906 -1.31812 0
M  V30 1542 C 143.145 -0.471836 -1.96926 0
M  V30 1543 C 143.473 0.974578 -1.68322 0
M  V30 1544 O 142.728 1.7003 -0.968933 0
M  V30 1545 C 143.027 -0.668547 -3.51091 0
M  V30 1546 C 142.693 -2.08683 -3.99703 0
M  V30 1547 C 141.355 -2.47471 -4.12688 0
M  V30 1548 C 143.707 -3.01207 -4.25351 0
M  V30 1549 C 141.035 -3.78037 -4.4867 0
M  V30 1550 C 143.387 -4.31282 -4.62794 0
M  V30 1551 C 142.051 -4.69992 -4.73987 0
M  V30 1552 H 141.321 -0.172657 -0.720604 0
M  V30 1553 H 143.968 -1.09573 -1.57054 0
M  V30 1554 H 142.273 0.0385252 -3.91781 0
M  V30 1555 H 143.97 -0.345102 -3.99512 0
M  V30 1556 H 140.56 -1.77566 -3.90087 0
M  V30 1557 H 144.744 -2.72469 -4.14819 0
M  V30 1558 H 140 -4.078 -4.55532 0
M  V30 1559 H 144.174 -5.03031 -4.81594 0
M  V30 1560 H 141.801 -5.71207 -5.01624 0
M  V30 1561 N 143.376 1.44774 -0.622745 0
M  V30 1562 C 144.604 2.06487 -0.130722 0
M  V30 1563 C 145.019 1.46476 1.19123 0
M  V30 1564 O 144.376 0.584502 1.72887 0
M  V30 1565 C 144.427 3.615 -0.000807207 0
M  V30 1566 O 144.148 4.19274 -1.27048 0
M  V30 1567 C 145.649 4.40229 0.520898 0
M  V30 1568 H 142.869 0.666704 -0.0758106 0
M  V30 1569 H 145.413 1.85779 -0.854774 0
M  V30 1570 H 143.568 3.81498 0.673643 0
M  V30 1571 H 143.982 5.12622 -1.1099 0
M  V30 1572 H 145.456 5.49144 0.560838 0
M  V30 1573 H 145.933 4.1108 1.54627 0
M  V30 1574 H 146.539 4.25131 -0.120018 0
M  V30 1575 N 144.854 0.36279 1.53368 0
M  V30 1576 C 145.784 -0.476976 2.28576 0
M  V30 1577 C 146.765 -1.08631 1.30894 0
M  V30 1578 O 147.95 -1.10409 1.59761 0
M  V30 1579 C 145.08 -1.61828 3.07293 0
M  V30 1580 C 144.034 -1.13633 4.1264 0
M  V30 1581 C 143.36 -2.36766 4.79423 0
M  V30 1582 C 144.66 -0.223061 5.21823 0
M  V30 1583 H 146.354 0.150474 2.99022 0
M  V30 1584 H 143.9 0.0738103 1.43811 0
M  V30 1585 H 145.853 -2.21237 3.58653 0
M  V30 1586 H 144.577 -2.27292 2.34533 0
M  V30 1587 H 143.236 -0.564945 3.62221 0
M  V30 1588 H 142.884 -3.0068 4.03238 0
M  V30 1589 H 142.584 -2.05192 5.50609 0
M  V30 1590 H 144.108 -2.96865 5.33576 0
M  V30 1591 H 145.522 -0.724545 5.68703 0
M  V30 1592 H 143.919 0.001678 6.001 0
M  V30 1593 H 144.989 0.735553 4.79289 0
M  V30 1594 N 146.332 -1.57332 0.0918853 0
M  V30 1595 C 147.56 -1.98574 -0.581048 0
M  V30 1596 C 147.975 -0.970903 -1.61923 0
M  V30 1597 O 147.332 0.0399054 -1.82456 0
M  V30 1598 C 147.383 -3.39872 -1.23164 0
M  V30 1599 O 147.104 -4.37469 -0.234989 0
M  V30 1600 C 148.605 -3.96099 -1.99049 0
M  V30 1601 H 145.825 -0.65261 -0.156018 0
M  V30 1602 H 148.369 -2.0379 0.170225 0
M  V30 1603 H 146.524 -3.35679 -1.93386 0
M  V30 1604 H 146.938 -5.19751 -0.70418 0
M  V30 1605 H 148.412 -4.97127 -2.39934 0
M  V30 1606 H 148.889 -3.3374 -2.85507 0
M  V30 1607 H 149.495 -4.03755 -1.3365 0
M  V30 1608 N 147.81 0.181792 -1.56548 0
M  V30 1609 C 149.035 0.920019 -1.85877 0
M  V30 1610 C 149.46 1.75494 -0.677021 0
M  V30 1611 O 148.818 1.77399 0.374056 0
M  V30 1612 C 148.866 1.78112 -3.13542 0
M  V30 1613 O 147.97 2.88152 -2.95029 0
M  V30 1614 H 147.311 0.258334 -0.611686 0
M  V30 1615 H 149.841 0.183092 -2.03779 0
M  V30 1616 H 149.851 2.18314 -3.44678 0
M  V30 1617 H 148.526 1.16777 -3.99169 0
M  V30 1618 H 147.103 2.51609 -2.75222 0
M  V30 1619 N 149.288 1.51039 0.449983 0
M  V30 1620 C 150.534 1.63322 1.20223 0
M  V30 1621 C 150.867 0.34241 1.91158 0
M  V30 1622 O 150.142 -0.657344 1.83055 0
M  V30 1623 C 150.425 2.82801 2.22925 0
M  V30 1624 C 150.278 4.21823 1.56157 0
M  V30 1625 C 151.597 2.97807 3.24035 0
M  V30 1626 H 148.716 0.594407 0.435718 0
M  V30 1627 H 151.358 1.83489 0.493136 0
M  V30 1628 H 149.508 2.65738 2.834 0
M  V30 1629 H 151.18 4.50526 0.991162 0
M  V30 1630 H 149.423 4.25105 0.864172 0
M  V30 1631 H 150.094 5.01391 2.30891 0
M  V30 1632 H 152.57 3.13497 2.73603 0
M  V30 1633 H 151.446 3.82992 3.93202 0
M  V30 1634 H 151.707 2.09328 3.89402 0
M  V30 1635 N 150.766 -0.704594 1.40972 0
M  V30 1636 C 151.696 -1.83124 1.44872 0
M  V30 1637 C 152.677 -1.67281 0.30838 0
M  V30 1638 O 153.862 -1.87149 0.518556 0
M  V30 1639 C 150.992 -3.21181 1.32136 0
M  V30 1640 C 149.946 -3.51714 2.43888 0
M  V30 1641 C 149.272 -4.89032 2.16222 0
M  V30 1642 C 150.572 -3.516 3.86232 0
M  V30 1643 H 152.266 -1.80117 2.39161 0
M  V30 1644 H 149.812 -0.865145 1.15114 0
M  V30 1645 H 151.765 -3.99702 1.33479 0
M  V30 1646 H 150.489 -3.24791 0.343279 0
M  V30 1647 H 149.148 -2.75539 2.41813 0
M  V30 1648 H 148.796 -4.89256 1.16778 0
M  V30 1649 H 148.496 -5.10426 2.911 0
M  V30 1650 H 150.02 -5.69873 2.19265 0
M  V30 1651 H 151.434 -4.2014 3.9007 0
M  V30 1652 H 149.831 -3.84523 4.60719 0
M  V30 1653 H 150.901 -2.50757 4.15029 0
M  V30 1654 N 152.244 -1.26651 -0.937939 0
M  V30 1655 C 153.174 -1.10993 -2.05433 0
M  V30 1656 C 154.155 -0.0142161 -1.70094 0
M  V30 1657 O 155.34 -0.186837 -1.93299 0
M  V30 1658 C 152.47 -0.745561 -3.39203 0
M  V30 1659 C 151.424 -1.79337 -3.88616 0
M  V30 1660 C 150.75 -1.28324 -5.19073 0
M  V30 1661 C 152.05 -3.19553 -4.13138 0
M  V30 1662 H 153.744 -2.0438 -2.1879 0
M  V30 1663 H 151.29 -0.984041 -1.05131 0
M  V30 1664 H 153.243 -0.622888 -4.16771 0
M  V30 1665 H 151.967 0.22401 -3.25831 0
M  V30 1666 H 150.626 -1.90477 -3.13231 0
M  V30 1667 H 150.274 -0.303414 -5.02084 0
M  V30 1668 H 149.974 -1.98369 -5.53103 0
M  V30 1669 H 151.498 -1.1733 -5.99221 0
M  V30 1670 H 152.912 -3.11471 -4.81309 0
M  V30 1671 H 151.309 -3.87218 -4.58457 0
M  V30 1672 H 152.379 -3.65368 -3.18801 0
M  V30 1673 N 153.722 1.14298 -1.08507 0
M  V30 1674 C 154.999 1.81544 -0.728088 0
M  V30 1675 C 155.379 1.95838 0.78808 0
M  V30 1676 O 154.727 1.51904 1.70697 0
M  V30 1677 C 154.937 3.17169 -1.45619 0
M  V30 1678 C 156.285 3.9265 -1.61591 0
M  V30 1679 O 157.309 3.26762 -1.41793 0
M  V30 1680 O 156.168 5.10807 -1.94263 0
M  V30 1681 H 153.262 0.78491 -0.260471 0
M  V30 1682 H 155.808 1.21307 -1.18671 0
M  V30 1683 H 154.58 3.01934 -2.489 0
M  V30 1684 H 154.203 3.851 -0.989124 0
M  V30 1685 N 155.201 0.870884 1.31352 0
M  V30 1686 C 156.133 0.28455 2.27427 0
M  V30 1687 C 157.146 -0.552927 1.53123 0
M  V30 1688 O 158.335 -0.374771 1.74521 0
M  V30 1689 C 155.435 -0.615164 3.3327 0
M  V30 1690 C 154.608 0.190079 4.36987 0
M  V30 1691 C 153.667 -0.637917 5.22319 0
M  V30 1692 O 152.693 -0.065626 5.69162 0
M  V30 1693 N 153.895 -1.94973 5.46778 0
M  V30 1694 H 156.66 1.11017 2.7838 0
M  V30 1695 H 154.221 0.732458 1.44384 0
M  V30 1696 H 156.213 -1.1748 3.87273 0
M  V30 1697 H 154.783 -1.34146 2.82354 0
M  V30 1698 H 154.003 0.931165 3.83044 0
M  V30 1699 H 155.291 0.742579 5.03352 0
M  V30 1700 H 154.689 -2.4378 5.10478 0
M  V30 1701 H 153.246 -2.45713 6.03712 0
M  V30 1702 N 156.679 -1.44442 0.630414 0
M  V30 1703 C 157.925 -2.02894 0.143332 0
M  V30 1704 C 158.28 -1.48697 -1.22094 0
M  V30 1705 O 157.573 -0.661171 -1.79831 0
M  V30 1706 C 157.767 -3.57332 0.0697835 0
M  V30 1707 C 157.596 -4.26512 1.42539 0
M  V30 1708 C 156.366 -4.63516 2.01198 0
M  V30 1709 C 158.564 -4.57004 2.35907 0
M  V30 1710 N 156.546 -5.17661 3.30001 0
M  V30 1711 C 157.917 -5.12223 3.49324 0
M  V30 1712 C 159.972 -4.38955 2.34995 0
M  V30 1713 C 158.675 -5.51295 4.62024 0
M  V30 1714 C 160.701 -4.79075 3.46758 0
M  V30 1715 C 160.063 -5.34407 4.58899 0
M  V30 1716 H 156.162 -0.776041 0.0963523 0
M  V30 1717 H 158.746 -1.75945 0.833752 0
M  V30 1718 H 156.917 -3.83894 -0.589915 0
M  V30 1719 H 158.649 -4.02451 -0.42606 0
M  V30 1720 H 155.404 -4.47811 1.54151 0
M  V30 1721 H 155.828 -5.4921 3.95851 0
M  V30 1722 H 160.47 -3.95469 1.49545 0
M  V30 1723 H 158.188 -5.93736 5.48182 0
M  V30 1724 H 161.774 -4.66824 3.47227 0
M  V30 1725 H 160.654 -5.64878 5.4395 0
M  V30 1726 N 158.157 -0.370918 -1.53173 0
M  V30 1727 C 159.09 0.516727 -2.22273 0
M  V30 1728 C 160.068 1.07877 -1.21661 0
M  V30 1729 O 161.252 1.13389 -1.50583 0
M  V30 1730 C 158.379 1.71346 -2.92161 0
M  V30 1731 C 157.425 1.27838 -4.0689 0
M  V30 1732 S 158.258 0.275217 -5.34792 0
M  V30 1733 C 159.414 1.47816 -6.08195 0
M  V30 1734 H 159.647 -0.0701054 -2.97217 0
M  V30 1735 H 157.18 -0.155038 -1.5362 0
M  V30 1736 H 159.138 2.39988 -3.3304 0
M  V30 1737 H 157.799 2.27156 -2.16931 0
M  V30 1738 H 156.992 2.17141 -4.54825 0
M  V30 1739 H 156.594 0.671105 -3.6793 0
M  V30 1740 H 158.886 2.40831 -6.33251 0
M  V30 1741 H 159.829 1.04008 -7.0042 0
M  V30 1742 H 160.237 1.68663 -5.38714 0
M  V30 1743 N 159.635 1.57281 -0.100228 0
M  V30 1744 C 160.882 1.94537 0.562268 0
M  V30 1745 C 161.21 0.982315 1.67871 0
M  V30 1746 O 160.465 0.00280936 1.957 0
M  V30 1747 C 160.764 3.38305 1.15259 0
M  V30 1748 C 160.43 4.50618 0.159409 0
M  V30 1749 C 159.092 4.81066 -0.113741 0
M  V30 1750 C 161.444 5.18615 -0.518461 0
M  V30 1751 C 158.772 5.76835 -1.07137 0
M  V30 1752 C 161.124 6.15412 -1.46459 0
M  V30 1753 C 159.788 6.44262 -1.74592 0
M  V30 1754 H 159.058 0.711863 0.205748 0
M  V30 1755 H 161.705 1.90679 -0.17715 0
M  V30 1756 H 160.01 3.38766 1.96836 0
M  V30 1757 H 161.707 3.64435 1.67297 0
M  V30 1758 H 158.297 4.2689 0.382491 0
M  V30 1759 H 162.481 4.95264 -0.320581 0
M  V30 1760 H 157.737 5.975 -1.29628 0
M  V30 1761 H 161.911 6.67194 -1.99564 0
M  V30 1762 H 159.538 7.1828 -2.48953 0
M  V30 1763 N 161.113 -0.173488 1.56642 0
M  V30 1764 C 162.361 -0.888706 1.81512 0
M  V30 1765 C 162.682 -1.82875 0.676872 0
M  V30 1766 O 161.952 -1.93536 -0.303414 0
M  V30 1767 H 160.532 -0.331164 0.669582 0
M  V30 1768 H 163.194 -0.173823 1.94123 0
M  V30 1769 H 162.29 -1.46691 2.75478 0
M  V30 1770 N 162.591 -1.51276 -0.441967 0
M  V30 1771 C 163.538 -1.72256 -1.53612 0
M  V30 1772 C 164.508 -0.564164 -1.56225 0
M  V30 1773 O 165.693 -0.798074 -1.73307 0
M  V30 1774 C 162.833 -1.84932 -2.91366 0
M  V30 1775 C 161.946 -3.12459 -2.98317 0
M  V30 1776 C 161.081 -3.15758 -4.27166 0
M  V30 1777 C 160.12 -4.37619 -4.27967 0
M  V30 1778 N 159.257 -4.38493 -5.48333 0
M  V30 1779 H 164.097 -2.65654 -1.35026 0
M  V30 1780 H 161.634 -1.31662 -0.656009 0
M  V30 1781 H 163.592 -1.90263 -3.7129 0
M  V30 1782 H 162.222 -0.949461 -3.08521 0
M  V30 1783 H 161.274 -3.1646 -2.11086 0
M  V30 1784 H 162.586 -4.02382 -2.94771 0
M  V30 1785 H 161.74 -3.19979 -5.15459 0
M  V30 1786 H 160.479 -2.23715 -4.33362 0
M  V30 1787 H 159.484 -4.33579 -3.38067 0
M  V30 1788 H 160.709 -5.30921 -4.23438 0
M  V30 1789 H 158.655 -3.49318 -5.55259 0
M  V30 1790 H 158.572 -5.22219 -5.46647 0
M  V30 1791 H 159.84 -4.469 -6.38671 0
M  V30 1792 N 164.069 0.697108 -1.41344 0
M  V30 1793 C 165.315 1.4593 -1.40827 0
M  V30 1794 C 165.648 1.94193 -0.0167098 0
M  V30 1795 O 164.923 1.69425 0.955263 0
M  V30 1796 C 165.206 2.67229 -2.41373 0
M  V30 1797 C 165.059 2.24741 -3.8963 0
M  V30 1798 C 166.378 3.69423 -2.39196 0
M  V30 1799 H 163.497 0.529303 -0.512842 0
M  V30 1800 H 166.139 0.794112 -1.72609 0
M  V30 1801 H 164.289 3.23982 -2.14401 0
M  V30 1802 H 165.961 1.73327 -4.27499 0
M  V30 1803 H 164.204 1.56542 -4.0457 0
M  V30 1804 H 164.875 3.1177 -4.55525 0
M  V30 1805 H 167.351 3.2234 -2.63128 0
M  V30 1806 H 166.227 4.51907 -3.11563 0
M  V30 1807 H 166.488 4.19012 -1.41001 0
M  V30 1808 N 165.547 1.27147 0.931209 0
M  V30 1809 C 166.48 1.0389 2.0318 0
M  V30 1810 C 167.458 -0.0395716 1.62552 0
M  V30 1811 O 168.642 0.104867 1.88208 0
M  V30 1812 C 165.769 0.575227 3.3378 0
M  V30 1813 C 164.815 1.64774 3.93385 0
M  V30 1814 S 165.648 3.23933 4.26413 0
M  V30 1815 C 166.804 2.79358 5.60098 0
M  V30 1816 H 167.037 1.97075 2.22596 0
M  V30 1817 H 164.57 1.10938 1.07387 0
M  V30 1818 H 166.528 0.314385 4.09294 0
M  V30 1819 H 165.189 -0.336505 3.12292 0
M  V30 1820 H 164.382 1.27454 4.87618 0
M  V30 1821 H 163.984 1.86048 3.24441 0
M  V30 1822 H 166.276 2.24443 6.39243 0
M  V30 1823 H 167.219 3.72322 6.02314 0
M  V30 1824 H 167.627 2.1861 5.20452 0
M  V30 1825 N 167.025 -1.13721 1.09112 0
M  V30 1826 C 168.265 -1.86576 0.834801 0
M  V30 1827 C 168.629 -1.81435 -0.628122 0
M  V30 1828 O 169.83 -2.49497 -1.00024 0
M  V30 1829 C 168.101 -3.30872 1.35124 0
M  V30 1830 S 169.66 -4.21257 1.22832 0
M  V30 1831 H 166.478 -0.643666 0.302017 0
M  V30 1832 H 169.08 -1.37085 1.39385 0
M  V30 1833 H 167.784 -3.32166 2.41027 0
M  V30 1834 H 167.315 -3.85423 0.788185 0
M  V30 1835 H 169.33 -4.95884 0.177191 0
M  V30 1836 N 168.503 -0.877838 -1.30888 0
M  V30 1837 C 169.453 -0.310872 -2.25871 0
M  V30 1838 C 170.437 0.556596 -1.50966 0
M  V30 1839 O 171.629 0.402187 -1.7237 0
M  V30 1840 C 168.758 0.479821 -3.3993 0
M  V30 1841 C 167.844 -0.401333 -4.22197 0
M  V30 1842 N 168.235 -1.49848 -4.83093 0
M  V30 1843 C 166.533 -0.195167 -4.45573 0
M  V30 1844 C 167.234 -2.0425 -5.44662 0
M  V30 1845 N 166.21 -1.33843 -5.26865 0
M  V30 1846 H 170.012 -1.1493 -2.70496 0
M  V30 1847 H 167.526 -0.726458 -1.45246 0
M  V30 1848 H 169.523 0.902582 -4.07012 0
M  V30 1849 H 168.183 1.31577 -2.96846 0
M  V30 1850 H 169.194 -1.88137 -4.82519 0
M  V30 1851 H 165.871 0.604192 -4.13105 0
M  V30 1852 H 167.261 -2.96345 -6.03017 0
M  V30 1853 N 169.982 1.44106 -0.638065 0
M  V30 1854 C 171.231 2.01194 -0.142744 0
M  V30 1855 C 171.544 1.50835 1.24532 0
M  V30 1856 O 172.75 2.00096 1.83504 0
M  V30 1857 C 171.206 3.59319 -0.20442 0
M  V30 1858 C 170.814 4.18674 -1.59423 0
M  V30 1859 C 172.558 4.23854 0.234079 0
M  V30 1860 C 170.465 5.69045 -1.61065 0
M  V30 1861 H 169.395 0.752367 -0.0495998 0
M  V30 1862 H 172.046 1.65246 -0.797881 0
M  V30 1863 H 170.428 3.92598 0.517946 0
M  V30 1864 H 171.602 3.96921 -2.34074 0
M  V30 1865 H 169.917 3.66453 -1.97741 0
M  V30 1866 H 172.514 5.34155 0.241443 0
M  V30 1867 H 172.857 3.96688 1.2627 0
M  V30 1868 H 173.39 3.95403 -0.436025 0
M  V30 1869 H 170.129 6.00956 -2.61787 0
M  V30 1870 H 169.649 5.929 -0.90718 0
M  V30 1871 H 171.328 6.32809 -1.34766 0
M  V30 1872 N 171.46 0.379036 1.52974 0
M  V30 1873 C 172.393 -0.504932 2.22544 0
M  V30 1874 C 173.371 -1.0723 1.22231 0
M  V30 1875 O 174.555 -1.12589 1.51182 0
M  V30 1876 C 171.682 -1.69794 2.93066 0
M  V30 1877 C 170.728 -1.25678 4.07563 0
M  V30 1878 S 171.561 -0.246852 5.34931 0
M  V30 1879 C 172.717 -1.44588 6.08971 0
M  V30 1880 H 172.95 0.0858666 2.97176 0
M  V30 1881 H 170.483 0.163183 1.53535 0
M  V30 1882 H 172.441 -2.38219 3.34308 0
M  V30 1883 H 171.102 -2.26002 2.18133 0
M  V30 1884 H 170.295 -2.14725 4.5597 0
M  V30 1885 H 169.897 -0.651584 3.6828 0
M  V30 1886 H 172.189 -2.37469 6.34519 0
M  V30 1887 H 173.132 -1.00292 7.00962 0
M  V30 1888 H 173.54 -1.65804 5.39601 0
M  V30 1889 N 172.938 -1.57226 0.108567 0
M  V30 1890 C 174.349 -1.8195 -0.418464 0
M  V30 1891 C 174.7 -1.02508 -1.67292 0
M  V30 1892 O 173.825 -0.258496 -2.14851 0
M  V30 1893 C 174.42 -3.30028 -0.765979 0
M  V30 1894 C 172.979 -3.55469 -1.23769 0
M  V30 1895 C 172.126 -2.7625 -0.241106 0
M  V30 1896 H 175.077 -1.55149 0.33384 0
M  V30 1897 H 175.098 -3.44086 -1.62434 0
M  V30 1898 H 174.61 -3.87821 0.147219 0
M  V30 1899 H 172.711 -3.03022 -2.16814 0
M  V30 1900 H 172.824 -4.6408 -1.19022 0
M  V30 1901 H 171.188 -2.44133 -0.72602 0
M  V30 1902 H 171.971 -3.36797 0.665007 0
M  V30 1903 N 174.416 0.165178 -1.56732 0
M  V30 1904 C 175.663 0.880807 -1.8234 0
M  V30 1905 C 175.991 1.81977 -0.686621 0
M  V30 1906 O 175.246 1.92971 0.325697 0
M  V30 1907 C 175.545 1.70405 -3.1416 0
M  V30 1908 C 175.211 0.913475 -4.4155 0
M  V30 1909 C 173.873 0.695303 -4.7615 0
M  V30 1910 C 176.225 0.359349 -5.1996 0
M  V30 1911 C 173.553 -0.0879947 -5.86634 0
M  V30 1912 C 175.905 -0.410893 -6.31264 0
M  V30 1913 C 174.569 -0.639808 -6.64427 0
M  V30 1914 H 173.839 0.32231 -0.667231 0
M  V30 1915 H 176.486 0.145402 -1.90947 0
M  V30 1916 H 174.791 2.50903 -3.00923 0
M  V30 1917 H 176.488 2.26091 -3.31186 0
M  V30 1918 H 173.078 1.09357 -4.14414 0
M  V30 1919 H 177.262 0.515228 -4.93618 0
M  V30 1920 H 172.518 -0.27503 -6.10781 0
M  V30 1921 H 176.692 -0.847494 -6.91224 0
M  V30 1922 H 174.319 -1.24864 -7.49875 0
M  V30 1923 N 175.894 1.51508 0.433938 0
M  V30 1924 C 176.824 1.76016 1.53429 0
M  V30 1925 C 177.805 0.610112 1.58782 0
M  V30 1926 O 178.99 0.853177 1.74455 0
M  V30 1927 C 176.12 1.88831 2.9148 0
M  V30 1928 C 175.074 3.04288 3.00987 0
M  V30 1929 C 174.4 3.0229 4.4105 0
M  V30 1930 C 175.7 4.44193 2.74754 0
M  V30 1931 H 177.394 2.68152 1.33171 0
M  V30 1932 H 174.94 1.29035 0.639214 0
M  V30 1933 H 176.893 2.04559 3.6842 0
M  V30 1934 H 175.617 0.933455 3.12976 0
M  V30 1935 H 174.276 2.8827 2.26486 0
M  V30 1936 H 173.924 2.04576 4.59519 0
M  V30 1937 H 173.624 3.79822 4.4834 0
M  V30 1938 H 175.148 3.20116 5.1996 0
M  V30 1939 H 176.562 4.60544 3.41426 0
M  V30 1940 H 174.959 5.23457 2.9345 0
M  V30 1941 H 176.029 4.53996 1.70339 0
M  V30 1942 N 177.372 -0.689602 1.41712 0
M  V30 1943 C 178.304 -1.815 1.39966 0
M  V30 1944 C 179.317 -1.59995 0.300917 0
M  V30 1945 O 180.506 -1.69387 0.563039 0
M  V30 1946 C 177.606 -3.18364 1.16179 0
M  V30 1947 C 176.779 -3.66847 2.38206 0
M  V30 1948 C 175.838 -4.82398 2.10186 0
M  V30 1949 O 174.864 -4.93706 2.83272 0
M  V30 1950 N 176.066 -5.70064 1.0958 0
M  V30 1951 H 178.831 -1.83488 2.36965 0
M  V30 1952 H 176.392 -0.872149 1.36401 0
M  V30 1953 H 178.384 -3.93301 0.953756 0
M  V30 1954 H 176.954 -3.11365 0.27756 0
M  V30 1955 H 176.174 -2.82751 2.74673 0
M  V30 1956 H 177.462 -3.95978 3.19498 0
M  V30 1957 H 176.86 -5.63565 0.491019 0
M  V30 1958 H 175.417 -6.44874 0.947656 0
M  V30 1959 N 178.85 -1.27639 -0.924453 0
M  V30 1960 C 180.09 -1.15407 -1.68703 0
M  V30 1961 C 180.454 0.294581 -1.89727 0
M  V30 1962 O 181.655 0.539385 -2.63333 0
M  V30 1963 C 179.926 -1.9195 -3.0148 0
M  V30 1964 S 181.485 -1.95969 -3.92609 0
M  V30 1965 H 178.303 -0.411937 -0.579507 0
M  V30 1966 H 180.905 -1.61592 -1.10038 0
M  V30 1967 H 179.609 -2.96387 -2.83871 0
M  V30 1968 H 179.14 -1.46272 -3.65196 0
M  V30 1969 H 181.155 -1.05846 -4.84779 0
M  V30 1970 N 180.328 1.1314 -1.09713 0
M  V30 1971 C 181.574 1.84757 -0.836224 0
M  V30 1972 C 181.907 1.8347 0.636598 0
M  V30 1973 O 181.182 1.27491 1.46889 0
M  V30 1974 C 181.465 3.32782 -1.37578 0
M  V30 1975 C 181.318 3.42567 -2.91493 0
M  V30 1976 C 182.637 4.28307 -1.01198 0
M  V30 1977 H 179.756 0.67082 -0.305236 0
M  V30 1978 H 182.398 1.3278 -1.35903 0
M  V30 1979 H 180.548 3.77177 -0.931097 0
M  V30 1980 H 182.22 3.06862 -3.44432 0
M  V30 1981 H 180.463 2.83349 -3.28475 0
M  V30 1982 H 181.134 4.46674 -3.24324 0
M  V30 1983 H 183.61 3.91999 -1.39556 0
M  V30 1984 H 182.486 5.30307 -1.41653 0
M  V30 1985 H 182.747 4.42029 0.0794833 0
M  V30 1986 N 181.806 0.884767 1.30421 0
M  V30 1987 C 183.031 0.517288 2.00845 0
M  V30 1988 C 183.456 -0.886779 1.65885 0
M  V30 1989 O 182.814 -1.58768 0.875354 0
M  V30 1990 C 182.862 0.698994 3.5376 0
M  V30 1991 O 181.966 -0.255208 4.1161 0
M  V30 1992 H 181.307 0.203872 0.631927 0
M  V30 1993 H 183.837 1.19225 1.66272 0
M  V30 1994 H 183.847 0.597912 4.03595 0
M  V30 1995 H 182.522 1.72271 3.78544 0
M  V30 1996 H 181.099 -0.10784 3.72744 0
M  V30 1997 N 183.284 -1.43765 0.645699 0
M  V30 1998 C 184.53 -2.02197 0.156271 0
M  V30 1999 C 184.863 -1.50776 -1.22393 0
M  V30 2000 O 184.138 -0.697771 -1.81553 0
M  V30 2001 C 184.421 -3.59749 0.158872 0
M  V30 2002 C 184.274 -4.21419 1.57245 0
M  V30 2003 C 185.593 -4.37149 -0.50879 0
M  V30 2004 H 182.712 -0.734694 0.0582602 0
M  V30 2005 H 185.354 -1.71157 0.824951 0
M  V30 2006 H 183.504 -3.86325 -0.410525 0
M  V30 2007 H 185.176 -4.059 2.19186 0
M  V30 2008 H 183.419 -3.78356 2.122 0
M  V30 2009 H 184.09 -5.30482 1.52619 0
M  V30 2010 H 186.566 -4.16093 -0.024412 0
M  V30 2011 H 185.442 -5.4683 -0.476213 0
M  V30 2012 H 185.703 -4.12839 -1.58165 0
M  V30 2013 N 184.763 -0.387143 -1.52771 0
M  V30 2014 C 185.693 0.440551 -2.29306 0
M  V30 2015 C 186.674 1.06535 -1.32606 0
M  V30 2016 O 187.859 1.07853 -1.61497 0
M  V30 2017 C 184.989 1.56919 -3.09829 0
M  V30 2018 C 183.943 1.07054 -4.14395 0
M  V30 2019 C 183.269 2.29109 -4.83129 0
M  V30 2020 C 184.569 0.140015 -5.22112 0
M  V30 2021 H 186.263 -0.198026 -2.98744 0
M  V30 2022 H 183.809 -0.09668 -1.43675 0
M  V30 2023 H 185.762 2.15503 -3.62128 0
M  V30 2024 H 184.486 2.23532 -2.3812 0
M  V30 2025 H 183.145 0.507247 -3.63074 0
M  V30 2026 H 182.793 2.94227 -4.0797 0
M  V30 2027 H 182.493 1.96406 -5.53804 0
M  V30 2028 H 184.017 2.88339 -5.38231 0
M  V30 2029 H 185.431 0.633978 -5.69784 0
M  V30 2030 H 183.828 -0.0971485 -6.00021 0
M  V30 2031 H 184.898 -0.811711 -4.78058 0
M  V30 2032 N 186.241 1.57166 -0.116904 0
M  V30 2033 C 187.487 1.95412 0.542405 0
M  V30 2034 C 187.82 1.00019 1.66463 0
M  V30 2035 O 187.095 0.0370346 1.94465 0
M  V30 2036 C 187.378 3.43615 1.07708 0
M  V30 2037 C 187.231 4.49781 -0.0415868 0
M  V30 2038 C 188.55 3.93616 1.96861 0
M  V30 2039 H 185.669 0.710543 0.195696 0
M  V30 2040 H 188.311 1.89027 -0.192038 0
M  V30 2041 H 186.461 3.49187 1.70296 0
M  V30 2042 H 188.133 4.56308 -0.676793 0
M  V30 2043 H 186.376 4.28033 -0.705019 0
M  V30 2044 H 187.047 5.50733 0.373717 0
M  V30 2045 H 189.523 3.90335 1.44146 0
M  V30 2046 H 188.399 4.97838 2.3119 0
M  V30 2047 H 188.66 3.34188 2.89432 0
M  V30 2048 N 187.719 -0.156864 1.56817 0
M  V30 2049 C 188.944 -0.890331 1.87318 0
M  V30 2050 C 189.369 -1.74394 0.704855 0
M  V30 2051 O 188.727 -1.77972 -0.345786 0
M  V30 2052 C 188.775 -1.73102 3.16336 0
M  V30 2053 O 187.879 -2.83422 2.99576 0
M  V30 2054 H 187.22 -0.24857 0.615718 0
M  V30 2055 H 189.75 -0.150649 2.04045 0
M  V30 2056 H 189.76 -2.12803 3.48107 0
M  V30 2057 H 188.435 -1.10412 4.00976 0
M  V30 2058 H 187.012 -2.47199 2.7919 0
M  V30 2059 N 189.197 -1.51736 -0.425897 0
M  V30 2060 C 190.425 -1.68794 -1.1965 0
M  V30 2061 C 190.84 -0.390164 -1.84725 0
M  V30 2062 O 190.197 0.632376 -1.71194 0
M  V30 2063 C 190.248 -2.81174 -2.27208 0
M  V30 2064 O 189.969 -4.05925 -1.64793 0
M  V30 2065 C 191.47 -3.09599 -3.17275 0
M  V30 2066 H 188.69 -0.566128 -0.360194 0
M  V30 2067 H 191.234 -1.98211 -0.503249 0
M  V30 2068 H 189.389 -2.54324 -2.9223 0
M  V30 2069 H 189.803 -4.68423 -2.35967 0
M  V30 2070 H 191.277 -3.91786 -3.88854 0
M  V30 2071 H 191.754 -2.22468 -3.78688 0
M  V30 2072 H 192.36 -3.38151 -2.57941 0
M  V30 2073 N 190.675 0.682077 -1.42076 0
M  V30 2074 C 191.605 1.80796 -1.47767 0
M  V30 2075 C 192.586 1.6677 -0.334954 0
M  V30 2076 O 193.771 1.863 -0.548264 0
M  V30 2077 C 190.901 3.19038 -1.37229 0
M  V30 2078 C 189.855 3.47789 -2.49453 0
M  V30 2079 C 189.181 4.8553 -2.23975 0
M  V30 2080 C 190.481 3.45411 -3.91776 0
M  V30 2081 H 192.175 1.7629 -2.41997 0
M  V30 2082 H 189.721 0.846721 -1.16476 0
M  V30 2083 H 191.674 3.97528 -1.39821 0
M  V30 2084 H 190.398 3.24204 -0.394907 0
M  V30 2085 H 189.057 2.71657 -2.46166 0
M  V30 2086 H 188.705 4.87337 -1.24547 0
M  V30 2087 H 188.405 5.0573 -2.99184 0
M  V30 2088 H 189.929 5.66312 -2.28304 0
M  V30 2089 H 191.343 4.13882 -3.96705 0
M  V30 2090 H 189.74 3.77145 -4.66778 0
M  V30 2091 H 190.81 2.44122 -4.18966 0
M  V30 2092 N 192.153 1.28127 0.917671 0
M  V30 2093 C 193.402 1.14432 1.66097 0
M  V30 2094 C 193.715 -0.307247 1.93172 0
M  V30 2095 O 194.921 -0.565259 2.65551 0
M  V30 2096 C 193.377 2.00015 2.99202 0
M  V30 2097 C 192.985 3.49889 2.79789 0
M  V30 2098 C 194.729 1.94996 3.77064 0
M  V30 2099 C 192.636 4.27636 4.08511 0
M  V30 2100 H 191.566 0.424662 0.62304 0
M  V30 2101 H 194.217 1.52628 1.01868 0
M  V30 2102 H 192.599 1.54672 3.64544 0
M  V30 2103 H 193.773 4.03162 2.23152 0
M  V30 2104 H 192.088 3.56392 2.15345 0
M  V30 2105 H 194.685 2.50354 4.72469 0
M  V30 2106 H 195.028 0.925819 4.05875 0
M  V30 2107 H 195.561 2.38287 3.18534 0
M  V30 2108 H 192.3 5.30615 3.84874 0
M  V30 2109 H 191.82 3.79137 4.64774 0
M  V30 2110 H 193.499 4.37346 4.76799 0
M  V30 2111 N 193.631 -1.12557 1.10312 0
M  V30 2112 C 194.561 -2.20341 0.772798 0
M  V30 2113 C 195.542 -1.68198 -0.25365 0
M  V30 2114 O 196.727 -1.93831 -0.119699 0
M  V30 2115 C 193.857 -3.46709 0.202443 0
M  V30 2116 C 192.811 -4.11996 1.15943 0
M  V30 2117 C 192.137 -5.328 0.450345 0
M  V30 2118 C 193.437 -4.5828 2.50552 0
M  V30 2119 H 195.131 -2.48229 1.674 0
M  V30 2120 H 192.677 -1.19308 0.806326 0
M  V30 2121 H 194.63 -4.2138 -0.0407752 0
M  V30 2122 H 193.354 -3.18245 -0.734001 0
M  V30 2123 H 192.013 -3.39305 1.38808 0
M  V30 2124 H 191.661 -5.00602 -0.490531 0
M  V30 2125 H 191.361 -5.7743 1.08851 0
M  V30 2126 H 192.885 -6.10219 0.215642 0
M  V30 2127 H 194.299 -5.2433 2.31843 0
M  V30 2128 H 192.696 -5.13683 3.10242 0
M  V30 2129 H 193.766 -3.72329 3.10643 0
M  V30 2130 N 195.109 -0.891671 -1.2995 0
M  V30 2131 C 196.358 -0.509521 -1.95158 0
M  V30 2132 C 196.671 0.947388 -1.71125 0
M  V30 2133 O 197.877 1.43669 -2.30372 0
M  V30 2134 C 196.333 -0.860315 -3.49466 0
M  V30 2135 C 195.941 -2.33545 -3.8231 0
M  V30 2136 C 197.685 -0.547687 -4.20952 0
M  V30 2137 C 195.592 -2.62752 -5.29826 0
M  V30 2138 H 194.522 -0.18682 -0.730489 0
M  V30 2139 H 197.173 -1.08756 -1.47798 0
M  V30 2140 H 195.555 -0.211285 -3.95436 0
M  V30 2141 H 196.729 -3.02936 -3.47227 0
M  V30 2142 H 195.044 -2.61629 -3.23944 0
M  V30 2143 H 197.641 -0.742854 -5.29515 0
M  V30 2144 H 197.984 0.51332 -4.13123 0
M  V30 2145 H 198.517 -1.1542 -3.80688 0
M  V30 2146 H 195.256 -3.6762 -5.42712 0
M  V30 2147 H 194.776 -1.97977 -5.66185 0
M  V30 2148 H 196.455 -2.48601 -5.97333 0
M  V30 2149 N 196.587 1.43421 -0.653314 0
M  V30 2150 C 197.812 2.06678 -0.172846 0
M  V30 2151 C 198.237 1.48648 1.15262 0
M  V30 2152 O 197.595 0.596457 1.71208 0
M  V30 2153 C 197.643 3.60474 -0.0953184 0
M  V30 2154 O 196.747 4.01487 0.942442 0
M  V30 2155 H 196.088 0.657181 -0.0949155 0
M  V30 2156 H 198.618 1.83925 -0.896265 0
M  V30 2157 H 198.628 4.07905 0.0879728 0
M  V30 2158 H 197.303 4.02088 -1.06291 0
M  V30 2159 H 195.88 3.65646 0.731932 0
M  V30 2160 N 198.065 0.39524 1.52563 0
M  V30 2161 C 199.314 -0.186321 2.00838 0
M  V30 2162 C 199.627 -1.47402 1.28577 0
M  V30 2163 O 200.833 -2.13599 1.67593 0
M  V30 2164 C 199.289 -0.382595 3.57861 0
M  V30 2165 C 198.897 0.892202 4.39026 0
M  V30 2166 C 200.641 -0.9202 4.14406 0
M  V30 2167 C 198.548 0.66388 5.87662 0
M  V30 2168 H 197.478 -0.0734041 0.750418 0
M  V30 2169 H 200.129 0.518552 1.76021 0
M  V30 2170 H 198.511 -1.14946 3.7895 0
M  V30 2171 H 199.685 1.66414 4.29701 0
M  V30 2172 H 198 1.35519 3.9373 0
M  V30 2173 H 200.597 -1.10683 5.23119 0
M  V30 2174 H 200.94 -1.89096 3.70875 0
M  V30 2175 H 201.473 -0.212751 3.97231 0
M  V30 2176 H 198.212 1.6058 6.35527 0
M  V30 2177 H 197.732 -0.0690193 5.9976 0
M  V30 2178 H 199.411 0.300699 6.46301 0
M  V30 2179 N 199.544 -1.57102 0.125237 0
M  V30 2180 C 200.507 -2.14471 -0.80838 0
M  V30 2181 C 201.507 -1.0811 -1.19033 0
M  V30 2182 O 202.697 -1.33856 -1.11482 0
M  V30 2183 C 199.829 -2.69005 -2.09402 0
M  V30 2184 H 201.022 -2.98297 -0.309696 0
M  V30 2185 H 198.575 -1.55807 -0.124051 0
M  V30 2186 H 199.31 -1.88785 -2.63687 0
M  V30 2187 H 199.095 -3.46799 -1.82957 0
M  V30 2188 H 200.585 -3.13278 -2.76128 0
M  V30 2189 N 201.022 0.148545 -1.56898 0
M  V30 2190 C 202.271 0.85984 -1.82454 0
M  V30 2191 C 202.584 1.82406 -0.706229 0
M  V30 2192 O 203.79 2.57938 -0.847349 0
M  V30 2193 C 202.246 1.57967 -3.2338 0
M  V30 2194 C 201.854 0.65794 -4.43142 0
M  V30 2195 C 203.598 2.27784 -3.58211 0
M  V30 2196 C 201.505 1.3793 -5.75091 0
M  V30 2197 H 200.435 0.324834 -0.68044 0
M  V30 2198 H 203.086 0.112588 -1.83154 0
M  V30 2199 H 201.468 2.37249 -3.17063 0
M  V30 2200 H 202.642 -0.0995497 -4.60692 0
M  V30 2201 H 200.957 0.0682643 -4.16344 0
M  V30 2202 H 203.554 2.8239 -4.54048 0
M  V30 2203 H 203.897 3.04204 -2.84193 0
M  V30 2204 H 204.43 1.55421 -3.66182 0
M  V30 2205 H 201.169 0.656982 -6.52199 0
M  V30 2206 H 200.689 2.10954 -5.61479 0
M  V30 2207 H 202.368 1.92063 -6.17835 0
M  V30 2208 N 202.5 1.5196 0.417844 0
M  V30 2209 C 203.746 1.65836 1.16732 0
M  V30 2210 C 204.079 0.382881 1.90388 0
M  V30 2211 O 203.354 -0.618368 1.84408 0
M  V30 2212 C 203.637 2.87466 2.16876 0
M  V30 2213 C 203.49 4.25041 1.47174 0
M  V30 2214 C 204.809 3.04613 3.17646 0
M  V30 2215 H 201.928 0.603515 0.423011 0
M  V30 2216 H 204.57 1.84494 0.454105 0
M  V30 2217 H 202.72 2.71689 2.777 0
M  V30 2218 H 204.392 4.52527 0.895376 0
M  V30 2219 H 202.635 4.26843 0.773806 0
M  V30 2220 H 203.306 5.06176 2.20204 0
M  V30 2221 H 205.782 3.1923 2.66892 0
M  V30 2222 H 204.658 3.91247 3.8499 0
M  V30 2223 H 204.919 2.17541 3.84874 0
M  V30 2224 N 203.978 -0.674533 1.42435 0
M  V30 2225 C 205.394 -0.98769 1.25367 0
M  V30 2226 C 205.594 -2.00879 0.158044 0
M  V30 2227 O 204.65 -2.48075 -0.470633 0
M  V30 2228 C 205.963 -1.49224 2.6106 0
M  V30 2229 C 207.511 -1.61 2.68417 0
M  V30 2230 C 207.986 -2.14852 4.04478 0
M  V30 2231 N 209.477 -2.22185 4.06434 0
M  V30 2232 C 210.212 -2.64928 5.08528 0
M  V30 2233 N 209.708 -3.07121 6.21006 0
M  V30 2234 N 211.501 -2.64679 4.95885 0
M  V30 2235 H 203.652 0.00152503 2.124 0
M  V30 2236 H 205.915 -0.0618434 0.945981 0
M  V30 2237 H 205.621 -0.816453 3.42092 0
M  V30 2238 H 205.495 -2.47094 2.84999 0
M  V30 2239 H 207.882 -2.27686 1.87732 0
M  V30 2240 H 207.963 -0.616195 2.48267 0
M  V30 2241 H 207.607 -1.48775 4.85622 0
M  V30 2242 H 207.537 -3.15024 4.2198 0
M  V30 2243 H 210.028 -1.92435 3.25234 0
M  V30 2244 H 210.341 -3.38423 6.94759 0
M  V30 2245 H 208.686 -3.04978 6.24511 0
M  V30 2246 H 211.877 -2.31078 4.07088 0
M  V30 2247 H 212.05 -2.9767 5.75584 0
M  V30 2248 N 205.456 -1.28612 -0.910864 0
M  V30 2249 C 206.686 -1.1862 -1.69153 0
M  V30 2250 C 207.094 0.257324 -1.87442 0
M  V30 2251 O 206.437 1.18543 -1.40332 0
M  V30 2252 C 206.499 -1.81606 -3.10257 0
M  V30 2253 C 206.163 -3.30864 -3.15243 0
M  V30 2254 C 207.16 -4.27256 -2.96223 0
M  V30 2255 C 204.845 -3.71871 -3.37664 0
M  V30 2256 C 206.839 -5.62631 -2.99541 0
M  V30 2257 C 204.526 -5.07371 -3.40614 0
M  V30 2258 C 205.524 -6.02561 -3.21573 0
M  V30 2259 O 205.212 -7.35589 -3.2429 0
M  V30 2260 H 204.944 -0.412633 -0.535453 0
M  V30 2261 H 207.498 -1.70306 -1.14827 0
M  V30 2262 H 205.728 -1.24418 -3.66138 0
M  V30 2263 H 207.417 -1.66092 -3.70362 0
M  V30 2264 H 208.183 -3.9691 -2.78725 0
M  V30 2265 H 204.062 -2.98241 -3.5153 0
M  V30 2266 H 207.606 -6.36907 -2.84597 0
M  V30 2267 H 203.503 -5.37366 -3.57642 0
M  V30 2268 H 204.271 -7.44252 -3.40633 0
M  V30 2269 N 206.934 1.1197 -1.10907 0
M  V30 2270 C 207.884 2.15946 -0.731538 0
M  V30 2271 C 208.868 1.58758 0.261699 0
M  V30 2272 O 210.06 1.76863 0.0696722 0
M  V30 2273 C 207.189 3.42877 -0.170299 0
M  V30 2274 C 206.275 4.07037 -1.19087 0
M  V30 2275 N 206.666 4.46135 -2.38322 0
M  V30 2276 C 204.964 4.33884 -1.03252 0
M  V30 2277 C 205.665 4.96331 -3.03366 0
M  V30 2278 N 204.641 4.9214 -2.30865 0
M  V30 2279 H 208.443 2.43947 -1.63912 0
M  V30 2280 H 205.957 1.28927 -0.987505 0
M  V30 2281 H 207.954 4.16732 0.118271 0
M  V30 2282 H 206.614 3.16343 0.731935 0
M  V30 2283 H 207.625 4.38345 -2.75815 0
M  V30 2284 H 204.302 4.17084 -0.186256 0
M  V30 2285 H 205.692 5.36257 -4.04818 0
M  V30 2286 N 208.412 0.89855 1.29475 0
M  V30 2287 C 209.345 0.319981 2.25945 0
M  V30 2288 C 210.323 -0.567189 1.52387 0
M  V30 2289 O 211.507 -0.514254 1.8135 0
M  V30 2290 C 208.634 -0.544013 3.34303 0
M  V30 2291 C 207.68 0.275682 4.25608 0
M  V30 2292 S 208.513 1.67272 5.08704 0
M  V30 2293 C 209.669 0.815621 6.20563 0
M  V30 2294 H 209.902 1.13767 2.74671 0
M  V30 2295 H 207.435 0.69882 1.3768 0
M  V30 2296 H 209.393 -1.03673 3.97193 0
M  V30 2297 H 208.054 -1.33593 2.84274 0
M  V30 2298 H 207.247 -0.384263 5.02533 0
M  V30 2299 H 206.849 0.701496 3.67362 0
M  V30 2300 H 209.141 0.0385042 6.77489 0
M  V30 2301 H 210.084 1.55691 6.90772 0
M  V30 2302 H 210.492 0.370516 5.63283 0
M  V30 2303 N 209.89 -1.43072 0.660911 0
M  V30 2304 C 211.139 -2.00942 0.174735 0
M  V30 2305 C 211.452 -1.52797 -1.22117 0
M  V30 2306 O 212.658 -2.02991 -1.80297 0
M  V30 2307 C 211.114 -3.58948 0.261559 0
M  V30 2308 C 210.722 -4.16085 1.66064 0
M  V30 2309 C 212.466 -4.24173 -0.166617 0
M  V30 2310 C 210.373 -5.6641 1.70098 0
M  V30 2311 H 209.303 -0.751483 0.0615631 0
M  V30 2312 H 211.954 -1.63955 0.824069 0
M  V30 2313 H 210.336 -3.93372 -0.455421 0
M  V30 2314 H 211.51 -3.93147 2.40359 0
M  V30 2315 H 209.825 -3.6326 2.03546 0
M  V30 2316 H 212.422 -5.34471 -0.156433 0
M  V30 2317 H 212.765 -3.98647 -1.19943 0
M  V30 2318 H 213.298 -3.94659 0.498875 0
M  V30 2319 H 210.037 -5.96715 2.71315 0
M  V30 2320 H 209.557 -5.91382 1.00139 0
M  V30 2321 H 211.236 -6.30585 1.44816 0
M  V30 2322 N 211.368 -0.403325 -1.52352 0
M  V30 2323 C 212.315 0.425011 -2.26853 0
M  V30 2324 C 213.285 1.04598 -1.29029 0
M  V30 2325 O 214.47 1.07135 -1.57882 0
M  V30 2326 C 211.61 1.53888 -3.08889 0
M  V30 2327 C 210.723 0.939396 -4.21663 0
M  V30 2328 C 209.858 2.02547 -4.91068 0
M  V30 2329 C 208.897 1.40263 -5.95813 0
M  V30 2330 N 208.034 2.4286 -6.58759 0
M  V30 2331 H 212.874 -0.21674 -2.97211 0
M  V30 2332 H 210.411 -0.118722 -1.4662 0
M  V30 2333 H 212.369 2.19558 -3.54753 0
M  V30 2334 H 210.999 2.15074 -2.40714 0
M  V30 2335 H 210.051 0.171898 -3.80011 0
M  V30 2336 H 211.363 0.44436 -4.96817 0
M  V30 2337 H 210.517 2.75958 -5.40308 0
M  V30 2338 H 209.256 2.55415 -4.15469 0
M  V30 2339 H 208.261 0.653833 -5.45898 0
M  V30 2340 H 209.486 0.881719 -6.73352 0
M  V30 2341 H 207.432 2.94871 -5.85992 0
M  V30 2342 H 207.349 1.98152 -7.2957 0
M  V30 2343 H 208.617 3.15858 -7.12639 0
M  V30 2344 N 212.846 1.57033 -0.133567 0
M  V30 2345 C 213.796 2.12641 0.822671 0
M  V30 2346 C 214.78 1.05081 1.21847 0
M  V30 2347 O 215.972 1.31287 1.18713 0
M  V30 2348 C 213.101 2.74094 2.06706 0
M  V30 2349 C 212.187 3.88757 1.69497 0
M  V30 2350 N 212.578 4.95194 1.03037 0
M  V30 2351 C 210.876 3.99213 1.98859 0
M  V30 2352 C 211.577 5.75414 0.852873 0
M  V30 2353 N 210.553 5.25726 1.3825 0
M  V30 2354 H 214.355 2.92308 0.305537 0
M  V30 2355 H 211.869 1.62256 0.0684276 0
M  V30 2356 H 213.866 3.12285 2.76195 0
M  V30 2357 H 212.526 1.95896 2.5895 0
M  V30 2358 H 213.537 5.13247 0.692669 0
M  V30 2359 H 210.214 3.32075 2.53047 0
M  V30 2360 H 211.604 6.71089 0.330091 0
M  V30 2361 N 214.325 -0.140222 1.56975 0
M  V30 2362 C 215.736 -0.699596 1.73097 0
M  V30 2363 C 216.087 -1.8134 0.749022 0
M  V30 2364 O 215.212 -2.16241 -0.0828503 0
M  V30 2365 C 215.807 -1.27582 3.1386 0
M  V30 2366 C 214.366 -1.78169 3.31561 0
M  V30 2367 C 213.513 -0.672855 2.69013 0
M  V30 2368 H 216.464 0.0855115 1.58469 0
M  V30 2369 H 216.485 -2.14561 3.14235 0
M  V30 2370 H 215.997 -0.464955 3.85305 0
M  V30 2371 H 214.098 -2.61801 2.65124 0
M  V30 2372 H 214.211 -1.90574 4.39566 0
M  V30 2373 H 212.575 -1.10118 2.29665 0
M  V30 2374 H 213.358 0.126679 3.43066 0
M  V30 2375 N 215.803 -1.52179 -0.40978 0
M  V30 2376 C 217.052 -1.65434 -1.15388 0
M  V30 2377 C 217.365 -0.390056 -1.91671 0
M  V30 2378 O 218.571 -0.402399 -2.68501 0
M  V30 2379 C 217.027 -2.92279 -2.10003 0
M  V30 2380 C 216.635 -4.25813 -1.39239 0
M  V30 2381 C 218.379 -3.14897 -2.84675 0
M  V30 2382 C 216.286 -5.43782 -2.32498 0
M  V30 2383 H 215.216 -0.616267 -0.434432 0
M  V30 2384 H 217.867 -1.78666 -0.418401 0
M  V30 2385 H 216.249 -2.72744 -2.871 0
M  V30 2386 H 217.423 -4.55828 -0.675099 0
M  V30 2387 H 215.738 -4.09292 -0.766097 0
M  V30 2388 H 218.335 -4.0021 -3.54593 0
M  V30 2389 H 218.678 -2.29103 -3.47588 0
M  V30 2390 H 219.211 -3.34901 -2.14677 0
M  V30 2391 H 215.95 -6.3192 -1.74233 0
M  V30 2392 H 215.47 -5.18106 -3.02201 0
M  V30 2393 H 217.149 -5.76834 -2.93038 0
M  V30 2394 N 217.281 0.66697 -1.42791 0
M  V30 2395 C 218.506 1.46004 -1.47301 0
M  V30 2396 C 218.931 1.87894 -0.0880317 0
M  V30 2397 O 218.289 1.56502 0.915253 0
M  V30 2398 C 218.337 2.68031 -2.41229 0
M  V30 2399 O 217.441 3.6659 -1.88906 0
M  V30 2400 H 216.782 0.43832 -0.49877 0
M  V30 2401 H 219.312 0.817391 -1.87563 0
M  V30 2402 H 219.322 3.1601 -2.58073 0
M  V30 2403 H 217.997 2.36883 -3.41847 0
M  V30 2404 H 216.574 3.25661 -1.81656 0
M  V30 2405 N 218.759 1.29093 0.90403 0
M  V30 2406 C 219.707 1.13727 2.02901 0
M  V30 2407 C 220.701 0.0539853 1.69314 0
M  V30 2408 O 221.907 0.213469 1.7873 0
M  V30 2409 H 218.282 0.35117 0.664969 0
M  V30 2410 H 220.253 2.08982 2.13001 0
M  V30 2411 C 219.002 0.826066 3.37745 0
M  V30 2412 H 218.325 1.65164 3.64089 0
M  V30 2413 H 219.765 0.758559 4.17159 0
M  V30 2414 C 218.224 -0.470541 3.33598 0
M  V30 2415 O 218.754 -1.49792 3.72727 0
M  V30 2416 N 216.96 -0.474812 2.86695 0
M  V30 2417 H 216.507 0.361692 2.55048 0
M  V30 2418 H 216.465 -1.34236 2.84303 0
M  V30 2419 N 220.237 -1.11381 1.11499 0
M  V30 2420 C 221.185 -2.19522 0.768956 0
M  V30 2421 C 222.179 -1.67693 -0.239857 0
M  V30 2422 O 223.385 -1.79727 -0.0990755 0
M  V30 2423 H 219.76 -0.715711 0.230786 0
M  V30 2424 H 221.731 -2.45954 1.68964 0
M  V30 2425 C 220.48 -3.46945 0.229073 0
M  V30 2426 H 219.803 -3.8718 0.996596 0
M  V30 2427 H 221.243 -4.23993 0.0251441 0
M  V30 2428 C 219.702 -3.2042 -1.04079 0
M  V30 2429 O 220.232 -3.41178 -2.12038 0
M  V30 2430 N 218.438 -2.74151 -0.963823 0
M  V30 2431 H 217.985 -2.57459 -0.0851722 0
M  V30 2432 H 217.943 -2.56781 -1.81414 0
M  V30 2433 N 221.715 -0.905404 -1.28997 0
M  V30 2434 C 222.645 -0.404212 -2.29975 0
M  V30 2435 C 223.626 0.523784 -1.61835 0
M  V30 2436 O 224.811 0.433298 -1.89304 0
M  V30 2437 C 221.941 0.364042 -3.45387 0
M  V30 2438 C 220.895 -0.474048 -4.25367 0
M  V30 2439 C 220.221 0.422045 -5.33032 0
M  V30 2440 C 221.521 -1.72696 -4.92923 0
M  V30 2441 H 223.215 -1.24807 -2.72146 0
M  V30 2442 H 220.761 -0.601585 -1.30832 0
M  V30 2443 H 222.714 0.725447 -4.15109 0
M  V30 2444 H 221.438 1.24174 -3.02074 0
M  V30 2445 H 220.097 -0.81786 -3.57361 0
M  V30 2446 H 219.745 1.29804 -4.85963 0
M  V30 2447 H 219.445 -0.135057 -5.87445 0
M  V30 2448 H 220.969 0.779517 -6.05604 0
M  V30 2449 H 222.383 -1.43495 -5.55051 0
M  V30 2450 H 220.78 -2.22582 -5.57295 0
M  V30 2451 H 221.85 -2.45964 -4.17887 0
M  V30 2452 N 223.193 1.4272 -0.668489 0
M  V30 2453 C 224.421 2.05966 -0.196348 0
M  V30 2454 C 224.836 1.50191 1.14403 0
M  V30 2455 O 224.193 0.639208 1.7094 0
M  V30 2456 C 224.244 3.61314 -0.115815 0
M  V30 2457 O 223.965 4.1502 -1.40322 0
M  V30 2458 C 225.466 4.41663 0.380579 0
M  V30 2459 H 222.686 0.663954 -0.0969829 0
M  V30 2460 H 225.23 1.82966 -0.913446 0
M  V30 2461 H 223.385 3.83448 0.551931 0
M  V30 2462 H 223.799 5.08832 -1.27243 0
M  V30 2463 H 225.273 5.5065 0.385848 0
M  V30 2464 H 225.75 4.15792 1.41471 0
M  V30 2465 H 226.356 4.24534 -0.255209 0
M  V30 2466 N 224.671 0.411399 1.52136 0
M  V30 2467 C 225.634 -0.401089 2.25663 0
M  V30 2468 C 226.634 -0.971732 1.28117 0
M  V30 2469 O 227.824 -0.850254 1.52041 0
M  V30 2470 C 224.956 -1.56483 3.02863 0
M  V30 2471 H 226.149 0.24295 2.98914 0
M  V30 2472 H 223.702 0.163968 1.55438 0
M  V30 2473 H 224.437 -2.24567 2.33967 0
M  V30 2474 H 224.222 -1.16211 3.74483 0
M  V30 2475 H 225.712 -2.13951 3.58629 0
M  V30 2476 N 226.149 -1.5696 0.141893 0
M  V30 2477 C 227.097 -2.17784 -0.816874 0
M  V30 2478 C 228.091 -1.1334 -1.25899 0
M  V30 2479 O 229.297 -1.316 -1.22806 0
M  V30 2480 H 225.672 -0.697278 -0.281615 0
M  V30 2481 H 227.643 -2.97087 -0.279621 0
M  V30 2482 C 226.392 -2.80983 -2.04802 0
M  V30 2483 H 225.715 -3.61062 -1.7168 0
M  V30 2484 H 227.155 -3.2705 -2.69841 0
M  V30 2485 C 225.614 -1.79228 -2.8527 0
M  V30 2486 O 226.144 -1.25962 -3.8144 0
M  V30 2487 N 224.35 -1.48647 -2.49704 0
M  V30 2488 H 223.897 -1.92155 -1.71564 0
M  V30 2489 H 223.855 -0.808115 -3.03837 0
M  V30 2490 N 227.627 0.131896 -1.57047 0
M  V30 2491 C 228.577 1.1679 -1.95816 0
M  V30 2492 C 229.561 1.37756 -0.831393 0
M  V30 2493 O 230.753 1.39065 -1.09499 0
M  V30 2494 C 227.882 2.49778 -2.35512 0
M  V30 2495 C 226.968 2.32342 -3.54793 0
M  V30 2496 N 227.359 1.8469 -4.70875 0
M  V30 2497 C 225.657 2.63043 -3.60173 0
M  V30 2498 C 226.358 1.80656 -5.52936 0
M  V30 2499 N 225.334 2.24528 -4.95064 0
M  V30 2500 H 229.136 0.791818 -2.83033 0
M  V30 2501 H 226.65 0.339791 -1.58805 0
M  V30 2502 H 228.647 3.24692 -2.61498 0
M  V30 2503 H 227.307 2.88156 -1.49654 0
M  V30 2504 H 228.318 1.54429 -4.9434 0
M  V30 2505 H 224.995 3.05193 -2.84892 0
M  V30 2506 H 226.385 1.45178 -6.56028 0
M  V30 2507 N 229.106 1.52395 0.401703 0
M  V30 2508 C 230.354 1.66488 1.14569 0
M  V30 2509 C 230.675 0.400897 1.90835 0
M  V30 2510 O 229.945 -0.584415 1.8698 0
M  V30 2511 H 228.525 0.613672 0.425929 0
M  V30 2512 H 231.187 1.89464 0.457093 0
M  V30 2513 H 230.283 2.50942 1.85566 0
M  V30 2514 N 230.584 -0.659388 1.43143 0
M  V30 2515 C 231.814 -1.44513 1.47646 0
M  V30 2516 C 232.222 -1.88981 0.0910095 0
M  V30 2517 O 231.565 -1.59702 -0.907789 0
M  V30 2518 C 231.627 -2.71663 2.35456 0
M  V30 2519 C 231.291 -2.49175 3.83094 0
M  V30 2520 C 232.288 -2.1279 4.74359 0
M  V30 2521 C 229.973 -2.63691 4.27519 0
M  V30 2522 C 231.967 -1.9121 6.08044 0
M  V30 2523 C 229.654 -2.41726 5.61259 0
M  V30 2524 C 230.652 -2.0554 6.51339 0
M  V30 2525 O 230.34 -1.838 7.82606 0
M  V30 2526 H 230.072 -0.45064 0.503884 0
M  V30 2527 H 232.626 -0.816248 1.88485 0
M  V30 2528 H 230.856 -3.37089 1.89493 0
M  V30 2529 H 232.545 -3.33595 2.31235 0
M  V30 2530 H 233.311 -2.01157 4.41317 0
M  V30 2531 H 229.19 -2.90832 3.57684 0
M  V30 2532 H 232.734 -1.62889 6.78316 0
M  V30 2533 H 228.631 -2.52959 5.9387 0
M  V30 2534 H 229.399 -1.98275 7.94122 0
M  V30 2535 N 232.062 -1.29571 -0.897171 0
M  V30 2536 C 233.309 -1.17689 -1.6479 0
M  V30 2537 C 233.637 0.27107 -1.92602 0
M  V30 2538 O 232.892 1.21193 -1.53658 0
M  V30 2539 C 233.191 -1.9382 -3.00281 0
M  V30 2540 C 232.857 -3.43522 -2.92068 0
M  V30 2541 C 231.519 -3.84348 -2.89535 0
M  V30 2542 C 233.871 -4.38906 -2.81089 0
M  V30 2543 C 231.199 -5.18869 -2.73846 0
M  V30 2544 C 233.551 -5.73521 -2.66939 0
M  V30 2545 C 232.215 -6.13601 -2.62774 0
M  V30 2546 H 231.485 -0.430654 -0.603008 0
M  V30 2547 H 234.132 -1.60536 -1.04404 0
M  V30 2548 H 232.437 -1.4357 -3.64547 0
M  V30 2549 H 234.134 -1.82028 -3.57305 0
M  V30 2550 H 230.724 -3.11072 -2.94842 0
M  V30 2551 H 234.908 -4.08315 -2.82121 0
M  V30 2552 H 230.164 -5.4903 -2.69027 0
M  V30 2553 H 234.338 -6.47078 -2.57416 0
M  V30 2554 H 231.965 -7.17786 -2.50375 0
M  V30 2555 N 233.54 1.10788 -1.12088 0
M  V30 2556 C 234.47 2.19083 -0.807755 0
M  V30 2557 C 235.451 1.6858 0.226859 0
M  V30 2558 O 236.636 1.93997 0.0888475 0
M  V30 2559 C 233.766 3.46344 -0.257576 0
M  V30 2560 C 232.72 4.101 -1.22483 0
M  V30 2561 C 232.046 5.32016 -0.535052 0
M  V30 2562 C 233.346 4.54236 -2.57811 0
M  V30 2563 H 235.04 2.45534 -1.71328 0
M  V30 2564 H 232.586 1.1801 -0.825205 0
M  V30 2565 H 234.539 4.21392 -0.0262679 0
M  V30 2566 H 233.263 3.19373 0.683278 0
M  V30 2567 H 231.922 3.37054 -1.44189 0
M  V30 2568 H 231.57 5.01319 0.410827 0
M  V30 2569 H 231.27 5.75625 -1.18024 0
M  V30 2570 H 232.794 6.09799 -0.312695 0
M  V30 2571 H 234.208 5.20575 -2.40155 0
M  V30 2572 H 232.605 5.08682 -3.18375 0
M  V30 2573 H 233.675 3.6734 -3.16528 0
M  V30 2574 N 235.018 0.912232 1.28515 0
M  V30 2575 C 236.267 0.540504 1.94323 0
M  V30 2576 C 236.58 -0.920044 1.72611 0
M  V30 2577 O 237.786 -1.39986 2.32629 0
M  V30 2578 C 236.242 0.915803 3.48053 0
M  V30 2579 C 235.85 2.39598 3.78546 0
M  V30 2580 C 237.594 0.614588 4.20027 0
M  V30 2581 C 235.501 2.71148 5.25578 0
M  V30 2582 H 234.431 0.198418 0.727424 0
M  V30 2583 H 237.082 1.11094 1.46049 0
M  V30 2584 H 235.464 0.274168 3.9505 0
M  V30 2585 H 236.638 3.08422 3.42364 0
M  V30 2586 H 234.953 2.66749 3.1974 0
M  V30 2587 H 237.55 0.827002 5.28266 0
M  V30 2588 H 237.893 -0.447531 4.13887 0
M  V30 2589 H 238.426 1.21462 3.78803 0
M  V30 2590 H 235.165 3.76207 5.36794 0
M  V30 2591 H 234.685 2.0696 5.62963 0
M  V30 2592 H 236.364 2.58072 5.93302 0
M  V30 2593 N 236.496 -1.42363 0.676048 0
M  V30 2594 C 237.459 -2.29199 0.00766941 0
M  V30 2595 C 238.459 -1.43389 -0.727745 0
M  V30 2596 O 239.649 -1.64764 -0.56556 0
M  V30 2597 C 236.781 -3.2591 -0.999785 0
M  V30 2598 H 237.974 -2.89794 0.771988 0
M  V30 2599 H 235.527 -1.50024 0.438468 0
M  V30 2600 H 236.262 -2.70256 -1.79255 0
M  V30 2601 H 236.047 -3.89202 -0.475829 0
M  V30 2602 H 237.537 -3.91028 -1.46583 0
M  V30 2603 N 237.974 -0.419461 -1.51915 0
M  V30 2604 C 239.202 0.152136 -2.0634 0
M  V30 2605 C 239.617 1.37988 -1.28859 0
M  V30 2606 O 238.974 1.79243 -0.343232 0
M  V30 2607 C 239.025 0.492266 -3.58133 0
M  V30 2608 O 238.746 -0.686736 -4.32684 0
M  V30 2609 C 240.247 1.11648 -4.2901 0
M  V30 2610 H 237.467 0.0158325 -0.670813 0
M  V30 2611 H 240.011 -0.593394 -1.95702 0
M  V30 2612 H 238.166 1.18769 -3.68745 0
M  V30 2613 H 238.58 -0.400341 -5.2297 0
M  V30 2614 H 240.054 1.3046 -5.36362 0
M  V30 2615 H 240.531 2.09251 -3.86148 0
M  V30 2616 H 241.137 0.460958 -4.22795 0
M  V30 2617 N 239.452 1.56882 -0.150215 0
M  V30 2618 C 240.698 1.96518 0.500834 0
M  V30 2619 C 241.031 1.03527 1.64304 0
M  V30 2620 O 240.306 0.0782751 1.94342 0
M  V30 2621 C 240.589 3.45822 1.00395 0
M  V30 2622 C 240.442 4.49591 -0.136983 0
M  V30 2623 C 241.761 3.97704 1.88467 0
M  V30 2624 H 238.88 0.714535 0.18058 0
M  V30 2625 H 241.522 1.88577 -0.232091 0
M  V30 2626 H 239.672 3.5272 1.62851 0
M  V30 2627 H 241.344 4.5477 -0.77343 0
M  V30 2628 H 239.587 4.26441 -0.795652 0
M  V30 2629 H 240.258 5.51402 0.256815 0
M  V30 2630 H 242.734 3.93304 1.35834 0
M  V30 2631 H 241.61 5.0263 2.20578 0
M  V30 2632 H 241.871 3.40252 2.82279 0
M  V30 2633 N 240.93 -0.123565 1.57115 0
M  V30 2634 C 242.176 -0.828428 1.85765 0
M  V30 2635 C 242.531 -1.77709 0.737371 0
M  V30 2636 O 241.824 -1.89787 -0.262978 0
M  V30 2637 C 242.018 -1.62016 3.18568 0
M  V30 2638 C 241.847 -0.749663 4.43407 0
M  V30 2639 C 240.617 -0.406251 5.03664 0
M  V30 2640 C 242.815 -0.0693505 5.14253 0
M  V30 2641 N 240.797 0.475389 6.12057 0
M  V30 2642 C 242.168 0.671474 6.16353 0
M  V30 2643 C 244.223 0.00754393 4.97899 0
M  V30 2644 C 242.926 1.48197 7.03868 0
M  V30 2645 C 244.952 0.804845 5.85898 0
M  V30 2646 C 244.314 1.53388 6.87497 0
M  V30 2647 H 240.413 -0.280219 0.73007 0
M  V30 2648 H 242.997 -0.0924183 1.94481 0
M  V30 2649 H 241.168 -2.32724 3.10957 0
M  V30 2650 H 242.9 -2.27 3.35042 0
M  V30 2651 H 239.655 -0.747446 4.67665 0
M  V30 2652 H 240.079 0.907924 6.70884 0
M  V30 2653 H 244.721 -0.541741 4.19315 0
M  V30 2654 H 242.439 2.04242 7.81864 0
M  V30 2655 H 246.025 0.866642 5.75309 0
M  V30 2656 H 244.905 2.1409 7.5441 0
M  V30 2657 N 242.408 -1.52605 -0.393616 0
M  V30 2658 C 243.636 -1.71294 -1.16043 0
M  V30 2659 C 244.051 -0.429259 -1.83855 0
M  V30 2660 O 243.408 0.595921 -1.72496 0
M  V30 2661 C 243.459 -2.8593 -2.21193 0
M  V30 2662 O 243.18 -4.09329 -1.56146 0
M  V30 2663 C 244.681 -3.16259 -3.10636 0
M  V30 2664 H 241.901 -0.573641 -0.348104 0
M  V30 2665 H 244.445 -1.99234 -0.461092 0
M  V30 2666 H 242.6 -2.60465 -2.86769 0
M  V30 2667 H 243.014 -4.73323 -2.25978 0
M  V30 2668 H 244.488 -3.99946 -3.80456 0
M  V30 2669 H 244.965 -2.3045 -3.73884 0
M  V30 2670 H 245.571 -3.43547 -2.50711 0
M  V30 2671 N 243.887 0.651787 -1.4349 0
M  V30 2672 C 244.817 1.77621 -1.51569 0
M  V30 2673 C 245.798 1.66022 -0.370253 0
M  V30 2674 O 246.983 1.85095 -0.587658 0
M  V30 2675 C 244.113 3.16056 -1.43966 0
M  V30 2676 C 243.067 3.4242 -2.56774 0
M  V30 2677 C 242.393 4.8067 -2.34223 0
M  V30 2678 C 243.693 3.37023 -3.99015 0
M  V30 2679 H 245.387 1.71117 -2.45681 0
M  V30 2680 H 242.933 0.821825 -1.18246 0
M  V30 2681 H 244.886 3.94472 -1.48221 0
M  V30 2682 H 243.61 3.23293 -0.463586 0
M  V30 2683 H 242.269 2.66375 -2.51873 0
M  V30 2684 H 241.917 4.84585 -1.34856 0
M  V30 2685 H 241.617 4.9927 -3.09844 0
M  V30 2686 H 243.141 5.61342 -2.40265 0
M  V30 2687 H 244.555 4.05374 -4.05395 0
M  V30 2688 H 242.952 3.67159 -4.74673 0
M  V30 2689 H 244.022 2.3518 -4.2405 0
M  V30 2690 N 245.365 1.30045 0.890287 0
M  V30 2691 C 246.613 1.18327 1.63839 0
M  V30 2692 C 246.934 -0.263455 1.93212 0
M  V30 2693 O 246.204 -1.17856 1.56482 0
M  V30 2694 H 244.784 0.434933 0.607324 0
M  V30 2695 H 247.446 1.631 1.06698 0
M  V30 2696 H 246.542 1.74024 2.59079 0
M  V30 2697 N 246.843 -1.10192 1.12674 0
M  V30 2698 C 248.09 -1.82205 0.883606 0
M  V30 2699 C 248.418 -1.8532 -0.590492 0
M  V30 2700 O 247.673 -1.31137 -1.45264 0
M  V30 2701 C 247.972 -3.28552 1.4067 0
M  V30 2702 C 247.638 -3.45582 2.89627 0
M  V30 2703 C 246.3 -3.49937 3.30299 0
M  V30 2704 C 248.652 -3.50768 3.85501 0
M  V30 2705 C 245.98 -3.57049 4.65546 0
M  V30 2706 C 248.332 -3.59414 5.20581 0
M  V30 2707 C 246.996 -3.62034 5.60792 0
M  V30 2708 H 246.266 -0.666735 0.323334 0
M  V30 2709 H 248.913 -1.29868 1.40736 0
M  V30 2710 H 247.218 -3.83473 0.80347 0
M  V30 2711 H 248.915 -3.82788 1.19475 0
M  V30 2712 H 245.505 -3.42871 2.57172 0
M  V30 2713 H 249.689 -3.46651 3.55171 0
M  V30 2714 H 244.945 -3.57361 4.96088 0
M  V30 2715 H 249.119 -3.62371 5.94693 0
M  V30 2716 H 246.746 -3.67298 6.6558 0
M  V30 2717 N 248.321 -0.919034 -1.28029 0
M  V30 2718 C 249.284 -0.416182 -2.2539 0
M  V30 2719 C 250.284 0.460438 -1.54067 0
M  V30 2720 O 251.474 0.262744 -1.72207 0
M  V30 2721 C 248.606 0.402707 -3.38513 0
M  V30 2722 H 249.799 -1.27629 -2.71387 0
M  V30 2723 H 247.352 -0.698919 -1.39803 0
M  V30 2724 H 248.087 1.282 -2.97885 0
M  V30 2725 H 247.872 -0.225698 -3.9145 0
M  V30 2726 H 249.362 0.745191 -4.10897 0
M  V30 2727 N 249.799 1.42003 -0.683588 0
M  V30 2728 C 251.048 2.00638 -0.206681 0
M  V30 2729 C 251.361 1.5472 1.19671 0
M  V30 2730 O 252.567 2.05833 1.77045 0
M  V30 2731 C 251.023 3.58487 -0.318632 0
M  V30 2732 C 250.631 4.1339 -1.72663 0
M  V30 2733 C 252.375 4.24384 0.0991141 0
M  V30 2734 C 250.282 5.63633 -1.79087 0
M  V30 2735 H 249.212 0.750408 -0.0735107 0
M  V30 2736 H 251.863 1.62624 -0.850048 0
M  V30 2737 H 250.245 3.94047 0.392781 0
M  V30 2738 H 251.419 3.89273 -2.46583 0
M  V30 2739 H 249.734 3.59976 -2.09299 0
M  V30 2740 H 252.331 5.34652 0.0713833 0
M  V30 2741 H 252.674 4.00505 1.13586 0
M  V30 2742 H 253.207 3.93816 -0.561599 0
M  V30 2743 H 249.946 5.92323 -2.80774 0
M  V30 2744 H 249.466 5.89714 -1.09535 0
M  V30 2745 H 251.145 6.28201 -1.5483 0
M  V30 2746 N 251.277 0.427512 1.51691 0
M  V30 2747 C 252.517 -0.141524 2.03909 0
M  V30 2748 C 252.881 -1.40811 1.30523 0
M  V30 2749 O 254.082 -2.05676 1.73063 0
M  V30 2750 C 252.353 -0.364962 3.55532 0
M  V30 2751 S 253.912 -0.898812 4.29496 0
M  V30 2752 H 250.73 -0.0364542 0.710065 0
M  V30 2753 H 253.332 0.584659 1.86553 0
M  V30 2754 H 252.036 0.56336 4.06515 0
M  V30 2755 H 251.567 -1.1185 3.77164 0
M  V30 2756 H 253.582 -2.17747 4.45871 0
M  V30 2757 N 252.755 -1.56801 0.158532 0
M  V30 2758 C 253.98 -2.01295 -0.499516 0
M  V30 2759 C 254.405 -1.03799 -1.56867 0
M  V30 2760 O 253.763 -0.0155162 -1.81293 0
M  V30 2761 C 253.811 -3.44469 -1.06647 0
M  V30 2762 O 252.915 -3.50012 -2.18095 0
M  V30 2763 H 252.256 -0.652884 -0.12099 0
M  V30 2764 H 254.786 -2.02958 0.258661 0
M  V30 2765 H 254.796 -3.8351 -1.39227 0
M  V30 2766 H 253.471 -4.14932 -0.283581 0
M  V30 2767 H 252.048 -3.22822 -1.86656 0
M  V30 2768 N 254.233 0.115231 -1.57178 0
M  V30 2769 C 255.644 0.67197 -1.74188 0
M  V30 2770 C 255.995 1.80125 -0.777777 0
M  V30 2771 O 255.12 2.16346 0.0484376 0
M  V30 2772 C 255.715 1.22573 -3.1585 0
M  V30 2773 C 254.274 1.72872 -3.34353 0
M  V30 2774 C 253.421 0.629972 -2.70049 0
M  V30 2775 H 256.372 -0.110712 -1.58313 0
M  V30 2776 H 256.393 2.09535 -3.17609 0
M  V30 2777 H 255.905 0.403598 -3.85996 0
M  V30 2778 H 254.006 2.5755 -2.69256 0
M  V30 2779 H 254.119 1.83557 -4.42542 0
M  V30 2780 H 252.483 1.0645 -2.31388 0
M  V30 2781 H 253.266 -0.181241 -3.42821 0
M  V30 2782 N 255.711 1.52812 0.385517 0
M  V30 2783 C 256.641 1.80808 1.47752 0
M  V30 2784 C 257.622 0.660318 1.5676 0
M  V30 2785 O 258.807 0.908246 1.71652 0
M  V30 2786 C 255.937 1.98008 2.85324 0
M  V30 2787 C 254.891 3.13709 2.91154 0
M  V30 2788 C 254.217 3.16169 4.31209 0
M  V30 2789 C 255.517 4.52709 2.60483 0
M  V30 2790 H 257.211 2.72253 1.24573 0
M  V30 2791 H 254.757 1.31003 0.597839 0
M  V30 2792 H 256.71 2.16176 3.61726 0
M  V30 2793 H 255.434 1.03255 3.09848 0
M  V30 2794 H 254.093 2.95329 2.17201 0
M  V30 2795 H 253.741 2.19092 4.52778 0
M  V30 2796 H 253.441 3.93894 4.36029 0
M  V30 2797 H 254.965 3.36496 5.09512 0
M  V30 2798 H 256.379 4.71173 3.26602 0
M  V30 2799 H 254.776 5.32528 2.76648 0
M  V30 2800 H 255.846 4.59186 1.55809 0
M  V30 2801 N 257.189 -0.644168 1.43834 0
M  V30 2802 C 258.6 -1.22554 1.40845 0
M  V30 2803 C 258.951 -1.9585 0.117115 0
M  V30 2804 O 258.076 -2.01734 -0.783086 0
M  V30 2805 C 258.671 -2.22907 2.55143 0
M  V30 2806 C 257.23 -2.76501 2.5539 0
M  V30 2807 C 256.377 -1.51287 2.32396 0
M  V30 2808 H 259.328 -0.43563 1.52604 0
M  V30 2809 H 259.349 -3.05259 2.2715 0
M  V30 2810 H 258.861 -1.69533 3.49114 0
M  V30 2811 H 256.962 -3.33914 1.65324 0
M  V30 2812 H 257.075 -3.23429 3.53455 0
M  V30 2813 H 255.439 -1.78957 1.81236 0
M  V30 2814 H 256.222 -0.998336 3.28463 0
M  V30 2815 N 258.668 -1.30515 -0.883378 0
M  V30 2816 C 259.914 -1.19607 -1.63774 0
M  V30 2817 C 260.247 0.248314 -1.92606 0
M  V30 2818 O 259.522 1.17742 -1.54813 0
M  V30 2819 C 259.805 -2.02669 -2.97653 0
M  V30 2820 C 259.658 -3.55335 -2.75784 0
M  V30 2821 C 260.977 -1.86573 -3.98596 0
M  V30 2822 H 258.096 -0.435856 -0.594305 0
M  V30 2823 H 260.738 -1.60165 -1.02212 0
M  V30 2824 H 258.888 -1.68208 -3.50197 0
M  V30 2825 H 260.56 -3.99863 -2.30016 0
M  V30 2826 H 258.803 -3.79438 -2.1026 0
M  V30 2827 H 259.474 -4.08745 -3.70988 0
M  V30 2828 H 261.95 -2.16703 -3.55217 0
M  V30 2829 H 260.826 -2.47014 -4.90179 0
M  V30 2830 H 261.087 -0.825321 -4.34328 0
M  V30 2831 N 260.146 1.09593 -1.13257 0
M  V30 2832 C 261.393 1.81734 -0.893257 0
M  V30 2833 C 261.721 1.8563 0.580656 0
M  V30 2834 O 260.976 1.31906 1.44566 0
M  V30 2835 C 261.275 3.27802 -1.42411 0
M  V30 2836 C 260.941 3.44041 -2.91456 0
M  V30 2837 C 259.603 3.48181 -3.3215 0
M  V30 2838 C 261.955 3.48719 -3.87356 0
M  V30 2839 C 259.283 3.54575 -4.67433 0
M  V30 2840 C 261.635 3.56648 -5.2248 0
M  V30 2841 C 260.299 3.59055 -5.62704 0
M  V30 2842 H 259.569 0.665011 -0.326866 0
M  V30 2843 H 262.216 1.2912 -1.41422 0
M  V30 2844 H 260.521 3.83042 -0.823795 0
M  V30 2845 H 262.218 3.82149 -1.21503 0
M  V30 2846 H 258.808 3.41502 -2.58987 0
M  V30 2847 H 262.992 3.44763 -3.57004 0
M  V30 2848 H 258.248 3.54725 -4.97976 0
M  V30 2849 H 262.422 3.59212 -5.96607 0
M  V30 2850 H 260.049 3.63763 -6.67518 0
M  V30 2851 N 261.624 0.925811 1.2754 0
M  V30 2852 C 262.574 0.394488 2.24561 0
M  V30 2853 C 263.558 -0.500183 1.52928 0
M  V30 2854 O 264.75 -0.337936 1.73744 0
M  V30 2855 C 261.879 -0.353328 3.41477 0
M  V30 2856 C 260.965 0.557752 4.20416 0
M  V30 2857 N 261.356 1.67674 4.77199 0
M  V30 2858 C 259.654 0.360404 4.44541 0
M  V30 2859 C 260.355 2.24324 5.36706 0
M  V30 2860 N 259.331 1.53305 5.21535 0
M  V30 2861 H 263.133 1.2489 2.66045 0
M  V30 2862 H 260.647 0.779864 1.4245 0
M  V30 2863 H 262.644 -0.7509 4.10082 0
M  V30 2864 H 261.304 -1.20469 3.01525 0
M  V30 2865 H 262.315 2.05915 4.75204 0
M  V30 2866 H 258.992 -0.450454 4.15063 0
M  V30 2867 H 260.382 3.18521 5.91603 0
M  V30 2868 N 263.102 -1.41638 0.69111 0
M  V30 2869 C 264.327 -2.06148 0.227583 0
M  V30 2870 C 264.752 -1.51652 -1.11281 0
M  V30 2871 O 264.11 -0.64164 -1.69566 0
M  V30 2872 C 264.158 -3.60095 0.190858 0
M  V30 2873 O 263.262 -4.03845 -0.835664 0
M  V30 2874 H 262.603 -0.654434 0.112306 0
M  V30 2875 H 265.133 -1.81484 0.944714 0
M  V30 2876 H 265.143 -4.07995 0.020207 0
M  V30 2877 H 263.818 -3.99129 1.16915 0
M  V30 2878 H 262.395 -3.67458 -0.63473 0
M  V30 2879 N 264.58 -0.43555 -1.51462 0
M  V30 2880 C 265.51 0.367376 -2.30592 0
M  V30 2881 C 266.491 1.02263 -1.35928 0
M  V30 2882 O 267.676 1.02661 -1.64847 0
M  V30 2883 C 264.806 1.46983 -3.14664 0
M  V30 2884 C 263.76 0.938161 -4.17591 0
M  V30 2885 C 263.086 2.13622 -4.90173 0
M  V30 2886 C 264.386 -0.0261621 -5.22293 0
M  V30 2887 H 266.08 -0.292969 -2.97963 0
M  V30 2888 H 263.626 -0.14234 -1.43295 0
M  V30 2889 H 265.579 2.03873 -3.688 0
M  V30 2890 H 264.303 2.15843 -2.4511 0
M  V30 2891 H 262.962 0.391481 -3.64504 0
M  V30 2892 H 262.61 2.81098 -4.17124 0
M  V30 2893 H 262.31 1.78688 -5.59772 0
M  V30 2894 H 263.834 2.7107 -5.47132 0
M  V30 2895 H 265.248 0.452384 -5.71512 0
M  V30 2896 H 263.645 -0.287992 -5.99409 0
M  V30 2897 H 264.715 -0.963391 -4.75233 0
M  V30 2898 N 266.058 1.56714 -0.166846 0
M  V30 2899 C 267.304 1.97039 0.479962 0
M  V30 2900 C 267.637 1.05264 1.63197 0
M  V30 2901 O 266.912 0.0988833 1.94248 0
M  V30 2902 C 267.195 3.46867 0.967212 0
M  V30 2903 C 267.048 4.49421 -0.18466 0
M  V30 2904 C 268.367 3.9968 1.84238 0
M  V30 2905 H 265.486 0.71641 0.172992 0
M  V30 2906 H 268.128 1.8832 -0.252079 0
M  V30 2907 H 266.278 3.54428 1.59101 0
M  V30 2908 H 267.95 4.53924 -0.821621 0
M  V30 2909 H 266.193 4.25573 -0.840837 0
M  V30 2910 H 266.864 5.51644 0.198317 0
M  V30 2911 H 269.34 3.94723 1.31655 0
M  V30 2912 H 268.216 5.04941 2.15234 0
M  V30 2913 H 268.477 3.43226 2.78654 0
M  V30 2914 N 267.536 -0.106894 1.57237 0
M  V30 2915 C 268.446 -1.14911 2.0453 0
M  V30 2916 C 269.462 -1.44592 0.96795 0
M  V30 2917 O 270.638 -1.55468 1.2803 0
M  V30 2918 C 267.703 -2.45272 2.45036 0
M  V30 2919 C 266.764 -2.22879 3.66911 0
M  V30 2920 C 265.997 -3.47024 4.05475 0
M  V30 2921 O 266.22 -4.54804 3.44252 0
M  V30 2922 O 265.154 -3.3731 4.98504 0
M  V30 2923 H 268.98 -0.777461 2.9358 0
M  V30 2924 H 266.565 -0.318563 1.45964 0
M  V30 2925 H 268.447 -3.22055 2.71769 0
M  V30 2926 H 267.122 -2.81886 1.59129 0
M  V30 2927 H 266.029 -1.43915 3.45311 0
M  V30 2928 H 267.362 -1.91163 4.53561 0
M  V30 2929 N 269.014 -1.53014 -0.377408 0
M  V30 2930 C 269.944 -1.81589 -1.46791 0
M  V30 2931 C 270.925 -0.668622 -1.56408 0
M  V30 2932 O 272.11 -0.917337 -1.71168 0
M  V30 2933 C 269.24 -1.99519 -2.8427 0
M  V30 2934 C 268.194 -3.15249 -2.89486 0
M  V30 2935 C 267.52 -3.18451 -4.29527 0
M  V30 2936 C 268.82 -4.54084 -2.58079 0
M  V30 2937 H 270.514 -2.7291 -1.23127 0
M  V30 2938 H 268.06 -1.31319 -0.590883 0
M  V30 2939 H 270.013 -2.18092 -3.60575 0
M  V30 2940 H 268.737 -1.04897 -3.09296 0
M  V30 2941 H 267.396 -2.96477 -2.15631 0
M  V30 2942 H 267.044 -2.2149 -4.5161 0
M  V30 2943 H 266.744 -3.962 -4.33934 0
M  V30 2944 H 268.268 -3.39193 -5.07721 0
M  V30 2945 H 269.682 -4.72899 -3.24098 0
M  V30 2946 H 268.079 -5.33987 -2.7382 0
M  V30 2947 H 269.149 -4.60006 -1.53372 0
M  V30 2948 N 270.492 0.636531 -1.44174 0
M  V30 2949 C 271.424 1.7618 -1.46606 0
M  V30 2950 C 272.437 1.58768 -0.360091 0
M  V30 2951 O 273.626 1.67181 -0.625518 0
M  V30 2952 C 270.726 3.13833 -1.27915 0
M  V30 2953 C 269.899 3.57753 -2.51658 0
M  V30 2954 C 268.958 4.74265 -2.27945 0
M  V30 2955 O 267.984 4.82852 -3.01401 0
M  V30 2956 N 269.186 5.65604 -1.30662 0
M  V30 2957 H 271.951 1.74567 -2.43612 0
M  V30 2958 H 269.512 0.820924 -1.39544 0
M  V30 2959 H 271.504 3.8949 -1.09907 0
M  V30 2960 H 270.074 3.10121 -0.39293 0
M  V30 2961 H 269.294 2.72362 -2.84978 0
M  V30 2962 H 270.582 3.83847 -3.33974 0
M  V30 2963 H 269.98 5.61354 -0.699844 0
M  V30 2964 H 268.537 6.40913 -1.18634 0
M  V30 2965 N 271.97 1.30982 0.876444 0
M  V30 2966 C 272.88 1.2003 2.01569 0
M  V30 2967 C 273.896 0.11838 1.73597 0
M  V30 2968 O 275.072 0.33495 1.98595 0
M  V30 2969 C 272.137 0.901637 3.34771 0
M  V30 2970 C 271.198 2.06979 3.76109 0
M  V30 2971 C 270.431 1.78529 5.02954 0
M  V30 2972 O 270.654 0.717296 5.65872 0
M  V30 2973 O 269.588 2.64019 5.40905 0
M  V30 2974 H 273.414 2.15753 2.13739 0
M  V30 2975 H 270.999 1.10658 1.00375 0
M  V30 2976 H 272.881 0.750645 4.1466 0
M  V30 2977 H 271.556 -0.0256141 3.2369 0
M  V30 2978 H 270.463 2.27616 2.96887 0
M  V30 2979 H 271.796 2.97907 3.91807 0
M  V30 2980 N 273.449 -1.08991 1.13837 0
M  V30 2981 C 274.677 -1.85011 0.926202 0
M  V30 2982 C 275.092 -1.8135 -0.525127 0
M  V30 2983 O 274.449 -1.21287 -1.36366 0
M  V30 2984 C 274.5 -3.32802 1.41155 0
M  V30 2985 O 274.221 -3.36444 2.80601 0
M  V30 2986 C 275.722 -4.25649 1.23847 0
M  V30 2987 H 272.942 -0.584249 0.32999 0
M  V30 2988 H 275.486 -1.37688 1.51202 0
M  V30 2989 H 273.641 -3.77536 0.868631 0
M  V30 2990 H 274.055 -4.28657 3.02248 0
M  V30 2991 H 275.529 -5.27485 1.62675 0
M  V30 2992 H 276.006 -4.38828 0.18065 0
M  V30 2993 H 276.612 -3.86735 1.76964 0
M  V30 2994 N 274.927 -0.932562 -1.27047 0
M  V30 2995 C 276.174 -0.575559 -1.94148 0
M  V30 2996 C 276.502 0.883984 -1.73251 0
M  V30 2997 O 275.757 1.64655 -1.0577 0
M  V30 2998 C 276.056 -0.853713 -3.47054 0
M  V30 2999 C 275.722 -2.29577 -3.88079 0
M  V30 3000 C 274.384 -2.68999 -3.9899 0
M  V30 3001 C 276.736 -3.23331 -4.08787 0
M  V30 3002 C 274.064 -4.01289 -4.28 0
M  V30 3003 C 276.416 -4.55207 -4.39282 0
M  V30 3004 C 275.08 -4.94457 -4.48407 0
M  V30 3005 H 274.35 -0.210612 -0.710439 0
M  V30 3006 H 276.997 -1.17744 -1.51025 0
M  V30 3007 H 275.302 -0.169204 -3.91434 0
M  V30 3008 H 276.999 -0.55639 -3.97121 0
M  V30 3009 H 273.589 -1.97994 -3.80127 0
M  V30 3010 H 277.773 -2.94074 -3.99793 0
M  V30 3011 H 273.029 -4.31374 -4.33275 0
M  V30 3012 H 277.203 -5.27852 -4.54252 0
M  V30 3013 H 274.83 -5.96994 -4.7064 0
M  V30 3014 N 276.405 1.4127 -0.698611 0
M  V30 3015 C 277.653 2.00782 -0.230409 0
M  V30 3016 C 277.974 1.5562 1.17505 0
M  V30 3017 O 277.244 0.78815 1.79346 0
M  V30 3018 H 275.824 0.742464 -0.0821944 0
M  V30 3019 H 278.486 1.72852 -0.90045 0
M  V30 3020 H 277.582 3.11095 -0.25021 0
M  V30 3021 N 277.883 0.443576 1.51229 0
M  V30 3022 C 279.108 -0.121648 2.07043 0
M  V30 3023 C 279.533 -1.35156 1.30823 0
M  V30 3024 O 278.891 -1.7793 0.347934 0
M  V30 3025 C 278.939 -0.41624 3.5819 0
M  V30 3026 O 278.043 -1.50163 3.8409 0
M  V30 3027 H 277.384 0.000871367 0.663999 0
M  V30 3028 H 279.914 0.626706 1.94765 0
M  V30 3029 H 279.924 -0.664867 4.02546 0
M  V30 3030 H 278.599 0.482653 4.1309 0
M  V30 3031 H 277.176 -1.24248 3.51592 0
M  V30 3032 N 279.361 -1.56624 0.175154 0
M  V30 3033 C 280.324 -2.16934 -0.739738 0
M  V30 3034 C 281.324 -1.11842 -1.15533 0
M  V30 3035 O 282.514 -1.37335 -1.07167 0
M  V30 3036 C 279.646 -2.75531 -2.00738 0
M  V30 3037 H 280.839 -2.99131 -0.214639 0
M  V30 3038 H 278.392 -1.56123 -0.0744197 0
M  V30 3039 H 279.127 -1.97078 -2.57548 0
M  V30 3040 H 278.912 -3.52444 -1.71831 0
M  V30 3041 H 280.402 -3.21904 -2.66021 0
M  V30 3042 N 280.839 0.0985539 -1.57292 0
M  V30 3043 C 281.769 1.12064 -2.04851 0
M  V30 3044 C 282.75 1.41981 -0.936767 0
M  V30 3045 O 283.935 1.52071 -1.20781 0
M  V30 3046 C 281.065 2.44144 -2.47004 0
M  V30 3047 C 280.019 2.28643 -3.6181 0
M  V30 3048 C 279.345 3.65869 -3.89929 0
M  V30 3049 C 280.645 1.72986 -4.92822 0
M  V30 3050 H 282.339 0.724979 -2.9049 0
M  V30 3051 H 279.885 0.34729 -1.39749 0
M  V30 3052 H 281.838 3.15914 -2.78884 0
M  V30 3053 H 280.562 2.85639 -1.5836 0
M  V30 3054 H 279.221 1.59318 -3.30172 0
M  V30 3055 H 278.869 4.04885 -2.98458 0
M  V30 3056 H 278.569 3.56344 -4.67218 0
M  V30 3057 H 280.093 4.39112 -4.2428 0
M  V30 3058 H 281.507 2.34593 -5.23105 0
M  V30 3059 H 279.904 1.74229 -5.74251 0
M  V30 3060 H 280.974 0.689007 -4.7998 0
M  V30 3061 N 282.317 1.53212 0.369288 0
M  V30 3062 C 283.247 1.82365 1.45826 0
M  V30 3063 C 284.228 0.676907 1.56051 0
M  V30 3064 O 285.413 0.926401 1.70679 0
M  V30 3065 C 282.543 2.01023 2.83208 0
M  V30 3066 C 281.497 3.1678 2.8781 0
M  V30 3067 C 280.823 3.20724 4.27832 0
M  V30 3068 C 282.123 4.55447 2.55667 0
M  V30 3069 H 283.817 2.73559 1.21678 0
M  V30 3070 H 281.363 1.3163 0.583911 0
M  V30 3071 H 283.316 2.20001 3.59413 0
M  V30 3072 H 282.04 1.06536 3.08736 0
M  V30 3073 H 280.699 2.97616 2.14056 0
M  V30 3074 H 280.347 2.23882 4.50429 0
M  V30 3075 H 280.047 3.98496 4.31827 0
M  V30 3076 H 281.571 3.41881 5.05915 0
M  V30 3077 H 282.985 4.74611 3.21586 0
M  V30 3078 H 281.382 5.35432 2.70984 0
M  V30 3079 H 282.452 4.60812 1.5093 0
M  V30 3080 N 283.795 -0.628877 1.44509 0
M  V30 3081 C 285.02 -1.42048 1.5112 0
M  V30 3082 C 285.445 -1.87594 0.137818 0
M  V30 3083 O 284.803 -1.58873 -0.873437 0
M  V30 3084 C 284.851 -2.61541 2.48251 0
M  V30 3085 O 283.955 -3.61453 1.98559 0
M  V30 3086 H 283.296 -0.424942 0.510216 0
M  V30 3087 H 285.826 -0.767374 1.89664 0
M  V30 3088 H 285.836 -3.09057 2.66361 0
M  V30 3089 H 284.511 -2.27736 3.48007 0
M  V30 3090 H 283.088 -3.20731 1.90227 0
M  V30 3091 N 285.273 -1.31445 -0.869486 0
M  V30 3092 C 286.498 -1.24256 -1.66058 0
M  V30 3093 C 286.923 0.188928 -1.87149 0
M  V30 3094 O 286.281 1.13522 -1.4136 0
M  V30 3095 C 286.329 -1.9924 -3.00559 0
M  V30 3096 O 285.433 -1.33007 -3.90362 0
M  V30 3097 H 284.774 -0.428973 -0.506831 0
M  V30 3098 H 287.304 -1.73521 -1.08404 0
M  V30 3099 H 287.314 -2.08854 -3.50491 0
M  V30 3100 H 285.989 -3.03342 -2.84528 0
M  V30 3101 H 284.566 -1.31848 -3.48813 0
M  V30 3102 N 286.751 1.08385 -1.14413 0
M  V30 3103 C 288.167 1.32844 -0.884563 0
M  V30 3104 C 288.367 1.95841 0.474181 0
M  V30 3105 O 287.423 2.21158 1.21842 0
M  V30 3106 C 288.736 2.22978 -2.01745 0
M  V30 3107 C 290.284 2.36458 -2.05077 0
M  V30 3108 C 290.759 3.29934 -3.1766 0
M  V30 3109 N 292.25 3.37511 -3.17239 0
M  V30 3110 C 292.985 4.09871 -4.0099 0
M  V30 3111 N 292.481 4.84936 -4.94781 0
M  V30 3112 N 294.274 4.05704 -3.89051 0
M  V30 3113 H 286.425 0.658756 -2.01926 0
M  V30 3114 H 288.688 0.352821 -0.879899 0
M  V30 3115 H 288.394 1.83934 -2.99769 0
M  V30 3116 H 288.268 3.23441 -1.94077 0
M  V30 3117 H 290.655 2.7476 -1.0766 0
M  V30 3118 H 290.736 1.35736 -2.16816 0
M  V30 3119 H 290.38 2.92352 -4.15322 0
M  V30 3120 H 290.31 4.30584 -3.03158 0
M  V30 3121 H 292.801 2.83996 -2.49308 0
M  V30 3122 H 293.114 5.37612 -5.55151 0
M  V30 3123 H 291.459 4.83988 -4.98779 0
M  V30 3124 H 294.65 3.46167 -3.15097 0
M  V30 3125 H 294.823 4.61834 -4.54547 0
M  V30 3126 N 288.23 0.939286 1.26551 0
M  V30 3127 C 289.46 0.601663 1.97645 0
M  V30 3128 C 289.868 -0.827206 1.70159 0
M  V30 3129 O 289.211 -1.56291 0.965338 0
M  V30 3130 C 289.273 0.761725 3.51337 0
M  V30 3131 C 288.937 2.16487 4.0247 0
M  V30 3132 C 289.934 3.14016 4.14355 0
M  V30 3133 C 287.619 2.48494 4.36527 0
M  V30 3134 C 289.613 4.41654 4.59587 0
M  V30 3135 C 287.3 3.76364 4.81449 0
M  V30 3136 C 288.298 4.72758 4.92939 0
M  V30 3137 O 287.986 5.98352 5.36871 0
M  V30 3138 H 287.718 0.225758 0.637189 0
M  V30 3139 H 290.272 1.26178 1.62075 0
M  V30 3140 H 288.502 0.0444808 3.86674 0
M  V30 3141 H 290.191 0.427442 4.03643 0
M  V30 3142 H 290.957 2.90613 3.8829 0
M  V30 3143 H 286.836 1.74202 4.26819 0
M  V30 3144 H 290.38 5.16896 4.68471 0
M  V30 3145 H 286.277 3.99582 5.06956 0
M  V30 3146 H 287.045 6.01507 5.55096 0
M  V30 3147 N 289.708 -1.40897 0.706093 0
M  V30 3148 C 290.638 -2.33418 0.0620085 0
M  V30 3149 C 291.619 -1.52385 -0.755827 0
M  V30 3150 O 292.804 -1.80886 -0.706674 0
M  V30 3151 C 289.934 -3.36293 -0.867445 0
M  V30 3152 C 288.888 -4.27716 -0.155932 0
M  V30 3153 C 288.214 -5.2105 -1.20046 0
M  V30 3154 C 289.514 -5.12944 0.984149 0
M  V30 3155 H 291.208 -2.87527 0.83477 0
M  V30 3156 H 288.754 -1.38249 0.402875 0
M  V30 3157 H 290.707 -3.99949 -1.32735 0
M  V30 3158 H 289.431 -2.80556 -1.67199 0
M  V30 3159 H 288.09 -3.65498 0.284047 0
M  V30 3160 H 287.738 -4.61624 -1.99781 0
M  V30 3161 H 287.438 -5.83056 -0.729328 0
M  V30 3162 H 288.962 -5.87584 -1.66066 0
M  V30 3163 H 290.376 -5.70109 0.604048 0
M  V30 3164 H 288.773 -5.83945 1.38304 0
M  V30 3165 H 289.843 -4.49485 1.81911 0
M  V30 3166 N 291.186 -0.45159 -1.50991 0
M  V30 3167 C 292.426 0.109066 -2.04109 0
M  V30 3168 C 292.79 1.38716 -1.32747 0
M  V30 3169 O 293.991 2.02896 -1.76314 0
M  V30 3170 C 292.262 0.308354 -3.56067 0
M  V30 3171 S 293.821 0.830369 -4.30872 0
M  V30 3172 H 290.639 0.0251531 -0.710555 0
M  V30 3173 H 293.241 -0.614264 -1.85599 0
M  V30 3174 H 291.945 -0.627962 -4.05567 0
M  V30 3175 H 291.476 1.05836 -3.78896 0
M  V30 3176 H 293.491 2.10626 -4.49279 0
M  V30 3177 N 292.664 1.56529 -0.183458 0
M  V30 3178 C 293.91 1.97537 0.459036 0
M  V30 3179 C 294.243 1.06989 1.62071 0
M  V30 3180 O 293.518 0.11948 1.94133 0
M  V30 3181 C 293.801 3.47874 0.930368 0
M  V30 3182 C 293.654 4.492 -0.232317 0
M  V30 3183 C 294.973 4.01612 1.79989 0
M  V30 3184 H 292.092 0.718204 0.165383 0
M  V30 3185 H 294.734 1.88042 -0.272038 0
M  V30 3186 H 292.884 3.56095 1.55333 0
M  V30 3187 H 294.556 4.53027 -0.86972 0
M  V30 3188 H 292.799 4.24657 -0.885928 0
M  V30 3189 H 293.47 5.51823 0.139796 0
M  V30 3190 H 295.946 3.96097 1.27461 0
M  V30 3191 H 294.822 5.07195 2.09867 0
M  V30 3192 H 295.083 3.46163 2.74998 0
M  V30 3193 N 294.142 -0.090211 1.57342 0
M  V30 3194 C 295.052 -1.12735 2.05738 0
M  V30 3195 C 296.068 -1.43557 0.983231 0
M  V30 3196 O 297.244 -1.54101 1.29672 0
M  V30 3197 C 294.309 -2.42659 2.47624 0
M  V30 3198 C 293.37 -2.18975 3.69254 0
M  V30 3199 C 292.603 -3.42704 4.09133 0
M  V30 3200 O 292.826 -4.51127 3.49057 0
M  V30 3201 O 291.76 -3.32003 5.02053 0
M  V30 3202 H 295.586 -0.746279 2.94388 0
M  V30 3203 H 293.171 -0.303064 1.46294 0
M  V30 3204 H 295.053 -3.19155 2.7517 0
M  V30 3205 H 293.728 -2.80182 1.62109 0
M  V30 3206 H 292.635 -1.40244 3.46818 0
M  V30 3207 H 293.968 -1.86342 4.55563 0
M  V30 3208 N 295.62 -1.53406 -0.361157 0
M  V30 3209 C 296.845 -1.74024 -1.12829 0
M  V30 3210 C 297.27 -0.470069 -1.82132 0
M  V30 3211 O 296.628 0.57619 -1.719 0
M  V30 3212 C 296.676 -2.90903 -2.13091 0
M  V30 3213 O 295.78 -2.59821 -3.20261 0
M  V30 3214 H 295.121 -0.577804 -0.327168 0
M  V30 3215 H 297.651 -2.00307 -0.41693 0
M  V30 3216 H 297.661 -3.17194 -2.56616 0
M  V30 3217 H 296.336 -3.83034 -1.62042 0
M  V30 3218 H 294.913 -2.44362 -2.81677 0
M  V30 3219 N 297.098 0.621204 -1.44841 0
M  V30 3220 C 298.344 1.38073 -1.49357 0
M  V30 3221 C 298.699 1.91973 -0.128115 0
M  V30 3222 O 297.992 1.71311 0.858087 0
M  V30 3223 C 298.186 2.55675 -2.4973 0
M  V30 3224 C 298.015 2.13289 -3.95901 0
M  V30 3225 C 296.785 2.001 -4.63991 0
M  V30 3226 C 298.983 1.7159 -4.84831 0
M  V30 3227 N 296.965 1.51381 -5.94943 0
M  V30 3228 C 298.336 1.34188 -6.05304 0
M  V30 3229 C 300.391 1.59059 -4.7181 0
M  V30 3230 C 299.094 0.855085 -7.14199 0
M  V30 3231 C 301.12 1.11784 -5.8074 0
M  V30 3232 C 300.482 0.753385 -7.0036 0
M  V30 3233 H 296.581 0.499675 -0.601539 0
M  V30 3234 H 299.165 0.711609 -1.8123 0
M  V30 3235 H 297.336 3.20201 -2.19832 0
M  V30 3236 H 299.068 3.22509 -2.4448 0
M  V30 3237 H 295.823 2.20863 -4.18947 0
M  V30 3238 H 296.247 1.29293 -6.64539 0
M  V30 3239 H 300.889 1.85865 -3.79755 0
M  V30 3240 H 298.607 0.574552 -8.06055 0
M  V30 3241 H 302.193 1.02533 -5.72694 0
M  V30 3242 H 301.073 0.393183 -7.83214 0
M  V30 3243 N 298.576 1.31904 0.862503 0
M  V30 3244 C 299.987 1.19803 1.43193 0
M  V30 3245 C 300.338 -0.192567 1.95253 0
M  V30 3246 O 299.463 -1.09081 1.86896 0
M  V30 3247 C 300.058 2.16883 2.60283 0
M  V30 3248 C 298.617 2.08692 3.13248 0
M  V30 3249 C 297.764 2.05691 1.85975 0
M  V30 3250 H 300.715 1.43846 0.670365 0
M  V30 3251 H 300.736 1.76278 3.37204 0
M  V30 3252 H 300.248 3.18083 2.22363 0
M  V30 3253 H 298.349 1.10713 3.55771 0
M  V30 3254 H 298.462 2.9815 3.75025 0
M  V30 3255 H 296.826 1.50814 2.05249 0
M  V30 3256 H 297.609 3.08659 1.50282 0
M  V30 3257 N 300.054 -1.07777 1.14986 0
M  V30 3258 C 301.279 -1.84558 0.946213 0
M  V30 3259 C 301.704 -1.81323 -0.500362 0
M  V30 3260 O 301.062 -1.20301 -1.35637 0
M  V30 3261 C 301.11 -3.29736 1.45968 0
M  V30 3262 O 300.214 -4.07149 0.65601 0
M  V30 3263 H 299.555 -0.571641 0.33782 0
M  V30 3264 H 302.085 -1.35991 1.52865 0
M  V30 3265 H 302.095 -3.80574 1.47063 0
M  V30 3266 H 300.77 -3.31406 2.51283 0
M  V30 3267 H 299.347 -3.65994 0.714322 0
M  V30 3268 N 301.532 -0.945985 -1.26051 0
M  V30 3269 C 302.809 -0.513816 -1.88731 0
M  V30 3270 C 303.189 1.00872 -1.8544 0
M  V30 3271 O 302.537 1.8708 -1.312 0
M  V30 3272 C 302.747 -1.08062 -3.31849 0
M  V30 3273 C 304.095 -1.1522 -4.08668 0
M  V30 3274 O 305.119 -1.03155 -3.40936 0
M  V30 3275 O 303.978 -1.34044 -5.29806 0
M  V30 3276 H 301.072 -0.168193 -0.809716 0
M  V30 3277 H 303.618 -1.03886 -1.34186 0
M  V30 3278 H 302.39 -2.1241 -3.2863 0
M  V30 3279 H 302.013 -0.538307 -3.93939 0
M  V30 3280 N 303.011 1.40521 -0.713556 0
M  V30 3281 C 304.236 2.05759 -0.26035 0
M  V30 3282 C 304.661 1.53403 1.08854 0
M  V30 3283 O 304.019 0.668535 1.68524 0
M  V30 3284 C 304.067 3.59745 -0.248122 0
M  V30 3285 O 303.171 4.05123 0.77131 0
M  V30 3286 H 302.512 0.652564 -0.122703 0
M  V30 3287 H 305.042 1.79958 -0.973467 0
M  V30 3288 H 305.052 4.07911 -0.0851129 0
M  V30 3289 H 303.727 3.97218 -1.2325 0
M  V30 3290 H 302.304 3.68422 0.57619 0
M  V30 3291 N 304.489 0.459591 1.5075 0
M  V30 3292 C 305.719 -0.0972338 2.06371 0
M  V30 3293 C 306.127 -1.35074 1.32483 0
M  V30 3294 O 305.47 -1.79637 0.384226 0
M  V30 3295 C 305.532 -0.462759 3.56509 0
M  V30 3296 C 305.196 0.687084 4.51805 0
M  V30 3297 C 306.193 1.56578 4.95761 0
M  V30 3298 C 303.878 0.874144 4.94635 0
M  V30 3299 C 305.872 2.61604 5.81242 0
M  V30 3300 C 303.559 1.92765 5.79901 0
M  V30 3301 C 304.557 2.79697 6.23104 0
M  V30 3302 O 304.245 3.83235 7.06673 0
M  V30 3303 H 303.977 -0.00140687 0.675999 0
M  V30 3304 H 306.531 0.644011 1.95043 0
M  V30 3305 H 304.761 -1.25703 3.65699 0
M  V30 3306 H 306.45 -0.953323 3.94546 0
M  V30 3307 H 307.216 1.4329 4.6335 0
M  V30 3308 H 303.095 0.207006 4.60535 0
M  V30 3309 H 306.639 3.29489 6.14884 0
M  V30 3310 H 302.536 2.06064 6.11725 0
M  V30 3311 H 303.304 3.80084 7.24899 0
M  V30 3312 N 305.967 -1.56429 0.191757 0
M  V30 3313 C 307.383 -1.58754 -0.164137 0
M  V30 3314 C 307.583 -1.20782 -1.61288 0
M  V30 3315 O 306.639 -0.928999 -2.34789 0
M  V30 3316 C 307.952 -3.00396 0.135195 0
M  V30 3317 C 309.5 -3.1291 0.0750351 0
M  V30 3318 C 309.975 -4.56679 0.347632 0
M  V30 3319 N 311.466 -4.62252 0.296131 0
M  V30 3320 C 312.201 -5.71379 0.480948 0
M  V30 3321 N 311.697 -6.88986 0.725933 0
M  V30 3322 N 313.49 -5.60563 0.415435 0
M  V30 3323 H 305.641 -1.79393 1.13718 0
M  V30 3324 H 307.904 -0.832414 0.453643 0
M  V30 3325 H 307.61 -3.32726 1.13958 0
M  V30 3326 H 307.484 -3.72963 -0.563773 0
M  V30 3327 H 309.871 -2.80394 -0.919948 0
M  V30 3328 H 309.952 -2.42736 0.807029 0
M  V30 3329 H 309.596 -4.89907 1.33992 0
M  V30 3330 H 309.526 -5.25039 -0.405212 0
M  V30 3331 H 312.017 -3.7773 0.113259 0
M  V30 3332 H 312.33 -7.68046 0.855857 0
M  V30 3333 H 310.675 -6.90801 0.762788 0
M  V30 3334 H 313.866 -4.67561 0.224486 0
M  V30 3335 H 314.039 -6.45551 0.562889 0
M  V30 3336 N 307.445 0.0818655 -1.57387 0
M  V30 3337 C 308.694 0.781681 -1.85937 0
M  V30 3338 C 309.007 1.79246 -0.782957 0
M  V30 3339 O 310.213 2.54112 -0.955987 0
M  V30 3340 C 308.669 1.44109 -3.29789 0
M  V30 3341 C 308.277 0.469396 -4.45534 0
M  V30 3342 C 310.021 2.12386 -3.67549 0
M  V30 3343 C 307.928 1.13415 -5.80423 0
M  V30 3344 H 306.858 0.295682 -0.693605 0
M  V30 3345 H 309.509 0.0348051 -1.83467 0
M  V30 3346 H 307.891 2.23588 -3.2684 0
M  V30 3347 H 309.065 -0.294856 -4.59856 0
M  V30 3348 H 307.38 -0.108383 -4.16259 0
M  V30 3349 H 309.977 2.62878 -4.65617 0
M  V30 3350 H 310.32 2.91877 -2.96839 0
M  V30 3351 H 310.853 1.39751 -3.72444 0
M  V30 3352 H 307.592 0.379771 -6.54399 0
M  V30 3353 H 307.112 1.8695 -5.69921 0
M  V30 3354 H 308.791 1.65686 -6.25426 0
M  V30 3355 N 308.923 1.53595 0.353017 0
M  V30 3356 C 309.886 1.80232 1.41594 0
M  V30 3357 C 310.886 0.673081 1.46035 0
M  V30 3358 O 312.076 0.941335 1.46576 0
M  V30 3359 C 309.208 1.93578 2.80607 0
M  V30 3360 H 310.401 2.75174 1.19244 0
M  V30 3361 H 307.954 1.44864 0.586872 0
M  V30 3362 H 308.689 1.00746 3.08254 0
M  V30 3363 H 308.474 2.75724 2.78781 0
M  V30 3364 H 309.964 2.15735 3.57558 0
M  V30 3365 N 310.401 -0.613514 1.45168 0
M  V30 3366 C 311.648 -1.37268 1.48875 0
M  V30 3367 C 311.976 -1.94077 0.128161 0
M  V30 3368 O 311.231 -1.75178 -0.872416 0
M  V30 3369 C 311.53 -2.54347 2.51083 0
M  V30 3370 C 311.196 -2.1572 3.95949 0
M  V30 3371 C 309.858 -2.04899 4.35396 0
M  V30 3372 C 312.21 -1.85485 4.87078 0
M  V30 3373 C 309.538 -1.62057 5.63875 0
M  V30 3374 C 311.89 -1.4413 6.15962 0
M  V30 3375 C 310.554 -1.31863 6.54346 0
M  V30 3376 H 309.824 -0.502299 0.544773 0
M  V30 3377 H 312.471 -0.694021 1.78481 0
M  V30 3378 H 310.776 -3.27524 2.15024 0
M  V30 3379 H 312.473 -3.12577 2.51191 0
M  V30 3380 H 309.063 -2.25066 3.64751 0
M  V30 3381 H 313.247 -1.92745 4.57343 0
M  V30 3382 H 308.503 -1.51177 5.92415 0
M  V30 3383 H 312.677 -1.19778 6.86022 0
M  V30 3384 H 310.304 -0.984392 7.538 0
M  V30 3385 N 311.879 -1.3236 -0.855495 0
M  V30 3386 C 313.107 -1.2587 -1.64208 0
M  V30 3387 C 313.522 0.173457 -1.88002 0
M  V30 3388 O 312.879 1.11027 -1.44842 0
M  V30 3389 C 312.93 -2.01424 -3.00184 0
M  V30 3390 O 312.651 -3.39051 -2.77445 0
M  V30 3391 C 314.152 -2.01948 -3.94629 0
M  V30 3392 H 311.372 -0.434318 -0.511477 0
M  V30 3393 H 313.916 -1.74469 -1.0668 0
M  V30 3394 H 312.071 -1.56549 -3.5436 0
M  V30 3395 H 312.485 -3.77711 -3.63916 0
M  V30 3396 H 313.959 -2.59297 -4.87308 0
M  V30 3397 H 314.436 -1.00554 -4.27534 0
M  V30 3398 H 315.042 -2.46767 -3.4639 0
M  V30 3399 N 313.357 1.07166 -1.15556 0
M  V30 3400 C 314.606 1.79181 -0.926132 0
M  V30 3401 C 314.919 1.87768 0.547967 0
M  V30 3402 O 316.125 2.56323 0.895036 0
M  V30 3403 C 314.581 3.22 -1.60761 0
M  V30 3404 C 314.189 3.21607 -3.11886 0
M  V30 3405 C 315.933 3.9861 -1.4598 0
M  V30 3406 C 313.84 4.59092 -3.72812 0
M  V30 3407 H 312.77 0.67154 -0.342856 0
M  V30 3408 H 315.421 1.2027 -1.3859 0
M  V30 3409 H 313.803 3.81115 -1.07553 0
M  V30 3410 H 314.977 2.72127 -3.71865 0
M  V30 3411 H 313.292 2.58495 -3.2645 0
M  V30 3412 H 315.889 5.00225 -1.88888 0
M  V30 3413 H 316.232 4.143 -0.407541 0
M  V30 3414 H 316.765 3.45996 -1.96295 0
M  V30 3415 H 313.504 4.48606 -4.77946 0
M  V30 3416 H 313.024 5.08803 -3.17616 0
M  V30 3417 H 314.703 5.28059 -3.73848 0
M  V30 3418 N 314.835 0.952656 1.25548 0
M  V30 3419 C 316.06 0.623025 1.97821 0
M  V30 3420 C 316.485 -0.7976 1.70352 0
M  V30 3421 O 315.843 -1.53905 0.958283 0
M  V30 3422 C 315.891 0.885532 3.49558 0
M  V30 3423 O 314.995 -0.0366641 4.12384 0
M  V30 3424 H 314.336 0.237082 0.620232 0
M  V30 3425 H 316.866 1.27871 1.59719 0
M  V30 3426 H 316.876 0.811009 3.99858 0
M  V30 3427 H 315.551 1.92094 3.6888 0
M  V30 3428 H 314.128 0.0898954 3.72792 0
M  V30 3429 N 316.313 -1.40141 0.720998 0
M  V30 3430 C 317.243 -2.33339 0.0867621 0
M  V30 3431 C 318.224 -1.53178 -0.739622 0
M  V30 3432 O 319.409 -1.81625 -0.687449 0
M  V30 3433 C 316.539 -3.37194 -0.831728 0
M  V30 3434 C 315.493 -4.27857 -0.110558 0
M  V30 3435 C 314.819 -5.22294 -1.14513 0
M  V30 3436 C 316.119 -5.11872 1.0385 0
M  V30 3437 H 317.813 -2.86626 0.865219 0
M  V30 3438 H 315.359 -1.37814 0.417516 0
M  V30 3439 H 317.312 -4.01335 -1.28485 0
M  V30 3440 H 316.036 -2.82314 -1.64214 0
M  V30 3441 H 314.695 -3.65176 0.322797 0
M  V30 3442 H 314.343 -4.63717 -1.94874 0
M  V30 3443 H 314.043 -5.83797 -0.667446 0
M  V30 3444 H 315.567 -5.89312 -1.59824 0
M  V30 3445 H 316.981 -5.69436 0.664482 0
M  V30 3446 H 315.378 -5.82445 1.4449 0
M  V30 3447 H 316.448 -4.4753 1.86668 0
M  V30 3448 N 317.792 -0.46758 -1.50504 0
M  V30 3449 C 318.722 0.318381 -2.31319 0
M  V30 3450 C 319.703 0.993564 -1.38066 0
M  V30 3451 O 320.888 0.991411 -1.66987 0
M  V30 3452 C 318.018 1.40275 -3.17711 0
M  V30 3453 C 316.972 0.849373 -4.19487 0
M  V30 3454 C 316.298 2.03177 -4.94594 0
M  V30 3455 C 317.598 -0.136942 -5.2212 0
M  V30 3456 H 319.292 -0.356106 -2.97275 0
M  V30 3457 H 316.838 -0.172703 -1.42961 0
M  V30 3458 H 318.791 1.96004 -3.73042 0
M  V30 3459 H 317.515 2.10596 -2.49634 0
M  V30 3460 H 316.174 0.314076 -3.65252 0
M  V30 3461 H 315.822 2.72187 -4.22993 0
M  V30 3462 H 315.522 1.66774 -5.63436 0
M  V30 3463 H 317.046 2.59403 -5.52759 0
M  V30 3464 H 318.46 0.331056 -5.72343 0
M  V30 3465 H 316.857 -0.41507 -5.98663 0
M  V30 3466 H 317.927 -1.06398 -4.73083 0
M  V30 3467 N 319.27 1.56325 -0.20005 0
M  V30 3468 C 320.2 2.22318 0.713916 0
M  V30 3469 C 321.181 1.18788 1.21752 0
M  V30 3470 O 322.366 1.47309 1.26545 0
M  V30 3471 C 319.496 2.88639 1.93144 0
M  V30 3472 C 318.45 3.98457 1.56255 0
M  V30 3473 C 317.776 4.51967 2.85709 0
M  V30 3474 C 319.076 5.16612 0.768747 0
M  V30 3475 H 320.77 2.98952 0.163755 0
M  V30 3476 H 318.316 1.43792 0.0773219 0
M  V30 3477 H 320.269 3.33491 2.57608 0
M  V30 3478 H 318.993 2.09419 2.50621 0
M  V30 3479 H 317.652 3.54305 0.941471 0
M  V30 3480 H 317.3 3.69503 3.41287 0
M  V30 3481 H 317 5.26071 2.6177 0
M  V30 3482 H 318.524 4.99523 3.51154 0
M  V30 3483 H 319.938 5.57977 1.3166 0
M  V30 3484 H 318.335 5.96812 0.627286 0
M  V30 3485 H 319.405 4.84358 -0.229168 0
M  V30 3486 N 320.748 -0.0735177 1.57428 0
M  V30 3487 C 321.994 -0.774145 1.87443 0
M  V30 3488 C 322.327 -1.77311 0.792103 0
M  V30 3489 O 321.602 -1.93492 -0.197793 0
M  V30 3490 C 321.885 -1.48367 3.28115 0
M  V30 3491 C 321.738 -0.501227 4.46999 0
M  V30 3492 C 323.057 -2.429 3.66998 0
M  V30 3493 H 320.176 -0.279971 0.681752 0
M  V30 3494 H 322.818 -0.0373616 1.89963 0
M  V30 3495 H 320.968 -2.11171 3.26097 0
M  V30 3496 H 322.64 0.121468 4.6114 0
M  V30 3497 H 320.883 0.183593 4.33411 0
M  V30 3498 H 321.554 -1.03526 5.42205 0
M  V30 3499 H 324.03 -1.90175 3.70098 0
M  V30 3500 H 322.906 -2.89549 4.66318 0
M  V30 3501 H 323.167 -3.27628 2.96837 0
M  V30 3502 N 322.226 -1.5378 -0.344866 0
M  V30 3503 C 323.158 -1.77988 -1.44406 0
M  V30 3504 C 324.171 -0.661138 -1.48771 0
M  V30 3505 O 325.36 -0.937842 -1.51877 0
M  V30 3506 C 322.46 -1.86345 -2.8307 0
M  V30 3507 C 321.633 -3.16256 -3.0216 0
M  V30 3508 C 320.692 -3.15588 -4.21059 0
M  V30 3509 O 319.718 -3.89314 -4.15239 0
M  V30 3510 N 320.92 -2.37864 -5.29529 0
M  V30 3511 H 323.685 -2.72839 -1.24012 0
M  V30 3512 H 321.246 -1.52814 -0.534737 0
M  V30 3513 H 323.238 -1.83351 -3.60783 0
M  V30 3514 H 321.808 -0.986858 -2.96614 0
M  V30 3515 H 321.028 -3.32385 -2.11929 0
M  V30 3516 H 322.316 -4.0207 -3.11797 0
M  V30 3517 H 321.714 -1.77514 -5.37127 0
M  V30 3518 H 320.271 -2.40668 -6.05741 0
M  V30 3519 N 323.704 0.605807 -1.45491 0
M  V30 3520 C 324.934 1.38934 -1.52908 0
M  V30 3521 C 325.342 1.88513 -0.161086 0
M  V30 3522 O 324.685 1.62962 0.847891 0
M  V30 3523 C 324.747 2.62737 -2.45376 0
M  V30 3524 C 324.411 2.34785 -3.92078 0
M  V30 3525 C 325.408 1.95038 -4.8193 0
M  V30 3526 C 323.093 2.47642 -4.37011 0
M  V30 3527 C 325.087 1.68511 -6.14722 0
M  V30 3528 C 322.774 2.20728 -5.69844 0
M  V30 3529 C 323.772 1.81225 -6.58519 0
M  V30 3530 O 323.46 1.54627 -7.88889 0
M  V30 3531 H 323.192 0.431629 -0.520262 0
M  V30 3532 H 325.746 0.74573 -1.91384 0
M  V30 3533 H 323.976 3.29824 -2.01874 0
M  V30 3534 H 325.665 3.24783 -2.43456 0
M  V30 3535 H 326.431 1.84639 -4.48479 0
M  V30 3536 H 322.31 2.77356 -3.68232 0
M  V30 3537 H 325.854 1.37602 -6.83894 0
M  V30 3538 H 321.751 2.30744 -6.02849 0
M  V30 3539 H 322.519 1.68665 -8.00933 0
M  V30 3540 N 325.182 1.32811 0.848464 0
M  V30 3541 C 326.431 1.23075 1.59798 0
M  V30 3542 C 326.744 -0.204419 1.94529 0
M  V30 3543 O 327.95 -0.423701 2.68173 0
M  V30 3544 C 326.406 2.15594 2.88179 0
M  V30 3545 C 326.014 3.64228 2.60849 0
M  V30 3546 C 327.758 2.14709 3.66197 0
M  V30 3547 C 325.665 4.48689 3.85269 0
M  V30 3548 H 324.595 0.457091 0.599653 0
M  V30 3549 H 327.246 1.57813 0.936342 0
M  V30 3550 H 325.628 1.73778 3.55833 0
M  V30 3551 H 326.802 4.14424 2.01467 0
M  V30 3552 H 325.117 3.67306 1.96151 0
M  V30 3553 H 327.714 2.75046 4.58534 0
M  V30 3554 H 328.057 1.13966 4.00397 0
M  V30 3555 H 328.59 2.54837 3.05455 0
M  V30 3556 H 325.329 5.5027 3.56207 0
M  V30 3557 H 324.849 4.03241 4.44024 0
M  V30 3558 H 326.528 4.62006 4.52946 0
M  V30 3559 N 326.66 -1.06551 1.16123 0
M  V30 3560 C 327.59 -2.15935 0.88851 0
M  V30 3561 C 328.571 -1.69306 -0.164135 0
M  V30 3562 O 329.756 -1.94193 -0.0167857 0
M  V30 3563 C 326.886 -3.45149 0.385942 0
M  V30 3564 C 325.84 -4.05271 1.3762 0
M  V30 3565 C 325.166 -5.29664 0.732137 0
M  V30 3566 C 326.466 -4.44355 2.74493 0
M  V30 3567 H 328.16 -2.39006 1.80323 0
M  V30 3568 H 325.706 -1.14866 0.868435 0
M  V30 3569 H 327.659 -4.21004 0.182647 0
M  V30 3570 H 326.383 -3.21689 -0.564274 0
M  V30 3571 H 325.042 -3.3147 1.56599 0
M  V30 3572 H 324.69 -5.02499 -0.224483 0
M  V30 3573 H 324.39 -5.70848 1.39307 0
M  V30 3574 H 325.914 -6.08218 0.538802 0
M  V30 3575 H 327.328 -5.11303 2.59311 0
M  V30 3576 H 325.725 -4.96515 3.37035 0
M  V30 3577 H 326.795 -3.55339 3.29943 0
M  V30 3578 N 328.138 -0.959301 -1.25041 0
M  V30 3579 C 329.549 -0.65667 -1.74771 0
M  V30 3580 C 329.9 0.827852 -1.77879 0
M  V30 3581 O 329.025 1.64783 -1.40269 0
M  V30 3582 C 329.62 -1.1853 -3.1739 0
M  V30 3583 C 328.179 -0.932734 -3.6466 0
M  V30 3584 C 327.326 -1.32558 -2.43564 0
M  V30 3585 H 330.277 -1.13558 -1.10862 0
M  V30 3586 H 330.298 -0.547582 -3.76539 0
M  V30 3587 H 329.81 -2.26576 -3.15095 0
M  V30 3588 H 327.911 0.13257 -3.72364 0
M  V30 3589 H 328.024 -1.57248 -4.52559 0
M  V30 3590 H 326.388 -0.743956 -2.43593 0
M  V30 3591 H 327.171 -2.41537 -2.43957 0
M  V30 3592 N 329.616 1.39756 -0.72842 0
M  V30 3593 C 330.546 2.33289 -0.0991354 0
M  V30 3594 C 331.527 1.53568 0.731489 0
M  V30 3595 O 332.712 1.81987 0.677807 0
M  V30 3596 C 329.842 3.3763 0.813834 0
M  V30 3597 C 328.796 4.2791 0.0878663 0
M  V30 3598 C 328.122 5.22894 1.11741 0
M  V30 3599 C 329.422 5.11314 -1.06563 0
M  V30 3600 H 331.116 2.86163 -0.880408 0
M  V30 3601 H 328.662 1.37591 -0.424819 0
M  V30 3602 H 330.615 4.0201 1.26355 0
M  V30 3603 H 329.339 2.83181 1.62715 0
M  V30 3604 H 327.998 3.65 -0.342159 0
M  V30 3605 H 327.646 4.64744 1.92412 0
M  V30 3606 H 327.346 5.84143 0.636477 0
M  V30 3607 H 328.87 5.90151 1.56697 0
M  V30 3608 H 330.284 5.69076 -0.694671 0
M  V30 3609 H 328.681 5.81671 -1.47577 0
M  V30 3610 H 329.751 4.46534 -1.89038 0
M  V30 3611 N 331.094 0.475555 1.50254 0
M  V30 3612 C 332.34 -0.0780073 2.0265 0
M  V30 3613 C 332.673 -1.38968 1.35652 0
M  V30 3614 O 331.948 -1.8839 0.483691 0
M  V30 3615 C 332.231 -0.257161 3.59181 0
M  V30 3616 C 332.084 1.07585 4.36744 0
M  V30 3617 C 333.403 -1.00965 4.28362 0
M  V30 3618 H 330.522 -0.0268758 0.73651 0
M  V30 3619 H 333.164 0.622015 1.7953 0
M  V30 3620 H 331.314 -0.853412 3.79011 0
M  V30 3621 H 332.986 1.70902 4.28474 0
M  V30 3622 H 331.229 1.6714 4.00308 0
M  V30 3623 H 331.9 0.904088 5.44546 0
M  V30 3624 H 334.376 -0.504214 4.13034 0
M  V30 3625 H 333.252 -1.10381 5.37687 0
M  V30 3626 H 333.513 -2.04731 3.91839 0
M  V30 3627 N 332.573 -1.56217 0.208337 0
M  V30 3628 C 333.813 -1.99849 -0.428927 0
M  V30 3629 C 334.177 -1.09262 -1.57879 0
M  V30 3630 O 335.378 -1.42185 -2.28116 0
M  V30 3631 C 333.649 -3.46777 -0.864879 0
M  V30 3632 S 335.208 -4.12434 -1.49811 0
M  V30 3633 H 332.026 -0.697742 -0.136665 0
M  V30 3634 H 334.628 -1.92953 0.314519 0
M  V30 3635 H 333.332 -4.10396 -0.0181326 0
M  V30 3636 H 332.863 -3.57518 -1.64147 0
M  V30 3637 H 334.878 -4.10532 -2.78707 0
M  V30 3638 N 334.051 0.0651679 -1.57465 0
M  V30 3639 C 334.981 1.07693 -2.07182 0
M  V30 3640 C 335.962 1.39962 -0.966673 0
M  V30 3641 O 337.147 1.49475 -1.2398 0
M  V30 3642 C 334.277 2.3885 -2.52127 0
M  V30 3643 C 333.231 2.20917 -3.66579 0
M  V30 3644 C 332.557 3.57515 -3.97601 0
M  V30 3645 C 333.857 1.62493 -4.9638 0
M  V30 3646 H 335.551 0.663199 -2.91962 0
M  V30 3647 H 333.097 0.317569 -1.40455 0
M  V30 3648 H 335.05 3.09928 -2.85522 0
M  V30 3649 H 333.774 2.82215 -1.64384 0
M  V30 3650 H 332.433 1.52279 -3.33477 0
M  V30 3651 H 332.081 3.98463 -3.06979 0
M  V30 3652 H 331.781 3.46353 -4.74672 0
M  V30 3653 H 333.305 4.30013 -4.33499 0
M  V30 3654 H 334.719 2.23445 -5.27963 0
M  V30 3655 H 333.116 1.62009 -5.77818 0
M  V30 3656 H 334.186 0.587041 -4.81333 0
M  V30 3657 N 335.529 1.53961 0.336706 0
M  V30 3658 C 336.757 1.75483 1.09605 0
M  V30 3659 C 337.172 0.4972 1.82136 0
M  V30 3660 O 336.529 -0.53149 1.74589 0
M  V30 3661 C 336.58 2.93943 2.10428 0
M  V30 3662 O 336.301 4.14842 1.40846 0
M  V30 3663 C 337.802 3.27571 2.98684 0
M  V30 3664 H 335.022 0.586166 0.326574 0
M  V30 3665 H 337.566 2.00808 0.38683 0
M  V30 3666 H 335.721 2.70929 2.76905 0
M  V30 3667 H 336.135 4.81383 2.08255 0
M  V30 3668 H 337.609 4.13791 3.6535 0
M  V30 3669 H 338.086 2.44168 3.65074 0
M  V30 3670 H 338.692 3.52615 2.37787 0
M  V30 3671 N 337.007 -0.598083 1.45811 0
M  V30 3672 C 338.253 -1.35882 1.50545 0
M  V30 3673 C 338.586 -1.93616 0.150445 0
M  V30 3674 O 337.861 -1.75604 -0.83628 0
M  V30 3675 C 338.144 -2.49966 2.59208 0
M  V30 3676 C 337.997 -1.97367 4.04186 0
M  V30 3677 C 339.316 -3.52068 2.64076 0
M  V30 3678 H 336.435 -0.492717 0.548087 0
M  V30 3679 H 339.077 -0.673319 1.77669 0
M  V30 3680 H 337.227 -3.08443 2.3621 0
M  V30 3681 H 338.899 -1.43466 4.38423 0
M  V30 3682 H 337.142 -1.283 4.14393 0
M  V30 3683 H 337.813 -2.79649 4.75921 0
M  V30 3684 H 340.289 -3.03448 2.84708 0
M  V30 3685 H 339.165 -4.2937 3.41954 0
M  V30 3686 H 339.426 -4.08304 1.69531 0
M  V30 3687 N 338.485 -1.33259 -0.841409 0
M  V30 3688 C 339.71 -1.2775 -1.63385 0
M  V30 3689 C 340.135 0.149188 -1.87507 0
M  V30 3690 O 339.493 1.10498 -1.43736 0
M  V30 3691 C 339.541 -2.05571 -2.96265 0
M  V30 3692 O 338.645 -1.41257 -3.87453 0
M  V30 3693 H 337.986 -0.439627 -0.497618 0
M  V30 3694 H 340.516 -1.75782 -1.04699 0
M  V30 3695 H 340.526 -2.16241 -3.45982 0
M  V30 3696 H 339.201 -3.09309 -2.7803 0
M  V30 3697 H 337.778 -1.39217 -3.45938 0
M  V30 3698 N 339.963 1.05934 -1.16686 0
M  V30 3699 C 340.913 2.11764 -0.844978 0
M  V30 3700 C 341.897 1.59922 0.177178 0
M  V30 3701 O 343.089 1.76983 -0.0241768 0
M  V30 3702 C 340.218 3.41493 -0.351812 0
M  V30 3703 C 339.304 4.00152 -1.40496 0
M  V30 3704 N 339.695 4.32874 -2.61636 0
M  V30 3705 C 337.993 4.278 -1.26106 0
M  V30 3706 C 338.694 4.79552 -3.29249 0
M  V30 3707 N 337.67 4.79211 -2.56628 0
M  V30 3708 H 341.472 2.34916 -1.76612 0
M  V30 3709 H 338.986 1.23511 -1.05446 0
M  V30 3710 H 340.983 4.16773 -0.102796 0
M  V30 3711 H 339.643 3.19778 0.56322 0
M  V30 3712 H 340.654 4.23109 -2.98663 0
M  V30 3713 H 337.331 4.15511 -0.407081 0
M  V30 3714 H 338.721 5.14045 -4.32675 0
M  V30 3715 N 341.441 0.965919 1.2453 0
M  V30 3716 C 342.669 0.644385 1.96609 0
M  V30 3717 C 343.084 -0.785823 1.71669 0
M  V30 3718 O 342.441 -1.52703 0.999399 0
M  V30 3719 C 342.492 0.907375 3.49927 0
M  V30 3720 O 342.213 2.28136 3.74013 0
M  V30 3721 C 343.714 0.599784 4.39224 0
M  V30 3722 H 340.934 0.240588 0.626385 0
M  V30 3723 H 343.478 1.29337 1.58405 0
M  V30 3724 H 341.633 0.304631 3.862 0
M  V30 3725 H 342.047 2.36002 4.68405 0
M  V30 3726 H 343.521 0.834263 5.45659 0
M  V30 3727 H 343.998 -0.465921 4.36722 0
M  V30 3728 H 344.604 1.18235 4.08535 0
M  V30 3729 N 342.919 -1.39368 0.735821 0
M  V30 3730 C 344.144 -2.05319 0.293052 0
M  V30 3731 C 344.569 -1.55115 -1.064 0
M  V30 3732 O 343.927 -0.695261 -1.67439 0
M  V30 3733 C 343.975 -3.59305 0.305323 0
M  V30 3734 O 343.079 -4.06299 -0.706761 0
M  V30 3735 H 342.42 -0.650529 0.13307 0
M  V30 3736 H 344.95 -1.78386 1.00197 0
M  V30 3737 H 344.96 -4.07724 0.149997 0
M  V30 3738 H 343.635 -3.95207 1.29553 0
M  V30 3739 H 342.212 -3.69292 -0.517504 0
M  V30 3740 N 344.397 -0.483516 -1.5 0
M  V30 3741 C 345.643 0.0672592 -2.02688 0
M  V30 3742 C 345.976 1.38247 -1.36387 0
M  V30 3743 O 345.251 1.88131 -0.493675 0
M  V30 3744 C 345.534 0.238109 -3.59312 0
M  V30 3745 C 345.387 -1.099 -4.36168 0
M  V30 3746 C 346.706 0.986916 -4.28892 0
M  V30 3747 H 343.825 0.0229696 -0.736642 0
M  V30 3748 H 346.467 -0.631527 -1.79197 0
M  V30 3749 H 344.617 0.8333 -3.79458 0
M  V30 3750 H 346.289 -1.73172 -4.27562 0
M  V30 3751 H 344.532 -1.69261 -3.99416 0
M  V30 3752 H 345.203 -0.932954 -5.44059 0
M  V30 3753 H 347.679 0.482302 -4.13295 0
M  V30 3754 H 346.555 1.07527 -5.38265 0
M  V30 3755 H 346.816 2.0265 -3.92919 0
M  V30 3756 N 345.875 1.56104 -0.216619 0
M  V30 3757 C 347.115 2.00074 0.418322 0
M  V30 3758 C 347.479 1.10098 1.57297 0
M  V30 3759 O 348.68 1.43393 2.27359 0
M  V30 3760 C 346.951 3.47231 0.846477 0
M  V30 3761 S 348.51 4.13223 1.47622 0
M  V30 3762 H 345.328 0.698457 0.132962 0
M  V30 3763 H 347.93 1.92784 -0.324748 0
M  V30 3764 H 346.634 4.104 -0.0036319 0
M  V30 3765 H 346.165 3.58384 1.62248 0
M  V30 3766 H 348.18 4.12005 2.76526 0
M  V30 3767 N 347.353 -0.0568162 1.57498 0
M  V30 3768 C 348.769 -0.411933 1.54192 0
M  V30 3769 C 348.969 -1.78287 0.938942 0
M  V30 3770 O 348.025 -2.46483 0.547919 0
M  V30 3771 C 349.338 -0.339244 2.9878 0
M  V30 3772 C 350.886 -0.418348 3.10192 0
M  V30 3773 C 351.361 -0.375407 4.56459 0
M  V30 3774 N 352.852 -0.435038 4.61153 0
M  V30 3775 C 353.587 -0.424265 5.71828 0
M  V30 3776 N 353.083 -0.367418 6.91825 0
M  V30 3777 N 354.876 -0.471938 5.60115 0
M  V30 3778 H 347.027 0.840684 1.95055 0
M  V30 3779 H 349.29 0.316987 0.893433 0
M  V30 3780 H 348.996 0.601742 3.46514 0
M  V30 3781 H 348.87 -1.14371 3.59443 0
M  V30 3782 H 351.257 -1.34976 2.62422 0
M  V30 3783 H 351.338 0.414962 2.52412 0
M  V30 3784 H 350.982 0.552219 5.04889 0
M  V30 3785 H 350.912 -1.22645 5.12119 0
M  V30 3786 H 353.403 -0.482612 3.74806 0
M  V30 3787 H 353.716 -0.363535 7.71944 0
M  V30 3788 H 352.061 -0.333879 6.94198 0
M  V30 3789 H 355.252 -0.514145 4.65268 0
M  V30 3790 H 355.425 -0.460073 6.46365 0
M  V30 3791 N 348.832 -1.54138 -0.328536 0
M  V30 3792 C 350.057 -1.76378 -1.09112 0
M  V30 3793 C 350.482 -0.508596 -1.81094 0
M  V30 3794 O 349.84 0.539598 -1.73084 0
M  V30 3795 C 349.888 -2.95358 -2.06872 0
M  V30 3796 O 348.992 -2.66556 -3.14677 0
M  V30 3797 H 348.333 -0.584614 -0.314838 0
M  V30 3798 H 350.863 -2.01146 -0.374348 0
M  V30 3799 H 350.873 -3.22566 -2.4983 0
M  V30 3800 H 349.548 -3.86385 -1.5388 0
M  V30 3801 H 348.125 -2.50282 -2.7643 0
M  V30 3802 N 350.31 0.590341 -1.46126 0
M  V30 3803 C 351.559 1.34499 -1.50309 0
M  V30 3804 C 351.872 1.94977 -0.156021 0
M  V30 3805 O 353.078 2.71395 -0.0756037 0
M  V30 3806 C 351.534 2.43723 -2.64815 0
M  V30 3807 C 351.142 1.89582 -4.0591 0
M  V30 3808 C 352.886 3.20579 -2.78262 0
M  V30 3809 C 350.793 2.9639 -5.11769 0
M  V30 3810 H 349.723 0.505593 -0.559368 0
M  V30 3811 H 352.374 0.630848 -1.72315 0
M  V30 3812 H 350.756 3.17902 -2.36124 0
M  V30 3813 H 351.93 1.21997 -4.44357 0
M  V30 3814 H 350.245 1.25418 -3.97063 0
M  V30 3815 H 352.842 4.00276 -3.54519 0
M  V30 3816 H 353.185 3.72684 -1.85505 0
M  V30 3817 H 353.718 2.53505 -3.06562 0
M  V30 3818 H 350.457 2.49181 -6.06291 0
M  V30 3819 H 349.977 3.62487 -4.77873 0
M  V30 3820 H 351.656 3.60474 -5.37278 0
M  V30 3821 N 351.788 1.33704 0.83433 0
M  V30 3822 C 353.013 1.28615 1.62705 0
M  V30 3823 C 353.438 -0.139242 1.87584 0
M  V30 3824 O 352.796 -1.09734 1.4432 0
M  V30 3825 C 352.844 2.07139 2.95171 0
M  V30 3826 O 351.948 1.4331 3.86699 0
M  V30 3827 H 351.289 0.44226 0.49528 0
M  V30 3828 H 353.819 1.76335 1.03766 0
M  V30 3829 H 353.829 2.18073 3.44831 0
M  V30 3830 H 352.504 3.10779 2.76386 0
M  V30 3831 H 351.081 1.4105 3.45195 0
M  V30 3832 N 353.266 -1.05314 1.17247 0
M  V30 3833 C 354.506 -1.79869 0.970898 0
M  V30 3834 C 354.87 -1.85594 -0.491808 0
M  V30 3835 O 356.071 -2.56229 -0.812409 0
M  V30 3836 C 354.342 -3.19937 1.59295 0
M  V30 3837 S 355.901 -4.10986 1.53741 0
M  V30 3838 H 352.719 -0.61949 0.348931 0
M  V30 3839 H 355.321 -1.26368 1.49169 0
M  V30 3840 H 354.025 -3.13372 2.65003 0
M  V30 3841 H 353.556 -3.78515 1.07191 0
M  V30 3842 H 355.571 -4.93203 0.544537 0
M  V30 3843 N 354.744 -0.972509 -1.24016 0
M  V30 3844 C 355.992 -0.635776 -1.91839 0
M  V30 3845 C 356.313 0.832312 -1.76345 0
M  V30 3846 O 355.583 1.5946 -1.13795 0
M  V30 3847 H 354.163 -0.232157 -0.710009 0
M  V30 3848 H 356.825 -1.23462 -1.50809 0
M  V30 3849 H 355.921 -0.880545 -2.99421 0
M  V30 3850 N 356.222 1.38976 -0.743202 0
M  V30 3851 C 357.152 2.33171 -0.123873 0
M  V30 3852 C 358.133 1.54336 0.71516 0
M  V30 3853 O 359.318 1.82696 0.658467 0
M  V30 3854 C 356.448 3.38474 0.777978 0
M  V30 3855 C 355.402 4.27979 0.0424758 0
M  V30 3856 C 354.728 5.2405 1.06189 0
M  V30 3857 C 356.028 5.10155 -1.1198 0
M  V30 3858 H 357.722 2.85213 -0.910709 0
M  V30 3859 H 355.268 1.37133 -0.439388 0
M  V30 3860 H 357.221 4.03328 1.22084 0
M  V30 3861 H 355.945 2.84891 1.59702 0
M  V30 3862 H 354.604 3.64616 -0.380853 0
M  V30 3863 H 354.252 4.66758 1.87472 0
M  V30 3864 H 353.952 5.84785 0.574485 0
M  V30 3865 H 355.476 5.9178 1.50428 0
M  V30 3866 H 356.89 5.68307 -0.75499 0
M  V30 3867 H 355.287 5.80073 -1.53738 0
M  V30 3868 H 356.357 4.44504 -1.93764 0
M  V30 3869 N 357.7 0.491464 1.49741 0
M  V30 3870 C 358.925 -0.0557177 2.07325 0
M  V30 3871 C 359.35 -1.30925 1.35056 0
M  V30 3872 O 358.708 -1.76733 0.404365 0
M  V30 3873 C 358.756 -0.302074 3.59333 0
M  V30 3874 O 357.86 -1.37868 3.88672 0
M  V30 3875 H 357.201 0.0219956 0.663636 0
M  V30 3876 H 359.731 0.688352 1.92673 0
M  V30 3877 H 359.741 -0.536464 4.04458 0
M  V30 3878 H 358.416 0.61383 4.11345 0
M  V30 3879 H 356.993 -1.12999 3.55367 0
M  V30 3880 N 359.178 -1.55987 0.224894 0
M  V30 3881 C 360.126 -2.21808 -0.700283 0
M  V30 3882 C 361.12 -1.19854 -1.19714 0
M  V30 3883 O 362.326 -1.37925 -1.15658 0
M  V30 3884 H 358.701 -0.711226 -0.244258 0
M  V30 3885 H 360.672 -2.98152 -0.121749 0
M  V30 3886 C 359.421 -2.91444 -1.8962 0
M  V30 3887 H 358.744 -3.69655 -1.52299 0
M  V30 3888 H 360.184 -3.40894 -2.52125 0
M  V30 3889 C 358.643 -1.94098 -2.75368 0
M  V30 3890 O 359.173 -1.46004 -3.74227 0
M  V30 3891 N 357.379 -1.61675 -2.41474 0
M  V30 3892 H 356.926 -2.00979 -1.61137 0
M  V30 3893 H 356.884 -0.968036 -2.99126 0
M  V30 3894 N 360.656 0.0484629 -1.57525 0
M  V30 3895 C 361.603 1.05504 -2.05275 0
M  V30 3896 C 362.573 1.37084 -0.937927 0
M  V30 3897 O 363.758 1.47754 -1.2072 0
M  V30 3898 C 360.898 2.35676 -2.52093 0
M  V30 3899 C 360.011 2.10423 -3.77288 0
M  V30 3900 C 359.146 3.34327 -4.12794 0
M  V30 3901 C 358.185 3.04542 -5.30962 0
M  V30 3902 N 357.322 4.20841 -5.61994 0
M  V30 3903 H 362.162 0.640885 -2.91027 0
M  V30 3904 H 359.699 0.304854 -1.43906 0
M  V30 3905 H 361.657 3.11709 -2.77297 0
M  V30 3906 H 360.287 2.7485 -1.69285 0
M  V30 3907 H 359.339 1.24976 -3.59284 0
M  V30 3908 H 360.651 1.84438 -4.63448 0
M  V30 3909 H 359.805 4.1874 -4.39024 0
M  V30 3910 H 358.544 3.63408 -3.25247 0
M  V30 3911 H 357.549 2.18528 -5.04505 0
M  V30 3912 H 358.774 2.76758 -6.20146 0
M  V30 3913 H 356.72 4.4991 -4.77406 0
M  V30 3914 H 356.637 3.98212 -6.42622 0
M  V30 3915 H 357.905 5.06184 -5.92789 0
M  V30 3916 N 362.134 1.5431 0.320358 0
M  V30 3917 C 363.044 1.86946 1.41734 0
M  V30 3918 C 364.06 0.761689 1.56443 0
M  V30 3919 O 365.236 1.05629 1.71477 0
M  V30 3920 C 362.301 2.09293 2.76401 0
M  V30 3921 C 361.362 3.33082 2.70841 0
M  V30 3922 C 360.595 3.54353 3.99086 0
M  V30 3923 O 360.818 2.79002 4.97508 0
M  V30 3924 O 359.752 4.47838 4.0215 0
M  V30 3925 H 363.578 2.80232 1.17062 0
M  V30 3926 H 361.163 1.40255 0.514673 0
M  V30 3927 H 363.045 2.25303 3.56113 0
M  V30 3928 H 361.72 1.19194 3.00956 0
M  V30 3929 H 360.627 3.22454 1.89668 0
M  V30 3930 H 361.96 4.23249 2.5124 0
M  V30 3931 N 363.613 -0.582584 1.46437 0
M  V30 3932 C 364.561 -1.71272 1.5738 0
M  V30 3933 C 365.555 -1.63524 0.44229 0
M  V30 3934 O 366.761 -1.69016 0.619166 0
M  V30 3935 H 363.136 -0.566273 0.494813 0
M  V30 3936 H 365.107 -1.59174 2.52401 0
M  V30 3937 C 363.856 -3.09658 1.58136 0
M  V30 3938 H 363.179 -3.16291 2.44541 0
M  V30 3939 H 364.619 -3.88494 1.69847 0
M  V30 3940 C 363.078 -3.3547 0.310026 0
M  V30 3941 O 363.608 -3.97199 -0.599683 0
M  V30 3942 N 361.814 -2.89925 0.197901 0
M  V30 3943 H 361.361 -2.39873 0.93909 0
M  V30 3944 H 361.319 -3.07568 -0.65185 0
M  V30 3945 N 365.091 -1.34144 -0.827227 0
M  V30 3946 C 366.507 -1.13732 -1.11969 0
M  V30 3947 C 366.707 0.0640463 -2.01398 0
M  V30 3948 O 365.763 0.740856 -2.41387 0
M  V30 3949 C 367.076 -2.43047 -1.77055 0
M  V30 3950 C 368.624 -2.49063 -1.89569 0
M  V30 3951 C 369.099 -3.78369 -2.58072 0
M  V30 3952 N 370.59 -3.79505 -2.65575 0
M  V30 3953 C 371.325 -4.76274 -3.19297 0
M  V30 3954 N 370.821 -5.83424 -3.73616 0
M  V30 3955 N 372.614 -4.63735 -3.17658 0
M  V30 3956 H 364.765 -2.11126 -0.232296 0
M  V30 3957 H 367.028 -0.933424 -0.165602 0
M  V30 3958 H 366.734 -3.31025 -1.18807 0
M  V30 3959 H 366.608 -2.56066 -2.76966 0
M  V30 3960 H 368.995 -1.61527 -2.46968 0
M  V30 3961 H 369.076 -2.39975 -0.885745 0
M  V30 3962 H 368.72 -4.66293 -2.01329 0
M  V30 3963 H 368.65 -3.84737 -3.59562 0
M  V30 3964 H 371.141 -3.02074 -2.27068 0
M  V30 3965 H 371.454 -6.53282 -4.12846 0
M  V30 3966 H 369.799 -5.87143 -3.71871 0
M  V30 3967 H 372.99 -3.79177 -2.74486 0
M  V30 3968 H 373.163 -5.39318 -3.59221 0
M  V30 3969 N 366.569 1.04691 -1.17803 0
M  V30 3970 C 367.499 2.14494 -0.92275 0
M  V30 3971 C 368.48 1.69546 0.137179 0
M  V30 3972 O 369.665 1.94195 -0.0141108 0
M  V30 3973 C 366.795 3.44491 -0.440803 0
M  V30 3974 C 365.749 4.03031 -1.4405 0
M  V30 3975 C 365.075 5.28432 -0.81631 0
M  V30 3976 C 366.375 4.39932 -2.81527 0
M  V30 3977 H 368.069 2.36107 -1.84103 0
M  V30 3978 H 365.615 1.1347 -0.886599 0
M  V30 3979 H 367.568 4.2066 -0.249602 0
M  V30 3980 H 366.292 3.22546 0.513025 0
M  V30 3981 H 364.951 3.28937 -1.61853 0
M  V30 3982 H 364.599 5.02792 0.144511 0
M  V30 3983 H 364.299 5.68559 -1.48371 0
M  V30 3984 H 365.823 6.07284 -0.635496 0
M  V30 3985 H 367.237 5.07113 -2.67412 0
M  V30 3986 H 365.634 4.9109 -3.44892 0
M  V30 3987 H 366.704 3.50045 -3.35554 0
M  V30 3988 N 368.047 0.979072 1.23499 0
M  V30 3989 C 368.957 0.526431 2.28617 0
M  V30 3990 C 369.973 -0.418126 1.68901 0
M  V30 3991 O 371.149 -0.288372 1.99325 0
M  V30 3992 C 368.214 -0.165235 3.46306 0
M  V30 3993 C 367.275 0.82056 4.21385 0
M  V30 3994 C 366.508 0.161807 5.33455 0
M  V30 3995 O 366.731 -1.04742 5.60701 0
M  V30 3996 O 365.665 0.859708 5.95729 0
M  V30 3997 H 369.491 1.4006 2.69475 0
M  V30 3998 H 367.076 0.746643 1.29405 0
M  V30 3999 H 368.958 -0.553287 4.17752 0
M  V30 4000 H 367.633 -1.01419 3.07402 0
M  V30 4001 H 366.54 1.25929 3.52268 0
M  V30 4002 H 367.873 1.63828 4.64135 0
M  V30 4003 N 369.525 -1.3858 0.750561 0
M  V30 4004 C 370.435 -2.34278 0.122825 0
M  V30 4005 C 371.451 -1.59116 -0.704131 0
M  V30 4006 O 372.627 -1.91326 -0.628987 0
M  V30 4007 C 369.692 -3.38221 -0.762086 0
M  V30 4008 C 368.753 -4.29227 0.078896 0
M  V30 4009 C 367.986 -5.28205 -0.763874 0
M  V30 4010 O 368.209 -5.34112 -2.00201 0
M  V30 4011 O 367.143 -6.01618 -0.18428 0
M  V30 4012 H 370.969 -2.89649 0.913088 0
M  V30 4013 H 368.554 -1.40374 0.511417 0
M  V30 4014 H 370.436 -4.01872 -1.26793 0
M  V30 4015 H 369.111 -2.85211 -1.5309 0
M  V30 4016 H 368.018 -3.68747 0.630621 0
M  V30 4017 H 369.351 -4.85484 0.810289 0
M  V30 4018 N 371.003 -0.499398 -1.49478 0
M  V30 4019 C 371.951 0.293604 -2.3074 0
M  V30 4020 C 372.945 0.96427 -1.39277 0
M  V30 4021 O 374.151 0.892141 -1.56336 0
M  V30 4022 H 370.526 0.113541 -0.743379 0
M  V30 4023 H 372.497 -0.411772 -2.95545 0
M  V30 4024 C 371.246 1.3462 -3.20582 0
M  V30 4025 H 370.569 0.83954 -3.90886 0
M  V30 4026 H 372.009 1.87308 -3.80384 0
M  V30 4027 C 370.468 2.36351 -2.40083 0
M  V30 4028 O 370.998 3.422 -2.10385 0
M  V30 4029 N 369.204 2.0878 -2.02137 0
M  V30 4030 H 368.751 1.22723 -2.26488 0
M  V30 4031 H 368.709 2.77075 -1.48583 0
M  V30 4032 N 372.481 1.55866 -0.233164 0
M  V30 4033 C 373.391 2.24431 0.683217 0
M  V30 4034 C 374.407 1.2558 1.2044 0
M  V30 4035 O 375.583 1.58422 1.24356 0
M  V30 4036 C 372.648 2.91979 1.86947 0
M  V30 4037 C 371.709 4.06204 1.38912 0
M  V30 4038 C 370.942 4.70522 2.51883 0
M  V30 4039 O 371.165 4.33865 3.70293 0
M  V30 4040 O 370.099 5.59296 2.22423 0
M  V30 4041 H 373.925 3.03426 0.129059 0
M  V30 4042 H 371.51 1.494 -0.0022283 0
M  V30 4043 H 373.392 3.34573 2.56201 0
M  V30 4044 H 372.067 2.15935 2.41151 0
M  V30 4045 H 370.974 3.68155 0.664259 0
M  V30 4046 H 372.307 4.84025 0.893328 0
M  V30 4047 N 373.959 -0.0401083 1.57549 0
M  V30 4048 C 374.892 -1.07689 2.01192 0
M  V30 4049 C 375.87 -1.358 0.894273 0
M  V30 4050 O 377.054 -1.48642 1.15921 0
M  V30 4051 C 374.181 -2.41418 2.3756 0
M  V30 4052 C 373.227 -2.29237 3.59656 0
M  V30 4053 S 374.06 -1.65628 5.09242 0
M  V30 4054 C 375.216 -3.0087 5.48843 0
M  V30 4055 H 375.449 -0.705108 2.88817 0
M  V30 4056 H 372.982 -0.249724 1.52367 0
M  V30 4057 H 374.94 -3.18329 2.59186 0
M  V30 4058 H 373.601 -2.75747 1.50407 0
M  V30 4059 H 372.794 -3.27932 3.82722 0
M  V30 4060 H 372.396 -1.60469 3.37825 0
M  V30 4061 H 374.688 -3.97201 5.48851 0
M  V30 4062 H 375.631 -2.82549 6.49286 0
M  V30 4063 H 376.039 -3.02934 4.76331 0
M  V30 4064 N 375.437 -1.54477 -0.31217 0
M  V30 4065 C 376.686 -1.72438 -1.04633 0
M  V30 4066 C 376.999 -0.511163 -1.88803 0
M  V30 4067 O 378.205 -0.572341 -2.65399 0
M  V30 4068 C 376.661 -3.05043 -1.9099 0
M  V30 4069 C 376.269 -4.33806 -1.11877 0
M  V30 4070 C 378.013 -3.32364 -2.64073 0
M  V30 4071 C 375.92 -5.57467 -1.97445 0
M  V30 4072 H 374.85 -0.642647 -0.394361 0
M  V30 4073 H 377.501 -1.80966 -0.303929 0
M  V30 4074 H 375.883 -2.90451 -2.69173 0
M  V30 4075 H 377.057 -4.59199 -0.383843 0
M  V30 4076 H 375.372 -4.13336 -0.504252 0
M  V30 4077 H 377.969 -4.21951 -3.28423 0
M  V30 4078 H 378.312 -2.50745 -3.32314 0
M  V30 4079 H 378.845 -3.47875 -1.92944 0
M  V30 4080 H 375.584 -6.41722 -1.33692 0
M  V30 4081 H 375.104 -5.36277 -2.6864 0
M  V30 4082 H 376.783 -5.94303 -2.5576 0
M  V30 4083 N 376.915 0.57481 -1.46744 0
M  V30 4084 C 377.863 1.70435 -1.58286 0
M  V30 4085 C 378.857 1.63287 -0.450956 0
M  V30 4086 O 380.063 1.68685 -0.628121 0
M  V30 4087 H 376.438 0.56364 -0.497809 0
M  V30 4088 H 378.409 1.57833 -2.53242 0
M  V30 4089 C 377.158 3.08815 -1.59776 0
M  V30 4090 H 376.481 3.1499 -2.46214 0
M  V30 4091 H 377.921 3.87588 -1.71905 0
M  V30 4092 C 376.38 3.35301 -0.327812 0
M  V30 4093 O 376.91 3.97511 0.57861 0
M  V30 4094 N 375.116 2.89816 -0.213274 0
M  V30 4095 H 374.663 2.39371 -0.951798 0
M  V30 4096 H 374.621 3.0791 0.63553 0
M  V30 4097 N 378.394 1.34581 0.820102 0
M  V30 4098 C 379.324 1.29038 1.94606 0
M  V30 4099 C 380.305 0.1673 1.69275 0
M  V30 4100 O 381.49 0.360112 1.90832 0
M  V30 4101 C 378.62 1.04793 3.31113 0
M  V30 4102 C 377.574 2.13597 3.70891 0
M  V30 4103 C 376.9 1.74537 5.05412 0
M  V30 4104 C 378.2 3.55451 3.8269 0
M  V30 4105 H 379.894 2.23248 1.99501 0
M  V30 4106 H 377.44 1.0747 0.958449 0
M  V30 4107 H 379.393 0.995592 4.0947 0
M  V30 4108 H 378.117 0.0702565 3.26524 0
M  V30 4109 H 376.776 2.17905 2.9481 0
M  V30 4110 H 376.424 0.754226 4.97313 0
M  V30 4111 H 376.124 2.47361 5.32997 0
M  V30 4112 H 377.648 1.70803 5.86224 0
M  V30 4113 H 379.062 3.5354 4.51312 0
M  V30 4114 H 377.459 4.26922 4.21732 0
M  V30 4115 H 378.529 3.92587 2.84611 0
M  V30 4116 N 379.872 -1.04064 1.18357 0
M  V30 4117 C 381.1 -1.80916 1.00384 0
M  V30 4118 C 381.515 -1.83414 -0.447738 0
M  V30 4119 O 380.872 -1.26962 -1.31099 0
M  V30 4120 C 380.923 -3.26516 1.55144 0
M  V30 4121 O 380.644 -3.2424 2.94618 0
M  V30 4122 C 382.145 -4.20013 1.41789 0
M  V30 4123 H 379.365 -0.569728 0.354474 0
M  V30 4124 H 381.909 -1.31151 1.56906 0
M  V30 4125 H 380.064 -3.73512 1.02798 0
M  V30 4126 H 380.478 -4.15452 3.20156 0
M  V30 4127 H 381.952 -5.20111 1.84901 0
M  V30 4128 H 382.429 -4.37667 0.36661 0
M  V30 4129 H 383.035 -3.78881 1.93207 0
M  V30 4130 N 381.35 -0.985608 -1.22978 0
M  V30 4131 C 382.28 -0.549649 -2.26939 0
M  V30 4132 C 383.261 0.419803 -1.64838 0
M  V30 4133 O 384.446 0.31203 -1.91677 0
M  V30 4134 C 381.576 0.143652 -3.47003 0
M  V30 4135 C 380.53 -0.743606 -4.21491 0
M  V30 4136 C 379.856 0.0822027 -5.34637 0
M  V30 4137 C 381.156 -2.03694 -4.80943 0
M  V30 4138 H 382.85 -1.41862 -2.63658 0
M  V30 4139 H 380.396 -0.683571 -1.26741 0
M  V30 4140 H 382.349 0.459985 -4.18882 0
M  V30 4141 H 381.073 1.04711 -3.09359 0
M  V30 4142 H 379.732 -1.04347 -3.51436 0
M  V30 4143 H 379.38 0.986359 -4.93234 0
M  V30 4144 H 379.08 -0.508377 -5.85397 0
M  V30 4145 H 380.604 0.392797 -6.09335 0
M  V30 4146 H 382.018 -1.78504 -5.44802 0
M  V30 4147 H 380.415 -2.57573 -5.42011 0
M  V30 4148 H 381.485 -2.72042 -4.01399 0
M  V30 4149 N 382.828 1.3818 -0.7579 0
M  V30 4150 C 383.778 2.27741 -0.108674 0
M  V30 4151 C 384.762 1.45415 0.688709 0
M  V30 4152 O 385.954 1.68108 0.553956 0
M  V30 4153 C 383.083 3.34313 0.780367 0
M  V30 4154 C 382.169 4.24093 -0.0240977 0
M  V30 4155 N 382.56 4.9451 -1.06271 0
M  V30 4156 C 380.858 4.45542 0.202049 0
M  V30 4157 C 381.559 5.60675 -1.54979 0
M  V30 4158 N 380.535 5.36684 -0.864348 0
M  V30 4159 H 384.337 2.79649 -0.904071 0
M  V30 4160 H 381.851 1.51133 -0.594346 0
M  V30 4161 H 383.848 3.97368 1.26114 0
M  V30 4162 H 382.508 2.83962 1.57467 0
M  V30 4163 H 383.519 4.97345 -1.44459 0
M  V30 4164 H 380.196 4.06091 0.96935 0
M  V30 4165 H 381.586 6.26992 -2.41517 0
M  V30 4166 N 384.306 0.507319 1.49211 0
M  V30 4167 C 385.717 0.0611118 1.866 0
M  V30 4168 C 386.068 -1.35488 1.41907 0
M  V30 4169 O 385.193 -2.0108 0.799726 0
M  V30 4170 C 385.788 0.104125 3.3864 0
M  V30 4171 C 384.347 -0.28677 3.75306 0
M  V30 4172 C 383.494 0.473893 2.73221 0
M  V30 4173 H 386.445 0.719775 1.41439 0
M  V30 4174 H 386.466 -0.689672 3.74198 0
M  V30 4175 H 385.978 1.13482 3.71138 0
M  V30 4176 H 384.079 -1.32046 3.48417 0
M  V30 4177 H 384.192 0.0370745 4.79086 0
M  V30 4178 H 382.556 -0.0770644 2.54583 0
M  V30 4179 H 383.339 1.50478 3.08563 0
M  V30 4180 N 385.784 -1.5574 0.241426 0
M  V30 4181 C 387.009 -2.0366 -0.392111 0
M  V30 4182 C 387.434 -1.11969 -1.51144 0
M  V30 4183 O 386.792 -0.111594 -1.80956 0
M  V30 4184 C 386.84 -3.49638 -0.882371 0
M  V30 4185 O 385.944 -3.6108 -1.99235 0
M  V30 4186 H 385.285 -0.658379 -0.0862122 0
M  V30 4187 H 387.815 -2.01302 0.365881 0
M  V30 4188 H 387.825 -3.90351 -1.18702 0
M  V30 4189 H 386.5 -4.15852 -0.0632361 0
M  V30 4190 H 385.077 -3.32262 -1.69282 0
M  V30 4191 N 387.262 0.0317525 -1.57568 0
M  V30 4192 C 388.209 1.0332 -2.06382 0
M  V30 4193 C 389.179 1.36082 -0.952414 0
M  V30 4194 O 390.364 1.46466 -1.2228 0
M  V30 4195 C 387.504 2.32989 -2.54578 0
M  V30 4196 C 386.617 2.0641 -3.79498 0
M  V30 4197 C 385.752 3.2993 -4.16317 0
M  V30 4198 C 384.791 2.98893 -5.34162 0
M  V30 4199 N 383.928 4.14857 -5.66426 0
M  V30 4200 H 388.768 0.609982 -2.9169 0
M  V30 4201 H 386.305 0.289573 -1.44222 0
M  V30 4202 H 388.263 3.0875 -2.80587 0
M  V30 4203 H 386.893 2.73039 -1.7219 0
M  V30 4204 H 385.945 1.21158 -3.6059 0
M  V30 4205 H 387.257 1.79513 -4.65378 0
M  V30 4206 H 386.411 4.1406 -4.4344 0
M  V30 4207 H 385.15 3.59938 -3.29083 0
M  V30 4208 H 384.155 2.13164 -5.06795 0
M  V30 4209 H 385.38 2.70165 -6.23047 0
M  V30 4210 H 383.326 4.44821 -4.82151 0
M  V30 4211 H 383.243 3.91374 -6.4681 0
M  V30 4212 H 384.511 4.99868 -5.98124 0
M  V30 4213 N 388.74 1.54641 0.303973 0
M  V30 4214 C 389.687 1.85386 1.37479 0
M  V30 4215 C 390.657 0.702528 1.50512 0
M  V30 4216 O 391.842 0.950867 1.65418 0
M  V30 4217 C 388.982 2.10413 2.73533 0
M  V30 4218 C 388.095 3.38049 2.68974 0
M  V30 4219 C 387.23 3.52934 3.97002 0
M  V30 4220 C 386.269 4.74373 3.86829 0
M  V30 4221 N 385.406 4.8608 5.06627 0
M  V30 4222 H 390.246 2.76732 1.1056 0
M  V30 4223 H 387.783 1.37034 0.534805 0
M  V30 4224 H 389.741 2.22919 3.52652 0
M  V30 4225 H 388.371 1.22338 2.98719 0
M  V30 4226 H 387.423 3.3418 1.81736 0
M  V30 4227 H 388.735 4.27288 2.57346 0
M  V30 4228 H 387.889 3.65088 4.84557 0
M  V30 4229 H 386.628 2.61824 4.1146 0
M  V30 4230 H 385.633 4.62255 2.97658 0
M  V30 4231 H 386.858 5.66888 3.73918 0
M  V30 4232 H 384.804 3.97891 5.21554 0
M  V30 4233 H 384.721 5.69315 4.9741 0
M  V30 4234 H 385.989 5.02587 5.95841 0
M  V30 4235 N 390.218 -0.567019 1.47046 0
M  V30 4236 C 391.443 -1.3551 1.57009 0
M  V30 4237 C 391.868 -1.86841 0.217259 0
M  V30 4238 O 391.226 -1.62435 -0.805268 0
M  V30 4239 C 391.274 -2.50777 2.5912 0
M  V30 4240 O 390.378 -3.52706 2.13711 0
M  V30 4241 H 389.719 -0.402919 0.52778 0
M  V30 4242 H 392.249 -0.686241 1.92748 0
M  V30 4243 H 392.259 -2.97481 2.79229 0
M  V30 4244 H 390.934 -2.12771 3.57353 0
M  V30 4245 H 389.511 -3.12374 2.03659 0
M  V30 4246 N 391.696 -1.35014 -0.812953 0
M  V30 4247 C 392.944 -1.27678 -1.56661 0
M  V30 4248 C 393.265 0.150359 -1.94419 0
M  V30 4249 O 392.535 1.08532 -1.63088 0
M  V30 4250 H 391.115 -0.469602 -0.580933 0
M  V30 4251 H 393.777 -1.69043 -0.970076 0
M  V30 4252 H 392.873 -1.88833 -2.48492 0
M  V30 4253 N 393.175 1.03435 -1.18907 0
M  V30 4254 C 394.586 1.58195 -0.991523 0
M  V30 4255 C 394.937 1.90801 0.457081 0
M  V30 4256 O 394.062 1.70272 1.33553 0
M  V30 4257 C 394.657 2.87432 -1.79355 0
M  V30 4258 C 393.216 3.38785 -1.64017 0
M  V30 4259 C 392.363 2.12292 -1.78402 0
M  V30 4260 H 395.314 0.860299 -1.33359 0
M  V30 4261 H 395.335 3.58096 -1.28638 0
M  V30 4262 H 394.847 2.63669 -2.84781 0
M  V30 4263 H 392.948 3.67547 -0.611536 0
M  V30 4264 H 393.061 4.12186 -2.44212 0
M  V30 4265 H 391.425 2.23901 -1.2141 0
M  V30 4266 H 392.208 1.90977 -2.85277 0
M  V30 4267 N 394.653 0.992116 1.22453 0
M  V30 4268 C 395.585 0.500024 2.23679 0
M  V30 4269 C 396.598 -0.404463 1.57696 0
M  V30 4270 O 397.787 -0.206722 1.77299 0
M  V30 4271 C 394.887 -0.294711 3.37616 0
M  V30 4272 C 394.06 0.605723 4.33186 0
M  V30 4273 C 393.119 -0.13717 5.26021 0
M  V30 4274 O 392.145 0.477164 5.67196 0
M  V30 4275 N 393.347 -1.4197 5.62872 0
M  V30 4276 H 396.112 1.37045 2.66531 0
M  V30 4277 H 393.673 0.866741 1.36745 0
M  V30 4278 H 395.665 -0.800329 3.96707 0
M  V30 4279 H 394.235 -1.06623 2.93854 0
M  V30 4280 H 393.455 1.29202 3.72425 0
M  V30 4281 H 394.743 1.21896 4.93983 0
M  V30 4282 H 394.141 -1.94015 5.31389 0
M  V30 4283 H 392.698 -1.87052 6.24383 0
M  V30 4284 N 396.131 -1.37776 0.765217 0
M  V30 4285 C 397.377 -2.00145 0.327072 0
M  V30 4286 C 397.71 -1.60607 -1.09175 0
M  V30 4287 O 396.985 -0.849127 -1.74986 0
M  V30 4288 C 397.268 -3.57109 0.46319 0
M  V30 4289 C 397.121 -4.06576 1.92395 0
M  V30 4290 C 398.44 -4.39888 -0.136473 0
M  V30 4291 H 395.559 -0.727113 0.120316 0
M  V30 4292 H 398.201 -1.63549 0.967039 0
M  V30 4293 H 396.351 -3.88414 -0.0816358 0
M  V30 4294 H 398.023 -3.85864 2.52798 0
M  V30 4295 H 396.266 -3.59011 2.43503 0
M  V30 4296 H 396.937 -5.15639 1.97028 0
M  V30 4297 H 399.413 -4.14803 0.328317 0
M  V30 4298 H 398.289 -5.48899 -0.0110582 0
M  V30 4299 H 398.55 -4.24758 -1.22608 0
M  V30 4300 N 397.609 -0.515225 -1.4894 0
M  V30 4301 C 398.556 0.255567 -2.29381 0
M  V30 4302 C 399.526 0.947387 -1.36432 0
M  V30 4303 O 400.711 0.951288 -1.65394 0
M  V30 4304 C 397.851 1.30551 -3.19453 0
M  V30 4305 C 396.964 0.624029 -4.27469 0
M  V30 4306 C 396.099 1.65563 -5.0474 0
M  V30 4307 C 395.138 0.956802 -6.04576 0
M  V30 4308 N 394.275 1.93326 -6.74959 0
M  V30 4309 H 399.115 -0.436607 -2.94784 0
M  V30 4310 H 396.652 -0.227154 -1.45336 0
M  V30 4311 H 398.61 1.92639 -3.70062 0
M  V30 4312 H 397.24 1.96626 -2.56004 0
M  V30 4313 H 396.292 -0.110459 -3.8024 0
M  V30 4314 H 397.604 0.0746092 -4.98744 0
M  V30 4315 H 396.758 2.35119 -5.59289 0
M  V30 4316 H 395.497 2.23893 -4.3327 0
M  V30 4317 H 394.502 0.247097 -5.49244 0
M  V30 4318 H 395.727 0.379814 -6.78037 0
M  V30 4319 H 393.673 2.50591 -6.06251 0
M  V30 4320 H 393.59 1.43489 -7.42258 0
M  V30 4321 H 394.858 2.62126 -7.34105 0
M  V30 4322 N 399.087 1.5561 -0.249682 0
M  V30 4323 C 400.017 2.24477 0.642826 0
M  V30 4324 C 400.998 1.22601 1.17911 0
M  V30 4325 O 402.183 1.5126 1.21795 0
M  V30 4326 C 399.313 2.94638 1.83863 0
M  V30 4327 C 398.267 4.03227 1.435 0
M  V30 4328 C 397.593 4.60828 2.71186 0
M  V30 4329 C 398.893 5.18796 0.604002 0
M  V30 4330 H 400.587 2.99321 0.0685625 0
M  V30 4331 H 398.133 1.43965 0.0315363 0
M  V30 4332 H 400.086 3.41517 2.46868 0
M  V30 4333 H 398.81 2.17287 2.43832 0
M  V30 4334 H 397.469 3.57121 0.828275 0
M  V30 4335 H 397.117 3.80174 3.29358 0
M  V30 4336 H 396.817 5.34132 2.44901 0
M  V30 4337 H 398.341 5.10442 3.35084 0
M  V30 4338 H 399.755 5.61883 1.13842 0
M  V30 4339 H 398.152 5.98506 0.437097 0
M  V30 4340 H 399.222 4.83384 -0.383147 0
M  V30 4341 N 400.565 -0.0233959 1.57583 0
M  V30 4342 C 401.79 -0.728376 1.94189 0
M  V30 4343 C 402.215 -1.67793 0.850119 0
M  V30 4344 O 401.573 -1.80262 -0.19371 0
M  V30 4345 C 401.621 -1.45669 3.29868 0
M  V30 4346 O 400.725 -2.57013 3.22518 0
M  V30 4347 H 400.066 -0.195493 0.63457 0
M  V30 4348 H 402.596 0.0228214 2.04587 0
M  V30 4349 H 402.606 -1.82535 3.6489 0
M  V30 4350 H 401.281 -0.760314 4.08891 0
M  V30 4351 H 399.858 -2.22648 2.99136 0
M  V30 4352 N 402.043 -1.548 -0.295768 0
M  V30 4353 C 403.291 -1.73985 -1.02828 0
M  V30 4354 C 403.612 -0.531406 -1.87619 0
M  V30 4355 O 402.882 0.454221 -1.90561 0
M  V30 4356 H 401.462 -0.641556 -0.382642 0
M  V30 4357 H 404.124 -1.92163 -0.325489 0
M  V30 4358 H 403.22 -2.63129 -1.67838 0
M  V30 4359 N 403.521 0.559213 -1.47345 0
M  V30 4360 C 404.746 1.34676 -1.57725 0
M  V30 4361 C 405.171 1.86723 -0.227164 0
M  V30 4362 O 404.529 1.6286 0.796642 0
M  V30 4363 C 404.577 2.49399 -2.60447 0
M  V30 4364 O 403.681 3.51567 -2.15578 0
M  V30 4365 H 403.022 0.400115 -0.52991 0
M  V30 4366 H 405.552 0.676009 -1.93109 0
M  V30 4367 H 405.562 2.95996 -2.80803 0
M  V30 4368 H 404.237 2.10873 -3.58477 0
M  V30 4369 H 402.814 3.11289 -2.05313 0
M  V30 4370 N 404.999 1.35443 0.805782 0
M  V30 4371 C 405.949 1.24972 1.90699 0
M  V30 4372 C 406.933 0.144806 1.60247 0
M  V30 4373 O 408.125 0.376102 1.72958 0
M  V30 4374 C 405.254 1.02475 3.27649 0
M  V30 4375 C 404.34 2.17361 3.64164 0
M  V30 4376 N 404.731 3.42591 3.72109 0
M  V30 4377 C 403.029 2.08765 3.94123 0
M  V30 4378 C 403.73 4.18144 4.04389 0
M  V30 4379 N 402.706 3.4691 4.18515 0
M  V30 4380 H 406.508 2.19852 1.95044 0
M  V30 4381 H 404.022 1.27928 1.00041 0
M  V30 4382 H 406.019 0.930617 4.06381 0
M  V30 4383 H 404.679 0.0848009 3.24589 0
M  V30 4384 H 405.69 3.76932 3.55166 0
M  V30 4385 H 402.367 1.22629 3.99084 0
M  V30 4386 H 403.757 5.26367 4.17597 0
M  V30 4387 N 406.477 -1.02803 1.19454 0
M  V30 4388 C 407.424 -2.11099 0.933046 0
M  V30 4389 C 408.394 -1.65571 -0.132447 0
M  V30 4390 O 409.579 -1.90797 0.00987576 0
M  V30 4391 C 406.719 -3.41763 0.478747 0
M  V30 4392 C 405.832 -4.00833 1.6111 0
M  V30 4393 C 404.967 -5.19511 1.10825 0
M  V30 4394 C 404.006 -5.70639 2.21445 0
M  V30 4395 N 403.143 -6.80589 1.72461 0
M  V30 4396 H 407.983 -2.32804 1.86028 0
M  V30 4397 H 405.52 -1.14179 0.927441 0
M  V30 4398 H 407.478 -4.16736 0.196745 0
M  V30 4399 H 406.108 -3.20166 -0.411493 0
M  V30 4400 H 405.16 -3.23066 2.00829 0
M  V30 4401 H 406.472 -4.34794 2.4445 0
M  V30 4402 H 405.626 -6.01645 0.781533 0
M  V30 4403 H 404.365 -4.87086 0.244606 0
M  V30 4404 H 403.37 -4.87116 2.54947 0
M  V30 4405 H 404.595 -6.05102 3.08267 0
M  V30 4406 H 402.541 -6.50016 0.884056 0
M  V30 4407 H 402.458 -7.13681 2.49389 0
M  V30 4408 H 403.726 -7.66317 1.42755 0
M  V30 4409 N 407.956 -0.998596 -1.21925 0
M  V30 4410 C 409.202 -0.688337 -1.91399 0
M  V30 4411 C 409.557 0.771805 -1.76241 0
M  V30 4412 O 408.85 1.55153 -1.1242 0
M  V30 4413 C 409.044 -1.03648 -3.42041 0
M  V30 4414 C 408.873 -2.52892 -3.71855 0
M  V30 4415 C 407.643 -3.19389 -3.91559 0
M  V30 4416 C 409.841 -3.5103 -3.75875 0
M  V30 4417 N 407.823 -4.5805 -4.08734 0
M  V30 4418 C 409.194 -4.75174 -3.98259 0
M  V30 4419 C 411.249 -3.45257 -3.58751 0
M  V30 4420 C 409.952 -5.94247 -4.05294 0
M  V30 4421 C 411.978 -4.63712 -3.67049 0
M  V30 4422 C 411.34 -5.86658 -3.89887 0
M  V30 4423 H 407.439 -0.303251 -0.720807 0
M  V30 4424 H 410.023 -1.27977 -1.46731 0
M  V30 4425 H 408.194 -0.473569 -3.85502 0
M  V30 4426 H 409.926 -0.681619 -3.98919 0
M  V30 4427 H 406.681 -2.69846 -3.89205 0
M  V30 4428 H 407.105 -5.29989 -4.21237 0
M  V30 4429 H 411.747 -2.51215 -3.40075 0
M  V30 4430 H 409.465 -6.88687 -4.22772 0
M  V30 4431 H 413.051 -4.6084 -3.5513 0
M  V30 4432 H 411.931 -6.76786 -3.96144 0
M  V30 4433 N 409.434 1.37368 -0.772513 0
M  V30 4434 C 410.659 2.0447 -0.347386 0
M  V30 4435 C 411.084 1.57882 1.0225 0
M  V30 4436 O 410.442 0.73941 1.65537 0
M  V30 4437 C 410.49 3.58369 -0.400479 0
M  V30 4438 O 409.594 4.0803 0.598789 0
M  V30 4439 H 408.935 0.646773 -0.15027 0
M  V30 4440 H 411.465 1.75667 -1.04892 0
M  V30 4441 H 411.475 4.07183 -0.258045 0
M  V30 4442 H 410.15 3.91633 -1.39986 0
M  V30 4443 H 408.727 3.70534 0.419411 0
M  V30 4444 N 410.912 0.523116 1.48665 0
M  V30 4445 C 412.142 -0.00961724 2.06598 0
M  V30 4446 C 412.55 -1.29333 1.38093 0
M  V30 4447 O 411.893 -1.77846 0.46007 0
M  V30 4448 C 411.955 -0.311135 3.58151 0
M  V30 4449 C 411.619 0.878092 4.48485 0
M  V30 4450 C 412.616 1.77464 4.88674 0
M  V30 4451 C 410.301 1.08315 4.90483 0
M  V30 4452 C 412.295 2.86021 5.69623 0
M  V30 4453 C 409.982 2.17187 5.71203 0
M  V30 4454 C 410.98 3.05873 6.10681 0
M  V30 4455 O 410.668 4.12862 6.89783 0
M  V30 4456 H 410.4 0.0272658 0.67545 0
M  V30 4457 H 412.954 0.726156 1.92136 0
M  V30 4458 H 411.184 -1.10079 3.70701 0
M  V30 4459 H 412.873 -0.785125 3.98234 0
M  V30 4460 H 413.639 1.62813 4.56855 0
M  V30 4461 H 409.518 0.402149 4.59243 0
M  V30 4462 H 413.062 3.55272 6.00356 0
M  V30 4463 H 408.959 2.31824 6.02435 0
M  V30 4464 H 409.727 4.10487 7.08126 0
M  V30 4465 N 412.39 -1.55475 0.257931 0
M  V30 4466 C 413.615 -2.04064 -0.370488 0
M  V30 4467 C 414.04 -1.13565 -1.49948 0
M  V30 4468 O 413.398 -0.130781 -1.80828 0
M  V30 4469 C 413.446 -3.50554 -0.845237 0
M  V30 4470 O 412.55 -3.63173 -1.95394 0
M  V30 4471 H 411.891 -0.659257 -0.0792243 0
M  V30 4472 H 414.421 -2.00903 0.387212 0
M  V30 4473 H 414.431 -3.91588 -1.14555 0
M  V30 4474 H 413.106 -4.15896 -0.0191259 0
M  V30 4475 H 411.683 -3.34039 -1.65748 0
M  V30 4476 N 413.868 0.0150385 -1.57593 0
M  V30 4477 C 415.115 0.703001 -1.89906 0
M  V30 4478 C 415.443 1.74604 -0.856944 0
M  V30 4479 O 414.698 1.95197 0.140287 0
M  V30 4480 C 414.997 1.39686 -3.28972 0
M  V30 4481 C 414.663 0.488457 -4.48246 0
M  V30 4482 C 413.325 0.2383 -4.8061 0
M  V30 4483 C 415.677 -0.137881 -5.21018 0
M  V30 4484 C 413.005 -0.646738 -5.83125 0
M  V30 4485 C 415.357 -1.0107 -6.24474 0
M  V30 4486 C 414.021 -1.27019 -6.55303 0
M  V30 4487 H 413.291 0.257246 -0.694914 0
M  V30 4488 H 415.938 -0.037259 -1.91464 0
M  V30 4489 H 414.243 2.21079 -3.23468 0
M  V30 4490 H 415.94 1.93495 -3.51227 0
M  V30 4491 H 412.53 0.693593 -4.22951 0
M  V30 4492 H 416.714 0.0423953 -4.96282 0
M  V30 4493 H 411.97 -0.855937 -6.05379 0
M  V30 4494 H 416.144 -1.50247 -6.79999 0
M  V30 4495 H 413.771 -1.95769 -7.3456 0
M  V30 4496 N 415.346 1.54954 0.287554 0
M  V30 4497 C 416.595 1.74081 1.01877 0
M  V30 4498 C 416.908 0.541135 1.87966 0
M  V30 4499 O 418.114 0.614491 2.64455 0
M  V30 4500 C 416.57 3.08042 1.86113 0
M  V30 4501 C 416.178 4.35531 1.04961 0
M  V30 4502 C 417.922 3.36523 2.58752 0
M  V30 4503 C 415.829 5.60538 1.88551 0
M  V30 4504 H 414.759 0.64884 0.384087 0
M  V30 4505 H 417.41 1.81426 0.275101 0
M  V30 4506 H 415.792 2.94696 2.64519 0
M  V30 4507 H 416.966 4.59751 0.31074 0
M  V30 4508 H 415.281 4.14085 0.43843 0
M  V30 4509 H 417.878 4.27122 3.21668 0
M  V30 4510 H 418.221 2.56 3.28283 0
M  V30 4511 H 418.754 3.50901 1.87386 0
M  V30 4512 H 415.493 6.43767 1.23466 0
M  V30 4513 H 415.013 5.40483 2.60074 0
M  V30 4514 H 416.692 5.98297 2.46273 0
M  V30 4515 N 416.824 -0.551391 1.4764 0
M  V30 4516 C 417.771 -1.65796 1.60563 0
M  V30 4517 C 418.741 -1.59932 0.448428 0
M  V30 4518 O 419.926 -1.78679 0.669222 0
M  V30 4519 C 417.066 -3.04108 1.63133 0
M  V30 4520 C 416.179 -3.20365 2.89811 0
M  V30 4521 C 415.314 -4.49109 2.8368 0
M  V30 4522 C 414.353 -4.58819 4.05156 0
M  V30 4523 N 413.49 -5.78926 3.97227 0
M  V30 4524 H 418.33 -1.54088 2.5507 0
M  V30 4525 H 415.867 -0.75052 1.26513 0
M  V30 4526 H 417.825 -3.84207 1.62606 0
M  V30 4527 H 416.455 -3.14637 0.721341 0
M  V30 4528 H 415.507 -2.33659 3.00179 0
M  V30 4529 H 416.819 -3.23402 3.79753 0
M  V30 4530 H 415.973 -5.37475 2.81434 0
M  V30 4531 H 414.712 -4.4856 1.91431 0
M  V30 4532 H 413.717 -3.68864 4.077 0
M  V30 4533 H 414.942 -4.61124 4.98539 0
M  V30 4534 H 412.888 -5.79314 3.07785 0
M  V30 4535 H 412.805 -5.83367 4.80853 0
M  V30 4536 H 414.073 -6.69637 3.99007 0
M  V30 4537 N 418.302 -1.35869 -0.798587 0
M  V30 4538 C 419.249 -1.29446 -1.91082 0
M  V30 4539 C 420.219 -0.16487 -1.6528 0
M  V30 4540 O 421.404 -0.349888 -1.87564 0
M  V30 4541 C 418.544 -1.0804 -3.27752 0
M  V30 4542 C 417.657 -2.29993 -3.65687 0
M  V30 4543 C 416.792 -2.01673 -4.91428 0
M  V30 4544 C 415.831 -3.19636 -5.22015 0
M  V30 4545 N 414.968 -2.91039 -6.38937 0
M  V30 4546 H 419.808 -2.24553 -1.95907 0
M  V30 4547 H 417.345 -1.11615 -0.958148 0
M  V30 4548 H 419.303 -0.936586 -4.06551 0
M  V30 4549 H 417.933 -0.16592 -3.22373 0
M  V30 4550 H 416.985 -2.55211 -2.82085 0
M  V30 4551 H 418.297 -3.18052 -3.84245 0
M  V30 4552 H 417.451 -1.84168 -5.78072 0
M  V30 4553 H 416.19 -1.10911 -4.74921 0
M  V30 4554 H 415.195 -3.37709 -4.33858 0
M  V30 4555 H 416.42 -4.11211 -5.40447 0
M  V30 4556 H 414.366 -2.0288 -6.2384 0
M  V30 4557 H 414.283 -3.72635 -6.57784 0
M  V30 4558 H 415.551 -2.77093 -7.28587 0
M  V30 4559 N 419.78 1.02168 -1.19998 0
M  V30 4560 C 420.73 2.08969 -0.911921 0
M  V30 4561 C 421.714 1.60404 0.12621 0
M  V30 4562 O 422.906 1.76817 -0.0804706 0
M  V30 4563 C 420.035 3.402 -0.460277 0
M  V30 4564 C 419.121 3.9548 -1.53155 0
M  V30 4565 N 419.512 4.24332 -2.75275 0
M  V30 4566 C 417.81 4.23572 -1.39653 0
M  V30 4567 C 418.511 4.68834 -3.44339 0
M  V30 4568 N 417.487 4.70804 -2.71744 0
M  V30 4569 H 421.289 2.29178 -1.83997 0
M  V30 4570 H 418.803 1.20094 -1.09322 0
M  V30 4571 H 420.8 4.16235 -0.235337 0
M  V30 4572 H 419.46 3.21408 0.4612 0
M  V30 4573 H 420.471 4.13393 -3.11973 0
M  V30 4574 H 417.148 4.14005 -0.539067 0
M  V30 4575 H 418.538 5.00019 -4.4881 0
M  V30 4576 N 421.258 1.00505 1.21394 0
M  V30 4577 C 422.674 0.717873 1.42544 0
M  V30 4578 C 422.874 -0.706936 1.88692 0
M  V30 4579 O 421.93 -1.47627 2.04847 0
M  V30 4580 C 423.243 1.73377 2.45684 0
M  V30 4581 C 424.791 1.75059 2.59467 0
M  V30 4582 C 425.266 2.75545 3.6584 0
M  V30 4583 N 426.757 2.74213 3.73311 0
M  V30 4584 C 427.492 3.48626 4.55245 0
M  V30 4585 N 426.988 4.32678 5.41075 0
M  V30 4586 N 428.781 3.37276 4.49668 0
M  V30 4587 H 420.932 1.92506 0.897503 0
M  V30 4588 H 423.195 0.830919 0.456375 0
M  V30 4589 H 422.901 2.75395 2.18748 0
M  V30 4590 H 422.775 1.53647 3.44489 0
M  V30 4591 H 425.162 0.737337 2.8574 0
M  V30 4592 H 425.243 1.98861 1.60897 0
M  V30 4593 H 424.887 3.77028 3.40313 0
M  V30 4594 H 424.817 2.49009 4.64007 0
M  V30 4595 H 427.308 2.13234 3.11993 0
M  V30 4596 H 427.621 4.86253 6.00648 0
M  V30 4597 H 425.966 4.3676 5.40616 0
M  V30 4598 H 429.157 2.71043 3.81646 0
M  V30 4599 H 429.33 3.95524 5.13288 0
M  V30 4600 N 422.737 -1.36956 0.779787 0
M  V30 4601 C 424.153 -1.52817 0.460342 0
M  V30 4602 C 424.353 -1.7361 -1.02283 0
M  V30 4603 O 423.409 -1.76207 -1.80852 0
M  V30 4604 C 424.722 -2.71983 1.28241 0
M  V30 4605 C 426.27 -2.85849 1.27512 0
M  V30 4606 C 426.745 -4.08008 2.08072 0
M  V30 4607 N 428.236 -4.15135 2.05467 0
M  V30 4608 C 428.971 -5.08711 2.64577 0
M  V30 4609 N 428.467 -6.07792 3.32506 0
M  V30 4610 N 430.26 -5.01254 2.54363 0
M  V30 4611 H 422.411 -1.21713 1.74068 0
M  V30 4612 H 424.674 -0.593294 0.739396 0
M  V30 4613 H 424.38 -2.63109 2.33381 0
M  V30 4614 H 424.254 -3.65882 0.917088 0
M  V30 4615 H 426.641 -2.94189 0.231686 0
M  V30 4616 H 426.722 -1.92886 1.68014 0
M  V30 4617 H 426.366 -4.00429 3.12441 0
M  V30 4618 H 426.296 -5.001 1.64947 0
M  V30 4619 H 428.787 -3.44189 1.5602 0
M  V30 4620 H 429.1 -6.75739 3.74963 0
M  V30 4621 H 427.445 -6.08047 3.36606 0
M  V30 4622 H 430.636 -4.22795 2.00902 0
M  V30 4623 H 430.809 -5.73995 3.00722 0
M  V30 4624 N 424.215 -0.530993 -1.48385 0
M  V30 4625 C 425.631 -0.188919 -1.58478 0
M  V30 4626 C 425.831 1.30786 -1.53288 0
M  V30 4627 O 424.887 2.08619 -1.42248 0
M  V30 4628 C 426.2 -0.792343 -2.90073 0
M  V30 4629 C 427.748 -0.76117 -3.03604 0
M  V30 4630 C 428.223 -1.34319 -4.37861 0
M  V30 4631 N 429.714 -1.3052 -4.44431 0
M  V30 4632 C 430.449 -1.72543 -5.46824 0
M  V30 4633 N 429.945 -2.22299 -6.56167 0
M  V30 4634 N 431.738 -1.63773 -5.37712 0
M  V30 4635 H 423.889 -1.50377 -1.50002 0
M  V30 4636 H 426.152 -0.625559 -0.712306 0
M  V30 4637 H 425.858 -1.84323 -2.99529 0
M  V30 4638 H 425.732 -0.270026 -3.76232 0
M  V30 4639 H 428.119 0.280957 -2.93759 0
M  V30 4640 H 428.2 -1.32097 -2.19053 0
M  V30 4641 H 427.844 -2.38425 -4.4846 0
M  V30 4642 H 427.774 -0.759064 -5.21101 0
M  V30 4643 H 430.265 -0.940973 -3.65997 0
M  V30 4644 H 430.578 -2.52356 -7.30436 0
M  V30 4645 H 428.923 -2.26293 -6.57127 0
M  V30 4646 H 432.114 -1.24698 -4.51185 0
M  V30 4647 H 432.287 -1.96844 -6.17379 0
M  V30 4648 N 425.693 1.55336 -0.266172 0
M  V30 4649 C 426.923 2.03506 0.356239 0
M  V30 4650 C 427.331 1.14426 1.50676 0
M  V30 4651 O 426.674 0.155043 1.83045 0
M  V30 4652 C 426.736 3.47848 0.90785 0
M  V30 4653 C 426.4 4.56861 -0.112888 0
M  V30 4654 C 427.397 5.11528 -0.929264 0
M  V30 4655 C 425.082 5.01704 -0.244546 0
M  V30 4656 C 427.076 6.09549 -1.86357 0
M  V30 4657 C 424.763 5.99553 -1.18234 0
M  V30 4658 C 425.761 6.53356 -1.99036 0
M  V30 4659 O 425.449 7.49293 -2.91231 0
M  V30 4660 H 425.181 0.670444 0.08649 0
M  V30 4661 H 427.735 2.01598 -0.39337 0
M  V30 4662 H 425.965 3.46967 1.70737 0
M  V30 4663 H 427.654 3.79407 1.44239 0
M  V30 4664 H 428.42 4.77701 -0.838237 0
M  V30 4665 H 424.299 4.59477 0.374359 0
M  V30 4666 H 427.843 6.51469 -2.49467 0
M  V30 4667 H 423.74 6.32799 -1.27421 0
M  V30 4668 H 424.508 7.66978 -2.8581 0
M  V30 4669 N 427.171 -0.0066808 1.57599 0
M  V30 4670 C 428.396 -0.707738 1.94951 0
M  V30 4671 C 428.821 -1.66882 0.867868 0
M  V30 4672 O 428.179 -1.80457 -0.17458 0
M  V30 4673 C 428.227 -1.42162 3.31394 0
M  V30 4674 O 427.331 -2.53578 3.25226 0
M  V30 4675 H 426.672 -0.188752 0.636607 0
M  V30 4676 H 429.202 0.0445193 2.04552 0
M  V30 4677 H 429.212 -1.78655 3.66806 0
M  V30 4678 H 427.887 -0.716903 4.09675 0
M  V30 4679 H 426.464 -2.19463 3.01481 0
M  V30 4680 N 428.649 -1.55105 -0.279332 0
M  V30 4681 C 429.596 -1.8755 -1.34513 0
M  V30 4682 C 430.566 -0.726384 -1.49375 0
M  V30 4683 O 431.751 -0.977063 -1.63884 0
M  V30 4684 C 428.891 -2.14738 -2.70151 0
M  V30 4685 C 428.004 -3.42285 -2.63562 0
M  V30 4686 C 427.139 -3.59206 -3.91337 0
M  V30 4687 C 426.178 -4.80467 -3.79233 0
M  V30 4688 N 425.315 -4.94079 -4.98829 0
M  V30 4689 H 430.155 -2.78456 -1.06143 0
M  V30 4690 H 427.692 -1.37867 -0.512936 0
M  V30 4691 H 429.65 -2.28501 -3.49061 0
M  V30 4692 H 428.28 -1.27075 -2.96735 0
M  V30 4693 H 427.332 -3.37029 -1.76397 0
M  V30 4694 H 428.644 -4.31328 -2.50515 0
M  V30 4695 H 427.798 -3.72751 -4.78687 0
M  V30 4696 H 426.537 -2.68337 -4.07243 0
M  V30 4697 H 425.542 -4.66932 -2.90266 0
M  V30 4698 H 426.767 -5.72765 -3.64852 0
M  V30 4699 H 424.713 -4.06139 -5.15158 0
M  V30 4700 H 424.63 -5.77156 -4.8829 0
M  V30 4701 H 425.898 -5.12003 -5.8777 0
M  V30 4702 N 430.127 0.543554 -1.4793 0
M  V30 4703 C 431.074 1.64942 -1.6144 0
M  V30 4704 C 432.044 1.59692 -0.456903 0
M  V30 4705 O 433.229 1.78321 -0.678688 0
M  V30 4706 C 430.369 3.03238 -1.64744 0
M  V30 4707 C 429.482 3.18823 -2.91506 0
M  V30 4708 C 428.617 4.47599 -2.86057 0
M  V30 4709 C 427.656 4.56664 -4.07584 0
M  V30 4710 N 426.793 5.76811 -4.00292 0
M  V30 4711 H 431.633 1.52733 -2.55884 0
M  V30 4712 H 429.17 0.7438 -1.2691 0
M  V30 4713 H 431.128 3.83339 -1.64641 0
M  V30 4714 H 429.758 3.1425 -0.738017 0
M  V30 4715 H 428.81 2.32064 -3.01414 0
M  V30 4716 H 430.122 3.21384 -3.81463 0
M  V30 4717 H 429.276 5.35975 -2.84281 0
M  V30 4718 H 428.015 4.47538 -1.93807 0
M  V30 4719 H 427.02 3.66697 -4.09651 0
M  V30 4720 H 428.245 4.58474 -5.00978 0
M  V30 4721 H 426.191 5.77673 -3.10853 0
M  V30 4722 H 426.108 5.80808 -4.8394 0
M  V30 4723 H 427.376 6.67512 -4.02553 0
M  V30 4724 N 431.605 1.3629 0.791371 0
M  V30 4725 C 432.833 1.33562 1.58016 0
M  V30 4726 C 433.248 -0.0835616 1.88615 0
M  V30 4727 O 432.605 -1.0399 1.49974 0
M  V30 4728 C 432.656 2.15517 2.90232 0
M  V30 4729 O 432.377 3.51902 2.60953 0
M  V30 4730 C 433.878 2.20546 3.84544 0
M  V30 4731 H 431.098 0.458226 0.490173 0
M  V30 4732 H 433.642 1.79361 0.982345 0
M  V30 4733 H 431.797 1.73278 3.46487 0
M  V30 4734 H 432.211 3.94644 3.4548 0
M  V30 4735 H 433.685 2.82252 4.74382 0
M  V30 4736 H 434.162 1.20838 4.2225 0
M  V30 4737 H 434.768 2.63013 3.34222 0
M  V30 4738 N 433.083 -1.0153 1.20538 0
M  V30 4739 C 434.046 -2.0826 0.957098 0
M  V30 4740 C 435.046 -1.60657 -0.0678655 0
M  V30 4741 O 436.236 -1.73385 0.168332 0
M  V30 4742 C 433.368 -3.38033 0.441188 0
M  V30 4743 H 434.561 -2.31719 1.90384 0
M  V30 4744 H 432.114 -1.1835 1.02093 0
M  V30 4745 H 432.849 -3.20249 -0.510961 0
M  V30 4746 H 432.634 -3.73911 1.18038 0
M  V30 4747 H 434.124 -4.16613 0.287009 0
M  V30 4748 N 434.561 -1.01147 -1.20859 0
M  V30 4749 C 435.801 -0.706331 -1.91808 0
M  V30 4750 C 436.165 0.749736 -1.76757 0
M  V30 4751 O 437.366 1.16716 -2.42138 0
M  V30 4752 C 435.637 -1.12371 -3.39275 0
M  V30 4753 S 437.196 -0.939764 -4.28619 0
M  V30 4754 H 434.014 -0.257665 -0.662669 0
M  V30 4755 H 436.616 -1.29766 -1.46223 0
M  V30 4756 H 435.32 -2.17943 -3.47749 0
M  V30 4757 H 434.851 -0.524952 -3.89882 0
M  V30 4758 H 436.866 0.159556 -4.95943 0
M  V30 4759 N 436.039 1.36541 -0.78704 0
M  V30 4760 C 437.285 1.99599 -0.358872 0
M  V30 4761 C 437.618 1.62323 1.06606 0
M  V30 4762 O 436.893 0.876858 1.73613 0
M  V30 4763 C 437.176 3.56327 -0.519944 0
M  V30 4764 C 437.029 4.03464 -1.98839 0
M  V30 4765 C 438.348 4.4005 0.0664737 0
M  V30 4766 H 435.467 0.725107 -0.131869 0
M  V30 4767 H 438.109 1.6199 -0.992936 0
M  V30 4768 H 436.259 3.88495 0.0198321 0
M  V30 4769 H 437.931 3.81793 -2.58905 0
M  V30 4770 H 436.174 3.55092 -2.49183 0
M  V30 4771 H 436.845 5.12439 -2.05207 0
M  V30 4772 H 439.321 4.14228 -0.394267 0
M  V30 4773 H 438.197 5.48847 -0.0762682 0
M  V30 4774 H 438.458 4.26655 1.15835 0
M  V30 4775 N 437.518 0.538854 1.48102 0
M  V30 4776 C 438.448 -0.207654 2.32575 0
M  V30 4777 C 439.429 -0.926559 1.4265 0
M  V30 4778 O 440.614 -0.91061 1.71527 0
M  V30 4779 C 437.744 -1.24957 3.24042 0
M  V30 4780 C 436.698 -0.648263 4.23062 0
M  V30 4781 C 436.024 -1.79348 5.03725 0
M  V30 4782 C 437.324 0.385897 5.20872 0
M  V30 4783 H 439.018 0.497534 2.95237 0
M  V30 4784 H 436.564 0.240715 1.41974 0
M  V30 4785 H 438.517 -1.77983 3.81969 0
M  V30 4786 H 437.241 -1.98446 2.59397 0
M  V30 4787 H 435.9 -0.139452 3.66335 0
M  V30 4788 H 435.548 -2.51696 4.35498 0
M  V30 4789 H 435.248 -1.39702 5.70751 0
M  V30 4790 H 436.772 -2.32735 5.64506 0
M  V30 4791 H 438.186 -0.057607 5.73271 0
M  V30 4792 H 436.583 0.700227 5.96001 0
M  V30 4793 H 437.653 1.28848 4.67468 0
M  V30 4794 N 438.996 -1.55193 0.274407 0
M  V30 4795 C 440.407 -1.85358 -0.223488 0
M  V30 4796 C 440.758 -1.19642 -1.555 0
M  V30 4797 O 439.883 -0.484498 -2.10907 0
M  V30 4798 C 440.478 -3.36282 -0.412285 0
M  V30 4799 C 439.037 -3.66574 -0.854413 0
M  V30 4800 C 438.184 -2.7725 0.0527056 0
M  V30 4801 H 441.135 -1.50743 0.496215 0
M  V30 4802 H 441.156 -3.59349 -1.25094 0
M  V30 4803 H 440.668 -3.84083 0.556965 0
M  V30 4804 H 438.769 -3.24273 -1.83516 0
M  V30 4805 H 438.882 -4.74073 -0.692226 0
M  V30 4806 H 437.246 -2.50447 -0.463484 0
M  V30 4807 H 438.029 -3.27865 1.01783 0
M  V30 4808 N 440.474 -0.00167713 -1.576 0
M  V30 4809 C 441.437 0.974046 -2.07473 0
M  V30 4810 C 442.437 1.27143 -0.984444 0
M  V30 4811 O 443.627 1.21633 -1.24703 0
M  V30 4812 C 440.759 2.29849 -2.51759 0
M  V30 4813 H 441.952 0.54262 -2.9495 0
M  V30 4814 H 439.505 0.245829 -1.54355 0
M  V30 4815 H 440.24 2.77677 -1.67529 0
M  V30 4816 H 440.025 2.09584 -3.31386 0
M  V30 4817 H 441.515 2.9984 -2.90664 0
M  V30 4818 N 441.952 1.55251 0.271103 0
M  V30 4819 C 443.363 1.66635 0.842007 0
M  V30 4820 C 443.714 0.594631 1.86972 0
M  V30 4821 O 442.839 -0.263532 2.14789 0
M  V30 4822 C 443.434 3.02082 1.53401 0
M  V30 4823 C 441.993 3.15487 2.05293 0
M  V30 4824 C 441.14 2.62438 0.895631 0
M  V30 4825 H 444.091 1.58629 0.0474117 0
M  V30 4826 H 444.112 2.95176 2.40107 0
M  V30 4827 H 443.624 3.80062 0.785786 0
M  V30 4828 H 441.725 2.42284 2.83071 0
M  V30 4829 H 441.838 4.22075 2.26693 0
M  V30 4830 H 440.202 2.19644 1.28953 0
M  V30 4831 H 440.985 3.42923 0.160878 0
M  V30 4832 N 443.43 -0.535701 1.48216 0
M  V30 4833 C 444.34 -1.66785 1.64985 0
M  V30 4834 C 445.356 -1.65654 0.532414 0
M  V30 4835 O 446.532 -1.8471 0.80275 0
M  V30 4836 C 443.597 -3.0326 1.68031 0
M  V30 4837 C 442.658 -3.1529 2.9136 0
M  V30 4838 C 441.891 -4.45255 2.94252 0
M  V30 4839 O 442.114 -5.32011 2.05719 0
M  V30 4840 O 441.048 -4.6153 3.86359 0
M  V30 4841 H 444.874 -1.55576 2.60825 0
M  V30 4842 H 442.459 -0.70815 1.31551 0
M  V30 4843 H 444.341 -3.84436 1.72589 0
M  V30 4844 H 443.016 -3.14805 0.753628 0
M  V30 4845 H 441.923 -2.3343 2.92337 0
M  V30 4846 H 443.256 -3.08658 3.83394 0
M  V30 4847 N 444.908 -1.36708 -0.784132 0
M  V30 4848 C 446.324 -1.17237 -1.08294 0
M  V30 4849 C 446.524 -5.93947e-05 -2.015 0
M  V30 4850 O 445.58 0.663686 -2.43622 0
M  V30 4851 C 446.893 -2.48557 -1.69233 0
M  V30 4852 C 448.441 -2.54968 -1.8155 0
M  V30 4853 C 448.916 -3.86388 -2.45904 0
M  V30 4854 N 450.407 -3.87762 -2.53367 0
M  V30 4855 C 451.142 -4.86191 -3.03983 0
M  V30 4856 N 450.638 -5.95015 -3.54866 0
M  V30 4857 N 452.431 -4.73606 -3.02743 0
M  V30 4858 H 444.582 -2.11758 -0.16501 0
M  V30 4859 H 446.845 -0.93822 -0.135822 0
M  V30 4860 H 446.551 -3.34638 -1.08215 0
M  V30 4861 H 446.425 -2.64748 -2.68679 0
M  V30 4862 H 448.812 -1.69302 -2.41704 0
M  V30 4863 H 448.893 -2.42672 -0.80895 0
M  V30 4864 H 448.537 -4.72462 -1.86392 0
M  V30 4865 H 448.467 -3.95982 -3.4714 0
M  V30 4866 H 450.958 -3.09145 -2.17343 0
M  V30 4867 H 451.271 -6.66086 -3.91854 0
M  V30 4868 H 449.616 -5.98676 -3.53003 0
M  V30 4869 H 452.807 -3.87717 -2.62284 0
M  V30 4870 H 452.98 -5.50473 -3.41881 0
M  V30 4871 N 446.386 1.0089 -1.21074 0
M  V30 4872 C 447.797 1.56056 -1.02486 0
M  V30 4873 C 448.148 1.91728 0.416506 0
M  V30 4874 O 447.273 1.73066 1.29912 0
M  V30 4875 C 447.868 2.83563 -1.85411 0
M  V30 4876 C 446.427 3.3523 -1.71166 0
M  V30 4877 C 445.574 2.0846 -1.82865 0
M  V30 4878 H 448.525 0.831818 -1.35154 0
M  V30 4879 H 448.546 3.55286 -1.36205 0
M  V30 4880 H 448.058 2.57569 -2.9031 0
M  V30 4881 H 446.159 3.66167 -0.689361 0
M  V30 4882 H 446.272 4.06913 -2.52901 0
M  V30 4883 H 444.636 2.21275 -1.26132 0
M  V30 4884 H 445.419 1.84883 -2.89263 0
M  V30 4885 N 447.864 1.01787 1.20321 0
M  V30 4886 C 449.089 0.727009 1.9424 0
M  V30 4887 C 449.514 -0.706179 1.74341 0
M  V30 4888 O 448.872 -1.48609 1.03852 0
M  V30 4889 C 448.92 1.06958 3.44372 0
M  V30 4890 O 448.024 0.181983 4.11998 0
M  V30 4891 H 447.365 0.269626 0.606793 0
M  V30 4892 H 449.895 1.36158 1.52716 0
M  V30 4893 H 449.905 1.02182 3.94997 0
M  V30 4894 H 448.58 2.11378 3.58179 0
M  V30 4895 H 447.157 0.287378 3.71791 0
M  V30 4896 N 449.342 -1.36122 0.79427 0
M  V30 4897 C 450.274 -2.28683 0.153903 0
M  V30 4898 C 451.287 -1.49707 -0.639669 0
M  V30 4899 O 452.476 -1.7209 -0.474054 0
M  V30 4900 C 449.576 -3.29202 -0.804921 0
M  V30 4901 C 448.749 -4.37358 -0.060366 0
M  V30 4902 C 447.808 -5.17811 -0.935849 0
M  V30 4903 O 446.834 -5.67853 -0.391309 0
M  V30 4904 N 448.036 -5.34721 -2.25951 0
M  V30 4905 H 450.801 -2.84278 0.949008 0
M  V30 4906 H 448.362 -1.4834 0.648611 0
M  V30 4907 H 450.354 -3.79914 -1.39455 0
M  V30 4908 H 448.924 -2.74212 -1.50088 0
M  V30 4909 H 448.144 -3.87746 0.710382 0
M  V30 4910 H 449.432 -5.06777 0.45324 0
M  V30 4911 H 448.83 -4.95687 -2.72601 0
M  V30 4912 H 447.387 -5.88657 -2.79867 0
M  V30 4913 N 450.82 -0.546701 -1.47814 0
M  V30 4914 C 451.73 0.21026 -2.33656 0
M  V30 4915 C 452.746 0.922413 -1.47538 0
M  V30 4916 O 453.922 0.893652 -1.80488 0
M  V30 4917 C 450.987 1.23348 -3.24016 0
M  V30 4918 C 450.048 0.529883 -4.26017 0
M  V30 4919 C 449.281 1.50435 -5.12059 0
M  V30 4920 O 449.504 2.73837 -5.00369 0
M  V30 4921 O 448.438 1.03459 -5.92942 0
M  V30 4922 H 452.264 -0.493605 -2.99662 0
M  V30 4923 H 449.849 -0.307427 -1.46203 0
M  V30 4924 H 451.731 1.82438 -3.79861 0
M  V30 4925 H 450.406 1.91945 -2.60651 0
M  V30 4926 H 449.313 -0.101948 -3.73961 0
M  V30 4927 H 450.646 -0.11445 -4.92067 0
M  V30 4928 N 452.299 1.55045 -0.282633 0
M  V30 4929 C 453.247 2.24254 0.617478 0
M  V30 4930 C 454.241 1.24215 1.15183 0
M  V30 4931 O 455.447 1.42123 1.10459 0
M  V30 4932 H 451.822 0.719801 0.217693 0
M  V30 4933 H 453.793 2.98398 0.0110076 0
M  V30 4934 C 452.542 2.98281 1.78672 0
M  V30 4935 H 451.865 3.75053 1.38475 0
M  V30 4936 H 453.305 3.50017 2.393 0
M  V30 4937 C 451.764 2.04184 2.67975 0
M  V30 4938 O 452.294 1.59792 3.6855 0
M  V30 4939 N 450.5 1.70526 2.35307 0
M  V30 4940 H 450.047 2.06821 1.53567 0
M  V30 4941 H 450.005 1.07839 2.95327 0
M  V30 4942 N 453.777 0.010035 1.57597 0
M  V30 4943 C 454.727 -0.986858 2.05536 0
M  V30 4944 C 455.711 -1.29711 0.952042 0
M  V30 4945 O 456.903 -1.28641 1.21575 0
M  V30 4946 C 454.032 -2.2756 2.57043 0
M  V30 4947 C 453.118 -1.99455 3.74271 0
M  V30 4948 N 453.509 -1.41546 4.85591 0
M  V30 4949 C 451.807 -2.29547 3.82393 0
M  V30 4950 C 452.508 -1.3014 5.66956 0
M  V30 4951 N 451.484 -1.79044 5.13268 0
M  V30 4952 H 455.286 -0.533778 2.89012 0
M  V30 4953 H 452.8 -0.195432 1.6122 0
M  V30 4954 H 454.797 -2.99829 2.89669 0
M  V30 4955 H 453.457 -2.73512 1.7499 0
M  V30 4956 H 454.468 -1.09294 5.06236 0
M  V30 4957 H 451.145 -2.78304 3.11213 0
M  V30 4958 H 452.535 -0.855237 6.66435 0
M  V30 4959 N 455.255 -1.55392 -0.262866 0
M  V30 4960 C 456.48 -1.80847 -1.01533 0
M  V30 4961 C 456.905 -0.584946 -1.78774 0
M  V30 4962 O 456.263 0.465701 -1.75217 0
M  V30 4963 C 456.311 -3.03866 -1.94159 0
M  V30 4964 O 455.415 -2.79662 -3.03089 0
M  V30 4965 H 454.756 -0.597441 -0.289759 0
M  V30 4966 H 457.286 -2.02553 -0.288698 0
M  V30 4967 H 457.296 -3.32872 -2.35924 0
M  V30 4968 H 455.971 -3.92564 -1.37354 0
M  V30 4969 H 454.548 -2.61781 -2.65566 0
M  V30 4970 N 456.733 0.527833 -1.48498 0
M  V30 4971 C 458.149 0.856571 -1.34666 0
M  V30 4972 C 458.349 1.98271 -0.35931 0
M  V30 4973 O 457.405 2.51551 0.218703 0
M  V30 4974 C 458.718 1.22207 -2.74747 0
M  V30 4975 C 460.266 1.33183 -2.83251 0
M  V30 4976 C 460.741 1.73075 -4.24039 0
M  V30 4977 N 462.232 1.80174 -4.26722 0
M  V30 4978 C 462.967 2.1243 -5.32598 0
M  V30 4979 N 462.463 2.43096 -6.4875 0
M  V30 4980 N 464.256 2.13454 -5.19994 0
M  V30 4981 H 456.407 -0.215174 -2.11307 0
M  V30 4982 H 458.67 -0.0336281 -0.947403 0
M  V30 4983 H 458.376 0.468195 -3.4857 0
M  V30 4984 H 458.25 2.17173 -3.08409 0
M  V30 4985 H 460.637 2.07647 -2.09683 0
M  V30 4986 H 460.718 0.363333 -2.53206 0
M  V30 4987 H 460.362 0.991712 -4.98124 0
M  V30 4988 H 460.292 2.70979 -4.51529 0
M  V30 4989 H 462.783 1.58744 -3.42942 0
M  V30 4990 H 463.096 2.6682 -7.25277 0
M  V30 4991 H 461.441 2.40611 -6.52021 0
M  V30 4992 H 464.632 1.88956 -4.28268 0
M  V30 4993 H 464.805 2.38261 -6.02608 0
M  V30 4994 N 458.211 1.37122 0.776871 0
M  V30 4995 C 459.46 1.31373 1.53049 0
M  V30 4996 C 459.773 -0.101016 1.95339 0
M  V30 4997 O 460.979 -0.280953 2.70042 0
M  V30 4998 C 459.435 2.30567 2.76346 0
M  V30 4999 C 459.043 3.77543 2.41175 0
M  V30 5000 C 460.787 2.33818 3.54301 0
M  V30 5001 C 458.694 4.68481 3.60943 0
M  V30 5002 H 457.624 0.488234 0.574581 0
M  V30 5003 H 460.275 1.62554 0.851372 0
M  V30 5004 H 458.657 1.92396 3.46121 0
M  V30 5005 H 459.831 4.24521 1.79216 0
M  V30 5006 H 458.146 3.77187 1.76405 0
M  V30 5007 H 460.743 2.98965 4.4331 0
M  V30 5008 H 461.086 1.3503 3.93793 0
M  V30 5009 H 461.619 2.7067 2.91518 0
M  V30 5010 H 458.358 5.68378 3.26537 0
M  V30 5011 H 457.878 4.2621 4.22025 0
M  V30 5012 H 459.557 4.85366 4.27819 0
M  V30 5013 N 459.689 -1.00246 1.21608 0
M  V30 5014 C 460.619 -2.10921 1.00172 0
M  V30 5015 C 461.6 -1.69938 -0.0741587 0
M  V30 5016 O 462.785 -1.94009 0.0861753 0
M  V30 5017 C 459.915 -3.42618 0.568355 0
M  V30 5018 C 458.869 -3.97407 1.58909 0
M  V30 5019 C 458.195 -5.25038 1.01187 0
M  V30 5020 C 459.495 -4.2918 2.97661 0
M  V30 5021 H 461.189 -2.29112 1.92739 0
M  V30 5022 H 458.735 -1.10101 0.928102 0
M  V30 5023 H 460.688 -4.19444 0.405555 0
M  V30 5024 H 459.412 -3.24227 -0.392961 0
M  V30 5025 H 458.071 -3.22703 1.73949 0
M  V30 5026 H 457.719 -5.02982 0.0421965 0
M  V30 5027 H 457.419 -5.62661 1.6937 0
M  V30 5028 H 458.943 -6.04507 0.860448 0
M  V30 5029 H 460.357 -4.96839 2.86049 0
M  V30 5030 H 458.754 -4.77952 3.6288 0
M  V30 5031 H 459.824 -3.3735 3.48315 0
M  V30 5032 N 461.167 -1.02423 -1.1978 0
M  V30 5033 C 462.578 -0.748389 -1.71044 0
M  V30 5034 C 462.929 0.732398 -1.82017 0
M  V30 5035 O 462.054 1.57116 -1.48807 0
M  V30 5036 C 462.649 -1.35187 -3.1066 0
M  V30 5037 C 461.208 -1.12472 -3.59203 0
M  V30 5038 C 460.355 -1.45283 -2.36195 0
M  V30 5039 H 463.306 -1.19275 -1.04686 0
M  V30 5040 H 463.327 -0.746408 -3.73107 0
M  V30 5041 H 462.839 -2.4296 -3.02642 0
M  V30 5042 H 460.94 -0.0649983 -3.72543 0
M  V30 5043 H 461.053 -1.81016 -4.43588 0
M  V30 5044 H 459.417 -0.872034 -2.39307 0
M  V30 5045 H 460.2 -2.54129 -2.30811 0
M  V30 5046 N 462.645 1.35699 -0.801477 0
M  V30 5047 C 463.555 2.33661 -0.209691 0
M  V30 5048 C 464.571 1.6162 0.644591 0
M  V30 5049 O 465.747 1.93529 0.557545 0
M  V30 5050 C 462.812 3.40816 0.636033 0
M  V30 5051 C 461.873 4.28639 -0.238147 0
M  V30 5052 C 461.106 5.30676 0.567307 0
M  V30 5053 O 461.329 5.41174 1.8024 0
M  V30 5054 O 460.263 6.01887 -0.0391336 0
M  V30 5055 H 464.089 2.8606 -1.01996 0
M  V30 5056 H 461.674 1.38379 -0.563164 0
M  V30 5057 H 463.556 4.06301 1.11791 0
M  V30 5058 H 462.231 2.90696 1.42399 0
M  V30 5059 H 461.138 3.66152 -0.767044 0
M  V30 5060 H 462.471 4.82143 -0.989915 0
M  V30 5061 N 464.123 0.554532 1.47522 0
M  V30 5062 C 465.071 -0.207765 2.3167 0
M  V30 5063 C 466.065 -0.911914 1.4276 0
M  V30 5064 O 467.271 -0.833504 1.59539 0
M  V30 5065 H 463.646 -0.0858726 0.747081 0
M  V30 5066 H 465.617 0.521178 2.93813 0
M  V30 5067 C 464.366 -1.2263 3.25357 0
M  V30 5068 H 463.689 -0.693887 3.93732 0
M  V30 5069 H 465.129 -1.73062 3.87073 0
M  V30 5070 C 463.588 -2.27278 2.4869 0
M  V30 5071 O 464.118 -3.34156 2.22941 0
M  V30 5072 N 462.324 -2.01134 2.09746 0
M  V30 5073 H 461.871 -1.14232 2.30887 0
M  V30 5074 H 461.829 -2.71369 1.58765 0
M  V30 5075 N 465.601 -1.54893 0.290851 0
M  V30 5076 C 466.848 -1.99933 -0.321391 0
M  V30 5077 C 467.176 -1.17927 -1.54672 0
M  V30 5078 O 466.431 -0.240902 -1.94212 0
M  V30 5079 C 466.73 -3.49815 -0.732397 0
M  V30 5080 C 466.396 -4.4921 0.390056 0
M  V30 5081 C 465.058 -4.76107 0.698223 0
M  V30 5082 C 467.41 -5.08453 1.14562 0
M  V30 5083 C 464.738 -5.59514 1.76526 0
M  V30 5084 C 467.09 -5.9302 2.2025 0
M  V30 5085 C 465.754 -6.18232 2.51684 0
M  V30 5086 H 465.024 -0.731608 -0.117605 0
M  V30 5087 H 467.671 -1.87107 0.407839 0
M  V30 5088 H 465.976 -3.60199 -1.54155 0
M  V30 5089 H 467.673 -3.82083 -1.21712 0
M  V30 5090 H 464.263 -4.28372 0.13976 0
M  V30 5091 H 468.447 -4.87683 0.920801 0
M  V30 5092 H 463.703 -5.77289 2.01364 0
M  V30 5093 H 467.877 -6.37955 2.7926 0
M  V30 5094 H 465.504 -6.82653 3.34499 0
M  V30 5095 N 467.08 -0.0183926 -1.57589 0
M  V30 5096 C 468.328 0.661253 -1.90976 0
M  V30 5097 C 468.649 1.73281 -0.894353 0
M  V30 5098 O 467.919 1.9579 0.0656788 0
M  V30 5099 H 466.499 0.247233 -0.704901 0
M  V30 5100 H 469.161 -0.0636639 -1.94796 0
M  V30 5101 H 468.257 1.12083 -2.9128 0
M  V30 5102 N 468.558 1.5553 0.254621 0
M  V30 5103 C 469.783 1.81383 1.00573 0
M  V30 5104 C 470.208 0.594419 1.78461 0
M  V30 5105 O 469.566 -0.456403 1.75461 0
M  V30 5106 C 469.614 3.04892 1.92545 0
M  V30 5107 O 468.718 2.81266 3.01601 0
M  V30 5108 H 468.059 0.598969 0.286587 0
M  V30 5109 H 470.589 2.02703 0.277952 0
M  V30 5110 H 470.599 3.34119 2.34155 0
M  V30 5111 H 469.274 3.93287 1.3527 0
M  V30 5112 H 467.851 2.63185 2.64174 0
M  V30 5113 N 470.036 -0.519951 1.48776 0
M  V30 5114 C 471.282 -1.27711 1.57536 0
M  V30 5115 C 471.615 -1.92547 0.252866 0
M  V30 5116 O 470.89 -1.7979 -0.742021 0
M  V30 5117 C 471.173 -2.35875 2.72094 0
M  V30 5118 C 471.026 -1.75664 4.1408 0
M  V30 5119 C 472.345 -3.37575 2.82367 0
M  V30 5120 H 469.464 -0.462971 0.573434 0
M  V30 5121 H 472.106 -0.578194 1.80989 0
M  V30 5122 H 470.256 -2.95488 2.52228 0
M  V30 5123 H 471.928 -1.20025 4.45412 0
M  V30 5124 H 470.171 -1.06154 4.20611 0
M  V30 5125 H 470.842 -2.54029 4.90075 0
M  V30 5126 H 473.318 -2.87929 3.00393 0
M  V30 5127 H 472.194 -4.1064 3.64233 0
M  V30 5128 H 472.455 -3.98743 1.90936 0
M  V30 5129 N 471.514 -1.37532 -0.769588 0
M  V30 5130 C 472.93 -1.18379 -1.07045 0
M  V30 5131 C 473.13 -0.0214312 -2.01489 0
M  V30 5132 O 472.186 0.637809 -2.44312 0
M  V30 5133 C 473.499 -2.50338 -1.66588 0
M  V30 5134 C 475.047 -2.56879 -1.78835 0
M  V30 5135 C 475.522 -3.88974 -2.41792 0
M  V30 5136 N 477.013 -3.90428 -2.4924 0
M  V30 5137 C 477.748 -4.89388 -2.98809 0
M  V30 5138 N 477.244 -5.98745 -3.48535 0
M  V30 5139 N 479.037 -4.76791 -2.97703 0
M  V30 5140 H 471.188 -2.11921 -0.142541 0
M  V30 5141 H 473.451 -0.939608 -0.125863 0
M  V30 5142 H 473.157 -3.35767 -1.0466 0
M  V30 5143 H 473.031 -2.67583 -2.65856 0
M  V30 5144 H 475.418 -1.71856 -2.39895 0
M  V30 5145 H 475.499 -2.43516 -0.783166 0
M  V30 5146 H 475.143 -4.74412 -1.81371 0
M  V30 5147 H 475.073 -3.99641 -3.4292 0
M  V30 5148 H 477.564 -3.11433 -2.14052 0
M  V30 5149 H 477.877 -6.70205 -3.84767 0
M  V30 5150 H 476.222 -6.02387 -3.46634 0
M  V30 5151 H 479.413 -3.90478 -2.58157 0
M  V30 5152 H 479.586 -5.54069 -3.36024 0
M  V30 5153 N 472.992 0.995999 -1.22138 0
M  V30 5154 C 474.217 1.77601 -1.0711 0
M  V30 5155 C 474.642 1.84339 0.374264 0
M  V30 5156 O 474 1.29359 1.27028 0
M  V30 5157 C 474.048 3.18897 -1.68336 0
M  V30 5158 O 473.152 4.01663 -0.934928 0
M  V30 5159 H 472.493 0.547011 -0.376397 0
M  V30 5160 H 475.023 1.25137 -1.6187 0
M  V30 5161 H 475.033 3.69539 -1.72931 0
M  V30 5162 H 473.708 3.13308 -2.73516 0
M  V30 5163 H 472.285 3.60204 -0.964751 0
M  V30 5164 N 474.47 1.03057 1.19235 0
M  V30 5165 C 475.402 0.570932 2.21975 0
M  V30 5166 C 476.415 -0.354088 1.58903 0
M  V30 5167 O 477.604 -0.150211 1.77867 0
M  V30 5168 C 474.704 -0.187152 3.38383 0
M  V30 5169 C 473.877 0.743231 4.31039 0
M  V30 5170 C 472.936 0.0302493 5.26191 0
M  V30 5171 O 471.962 0.657371 5.65391 0
M  V30 5172 N 473.164 -1.23991 5.67104 0
M  V30 5173 H 475.929 1.45456 2.62036 0
M  V30 5174 H 473.49 0.909807 1.33918 0
M  V30 5175 H 475.482 -0.673715 3.99053 0
M  V30 5176 H 474.052 -0.972205 2.97098 0
M  V30 5177 H 473.272 1.40985 3.68126 0
M  V30 5178 H 474.56 1.3755 4.89854 0
M  V30 5179 H 473.958 -1.77011 5.37293 0
M  V30 5180 H 472.515 -1.67093 6.30018 0
M  V30 5181 N 475.948 -1.35272 0.808662 0
M  V30 5182 C 476.878 -2.32315 0.234981 0
M  V30 5183 C 477.859 -1.57572 -0.64071 0
M  V30 5184 O 479.044 -1.8563 -0.570551 0
M  V30 5185 C 476.174 -3.41801 -0.615601 0
M  V30 5186 C 475.128 -4.27694 0.161767 0
M  V30 5187 C 474.454 -5.28519 -0.810649 0
M  V30 5188 C 475.754 -5.04231 1.36193 0
M  V30 5189 H 477.448 -2.80543 1.04575 0
M  V30 5190 H 474.994 -1.3488 0.504315 0
M  V30 5191 H 476.947 -4.08693 -1.02702 0
M  V30 5192 H 475.671 -2.92186 -1.45928 0
M  V30 5193 H 474.33 -3.62384 0.554382 0
M  V30 5194 H 473.978 -4.75171 -1.64988 0
M  V30 5195 H 473.678 -5.8686 -0.294822 0
M  V30 5196 H 475.202 -5.98283 -1.22023 0
M  V30 5197 H 476.616 -5.64058 1.02528 0
M  V30 5198 H 475.013 -5.72077 1.81239 0
M  V30 5199 H 476.083 -4.34753 2.14751 0
M  V30 5200 N 477.426 -0.562348 -1.47226 0
M  V30 5201 C 478.651 -0.0432632 -2.07355 0
M  V30 5202 C 479.076 1.24332 -1.41149 0
M  V30 5203 O 478.434 1.74603 -0.488226 0
M  V30 5204 C 478.482 0.130288 -3.60365 0
M  V30 5205 O 477.586 1.19166 -3.94808 0
M  V30 5206 H 476.927 -0.0536334 -0.66183 0
M  V30 5207 H 479.457 -0.779495 -1.89169 0
M  V30 5208 H 479.467 0.342881 -4.06557 0
M  V30 5209 H 478.142 -0.809389 -4.07948 0
M  V30 5210 H 476.719 0.959153 -3.60354 0
M  V30 5211 N 478.904 1.54736 -0.299062 0
M  V30 5212 C 480.129 2.04975 0.316254 0
M  V30 5213 C 480.554 1.17501 1.46885 0
M  V30 5214 O 479.912 0.178678 1.80417 0
M  V30 5215 C 479.96 3.52672 0.751997 0
M  V30 5216 O 479.064 3.68226 1.85697 0
M  V30 5217 H 478.405 0.661126 0.0617175 0
M  V30 5218 H 480.935 1.99805 -0.440341 0
M  V30 5219 H 480.945 3.94488 1.04133 0
M  V30 5220 H 479.62 4.158 -0.0911482 0
M  V30 5221 H 478.197 3.38316 1.56834 0
M  V30 5222 N 480.382 0.0267497 1.57577 0
M  V30 5223 C 481.607 -0.666227 1.96408 0
M  V30 5224 C 482.032 -1.65004 0.903071 0
M  V30 5225 O 481.39 -1.80787 -0.136263 0
M  V30 5226 C 481.438 -1.35101 3.34335 0
M  V30 5227 O 480.542 -2.46623 3.30531 0
M  V30 5228 H 479.883 -0.175206 0.640468 0
M  V30 5229 H 482.413 0.0878977 2.04411 0
M  V30 5230 H 482.423 -1.70834 3.70513 0
M  V30 5231 H 481.098 -0.629844 4.11103 0
M  V30 5232 H 479.675 -2.13019 3.06068 0
M  V30 5233 N 481.861 -1.55662 -0.24637 0
M  V30 5234 C 483.086 -1.81914 -0.996093 0
M  V30 5235 C 483.511 -0.603875 -1.78143 0
M  V30 5236 O 482.869 0.447091 -1.75701 0
M  V30 5237 C 482.917 -3.05908 -1.90925 0
M  V30 5238 O 482.021 -2.82861 -3.00105 0
M  V30 5239 H 481.362 -0.600481 -0.283406 0
M  V30 5240 H 483.892 -2.02848 -0.267199 0
M  V30 5241 H 483.902 -3.35356 -2.3238 0
M  V30 5242 H 482.577 -3.93999 -1.33183 0
M  V30 5243 H 481.154 -2.64583 -2.62775 0
M  V30 5244 N 483.339 0.512053 -1.4905 0
M  V30 5245 C 484.286 1.6148 -1.64902 0
M  V30 5246 C 485.256 1.58687 -0.490673 0
M  V30 5247 O 486.441 1.76842 -0.71636 0
M  V30 5248 C 483.581 2.99676 -1.71139 0
M  V30 5249 C 482.694 3.12568 -2.98203 0
M  V30 5250 C 481.829 4.4143 -2.95487 0
M  V30 5251 C 480.868 4.47916 -4.17179 0
M  V30 5252 N 480.005 5.68191 -4.12437 0
M  V30 5253 H 484.845 1.47271 -2.59066 0
M  V30 5254 H 482.382 0.716713 -1.28459 0
M  V30 5255 H 484.34 3.79761 -1.72736 0
M  V30 5256 H 482.97 3.12614 -0.804508 0
M  V30 5257 H 482.022 2.25618 -3.06269 0
M  V30 5258 H 483.334 3.1322 -3.88194 0
M  V30 5259 H 482.488 5.29825 -2.95585 0
M  V30 5260 H 481.227 4.43326 -2.03256 0
M  V30 5261 H 480.232 3.57925 -4.17337 0
M  V30 5262 H 481.457 4.47744 -5.1059 0
M  V30 5263 H 479.403 5.7095 -3.23036 0
M  V30 5264 H 479.32 5.70413 -4.96151 0
M  V30 5265 H 480.588 6.58823 -4.16621 0
M  V30 5266 N 484.817 1.37938 0.762283 0
M  V30 5267 C 486.064 1.33668 1.52115 0
M  V30 5268 C 486.392 -0.0759538 1.94352 0
M  V30 5269 O 485.647 -1.05121 1.6507 0
M  V30 5270 C 485.946 2.23042 2.79261 0
M  V30 5271 C 485.612 3.71159 2.56031 0
M  V30 5272 C 484.274 4.11523 2.49404 0
M  V30 5273 C 486.626 4.64955 2.35513 0
M  V30 5274 C 483.954 5.43784 2.20263 0
M  V30 5275 C 486.306 5.97464 2.07894 0
M  V30 5276 C 484.97 6.36922 1.99718 0
M  V30 5277 H 484.24 0.489127 0.556629 0
M  V30 5278 H 486.887 1.70224 0.877262 0
M  V30 5279 H 485.192 1.79512 3.48256 0
M  V30 5280 H 486.889 2.17047 3.37182 0
M  V30 5281 H 483.479 3.39153 2.62056 0
M  V30 5282 H 487.663 4.34623 2.39617 0
M  V30 5283 H 482.919 5.73307 2.12435 0
M  V30 5284 H 487.093 6.6969 1.91019 0
M  V30 5285 H 484.72 7.39331 1.76902 0
M  V30 5286 N 486.295 -0.989507 1.22664 0
M  V30 5287 C 487.544 -1.72375 1.04737 0
M  V30 5288 C 487.857 -1.91096 -0.417316 0
M  V30 5289 O 489.063 -2.6188 -0.716334 0
M  V30 5290 C 487.519 -3.10161 1.82561 0
M  V30 5291 C 487.127 -2.99358 3.333 0
M  V30 5292 C 488.871 -3.87607 1.73093 0
M  V30 5293 C 486.778 -4.32319 4.03552 0
M  V30 5294 H 485.708 -0.646326 0.388302 0
M  V30 5295 H 488.359 -1.10437 1.46546 0
M  V30 5296 H 486.741 -3.728 1.33552 0
M  V30 5297 H 487.915 -2.45863 3.89728 0
M  V30 5298 H 486.23 -2.35392 3.43481 0
M  V30 5299 H 488.827 -4.86025 2.22899 0
M  V30 5300 H 489.17 -4.10509 0.691976 0
M  V30 5301 H 489.703 -3.31652 2.19663 0
M  V30 5302 H 486.442 -4.14616 5.07714 0
M  V30 5303 H 485.962 -4.85714 3.51911 0
M  V30 5304 H 487.641 -5.01051 4.09337 0
M  V30 5305 N 487.773 -1.03688 -1.18687 0
M  V30 5306 C 489.184 -0.766488 -1.70241 0
M  V30 5307 C 489.535 0.713052 -1.82784 0
M  V30 5308 O 488.66 1.55529 -1.50465 0
M  V30 5309 C 489.255 -1.38475 -3.09209 0
M  V30 5310 C 487.814 -1.16276 -3.5799 0
M  V30 5311 C 486.961 -1.4778 -2.34641 0
M  V30 5312 H 489.912 -1.20378 -1.03415 0
M  V30 5313 H 489.933 -0.785939 -3.72295 0
M  V30 5314 H 489.445 -2.46157 -3.00048 0
M  V30 5315 H 487.546 -0.104508 -3.72453 0
M  V30 5316 H 487.659 -1.8571 -4.41643 0
M  V30 5317 H 486.023 -0.897366 -2.38368 0
M  V30 5318 H 486.806 -2.56562 -2.28102 0
M  V30 5319 N 489.251 1.34841 -0.815825 0
M  V30 5320 C 490.499 1.98107 -0.399744 0
M  V30 5321 C 490.82 1.65019 1.03894 0
M  V30 5322 O 490.09 0.937311 1.72021 0
M  V30 5323 H 488.67 0.732827 -0.144823 0
M  V30 5324 H 491.332 1.64599 -1.0437 0
M  V30 5325 H 490.428 3.07856 -0.512965 0
M  V30 5326 N 490.729 0.570148 1.46925 0
M  V30 5327 C 491.975 0.0510284 2.02736 0
M  V30 5328 C 492.308 -1.3006 1.44215 0
M  V30 5329 O 491.583 -1.84932 0.602521 0
M  V30 5330 C 491.866 -0.028215 3.60089 0
M  V30 5331 C 491.719 1.35142 4.29018 0
M  V30 5332 C 493.038 -0.735181 4.33916 0
M  V30 5333 H 490.157 0.0200178 0.736728 0
M  V30 5334 H 492.799 0.73493 1.75211 0
M  V30 5335 H 490.949 -0.610648 3.83671 0
M  V30 5336 H 492.621 1.97806 4.16738 0
M  V30 5337 H 490.864 1.9226 3.88868 0
M  V30 5338 H 491.535 1.24857 5.37694 0
M  V30 5339 H 494.011 -0.240519 4.15404 0
M  V30 5340 H 492.887 -0.759622 5.43618 0
M  V30 5341 H 493.148 -1.79397 4.04066 0
M  V30 5342 N 492.207 -1.54576 0.307264 0
M  V30 5343 C 493.618 -1.8579 -0.184121 0
M  V30 5344 C 493.969 -1.22914 -1.52927 0
M  V30 5345 O 493.094 -0.529126 -2.09831 0
M  V30 5346 C 493.689 -3.37081 -0.340862 0
M  V30 5347 C 492.248 -3.68304 -0.776465 0
M  V30 5348 C 491.395 -2.77076 0.111503 0
M  V30 5349 H 494.346 -1.49656 0.528078 0
M  V30 5350 H 494.367 -3.61922 -1.17443 0
M  V30 5351 H 493.879 -3.82815 0.638309 0
M  V30 5352 H 491.98 -3.28092 -1.76596 0
M  V30 5353 H 492.093 -4.75434 -0.591512 0
M  V30 5354 H 490.457 -2.51374 -0.410256 0
M  V30 5355 H 491.24 -3.25632 1.08714 0
M  V30 5356 N 493.685 -0.035106 -1.57561 0
M  V30 5357 C 494.913 0.652258 -1.9635 0
M  V30 5358 C 495.328 1.65317 -0.911897 0
M  V30 5359 O 494.685 1.82194 0.105657 0
M  V30 5360 C 494.736 1.35337 -3.35211 0
M  V30 5361 O 494.457 0.392548 -4.36338 0
M  V30 5362 C 495.958 2.13199 -3.88666 0
M  V30 5363 H 493.178 0.179444 -0.646561 0
M  V30 5364 H 495.722 -0.0966459 -2.04271 0
M  V30 5365 H 493.877 2.05362 -3.28489 0
M  V30 5366 H 494.291 0.891097 -5.16875 0
M  V30 5367 H 495.765 2.577 -4.88154 0
M  V30 5368 H 496.242 2.97353 -3.23231 0
M  V30 5369 H 496.848 1.48118 -3.98674 0
M  V30 5370 N 495.163 1.55791 0.238111 0
M  V30 5371 C 496.403 1.79801 0.972163 0
M  V30 5372 C 496.767 0.606027 1.82185 0
M  V30 5373 O 497.968 0.725079 2.58836 0
M  V30 5374 C 496.239 3.08608 1.80266 0
M  V30 5375 S 497.798 3.53872 2.59461 0
M  V30 5376 H 494.616 0.631418 0.326852 0
M  V30 5377 H 497.218 1.94031 0.239212 0
M  V30 5378 H 495.922 3.93419 1.1683 0
M  V30 5379 H 495.453 2.9714 2.57821 0
M  V30 5380 H 497.468 3.15899 3.82651 0
M  V30 5381 N 496.642 -0.504142 1.49319 0
M  V30 5382 C 497.889 -1.25846 1.58647 0
M  V30 5383 C 498.217 -1.92592 0.27177 0
M  V30 5384 O 497.472 -1.81167 -0.74007 0
M  V30 5385 C 497.771 -2.35021 2.69258 0
M  V30 5386 C 497.437 -1.85755 4.1086 0
M  V30 5387 C 496.099 -1.72038 4.49395 0
M  V30 5388 C 498.451 -1.48844 4.99495 0
M  V30 5389 C 495.779 -1.19783 5.74342 0
M  V30 5390 C 498.131 -0.980422 6.24956 0
M  V30 5391 C 496.795 -0.829622 6.62324 0
M  V30 5392 H 496.065 -0.460505 0.580531 0
M  V30 5393 H 498.712 -0.559716 1.83138 0
M  V30 5394 H 497.017 -3.10672 2.38726 0
M  V30 5395 H 498.714 -2.93083 2.73685 0
M  V30 5396 H 495.304 -1.9739 3.80441 0
M  V30 5397 H 499.488 -1.5829 4.70381 0
M  V30 5398 H 494.744 -1.06817 6.01997 0
M  V30 5399 H 498.918 -0.685608 6.93017 0
M  V30 5400 H 496.545 -0.42253 7.59025 0
M  V30 5401 N 498.12 -1.38341 -0.754957 0
M  V30 5402 C 499.03 -1.3769 -1.89944 0
M  V30 5403 C 500.046 -0.274194 -1.71826 0
M  V30 5404 O 501.222 -0.512391 -1.94773 0
M  V30 5405 C 498.287 -1.19938 -3.25293 0
M  V30 5406 C 497.348 -2.40001 -3.55946 0
M  V30 5407 C 496.581 -2.23087 -4.84838 0
M  V30 5408 O 496.804 -1.22386 -5.57116 0
M  V30 5409 O 495.738 -3.11646 -5.14937 0
M  V30 5410 H 499.564 -2.3412 -1.93446 0
M  V30 5411 H 497.149 -1.19246 -0.900044 0
M  V30 5412 H 499.031 -1.12093 -4.06218 0
M  V30 5413 H 497.706 -0.265919 -3.22606 0
M  V30 5414 H 496.613 -2.53421 -2.75188 0
M  V30 5415 H 497.946 -3.31973 -3.63394 0
M  V30 5416 N 499.598 0.982988 -1.23187 0
M  V30 5417 C 500.847 1.71817 -1.05649 0
M  V30 5418 C 501.16 1.91315 0.407176 0
M  V30 5419 O 502.366 2.62256 0.702436 0
M  V30 5420 C 500.822 3.09188 -1.84203 0
M  V30 5421 C 500.43 2.97586 -3.34882 0
M  V30 5422 C 502.174 3.86684 -1.75146 0
M  V30 5423 C 500.081 4.30173 -4.05839 0
M  V30 5424 H 499.011 0.644258 -0.391724 0
M  V30 5425 H 501.662 1.09659 -1.4713 0
M  V30 5426 H 500.044 3.72087 -1.35527 0
M  V30 5427 H 501.218 2.43793 -3.91026 0
M  V30 5428 H 499.533 2.33567 -3.44725 0
M  V30 5429 H 502.13 4.84836 -2.25473 0
M  V30 5430 H 502.473 4.10136 -0.713737 0
M  V30 5431 H 503.006 3.30482 -2.21419 0
M  V30 5432 H 499.745 4.11918 -5.09906 0
M  V30 5433 H 499.265 4.83841 -3.54482 0
M  V30 5434 H 500.944 4.98873 -4.11989 0
M  V30 5435 N 501.076 1.04316 1.18135 0
M  V30 5436 C 502.023 0.636398 2.21853 0
M  V30 5437 C 502.993 -0.357039 1.62217 0
M  V30 5438 O 504.178 -0.250453 1.89149 0
M  V30 5439 C 501.318 0.00812779 3.45099 0
M  V30 5440 C 500.431 1.04933 4.19062 0
M  V30 5441 C 499.566 0.389313 5.29771 0
M  V30 5442 C 498.605 1.41544 5.9551 0
M  V30 5443 N 497.742 0.78021 6.97751 0
M  V30 5444 H 502.582 1.52536 2.56002 0
M  V30 5445 H 500.119 0.76304 1.25762 0
M  V30 5446 H 502.077 -0.373497 4.15525 0
M  V30 5447 H 500.707 -0.844336 3.11562 0
M  V30 5448 H 499.759 1.54888 3.47439 0
M  V30 5449 H 501.071 1.82862 4.64072 0
M  V30 5450 H 500.225 -0.0463805 6.06682 0
M  V30 5451 H 498.964 -0.422038 4.8587 0
M  V30 5452 H 497.969 1.86124 5.17337 0
M  V30 5453 H 499.194 2.22854 6.41493 0
M  V30 5454 H 497.14 -0.0107899 6.55999 0
M  V30 5455 H 497.057 1.49716 7.41027 0
M  V30 5456 H 498.325 0.368996 7.78626 0
M  V30 5457 N 502.554 -1.34406 0.822964 0
M  V30 5458 C 503.965 -1.8069 0.469879 0
M  V30 5459 C 504.316 -1.68223 -1.00972 0
M  V30 5460 O 503.441 -1.22226 -1.78577 0
M  V30 5461 C 504.036 -3.28064 0.846118 0
M  V30 5462 C 502.595 -3.72428 0.545402 0
M  V30 5463 C 501.742 -2.56116 1.06301 0
M  V30 5464 H 504.693 -1.22153 1.01313 0
M  V30 5465 H 504.714 -3.80205 0.149922 0
M  V30 5466 H 504.226 -3.37107 1.92304 0
M  V30 5467 H 502.327 -3.68924 -0.522109 0
M  V30 5468 H 502.44 -4.66548 1.0895 0
M  V30 5469 H 500.804 -2.50048 0.484554 0
M  V30 5470 H 501.587 -2.67928 2.14638 0
M  V30 5471 N 504.032 -0.577932 -1.46621 0
M  V30 5472 C 504.942 0.160651 -2.34049 0
M  V30 5473 C 505.958 0.890911 -1.49462 0
M  V30 5474 O 507.134 0.855166 -1.82343 0
M  V30 5475 C 504.199 1.16447 -3.26559 0
M  V30 5476 C 503.26 0.4394 -4.27045 0
M  V30 5477 C 502.493 1.3954 -5.15135 0
M  V30 5478 O 502.716 2.63162 -5.06065 0
M  V30 5479 O 501.65 0.908585 -5.95003 0
M  V30 5480 H 505.476 -0.557057 -2.98547 0
M  V30 5481 H 503.061 -0.338369 -1.45518 0
M  V30 5482 H 504.943 1.7434 -3.83645 0
M  V30 5483 H 503.618 1.86373 -2.64663 0
M  V30 5484 H 502.525 -0.181247 -3.73661 0
M  V30 5485 H 503.858 -0.218799 -4.91713 0
M  V30 5486 N 505.51 1.54411 -0.315457 0
M  V30 5487 C 506.42 2.27737 0.56329 0
M  V30 5488 C 507.436 1.31787 1.13614 0
M  V30 5489 O 508.612 1.64791 1.15784 0
M  V30 5490 C 505.677 3.01478 1.71207 0
M  V30 5491 C 504.738 4.12997 1.17185 0
M  V30 5492 C 503.971 4.83212 2.26588 0
M  V30 5493 O 504.194 4.52884 3.46775 0
M  V30 5494 O 503.128 5.70299 1.92463 0
M  V30 5495 H 506.954 3.03683 -0.0319614 0
M  V30 5496 H 504.539 1.49178 -0.0814188 0
M  V30 5497 H 506.421 3.47683 2.38106 0
M  V30 5498 H 505.096 2.28414 2.29366 0
M  V30 5499 H 504.003 3.71159 0.468174 0
M  V30 5500 H 505.336 4.8808 0.635501 0
M  V30 5501 N 506.988 0.0434614 1.5754 0
M  V30 5502 C 507.936 -0.951465 2.1225 0
M  V30 5503 C 508.93 -1.3274 1.05245 0
M  V30 5504 O 510.136 -1.30795 1.23663 0
M  V30 5505 H 506.511 -0.324667 0.678303 0
M  V30 5506 H 508.482 -0.464855 2.94757 0
M  V30 5507 C 507.231 -2.21972 2.67626 0
M  V30 5508 H 506.554 -1.93923 3.4962 0
M  V30 5509 H 507.994 -2.89765 3.09536 0
M  V30 5510 C 506.453 -2.95919 1.61038 0
M  V30 5511 O 506.983 -3.8857 1.01862 0
M  V30 5512 N 505.189 -2.58511 1.32741 0
M  V30 5513 H 504.736 -1.83244 1.81051 0
M  V30 5514 H 504.694 -3.08296 0.616531 0
M  V30 5515 N 508.466 -1.55915 -0.229846 0
M  V30 5516 C 509.691 -1.8296 -0.976743 0
M  V30 5517 C 510.116 -0.622735 -1.77493 0
M  V30 5518 O 509.474 0.428431 -1.76165 0
M  V30 5519 C 509.522 -3.07916 -1.8767 0
M  V30 5520 O 508.626 -2.86028 -2.97088 0
M  V30 5521 H 507.967 -0.603453 -0.277021 0
M  V30 5522 H 510.497 -2.0312 -0.245669 0
M  V30 5523 H 510.507 -3.37802 -2.2881 0
M  V30 5524 H 509.182 -3.95389 -1.28996 0
M  V30 5525 H 507.759 -2.67355 -2.59954 0
M  V30 5526 N 509.944 0.496216 -1.49584 0
M  V30 5527 C 511.221 1.25755 -1.49816 0
M  V30 5528 C 511.601 2.09859 -0.228572 0
M  V30 5529 O 510.949 2.14449 0.788908 0
M  V30 5530 C 511.159 2.11017 -2.7798 0
M  V30 5531 C 512.507 2.70047 -3.27658 0
M  V30 5532 O 513.531 2.21281 -2.79129 0
M  V30 5533 O 512.39 3.58834 -4.1219 0
M  V30 5534 H 509.484 0.569322 -0.599834 0
M  V30 5535 H 512.03 0.510094 -1.61852 0
M  V30 5536 H 510.802 1.48879 -3.61871 0
M  V30 5537 H 510.425 2.92947 -2.68827 0
M  V30 5538 N 511.423 1.38739 0.74761 0
M  V30 5539 C 512.669 1.35475 1.50912 0
M  V30 5540 C 513.002 -0.0533093 1.94127 0
M  V30 5541 O 512.277 -1.01572 1.65871 0
M  V30 5542 C 512.56 2.31582 2.75757 0
M  V30 5543 C 512.413 3.81274 2.38642 0
M  V30 5544 C 513.732 2.25722 3.77806 0
M  V30 5545 H 510.851 0.493427 0.547447 0
M  V30 5546 H 513.493 1.69634 0.855823 0
M  V30 5547 H 511.643 2.02582 3.31501 0
M  V30 5548 H 513.315 4.20972 1.88626 0
M  V30 5549 H 511.558 3.98664 1.71025 0
M  V30 5550 H 512.229 4.4399 3.27989 0
M  V30 5551 H 514.705 2.51336 3.31616 0
M  V30 5552 H 513.581 2.95069 4.62845 0
M  V30 5553 H 513.842 1.25803 4.23823 0
M  V30 5554 N 512.901 -0.976442 1.23707 0
M  V30 5555 C 513.851 -2.0544 0.988851 0
M  V30 5556 C 514.835 -1.60762 -0.0665901 0
M  V30 5557 O 516.027 -1.76396 0.14604 0
M  V30 5558 C 513.156 -3.38258 0.586223 0
M  V30 5559 C 512.242 -3.89523 1.67728 0
M  V30 5560 N 512.633 -4.13823 2.90834 0
M  V30 5561 C 510.931 -4.18097 1.55277 0
M  V30 5562 C 511.632 -4.55731 3.61502 0
M  V30 5563 N 510.608 -4.60394 2.8903 0
M  V30 5564 H 514.41 -2.22191 1.92376 0
M  V30 5565 H 511.924 -1.15954 1.13704 0
M  V30 5566 H 513.921 -4.15075 0.389658 0
M  V30 5567 H 512.581 -3.22898 -0.341594 0
M  V30 5568 H 513.592 -4.01529 3.271 0
M  V30 5569 H 510.269 -4.11719 0.692351 0
M  V30 5570 H 511.659 -4.83018 4.67059 0
M  V30 5571 N 514.379 -1.04941 -1.1758 0
M  V30 5572 C 515.289 -0.658826 -2.25159 0
M  V30 5573 C 516.305 0.318941 -1.71052 0
M  V30 5574 O 517.481 0.171669 -2.00667 0
M  V30 5575 C 514.546 -0.0369522 -3.4668 0
M  V30 5576 C 513.607 -1.06484 -4.15884 0
M  V30 5577 C 512.84 -0.472551 -5.31604 0
M  V30 5578 O 513.063 0.718736 -5.65854 0
M  V30 5579 O 511.997 -1.20557 -5.89703 0
M  V30 5580 H 515.823 -1.55533 -2.60851 0
M  V30 5581 H 513.408 -0.820819 -1.24832 0
M  V30 5582 H 515.29 0.308784 -4.20267 0
M  V30 5583 H 513.965 0.833238 -3.12792 0
M  V30 5584 H 512.872 -1.46253 -3.44327 0
M  V30 5585 H 514.205 -1.9061 -4.53794 0
M  V30 5586 N 515.857 1.33968 -0.830081 0
M  V30 5587 C 516.787 2.31911 -0.271911 0
M  V30 5588 C 517.768 1.58571 0.61556 0
M  V30 5589 O 518.953 1.86514 0.540946 0
M  V30 5590 C 516.083 3.42737 0.561146 0
M  V30 5591 C 515.037 4.27383 -0.229789 0
M  V30 5592 C 514.363 5.29742 0.726463 0
M  V30 5593 C 515.663 5.02 -1.44197 0
M  V30 5594 H 517.357 2.78844 -1.09025 0
M  V30 5595 H 514.903 1.34061 -0.52571 0
M  V30 5596 H 516.856 4.10276 0.961867 0
M  V30 5597 H 515.58 2.94471 1.41261 0
M  V30 5598 H 514.239 3.61456 -0.611964 0
M  V30 5599 H 513.887 4.77736 1.57408 0
M  V30 5600 H 513.587 5.87255 0.20142 0
M  V30 5601 H 515.111 6.00149 1.12489 0
M  V30 5602 H 516.525 5.62355 -1.11488 0
M  V30 5603 H 514.922 5.69122 -1.90317 0
M  V30 5604 H 515.992 4.31281 -2.2164 0
M  V30 5605 N 517.335 0.585699 1.46312 0
M  V30 5606 C 518.751 0.247607 1.57668 0
M  V30 5607 C 518.951 -1.25007 1.58037 0
M  V30 5608 O 518.007 -2.03196 1.49893 0
M  V30 5609 C 519.32 0.899456 2.86933 0
M  V30 5610 C 520.868 0.873326 3.00569 0
M  V30 5611 C 521.343 1.50477 4.32574 0
M  V30 5612 N 522.834 1.46925 4.3928 0
M  V30 5613 C 523.569 1.92719 5.40044 0
M  V30 5614 N 523.065 2.46499 6.47464 0
M  V30 5615 N 524.858 1.83617 5.31264 0
M  V30 5616 H 517.009 1.55841 1.44317 0
M  V30 5617 H 519.272 0.651564 0.688599 0
M  V30 5618 H 518.978 1.95313 2.92482 0
M  V30 5619 H 518.852 0.409476 3.74971 0
M  V30 5620 H 521.239 -0.171736 2.946 0
M  V30 5621 H 521.32 1.40136 2.13999 0
M  V30 5622 H 520.964 2.54905 4.39302 0
M  V30 5623 H 520.894 0.951944 5.17924 0
M  V30 5624 H 523.385 1.07616 3.62253 0
M  V30 5625 H 523.698 2.79291 7.20567 0
M  V30 5626 H 522.043 2.50526 6.48276 0
M  V30 5627 H 525.234 1.41358 4.46246 0
M  V30 5628 H 525.407 2.19622 6.09648 0
M  V30 5629 N 518.813 -1.54241 0.323641 0
M  V30 5630 C 520.059 -2.00867 -0.279323 0
M  V30 5631 C 520.392 -1.21146 -1.5178 0
M  V30 5632 O 519.667 -0.29378 -1.92269 0
M  V30 5633 C 519.95 -3.54837 -0.613387 0
M  V30 5634 C 519.803 -4.45284 0.635803 0
M  V30 5635 C 521.122 -4.16186 -1.43099 0
M  V30 5636 H 518.241 -0.730177 -0.100049 0
M  V30 5637 H 520.883 -1.84829 0.440235 0
M  V30 5638 H 519.033 -3.68634 -1.22641 0
M  V30 5639 H 520.705 -4.43357 1.27406 0
M  V30 5640 H 518.948 -4.14956 1.26466 0
M  V30 5641 H 519.619 -5.5084 0.357597 0
M  V30 5642 H 522.095 -4.05964 -0.912814 0
M  V30 5643 H 520.971 -5.24031 -1.6335 0
M  V30 5644 H 521.232 -3.69516 -2.42715 0
M  V30 5645 N 520.291 -0.0518155 -1.57515 0
M  V30 5646 C 521.238 0.922352 -2.11569 0
M  V30 5647 C 522.208 1.30842 -1.02321 0
M  V30 5648 O 523.393 1.39778 -1.29872 0
M  V30 5649 C 520.533 2.19167 -2.6657 0
M  V30 5650 C 519.646 1.86003 -3.89906 0
M  V30 5651 C 518.781 3.07398 -4.33221 0
M  V30 5652 C 517.82 2.70158 -5.49255 0
M  V30 5653 N 516.957 3.84248 -5.8762 0
M  V30 5654 H 521.797 0.454506 -2.94514 0
M  V30 5655 H 519.334 0.212718 -1.45554 0
M  V30 5656 H 521.292 2.93443 -2.96559 0
M  V30 5657 H 519.922 2.63528 -1.86421 0
M  V30 5658 H 518.974 1.01874 -3.66505 0
M  V30 5659 H 520.286 1.54592 -4.74239 0
M  V30 5660 H 519.44 3.89972 -4.64765 0
M  V30 5661 H 518.179 3.41988 -3.477 0
M  V30 5662 H 517.184 1.86001 -5.17382 0
M  V30 5663 H 518.409 2.36759 -6.36492 0
M  V30 5664 H 516.355 4.18638 -5.05053 0
M  V30 5665 H 516.272 3.56538 -6.66646 0
M  V30 5666 H 517.54 4.6746 -6.2378 0
M  V30 5667 N 521.769 1.56035 0.221574 0
M  V30 5668 C 523.185 1.49026 0.571271 0
M  V30 5669 C 523.385 0.746912 1.87146 0
M  V30 5670 O 522.441 0.286566 2.50869 0
M  V30 5671 C 523.754 2.93579 0.650522 0
M  V30 5672 C 525.302 3.04099 0.741151 0
M  V30 5673 C 525.777 4.5001 0.851747 0
M  V30 5674 N 527.268 4.54053 0.915968 0
M  V30 5675 C 528.003 5.64232 1.02125 0
M  V30 5676 N 527.499 6.84164 1.09049 0
M  V30 5677 N 529.292 5.52084 1.05639 0
M  V30 5678 H 521.443 2.02791 -0.63162 0
M  V30 5679 H 523.706 0.921736 -0.221602 0
M  V30 5680 H 523.412 3.50912 -0.235253 0
M  V30 5681 H 523.286 3.45476 1.51413 0
M  V30 5682 H 525.673 2.4683 1.61737 0
M  V30 5683 H 525.754 2.55371 -0.148128 0
M  V30 5684 H 525.398 5.07896 -0.0200117 0
M  V30 5685 H 525.328 4.96444 1.75644 0
M  V30 5686 H 527.819 3.67683 0.872782 0
M  V30 5687 H 528.132 7.63883 1.1706 0
M  V30 5688 H 526.477 6.86875 1.05962 0
M  V30 5689 H 529.668 4.57317 0.998953 0
M  V30 5690 H 529.841 6.37983 1.13498 0
M  V30 5691 N 523.247 -0.488276 1.49845 0
M  V30 5692 C 524.472 -1.26997 1.63971 0
M  V30 5693 C 524.897 -1.85427 0.315994 0
M  V30 5694 O 524.255 -1.66475 -0.718032 0
M  V30 5695 C 524.303 -2.36689 2.72049 0
M  V30 5696 O 523.407 -3.40882 2.32107 0
M  V30 5697 H 522.748 -0.374376 0.548396 0
M  V30 5698 H 525.278 -0.583104 1.96115 0
M  V30 5699 H 525.288 -2.82262 2.94605 0
M  V30 5700 H 523.963 -1.93529 3.68129 0
M  V30 5701 H 522.54 -3.01139 2.19931 0
M  V30 5702 N 524.725 -1.39134 -0.740242 0
M  V30 5703 C 525.971 -1.36273 -1.50192 0
M  V30 5704 C 526.304 0.0430136 -1.94152 0
M  V30 5705 O 525.579 1.00691 -1.66408 0
M  V30 5706 C 525.862 -2.33041 -2.74525 0
M  V30 5707 C 525.715 -3.82535 -2.36617 0
M  V30 5708 C 527.034 -2.27723 -3.76604 0
M  V30 5709 H 524.153 -0.496323 -0.544823 0
M  V30 5710 H 526.795 -1.70085 -0.846815 0
M  V30 5711 H 524.945 -2.04337 -3.30422 0
M  V30 5712 H 526.617 -4.21967 -1.86391 0
M  V30 5713 H 524.86 -3.99565 -1.68909 0
M  V30 5714 H 525.531 -4.45723 -3.2563 0
M  V30 5715 H 528.007 -2.53091 -3.30279 0
M  V30 5716 H 526.883 -2.97519 -4.61274 0
M  V30 5717 H 527.144 -1.28049 -4.2315 0
M  V30 5718 N 526.204 0.969867 -1.24223 0
M  V30 5719 C 527.432 1.74756 -1.10761 0
M  V30 5720 C 527.847 1.85713 0.340041 0
M  V30 5721 O 527.204 1.34389 1.23474 0
M  V30 5722 C 527.255 3.16915 -1.73917 0
M  V30 5723 O 526.976 3.06511 -3.13021 0
M  V30 5724 C 528.477 4.11032 -1.66036 0
M  V30 5725 H 525.697 0.548092 -0.387087 0
M  V30 5726 H 528.241 1.2178 -1.64286 0
M  V30 5727 H 526.396 3.66884 -1.244 0
M  V30 5728 H 526.81 3.96079 -3.43834 0
M  V30 5729 H 528.284 5.08446 -2.14911 0
M  V30 5730 H 528.761 4.34785 -0.621159 0
M  V30 5731 H 529.367 3.66972 -2.14969 0
M  V30 5732 N 527.682 1.05563 1.17022 0
M  V30 5733 C 529.098 0.777684 1.39371 0
M  V30 5734 C 529.298 -0.626269 1.91521 0
M  V30 5735 O 528.354 -1.38806 2.10924 0
M  V30 5736 C 529.667 1.83642 2.3811 0
M  V30 5737 C 531.215 1.85907 2.51809 0
M  V30 5738 C 531.69 2.90813 3.53824 0
M  V30 5739 N 533.181 2.898 3.61345 0
M  V30 5740 C 533.916 3.6762 4.40049 0
M  V30 5741 N 533.412 4.55237 5.22237 0
M  V30 5742 N 535.205 3.56044 4.34959 0
M  V30 5743 H 527.356 1.9614 0.815047 0
M  V30 5744 H 529.619 0.849527 0.420722 0
M  V30 5745 H 529.325 2.84425 2.06871 0
M  V30 5746 H 529.199 1.6812 3.37662 0
M  V30 5747 H 531.586 0.857865 2.82356 0
M  V30 5748 H 531.667 2.05506 1.52318 0
M  V30 5749 H 531.311 3.91122 3.24015 0
M  V30 5750 H 531.241 2.68465 4.53028 0
M  V30 5751 H 533.732 2.26274 3.02669 0
M  V30 5752 H 534.045 5.11291 5.79484 0
M  V30 5753 H 532.39 4.59296 5.21605 0
M  V30 5754 H 535.581 2.86986 3.69806 0
M  V30 5755 H 535.754 4.16938 4.96051 0
M  V30 5756 N 529.16 -1.33526 0.837174 0
M  V30 5757 C 530.409 -1.97098 0.428387 0
M  V30 5758 C 530.722 -1.67062 -1.01734 0
M  V30 5759 O 531.928 -2.24235 -1.53072 0
M  V30 5760 C 530.384 -3.52725 0.715075 0
M  V30 5761 C 529.992 -3.9164 2.17537 0
M  V30 5762 C 531.736 -4.22857 0.373154 0
M  V30 5763 C 529.643 -5.40237 2.40619 0
M  V30 5764 H 528.573 -0.737589 0.156455 0
M  V30 5765 H 531.224 -1.52169 1.02552 0
M  V30 5766 H 529.606 -3.95971 0.0475904 0
M  V30 5767 H 530.78 -3.59456 2.88319 0
M  V30 5768 H 529.095 -3.34485 2.4801 0
M  V30 5769 H 531.692 -5.32133 0.523264 0
M  V30 5770 H 532.035 -4.10647 -0.683708 0
M  V30 5771 H 532.568 -3.85135 0.995801 0
M  V30 5772 H 529.307 -5.57449 3.44864 0
M  V30 5773 H 528.827 -5.73887 1.74396 0
M  V30 5774 H 530.506 -6.07102 2.23688 0
M  V30 5775 N 530.638 -0.59345 -1.46 0
M  V30 5776 C 531.585 0.133618 -2.30413 0
M  V30 5777 C 532.555 0.873736 -1.41262 0
M  V30 5778 O 533.74 0.862279 -1.70204 0
M  V30 5779 C 530.88 1.13434 -3.25924 0
M  V30 5780 C 529.993 0.39656 -4.30176 0
M  V30 5781 C 529.128 1.38575 -5.12806 0
M  V30 5782 C 528.167 0.634984 -6.08797 0
M  V30 5783 N 527.304 1.57276 -6.84258 0
M  V30 5784 H 532.144 -0.592252 -2.92055 0
M  V30 5785 H 529.681 -0.303874 -1.43927 0
M  V30 5786 H 531.639 1.72752 -3.79753 0
M  V30 5787 H 530.269 1.82779 -2.66067 0
M  V30 5788 H 529.321 -0.311861 -3.79119 0
M  V30 5789 H 530.633 -0.189869 -4.98438 0
M  V30 5790 H 529.787 2.05141 -5.70966 0
M  V30 5791 H 528.526 2.00611 -4.44529 0
M  V30 5792 H 527.531 -0.0443925 -5.49782 0
M  V30 5793 H 528.756 0.0198678 -6.79097 0
M  V30 5794 H 526.702 2.18103 -6.18682 0
M  V30 5795 H 526.619 1.03941 -7.48821 0
M  V30 5796 H 527.887 2.22844 -7.46968 0
M  V30 5797 N 532.116 1.54067 -0.331816 0
M  V30 5798 C 533.063 2.24623 0.530372 0
M  V30 5799 C 534.033 1.24009 1.10503 0
M  V30 5800 O 535.218 1.52712 1.14384 0
M  V30 5801 C 532.358 3.01374 1.68129 0
M  V30 5802 C 531.471 4.16821 1.13507 0
M  V30 5803 C 530.606 4.81085 2.25234 0
M  V30 5804 C 529.645 5.88621 1.67903 0
M  V30 5805 N 528.782 6.46713 2.73326 0
M  V30 5806 H 533.622 2.97898 -0.0778607 0
M  V30 5807 H 531.159 1.47014 -0.0501965 0
M  V30 5808 H 533.117 3.44125 2.35868 0
M  V30 5809 H 531.747 2.30419 2.26069 0
M  V30 5810 H 530.799 3.78796 0.348979 0
M  V30 5811 H 532.111 4.94203 0.675633 0
M  V30 5812 H 531.265 5.26846 3.00862 0
M  V30 5813 H 530.004 4.03102 2.74518 0
M  V30 5814 H 529.009 5.42254 0.907773 0
M  V30 5815 H 530.234 6.68506 1.19487 0
M  V30 5816 H 528.18 5.71599 3.21886 0
M  V30 5817 H 528.097 7.19532 2.3197 0
M  V30 5818 H 529.365 6.97129 3.48758 0
M  V30 5819 N 533.594 0.0601682 1.57485 0
M  V30 5820 C 535.01 -0.296422 1.56823 0
M  V30 5821 C 535.21 -1.70831 1.0686 0
M  V30 5822 O 534.266 -2.4174 0.729245 0
M  V30 5823 C 535.579 -0.116681 3.00474 0
M  V30 5824 C 537.127 -0.187103 3.1244 0
M  V30 5825 C 537.602 -0.035783 4.57986 0
M  V30 5826 N 539.093 -0.0917676 4.63109 0
M  V30 5827 C 539.828 0.00107251 5.734 0
M  V30 5828 N 539.324 0.146773 6.92645 0
M  V30 5829 N 541.117 -0.0551577 5.62073 0
M  V30 5830 H 533.268 0.983055 1.88281 0
M  V30 5831 H 535.531 0.382386 0.867459 0
M  V30 5832 H 535.237 0.85712 3.41096 0
M  V30 5833 H 535.111 -0.873929 3.66936 0
M  V30 5834 H 537.498 -1.15138 2.71712 0
M  V30 5835 H 537.579 0.601052 2.48638 0
M  V30 5836 H 537.223 0.925212 4.99402 0
M  V30 5837 H 537.153 -0.843196 5.19806 0
M  V30 5838 H 539.644 -0.203261 3.77353 0
M  V30 5839 H 539.957 0.210076 7.72514 0
M  V30 5840 H 538.302 0.181979 6.94762 0
M  V30 5841 H 541.493 -0.167605 4.678 0
M  V30 5842 H 541.666 0.020652 6.47997 0
M  V30 5843 N 535.072 -1.5615 -0.213296 0
M  V30 5844 C 536.297 -1.83986 -0.957282 0
M  V30 5845 C 536.722 -0.641526 -1.76822 0
M  V30 5846 O 536.08 0.409722 -1.7661 0
M  V30 5847 C 536.128 -3.09889 -1.84393 0
M  V30 5848 O 535.232 -2.89163 -2.94038 0
M  V30 5849 H 534.573 -0.606357 -0.270605 0
M  V30 5850 H 537.103 -2.03369 -0.224111 0
M  V30 5851 H 537.113 -3.40209 -2.25215 0
M  V30 5852 H 535.788 -3.96735 -1.24795 0
M  V30 5853 H 534.365 -2.70097 -2.57103 0
M  V30 5854 N 536.55 0.480323 -1.50102 0
M  V30 5855 C 537.966 0.813295 -1.37323 0
M  V30 5856 C 538.166 1.97027 -0.422206 0
M  V30 5857 O 537.222 2.5212 0.138563 0
M  V30 5858 C 538.535 1.13404 -2.78496 0
M  V30 5859 C 540.083 1.24104 -2.87345 0
M  V30 5860 C 540.558 1.59497 -4.29331 0
M  V30 5861 N 542.049 1.66507 -4.32238 0
M  V30 5862 C 542.784 1.95378 -5.39087 0
M  V30 5863 N 542.28 2.22333 -6.56155 0
M  V30 5864 N 544.073 1.96803 -5.26522 0
M  V30 5865 H 536.224 -0.282291 -2.10516 0
M  V30 5866 H 538.487 -0.063752 -0.945854 0
M  V30 5867 H 538.193 0.357064 -3.49883 0
M  V30 5868 H 538.067 2.07251 -3.15162 0
M  V30 5869 H 540.454 2.00871 -2.16183 0
M  V30 5870 H 540.535 0.282593 -2.54234 0
M  V30 5871 H 540.179 0.832736 -5.01027 0
M  V30 5872 H 540.109 2.56477 -4.59921 0
M  V30 5873 H 542.6 1.47753 -3.47818 0
M  V30 5874 H 542.913 2.43611 -7.33399 0
M  V30 5875 H 541.258 2.19745 -6.59346 0
M  V30 5876 H 544.449 1.75235 -4.34062 0
M  V30 5877 H 544.622 2.18969 -6.09883 0
M  V30 5878 N 538.028 1.39524 0.732853 0
M  V30 5879 C 539.253 1.40329 1.52717 0
M  V30 5880 C 539.678 0.000286574 1.881 0
M  V30 5881 O 539.036 -0.987262 1.52062 0
M  V30 5882 C 539.084 2.28464 2.78992 0
M  V30 5883 O 538.188 1.716 3.75003 0
M  V30 5884 H 537.529 0.47778 0.461109 0
M  V30 5885 H 540.059 1.83546 0.903996 0
M  V30 5886 H 540.069 2.43051 3.27705 0
M  V30 5887 H 538.744 3.30425 2.52572 0
M  V30 5888 H 537.321 1.66267 3.33781 0
M  V30 5889 N 539.506 -0.963266 1.24736 0
M  V30 5890 C 540.752 -1.70933 1.09131 0
M  V30 5891 C 541.085 -1.90676 -0.368273 0
M  V30 5892 O 540.36 -1.47147 -1.27193 0
M  V30 5893 C 540.643 -3.09744 1.83658 0
M  V30 5894 C 540.496 -2.97465 3.37394 0
M  V30 5895 C 541.815 -4.09483 1.61282 0
M  V30 5896 H 538.934 -0.620398 0.397838 0
M  V30 5897 H 541.576 -1.12028 1.53459 0
M  V30 5898 H 539.726 -3.60031 1.4598 0
M  V30 5899 H 541.398 -2.54571 3.84696 0
M  V30 5900 H 539.641 -2.33576 3.65547 0
M  V30 5901 H 540.312 -3.95822 3.84745 0
M  V30 5902 H 542.788 -3.68073 1.94066 0
M  V30 5903 H 541.664 -5.04666 2.15878 0
M  V30 5904 H 541.925 -4.38639 0.552102 0
M  V30 5905 N 540.985 -1.06182 -1.16461 0
M  V30 5906 C 542.232 -0.777863 -1.86964 0
M  V30 5907 C 542.56 0.695602 -1.81636 0
M  V30 5908 O 541.815 1.52532 -1.22607 0
M  V30 5909 C 542.114 -1.21633 -3.36066 0
M  V30 5910 C 541.78 -2.69371 -3.61594 0
M  V30 5911 C 540.442 -3.09727 -3.6827 0
M  V30 5912 C 542.794 -3.64791 -3.7226 0
M  V30 5913 C 540.122 -4.44345 -3.83112 0
M  V30 5914 C 542.474 -4.99155 -3.88623 0
M  V30 5915 C 541.138 -5.39149 -3.93541 0
M  V30 5916 H 540.408 -0.28464 -0.68415 0
M  V30 5917 H 543.055 -1.33071 -1.37711 0
M  V30 5918 H 541.36 -0.582651 -3.87443 0
M  V30 5919 H 543.057 -0.973682 -3.88999 0
M  V30 5920 H 539.647 -2.37124 -3.57029 0
M  V30 5921 H 543.831 -3.34746 -3.66413 0
M  V30 5922 H 539.087 -4.74819 -3.85172 0
M  V30 5923 H 543.261 -5.72976 -3.95817 0
M  V30 5924 H 540.888 -6.43464 -4.04794 0
M  V30 5925 N 542.463 1.3308 -0.844243 0
M  V30 5926 C 543.693 2.01515 -0.455541 0
M  V30 5927 C 544.101 1.63655 0.949406 0
M  V30 5928 O 543.444 0.84848 1.62931 0
M  V30 5929 C 543.506 3.55967 -0.502801 0
M  V30 5930 C 543.17 4.17222 -1.86481 0
M  V30 5931 C 544.167 4.36205 -2.8288 0
M  V30 5932 C 541.852 4.53528 -2.15911 0
M  V30 5933 C 543.846 4.90649 -4.06869 0
M  V30 5934 C 541.533 5.07679 -3.40155 0
M  V30 5935 C 542.531 5.26186 -4.35451 0
M  V30 5936 O 542.219 5.79183 -5.57496 0
M  V30 5937 H 541.951 0.65199 -0.178565 0
M  V30 5938 H 544.505 1.70867 -1.1399 0
M  V30 5939 H 542.735 3.85965 0.23836 0
M  V30 5940 H 544.424 4.05688 -0.131169 0
M  V30 5941 H 545.19 4.085 -2.61444 0
M  V30 5942 H 541.069 4.38414 -1.42528 0
M  V30 5943 H 544.613 5.0501 -4.81259 0
M  V30 5944 H 540.51 5.34815 -3.61446 0
M  V30 5945 H 541.278 5.97591 -5.5931 0
M  V30 5946 N 543.941 0.601185 1.45683 0
M  V30 5947 C 545.357 0.264315 1.57396 0
M  V30 5948 C 545.557 -1.23324 1.59353 0
M  V30 5949 O 544.613 -2.01594 1.52039 0
M  V30 5950 C 545.926 0.929839 2.85962 0
M  V30 5951 C 547.474 0.905156 2.99626 0
M  V30 5952 C 547.949 1.55057 4.30954 0
M  V30 5953 N 549.44 1.51576 4.37697 0
M  V30 5954 C 550.175 1.98436 5.37969 0
M  V30 5955 N 549.671 2.53352 6.44813 0
M  V30 5956 N 551.464 1.89242 5.29286 0
M  V30 5957 H 543.615 1.57363 1.42656 0
M  V30 5958 H 545.878 0.658831 0.681649 0
M  V30 5959 H 545.584 1.98404 2.90394 0
M  V30 5960 H 545.458 0.449224 3.74515 0
M  V30 5961 H 547.845 -0.14048 2.94765 0
M  V30 5962 H 547.926 1.42397 2.12501 0
M  V30 5963 H 547.57 2.5955 4.36573 0
M  V30 5964 H 547.5 1.00682 5.16886 0
M  V30 5965 H 549.991 1.11452 3.61091 0
M  V30 5966 H 550.304 2.86918 7.17564 0
M  V30 5967 H 548.649 2.57388 6.45582 0
M  V30 5968 H 551.84 1.46083 4.44722 0
M  V30 5969 H 552.013 2.26075 6.07284 0
M  V30 5970 N 545.419 -1.53889 0.339982 0
M  V30 5971 C 546.349 -2.27843 -0.510856 0
M  V30 5972 C 547.33 -1.29267 -1.10563 0
M  V30 5973 O 548.515 -1.58104 -1.12768 0
M  V30 5974 C 545.645 -3.04857 -1.66372 0
M  V30 5975 C 544.599 -4.10907 -1.19746 0
M  V30 5976 C 543.925 -4.75855 -2.43857 0
M  V30 5977 C 545.225 -5.21435 -0.300501 0
M  V30 5978 H 546.919 -2.99212 0.106067 0
M  V30 5979 H 544.465 -1.43904 0.0524533 0
M  V30 5980 H 546.418 -3.5533 -2.26537 0
M  V30 5981 H 545.142 -2.31133 -2.30749 0
M  V30 5982 H 543.801 -3.61342 -0.618654 0
M  V30 5983 H 543.449 -3.9873 -3.06633 0
M  V30 5984 H 543.149 -5.47502 -2.13343 0
M  V30 5985 H 544.673 -5.2911 -3.04754 0
M  V30 5986 H 546.087 -5.67565 -0.80889 0
M  V30 5987 H 544.484 -6.00036 -0.0874076 0
M  V30 5988 H 545.554 -4.80328 0.664321 0
M  V30 5989 N 546.897 -0.0685191 -1.57451 0
M  V30 5990 C 548.125 0.610462 -1.97689 0
M  V30 5991 C 548.54 1.63346 -0.946758 0
M  V30 5992 O 547.897 1.82377 0.0669868 0
M  V30 5993 C 547.948 1.28196 -3.38006 0
M  V30 5994 O 547.669 0.299906 -4.37072 0
M  V30 5995 C 549.17 2.04907 -3.931 0
M  V30 5996 H 546.39 0.165689 -0.650222 0
M  V30 5997 H 548.934 -0.139953 -2.04021 0
M  V30 5998 H 547.089 1.98348 -3.32771 0
M  V30 5999 H 547.503 0.78126 -5.18649 0
M  V30 6000 H 548.977 2.47287 -4.93511 0
M  V30 6001 H 549.454 2.9043 -3.29465 0
M  V30 6002 H 550.06 1.39629 -4.01726 0
M  V30 6003 N 548.375 1.56261 0.205012 0
M  V30 6004 C 549.624 1.79236 0.925058 0
M  V30 6005 C 549.937 0.640011 1.84833 0
M  V30 6006 O 551.143 0.753809 2.60826 0
M  V30 6007 C 549.599 3.17475 1.69522 0
M  V30 6008 C 549.207 4.40482 0.817269 0
M  V30 6009 C 550.951 3.49766 2.4055 0
M  V30 6010 C 548.858 5.69744 1.58573 0
M  V30 6011 H 547.788 0.668287 0.349153 0
M  V30 6012 H 550.439 1.82629 0.178544 0
M  V30 6013 H 548.821 3.08304 2.48526 0
M  V30 6014 H 549.995 4.60752 0.0665988 0
M  V30 6015 H 548.31 4.15827 0.218316 0
M  V30 6016 H 550.907 4.43573 2.98575 0
M  V30 6017 H 551.25 2.73041 3.14252 0
M  V30 6018 H 551.783 3.60341 1.68522 0
M  V30 6019 H 548.522 6.49407 0.891679 0
M  V30 6020 H 548.042 5.53509 2.31059 0
M  V30 6021 H 549.721 6.1051 2.14212 0
M  V30 6022 N 549.853 -0.472356 1.50355 0
M  V30 6023 C 550.783 -1.57859 1.72055 0
M  V30 6024 C 551.764 -1.60283 0.569505 0
M  V30 6025 O 552.949 -1.7657 0.808503 0
M  V30 6026 C 550.079 -2.96191 1.81351 0
M  V30 6027 C 549.033 -3.08633 2.96529 0
M  V30 6028 C 548.359 -4.486 2.90968 0
M  V30 6029 C 549.659 -2.85969 4.37057 0
M  V30 6030 H 551.353 -1.39953 2.64676 0
M  V30 6031 H 548.899 -0.671846 1.27367 0
M  V30 6032 H 550.852 -3.73507 1.95117 0
M  V30 6033 H 549.576 -3.15251 0.853502 0
M  V30 6034 H 548.235 -2.33749 2.82413 0
M  V30 6035 H 547.883 -4.64577 1.92815 0
M  V30 6036 H 547.583 -4.57861 3.68289 0
M  V30 6037 H 549.107 -5.27938 3.0678 0
M  V30 6038 H 550.521 -3.53036 4.51706 0
M  V30 6039 H 548.918 -3.06677 5.15819 0
M  V30 6040 H 549.988 -1.81838 4.49514 0
M  V30 6041 N 551.331 -1.39911 -0.725443 0
M  V30 6042 C 552.58 -1.36963 -1.48068 0
M  V30 6043 C 552.893 0.0284478 -1.95579 0
M  V30 6044 O 554.099 0.180535 -2.70899 0
M  V30 6045 C 552.555 -2.40664 -2.67598 0
M  V30 6046 C 552.163 -3.86234 -2.26997 0
M  V30 6047 C 553.907 -2.46807 -3.45379 0
M  V30 6048 C 551.814 -4.81554 -3.43307 0
M  V30 6049 H 550.744 -0.509223 -0.556065 0
M  V30 6050 H 553.395 -1.65602 -0.790454 0
M  V30 6051 H 551.777 -2.05109 -3.38742 0
M  V30 6052 H 552.951 -4.3088 -1.63337 0
M  V30 6053 H 551.266 -3.83475 -1.62284 0
M  V30 6054 H 553.863 -3.15213 -4.31909 0
M  V30 6055 H 554.206 -1.49552 -3.8851 0
M  V30 6056 H 554.739 -2.81303 -2.81271 0
M  V30 6057 H 551.478 -5.80106 -3.05217 0
M  V30 6058 H 550.998 -4.4158 -4.05915 0
M  V30 6059 H 552.677 -5.0091 -4.0951 0
M  V30 6060 N 552.809 0.956637 -1.25245 0
M  V30 6061 C 553.739 2.07058 -1.07931 0
M  V30 6062 C 554.72 1.70096 0.0110361 0
M  V30 6063 O 555.905 1.93555 -0.158121 0
M  V30 6064 C 553.035 3.40272 -0.695124 0
M  V30 6065 C 551.989 3.91235 -1.73549 0
M  V30 6066 C 551.315 5.20921 -1.20604 0
M  V30 6067 C 552.615 4.17837 -3.13385 0
M  V30 6068 H 554.309 2.218 -2.01109 0
M  V30 6069 H 551.855 1.06581 -0.968326 0
M  V30 6070 H 553.808 4.1765 -0.560949 0
M  V30 6071 H 552.532 3.25462 0.272355 0
M  V30 6072 H 551.191 3.16025 -1.85807 0
M  V30 6073 H 550.839 5.02479 -0.228846 0
M  V30 6074 H 550.539 5.55987 -1.90136 0
M  V30 6075 H 552.063 6.00897 -1.08421 0
M  V30 6076 H 553.477 4.8588 -3.04292 0
M  V30 6077 H 551.874 4.64154 -3.80369 0
M  V30 6078 H 552.944 3.2419 -3.60595 0
M  V30 6079 N 554.287 1.06798 1.15896 0
M  V30 6080 C 555.533 0.788934 1.86825 0
M  V30 6081 C 555.866 -0.683084 1.8179 0
M  V30 6082 O 555.141 -1.50086 1.23711 0
M  V30 6083 C 555.424 1.29065 3.36176 0
M  V30 6084 C 555.277 2.8268 3.49874 0
M  V30 6085 C 556.596 0.902655 4.30744 0
M  V30 6086 H 553.715 0.288066 0.678371 0
M  V30 6087 H 556.357 1.32479 1.36195 0
M  V30 6088 H 554.507 0.834806 3.79425 0
M  V30 6089 H 556.179 3.36511 3.15528 0
M  V30 6090 H 554.422 3.21157 2.91617 0
M  V30 6091 H 555.093 3.12852 4.54783 0
M  V30 6092 H 557.569 1.29535 3.95424 0
M  V30 6093 H 556.445 1.28111 5.3374 0
M  V30 6094 H 556.706 -0.191951 4.41683 0
M  V30 6095 N 555.766 -1.3263 0.851289 0
M  V30 6096 C 557.013 -1.97368 0.453023 0
M  V30 6097 C 557.341 -1.67384 -0.990596 0
M  V30 6098 O 556.596 -0.952665 -1.70947 0
M  V30 6099 C 556.895 -3.51713 0.635015 0
M  V30 6100 C 556.561 -4.01676 2.04859 0
M  V30 6101 C 555.223 -4.15031 2.43522 0
M  V30 6102 C 557.575 -4.28206 2.97135 0
M  V30 6103 C 554.903 -4.52257 3.73739 0
M  V30 6104 C 557.255 -4.66889 4.26846 0
M  V30 6105 C 555.919 -4.7845 4.65448 0
M  V30 6106 H 555.189 -0.722219 0.165773 0
M  V30 6107 H 557.836 -1.58092 1.0807 0
M  V30 6108 H 556.141 -3.91726 -0.0759081 0
M  V30 6109 H 557.838 -3.99823 0.306964 0
M  V30 6110 H 554.428 -3.91764 1.73836 0
M  V30 6111 H 558.612 -4.174 2.68498 0
M  V30 6112 H 553.868 -4.59402 4.03435 0
M  V30 6113 H 558.042 -4.86372 4.98413 0
M  V30 6114 H 555.669 -5.07052 5.66395 0
M  V30 6115 N 557.244 -0.608902 -1.45362 0
M  V30 6116 C 558.207 0.0992563 -2.28985 0
M  V30 6117 C 559.207 0.793841 -1.39838 0
M  V30 6118 O 560.397 0.641804 -1.61946 0
M  V30 6119 C 557.529 1.15073 -3.20891 0
M  V30 6120 H 558.722 -0.635964 -2.93079 0
M  V30 6121 H 556.275 -0.368007 -1.51906 0
M  V30 6122 H 557.01 1.91667 -2.616 0
M  V30 6123 H 556.795 0.656867 -3.86559 0
M  V30 6124 H 558.285 1.64665 -3.83765 0
M  V30 6125 N 558.722 1.53707 -0.348139 0
M  V30 6126 C 559.968 2.01286 0.247332 0
M  V30 6127 C 560.301 1.23546 1.49834 0
M  V30 6128 O 559.576 0.324331 1.91777 0
M  V30 6129 C 559.859 3.55768 0.556858 0
M  V30 6130 C 559.712 4.44216 -0.706564 0
M  V30 6131 C 561.031 4.1841 1.3646 0
M  V30 6132 H 558.15 0.731677 0.0884201 0
M  V30 6133 H 560.792 1.84106 -0.469584 0
M  V30 6134 H 558.942 3.70539 1.16761 0
M  V30 6135 H 560.614 4.41274 -1.34444 0
M  V30 6136 H 558.857 4.12892 -1.33052 0
M  V30 6137 H 559.528 5.50202 -0.445186 0
M  V30 6138 H 562.004 4.07365 0.848113 0
M  V30 6139 H 560.88 5.26563 1.54992 0
M  V30 6140 H 561.141 3.7333 2.36805 0
M  V30 6141 N 560.2 0.0768682 1.57412 0
M  V30 6142 C 561.425 -0.603404 1.98428 0
M  V30 6143 C 561.85 -1.62047 0.955108 0
M  V30 6144 O 561.208 -1.81129 -0.0786778 0
M  V30 6145 C 561.256 -1.24396 3.38464 0
M  V30 6146 O 560.36 -2.35982 3.3821 0
M  V30 6147 H 559.701 -0.154741 0.645718 0
M  V30 6148 H 562.231 0.152885 2.04028 0
M  V30 6149 H 562.241 -1.5896 3.7576 0
M  V30 6150 H 560.916 -0.498735 4.12899 0
M  V30 6151 H 559.493 -2.03173 3.1269 0
M  V30 6152 N 561.678 -1.56367 -0.196722 0
M  V30 6153 C 562.924 -1.81698 -0.914182 0
M  V30 6154 C 563.279 -0.65367 -1.80956 0
M  V30 6155 O 562.572 0.351224 -1.88353 0
M  V30 6156 C 562.766 -3.10663 -1.767 0
M  V30 6157 C 562.595 -4.39428 -0.955689 0
M  V30 6158 C 561.365 -5.01221 -0.64076 0
M  V30 6159 C 563.563 -5.1337 -0.309165 0
M  V30 6160 N 561.545 -6.13608 0.189358 0
M  V30 6161 C 562.916 -6.18815 0.383225 0
M  V30 6162 C 564.971 -4.97393 -0.224726 0
M  V30 6163 C 563.674 -7.10015 1.15201 0
M  V30 6164 C 565.7 -5.89014 0.530658 0
M  V30 6165 C 565.062 -6.93903 1.2115 0
M  V30 6166 H 561.161 -0.716203 -0.31397 0
M  V30 6167 H 563.745 -1.93838 -0.18304 0
M  V30 6168 H 561.916 -2.99762 -2.46976 0
M  V30 6169 H 563.648 -3.24088 -2.42382 0
M  V30 6170 H 560.403 -4.63669 -0.96479 0
M  V30 6171 H 560.827 -6.74389 0.593979 0
M  V30 6172 H 565.469 -4.16331 -0.736754 0
M  V30 6173 H 563.187 -7.9054 1.67547 0
M  V30 6174 H 566.773 -5.78726 0.597326 0
M  V30 6175 H 565.653 -7.63576 1.78665 0
M  V30 6176 N 563.156 0.464375 -1.50603 0
M  V30 6177 C 564.089 1.58052 -1.64605 0
M  V30 6178 C 565.067 1.54914 -0.494016 0
M  V30 6179 O 566.251 1.74438 -0.714393 0
M  V30 6180 C 563.378 2.96634 -1.63481 0
M  V30 6181 C 562.424 3.17901 -2.84325 0
M  V30 6182 S 563.257 2.97083 -4.45536 0
M  V30 6183 C 564.413 4.37994 -4.47115 0
M  V30 6184 H 564.646 1.45937 -2.59017 0
M  V30 6185 H 562.179 0.652189 -1.39949 0
M  V30 6186 H 564.137 3.76527 -1.63517 0
M  V30 6187 H 562.798 3.06134 -0.702928 0
M  V30 6188 H 561.991 4.19158 -2.79862 0
M  V30 6189 H 561.593 2.45792 -2.81891 0
M  V30 6190 H 563.885 5.30743 -4.21091 0
M  V30 6191 H 564.828 4.47499 -5.48772 0
M  V30 6192 H 565.236 4.20386 -3.76743 0
M  V30 6193 N 564.634 1.40294 0.718013 0
M  V30 6194 C 566.045 1.34289 1.29705 0
M  V30 6195 C 566.396 0.0152228 1.96194 0
M  V30 6196 O 565.521 -0.88682 1.97394 0
M  V30 6197 C 566.116 2.43219 2.3586 0
M  V30 6198 C 564.675 2.40682 2.89394 0
M  V30 6199 C 563.822 2.24223 1.63154 0
M  V30 6200 H 566.773 1.50135 0.514312 0
M  V30 6201 H 566.794 2.10986 3.16647 0
M  V30 6202 H 566.306 3.39836 1.87439 0
M  V30 6203 H 564.407 1.47756 3.42051 0
M  V30 6204 H 564.52 3.36177 3.41353 0
M  V30 6205 H 562.884 1.71696 1.88129 0
M  V30 6206 H 563.667 3.22834 1.16761 0
M  V30 6207 N 566.112 -0.949982 1.2575 0
M  V30 6208 C 567.042 -2.06483 1.09028 0
M  V30 6209 C 568.023 -1.701 -0.00201532 0
M  V30 6210 O 569.208 -1.93469 0.168383 0
M  V30 6211 C 566.338 -3.39899 0.71316 0
M  V30 6212 C 565.292 -3.90309 1.75621 0
M  V30 6213 C 564.618 -5.20274 1.23365 0
M  V30 6214 C 565.918 -4.16169 3.15596 0
M  V30 6215 H 567.612 -2.20731 2.02283 0
M  V30 6216 H 565.158 -1.06066 0.973964 0
M  V30 6217 H 567.111 -4.17346 0.58309 0
M  V30 6218 H 565.835 -3.25602 -0.255091 0
M  V30 6219 H 564.494 -3.15035 1.8748 0
M  V30 6220 H 564.142 -5.02351 0.255491 0
M  V30 6221 H 563.842 -5.54971 1.93082 0
M  V30 6222 H 565.366 -6.00314 1.11607 0
M  V30 6223 H 566.78 -4.84259 3.06864 0
M  V30 6224 H 565.177 -4.62131 3.82825 0
M  V30 6225 H 566.247 -3.22273 3.6231 0
M  V30 6226 N 567.59 -1.07411 -1.15328 0
M  V30 6227 C 568.54 -0.664788 -2.18093 0
M  V30 6228 C 569.524 0.310395 -1.57878 0
M  V30 6229 O 570.716 0.124026 -1.76565 0
M  V30 6230 C 567.845 -0.0647822 -3.43239 0
M  V30 6231 C 566.931 -1.06514 -4.10506 0
M  V30 6232 N 567.322 -2.24491 -4.53252 0
M  V30 6233 C 565.62 -0.898613 -4.36853 0
M  V30 6234 C 566.321 -2.8796 -5.05424 0
M  V30 6235 N 565.297 -2.15622 -4.99007 0
M  V30 6236 H 569.099 -1.56333 -2.48872 0
M  V30 6237 H 566.613 -0.947393 -1.31902 0
M  V30 6238 H 568.61 0.246363 -4.16171 0
M  V30 6239 H 567.27 0.828866 -3.13943 0
M  V30 6240 H 568.281 -2.62205 -4.46619 0
M  V30 6241 H 564.958 -0.0579118 -4.1746 0
M  V30 6242 H 566.348 -3.88137 -5.48452 0
M  V30 6243 N 569.068 1.32177 -0.85831 0
M  V30 6244 C 569.998 2.31282 -0.321041 0
M  V30 6245 C 570.979 1.59841 0.581786 0
M  V30 6246 O 572.164 1.87619 0.501262 0
M  V30 6247 C 569.294 3.4385 0.48832 0
M  V30 6248 C 568.248 4.26799 -0.320391 0
M  V30 6249 C 567.574 5.31164 0.613934 0
M  V30 6250 C 568.874 4.98829 -1.54813 0
M  V30 6251 H 570.568 2.76469 -1.14915 0
M  V30 6252 H 568.114 1.32916 -0.554028 0
M  V30 6253 H 570.067 4.12224 0.874626 0
M  V30 6254 H 568.791 2.97401 1.34983 0
M  V30 6255 H 567.45 3.60077 -0.688497 0
M  V30 6256 H 567.098 4.80967 1.47239 0
M  V30 6257 H 566.798 5.8755 0.0768097 0
M  V30 6258 H 568.322 6.024 0.997336 0
M  V30 6259 H 569.736 5.59864 -1.23392 0
M  V30 6260 H 568.133 5.64957 -2.02346 0
M  V30 6261 H 569.203 4.26483 -2.30739 0
M  V30 6262 N 570.547 0.616602 1.45037 0
M  V30 6263 C 571.794 0.115331 2.02171 0
M  V30 6264 C 572.122 -1.25748 1.48383 0
M  V30 6265 O 571.377 -1.84511 0.652229 0
M  V30 6266 C 571.676 0.0356829 3.57382 0
M  V30 6267 C 571.342 1.34535 4.30362 0
M  V30 6268 C 570.004 1.70408 4.50016 0
M  V30 6269 C 572.356 2.21049 4.72003 0
M  V30 6270 C 569.684 2.92529 5.0857 0
M  V30 6271 C 572.036 3.42427 5.31908 0
M  V30 6272 C 570.7 3.78541 5.49784 0
M  V30 6273 H 569.97 0.0422024 0.739797 0
M  V30 6274 H 572.617 0.80002 1.73988 0
M  V30 6275 H 570.922 -0.732314 3.84895 0
M  V30 6276 H 572.619 -0.368463 3.99304 0
M  V30 6277 H 569.209 1.05615 4.15383 0
M  V30 6278 H 573.393 1.94632 4.56544 0
M  V30 6279 H 568.649 3.20605 5.20598 0
M  V30 6280 H 572.823 4.09709 5.63127 0
M  V30 6281 H 570.45 4.73255 5.94923 0
M  V30 6282 N 572.025 -1.5352 0.356285 0
M  V30 6283 C 572.975 -2.22204 -0.510815 0
M  V30 6284 C 573.959 -1.21393 -1.05605 0
M  V30 6285 O 575.151 -1.46883 -0.987639 0
M  V30 6286 C 572.28 -3.00786 -1.65478 0
M  V30 6287 C 571.366 -4.08965 -1.12287 0
M  V30 6288 N 571.757 -5.04829 -0.313191 0
M  V30 6289 C 570.055 -4.23505 -1.39856 0
M  V30 6290 C 570.756 -5.81695 -0.0230322 0
M  V30 6291 N 569.732 -5.40074 -0.618144 0
M  V30 6292 H 573.534 -2.93676 0.114711 0
M  V30 6293 H 571.048 -1.61572 0.163811 0
M  V30 6294 H 573.045 -3.48502 -2.28806 0
M  V30 6295 H 571.705 -2.30843 -2.28345 0
M  V30 6296 H 572.716 -5.17879 0.0468202 0
M  V30 6297 H 569.393 -3.64786 -2.0307 0
M  V30 6298 H 570.783 -6.68931 0.630927 0
M  V30 6299 N 573.503 -0.0852151 -1.57369 0
M  V30 6300 C 574.749 0.581666 -1.94279 0
M  V30 6301 C 575.082 1.68444 -0.966446 0
M  V30 6302 O 574.357 1.945 0.00215277 0
M  V30 6303 C 574.64 1.14609 -3.41375 0
M  V30 6304 C 574.493 0.0490414 -4.49773 0
M  V30 6305 C 575.812 2.04751 -3.8957 0
M  V30 6306 H 572.931 0.209972 -0.706456 0
M  V30 6307 H 575.573 -0.153915 -1.89376 0
M  V30 6308 H 573.723 1.77297 -3.45685 0
M  V30 6309 H 575.395 -0.584721 -4.57579 0
M  V30 6310 H 573.638 -0.618638 -4.29366 0
M  V30 6311 H 574.309 0.484601 -5.49869 0
M  V30 6312 H 576.785 1.51981 -3.87351 0
M  V30 6313 H 575.661 2.41173 -4.93079 0
M  V30 6314 H 575.922 2.96107 -3.28288 0
M  V30 6315 N 574.981 1.5647 0.188427 0
M  V30 6316 C 576.227 1.81281 0.909124 0
M  V30 6317 C 576.56 0.66034 1.82628 0
M  V30 6318 O 575.835 -0.338737 1.91528 0
M  V30 6319 C 576.118 3.16388 1.7196 0
M  V30 6320 C 575.971 4.42137 0.826714 0
M  V30 6321 C 577.29 3.48256 2.69083 0
M  V30 6322 H 574.409 0.659457 0.329068 0
M  V30 6323 H 577.051 1.89182 0.176156 0
M  V30 6324 H 575.201 3.09784 2.34448 0
M  V30 6325 H 576.873 4.60794 0.216025 0
M  V30 6326 H 575.116 4.33594 0.133792 0
M  V30 6327 H 575.787 5.33184 1.42893 0
M  V30 6328 H 578.263 3.55203 2.16726 0
M  V30 6329 H 577.139 4.43899 3.2287 0
M  V30 6330 H 577.4 2.72088 3.48455 0
M  V30 6331 N 576.459 -0.456382 1.50847 0
M  V30 6332 C 577.687 -1.23026 1.66349 0
M  V30 6333 C 578.102 -1.85473 0.352868 0
M  V30 6334 O 577.459 -1.69885 -0.666739 0
M  V30 6335 C 577.51 -2.32827 2.76539 0
M  V30 6336 O 577.231 -1.72938 4.02522 0
M  V30 6337 C 578.732 -3.23448 3.03144 0
M  V30 6338 H 575.952 -0.371527 0.558756 0
M  V30 6339 H 578.496 -0.543082 1.97157 0
M  V30 6340 H 576.651 -2.97294 2.48384 0
M  V30 6341 H 577.065 -2.45357 4.63573 0
M  V30 6342 H 578.539 -3.96669 3.83872 0
M  V30 6343 H 579.016 -3.83094 2.14793 0
M  V30 6344 H 579.622 -2.64702 3.32886 0
M  V30 6345 N 577.937 -1.40673 -0.710563 0
M  V30 6346 C 579.214 -1.29718 -1.46398 0
M  V30 6347 C 579.594 0.082177 -2.1094 0
M  V30 6348 O 578.942 1.09536 -2.00534 0
M  V30 6349 C 579.152 -2.43967 -2.49562 0
M  V30 6350 C 580.5 -2.84436 -3.15248 0
M  V30 6351 O 581.524 -2.43597 -2.59883 0
M  V30 6352 O 580.383 -3.55008 -4.1549 0
M  V30 6353 H 577.477 -0.509697 -0.651258 0
M  V30 6354 H 580.023 -1.52603 -0.742312 0
M  V30 6355 H 578.795 -3.36076 -2.0042 0
M  V30 6356 H 578.418 -2.22879 -3.29258 0
M  V30 6357 N 579.415 0.9433 -1.26252 0
M  V30 6358 C 580.662 1.68925 -1.11672 0
M  V30 6359 C 580.99 1.91499 0.340329 0
M  V30 6360 O 580.245 1.49189 1.26653 0
M  V30 6361 C 580.544 3.07073 -1.82868 0
M  V30 6362 C 580.21 3.04262 -3.32769 0
M  V30 6363 C 578.872 3.03203 -3.7366 0
M  V30 6364 C 581.224 2.96729 -4.28487 0
M  V30 6365 C 578.552 2.92373 -5.0866 0
M  V30 6366 C 580.904 2.87442 -5.63525 0
M  V30 6367 C 579.568 2.84724 -6.03729 0
M  V30 6368 H 578.838 0.618141 -0.408635 0
M  V30 6369 H 581.485 1.10124 -1.56668 0
M  V30 6370 H 579.79 3.69486 -1.30335 0
M  V30 6371 H 581.487 3.63635 -1.69029 0
M  V30 6372 H 578.077 3.05865 -3.00241 0
M  V30 6373 H 582.261 2.96658 -3.97879 0
M  V30 6374 H 577.517 2.88645 -5.38975 0
M  V30 6375 H 581.691 2.80576 -6.37377 0
M  V30 6376 H 579.318 2.76089 -7.08293 0
M  V30 6377 N 580.893 1.08022 1.14757 0
M  V30 6378 C 581.841 0.701088 2.21783 0
M  V30 6379 C 582.835 -0.291311 1.66876 0
M  V30 6380 O 584.041 -0.154296 1.79337 0
M  V30 6381 H 580.416 0.208668 0.722469 0
M  V30 6382 H 582.387 1.61321 2.51034 0
M  V30 6383 C 581.136 0.122278 3.47485 0
M  V30 6384 H 580.459 0.877065 3.90061 0
M  V30 6385 H 581.899 -0.105248 4.23869 0
M  V30 6386 C 580.358 -1.13883 3.17068 0
M  V30 6387 O 580.888 -2.22429 3.34497 0
M  V30 6388 N 579.094 -1.04767 2.71058 0
M  V30 6389 H 578.641 -0.164302 2.57075 0
M  V30 6390 H 578.599 -1.89224 2.51081 0
M  V30 6391 N 582.371 -1.3172 0.865308 0
M  V30 6392 C 583.648 -1.91574 0.394789 0
M  V30 6393 C 584.028 -1.78769 -1.12271 0
M  V30 6394 O 583.376 -1.19245 -1.94918 0
M  V30 6395 C 583.586 -3.37957 0.870982 0
M  V30 6396 C 584.934 -4.15073 0.894384 0
M  V30 6397 O 585.958 -3.4672 0.816325 0
M  V30 6398 O 584.817 -5.37151 1.00651 0
M  V30 6399 H 581.911 -0.818649 0.117229 0
M  V30 6400 H 584.457 -1.4042 0.952913 0
M  V30 6401 H 583.229 -3.41269 1.91444 0
M  V30 6402 H 582.852 -3.96534 0.290907 0
M  V30 6403 N 583.85 -0.624285 -1.44708 0
M  V30 6404 C 584.798 0.0969952 -2.32398 0
M  V30 6405 C 585.792 0.842762 -1.46949 0
M  V30 6406 O 586.998 0.756436 -1.63334 0
M  V30 6407 H 583.373 0.0501306 -0.750327 0
M  V30 6408 H 585.344 -0.660767 -2.90992 0
M  V30 6409 C 584.093 1.06967 -3.30837 0
M  V30 6410 H 583.416 0.505242 -3.96595 0
M  V30 6411 H 584.856 1.54397 -3.94889 0
M  V30 6412 C 583.315 2.15153 -2.5925 0
M  V30 6413 O 583.845 3.23139 -2.3863 0
M  V30 6414 N 582.051 1.90898 -2.19103 0
M  V30 6415 H 581.598 1.03086 -2.36074 0
M  V30 6416 H 581.556 2.63485 -1.71531 0
M  V30 6417 N 585.328 1.53329 -0.364422 0
M  V30 6418 C 586.258 2.28627 0.474543 0
M  V30 6419 C 587.239 1.31009 1.08492 0
M  V30 6420 O 588.424 1.59878 1.10239 0
M  V30 6421 C 585.554 3.07465 1.61501 0
M  V30 6422 C 584.508 4.1276 1.13194 0
M  V30 6423 C 583.834 4.79674 2.36255 0
M  V30 6424 C 585.134 5.21847 0.217507 0
M  V30 6425 H 586.828 2.99005 -0.153656 0
M  V30 6426 H 584.374 1.43803 -0.0753406 0
M  V30 6427 H 586.327 3.58889 2.20855 0
M  V30 6428 H 585.051 2.34775 2.27042 0
M  V30 6429 H 583.71 3.62281 0.56109 0
M  V30 6430 H 583.358 4.03557 3.00251 0
M  V30 6431 H 583.058 5.50827 2.04606 0
M  V30 6432 H 584.582 5.33892 2.96297 0
M  V30 6433 H 585.996 5.6878 0.718493 0
M  V30 6434 H 584.393 6.00099 -0.00806408 0
M  V30 6435 H 585.463 4.7921 -0.740653 0
M  V30 6436 N 586.806 0.0935595 1.57322 0
M  V30 6437 C 588.055 -0.570191 1.93473 0
M  V30 6438 C 588.368 -1.69434 0.977318 0
M  V30 6439 O 589.574 -2.41914 1.23248 0
M  V30 6440 C 588.03 -1.06564 3.43762 0
M  V30 6441 C 587.638 0.0286723 4.47991 0
M  V30 6442 C 589.382 -1.70221 3.88877 0
M  V30 6443 C 587.289 -0.482046 5.89432 0
M  V30 6444 H 586.219 -0.216764 0.72217 0
M  V30 6445 H 588.87 0.169313 1.82717 0
M  V30 6446 H 587.252 -1.85878 3.49664 0
M  V30 6447 H 588.426 0.804106 4.5373 0
M  V30 6448 H 586.741 0.570336 4.12476 0
M  V30 6449 H 589.338 -2.09502 4.91948 0
M  V30 6450 H 589.681 -2.57078 3.27439 0
M  V30 6451 H 590.214 -0.974919 3.85668 0
M  V30 6452 H 586.953 0.349871 6.54566 0
M  V30 6453 H 586.473 -1.22452 5.87167 0
M  V30 6454 H 588.152 -0.951508 6.39965 0
M  V30 6455 N 588.284 -1.56567 -0.180126 0
M  V30 6456 C 589.509 -1.85975 -0.918041 0
M  V30 6457 C 589.934 -0.678888 -1.75422 0
M  V30 6458 O 589.292 0.372168 -1.77439 0
M  V30 6459 C 589.34 -3.13731 -1.77779 0
M  V30 6460 O 588.444 -2.95335 -2.87838 0
M  V30 6461 H 587.785 -0.61196 -0.257683 0
M  V30 6462 H 590.315 -2.03798 -0.180923 0
M  V30 6463 H 590.325 -3.4491 -2.17948 0
M  V30 6464 H 589 -3.99293 -1.16352 0
M  V30 6465 H 587.577 -2.7549 -2.51316 0
M  V30 6466 N 589.762 0.448376 -1.51087 0
M  V30 6467 C 590.71 1.56407 -1.72161 0
M  V30 6468 C 591.704 1.58878 -0.587721 0
M  V30 6469 O 592.91 1.62755 -0.768822 0
M  V30 6470 H 589.285 0.519423 -0.543786 0
M  V30 6471 H 591.256 1.35803 -2.65707 0
M  V30 6472 C 590.005 2.94163 -1.85373 0
M  V30 6473 H 589.328 2.9299 -2.72024 0
M  V30 6474 H 590.768 3.71625 -2.04135 0
M  V30 6475 C 589.227 3.31317 -0.610803 0
M  V30 6476 O 589.757 4.00985 0.239636 0
M  V30 6477 N 587.963 2.86966 -0.458127 0
M  V30 6478 H 587.51 2.30443 -1.15124 0
M  V30 6479 H 587.468 3.12188 0.372289 0
M  V30 6480 N 591.24 1.41047 0.703093 0
M  V30 6481 C 592.656 1.23351 1.01275 0
M  V30 6482 C 592.856 0.11754 2.01157 0
M  V30 6483 O 591.912 -0.520518 2.47077 0
M  V30 6484 C 593.225 2.58001 1.54454 0
M  V30 6485 C 594.773 2.65119 1.66376 0
M  V30 6486 C 595.248 4.00067 2.22958 0
M  V30 6487 N 596.739 4.01875 2.30328 0
M  V30 6488 C 597.474 5.03087 2.75119 0
M  V30 6489 N 596.97 6.14692 3.19571 0
M  V30 6490 N 598.763 4.90451 2.74616 0
M  V30 6491 H 590.914 2.1236 0.0412686 0
M  V30 6492 H 593.177 0.944543 0.08089 0
M  V30 6493 H 592.883 3.40378 0.88521 0
M  V30 6494 H 592.757 2.79962 2.52786 0
M  V30 6495 H 595.144 1.83106 2.31422 0
M  V30 6496 H 595.225 2.46975 0.666089 0
M  V30 6497 H 594.869 4.82526 1.58529 0
M  V30 6498 H 594.799 4.15547 3.23462 0
M  V30 6499 H 597.29 3.21291 1.98949 0
M  V30 6500 H 597.603 6.87799 3.52352 0
M  V30 6501 H 595.948 6.18239 3.17498 0
M  V30 6502 H 599.139 4.0235 2.39233 0
M  V30 6503 H 599.312 5.6947 3.09206 0
M  V30 6504 N 592.718 -0.936591 1.26751 0
M  V30 6505 C 593.668 -2.0219 1.05371 0
M  V30 6506 C 594.652 -1.60893 -0.0154112 0
M  V30 6507 O 595.844 -1.75843 0.202085 0
M  V30 6508 C 592.973 -3.36222 0.693541 0
M  V30 6509 C 592.059 -3.8399 1.80035 0
M  V30 6510 N 592.45 -4.0436 3.03852 0
M  V30 6511 C 590.748 -4.12945 1.685 0
M  V30 6512 C 591.449 -4.44 3.75818 0
M  V30 6513 N 590.425 -4.50966 3.03531 0
M  V30 6514 H 594.227 -2.15958 1.99347 0
M  V30 6515 H 591.741 -1.12277 1.17335 0
M  V30 6516 H 593.738 -4.13625 0.521513 0
M  V30 6517 H 592.398 -3.23821 -0.238693 0
M  V30 6518 H 593.409 -3.9092 3.39709 0
M  V30 6519 H 590.086 -4.09308 0.822986 0
M  V30 6520 H 591.476 -4.67914 4.82189 0
M  V30 6521 N 594.196 -1.08629 -1.14182 0
M  V30 6522 C 595.443 -0.817345 -1.85272 0
M  V30 6523 C 595.771 0.656917 -1.83071 0
M  V30 6524 O 595.026 1.49897 -1.25815 0
M  V30 6525 C 595.325 -1.28734 -3.3341 0
M  V30 6526 C 594.991 -2.76981 -3.55798 0
M  V30 6527 C 593.653 -3.17469 -3.61617 0
M  V30 6528 C 596.005 -3.72605 -3.64438 0
M  V30 6529 C 593.333 -4.52371 -3.736 0
M  V30 6530 C 595.685 -5.07286 -3.77947 0
M  V30 6531 C 594.349 -5.47376 -3.82016 0
M  V30 6532 H 593.619 -0.299088 -0.677958 0
M  V30 6533 H 596.266 -1.35962 -1.34857 0
M  V30 6534 H 594.571 -0.664702 -3.8612 0
M  V30 6535 H 596.268 -1.05598 -3.86846 0
M  V30 6536 H 592.858 -2.44644 -3.51919 0
M  V30 6537 H 597.042 -3.42443 -3.5923 0
M  V30 6538 H 592.298 -4.82882 -3.75013 0
M  V30 6539 H 596.472 -5.81243 -3.83575 0
M  V30 6540 H 594.099 -6.51906 -3.91054 0
M  V30 6541 N 595.674 1.31259 -0.872281 0
M  V30 6542 C 596.621 2.28459 -0.327857 0
M  V30 6543 C 597.591 1.55831 0.574957 0
M  V30 6544 O 598.776 1.83965 0.506101 0
M  V30 6545 C 595.916 3.41985 0.462644 0
M  V30 6546 C 595.029 4.29458 -0.467949 0
M  V30 6547 C 594.164 5.30131 0.336903 0
M  V30 6548 C 593.203 6.0925 -0.58997 0
M  V30 6549 N 592.34 7.01872 0.178775 0
M  V30 6550 H 597.18 2.74414 -1.16193 0
M  V30 6551 H 594.717 1.34994 -0.584376 0
M  V30 6552 H 596.675 4.06547 0.936759 0
M  V30 6553 H 595.305 2.97134 1.2614 0
M  V30 6554 H 594.357 3.65318 -1.06052 0
M  V30 6555 H 595.669 4.84677 -1.17856 0
M  V30 6556 H 594.823 6.0038 0.873427 0
M  V30 6557 H 593.562 4.75573 1.08079 0
M  V30 6558 H 592.567 5.37889 -1.13823 0
M  V30 6559 H 593.792 6.65894 -1.33275 0
M  V30 6560 H 591.738 6.49721 0.905435 0
M  V30 6561 H 591.655 7.54522 -0.472452 0
M  V30 6562 H 592.923 7.76382 0.696454 0
M  V30 6563 N 597.152 0.631951 1.44375 0
M  V30 6564 C 598.082 -0.0593243 2.33425 0
M  V30 6565 C 599.063 -0.833964 1.48253 0
M  V30 6566 O 600.248 -0.799682 1.76971 0
M  V30 6567 C 597.378 -1.04096 3.31333 0
M  V30 6568 C 596.332 -0.377899 4.26328 0
M  V30 6569 C 595.658 -1.4695 5.14111 0
M  V30 6570 C 596.958 0.716371 5.17364 0
M  V30 6571 H 598.652 0.684287 2.91475 0
M  V30 6572 H 596.198 0.330518 1.40156 0
M  V30 6573 H 598.151 -1.53331 3.92514 0
M  V30 6574 H 596.875 -1.81547 2.71493 0
M  V30 6575 H 595.534 0.0938054 3.6648 0
M  V30 6576 H 595.182 -2.2349 4.50623 0
M  V30 6577 H 594.882 -1.03121 5.78481 0
M  V30 6578 H 596.406 -1.96363 5.78164 0
M  V30 6579 H 597.82 0.307089 5.72477 0
M  V30 6580 H 596.217 1.07784 5.90341 0
M  V30 6581 H 597.287 1.58316 4.58327 0
M  V30 6582 N 598.631 -1.53133 0.372548 0
M  V30 6583 C 599.877 -2.01654 -0.215277 0
M  V30 6584 C 600.21 -1.25914 -1.47849 0
M  V30 6585 O 599.485 -0.3548 -1.91237 0
M  V30 6586 C 599.768 -3.56609 -0.500187 0
M  V30 6587 C 599.621 -4.43036 0.777145 0
M  V30 6588 C 600.94 -4.20528 -1.29786 0
M  V30 6589 H 598.059 -0.732991 -0.0767686 0
M  V30 6590 H 600.701 -1.83335 0.498814 0
M  V30 6591 H 598.851 -3.7235 -1.10852 0
M  V30 6592 H 600.523 -4.39079 1.41447 0
M  V30 6593 H 598.766 -4.10723 1.39604 0
M  V30 6594 H 599.437 -5.49424 0.532662 0
M  V30 6595 H 601.913 -4.08663 -0.783198 0
M  V30 6596 H 600.789 -5.28962 -1.46596 0
M  V30 6597 H 601.05 -3.77051 -2.30836 0
M  V30 6598 N 600.109 -0.101901 -1.5727 0
M  V30 6599 C 601.339 0.567568 -1.98651 0
M  V30 6600 C 601.747 1.61839 -0.980037 0
M  V30 6601 O 601.09 1.83661 0.0376564 0
M  V30 6602 C 601.152 1.26742 -3.36417 0
M  V30 6603 C 600.816 0.366561 -4.55528 0
M  V30 6604 C 601.813 -0.388022 -5.1845 0
M  V30 6605 C 599.498 0.282629 -5.01504 0
M  V30 6606 C 601.492 -1.21445 -6.25724 0
M  V30 6607 C 599.179 -0.547443 -6.08643 0
M  V30 6608 C 600.177 -1.29462 -6.70618 0
M  V30 6609 O 599.865 -2.11095 -7.7569 0
M  V30 6610 H 599.597 0.156282 -0.657687 0
M  V30 6611 H 602.151 -0.179912 -2.04611 0
M  V30 6612 H 600.381 2.06162 -3.27161 0
M  V30 6613 H 602.07 1.8321 -3.622 0
M  V30 6614 H 602.836 -0.332949 -4.83856 0
M  V30 6615 H 598.715 0.853868 -4.53023 0
M  V30 6616 H 602.259 -1.79814 -6.74027 0
M  V30 6617 H 598.156 -0.603971 -6.42668 0
M  V30 6618 H 598.924 -2.03851 -7.92709 0
M  V30 6619 N 601.587 1.56661 0.17182 0
M  V30 6620 C 602.827 1.83762 0.895029 0
M  V30 6621 C 603.191 0.682752 1.79451 0
M  V30 6622 O 604.392 0.834208 2.55528 0
M  V30 6623 C 602.663 3.15976 1.67015 0
M  V30 6624 S 604.222 3.64558 2.44219 0
M  V30 6625 H 601.04 0.644713 0.299778 0
M  V30 6626 H 603.642 1.94871 0.156701 0
M  V30 6627 H 602.346 3.98021 1.00039 0
M  V30 6628 H 601.877 3.07807 2.44986 0
M  V30 6629 H 603.892 3.31845 3.68909 0
M  V30 6630 N 603.065 -0.440357 1.51323 0
M  V30 6631 C 604.314 -1.18697 1.63076 0
M  V30 6632 C 604.627 -1.92418 0.35136 0
M  V30 6633 O 605.833 -2.69258 0.348221 0
M  V30 6634 C 604.289 -2.15849 2.87988 0
M  V30 6635 C 603.897 -1.47789 4.22921 0
M  V30 6636 C 605.641 -2.90962 3.09098 0
M  V30 6637 C 603.548 -2.43407 5.38987 0
M  V30 6638 H 602.478 -0.44676 0.607389 0
M  V30 6639 H 605.129 -0.454313 1.77787 0
M  V30 6640 H 603.511 -2.92537 2.66905 0
M  V30 6641 H 604.685 -0.7668 4.54375 0
M  V30 6642 H 603 -0.848404 4.07665 0
M  V30 6643 H 605.597 -3.62584 3.92985 0
M  V30 6644 H 605.94 -3.52133 2.22053 0
M  V30 6645 H 606.473 -2.21381 3.30507 0
M  V30 6646 H 603.212 -1.86929 6.28282 0
M  V30 6647 H 602.732 -3.12579 5.11913 0
M  V30 6648 H 604.411 -3.046 5.70813 0
M  V30 6649 N 604.543 -1.41418 -0.695603 0
M  V30 6650 C 605.783 -1.42241 -1.46788 0
M  V30 6651 C 606.147 -0.0300827 -1.91976 0
M  V30 6652 O 607.348 0.0868914 -2.6866 0
M  V30 6653 C 605.619 -2.4011 -2.6473 0
M  V30 6654 S 607.178 -2.59462 -3.53871 0
M  V30 6655 H 603.996 -0.503893 -0.50161 0
M  V30 6656 H 606.598 -1.77855 -0.811654 0
M  V30 6657 H 605.302 -3.40073 -2.29736 0
M  V30 6658 H 604.833 -2.05849 -3.35246 0
M  V30 6659 H 606.848 -1.862 -4.59939 0
M  V30 6660 N 606.021 0.929856 -1.27246 0
M  V30 6661 C 606.971 2.01629 -1.06442 0
M  V30 6662 C 607.955 1.60899 0.00687842 0
M  V30 6663 O 609.147 1.75733 -0.211407 0
M  V30 6664 C 606.276 3.35849 -0.711361 0
M  V30 6665 C 605.362 3.8303 -1.82069 0
M  V30 6666 N 605.753 4.02743 -3.05993 0
M  V30 6667 C 604.051 4.12046 -1.70687 0
M  V30 6668 C 604.752 4.42001 -3.78167 0
M  V30 6669 N 603.728 4.4935 -3.05918 0
M  V30 6670 H 607.53 2.14898 -2.00489 0
M  V30 6671 H 605.044 1.11654 -1.17929 0
M  V30 6672 H 607.041 4.13343 -0.543442 0
M  V30 6673 H 605.701 3.23944 0.221517 0
M  V30 6674 H 606.712 3.89112 -3.41778 0
M  V30 6675 H 603.389 4.08866 -0.844681 0
M  V30 6676 H 604.779 4.6535 -4.84664 0
M  V30 6677 N 607.499 1.09233 1.13605 0
M  V30 6678 C 608.429 0.751738 2.21068 0
M  V30 6679 C 609.41 -0.269688 1.67948 0
M  V30 6680 O 610.595 -0.13819 1.93708 0
M  V30 6681 C 607.725 0.16935 3.46887 0
M  V30 6682 C 606.679 1.12007 4.13084 0
M  V30 6683 C 606.005 0.399483 5.33206 0
M  V30 6684 C 607.305 2.46168 4.6065 0
M  V30 6685 H 608.999 1.65024 2.49815 0
M  V30 6686 H 606.545 0.794905 1.20072 0
M  V30 6687 H 608.498 -0.0809824 4.21322 0
M  V30 6688 H 607.222 -0.764335 3.1753 0
M  V30 6689 H 605.881 1.35564 3.40614 0
M  V30 6690 H 605.529 -0.538277 5.00112 0
M  V30 6691 H 605.229 1.03337 5.78442 0
M  V30 6692 H 606.753 0.157403 6.10397 0
M  V30 6693 H 608.167 2.26829 5.26518 0
M  V30 6694 H 606.564 3.05326 5.1662 0
M  V30 6695 H 607.634 3.07076 3.75276 0
M  V30 6696 N 608.977 -1.30795 0.87923 0
M  V30 6697 C 609.907 -2.30742 0.357796 0
M  V30 6698 C 610.888 -1.60747 -0.556283 0
M  V30 6699 O 612.073 -1.88393 -0.47135 0
M  V30 6700 C 609.203 -3.44583 -0.433555 0
M  V30 6701 C 608.157 -4.26235 0.388251 0
M  V30 6702 C 607.483 -5.32073 -0.529352 0
M  V30 6703 C 608.783 -4.96303 1.62729 0
M  V30 6704 H 610.477 -2.74605 1.19299 0
M  V30 6705 H 608.023 -1.32017 0.575104 0
M  V30 6706 H 609.976 -4.13563 -0.808934 0
M  V30 6707 H 608.7 -2.99511 -1.30234 0
M  V30 6708 H 607.359 -3.58936 0.745695 0
M  V30 6709 H 607.007 -4.83249 -1.39569 0
M  V30 6710 H 606.707 -5.87598 0.0166741 0
M  V30 6711 H 608.231 -6.0391 -0.901373 0
M  V30 6712 H 609.645 -5.5783 1.32283 0
M  V30 6713 H 608.042 -5.61666 2.11309 0
M  V30 6714 H 609.112 -4.22758 2.37494 0
M  V30 6715 N 610.455 -0.639598 -1.44038 0
M  V30 6716 C 611.703 -0.147188 -2.01563 0
M  V30 6717 C 612.024 1.2384 -1.50628 0
M  V30 6718 O 611.294 1.82452 -0.713316 0
M  V30 6719 H 609.874 -0.0514231 -0.745228 0
M  V30 6720 H 612.536 -0.828205 -1.76428 0
M  V30 6721 H 611.632 -0.121358 -3.11864 0
M  V30 6722 N 611.933 1.52934 -0.380664 0
M  V30 6723 C 612.866 2.22597 0.502564 0
M  V30 6724 C 613.844 1.22345 1.071 0
M  V30 6725 O 615.028 1.51302 1.12428 0
M  V30 6726 C 612.155 2.93246 1.69482 0
M  V30 6727 C 611.201 4.07696 1.25244 0
M  V30 6728 S 612.034 5.34957 0.241159 0
M  V30 6729 C 613.19 6.09124 1.4394 0
M  V30 6730 H 613.423 2.97167 -0.089029 0
M  V30 6731 H 610.956 1.53518 -0.164817 0
M  V30 6732 H 612.914 3.34562 2.37863 0
M  V30 6733 H 611.575 2.18373 2.2577 0
M  V30 6734 H 610.768 4.56199 2.1424 0
M  V30 6735 H 610.37 3.68349 0.647664 0
M  V30 6736 H 612.662 6.34771 2.36794 0
M  V30 6737 H 613.605 7.01068 0.995464 0
M  V30 6738 H 614.013 5.39777 1.65229 0
M  V30 6739 N 613.412 0.11024 1.57214 0
M  V30 6740 C 614.345 -0.880224 2.1054 0
M  V30 6741 C 615.323 -1.26658 1.01964 0
M  V30 6742 O 616.507 -1.36917 1.29561 0
M  V30 6743 C 613.634 -2.17676 2.59489 0
M  V30 6744 C 612.68 -1.93914 3.79868 0
M  V30 6745 S 613.513 -1.16336 5.2271 0
M  V30 6746 C 614.669 -2.47188 5.75021 0
M  V30 6747 H 614.902 -0.426614 2.94223 0
M  V30 6748 H 612.435 -0.10336 1.54054 0
M  V30 6749 H 614.393 -2.92175 2.88347 0
M  V30 6750 H 613.054 -2.60156 1.76005 0
M  V30 6751 H 612.247 -2.8996 4.12236 0
M  V30 6752 H 611.849 -1.27539 3.51582 0
M  V30 6753 H 614.141 -3.43079 5.84211 0
M  V30 6754 H 615.084 -2.19377 6.7326 0
M  V30 6755 H 615.492 -2.56154 5.03036 0
M  V30 6756 N 614.89 -1.56749 -0.16351 0
M  V30 6757 C 616.115 -1.86938 -0.898264 0
M  V30 6758 C 616.54 -0.697456 -1.74692 0
M  V30 6759 O 615.898 0.353327 -1.77824 0
M  V30 6760 C 615.946 -3.15599 -1.74441 0
M  V30 6761 O 615.05 -2.98371 -2.8469 0
M  V30 6762 H 614.391 -0.614659 -0.251178 0
M  V30 6763 H 616.921 -2.03979 -0.159298 0
M  V30 6764 H 616.931 -3.47202 -2.14277 0
M  V30 6765 H 615.606 -4.00505 -1.1211 0
M  V30 6766 H 614.183 -2.7814 -2.4838 0
M  V30 6767 N 616.368 0.432326 -1.51554 0
M  V30 6768 C 617.608 1.19076 -1.66133 0
M  V30 6769 C 617.972 1.88364 -0.371873 0
M  V30 6770 O 619.173 2.65904 -0.39349 0
M  V30 6771 C 617.444 2.1768 -2.83461 0
M  V30 6772 S 619.003 3.01943 -3.18396 0
M  V30 6773 H 615.821 0.403735 -0.585251 0
M  V30 6774 H 618.423 0.481554 -1.89476 0
M  V30 6775 H 617.127 1.65424 -3.75583 0
M  V30 6776 H 616.658 2.93174 -2.62322 0
M  V30 6777 H 618.673 4.19373 -2.65219 0
M  V30 6778 N 617.846 1.41785 0.688094 0
M  V30 6779 C 619.086 1.43018 1.46032 0
M  V30 6780 C 619.45 0.0402632 1.91958 0
M  V30 6781 O 620.651 -0.0726425 2.68702 0
M  V30 6782 C 618.922 2.4151 2.63453 0
M  V30 6783 S 620.481 2.61335 3.5249 0
M  V30 6784 H 617.299 0.506546 0.498931 0
M  V30 6785 H 619.901 1.78283 0.80221 0
M  V30 6786 H 618.605 3.41286 2.27929 0
M  V30 6787 H 618.136 2.07624 3.34149 0
M  V30 6788 H 620.151 1.88637 4.58945 0
M  V30 6789 N 619.324 -0.923095 1.27737 0
M  V30 6790 C 620.254 -2.04124 1.13383 0
M  V30 6791 C 621.235 -1.70066 0.0340658 0
M  V30 6792 O 622.42 -1.93068 0.209383 0
M  V30 6793 C 619.55 -3.3831 0.785097 0
M  V30 6794 C 618.504 -3.86496 1.8386 0
M  V30 6795 C 617.83 -5.1754 1.34373 0
M  V30 6796 C 619.13 -4.09381 3.24353 0
M  V30 6797 H 620.824 -2.1639 2.06919 0
M  V30 6798 H 618.37 -1.03976 0.996243 0
M  V30 6799 H 620.323 -4.16016 0.671485 0
M  V30 6800 H 619.047 -3.2607 -0.185969 0
M  V30 6801 H 617.706 -3.10987 1.9412 0
M  V30 6802 H 617.354 -5.01696 0.361989 0
M  V30 6803 H 617.054 -5.50751 2.04811 0
M  V30 6804 H 618.578 -5.97811 1.24315 0
M  V30 6805 H 619.992 -4.77641 3.17067 0
M  V30 6806 H 618.389 -4.53906 3.92542 0
M  V30 6807 H 619.459 -3.14515 3.69064 0
M  V30 6808 N 620.802 -1.09834 -1.13024 0
M  V30 6809 C 621.75 -0.736283 -2.20639 0
M  V30 6810 C 622.744 0.264725 -1.67319 0
M  V30 6811 O 623.95 0.125745 -1.7956 0
M  V30 6812 H 620.325 -0.220136 -0.719058 0
M  V30 6813 H 622.296 -1.65295 -2.48436 0
M  V30 6814 C 621.045 -0.177544 -3.47246 0
M  V30 6815 H 620.368 -0.939009 -3.88616 0
M  V30 6816 H 621.808 0.0378007 -4.23983 0
M  V30 6817 C 620.267 1.08824 -3.1884 0
M  V30 6818 O 620.797 2.1708 -3.37993 0
M  V30 6819 N 619.003 1.00442 -2.7269 0
M  V30 6820 H 618.55 0.123383 -2.57304 0
M  V30 6821 H 618.508 1.85206 -2.5406 0
M  V30 6822 N 622.28 1.30327 -0.886154 0
M  V30 6823 C 623.691 1.78243 -0.555554 0
M  V30 6824 C 624.042 1.72849 0.928314 0
M  V30 6825 O 623.167 1.30607 1.72542 0
M  V30 6826 C 623.762 3.23654 -1.00168 0
M  V30 6827 C 622.321 3.69401 -0.722471 0
M  V30 6828 C 621.468 2.50753 -1.18399 0
M  V30 6829 H 624.419 1.1718 -1.07026 0
M  V30 6830 H 624.44 3.79056 -0.331152 0
M  V30 6831 H 623.952 3.27548 -2.08169 0
M  V30 6832 H 622.053 3.70995 0.345496 0
M  V30 6833 H 622.166 4.60818 -1.31085 0
M  V30 6834 H 620.53 2.47452 -0.603303 0
M  V30 6835 H 621.313 2.57383 -2.27176 0
M  V30 6836 N 623.758 0.647228 1.43697 0
M  V30 6837 C 625.007 0.155552 2.01099 0
M  V30 6838 C 625.32 -1.23569 1.51624 0
M  V30 6839 O 626.526 -1.82226 2.01261 0
M  V30 6840 C 624.982 0.227296 3.59182 0
M  V30 6841 C 624.59 1.62086 4.17651 0
M  V30 6842 C 626.334 -0.207085 4.23995 0
M  V30 6843 C 624.241 1.64685 5.68008 0
M  V30 6844 H 623.171 0.0543895 0.752036 0
M  V30 6845 H 625.822 0.808386 1.64734 0
M  V30 6846 H 624.204 -0.492937 3.9292 0
M  V30 6847 H 625.378 2.36597 3.95422 0
M  V30 6848 H 623.693 2.0007 3.65186 0
M  V30 6849 H 626.29 -0.207426 5.34298 0
M  V30 6850 H 626.633 -1.23742 3.97484 0
M  V30 6851 H 627.166 0.461193 3.95118 0
M  V30 6852 H 623.905 2.65608 5.99277 0
M  V30 6853 H 623.425 0.944914 5.9231 0
M  V30 6854 H 625.104 1.38792 6.31938 0
M  V30 6855 N 625.236 -1.5273 0.388769 0
M  V30 6856 C 626.166 -2.29353 -0.438111 0
M  V30 6857 C 627.147 -1.32719 -1.06394 0
M  V30 6858 O 628.332 -1.61612 -1.07681 0
M  V30 6859 C 625.462 -3.09995 -1.56589 0
M  V30 6860 C 624.416 -4.14509 -1.06613 0
M  V30 6861 C 623.742 -4.83372 -2.28594 0
M  V30 6862 C 625.042 -5.22127 -0.134459 0
M  V30 6863 H 626.736 -2.98723 0.201206 0
M  V30 6864 H 624.282 -1.43665 0.0982089 0
M  V30 6865 H 626.235 -3.62357 -2.15118 0
M  V30 6866 H 624.959 -2.38357 -2.23279 0
M  V30 6867 H 623.618 -3.63128 -0.503383 0
M  V30 6868 H 623.266 -4.08283 -2.93792 0
M  V30 6869 H 622.966 -5.54012 -1.95817 0
M  V30 6870 H 624.49 -5.38538 -2.87766 0
M  V30 6871 H 625.904 -5.69851 -0.627914 0
M  V30 6872 H 624.301 -6.00011 0.103534 0
M  V30 6873 H 625.371 -4.77971 0.816798 0
M  V30 6874 N 626.714 -0.118576 -1.57153 0
M  V30 6875 C 627.944 0.546466 -1.99242 0
M  V30 6876 C 628.352 1.60791 -0.997148 0
M  V30 6877 O 627.695 1.83691 0.0181745 0
M  V30 6878 C 627.757 1.23167 -3.37743 0
M  V30 6879 C 627.421 0.318226 -4.55891 0
M  V30 6880 C 628.418 -0.442988 -5.18009 0
M  V30 6881 C 626.103 0.229421 -5.01776 0
M  V30 6882 C 628.097 -1.28074 -6.244 0
M  V30 6883 C 625.784 -0.611966 -6.08028 0
M  V30 6884 C 626.782 -1.36568 -6.69207 0
M  V30 6885 O 626.47 -2.1931 -7.73407 0
M  V30 6886 H 626.202 0.149297 -0.659307 0
M  V30 6887 H 628.756 -0.201603 -2.04408 0
M  V30 6888 H 626.986 2.0268 -3.29329 0
M  V30 6889 H 628.675 1.79358 -3.64123 0
M  V30 6890 H 629.441 -0.38425 -4.83475 0
M  V30 6891 H 625.32 0.805771 -4.53903 0
M  V30 6892 H 628.864 -1.86952 -6.72082 0
M  V30 6893 H 624.761 -0.6721 -6.41991 0
M  V30 6894 H 625.529 -2.12247 -7.90502 0
M  V30 6895 N 628.193 1.56834 0.155195 0
M  V30 6896 C 629.441 1.82536 0.867462 0
M  V30 6897 C 629.762 0.698168 1.82073 0
M  V30 6898 O 629.032 -0.280807 1.93877 0
M  V30 6899 H 627.612 0.673401 0.323327 0
M  V30 6900 H 630.274 1.94313 0.151156 0
M  V30 6901 H 629.37 2.77171 1.43466 0
M  V30 6902 N 629.671 -0.424282 1.51781 0
M  V30 6903 C 630.918 -1.1726 1.65095 0
M  V30 6904 C 631.246 -1.90881 0.373477 0
M  V30 6905 O 630.501 -1.84835 -0.642997 0
M  V30 6906 C 630.8 -2.20418 2.81337 0
M  V30 6907 C 630.466 -1.63715 4.20129 0
M  V30 6908 C 629.128 -1.47975 4.57883 0
M  V30 6909 C 631.48 -1.22157 5.06682 0
M  V30 6910 C 628.808 -0.891703 5.79884 0
M  V30 6911 C 631.16 -0.647767 6.29275 0
M  V30 6912 C 629.824 -0.477371 6.65791 0
M  V30 6913 H 629.094 -0.429085 0.604125 0
M  V30 6914 H 631.741 -0.461852 1.85847 0
M  V30 6915 H 630.046 -2.97581 2.54859 0
M  V30 6916 H 631.743 -2.78163 2.88836 0
M  V30 6917 H 628.333 -1.76946 3.90369 0
M  V30 6918 H 632.517 -1.33133 4.7811 0
M  V30 6919 H 627.773 -0.747563 6.06813 0
M  V30 6920 H 631.947 -0.317291 6.95677 0
M  V30 6921 H 629.574 -0.0195936 7.60197 0
M  V30 6922 N 631.149 -1.42148 -0.680565 0
M  V30 6923 C 632.079 -1.4796 -1.80638 0
M  V30 6924 C 633.06 -0.336728 -1.66734 0
M  V30 6925 O 634.245 -0.550247 -1.86242 0
M  V30 6926 C 631.375 -1.37569 -3.18892 0
M  V30 6927 C 630.329 -2.49823 -3.47524 0
M  V30 6928 C 629.655 -2.24491 -4.85291 0
M  V30 6929 C 630.955 -3.92144 -3.44994 0
M  V30 6930 H 632.649 -2.42184 -1.76032 0
M  V30 6931 H 630.195 -1.16566 -0.845481 0
M  V30 6932 H 632.148 -1.40243 -3.97379 0
M  V30 6933 H 630.872 -0.398357 -3.24162 0
M  V30 6934 H 629.531 -2.46455 -2.71395 0
M  V30 6935 H 629.179 -1.25066 -4.87204 0
M  V30 6936 H 628.879 -2.99722 -5.05411 0
M  V30 6937 H 630.403 -2.28906 -5.66069 0
M  V30 6938 H 631.817 -3.97145 -4.13459 0
M  V30 6939 H 630.214 -4.67179 -3.76648 0
M  V30 6940 H 631.284 -4.19225 -2.43676 0
M  V30 6941 N 632.627 0.916307 -1.28225 0
M  V30 6942 C 633.575 2.03977 -1.11786 0
M  V30 6943 C 634.569 1.69358 -0.0378265 0
M  V30 6944 O 635.775 1.78925 -0.196405 0
M  V30 6945 H 632.15 0.66829 -0.344809 0
M  V30 6946 H 634.121 2.14985 -2.06939 0
M  V30 6947 C 632.87 3.38518 -0.7938 0
M  V30 6948 H 632.193 3.65649 -1.61682 0
M  V30 6949 H 633.633 4.17864 -0.718719 0
M  V30 6950 C 632.092 3.33134 0.502353 0
M  V30 6951 O 632.622 3.71281 1.53341 0
M  V30 6952 N 630.828 2.86229 0.502147 0
M  V30 6953 H 630.375 2.55382 -0.337338 0
M  V30 6954 H 630.333 2.83009 1.36942 0
M  V30 6955 N 634.105 1.10431 1.1244 0
M  V30 6956 C 635.053 0.747974 2.20246 0
M  V30 6957 C 636.047 -0.255848 1.67457 0
M  V30 6958 O 637.253 -0.116221 1.79624 0
M  V30 6959 H 633.628 0.223946 0.71788 0
M  V30 6960 H 635.599 1.6661 2.47556 0
M  V30 6961 C 634.348 0.195957 3.47147 0
M  V30 6962 H 633.671 0.959606 3.88113 0
M  V30 6963 H 635.111 -0.0153154 4.23997 0
M  V30 6964 C 633.57 -1.07132 3.19413 0
M  V30 6965 O 634.1 -2.15284 3.3914 0
M  V30 6966 N 632.306 -0.98994 2.73219 0
M  V30 6967 H 631.853 -0.109736 2.57366 0
M  V30 6968 H 631.811 -1.83856 2.55038 0
M  V30 6969 N 635.583 -1.29855 0.893053 0
M  V30 6970 C 636.831 -1.9544 0.514566 0
M  V30 6971 C 637.152 -1.70795 -0.940959 0
M  V30 6972 O 636.422 -1.03601 -1.66264 0
M  V30 6973 H 635.002 -0.723137 0.187302 0
M  V30 6974 H 637.664 -1.58234 1.13789 0
M  V30 6975 H 636.76 -3.04341 0.691581 0
M  V30 6976 N 637.061 -0.65484 -1.43351 0
M  V30 6977 C 638.31 -0.166215 -2.01014 0
M  V30 6978 C 638.623 1.22764 -1.52278 0
M  V30 6979 O 639.829 1.81156 -2.02224 0
M  V30 6980 C 638.285 -0.246341 -3.59056 0
M  V30 6981 C 637.893 -1.64299 -4.16785 0
M  V30 6982 C 639.637 0.184597 -4.24098 0
M  V30 6983 C 637.544 -1.67695 -5.67126 0
M  V30 6984 H 636.474 -0.0583769 -0.751737 0
M  V30 6985 H 639.125 -0.817111 -1.64303 0
M  V30 6986 H 637.507 0.472092 -3.93176 0
M  V30 6987 H 638.681 -2.3869 -3.94162 0
M  V30 6988 H 636.996 -2.02004 -3.6412 0
M  V30 6989 H 639.593 0.179088 -5.344 0
M  V30 6990 H 639.936 1.21632 -3.98135 0
M  V30 6991 H 640.469 -0.482141 -3.94867 0
M  V30 6992 H 637.208 -2.68783 -5.9786 0
M  V30 6993 H 636.728 -0.976313 -5.91801 0
M  V30 6994 H 638.407 -1.42142 -6.31193 0
M  V30 6995 N 638.539 1.52521 -0.396863 0
M  V30 6996 C 639.486 2.26671 0.434624 0
M  V30 6997 C 640.456 1.28584 1.05144 0
M  V30 6998 O 641.641 1.57426 1.07804 0
M  V30 6999 C 638.781 3.08234 1.55196 0
M  V30 7000 C 637.894 4.21261 0.957262 0
M  V30 7001 C 637.029 4.90205 2.04627 0
M  V30 7002 C 636.068 5.95213 1.42787 0
M  V30 7003 N 635.205 6.57723 2.45651 0
M  V30 7004 H 640.045 2.973 -0.204139 0
M  V30 7005 H 637.582 1.46669 -0.112505 0
M  V30 7006 H 639.54 3.53819 2.2106 0
M  V30 7007 H 638.17 2.398 2.16092 0
M  V30 7008 H 637.222 3.79935 0.188005 0
M  V30 7009 H 638.534 4.96624 0.465416 0
M  V30 7010 H 637.688 5.39133 2.78246 0
M  V30 7011 H 636.427 4.14383 2.57174 0
M  V30 7012 H 635.432 5.45616 0.676968 0
M  V30 7013 H 636.657 6.72972 0.910255 0
M  V30 7014 H 634.603 5.84737 2.97353 0
M  V30 7015 H 634.52 7.28723 2.01243 0
M  V30 7016 H 635.788 7.11293 3.18876 0
M  V30 7017 N 640.017 0.126909 1.57088 0
M  V30 7018 C 640.98 -0.806097 2.14557 0
M  V30 7019 C 641.98 -1.18918 1.08236 0
M  V30 7020 O 643.17 -1.11339 1.33975 0
M  V30 7021 C 640.302 -2.09116 2.69227 0
M  V30 7022 H 641.495 -0.306522 2.98329 0
M  V30 7023 H 639.048 -0.122393 1.5582 0
M  V30 7024 H 639.783 -2.63486 1.89065 0
M  V30 7025 H 639.568 -1.82588 3.46993 0
M  V30 7026 H 641.058 -2.75794 3.13572 0
M  V30 7027 N 641.495 -1.56914 -0.146875 0
M  V30 7028 C 642.772 -1.74273 -0.888165 0
M  V30 7029 C 643.152 -0.69496 -1.99333 0
M  V30 7030 O 642.5 0.286093 -2.26702 0
M  V30 7031 C 642.71 -3.18336 -1.43051 0
M  V30 7032 C 644.058 -3.80024 -1.89387 0
M  V30 7033 O 645.082 -3.21765 -1.52792 0
M  V30 7034 O 643.941 -4.82367 -2.56874 0
M  V30 7035 H 641.035 -0.712565 -0.419738 0
M  V30 7036 H 643.581 -1.6918 -0.132791 0
M  V30 7037 H 642.353 -3.86092 -0.636274 0
M  V30 7038 H 641.976 -3.27854 -2.24938 0
M  V30 7039 N 642.974 0.416227 -1.52004 0
M  V30 7040 C 643.904 1.51365 -1.77795 0
M  V30 7041 C 644.885 1.58059 -0.628601 0
M  V30 7042 O 646.07 1.73447 -0.873478 0
M  V30 7043 C 643.2 2.89256 -1.92219 0
M  V30 7044 C 642.154 2.97415 -3.0778 0
M  V30 7045 C 641.48 4.37492 -3.07417 0
M  V30 7046 C 642.78 2.69551 -4.47369 0
M  V30 7047 H 644.474 1.30033 -2.69688 0
M  V30 7048 H 642.02 0.624112 -1.29772 0
M  V30 7049 H 643.973 3.66008 -2.08845 0
M  V30 7050 H 642.697 3.11866 -0.969917 0
M  V30 7051 H 641.356 2.23107 -2.90893 0
M  V30 7052 H 641.004 4.571 -2.09925 0
M  V30 7053 H 640.704 4.43877 -3.85029 0
M  V30 7054 H 642.228 5.16188 -3.26162 0
M  V30 7055 H 643.642 3.36028 -4.64497 0
M  V30 7056 H 642.039 2.87321 -5.26846 0
M  V30 7057 H 643.109 1.65029 -4.55953 0
M  V30 7058 N 644.452 1.42507 0.673017 0
M  V30 7059 C 645.698 1.43284 1.43519 0
M  V30 7060 C 646.031 0.049668 1.94136 0
M  V30 7061 O 645.306 -0.926369 1.71022 0
M  V30 7062 C 645.589 2.45874 2.63093 0
M  V30 7063 C 645.442 3.93388 2.18096 0
M  V30 7064 C 646.761 2.45431 3.6531 0
M  V30 7065 H 643.88 0.521752 0.520522 0
M  V30 7066 H 646.522 1.73932 0.764701 0
M  V30 7067 H 644.672 2.19869 3.20296 0
M  V30 7068 H 646.344 4.30379 1.66046 0
M  V30 7069 H 644.587 4.07169 1.49652 0
M  V30 7070 H 645.258 4.60752 3.03993 0
M  V30 7071 H 647.734 2.68561 3.17827 0
M  V30 7072 H 646.61 3.19189 4.46553 0
M  V30 7073 H 646.871 1.48092 4.16559 0
M  V30 7074 N 645.93 -0.909495 1.28709 0
M  V30 7075 C 647.155 -1.69801 1.1909 0
M  V30 7076 C 647.58 -1.86479 -0.246388 0
M  V30 7077 O 646.938 -1.37802 -1.17815 0
M  V30 7078 C 646.986 -3.06543 1.89904 0
M  V30 7079 O 646.09 -3.94268 1.2094 0
M  V30 7080 H 645.431 -0.519783 0.413185 0
M  V30 7081 H 647.961 -1.13689 1.70106 0
M  V30 7082 H 647.971 -3.56748 1.97977 0
M  V30 7083 H 646.646 -2.93722 2.94449 0
M  V30 7084 H 645.223 -3.52702 1.2106 0
M  V30 7085 N 647.408 -1.11026 -1.11852 0
M  V30 7086 C 648.338 -0.786812 -2.19844 0
M  V30 7087 C 649.319 0.242935 -1.68356 0
M  V30 7088 O 650.504 0.107355 -1.93903 0
M  V30 7089 C 647.634 -0.224516 -3.46574 0
M  V30 7090 C 646.588 -1.18564 -4.1125 0
M  V30 7091 C 645.914 -0.484261 -5.32503 0
M  V30 7092 C 647.214 -2.53465 -4.56676 0
M  V30 7093 H 648.908 -1.68978 -2.47158 0
M  V30 7094 H 646.454 -0.813906 -1.18792 0
M  V30 7095 H 648.407 0.0139435 -4.21398 0
M  V30 7096 H 647.131 0.713722 -3.18706 0
M  V30 7097 H 645.79 -1.40966 -3.38414 0
M  V30 7098 H 645.438 0.458646 -5.00905 0
M  V30 7099 H 645.138 -1.12526 -5.76725 0
M  V30 7100 H 646.662 -0.254492 -6.10069 0
M  V30 7101 H 648.076 -2.35177 -5.22843 0
M  V30 7102 H 646.473 -3.13507 -5.11697 0
M  V30 7103 H 647.543 -3.13008 -3.70343 0
M  V30 7104 N 648.886 1.2938 -0.899927 0
M  V30 7105 C 650.135 1.9483 -0.521937 0
M  V30 7106 C 650.448 1.71725 0.936473 0
M  V30 7107 O 651.654 2.31282 1.42199 0
M  V30 7108 C 650.11 3.48911 -0.88255 0
M  V30 7109 C 649.718 3.80815 -2.35974 0
M  V30 7110 C 651.462 4.20595 -0.57448 0
M  V30 7111 C 649.369 5.28142 -2.66121 0
M  V30 7112 H 648.299 0.729285 -0.191468 0
M  V30 7113 H 650.95 1.47103 -1.09695 0
M  V30 7114 H 649.332 3.95293 -0.236459 0
M  V30 7115 H 650.506 3.45291 -3.05141 0
M  V30 7116 H 648.821 3.22271 -2.63686 0
M  V30 7117 H 651.418 5.29031 -0.776556 0
M  V30 7118 H 651.761 4.13442 0.487005 0
M  V30 7119 H 652.294 3.79945 -1.17842 0
M  V30 7120 H 649.033 5.4036 -3.71068 0
M  V30 7121 H 648.553 5.64913 -2.01578 0
M  V30 7122 H 650.232 5.95738 -2.52399 0
M  V30 7123 N 650.364 0.662433 1.43002 0
M  V30 7124 C 651.314 -0.0460442 2.27954 0
M  V30 7125 C 652.298 -0.785753 1.40409 0
M  V30 7126 O 653.49 -0.666701 1.63964 0
M  V30 7127 C 650.619 -1.00532 3.2825 0
M  V30 7128 C 649.705 -0.263604 4.2328 0
M  V30 7129 N 650.096 0.724855 5.00579 0
M  V30 7130 C 648.394 -0.503778 4.43146 0
M  V30 7131 C 649.095 1.16594 5.69895 0
M  V30 7132 N 648.071 0.498345 5.41311 0
M  V30 7133 H 651.873 0.712314 2.85137 0
M  V30 7134 H 649.387 0.490469 1.54817 0
M  V30 7135 H 651.384 -1.52775 3.87899 0
M  V30 7136 H 650.044 -1.76364 2.72628 0
M  V30 7137 H 651.055 1.10393 5.05998 0
M  V30 7138 H 647.732 -1.24255 3.98581 0
M  V30 7139 H 649.122 1.98434 6.4193 0
M  V30 7140 N 651.842 -1.52309 0.404946 0
M  V30 7141 C 653.082 -2.03677 -0.171779 0
M  V30 7142 C 653.446 -1.28419 -1.42733 0
M  V30 7143 O 654.647 -1.69991 -2.08222 0
M  V30 7144 C 652.918 -3.54951 -0.417701 0
M  V30 7145 S 654.477 -4.28114 -0.962472 0
M  V30 7146 H 651.295 -0.709445 -0.0469912 0
M  V30 7147 H 653.897 -1.874 0.556901 0
M  V30 7148 H 652.601 -4.07306 0.50295 0
M  V30 7149 H 652.132 -3.75462 -1.17437 0
M  V30 7150 H 654.147 -4.42589 -2.24342 0
M  V30 7151 N 653.32 -0.135238 -1.57019 0
M  V30 7152 C 654.25 0.805235 -2.19176 0
M  V30 7153 C 655.231 1.2656 -1.13651 0
M  V30 7154 O 656.416 1.32528 -1.4195 0
M  V30 7155 C 653.546 2.04914 -2.80406 0
M  V30 7156 C 652.5 1.72598 -3.91655 0
M  V30 7157 C 651.826 3.04154 -4.39766 0
M  V30 7158 C 653.126 0.981709 -5.12991 0
M  V30 7159 H 654.82 0.287232 -2.98019 0
M  V30 7160 H 652.366 0.136714 -1.4335 0
M  V30 7161 H 654.319 2.71178 -3.22553 0
M  V30 7162 H 653.043 2.59067 -1.98877 0
M  V30 7163 H 651.702 1.08717 -3.50109 0
M  V30 7164 H 651.35 3.56274 -3.55075 0
M  V30 7165 H 651.05 2.83299 -5.14796 0
M  V30 7166 H 652.574 3.71509 -4.84576 0
M  V30 7167 H 653.988 1.5462 -5.52056 0
M  V30 7168 H 652.385 0.873533 -5.93708 0
M  V30 7169 H 653.455 -0.0286887 -4.84892 0
M  V30 7170 N 654.798 1.5699 0.138552 0
M  V30 7171 C 655.748 1.9532 1.17619 0
M  V30 7172 C 656.732 0.825545 1.38107 0
M  V30 7173 O 657.924 1.08908 1.39528 0
M  V30 7174 C 655.053 2.34451 2.50774 0
M  V30 7175 C 654.139 3.53805 2.33844 0
M  V30 7176 N 654.53 4.70088 1.86685 0
M  V30 7177 C 652.828 3.59055 2.64567 0
M  V30 7178 C 653.529 5.52165 1.82998 0
M  V30 7179 N 652.505 4.94108 2.26624 0
M  V30 7180 H 656.307 2.82694 0.803809 0
M  V30 7181 H 653.821 1.5866 0.346519 0
M  V30 7182 H 655.818 2.60119 3.25797 0
M  V30 7183 H 654.478 1.48431 2.88788 0
M  V30 7184 H 655.489 4.93681 1.56523 0
M  V30 7185 H 652.166 2.83596 3.06398 0
M  V30 7186 H 653.556 6.55407 1.47957 0
M  V30 7187 N 656.276 -0.40816 1.52223 0
M  V30 7188 C 657.209 -1.51834 1.70357 0
M  V30 7189 C 658.187 -1.52973 0.551171 0
M  V30 7190 O 659.371 -1.71667 0.778642 0
M  V30 7191 C 656.498 -2.90362 1.74378 0
M  V30 7192 C 655.544 -3.0713 2.95928 0
M  V30 7193 S 656.377 -2.80342 4.56255 0
M  V30 7194 C 657.533 -4.21098 4.63063 0
M  V30 7195 H 657.766 -1.36223 2.64255 0
M  V30 7196 H 655.299 -0.599798 1.42274 0
M  V30 7197 H 657.257 -3.70199 1.77379 0
M  V30 7198 H 655.918 -3.03314 0.816063 0
M  V30 7199 H 655.111 -4.08482 2.95226 0
M  V30 7200 H 654.713 -2.3516 2.90819 0
M  V30 7201 H 657.005 -5.14749 4.40499 0
M  V30 7202 H 657.948 -4.26823 5.65002 0
M  V30 7203 H 658.356 -4.06114 3.92086 0
M  V30 7204 O 657.793 -1.51699 -0.554045 0
M  V30 7205 H 658.484 -1.51323 -1.20918 0
M  V30 END ATOM
M  V30 BEGIN BOND
M  V30 END BOND
M  V30 END CTAB
M  END
$$$$
