drugbank_target|Q15750 TGF-beta-activated kinase 1 and MAP3K7-binding protein 1 (DB06757)
 OpenBabel12092121033D

  0  0  0     0  0            999 V3000
M  V30 BEGIN CTAB
M  V30 COUNTS 7605 7680 0 0 0
M  V30 BEGIN ATOM
M  V30 1 H -0.908 1.98254 -0.117106 0
M  V30 2 N 0 1.576 0 0
M  V30 3 C 0.933 2.03868 1.02534 0
M  V30 4 C 1.911 0.928543 1.3348 0
M  V30 5 O 3.095 1.19667 1.45644 0
M  V30 6 C 0.222 2.43627 2.35294 0
M  V30 7 C -0.732 3.65373 2.2001 0
M  V30 8 S 0.101 5.13292 1.52614 0
M  V30 9 C 1.257 5.56322 2.86805 0
M  V30 10 H 1.49 2.90518 0.631377 0
M  V30 11 H -0.977 1.52953 0.210867 0
M  V30 12 H 0.981 2.67203 3.11629 0
M  V30 13 H -0.358 1.57376 2.7183 0
M  V30 14 H -1.165 3.90944 3.18086 0
M  V30 15 H -1.563 3.418 1.51819 0
M  V30 16 H 0.729 5.58782 3.83104 0
M  V30 17 H 1.672 6.56266 2.65933 0
M  V30 18 H 2.08 4.83886 2.90714 0
M  V30 19 N 1.4781 -0.272755 1.55222 0
M  V30 20 C 2.4411 -1.32041 1.87344 0
M  V30 21 C 3.4411 -1.42342 0.74803 0
M  V30 22 O 4.6311 -1.41488 1.0162 0
M  V30 23 C 1.7631 -2.70173 2.07893 0
M  V30 24 H 2.9561 -1.04789 2.80997 0
M  V30 25 H 0.5091 -0.51083 1.47717 0
M  V30 26 H 1.2441 -3.02605 1.16622 0
M  V30 27 H 1.0291 -2.64082 2.89833 0
M  V30 28 H 2.5191 -3.45869 2.34017 0
M  V30 29 N 2.9562 -1.48159 -0.537278 0
M  V30 30 C 3.9192 -1.61665 -1.62472 0
M  V30 31 C 4.9192 -0.490395 -1.5314 0
M  V30 32 O 6.1092 -0.755998 -1.5694 0
M  V30 33 C 3.2412 -1.57997 -3.02076 0
M  V30 34 H 4.4342 -2.58621 -1.51839 0
M  V30 35 H 1.9872 -1.36647 -0.758771 0
M  V30 36 H 2.7222 -0.624913 -3.18222 0
M  V30 37 H 2.5072 -2.39755 -3.10258 0
M  V30 38 H 3.9972 -1.70627 -3.81151 0
M  V30 39 N 4.4343 0.785586 -1.36625 0
M  V30 40 C 5.3663 1.90711 -1.2713 0
M  V30 41 C 6.3793 1.61688 -0.189986 0
M  V30 42 O 7.5683 1.72864 -0.445014 0
M  V30 43 C 4.6683 3.25611 -0.939713 0
M  V30 44 C 3.8413 3.82385 -2.12369 0
M  V30 45 C 2.9003 4.95732 -1.76456 0
M  V30 46 O 1.9263 5.12047 -2.48589 0
M  V30 47 N 3.1283 5.76258 -0.700492 0
M  V30 48 H 5.8933 1.99376 -2.23762 0
M  V30 49 H 3.4543 0.964041 -1.30069 0
M  V30 50 H 5.4463 3.98937 -0.680554 0
M  V30 51 H 4.0163 3.12538 -0.0624074 0
M  V30 52 H 3.2363 3.01001 -2.54543 0
M  V30 53 H 4.5243 4.17047 -2.9146 0
M  V30 54 H 3.9223 5.65609 -0.101624 0
M  V30 55 H 2.4793 6.4987 -0.501165 0
M  V30 56 N 5.9124 1.20967 1.01018 0
M  V30 57 C 7.3284 0.965905 1.27053 0
M  V30 58 C 7.5284 -0.350785 1.98423 0
M  V30 59 O 6.5844 -1.07773 2.28344 0
M  V30 60 C 7.8974 2.15294 2.09926 0
M  V30 61 C 9.4454 2.19463 2.23171 0
M  V30 62 C 9.9204 3.3767 3.09424 0
M  V30 63 N 11.4114 3.37724 3.17012 0
M  V30 64 C 12.1464 4.25837 3.83993 0
M  V30 65 N 11.6424 5.24138 4.53047 0
M  V30 66 N 13.4354 4.1366 3.80581 0
M  V30 67 H 5.5864 2.0565 0.531194 0
M  V30 68 H 7.8494 0.90024 0.297106 0
M  V30 69 H 7.5554 3.10684 1.64828 0
M  V30 70 H 7.4294 2.13923 3.10672 0
M  V30 71 H 9.8164 1.24632 2.6749 0
M  V30 72 H 9.8974 2.2488 1.21912 0
M  V30 73 H 9.5414 4.32791 2.65808 0
M  V30 74 H 9.4714 3.29491 4.10784 0
M  V30 75 H 11.9624 2.6658 2.6785 0
M  V30 76 H 12.2754 5.87684 5.01844 0
M  V30 77 H 10.6204 5.28068 4.5185 0
M  V30 78 H 13.8114 3.36127 3.25785 0
M  V30 79 H 13.9844 4.82538 4.32505 0
M  V30 80 N 7.3905 -1.2043 1.01659 0
M  V30 81 C 8.8065 -1.41852 0.731442 0
M  V30 82 C 9.0065 -1.89358 -0.688898 0
M  V30 83 O 8.0625 -2.06247 -1.45666 0
M  V30 84 C 9.3755 -2.44019 1.75714 0
M  V30 85 C 10.9235 -2.57785 1.77527 0
M  V30 86 C 11.3985 -3.63194 2.79023 0
M  V30 87 N 12.8895 -3.70678 2.77763 0
M  V30 88 C 13.6245 -4.51897 3.52954 0
M  V30 89 N 13.1205 -5.36921 4.37821 0
M  V30 90 N 14.9135 -4.4643 3.41551 0
M  V30 91 H 7.0645 -0.879093 1.93354 0
M  V30 92 H 9.3275 -0.448425 0.835236 0
M  V30 93 H 9.0335 -2.1611 2.77469 0
M  V30 94 H 8.9075 -3.43007 1.56927 0
M  V30 95 H 11.2945 -2.85023 0.764569 0
M  V30 96 H 11.3755 -1.58992 2.00387 0
M  V30 97 H 11.0195 -3.36699 3.80258 0
M  V30 98 H 10.9495 -4.61609 2.53425 0
M  V30 99 H 13.4405 -3.09944 2.16201 0
M  V30 100 H 13.7535 -5.95981 4.91962 0
M  V30 101 H 12.0985 -5.36424 4.41899 0
M  V30 102 H 15.2895 -3.79042 2.74672 0
M  V30 103 H 15.4625 -5.09491 4.00404 0
M  V30 104 N 8.8686 -0.792821 -1.36206 0
M  V30 105 C 10.0936 -0.377701 -2.03932 0
M  V30 106 C 10.5186 0.998947 -1.59382 0
M  V30 107 O 9.8766 1.64421 -0.763903 0
M  V30 108 C 9.9246 -0.453635 -3.57735 0
M  V30 109 O 9.0286 0.538151 -4.08874 0
M  V30 110 H 8.3696 -0.159855 -0.644471 0
M  V30 111 H 10.8996 -1.07488 -1.7409 0
M  V30 112 H 10.9096 -0.318464 -4.06755 0
M  V30 113 H 9.5846 -1.45784 -3.89512 0
M  V30 114 H 8.1616 0.364359 -3.71116 0
M  V30 115 N 10.3467 1.47872 -0.545128 0
M  V30 116 C 11.2767 2.32661 0.197793 0
M  V30 117 C 12.2577 1.43041 0.920504 0
M  V30 118 O 13.4427 1.71912 0.90333 0
M  V30 119 C 10.5727 3.24569 1.23582 0
M  V30 120 C 9.5267 4.23333 0.630323 0
M  V30 121 C 8.8527 5.0448 1.77211 0
M  V30 122 C 10.1527 5.20704 -0.407974 0
M  V30 123 H 11.8467 2.95024 -0.510045 0
M  V30 124 H 9.3927 1.4187 -0.246731 0
M  V30 125 H 11.3457 3.8272 1.76362 0
M  V30 126 H 10.0697 2.60236 1.97344 0
M  V30 127 H 8.7287 3.6639 0.123922 0
M  V30 128 H 8.3767 4.36561 2.49847 0
M  V30 129 H 8.0767 5.71339 1.37281 0
M  V30 130 H 9.6007 5.65487 2.3034 0
M  V30 131 H 11.0147 5.7329 0.033305 0
M  V30 132 H 9.4117 5.95699 -0.725486 0
M  V30 133 H 10.4817 4.66917 -1.30828 0
M  V30 134 N 11.8248 0.280983 1.55075 0
M  V30 135 C 12.7548 -0.597469 2.25727 0
M  V30 136 C 13.7358 -1.15417 1.24952 0
M  V30 137 O 14.9208 -1.18722 1.53684 0
M  V30 138 C 12.0508 -1.7789 2.98283 0
M  V30 139 C 11.0048 -1.35347 4.06036 0
M  V30 140 C 10.3308 -2.61846 4.66198 0
M  V30 141 C 11.6308 -0.499354 5.19907 0
M  V30 142 H 13.3248 -0.00824265 2.99399 0
M  V30 143 H 10.8708 -0.0025244 1.44 0
M  V30 144 H 12.8238 -2.39937 3.46422 0
M  V30 145 H 11.5478 -2.39405 2.22155 0
M  V30 146 H 10.2068 -0.756156 3.58717 0
M  V30 147 H 9.8548 -3.21632 3.86732 0
M  V30 148 H 9.5548 -2.3409 5.38958 0
M  V30 149 H 11.0788 -3.24732 5.1709 0
M  V30 150 H 12.4928 -1.02498 5.64063 0
M  V30 151 H 10.8898 -0.316424 5.99265 0
M  V30 152 H 11.9598 0.480459 4.82514 0
M  V30 153 N 13.3029 -1.57598 0.00835791 0
M  V30 154 C 14.2349 -2.05811 -1.00868 0
M  V30 155 C 15.2479 -0.977579 -1.30182 0
M  V30 156 O 16.4369 -1.25421 -1.27011 0
M  V30 157 C 13.5369 -2.45016 -2.34137 0
M  V30 158 C 12.7099 -3.75903 -2.23643 0
M  V30 159 C 11.7689 -4.01884 -3.3967 0
M  V30 160 O 10.7949 -4.72433 -3.17483 0
M  V30 161 N 11.9969 -3.50432 -4.62793 0
M  V30 162 H 14.7619 -2.93684 -0.597458 0
M  V30 163 H 12.3229 -1.60909 -0.178852 0
M  V30 164 H 14.3149 -2.59506 -3.10546 0
M  V30 165 H 12.8849 -1.62618 -2.66972 0
M  V30 166 H 12.1049 -3.7141 -1.32091 0
M  V30 167 H 13.3929 -4.61695 -2.13812 0
M  V30 168 H 12.7909 -2.93317 -4.83716 0
M  V30 169 H 11.3479 -3.70236 -5.3644 0
M  V30 170 N 14.781 0.264519 -1.55364 0
M  V30 171 C 16.006 1.01726 -1.80739 0
M  V30 172 C 16.431 1.78836 -0.583044 0
M  V30 173 O 15.789 1.75167 0.467566 0
M  V30 174 C 15.837 1.94482 -3.03659 0
M  V30 175 O 14.941 3.03386 -2.7934 0
M  V30 176 H 14.282 0.290395 -0.597132 0
M  V30 177 H 16.812 0.290854 -2.02522 0
M  V30 178 H 16.822 2.36278 -3.32621 0
M  V30 179 H 15.497 1.37772 -3.92418 0
M  V30 180 H 14.074 2.65844 -2.61498 0
M  V30 181 N 16.2591 1.48442 0.529413 0
M  V30 182 C 17.1691 1.6569 1.66084 0
M  V30 183 C 18.1851 0.539432 1.65427 0
M  V30 184 O 19.3611 0.810572 1.84368 0
M  V30 185 C 16.4261 1.69315 3.02545 0
M  V30 186 C 15.4871 2.92694 3.14052 0
M  V30 187 C 14.7201 2.96137 4.44003 0
M  V30 188 O 14.9431 2.07973 5.31134 0
M  V30 189 O 13.8771 3.88312 4.59888 0
M  V30 190 H 17.7031 2.61483 1.54469 0
M  V30 191 H 15.2881 1.3185 0.702567 0
M  V30 192 H 17.1701 1.74217 3.83701 0
M  V30 193 H 15.8451 0.766966 3.14483 0
M  V30 194 H 14.7521 2.93324 2.32189 0
M  V30 195 H 16.0851 3.84699 3.0703 0
M  V30 196 N 17.7372 -0.778329 1.37039 0
M  V30 197 C 18.6692 -1.90034 1.2814 0
M  V30 198 C 19.6822 -1.61585 0.198558 0
M  V30 199 O 20.8712 -1.72625 0.454175 0
M  V30 200 C 17.9712 -3.25108 0.956968 0
M  V30 201 C 17.1442 -3.81253 2.14394 0
M  V30 202 C 16.2032 -4.94789 1.79082 0
M  V30 203 O 15.2292 -5.10721 2.51301 0
M  V30 204 N 16.4312 -5.75878 0.731043 0
M  V30 205 H 19.1962 -1.98186 2.24816 0
M  V30 206 H 16.7572 -0.957129 1.30578 0
M  V30 207 H 18.7492 -3.9857 0.701701 0
M  V30 208 H 17.3192 -3.125 0.0789812 0
M  V30 209 H 16.5392 -2.99647 2.56135 0
M  V30 210 H 17.8272 -4.15495 2.93668 0
M  V30 211 H 17.2252 -5.65547 0.131618 0
M  V30 212 H 15.7822 -6.49596 0.535622 0
M  V30 213 N 19.2153 -1.21501 -1.00376 0
M  V30 214 C 20.1473 -0.933174 -2.09343 0
M  V30 215 C 21.1603 0.0840896 -1.62583 0
M  V30 216 O 22.3493 -0.148563 -1.77881 0
M  V30 217 C 19.4493 -0.379869 -3.36764 0
M  V30 218 C 18.6223 -1.45176 -4.12605 0
M  V30 219 C 17.6813 -0.907476 -5.18316 0
M  V30 220 O 16.7073 -1.5912 -5.46507 0
M  V30 221 N 17.9093 0.276649 -5.7984 0
M  V30 222 H 20.6743 -1.87124 -2.34104 0
M  V30 223 H 18.2353 -1.12043 -1.16867 0
M  V30 224 H 20.2273 -0.00131488 -4.047 0
M  V30 225 H 18.7973 0.463048 -3.09151 0
M  V30 226 H 18.0173 -2.00411 -3.39454 0
M  V30 227 H 19.3053 -2.17328 -4.6005 0
M  V30 228 H 18.7033 0.849147 -5.59291 0
M  V30 229 H 17.2603 0.596702 -6.49063 0
M  V30 230 N 20.6934 1.19889 -1.02296 0
M  V30 231 C 22.1044 1.71124 -0.746568 0
M  V30 232 C 22.4554 1.81939 0.734335 0
M  V30 233 O 21.5804 1.48639 1.57275 0
M  V30 234 C 22.1754 3.10804 -1.34857 0
M  V30 235 C 20.7344 3.59323 -1.1209 0
M  V30 236 C 19.8814 2.3635 -1.45031 0
M  V30 237 H 22.8324 1.04813 -1.19163 0
M  V30 238 H 22.8534 3.73186 -0.742437 0
M  V30 239 H 22.3654 3.029 -2.42638 0
M  V30 240 H 20.4664 3.7255 -0.0610337 0
M  V30 241 H 20.5794 4.4378 -1.80544 0
M  V30 242 H 18.9434 2.39399 -0.869487 0
M  V30 243 H 19.7264 2.31081 -2.53883 0
M  V30 244 N 22.1715 0.800033 1.35784 0
M  V30 245 C 23.3965 0.388511 2.03729 0
M  V30 246 C 23.8215 -0.990481 1.5991 0
M  V30 247 O 23.1795 -1.64013 0.772612 0
M  V30 248 C 23.2275 0.4726 3.5749 0
M  V30 249 O 22.3315 -0.51646 4.09153 0
M  V30 250 H 21.6725 0.163271 0.643614 0
M  V30 251 H 24.2025 1.0841 1.73518 0
M  V30 252 H 24.2125 0.34003 4.06581 0
M  V30 253 H 22.8875 1.47848 3.88734 0
M  V30 254 H 21.4645 -0.344673 3.71304 0
M  V30 255 N 23.6496 -1.47581 0.552962 0
M  V30 256 C 24.8956 -2.03369 0.0355807 0
M  V30 257 C 25.2506 -1.42016 -1.29805 0
M  V30 258 O 24.5436 -0.564917 -1.83083 0
M  V30 259 C 24.7376 -3.57199 -0.119728 0
M  V30 260 C 24.5666 -4.33468 1.1973 0
M  V30 261 C 23.3366 -4.7353 1.76345 0
M  V30 262 C 25.5346 -4.68866 2.11351 0
M  V30 263 N 23.5166 -5.34426 3.02097 0
M  V30 264 C 24.8876 -5.3002 3.21681 0
M  V30 265 C 26.9426 -4.50795 2.11397 0
M  V30 266 C 25.6456 -5.75011 4.32151 0
M  V30 267 C 27.6716 -4.96782 3.20876 0
M  V30 268 C 27.0336 -5.57981 4.29926 0
M  V30 269 H 23.1326 -0.780058 0.0550806 0
M  V30 270 H 25.7166 -1.80117 0.739315 0
M  V30 271 H 23.8876 -3.80227 -0.792579 0
M  V30 272 H 25.6196 -3.99627 -0.638792 0
M  V30 273 H 22.3746 -4.55352 1.30196 0
M  V30 274 H 22.7986 -5.69421 3.66182 0
M  V30 275 H 27.4406 -4.0284 1.28372 0
M  V30 276 H 25.1586 -6.21959 5.15938 0
M  V30 277 H 28.7446 -4.84573 3.21994 0
M  V30 278 H 27.6246 -5.92918 5.13243 0
M  V30 279 N 25.1277 -0.289203 -1.54924 0
M  V30 280 C 26.3557 0.326463 -2.04308 0
M  V30 281 C 26.7707 1.48413 -1.16701 0
M  V30 282 O 26.1277 1.81507 -0.190087 0
M  V30 283 C 26.1787 0.794014 -3.52672 0
M  V30 284 O 25.8997 -0.317564 -4.36948 0
M  V30 285 C 27.4007 1.47605 -4.18004 0
M  V30 286 H 24.6207 0.0726272 -0.667058 0
M  V30 287 H 27.1647 -0.425401 -2.00026 0
M  V30 288 H 25.3197 1.49593 -3.57352 0
M  V30 289 H 25.7337 0.0443186 -5.24481 0
M  V30 290 H 27.2077 1.75447 -5.23376 0
M  V30 291 H 27.6847 2.41224 -3.67025 0
M  V30 292 H 28.2907 0.81762 -4.17367 0
M  V30 293 N 26.6058 1.57591 -0.0167156 0
M  V30 294 C 27.8828 1.82547 0.702564 0
M  V30 295 C 28.2628 0.898018 1.91047 0
M  V30 296 O 27.6108 -0.0493456 2.28447 0
M  V30 297 C 27.8208 3.31459 1.09251 0
M  V30 298 C 29.1688 3.97622 1.48937 0
M  V30 299 O 30.1928 3.35881 1.18584 0
M  V30 300 O 29.0518 5.06415 2.05442 0
M  V30 301 H 26.1458 0.752268 0.343544 0
M  V30 302 H 28.6918 1.69644 -0.0434495 0
M  V30 303 H 27.4638 3.9061 0.23227 0
M  V30 304 H 27.0868 3.49422 1.89709 0
M  V30 305 N 28.0839 -0.256276 1.55502 0
M  V30 306 C 29.3609 -1.00789 1.67633 0
M  V30 307 C 29.7409 -2.03706 0.553826 0
M  V30 308 O 29.0889 -2.24145 -0.443969 0
M  V30 309 C 29.2989 -1.64968 3.07549 0
M  V30 310 C 30.6469 -2.15505 3.65845 0
M  V30 311 O 31.6709 -1.74925 3.1029 0
M  V30 312 O 30.5299 -2.89986 4.63217 0
M  V30 313 H 27.6239 -0.468553 0.681459 0
M  V30 314 H 30.1699 -0.250806 1.67836 0
M  V30 315 H 28.9419 -0.904785 3.80696 0
M  V30 316 H 28.5649 -2.47321 3.11317 0
M  V30 317 N 29.562 -1.4872 -0.521534 0
M  V30 318 C 30.492 -1.66771 -1.63431 0
M  V30 319 C 31.473 -0.516499 -1.62069 0
M  V30 320 O 32.658 -0.750013 -1.79132 0
M  V30 321 C 29.788 -1.71515 -3.01993 0
M  V30 322 C 28.742 -2.86222 -3.18216 0
M  V30 323 C 28.068 -2.76061 -4.57924 0
M  V30 324 C 29.368 -4.27419 -3.00184 0
M  V30 325 H 31.062 -2.59932 -1.48579 0
M  V30 326 H 28.608 -1.25089 -0.713358 0
M  V30 327 H 30.561 -1.82731 -3.7972 0
M  V30 328 H 29.285 -0.749393 -3.17886 0
M  V30 329 H 27.944 -2.74575 -2.42908 0
M  V30 330 H 27.592 -1.77437 -4.70665 0
M  V30 331 H 27.292 -3.53037 -4.69722 0
M  V30 332 H 28.816 -2.89256 -5.37739 0
M  V30 333 H 30.23 -4.39855 -3.67697 0
M  V30 334 H 28.627 -5.05458 -3.2347 0
M  V30 335 H 29.697 -4.43293 -1.96518 0
M  V30 336 N 31.0401 0.771051 -1.3745 0
M  V30 337 C 32.4511 1.34737 -1.29239 0
M  V30 338 C 32.8021 1.96109 0.0596908 0
M  V30 339 O 31.9271 1.93865 0.961534 0
M  V30 340 C 32.5221 2.44973 -2.34037 0
M  V30 341 C 31.0811 2.98372 -2.29458 0
M  V30 342 C 30.2281 1.71595 -2.17831 0
M  V30 343 H 33.1791 0.571256 -1.48062 0
M  V30 344 H 33.2001 3.24471 -1.98744 0
M  V30 345 H 32.7121 2.00276 -3.32432 0
M  V30 346 H 30.8131 3.47443 -1.34589 0
M  V30 347 H 30.9261 3.53939 -3.229 0
M  V30 348 H 29.2901 1.94547 -1.64388 0
M  V30 349 H 30.0731 1.29001 -3.18141 0
M  V30 350 N 32.5182 1.22032 0.997298 0
M  V30 351 C 33.4482 1.01065 2.10495 0
M  V30 352 C 34.4292 -0.0669542 1.69968 0
M  V30 353 O 35.6142 0.0943987 1.9397 0
M  V30 354 C 32.7442 0.582874 3.42374 0
M  V30 355 C 31.6982 1.60592 3.96729 0
M  V30 356 C 31.0242 1.03412 5.24605 0
M  V30 357 C 32.3242 2.99478 4.27914 0
M  V30 358 H 34.0182 1.93708 2.28292 0
M  V30 359 H 31.5642 0.932761 1.09707 0
M  V30 360 H 33.5172 0.423332 4.19268 0
M  V30 361 H 32.2412 -0.379213 3.24391 0
M  V30 362 H 30.9002 1.75316 3.21963 0
M  V30 363 H 30.5482 0.063518 5.0296 0
M  V30 364 H 30.2482 1.71754 5.61938 0
M  V30 365 H 31.7722 0.886066 6.04137 0
M  V30 366 H 33.1862 2.88153 4.95622 0
M  V30 367 H 31.5832 3.64903 4.76409 0
M  V30 368 H 32.6532 3.49742 3.3587 0
M  V30 369 N 33.9963 -1.19345 1.0293 0
M  V30 370 C 35.2363 -1.90738 0.734727 0
M  V30 371 C 35.6003 -1.7785 -0.723414 0
M  V30 372 O 36.8013 -2.43844 -1.13108 0
M  V30 373 C 35.0723 -3.37569 1.17396 0
M  V30 374 S 36.6313 -4.27176 1.00329 0
M  V30 375 H 33.4493 -0.658771 0.267474 0
M  V30 376 H 36.0513 -1.4428 1.31922 0
M  V30 377 H 34.7553 -3.44475 2.23081 0
M  V30 378 H 34.2863 -3.8906 0.582772 0
M  V30 379 H 36.3013 -4.96126 -0.0859152 0
M  V30 380 N 35.4744 -0.807222 -1.35358 0
M  V30 381 C 36.4244 -0.190706 -2.27201 0
M  V30 382 C 37.4084 0.635838 -1.47804 0
M  V30 383 O 38.6004 0.492991 -1.69996 0
M  V30 384 C 35.7294 0.659337 -3.36909 0
M  V30 385 C 34.8154 -0.176971 -4.23731 0
M  V30 386 N 35.2064 -1.24029 -4.90357 0
M  V30 387 C 33.5044 0.0412953 -4.45981 0
M  V30 388 C 34.2054 -1.75092 -5.54723 0
M  V30 389 N 33.1814 -1.05727 -5.33219 0
M  V30 390 H 36.9834 -1.0043 -2.76208 0
M  V30 391 H 34.4974 -0.648445 -1.48892 0
M  V30 392 H 36.4944 1.11706 -4.01656 0
M  V30 393 H 35.1544 1.47127 -2.89454 0
M  V30 394 H 36.1654 -1.62295 -4.91814 0
M  V30 395 H 32.8424 0.82232 -4.09322 0
M  V30 396 H 34.2324 -2.63963 -6.17878 0
M  V30 397 N 36.9525 1.47285 -0.560781 0
M  V30 398 C 37.8825 2.32857 0.173105 0
M  V30 399 C 38.8635 1.44009 0.905281 0
M  V30 400 O 40.0485 1.7286 0.885046 0
M  V30 401 C 37.1785 3.25861 1.20133 0
M  V30 402 C 36.1325 4.23978 0.585388 0
M  V30 403 C 35.4585 5.06332 1.7185 0
M  V30 404 C 36.7585 5.20242 -0.463178 0
M  V30 405 H 38.4525 2.94466 -0.541307 0
M  V30 406 H 35.9985 1.41601 -0.261764 0
M  V30 407 H 37.9515 3.84569 1.72293 0
M  V30 408 H 36.6755 2.62315 1.94573 0
M  V30 409 H 35.3345 3.66501 0.085054 0
M  V30 410 H 34.9825 4.39186 2.45203 0
M  V30 411 H 34.6825 5.72762 1.31213 0
M  V30 412 H 36.2065 5.67899 2.24329 0
M  V30 413 H 37.6205 5.73293 -0.027502 0
M  V30 414 H 36.0175 5.94896 -0.788627 0
M  V30 415 H 37.0875 4.65504 -1.35773 0
M  V30 416 N 38.4306 0.297415 1.54768 0
M  V30 417 C 39.6556 -0.318435 2.04941 0
M  V30 418 C 40.0806 -1.4701 1.17345 0
M  V30 419 O 39.4386 -1.80436 0.176758 0
M  V30 420 C 39.4866 -0.755749 3.52592 0
M  V30 421 O 38.5906 -1.86088 3.68028 0
M  V30 422 H 37.9316 -0.062421 0.661059 0
M  V30 423 H 40.4616 0.438215 1.99852 0
M  V30 424 H 40.4716 -1.04552 3.94376 0
M  V30 425 H 39.1466 0.0867233 4.1581 0
M  V30 426 H 37.7236 -1.57193 3.38149 0
M  V30 427 N 39.9087 -1.5758 0.0250728 0
M  V30 428 C 41.1567 -1.91255 -0.653151 0
M  V30 429 C 41.4777 -0.901691 -1.729 0
M  V30 430 O 40.7477 0.0573785 -1.95816 0
M  V30 431 H 39.3277 -0.705942 -0.244243 0
M  V30 432 H 41.9897 -1.94767 0.0719209 0
M  V30 433 H 41.0857 -2.91752 -1.10847 0
M  V30 434 N 41.3868 0.248026 -1.55636 0
M  V30 435 C 42.6328 0.97767 -1.77678 0
M  V30 436 C 42.9658 1.85016 -0.590135 0
M  V30 437 O 42.2408 1.90095 0.411611 0
M  V30 438 C 42.5238 1.83914 -3.09593 0
M  V30 439 C 42.3768 0.99491 -4.38659 0
M  V30 440 C 43.6958 2.82183 -3.37729 0
M  V30 441 H 40.8148 0.354005 -0.646413 0
M  V30 442 H 43.4568 0.248253 -1.88371 0
M  V30 443 H 41.6068 2.46104 -3.00608 0
M  V30 444 H 43.2788 0.391789 -4.59633 0
M  V30 445 H 41.5218 0.299231 -4.32767 0
M  V30 446 H 42.1928 1.63145 -5.2734 0
M  V30 447 H 44.6688 2.30129 -3.4667 0
M  V30 448 H 43.5448 3.39582 -4.31249 0
M  V30 449 H 43.8058 3.58588 -2.58586 0
M  V30 450 N 42.8649 1.48995 0.513639 0
M  V30 451 C 44.1129 1.57531 1.26604 0
M  V30 452 C 44.4339 0.258236 1.93283 0
M  V30 453 O 43.7039 -0.721502 1.8213 0
M  V30 454 H 42.2839 0.580387 0.470276 0
M  V30 455 H 44.9459 1.85552 0.596373 0
M  V30 456 H 44.0419 2.36486 2.03669 0
M  V30 457 N 44.343 -0.763751 1.37857 0
M  V30 458 C 45.568 -1.55805 1.36893 0
M  V30 459 C 45.993 -1.88054 -0.0416135 0
M  V30 460 O 45.351 -1.49825 -1.02089 0
M  V30 461 C 45.399 -2.84012 2.22192 0
M  V30 462 O 44.503 -3.78732 1.63204 0
M  V30 463 H 43.844 -0.471638 0.46739 0
M  V30 464 H 46.374 -0.944657 1.81487 0
M  V30 465 H 46.384 -3.33037 2.35691 0
M  V30 466 H 45.059 -2.59869 3.24716 0
M  V30 467 H 43.636 -3.37402 1.58791 0
M  V30 468 N 45.8211 -1.22559 -0.990812 0
M  V30 469 C 46.7841 -0.998863 -2.0629 0
M  V30 470 C 47.7841 0.0354834 -1.60761 0
M  V30 471 O 48.9741 -0.203231 -1.7301 0
M  V30 472 C 46.1061 -0.509203 -3.37076 0
M  V30 473 H 47.2991 -1.95014 -2.27837 0
M  V30 474 H 44.8521 -1.04456 -1.16269 0
M  V30 475 H 45.5871 0.446335 -3.21214 0
M  V30 476 H 45.3721 -1.25547 -3.71457 0
M  V30 477 H 46.8621 -0.370888 -4.1595 0
M  V30 478 N 47.2992 1.18797 -1.03562 0
M  V30 479 C 48.5242 1.9314 -0.755764 0
M  V30 480 C 48.9492 1.7537 0.68022 0
M  V30 481 O 48.3072 1.06046 1.47051 0
M  V30 482 C 48.3552 3.42747 -1.12058 0
M  V30 483 O 47.4592 4.11683 -0.243124 0
M  V30 484 H 46.8002 0.602724 -0.278604 0
M  V30 485 H 49.3302 1.50678 -1.3841 0
M  V30 486 H 49.3402 3.93437 -1.08035 0
M  V30 487 H 48.0152 3.55002 -2.16672 0
M  V30 488 H 46.5922 3.71323 -0.342539 0
M  V30 489 N 48.7773 0.814389 1.34928 0
M  V30 490 C 49.7253 0.218424 2.31572 0
M  V30 491 C 50.7193 -0.636128 1.57002 0
M  V30 492 O 51.9253 -0.52842 1.72069 0
M  V30 493 H 48.3003 0.0518799 0.750208 0
M  V30 494 H 50.2713 1.04852 2.79372 0
M  V30 495 C 49.0203 -0.61207 3.4227 0
M  V30 496 H 48.3433 0.0361578 3.99784 0
M  V30 497 H 49.7833 -0.995317 4.12152 0
M  V30 498 C 48.2423 -1.78087 2.85984 0
M  V30 499 O 48.7723 -2.8787 2.80168 0
M  V30 500 N 46.9783 -1.59488 2.42924 0
M  V30 501 H 46.5253 -0.701874 2.47854 0
M  V30 502 H 46.4833 -2.37846 2.05613 0
M  V30 503 N 50.2554 -1.46986 0.568584 0
M  V30 504 C 51.6714 -1.57946 0.229189 0
M  V30 505 C 51.8714 -1.56567 -1.26843 0
M  V30 506 O 50.9274 -1.47511 -2.04931 0
M  V30 507 C 52.2404 -2.87963 0.865909 0
M  V30 508 C 53.7884 -3.01568 0.838188 0
M  V30 509 C 54.2634 -4.34301 1.45419 0
M  V30 510 N 55.7544 -4.40965 1.41788 0
M  V30 511 C 56.4894 -5.42256 1.86403 0
M  V30 512 N 55.9854 -6.50297 2.38926 0
M  V30 513 N 57.7784 -5.3337 1.77405 0
M  V30 514 H 49.9294 -1.46126 1.54146 0
M  V30 515 H 52.1924 -0.696156 0.643484 0
M  V30 516 H 51.8984 -2.94742 1.91886 0
M  V30 517 H 51.7724 -3.75423 0.365687 0
M  V30 518 H 54.1594 -2.94379 -0.206106 0
M  V30 519 H 54.2404 -2.1562 1.37629 0
M  V30 520 H 53.8844 -4.42247 2.49761 0
M  V30 521 H 53.8144 -5.19 0.891435 0
M  V30 522 H 56.3054 -3.63484 1.03381 0
M  V30 523 H 56.6184 -7.23777 2.70863 0
M  V30 524 H 54.9634 -6.51155 2.42944 0
M  V30 525 H 58.1544 -4.47865 1.3614 0
M  V30 526 H 58.3274 -6.12169 2.12492 0
M  V30 527 N 51.7335 -0.305618 -1.54608 0
M  V30 528 C 52.9585 0.307562 -2.05107 0
M  V30 529 C 53.3835 1.46385 -1.18123 0
M  V30 530 O 52.7415 1.8034 -0.186324 0
M  V30 531 C 52.7895 0.73704 -3.52987 0
M  V30 532 O 51.8935 1.84134 -3.6901 0
M  V30 533 H 51.2345 0.0589143 -0.661381 0
M  V30 534 H 53.7645 -0.448807 -1.99617 0
M  V30 535 H 53.7745 1.02459 -3.94925 0
M  V30 536 H 52.4495 -0.108773 -4.15758 0
M  V30 537 H 51.0265 1.55398 -3.38978 0
M  V30 538 N 53.2116 1.57565 -0.0334293 0
M  V30 539 C 54.4416 1.95996 0.653398 0
M  V30 540 C 54.8496 0.908749 1.65947 0
M  V30 541 O 54.1926 -0.117471 1.83324 0
M  V30 542 C 54.2546 3.30589 1.41249 0
M  V30 543 C 53.9186 4.53503 0.564263 0
M  V30 544 C 54.9156 5.19647 -0.16225 0
M  V30 545 C 52.6006 4.99801 0.500398 0
M  V30 546 C 54.5946 6.30412 -0.941255 0
M  V30 547 C 52.2816 6.10448 -0.282308 0
M  V30 548 C 53.2796 6.75612 -1.00184 0
M  V30 549 O 52.9676 7.84134 -1.77171 0
M  V30 550 H 52.6996 0.65027 0.184728 0
M  V30 551 H 55.2536 2.05199 -0.0907841 0
M  V30 552 H 53.4836 3.17888 2.20191 0
M  V30 553 H 55.1726 3.53892 1.98784 0
M  V30 554 H 55.9386 4.84846 -0.12227 0
M  V30 555 H 51.8176 4.48883 1.05002 0
M  V30 556 H 55.3616 6.81208 -1.50339 0
M  V30 557 H 51.2586 6.44686 -0.323989 0
M  V30 558 H 52.0266 8.00822 -1.69194 0
M  V30 559 N 54.6897 -0.239769 1.55765 0
M  V30 560 C 55.9147 -0.988373 1.82335 0
M  V30 561 C 56.3397 -1.77886 0.611421 0
M  V30 562 O 55.6977 -1.75889 -0.439639 0
M  V30 563 C 55.7457 -1.89627 3.06715 0
M  V30 564 O 54.8497 -2.98904 2.84131 0
M  V30 565 H 54.1907 -0.280858 0.601677 0
M  V30 566 H 56.7207 -0.258597 2.02959 0
M  V30 567 H 56.7307 -2.30957 3.36338 0
M  V30 568 H 55.4057 -1.31511 3.9456 0
M  V30 569 H 53.9827 -2.61651 2.65694 0
M  V30 570 N 56.1678 -1.49265 -0.50573 0
M  V30 571 C 57.1308 -1.65075 -1.59006 0
M  V30 572 C 58.1308 -0.522768 -1.52065 0
M  V30 573 O 59.3208 -0.789117 -1.55302 0
M  V30 574 C 56.4528 -1.64369 -2.98656 0
M  V30 575 H 57.6458 -2.61784 -1.46319 0
M  V30 576 H 55.1988 -1.38226 -0.729616 0
M  V30 577 H 55.9338 -0.692272 -3.16825 0
M  V30 578 H 55.7188 -2.46282 -3.05103 0
M  V30 579 H 57.2088 -1.78674 -3.77446 0
M  V30 580 N 57.6459 0.756429 -1.3826 0
M  V30 581 C 58.9229 1.50584 -1.24835 0
M  V30 582 C 59.3029 2.10556 0.151485 0
M  V30 583 O 58.6509 1.96825 1.1607 0
M  V30 584 C 58.8609 2.57448 -2.3563 0
M  V30 585 C 60.2089 3.24429 -2.73917 0
M  V30 586 O 61.2329 2.67751 -2.34921 0
M  V30 587 O 60.0919 4.26937 -3.41156 0
M  V30 588 H 57.1859 0.667664 -0.48801 0
M  V30 589 H 59.7319 0.792083 -1.5008 0
M  V30 590 H 58.5039 2.11362 -3.29305 0
M  V30 591 H 58.1269 3.36408 -2.11933 0
M  V30 592 N 59.124 1.23083 0.984299 0
M  V30 593 C 60.372 1.05848 1.72165 0
M  V30 594 C 60.693 -0.406049 1.90726 0
M  V30 595 O 59.963 -1.29139 1.47309 0
M  V30 596 H 58.543 0.388685 0.637913 0
M  V30 597 H 61.205 1.54736 1.18503 0
M  V30 598 H 60.301 1.54327 2.71274 0
M  V30 599 N 60.6021 -1.18246 1.0419 0
M  V30 600 C 61.5491 -2.2192 0.634037 0
M  V30 601 C 62.5191 -1.62179 -0.358765 0
M  V30 602 O 63.7041 -1.89122 -0.252466 0
M  V30 603 C 60.8441 -3.451 0.00445535 0
M  V30 604 C 59.9571 -4.19174 1.04487 0
M  V30 605 C 59.0921 -5.29813 0.383676 0
M  V30 606 C 58.1311 -5.9566 1.4091 0
M  V30 607 N 57.2681 -6.97834 0.772784 0
M  V30 608 H 62.1081 -2.56164 1.52263 0
M  V30 609 H 59.6451 -1.25843 0.761701 0
M  V30 610 H 61.6031 -4.15485 -0.377919 0
M  V30 611 H 60.2331 -3.11472 -0.847652 0
M  V30 612 H 59.2851 -3.47604 1.54518 0
M  V30 613 H 60.5971 -4.64267 1.82368 0
M  V30 614 H 59.7511 -6.06677 -0.0528366 0
M  V30 615 H 58.4901 -4.85825 -0.427208 0
M  V30 616 H 57.4951 -5.17535 1.85574 0
M  V30 617 H 58.7201 -6.4173 2.22171 0
M  V30 618 H 56.6661 -6.55998 -0.0177708 0
M  V30 619 H 56.5831 -7.41186 1.48928 0
M  V30 620 H 57.8511 -7.78665 0.36071 0
M  V30 621 N 62.0802 -0.821533 -1.34494 0
M  V30 622 C 63.3282 -0.408139 -1.97936 0
M  V30 623 C 63.6492 1.03193 -1.65457 0
M  V30 624 O 62.9192 1.71622 -0.944595 0
M  V30 625 H 61.4992 -0.147928 -0.732206 0
M  V30 626 H 64.1612 -1.05067 -1.64155 0
M  V30 627 H 63.2572 -0.52601 -3.07635 0
M  V30 628 N 63.5583 1.46682 -0.576371 0
M  V30 629 C 64.7863 2.06798 -0.0649635 0
M  V30 630 C 65.2013 1.42612 1.23723 0
M  V30 631 O 64.5583 0.529203 1.74659 0
M  V30 632 C 64.6093 3.6132 0.114202 0
M  V30 633 O 64.3303 4.23104 -1.13644 0
M  V30 634 C 65.8313 4.38349 0.66069 0
M  V30 635 H 63.0513 0.668778 -0.0545616 0
M  V30 636 H 65.5953 1.88404 -0.795237 0
M  V30 637 H 63.7503 3.79162 0.794673 0
M  V30 638 H 64.1643 5.15894 -0.946253 0
M  V30 639 H 65.6383 5.47081 0.73526 0
M  V30 640 H 66.1153 4.05953 1.67627 0
M  V30 641 H 66.7213 4.25297 0.0152951 0
M  V30 642 N 65.0364 0.313813 1.54444 0
M  V30 643 C 65.9464 -0.565714 2.27677 0
M  V30 644 C 66.9624 -1.13754 1.31666 0
M  V30 645 O 68.1384 -1.15959 1.64668 0
M  V30 646 C 65.2034 -1.71528 3.01296 0
M  V30 647 C 64.2644 -1.17624 4.12872 0
M  V30 648 C 63.4974 -2.27102 4.8297 0
M  V30 649 O 63.7204 -3.47256 4.52514 0
M  V30 650 O 62.6544 -1.9307 5.70094 0
M  V30 651 H 66.4804 0.0287296 3.03686 0
M  V30 652 H 64.0654 0.0798312 1.49187 0
M  V30 653 H 65.9474 -2.38476 3.4743 0
M  V30 654 H 64.6224 -2.29608 2.2817 0
M  V30 655 H 63.5294 -0.472124 3.71109 0
M  V30 656 H 64.8624 -0.640695 4.88012 0
M  V30 657 N 66.5145 -1.57545 0.0417849 0
M  V30 658 C 67.7395 -1.97035 -0.647455 0
M  V30 659 C 68.1645 -0.918775 -1.64135 0
M  V30 660 O 67.5225 0.119006 -1.80909 0
M  V30 661 C 67.5705 -3.35609 -1.31905 0
M  V30 662 O 66.6745 -3.3287 -2.43457 0
M  V30 663 H 66.0155 -0.64211 -0.169086 0
M  V30 664 H 68.5455 -2.04318 0.107399 0
M  V30 665 H 68.5555 -3.72126 -1.67291 0
M  V30 666 H 67.2305 -4.11685 -0.590586 0
M  V30 667 H 65.8075 -3.08087 -2.10088 0
M  V30 668 N 67.9926 0.231505 -1.5589 0
M  V30 669 C 68.9426 1.29007 -1.87993 0
M  V30 670 C 69.9266 1.42764 -0.742102 0
M  V30 671 O 71.1186 1.45747 -1.00433 0
M  V30 672 C 68.2476 2.6425 -2.1915 0
M  V30 673 C 67.3336 2.54435 -3.39299 0
M  V30 674 N 67.7246 2.14262 -4.58176 0
M  V30 675 C 66.0226 2.85416 -3.42715 0
M  V30 676 C 66.7236 2.15455 -5.40328 0
M  V30 677 N 65.6996 2.55558 -4.79783 0
M  V30 678 H 69.5016 0.970213 -2.77424 0
M  V30 679 H 67.0156 0.440097 -1.56323 0
M  V30 680 H 69.0126 3.40665 -2.40319 0
M  V30 681 H 67.6726 2.9709 -1.31025 0
M  V30 682 H 68.6836 1.85554 -4.83518 0
M  V30 683 H 65.3606 3.22693 -2.64906 0
M  V30 684 H 66.7506 1.86605 -6.45467 0
M  V30 685 N 69.4707 1.49531 0.497807 0
M  V30 686 C 70.8817 1.52344 1.07927 0
M  V30 687 C 71.2327 0.311469 1.93712 0
M  V30 688 O 70.3577 -0.578405 2.08527 0
M  V30 689 C 70.9527 2.76062 1.96405 0
M  V30 690 C 69.5117 2.81643 2.49709 0
M  V30 691 C 68.6587 2.46299 1.27404 0
M  V30 692 H 71.6097 1.56182 0.281576 0
M  V30 693 H 71.6307 2.56405 2.81135 0
M  V30 694 H 71.1427 3.64254 1.33943 0
M  V30 695 H 69.2437 1.97739 3.15801 0
M  V30 696 H 69.3567 3.83891 2.86643 0
M  V30 697 H 67.7207 1.98148 1.60029 0
M  V30 698 H 68.5037 3.36769 0.66645 0
M  V30 699 N 70.9488 -0.749086 1.3866 0
M  V30 700 C 72.3598 -1.32664 1.31366 0
M  V30 701 C 72.7108 -1.96179 -0.028484 0
M  V30 702 O 71.8358 -1.9537 -0.93057 0
M  V30 703 C 72.4308 -2.41219 2.37905 0
M  V30 704 C 70.9898 -2.94684 2.34176 0
M  V30 705 C 70.1368 -1.68108 2.20533 0
M  V30 706 H 73.0878 -0.547628 1.48952 0
M  V30 707 H 73.1088 -3.21268 2.0388 0
M  V30 708 H 72.6208 -1.94962 3.35576 0
M  V30 709 H 70.7218 -3.45258 1.401 0
M  V30 710 H 70.8348 -3.48757 3.2849 0
M  V30 711 H 69.1988 -1.91907 1.67463 0
M  V30 712 H 69.9818 -1.23923 3.20153 0
M  V30 713 N 72.4269 -1.23603 -0.977757 0
M  V30 714 C 73.3369 -1.03632 -2.1047 0
M  V30 715 C 74.3529 0.0199435 -1.73989 0
M  V30 716 O 75.5289 -0.176076 -2.00629 0
M  V30 717 C 72.5939 -0.63276 -3.40877 0
M  V30 718 C 71.6549 -1.76437 -3.91367 0
M  V30 719 C 70.8879 -1.37997 -5.15551 0
M  V30 720 O 71.1109 -0.265357 -5.69782 0
M  V30 721 O 70.0449 -2.20201 -5.60174 0
M  V30 722 H 73.8709 -1.98086 -2.30208 0
M  V30 723 H 71.4559 -1.02332 -1.08851 0
M  V30 724 H 73.3379 -0.418761 -4.19314 0
M  V30 725 H 72.0129 0.282754 -3.22463 0
M  V30 726 H 70.9199 -2.03304 -3.14036 0
M  V30 727 H 72.2529 -2.6583 -4.14241 0
M  V30 728 N 73.905 1.17692 -1.04816 0
M  V30 729 C 75.182 1.83768 -0.669963 0
M  V30 730 C 75.562 1.93232 0.849986 0
M  V30 731 O 74.91 1.46397 1.75443 0
M  V30 732 C 75.12 3.21641 -1.35455 0
M  V30 733 C 76.468 3.97592 -1.49017 0
M  V30 734 O 77.492 3.31107 -1.31326 0
M  V30 735 O 76.351 5.16729 -1.77914 0
M  V30 736 H 73.445 0.792799 -0.235368 0
M  V30 737 H 75.991 1.25021 -1.14751 0
M  V30 738 H 74.763 3.097 -2.39168 0
M  V30 739 H 74.386 3.88052 -0.866107 0
M  V30 740 N 75.3831 0.828654 1.34056 0
M  V30 741 C 76.6081 0.431637 2.02859 0
M  V30 742 C 77.0331 -0.956339 1.61975 0
M  V30 743 O 76.3911 -1.62338 0.807228 0
M  V30 744 C 76.4391 0.548323 3.56407 0
M  V30 745 O 75.5431 -0.429556 4.10157 0
M  V30 746 H 74.8841 0.176886 0.640006 0
M  V30 747 H 77.4141 1.12066 1.71179 0
M  V30 748 H 77.4241 0.426196 4.05768 0
M  V30 749 H 76.0991 1.5606 3.8551 0
M  V30 750 H 74.6761 -0.265836 3.71951 0
M  V30 751 N 76.8612 -1.46375 0.584142 0
M  V30 752 C 78.1072 -2.03248 0.0787103 0
M  V30 753 C 78.4622 -1.44737 -1.26763 0
M  V30 754 O 77.7552 -0.603625 -1.81843 0
M  V30 755 C 77.9492 -3.57373 -0.0439342 0
M  V30 756 C 77.7782 -4.30831 1.28897 0
M  V30 757 C 76.5482 -4.69683 1.8635 0
M  V30 758 C 78.7462 -4.64278 2.21248 0
M  V30 759 N 76.7282 -5.27898 3.13365 0
M  V30 760 C 78.0992 -5.23078 3.32851 0
M  V30 761 C 80.1542 -4.46209 2.20911 0
M  V30 762 C 78.8572 -5.65715 4.44251 0
M  V30 763 C 80.8832 -4.89864 3.31341 0
M  V30 764 C 80.2452 -5.48736 4.41665 0
M  V30 765 H 76.3442 -0.778714 0.0716144 0
M  V30 766 H 78.9282 -1.78509 0.777355 0
M  V30 767 H 77.0992 -3.81823 -0.711749 0
M  V30 768 H 78.8312 -4.00892 -0.553881 0
M  V30 769 H 75.5862 -4.52488 1.39826 0
M  V30 770 H 76.0102 -5.61525 3.78178 0
M  V30 771 H 80.6522 -4.00027 1.36888 0
M  V30 772 H 78.3702 -6.10875 5.29015 0
M  V30 773 H 81.9562 -4.77634 3.322 0
M  V30 774 H 80.8362 -5.81898 5.25704 0
M  V30 775 N 78.3393 -0.321999 -1.54275 0
M  V30 776 C 79.2693 0.537411 -2.27231 0
M  V30 777 C 80.2503 1.12064 -1.27968 0
M  V30 778 O 81.4353 1.14606 -1.56777 0
M  V30 779 C 78.5653 1.69919 -3.02894 0
M  V30 780 C 77.5193 1.24534 -4.09482 0
M  V30 781 C 76.8453 2.49394 -4.72977 0
M  V30 782 C 78.1453 0.361335 -5.21049 0
M  V30 783 H 79.8393 -0.0711406 -2.99315 0
M  V30 784 H 77.3853 -0.0356555 -1.43956 0
M  V30 785 H 79.3383 2.30668 -3.52662 0
M  V30 786 H 78.0623 2.33431 -2.28424 0
M  V30 787 H 76.7213 0.660782 -3.60596 0
M  V30 788 H 76.3693 3.11265 -3.95124 0
M  V30 789 H 76.0693 2.19718 -5.44975 0
M  V30 790 H 77.5933 3.10908 -5.25517 0
M  V30 791 H 79.0073 0.875072 -5.66582 0
M  V30 792 H 77.4043 0.157428 -5.99893 0
M  V30 793 H 78.4743 -0.60822 -4.8107 0
M  V30 794 N 79.8174 1.5752 -0.0501392 0
M  V30 795 C 80.7644 2.1147 0.924603 0
M  V30 796 C 81.7344 1.02182 1.30951 0
M  V30 797 O 82.9194 1.29723 1.39916 0
M  V30 798 C 80.0594 2.66337 2.19451 0
M  V30 799 C 79.1724 3.89708 1.86418 0
M  V30 800 C 78.3074 4.32893 3.07859 0
M  V30 801 C 77.3464 5.48967 2.70742 0
M  V30 802 N 76.4834 5.87211 3.84874 0
M  V30 803 H 81.3234 2.94465 0.457639 0
M  V30 804 H 78.8604 1.45531 0.214266 0
M  V30 805 H 80.8184 2.96247 2.93758 0
M  V30 806 H 79.4484 1.86141 2.63726 0
M  V30 807 H 78.5004 3.66396 1.02264 0
M  V30 808 H 79.8124 4.74074 1.55096 0
M  V30 809 H 78.9664 4.6435 3.90466 0
M  V30 810 H 77.7054 3.47336 3.42358 0
M  V30 811 H 76.7104 5.17183 1.86551 0
M  V30 812 H 77.9354 6.3624 2.37436 0
M  V30 813 H 75.8814 5.04607 4.19175 0
M  V30 814 H 75.7984 6.66266 3.57247 0
M  V30 815 H 77.0664 6.23282 4.68123 0
M  V30 816 N 81.2955 -0.223234 1.56011 0
M  V30 817 C 82.5425 -0.947875 1.78946 0
M  V30 818 C 82.8705 -1.844 0.618608 0
M  V30 819 O 82.1255 -1.91629 -0.397093 0
M  V30 820 C 82.4245 -1.81948 3.0762 0
M  V30 821 C 82.0905 -1.07672 4.37856 0
M  V30 822 C 80.7525 -0.871544 4.73242 0
M  V30 823 C 83.1045 -0.552081 5.18268 0
M  V30 824 C 80.4325 -0.129791 5.86556 0
M  V30 825 C 82.7845 0.17632 6.32354 0
M  V30 826 C 81.4485 0.39277 6.66343 0
M  V30 827 H 80.7185 -0.346852 0.654809 0
M  V30 828 H 83.3655 -0.216171 1.90276 0
M  V30 829 H 81.6705 -2.61899 2.91404 0
M  V30 830 H 83.3675 -2.38227 3.22566 0
M  V30 831 H 79.9575 -1.24662 4.1007 0
M  V30 832 H 84.1415 -0.698076 4.91366 0
M  V30 833 H 79.3975 0.048153 6.11381 0
M  V30 834 H 83.5715 0.590367 6.93893 0
M  V30 835 H 81.1985 0.969466 7.53993 0
M  V30 836 N 82.7736 -1.49793 -0.48987 0
M  V30 837 C 84.1896 -1.36803 -0.822022 0
M  V30 838 C 84.3896 -0.409652 -1.97292 0
M  V30 839 O 83.4456 0.154614 -2.52026 0
M  V30 840 C 84.7586 -2.77768 -1.15175 0
M  V30 841 C 86.3066 -2.86549 -1.25931 0
M  V30 842 C 86.7816 -4.28306 -1.62228 0
M  V30 843 N 88.2726 -4.31169 -1.69256 0
M  V30 844 C 89.0076 -5.37832 -1.98807 0
M  V30 845 N 88.5036 -6.54726 -2.26507 0
M  V30 846 N 90.2966 -5.25258 -2.00152 0
M  V30 847 H 82.4476 -2.10691 0.268881 0
M  V30 848 H 84.7106 -0.946241 0.057728 0
M  V30 849 H 84.4166 -3.49648 -0.379335 0
M  V30 850 H 84.2906 -3.13836 -2.09253 0
M  V30 851 H 86.6776 -2.14899 -2.02243 0
M  V30 852 H 86.7586 -2.54049 -0.298776 0
M  V30 853 H 86.4026 -5.00486 -0.864622 0
M  V30 854 H 86.3326 -4.58279 -2.594 0
M  V30 855 H 88.8236 -3.4687 -1.49965 0
M  V30 856 H 89.1366 -7.31833 -2.48276 0
M  V30 857 H 87.4816 -6.57933 -2.23939 0
M  V30 858 H 90.6726 -4.32938 -1.77996 0
M  V30 859 H 90.8456 -6.08476 -2.22848 0
M  V30 860 N 84.2517 0.741722 -1.39055 0
M  V30 861 C 85.4767 1.53607 -1.39354 0
M  V30 862 C 85.9017 1.88096 0.0116905 0
M  V30 863 O 85.2597 1.5143 0.996924 0
M  V30 864 C 85.3077 2.80441 -2.26682 0
M  V30 865 O 84.4117 3.76088 -1.69208 0
M  V30 866 H 83.7527 0.464142 -0.474835 0
M  V30 867 H 86.2827 0.915665 -1.82967 0
M  V30 868 H 86.2927 3.29246 -2.40959 0
M  V30 869 H 84.9677 2.5467 -3.2881 0
M  V30 870 H 83.5447 3.34833 -1.64138 0
M  V30 871 N 85.7298 1.2412 0.971189 0
M  V30 872 C 86.6398 1.04747 2.09917 0
M  V30 873 C 87.6558 -0.0107162 1.73997 0
M  V30 874 O 88.8318 0.186714 2.00533 0
M  V30 875 C 85.8968 0.650828 3.40537 0
M  V30 876 C 84.9578 1.7851 3.90426 0
M  V30 877 C 84.1908 1.40729 5.14812 0
M  V30 878 O 84.4138 0.29557 5.69634 0
M  V30 879 O 83.3478 2.23168 5.58999 0
M  V30 880 H 87.1738 1.99304 2.29154 0
M  V30 881 H 84.7588 1.02908 1.08307 0
M  V30 882 H 86.6408 0.440992 4.19086 0
M  V30 883 H 85.3158 -0.265649 3.22608 0
M  V30 884 H 84.2228 2.04966 3.12953 0
M  V30 885 H 85.5558 2.68023 4.12825 0
M  V30 886 N 87.2079 -1.17134 1.05439 0
M  V30 887 C 88.1559 -2.23289 0.651511 0
M  V30 888 C 89.1499 -1.66186 -0.328411 0
M  V30 889 O 90.3559 -1.78949 -0.194206 0
M  V30 890 H 86.7309 -0.726938 0.192523 0
M  V30 891 H 88.7019 -2.54565 1.55689 0
M  V30 892 C 87.4509 -3.47671 0.0448436 0
M  V30 893 H 86.7739 -3.91918 0.78996 0
M  V30 894 H 88.2139 -4.2353 -0.19964 0
M  V30 895 C 86.6729 -3.14453 -1.20918 0
M  V30 896 O 87.2029 -3.29459 -2.29825 0
M  V30 897 N 85.4089 -2.68657 -1.10779 0
M  V30 898 H 84.9559 -2.56646 -0.221526 0
M  V30 899 H 84.9139 -2.46804 -1.9477 0
M  V30 900 N 88.686 -0.835752 -1.33615 0
M  V30 901 C 89.634 -0.255238 -2.31195 0
M  V30 902 C 90.628 0.61107 -1.57995 0
M  V30 903 O 91.834 0.500979 -1.72888 0
M  V30 904 H 88.209 -0.0638085 -0.749288 0
M  V30 905 H 90.18 -1.09283 -2.77669 0
M  V30 906 C 88.929 0.55754 -3.43201 0
M  V30 907 H 88.252 -0.0997553 -3.99676 0
M  V30 908 H 89.692 0.929622 -4.13683 0
M  V30 909 C 88.151 1.73515 -2.88781 0
M  V30 910 O 88.681 2.83376 -2.84712 0
M  V30 911 N 86.887 1.55603 -2.4543 0
M  V30 912 H 86.434 0.662354 -2.48939 0
M  V30 913 H 86.392 2.34545 -2.09371 0
M  V30 914 N 90.1641 1.46063 -0.591896 0
M  V30 915 C 91.4041 2.04228 -0.0838014 0
M  V30 916 C 91.7681 1.45231 1.25587 0
M  V30 917 O 92.9691 1.94653 1.85375 0
M  V30 918 C 91.2401 3.57389 -0.0286282 0
M  V30 919 S 92.7991 4.3678 0.420557 0
M  V30 920 H 89.6171 0.709762 -0.0419319 0
M  V30 921 H 92.2191 1.78983 -0.786465 0
M  V30 922 H 90.9231 3.97843 -1.00743 0
M  V30 923 H 90.4541 3.87185 0.69652 0
M  V30 924 H 92.4691 4.67131 1.67341 0
M  V30 925 N 91.6422 0.330177 1.54103 0
M  V30 926 C 92.8892 -0.270405 2.00686 0
M  V30 927 C 93.2172 -1.51621 1.21825 0
M  V30 928 O 92.4722 -1.93536 0.29025 0
M  V30 929 C 92.7712 -0.643134 3.51566 0
M  V30 930 C 92.4372 0.504251 4.48072 0
M  V30 931 C 91.0992 0.819163 4.74176 0
M  V30 932 C 93.4512 1.27465 5.05373 0
M  V30 933 C 90.7792 1.90708 5.5484 0
M  V30 934 C 93.1312 2.35271 5.87223 0
M  V30 935 C 91.7952 2.67336 6.11627 0
M  V30 936 H 91.0652 -0.0989482 0.734364 0
M  V30 937 H 93.7122 0.455324 1.86008 0
M  V30 938 H 92.0172 -1.44938 3.64006 0
M  V30 939 H 93.7142 -1.11949 3.85056 0
M  V30 940 H 90.3042 0.248733 4.27878 0
M  V30 941 H 94.4882 1.04462 4.85182 0
M  V30 942 H 89.7442 2.15991 5.71977 0
M  V30 943 H 93.9182 2.95405 6.30641 0
M  V30 944 H 91.5452 3.51763 6.73919 0
M  V30 945 N 93.1203 -1.57491 0.0584922 0
M  V30 946 C 94.0503 -2.14988 -0.911178 0
M  V30 947 C 95.0313 -1.07343 -1.31952 0
M  V30 948 O 96.2163 -1.35318 -1.39294 0
M  V30 949 C 93.3463 -2.70078 -2.18347 0
M  V30 950 C 92.3003 -3.82771 -1.91495 0
M  V30 951 C 91.6263 -4.24408 -3.25241 0
M  V30 952 C 92.9263 -5.07592 -1.23075 0
M  V30 953 H 94.6203 -2.96263 -0.432246 0
M  V30 954 H 92.1663 -1.42512 -0.206469 0
M  V30 955 H 94.1193 -3.08943 -2.86587 0
M  V30 956 H 92.8433 -1.86005 -2.68458 0
M  V30 957 H 91.5023 -3.44389 -1.25664 0
M  V30 958 H 91.1503 -3.37275 -3.73168 0
M  V30 959 H 90.8503 -5.00366 -3.08071 0
M  V30 960 H 92.3743 -4.65879 -3.94701 0
M  V30 961 H 93.7883 -5.43857 -1.81362 0
M  V30 962 H 92.1853 -5.88741 -1.16207 0
M  V30 963 H 93.2553 -4.84454 -0.207847 0
M  V30 964 N 94.5984 0.214957 -1.56127 0
M  V30 965 C 95.8284 0.953707 -1.8327 0
M  V30 966 C 96.2364 1.78181 -0.636262 0
M  V30 967 O 95.5794 1.79191 0.404516 0
M  V30 968 C 95.6414 1.91516 -3.0424 0
M  V30 969 C 95.3054 1.27094 -4.38972 0
M  V30 970 C 96.3024 0.657575 -5.15725 0
M  V30 971 C 93.9874 1.28073 -4.85698 0
M  V30 972 C 95.9814 0.0625968 -6.37369 0
M  V30 973 C 93.6684 0.681914 -6.07283 0
M  V30 974 C 94.6664 0.0739046 -6.8296 0
M  V30 975 O 94.3544 -0.515582 -8.02245 0
M  V30 976 H 94.0864 0.284764 -0.613095 0
M  V30 977 H 96.6404 0.233283 -2.04071 0
M  V30 978 H 94.8704 2.67475 -2.79274 0
M  V30 979 H 96.5594 2.52001 -3.18198 0
M  V30 980 H 97.3254 0.642288 -4.80728 0
M  V30 981 H 93.2044 1.74337 -4.26764 0
M  V30 982 H 96.7484 -0.412593 -6.96379 0
M  V30 983 H 92.6454 0.694636 -6.41752 0
M  V30 984 H 93.4134 -0.410544 -8.1747 0
M  V30 985 N 96.0765 1.50051 0.48192 0
M  V30 986 C 97.3245 1.60181 1.23234 0
M  V30 987 C 97.6455 0.299176 1.92691 0
M  V30 988 O 96.9155 -0.682708 1.83619 0
M  V30 989 H 95.4955 0.590232 0.457859 0
M  V30 990 H 98.1575 1.86775 0.556881 0
M  V30 991 H 97.2535 2.40753 1.98607 0
M  V30 992 N 97.5546 -0.734337 1.39446 0
M  V30 993 C 98.8006 -1.49613 1.36908 0
M  V30 994 C 99.1336 -1.94169 -0.0347829 0
M  V30 995 O 98.4086 -1.66833 -0.999847 0
M  V30 996 C 98.6916 -2.73534 2.34203 0
M  V30 997 C 98.5446 -2.34993 3.83534 0
M  V30 998 C 99.8636 -3.75635 2.29317 0
M  V30 999 H 96.9826 -0.542714 0.498629 0
M  V30 1000 H 99.6246 -0.839597 1.70443 0
M  V30 1001 H 97.7746 -3.29553 2.05736 0
M  V30 1002 H 99.4466 -1.84601 4.22753 0
M  V30 1003 H 97.6896 -1.67213 4.00278 0
M  V30 1004 H 98.3606 -3.23738 4.47099 0
M  V30 1005 H 100.837 -3.29203 2.54489 0
M  V30 1006 H 99.7126 -4.60008 2.99472 0
M  V30 1007 H 99.9736 -4.22603 1.29842 0
M  V30 1008 N 99.0327 -1.24633 -0.964593 0
M  V30 1009 C 100.28 -1.08788 -1.70796 0
M  V30 1010 C 100.608 0.372783 -1.90894 0
M  V30 1011 O 99.8627 1.29167 -1.47018 0
M  V30 1012 C 100.162 -1.7763 -3.10133 0
M  V30 1013 C 99.8277 -3.27557 -3.09866 0
M  V30 1014 C 98.4897 -3.6846 -3.09501 0
M  V30 1015 C 100.842 -4.23389 -3.03959 0
M  V30 1016 C 98.1697 -5.03624 -3.00965 0
M  V30 1017 C 100.522 -5.58565 -2.96965 0
M  V30 1018 C 99.1857 -5.98809 -2.9493 0
M  V30 1019 H 98.4557 -0.398084 -0.624988 0
M  V30 1020 H 101.103 -1.54777 -1.12767 0
M  V30 1021 H 99.4077 -1.24044 -3.71645 0
M  V30 1022 H 101.105 -1.62832 -3.66451 0
M  V30 1023 H 97.6947 -2.95006 -3.10917 0
M  V30 1024 H 101.879 -3.92787 -3.03368 0
M  V30 1025 H 97.1347 -5.33998 -2.97752 0
M  V30 1026 H 101.309 -6.32523 -2.91354 0
M  V30 1027 H 98.9357 -7.03505 -2.88071 0
M  V30 1028 N 100.511 1.16574 -1.06058 0
M  V30 1029 C 101.459 2.22941 -0.663343 0
M  V30 1030 C 102.453 1.66358 0.319593 0
M  V30 1031 O 103.659 1.7905 0.184713 0
M  V30 1032 H 100.034 0.725907 -0.196376 0
M  V30 1033 H 102.005 2.53736 -1.57037 0
M  V30 1034 C 100.754 3.47642 -0.0632808 0
M  V30 1035 H 100.077 3.91493 -0.810733 0
M  V30 1036 H 101.517 4.2363 0.177177 0
M  V30 1037 C 99.9758 3.1509 1.19248 0
M  V30 1038 O 100.506 3.30673 2.28075 0
M  V30 1039 N 98.7118 2.6924 1.09353 0
M  V30 1040 H 98.2588 2.5676 0.207912 0
M  V30 1041 H 98.2168 2.47833 1.93458 0
M  V30 1042 N 101.989 0.842826 1.3317 0
M  V30 1043 C 103.237 0.439577 1.97262 0
M  V30 1044 C 103.558 -1.00548 1.67078 0
M  V30 1045 O 102.828 -1.70098 0.971779 0
M  V30 1046 H 101.408 0.159558 0.72976 0
M  V30 1047 H 104.07 1.07665 1.62463 0
M  V30 1048 H 103.166 0.574886 3.0676 0
M  V30 1049 N 103.467 -1.45747 0.599634 0
M  V30 1050 C 104.697 -2.06369 0.0977132 0
M  V30 1051 C 105.105 -1.44624 -1.21985 0
M  V30 1052 O 104.448 -0.551831 -1.75216 0
M  V30 1053 C 104.51 -3.59284 -0.124673 0
M  V30 1054 C 104.174 -4.43318 1.10987 0
M  V30 1055 C 105.171 -4.78796 2.02609 0
M  V30 1056 C 102.856 -4.84194 1.33647 0
M  V30 1057 C 104.85 -5.53997 3.15224 0
M  V30 1058 C 102.537 -5.5915 2.46565 0
M  V30 1059 C 103.535 -5.93968 3.37182 0
M  V30 1060 O 103.223 -6.67405 4.48136 0
M  V30 1061 H 102.955 -0.673122 0.0623153 0
M  V30 1062 H 105.509 -1.88104 0.824981 0
M  V30 1063 H 103.739 -3.75919 -0.906745 0
M  V30 1064 H 105.428 -4.01775 -0.577201 0
M  V30 1065 H 106.194 -4.47781 1.86325 0
M  V30 1066 H 102.073 -4.56534 0.64016 0
M  V30 1067 H 105.617 -5.81091 3.85978 0
M  V30 1068 H 101.514 -5.89579 2.62805 0
M  V30 1069 H 102.282 -6.85847 4.46717 0
M  V30 1070 N 104.945 -0.338344 -1.53925 0
M  V30 1071 C 106.222 0.314774 -1.93051 0
M  V30 1072 C 106.602 1.68669 -1.26941 0
M  V30 1073 O 105.95 2.24636 -0.418445 0
M  V30 1074 C 106.16 0.392249 -3.46789 0
M  V30 1075 C 107.508 0.645554 -4.19664 0
M  V30 1076 O 108.532 0.474575 -3.53024 0
M  V30 1077 O 107.391 0.976408 -5.37707 0
M  V30 1078 H 104.485 0.182598 -0.80659 0
M  V30 1079 H 107.031 -0.389141 -1.65178 0
M  V30 1080 H 105.803 -0.570702 -3.87116 0
M  V30 1081 H 105.426 1.14316 -3.80812 0
M  V30 1082 N 106.423 1.57458 -0.0668435 0
M  V30 1083 C 107.671 1.92919 0.602214 0
M  V30 1084 C 107.992 0.947215 1.70449 0
M  V30 1085 O 107.262 -0.00544117 1.95899 0
M  V30 1086 H 105.842 0.71217 0.22544 0
M  V30 1087 H 108.504 1.94508 -0.123535 0
M  V30 1088 H 107.6 2.94589 1.03073 0
M  V30 1089 N 107.901 -0.206675 1.56239 0
M  V30 1090 C 108.849 -1.27571 1.94495 0
M  V30 1091 C 109.843 -1.47737 0.828862 0
M  V30 1092 O 111.049 -1.48735 1.0138 0
M  V30 1093 H 107.424 -0.428029 0.6183 0
M  V30 1094 H 109.395 -0.925961 2.8367 0
M  V30 1095 C 108.144 -2.61568 2.29079 0
M  V30 1096 H 107.467 -2.46863 3.14482 0
M  V30 1097 H 108.907 -3.35144 2.5972 0
M  V30 1098 C 107.366 -3.17695 1.12123 0
M  V30 1099 O 107.896 -3.99801 0.390153 0
M  V30 1100 N 106.102 -2.76276 0.901097 0
M  V30 1101 H 105.649 -2.09613 1.49733 0
M  V30 1102 H 105.607 -3.1417 0.120319 0
M  V30 1103 N 109.379 -1.50304 -0.473955 0
M  V30 1104 C 110.795 -1.37667 -0.807466 0
M  V30 1105 C 110.995 -0.430555 -1.96846 0
M  V30 1106 O 110.051 0.127874 -2.52176 0
M  V30 1107 C 111.364 -2.78974 -1.12223 0
M  V30 1108 C 112.912 -2.87868 -1.22885 0
M  V30 1109 C 113.387 -4.30003 -1.57676 0
M  V30 1110 N 114.878 -4.3294 -1.64673 0
M  V30 1111 C 115.613 -5.3991 -1.93091 0
M  V30 1112 N 115.109 -6.57092 -2.1955 0
M  V30 1113 N 116.902 -5.27351 -1.94569 0
M  V30 1114 H 109.053 -2.10394 0.291212 0
M  V30 1115 H 111.316 -0.945575 0.0677609 0
M  V30 1116 H 111.022 -3.50031 -0.342229 0
M  V30 1117 H 110.896 -3.16038 -2.05913 0
M  V30 1118 H 113.283 -2.17032 -1.99953 0
M  V30 1119 H 113.364 -2.54352 -0.271814 0
M  V30 1120 H 113.008 -5.01375 -0.81149 0
M  V30 1121 H 112.938 -4.61004 -2.54525 0
M  V30 1122 H 115.429 -3.48441 -1.46277 0
M  V30 1123 H 115.742 -7.34425 -2.405 0
M  V30 1124 H 114.087 -6.60272 -2.16948 0
M  V30 1125 H 117.278 -4.34801 -1.73394 0
M  V30 1126 H 117.451 -6.10805 -2.16381 0
M  V30 1127 N 110.857 0.726932 -1.39834 0
M  V30 1128 C 112.103 1.48884 -1.377 0
M  V30 1129 C 112.436 1.94185 0.0244852 0
M  V30 1130 O 111.711 1.67361 0.990986 0
M  V30 1131 C 111.994 2.72288 -2.3565 0
M  V30 1132 C 111.847 2.32956 -3.84775 0
M  V30 1133 C 113.166 3.74414 -2.31306 0
M  V30 1134 H 110.285 0.540062 -0.5015 0
M  V30 1135 H 112.927 0.830547 -1.70886 0
M  V30 1136 H 111.077 3.28457 -2.07481 0
M  V30 1137 H 112.749 1.82356 -4.23726 0
M  V30 1138 H 110.992 1.65088 -4.01159 0
M  V30 1139 H 111.663 3.21362 -4.4881 0
M  V30 1140 H 114.139 3.27849 -2.56231 0
M  V30 1141 H 113.015 4.58414 -3.01907 0
M  V30 1142 H 113.276 4.21909 -1.32081 0
M  V30 1143 N 112.336 1.25143 0.95797 0
M  V30 1144 C 113.564 1.12424 1.73691 0
M  V30 1145 C 113.979 -0.322304 1.86029 0
M  V30 1146 O 113.336 -1.22186 1.35561 0
M  V30 1147 C 113.387 1.76933 3.15241 0
M  V30 1148 O 113.108 3.15932 3.03511 0
M  V30 1149 C 114.609 1.6995 4.09429 0
M  V30 1150 H 111.829 0.3923 0.544373 0
M  V30 1151 H 114.373 1.6544 1.20207 0
M  V30 1152 H 112.528 1.27895 3.6568 0
M  V30 1153 H 112.942 3.47598 3.9278 0
M  V30 1154 H 114.416 2.19753 5.06372 0
M  V30 1155 H 114.893 0.662619 4.34173 0
M  V30 1156 H 115.499 2.18461 3.64904 0
M  V30 1157 N 113.814 -1.1601 1.06675 0
M  V30 1158 C 114.762 -2.22586 0.675157 0
M  V30 1159 C 115.756 -1.66525 -0.310766 0
M  V30 1160 O 116.962 -1.79145 -0.175215 0
M  V30 1161 H 113.337 -0.724855 0.200223 0
M  V30 1162 H 115.308 -2.52899 1.58381 0
M  V30 1163 C 114.057 -3.47604 0.0817162 0
M  V30 1164 H 113.38 -3.91058 0.831484 0
M  V30 1165 H 114.82 -4.23718 -0.154708 0
M  V30 1166 C 113.279 -3.15718 -1.17576 0
M  V30 1167 O 113.809 -3.31878 -2.26318 0
M  V30 1168 N 112.015 -2.69816 -1.07923 0
M  V30 1169 H 111.562 -2.56866 -0.194293 0
M  V30 1170 H 111.52 -2.48855 -1.92141 0
M  V30 1171 N 115.292 -0.849877 -1.32721 0
M  V30 1172 C 116.539 -0.450923 -1.97416 0
M  V30 1173 C 116.867 0.992376 -1.67279 0
M  V30 1174 O 116.122 1.71048 -0.950845 0
M  V30 1175 C 116.421 -0.631272 -3.51781 0
M  V30 1176 C 116.087 -2.04432 -4.01894 0
M  V30 1177 C 114.749 -2.4308 -4.1529 0
M  V30 1178 C 117.101 -2.96679 -4.28522 0
M  V30 1179 C 114.429 -3.73257 -4.52654 0
M  V30 1180 C 116.781 -4.26349 -4.67343 0
M  V30 1181 C 115.445 -4.64939 -4.78945 0
M  V30 1182 H 114.715 -0.165004 -0.722395 0
M  V30 1183 H 117.362 -1.07901 -1.58207 0
M  V30 1184 H 115.667 0.0800767 -3.91718 0
M  V30 1185 H 117.364 -0.302709 -3.99856 0
M  V30 1186 H 113.954 -1.73419 -3.91949 0
M  V30 1187 H 118.138 -2.68054 -4.17685 0
M  V30 1188 H 113.394 -4.02946 -4.59831 0
M  V30 1189 H 117.568 -4.97895 -4.86902 0
M  V30 1190 H 115.195 -5.65855 -5.07654 0
M  V30 1191 N 116.77 1.45427 -0.607355 0
M  V30 1192 C 118.016 2.0254 -0.102607 0
M  V30 1193 C 118.349 1.47478 1.26348 0
M  V30 1194 O 117.624 0.64939 1.83339 0
M  V30 1195 C 117.907 3.60044 -0.0634347 0
M  V30 1196 C 117.76 4.2544 -1.46017 0
M  V30 1197 C 119.079 4.35646 0.624514 0
M  V30 1198 H 116.198 0.73598 -0.0387607 0
M  V30 1199 H 118.84 1.73284 -0.779282 0
M  V30 1200 H 116.99 3.85101 0.512808 0
M  V30 1201 H 118.662 4.11569 -2.08347 0
M  V30 1202 H 116.905 3.83849 -2.02094 0
M  V30 1203 H 117.576 5.34342 -1.385 0
M  V30 1204 H 120.052 4.15882 0.134723 0
M  V30 1205 H 118.928 5.45376 0.621028 0
M  V30 1206 H 119.189 4.08501 1.69055 0
M  V30 1207 N 118.248 0.346503 1.53744 0
M  V30 1208 C 119.211 -0.496439 2.23759 0
M  V30 1209 C 120.211 -1.0252 1.2388 0
M  V30 1210 O 121.401 -0.913974 1.48297 0
M  V30 1211 C 118.533 -1.69187 2.95954 0
M  V30 1212 H 119.726 0.115952 2.99676 0
M  V30 1213 H 117.279 0.0978939 1.55993 0
M  V30 1214 H 118.014 -2.34288 2.24231 0
M  V30 1215 H 117.799 -1.31989 3.69217 0
M  V30 1216 H 119.289 -2.28969 3.49232 0
M  V30 1217 N 119.726 -1.57421 0.075193 0
M  V30 1218 C 120.658 -2.09904 -0.920483 0
M  V30 1219 C 121.671 -1.03191 -1.25918 0
M  V30 1220 O 122.86 -1.30695 -1.21577 0
M  V30 1221 C 119.96 -2.54726 -2.23534 0
M  V30 1222 C 119.133 -3.8505 -2.07498 0
M  V30 1223 C 118.192 -4.15929 -3.22319 0
M  V30 1224 O 117.218 -4.85474 -2.9716 0
M  V30 1225 N 118.42 -3.69745 -4.47514 0
M  V30 1226 H 121.185 -2.95954 -0.472359 0
M  V30 1227 H 118.746 -1.61523 -0.110444 0
M  V30 1228 H 120.738 -2.72443 -2.9926 0
M  V30 1229 H 119.308 -1.73795 -2.59835 0
M  V30 1230 H 118.528 -3.76679 -1.16219 0
M  V30 1231 H 119.816 -4.70348 -1.94038 0
M  V30 1232 H 119.214 -3.13569 -4.7084 0
M  V30 1233 H 117.771 -3.92655 -5.20255 0
M  V30 1234 N 121.204 0.198386 -1.56346 0
M  V30 1235 C 122.62 0.549085 -1.49857 0
M  V30 1236 C 122.82 1.86016 -0.774611 0
M  V30 1237 O 121.876 2.50416 -0.323776 0
M  V30 1238 C 123.189 0.606868 -2.94512 0
M  V30 1239 C 124.737 0.695925 -3.05165 0
M  V30 1240 C 125.212 0.784848 -4.51225 0
M  V30 1241 N 126.703 0.848463 -4.55363 0
M  V30 1242 C 127.438 0.937378 -5.65686 0
M  V30 1243 N 126.934 0.9888 -6.85707 0
M  V30 1244 N 128.727 0.974312 -5.53592 0
M  V30 1245 H 120.878 -0.661655 -2.01831 0
M  V30 1246 H 123.141 -0.235261 -0.918344 0
M  V30 1247 H 122.847 -0.28732 -3.50524 0
M  V30 1248 H 122.721 1.46268 -3.47686 0
M  V30 1249 H 125.108 1.58055 -2.49204 0
M  V30 1250 H 125.189 -0.186022 -2.55123 0
M  V30 1251 H 124.833 -0.0954072 -5.0781 0
M  V30 1252 H 124.763 1.68255 -4.98997 0
M  V30 1253 H 127.254 0.818103 -3.68938 0
M  V30 1254 H 127.567 1.05707 -7.65536 0
M  V30 1255 H 125.912 0.957534 -6.88372 0
M  V30 1256 H 129.103 0.930954 -4.58749 0
M  V30 1257 H 129.276 1.04015 -6.39597 0
M  V30 1258 N 122.682 1.50554 0.465978 0
M  V30 1259 C 123.612 1.72722 1.57128 0
M  V30 1260 C 124.593 0.576294 1.6004 0
M  V30 1261 O 125.778 0.81598 1.76225 0
M  V30 1262 C 122.908 1.82605 2.95419 0
M  V30 1263 C 121.862 2.97835 3.07373 0
M  V30 1264 C 121.188 2.92867 4.47363 0
M  V30 1265 C 122.488 4.38265 2.84114 0
M  V30 1266 H 124.182 2.65267 1.38829 0
M  V30 1267 H 121.728 1.2765 0.666441 0
M  V30 1268 H 123.681 1.96698 3.72677 0
M  V30 1269 H 122.405 0.866858 3.14886 0
M  V30 1270 H 121.064 2.83401 2.3255 0
M  V30 1271 H 120.712 1.94783 4.63755 0
M  V30 1272 H 120.412 3.70227 4.56296 0
M  V30 1273 H 121.936 3.09015 5.26633 0
M  V30 1274 H 123.35 4.53198 3.51118 0
M  V30 1275 H 121.747 5.17115 3.04487 0
M  V30 1276 H 122.817 4.50281 1.7993 0
M  V30 1277 N 124.16 -0.719506 1.40217 0
M  V30 1278 C 125.385 -1.51371 1.4178 0
M  V30 1279 C 125.81 -1.88091 0.0182355 0
M  V30 1280 O 125.168 -1.52997 -0.972707 0
M  V30 1281 C 125.216 -2.768 2.31115 0
M  V30 1282 O 124.32 -3.73349 1.7517 0
M  V30 1283 H 123.661 -0.456529 0.482159 0
M  V30 1284 H 126.191 -0.88644 1.844 0
M  V30 1285 H 126.201 -3.25371 2.46167 0
M  V30 1286 H 124.876 -2.49407 3.3282 0
M  V30 1287 H 123.453 -3.32179 1.69444 0
M  V30 1288 N 125.638 -1.25649 -0.95132 0
M  V30 1289 C 126.601 -1.06399 -2.03007 0
M  V30 1290 C 127.601 -0.0156794 -1.60792 0
M  V30 1291 O 128.791 -0.25817 -1.72276 0
M  V30 1292 C 125.923 -0.616184 -3.35285 0
M  V30 1293 H 127.116 -2.02164 -2.21517 0
M  V30 1294 H 124.669 -1.08103 -1.12887 0
M  V30 1295 H 125.404 0.343917 -3.22471 0
M  V30 1296 H 125.189 -1.37301 -3.67275 0
M  V30 1297 H 126.679 -0.503032 -4.14559 0
M  V30 1298 N 127.117 1.15442 -1.07289 0
M  V30 1299 C 128.027 2.23786 -0.704057 0
M  V30 1300 C 129.043 1.7166 0.284413 0
M  V30 1301 O 130.219 2.00972 0.131205 0
M  V30 1302 C 127.284 3.46535 -0.106792 0
M  V30 1303 C 126.345 4.13654 -1.14842 0
M  V30 1304 C 125.578 5.30544 -0.57956 0
M  V30 1305 O 125.801 5.67187 0.604585 0
M  V30 1306 O 124.735 5.87154 -1.32414 0
M  V30 1307 H 128.561 2.57664 -1.60757 0
M  V30 1308 H 126.146 1.23152 -0.845803 0
M  V30 1309 H 128.028 4.20804 0.224048 0
M  V30 1310 H 126.703 3.14407 0.770049 0
M  V30 1311 H 125.61 3.4131 -1.5316 0
M  V30 1312 H 126.943 4.49861 -1.99714 0
M  V30 1313 N 128.595 0.856903 1.32268 0
M  V30 1314 C 129.525 0.31858 2.31316 0
M  V30 1315 C 130.506 -0.583487 1.59779 0
M  V30 1316 O 131.691 -0.503259 1.87566 0
M  V30 1317 C 128.821 -0.491979 3.43798 0
M  V30 1318 C 127.775 0.315849 4.26833 0
M  V30 1319 C 127.101 -0.619586 5.31098 0
M  V30 1320 C 128.401 1.54282 4.98993 0
M  V30 1321 H 130.095 1.14621 2.76591 0
M  V30 1322 H 127.641 0.552613 1.32974 0
M  V30 1323 H 129.594 -0.879012 4.1213 0
M  V30 1324 H 128.318 -1.35299 2.97257 0
M  V30 1325 H 126.977 0.684664 3.6015 0
M  V30 1326 H 126.625 -1.47751 4.8081 0
M  V30 1327 H 126.325 -0.0830621 5.87541 0
M  V30 1328 H 127.849 -1.00375 6.02293 0
M  V30 1329 H 129.263 1.22796 5.59995 0
M  V30 1330 H 127.66 2.01745 5.65172 0
M  V30 1331 H 128.73 2.30285 4.26728 0
M  V30 1332 N 130.073 -1.45103 0.615059 0
M  V30 1333 C 131.003 -2.33339 -0.0865619 0
M  V30 1334 C 131.984 -1.4727 -0.851209 0
M  V30 1335 O 133.169 -1.76026 -0.820281 0
M  V30 1336 C 130.299 -3.30095 -1.07956 0
M  V30 1337 C 129.253 -4.25858 -0.427628 0
M  V30 1338 C 128.579 -5.12361 -1.5294 0
M  V30 1339 C 129.879 -5.18165 0.655944 0
M  V30 1340 H 131.573 -2.92254 0.650224 0
M  V30 1341 H 129.119 -1.40532 0.314138 0
M  V30 1342 H 131.072 -3.90698 -1.57901 0
M  V30 1343 H 129.796 -2.69355 -1.84703 0
M  V30 1344 H 128.455 -3.66564 0.0510292 0
M  V30 1345 H 128.103 -4.47984 -2.28734 0
M  V30 1346 H 127.803 -5.77238 -1.09865 0
M  V30 1347 H 129.327 -5.75833 -2.03098 0
M  V30 1348 H 130.741 -5.72796 0.240257 0
M  V30 1349 H 129.138 -5.91559 1.00888 0
M  V30 1350 H 130.208 -4.60144 1.52957 0
M  V30 1351 N 131.551 -0.354651 -1.53558 0
M  V30 1352 C 132.481 0.489091 -2.2832 0
M  V30 1353 C 133.462 1.09324 -1.30316 0
M  V30 1354 O 134.647 1.11255 -1.59173 0
M  V30 1355 C 131.777 1.63456 -3.0643 0
M  V30 1356 C 130.731 1.1582 -4.12031 0
M  V30 1357 C 130.057 2.39305 -4.7816 0
M  V30 1358 C 131.357 0.250731 -5.21698 0
M  V30 1359 H 133.051 -0.134614 -2.99097 0
M  V30 1360 H 130.597 -0.0661826 -1.43848 0
M  V30 1361 H 132.55 2.23136 -3.57475 0
M  V30 1362 H 131.274 2.28533 -2.33325 0
M  V30 1363 H 129.933 0.584146 -3.61916 0
M  V30 1364 H 129.581 3.02814 -4.01637 0
M  V30 1365 H 129.281 2.08109 -5.49513 0
M  V30 1366 H 130.805 2.99691 -5.31994 0
M  V30 1367 H 132.219 0.754695 -5.68311 0
M  V30 1368 H 130.616 0.0301468 -6.00092 0
M  V30 1369 H 131.686 -0.710125 -4.79672 0
M  V30 1370 N 133.029 1.57378 -0.0835403 0
M  V30 1371 C 134.277 1.93547 0.581718 0
M  V30 1372 C 134.598 0.96524 1.69435 0
M  V30 1373 O 133.868 0.0153369 1.95894 0
M  V30 1374 H 132.448 0.714521 0.217874 0
M  V30 1375 H 135.11 1.94366 -0.144158 0
M  V30 1376 H 134.206 2.95665 0.999423 0
M  V30 1377 N 134.507 -0.190092 1.56449 0
M  V30 1378 C 135.439 -1.25973 1.91477 0
M  V30 1379 C 136.452 -1.41452 0.805931 0
M  V30 1380 O 137.641 -1.41789 1.08435 0
M  V30 1381 C 134.741 -2.63117 2.13594 0
M  V30 1382 C 133.914 -2.69182 3.4476 0
M  V30 1383 C 132.973 -3.87557 3.5593 0
M  V30 1384 O 131.999 -3.74427 4.28711 0
M  V30 1385 N 133.201 -5.03224 2.89388 0
M  V30 1386 H 135.966 -0.962394 2.83828 0
M  V30 1387 H 133.527 -0.379981 1.57378 0
M  V30 1388 H 135.519 -3.40742 2.1835 0
M  V30 1389 H 134.089 -2.85319 1.27719 0
M  V30 1390 H 133.309 -1.77793 3.51828 0
M  V30 1391 H 134.597 -2.70229 4.31107 0
M  V30 1392 H 133.995 -5.16791 2.30094 0
M  V30 1393 H 132.552 -5.78778 2.99764 0
M  V30 1394 N 135.985 -1.50799 -0.457987 0
M  V30 1395 C 136.915 -1.73553 -1.5621 0
M  V30 1396 C 137.896 -0.584774 -1.59732 0
M  V30 1397 O 139.081 -0.825314 -1.7579 0
M  V30 1398 C 136.211 -1.84169 -2.94447 0
M  V30 1399 C 135.165 -2.99461 -3.0579 0
M  V30 1400 C 134.491 -2.95235 -4.45803 0
M  V30 1401 C 135.791 -4.39766 -2.81786 0
M  V30 1402 H 137.485 -2.66 -1.37421 0
M  V30 1403 H 135.031 -1.28002 -0.659662 0
M  V30 1404 H 136.984 -1.98672 -3.71628 0
M  V30 1405 H 135.708 -0.883545 -3.14422 0
M  V30 1406 H 134.367 -2.8463 -2.31044 0
M  V30 1407 H 134.015 -1.97239 -4.62715 0
M  V30 1408 H 133.715 -3.72642 -4.54326 0
M  V30 1409 H 135.239 -3.11803 -5.24987 0
M  V30 1410 H 136.653 -4.55054 -3.4871 0
M  V30 1411 H 135.05 -5.18722 -3.0174 0
M  V30 1412 H 136.12 -4.51229 -1.7754 0
M  V30 1413 N 137.463 0.71206 -1.40597 0
M  V30 1414 C 138.411 1.84746 -1.41321 0
M  V30 1415 C 139.405 1.66842 -0.293268 0
M  V30 1416 O 140.611 1.73904 -0.464481 0
M  V30 1417 H 136.986 0.608522 -0.441819 0
M  V30 1418 H 138.957 1.81252 -2.37045 0
M  V30 1419 C 137.706 3.22638 -1.29614 0
M  V30 1420 H 137.029 3.37023 -2.15071 0
M  V30 1421 H 138.469 4.02209 -1.3418 0
M  V30 1422 C 136.928 3.36899 -0.00673121 0
M  V30 1423 O 137.458 3.90186 0.954859 0
M  V30 1424 N 135.664 2.9053 0.0639327 0
M  V30 1425 H 135.211 2.47353 -0.719311 0
M  V30 1426 H 135.169 3.0045 0.926118 0
M  V30 1427 N 138.941 1.26152 0.944643 0
M  V30 1428 C 139.904 1.07474 2.0244 0
M  V30 1429 C 140.904 0.0242064 1.60782 0
M  V30 1430 O 142.094 0.267302 1.72137 0
M  V30 1431 C 139.226 0.633956 3.34953 0
M  V30 1432 H 140.419 2.03336 2.20442 0
M  V30 1433 H 137.972 1.087 1.12312 0
M  V30 1434 H 138.707 -0.326811 3.22649 0
M  V30 1435 H 138.492 1.39247 3.66542 0
M  V30 1436 H 139.982 0.52501 4.14287 0
M  V30 1437 N 140.419 -1.14872 1.07899 0
M  V30 1438 C 141.329 -2.2341 0.715915 0
M  V30 1439 C 142.345 -1.71808 -0.275306 0
M  V30 1440 O 143.521 -2.01039 -0.120545 0
M  V30 1441 C 140.586 -3.46474 0.125168 0
M  V30 1442 C 139.647 -4.13039 1.17034 0
M  V30 1443 C 138.88 -5.30229 0.607688 0
M  V30 1444 O 139.103 -5.675 -0.574497 0
M  V30 1445 O 138.037 -5.86444 1.35526 0
M  V30 1446 H 141.863 -2.56808 1.62121 0
M  V30 1447 H 139.448 -1.22702 0.852322 0
M  V30 1448 H 141.33 -4.20917 -0.201729 0
M  V30 1449 H 140.005 -3.14811 -0.753364 0
M  V30 1450 H 138.912 -3.40493 1.54968 0
M  V30 1451 H 140.245 -4.48796 2.02097 0
M  V30 1452 N 141.898 -0.863906 -1.31812 0
M  V30 1453 C 142.848 -0.286898 -2.26188 0
M  V30 1454 C 143.832 0.572577 -1.50367 0
M  V30 1455 O 145.024 0.420447 -1.71934 0
M  V30 1456 C 142.153 0.515849 -3.39402 0
M  V30 1457 C 141.239 -0.356531 -4.22599 0
M  V30 1458 N 141.63 -1.44716 -4.84656 0
M  V30 1459 C 139.928 -0.147898 -4.45755 0
M  V30 1460 C 140.629 -1.98462 -5.46798 0
M  V30 1461 N 139.605 -1.28247 -5.28255 0
M  V30 1462 H 143.407 -1.12055 -2.717 0
M  V30 1463 H 140.921 -0.711012 -1.46008 0
M  V30 1464 H 142.918 0.945701 -4.06032 0
M  V30 1465 H 141.578 1.34718 -2.95434 0
M  V30 1466 H 142.589 -1.83008 -4.84488 0
M  V30 1467 H 139.266 0.647973 -4.12441 0
M  V30 1468 H 140.656 -2.89932 -6.06126 0
M  V30 1469 N 143.376 1.44774 -0.622745 0
M  V30 1470 C 144.339 2.29069 0.0774015 0
M  V30 1471 C 145.339 1.4059 0.780461 0
M  V30 1472 O 146.529 1.62551 0.626322 0
M  V30 1473 C 143.661 3.21974 1.12006 0
M  V30 1474 H 144.854 2.92459 -0.663901 0
M  V30 1475 H 142.407 1.51548 -0.382486 0
M  V30 1476 H 143.142 2.63417 1.89162 0
M  V30 1477 H 142.927 3.87168 0.619951 0
M  V30 1478 H 144.417 3.85318 1.60995 0
M  V30 1479 N 144.854 0.36279 1.53368 0
M  V30 1480 C 145.764 -0.492994 2.29362 0
M  V30 1481 C 146.78 -1.09507 1.35219 0
M  V30 1482 O 147.956 -1.10662 1.68273 0
M  V30 1483 C 145.021 -1.61855 3.066 0
M  V30 1484 C 144.082 -1.04429 4.16405 0
M  V30 1485 C 143.315 -2.11621 4.89951 0
M  V30 1486 O 143.538 -3.32684 4.63333 0
M  V30 1487 O 142.472 -1.74835 5.75948 0
M  V30 1488 H 146.298 0.125331 3.03441 0
M  V30 1489 H 143.883 0.127253 1.48857 0
M  V30 1490 H 145.765 -2.27302 3.54841 0
M  V30 1491 H 144.44 -2.22233 2.3536 0
M  V30 1492 H 143.347 -0.353819 3.72423 0
M  V30 1493 H 144.68 -0.485113 4.89804 0
M  V30 1494 N 146.332 -1.57332 0.0918853 0
M  V30 1495 C 147.295 -2.12708 -0.85369 0
M  V30 1496 C 148.295 -1.05561 -1.213 0
M  V30 1497 O 149.485 -1.31461 -1.14296 0
M  V30 1498 C 146.617 -2.64503 -2.15061 0
M  V30 1499 H 147.81 -2.97573 -0.3729 0
M  V30 1500 H 145.363 -1.55509 -0.157072 0
M  V30 1501 H 146.098 -1.83149 -2.67632 0
M  V30 1502 H 145.883 -3.4284 -1.90272 0
M  V30 1503 H 147.373 -3.07351 -2.82711 0
M  V30 1504 N 147.81 0.181792 -1.56548 0
M  V30 1505 C 149.087 0.926765 -1.72251 0
M  V30 1506 C 149.467 2.00831 -0.650386 0
M  V30 1507 O 148.815 2.26008 0.336521 0
M  V30 1508 C 149.025 1.50106 -3.1507 0
M  V30 1509 C 150.373 1.97805 -3.75711 0
M  V30 1510 O 151.397 1.59922 -3.18282 0
M  V30 1511 O 150.256 2.67555 -4.76525 0
M  V30 1512 H 147.35 0.435506 -0.703039 0
M  V30 1513 H 149.896 0.170443 -1.68842 0
M  V30 1514 H 148.668 0.72212 -3.84579 0
M  V30 1515 H 148.291 2.32186 -3.22763 0
M  V30 1516 N 149.288 1.51039 0.449983 0
M  V30 1517 C 150.534 1.63322 1.20223 0
M  V30 1518 C 150.867 0.34241 1.91158 0
M  V30 1519 O 150.142 -0.657344 1.83055 0
M  V30 1520 C 150.425 2.82801 2.22925 0
M  V30 1521 C 150.278 4.21823 1.56157 0
M  V30 1522 C 151.597 2.97807 3.24035 0
M  V30 1523 H 148.716 0.594407 0.435718 0
M  V30 1524 H 151.358 1.83489 0.493136 0
M  V30 1525 H 149.508 2.65738 2.834 0
M  V30 1526 H 151.18 4.50526 0.991162 0
M  V30 1527 H 149.423 4.25105 0.864172 0
M  V30 1528 H 150.094 5.01391 2.30891 0
M  V30 1529 H 152.57 3.13497 2.73603 0
M  V30 1530 H 151.446 3.82992 3.93202 0
M  V30 1531 H 151.707 2.09328 3.89402 0
M  V30 1532 N 150.766 -0.704594 1.40972 0
M  V30 1533 C 152.182 -1.01406 1.23244 0
M  V30 1534 C 152.382 -2.01169 0.115399 0
M  V30 1535 O 151.438 -2.47021 -0.523147 0
M  V30 1536 C 152.751 -1.54728 2.57836 0
M  V30 1537 C 154.299 -1.66658 2.64942 0
M  V30 1538 C 154.774 -2.23383 3.9983 0
M  V30 1539 N 156.265 -2.30756 4.01629 0
M  V30 1540 C 157 -2.75655 5.02794 0
M  V30 1541 N 156.496 -3.20225 6.14352 0
M  V30 1542 N 158.289 -2.75138 4.90159 0
M  V30 1543 H 150.44 -0.0435285 2.12355 0
M  V30 1544 H 152.703 -0.0818951 0.944456 0
M  V30 1545 H 152.409 -0.888832 3.40283 0
M  V30 1546 H 152.283 -2.53084 2.79693 0
M  V30 1547 H 154.67 -2.31617 1.8286 0
M  V30 1548 H 154.751 -0.668717 2.46904 0
M  V30 1549 H 154.395 -1.59043 4.82357 0
M  V30 1550 H 154.325 -3.23904 4.15203 0
M  V30 1551 H 156.816 -1.99291 3.21079 0
M  V30 1552 H 157.129 -3.53084 6.87424 0
M  V30 1553 H 155.474 -3.18156 6.17901 0
M  V30 1554 H 158.665 -2.39661 4.02095 0
M  V30 1555 H 158.838 -3.09812 5.6914 0
M  V30 1556 N 152.244 -1.26651 -0.937939 0
M  V30 1557 C 153.66 -1.03834 -1.21205 0
M  V30 1558 C 153.86 0.234502 -2.00131 0
M  V30 1559 O 152.916 0.942767 -2.3424 0
M  V30 1560 C 154.229 -2.27167 -1.97017 0
M  V30 1561 C 155.777 -2.32101 -2.09996 0
M  V30 1562 C 156.252 -3.55136 -2.8921 0
M  V30 1563 N 157.743 -3.55632 -2.96783 0
M  V30 1564 C 158.478 -4.475 -3.58512 0
M  V30 1565 N 157.974 -5.4966 -4.21717 0
M  V30 1566 N 159.767 -4.35145 -3.55816 0
M  V30 1567 H 151.918 -2.08398 -0.410391 0
M  V30 1568 H 154.181 -0.916031 -0.244114 0
M  V30 1569 H 153.887 -3.19765 -1.46434 0
M  V30 1570 H 153.761 -2.31672 -2.97671 0
M  V30 1571 H 156.148 -1.40015 -2.59769 0
M  V30 1572 H 156.229 -2.31605 -1.08594 0
M  V30 1573 H 155.873 -4.47553 -2.40123 0
M  V30 1574 H 155.803 -3.5288 -3.90875 0
M  V30 1575 H 158.294 -2.81743 -2.51852 0
M  V30 1576 H 158.607 -6.15943 -4.66727 0
M  V30 1577 H 156.952 -5.53514 -4.20294 0
M  V30 1578 H 160.143 -3.5455 -3.05634 0
M  V30 1579 H 160.316 -5.06934 -4.03636 0
M  V30 1580 N 153.722 1.14298 -1.08507 0
M  V30 1581 C 154.968 1.85633 -0.816581 0
M  V30 1582 C 155.301 1.82784 0.656021 0
M  V30 1583 O 154.576 1.25926 1.48233 0
M  V30 1584 C 154.859 3.34223 -1.34041 0
M  V30 1585 C 154.712 3.45639 -2.87843 0
M  V30 1586 C 156.031 4.29356 -0.9665 0
M  V30 1587 H 153.15 0.67402 -0.298104 0
M  V30 1588 H 155.792 1.34214 -1.34487 0
M  V30 1589 H 153.942 3.78144 -0.89104 0
M  V30 1590 H 155.614 3.10498 -3.41158 0
M  V30 1591 H 153.857 2.86817 -3.25451 0
M  V30 1592 H 154.528 4.50089 -3.19569 0
M  V30 1593 H 157.004 3.93457 -1.35391 0
M  V30 1594 H 155.88 5.3178 -1.3602 0
M  V30 1595 H 156.141 4.41919 0.126362 0
M  V30 1596 N 155.201 0.870884 1.31352 0
M  V30 1597 C 156.131 0.343096 2.30966 0
M  V30 1598 C 157.112 -0.566507 1.60389 0
M  V30 1599 O 158.297 -0.483336 1.88089 0
M  V30 1600 C 155.427 -0.455487 3.443 0
M  V30 1601 C 154.381 0.361103 4.26474 0
M  V30 1602 C 153.707 -0.563221 5.31725 0
M  V30 1603 C 155.007 1.59566 4.97329 0
M  V30 1604 H 156.701 1.17548 2.75359 0
M  V30 1605 H 154.247 0.566686 1.32381 0
M  V30 1606 H 156.2 -0.83525 4.13039 0
M  V30 1607 H 154.924 -1.32139 2.98675 0
M  V30 1608 H 153.583 0.722825 3.59403 0
M  V30 1609 H 153.231 -1.42643 4.82351 0
M  V30 1610 H 152.931 -0.0207409 5.87596 0
M  V30 1611 H 154.455 -0.939808 6.03324 0
M  V30 1612 H 155.869 1.28728 5.58661 0
M  V30 1613 H 154.266 2.07728 5.63 0
M  V30 1614 H 155.336 2.34798 4.24262 0
M  V30 1615 N 156.679 -1.44442 0.630414 0
M  V30 1616 C 157.609 -2.33418 -0.0618083 0
M  V30 1617 C 158.59 -1.48165 -0.835541 0
M  V30 1618 O 159.775 -1.76886 -0.801564 0
M  V30 1619 C 156.905 -3.31222 -1.04449 0
M  V30 1620 C 155.859 -4.26288 -0.382436 0
M  V30 1621 C 155.185 -5.13954 -1.47497 0
M  V30 1622 C 156.485 -5.1744 0.710865 0
M  V30 1623 H 158.179 -2.91548 0.681184 0
M  V30 1624 H 155.725 -1.40191 0.329026 0
M  V30 1625 H 157.678 -3.92351 -1.53748 0
M  V30 1626 H 156.402 -2.71299 -1.81836 0
M  V30 1627 H 155.061 -3.6649 0.0899054 0
M  V30 1628 H 154.709 -4.50385 -2.2397 0
M  V30 1629 H 154.409 -5.7837 -1.03737 0
M  V30 1630 H 155.933 -5.77955 -1.96979 0
M  V30 1631 H 157.347 -5.72509 0.300996 0
M  V30 1632 H 155.744 -5.90455 1.07156 0
M  V30 1633 H 156.814 -4.58496 1.57829 0
M  V30 1634 N 158.157 -0.370918 -1.53173 0
M  V30 1635 C 159.089 0.507823 -2.23503 0
M  V30 1636 C 160.102 1.04182 -1.251 0
M  V30 1637 O 161.291 0.947286 -1.5129 0
M  V30 1638 C 158.391 1.71447 -2.92334 0
M  V30 1639 C 157.564 1.31105 -4.17289 0
M  V30 1640 C 156.623 2.38035 -4.69282 0
M  V30 1641 O 155.649 2.00204 -5.32829 0
M  V30 1642 N 156.851 3.69697 -4.47554 0
M  V30 1643 H 159.616 -0.0946382 -2.99551 0
M  V30 1644 H 157.177 -0.196358 -1.60705 0
M  V30 1645 H 159.169 2.42469 -3.24023 0
M  V30 1646 H 157.739 2.22368 -2.19707 0
M  V30 1647 H 156.959 0.430462 -3.91843 0
M  V30 1648 H 158.247 1.0179 -4.98514 0
M  V30 1649 H 157.645 4.03205 -3.9679 0
M  V30 1650 H 156.202 4.36807 -4.8378 0
M  V30 1651 N 159.635 1.57281 -0.100228 0
M  V30 1652 C 160.598 2.13158 0.842398 0
M  V30 1653 C 161.598 1.06202 1.20738 0
M  V30 1654 O 162.788 1.32066 1.13597 0
M  V30 1655 C 159.92 2.65639 2.13655 0
M  V30 1656 H 161.113 2.97766 0.357114 0
M  V30 1657 H 158.666 1.5559 0.148823 0
M  V30 1658 H 159.401 1.84566 2.66657 0
M  V30 1659 H 159.186 3.43844 1.88451 0
M  V30 1660 H 160.676 3.08846 2.81077 0
M  V30 1661 N 161.113 -0.173488 1.56642 0
M  V30 1662 C 162.36 -0.890465 1.81871 0
M  V30 1663 C 162.688 -1.82339 0.67696 0
M  V30 1664 O 161.943 -1.92795 -0.335926 0
M  V30 1665 C 162.242 -1.72069 3.13252 0
M  V30 1666 C 161.908 -0.936878 4.41059 0
M  V30 1667 C 160.57 -0.720545 4.75775 0
M  V30 1668 C 162.922 -0.386919 5.19762 0
M  V30 1669 C 160.25 0.0568829 5.86672 0
M  V30 1670 C 162.602 0.37741 6.31473 0
M  V30 1671 C 161.266 0.604563 6.64757 0
M  V30 1672 H 160.536 -0.325844 0.665512 0
M  V30 1673 H 163.183 -0.155527 1.90867 0
M  V30 1674 H 161.488 -2.52496 2.99588 0
M  V30 1675 H 163.185 -2.27844 3.29982 0
M  V30 1676 H 159.775 -1.11553 4.13828 0
M  V30 1677 H 163.959 -0.541398 4.93338 0
M  V30 1678 H 159.215 0.242635 6.10918 0
M  V30 1679 H 163.389 0.810825 6.91664 0
M  V30 1680 H 161.016 1.20885 7.50527 0
M  V30 1681 N 162.591 -1.51276 -0.441967 0
M  V30 1682 C 163.868 -1.54252 -1.20273 0
M  V30 1683 C 164.248 -0.30408 -2.08898 0
M  V30 1684 O 163.596 0.711084 -2.17154 0
M  V30 1685 C 163.806 -2.85406 -2.00859 0
M  V30 1686 C 165.154 -3.37181 -2.58059 0
M  V30 1687 O 166.178 -2.86925 -2.11074 0
M  V30 1688 O 165.037 -4.24858 -3.43741 0
M  V30 1689 H 162.131 -0.619969 -0.547328 0
M  V30 1690 H 164.677 -1.63586 -0.451413 0
M  V30 1691 H 163.449 -3.67003 -1.35736 0
M  V30 1692 H 163.072 -2.79213 -2.83065 0
M  V30 1693 N 164.069 0.697108 -1.41344 0
M  V30 1694 C 165.315 1.4593 -1.40827 0
M  V30 1695 C 165.648 1.94193 -0.0167098 0
M  V30 1696 O 164.923 1.69425 0.955263 0
M  V30 1697 C 165.206 2.67229 -2.41373 0
M  V30 1698 C 165.059 2.24741 -3.8963 0
M  V30 1699 C 166.378 3.69423 -2.39196 0
M  V30 1700 H 163.497 0.529303 -0.512842 0
M  V30 1701 H 166.139 0.794112 -1.72609 0
M  V30 1702 H 164.289 3.23982 -2.14401 0
M  V30 1703 H 165.961 1.73327 -4.27499 0
M  V30 1704 H 164.204 1.56542 -4.0457 0
M  V30 1705 H 164.875 3.1177 -4.55525 0
M  V30 1706 H 167.351 3.2234 -2.63128 0
M  V30 1707 H 166.227 4.51907 -3.11563 0
M  V30 1708 H 166.488 4.19012 -1.41001 0
M  V30 1709 N 165.547 1.27147 0.931209 0
M  V30 1710 C 166.793 1.13446 1.68101 0
M  V30 1711 C 167.126 -0.319628 1.91552 0
M  V30 1712 O 166.401 -1.23407 1.50336 0
M  V30 1713 C 166.684 1.91482 3.0497 0
M  V30 1714 C 166.537 3.44855 2.88782 0
M  V30 1715 C 167.856 1.71651 4.05246 0
M  V30 1716 H 164.975 0.413498 0.610072 0
M  V30 1717 H 167.617 1.56261 1.08086 0
M  V30 1718 H 165.767 1.55095 3.56199 0
M  V30 1719 H 167.439 3.9105 2.44698 0
M  V30 1720 H 165.682 3.71373 2.24198 0
M  V30 1721 H 166.353 3.94694 3.85902 0
M  V30 1722 H 168.829 2.0337 3.63015 0
M  V30 1723 H 167.705 2.28651 4.99009 0
M  V30 1724 H 167.966 0.663555 4.37092 0
M  V30 1725 N 167.025 -1.13721 1.09112 0
M  V30 1726 C 167.935 -2.22638 0.73957 0
M  V30 1727 C 168.951 -1.72091 -0.257068 0
M  V30 1728 O 170.127 -2.01155 -0.0992154 0
M  V30 1729 C 167.192 -3.46322 0.16191 0
M  V30 1730 C 166.253 -4.11775 1.21408 0
M  V30 1731 C 165.486 -5.29555 0.663891 0
M  V30 1732 O 165.709 -5.68077 -0.514274 0
M  V30 1733 O 164.643 -5.84973 1.41738 0
M  V30 1734 H 168.469 -2.55074 1.64836 0
M  V30 1735 H 166.054 -1.21791 0.865289 0
M  V30 1736 H 167.936 -4.21107 -0.157073 0
M  V30 1737 H 166.611 -3.15593 -0.719932 0
M  V30 1738 H 165.518 -3.3883 1.58571 0
M  V30 1739 H 166.851 -4.46627 2.06845 0
M  V30 1740 N 168.503 -0.877838 -1.30888 0
M  V30 1741 C 169.919 -0.570844 -1.49042 0
M  V30 1742 C 170.119 0.893159 -1.80624 0
M  V30 1743 O 169.175 1.67485 -1.88958 0
M  V30 1744 C 170.488 -1.47784 -2.61878 0
M  V30 1745 C 172.036 -1.48071 -2.75761 0
M  V30 1746 C 172.511 -2.37347 -3.91702 0
M  V30 1747 N 174.002 -2.35271 -3.99001 0
M  V30 1748 C 174.737 -3.01063 -4.88004 0
M  V30 1749 N 174.233 -3.76055 -5.81854 0
M  V30 1750 N 176.026 -2.90332 -4.81315 0
M  V30 1751 H 168.177 -1.82502 -1.0866 0
M  V30 1752 H 170.44 -0.780797 -0.537644 0
M  V30 1753 H 170.146 -2.51993 -2.45341 0
M  V30 1754 H 170.02 -1.18215 -3.58197 0
M  V30 1755 H 172.407 -0.446166 -2.91708 0
M  V30 1756 H 172.488 -1.81668 -1.80085 0
M  V30 1757 H 172.132 -3.40883 -3.76512 0
M  V30 1758 H 172.062 -2.01071 -4.86701 0
M  V30 1759 H 174.553 -1.80768 -3.3186 0
M  V30 1760 H 174.866 -4.23366 -6.46514 0
M  V30 1761 H 173.211 -3.80163 -5.81808 0
M  V30 1762 H 176.402 -2.31278 -4.06974 0
M  V30 1763 H 176.575 -3.41885 -5.50471 0
M  V30 1764 N 169.982 1.44106 -0.638065 0
M  V30 1765 C 171.207 2.0685 -0.150916 0
M  V30 1766 C 171.632 1.47417 1.16833 0
M  V30 1767 O 170.99 0.578264 1.71831 0
M  V30 1768 C 171.038 3.60555 -0.05708 0
M  V30 1769 O 170.142 4.00465 0.984972 0
M  V30 1770 H 169.483 0.658151 -0.0879399 0
M  V30 1771 H 172.013 1.84865 -0.876707 0
M  V30 1772 H 172.023 4.07789 0.131232 0
M  V30 1773 H 170.698 4.03193 -1.02021 0
M  V30 1774 H 169.275 3.64849 0.770672 0
M  V30 1775 N 171.46 0.379036 1.52974 0
M  V30 1776 C 172.707 -0.206421 2.01445 0
M  V30 1777 C 173.035 -1.47668 1.26587 0
M  V30 1778 O 172.29 -1.92514 0.351675 0
M  V30 1779 C 172.589 -0.53096 3.53434 0
M  V30 1780 C 172.255 0.646546 4.46241 0
M  V30 1781 C 170.917 0.969604 4.7133 0
M  V30 1782 C 173.269 1.43479 5.01062 0
M  V30 1783 C 170.597 2.08263 5.48492 0
M  V30 1784 C 172.949 2.53834 5.7944 0
M  V30 1785 C 171.613 2.86659 6.02812 0
M  V30 1786 H 170.883 -0.0755349 0.73714 0
M  V30 1787 H 173.53 0.514271 1.84465 0
M  V30 1788 H 171.835 -1.33285 3.68432 0
M  V30 1789 H 173.532 -0.996417 3.88423 0
M  V30 1790 H 170.122 0.384734 4.2687 0
M  V30 1791 H 174.306 1.19844 4.81613 0
M  V30 1792 H 169.562 2.34078 5.64816 0
M  V30 1793 H 173.736 3.15319 6.20924 0
M  V30 1794 H 171.363 3.73026 6.62387 0
M  V30 1795 N 172.938 -1.57226 0.108567 0
M  V30 1796 C 173.868 -2.17778 -0.84232 0
M  V30 1797 C 174.849 -1.11487 -1.2847 0
M  V30 1798 O 176.034 -1.39681 -1.34918 0
M  V30 1799 C 173.164 -2.76888 -2.09644 0
M  V30 1800 C 172.118 -3.88669 -1.79221 0
M  V30 1801 C 171.444 -4.34541 -3.11574 0
M  V30 1802 C 172.744 -5.11251 -1.06864 0
M  V30 1803 H 174.438 -2.97489 -0.337774 0
M  V30 1804 H 171.984 -1.43097 -0.161025 0
M  V30 1805 H 173.937 -3.17904 -2.76614 0
M  V30 1806 H 172.661 -1.94451 -2.62405 0
M  V30 1807 H 171.32 -3.48213 -1.14644 0
M  V30 1808 H 170.968 -3.48977 -3.62249 0
M  V30 1809 H 170.668 -5.09914 -2.91996 0
M  V30 1810 H 172.192 -4.782 -3.7968 0
M  V30 1811 H 173.606 -5.49352 -1.63968 0
M  V30 1812 H 172.003 -5.9214 -0.974178 0
M  V30 1813 H 173.073 -4.8487 -0.0536168 0
M  V30 1814 N 174.416 0.165178 -1.56732 0
M  V30 1815 C 175.326 1.22423 -2.00125 0
M  V30 1816 C 176.342 1.48084 -0.913619 0
M  V30 1817 O 177.518 1.60112 -1.22172 0
M  V30 1818 C 174.583 2.54197 -2.35764 0
M  V30 1819 C 173.644 2.36343 -3.58386 0
M  V30 1820 C 172.877 3.61834 -3.92316 0
M  V30 1821 O 173.1 4.67267 -3.27135 0
M  V30 1822 O 172.034 3.55579 -4.85641 0
M  V30 1823 H 175.86 0.885886 -2.90492 0
M  V30 1824 H 173.445 0.372518 -1.44681 0
M  V30 1825 H 175.327 3.3192 -2.59629 0
M  V30 1826 H 174.002 2.87598 -1.48557 0
M  V30 1827 H 172.909 1.56632 -3.39731 0
M  V30 1828 H 174.242 2.07865 -4.46154 0
M  V30 1829 N 175.894 1.51508 0.433938 0
M  V30 1830 C 177.119 1.68443 1.21003 0
M  V30 1831 C 177.544 0.382636 1.84167 0
M  V30 1832 O 176.902 -0.65755 1.68956 0
M  V30 1833 C 176.95 2.80405 2.26727 0
M  V30 1834 O 176.054 2.44245 3.32292 0
M  V30 1835 H 175.395 0.561536 0.354363 0
M  V30 1836 H 177.925 1.9809 0.512024 0
M  V30 1837 H 177.935 3.0459 2.71457 0
M  V30 1838 H 176.61 3.74867 1.80132 0
M  V30 1839 H 175.187 2.30644 2.93015 0
M  V30 1840 N 177.372 -0.689602 1.41712 0
M  V30 1841 C 178.621 -1.44534 1.40686 0
M  V30 1842 C 178.934 -1.95588 0.0213352 0
M  V30 1843 O 180.14 -2.71271 -0.111534 0
M  V30 1844 C 178.596 -2.61387 2.47396 0
M  V30 1845 C 178.204 -2.17094 3.91885 0
M  V30 1846 C 179.948 -3.38986 2.55517 0
M  V30 1847 C 177.855 -3.3094 4.90135 0
M  V30 1848 H 176.785 -0.542925 0.52321 0
M  V30 1849 H 179.436 -0.748054 1.6756 0
M  V30 1850 H 177.818 -3.33412 2.13664 0
M  V30 1851 H 178.992 -1.52318 4.34897 0
M  V30 1852 H 177.307 -1.52473 3.8748 0
M  V30 1853 H 179.904 -4.23747 3.26102 0
M  V30 1854 H 180.247 -3.84578 1.59391 0
M  V30 1855 H 180.78 -2.74021 2.8837 0
M  V30 1856 H 177.519 -2.90355 5.87685 0
M  V30 1857 H 177.039 -3.94546 4.51767 0
M  V30 1858 H 178.718 -3.9663 5.11169 0
M  V30 1859 N 178.85 -1.27639 -0.924453 0
M  V30 1860 C 180.127 -1.04887 -1.651 0
M  V30 1861 C 180.507 0.415327 -2.06974 0
M  V30 1862 O 179.855 1.39923 -1.80648 0
M  V30 1863 C 180.065 -2.01348 -2.85061 0
M  V30 1864 C 181.413 -2.30899 -3.56329 0
M  V30 1865 O 182.437 -1.99348 -2.95193 0
M  V30 1866 O 181.296 -2.84699 -4.66485 0
M  V30 1867 H 178.39 -0.400083 -0.723784 0
M  V30 1868 H 180.936 -1.38916 -0.974703 0
M  V30 1869 H 179.708 -3.0008 -2.51133 0
M  V30 1870 H 179.331 -1.679 -3.6041 0
M  V30 1871 N 180.328 1.1314 -1.09713 0
M  V30 1872 C 181.605 1.80762 -0.747302 0
M  V30 1873 C 181.985 1.96663 0.767265 0
M  V30 1874 O 181.333 1.53706 1.69076 0
M  V30 1875 C 181.543 3.15606 -1.48975 0
M  V30 1876 C 182.891 3.90914 -1.65746 0
M  V30 1877 O 183.915 3.25239 -1.45251 0
M  V30 1878 O 182.774 5.08718 -1.9967 0
M  V30 1879 H 179.868 0.782103 -0.268782 0
M  V30 1880 H 182.414 1.20041 -1.19951 0
M  V30 1881 H 181.186 2.99278 -2.52088 0
M  V30 1882 H 180.809 3.84029 -1.02991 0
M  V30 1883 N 181.806 0.884767 1.30421 0
M  V30 1884 C 182.769 0.356277 2.26414 0
M  V30 1885 C 183.769 -0.501124 1.52792 0
M  V30 1886 O 184.959 -0.30831 1.7145 0
M  V30 1887 C 182.091 -0.492316 3.37326 0
M  V30 1888 H 183.284 1.20389 2.74675 0
M  V30 1889 H 180.837 0.661607 1.41607 0
M  V30 1890 H 181.572 -1.36052 2.94381 0
M  V30 1891 H 181.357 0.121832 3.91911 0
M  V30 1892 H 182.847 -0.853871 4.08777 0
M  V30 1893 N 183.284 -1.43765 0.645699 0
M  V30 1894 C 184.214 -2.33471 -0.0370477 0
M  V30 1895 C 185.195 -1.49042 -0.819779 0
M  V30 1896 O 186.38 -1.77726 -0.782758 0
M  V30 1897 C 183.51 -3.32311 -1.0093 0
M  V30 1898 C 182.464 -4.2667 -0.337201 0
M  V30 1899 C 181.79 -5.1549 -1.42037 0
M  V30 1900 C 183.09 -5.16657 0.765706 0
M  V30 1901 H 184.784 -2.90809 0.712069 0
M  V30 1902 H 182.33 -1.39834 0.343876 0
M  V30 1903 H 184.283 -3.9396 -1.49578 0
M  V30 1904 H 183.007 -2.73213 -1.78948 0
M  V30 1905 H 181.666 -3.66374 0.128771 0
M  V30 1906 H 181.314 -4.52735 -2.1918 0
M  V30 1907 H 181.014 -5.79438 -0.975966 0
M  V30 1908 H 182.538 -5.80012 -1.90838 0
M  V30 1909 H 183.952 -5.72158 0.361702 0
M  V30 1910 H 182.349 -5.89286 1.13413 0
M  V30 1911 H 183.419 -4.56796 1.62683 0
M  V30 1912 N 184.763 -0.387143 -1.52771 0
M  V30 1913 C 185.726 0.436939 -2.24997 0
M  V30 1914 C 186.726 0.991991 -1.26555 0
M  V30 1915 O 187.916 0.874335 -1.50669 0
M  V30 1916 C 185.048 1.61281 -3.00335 0
M  V30 1917 H 186.241 -0.195365 -2.99263 0
M  V30 1918 H 183.794 -0.139218 -1.55679 0
M  V30 1919 H 184.529 2.2826 -2.30364 0
M  V30 1920 H 184.314 1.22154 -3.72587 0
M  V30 1921 H 185.804 2.19629 -3.5518 0
M  V30 1922 N 186.241 1.57166 -0.116904 0
M  V30 1923 C 187.151 2.18745 0.847812 0
M  V30 1924 C 188.167 1.163 1.29423 0
M  V30 1925 O 189.343 1.48761 1.35765 0
M  V30 1926 C 186.408 2.77307 2.0809 0
M  V30 1927 C 185.469 3.94781 1.68661 0
M  V30 1928 C 184.702 4.50541 2.86091 0
M  V30 1929 O 184.925 4.05202 4.01456 0
M  V30 1930 O 183.859 5.41256 2.63298 0
M  V30 1931 H 187.685 3.01632 0.353778 0
M  V30 1932 H 185.27 1.49005 0.108599 0
M  V30 1933 H 187.152 3.14647 2.80313 0
M  V30 1934 H 185.827 1.97452 2.56504 0
M  V30 1935 H 184.734 3.62214 0.935518 0
M  V30 1936 H 186.067 4.76065 1.24991 0
M  V30 1937 N 187.719 -0.156864 1.56817 0
M  V30 1938 C 188.666 -1.19394 1.97519 0
M  V30 1939 C 189.636 -1.4322 0.841265 0
M  V30 1940 O 190.821 -1.55719 1.10255 0
M  V30 1941 C 187.961 -2.52483 2.35258 0
M  V30 1942 C 187.074 -2.35914 3.61896 0
M  V30 1943 C 186.209 -3.61969 3.88782 0
M  V30 1944 C 185.248 -3.40395 5.08722 0
M  V30 1945 N 184.385 -4.58556 5.31668 0
M  V30 1946 H 189.225 -0.839845 2.85921 0
M  V30 1947 H 186.762 -0.403264 1.41464 0
M  V30 1948 H 188.72 -3.30071 2.55165 0
M  V30 1949 H 187.35 -2.85859 1.49949 0
M  V30 1950 H 186.402 -1.49429 3.49821 0
M  V30 1951 H 187.714 -2.15926 4.49641 0
M  V30 1952 H 186.868 -4.47989 4.09135 0
M  V30 1953 H 185.607 -3.84951 2.9944 0
M  V30 1954 H 184.612 -2.52763 4.88253 0
M  V30 1955 H 185.837 -3.18822 5.99608 0
M  V30 1956 H 183.783 -4.81729 4.45279 0
M  V30 1957 H 183.7 -4.41535 6.13664 0
M  V30 1958 H 184.968 -5.45817 5.5651 0
M  V30 1959 N 189.197 -1.51736 -0.425897 0
M  V30 1960 C 190.16 -1.73271 -1.50032 0
M  V30 1961 C 191.16 -0.602639 -1.4908 0
M  V30 1962 O 192.35 -0.87033 -1.509 0
M  V30 1963 C 189.482 -1.79969 -2.89523 0
M  V30 1964 H 190.675 -2.69172 -1.32237 0
M  V30 1965 H 188.228 -1.41899 -0.65532 0
M  V30 1966 H 188.963 -0.859241 -3.1271 0
M  V30 1967 H 188.748 -2.62109 -2.91619 0
M  V30 1968 H 190.238 -1.9843 -3.67444 0
M  V30 1969 N 190.675 0.682077 -1.42076 0
M  V30 1970 C 191.9 1.47558 -1.45744 0
M  V30 1971 C 192.325 1.87977 -0.0680981 0
M  V30 1972 O 191.683 1.55522 0.9318 0
M  V30 1973 C 191.731 2.70575 -2.38373 0
M  V30 1974 O 190.835 3.68573 -1.85007 0
M  V30 1975 H 190.176 0.443585 -0.494093 0
M  V30 1976 H 192.706 0.837238 -1.86686 0
M  V30 1977 H 192.716 3.18729 -2.54707 0
M  V30 1978 H 191.391 2.40495 -3.39315 0
M  V30 1979 H 189.968 3.2757 -1.78192 0
M  V30 1980 N 192.153 1.28127 0.917671 0
M  V30 1981 C 193.083 1.14248 2.03641 0
M  V30 1982 C 194.064 0.0412748 1.7005 0
M  V30 1983 O 195.249 0.217566 1.92977 0
M  V30 1984 C 192.379 0.799431 3.37974 0
M  V30 1985 C 191.333 1.85497 3.85713 0
M  V30 1986 C 190.659 1.36565 5.16966 0
M  V30 1987 C 191.959 3.26085 4.08002 0
M  V30 1988 H 193.653 2.07835 2.15511 0
M  V30 1989 H 191.199 1.00064 1.03553 0
M  V30 1990 H 193.152 0.689114 4.15727 0
M  V30 1991 H 191.876 -0.172145 3.26146 0
M  V30 1992 H 190.535 1.95437 3.10161 0
M  V30 1993 H 190.183 0.383253 5.01538 0
M  V30 1994 H 189.883 2.07143 5.49878 0
M  V30 1995 H 191.407 1.26848 5.97279 0
M  V30 1996 H 192.821 3.19089 4.76293 0
M  V30 1997 H 191.218 3.94462 4.52238 0
M  V30 1998 H 192.288 3.70394 3.12948 0
M  V30 1999 N 193.631 -1.12557 1.10312 0
M  V30 2000 C 194.563 -2.17971 0.708625 0
M  V30 2001 C 195.576 -1.60806 -0.254027 0
M  V30 2002 O 196.765 -1.78458 -0.0386891 0
M  V30 2003 C 193.865 -3.38891 0.0248198 0
M  V30 2004 C 193.038 -4.25548 1.01132 0
M  V30 2005 C 192.097 -5.24972 0.35924 0
M  V30 2006 O 191.123 -5.60174 1.00965 0
M  V30 2007 N 192.325 -5.73747 -0.882847 0
M  V30 2008 H 195.09 -2.52427 1.61557 0
M  V30 2009 H 192.651 -1.27967 0.991771 0
M  V30 2010 H 194.643 -4.02485 -0.422852 0
M  V30 2011 H 193.213 -3.02596 -0.784514 0
M  V30 2012 H 192.433 -3.58589 1.6373 0
M  V30 2013 H 193.721 -4.80294 1.67914 0
M  V30 2014 H 193.119 -5.4731 -1.43065 0
M  V30 2015 H 191.676 -6.39234 -1.27369 0
M  V30 2016 N 195.109 -0.891671 -1.2995 0
M  V30 2017 C 196.334 -0.527932 -2.00568 0
M  V30 2018 C 196.759 0.877969 -1.66353 0
M  V30 2019 O 196.117 1.58301 -0.883762 0
M  V30 2020 C 196.165 -0.717745 -3.53385 0
M  V30 2021 O 195.269 0.233376 -4.11739 0
M  V30 2022 H 194.61 -0.20722 -0.630837 0
M  V30 2023 H 197.14 -1.20105 -1.65638 0
M  V30 2024 H 197.15 -0.619307 -4.03272 0
M  V30 2025 H 195.825 -1.74276 -3.77625 0
M  V30 2026 H 194.402 0.0880706 -3.72796 0
M  V30 2027 N 196.587 1.43421 -0.653314 0
M  V30 2028 C 197.519 2.29071 0.0769134 0
M  V30 2029 C 198.532 1.42513 0.787017 0
M  V30 2030 O 199.721 1.66449 0.644757 0
M  V30 2031 C 196.821 3.19436 1.13199 0
M  V30 2032 C 195.994 4.34533 0.500006 0
M  V30 2033 C 195.053 5.05771 1.45198 0
M  V30 2034 O 194.079 5.61037 0.960538 0
M  V30 2035 N 195.281 5.0928 2.78594 0
M  V30 2036 H 198.046 2.92382 -0.658235 0
M  V30 2037 H 195.607 1.54112 -0.496104 0
M  V30 2038 H 197.599 3.63958 1.76964 0
M  V30 2039 H 196.169 2.57724 1.7691 0
M  V30 2040 H 195.389 3.92925 -0.316738 0
M  V30 2041 H 196.677 5.08766 0.0588345 0
M  V30 2042 H 196.075 4.65751 3.2108 0
M  V30 2043 H 194.632 5.57519 3.37662 0
M  V30 2044 N 198.065 0.39524 1.52563 0
M  V30 2045 C 198.995 -0.428384 2.29537 0
M  V30 2046 C 199.976 -1.05831 1.33169 0
M  V30 2047 O 201.161 -1.06995 1.62067 0
M  V30 2048 C 198.291 -1.55274 3.10656 0
M  V30 2049 C 197.245 -1.04855 4.14957 0
M  V30 2050 C 196.571 -2.26543 4.84337 0
M  V30 2051 C 197.871 -0.112324 5.22179 0
M  V30 2052 H 199.565 0.213867 2.98635 0
M  V30 2053 H 197.111 0.104298 1.43622 0
M  V30 2054 H 199.064 -2.1358 3.63265 0
M  V30 2055 H 197.788 -2.22266 2.39302 0
M  V30 2056 H 196.447 -0.487985 3.63338 0
M  V30 2057 H 196.095 -2.92059 4.09525 0
M  V30 2058 H 195.795 -1.93466 5.54837 0
M  V30 2059 H 197.319 -2.85481 5.39753 0
M  V30 2060 H 198.733 -0.603752 5.70112 0
M  V30 2061 H 197.13 0.128968 5.99961 0
M  V30 2062 H 198.2 0.837052 4.77621 0
M  V30 2063 N 199.544 -1.57102 0.125237 0
M  V30 2064 C 200.955 -1.82384 -0.399142 0
M  V30 2065 C 201.306 -1.04276 -1.66195 0
M  V30 2066 O 200.431 -0.281269 -2.14564 0
M  V30 2067 C 201.026 -3.30821 -0.730932 0
M  V30 2068 C 199.585 -3.56762 -1.19992 0
M  V30 2069 C 198.732 -2.7649 -0.211792 0
M  V30 2070 H 201.683 -1.54786 0.350277 0
M  V30 2071 H 201.704 -3.4579 -1.58775 0
M  V30 2072 H 201.216 -3.87643 0.188345 0
M  V30 2073 H 199.317 -3.05305 -2.13588 0
M  V30 2074 H 199.43 -4.65317 -1.14093 0
M  V30 2075 H 197.794 -2.4489 -0.700085 0
M  V30 2076 H 198.577 -3.36073 0.700691 0
M  V30 2077 N 201.022 0.148545 -1.56898 0
M  V30 2078 C 201.932 1.20293 -2.01412 0
M  V30 2079 C 202.948 1.47107 -0.929273 0
M  V30 2080 O 204.124 1.58807 -1.23863 0
M  V30 2081 C 201.189 2.51682 -2.38447 0
M  V30 2082 C 200.25 2.32529 -3.60872 0
M  V30 2083 C 199.483 3.57653 -3.96132 0
M  V30 2084 O 199.706 4.63771 -3.32073 0
M  V30 2085 O 198.64 3.50408 -4.89385 0
M  V30 2086 H 202.466 0.855025 -2.91416 0
M  V30 2087 H 200.051 0.357151 -1.45068 0
M  V30 2088 H 201.933 3.29147 -2.63135 0
M  V30 2089 H 200.608 2.86006 -1.51599 0
M  V30 2090 H 199.515 1.53019 -3.41373 0
M  V30 2091 H 200.848 2.03121 -4.48333 0
M  V30 2092 N 202.5 1.5196 0.417844 0
M  V30 2093 C 203.748 1.65263 1.16329 0
M  V30 2094 C 204.069 0.380634 1.91249 0
M  V30 2095 O 203.339 -0.604214 1.86349 0
M  V30 2096 H 201.919 0.60912 0.432414 0
M  V30 2097 H 204.581 1.88969 0.477162 0
M  V30 2098 H 203.677 2.4896 1.88217 0
M  V30 2099 N 203.978 -0.674533 1.42435 0
M  V30 2100 C 205.224 -1.43671 1.43131 0
M  V30 2101 C 205.557 -1.94142 0.0476021 0
M  V30 2102 O 204.832 -1.70924 -0.928188 0
M  V30 2103 C 205.115 -2.63355 2.45594 0
M  V30 2104 C 204.968 -2.18514 3.93156 0
M  V30 2105 C 206.287 -3.65571 2.45043 0
M  V30 2106 H 203.406 -0.521077 0.521198 0
M  V30 2107 H 206.048 -0.766551 1.7385 0
M  V30 2108 H 204.198 -3.2053 2.19528 0
M  V30 2109 H 205.87 -1.66504 4.30202 0
M  V30 2110 H 204.113 -1.50086 4.07009 0
M  V30 2111 H 204.784 -3.04484 4.60428 0
M  V30 2112 H 207.26 -3.18113 2.68223 0
M  V30 2113 H 206.136 -4.46893 3.18713 0
M  V30 2114 H 206.397 -4.16716 1.47649 0
M  V30 2115 N 205.456 -1.28612 -0.910864 0
M  V30 2116 C 206.867 -1.14406 -1.47541 0
M  V30 2117 C 207.218 0.264901 -1.94403 0
M  V30 2118 O 206.343 1.15942 -1.82719 0
M  V30 2119 C 206.938 -2.07073 -2.68153 0
M  V30 2120 C 205.497 -1.96923 -3.20778 0
M  V30 2121 C 204.644 -1.98646 -1.93481 0
M  V30 2122 H 207.595 -1.41259 -0.723291 0
M  V30 2123 H 207.616 -1.63642 -3.43514 0
M  V30 2124 H 207.128 -3.09611 -2.34015 0
M  V30 2125 H 205.229 -0.97433 -3.59635 0
M  V30 2126 H 205.342 -2.84026 -3.85832 0
M  V30 2127 H 203.706 -1.43093 -2.10705 0
M  V30 2128 H 204.489 -3.02868 -1.61634 0
M  V30 2129 N 206.934 1.1197 -1.10907 0
M  V30 2130 C 207.866 2.17592 -0.720175 0
M  V30 2131 C 208.879 1.60938 0.245495 0
M  V30 2132 O 210.068 1.78476 0.0292245 0
M  V30 2133 C 207.168 3.38873 -0.0427917 0
M  V30 2134 C 206.341 4.25006 -1.03388 0
M  V30 2135 C 205.4 5.24774 -0.387075 0
M  V30 2136 O 204.426 5.59631 -1.03934 0
M  V30 2137 N 205.628 5.74208 0.852407 0
M  V30 2138 H 208.393 2.51567 -1.62893 0
M  V30 2139 H 205.954 1.27439 -0.998543 0
M  V30 2140 H 207.946 4.02703 0.401501 0
M  V30 2141 H 206.516 3.03007 0.768456 0
M  V30 2142 H 205.736 3.57716 -1.65629 0
M  V30 2143 H 207.024 4.79397 -1.70458 0
M  V30 2144 H 206.422 5.48062 1.40161 0
M  V30 2145 H 204.979 6.39901 1.23977 0
M  V30 2146 N 208.412 0.89855 1.29475 0
M  V30 2147 C 209.362 0.346767 2.25348 0
M  V30 2148 C 210.346 -0.532509 1.51833 0
M  V30 2149 O 211.538 -0.374714 1.72988 0
M  V30 2150 C 208.667 -0.425681 3.40651 0
M  V30 2151 C 207.753 0.46845 4.21505 0
M  V30 2152 N 208.144 1.57514 4.80648 0
M  V30 2153 C 206.442 0.26603 4.45206 0
M  V30 2154 C 207.143 2.12889 5.41344 0
M  V30 2155 N 206.119 1.42208 5.24669 0
M  V30 2156 H 209.921 1.19219 2.68634 0
M  V30 2157 H 207.435 0.749473 1.44072 0
M  V30 2158 H 209.432 -0.837716 4.08397 0
M  V30 2159 H 208.092 -1.26838 2.98902 0
M  V30 2160 H 209.103 1.95789 4.79465 0
M  V30 2161 H 205.78 -0.538394 4.14014 0
M  V30 2162 H 207.17 3.05901 5.98226 0
M  V30 2163 N 209.89 -1.43072 0.660911 0
M  V30 2164 C 210.822 -2.29108 -0.0647641 0
M  V30 2165 C 211.835 -1.42928 -0.779448 0
M  V30 2166 O 213.024 -1.66788 -0.635921 0
M  V30 2167 C 210.124 -3.20032 -1.11503 0
M  V30 2168 C 209.297 -4.34792 -0.476955 0
M  V30 2169 C 208.356 -5.06534 -1.42513 0
M  V30 2170 O 207.382 -5.61538 -0.930771 0
M  V30 2171 N 208.584 -5.1075 -2.75889 0
M  V30 2172 H 211.349 -2.92029 0.673731 0
M  V30 2173 H 208.91 -1.53846 0.50427 0
M  V30 2174 H 210.902 -3.64892 -1.75032 0
M  V30 2175 H 209.472 -2.58658 -1.75541 0
M  V30 2176 H 208.692 -3.92752 0.337572 0
M  V30 2177 H 209.98 -5.0879 -0.0318525 0
M  V30 2178 H 209.378 -4.67447 -3.18606 0
M  V30 2179 H 207.935 -5.59302 -3.347 0
M  V30 2180 N 211.368 -0.403325 -1.52352 0
M  V30 2181 C 212.298 0.416205 -2.29761 0
M  V30 2182 C 213.279 1.05123 -1.33728 0
M  V30 2183 O 214.464 1.06134 -1.62632 0
M  V30 2184 C 211.594 1.53624 -3.11475 0
M  V30 2185 C 210.548 1.02653 -4.15507 0
M  V30 2186 C 209.874 2.23971 -4.85532 0
M  V30 2187 C 211.174 0.08463 -5.22231 0
M  V30 2188 H 212.868 -0.229701 -2.98518 0
M  V30 2189 H 210.414 -0.111913 -1.43564 0
M  V30 2190 H 212.367 2.1165 -3.64393 0
M  V30 2191 H 211.091 2.20994 -2.40477 0
M  V30 2192 H 209.75 0.46871 -3.63591 0
M  V30 2193 H 209.398 2.89883 -4.11068 0
M  V30 2194 H 209.098 1.90521 -5.55856 0
M  V30 2195 H 210.622 2.82614 -5.41259 0
M  V30 2196 H 212.036 0.573509 -5.70424 0
M  V30 2197 H 210.433 -0.160783 -5.99885 0
M  V30 2198 H 211.503 -0.86237 -4.7717 0
M  V30 2199 N 212.846 1.57033 -0.133567 0
M  V30 2200 C 214.257 1.82593 0.389464 0
M  V30 2201 C 214.608 1.05156 1.6564 0
M  V30 2202 O 213.733 0.292644 2.14412 0
M  V30 2203 C 214.328 3.31204 0.713377 0
M  V30 2204 C 212.887 3.57393 1.18098 0
M  V30 2205 C 212.034 2.76598 0.197126 0
M  V30 2206 H 214.985 1.54598 -0.358481 0
M  V30 2207 H 215.006 3.46627 1.56939 0
M  V30 2208 H 214.518 3.87537 -0.2089 0
M  V30 2209 H 212.619 3.06433 2.11966 0
M  V30 2210 H 212.732 4.65915 1.11624 0
M  V30 2211 H 211.096 2.45257 0.687088 0
M  V30 2212 H 211.879 3.35697 -0.718504 0
M  V30 2213 N 214.325 -0.140222 1.56975 0
M  V30 2214 C 215.736 -0.699596 1.73097 0
M  V30 2215 C 216.087 -1.8134 0.749022 0
M  V30 2216 O 215.212 -2.16241 -0.0828503 0
M  V30 2217 C 215.807 -1.27582 3.1386 0
M  V30 2218 C 214.366 -1.78169 3.31561 0
M  V30 2219 C 213.513 -0.672855 2.69013 0
M  V30 2220 H 216.464 0.0855115 1.58469 0
M  V30 2221 H 216.485 -2.14561 3.14235 0
M  V30 2222 H 215.997 -0.464955 3.85305 0
M  V30 2223 H 214.098 -2.61801 2.65124 0
M  V30 2224 H 214.211 -1.90574 4.39566 0
M  V30 2225 H 212.575 -1.10118 2.29665 0
M  V30 2226 H 213.358 0.126679 3.43066 0
M  V30 2227 N 215.803 -1.52179 -0.40978 0
M  V30 2228 C 216.735 -1.71703 -1.51825 0
M  V30 2229 C 217.748 -0.597445 -1.51441 0
M  V30 2230 O 218.937 -0.872582 -1.55719 0
M  V30 2231 C 216.037 -1.74171 -2.90719 0
M  V30 2232 C 215.21 -3.03156 -3.15302 0
M  V30 2233 C 214.269 -2.97445 -4.34065 0
M  V30 2234 O 213.295 -3.71352 -4.31377 0
M  V30 2235 N 214.497 -2.15191 -5.39141 0
M  V30 2236 H 217.262 -2.67334 -1.35472 0
M  V30 2237 H 214.823 -1.50409 -0.599069 0
M  V30 2238 H 216.815 -1.67884 -3.68235 0
M  V30 2239 H 215.385 -0.860166 -3.00533 0
M  V30 2240 H 214.605 -3.23097 -2.25836 0
M  V30 2241 H 215.893 -3.88484 -3.28569 0
M  V30 2242 H 215.291 -1.54573 -5.44173 0
M  V30 2243 H 213.848 -2.1476 -6.15403 0
M  V30 2244 N 217.281 0.66697 -1.42791 0
M  V30 2245 C 218.511 1.45294 -1.46878 0
M  V30 2246 C 218.919 1.89027 -0.0809861 0
M  V30 2247 O 218.262 1.59219 0.916246 0
M  V30 2248 C 218.324 2.72908 -2.34012 0
M  V30 2249 C 217.988 2.51203 -3.81767 0
M  V30 2250 C 218.985 2.15302 -4.73224 0
M  V30 2251 C 216.67 2.65954 -4.26115 0
M  V30 2252 C 218.664 1.94431 -6.07022 0
M  V30 2253 C 216.351 2.44699 -5.59969 0
M  V30 2254 C 217.349 2.08992 -6.5024 0
M  V30 2255 O 217.037 1.87948 -7.81621 0
M  V30 2256 H 216.769 0.453306 -0.501487 0
M  V30 2257 H 219.323 0.826232 -1.88049 0
M  V30 2258 H 217.553 3.38089 -1.87703 0
M  V30 2259 H 219.242 3.34816 -2.29462 0
M  V30 2260 H 220.008 2.03495 -4.40244 0
M  V30 2261 H 215.887 2.92724 -3.56137 0
M  V30 2262 H 219.431 1.66484 -6.77443 0
M  V30 2263 H 215.328 2.56105 -5.9252 0
M  V30 2264 H 216.096 2.02483 -7.93059 0
M  V30 2265 N 218.759 1.29093 0.90403 0
M  V30 2266 C 219.691 1.09658 2.01266 0
M  V30 2267 C 220.704 0.0453729 1.62737 0
M  V30 2268 O 221.893 0.289446 1.76138 0
M  V30 2269 C 218.993 0.646278 3.32681 0
M  V30 2270 C 218.166 1.77505 3.99763 0
M  V30 2271 C 217.225 1.31649 5.09465 0
M  V30 2272 O 216.251 2.02045 5.32134 0
M  V30 2273 N 217.453 0.184997 5.80205 0
M  V30 2274 H 220.218 2.05135 2.18494 0
M  V30 2275 H 217.779 1.20975 1.07594 0
M  V30 2276 H 219.771 0.322906 4.0341 0
M  V30 2277 H 218.341 -0.215916 3.11853 0
M  V30 2278 H 217.561 2.26752 3.22455 0
M  V30 2279 H 218.849 2.53198 4.41325 0
M  V30 2280 H 218.247 -0.402021 5.6427 0
M  V30 2281 H 216.804 -0.0790358 6.51752 0
M  V30 2282 N 220.237 -1.11381 1.11499 0
M  V30 2283 C 221.184 -2.17439 0.773887 0
M  V30 2284 C 222.154 -1.64132 -0.254899 0
M  V30 2285 O 223.339 -1.90345 -0.13168 0
M  V30 2286 C 220.479 -3.44373 0.223917 0
M  V30 2287 C 219.592 -4.1168 1.30934 0
M  V30 2288 C 218.727 -5.263 0.71984 0
M  V30 2289 C 217.766 -5.85493 1.78507 0
M  V30 2290 N 216.903 -6.91507 1.21502 0
M  V30 2291 H 221.743 -2.45962 1.68246 0
M  V30 2292 H 219.28 -1.20744 0.840191 0
M  V30 2293 H 221.238 -4.17047 -0.112921 0
M  V30 2294 H 219.868 -3.16232 -0.647851 0
M  V30 2295 H 218.92 -3.37073 1.76312 0
M  V30 2296 H 220.232 -4.51729 2.11524 0
M  V30 2297 H 219.386 -6.05785 0.333094 0
M  V30 2298 H 218.125 -4.87559 -0.117377 0
M  V30 2299 H 217.13 -5.04686 2.18111 0
M  V30 2300 H 218.355 -6.26301 2.62533 0
M  V30 2301 H 216.301 -6.54783 0.399455 0
M  V30 2302 H 216.218 -7.30214 1.95763 0
M  V30 2303 H 217.486 -7.74795 0.855181 0
M  V30 2304 N 221.715 -0.905404 -1.28997 0
M  V30 2305 C 222.964 -0.530191 -1.94607 0
M  V30 2306 C 223.277 0.929185 -1.72121 0
M  V30 2307 O 224.483 1.41218 -2.31883 0
M  V30 2308 C 222.939 -0.897333 -3.48534 0
M  V30 2309 C 222.547 -2.37587 -3.79811 0
M  V30 2310 C 224.291 -0.592304 -4.20347 0
M  V30 2311 C 222.198 -2.68357 -5.27009 0
M  V30 2312 H 221.128 -0.194558 -0.728466 0
M  V30 2313 H 223.779 -1.10318 -1.46636 0
M  V30 2314 H 222.161 -0.253214 -3.9519 0
M  V30 2315 H 223.335 -3.06602 -3.43994 0
M  V30 2316 H 221.65 -2.6505 -3.2115 0
M  V30 2317 H 224.247 -0.798975 -5.28697 0
M  V30 2318 H 224.59 0.469474 -4.13644 0
M  V30 2319 H 225.123 -1.19452 -3.79442 0
M  V30 2320 H 221.862 -3.73355 -5.38782 0
M  V30 2321 H 221.382 -2.03971 -5.64053 0
M  V30 2322 H 223.061 -2.54922 -5.94663 0
M  V30 2323 N 223.193 1.4272 -0.668489 0
M  V30 2324 C 224.123 2.335 -0.000100175 0
M  V30 2325 C 225.104 1.50328 0.795964 0
M  V30 2326 O 226.289 1.78949 0.754385 0
M  V30 2327 C 223.419 3.33874 0.956302 0
M  V30 2328 C 222.373 4.27152 0.269278 0
M  V30 2329 C 221.699 5.17684 1.33818 0
M  V30 2330 C 222.999 5.15373 -0.847805 0
M  V30 2331 H 224.693 2.89639 -0.758244 0
M  V30 2332 H 222.239 1.39269 -0.366079 0
M  V30 2333 H 224.192 3.9629 1.43292 0
M  V30 2334 H 222.916 2.76025 1.74579 0
M  V30 2335 H 221.575 3.66123 -0.187042 0
M  V30 2336 H 221.223 4.56165 2.1195 0
M  V30 2337 H 220.923 5.80918 0.883659 0
M  V30 2338 H 222.447 5.82974 1.81586 0
M  V30 2339 H 223.861 5.7151 -0.452681 0
M  V30 2340 H 222.258 5.87407 -1.22773 0
M  V30 2341 H 223.328 4.5415 -1.69929 0
M  V30 2342 N 224.671 0.411399 1.52136 0
M  V30 2343 C 225.581 -0.419774 2.30814 0
M  V30 2344 C 226.597 -1.0515 1.38634 0
M  V30 2345 O 227.773 -1.05252 1.71709 0
M  V30 2346 C 224.838 -1.52019 3.11594 0
M  V30 2347 C 223.899 -0.91129 4.19516 0
M  V30 2348 C 223.132 -1.95927 4.96436 0
M  V30 2349 O 223.355 -3.17775 4.73683 0
M  V30 2350 O 222.289 -1.56423 5.81219 0
M  V30 2351 H 226.115 0.221805 3.02889 0
M  V30 2352 H 223.7 0.174547 1.48377 0
M  V30 2353 H 225.582 -2.15898 3.61892 0
M  V30 2354 H 224.257 -2.14633 2.42311 0
M  V30 2355 H 223.164 -0.235157 3.7336 0
M  V30 2356 H 224.497 -0.32904 4.91099 0
M  V30 2357 N 226.149 -1.5696 0.141893 0
M  V30 2358 C 227.565 -1.58151 -0.21456 0
M  V30 2359 C 227.765 -1.1559 -1.65049 0
M  V30 2360 O 226.821 -0.853832 -2.37626 0
M  V30 2361 C 228.134 -3.00674 0.0395576 0
M  V30 2362 C 229.682 -3.1299 -0.0245529 0
M  V30 2363 C 230.157 -4.57554 0.202167 0
M  V30 2364 N 231.648 -4.62961 0.148919 0
M  V30 2365 C 232.383 -5.7262 0.298924 0
M  V30 2366 N 231.879 -6.90947 0.50637 0
M  V30 2367 N 233.672 -5.61601 0.236886 0
M  V30 2368 H 225.823 -1.8292 1.07953 0
M  V30 2369 H 228.086 -0.846425 0.42693 0
M  V30 2370 H 227.792 -3.36183 1.03315 0
M  V30 2371 H 227.666 -3.70981 -0.682143 0
M  V30 2372 H 230.053 -2.77326 -1.00869 0
M  V30 2373 H 230.134 -2.4518 0.729396 0
M  V30 2374 H 229.778 -4.93922 1.18338 0
M  V30 2375 H 229.708 -5.23484 -0.572044 0
M  V30 2376 H 232.199 -3.77899 -0.00697015 0
M  V30 2377 H 232.512 -7.7038 0.611076 0
M  V30 2378 H 230.857 -6.92878 0.542628 0
M  V30 2379 H 234.048 -4.68039 0.0756209 0
M  V30 2380 H 234.221 -6.47015 0.357227 0
M  V30 2381 N 227.627 0.131896 -1.57047 0
M  V30 2382 C 228.557 1.16384 -2.02428 0
M  V30 2383 C 229.538 1.43936 -0.90644 0
M  V30 2384 O 230.723 1.54599 -1.17528 0
M  V30 2385 C 227.853 2.49328 -2.4177 0
M  V30 2386 C 226.807 2.36266 -3.56879 0
M  V30 2387 C 226.133 3.74057 -3.8208 0
M  V30 2388 C 227.433 1.834 -4.89042 0
M  V30 2389 H 229.127 0.786433 -2.88887 0
M  V30 2390 H 226.673 0.376855 -1.38981 0
M  V30 2391 H 228.626 3.21759 -2.7212 0
M  V30 2392 H 227.35 2.88934 -1.52266 0
M  V30 2393 H 226.009 1.66286 -3.26718 0
M  V30 2394 H 225.657 4.11125 -2.89803 0
M  V30 2395 H 225.357 3.66174 -4.59554 0
M  V30 2396 H 226.881 4.48012 -4.1487 0
M  V30 2397 H 228.295 2.45636 -5.18011 0
M  V30 2398 H 226.692 1.8637 -5.70426 0
M  V30 2399 H 227.762 0.790662 -4.7841 0
M  V30 2400 N 229.106 1.52395 0.401703 0
M  V30 2401 C 230.053 1.76268 1.48991 0
M  V30 2402 C 231.023 0.605386 1.54675 0
M  V30 2403 O 232.208 0.843742 1.7113 0
M  V30 2404 C 229.348 1.92592 2.86361 0
M  V30 2405 C 228.461 3.20259 2.89928 0
M  V30 2406 C 227.596 3.26972 4.18644 0
M  V30 2407 C 226.635 4.48812 4.16214 0
M  V30 2408 N 225.772 4.52877 5.36514 0
M  V30 2409 H 230.612 2.6914 1.27935 0
M  V30 2410 H 228.149 1.33355 0.620871 0
M  V30 2411 H 230.107 2.0004 3.66115 0
M  V30 2412 H 228.737 1.03093 3.05895 0
M  V30 2413 H 227.789 3.21945 2.02621 0
M  V30 2414 H 229.101 4.10056 2.83999 0
M  V30 2415 H 228.255 3.33533 5.06794 0
M  V30 2416 H 226.994 2.35126 4.27278 0
M  V30 2417 H 225.999 4.4239 3.26453 0
M  V30 2418 H 227.224 5.41961 4.09213 0
M  V30 2419 H 225.17 3.63917 5.45802 0
M  V30 2420 H 225.087 5.36529 5.32609 0
M  V30 2421 H 226.355 4.63676 6.26597 0
M  V30 2422 N 230.584 -0.659388 1.43143 0
M  V30 2423 C 231.812 -1.44723 1.47861 0
M  V30 2424 C 232.227 -1.88563 0.0945886 0
M  V30 2425 O 231.584 -1.59108 -0.893915 0
M  V30 2426 C 231.635 -2.68627 2.41913 0
M  V30 2427 O 231.356 -2.26623 3.74932 0
M  V30 2428 C 232.857 -3.62045 2.55809 0
M  V30 2429 H 230.077 -0.444801 0.502387 0
M  V30 2430 H 232.621 -0.808916 1.87821 0
M  V30 2431 H 230.776 -3.28613 2.05164 0
M  V30 2432 H 231.19 -3.06745 4.2545 0
M  V30 2433 H 232.664 -4.45666 3.25708 0
M  V30 2434 H 233.141 -4.08981 1.60099 0
M  V30 2435 H 233.747 -3.07944 2.93344 0
M  V30 2436 N 232.062 -1.29571 -0.897171 0
M  V30 2437 C 232.992 -1.17473 -2.01798 0
M  V30 2438 C 233.973 -0.068323 -1.69963 0
M  V30 2439 O 235.158 -0.248239 -1.92607 0
M  V30 2440 C 232.288 -0.853099 -3.36659 0
M  V30 2441 C 231.242 -1.9161 -3.82713 0
M  V30 2442 C 230.568 -1.44773 -5.14728 0
M  V30 2443 C 231.868 -3.32535 -4.02763 0
M  V30 2444 H 233.562 -2.11237 -2.12177 0
M  V30 2445 H 231.108 -1.01699 -1.01948 0
M  V30 2446 H 233.061 -0.755165 -4.14578 0
M  V30 2447 H 231.785 0.120236 -3.26379 0
M  V30 2448 H 230.444 -2.00346 -3.07013 0
M  V30 2449 H 230.092 -0.462995 -5.00865 0
M  V30 2450 H 229.792 -2.15865 -5.46513 0
M  V30 2451 H 231.316 -1.36334 -5.95185 0
M  V30 2452 H 232.73 -3.26626 -4.71156 0
M  V30 2453 H 231.127 -4.01607 -4.45905 0
M  V30 2454 H 232.197 -3.75326 -3.07016 0
M  V30 2455 N 233.54 1.10788 -1.12088 0
M  V30 2456 C 234.45 2.20599 -0.798338 0
M  V30 2457 C 235.466 1.72712 0.21135 0
M  V30 2458 O 236.642 2.01348 0.0458477 0
M  V30 2459 C 233.707 3.45771 -0.253674 0
M  V30 2460 C 232.768 4.08411 -1.32283 0
M  V30 2461 C 232.001 5.27608 -0.80406 0
M  V30 2462 O 232.224 5.69241 0.363478 0
M  V30 2463 O 231.158 5.8101 -1.57198 0
M  V30 2464 H 234.984 2.50614 -1.7154 0
M  V30 2465 H 232.569 1.19454 -0.897275 0
M  V30 2466 H 234.451 4.21376 0.0453691 0
M  V30 2467 H 233.126 3.1739 0.636005 0
M  V30 2468 H 232.033 3.34507 -1.67499 0
M  V30 2469 H 233.366 4.40986 -2.18614 0
M  V30 2470 N 235.018 0.912232 1.28515 0
M  V30 2471 C 236.434 0.610159 1.47476 0
M  V30 2472 C 236.634 -0.844955 1.82928 0
M  V30 2473 O 235.69 -1.62416 1.93332 0
M  V30 2474 C 237.003 1.54675 2.57868 0
M  V30 2475 C 238.551 1.55331 2.71738 0
M  V30 2476 C 239.026 2.47649 3.85272 0
M  V30 2477 N 240.517 2.45767 3.92623 0
M  V30 2478 C 241.252 3.13896 4.79851 0
M  V30 2479 N 240.748 3.9135 5.71679 0
M  V30 2480 N 242.541 3.02991 4.73448 0
M  V30 2481 H 234.692 1.85318 1.03783 0
M  V30 2482 H 236.955 0.794777 0.516753 0
M  V30 2483 H 236.661 2.5841 2.38574 0
M  V30 2484 H 236.535 1.27671 3.54937 0
M  V30 2485 H 238.922 0.52335 2.90422 0
M  V30 2486 H 239.003 1.86378 1.75205 0
M  V30 2487 H 238.647 3.50745 3.67342 0
M  V30 2488 H 238.577 2.13904 4.81199 0
M  V30 2489 H 241.068 1.89503 3.26951 0
M  V30 2490 H 241.381 4.40359 6.35062 0
M  V30 2491 H 239.726 3.95455 5.71524 0
M  V30 2492 H 242.917 2.41987 4.007 0
M  V30 2493 H 243.09 3.5636 5.41213 0
M  V30 2494 N 236.496 -1.42363 0.676048 0
M  V30 2495 C 237.406 -2.346 -0.00153389 0
M  V30 2496 C 238.422 -1.5516 -0.787485 0
M  V30 2497 O 239.598 -1.87723 -0.729521 0
M  V30 2498 C 236.663 -3.33705 -0.940298 0
M  V30 2499 C 235.724 -4.29042 -0.148739 0
M  V30 2500 C 234.957 -5.23413 -1.04279 0
M  V30 2501 O 235.18 -5.22749 -2.28232 0
M  V30 2502 O 234.114 -5.99795 -0.502925 0
M  V30 2503 H 237.94 -2.94082 0.758268 0
M  V30 2504 H 235.525 -1.42888 0.436289 0
M  V30 2505 H 237.407 -3.94586 -1.47917 0
M  V30 2506 H 236.082 -2.76695 -1.67993 0
M  V30 2507 H 234.989 -3.71571 0.43427 0
M  V30 2508 H 236.322 -4.89097 0.551805 0
M  V30 2509 N 237.974 -0.419461 -1.51915 0
M  V30 2510 C 239.223 0.154346 -2.01109 0
M  V30 2511 C 239.536 1.45338 -1.30905 0
M  V30 2512 O 240.742 2.10906 -1.7097 0
M  V30 2513 C 239.198 0.325615 -3.58424 0
M  V30 2514 C 238.806 -0.961934 -4.37551 0
M  V30 2515 C 240.55 0.854155 -4.15818 0
M  V30 2516 C 238.457 -0.757287 -5.86531 0
M  V30 2517 H 237.387 0.0614563 -0.751491 0
M  V30 2518 H 240.038 -0.54649 -1.75173 0
M  V30 2519 H 238.42 1.08903 -3.80731 0
M  V30 2520 H 239.594 -1.7323 -4.26999 0
M  V30 2521 H 237.909 -1.41766 -3.91524 0
M  V30 2522 H 240.506 1.02346 -5.24814 0
M  V30 2523 H 240.849 1.83172 -3.73837 0
M  V30 2524 H 241.382 0.149528 -3.97519 0
M  V30 2525 H 238.121 -1.70671 -6.32892 0
M  V30 2526 H 237.641 -0.0264061 -5.99794 0
M  V30 2527 H 239.32 -0.403482 -6.45741 0
M  V30 2528 N 239.452 1.56882 -0.150215 0
M  V30 2529 C 240.677 2.01027 0.510184 0
M  V30 2530 C 241.102 1.02966 1.57415 0
M  V30 2531 O 240.46 0.00590158 1.81299 0
M  V30 2532 C 240.508 3.43899 1.08472 0
M  V30 2533 O 239.612 3.4885 2.19948 0
M  V30 2534 H 238.953 0.652233 0.124451 0
M  V30 2535 H 241.483 2.03093 -0.247894 0
M  V30 2536 H 241.493 3.82766 1.41259 0
M  V30 2537 H 240.168 4.14776 0.305582 0
M  V30 2538 H 238.745 3.21827 1.88366 0
M  V30 2539 N 240.93 -0.123565 1.57115 0
M  V30 2540 C 242.178 -0.83051 1.84247 0
M  V30 2541 C 242.499 -1.80629 0.73471 0
M  V30 2542 O 241.769 -1.94403 -0.241688 0
M  V30 2543 H 240.349 -0.309694 0.679778 0
M  V30 2544 H 243.011 -0.111976 1.94578 0
M  V30 2545 H 242.107 -1.37852 2.80006 0
M  V30 2546 N 242.408 -1.52605 -0.393616 0
M  V30 2547 C 243.656 -1.67093 -1.13685 0
M  V30 2548 C 243.977 -0.411011 -1.90619 0
M  V30 2549 O 243.247 0.574491 -1.87287 0
M  V30 2550 H 241.827 -0.615923 -0.422668 0
M  V30 2551 H 244.489 -1.89704 -0.447039 0
M  V30 2552 H 243.585 -2.51922 -1.84232 0
M  V30 2553 N 243.887 0.651787 -1.4349 0
M  V30 2554 C 244.85 1.74647 -1.48429 0
M  V30 2555 C 245.85 1.56513 -0.368817 0
M  V30 2556 O 247.04 1.62385 -0.630623 0
M  V30 2557 C 244.172 3.13533 -1.33827 0
M  V30 2558 H 245.365 1.71649 -2.4592 0
M  V30 2559 H 242.918 0.863573 -1.30277 0
M  V30 2560 H 243.653 3.22142 -0.37349 0
M  V30 2561 H 243.438 3.28101 -2.14691 0
M  V30 2562 H 244.928 3.93356 -1.40218 0
M  V30 2563 N 245.365 1.30045 0.890287 0
M  V30 2564 C 246.298 1.10301 1.99772 0
M  V30 2565 C 247.276 0.0121631 1.62595 0
M  V30 2566 O 248.46 0.16469 1.87779 0
M  V30 2567 C 245.587 0.681125 3.31781 0
M  V30 2568 C 244.633 1.77206 3.87944 0
M  V30 2569 S 245.466 3.37335 4.15891 0
M  V30 2570 C 246.622 2.97036 5.50927 0
M  V30 2571 H 246.855 2.04057 2.16213 0
M  V30 2572 H 244.388 1.14299 1.03804 0
M  V30 2573 H 246.346 0.444439 4.08087 0
M  V30 2574 H 245.007 -0.236981 3.13205 0
M  V30 2575 H 244.2 1.42903 4.83316 0
M  V30 2576 H 243.802 1.96275 3.18358 0
M  V30 2577 H 246.094 2.44666 6.31779 0
M  V30 2578 H 247.037 3.91296 5.90164 0
M  V30 2579 H 247.445 2.35057 5.13233 0
M  V30 2580 N 246.843 -1.10192 1.12674 0
M  V30 2581 C 247.806 -2.14786 0.799979 0
M  V30 2582 C 248.806 -1.59711 -0.18685 0
M  V30 2583 O 249.996 -1.74156 0.0392558 0
M  V30 2584 C 247.128 -3.40374 0.189228 0
M  V30 2585 H 248.321 -2.45203 1.72671 0
M  V30 2586 H 245.874 -1.25597 0.930326 0
M  V30 2587 H 246.609 -3.15577 -0.747107 0
M  V30 2588 H 246.394 -3.81637 0.899766 0
M  V30 2589 H 247.884 -4.17594 -0.0228143 0
M  V30 2590 N 248.321 -0.919034 -1.28029 0
M  V30 2591 C 249.567 -0.555757 -1.95036 0
M  V30 2592 C 249.9 0.899198 -1.72128 0
M  V30 2593 O 249.175 1.64023 -1.04531 0
M  V30 2594 C 249.458 -0.872024 -3.49382 0
M  V30 2595 C 249.311 -2.3801 -3.81669 0
M  V30 2596 C 250.63 -0.37185 -4.38526 0
M  V30 2597 H 247.749 -0.203386 -0.708381 0
M  V30 2598 H 250.391 -1.14924 -1.51303 0
M  V30 2599 H 248.541 -0.366946 -3.86763 0
M  V30 2600 H 250.213 -2.9562 -3.54128 0
M  V30 2601 H 248.456 -2.83289 -3.28526 0
M  V30 2602 H 249.127 -2.55192 -4.8947 0
M  V30 2603 H 251.603 -0.804602 -4.08247 0
M  V30 2604 H 250.479 -0.622173 -5.45362 0
M  V30 2605 H 250.74 0.727934 -4.36066 0
M  V30 2606 N 249.799 1.42003 -0.683588 0
M  V30 2607 C 251.045 2.01712 -0.209825 0
M  V30 2608 C 251.378 1.53968 1.18353 0
M  V30 2609 O 250.653 0.745661 1.79639 0
M  V30 2610 C 250.936 3.59202 -0.254197 0
M  V30 2611 C 250.789 4.17102 -1.68363 0
M  V30 2612 C 252.108 4.38344 0.392709 0
M  V30 2613 H 249.227 0.732891 -0.0777189 0
M  V30 2614 H 251.869 1.68909 -0.87004 0
M  V30 2615 H 250.019 3.87278 0.307954 0
M  V30 2616 H 251.691 3.99946 -2.29871 0
M  V30 2617 H 249.934 3.72597 -2.22157 0
M  V30 2618 H 250.605 5.26249 -1.6663 0
M  V30 2619 H 253.081 4.16011 -0.0859162 0
M  V30 2620 H 251.957 5.47901 0.331063 0
M  V30 2621 H 252.218 4.16887 1.47164 0
M  V30 2622 N 251.277 0.427512 1.51691 0
M  V30 2623 C 252.24 -0.377132 2.26076 0
M  V30 2624 C 253.24 -0.958089 1.29141 0
M  V30 2625 O 254.43 -0.83408 1.52934 0
M  V30 2626 C 251.562 -1.53262 3.04506 0
M  V30 2627 H 252.755 0.27464 2.9864 0
M  V30 2628 H 250.308 0.180445 1.55255 0
M  V30 2629 H 251.043 -2.22072 2.36335 0
M  V30 2630 H 250.828 -1.12232 3.75694 0
M  V30 2631 H 252.318 -2.10135 3.60878 0
M  V30 2632 N 252.755 -1.56801 0.158532 0
M  V30 2633 C 254.001 -1.96781 -0.490405 0
M  V30 2634 C 254.334 -1.04397 -1.63753 0
M  V30 2635 O 253.609 -0.0885805 -1.94298 0
M  V30 2636 C 253.892 -3.4635 -0.985594 0
M  V30 2637 C 253.745 -4.49512 0.160824 0
M  V30 2638 C 255.064 -3.98697 -1.86355 0
M  V30 2639 H 252.183 -0.715482 -0.176788 0
M  V30 2640 H 254.825 -1.88451 0.242088 0
M  V30 2641 H 252.975 -3.53579 -1.60978 0
M  V30 2642 H 254.647 -4.54353 0.797537 0
M  V30 2643 H 252.89 -4.26013 0.818256 0
M  V30 2644 H 253.561 -5.51531 -0.227569 0
M  V30 2645 H 256.037 -3.94019 -1.33746 0
M  V30 2646 H 254.913 -5.03792 -2.17909 0
M  V30 2647 H 255.174 -3.41744 -2.8047 0
M  V30 2648 N 254.233 0.115231 -1.57178 0
M  V30 2649 C 255.163 1.1423 -2.03651 0
M  V30 2650 C 256.144 1.42967 -0.921655 0
M  V30 2651 O 257.329 1.53343 -1.19162 0
M  V30 2652 C 254.459 2.4675 -2.44401 0
M  V30 2653 C 253.413 2.32467 -3.59365 0
M  V30 2654 C 252.739 3.69984 -3.86026 0
M  V30 2655 C 254.039 1.78203 -4.90959 0
M  V30 2656 H 255.733 0.755749 -2.89705 0
M  V30 2657 H 253.279 0.362093 -1.39373 0
M  V30 2658 H 255.232 3.18854 -2.75517 0
M  V30 2659 H 253.956 2.87302 -1.55322 0
M  V30 2660 H 252.615 1.62811 -3.28463 0
M  V30 2661 H 252.263 4.08028 -2.94147 0
M  V30 2662 H 251.963 3.61279 -4.63412 0
M  V30 2663 H 253.487 4.43587 -4.19599 0
M  V30 2664 H 254.901 2.40128 -5.20587 0
M  V30 2665 H 253.298 1.8031 -5.72371 0
M  V30 2666 H 254.368 0.739876 -4.79222 0
M  V30 2667 N 255.711 1.52812 0.385517 0
M  V30 2668 C 256.641 1.80808 1.47752 0
M  V30 2669 C 257.622 0.660318 1.5676 0
M  V30 2670 O 258.807 0.908246 1.71652 0
M  V30 2671 C 255.937 1.98008 2.85324 0
M  V30 2672 C 254.891 3.13709 2.91154 0
M  V30 2673 C 254.217 3.16169 4.31209 0
M  V30 2674 C 255.517 4.52709 2.60483 0
M  V30 2675 H 257.211 2.72253 1.24573 0
M  V30 2676 H 254.757 1.31003 0.597839 0
M  V30 2677 H 256.71 2.16176 3.61726 0
M  V30 2678 H 255.434 1.03255 3.09848 0
M  V30 2679 H 254.093 2.95329 2.17201 0
M  V30 2680 H 253.741 2.19092 4.52778 0
M  V30 2681 H 253.441 3.93894 4.36029 0
M  V30 2682 H 254.965 3.36496 5.09512 0
M  V30 2683 H 256.379 4.71173 3.26602 0
M  V30 2684 H 254.776 5.32528 2.76648 0
M  V30 2685 H 255.846 4.59186 1.55809 0
M  V30 2686 N 257.189 -0.644168 1.43834 0
M  V30 2687 C 258.137 -1.77793 1.49974 0
M  V30 2688 C 259.131 -1.65253 0.372536 0
M  V30 2689 O 260.337 -1.7149 0.546924 0
M  V30 2690 H 256.712 -0.58675 0.47035 0
M  V30 2691 H 258.683 -1.69736 2.45423 0
M  V30 2692 C 257.432 -3.16087 1.4486 0
M  V30 2693 H 256.755 -3.26378 2.30905 0
M  V30 2694 H 258.195 -3.95349 1.53217 0
M  V30 2695 C 256.654 -3.36484 0.167463 0
M  V30 2696 O 257.184 -3.94298 -0.767609 0
M  V30 2697 N 255.39 -2.90504 0.0747556 0
M  V30 2698 H 254.937 -2.4364 0.836507 0
M  V30 2699 H 254.895 -3.04527 -0.781714 0
M  V30 2700 N 258.668 -1.30515 -0.883378 0
M  V30 2701 C 259.616 -1.16941 -2.01066 0
M  V30 2702 C 260.61 -0.0809148 -1.69207 0
M  V30 2703 O 261.816 -0.241877 -1.78367 0
M  V30 2704 H 258.191 -0.361705 -0.659298 0
M  V30 2705 H 260.162 -2.12344 -2.09649 0
M  V30 2706 C 258.911 -0.879694 -3.36388 0
M  V30 2707 H 258.234 -1.70936 -3.61415 0
M  V30 2708 H 259.674 -0.82483 -4.159 0
M  V30 2709 C 258.133 0.417409 -3.34304 0
M  V30 2710 O 258.663 1.43843 -3.75063 0
M  V30 2711 N 256.869 0.429141 -2.87414 0
M  V30 2712 H 256.416 -0.402222 -2.5444 0
M  V30 2713 H 256.374 1.29696 -2.86403 0
M  V30 2714 N 260.146 1.09593 -1.13257 0
M  V30 2715 C 261.093 2.1618 -0.808381 0
M  V30 2716 C 262.063 1.64517 0.228754 0
M  V30 2717 O 263.248 1.9053 0.101381 0
M  V30 2718 C 260.388 3.43973 -0.278675 0
M  V30 2719 C 259.501 4.09545 -1.37466 0
M  V30 2720 C 258.636 5.25088 -0.803479 0
M  V30 2721 C 257.675 5.82579 -1.87799 0
M  V30 2722 N 256.812 6.89486 -1.32488 0
M  V30 2723 H 261.652 2.43254 -1.72138 0
M  V30 2724 H 259.189 1.19392 -0.859294 0
M  V30 2725 H 261.147 4.17174 0.0465583 0
M  V30 2726 H 259.777 3.17223 0.597459 0
M  V30 2727 H 258.829 3.34226 -1.81652 0
M  V30 2728 H 260.141 4.48307 -2.18684 0
M  V30 2729 H 259.295 6.05178 -0.429427 0
M  V30 2730 H 258.034 4.87684 0.0397956 0
M  V30 2731 H 257.039 5.01152 -2.26113 0
M  V30 2732 H 258.264 6.22045 -2.72463 0
M  V30 2733 H 256.21 6.54064 -0.503575 0
M  V30 2734 H 256.127 7.27007 -2.07355 0
M  V30 2735 H 257.395 7.73336 -0.978336 0
M  V30 2736 N 261.624 0.925811 1.2754 0
M  V30 2737 C 262.554 0.440748 2.29303 0
M  V30 2738 C 263.535 -0.497971 1.62648 0
M  V30 2739 O 264.72 -0.403126 1.8997 0
M  V30 2740 C 261.85 -0.309048 3.45922 0
M  V30 2741 C 260.804 0.54166 4.24559 0
M  V30 2742 C 260.13 -0.337191 5.33636 0
M  V30 2743 C 261.43 1.80516 4.90114 0
M  V30 2744 H 263.124 1.29121 2.70126 0
M  V30 2745 H 260.67 0.622323 1.29858 0
M  V30 2746 H 262.623 -0.659315 4.1621 0
M  V30 2747 H 261.347 -1.19352 3.04011 0
M  V30 2748 H 260.006 0.874609 3.56014 0
M  V30 2749 H 259.654 -1.22056 4.87966 0
M  V30 2750 H 259.354 0.228497 5.87156 0
M  V30 2751 H 260.878 -0.683072 6.06767 0
M  V30 2752 H 262.292 1.52307 5.52698 0
M  V30 2753 H 260.689 2.3142 5.53683 0
M  V30 2754 H 261.759 2.52581 4.13921 0
M  V30 2755 N 263.102 -1.41638 0.69111 0
M  V30 2756 C 264.332 -2.0533 0.228758 0
M  V30 2757 C 264.74 -1.52089 -1.12541 0
M  V30 2758 O 264.083 -0.662145 -1.71351 0
M  V30 2759 C 264.145 -3.59349 0.10407 0
M  V30 2760 C 263.809 -4.35362 1.38956 0
M  V30 2761 C 264.806 -4.64942 2.32648 0
M  V30 2762 C 262.491 -4.74714 1.64169 0
M  V30 2763 C 264.485 -5.32828 3.49818 0
M  V30 2764 C 262.172 -5.42338 2.81625 0
M  V30 2765 C 263.17 -5.71322 3.74273 0
M  V30 2766 O 262.858 -6.37554 4.89673 0
M  V30 2767 H 262.59 -0.667796 0.104997 0
M  V30 2768 H 265.144 -1.82477 0.942938 0
M  V30 2769 H 263.374 -3.80924 -0.665839 0
M  V30 2770 H 265.063 -4.04633 -0.320519 0
M  V30 2771 H 265.829 -4.35025 2.14425 0
M  V30 2772 H 261.708 -4.51538 0.929202 0
M  V30 2773 H 265.252 -5.55368 4.22152 0
M  V30 2774 H 261.149 -5.71673 2.99768 0
M  V30 2775 H 261.917 -6.56049 4.8943 0
M  V30 2776 N 264.58 -0.43555 -1.51462 0
M  V30 2777 C 265.826 0.131709 -2.02372 0
M  V30 2778 C 266.159 1.42516 -1.3192 0
M  V30 2779 O 265.434 1.89606 -0.433573 0
M  V30 2780 C 265.717 0.352301 -3.58373 0
M  V30 2781 C 265.57 -0.959676 -4.39443 0
M  V30 2782 C 266.889 1.12286 -4.25535 0
M  V30 2783 H 264.008 0.0463936 -0.735538 0
M  V30 2784 H 266.65 -0.574197 -1.81116 0
M  V30 2785 H 264.8 0.9536 -3.76615 0
M  V30 2786 H 266.472 -1.59482 -4.32855 0
M  V30 2787 H 264.715 -1.56468 -4.04599 0
M  V30 2788 H 265.386 -0.759394 -5.46752 0
M  V30 2789 H 267.862 0.613545 -4.11552 0
M  V30 2790 H 266.738 1.24598 -5.34571 0
M  V30 2791 H 266.999 2.15048 -3.86273 0
M  V30 2792 N 266.058 1.56714 -0.166846 0
M  V30 2793 C 267.021 2.16539 0.751232 0
M  V30 2794 C 268.021 1.11228 1.16125 0
M  V30 2795 O 269.211 1.36765 1.07894 0
M  V30 2796 C 266.343 2.74462 2.02196 0
M  V30 2797 H 267.536 2.99013 0.230499 0
M  V30 2798 H 265.089 1.56081 0.0826982 0
M  V30 2799 H 265.824 1.95709 2.58589 0
M  V30 2800 H 265.609 3.51527 1.73698 0
M  V30 2801 H 267.099 3.20489 2.67725 0
M  V30 2802 N 267.536 -0.106894 1.57237 0
M  V30 2803 C 268.484 -1.14944 2.02215 0
M  V30 2804 C 269.478 -1.42167 0.92114 0
M  V30 2805 O 270.684 -1.41987 1.10634 0
M  V30 2806 H 267.059 -0.387841 0.64427 0
M  V30 2807 H 269.03 -0.743683 2.88984 0
M  V30 2808 C 267.779 -2.4647 2.4525 0
M  V30 2809 H 267.102 -2.26363 3.29545 0
M  V30 2810 H 268.542 -3.17948 2.80508 0
M  V30 2811 C 267.001 -3.09921 1.321 0
M  V30 2812 O 267.531 -3.9651 0.643622 0
M  V30 2813 N 265.737 -2.69986 1.07497 0
M  V30 2814 H 265.284 -1.99667 1.62761 0
M  V30 2815 H 265.242 -3.12769 0.319876 0
M  V30 2816 N 269.014 -1.53014 -0.377408 0
M  V30 2817 C 270.26 -1.68872 -1.12294 0
M  V30 2818 C 270.593 -0.433224 -1.89306 0
M  V30 2819 O 269.868 0.569258 -1.85983 0
M  V30 2820 C 270.151 -2.93115 -2.09179 0
M  V30 2821 C 270.004 -4.28794 -1.35853 0
M  V30 2822 C 271.323 -3.12928 -3.09458 0
M  V30 2823 H 268.442 -0.614518 -0.406862 0
M  V30 2824 H 271.084 -1.85633 -0.40503 0
M  V30 2825 H 269.234 -2.78956 -2.70399 0
M  V30 2826 H 270.906 -4.54742 -0.775082 0
M  V30 2827 H 269.149 -4.28744 -0.660364 0
M  V30 2828 H 269.82 -5.11837 -2.06706 0
M  V30 2829 H 272.296 -3.26194 -2.58334 0
M  V30 2830 H 271.172 -4.01316 -3.74482 0
M  V30 2831 H 271.433 -2.27669 -3.78971 0
M  V30 2832 N 270.492 0.636531 -1.44174 0
M  V30 2833 C 271.74 1.39343 -1.46383 0
M  V30 2834 C 272.061 1.94766 -0.0955715 0
M  V30 2835 O 271.331 1.75452 0.871395 0
M  V30 2836 H 269.911 0.517199 -0.538994 0
M  V30 2837 H 272.573 0.74957 -1.7991 0
M  V30 2838 H 271.669 2.22746 -2.18611 0
M  V30 2839 N 271.97 1.30982 0.876444 0
M  V30 2840 C 273.198 1.23242 1.6619 0
M  V30 2841 C 273.613 -0.203345 1.87702 0
M  V30 2842 O 272.97 -1.13317 1.43057 0
M  V30 2843 C 273.021 1.96623 3.03351 0
M  V30 2844 O 272.742 3.34594 2.82804 0
M  V30 2845 C 274.243 1.95644 3.97792 0
M  V30 2846 H 271.463 0.426126 0.518322 0
M  V30 2847 H 274.007 1.7275 1.09442 0
M  V30 2848 H 272.162 1.50892 3.56806 0
M  V30 2849 H 272.576 3.71873 3.69879 0
M  V30 2850 H 274.05 2.51511 4.91372 0
M  V30 2851 H 274.527 0.937395 4.2908 0
M  V30 2852 H 275.133 2.41225 3.50272 0
M  V30 2853 N 273.449 -1.08991 1.13837 0
M  V30 2854 C 274.397 -2.17841 0.815347 0
M  V30 2855 C 275.391 -1.68164 -0.204233 0
M  V30 2856 O 276.597 -1.79897 -0.0609304 0
M  V30 2857 H 272.972 -0.710654 0.245915 0
M  V30 2858 H 274.943 -2.42315 1.74143 0
M  V30 2859 C 273.692 -3.46381 0.302614 0
M  V30 2860 H 273.015 -3.84979 1.0785 0
M  V30 2861 H 274.455 -4.23844 0.115074 0
M  V30 2862 C 272.914 -3.22556 -0.972591 0
M  V30 2863 O 273.444 -3.45599 -2.04754 0
M  V30 2864 N 271.65 -2.76134 -0.905455 0
M  V30 2865 H 271.197 -2.57582 -0.0305421 0
M  V30 2866 H 271.155 -2.60571 -1.75926 0
M  V30 2867 N 274.927 -0.932562 -1.27047 0
M  V30 2868 C 276.343 -0.633544 -1.46487 0
M  V30 2869 C 276.543 0.815746 -1.84249 0
M  V30 2870 O 275.599 1.59319 -1.95892 0
M  V30 2871 C 276.912 -1.58758 -2.55375 0
M  V30 2872 C 278.46 -1.59634 -2.69232 0
M  V30 2873 C 278.935 -2.53747 -3.81283 0
M  V30 2874 N 280.426 -2.51982 -3.88664 0
M  V30 2875 C 281.161 -3.21491 -4.74796 0
M  V30 2876 N 280.657 -4.00395 -5.65381 0
M  V30 2877 N 282.45 -3.10485 -4.68568 0
M  V30 2878 H 274.601 -1.86946 -1.00821 0
M  V30 2879 H 276.864 -0.802897 -0.504044 0
M  V30 2880 H 276.57 -2.62172 -2.34432 0
M  V30 2881 H 276.444 -1.33301 -3.52861 0
M  V30 2882 H 278.831 -0.569488 -2.89553 0
M  V30 2883 H 278.912 -1.89142 -1.72218 0
M  V30 2884 H 278.556 -3.56545 -3.61715 0
M  V30 2885 H 278.486 -2.21532 -4.77735 0
M  V30 2886 H 280.977 -1.94681 -3.23895 0
M  V30 2887 H 281.29 -4.50406 -6.27976 0
M  V30 2888 H 279.635 -4.04498 -5.65161 0
M  V30 2889 H 282.826 -2.48331 -3.96799 0
M  V30 2890 H 282.999 -3.64925 -5.35475 0
M  V30 2891 N 276.405 1.4127 -0.698611 0
M  V30 2892 C 277.368 2.29158 -0.044132 0
M  V30 2893 C 278.368 1.44529 0.704841 0
M  V30 2894 O 279.558 1.65643 0.539276 0
M  V30 2895 C 276.69 3.27459 0.947809 0
M  V30 2896 H 277.883 2.88529 -0.817994 0
M  V30 2897 H 275.436 1.49307 -0.46228 0
M  V30 2898 H 276.171 2.73073 1.74933 0
M  V30 2899 H 275.956 3.8991 0.41385 0
M  V30 2900 H 277.446 3.93311 1.40344 0
M  V30 2901 N 277.883 0.443576 1.51229 0
M  V30 2902 C 278.813 -0.355142 2.30783 0
M  V30 2903 C 279.794 -1.0154 1.36468 0
M  V30 2904 O 280.979 -1.01785 1.65389 0
M  V30 2905 C 278.109 -1.45312 3.15439 0
M  V30 2906 C 277.063 -0.916002 4.18083 0
M  V30 2907 C 276.389 -2.1102 4.91299 0
M  V30 2908 C 277.689 0.0538602 5.22272 0
M  V30 2909 H 279.383 0.308767 2.97804 0
M  V30 2910 H 276.929 0.149937 1.43217 0
M  V30 2911 H 278.882 -2.01914 3.69876 0
M  V30 2912 H 277.606 -2.14541 2.46252 0
M  V30 2913 H 276.265 -0.372145 3.64706 0
M  V30 2914 H 275.913 -2.78882 4.18609 0
M  V30 2915 H 275.613 -1.75717 5.60712 0
M  V30 2916 H 277.137 -2.68164 5.48562 0
M  V30 2917 H 278.551 -0.422069 5.71744 0
M  V30 2918 H 276.948 0.319776 5.99247 0
M  V30 2919 H 278.018 0.98858 4.74716 0
M  V30 2920 N 279.361 -1.56624 0.175154 0
M  V30 2921 C 280.291 -2.21155 -0.749195 0
M  V30 2922 C 281.272 -1.16836 -1.23626 0
M  V30 2923 O 282.457 -1.45277 -1.28873 0
M  V30 2924 C 279.587 -2.8553 -1.97711 0
M  V30 2925 C 278.541 -3.95921 -1.62575 0
M  V30 2926 C 277.867 -4.47365 -2.92864 0
M  V30 2927 C 279.167 -5.15323 -0.850838 0
M  V30 2928 H 280.861 -2.98653 -0.211295 0
M  V30 2929 H 278.407 -1.43651 -0.100188 0
M  V30 2930 H 280.36 -3.2935 -2.62881 0
M  V30 2931 H 279.084 -2.05406 -2.53921 0
M  V30 2932 H 277.743 -3.52762 -0.997719 0
M  V30 2933 H 277.391 -3.64027 -3.47122 0
M  V30 2934 H 277.091 -5.21839 -2.70106 0
M  V30 2935 H 278.615 -4.93873 -3.59056 0
M  V30 2936 H 280.029 -5.55812 -1.40521 0
M  V30 2937 H 278.426 -5.95739 -0.722154 0
M  V30 2938 H 279.496 -4.84661 0.152082 0
M  V30 2939 N 280.839 0.0985539 -1.57292 0
M  V30 2940 C 282.079 0.808332 -1.87737 0
M  V30 2941 C 282.443 1.7607 -0.76572 0
M  V30 2942 O 283.644 2.51358 -0.952499 0
M  V30 2943 C 281.915 1.52093 -3.23423 0
M  V30 2944 S 283.474 2.26947 -3.75554 0
M  V30 2945 H 280.292 0.269377 -0.657995 0
M  V30 2946 H 282.894 0.0656269 -1.9539 0
M  V30 2947 H 281.598 0.81363 -4.02254 0
M  V30 2948 H 281.129 2.30361 -3.189 0
M  V30 2949 H 283.144 3.53027 -3.48692 0
M  V30 2950 N 282.317 1.53212 0.369288 0
M  V30 2951 C 283.264 1.79388 1.45219 0
M  V30 2952 C 284.234 0.638059 1.53356 0
M  V30 2953 O 285.419 0.879852 1.69302 0
M  V30 2954 C 282.559 1.98623 2.82211 0
M  V30 2955 C 281.672 3.26337 2.8307 0
M  V30 2956 C 280.807 3.35779 4.11614 0
M  V30 2957 C 279.846 4.5754 4.06601 0
M  V30 2958 N 278.983 4.64155 5.26787 0
M  V30 2959 H 283.823 2.71794 1.22198 0
M  V30 2960 H 281.36 1.34642 0.592444 0
M  V30 2961 H 283.318 2.07761 3.61789 0
M  V30 2962 H 281.948 1.09558 3.03639 0
M  V30 2963 H 281 3.26171 1.95747 0
M  V30 2964 H 282.312 4.15988 2.75237 0
M  V30 2965 H 281.466 3.44208 4.99606 0
M  V30 2966 H 280.205 2.44137 4.22195 0
M  V30 2967 H 279.21 4.49215 3.16996 0
M  V30 2968 H 280.435 5.50519 3.97625 0
M  V30 2969 H 278.381 3.75413 5.3796 0
M  V30 2970 H 278.298 5.47706 5.21109 0
M  V30 2971 H 279.566 4.76863 6.16621 0
M  V30 2972 N 283.795 -0.628877 1.44509 0
M  V30 2973 C 285.02 -1.42048 1.5112 0
M  V30 2974 C 285.445 -1.87594 0.137818 0
M  V30 2975 O 284.803 -1.58873 -0.873437 0
M  V30 2976 C 284.851 -2.61541 2.48251 0
M  V30 2977 O 283.955 -3.61453 1.98559 0
M  V30 2978 H 283.296 -0.424942 0.510216 0
M  V30 2979 H 285.826 -0.767374 1.89664 0
M  V30 2980 H 285.836 -3.09057 2.66361 0
M  V30 2981 H 284.511 -2.27736 3.48007 0
M  V30 2982 H 283.088 -3.20731 1.90227 0
M  V30 2983 N 285.273 -1.31445 -0.869486 0
M  V30 2984 C 286.501 -1.24122 -1.65534 0
M  V30 2985 C 286.916 0.193387 -1.87807 0
M  V30 2986 O 286.273 1.12557 -1.43656 0
M  V30 2987 C 286.324 -1.98229 -3.02304 0
M  V30 2988 O 286.045 -3.3609 -2.81026 0
M  V30 2989 C 287.546 -1.97751 -3.96749 0
M  V30 2990 H 284.766 -0.428868 -0.516055 0
M  V30 2991 H 287.31 -1.73328 -1.08525 0
M  V30 2992 H 285.465 -1.52782 -3.56001 0
M  V30 2993 H 285.879 -3.7383 -3.67902 0
M  V30 2994 H 287.353 -2.54114 -4.90031 0
M  V30 2995 H 287.83 -0.960137 -4.28577 0
M  V30 2996 H 288.436 -2.43079 -3.48988 0
M  V30 2997 N 286.751 1.08385 -1.14413 0
M  V30 2998 C 287.997 1.81044 -0.913834 0
M  V30 2999 C 288.33 1.86004 0.558209 0
M  V30 3000 O 287.605 1.33606 1.4135 0
M  V30 3001 C 287.888 3.26648 -1.51569 0
M  V30 3002 C 287.741 3.29895 -3.0576 0
M  V30 3003 C 289.06 4.23629 -1.19273 0
M  V30 3004 H 286.179 0.65727 -0.333414 0
M  V30 3005 H 288.821 1.26896 -1.41412 0
M  V30 3006 H 286.971 3.72889 -1.09023 0
M  V30 3007 H 288.643 2.91977 -3.57137 0
M  V30 3008 H 286.886 2.69163 -3.40197 0
M  V30 3009 H 287.557 4.32516 -3.42977 0
M  V30 3010 H 290.033 3.85727 -1.56057 0
M  V30 3011 H 288.909 5.23822 -1.64017 0
M  V30 3012 H 289.17 4.41968 -0.108068 0
M  V30 3013 N 288.23 0.939286 1.26551 0
M  V30 3014 C 289.507 0.5038 1.89001 0
M  V30 3015 C 289.887 -1.01854 1.84903 0
M  V30 3016 O 289.235 -1.87773 1.30206 0
M  V30 3017 C 289.445 1.063 3.32417 0
M  V30 3018 C 290.793 1.13051 4.09273 0
M  V30 3019 O 291.817 1.01345 3.41479 0
M  V30 3020 O 290.676 1.31233 5.30509 0
M  V30 3021 H 287.77 0.163897 0.810597 0
M  V30 3022 H 290.316 1.03173 1.34735 0
M  V30 3023 H 289.088 2.10665 3.29752 0
M  V30 3024 H 288.711 0.517408 3.94219 0
M  V30 3025 N 289.708 -1.40897 0.706093 0
M  V30 3026 C 290.956 -2.00657 0.241054 0
M  V30 3027 C 291.277 -1.56241 -1.16678 0
M  V30 3028 O 290.547 -0.79765 -1.78926 0
M  V30 3029 H 289.127 -0.742018 0.0861308 0
M  V30 3030 H 291.789 -1.72372 0.909604 0
M  V30 3031 H 290.885 -3.10958 0.266705 0
M  V30 3032 N 291.186 -0.45159 -1.50991 0
M  V30 3033 C 292.116 0.342898 -2.30969 0
M  V30 3034 C 293.097 1.00815 -1.37005 0
M  V30 3035 O 294.282 1.00907 -1.65926 0
M  V30 3036 C 291.412 1.43637 -3.16205 0
M  V30 3037 C 290.366 0.893818 -4.18563 0
M  V30 3038 C 289.692 2.08411 -4.92411 0
M  V30 3039 C 290.992 -0.0815568 -5.22236 0
M  V30 3040 H 292.686 -0.324556 -2.97636 0
M  V30 3041 H 290.232 -0.157531 -1.43136 0
M  V30 3042 H 292.185 1.9995 -3.70942 0
M  V30 3043 H 290.909 2.13232 -2.47386 0
M  V30 3044 H 289.568 0.352798 -3.64898 0
M  V30 3045 H 289.216 2.76658 -4.20082 0
M  V30 3046 H 288.916 1.72741 -5.61636 0
M  V30 3047 H 290.44 2.65251 -5.49976 0
M  V30 3048 H 291.854 0.391742 -5.7196 0
M  V30 3049 H 290.251 -0.351551 -5.99069 0
M  V30 3050 H 291.321 -1.01374 -4.74185 0
M  V30 3051 N 292.664 1.56529 -0.183458 0
M  V30 3052 C 293.596 2.15747 0.773697 0
M  V30 3053 C 294.609 1.1162 1.1851 0
M  V30 3054 O 295.798 1.3876 1.12285 0
M  V30 3055 C 292.898 2.6952 2.05456 0
M  V30 3056 C 292.071 3.98429 1.8048 0
M  V30 3057 C 291.13 4.37145 2.92901 0
M  V30 3058 O 290.156 5.04791 2.6301 0
M  V30 3059 N 291.358 3.99695 4.2098 0
M  V30 3060 H 294.123 2.98505 0.26736 0
M  V30 3061 H 291.684 1.619 -0.0010878 0
M  V30 3062 H 293.676 2.92412 2.79781 0
M  V30 3063 H 292.246 1.91282 2.47245 0
M  V30 3064 H 291.466 3.8379 0.899947 0
M  V30 3065 H 292.754 4.82597 1.61175 0
M  V30 3066 H 292.152 3.4526 4.48121 0
M  V30 3067 H 290.709 4.27562 4.9197 0
M  V30 3068 N 294.142 -0.090211 1.57342 0
M  V30 3069 C 295.388 -0.793982 1.86611 0
M  V30 3070 C 295.721 -1.78142 0.773252 0
M  V30 3071 O 294.996 -1.93271 -0.218304 0
M  V30 3072 C 295.279 -1.51839 3.26523 0
M  V30 3073 C 295.132 -0.548609 4.46442 0
M  V30 3074 C 296.451 -2.46779 3.64401 0
M  V30 3075 H 293.57 -0.287186 0.678744 0
M  V30 3076 H 296.212 -0.0575076 1.89913 0
M  V30 3077 H 294.362 -2.14617 3.23839 0
M  V30 3078 H 296.034 0.0725513 4.61243 0
M  V30 3079 H 294.277 0.137614 4.33582 0
M  V30 3080 H 294.948 -1.09271 5.41076 0
M  V30 3081 H 297.424 -1.94089 3.68061 0
M  V30 3082 H 296.3 -2.94479 4.63221 0
M  V30 3083 H 296.561 -3.30758 2.93346 0
M  V30 3084 N 295.62 -1.53406 -0.361157 0
M  V30 3085 C 296.848 -1.73717 -1.12383 0
M  V30 3086 C 297.263 -0.468161 -1.82904 0
M  V30 3087 O 296.62 0.559198 -1.73722 0
M  V30 3088 C 296.671 -2.90558 -2.15078 0
M  V30 3089 O 296.392 -4.12549 -1.47428 0
M  V30 3090 C 297.893 -3.22777 -3.03858 0
M  V30 3091 H 295.113 -0.580896 -0.335858 0
M  V30 3092 H 297.657 -2.00167 -0.418728 0
M  V30 3093 H 295.812 -2.66489 -2.8118 0
M  V30 3094 H 296.226 -4.78009 -2.15887 0
M  V30 3095 H 297.7 -4.07927 -3.71887 0
M  V30 3096 H 298.177 -2.38329 -3.68912 0
M  V30 3097 H 298.783 -3.48787 -2.43367 0
M  V30 3098 N 297.098 0.621204 -1.44841 0
M  V30 3099 C 298.03 1.74615 -1.48466 0
M  V30 3100 C 299.043 1.58377 -0.37691 0
M  V30 3101 O 300.232 1.66508 -0.643215 0
M  V30 3102 C 297.332 3.12459 -1.31236 0
M  V30 3103 C 296.505 3.55064 -2.55438 0
M  V30 3104 C 295.564 4.71821 -2.32963 0
M  V30 3105 O 294.59 4.79628 -3.06505 0
M  V30 3106 N 295.792 5.64186 -1.36654 0
M  V30 3107 H 298.557 1.71973 -2.45449 0
M  V30 3108 H 296.118 0.806077 -1.40407 0
M  V30 3109 H 298.11 3.88302 -1.14032 0
M  V30 3110 H 296.68 3.09686 -0.4258 0
M  V30 3111 H 295.9 2.69324 -2.87851 0
M  V30 3112 H 297.188 3.80284 -3.38026 0
M  V30 3113 H 296.586 5.6058 -0.759344 0
M  V30 3114 H 295.143 6.39618 -1.25425 0
M  V30 3115 N 298.576 1.31904 0.862503 0
M  V30 3116 C 299.506 1.22782 1.98612 0
M  V30 3117 C 300.487 0.113362 1.69722 0
M  V30 3118 O 301.672 0.299218 1.91881 0
M  V30 3119 C 298.802 0.942058 3.34279 0
M  V30 3120 C 297.756 2.0169 3.77499 0
M  V30 3121 C 297.082 1.58369 5.10709 0
M  V30 3122 C 298.382 3.43096 3.93805 0
M  V30 3123 H 300.076 2.16788 2.06502 0
M  V30 3124 H 297.622 1.04366 0.992154 0
M  V30 3125 H 299.575 0.864818 4.1243 0
M  V30 3126 H 298.299 -0.0336603 3.26583 0
M  V30 3127 H 296.958 2.08416 3.01593 0
M  V30 3128 H 296.606 0.595628 4.99461 0
M  V30 3129 H 296.306 2.30279 5.40597 0
M  V30 3130 H 297.83 1.52067 5.91361 0
M  V30 3131 H 299.244 3.39003 4.62331 0
M  V30 3132 H 297.641 4.13288 4.35101 0
M  V30 3133 H 298.711 3.83334 2.96957 0
M  V30 3134 N 300.054 -1.07777 1.14986 0
M  V30 3135 C 301.002 -2.16964 0.838406 0
M  V30 3136 C 301.996 -1.68372 -0.186386 0
M  V30 3137 O 303.202 -1.79951 -0.0418465 0
M  V30 3138 H 299.577 -0.708006 0.253439 0
M  V30 3139 H 301.548 -2.40454 1.76704 0
M  V30 3140 C 300.297 -3.4604 0.339335 0
M  V30 3141 H 299.62 -3.83813 1.11927 0
M  V30 3142 H 301.06 -4.23698 0.160021 0
M  V30 3143 C 299.519 -3.23569 -0.938325 0
M  V30 3144 O 300.049 -3.47752 -2.01077 0
M  V30 3145 N 298.255 -2.77079 -0.876117 0
M  V30 3146 H 297.802 -2.576 -0.00322037 0
M  V30 3147 H 297.76 -2.62422 -1.73153 0
M  V30 3148 N 301.532 -0.945985 -1.26051 0
M  V30 3149 C 302.778 -0.597002 -1.93814 0
M  V30 3150 C 303.111 0.862484 -1.73997 0
M  V30 3151 O 302.386 1.61769 -1.07986 0
M  V30 3152 C 302.669 -0.945937 -3.47454 0
M  V30 3153 C 302.522 -2.46052 -3.76535 0
M  V30 3154 C 303.841 -0.464785 -4.37639 0
M  V30 3155 H 300.96 -0.218366 -0.703907 0
M  V30 3156 H 303.602 -1.18107 -1.48831 0
M  V30 3157 H 301.752 -0.448902 -3.85898 0
M  V30 3158 H 303.424 -3.03065 -3.47778 0
M  V30 3159 H 301.667 -2.90194 -3.22444 0
M  V30 3160 H 302.338 -2.65517 -4.83947 0
M  V30 3161 H 304.814 -0.891016 -4.06448 0
M  V30 3162 H 303.69 -0.737712 -5.4392 0
M  V30 3163 H 303.951 0.635274 -4.37512 0
M  V30 3164 N 303.011 1.40521 -0.713556 0
M  V30 3165 C 304.288 1.94775 -0.17943 0
M  V30 3166 C 304.668 1.65184 1.31444 0
M  V30 3167 O 304.016 0.968429 2.06963 0
M  V30 3168 C 304.226 3.45543 -0.489986 0
M  V30 3169 C 305.574 4.22442 -0.427536 0
M  V30 3170 O 306.598 3.53644 -0.425929 0
M  V30 3171 O 305.457 5.4501 -0.403292 0
M  V30 3172 H 302.551 0.826606 -0.0255192 0
M  V30 3173 H 305.097 1.5014 -0.790949 0
M  V30 3174 H 303.869 3.60432 -1.5233 0
M  V30 3175 H 303.492 3.97311 0.151598 0
M  V30 3176 N 304.489 0.459591 1.5075 0
M  V30 3177 C 305.439 -0.358926 2.25157 0
M  V30 3178 C 306.423 -0.971285 1.28276 0
M  V30 3179 O 307.615 -0.885739 1.53244 0
M  V30 3180 C 304.744 -1.44695 3.11317 0
M  V30 3181 C 303.83 -0.842894 4.15639 0
M  V30 3182 N 304.221 0.0299373 5.05791 0
M  V30 3183 C 302.519 -1.10809 4.32015 0
M  V30 3184 C 303.22 0.371563 5.80512 0
M  V30 3185 N 302.196 -0.250409 5.43023 0
M  V30 3186 H 305.998 0.313636 2.92222 0
M  V30 3187 H 303.512 0.273021 1.60089 0
M  V30 3188 H 305.509 -2.04641 3.63218 0
M  V30 3189 H 304.169 -2.12162 2.45799 0
M  V30 3190 H 305.18 0.39797 5.16369 0
M  V30 3191 H 301.857 -1.7786 3.77719 0
M  V30 3192 H 303.247 1.08319 6.63111 0
M  V30 3193 N 305.967 -1.56429 0.191757 0
M  V30 3194 C 307.195 -2.01867 -0.453586 0
M  V30 3195 C 307.61 -1.07191 -1.5542 0
M  V30 3196 O 306.967 -0.0762108 -1.82341 0
M  V30 3197 C 307.018 -3.47017 -1.013 0
M  V30 3198 O 306.739 -4.38078 0.0437005 0
M  V30 3199 C 308.24 -4.07956 -1.73456 0
M  V30 3200 H 305.46 -0.661211 -0.114199 0
M  V30 3201 H 308.004 -2.02295 0.299483 0
M  V30 3202 H 306.159 -3.47298 -1.71647 0
M  V30 3203 H 306.573 -5.23178 -0.372212 0
M  V30 3204 H 308.047 -5.1138 -2.07833 0
M  V30 3205 H 308.524 -3.51222 -2.63704 0
M  V30 3206 H 309.13 -4.11437 -1.07702 0
M  V30 3207 N 307.445 0.0818655 -1.57387 0
M  V30 3208 C 308.673 0.796108 -1.9097 0
M  V30 3209 C 309.088 1.71626 -0.786757 0
M  V30 3210 O 308.445 1.80908 0.240513 0
M  V30 3211 C 308.496 1.59829 -3.24248 0
M  V30 3212 O 308.217 0.715131 -4.32224 0
M  V30 3213 C 309.718 2.41442 -3.7178 0
M  V30 3214 H 306.938 0.22691 -0.631469 0
M  V30 3215 H 309.482 0.0551439 -2.04426 0
M  V30 3216 H 307.637 2.29163 -3.12351 0
M  V30 3217 H 308.051 1.27205 -5.08841 0
M  V30 3218 H 309.525 2.932 -4.67694 0
M  V30 3219 H 310.002 3.2051 -3.00283 0
M  V30 3220 H 310.608 1.77283 -3.86589 0
M  V30 3221 N 308.923 1.53595 0.353017 0
M  V30 3222 C 309.833 1.83897 1.45667 0
M  V30 3223 C 310.849 0.728334 1.58023 0
M  V30 3224 O 312.025 1.01968 1.73679 0
M  V30 3225 C 309.09 2.03383 2.80778 0
M  V30 3226 C 308.151 3.27262 2.77845 0
M  V30 3227 C 307.384 3.45809 4.06512 0
M  V30 3228 O 307.607 2.68387 5.03314 0
M  V30 3229 O 306.541 4.39207 4.11559 0
M  V30 3230 H 310.367 2.77686 1.2298 0
M  V30 3231 H 307.952 1.39132 0.544308 0
M  V30 3232 H 309.834 2.17698 3.60812 0
M  V30 3233 H 308.509 1.12783 3.03417 0
M  V30 3234 H 307.416 3.18359 1.96465 0
M  V30 3235 H 308.749 4.17824 2.60161 0
M  V30 3236 N 310.401 -0.613514 1.45168 0
M  V30 3237 C 311.349 -1.74572 1.53712 0
M  V30 3238 C 312.343 -1.64426 0.407505 0
M  V30 3239 O 313.549 -1.70291 0.583176 0
M  V30 3240 H 309.924 -0.576641 0.48269 0
M  V30 3241 H 311.895 -1.64492 2.48968 0
M  V30 3242 C 310.644 -3.12943 1.51532 0
M  V30 3243 H 309.967 -3.21407 2.37776 0
M  V30 3244 H 311.407 -3.9201 1.61569 0
M  V30 3245 C 309.866 -3.36053 0.238798 0
M  V30 3246 O 310.396 -3.95837 -0.6838 0
M  V30 3247 N 308.602 -2.9028 0.136359 0
M  V30 3248 H 308.149 -2.41811 0.887999 0
M  V30 3249 H 308.107 -3.06116 -0.716944 0
M  V30 3250 N 311.879 -1.3236 -0.855495 0
M  V30 3251 C 312.789 -1.23221 -1.99634 0
M  V30 3252 C 313.805 -0.145983 -1.73387 0
M  V30 3253 O 314.981 -0.366502 -1.98037 0
M  V30 3254 C 312.046 -0.954782 -3.33294 0
M  V30 3255 C 311.107 -2.12937 -3.72769 0
M  V30 3256 C 310.34 -1.86508 -5.00051 0
M  V30 3257 O 310.563 -0.807231 -5.64659 0
M  V30 3258 O 309.497 -2.72591 -5.36636 0
M  V30 3259 H 313.323 -2.19126 -2.1028 0
M  V30 3260 H 310.908 -1.12241 -0.986018 0
M  V30 3261 H 312.79 -0.816519 -4.13414 0
M  V30 3262 H 311.465 -0.0258854 -3.2369 0
M  V30 3263 H 310.372 -2.3231 -2.93228 0
M  V30 3264 H 311.705 -3.04102 -3.87018 0
M  V30 3265 N 313.357 1.07166 -1.15556 0
M  V30 3266 C 314.634 1.76546 -0.842069 0
M  V30 3267 C 315.014 2.00453 0.661939 0
M  V30 3268 O 314.362 1.62452 1.60691 0
M  V30 3269 C 314.572 3.07266 -1.65495 0
M  V30 3270 C 315.92 3.81578 -1.86234 0
M  V30 3271 O 316.944 3.17083 -1.62287 0
M  V30 3272 O 315.803 4.97419 -2.26355 0
M  V30 3273 H 312.897 0.766756 -0.309862 0
M  V30 3274 H 315.443 1.13514 -1.26145 0
M  V30 3275 H 314.215 2.85494 -2.67598 0
M  V30 3276 H 313.838 3.7803 -1.23203 0
M  V30 3277 N 314.835 0.952656 1.25548 0
M  V30 3278 C 315.745 0.47782 2.29682 0
M  V30 3279 C 316.761 -0.453859 1.67977 0
M  V30 3280 O 317.937 -0.330587 1.98668 0
M  V30 3281 C 315.002 -0.238655 3.45878 0
M  V30 3282 C 314.063 0.730994 4.23031 0
M  V30 3283 C 313.296 0.0486165 5.33678 0
M  V30 3284 O 313.519 -1.16612 5.58353 0
M  V30 3285 O 312.453 0.733152 5.97418 0
M  V30 3286 H 316.279 1.34312 2.72386 0
M  V30 3287 H 313.864 0.719026 1.30959 0
M  V30 3288 H 315.746 -0.641774 4.16484 0
M  V30 3289 H 314.421 -1.07916 3.05181 0
M  V30 3290 H 313.328 1.18428 3.5486 0
M  V30 3291 H 314.661 1.53946 4.67506 0
M  V30 3292 N 316.313 -1.40141 0.720998 0
M  V30 3293 C 317.243 -2.33339 0.0867621 0
M  V30 3294 C 318.224 -1.53178 -0.739622 0
M  V30 3295 O 319.409 -1.81625 -0.687449 0
M  V30 3296 C 316.539 -3.37194 -0.831728 0
M  V30 3297 C 315.493 -4.27857 -0.110558 0
M  V30 3298 C 314.819 -5.22294 -1.14513 0
M  V30 3299 C 316.119 -5.11872 1.0385 0
M  V30 3300 H 317.813 -2.86626 0.865219 0
M  V30 3301 H 315.359 -1.37814 0.417516 0
M  V30 3302 H 317.312 -4.01335 -1.28485 0
M  V30 3303 H 316.036 -2.82314 -1.64214 0
M  V30 3304 H 314.695 -3.65176 0.322797 0
M  V30 3305 H 314.343 -4.63717 -1.94874 0
M  V30 3306 H 314.043 -5.83797 -0.667446 0
M  V30 3307 H 315.567 -5.89312 -1.59824 0
M  V30 3308 H 316.981 -5.69436 0.664482 0
M  V30 3309 H 315.378 -5.82445 1.4449 0
M  V30 3310 H 316.448 -4.4753 1.86668 0
M  V30 3311 N 317.792 -0.46758 -1.50504 0
M  V30 3312 C 319.039 0.0886219 -2.02306 0
M  V30 3313 C 319.367 1.40037 -1.34981 0
M  V30 3314 O 318.622 1.90136 -0.463318 0
M  V30 3315 C 318.921 0.323995 -3.55928 0
M  V30 3316 C 318.587 -0.905618 -4.41712 0
M  V30 3317 C 317.249 -1.24275 -4.64875 0
M  V30 3318 C 319.601 -1.72448 -4.91845 0
M  V30 3319 C 316.929 -2.39888 -5.35417 0
M  V30 3320 C 319.281 -2.87185 -5.63656 0
M  V30 3321 C 317.945 -3.21317 -5.85074 0
M  V30 3322 H 317.215 0.0324291 -0.74029 0
M  V30 3323 H 319.862 -0.620945 -1.81153 0
M  V30 3324 H 318.167 1.11577 -3.75577 0
M  V30 3325 H 319.864 0.76826 -3.93572 0
M  V30 3326 H 316.454 -0.632956 -4.239 0
M  V30 3327 H 320.638 -1.4772 -4.73806 0
M  V30 3328 H 315.894 -2.66611 -5.50208 0
M  V30 3329 H 320.068 -3.50985 -6.01484 0
M  V30 3330 H 317.695 -4.1101 -6.39511 0
M  V30 3331 N 319.27 1.56325 -0.20005 0
M  V30 3332 C 320.686 1.58839 0.155716 0
M  V30 3333 C 320.886 1.21636 1.60645 0
M  V30 3334 O 319.942 0.941437 2.34293 0
M  V30 3335 C 321.255 3.0032 -0.151124 0
M  V30 3336 C 322.803 3.12866 -0.0916284 0
M  V30 3337 C 323.278 4.56488 -0.371845 0
M  V30 3338 N 324.769 4.62089 -0.320641 0
M  V30 3339 C 325.504 5.71116 -0.511243 0
M  V30 3340 N 325 6.88592 -0.762461 0
M  V30 3341 N 326.793 5.60335 -0.445157 0
M  V30 3342 H 318.944 1.78788 -1.14668 0
M  V30 3343 H 321.207 0.829996 -0.458051 0
M  V30 3344 H 320.913 3.32117 -1.15721 0
M  V30 3345 H 320.787 3.73257 0.543986 0
M  V30 3346 H 323.174 2.80878 0.905065 0
M  V30 3347 H 323.255 2.42304 -0.81989 0
M  V30 3348 H 322.899 4.89189 -1.36588 0
M  V30 3349 H 322.829 5.25246 0.377362 0
M  V30 3350 H 325.32 3.77665 -0.13329 0
M  V30 3351 H 325.633 7.67581 -0.896576 0
M  V30 3352 H 323.978 6.90387 -0.799412 0
M  V30 3353 H 327.169 4.67436 -0.249278 0
M  V30 3354 H 327.342 6.45243 -0.597116 0
M  V30 3355 N 320.748 -0.0735177 1.57428 0
M  V30 3356 C 321.678 -1.0879 2.06608 0
M  V30 3357 C 322.659 -1.40473 0.959237 0
M  V30 3358 O 323.844 -1.5013 1.23185 0
M  V30 3359 C 320.974 -2.40183 2.50857 0
M  V30 3360 C 319.928 -2.22858 3.65402 0
M  V30 3361 C 319.254 -3.59619 3.957 0
M  V30 3362 C 320.554 -1.65123 4.95511 0
M  V30 3363 H 322.248 -0.678673 2.91607 0
M  V30 3364 H 319.794 -0.325013 1.40284 0
M  V30 3365 H 321.747 -3.11437 2.83874 0
M  V30 3366 H 320.471 -2.83083 1.62885 0
M  V30 3367 H 319.13 -1.54045 3.32664 0
M  V30 3368 H 318.778 -4.00086 3.04861 0
M  V30 3369 H 318.478 -3.48866 4.72828 0
M  V30 3370 H 320.002 -4.32306 4.31212 0
M  V30 3371 H 321.416 -2.26241 5.26771 0
M  V30 3372 H 319.813 -1.65071 5.7695 0
M  V30 3373 H 320.883 -0.612559 4.81015 0
M  V30 3374 N 322.226 -1.5378 -0.344866 0
M  V30 3375 C 323.451 -1.75211 -1.10977 0
M  V30 3376 C 323.876 -0.48936 -1.81623 0
M  V30 3377 O 323.234 0.557925 -1.72502 0
M  V30 3378 C 323.282 -2.93147 -2.09993 0
M  V30 3379 O 322.386 -2.63203 -3.17487 0
M  V30 3380 H 321.727 -0.581241 -0.321021 0
M  V30 3381 H 324.257 -2.00738 -0.395661 0
M  V30 3382 H 324.267 -3.19898 -2.53237 0
M  V30 3383 H 322.942 -3.84731 -1.5797 0
M  V30 3384 H 321.519 -2.47336 -2.79069 0
M  V30 3385 N 323.704 0.605807 -1.45491 0
M  V30 3386 C 324.636 1.73031 -1.5031 0
M  V30 3387 C 325.649 1.57968 -0.393687 0
M  V30 3388 O 326.838 1.65817 -0.660839 0
M  V30 3389 C 323.938 3.11049 -1.34543 0
M  V30 3390 C 323.111 3.52334 -2.59189 0
M  V30 3391 C 322.17 4.69323 -2.37954 0
M  V30 3392 O 321.196 4.7635 -3.11575 0
M  V30 3393 N 322.398 5.62705 -1.4263 0
M  V30 3394 H 325.163 1.6936 -2.4726 0
M  V30 3395 H 322.724 0.79114 -1.41254 0
M  V30 3396 H 324.716 3.87071 -1.18144 0
M  V30 3397 H 323.286 3.09217 -0.458623 0
M  V30 3398 H 322.506 2.66256 -2.90691 0
M  V30 3399 H 323.794 3.76677 -3.42041 0
M  V30 3400 H 323.192 5.59744 -0.818758 0
M  V30 3401 H 321.749 6.38252 -1.32202 0
M  V30 3402 N 325.182 1.32811 0.848464 0
M  V30 3403 C 326.112 1.24882 1.97299 0
M  V30 3404 C 327.093 0.131357 1.69592 0
M  V30 3405 O 328.278 0.319553 1.91553 0
M  V30 3406 C 325.408 0.97746 3.33261 0
M  V30 3407 C 324.362 2.05682 3.75338 0
M  V30 3408 C 323.688 1.63777 5.09 0
M  V30 3409 C 324.988 3.47254 3.90144 0
M  V30 3410 H 326.682 2.18966 2.04191 0
M  V30 3411 H 324.228 1.05413 0.981029 0
M  V30 3412 H 326.181 0.908513 4.1149 0
M  V30 3413 H 324.905 0.000980011 3.266 0
M  V30 3414 H 323.564 2.11603 2.99366 0
M  V30 3415 H 323.212 0.648569 4.98801 0
M  V30 3416 H 322.912 2.36 5.38124 0
M  V30 3417 H 324.436 1.5833 5.89715 0
M  V30 3418 H 325.85 3.43888 4.58709 0
M  V30 3419 H 324.247 4.1788 4.30693 0
M  V30 3420 H 325.317 3.86462 2.92874 0
M  V30 3421 N 326.66 -1.06551 1.16123 0
M  V30 3422 C 327.908 -1.78947 0.939267 0
M  V30 3423 C 328.229 -1.87532 -0.534476 0
M  V30 3424 O 327.499 -1.38211 -1.38833 0
M  V30 3425 H 326.079 -0.662807 0.344523 0
M  V30 3426 H 328.741 -1.28725 1.46342 0
M  V30 3427 H 327.837 -2.81117 1.35572 0
M  V30 3428 N 328.138 -0.959301 -1.25041 0
M  V30 3429 C 329.068 -0.501388 -2.28053 0
M  V30 3430 C 330.049 0.454673 -1.63911 0
M  V30 3431 O 331.234 0.352618 -1.90972 0
M  V30 3432 C 328.364 0.217224 -3.4662 0
M  V30 3433 C 327.318 -0.654034 -4.22973 0
M  V30 3434 C 326.644 0.195589 -5.34342 0
M  V30 3435 C 327.944 -1.93447 -4.85155 0
M  V30 3436 H 329.638 -1.36238 -2.66608 0
M  V30 3437 H 327.184 -0.656534 -1.28163 0
M  V30 3438 H 329.137 0.548732 -4.17812 0
M  V30 3439 H 327.861 1.1125 -3.07068 0
M  V30 3440 H 326.52 -0.968693 -3.5357 0
M  V30 3441 H 326.168 1.09076 -4.91031 0
M  V30 3442 H 325.868 -0.384091 -5.86343 0
M  V30 3443 H 327.392 0.521958 -6.08365 0
M  V30 3444 H 328.806 -1.66908 -5.48466 0
M  V30 3445 H 327.203 -2.46018 -5.47353 0
M  V30 3446 H 328.273 -2.63466 -4.07079 0
M  V30 3447 N 329.616 1.39756 -0.72842 0
M  V30 3448 C 330.893 1.94574 -0.200079 0
M  V30 3449 C 331.273 1.66569 1.29684 0
M  V30 3450 O 330.621 0.990326 2.05924 0
M  V30 3451 C 330.831 3.45004 -0.526608 0
M  V30 3452 C 332.179 4.21965 -0.472318 0
M  V30 3453 O 333.203 3.53173 -0.463413 0
M  V30 3454 O 332.062 5.44552 -0.461075 0
M  V30 3455 H 329.156 0.826289 -0.0342851 0
M  V30 3456 H 331.702 1.49293 -0.806829 0
M  V30 3457 H 330.474 3.58796 -1.56144 0
M  V30 3458 H 330.097 3.97449 0.109449 0
M  V30 3459 N 331.094 0.475555 1.50254 0
M  V30 3460 C 332.057 -0.305016 2.27161 0
M  V30 3461 C 333.057 -0.916519 1.32123 0
M  V30 3462 O 334.247 -0.785003 1.5551 0
M  V30 3463 C 331.379 -1.43496 3.09227 0
M  V30 3464 H 332.572 0.369511 2.97615 0
M  V30 3465 H 330.125 0.229747 1.54602 0
M  V30 3466 H 330.86 -2.14441 2.43281 0
M  V30 3467 H 330.645 -1.00223 3.79075 0
M  V30 3468 H 332.135 -1.98548 3.67381 0
M  V30 3469 N 332.573 -1.56217 0.208337 0
M  V30 3470 C 333.821 -1.97558 -0.426076 0
M  V30 3471 C 334.142 -1.09683 -1.61229 0
M  V30 3472 O 333.412 -0.170956 -1.95153 0
M  V30 3473 H 331.992 -0.729575 -0.160405 0
M  V30 3474 H 334.654 -1.92606 0.298155 0
M  V30 3475 H 333.75 -3.02672 -0.761312 0
M  V30 3476 N 334.051 0.0651679 -1.57465 0
M  V30 3477 C 334.998 1.07675 -2.04144 0
M  V30 3478 C 335.968 1.38071 -0.923335 0
M  V30 3479 O 337.153 1.49026 -1.19146 0
M  V30 3480 C 334.293 2.38337 -2.49579 0
M  V30 3481 C 333.406 2.14413 -3.75035 0
M  V30 3482 C 332.541 3.38686 -4.09225 0
M  V30 3483 C 331.58 3.10156 -5.27702 0
M  V30 3484 N 330.717 4.26778 -5.57499 0
M  V30 3485 H 335.557 0.671716 -2.90331 0
M  V30 3486 H 333.094 0.3201 -1.43575 0
M  V30 3487 H 335.052 3.14632 -2.73975 0
M  V30 3488 H 333.682 2.7663 -1.6636 0
M  V30 3489 H 332.734 1.2878 -3.57939 0
M  V30 3490 H 334.046 1.89344 -4.61466 0
M  V30 3491 H 333.2 4.23373 -4.34558 0
M  V30 3492 H 331.939 3.66837 -3.21374 0
M  V30 3493 H 330.944 2.23866 -5.02159 0
M  V30 3494 H 332.169 2.8332 -6.17176 0
M  V30 3495 H 330.115 4.54948 -4.72608 0
M  V30 3496 H 330.032 4.05005 -6.38362 0
M  V30 3497 H 331.3 5.12443 -5.87386 0
M  V30 3498 N 335.529 1.53961 0.336706 0
M  V30 3499 C 336.778 1.70751 1.07363 0
M  V30 3500 C 337.091 0.481061 1.89592 0
M  V30 3501 O 338.297 0.530046 2.66276 0
M  V30 3502 C 336.753 3.01965 1.95818 0
M  V30 3503 C 336.361 4.31971 1.18764 0
M  V30 3504 C 338.105 3.28121 2.69327 0
M  V30 3505 C 336.012 5.54255 2.06289 0
M  V30 3506 H 334.942 0.636292 0.404535 0
M  V30 3507 H 337.593 1.80459 0.332681 0
M  V30 3508 H 335.975 2.86132 2.7376 0
M  V30 3509 H 337.149 4.5853 0.456849 0
M  V30 3510 H 335.464 4.12481 0.569946 0
M  V30 3511 H 338.061 4.16673 3.35094 0
M  V30 3512 H 338.404 2.45426 3.36261 0
M  V30 3513 H 338.937 3.44762 1.98454 0
M  V30 3514 H 335.676 6.39513 1.43885 0
M  V30 3515 H 335.196 5.31935 2.77138 0
M  V30 3516 H 336.875 5.90159 2.65182 0
M  V30 3517 N 337.007 -0.598083 1.45811 0
M  V30 3518 C 337.954 -1.7082 1.55207 0
M  V30 3519 C 338.924 -1.61278 0.39732 0
M  V30 3520 O 340.109 -1.80717 0.612038 0
M  V30 3521 C 337.249 -3.09144 1.53376 0
M  V30 3522 C 336.362 -3.29423 2.79472 0
M  V30 3523 C 335.497 -4.57907 2.69248 0
M  V30 3524 C 334.536 -4.71476 3.90354 0
M  V30 3525 N 333.673 -5.9127 3.78608 0
M  V30 3526 H 338.513 -1.62125 2.50039 0
M  V30 3527 H 336.05 -0.790389 1.24062 0
M  V30 3528 H 338.008 -3.89186 1.50301 0
M  V30 3529 H 336.638 -3.16773 0.620876 0
M  V30 3530 H 335.69 -2.43091 2.92594 0
M  V30 3531 H 337.002 -3.3532 3.69272 0
M  V30 3532 H 336.156 -5.46157 2.64192 0
M  V30 3533 H 334.895 -4.54423 1.77063 0
M  V30 3534 H 333.9 -3.81648 3.95759 0
M  V30 3535 H 335.125 -4.76751 4.83617 0
M  V30 3536 H 333.071 -5.88813 2.89199 0
M  V30 3537 H 332.988 -5.98369 4.6205 0
M  V30 3538 H 334.256 -6.81992 3.77501 0
M  V30 3539 N 338.485 -1.33259 -0.841409 0
M  V30 3540 C 339.417 -1.19136 -1.95804 0
M  V30 3541 C 340.43 -0.122965 -1.62335 0
M  V30 3542 O 341.619 -0.373154 -1.74556 0
M  V30 3543 C 338.719 -0.804268 -3.29218 0
M  V30 3544 C 337.892 -1.96376 -3.90839 0
M  V30 3545 C 336.951 -1.55806 -5.02604 0
M  V30 3546 O 335.977 -2.27203 -5.21888 0
M  V30 3547 N 337.179 -0.461609 -5.78662 0
M  V30 3548 H 339.944 -2.15326 -2.08458 0
M  V30 3549 H 337.505 -1.25971 -1.017 0
M  V30 3550 H 339.497 -0.51501 -4.0141 0
M  V30 3551 H 338.067 0.0668809 -3.12528 0
M  V30 3552 H 337.287 -2.41879 -3.11269 0
M  V30 3553 H 338.575 -2.73966 -4.28742 0
M  V30 3554 H 337.973 0.132343 -5.65545 0
M  V30 3555 H 336.53 -0.232013 -6.51387 0
M  V30 3556 N 339.963 1.05934 -1.16686 0
M  V30 3557 C 341.209 1.79065 -0.95203 0
M  V30 3558 C 341.542 1.87147 0.518629 0
M  V30 3559 O 340.817 1.36574 1.38484 0
M  V30 3560 C 341.1 3.23359 -1.58464 0
M  V30 3561 C 340.953 3.23336 -3.12689 0
M  V30 3562 C 342.272 4.21004 -1.28232 0
M  V30 3563 H 339.391 0.65005 -0.34728 0
M  V30 3564 H 342.033 1.23868 -1.44072 0
M  V30 3565 H 340.183 3.70493 -1.16908 0
M  V30 3566 H 341.855 2.84336 -3.6325 0
M  V30 3567 H 340.098 2.61886 -3.4583 0
M  V30 3568 H 340.769 4.25144 -3.52075 0
M  V30 3569 H 343.245 3.8233 -1.64203 0
M  V30 3570 H 342.121 5.20225 -1.75092 0
M  V30 3571 H 342.382 4.41639 -0.201791 0
M  V30 3572 N 341.441 0.965919 1.2453 0
M  V30 3573 C 342.689 0.625593 1.92174 0
M  V30 3574 C 343.01 -0.841652 1.75901 0
M  V30 3575 O 342.28 -1.60061 1.12948 0
M  V30 3576 H 340.86 0.228388 0.71123 0
M  V30 3577 H 343.522 1.2266 1.51461 0
M  V30 3578 H 342.618 0.864653 2.99884 0
M  V30 3579 N 342.919 -1.39368 0.735821 0
M  V30 3580 C 344.168 -1.99733 0.281004 0
M  V30 3581 C 344.481 -1.59055 -1.13846 0
M  V30 3582 O 345.687 -2.12262 -1.69284 0
M  V30 3583 C 344.143 -3.57057 0.451462 0
M  V30 3584 C 343.751 -4.06697 1.87886 0
M  V30 3585 C 345.495 -4.2446 0.0584616 0
M  V30 3586 C 343.402 -5.56598 1.99883 0
M  V30 3587 H 342.332 -0.747163 0.101311 0
M  V30 3588 H 344.983 -1.59357 0.909819 0
M  V30 3589 H 343.365 -3.95234 -0.246263 0
M  V30 3590 H 344.539 -3.79853 2.60861 0
M  V30 3591 H 342.854 -3.5196 2.22515 0
M  V30 3592 H 345.451 -5.34549 0.127099 0
M  V30 3593 H 345.794 -4.04444 -0.986433 0
M  V30 3594 H 346.327 -3.9146 0.707374 0
M  V30 3595 H 343.066 -5.81494 3.02564 0
M  V30 3596 H 342.586 -5.85242 1.31346 0
M  V30 3597 H 344.265 -6.22022 1.78039 0
M  V30 3598 N 344.397 -0.483516 -1.5 0
M  V30 3599 C 345.646 0.0689102 -2.01582 0
M  V30 3600 C 345.959 1.39655 -1.36952 0
M  V30 3601 O 347.165 2.03465 -1.79762 0
M  V30 3602 C 345.621 0.173302 -3.59483 0
M  V30 3603 C 345.229 -1.14665 -4.33077 0
M  V30 3604 C 346.973 0.677024 -4.19066 0
M  V30 3605 C 344.88 -1.00537 -5.82792 0
M  V30 3606 H 343.81 0.0295277 -0.753422 0
M  V30 3607 H 346.461 -0.620295 -1.72698 0
M  V30 3608 H 344.843 0.926569 -3.85007 0
M  V30 3609 H 346.017 -1.91184 -4.19268 0
M  V30 3610 H 344.332 -1.58244 -3.85159 0
M  V30 3611 H 346.929 0.799952 -5.28682 0
M  V30 3612 H 347.272 1.67151 -3.81269 0
M  V30 3613 H 347.805 -0.0192083 -3.97795 0
M  V30 3614 H 344.544 -1.9736 -6.25083 0
M  V30 3615 H 344.064 -0.280776 -5.99142 0
M  V30 3616 H 345.743 -0.677 -6.43448 0
M  V30 3617 N 345.875 1.56104 -0.216619 0
M  V30 3618 C 347.115 2.00074 0.418322 0
M  V30 3619 C 347.479 1.10098 1.57297 0
M  V30 3620 O 348.68 1.43393 2.27359 0
M  V30 3621 C 346.951 3.47231 0.846477 0
M  V30 3622 S 348.51 4.13223 1.47622 0
M  V30 3623 H 345.328 0.698457 0.132962 0
M  V30 3624 H 347.93 1.92784 -0.324748 0
M  V30 3625 H 346.634 4.104 -0.0036319 0
M  V30 3626 H 346.165 3.58384 1.62248 0
M  V30 3627 H 348.18 4.12005 2.76526 0
M  V30 3628 N 347.353 -0.0568162 1.57498 0
M  V30 3629 C 348.601 -0.751617 1.87604 0
M  V30 3630 C 348.922 -1.77351 0.81066 0
M  V30 3631 O 348.192 -1.95254 -0.159018 0
M  V30 3632 H 346.772 -0.280583 0.692302 0
M  V30 3633 H 349.434 -0.0293483 1.94878 0
M  V30 3634 H 348.53 -1.25852 2.856 0
M  V30 3635 N 348.832 -1.54138 -0.328536 0
M  V30 3636 C 349.764 -1.79509 -1.4251 0
M  V30 3637 C 350.777 -0.67688 -1.48061 0
M  V30 3638 O 351.966 -0.953898 -1.50874 0
M  V30 3639 C 349.066 -1.89337 -2.81078 0
M  V30 3640 C 348.239 -3.19443 -2.98789 0
M  V30 3641 C 347.298 -3.20036 -4.17688 0
M  V30 3642 O 346.324 -3.93697 -4.11086 0
M  V30 3643 N 347.526 -2.43467 -5.26976 0
M  V30 3644 H 350.291 -2.74139 -1.21111 0
M  V30 3645 H 347.852 -1.53373 -0.518499 0
M  V30 3646 H 349.844 -1.87167 -3.58818 0
M  V30 3647 H 348.414 -1.01826 -2.95551 0
M  V30 3648 H 347.634 -3.34614 -2.08391 0
M  V30 3649 H 348.922 -4.05354 -3.07515 0
M  V30 3650 H 348.32 -1.83201 -5.35214 0
M  V30 3651 H 346.877 -2.4708 -6.03154 0
M  V30 3652 N 350.31 0.590341 -1.46126 0
M  V30 3653 C 351.22 1.72793 -1.58681 0
M  V30 3654 C 352.236 1.67516 -0.470566 0
M  V30 3655 O 353.412 1.87562 -0.733642 0
M  V30 3656 C 350.477 3.09287 -1.5666 0
M  V30 3657 C 349.538 3.25886 -2.79458 0
M  V30 3658 C 348.771 4.55869 -2.77524 0
M  V30 3659 O 348.994 5.3928 -1.85832 0
M  V30 3660 O 347.928 4.75552 -3.68964 0
M  V30 3661 H 351.754 1.65149 -2.54872 0
M  V30 3662 H 349.339 0.756486 -1.28832 0
M  V30 3663 H 351.221 3.90577 -1.58202 0
M  V30 3664 H 349.896 3.17385 -0.636271 0
M  V30 3665 H 348.803 2.44119 -2.83472 0
M  V30 3666 H 350.136 3.22675 -3.71674 0
M  V30 3667 N 351.788 1.33704 0.83433 0
M  V30 3668 C 353.013 1.28615 1.62705 0
M  V30 3669 C 353.438 -0.139242 1.87584 0
M  V30 3670 O 352.796 -1.09734 1.4432 0
M  V30 3671 C 352.844 2.07139 2.95171 0
M  V30 3672 O 351.948 1.4331 3.86699 0
M  V30 3673 H 351.289 0.44226 0.49528 0
M  V30 3674 H 353.819 1.76335 1.03766 0
M  V30 3675 H 353.829 2.18073 3.44831 0
M  V30 3676 H 352.504 3.10779 2.76386 0
M  V30 3677 H 351.081 1.4105 3.45195 0
M  V30 3678 N 353.266 -1.05314 1.17247 0
M  V30 3679 C 354.494 -1.81971 0.984593 0
M  V30 3680 C 354.909 -1.82929 -0.467166 0
M  V30 3681 O 354.266 -1.25564 -1.32438 0
M  V30 3682 C 354.317 -3.28143 1.51672 0
M  V30 3683 O 354.038 -3.27347 2.91163 0
M  V30 3684 C 355.539 -4.21493 1.37326 0
M  V30 3685 H 352.759 -0.573455 0.348411 0
M  V30 3686 H 355.303 -1.32808 1.55506 0
M  V30 3687 H 353.458 -3.74582 0.988302 0
M  V30 3688 H 353.872 -4.18824 3.15732 0
M  V30 3689 H 355.346 -5.22043 1.79375 0
M  V30 3690 H 355.823 -4.38031 0.320169 0
M  V30 3691 H 356.429 -3.80909 1.89178 0
M  V30 3692 N 354.744 -0.972509 -1.24016 0
M  V30 3693 C 356.16 -0.679827 -1.44397 0
M  V30 3694 C 356.36 0.756716 -1.86751 0
M  V30 3695 O 355.416 1.53007 -2.00861 0
M  V30 3696 C 356.729 -1.66803 -2.50195 0
M  V30 3697 C 358.277 -1.68119 -2.64017 0
M  V30 3698 C 358.752 -2.65748 -3.73017 0
M  V30 3699 N 360.243 -2.64219 -3.8045 0
M  V30 3700 C 360.978 -3.36433 -4.64328 0
M  V30 3701 N 360.474 -4.1818 -5.52356 0
M  V30 3702 N 362.267 -3.25235 -4.58453 0
M  V30 3703 H 354.418 -1.90059 -0.948228 0
M  V30 3704 H 356.681 -0.818527 -0.478245 0
M  V30 3705 H 356.387 -2.69498 -2.25973 0
M  V30 3706 H 356.261 -1.4446 -3.48441 0
M  V30 3707 H 358.648 -0.661319 -2.87594 0
M  V30 3708 H 358.729 -1.94525 -1.66113 0
M  V30 3709 H 358.373 -3.67872 -3.50189 0
M  V30 3710 H 358.303 -2.36619 -4.70446 0
M  V30 3711 H 360.794 -2.04887 -3.17537 0
M  V30 3712 H 361.107 -4.70157 -6.13329 0
M  V30 3713 H 359.452 -4.22273 -5.52006 0
M  V30 3714 H 362.643 -2.60829 -3.88698 0
M  V30 3715 H 362.816 -3.81776 -5.23594 0
M  V30 3716 N 356.222 1.38976 -0.743202 0
M  V30 3717 C 357.638 1.53984 -0.419664 0
M  V30 3718 C 357.838 1.70837 1.0685 0
M  V30 3719 O 356.894 1.7135 1.8546 0
M  V30 3720 C 358.207 2.75287 -1.20985 0
M  V30 3721 C 359.755 2.89129 -1.19889 0
M  V30 3722 C 360.23 4.13381 -1.97181 0
M  V30 3723 N 361.721 4.20437 -1.94389 0
M  V30 3724 C 362.456 5.15547 -2.50996 0
M  V30 3725 N 361.952 6.16395 -3.16274 0
M  V30 3726 N 363.745 5.07822 -2.40984 0
M  V30 3727 H 355.896 1.26285 -1.7078 0
M  V30 3728 H 358.159 0.612689 -0.723406 0
M  V30 3729 H 357.865 2.69204 -2.26323 0
M  V30 3730 H 357.739 3.68184 -0.819759 0
M  V30 3731 H 360.126 2.947 -0.153606 0
M  V30 3732 H 360.207 1.97272 -1.62841 0
M  V30 3733 H 359.851 4.08572 -3.01714 0
M  V30 3734 H 359.781 5.04298 -1.51629 0
M  V30 3735 H 362.272 3.48205 -1.46839 0
M  V30 3736 H 362.585 6.85443 -3.56915 0
M  V30 3737 H 360.93 6.16758 -3.20367 0
M  V30 3738 H 364.121 4.27973 -1.89622 0
M  V30 3739 H 364.294 5.81767 -2.85397 0
M  V30 3740 N 357.7 0.491464 1.49741 0
M  V30 3741 C 358.949 -0.0582189 2.01616 0
M  V30 3742 C 359.262 -1.38927 1.3769 0
M  V30 3743 O 360.468 -2.02509 1.80838 0
M  V30 3744 C 358.924 -0.154235 3.59569 0
M  V30 3745 C 358.532 1.1696 4.32463 0
M  V30 3746 C 360.276 -0.65479 4.1942 0
M  V30 3747 C 358.183 1.03627 5.8225 0
M  V30 3748 H 357.113 -0.0255317 0.753568 0
M  V30 3749 H 359.764 0.629445 1.72367 0
M  V30 3750 H 358.146 -0.906138 3.85493 0
M  V30 3751 H 359.32 1.93405 4.18248 0
M  V30 3752 H 357.635 1.60285 3.84315 0
M  V30 3753 H 360.232 -0.771903 5.29099 0
M  V30 3754 H 360.575 -1.65127 3.8215 0
M  V30 3755 H 361.108 0.040304 3.9778 0
M  V30 3756 H 357.847 2.00672 6.24028 0
M  V30 3757 H 357.367 0.312546 5.98985 0
M  V30 3758 H 359.046 0.711114 6.4308 0
M  V30 3759 N 359.178 -1.55987 0.224894 0
M  V30 3760 C 360.426 -1.97998 -0.405099 0
M  V30 3761 C 360.747 -1.11387 -1.60056 0
M  V30 3762 O 360.017 -0.191645 -1.9496 0
M  V30 3763 H 358.597 -0.731235 -0.152658 0
M  V30 3764 H 361.259 -1.92279 0.318567 0
M  V30 3765 H 360.355 -3.03463 -0.729167 0
M  V30 3766 N 360.656 0.0484629 -1.57525 0
M  V30 3767 C 361.933 0.777447 -1.79486 0
M  V30 3768 C 362.313 1.94597 -0.818251 0
M  V30 3769 O 361.661 2.28047 0.143767 0
M  V30 3770 C 361.871 1.22864 -3.26658 0
M  V30 3771 C 363.219 1.65251 -3.91123 0
M  V30 3772 O 364.243 1.32372 -3.3069 0
M  V30 3773 O 363.102 2.26207 -4.97486 0
M  V30 3774 H 360.196 0.374357 -0.737419 0
M  V30 3775 H 362.742 0.0267359 -1.69679 0
M  V30 3776 H 361.514 0.393589 -3.89316 0
M  V30 3777 H 361.137 2.03996 -3.41279 0
M  V30 3778 N 362.134 1.5431 0.320358 0
M  V30 3779 C 363.364 1.7638 1.07582 0
M  V30 3780 C 363.772 0.513944 1.82086 0
M  V30 3781 O 363.115 -0.525123 1.76035 0
M  V30 3782 C 363.177 2.9055 2.1171 0
M  V30 3783 C 362.841 4.2934 1.56575 0
M  V30 3784 C 363.838 5.10077 1.00586 0
M  V30 3785 C 361.523 4.75893 1.60722 0
M  V30 3786 C 363.517 6.35477 0.494756 0
M  V30 3787 C 361.204 6.0126 1.09224 0
M  V30 3788 C 362.202 6.80886 0.53696 0
M  V30 3789 O 361.89 8.03894 0.0297371 0
M  V30 3790 H 361.622 0.592369 0.325692 0
M  V30 3791 H 364.176 2.02019 0.37116 0
M  V30 3792 H 362.406 2.60489 2.85801 0
M  V30 3793 H 364.095 3.00373 2.73003 0
M  V30 3794 H 364.861 4.75265 0.966869 0
M  V30 3795 H 360.74 4.13957 2.02882 0
M  V30 3796 H 364.284 6.97574 0.0606842 0
M  V30 3797 H 360.181 6.35562 1.12831 0
M  V30 3798 H 360.949 8.18372 0.14486 0
M  V30 3799 N 363.613 -0.582584 1.46437 0
M  V30 3800 C 364.56 -1.69164 1.5701 0
M  V30 3801 C 365.53 -1.60847 0.414403 0
M  V30 3802 O 366.715 -1.80058 0.631171 0
M  V30 3803 C 363.855 -3.075 1.56646 0
M  V30 3804 C 362.968 -3.2644 2.82951 0
M  V30 3805 C 362.103 -4.55026 2.7409 0
M  V30 3806 C 361.142 -4.6731 3.95333 0
M  V30 3807 N 360.279 -5.87221 3.84858 0
M  V30 3808 H 365.119 -1.59464 2.51744 0
M  V30 3809 H 362.656 -0.777186 1.24893 0
M  V30 3810 H 364.614 -3.8757 1.5442 0
M  V30 3811 H 363.244 -3.16096 0.654439 0
M  V30 3812 H 362.296 -2.39974 2.95155 0
M  V30 3813 H 363.608 -3.31385 3.72808 0
M  V30 3814 H 362.762 -5.43324 2.6997 0
M  V30 3815 H 361.501 -4.52519 1.81873 0
M  V30 3816 H 360.506 -3.77429 3.99784 0
M  V30 3817 H 361.731 -4.71595 4.88646 0
M  V30 3818 H 359.677 -5.85712 2.95427 0
M  V30 3819 H 359.594 -5.93435 4.6837 0
M  V30 3820 H 360.862 -6.7795 3.84713 0
M  V30 3821 N 365.091 -1.34144 -0.827227 0
M  V30 3822 C 366.337 -1.26446 -1.58554 0
M  V30 3823 C 366.67 0.1664 -1.93486 0
M  V30 3824 O 365.945 1.1107 -1.59667 0
M  V30 3825 C 366.228 -2.15111 -2.8879 0
M  V30 3826 C 366.081 -3.66712 -2.60465 0
M  V30 3827 C 367.4 -2.03311 -3.90324 0
M  V30 3828 H 364.519 -0.46067 -0.575284 0
M  V30 3829 H 367.161 -1.64356 -0.953269 0
M  V30 3830 H 365.311 -1.8291 -3.42748 0
M  V30 3831 H 366.983 -4.09259 -2.1285 0
M  V30 3832 H 365.226 -3.88014 -1.93978 0
M  V30 3833 H 365.897 -4.24112 -3.53317 0
M  V30 3834 H 368.373 -2.31574 -3.45706 0
M  V30 3835 H 367.249 -2.67582 -4.79261 0
M  V30 3836 H 367.51 -1.00879 -4.30437 0
M  V30 3837 N 366.569 1.04691 -1.17803 0
M  V30 3838 C 367.516 2.12557 -0.899343 0
M  V30 3839 C 368.486 1.65339 0.158771 0
M  V30 3840 O 369.671 1.90789 0.0204797 0
M  V30 3841 C 366.811 3.42481 -0.424315 0
M  V30 3842 C 365.924 4.03346 -1.54713 0
M  V30 3843 C 365.059 5.21208 -1.02546 0
M  V30 3844 C 364.098 5.74089 -2.12339 0
M  V30 3845 N 363.235 6.83247 -1.61612 0
M  V30 3846 H 368.075 2.35734 -1.823 0
M  V30 3847 H 365.612 1.1564 -0.909159 0
M  V30 3848 H 367.57 4.16996 -0.130421 0
M  V30 3849 H 366.2 3.19471 0.462377 0
M  V30 3850 H 365.252 3.2622 -1.95664 0
M  V30 3851 H 366.564 4.38628 -2.37501 0
M  V30 3852 H 365.718 6.02812 -0.685718 0
M  V30 3853 H 364.457 4.87414 -0.167084 0
M  V30 3854 H 363.462 4.91111 -2.47165 0
M  V30 3855 H 364.687 6.0993 -2.98601 0
M  V30 3856 H 362.633 6.5134 -0.780533 0
M  V30 3857 H 362.55 7.17559 -2.38003 0
M  V30 3858 H 363.818 7.68491 -1.30545 0
M  V30 3859 N 368.047 0.979072 1.23499 0
M  V30 3860 C 369.277 0.664237 1.95631 0
M  V30 3861 C 369.685 -0.772653 1.72704 0
M  V30 3862 O 369.028 -1.53141 1.01457 0
M  V30 3863 C 369.09 0.873115 3.48736 0
M  V30 3864 C 368.754 2.29182 3.95379 0
M  V30 3865 C 369.751 3.2704 4.04155 0
M  V30 3866 C 367.436 2.62256 4.28401 0
M  V30 3867 C 369.43 4.56052 4.45304 0
M  V30 3868 C 367.117 3.91491 4.69231 0
M  V30 3869 C 368.115 4.88201 4.77649 0
M  V30 3870 O 367.803 6.15129 5.17563 0
M  V30 3871 H 367.535 0.245915 0.629684 0
M  V30 3872 H 370.089 1.3127 1.57979 0
M  V30 3873 H 368.319 0.167476 3.86337 0
M  V30 3874 H 370.008 0.555642 4.02079 0
M  V30 3875 H 370.774 3.02819 3.78848 0
M  V30 3876 H 366.653 1.87692 4.21061 0
M  V30 3877 H 370.197 5.31538 4.51789 0
M  V30 3878 H 366.094 4.15508 4.93987 0
M  V30 3879 H 366.862 6.18862 5.35679 0
M  V30 3880 N 369.525 -1.3858 0.750561 0
M  V30 3881 C 370.773 -1.99789 0.30477 0
M  V30 3882 C 371.094 -1.59874 -1.11649 0
M  V30 3883 O 370.364 -0.85417 -1.76297 0
M  V30 3884 H 368.944 -0.738902 0.109694 0
M  V30 3885 H 371.606 -1.69391 0.963983 0
M  V30 3886 H 370.702 -3.09952 0.365499 0
M  V30 3887 N 371.003 -0.499398 -1.49478 0
M  V30 3888 C 372.233 0.0424839 -2.06556 0
M  V30 3889 C 372.641 1.31514 -1.36018 0
M  V30 3890 O 371.984 1.78555 -0.431718 0
M  V30 3891 C 372.046 0.368074 -3.57611 0
M  V30 3892 C 371.71 -0.806631 -4.49825 0
M  V30 3893 C 372.707 -1.69667 -4.91436 0
M  V30 3894 C 370.392 -1.00498 -4.92144 0
M  V30 3895 C 372.386 -2.76923 -5.74101 0
M  V30 3896 C 370.073 -2.08072 -5.74586 0
M  V30 3897 C 371.071 -2.96119 -6.15469 0
M  V30 3898 O 370.759 -4.01836 -6.96264 0
M  V30 3899 H 370.491 -0.0165165 -0.675798 0
M  V30 3900 H 373.045 -0.695497 -1.93267 0
M  V30 3901 H 371.275 1.15963 -3.68903 0
M  V30 3902 H 372.964 0.848381 -3.96935 0
M  V30 3903 H 373.73 -1.55524 -4.59388 0
M  V30 3904 H 369.609 -0.329036 -4.59824 0
M  V30 3905 H 373.153 -3.45676 -6.05932 0
M  V30 3906 H 369.05 -2.22211 -6.06047 0
M  V30 3907 H 369.818 -3.9917 -7.14567 0
M  V30 3908 N 372.481 1.55866 -0.233164 0
M  V30 3909 C 373.709 2.02998 0.399905 0
M  V30 3910 C 374.124 1.11274 1.52524 0
M  V30 3911 O 373.481 0.124528 1.82075 0
M  V30 3912 C 373.532 3.4958 0.920639 0
M  V30 3913 O 373.253 4.37808 -0.159834 0
M  V30 3914 C 374.754 4.12411 1.62578 0
M  V30 3915 H 371.974 0.664006 0.0966281 0
M  V30 3916 H 374.518 2.0143 -0.353013 0
M  V30 3917 H 372.673 3.51727 1.62379 0
M  V30 3918 H 373.087 5.23981 0.23337 0
M  V30 3919 H 374.561 5.16711 1.94201 0
M  V30 3920 H 375.038 3.5809 2.54299 0
M  V30 3921 H 375.644 4.14148 0.967553 0
M  V30 3922 N 373.959 -0.0401083 1.57549 0
M  V30 3923 C 375.236 -0.767917 1.79896 0
M  V30 3924 C 375.616 -1.9416 0.82856 0
M  V30 3925 O 374.964 -2.2812 -0.131671 0
M  V30 3926 C 375.174 -1.2113 3.27305 0
M  V30 3927 C 376.522 -1.63175 3.91994 0
M  V30 3928 O 377.546 -1.30616 3.31388 0
M  V30 3929 O 376.405 -2.23565 4.98679 0
M  V30 3930 H 373.499 -0.370441 0.739393 0
M  V30 3931 H 376.045 -0.017737 1.69691 0
M  V30 3932 H 374.817 -0.372937 3.89519 0
M  V30 3933 H 374.44 -2.02183 3.42356 0
M  V30 3934 N 375.437 -1.54477 -0.31217 0
M  V30 3935 C 376.686 -1.72438 -1.04633 0
M  V30 3936 C 376.999 -0.511163 -1.88803 0
M  V30 3937 O 378.205 -0.572341 -2.65399 0
M  V30 3938 C 376.661 -3.05043 -1.9099 0
M  V30 3939 C 376.269 -4.33806 -1.11877 0
M  V30 3940 C 378.013 -3.32364 -2.64073 0
M  V30 3941 C 375.92 -5.57467 -1.97445 0
M  V30 3942 H 374.85 -0.642647 -0.394361 0
M  V30 3943 H 377.501 -1.80966 -0.303929 0
M  V30 3944 H 375.883 -2.90451 -2.69173 0
M  V30 3945 H 377.057 -4.59199 -0.383843 0
M  V30 3946 H 375.372 -4.13336 -0.504252 0
M  V30 3947 H 377.969 -4.21951 -3.28423 0
M  V30 3948 H 378.312 -2.50745 -3.32314 0
M  V30 3949 H 378.845 -3.47875 -1.92944 0
M  V30 3950 H 375.584 -6.41722 -1.33692 0
M  V30 3951 H 375.104 -5.36277 -2.6864 0
M  V30 3952 H 376.783 -5.94303 -2.5576 0
M  V30 3953 N 376.915 0.57481 -1.46744 0
M  V30 3954 C 378.192 1.3352 -1.4294 0
M  V30 3955 C 378.572 2.10775 -0.117009 0
M  V30 3956 O 377.92 2.09966 0.901474 0
M  V30 3957 C 378.13 2.25456 -2.66403 0
M  V30 3958 C 379.478 2.87035 -3.12883 0
M  V30 3959 O 380.502 2.35766 -2.67007 0
M  V30 3960 O 379.361 3.80179 -3.92589 0
M  V30 3961 H 376.455 0.600318 -0.568812 0
M  V30 3962 H 379.001 0.595171 -1.58921 0
M  V30 3963 H 377.773 1.67851 -3.53471 0
M  V30 3964 H 377.396 3.06785 -2.52921 0
M  V30 3965 N 378.394 1.34581 0.820102 0
M  V30 3966 C 379.324 1.29038 1.94606 0
M  V30 3967 C 380.305 0.1673 1.69275 0
M  V30 3968 O 381.49 0.360112 1.90832 0
M  V30 3969 C 378.62 1.04793 3.31113 0
M  V30 3970 C 377.574 2.13597 3.70891 0
M  V30 3971 C 376.9 1.74537 5.05412 0
M  V30 3972 C 378.2 3.55451 3.8269 0
M  V30 3973 H 379.894 2.23248 1.99501 0
M  V30 3974 H 377.44 1.0747 0.958449 0
M  V30 3975 H 379.393 0.995592 4.0947 0
M  V30 3976 H 378.117 0.0702565 3.26524 0
M  V30 3977 H 376.776 2.17905 2.9481 0
M  V30 3978 H 376.424 0.754226 4.97313 0
M  V30 3979 H 376.124 2.47361 5.32997 0
M  V30 3980 H 377.648 1.70803 5.86224 0
M  V30 3981 H 379.062 3.5354 4.51312 0
M  V30 3982 H 377.459 4.26922 4.21732 0
M  V30 3983 H 378.529 3.92587 2.84611 0
M  V30 3984 N 379.872 -1.04064 1.18357 0
M  V30 3985 C 380.802 -2.14001 0.934113 0
M  V30 3986 C 381.783 -1.69616 -0.128186 0
M  V30 3987 O 382.968 -1.94185 0.0244093 0
M  V30 3988 C 380.098 -3.44253 0.459066 0
M  V30 3989 C 379.052 -4.02261 1.46185 0
M  V30 3990 C 378.378 -5.27992 0.844322 0
M  V30 3991 C 379.678 -4.38432 2.83856 0
M  V30 3992 H 381.372 -2.35127 1.85352 0
M  V30 3993 H 378.918 -1.12998 0.892604 0
M  V30 3994 H 380.871 -4.20522 0.271907 0
M  V30 3995 H 379.595 -3.22813 -0.495912 0
M  V30 3996 H 378.254 -3.28074 1.63595 0
M  V30 3997 H 377.902 -5.02862 -0.117845 0
M  V30 3998 H 377.602 -5.67765 1.51384 0
M  V30 3999 H 379.126 -6.06938 0.667693 0
M  V30 4000 H 380.54 -5.05688 2.70098 0
M  V30 4001 H 378.937 -4.89254 3.47491 0
M  V30 4002 H 380.007 -3.4826 3.37406 0
M  V30 4003 N 381.35 -0.985608 -1.22978 0
M  V30 4004 C 382.575 -0.675254 -1.961 0
M  V30 4005 C 383 0.752154 -1.72407 0
M  V30 4006 O 382.358 1.5131 -0.998751 0
M  V30 4007 C 382.406 -0.977899 -3.47087 0
M  V30 4008 O 381.51 -0.072685 -4.12336 0
M  V30 4009 H 380.851 -0.253443 -0.613728 0
M  V30 4010 H 383.381 -1.32061 -1.56272 0
M  V30 4011 H 383.391 -0.916739 -3.97567 0
M  V30 4012 H 382.066 -2.01807 -3.63657 0
M  V30 4013 H 380.643 -0.188703 -3.72422 0
M  V30 4014 N 382.828 1.3818 -0.7579 0
M  V30 4015 C 383.791 2.28764 -0.141286 0
M  V30 4016 C 384.791 1.47388 0.642907 0
M  V30 4017 O 385.981 1.67781 0.468536 0
M  V30 4018 C 383.113 3.31184 0.808069 0
M  V30 4019 H 384.306 2.848 -0.939633 0
M  V30 4020 H 381.859 1.47212 -0.525191 0
M  V30 4021 H 382.594 2.80247 1.63193 0
M  V30 4022 H 382.379 3.91314 0.248104 0
M  V30 4023 H 383.869 3.98909 1.23536 0
M  V30 4024 N 384.306 0.507319 1.49211 0
M  V30 4025 C 385.269 -0.256763 2.27757 0
M  V30 4026 C 386.269 -0.888287 1.34038 0
M  V30 4027 O 387.459 -0.751841 1.5714 0
M  V30 4028 C 384.591 -1.36905 3.12202 0
M  V30 4029 H 385.784 0.432557 2.96764 0
M  V30 4030 H 383.337 0.262488 1.5408 0
M  V30 4031 H 384.072 -2.09233 2.47775 0
M  V30 4032 H 383.857 -0.921599 3.81115 0
M  V30 4033 H 385.347 -1.9071 3.7151 0
M  V30 4034 N 385.784 -1.5574 0.241426 0
M  V30 4035 C 386.731 -2.21149 -0.660432 0
M  V30 4036 C 387.701 -1.17356 -1.17545 0
M  V30 4037 O 388.886 -1.45784 -1.23093 0
M  V30 4038 C 386.026 -2.91059 -1.85414 0
M  V30 4039 C 385.139 -4.09495 -1.37616 0
M  V30 4040 C 384.274 -4.67135 -2.529 0
M  V30 4041 C 383.313 -5.77831 -2.01936 0
M  V30 4042 N 382.45 -6.29677 -3.10566 0
M  V30 4043 H 387.29 -2.97845 -0.095955 0
M  V30 4044 H 384.827 -1.47057 -0.0356024 0
M  V30 4045 H 386.785 -3.29788 -2.5553 0
M  V30 4046 H 385.415 -2.16846 -2.39118 0
M  V30 4047 H 384.467 -3.76117 -0.569235 0
M  V30 4048 H 385.779 -4.89423 -0.962618 0
M  V30 4049 H 384.933 -5.08409 -3.31067 0
M  V30 4050 H 383.672 -3.86411 -2.97553 0
M  V30 4051 H 382.677 -5.36039 -1.22238 0
M  V30 4052 H 383.902 -6.60402 -1.58259 0
M  V30 4053 H 381.848 -5.5186 -3.54664 0
M  V30 4054 H 381.765 -7.04783 -2.73526 0
M  V30 4055 H 383.033 -6.75609 -3.88809 0
M  V30 4056 N 387.262 0.0317525 -1.57568 0
M  V30 4057 C 388.487 0.738664 -1.938 0
M  V30 4058 C 388.912 1.68242 -0.841208 0
M  V30 4059 O 388.27 1.80157 0.203267 0
M  V30 4060 C 388.318 1.47417 -3.29091 0
M  V30 4061 O 387.422 2.5872 -3.2115 0
M  V30 4062 H 386.763 0.198856 -0.633524 0
M  V30 4063 H 389.293 -0.0119713 -2.04596 0
M  V30 4064 H 389.303 1.84468 -3.63917 0
M  V30 4065 H 387.978 0.781988 -4.08482 0
M  V30 4066 H 386.555 2.24231 -2.97951 0
M  V30 4067 N 388.74 1.54641 0.303973 0
M  V30 4068 C 389.687 1.85386 1.37479 0
M  V30 4069 C 390.657 0.702528 1.50512 0
M  V30 4070 O 391.842 0.950867 1.65418 0
M  V30 4071 C 388.982 2.10413 2.73533 0
M  V30 4072 C 388.095 3.38049 2.68974 0
M  V30 4073 C 387.23 3.52934 3.97002 0
M  V30 4074 C 386.269 4.74373 3.86829 0
M  V30 4075 N 385.406 4.8608 5.06627 0
M  V30 4076 H 390.246 2.76732 1.1056 0
M  V30 4077 H 387.783 1.37034 0.534805 0
M  V30 4078 H 389.741 2.22919 3.52652 0
M  V30 4079 H 388.371 1.22338 2.98719 0
M  V30 4080 H 387.423 3.3418 1.81736 0
M  V30 4081 H 388.735 4.27288 2.57346 0
M  V30 4082 H 387.889 3.65088 4.84557 0
M  V30 4083 H 386.628 2.61824 4.1146 0
M  V30 4084 H 385.633 4.62255 2.97658 0
M  V30 4085 H 386.858 5.66888 3.73918 0
M  V30 4086 H 384.804 3.97891 5.21554 0
M  V30 4087 H 384.721 5.69315 4.9741 0
M  V30 4088 H 385.989 5.02587 5.95841 0
M  V30 4089 N 390.218 -0.567019 1.47046 0
M  V30 4090 C 391.629 -1.14916 1.47143 0
M  V30 4091 C 391.98 -1.94954 0.220767 0
M  V30 4092 O 391.105 -2.05602 -0.67505 0
M  V30 4093 C 391.7 -2.09069 2.666 0
M  V30 4094 C 390.259 -2.62575 2.69687 0
M  V30 4095 C 389.406 -1.38755 2.40088 0
M  V30 4096 H 392.357 -0.354126 1.54699 0
M  V30 4097 H 392.378 -2.92789 2.43011 0
M  V30 4098 H 391.89 -1.50789 3.57609 0
M  V30 4099 H 389.991 -3.24681 1.82792 0
M  V30 4100 H 390.104 -3.04239 3.70102 0
M  V30 4101 H 388.468 -1.69098 1.90468 0
M  V30 4102 H 389.251 -0.822822 3.33293 0
M  V30 4103 N 391.696 -1.35014 -0.812953 0
M  V30 4104 C 392.945 -1.27269 -1.56479 0
M  V30 4105 C 393.258 0.152771 -1.95002 0
M  V30 4106 O 394.464 0.352451 -2.69203 0
M  V30 4107 C 392.92 -2.23159 -2.82362 0
M  V30 4108 C 392.528 -3.71016 -2.511 0
M  V30 4109 C 394.272 -2.24342 -3.60376 0
M  V30 4110 C 392.179 -4.58746 -3.73237 0
M  V30 4111 H 391.109 -0.472829 -0.587324 0
M  V30 4112 H 393.76 -1.6024 -0.894171 0
M  V30 4113 H 392.142 -1.83151 -3.51101 0
M  V30 4114 H 393.316 -4.1962 -1.90409 0
M  V30 4115 H 391.631 -3.72378 -1.86343 0
M  V30 4116 H 394.228 -2.87107 -4.51081 0
M  V30 4117 H 394.571 -1.24542 -3.97234 0
M  V30 4118 H 395.104 -2.62846 -2.98591 0
M  V30 4119 H 391.843 -5.59521 -3.41492 0
M  V30 4120 H 391.363 -4.14871 -4.33176 0
M  V30 4121 H 393.042 -4.73852 -4.40537 0
M  V30 4122 N 393.175 1.03435 -1.18907 0
M  V30 4123 C 394.424 1.76143 -0.982669 0
M  V30 4124 C 394.737 1.89416 0.487953 0
M  V30 4125 O 395.943 2.59041 0.813036 0
M  V30 4126 C 394.399 3.16722 -1.70924 0
M  V30 4127 C 394.007 3.11522 -3.21959 0
M  V30 4128 C 395.751 3.93764 -1.58588 0
M  V30 4129 C 393.658 4.46999 -3.87228 0
M  V30 4130 H 392.588 0.660292 -0.364047 0
M  V30 4131 H 395.239 1.158 -1.42347 0
M  V30 4132 H 393.621 3.775 -1.19623 0
M  V30 4133 H 394.795 2.60158 -3.80335 0
M  V30 4134 H 393.11 2.47978 -3.34508 0
M  V30 4135 H 395.707 4.93963 -2.04707 0
M  V30 4136 H 396.05 4.12794 -0.539142 0
M  V30 4137 H 396.583 3.39576 -2.07203 0
M  V30 4138 H 393.322 4.33174 -4.91976 0
M  V30 4139 H 392.842 4.98441 -3.33642 0
M  V30 4140 H 394.521 5.15898 -3.90459 0
M  V30 4141 N 394.653 0.992116 1.22453 0
M  V30 4142 C 395.616 0.546883 2.2258 0
M  V30 4143 C 396.616 -0.369829 1.56489 0
M  V30 4144 O 397.806 -0.161896 1.73446 0
M  V30 4145 C 394.938 -0.204659 3.40285 0
M  V30 4146 H 396.131 1.43234 2.63484 0
M  V30 4147 H 393.684 0.779239 1.3549 0
M  V30 4148 H 394.419 -1.10614 3.04853 0
M  V30 4149 H 394.204 0.45354 3.89468 0
M  V30 4150 H 395.694 -0.504358 4.14543 0
M  V30 4151 N 396.131 -1.37776 0.765217 0
M  V30 4152 C 397.041 -2.34135 0.147666 0
M  V30 4153 C 398.057 -1.59854 -0.687215 0
M  V30 4154 O 399.233 -1.91983 -0.608659 0
M  V30 4155 C 396.298 -3.3901 -0.72617 0
M  V30 4156 C 395.359 -4.2912 0.124417 0
M  V30 4157 C 394.592 -5.28986 -0.707807 0
M  V30 4158 O 394.815 -5.36205 -1.94525 0
M  V30 4159 O 393.749 -6.01779 -0.12046 0
M  V30 4160 H 397.575 -2.88664 0.943758 0
M  V30 4161 H 395.16 -1.39824 0.526277 0
M  V30 4162 H 397.042 -4.03195 -1.22524 0
M  V30 4163 H 395.717 -2.86819 -1.50056 0
M  V30 4164 H 394.624 -3.68057 0.669696 0
M  V30 4165 H 395.957 -4.84598 0.861736 0
M  V30 4166 N 397.609 -0.515225 -1.4894 0
M  V30 4167 C 399.02 -0.0710067 -1.86565 0
M  V30 4168 C 399.371 1.34733 -1.42623 0
M  V30 4169 O 398.496 2.00653 -0.810379 0
M  V30 4170 C 399.091 -0.122083 -3.3858 0
M  V30 4171 C 397.65 0.266863 -3.75453 0
M  V30 4172 C 396.797 -0.488376 -2.72966 0
M  V30 4173 H 399.748 -0.727266 -1.41055 0
M  V30 4174 H 399.769 0.669818 -3.74558 0
M  V30 4175 H 399.281 -1.15448 -3.70531 0
M  V30 4176 H 397.382 1.30196 -3.49113 0
M  V30 4177 H 397.495 -0.0624811 -4.79059 0
M  V30 4178 H 395.859 0.0635622 -2.54621 0
M  V30 4179 H 396.642 -1.52113 -3.07761 0
M  V30 4180 N 399.087 1.5561 -0.249682 0
M  V30 4181 C 399.997 2.25143 0.659375 0
M  V30 4182 C 401.013 1.2685 1.19101 0
M  V30 4183 O 402.189 1.59732 1.22669 0
M  V30 4184 C 399.254 2.93945 1.8384 0
M  V30 4185 C 398.315 4.07655 1.34596 0
M  V30 4186 C 397.548 4.73167 2.46878 0
M  V30 4187 O 397.771 4.37768 3.65671 0
M  V30 4188 O 396.705 5.61623 2.16478 0
M  V30 4189 H 400.531 3.03545 0.0968698 0
M  V30 4190 H 398.116 1.49389 -0.018074 0
M  V30 4191 H 399.998 3.37271 2.52638 0
M  V30 4192 H 398.673 2.18481 2.38847 0
M  V30 4193 H 397.58 3.68839 0.625174 0
M  V30 4194 H 398.913 4.84946 0.841941 0
M  V30 4195 N 400.565 -0.0233959 1.57583 0
M  V30 4196 C 401.814 -0.712133 1.8871 0
M  V30 4197 C 402.127 -1.76217 0.848944 0
M  V30 4198 O 403.333 -2.50389 1.04964 0
M  V30 4199 C 401.789 -1.3177 3.3491 0
M  V30 4200 C 401.397 -0.303715 4.46969 0
M  V30 4201 C 403.141 -1.98598 3.75179 0
M  V30 4202 C 401.048 -0.917945 5.84233 0
M  V30 4203 H 399.978 -0.269735 0.704101 0
M  V30 4204 H 402.629 0.0333114 1.8347 0
M  V30 4205 H 401.011 -2.11304 3.34913 0
M  V30 4206 H 402.185 0.465325 4.58445 0
M  V30 4207 H 400.5 0.2628 4.1557 0
M  V30 4208 H 403.097 -2.45416 4.75053 0
M  V30 4209 H 403.44 -2.80659 3.07468 0
M  V30 4210 H 403.973 -1.25831 3.77374 0
M  V30 4211 H 400.712 -0.136633 6.55358 0
M  V30 4212 H 400.232 -1.65669 5.76467 0
M  V30 4213 H 401.911 -1.4236 6.31144 0
M  V30 4214 N 402.043 -1.548 -0.295768 0
M  V30 4215 C 402.993 -1.82497 -1.3667 0
M  V30 4216 C 403.977 -0.682434 -1.45711 0
M  V30 4217 O 405.169 -0.943207 -1.49775 0
M  V30 4218 C 402.298 -2.08036 -2.73086 0
M  V30 4219 C 401.384 -3.28488 -2.68247 0
M  V30 4220 N 401.775 -4.48924 -2.33025 0
M  V30 4221 C 400.073 -3.3062 -2.99343 0
M  V30 4222 C 400.774 -5.30956 -2.37613 0
M  V30 4223 N 399.75 -4.68805 -2.75178 0
M  V30 4224 H 403.552 -2.73175 -1.0841 0
M  V30 4225 H 401.066 -1.5437 -0.504361 0
M  V30 4226 H 403.063 -2.26027 -3.5031 0
M  V30 4227 H 401.723 -1.18629 -3.02254 0
M  V30 4228 H 402.734 -4.75432 -2.05389 0
M  V30 4229 H 399.411 -2.51336 -3.33371 0
M  V30 4230 H 400.801 -6.37199 -2.13135 0
M  V30 4231 N 403.521 0.559213 -1.47345 0
M  V30 4232 C 404.769 1.31388 -1.53563 0
M  V30 4233 C 405.09 1.93985 -0.198678 0
M  V30 4234 O 404.36 1.79825 0.777167 0
M  V30 4235 H 402.94 0.487901 -0.565652 0
M  V30 4236 H 405.602 0.65315 -1.8363 0
M  V30 4237 H 404.698 2.10844 -2.30111 0
M  V30 4238 N 404.999 1.35443 0.805782 0
M  V30 4239 C 405.962 1.28301 1.89925 0
M  V30 4240 C 406.962 0.194285 1.59622 0
M  V30 4241 O 408.152 0.448036 1.6834 0
M  V30 4242 C 405.284 0.984997 3.2636 0
M  V30 4243 H 406.477 2.2553 1.97677 0
M  V30 4244 H 404.03 1.19979 1.00173 0
M  V30 4245 H 404.765 0.016603 3.24296 0
M  V30 4246 H 404.55 1.77269 3.4974 0
M  V30 4247 H 406.04 0.960651 4.064 0
M  V30 4248 N 406.477 -1.02803 1.19454 0
M  V30 4249 C 407.409 -2.11181 0.890807 0
M  V30 4250 C 408.422 -1.6238 -0.116829 0
M  V30 4251 O 409.611 -1.78144 0.112694 0
M  V30 4252 C 406.711 -3.37461 0.311942 0
M  V30 4253 C 405.884 -4.15446 1.36834 0
M  V30 4254 C 404.943 -5.20039 0.802864 0
M  V30 4255 O 403.969 -5.49602 1.48077 0
M  V30 4256 N 405.171 -5.79165 -0.393417 0
M  V30 4257 H 407.936 -2.37827 1.82369 0
M  V30 4258 H 405.497 -1.19101 1.09666 0
M  V30 4259 H 407.489 -4.0462 -0.0802225 0
M  V30 4260 H 406.059 -3.08156 -0.52524 0
M  V30 4261 H 405.279 -3.43423 1.93531 0
M  V30 4262 H 406.567 -4.64335 2.08015 0
M  V30 4263 H 405.965 -5.57466 -0.961658 0
M  V30 4264 H 404.522 -6.47729 -0.727351 0
M  V30 4265 N 407.956 -0.998596 -1.21925 0
M  V30 4266 C 409.367 -0.711939 -1.72593 0
M  V30 4267 C 409.718 0.770842 -1.80423 0
M  V30 4268 O 408.843 1.60237 -1.4544 0
M  V30 4269 C 409.438 -1.28567 -3.13458 0
M  V30 4270 C 407.997 -1.04828 -3.61508 0
M  V30 4271 C 407.144 -1.4024 -2.39224 0
M  V30 4272 H 410.095 -1.17027 -1.07193 0
M  V30 4273 H 410.116 -0.667098 -3.74607 0
M  V30 4274 H 409.628 -2.36486 -3.07727 0
M  V30 4275 H 407.729 0.0140383 -3.72597 0
M  V30 4276 H 407.842 -1.71566 -4.47328 0
M  V30 4277 H 406.206 -0.821077 -2.41103 0
M  V30 4278 H 406.989 -2.49176 -2.36149 0
M  V30 4279 N 409.434 1.37368 -0.772513 0
M  V30 4280 C 410.364 2.32856 -0.173304 0
M  V30 4281 C 411.345 1.55818 0.682262 0
M  V30 4282 O 412.53 1.84052 0.619566 0
M  V30 4283 C 409.66 3.40048 0.706007 0
M  V30 4284 C 408.614 4.27973 -0.0483144 0
M  V30 4285 C 407.94 5.26184 0.950491 0
M  V30 4286 C 409.24 5.07665 -1.22776 0
M  V30 4287 H 410.934 2.83217 -0.971002 0
M  V30 4288 H 408.48 1.3617 -0.468377 0
M  V30 4289 H 410.433 4.05827 1.13501 0
M  V30 4290 H 409.157 2.88214 1.53623 0
M  V30 4291 H 407.816 3.63726 -0.458107 0
M  V30 4292 H 407.464 4.7063 1.77529 0
M  V30 4293 H 407.164 5.85872 0.450314 0
M  V30 4294 H 408.688 5.94838 1.37842 0
M  V30 4295 H 410.102 5.66578 -0.875366 0
M  V30 4296 H 408.499 5.76681 -1.66007 0
M  V30 4297 H 409.569 4.40294 -2.03149 0
M  V30 4298 N 410.912 0.523116 1.48665 0
M  V30 4299 C 412.189 -0.0775449 1.95446 0
M  V30 4300 C 412.569 -1.5197 1.4652 0
M  V30 4301 O 411.917 -2.17876 0.688657 0
M  V30 4302 C 412.127 0.0326135 3.48985 0
M  V30 4303 C 413.475 -0.130141 4.24401 0
M  V30 4304 O 414.499 -0.0415142 3.56176 0
M  V30 4305 O 413.358 -0.31491 5.45592 0
M  V30 4306 H 410.452 -0.0831012 0.822814 0
M  V30 4307 H 412.998 0.587227 1.59216 0
M  V30 4308 H 411.77 1.03748 3.77296 0
M  V30 4309 H 411.393 -0.671317 3.91892 0
M  V30 4310 N 412.39 -1.55475 0.257931 0
M  V30 4311 C 413.638 -1.98813 -0.363009 0
M  V30 4312 C 413.959 -1.14757 -1.57657 0
M  V30 4313 O 413.229 -0.232956 -1.9451 0
M  V30 4314 H 411.809 -0.734308 -0.137113 0
M  V30 4315 H 414.471 -1.9156 0.359281 0
M  V30 4316 H 413.567 -3.04941 -0.664634 0
M  V30 4317 N 413.868 0.0150385 -1.57593 0
M  V30 4318 C 415.114 0.704043 -1.90187 0
M  V30 4319 C 415.447 1.74249 -0.857366 0
M  V30 4320 O 414.722 1.94092 0.125843 0
M  V30 4321 C 415.005 1.36087 -3.33395 0
M  V30 4322 C 414.858 0.334981 -4.48551 0
M  V30 4323 C 416.177 2.29112 -3.7576 0
M  V30 4324 H 413.296 0.254475 -0.691673 0
M  V30 4325 H 415.938 -0.0331678 -1.89971 0
M  V30 4326 H 414.088 1.98922 -3.3371 0
M  V30 4327 H 415.76 -0.292534 -4.60372 0
M  V30 4328 H 414.003 -0.344325 -4.32431 0
M  V30 4329 H 414.674 0.833316 -5.45674 0
M  V30 4330 H 417.15 1.76308 -3.76902 0
M  V30 4331 H 416.026 2.72043 -4.76743 0
M  V30 4332 H 416.287 3.16385 -3.08793 0
M  V30 4333 N 415.346 1.54954 0.287554 0
M  V30 4334 C 416.574 1.78881 1.03967 0
M  V30 4335 C 416.989 0.554894 1.80462 0
M  V30 4336 O 416.346 -0.475676 1.76192 0
M  V30 4337 C 416.397 3.00488 2.0097 0
M  V30 4338 O 416.118 4.19113 1.27577 0
M  V30 4339 C 417.619 3.36907 2.88112 0
M  V30 4340 H 414.839 0.596259 0.307761 0
M  V30 4341 H 417.383 2.01937 0.322749 0
M  V30 4342 H 415.538 2.79601 2.68145 0
M  V30 4343 H 415.952 4.87765 1.92835 0
M  V30 4344 H 417.426 4.25205 3.52001 0
M  V30 4345 H 417.903 2.55659 3.57121 0
M  V30 4346 H 418.509 3.60001 2.26449 0
M  V30 4347 N 416.824 -0.551391 1.4764 0
M  V30 4348 C 418.072 -1.30572 1.54258 0
M  V30 4349 C 418.393 -1.93877 0.208963 0
M  V30 4350 O 417.663 -1.80234 -0.767619 0
M  V30 4351 H 416.243 -0.484894 0.568231 0
M  V30 4352 H 418.905 -0.643402 1.83974 0
M  V30 4353 H 418.001 -2.09621 2.31226 0
M  V30 4354 N 418.302 -1.35869 -0.798587 0
M  V30 4355 C 419.549 -1.29588 -1.55606 0
M  V30 4356 C 419.877 0.127456 -1.94082 0
M  V30 4357 O 419.132 1.09461 -1.62225 0
M  V30 4358 C 419.431 -2.1556 -2.85077 0
M  V30 4359 C 419.097 -3.6424 -2.65781 0
M  V30 4360 C 417.759 -4.04766 -2.60227 0
M  V30 4361 C 420.111 -4.58547 -2.47758 0
M  V30 4362 C 417.439 -5.37753 -2.34603 0
M  V30 4363 C 419.791 -5.91742 -2.23662 0
M  V30 4364 C 418.455 -6.31402 -2.16534 0
M  V30 4365 H 417.725 -0.474197 -0.569402 0
M  V30 4366 H 420.372 -1.67839 -0.922086 0
M  V30 4367 H 418.677 -1.70216 -3.52893 0
M  V30 4368 H 420.374 -2.08031 -3.42818 0
M  V30 4369 H 416.964 -3.32086 -2.70956 0
M  V30 4370 H 421.148 -4.28117 -2.51056 0
M  V30 4371 H 416.404 -5.67474 -2.2756 0
M  V30 4372 H 420.578 -6.6439 -2.08708 0
M  V30 4373 H 418.205 -7.34381 -1.96441 0
M  V30 4374 N 419.78 1.02168 -1.19998 0
M  V30 4375 C 420.71 2.12488 -0.96804 0
M  V30 4376 C 421.691 1.69799 0.101185 0
M  V30 4377 O 422.876 1.94121 -0.0552993 0
M  V30 4378 C 420.006 3.43479 -0.513776 0
M  V30 4379 C 418.96 3.99884 -1.52566 0
M  V30 4380 C 418.286 5.26582 -0.928214 0
M  V30 4381 C 419.586 4.33861 -2.90795 0
M  V30 4382 H 421.28 2.32149 -1.89069 0
M  V30 4383 H 418.826 1.11564 -0.910468 0
M  V30 4384 H 420.779 4.20036 -0.338774 0
M  V30 4385 H 419.503 3.23561 0.444493 0
M  V30 4386 H 418.162 3.25429 -1.68794 0
M  V30 4387 H 417.81 5.02986 0.0378289 0
M  V30 4388 H 417.51 5.65284 -1.60397 0
M  V30 4389 H 419.034 6.05799 -0.764167 0
M  V30 4390 H 420.448 5.01327 -2.78109 0
M  V30 4391 H 418.845 4.83664 -3.55231 0
M  V30 4392 H 419.915 3.42848 -3.42904 0
M  V30 4393 N 421.258 1.00505 1.21394 0
M  V30 4394 C 422.504 0.688793 1.90745 0
M  V30 4395 C 422.837 -0.778486 1.77914 0
M  V30 4396 O 422.112 -1.56433 1.15581 0
M  V30 4397 C 422.395 1.11063 3.42545 0
M  V30 4398 C 422.248 2.63737 3.64367 0
M  V30 4399 C 423.567 0.673059 4.34923 0
M  V30 4400 H 420.686 0.251702 0.692687 0
M  V30 4401 H 423.328 1.25074 1.43026 0
M  V30 4402 H 421.478 0.632508 3.83317 0
M  V30 4403 H 423.15 3.19313 3.32922 0
M  V30 4404 H 421.393 3.05248 3.08231 0
M  V30 4405 H 422.064 2.88305 4.70727 0
M  V30 4406 H 424.54 1.08392 4.01734 0
M  V30 4407 H 423.416 0.996383 5.39781 0
M  V30 4408 H 423.677 -0.425808 4.40045 0
M  V30 4409 N 422.737 -1.36956 0.779787 0
M  V30 4410 C 423.667 -2.32761 0.185651 0
M  V30 4411 C 424.648 -1.56177 -0.673989 0
M  V30 4412 O 425.833 -1.84378 -0.609797 0
M  V30 4413 C 422.963 -3.40418 -0.687964 0
M  V30 4414 C 421.917 -4.27941 0.0710102 0
M  V30 4415 C 421.243 -5.26681 -0.922573 0
M  V30 4416 C 422.543 -5.07006 1.25467 0
M  V30 4417 H 424.237 -2.82698 0.986008 0
M  V30 4418 H 421.783 -1.3592 0.475592 0
M  V30 4419 H 423.736 -4.06423 -1.11348 0
M  V30 4420 H 422.46 -2.89025 -1.52093 0
M  V30 4421 H 421.119 -3.63478 0.47739 0
M  V30 4422 H 420.767 -4.71565 -1.7503 0
M  V30 4423 H 420.467 -5.86103 -0.419237 0
M  V30 4424 H 421.991 -5.9556 -1.34686 0
M  V30 4425 H 423.405 -5.66105 0.905401 0
M  V30 4426 H 421.802 -5.75793 1.69063 0
M  V30 4427 H 422.872 -4.3921 2.05481 0
M  V30 4428 N 424.215 -0.530993 -1.48385 0
M  V30 4429 C 425.148 0.278511 -2.26494 0
M  V30 4430 C 426.126 0.943905 -1.32398 0
M  V30 4431 O 427.31 0.968098 -1.61741 0
M  V30 4432 C 424.437 1.39453 -3.08659 0
M  V30 4433 C 423.483 0.840434 -4.18137 0
M  V30 4434 S 424.316 -0.292496 -5.34701 0
M  V30 4435 C 425.472 0.825973 -6.20426 0
M  V30 4436 H 425.705 -0.384365 -2.94805 0
M  V30 4437 H 423.238 -0.316799 -1.51115 0
M  V30 4438 H 425.196 2.03382 -3.56575 0
M  V30 4439 H 423.857 2.02913 -2.3976 0
M  V30 4440 H 423.05 1.67769 -4.75257 0
M  V30 4441 H 422.652 0.277819 -3.72967 0
M  V30 4442 H 424.944 1.72438 -6.55188 0
M  V30 4443 H 425.887 0.292728 -7.07495 0
M  V30 4444 H 426.295 1.10683 -5.53543 0
M  V30 4445 N 425.693 1.55336 -0.266172 0
M  V30 4446 C 426.918 2.04258 0.359661 0
M  V30 4447 C 427.343 1.14359 1.49344 0
M  V30 4448 O 426.701 0.140369 1.80756 0
M  V30 4449 C 426.749 3.50997 0.826635 0
M  V30 4450 O 425.853 3.64204 1.93466 0
M  V30 4451 H 425.194 0.659668 0.075727 0
M  V30 4452 H 427.724 2.00694 -0.39786 0
M  V30 4453 H 427.734 3.9219 1.12477 0
M  V30 4454 H 426.409 4.159 -0.00293032 0
M  V30 4455 H 424.986 3.34913 1.63974 0
M  V30 4456 N 427.171 -0.0066808 1.57599 0
M  V30 4457 C 428.081 -1.01671 2.11424 0
M  V30 4458 C 429.097 -1.38143 1.05795 0
M  V30 4459 O 430.273 -1.47011 1.37658 0
M  V30 4460 C 427.338 -2.29192 2.60139 0
M  V30 4461 C 426.399 -1.99094 3.80342 0
M  V30 4462 C 425.632 -3.20535 4.26724 0
M  V30 4463 O 425.855 -4.3199 3.72479 0
M  V30 4464 O 424.789 -3.04924 5.18946 0
M  V30 4465 H 428.615 -0.589181 2.9793 0
M  V30 4466 H 426.2 -0.225091 1.47695 0
M  V30 4467 H 428.082 -3.0412 2.917 0
M  V30 4468 H 426.757 -2.71195 1.76733 0
M  V30 4469 H 425.664 -1.21663 3.53764 0
M  V30 4470 H 426.997 -1.61931 4.648 0
M  V30 4471 N 428.649 -1.55105 -0.279332 0
M  V30 4472 C 429.897 -1.75066 -1.00977 0
M  V30 4473 C 430.218 -0.551276 -1.87045 0
M  V30 4474 O 429.488 0.433984 -1.91032 0
M  V30 4475 H 428.068 -0.645578 -0.375816 0
M  V30 4476 H 430.73 -1.92497 -0.305089 0
M  V30 4477 H 429.826 -2.64894 -1.65038 0
M  V30 4478 N 430.127 0.543554 -1.4793 0
M  V30 4479 C 431.057 1.65888 -1.64327 0
M  V30 4480 C 432.038 1.62818 -0.492383 0
M  V30 4481 O 433.223 1.80226 -0.723338 0
M  V30 4482 C 430.353 3.04506 -1.67013 0
M  V30 4483 C 429.307 3.2243 -2.81466 0
M  V30 4484 C 428.633 4.61972 -2.69233 0
M  V30 4485 C 429.933 3.06496 -4.22915 0
M  V30 4486 H 431.627 1.52421 -2.57698 0
M  V30 4487 H 429.173 0.731849 -1.24016 0
M  V30 4488 H 431.126 3.82391 -1.77074 0
M  V30 4489 H 429.85 3.18964 -0.70212 0
M  V30 4490 H 428.509 2.46957 -2.70938 0
M  V30 4491 H 428.157 4.73247 -1.7043 0
M  V30 4492 H 427.857 4.74911 -3.46025 0
M  V30 4493 H 429.381 5.41974 -2.81242 0
M  V30 4494 H 430.795 3.74186 -4.34348 0
M  V30 4495 H 429.192 3.30938 -5.006 0
M  V30 4496 H 430.262 2.03077 -4.40327 0
M  V30 4497 N 431.605 1.3629 0.791371 0
M  V30 4498 C 432.835 1.33368 1.57786 0
M  V30 4499 C 433.243 -0.0875188 1.88997 0
M  V30 4500 O 432.586 -1.05427 1.50435 0
M  V30 4501 C 432.648 2.08802 2.92646 0
M  V30 4502 C 432.312 3.57903 2.84174 0
M  V30 4503 C 433.309 4.52191 2.56553 0
M  V30 4504 C 430.994 4.00762 3.02812 0
M  V30 4505 C 432.988 5.87315 2.47669 0
M  V30 4506 C 430.675 5.35977 2.93551 0
M  V30 4507 C 431.673 6.29066 2.66017 0
M  V30 4508 O 431.361 7.61798 2.56746 0
M  V30 4509 H 431.093 0.459166 0.496128 0
M  V30 4510 H 433.647 1.79952 0.990269 0
M  V30 4511 H 431.877 1.56878 3.53449 0
M  V30 4512 H 433.566 1.98762 3.53904 0
M  V30 4513 H 434.332 4.20393 2.41858 0
M  V30 4514 H 430.211 3.2868 3.2325 0
M  V30 4515 H 433.755 6.59943 2.26099 0
M  V30 4516 H 429.652 5.67384 3.07808 0
M  V30 4517 H 430.42 7.71898 2.72242 0
M  V30 4518 N 433.083 -1.0153 1.20538 0
M  V30 4519 C 434.03 -2.10098 0.955383 0
M  V30 4520 C 435 -1.65702 -0.114878 0
M  V30 4521 O 436.185 -1.90776 0.0301118 0
M  V30 4522 C 433.325 -3.41236 0.514969 0
M  V30 4523 C 432.438 -3.99102 1.65353 0
M  V30 4524 C 431.573 -5.18306 1.16329 0
M  V30 4525 C 430.612 -5.68258 2.27485 0
M  V30 4526 N 429.749 -6.78722 1.7967 0
M  V30 4527 H 434.589 -2.30818 1.88486 0
M  V30 4528 H 432.126 -1.13189 0.939499 0
M  V30 4529 H 434.084 -4.16504 0.240935 0
M  V30 4530 H 432.714 -3.20585 -0.377512 0
M  V30 4531 H 431.766 -3.20918 2.04245 0
M  V30 4532 H 433.078 -4.32177 2.49047 0
M  V30 4533 H 432.232 -6.00782 0.845302 0
M  V30 4534 H 430.971 -4.86799 0.296254 0
M  V30 4535 H 429.976 -4.84385 2.60099 0
M  V30 4536 H 431.201 -6.01798 3.14667 0
M  V30 4537 H 429.147 -6.49042 0.95295 0
M  V30 4538 H 429.064 -7.10996 2.56944 0
M  V30 4539 H 430.332 -7.64759 1.50875 0
M  V30 4540 N 434.561 -1.01147 -1.20859 0
M  V30 4541 C 435.524 -0.582224 -2.21682 0
M  V30 4542 C 436.524 0.344887 -1.57058 0
M  V30 4543 O 437.714 0.134281 -1.73682 0
M  V30 4544 C 434.846 0.150496 -3.40568 0
M  V30 4545 H 436.039 -1.47408 -2.61172 0
M  V30 4546 H 433.592 -0.800695 -1.34233 0
M  V30 4547 H 434.327 1.0575 -3.06574 0
M  V30 4548 H 434.112 -0.515444 -3.88697 0
M  V30 4549 H 435.602 0.438344 -4.15293 0
M  V30 4550 N 436.039 1.36541 -0.78704 0
M  V30 4551 C 436.969 2.32659 -0.197992 0
M  V30 4552 C 437.95 1.56533 0.665697 0
M  V30 4553 O 439.135 1.84698 0.60001 0
M  V30 4554 C 436.265 3.40778 0.669901 0
M  V30 4555 C 435.219 4.27897 -0.0937039 0
M  V30 4556 C 434.545 5.27163 0.894629 0
M  V30 4557 C 435.845 5.06334 -1.28154 0
M  V30 4558 H 437.539 2.82171 -1.00099 0
M  V30 4559 H 435.085 1.35665 -0.482793 0
M  V30 4560 H 437.038 4.07008 1.09191 0
M  V30 4561 H 435.762 2.89827 1.50558 0
M  V30 4562 H 434.421 3.6322 -0.49666 0
M  V30 4563 H 434.069 4.72486 1.72527 0
M  V30 4564 H 433.769 5.86317 0.388149 0
M  V30 4565 H 435.293 5.96266 1.31525 0
M  V30 4566 H 436.707 5.65617 -0.93541 0
M  V30 4567 H 435.104 5.74888 -1.72115 0
M  V30 4568 H 436.174 4.38114 -2.07807 0
M  V30 4569 N 437.518 0.538854 1.48102 0
M  V30 4570 C 438.428 -0.222648 2.33541 0
M  V30 4571 C 439.444 -0.930225 1.47047 0
M  V30 4572 O 440.62 -0.903211 1.80011 0
M  V30 4573 C 437.685 -1.25064 3.23357 0
M  V30 4574 C 436.746 -0.552469 4.2573 0
M  V30 4575 C 435.979 -1.53149 5.11254 0
M  V30 4576 O 436.202 -2.76487 4.9891 0
M  V30 4577 O 435.136 -1.06602 5.92385 0
M  V30 4578 H 438.962 0.477707 2.99919 0
M  V30 4579 H 436.547 0.299669 1.46364 0
M  V30 4580 H 438.429 -1.8445 3.78888 0
M  V30 4581 H 437.104 -1.93325 2.59629 0
M  V30 4582 H 436.011 0.082114 3.7401 0
M  V30 4583 H 437.344 0.0883526 4.92121 0
M  V30 4584 N 438.996 -1.55193 0.274407 0
M  V30 4585 C 439.959 -2.212 -0.600279 0
M  V30 4586 C 440.959 -1.18963 -1.08187 0
M  V30 4587 O 442.149 -1.43873 -0.982158 0
M  V30 4588 C 439.281 -2.87739 -1.82809 0
M  V30 4589 H 440.474 -2.9989 -0.0239682 0
M  V30 4590 H 438.027 -1.5628 0.0250192 0
M  V30 4591 H 438.762 -2.13058 -2.44493 0
M  V30 4592 H 438.547 -3.62658 -1.49069 0
M  V30 4593 H 440.037 -3.38171 -2.45011 0
M  V30 4594 N 440.474 -0.00167713 -1.576 0
M  V30 4595 C 441.437 0.974046 -2.07473 0
M  V30 4596 C 442.437 1.27143 -0.984444 0
M  V30 4597 O 443.627 1.21633 -1.24703 0
M  V30 4598 C 440.759 2.29849 -2.51759 0
M  V30 4599 H 441.952 0.54262 -2.9495 0
M  V30 4600 H 439.505 0.245829 -1.54355 0
M  V30 4601 H 440.24 2.77677 -1.67529 0
M  V30 4602 H 440.025 2.09584 -3.31386 0
M  V30 4603 H 441.515 2.9984 -2.90664 0
M  V30 4604 N 441.952 1.55251 0.271103 0
M  V30 4605 C 442.902 1.84649 1.33749 0
M  V30 4606 C 443.886 0.705529 1.44607 0
M  V30 4607 O 445.078 0.966916 1.48256 0
M  V30 4608 C 442.207 2.12354 2.69742 0
M  V30 4609 C 441.293 3.32714 2.62988 0
M  V30 4610 N 441.684 4.52575 2.25853 0
M  V30 4611 C 439.982 3.35341 2.94045 0
M  V30 4612 C 440.683 5.34669 2.29136 0
M  V30 4613 N 439.659 4.73123 2.67685 0
M  V30 4614 H 443.461 2.74865 1.0405 0
M  V30 4615 H 440.975 1.55152 0.479738 0
M  V30 4616 H 442.972 2.31572 3.4667 0
M  V30 4617 H 441.632 1.23422 3.00328 0
M  V30 4618 H 442.643 4.78639 1.978 0
M  V30 4619 H 439.32 2.56608 3.2933 0
M  V30 4620 H 440.71 6.40509 2.02971 0
M  V30 4621 N 443.43 -0.535701 1.48216 0
M  V30 4622 C 444.678 -1.28928 1.55634 0
M  V30 4623 C 444.999 -1.93645 0.229514 0
M  V30 4624 O 444.269 -1.81038 -0.74846 0
M  V30 4625 H 442.849 -0.47884 0.573342 0
M  V30 4626 H 445.511 -0.623853 1.84646 0
M  V30 4627 H 444.607 -2.07157 2.33436 0
M  V30 4628 N 444.908 -1.36708 -0.784132 0
M  V30 4629 C 446.319 -1.27947 -1.35965 0
M  V30 4630 C 446.67 0.0784013 -1.96043 0
M  V30 4631 O 445.795 0.979989 -1.92938 0
M  V30 4632 C 446.39 -2.31689 -2.47195 0
M  V30 4633 C 444.949 -2.26601 -3.00548 0
M  V30 4634 C 444.096 -2.16184 -1.73666 0
M  V30 4635 H 447.047 -1.4751 -0.585358 0
M  V30 4636 H 447.068 -1.95638 -3.26352 0
M  V30 4637 H 446.58 -3.30506 -2.03439 0
M  V30 4638 H 444.681 -1.31268 -3.48711 0
M  V30 4639 H 444.794 -3.19508 -3.57004 0
M  V30 4640 H 443.158 -1.62524 -1.96107 0
M  V30 4641 H 443.941 -3.16896 -1.32031 0
M  V30 4642 N 446.386 1.0089 -1.21074 0
M  V30 4643 C 447.634 1.74262 -1.02358 0
M  V30 4644 C 447.955 1.89869 0.444393 0
M  V30 4645 O 447.225 1.44677 1.32081 0
M  V30 4646 H 445.805 0.645615 -0.375754 0
M  V30 4647 H 448.467 1.21596 -1.52317 0
M  V30 4648 H 447.563 2.74328 -1.4883 0
M  V30 4649 N 447.864 1.01787 1.20321 0
M  V30 4650 C 448.796 0.547357 2.22568 0
M  V30 4651 C 449.809 -0.370922 1.58518 0
M  V30 4652 O 450.998 -0.169067 1.77698 0
M  V30 4653 C 448.098 -0.223031 3.38165 0
M  V30 4654 C 447.271 0.697472 4.31803 0
M  V30 4655 C 446.33 -0.025562 5.26194 0
M  V30 4656 O 445.356 0.597367 5.66057 0
M  V30 4657 N 446.558 -1.29999 5.65757 0
M  V30 4658 H 449.323 1.42668 2.63564 0
M  V30 4659 H 446.884 0.895552 1.34876 0
M  V30 4660 H 448.876 -0.716002 3.98316 0
M  V30 4661 H 447.446 -1.00366 2.9605 0
M  V30 4662 H 446.666 1.37073 3.69601 0
M  V30 4663 H 447.954 1.32347 4.91286 0
M  V30 4664 H 447.352 -1.827 5.35385 0
M  V30 4665 H 445.909 -1.73766 6.28211 0
M  V30 4666 N 449.342 -1.36122 0.79427 0
M  V30 4667 C 450.305 -2.28309 0.201889 0
M  V30 4668 C 451.305 -1.49041 -0.603603 0
M  V30 4669 O 452.495 -1.68964 -0.423888 0
M  V30 4670 C 449.627 -3.3321 -0.719978 0
M  V30 4671 H 450.82 -2.82208 1.01481 0
M  V30 4672 H 448.373 -1.45768 0.564037 0
M  V30 4673 H 449.108 -2.84475 -1.55706 0
M  V30 4674 H 448.893 -3.91835 -0.144266 0
M  V30 4675 H 450.383 -4.02044 -1.12916 0
M  V30 4676 N 450.82 -0.546701 -1.47814 0
M  V30 4677 C 451.768 0.220048 -2.31557 0
M  V30 4678 C 452.762 0.919472 -1.42275 0
M  V30 4679 O 453.968 0.841953 -1.59095 0
M  V30 4680 H 450.343 0.0898334 -0.746615 0
M  V30 4681 H 452.314 -0.505589 -2.94086 0
M  V30 4682 C 451.063 1.24353 -3.24702 0
M  V30 4683 H 450.386 0.714758 -3.93359 0
M  V30 4684 H 451.826 1.75112 -3.8615 0
M  V30 4685 C 450.285 2.28593 -2.47481 0
M  V30 4686 O 450.815 3.35334 -2.21165 0
M  V30 4687 N 449.021 2.02244 -2.08676 0
M  V30 4688 H 448.568 1.15455 -2.30278 0
M  V30 4689 H 448.526 2.72207 -1.57323 0
M  V30 4690 N 452.299 1.55045 -0.282633 0
M  V30 4691 C 453.231 2.2023 0.634924 0
M  V30 4692 C 454.244 1.18931 1.11172 0
M  V30 4693 O 455.433 1.4562 1.03233 0
M  V30 4694 C 452.533 2.82041 1.87899 0
M  V30 4695 C 451.706 4.091 1.54776 0
M  V30 4696 C 450.765 4.54887 2.64507 0
M  V30 4697 O 449.791 5.20496 2.30375 0
M  V30 4698 N 450.993 4.25659 3.94709 0
M  V30 4699 H 453.758 2.99601 0.0769811 0
M  V30 4700 H 451.319 1.61565 -0.104048 0
M  V30 4701 H 453.311 3.09613 2.60619 0
M  V30 4702 H 451.881 2.06618 2.3458 0
M  V30 4703 H 451.101 3.88736 0.654049 0
M  V30 4704 H 452.389 4.9187 1.30158 0
M  V30 4705 H 451.787 3.7306 4.25256 0
M  V30 4706 H 450.344 4.57984 4.63782 0
M  V30 4707 N 453.777 0.010035 1.57597 0
M  V30 4708 C 454.687 -0.994226 2.12491 0
M  V30 4709 C 455.703 -1.37013 1.07254 0
M  V30 4710 O 456.879 -1.45542 1.3921 0
M  V30 4711 C 453.944 -2.2642 2.62555 0
M  V30 4712 C 453.005 -1.95049 3.82432 0
M  V30 4713 C 452.238 -3.15991 4.30099 0
M  V30 4714 O 452.461 -4.28015 3.7704 0
M  V30 4715 O 451.395 -2.99403 5.22151 0
M  V30 4716 H 455.221 -0.557549 2.98538 0
M  V30 4717 H 452.806 -0.209413 1.47925 0
M  V30 4718 H 454.688 -3.01009 2.9491 0
M  V30 4719 H 453.363 -2.69306 1.796 0
M  V30 4720 H 452.27 -1.17904 3.55034 0
M  V30 4721 H 453.603 -1.56992 4.66491 0
M  V30 4722 N 455.255 -1.55392 -0.262866 0
M  V30 4723 C 456.504 -1.75679 -0.990943 0
M  V30 4724 C 456.817 -0.57097 -1.87081 0
M  V30 4725 O 458.023 -0.656486 -2.63444 0
M  V30 4726 C 456.479 -3.10964 -1.81188 0
M  V30 4727 C 456.087 -4.37146 -0.980188 0
M  V30 4728 C 457.831 -3.40597 -2.53365 0
M  V30 4729 C 455.738 -5.63466 -1.7961 0
M  V30 4730 H 454.668 -0.654868 -0.373716 0
M  V30 4731 H 457.319 -1.81841 -0.246203 0
M  V30 4732 H 455.701 -2.98867 -2.59797 0
M  V30 4733 H 456.875 -4.60187 -0.237558 0
M  V30 4734 H 455.19 -4.14731 -0.372497 0
M  V30 4735 H 457.787 -4.32186 -3.14833 0
M  V30 4736 H 458.13 -2.6119 -3.24169 0
M  V30 4737 H 458.663 -3.53838 -1.81779 0
M  V30 4738 H 455.402 -6.4565 -1.13209 0
M  V30 4739 H 454.922 -5.44552 -2.51443 0
M  V30 4740 H 456.601 -6.02139 -2.36723 0
M  V30 4741 N 456.733 0.527833 -1.48498 0
M  V30 4742 C 457.696 1.61439 -1.62696 0
M  V30 4743 C 458.696 1.52824 -0.500136 0
M  V30 4744 O 459.886 1.56456 -0.765976 0
M  V30 4745 C 457.018 3.01063 -1.59918 0
M  V30 4746 H 458.211 1.50189 -2.59583 0
M  V30 4747 H 455.764 0.750055 -1.37127 0
M  V30 4748 H 456.499 3.17818 -0.645163 0
M  V30 4749 H 456.284 3.08725 -2.41726 0
M  V30 4750 H 457.774 3.80057 -1.73051 0
M  V30 4751 N 458.211 1.37122 0.776871 0
M  V30 4752 C 459.174 1.32301 1.8716 0
M  V30 4753 C 460.174 0.228099 1.59174 0
M  V30 4754 O 461.364 0.483642 1.67352 0
M  V30 4755 C 458.496 1.054 3.24197 0
M  V30 4756 H 459.689 2.29673 1.92848 0
M  V30 4757 H 457.242 1.22077 0.97606 0
M  V30 4758 H 457.977 0.0853872 3.24188 0
M  V30 4759 H 457.762 1.84648 3.45901 0
M  V30 4760 H 459.252 1.04664 4.04271 0
M  V30 4761 N 459.689 -1.00246 1.21608 0
M  V30 4762 C 460.622 -2.08794 0.920892 0
M  V30 4763 C 461.6 -1.62059 -0.132552 0
M  V30 4764 O 462.784 -1.885 -0.0030366 0
M  V30 4765 C 459.911 -3.36525 0.383226 0
M  V30 4766 C 458.957 -4.02172 1.41987 0
M  V30 4767 S 459.79 -4.44256 2.98994 0
M  V30 4768 C 460.946 -5.7517 2.4684 0
M  V30 4769 H 461.179 -2.33511 1.8401 0
M  V30 4770 H 458.712 -1.13562 1.04609 0
M  V30 4771 H 460.67 -4.10423 0.0795871 0
M  V30 4772 H 459.331 -3.09854 -0.514711 0
M  V30 4773 H 458.524 -4.94114 0.993335 0
M  V30 4774 H 458.126 -3.34559 1.67171 0
M  V30 4775 H 460.418 -6.51042 1.87484 0
M  V30 4776 H 461.361 -6.22638 3.37235 0
M  V30 4777 H 461.769 -5.32112 1.88461 0
M  V30 4778 N 461.167 -1.02423 -1.1978 0
M  V30 4779 C 462.416 -0.713265 -1.88667 0
M  V30 4780 C 462.729 0.7609 -1.80193 0
M  V30 4781 O 463.935 1.18473 -2.44288 0
M  V30 4782 C 462.391 -1.22545 -3.38394 0
M  V30 4783 C 461.999 -2.72706 -3.55437 0
M  V30 4784 C 463.743 -0.990257 -4.12788 0
M  V30 4785 C 461.65 -3.17367 -4.99031 0
M  V30 4786 H 460.58 -0.263105 -0.706606 0
M  V30 4787 H 463.231 -1.23792 -1.35454 0
M  V30 4788 H 461.613 -0.628732 -3.90977 0
M  V30 4789 H 462.787 -3.37993 -3.13205 0
M  V30 4790 H 461.102 -2.94453 -2.94425 0
M  V30 4791 H 463.699 -1.29926 -5.18675 0
M  V30 4792 H 464.042 0.0730761 -4.16236 0
M  V30 4793 H 464.575 -1.55074 -3.66329 0
M  V30 4794 H 461.314 -4.23009 -5.00743 0
M  V30 4795 H 460.834 -2.56805 -5.42044 0
M  V30 4796 H 462.513 -3.10441 -5.67658 0
M  V30 4797 N 462.645 1.35699 -0.801477 0
M  V30 4798 C 463.922 1.9324 -0.302937 0
M  V30 4799 C 464.302 1.73209 1.20672 0
M  V30 4800 O 463.65 1.09809 2.00385 0
M  V30 4801 C 463.86 3.41728 -0.708747 0
M  V30 4802 C 465.208 4.18868 -0.695328 0
M  V30 4803 O 466.232 3.5022 -0.649971 0
M  V30 4804 O 465.091 5.41342 -0.749081 0
M  V30 4805 H 462.185 0.82331 -0.0780367 0
M  V30 4806 H 464.731 1.44806 -0.884832 0
M  V30 4807 H 463.503 3.50015 -1.74944 0
M  V30 4808 H 463.126 3.97471 -0.101384 0
M  V30 4809 N 464.123 0.554532 1.47522 0
M  V30 4810 C 465.351 0.034257 2.06872 0
M  V30 4811 C 465.766 -1.25826 1.40759 0
M  V30 4812 O 465.123 -1.75425 0.503217 0
M  V30 4813 C 465.174 -0.167827 3.6111 0
M  V30 4814 O 464.895 1.07351 4.24744 0
M  V30 4815 C 466.396 -0.72569 4.3732 0
M  V30 4816 H 463.616 0.0446275 0.669514 0
M  V30 4817 H 466.16 0.767181 1.89564 0
M  V30 4818 H 464.315 -0.850872 3.7794 0
M  V30 4819 H 464.729 0.869563 5.17242 0
M  V30 4820 H 466.203 -0.816394 5.45929 0
M  V30 4821 H 466.68 -1.73635 4.0342 0
M  V30 4822 H 467.286 -0.0784292 4.25228 0
M  V30 4823 N 465.601 -1.54893 0.290851 0
M  V30 4824 C 466.511 -2.26812 -0.59945 0
M  V30 4825 C 467.527 -1.29963 -1.15696 0
M  V30 4826 O 468.703 -1.62928 -1.18391 0
M  V30 4827 C 465.768 -2.98716 -1.75982 0
M  V30 4828 C 464.829 -4.1108 -1.2374 0
M  V30 4829 C 464.062 -4.79546 -2.34246 0
M  V30 4830 O 464.285 -4.47309 -3.53936 0
M  V30 4831 O 463.219 -5.67165 -2.01512 0
M  V30 4832 H 467.045 -3.03696 -0.0163561 0
M  V30 4833 H 464.63 -1.49289 0.0576755 0
M  V30 4834 H 466.512 -3.43851 -2.43607 0
M  V30 4835 H 465.187 -2.24737 -2.3297 0
M  V30 4836 H 464.094 -3.70367 -0.527163 0
M  V30 4837 H 465.427 -4.87007 -0.71307 0
M  V30 4838 N 467.08 -0.0183926 -1.57589 0
M  V30 4839 C 468.327 0.662562 -1.91354 0
M  V30 4840 C 468.655 1.72747 -0.893788 0
M  V30 4841 O 467.91 1.9545 0.0988509 0
M  V30 4842 C 468.209 1.32676 -3.31861 0
M  V30 4843 C 467.875 0.393267 -4.49182 0
M  V30 4844 C 466.537 0.136302 -4.81007 0
M  V30 4845 C 468.889 -0.248366 -5.20608 0
M  V30 4846 C 466.217 -0.770282 -5.81621 0
M  V30 4847 C 468.569 -1.14294 -6.22189 0
M  V30 4848 C 467.233 -1.4089 -6.52462 0
M  V30 4849 H 466.503 0.242448 -0.700214 0
M  V30 4850 H 469.15 -0.0778629 -1.91342 0
M  V30 4851 H 467.455 2.14168 -3.28084 0
M  V30 4852 H 469.152 1.86001 -3.55253 0
M  V30 4853 H 465.742 0.603723 -4.24327 0
M  V30 4854 H 469.926 -0.062883 -4.9626 0
M  V30 4855 H 465.182 -0.984154 -6.03427 0
M  V30 4856 H 469.356 -1.64637 -6.76659 0
M  V30 4857 H 466.983 -2.11306 -7.30242 0
M  V30 4858 N 468.558 1.5553 0.254621 0
M  V30 4859 C 469.521 1.88872 1.29846 0
M  V30 4860 C 470.521 0.764591 1.41459 0
M  V30 4861 O 471.711 1.03265 1.40293 0
M  V30 4862 C 468.843 2.11032 2.67728 0
M  V30 4863 H 470.036 2.82201 1.01502 0
M  V30 4864 H 467.589 1.48303 0.493556 0
M  V30 4865 H 468.324 1.20146 3.01223 0
M  V30 4866 H 468.109 2.92895 2.60682 0
M  V30 4867 H 469.599 2.38038 3.43115 0
M  V30 4868 N 470.036 -0.519951 1.48776 0
M  V30 4869 C 470.983 -1.62352 1.64044 0
M  V30 4870 C 471.953 -1.58945 0.482251 0
M  V30 4871 O 473.138 -1.77219 0.706971 0
M  V30 4872 C 470.278 -3.00579 1.69547 0
M  V30 4873 C 469.391 -3.14145 2.96541 0
M  V30 4874 C 468.526 -4.42991 2.93142 0
M  V30 4875 C 467.565 -4.50122 4.14797 0
M  V30 4876 N 466.702 -5.7037 4.09418 0
M  V30 4877 H 471.542 -1.48643 2.58281 0
M  V30 4878 H 469.079 -0.723516 1.28077 0
M  V30 4879 H 471.037 -3.80671 1.70719 0
M  V30 4880 H 469.667 -3.13036 0.787918 0
M  V30 4881 H 468.719 -2.27239 3.05068 0
M  V30 4882 H 470.031 -3.15275 3.86527 0
M  V30 4883 H 469.185 -5.31385 2.92772 0
M  V30 4884 H 467.924 -4.44398 2.00902 0
M  V30 4885 H 466.929 -3.60133 4.15433 0
M  V30 4886 H 468.154 -4.50445 5.08208 0
M  V30 4887 H 466.1 -5.72655 3.20004 0
M  V30 4888 H 466.017 -5.73036 4.93119 0
M  V30 4889 H 467.285 -6.61023 4.13121 0
M  V30 4890 N 471.514 -1.37532 -0.769588 0
M  V30 4891 C 472.446 -1.29347 -1.89214 0
M  V30 4892 C 473.459 -0.208842 -1.61455 0
M  V30 4893 O 474.648 -0.465158 -1.72333 0
M  V30 4894 C 471.748 -0.977649 -3.24492 0
M  V30 4895 C 470.921 -2.16817 -3.7988 0
M  V30 4896 C 469.98 -1.82229 -4.93639 0
M  V30 4897 O 469.006 -2.54548 -5.09111 0
M  V30 4898 N 470.208 -0.767696 -5.75401 0
M  V30 4899 H 472.973 -2.26073 -1.96751 0
M  V30 4900 H 470.534 -1.31185 -0.948795 0
M  V30 4901 H 472.526 -0.727065 -3.98115 0
M  V30 4902 H 471.096 -0.0988777 -3.12444 0
M  V30 4903 H 470.316 -2.58038 -2.9801 0
M  V30 4904 H 471.604 -2.96308 -4.13617 0
M  V30 4905 H 471.002 -0.167626 -5.65452 0
M  V30 4906 H 469.559 -0.576973 -6.49241 0
M  V30 4907 N 472.992 0.995999 -1.22138 0
M  V30 4908 C 474.22 1.77066 -1.07029 0
M  V30 4909 C 474.635 1.8495 0.379357 0
M  V30 4910 O 473.992 1.3174 1.26297 0
M  V30 4911 C 474.043 3.20533 -1.67155 0
M  V30 4912 O 473.764 3.13082 -3.06449 0
M  V30 4913 C 475.265 4.14461 -1.5728 0
M  V30 4914 H 472.485 0.556179 -0.375374 0
M  V30 4915 H 475.029 1.25238 -1.61666 0
M  V30 4916 H 473.184 3.6944 -1.16589 0
M  V30 4917 H 473.598 4.03283 -3.35355 0
M  V30 4918 H 475.072 5.1289 -2.04078 0
M  V30 4919 H 475.549 4.36005 -0.528795 0
M  V30 4920 H 476.155 3.71449 -2.07136 0
M  V30 4921 N 474.47 1.03057 1.19235 0
M  V30 4922 C 475.695 0.74757 1.93458 0
M  V30 4923 C 476.12 -0.687648 1.7508 0
M  V30 4924 O 475.478 -1.47499 1.05422 0
M  V30 4925 C 475.526 1.10604 3.43219 0
M  V30 4926 O 474.63 0.225671 4.11782 0
M  V30 4927 H 473.971 0.276047 0.603899 0
M  V30 4928 H 476.501 1.3777 1.51263 0
M  V30 4929 H 476.511 1.06366 3.93891 0
M  V30 4930 H 475.186 2.15165 3.55917 0
M  V30 4931 H 473.763 0.326795 3.71465 0
M  V30 4932 N 475.948 -1.35272 0.808662 0
M  V30 4933 C 476.878 -2.32315 0.234981 0
M  V30 4934 C 477.859 -1.57572 -0.64071 0
M  V30 4935 O 479.044 -1.8563 -0.570551 0
M  V30 4936 C 476.174 -3.41801 -0.615601 0
M  V30 4937 C 475.128 -4.27694 0.161767 0
M  V30 4938 C 474.454 -5.28519 -0.810649 0
M  V30 4939 C 475.754 -5.04231 1.36193 0
M  V30 4940 H 477.448 -2.80543 1.04575 0
M  V30 4941 H 474.994 -1.3488 0.504315 0
M  V30 4942 H 476.947 -4.08693 -1.02702 0
M  V30 4943 H 475.671 -2.92186 -1.45928 0
M  V30 4944 H 474.33 -3.62384 0.554382 0
M  V30 4945 H 473.978 -4.75171 -1.64988 0
M  V30 4946 H 473.678 -5.8686 -0.294822 0
M  V30 4947 H 475.202 -5.98283 -1.22023 0
M  V30 4948 H 476.616 -5.64058 1.02528 0
M  V30 4949 H 475.013 -5.72077 1.81239 0
M  V30 4950 H 476.083 -4.34753 2.14751 0
M  V30 4951 N 477.426 -0.562348 -1.47226 0
M  V30 4952 C 478.703 0.0256985 -1.95583 0
M  V30 4953 C 479.083 1.48032 -1.50498 0
M  V30 4954 O 478.431 2.15973 -0.746181 0
M  V30 4955 C 478.641 -0.125129 -3.48776 0
M  V30 4956 C 479.989 0.0175728 -4.24596 0
M  V30 4957 O 481.013 -0.0529341 -3.56161 0
M  V30 4958 O 479.872 0.170145 -5.46235 0
M  V30 4959 H 476.966 0.0612565 -0.824728 0
M  V30 4960 H 479.512 -0.629233 -1.57603 0
M  V30 4961 H 478.284 -1.13715 -3.74412 0
M  V30 4962 H 477.907 0.567178 -3.93534 0
M  V30 4963 N 478.904 1.54736 -0.299062 0
M  V30 4964 C 479.867 2.22127 0.565012 0
M  V30 4965 C 480.867 1.20669 1.06281 0
M  V30 4966 O 482.057 1.45417 0.959145 0
M  V30 4967 C 479.189 2.90611 1.78208 0
M  V30 4968 H 480.382 2.99891 -0.0237448 0
M  V30 4969 H 477.935 1.5622 -0.0498788 0
M  V30 4970 H 478.67 2.16921 2.41072 0
M  V30 4971 H 478.455 3.64984 1.43281 0
M  V30 4972 H 479.945 3.42026 2.396 0
M  V30 4973 N 480.382 0.0267497 1.57577 0
M  V30 4974 C 481.628 -0.653371 1.91987 0
M  V30 4975 C 481.961 -1.71915 0.903263 0
M  V30 4976 O 481.236 -1.94358 -0.0743387 0
M  V30 4977 C 481.519 -1.272 3.36886 0
M  V30 4978 C 481.372 -0.215938 4.49281 0
M  V30 4979 C 482.691 -2.19069 3.81703 0
M  V30 4980 H 479.81 -0.236047 0.698177 0
M  V30 4981 H 482.452 0.0835236 1.89816 0
M  V30 4982 H 480.602 -1.90005 3.38866 0
M  V30 4983 H 482.274 0.41449 4.59434 0
M  V30 4984 H 480.517 0.458855 4.31366 0
M  V30 4985 H 481.188 -0.688347 5.47691 0
M  V30 4986 H 483.664 -1.66253 3.81444 0
M  V30 4987 H 482.54 -2.59307 4.83788 0
M  V30 4988 H 482.801 -3.08087 3.17072 0
M  V30 4989 N 481.861 -1.55662 -0.24637 0
M  V30 4990 C 482.824 -1.89558 -1.28842 0
M  V30 4991 C 483.824 -0.772082 -1.41052 0
M  V30 4992 O 485.014 -1.04007 -1.39743 0
M  V30 4993 C 482.146 -2.12449 -2.66605 0
M  V30 4994 H 483.339 -2.82735 -1.00004 0
M  V30 4995 H 480.892 -1.48562 -0.485684 0
M  V30 4996 H 481.627 -1.21742 -3.00582 0
M  V30 4997 H 481.412 -2.94273 -2.59125 0
M  V30 4998 H 482.902 -2.39854 -3.41847 0
M  V30 4999 N 483.339 0.512053 -1.4905 0
M  V30 5000 C 484.271 1.63121 -1.6101 0
M  V30 5001 C 485.284 1.55145 -0.493352 0
M  V30 5002 O 486.473 1.61278 -0.764955 0
M  V30 5003 C 483.573 3.01863 -1.54052 0
M  V30 5004 C 482.746 3.35138 -2.81072 0
M  V30 5005 C 481.805 4.5324 -2.67319 0
M  V30 5006 O 480.831 4.55571 -3.41238 0
M  V30 5007 N 482.033 5.52495 -1.78127 0
M  V30 5008 H 484.798 1.53292 -2.5753 0
M  V30 5009 H 482.359 0.699706 -1.45999 0
M  V30 5010 H 484.351 3.78774 -1.42521 0
M  V30 5011 H 482.921 3.05675 -0.654345 0
M  V30 5012 H 482.141 2.4723 -3.07036 0
M  V30 5013 H 483.429 3.54162 -3.65304 0
M  V30 5014 H 482.827 5.53403 -1.17308 0
M  V30 5015 H 481.384 6.28553 -1.72525 0
M  V30 5016 N 484.817 1.37938 0.762283 0
M  V30 5017 C 485.78 1.34279 1.85747 0
M  V30 5018 C 486.78 0.244969 1.58923 0
M  V30 5019 O 487.97 0.501365 1.66829 0
M  V30 5020 C 485.102 1.08833 3.23061 0
M  V30 5021 H 486.295 2.31705 1.90401 0
M  V30 5022 H 483.848 1.23105 0.963057 0
M  V30 5023 H 484.583 0.119767 3.24079 0
M  V30 5024 H 484.368 1.88306 3.43923 0
M  V30 5025 H 485.858 1.08946 4.03138 0
M  V30 5026 N 486.295 -0.989507 1.22664 0
M  V30 5027 C 487.541 -1.7321 1.05481 0
M  V30 5028 C 487.874 -1.89852 -0.408635 0
M  V30 5029 O 487.149 -1.44416 -1.30285 0
M  V30 5030 C 487.432 -3.1357 1.77047 0
M  V30 5031 C 487.285 -3.04555 3.31008 0
M  V30 5032 C 488.604 -4.12812 1.5256 0
M  V30 5033 H 485.723 -0.628697 0.384589 0
M  V30 5034 H 488.365 -1.15258 1.51049 0
M  V30 5035 H 486.515 -3.63046 1.3831 0
M  V30 5036 H 488.187 -2.62674 3.7921 0
M  V30 5037 H 486.43 -2.41278 3.6051 0
M  V30 5038 H 487.101 -4.03894 3.76263 0
M  V30 5039 H 489.577 -3.72106 1.86215 0
M  V30 5040 H 488.453 -5.09132 2.05124 0
M  V30 5041 H 488.714 -4.39711 0.458936 0
M  V30 5042 N 487.773 -1.03688 -1.18687 0
M  V30 5043 C 489.019 -0.739123 -1.88851 0
M  V30 5044 C 489.352 0.731042 -1.79915 0
M  V30 5045 O 488.627 1.53313 -1.19688 0
M  V30 5046 C 488.91 -1.20106 -3.3948 0
M  V30 5047 C 488.763 -2.73304 -3.57246 0
M  V30 5048 C 490.082 -0.788134 -4.32986 0
M  V30 5049 H 487.201 -0.269978 -0.68577 0
M  V30 5050 H 489.843 -1.28822 -1.3966 0
M  V30 5051 H 487.993 -0.733915 -3.81505 0
M  V30 5052 H 489.665 -3.28027 -3.24339 0
M  V30 5053 H 487.908 -3.13313 -3.00029 0
M  V30 5054 H 488.579 -3.00684 -4.62918 0
M  V30 5055 H 491.055 -1.19005 -3.98719 0
M  V30 5056 H 489.931 -1.13915 -5.36949 0
M  V30 5057 H 490.192 0.308988 -4.41019 0
M  V30 5058 N 489.251 1.34841 -0.815825 0
M  V30 5059 C 490.528 1.92908 -0.323416 0
M  V30 5060 C 490.908 1.74479 1.18828 0
M  V30 5061 O 490.256 1.11928 1.99209 0
M  V30 5062 C 490.466 3.40957 -0.744952 0
M  V30 5063 C 491.814 4.18107 -0.739716 0
M  V30 5064 O 492.838 3.49511 -0.68708 0
M  V30 5065 O 491.697 5.40517 -0.806456 0
M  V30 5066 H 488.791 0.822436 -0.0867646 0
M  V30 5067 H 491.337 1.4386 -0.90014 0
M  V30 5068 H 490.109 3.4814 -1.78646 0
M  V30 5069 H 489.732 3.97341 -0.143535 0
M  V30 5070 N 490.729 0.570148 1.46925 0
M  V30 5071 C 492.145 0.23087 1.57921 0
M  V30 5072 C 492.345 -1.26676 1.56702 0
M  V30 5073 O 491.401 -2.04774 1.47729 0
M  V30 5074 C 492.714 0.868973 2.8787 0
M  V30 5075 C 494.262 0.841397 3.01479 0
M  V30 5076 C 494.737 1.45881 4.34146 0
M  V30 5077 N 496.228 1.42258 4.40814 0
M  V30 5078 C 496.963 1.8698 5.42057 0
M  V30 5079 N 496.459 2.39618 6.50042 0
M  V30 5080 N 498.252 1.77972 5.33181 0
M  V30 5081 H 490.403 1.54301 1.45962 0
M  V30 5082 H 492.666 0.644224 0.69547 0
M  V30 5083 H 492.372 1.922 2.94537 0
M  V30 5084 H 492.246 0.369682 3.75384 0
M  V30 5085 H 494.633 -0.202973 2.94401 0
M  V30 5086 H 494.714 1.37858 2.15474 0
M  V30 5087 H 494.358 2.50231 4.4198 0
M  V30 5088 H 494.288 0.896958 5.18905 0
M  V30 5089 H 496.779 1.03768 3.63374 0
M  V30 5090 H 497.092 2.71633 7.23488 0
M  V30 5091 H 495.437 2.43636 6.50897 0
M  V30 5092 H 498.628 1.36617 4.4772 0
M  V30 5093 H 498.801 2.13143 6.11943 0
M  V30 5094 N 492.207 -1.54576 0.307264 0
M  V30 5095 C 493.453 -2.0056 -0.300612 0
M  V30 5096 C 493.786 -1.1953 -1.53057 0
M  V30 5097 O 493.061 -0.27337 -1.92569 0
M  V30 5098 C 493.344 -3.54167 -0.650987 0
M  V30 5099 C 493.197 -4.45933 0.588539 0
M  V30 5100 C 494.516 -4.14645 -1.47506 0
M  V30 5101 H 491.635 -0.729075 -0.107788 0
M  V30 5102 H 494.277 -1.85286 0.420606 0
M  V30 5103 H 492.427 -3.67313 -1.26544 0
M  V30 5104 H 494.099 -4.44683 1.22697 0
M  V30 5105 H 492.342 -4.16274 1.22058 0
M  V30 5106 H 493.013 -5.51189 0.299153 0
M  V30 5107 H 495.489 -4.04973 -0.955821 0
M  V30 5108 H 494.365 -5.22269 -1.68899 0
M  V30 5109 H 494.626 -3.66921 -2.4662 0
M  V30 5110 N 493.685 -0.035106 -1.57561 0
M  V30 5111 C 494.632 0.94474 -2.10578 0
M  V30 5112 C 495.602 1.3192 -1.00927 0
M  V30 5113 O 496.787 1.41147 -1.28382 0
M  V30 5114 C 493.927 2.21982 -2.64231 0
M  V30 5115 C 493.04 1.90128 -3.87911 0
M  V30 5116 C 492.175 3.11975 -4.29936 0
M  V30 5117 C 491.214 2.75968 -5.46359 0
M  V30 5118 N 490.351 3.90459 -5.83512 0
M  V30 5119 H 495.191 0.485717 -2.94015 0
M  V30 5120 H 492.728 0.228143 -1.4532 0
M  V30 5121 H 494.686 2.96572 -2.9343 0
M  V30 5122 H 493.316 2.6549 -1.83616 0
M  V30 5123 H 492.368 1.05755 -3.65404 0
M  V30 5124 H 493.68 1.59613 -4.72573 0
M  V30 5125 H 492.834 3.9488 -4.60603 0
M  V30 5126 H 491.573 3.45657 -3.44053 0
M  V30 5127 H 490.578 1.91478 -5.1538 0
M  V30 5128 H 491.803 2.43497 -6.33945 0
M  V30 5129 H 489.749 4.23971 -5.00584 0
M  V30 5130 H 489.666 3.63588 -6.62827 0
M  V30 5131 H 490.934 4.7405 -6.18787 0
M  V30 5132 N 495.163 1.55791 0.238111 0
M  V30 5133 C 496.579 1.48411 0.587045 0
M  V30 5134 C 496.779 0.72702 1.87927 0
M  V30 5135 O 495.835 0.259942 2.51158 0
M  V30 5136 C 497.148 2.92873 0.681623 0
M  V30 5137 C 498.696 3.03295 0.773363 0
M  V30 5138 C 499.171 4.49082 0.899428 0
M  V30 5139 N 500.662 4.53056 0.964075 0
M  V30 5140 C 501.397 5.63117 1.08104 0
M  V30 5141 N 500.893 6.82969 1.16299 0
M  V30 5142 N 502.686 5.50933 1.11488 0
M  V30 5143 H 494.837 2.0345 -0.610076 0
M  V30 5144 H 497.1 0.924034 -0.211813 0
M  V30 5145 H 496.806 3.51142 -0.19802 0
M  V30 5146 H 496.68 3.43851 1.55069 0
M  V30 5147 H 499.067 2.45101 1.64346 0
M  V30 5148 H 499.148 2.55513 -0.121034 0
M  V30 5149 H 498.792 5.07889 0.0338586 0
M  V30 5150 H 498.722 4.94553 1.809 0
M  V30 5151 H 501.213 3.66737 0.91173 0
M  V30 5152 H 501.526 7.62598 1.25155 0
M  V30 5153 H 499.871 6.85712 1.13241 0
M  V30 5154 H 503.062 4.56231 1.0474 0
M  V30 5155 H 503.235 6.36743 1.20259 0
M  V30 5156 N 496.642 -0.504142 1.49319 0
M  V30 5157 C 497.891 -1.25507 1.57895 0
M  V30 5158 C 498.204 -1.93735 0.269433 0
M  V30 5159 O 499.41 -2.70492 0.233706 0
M  V30 5160 C 497.866 -2.27869 2.78574 0
M  V30 5161 C 497.474 -1.65594 4.16272 0
M  V30 5162 C 499.218 -3.0381 2.96479 0
M  V30 5163 C 497.125 -2.66048 5.28178 0
M  V30 5164 H 496.055 -0.47212 0.587894 0
M  V30 5165 H 498.706 -0.52931 1.757 0
M  V30 5166 H 497.088 -3.03594 2.54257 0
M  V30 5167 H 498.262 -0.958826 4.50714 0
M  V30 5168 H 496.577 -1.02055 4.037 0
M  V30 5169 H 499.174 -3.78925 3.77253 0
M  V30 5170 H 499.517 -3.61235 2.06918 0
M  V30 5171 H 500.05 -2.352 3.20821 0
M  V30 5172 H 496.789 -2.13408 6.19788 0
M  V30 5173 H 496.309 -3.34009 4.98195 0
M  V30 5174 H 497.988 -3.28536 5.57381 0
M  V30 5175 N 498.12 -1.38341 -0.754957 0
M  V30 5176 C 499.07 -1.31964 -1.85929 0
M  V30 5177 C 500.054 -0.204181 -1.59599 0
M  V30 5178 O 501.246 -0.440036 -1.71443 0
M  V30 5179 C 498.375 -1.14565 -3.2362 0
M  V30 5180 C 497.461 -2.30727 -3.55846 0
M  V30 5181 N 497.852 -3.56165 -3.59138 0
M  V30 5182 C 496.15 -2.23249 -3.86104 0
M  V30 5183 C 496.851 -4.32865 -3.88591 0
M  V30 5184 N 495.827 -3.62203 -4.05351 0
M  V30 5185 H 499.629 -2.2694 -1.8675 0
M  V30 5186 H 497.143 -1.31553 -0.952243 0
M  V30 5187 H 499.14 -1.0808 -4.02647 0
M  V30 5188 H 497.8 -0.205212 -3.24051 0
M  V30 5189 H 498.811 -3.89854 -3.40932 0
M  V30 5190 H 495.488 -1.37357 -3.94258 0
M  V30 5191 H 496.878 -5.41504 -3.97773 0
M  V30 5192 N 499.598 0.982988 -1.23187 0
M  V30 5193 C 500.823 1.76455 -1.08988 0
M  V30 5194 C 501.248 1.84726 0.354691 0
M  V30 5195 O 500.606 1.30699 1.25649 0
M  V30 5196 C 500.654 3.17094 -1.71708 0
M  V30 5197 O 499.758 4.00648 -0.977477 0
M  V30 5198 H 499.099 0.542988 -0.382177 0
M  V30 5199 H 501.629 1.23413 -1.63188 0
M  V30 5200 H 501.639 3.67684 -1.76841 0
M  V30 5201 H 500.314 3.10389 -2.76823 0
M  V30 5202 H 498.891 3.59161 -1.0029 0
M  V30 5203 N 501.076 1.04316 1.18135 0
M  V30 5204 C 502.353 0.662166 1.84051 0
M  V30 5205 C 502.733 -0.858169 1.9287 0
M  V30 5206 O 502.081 -1.76062 1.45652 0
M  V30 5207 C 502.291 1.3409 3.22212 0
M  V30 5208 C 503.639 1.4733 3.9822 0
M  V30 5209 O 504.663 1.29921 3.31661 0
M  V30 5210 O 503.522 1.75722 5.17479 0
M  V30 5211 H 500.616 0.232005 0.79379 0
M  V30 5212 H 503.162 1.1422 1.25506 0
M  V30 5213 H 501.934 2.37853 3.10711 0
M  V30 5214 H 501.557 0.849649 3.88416 0
M  V30 5215 N 502.554 -1.34406 0.822964 0
M  V30 5216 C 503.782 -2.02508 0.424039 0
M  V30 5217 C 504.197 -1.61975 -0.970022 0
M  V30 5218 O 503.554 -0.825228 -1.62777 0
M  V30 5219 C 503.605 -3.57789 0.516657 0
M  V30 5220 O 503.326 -3.96853 1.85577 0
M  V30 5221 C 504.827 -4.43157 0.112637 0
M  V30 5222 H 502.047 -0.649063 0.170173 0
M  V30 5223 H 504.591 -1.7168 1.11113 0
M  V30 5224 H 502.746 -3.87207 -0.122353 0
M  V30 5225 H 503.16 -4.91538 1.83005 0
M  V30 5226 H 504.634 -5.51527 0.228526 0
M  V30 5227 H 505.111 -4.28939 -0.943837 0
M  V30 5228 H 505.717 -4.19067 0.725449 0
M  V30 5229 N 504.032 -0.577932 -1.46621 0
M  V30 5230 C 505.279 -0.0616879 -2.02406 0
M  V30 5231 C 505.607 1.29638 -1.44997 0
M  V30 5232 O 504.862 1.86176 -0.60308 0
M  V30 5233 C 505.161 0.0590832 -3.57351 0
M  V30 5234 C 504.827 -1.23077 -4.33777 0
M  V30 5235 C 503.489 -1.58416 -4.54376 0
M  V30 5236 C 505.841 -2.08457 -4.77698 0
M  V30 5237 C 503.169 -2.78943 -5.16147 0
M  V30 5238 C 505.521 -3.28204 -5.408 0
M  V30 5239 C 504.185 -3.63832 -5.59627 0
M  V30 5240 H 503.455 -0.0225732 -0.740656 0
M  V30 5241 H 506.102 -0.753609 -1.76048 0
M  V30 5242 H 504.407 0.834104 -3.82818 0
M  V30 5243 H 506.104 0.474202 -3.98186 0
M  V30 5244 H 502.694 -0.945652 -4.18038 0
M  V30 5245 H 506.878 -1.82459 -4.61544 0
M  V30 5246 H 502.134 -3.06689 -5.28916 0
M  V30 5247 H 506.308 -3.94634 -5.73792 0
M  V30 5248 H 503.935 -4.57315 -6.07262 0
M  V30 5249 N 505.51 1.54411 -0.315457 0
M  V30 5250 C 506.473 2.22713 0.54142 0
M  V30 5251 C 507.473 1.2179 1.04995 0
M  V30 5252 O 508.663 1.46426 0.943667 0
M  V30 5253 C 505.795 2.92485 1.75116 0
M  V30 5254 H 506.988 2.99849 -0.0555508 0
M  V30 5255 H 504.541 1.56159 -0.0664453 0
M  V30 5256 H 505.276 2.19466 2.38758 0
M  V30 5257 H 505.061 3.66483 1.39401 0
M  V30 5258 H 506.551 3.44548 2.35959 0
M  V30 5259 N 506.988 0.0434614 1.5754 0
M  V30 5260 C 508.213 -0.645358 1.97104 0
M  V30 5261 C 508.638 -1.64037 0.920521 0
M  V30 5262 O 507.996 -1.80922 -0.11708 0
M  V30 5263 C 508.044 -1.31547 3.35749 0
M  V30 5264 O 507.148 -2.43103 3.33129 0
M  V30 5265 H 506.489 -0.168403 0.64229 0
M  V30 5266 H 509.019 0.109573 2.04306 0
M  V30 5267 H 509.029 -1.66895 3.72304 0
M  V30 5268 H 507.704 -0.586205 4.11748 0
M  V30 5269 H 506.281 -2.0976 3.0831 0
M  V30 5270 N 508.466 -1.55915 -0.229846 0
M  V30 5271 C 509.714 -1.7819 -0.953565 0
M  V30 5272 C 510.035 -0.610504 -1.85197 0
M  V30 5273 O 509.305 0.372988 -1.92316 0
M  V30 5274 H 507.885 -0.657208 -0.355087 0
M  V30 5275 H 510.547 -1.9337 -0.243693 0
M  V30 5276 H 509.643 -2.70011 -1.56527 0
M  V30 5277 N 509.944 0.496216 -1.49584 0
M  V30 5278 C 511.192 1.24756 -1.58998 0
M  V30 5279 C 511.513 1.92968 -0.280775 0
M  V30 5280 O 510.783 1.82959 0.700198 0
M  V30 5281 H 509.363 0.463471 -0.585836 0
M  V30 5282 H 512.025 0.574678 -1.86235 0
M  V30 5283 H 511.121 2.00895 -2.38847 0
M  V30 5284 N 511.423 1.38739 0.74761 0
M  V30 5285 C 512.333 1.38696 1.89211 0
M  V30 5286 C 513.349 0.283303 1.71678 0
M  V30 5287 O 514.525 0.522713 1.94498 0
M  V30 5288 C 511.59 1.21662 3.24653 0
M  V30 5289 C 510.651 2.41886 3.54669 0
M  V30 5290 C 509.884 2.25655 4.83648 0
M  V30 5291 O 510.107 1.25339 5.56459 0
M  V30 5292 O 509.041 3.14372 5.13277 0
M  V30 5293 H 512.867 2.35143 1.92202 0
M  V30 5294 H 510.452 1.19721 0.893708 0
M  V30 5295 H 512.334 1.14246 4.05618 0
M  V30 5296 H 511.009 0.283024 3.2246 0
M  V30 5297 H 509.916 2.54877 2.73841 0
M  V30 5298 H 511.249 3.33895 3.61628 0
M  V30 5299 N 512.901 -0.976442 1.23707 0
M  V30 5300 C 514.317 -1.24341 1.00058 0
M  V30 5301 C 514.517 -1.99315 -0.295932 0
M  V30 5302 O 513.573 -2.3123 -1.01435 0
M  V30 5303 C 514.886 -2.03909 2.21001 0
M  V30 5304 C 516.434 -2.17034 2.25534 0
M  V30 5305 C 516.909 -2.99994 3.46075 0
M  V30 5306 N 518.4 -3.07578 3.46338 0
M  V30 5307 C 519.135 -3.72104 4.36264 0
M  V30 5308 N 518.631 -4.3842 5.36432 0
M  V30 5309 N 520.424 -3.69029 4.23998 0
M  V30 5310 H 512.575 -0.47428 2.07037 0
M  V30 5311 H 514.838 -0.272167 0.908091 0
M  V30 5312 H 514.544 -1.56198 3.15111 0
M  V30 5313 H 514.418 -3.04654 2.22409 0
M  V30 5314 H 516.805 -2.63951 1.31961 0
M  V30 5315 H 516.886 -1.15664 2.28156 0
M  V30 5316 H 516.53 -2.53772 4.39957 0
M  V30 5317 H 516.46 -4.01541 3.40694 0
M  V30 5318 H 518.951 -2.60397 2.73865 0
M  V30 5319 H 519.264 -4.85447 6.013 0
M  V30 5320 H 517.609 -4.37116 5.40328 0
M  V30 5321 H 520.8 -3.16392 3.44984 0
M  V30 5322 H 520.973 -4.19034 4.94282 0
M  V30 5323 N 514.379 -1.04941 -1.1758 0
M  V30 5324 C 515.342 -0.652456 -2.19717 0
M  V30 5325 C 516.342 0.294745 -1.58076 0
M  V30 5326 O 517.532 0.0789579 -1.74021 0
M  V30 5327 C 514.664 0.0420712 -3.40874 0
M  V30 5328 H 515.857 -1.55642 -2.5635 0
M  V30 5329 H 513.41 -0.842995 -1.31618 0
M  V30 5330 H 514.145 0.95943 -3.09783 0
M  V30 5331 H 513.93 -0.638844 -3.86861 0
M  V30 5332 H 515.42 0.306 -4.16477 0
M  V30 5333 N 515.857 1.33968 -0.830081 0
M  V30 5334 C 517.273 1.51003 -0.516742 0
M  V30 5335 C 517.473 1.77286 0.957694 0
M  V30 5336 O 516.529 1.82797 1.74188 0
M  V30 5337 C 517.842 2.67036 -1.38247 0
M  V30 5338 C 519.39 2.80919 -1.38034 0
M  V30 5339 C 519.865 4.00004 -2.23071 0
M  V30 5340 N 521.356 4.07224 -2.20733 0
M  V30 5341 C 522.091 4.98541 -2.83275 0
M  V30 5342 N 521.587 5.95033 -3.54835 0
M  V30 5343 N 523.38 4.91469 -2.72791 0
M  V30 5344 H 515.531 1.15168 -1.78466 0
M  V30 5345 H 517.794 0.565443 -0.760906 0
M  V30 5346 H 517.5 2.54266 -2.42985 0
M  V30 5347 H 517.374 3.62226 -1.05225 0
M  V30 5348 H 519.761 2.93127 -0.340713 0
M  V30 5349 H 519.842 1.86517 -1.75057 0
M  V30 5350 H 519.486 3.88557 -3.27087 0
M  V30 5351 H 519.416 4.93634 -1.83394 0
M  V30 5352 H 521.907 3.38162 -1.68687 0
M  V30 5353 H 522.22 6.61357 -3.99784 0
M  V30 5354 H 520.565 5.95135 -3.58942 0
M  V30 5355 H 523.756 4.15048 -2.16456 0
M  V30 5356 H 523.929 5.62439 -3.21818 0
M  V30 5357 N 517.335 0.585699 1.46312 0
M  V30 5358 C 518.582 0.0724211 2.0237 0
M  V30 5359 C 518.91 -1.28868 1.45683 0
M  V30 5360 O 518.165 -1.85853 0.612945 0
M  V30 5361 C 518.464 -0.0401312 3.57377 0
M  V30 5362 C 518.13 1.25376 4.33119 0
M  V30 5363 C 516.792 1.60824 4.5353 0
M  V30 5364 C 519.144 2.10987 4.76586 0
M  V30 5365 C 516.472 2.81676 5.14661 0
M  V30 5366 C 518.824 3.31068 5.39052 0
M  V30 5367 C 517.488 3.66794 5.5769 0
M  V30 5368 H 516.758 0.0265007 0.740526 0
M  V30 5369 H 519.405 0.762935 1.75646 0
M  V30 5370 H 517.71 -0.813791 3.83255 0
M  V30 5371 H 519.407 -0.453078 3.98432 0
M  V30 5372 H 515.997 0.967808 4.1753 0
M  V30 5373 H 520.181 1.84904 4.60569 0
M  V30 5374 H 515.437 3.0949 5.27282 0
M  V30 5375 H 519.611 3.97672 5.71691 0
M  V30 5376 H 517.238 4.60529 6.04828 0
M  V30 5377 N 518.813 -1.54241 0.323641 0
M  V30 5378 C 520.053 -2.0248 -0.279502 0
M  V30 5379 C 520.417 -1.20672 -1.49339 0
M  V30 5380 O 521.618 -1.58715 -2.1694 0
M  V30 5381 C 519.889 -3.52238 -0.605266 0
M  V30 5382 S 521.448 -4.22411 -1.18805 0
M  V30 5383 H 518.266 -0.705957 -0.0845313 0
M  V30 5384 H 520.868 -1.90089 0.456781 0
M  V30 5385 H 519.572 -4.094 0.286339 0
M  V30 5386 H 519.103 -3.6871 -1.37174 0
M  V30 5387 H 521.118 -4.30075 -2.47487 0
M  V30 5388 N 520.291 -0.0518155 -1.57515 0
M  V30 5389 C 521.702 0.483787 -1.80323 0
M  V30 5390 C 522.053 1.70879 -0.964099 0
M  V30 5391 O 521.178 2.15643 -0.180872 0
M  V30 5392 C 521.773 0.884459 -3.27052 0
M  V30 5393 C 520.332 1.36504 -3.50776 0
M  V30 5394 C 519.479 0.340539 -2.75201 0
M  V30 5395 H 522.43 -0.277691 -1.56252 0
M  V30 5396 H 522.451 1.74733 -3.38007 0
M  V30 5397 H 521.963 -0.00731093 -3.88099 0
M  V30 5398 H 520.064 2.27598 -2.95009 0
M  V30 5399 H 520.177 1.35675 -4.59488 0
M  V30 5400 H 518.541 0.81356 -2.41357 0
M  V30 5401 H 519.324 -0.543156 -3.38976 0
M  V30 5402 N 521.769 1.56035 0.221574 0
M  V30 5403 C 523.185 1.49026 0.571271 0
M  V30 5404 C 523.385 0.746912 1.87146 0
M  V30 5405 O 522.441 0.286566 2.50869 0
M  V30 5406 C 523.754 2.93579 0.650522 0
M  V30 5407 C 525.302 3.04099 0.741151 0
M  V30 5408 C 525.777 4.5001 0.851747 0
M  V30 5409 N 527.268 4.54053 0.915968 0
M  V30 5410 C 528.003 5.64232 1.02125 0
M  V30 5411 N 527.499 6.84164 1.09049 0
M  V30 5412 N 529.292 5.52084 1.05639 0
M  V30 5413 H 521.443 2.02791 -0.63162 0
M  V30 5414 H 523.706 0.921736 -0.221602 0
M  V30 5415 H 523.412 3.50912 -0.235253 0
M  V30 5416 H 523.286 3.45476 1.51413 0
M  V30 5417 H 525.673 2.4683 1.61737 0
M  V30 5418 H 525.754 2.55371 -0.148128 0
M  V30 5419 H 525.398 5.07896 -0.0200117 0
M  V30 5420 H 525.328 4.96444 1.75644 0
M  V30 5421 H 527.819 3.67683 0.872782 0
M  V30 5422 H 528.132 7.63883 1.1706 0
M  V30 5423 H 526.477 6.86875 1.05962 0
M  V30 5424 H 529.668 4.57317 0.998953 0
M  V30 5425 H 529.841 6.37983 1.13498 0
M  V30 5426 N 523.247 -0.488276 1.49845 0
M  V30 5427 C 524.197 -1.58556 1.63842 0
M  V30 5428 C 525.181 -1.53142 0.493586 0
M  V30 5429 O 526.373 -1.60457 0.747169 0
M  V30 5430 C 523.502 -2.97101 1.72005 0
M  V30 5431 C 522.588 -3.07463 2.92108 0
M  V30 5432 N 522.979 -2.87681 4.16021 0
M  V30 5433 C 521.277 -3.3858 2.90309 0
M  V30 5434 C 521.978 -3.0256 4.96822 0
M  V30 5435 N 520.954 -3.32002 4.30437 0
M  V30 5436 H 524.756 -1.41935 2.57355 0
M  V30 5437 H 522.27 -0.694668 1.46793 0
M  V30 5438 H 524.267 -3.75976 1.80132 0
M  V30 5439 H 522.927 -3.14782 0.796375 0
M  V30 5440 H 523.938 -2.63603 4.45796 0
M  V30 5441 H 520.615 -3.62357 2.07372 0
M  V30 5442 H 522.005 -2.9165 6.05301 0
M  V30 5443 N 524.725 -1.39134 -0.740242 0
M  V30 5444 C 525.635 -1.39697 -1.88473 0
M  V30 5445 C 526.651 -0.292403 -1.71526 0
M  V30 5446 O 527.827 -0.533021 -1.94219 0
M  V30 5447 C 524.892 -1.23382 -3.24003 0
M  V30 5448 C 523.953 -2.43763 -3.53381 0
M  V30 5449 C 523.186 -2.28216 -4.82445 0
M  V30 5450 O 523.409 -1.28288 -5.55786 0
M  V30 5451 O 522.343 -3.1709 -5.11603 0
M  V30 5452 H 526.169 -2.36159 -1.90952 0
M  V30 5453 H 523.754 -1.20194 -0.887346 0
M  V30 5454 H 525.636 -1.16395 -4.05006 0
M  V30 5455 H 524.311 -0.300121 -3.22306 0
M  V30 5456 H 523.218 -2.56325 -2.72485 0
M  V30 5457 H 524.551 -3.35808 -3.59852 0
M  V30 5458 N 526.204 0.969867 -1.24223 0
M  V30 5459 C 527.481 1.68774 -0.988664 0
M  V30 5460 C 527.861 2.05342 0.489673 0
M  V30 5461 O 527.209 1.75486 1.46345 0
M  V30 5462 C 527.419 2.92135 -1.90941 0
M  V30 5463 C 528.767 3.64422 -2.17903 0
M  V30 5464 O 529.791 3.02188 -1.88576 0
M  V30 5465 O 528.65 4.76446 -2.67697 0
M  V30 5466 H 525.744 0.737736 -0.37373 0
M  V30 5467 H 528.29 1.02415 -1.35312 0
M  V30 5468 H 527.062 2.61788 -2.90831 0
M  V30 5469 H 526.685 3.66228 -1.54798 0
M  V30 5470 N 527.682 1.05563 1.17022 0
M  V30 5471 C 528.615 0.604197 2.20056 0
M  V30 5472 C 529.593 -0.369169 1.58354 0
M  V30 5473 O 530.777 -0.279898 1.8641 0
M  V30 5474 C 527.904 -0.115265 3.38504 0
M  V30 5475 C 526.95 0.813698 4.18666 0
M  V30 5476 S 527.783 2.30492 4.83357 0
M  V30 5477 C 528.939 1.59674 6.0519 0
M  V30 5478 H 529.172 1.47713 2.58008 0
M  V30 5479 H 526.705 0.867932 1.27696 0
M  V30 5480 H 528.663 -0.524162 4.0714 0
M  V30 5481 H 527.324 -0.964284 2.98932 0
M  V30 5482 H 526.517 0.256736 5.03346 0
M  V30 5483 H 526.119 1.16213 3.55486 0
M  V30 5484 H 528.411 0.898164 6.7152 0
M  V30 5485 H 529.354 2.42115 6.65422 0
M  V30 5486 H 529.762 1.08252 5.54023 0
M  V30 5487 N 529.16 -1.33526 0.837174 0
M  V30 5488 C 530.388 -2.02047 0.445494 0
M  V30 5489 C 530.803 -1.62995 -0.952788 0
M  V30 5490 O 530.16 -0.842447 -1.61892 0
M  V30 5491 C 530.211 -3.57221 0.554577 0
M  V30 5492 O 529.932 -3.94863 1.89776 0
M  V30 5493 C 531.433 -4.43012 0.159634 0
M  V30 5494 H 528.653 -0.647221 0.177048 0
M  V30 5495 H 531.197 -1.70492 1.12928 0
M  V30 5496 H 529.352 -3.87315 -0.0812781 0
M  V30 5497 H 529.766 -4.89569 1.88208 0
M  V30 5498 H 531.24 -5.51253 0.28701 0
M  V30 5499 H 531.717 -4.29916 -0.898289 0
M  V30 5500 H 532.323 -4.18274 0.769855 0
M  V30 5501 N 530.638 -0.59345 -1.46 0
M  V30 5502 C 531.568 0.121192 -2.33185 0
M  V30 5503 C 532.549 0.872977 -1.4599 0
M  V30 5504 O 533.734 0.846321 -1.74789 0
M  V30 5505 C 530.864 1.12844 -3.28456 0
M  V30 5506 C 529.818 0.4908 -4.25177 0
M  V30 5507 C 529.144 1.60529 -5.10034 0
M  V30 5508 C 530.444 -0.578949 -5.19081 0
M  V30 5509 H 532.138 -0.606767 -2.93187 0
M  V30 5510 H 529.684 -0.293242 -1.40983 0
M  V30 5511 H 531.637 1.63684 -3.88311 0
M  V30 5512 H 530.361 1.88681 -2.66584 0
M  V30 5513 H 529.02 0.00339328 -3.666 0
M  V30 5514 H 528.668 2.35359 -4.44539 0
M  V30 5515 H 528.368 1.18422 -5.75543 0
M  V30 5516 H 529.892 2.11623 -5.72755 0
M  V30 5517 H 531.306 -0.155199 -5.7309 0
M  V30 5518 H 529.703 -0.920947 -5.92991 0
M  V30 5519 H 530.773 -1.46109 -4.62364 0
M  V30 5520 N 532.116 1.54067 -0.331816 0
M  V30 5521 C 533.046 2.27569 0.522932 0
M  V30 5522 C 534.027 1.28679 1.11247 0
M  V30 5523 O 535.212 1.57504 1.13605 0
M  V30 5524 C 532.342 3.0397 1.67987 0
M  V30 5525 C 531.296 4.10267 1.21924 0
M  V30 5526 C 530.622 4.74555 2.46377 0
M  V30 5527 C 531.922 5.21268 0.32815 0
M  V30 5528 H 533.616 2.99264 -0.0901977 0
M  V30 5529 H 531.162 1.4393 -0.044821 0
M  V30 5530 H 533.115 3.54123 2.28418 0
M  V30 5531 H 531.839 2.29906 2.31971 0
M  V30 5532 H 530.498 3.61009 0.637809 0
M  V30 5533 H 530.146 3.97098 3.08743 0
M  V30 5534 H 529.846 5.46363 2.16243 0
M  V30 5535 H 531.37 5.27487 3.07555 0
M  V30 5536 H 532.784 5.67128 0.838978 0
M  V30 5537 H 531.181 5.99982 0.119228 0
M  V30 5538 H 532.251 4.80673 -0.638839 0
M  V30 5539 N 533.594 0.0601682 1.57485 0
M  V30 5540 C 534.84 -0.612501 1.93329 0
M  V30 5541 C 535.173 -1.6996 0.939526 0
M  V30 5542 O 534.448 -1.94472 -0.0330957 0
M  V30 5543 C 534.731 -1.20025 3.39508 0
M  V30 5544 C 534.584 -0.12059 4.49638 0
M  V30 5545 C 535.903 -2.10923 3.86264 0
M  V30 5546 H 533.022 -0.221185 0.703027 0
M  V30 5547 H 535.664 0.123768 1.89596 0
M  V30 5548 H 533.814 -1.82774 3.42821 0
M  V30 5549 H 535.486 0.51185 4.58452 0
M  V30 5550 H 533.729 0.550251 4.30296 0
M  V30 5551 H 534.4 -0.572019 5.49028 0
M  V30 5552 H 536.876 -1.58124 3.84884 0
M  V30 5553 H 535.752 -2.48987 4.8918 0
M  V30 5554 H 536.013 -3.01292 3.23536 0
M  V30 5555 N 535.072 -1.5615 -0.213296 0
M  V30 5556 C 536.488 -1.49327 -0.56336 0
M  V30 5557 C 536.688 -0.756826 -1.86747 0
M  V30 5558 O 535.744 -0.299866 -2.50713 0
M  V30 5559 C 537.057 -2.9392 -0.634944 0
M  V30 5560 C 538.605 -3.04487 -0.725013 0
M  V30 5561 C 539.08 -4.50456 -0.82787 0
M  V30 5562 N 540.571 -4.54533 -0.891876 0
M  V30 5563 C 541.306 -5.64766 -0.991315 0
M  V30 5564 N 540.802 -6.84733 -1.05419 0
M  V30 5565 N 542.595 -5.52637 -1.02709 0
M  V30 5566 H 534.746 -2.02453 0.642366 0
M  V30 5567 H 537.009 -0.920548 0.226487 0
M  V30 5568 H 536.715 -3.50783 0.253859 0
M  V30 5569 H 536.589 -3.46274 -1.49579 0
M  V30 5570 H 538.976 -2.47685 -1.60425 0
M  V30 5571 H 539.057 -2.55289 0.161669 0
M  V30 5572 H 538.701 -5.07878 0.0469464 0
M  V30 5573 H 538.631 -4.97369 -1.73009 0
M  V30 5574 H 541.122 -3.68141 -0.85327 0
M  V30 5575 H 541.435 -7.64493 -1.13007 0
M  V30 5576 H 539.78 -6.87427 -1.02318 0
M  V30 5577 H 542.971 -4.5784 -0.974687 0
M  V30 5578 H 543.144 -6.38576 -1.10113 0
M  V30 5579 N 536.55 0.480323 -1.50102 0
M  V30 5580 C 537.498 1.60024 -1.68805 0
M  V30 5581 C 538.492 1.60089 -0.553888 0
M  V30 5582 O 539.698 1.64349 -0.734127 0
M  V30 5583 H 536.073 0.530841 -0.532646 0
M  V30 5584 H 538.044 1.41408 -2.62767 0
M  V30 5585 C 536.793 2.98029 -1.79092 0
M  V30 5586 H 536.116 2.98694 -2.65748 0
M  V30 5587 H 537.556 3.75871 -1.96206 0
M  V30 5588 C 536.015 3.32538 -0.540388 0
M  V30 5589 O 536.545 4.00386 0.324637 0
M  V30 5590 N 534.751 2.87873 -0.397154 0
M  V30 5591 H 534.298 2.32834 -1.1021 0
M  V30 5592 H 534.256 3.11328 0.438425 0
M  V30 5593 N 538.028 1.39524 0.732853 0
M  V30 5594 C 539.275 1.36865 1.49246 0
M  V30 5595 C 539.603 -0.0347118 1.94469 0
M  V30 5596 O 538.858 -1.01596 1.67262 0
M  V30 5597 C 539.157 2.28916 2.74468 0
M  V30 5598 C 538.823 3.76506 2.481 0
M  V30 5599 C 537.485 4.16721 2.40619 0
M  V30 5600 C 539.837 4.69846 2.25598 0
M  V30 5601 C 537.165 5.48334 2.08679 0
M  V30 5602 C 539.517 6.01739 1.95174 0
M  V30 5603 C 538.181 6.41015 1.86163 0
M  V30 5604 H 537.451 0.500824 0.546129 0
M  V30 5605 H 540.098 1.72047 0.840958 0
M  V30 5606 H 538.403 1.86859 3.4437 0
M  V30 5607 H 540.1 2.2415 3.32502 0
M  V30 5608 H 536.69 3.44635 2.54803 0
M  V30 5609 H 540.874 4.39608 2.30344 0
M  V30 5610 H 536.13 5.77685 2.00226 0
M  V30 5611 H 540.304 6.73591 1.76771 0
M  V30 5612 H 537.931 7.42917 1.61179 0
M  V30 5613 N 539.506 -0.963266 1.24736 0
M  V30 5614 C 540.754 -1.70343 1.08755 0
M  V30 5615 C 541.075 -1.91387 -0.373619 0
M  V30 5616 O 540.345 -1.4948 -1.2662 0
M  V30 5617 H 538.925 -0.631224 0.399456 0
M  V30 5618 H 541.587 -1.15859 1.56725 0
M  V30 5619 H 540.683 -2.68616 1.58909 0
M  V30 5620 N 540.985 -1.06182 -1.16461 0
M  V30 5621 C 542.215 -0.797425 -1.9059 0
M  V30 5622 C 542.623 0.651845 -1.77616 0
M  V30 5623 O 541.966 1.45788 -1.11766 0
M  V30 5624 C 542.028 -1.11128 -3.41893 0
M  V30 5625 C 541.692 -2.55874 -3.78652 0
M  V30 5626 C 542.689 -3.54104 -3.80665 0
M  V30 5627 C 540.374 -2.91144 -4.09317 0
M  V30 5628 C 542.368 -4.85645 -4.12829 0
M  V30 5629 C 540.055 -4.22885 -4.41148 0
M  V30 5630 C 541.053 -5.19945 -4.42883 0
M  V30 5631 O 540.741 -6.49322 -4.73959 0
M  V30 5632 H 540.473 -0.288709 -0.611247 0
M  V30 5633 H 543.027 -1.41841 -1.4856 0
M  V30 5634 H 541.257 -0.433217 -3.84266 0
M  V30 5635 H 542.946 -0.831306 -3.97296 0
M  V30 5636 H 543.712 -3.28197 -3.57088 0
M  V30 5637 H 539.591 -2.16252 -4.07131 0
M  V30 5638 H 543.135 -5.61398 -4.14099 0
M  V30 5639 H 539.032 -4.48551 -4.6419 0
M  V30 5640 H 539.8 -6.54294 -4.91774 0
M  V30 5641 N 542.463 1.3308 -0.844243 0
M  V30 5642 C 543.874 1.7992 -0.498566 0
M  V30 5643 C 544.225 1.69808 0.982834 0
M  V30 5644 O 543.35 1.25051 1.7661 0
M  V30 5645 C 543.945 3.26677 -0.898204 0
M  V30 5646 C 542.504 3.71513 -0.604583 0
M  V30 5647 C 541.651 2.54393 -1.10362 0
M  V30 5648 H 544.602 1.20526 -1.03244 0
M  V30 5649 H 544.623 3.79918 -0.21039 0
M  V30 5650 H 544.135 3.34004 -1.97643 0
M  V30 5651 H 542.236 3.69708 0.46335 0
M  V30 5652 H 542.349 4.64755 -1.16358 0
M  V30 5653 H 540.713 2.49246 -0.524273 0
M  V30 5654 H 541.496 2.6448 -2.18873 0
M  V30 5655 N 543.941 0.601185 1.45683 0
M  V30 5656 C 544.871 -0.108824 2.33246 0
M  V30 5657 C 545.852 -0.865223 1.46451 0
M  V30 5658 O 547.037 -0.83704 1.75235 0
M  V30 5659 C 544.167 -1.11101 3.2905 0
M  V30 5660 C 543.121 -0.468244 4.25431 0
M  V30 5661 C 542.447 -1.57822 5.10878 0
M  V30 5662 C 543.747 0.606469 5.18767 0
M  V30 5663 H 545.441 0.622306 2.92861 0
M  V30 5664 H 542.987 0.300714 1.40825 0
M  V30 5665 H 544.94 -1.61622 3.89174 0
M  V30 5666 H 543.664 -1.87265 2.67581 0
M  V30 5667 H 542.323 0.0160484 3.66596 0
M  V30 5668 H 541.971 -2.32998 4.45781 0
M  V30 5669 H 541.671 -1.15369 5.76163 0
M  V30 5670 H 543.195 -2.08583 5.73869 0
M  V30 5671 H 544.609 0.185589 5.73 0
M  V30 5672 H 543.006 0.952381 5.92494 0
M  V30 5673 H 544.076 1.48559 4.61582 0
M  V30 5674 N 545.419 -1.53889 0.339982 0
M  V30 5675 C 546.667 -2.00458 -0.257112 0
M  V30 5676 C 546.988 -1.22953 -1.51353 0
M  V30 5677 O 546.258 -0.335734 -1.93002 0
M  V30 5678 H 544.838 -0.740544 -0.0979965 0
M  V30 5679 H 547.5 -1.89386 0.460317 0
M  V30 5680 H 546.596 -3.08035 -0.502057 0
M  V30 5681 N 546.897 -0.0685191 -1.57451 0
M  V30 5682 C 547.807 0.914677 -2.16034 0
M  V30 5683 C 548.823 1.32938 -1.12265 0
M  V30 5684 O 549.999 1.40275 -1.44516 0
M  V30 5685 C 547.064 2.16519 -2.70777 0
M  V30 5686 C 546.125 1.80721 -3.89408 0
M  V30 5687 C 545.358 2.9981 -4.41531 0
M  V30 5688 O 545.581 4.13727 -3.92666 0
M  V30 5689 O 544.515 2.79817 -5.32903 0
M  V30 5690 H 548.341 0.446364 -3.00402 0
M  V30 5691 H 545.926 0.154367 -1.486 0
M  V30 5692 H 547.808 2.89856 -3.05878 0
M  V30 5693 H 546.483 2.62454 -1.89471 0
M  V30 5694 H 545.39 1.04646 -3.59166 0
M  V30 5695 H 546.723 1.39571 -4.71997 0
M  V30 5696 N 548.375 1.56261 0.205012 0
M  V30 5697 C 549.308 1.88797 1.28183 0
M  V30 5698 C 550.286 0.747018 1.44424 0
M  V30 5699 O 551.47 0.997039 1.59973 0
M  V30 5700 C 548.597 2.10949 2.64987 0
M  V30 5701 C 547.643 3.33649 2.6567 0
M  V30 5702 S 548.476 4.89078 2.18088 0
M  V30 5703 C 549.632 5.14286 3.56736 0
M  V30 5704 H 549.865 2.79837 1.00393 0
M  V30 5705 H 547.398 1.48911 0.408042 0
M  V30 5706 H 549.356 2.24395 3.4374 0
M  V30 5707 H 548.017 1.20678 2.89993 0
M  V30 5708 H 547.21 3.46245 3.66239 0
M  V30 5709 H 546.812 3.19146 1.94992 0
M  V30 5710 H 549.104 5.04198 4.52537 0
M  V30 5711 H 550.047 6.16096 3.49043 0
M  V30 5712 H 550.455 4.41957 3.51189 0
M  V30 5713 N 549.853 -0.472356 1.50355 0
M  V30 5714 C 551.078 -1.25251 1.65309 0
M  V30 5715 C 551.503 -1.85081 0.335643 0
M  V30 5716 O 550.861 -1.67227 -0.700335 0
M  V30 5717 C 550.909 -2.3379 2.74544 0
M  V30 5718 O 550.013 -3.38401 2.35709 0
M  V30 5719 H 549.354 -0.368539 0.552336 0
M  V30 5720 H 551.884 -0.562271 1.96722 0
M  V30 5721 H 551.894 -2.79121 2.97583 0
M  V30 5722 H 550.569 -1.89614 3.70161 0
M  V30 5723 H 549.146 -2.9879 2.23112 0
M  V30 5724 N 551.331 -1.39911 -0.725443 0
M  V30 5725 C 552.263 -1.35301 -1.85003 0
M  V30 5726 C 553.276 -0.260102 -1.60709 0
M  V30 5727 O 554.465 -0.519749 -1.70766 0
M  V30 5728 C 551.565 -1.08039 -3.21218 0
M  V30 5729 C 550.738 -2.28793 -3.7279 0
M  V30 5730 C 549.797 -1.97841 -4.87591 0
M  V30 5731 O 548.823 -2.70616 -5.00755 0
M  V30 5732 N 550.025 -0.950367 -5.72668 0
M  V30 5733 H 552.79 -2.32218 -1.89459 0
M  V30 5734 H 550.351 -1.34137 -0.90658 0
M  V30 5735 H 552.343 -0.853354 -3.95601 0
M  V30 5736 H 550.913 -0.198229 -3.11971 0
M  V30 5737 H 550.133 -2.67388 -2.8965 0
M  V30 5738 H 551.421 -3.09317 -4.03981 0
M  V30 5739 H 550.819 -0.347436 -5.64632 0
M  V30 5740 H 549.376 -0.783232 -6.47077 0
M  V30 5741 N 552.809 0.956637 -1.25245 0
M  V30 5742 C 554.22 1.51569 -1.09012 0
M  V30 5743 C 554.571 1.93322 0.334813 0
M  V30 5744 O 553.696 1.78421 1.22454 0
M  V30 5745 C 554.291 2.75444 -1.97271 0
M  V30 5746 C 552.85 3.27669 -1.8523 0
M  V30 5747 C 551.997 2.00517 -1.91542 0
M  V30 5748 H 554.948 0.773746 -1.3856 0
M  V30 5749 H 554.969 3.4919 -1.51151 0
M  V30 5750 H 554.481 2.45024 -3.00973 0
M  V30 5751 H 552.582 3.62914 -0.844045 0
M  V30 5752 H 552.695 3.9582 -2.69932 0
M  V30 5753 H 551.059 2.15727 -1.35404 0
M  V30 5754 H 551.842 1.72448 -2.96844 0
M  V30 5755 N 554.287 1.06798 1.15896 0
M  V30 5756 C 555.515 0.808694 1.90441 0
M  V30 5757 C 555.93 -0.637506 1.77711 0
M  V30 5758 O 555.287 -1.43684 1.12522 0
M  V30 5759 C 555.338 1.20068 3.40978 0
M  V30 5760 O 555.059 2.59013 3.53333 0
M  V30 5761 C 556.56 0.96987 4.3256 0
M  V30 5762 H 553.78 0.292809 0.603742 0
M  V30 5763 H 556.324 1.42296 1.46874 0
M  V30 5764 H 554.479 0.630842 3.82229 0
M  V30 5765 H 554.893 2.7485 4.46719 0
M  V30 5766 H 556.367 1.29371 5.36626 0
M  V30 5767 H 556.844 -0.0941209 4.39099 0
M  V30 5768 H 557.45 1.52433 3.97044 0
M  V30 5769 N 555.766 -1.3263 0.851289 0
M  V30 5770 C 557.177 -1.79653 0.5081 0
M  V30 5771 C 557.528 -1.70327 -0.973815 0
M  V30 5772 O 556.653 -1.25986 -1.75944 0
M  V30 5773 C 557.248 -3.26196 0.915515 0
M  V30 5774 C 555.807 -3.71187 0.624277 0
M  V30 5775 C 554.954 -2.53804 1.11709 0
M  V30 5776 H 557.905 -1.19976 1.03882 0
M  V30 5777 H 557.926 -3.79801 0.230535 0
M  V30 5778 H 557.438 -3.32952 1.99411 0
M  V30 5779 H 555.539 -3.69948 -0.443737 0
M  V30 5780 H 555.652 -4.64132 1.18821 0
M  V30 5781 H 554.016 -2.48964 0.537484 0
M  V30 5782 H 554.799 -2.63315 2.20272 0
M  V30 5783 N 557.244 -0.608902 -1.45362 0
M  V30 5784 C 558.469 -0.10921 -2.07112 0
M  V30 5785 C 558.894 1.19779 -1.45033 0
M  V30 5786 O 558.252 1.72961 -0.543527 0
M  V30 5787 C 558.3 0.0155745 -3.60597 0
M  V30 5788 O 557.404 1.06546 -3.98399 0
M  V30 5789 H 556.745 -0.0746619 -0.659789 0
M  V30 5790 H 559.275 -0.839283 -1.86594 0
M  V30 5791 H 559.285 0.213364 -4.07442 0
M  V30 5792 H 557.96 -0.938765 -4.05167 0
M  V30 5793 H 556.537 0.844024 -3.63223 0
M  V30 5794 N 558.722 1.53707 -0.348139 0
M  V30 5795 C 560.133 1.86213 0.134797 0
M  V30 5796 C 560.484 1.26925 1.49614 0
M  V30 5797 O 559.609 0.584573 2.08355 0
M  V30 5798 C 560.204 3.37866 0.251371 0
M  V30 5799 C 558.763 3.70233 0.678543 0
M  V30 5800 C 557.91 2.76683 -0.184925 0
M  V30 5801 H 560.861 1.48204 -0.567571 0
M  V30 5802 H 560.882 3.64908 1.07806 0
M  V30 5803 H 560.394 3.80988 -0.739581 0
M  V30 5804 H 558.495 3.32659 1.67835 0
M  V30 5805 H 558.608 4.76836 0.465251 0
M  V30 5806 H 556.972 2.52374 0.343465 0
M  V30 5807 H 557.755 3.22635 -1.1731 0
M  V30 5808 N 560.2 0.0768682 1.57412 0
M  V30 5809 C 561.163 -0.873949 2.11884 0
M  V30 5810 C 562.163 -1.22301 1.04398 0
M  V30 5811 O 563.353 -1.15545 1.30365 0
M  V30 5812 C 560.485 -2.17575 2.62438 0
M  V30 5813 H 561.678 -0.401278 2.97203 0
M  V30 5814 H 559.231 -0.171904 1.55352 0
M  V30 5815 H 559.966 -2.69368 1.80587 0
M  V30 5816 H 559.751 -1.93534 3.41009 0
M  V30 5817 H 561.241 -2.85631 3.04639 0
M  V30 5818 N 561.678 -1.56367 -0.196722 0
M  V30 5819 C 563.089 -1.70462 -0.761545 0
M  V30 5820 C 563.44 -0.683161 -1.83922 0
M  V30 5821 O 562.565 0.160753 -2.15802 0
M  V30 5822 C 563.16 -3.09057 -1.38814 0
M  V30 5823 C 561.719 -3.24922 -1.90007 0
M  V30 5824 C 560.866 -2.66412 -0.769399 0
M  V30 5825 H 563.817 -1.58675 0.0283263 0
M  V30 5826 H 563.838 -3.06296 -2.2575 0
M  V30 5827 H 563.35 -3.83378 -0.603559 0
M  V30 5828 H 561.451 -2.55514 -2.71189 0
M  V30 5829 H 561.564 -4.3241 -2.06297 0
M  V30 5830 H 559.928 -2.25546 -1.18326 0
M  V30 5831 H 560.711 -3.433 0.00291773 0
M  V30 5832 N 563.156 0.464375 -1.50603 0
M  V30 5833 C 564.119 1.54393 -1.69397 0
M  V30 5834 C 565.119 1.50566 -0.564504 0
M  V30 5835 O 566.309 1.53066 -0.831645 0
M  V30 5836 C 563.441 2.9401 -1.72543 0
M  V30 5837 H 564.634 1.39044 -2.65719 0
M  V30 5838 H 562.187 0.69122 -1.40185 0
M  V30 5839 H 562.922 3.14795 -0.77938 0
M  V30 5840 H 562.707 2.98195 -2.54602 0
M  V30 5841 H 564.197 3.72375 -1.89015 0
M  V30 5842 N 564.634 1.40294 0.718013 0
M  V30 5843 C 565.597 1.4012 1.81381 0
M  V30 5844 C 566.597 0.295405 1.58063 0
M  V30 5845 O 567.787 0.554187 1.6515 0
M  V30 5846 C 564.919 1.19056 3.19435 0
M  V30 5847 H 566.112 2.37645 1.82933 0
M  V30 5848 H 563.665 1.26107 0.923405 0
M  V30 5849 H 564.4 0.222809 3.23534 0
M  V30 5850 H 564.185 1.99152 3.37758 0
M  V30 5851 H 565.675 1.21716 3.99468 0
M  V30 5852 N 566.112 -0.949982 1.2575 0
M  V30 5853 C 567.36 -1.6918 1.10555 0
M  V30 5854 C 567.681 -1.91773 -0.353298 0
M  V30 5855 O 566.951 -1.50814 -1.25027 0
M  V30 5856 H 565.531 -0.626952 0.406129 0
M  V30 5857 H 568.193 -1.1419 1.57945 0
M  V30 5858 H 567.289 -2.66915 1.61749 0
M  V30 5859 N 567.59 -1.07411 -1.15328 0
M  V30 5860 C 568.838 -0.796073 -1.85761 0
M  V30 5861 C 569.159 0.679864 -1.82764 0
M  V30 5862 O 568.429 1.49242 -1.269 0
M  V30 5863 H 567.009 -0.291495 -0.687779 0
M  V30 5864 H 569.671 -1.35799 -1.39802 0
M  V30 5865 H 568.767 -1.13114 -2.90881 0
M  V30 5866 N 569.068 1.32177 -0.85831 0
M  V30 5867 C 570.484 1.49873 -0.548656 0
M  V30 5868 C 570.684 1.79278 0.919874 0
M  V30 5869 O 569.74 1.86451 1.70271 0
M  V30 5870 C 571.053 2.64043 -1.4388 0
M  V30 5871 C 572.601 2.77928 -1.43961 0
M  V30 5872 C 573.076 3.95182 -2.31506 0
M  V30 5873 N 574.567 4.0245 -2.29321 0
M  V30 5874 C 575.302 4.9242 -2.93786 0
M  V30 5875 N 574.798 5.87373 -3.67376 0
M  V30 5876 N 576.591 4.85572 -2.83155 0
M  V30 5877 H 568.742 1.11357 -1.80868 0
M  V30 5878 H 571.005 0.549175 -0.772729 0
M  V30 5879 H 570.711 2.49055 -2.48324 0
M  V30 5880 H 570.585 3.59912 -1.12885 0
M  V30 5881 H 572.972 2.92338 -0.402813 0
M  V30 5882 H 573.053 1.82762 -1.78974 0
M  V30 5883 H 572.697 3.81531 -3.35256 0
M  V30 5884 H 572.627 4.89633 -1.93823 0
M  V30 5885 H 575.118 3.34507 -1.75822 0
M  V30 5886 H 575.431 6.52728 -4.13722 0
M  V30 5887 H 573.776 5.87388 -3.71484 0
M  V30 5888 H 576.967 4.10363 -2.25211 0
M  V30 5889 H 577.14 5.55486 -3.33676 0
M  V30 5890 N 570.547 0.616602 1.45037 0
M  V30 5891 C 571.793 0.115501 2.02471 0
M  V30 5892 C 572.126 -1.25406 1.4828 0
M  V30 5893 O 571.401 -1.82922 0.661051 0
M  V30 5894 C 571.684 0.0863588 3.59996 0
M  V30 5895 C 571.537 1.48723 4.24501 0
M  V30 5896 C 572.856 -0.596762 4.36035 0
M  V30 5897 H 569.975 0.0434461 0.735718 0
M  V30 5898 H 572.617 0.7903 1.72784 0
M  V30 5899 H 570.767 -0.488277 3.85419 0
M  V30 5900 H 572.439 2.10964 4.10234 0
M  V30 5901 H 570.682 2.04534 3.82555 0
M  V30 5902 H 571.353 1.419 5.3345 0
M  V30 5903 H 573.829 -0.10824 4.15959 0
M  V30 5904 H 572.705 -0.586289 5.4576 0
M  V30 5905 H 572.966 -1.66451 4.09569 0
M  V30 5906 N 572.025 -1.5352 0.356285 0
M  V30 5907 C 573.255 -2.05236 -0.236983 0
M  V30 5908 C 573.663 -1.23016 -1.43749 0
M  V30 5909 O 573.006 -0.2615 -1.81829 0
M  V30 5910 C 573.068 -3.52549 -0.7035 0
M  V30 5911 C 572.732 -4.55425 0.379059 0
M  V30 5912 C 573.729 -5.0524 1.22592 0
M  V30 5913 C 571.414 -4.99425 0.536638 0
M  V30 5914 C 573.408 -5.97647 2.21578 0
M  V30 5915 C 571.095 -5.9164 1.52988 0
M  V30 5916 C 572.093 -6.4064 2.3679 0
M  V30 5917 O 571.781 -7.31039 3.34421 0
M  V30 5918 H 571.513 -0.674346 -0.047254 0
M  V30 5919 H 574.067 -1.98962 0.510238 0
M  V30 5920 H 572.297 -3.56331 -1.50217 0
M  V30 5921 H 573.986 -3.87171 -1.21873 0
M  V30 5922 H 574.752 -4.72002 1.11532 0
M  V30 5923 H 570.631 -4.60879 -0.105834 0
M  V30 5924 H 574.175 -6.35816 2.87025 0
M  V30 5925 H 570.072 -6.24293 1.64099 0
M  V30 5926 H 570.84 -7.49009 3.30041 0
M  V30 5927 N 573.503 -0.0852151 -1.57369 0
M  V30 5928 C 574.914 0.445428 -1.81309 0
M  V30 5929 C 575.265 1.68795 -1.00013 0
M  V30 5930 O 574.39 2.15211 -0.226573 0
M  V30 5931 C 574.985 0.814887 -3.28854 0
M  V30 5932 C 573.544 1.29032 -3.53592 0
M  V30 5933 C 572.691 0.282089 -2.75861 0
M  V30 5934 H 575.642 -0.310771 -1.55627 0
M  V30 5935 H 575.663 1.67524 -3.41637 0
M  V30 5936 H 575.175 -0.0896309 -3.87996 0
M  V30 5937 H 573.276 2.21289 -2.9977 0
M  V30 5938 H 573.389 1.25898 -4.62262 0
M  V30 5939 H 571.753 0.762182 -2.43029 0
M  V30 5940 H 572.536 -0.614936 -3.37748 0
M  V30 5941 N 574.981 1.5647 0.188427 0
M  V30 5942 C 576.227 1.81281 0.909124 0
M  V30 5943 C 576.56 0.66034 1.82628 0
M  V30 5944 O 575.835 -0.338737 1.91528 0
M  V30 5945 C 576.118 3.16388 1.7196 0
M  V30 5946 C 575.971 4.42137 0.826714 0
M  V30 5947 C 577.29 3.48256 2.69083 0
M  V30 5948 H 574.409 0.659457 0.329068 0
M  V30 5949 H 577.051 1.89182 0.176156 0
M  V30 5950 H 575.201 3.09784 2.34448 0
M  V30 5951 H 576.873 4.60794 0.216025 0
M  V30 5952 H 575.116 4.33594 0.133792 0
M  V30 5953 H 575.787 5.33184 1.42893 0
M  V30 5954 H 578.263 3.55203 2.16726 0
M  V30 5955 H 577.139 4.43899 3.2287 0
M  V30 5956 H 577.4 2.72088 3.48455 0
M  V30 5957 N 576.459 -0.456382 1.50847 0
M  V30 5958 C 577.684 -1.2349 1.66628 0
M  V30 5959 C 578.109 -1.84715 0.355254 0
M  V30 5960 O 577.467 -1.67961 -0.682559 0
M  V30 5961 C 577.515 -2.30865 2.77009 0
M  V30 5962 O 576.619 -3.35882 2.39285 0
M  V30 5963 H 575.96 -0.36266 0.556214 0
M  V30 5964 H 578.49 -0.541374 1.97308 0
M  V30 5965 H 578.5 -2.75949 3.00526 0
M  V30 5966 H 577.175 -1.85677 3.72152 0
M  V30 5967 H 575.752 -2.96406 2.26269 0
M  V30 5968 N 577.937 -1.40673 -0.710563 0
M  V30 5969 C 579.183 -1.39428 -1.47267 0
M  V30 5970 C 579.516 0.00182129 -1.942 0
M  V30 5971 O 578.791 0.971387 -1.68506 0
M  V30 5972 C 579.074 -2.38812 -2.6952 0
M  V30 5973 C 578.927 -3.87467 -2.28449 0
M  V30 5974 C 580.246 -2.3566 -3.71689 0
M  V30 5975 H 577.365 -0.507768 -0.534173 0
M  V30 5976 H 580.007 -1.71843 -0.810547 0
M  V30 5977 H 578.157 -2.113 -3.26013 0
M  V30 5978 H 579.829 -4.25825 -1.77399 0
M  V30 5979 H 578.072 -4.03058 -1.60395 0
M  V30 5980 H 578.743 -4.5253 -3.16103 0
M  V30 5981 H 581.219 -2.6004 -3.24836 0
M  V30 5982 H 580.095 -3.07237 -4.54859 0
M  V30 5983 H 580.356 -1.36996 -4.20339 0
M  V30 5984 N 579.415 0.9433 -1.26252 0
M  V30 5985 C 580.826 1.50404 -1.10614 0
M  V30 5986 C 581.177 1.93666 0.31429 0
M  V30 5987 O 580.302 1.79709 1.20555 0
M  V30 5988 C 580.897 2.73336 -2.00182 0
M  V30 5989 C 579.456 3.25686 -1.88695 0
M  V30 5990 C 578.603 1.98474 -1.93658 0
M  V30 5991 H 581.554 0.759006 -1.39373 0
M  V30 5992 H 581.575 3.47567 -1.54847 0
M  V30 5993 H 581.087 2.41818 -3.03555 0
M  V30 5994 H 579.188 3.61998 -0.882489 0
M  V30 5995 H 579.301 3.92935 -2.74115 0
M  V30 5996 H 577.665 2.14278 -1.37684 0
M  V30 5997 H 578.448 1.6929 -2.98657 0
M  V30 5998 N 580.893 1.08022 1.14757 0
M  V30 5999 C 582.123 0.827646 1.89298 0
M  V30 6000 C 582.531 -0.623506 1.78631 0
M  V30 6001 O 581.874 -1.43991 1.14071 0
M  V30 6002 C 581.936 1.16553 3.40082 0
M  V30 6003 C 581.6 2.61866 3.74533 0
M  V30 6004 C 582.597 3.60116 3.74984 0
M  V30 6005 C 580.282 2.97619 4.04633 0
M  V30 6006 C 582.276 4.92151 4.05051 0
M  V30 6007 C 579.963 4.2985 4.34364 0
M  V30 6008 C 580.961 5.26926 4.34555 0
M  V30 6009 O 580.649 6.5678 4.63568 0
M  V30 6010 H 580.381 0.298396 0.606577 0
M  V30 6011 H 582.935 1.44187 1.46285 0
M  V30 6012 H 581.165 0.494296 3.83528 0
M  V30 6013 H 582.854 0.894407 3.95923 0
M  V30 6014 H 583.62 3.33837 3.51821 0
M  V30 6015 H 579.499 2.22702 4.03639 0
M  V30 6016 H 583.043 5.67915 4.05115 0
M  V30 6017 H 578.94 4.55879 4.56995 0
M  V30 6018 H 579.708 6.62035 4.81303 0
M  V30 6019 N 582.371 -1.3172 0.865308 0
M  V30 6020 C 583.596 -2.01591 0.487415 0
M  V30 6021 C 584.021 -1.6455 -0.911307 0
M  V30 6022 O 583.379 -0.851689 -1.6005 0
M  V30 6023 C 583.427 -3.54759 0.646401 0
M  V30 6024 O 582.531 -4.11185 -0.316284 0
M  V30 6025 H 581.872 -0.634884 0.194468 0
M  V30 6026 H 584.402 -1.68024 1.16744 0
M  V30 6027 H 584.412 -4.04438 0.537932 0
M  V30 6028 H 583.087 -3.8106 1.66632 0
M  V30 6029 H 581.664 -3.72543 -0.163162 0
M  V30 6030 N 583.85 -0.624285 -1.44708 0
M  V30 6031 C 585.075 -0.131171 -2.06985 0
M  V30 6032 C 585.5 1.18234 -1.46295 0
M  V30 6033 O 584.858 1.72375 -0.561842 0
M  V30 6034 C 584.906 -0.0226724 -3.60593 0
M  V30 6035 O 584.01 1.02314 -3.99507 0
M  V30 6036 H 583.351 -0.0816556 -0.65896 0
M  V30 6037 H 585.88 -0.859027 -1.85693 0
M  V30 6038 H 585.891 0.170138 -4.07645 0
M  V30 6039 H 584.566 -0.981685 -4.04148 0
M  V30 6040 H 583.143 0.805452 -3.64097 0
M  V30 6041 N 585.328 1.53329 -0.364422 0
M  V30 6042 C 586.291 2.24323 0.470292 0
M  V30 6043 C 587.291 1.25068 1.01067 0
M  V30 6044 O 588.481 1.49354 0.896605 0
M  V30 6045 C 585.613 2.97908 1.65722 0
M  V30 6046 H 586.806 2.9952 -0.150917 0
M  V30 6047 H 584.359 1.55868 -0.116092 0
M  V30 6048 H 585.094 2.2695 2.31655 0
M  V30 6049 H 584.879 3.70732 1.27671 0
M  V30 6050 H 586.369 3.5188 2.24878 0
M  V30 6051 N 586.806 0.0935595 1.57322 0
M  V30 6052 C 587.738 -0.895923 2.10964 0
M  V30 6053 C 588.751 -1.24705 1.04654 0
M  V30 6054 O 589.94 -1.20044 1.32105 0
M  V30 6055 C 587.04 -2.20546 2.57318 0
M  V30 6056 C 586.213 -2.0299 3.87445 0
M  V30 6057 C 585.272 -3.17443 4.19662 0
M  V30 6058 O 584.298 -2.91474 4.88909 0
M  V30 6059 N 585.5 -4.43168 3.74943 0
M  V30 6060 H 588.265 -0.437788 2.96485 0
M  V30 6061 H 585.826 -0.0915863 1.61641 0
M  V30 6062 H 587.818 -2.9606 2.75917 0
M  V30 6063 H 586.388 -2.57789 1.76816 0
M  V30 6064 H 585.608 -1.11815 3.78009 0
M  V30 6065 H 586.896 -1.88535 4.7258 0
M  V30 6066 H 586.294 -4.67149 3.19043 0
M  V30 6067 H 584.851 -5.15637 3.987 0
M  V30 6068 N 588.284 -1.56567 -0.180126 0
M  V30 6069 C 589.509 -1.85975 -0.918041 0
M  V30 6070 C 589.934 -0.678888 -1.75422 0
M  V30 6071 O 589.292 0.372168 -1.77439 0
M  V30 6072 C 589.34 -3.13731 -1.77779 0
M  V30 6073 O 588.444 -2.95335 -2.87838 0
M  V30 6074 H 587.785 -0.61196 -0.257683 0
M  V30 6075 H 590.315 -2.03798 -0.180923 0
M  V30 6076 H 590.325 -3.4491 -2.17948 0
M  V30 6077 H 589 -3.99293 -1.16352 0
M  V30 6078 H 587.577 -2.7549 -2.51316 0
M  V30 6079 N 589.762 0.448376 -1.51087 0
M  V30 6080 C 590.99 1.22143 -1.66999 0
M  V30 6081 C 591.405 1.85283 -0.362699 0
M  V30 6082 O 590.762 1.70236 0.65772 0
M  V30 6083 C 590.813 2.31357 -2.7777 0
M  V30 6084 O 590.534 1.70801 -4.03434 0
M  V30 6085 C 592.035 3.21836 -3.04855 0
M  V30 6086 H 589.255 0.368558 -0.560719 0
M  V30 6087 H 591.799 0.532618 -1.97442 0
M  V30 6088 H 589.954 2.95973 -2.49958 0
M  V30 6089 H 590.368 2.42895 -4.64868 0
M  V30 6090 H 591.842 3.94627 -3.85971 0
M  V30 6091 H 592.319 3.81949 -2.16821 0
M  V30 6092 H 592.925 2.62933 -3.34285 0
M  V30 6093 N 591.24 1.41047 0.703093 0
M  V30 6094 C 592.465 1.43537 1.49706 0
M  V30 6095 C 592.89 0.0401853 1.88057 0
M  V30 6096 O 592.248 -0.954785 1.54122 0
M  V30 6097 C 592.296 2.3433 2.74084 0
M  V30 6098 O 591.4 1.79515 3.71279 0
M  V30 6099 H 590.741 0.487454 0.450871 0
M  V30 6100 H 593.271 1.85422 0.86486 0
M  V30 6101 H 593.281 2.49947 3.22476 0
M  V30 6102 H 591.956 3.35708 2.45506 0
M  V30 6103 H 590.533 1.7331 3.30179 0
M  V30 6104 N 592.718 -0.936591 1.26751 0
M  V30 6105 C 593.665 -2.03597 1.08706 0
M  V30 6106 C 594.635 -1.66097 -0.00926542 0
M  V30 6107 O 595.82 -1.90199 0.151377 0
M  V30 6108 C 592.96 -3.3727 0.73094 0
M  V30 6109 C 592.073 -3.87778 1.90399 0
M  V30 6110 C 591.208 -5.09859 1.49056 0
M  V30 6111 C 590.247 -5.5264 2.63164 0
M  V30 6112 N 589.384 -6.65921 2.22471 0
M  V30 6113 H 594.224 -2.18364 2.02784 0
M  V30 6114 H 591.761 -1.06985 1.00958 0
M  V30 6115 H 593.719 -4.14128 0.505328 0
M  V30 6116 H 592.349 -3.22337 -0.172868 0
M  V30 6117 H 591.401 -3.07279 2.2424 0
M  V30 6118 H 592.713 -4.15464 2.76028 0
M  V30 6119 H 591.867 -5.9419 1.22567 0
M  V30 6120 H 590.606 -4.8393 0.60524 0
M  V30 6121 H 589.611 -4.66863 2.90377 0
M  V30 6122 H 590.836 -5.80568 3.52303 0
M  V30 6123 H 588.782 -6.41667 1.36379 0
M  V30 6124 H 588.699 -6.93216 3.01641 0
M  V30 6125 H 589.967 -7.53616 1.99205 0
M  V30 6126 N 594.196 -1.08629 -1.14182 0
M  V30 6127 C 595.424 -0.838889 -1.8913 0
M  V30 6128 C 595.839 0.609153 -1.78703 0
M  V30 6129 O 595.196 1.41876 -1.14794 0
M  V30 6130 C 595.247 -1.25477 -3.39025 0
M  V30 6131 O 594.968 -2.64601 -3.49167 0
M  V30 6132 C 596.469 -1.03856 -4.30963 0
M  V30 6133 H 593.689 -0.302377 -0.599007 0
M  V30 6134 H 596.233 -1.44615 -1.44592 0
M  V30 6135 H 594.388 -0.691571 -3.81177 0
M  V30 6136 H 594.802 -2.81922 -4.42289 0
M  V30 6137 H 596.276 -1.37892 -5.345 0
M  V30 6138 H 596.753 0.0242522 -4.39193 0
M  V30 6139 H 597.359 -1.58731 -3.94569 0
M  V30 6140 N 595.674 1.31259 -0.872281 0
M  V30 6141 C 596.899 2.0133 -0.498099 0
M  V30 6142 C 597.324 1.65031 0.902568 0
M  V30 6143 O 596.682 0.860164 1.59596 0
M  V30 6144 C 596.73 3.54411 -0.665205 0
M  V30 6145 O 595.834 4.11347 0.294473 0
M  V30 6146 H 595.175 0.633844 -0.197832 0
M  V30 6147 H 597.705 1.67402 -1.17633 0
M  V30 6148 H 597.715 4.04147 -0.559373 0
M  V30 6149 H 596.39 3.80171 -1.68651 0
M  V30 6150 H 594.967 3.72624 0.143403 0
M  V30 6151 N 597.152 0.631951 1.44375 0
M  V30 6152 C 598.398 0.13697 2.02337 0
M  V30 6153 C 598.731 -1.23826 1.49602 0
M  V30 6154 O 598.006 -1.8221 0.680415 0
M  V30 6155 C 598.289 0.124536 3.59885 0
M  V30 6156 C 598.142 1.53217 4.229 0
M  V30 6157 C 599.461 -0.550481 4.36644 0
M  V30 6158 H 596.58 0.051247 0.735216 0
M  V30 6159 H 599.222 0.808581 1.71936 0
M  V30 6160 H 597.372 -0.44737 3.85916 0
M  V30 6161 H 599.044 2.15303 4.07973 0
M  V30 6162 H 597.287 2.0858 3.80364 0
M  V30 6163 H 597.958 1.4755 5.31914 0
M  V30 6164 H 600.434 -0.0641154 4.16051 0
M  V30 6165 H 599.31 -0.528371 5.46351 0
M  V30 6166 H 599.571 -1.62097 4.11311 0
M  V30 6167 N 598.631 -1.53133 0.372548 0
M  V30 6168 C 599.859 -2.05774 -0.215515 0
M  V30 6169 C 600.274 -1.24555 -1.41886 0
M  V30 6170 O 599.631 -0.287951 -1.80214 0
M  V30 6171 C 599.682 -3.5645 -0.602161 0
M  V30 6172 O 599.403 -4.34591 0.553359 0
M  V30 6173 C 600.904 -4.25374 -1.24787 0
M  V30 6174 H 598.124 -0.670009 -0.0364529 0
M  V30 6175 H 600.668 -1.97434 0.532934 0
M  V30 6176 H 598.823 -3.64918 -1.30052 0
M  V30 6177 H 599.237 -5.23954 0.239336 0
M  V30 6178 H 600.711 -5.32097 -1.46891 0
M  V30 6179 H 601.188 -3.79531 -2.21026 0
M  V30 6180 H 601.794 -4.21177 -0.590752 0
M  V30 6181 N 600.109 -0.101901 -1.5727 0
M  V30 6182 C 601.039 0.851544 -2.17419 0
M  V30 6183 C 602.02 1.28942 -1.10941 0
M  V30 6184 O 603.205 1.35509 -1.39107 0
M  V30 6185 C 600.335 2.10816 -2.75996 0
M  V30 6186 C 599.289 1.80867 -3.87906 0
M  V30 6187 C 598.615 3.13413 -4.33216 0
M  V30 6188 C 599.915 1.0903 -5.10793 0
M  V30 6189 H 601.609 0.350381 -2.97343 0
M  V30 6190 H 599.155 0.16709 -1.43027 0
M  V30 6191 H 601.108 2.77959 -3.16729 0
M  V30 6192 H 599.832 2.63227 -1.93337 0
M  V30 6193 H 598.491 1.16119 -3.47724 0
M  V30 6194 H 598.139 3.63725 -3.47438 0
M  V30 6195 H 597.839 2.94155 -5.08671 0
M  V30 6196 H 599.363 3.81704 -4.76586 0
M  V30 6197 H 600.777 1.66295 -5.48652 0
M  V30 6198 H 599.174 0.99927 -5.91722 0
M  V30 6199 H 600.244 0.0741704 -4.84843 0
M  V30 6200 N 601.587 1.56661 0.17182 0
M  V30 6201 C 602.812 1.86459 0.908165 0
M  V30 6202 C 603.237 0.688181 1.75059 0
M  V30 6203 O 602.595 -0.362753 1.77634 0
M  V30 6204 C 602.643 3.14669 1.76112 0
M  V30 6205 O 601.747 2.96858 2.86268 0
M  V30 6206 H 601.088 0.613318 0.254434 0
M  V30 6207 H 603.618 2.03892 0.170113 0
M  V30 6208 H 603.628 3.46061 2.16115 0
M  V30 6209 H 602.303 3.99905 1.14233 0
M  V30 6210 H 600.88 2.76819 2.49852 0
M  V30 6211 N 603.065 -0.440357 1.51323 0
M  V30 6212 C 603.995 -1.54174 1.75364 0
M  V30 6213 C 604.976 -1.59039 0.603375 0
M  V30 6214 O 606.161 -1.74815 0.845774 0
M  V30 6215 C 603.291 -2.92277 1.87593 0
M  V30 6216 C 602.245 -3.02274 3.03009 0
M  V30 6217 C 601.571 -4.42327 3.00418 0
M  V30 6218 C 602.871 -2.76634 4.43024 0
M  V30 6219 H 604.565 -1.34307 2.67585 0
M  V30 6220 H 602.111 -0.644678 1.28763 0
M  V30 6221 H 604.064 -3.69284 2.02995 0
M  V30 6222 H 602.788 -3.13369 0.920179 0
M  V30 6223 H 601.447 -2.27706 2.87307 0
M  V30 6224 H 601.095 -4.60382 2.02626 0
M  V30 6225 H 600.795 -4.49946 3.77918 0
M  V30 6226 H 602.319 -5.21312 3.17909 0
M  V30 6227 H 603.733 -3.43376 4.59093 0
M  V30 6228 H 602.13 -2.95666 5.22208 0
M  V30 6229 H 603.2 -1.72262 4.5327 0
M  V30 6230 N 604.543 -1.41418 -0.695603 0
M  V30 6231 C 605.789 -1.40982 -1.4578 0
M  V30 6232 C 606.122 -0.0187763 -1.94191 0
M  V30 6233 O 605.397 0.95346 -1.69527 0
M  V30 6234 C 605.68 -2.41657 -2.66972 0
M  V30 6235 C 605.533 -3.89869 -2.24327 0
M  V30 6236 C 606.852 -2.39589 -3.69168 0
M  V30 6237 H 603.971 -0.513405 -0.528757 0
M  V30 6238 H 606.613 -1.72693 -0.792275 0
M  V30 6239 H 604.763 -2.14746 -3.23754 0
M  V30 6240 H 606.435 -4.27683 -1.72872 0
M  V30 6241 H 604.678 -4.04737 -1.56111 0
M  V30 6242 H 605.349 -4.55857 -3.11285 0
M  V30 6243 H 607.825 -2.63471 -3.2206 0
M  V30 6244 H 606.701 -3.12044 -4.51575 0
M  V30 6245 H 606.962 -1.41447 -4.18862 0
M  V30 6246 N 606.021 0.929856 -1.27246 0
M  V30 6247 C 606.954 2.03069 -1.04106 0
M  V30 6248 C 607.932 1.62556 0.0378417 0
M  V30 6249 O 609.116 1.88197 -0.106869 0
M  V30 6250 C 606.243 3.33718 -0.578778 0
M  V30 6251 C 605.289 3.93209 -1.65193 0
M  V30 6252 S 606.122 4.26068 -3.24386 0
M  V30 6253 C 607.278 5.598 -2.79954 0
M  V30 6254 H 607.511 2.22386 -1.97311 0
M  V30 6255 H 605.044 1.07269 -1.11053 0
M  V30 6256 H 607.002 4.09261 -0.31874 0
M  V30 6257 H 605.663 3.12328 0.333182 0
M  V30 6258 H 604.856 4.87482 -1.27973 0
M  V30 6259 H 604.458 3.24243 -1.86393 0
M  V30 6260 H 606.75 6.39004 -2.25123 0
M  V30 6261 H 607.693 6.01917 -3.72963 0
M  V30 6262 H 608.101 5.20219 -2.19164 0
M  V30 6263 N 607.499 1.09233 1.13605 0
M  V30 6264 C 608.91 0.846839 1.6639 0
M  V30 6265 C 609.261 -0.625031 1.85978 0
M  V30 6266 O 608.386 -1.48173 1.57714 0
M  V30 6267 C 608.981 1.5307 3.0225 0
M  V30 6268 C 607.54 1.33223 3.52035 0
M  V30 6269 C 606.687 1.58806 2.27323 0
M  V30 6270 H 609.638 1.25175 0.975541 0
M  V30 6271 H 609.659 0.96267 3.68121 0
M  V30 6272 H 609.171 2.60192 2.87961 0
M  V30 6273 H 607.272 0.282091 3.71531 0
M  V30 6274 H 607.385 2.0657 4.32279 0
M  V30 6275 H 605.749 1.01007 2.33815 0
M  V30 6276 H 606.532 2.67153 2.15602 0
M  V30 6277 N 608.977 -1.30795 0.87923 0
M  V30 6278 C 610.202 -2.01063 0.508769 0
M  V30 6279 C 610.627 -1.65508 -0.893803 0
M  V30 6280 O 609.985 -0.868616 -1.59138 0
M  V30 6281 C 610.033 -3.54054 0.683991 0
M  V30 6282 O 609.137 -4.11498 -0.272654 0
M  V30 6283 H 608.478 -0.632786 0.201191 0
M  V30 6284 H 611.008 -1.66776 1.18519 0
M  V30 6285 H 611.018 -4.03845 0.580798 0
M  V30 6286 H 609.693 -3.79271 1.70665 0
M  V30 6287 H 608.27 -3.72695 -0.12364 0
M  V30 6288 N 610.455 -0.639598 -1.44038 0
M  V30 6289 C 611.387 0.0987684 -2.28987 0
M  V30 6290 C 612.4 0.80058 -1.41755 0
M  V30 6291 O 613.589 0.660611 -1.65826 0
M  V30 6292 C 610.689 1.16242 -3.18341 0
M  V30 6293 C 609.862 0.541447 -4.34036 0
M  V30 6294 C 608.921 1.50017 -5.04362 0
M  V30 6295 O 607.947 1.01403 -5.60095 0
M  V30 6296 N 609.149 2.83441 -5.06598 0
M  V30 6297 H 611.914 -0.630305 -2.92997 0
M  V30 6298 H 609.475 -0.481376 -1.54578 0
M  V30 6299 H 611.467 1.80429 -3.62253 0
M  V30 6300 H 610.037 1.79362 -2.56024 0
M  V30 6301 H 609.257 -0.27923 -3.9321 0
M  V30 6302 H 610.545 0.107379 -5.08687 0
M  V30 6303 H 609.943 3.2551 -4.62666 0
M  V30 6304 H 608.5 3.42966 -5.54272 0
M  V30 6305 N 611.933 1.52934 -0.380664 0
M  V30 6306 C 613.181 2.01069 0.203874 0
M  V30 6307 C 613.502 1.26922 1.4804 0
M  V30 6308 O 612.772 0.386787 1.92044 0
M  V30 6309 H 611.352 0.742882 0.0783279 0
M  V30 6310 H 614.014 1.88099 -0.510368 0
M  V30 6311 H 613.11 3.09258 0.42021 0
M  V30 6312 N 613.412 0.11024 1.57214 0
M  V30 6313 C 614.344 -0.873497 2.11902 0
M  V30 6314 C 615.357 -1.23588 1.05971 0
M  V30 6315 O 616.546 -1.18636 1.33371 0
M  V30 6316 C 613.646 -2.17805 2.59643 0
M  V30 6317 C 612.819 -1.98869 3.89576 0
M  V30 6318 C 611.878 -3.12974 4.23006 0
M  V30 6319 O 610.904 -2.86272 4.91973 0
M  V30 6320 N 612.106 -4.39167 3.79622 0
M  V30 6321 H 614.871 -0.406317 2.96933 0
M  V30 6322 H 612.432 -0.074437 1.61729 0
M  V30 6323 H 614.424 -2.93117 2.79042 0
M  V30 6324 H 612.994 -2.55899 1.7954 0
M  V30 6325 H 612.214 -1.078 3.79174 0
M  V30 6326 H 613.502 -1.83512 4.74553 0
M  V30 6327 H 612.9 -4.63739 3.2398 0
M  V30 6328 H 611.457 -5.11379 4.04147 0
M  V30 6329 N 614.89 -1.56749 -0.16351 0
M  V30 6330 C 615.823 -1.9213 -1.23132 0
M  V30 6331 C 616.801 -0.785047 -1.42393 0
M  V30 6332 O 617.985 -1.0391 -1.57273 0
M  V30 6333 C 615.112 -2.17901 -2.59301 0
M  V30 6334 C 614.158 -3.40576 -2.5673 0
M  V30 6335 S 614.991 -4.94689 -2.05045 0
M  V30 6336 C 616.147 -5.23564 -3.42975 0
M  V30 6337 H 616.38 -2.824 -0.929383 0
M  V30 6338 H 613.913 -1.4994 -0.368418 0
M  V30 6339 H 615.871 -2.33429 -3.3767 0
M  V30 6340 H 614.532 -1.28324 -2.86691 0
M  V30 6341 H 613.725 -3.55833 -3.5693 0
M  V30 6342 H 613.327 -3.24204 -1.86462 0
M  V30 6343 H 615.619 -5.16019 -4.3901 0
M  V30 6344 H 616.562 -6.25134 -3.32586 0
M  V30 6345 H 616.97 -4.51113 -3.39348 0
M  V30 6346 N 616.368 0.432326 -1.51554 0
M  V30 6347 C 617.614 1.18309 -1.64714 0
M  V30 6348 C 617.947 1.90745 -0.364696 0
M  V30 6349 O 617.222 1.8381 0.635936 0
M  V30 6350 C 617.505 2.1961 -2.85383 0
M  V30 6351 C 617.358 1.51223 -4.23617 0
M  V30 6352 C 618.677 3.20538 -3.01569 0
M  V30 6353 H 615.796 0.428751 -0.599451 0
M  V30 6354 H 618.438 0.471689 -1.84052 0
M  V30 6355 H 616.588 2.8028 -2.69027 0
M  V30 6356 H 618.26 0.938516 -4.51652 0
M  V30 6357 H 616.503 0.814501 -4.26085 0
M  V30 6358 H 617.174 2.25024 -5.04052 0
M  V30 6359 H 619.65 2.69926 -3.16669 0
M  V30 6360 H 618.526 3.88706 -3.87555 0
M  V30 6361 H 618.787 3.86933 -2.13859 0
M  V30 6362 N 617.846 1.41785 0.688094 0
M  V30 6363 C 618.794 1.44436 1.82321 0
M  V30 6364 C 619.788 0.321544 1.6632 0
M  V30 6365 O 620.994 0.493931 1.73091 0
M  V30 6366 H 617.369 0.452084 0.600936 0
M  V30 6367 H 619.34 2.40087 1.77202 0
M  V30 6368 C 618.089 1.35071 3.20392 0
M  V30 6369 H 617.412 2.2076 3.33324 0
M  V30 6370 H 618.852 1.40988 3.99873 0
M  V30 6371 C 617.311 0.0639127 3.36839 0
M  V30 6372 O 617.841 -0.888495 3.91751 0
M  V30 6373 N 616.047 -0.0146114 2.90596 0
M  V30 6374 H 615.594 0.761191 2.46097 0
M  V30 6375 H 615.552 -0.874988 3.01979 0
M  V30 6376 N 619.324 -0.923095 1.27737 0
M  V30 6377 C 620.572 -1.66797 1.14119 0
M  V30 6378 C 620.893 -1.92479 -0.312541 0
M  V30 6379 O 620.163 -1.53432 -1.218 0
M  V30 6380 H 618.743 -0.618196 0.419336 0
M  V30 6381 H 621.405 -1.10815 1.60331 0
M  V30 6382 H 620.501 -2.63424 1.67374 0
M  V30 6383 N 620.802 -1.09834 -1.13024 0
M  V30 6384 C 621.765 -0.745058 -2.16752 0
M  V30 6385 C 622.765 0.227435 -1.59183 0
M  V30 6386 O 623.955 0.0050786 -1.74199 0
M  V30 6387 C 621.087 -0.102543 -3.40746 0
M  V30 6388 H 622.28 -1.66375 -2.49518 0
M  V30 6389 H 619.833 -0.898061 -1.27924 0
M  V30 6390 H 620.568 0.827177 -3.13573 0
M  V30 6391 H 620.353 -0.80235 -3.83803 0
M  V30 6392 H 621.843 0.129082 -4.174 0
M  V30 6393 N 622.28 1.30327 -0.886154 0
M  V30 6394 C 623.23 2.25668 -0.325248 0
M  V30 6395 C 624.214 1.51318 0.546972 0
M  V30 6396 O 625.406 1.72623 0.391203 0
M  V30 6397 C 622.535 3.40229 0.458167 0
M  V30 6398 C 621.621 4.21933 -0.428208 0
M  V30 6399 N 622.012 4.82129 -1.52921 0
M  V30 6400 C 620.31 4.45439 -0.223535 0
M  V30 6401 C 621.011 5.43351 -2.07714 0
M  V30 6402 N 619.987 5.26002 -1.37195 0
M  V30 6403 H 623.789 2.69759 -1.1665 0
M  V30 6404 H 621.303 1.4478 -0.735691 0
M  V30 6405 H 623.3 4.07579 0.876648 0
M  V30 6406 H 621.96 2.97678 1.29684 0
M  V30 6407 H 622.971 4.81312 -1.91205 0
M  V30 6408 H 619.648 4.13481 0.577875 0
M  V30 6409 H 621.038 6.01118 -3.00178 0
M  V30 6410 N 623.758 0.647228 1.43697 0
M  V30 6411 C 624.983 0.164083 2.0675 0
M  V30 6412 C 625.408 -1.15892 1.48158 0
M  V30 6413 O 624.766 -1.71459 0.589194 0
M  V30 6414 C 624.814 0.0800368 3.60511 0
M  V30 6415 O 623.918 -0.959453 4.01084 0
M  V30 6416 H 623.259 0.0921288 0.657578 0
M  V30 6417 H 625.789 0.88846 1.84303 0
M  V30 6418 H 625.799 -0.105263 4.07864 0
M  V30 6419 H 624.474 1.04586 4.02535 0
M  V30 6420 H 623.051 -0.747425 3.65333 0
M  V30 6421 N 625.236 -1.5273 0.388769 0
M  V30 6422 C 626.199 -2.25043 -0.434544 0
M  V30 6423 C 627.199 -1.26661 -0.990644 0
M  V30 6424 O 628.389 -1.50762 -0.872731 0
M  V30 6425 C 625.521 -3.00507 -1.60961 0
M  V30 6426 H 626.714 -2.99242 0.198549 0
M  V30 6427 H 624.267 -1.55664 0.140875 0
M  V30 6428 H 625.002 -2.30607 -2.28015 0
M  V30 6429 H 624.787 -3.72716 -1.21757 0
M  V30 6430 H 626.277 -3.55413 -2.19251 0
M  V30 6431 N 626.714 -0.118576 -1.57153 0
M  V30 6432 C 627.939 0.550582 -1.99958 0
M  V30 6433 C 628.364 1.59458 -0.997736 0
M  V30 6434 O 627.722 1.81274 0.0306269 0
M  V30 6435 C 627.77 1.15379 -3.41643 0
M  V30 6436 O 626.874 2.26932 -3.44348 0
M  V30 6437 H 626.215 0.137567 -0.649593 0
M  V30 6438 H 628.745 -0.206926 -2.03551 0
M  V30 6439 H 628.755 1.48942 -3.79843 0
M  V30 6440 H 627.43 0.389087 -4.14076 0
M  V30 6441 H 626.007 1.94812 -3.17967 0
M  V30 6442 N 628.193 1.56834 0.155195 0
M  V30 6443 C 629.421 1.87049 0.884326 0
M  V30 6444 C 629.836 0.705839 1.7511 0
M  V30 6445 O 629.193 -0.324641 1.79589 0
M  V30 6446 C 629.244 3.1644 1.74781 0
M  V30 6447 O 628.965 4.28417 0.915978 0
M  V30 6448 C 630.466 3.60113 2.58522 0
M  V30 6449 H 627.686 0.620196 0.25612 0
M  V30 6450 H 630.23 2.03946 0.150445 0
M  V30 6451 H 628.385 3.01321 2.43484 0
M  V30 6452 H 628.799 5.02353 1.50803 0
M  V30 6453 H 630.273 4.53508 3.14698 0
M  V30 6454 H 630.75 2.85005 3.34169 0
M  V30 6455 H 631.356 3.77898 1.95124 0
M  V30 6456 N 629.671 -0.424282 1.51781 0
M  V30 6457 C 630.601 -1.52305 1.7699 0
M  V30 6458 C 631.582 -1.5839 0.620209 0
M  V30 6459 O 632.767 -1.73908 0.864268 0
M  V30 6460 C 629.897 -2.90271 1.90683 0
M  V30 6461 C 628.851 -2.99043 3.06198 0
M  V30 6462 C 628.177 -4.39116 3.05092 0
M  V30 6463 C 629.477 -2.7192 4.45934 0
M  V30 6464 H 631.171 -1.31461 2.68995 0
M  V30 6465 H 628.717 -0.630985 1.29439 0
M  V30 6466 H 630.67 -3.6711 2.06901 0
M  V30 6467 H 629.394 -3.12376 0.953365 0
M  V30 6468 H 628.053 -2.24646 2.89706 0
M  V30 6469 H 627.701 -4.58207 2.07498 0
M  V30 6470 H 627.401 -4.45912 3.82669 0
M  V30 6471 H 628.925 -5.17911 3.2342 0
M  V30 6472 H 630.339 -3.38487 4.62709 0
M  V30 6473 H 628.736 -2.90111 5.25315 0
M  V30 6474 H 629.806 -1.67445 4.55072 0
M  V30 6475 N 631.149 -1.42148 -0.680565 0
M  V30 6476 C 632.426 -1.32795 -1.43614 0
M  V30 6477 C 632.806 0.037415 -2.11067 0
M  V30 6478 O 632.154 1.05258 -2.02813 0
M  V30 6479 C 632.364 -2.49206 -2.44331 0
M  V30 6480 C 633.712 -2.91059 -3.09144 0
M  V30 6481 O 634.736 -2.49054 -2.54657 0
M  V30 6482 O 633.595 -3.63741 -4.07866 0
M  V30 6483 H 630.689 -0.523397 -0.640301 0
M  V30 6484 H 633.235 -1.54144 -0.709775 0
M  V30 6485 H 632.007 -3.40252 -1.93247 0
M  V30 6486 H 631.63 -2.29813 -3.24456 0
M  V30 6487 N 632.627 0.916307 -1.28225 0
M  V30 6488 C 633.537 2.05165 -1.13775 0
M  V30 6489 C 634.553 1.73879 -0.0649418 0
M  V30 6490 O 635.729 1.99531 -0.273722 0
M  V30 6491 C 632.794 3.37385 -0.798267 0
M  V30 6492 C 631.855 3.82296 -1.95316 0
M  V30 6493 C 631.088 5.08206 -1.62978 0
M  V30 6494 O 631.311 5.6781 -0.542948 0
M  V30 6495 O 630.245 5.48768 -2.47261 0
M  V30 6496 H 634.071 2.20273 -2.09078 0
M  V30 6497 H 631.656 1.0373 -1.07519 0
M  V30 6498 H 633.538 4.16773 -0.62278 0
M  V30 6499 H 632.213 3.23458 0.125139 0
M  V30 6500 H 631.12 3.03746 -2.18378 0
M  V30 6501 H 632.453 4.00782 -2.85718 0
M  V30 6502 N 634.105 1.10431 1.1244 0
M  V30 6503 C 635.068 0.756542 2.16354 0
M  V30 6504 C 636.068 -0.21899 1.59302 0
M  V30 6505 O 637.258 0.00415969 1.742 0
M  V30 6506 C 634.39 0.120612 3.40687 0
M  V30 6507 H 635.583 1.67696 2.48632 0
M  V30 6508 H 633.136 0.904832 1.27446 0
M  V30 6509 H 633.871 -0.810536 3.14008 0
M  V30 6510 H 633.656 0.822693 3.83372 0
M  V30 6511 H 635.146 -0.106945 4.17463 0
M  V30 6512 N 635.583 -1.29855 0.893053 0
M  V30 6513 C 636.811 -1.99976 0.530788 0
M  V30 6514 C 637.226 -1.66889 -0.882799 0
M  V30 6515 O 636.583 -0.910352 -1.58173 0
M  V30 6516 C 636.634 -3.54547 0.705587 0
M  V30 6517 O 636.355 -3.86458 2.06353 0
M  V30 6518 C 637.856 -4.41937 0.347387 0
M  V30 6519 H 635.076 -0.639129 0.204339 0
M  V30 6520 H 637.62 -1.65549 1.20057 0
M  V30 6521 H 635.775 -3.87311 0.0830685 0
M  V30 6522 H 636.189 -4.81146 2.08803 0
M  V30 6523 H 637.663 -5.4954 0.520557 0
M  V30 6524 H 638.14 -4.33339 -0.715139 0
M  V30 6525 H 638.746 -4.14633 0.946567 0
M  V30 6526 N 637.061 -0.65484 -1.43351 0
M  V30 6527 C 638.472 -0.248506 -1.85039 0
M  V30 6528 C 638.823 1.20526 -1.54816 0
M  V30 6529 O 637.948 1.92016 -0.99794 0
M  V30 6530 C 638.543 -0.444241 -3.35875 0
M  V30 6531 C 637.102 -0.0922108 -3.76287 0
M  V30 6532 C 636.249 -0.746327 -2.67068 0
M  V30 6533 H 639.2 -0.8584 -1.33481 0
M  V30 6534 H 639.221 0.309762 -3.79237 0
M  V30 6535 H 638.733 -1.50239 -3.5784 0
M  V30 6536 H 636.834 0.96328 -3.59933 0
M  V30 6537 H 636.947 -0.518807 -4.76283 0
M  V30 6538 H 635.311 -0.179416 -2.54067 0
M  V30 6539 H 636.094 -1.80754 -2.91861 0
M  V30 6540 N 638.539 1.52521 -0.396863 0
M  V30 6541 C 639.767 2.06091 0.18275 0
M  V30 6542 C 640.182 1.26796 1.39886 0
M  V30 6543 O 639.539 0.316585 1.79733 0
M  V30 6544 C 639.59 3.57362 0.545377 0
M  V30 6545 O 639.311 4.33656 -0.622428 0
M  V30 6546 C 640.812 4.27305 1.18004 0
M  V30 6547 H 638.032 0.670504 0.025789 0
M  V30 6548 H 640.576 1.96561 -0.564276 0
M  V30 6549 H 638.731 3.66941 1.2423 0
M  V30 6550 H 639.145 5.23507 -0.322662 0
M  V30 6551 H 640.619 5.34366 1.38408 0
M  V30 6552 H 641.096 3.83 2.1496 0
M  V30 6553 H 641.702 4.22064 0.523671 0
M  V30 6554 N 640.017 0.126909 1.57088 0
M  V30 6555 C 640.947 -0.816847 2.18746 0
M  V30 6556 C 641.928 -1.27161 1.12979 0
M  V30 6557 O 643.113 -1.33279 1.41246 0
M  V30 6558 C 640.243 -2.06398 2.79315 0
M  V30 6559 C 639.197 -1.74673 3.90735 0
M  V30 6560 C 638.523 -3.06482 4.38147 0
M  V30 6561 C 639.823 -1.0089 5.12463 0
M  V30 6562 H 641.517 -0.303032 2.97863 0
M  V30 6563 H 639.063 -0.144314 1.43275 0
M  V30 6564 H 641.016 -2.72885 3.2111 0
M  V30 6565 H 639.74 -2.60118 1.975 0
M  V30 6566 H 638.399 -1.10572 3.49527 0
M  V30 6567 H 638.047 -3.58152 3.5318 0
M  V30 6568 H 637.747 -2.86025 5.13287 0
M  V30 6569 H 639.271 -3.74073 4.82599 0
M  V30 6570 H 640.685 -1.57546 5.51228 0
M  V30 6571 H 639.082 -0.905006 5.93237 0
M  V30 6572 H 640.152 0.00297335 4.849 0
M  V30 6573 N 641.495 -1.56914 -0.146875 0
M  V30 6574 C 642.723 -1.87515 -0.874394 0
M  V30 6575 C 643.138 -0.715116 -1.74733 0
M  V30 6576 O 642.495 0.315113 -1.79759 0
M  V30 6577 C 642.546 -3.17362 -1.731 0
M  V30 6578 O 642.267 -4.28897 -0.893245 0
M  V30 6579 C 643.768 -3.61479 -2.56609 0
M  V30 6580 H 640.988 -0.621546 -0.252827 0
M  V30 6581 H 643.532 -2.04023 -0.139627 0
M  V30 6582 H 641.687 -3.02608 -2.41883 0
M  V30 6583 H 642.101 -5.03146 -1.48137 0
M  V30 6584 H 643.575 -4.5517 -3.12289 0
M  V30 6585 H 644.052 -2.86773 -3.32653 0
M  V30 6586 H 644.658 -3.78927 -1.93117 0
M  V30 6587 N 642.974 0.416227 -1.52004 0
M  V30 6588 C 643.922 1.5272 -1.7544 0
M  V30 6589 C 644.916 1.57596 -0.621289 0
M  V30 6590 O 646.122 1.61087 -0.803172 0
M  V30 6591 H 642.497 0.507772 -0.554682 0
M  V30 6592 H 644.468 1.30136 -2.68528 0
M  V30 6593 C 643.217 2.90165 -1.91571 0
M  V30 6594 H 642.54 2.87154 -2.78178 0
M  V30 6595 H 643.98 3.67211 -2.11972 0
M  V30 6596 C 642.439 3.29947 -0.680942 0
M  V30 6597 O 642.969 4.01403 0.154527 0
M  V30 6598 N 641.175 2.8593 -0.518894 0
M  V30 6599 H 640.722 2.2795 -1.19986 0
M  V30 6600 H 640.68 3.12907 0.305985 0
M  V30 6601 N 644.452 1.42507 0.673017 0
M  V30 6602 C 645.384 1.42074 1.79854 0
M  V30 6603 C 646.397 0.319569 1.59633 0
M  V30 6604 O 647.586 0.582769 1.68719 0
M  V30 6605 C 644.686 1.19886 3.16987 0
M  V30 6606 C 643.859 2.42471 3.64042 0
M  V30 6607 C 642.918 2.15802 4.79913 0
M  V30 6608 O 641.944 2.89015 4.90366 0
M  V30 6609 N 643.146 1.16225 5.68746 0
M  V30 6610 H 645.911 2.3909 1.8071 0
M  V30 6611 H 643.472 1.37409 0.856171 0
M  V30 6612 H 645.464 0.999591 3.92161 0
M  V30 6613 H 644.034 0.313879 3.1102 0
M  V30 6614 H 643.254 2.77954 2.79526 0
M  V30 6615 H 644.542 3.24097 3.92223 0
M  V30 6616 H 643.94 0.556756 5.62954 0
M  V30 6617 H 642.497 1.02285 6.43724 0
M  V30 6618 N 645.93 -0.909495 1.28709 0
M  V30 6619 C 647.155 -1.69801 1.1909 0
M  V30 6620 C 647.58 -1.86479 -0.246388 0
M  V30 6621 O 646.938 -1.37802 -1.17815 0
M  V30 6622 C 646.986 -3.06543 1.89904 0
M  V30 6623 O 646.09 -3.94268 1.2094 0
M  V30 6624 H 645.431 -0.519783 0.413185 0
M  V30 6625 H 647.961 -1.13689 1.70106 0
M  V30 6626 H 647.971 -3.56748 1.97977 0
M  V30 6627 H 646.646 -2.93722 2.94449 0
M  V30 6628 H 645.223 -3.52702 1.2106 0
M  V30 6629 N 647.408 -1.11026 -1.11852 0
M  V30 6630 C 648.819 -0.873203 -1.65021 0
M  V30 6631 C 649.17 0.595364 -1.86949 0
M  V30 6632 O 648.295 1.45645 -1.60051 0
M  V30 6633 C 648.89 -1.57859 -2.99777 0
M  V30 6634 C 647.449 -1.38807 -3.49871 0
M  V30 6635 C 646.596 -1.62403 -2.24768 0
M  V30 6636 H 649.547 -1.26712 -0.955503 0
M  V30 6637 H 649.568 -1.02111 -3.66543 0
M  V30 6638 H 649.08 -2.6474 -2.83786 0
M  V30 6639 H 647.181 -0.341163 -3.71035 0
M  V30 6640 H 647.294 -2.13421 -4.28938 0
M  V30 6641 H 645.658 -1.04714 -2.32179 0
M  V30 6642 H 646.441 -2.70549 -2.11324 0
M  V30 6643 N 648.886 1.2938 -0.899927 0
M  V30 6644 C 650.114 1.99691 -0.541386 0
M  V30 6645 C 650.529 1.67355 0.873936 0
M  V30 6646 O 649.886 0.918728 1.57688 0
M  V30 6647 C 649.937 3.54168 -0.72438 0
M  V30 6648 O 649.658 3.85359 -2.08399 0
M  V30 6649 C 651.159 4.41746 -0.370819 0
M  V30 6650 H 648.379 0.638037 -0.207726 0
M  V30 6651 H 650.923 1.6491 -1.20934 0
M  V30 6652 H 649.078 3.87261 -0.103607 0
M  V30 6653 H 649.492 4.80032 -2.11352 0
M  V30 6654 H 650.966 5.49256 -0.549693 0
M  V30 6655 H 651.443 4.33712 0.692148 0
M  V30 6656 H 652.049 4.14125 -0.968543 0
M  V30 6657 N 650.364 0.662433 1.43002 0
M  V30 6658 C 651.294 -0.00979809 2.33498 0
M  V30 6659 C 652.275 -0.802329 1.49989 0
M  V30 6660 O 653.46 -0.761964 1.78627 0
M  V30 6661 C 650.59 -0.970446 3.33466 0
M  V30 6662 C 649.544 -0.287383 4.27034 0
M  V30 6663 C 648.87 -1.36012 5.17112 0
M  V30 6664 C 650.17 0.82595 5.15728 0
M  V30 6665 H 651.864 0.745959 2.89958 0
M  V30 6666 H 649.41 0.360172 1.39423 0
M  V30 6667 H 651.363 -1.44971 3.95679 0
M  V30 6668 H 650.087 -1.75748 2.75282 0
M  V30 6669 H 648.746 0.17152 3.66199 0
M  V30 6670 H 648.394 -2.13882 4.55262 0
M  V30 6671 H 648.094 -0.908276 5.80538 0
M  V30 6672 H 649.618 -1.84056 5.82199 0
M  V30 6673 H 651.032 0.42845 5.71697 0
M  V30 6674 H 649.429 1.20282 5.87922 0
M  V30 6675 H 650.499 1.68003 4.54866 0
M  V30 6676 N 651.842 -1.52309 0.404946 0
M  V30 6677 C 653.07 -2.06185 -0.171818 0
M  V30 6678 C 653.485 -1.27536 -1.39212 0
M  V30 6679 O 652.842 -0.326112 -1.79563 0
M  V30 6680 C 652.893 -3.57647 -0.526417 0
M  V30 6681 O 652.614 -4.3332 0.645417 0
M  V30 6682 C 654.115 -4.27925 -1.15736 0
M  V30 6683 H 651.335 -0.670632 -0.0222328 0
M  V30 6684 H 653.879 -1.96259 0.574692 0
M  V30 6685 H 652.034 -3.67595 -1.22282 0
M  V30 6686 H 652.448 -5.23328 0.35042 0
M  V30 6687 H 653.922 -5.35093 -1.35572 0
M  V30 6688 H 654.399 -3.84134 -2.12926 0
M  V30 6689 H 655.005 -4.22335 -0.501281 0
M  V30 6690 N 653.32 -0.135238 -1.57019 0
M  V30 6691 C 654.25 0.805235 -2.19176 0
M  V30 6692 C 655.231 1.2656 -1.13651 0
M  V30 6693 O 656.416 1.32528 -1.4195 0
M  V30 6694 C 653.546 2.04914 -2.80406 0
M  V30 6695 C 652.5 1.72598 -3.91655 0
M  V30 6696 C 651.826 3.04154 -4.39766 0
M  V30 6697 C 653.126 0.981709 -5.12991 0
M  V30 6698 H 654.82 0.287232 -2.98019 0
M  V30 6699 H 652.366 0.136714 -1.4335 0
M  V30 6700 H 654.319 2.71178 -3.22553 0
M  V30 6701 H 653.043 2.59067 -1.98877 0
M  V30 6702 H 651.702 1.08717 -3.50109 0
M  V30 6703 H 651.35 3.56274 -3.55075 0
M  V30 6704 H 651.05 2.83299 -5.14796 0
M  V30 6705 H 652.574 3.71509 -4.84576 0
M  V30 6706 H 653.988 1.5462 -5.52056 0
M  V30 6707 H 652.385 0.873533 -5.93708 0
M  V30 6708 H 653.455 -0.0286887 -4.84892 0
M  V30 6709 N 654.798 1.5699 0.138552 0
M  V30 6710 C 655.73 1.95515 1.1961 0
M  V30 6711 C 656.743 0.852002 1.38726 0
M  V30 6712 O 657.932 1.13038 1.38147 0
M  V30 6713 C 655.032 2.2213 2.55952 0
M  V30 6714 C 654.205 3.53424 2.57702 0
M  V30 6715 C 653.264 3.6848 3.75645 0
M  V30 6716 O 652.29 4.4079 3.60129 0
M  V30 6717 N 653.492 3.05777 4.93438 0
M  V30 6718 H 656.257 2.86838 0.868557 0
M  V30 6719 H 653.818 1.58542 0.328033 0
M  V30 6720 H 655.81 2.29435 3.33379 0
M  V30 6721 H 654.38 1.3703 2.80965 0
M  V30 6722 H 653.6 3.57484 1.6613 0
M  V30 6723 H 654.888 4.39759 2.55909 0
M  V30 6724 H 654.286 2.46961 5.08947 0
M  V30 6725 H 652.843 3.18631 5.6861 0
M  V30 6726 N 656.276 -0.40816 1.52223 0
M  V30 6727 C 657.501 -1.18127 1.70472 0
M  V30 6728 C 657.926 -1.83491 0.41384 0
M  V30 6729 O 657.284 -1.70047 -0.628778 0
M  V30 6730 C 657.332 -2.21935 2.84213 0
M  V30 6731 O 656.436 -3.28099 2.4985 0
M  V30 6732 H 655.777 -0.344781 0.56747 0
M  V30 6733 H 658.307 -0.478328 1.9893 0
M  V30 6734 H 658.317 -2.66248 3.09153 0
M  V30 6735 H 656.992 -1.73744 3.7787 0
M  V30 6736 H 655.569 -2.89058 2.35584 0
M  V30 6737 N 657.755 -1.42862 -0.66545 0
M  V30 6738 C 658.983 -1.47246 -1.45349 0
M  V30 6739 C 659.398 -0.0865944 -1.88601 0
M  V30 6740 O 658.755 0.900652 -1.58728 0
M  V30 6741 C 658.806 -2.40772 -2.6965 0
M  V30 6742 O 658.527 -3.73968 -2.2821 0
M  V30 6743 C 660.028 -2.54272 -3.63126 0
M  V30 6744 H 657.248 -0.500497 -0.446927 0
M  V30 6745 H 659.792 -1.87477 -0.816871 0
M  V30 6746 H 657.947 -2.0377 -3.29479 0
M  V30 6747 H 658.361 -4.24146 -3.08546 0
M  V30 6748 H 659.835 -3.23815 -4.47043 0
M  V30 6749 H 660.312 -1.58364 -4.09656 0
M  V30 6750 H 660.918 -2.92036 -3.09185 0
M  V30 6751 N 659.233 0.902656 -1.29189 0
M  V30 6752 C 660.181 2.0278 -1.13943 0
M  V30 6753 C 661.175 1.69308 -0.055787 0
M  V30 6754 O 662.381 1.78707 -0.215371 0
M  V30 6755 H 658.756 0.664595 -0.351877 0
M  V30 6756 H 660.727 2.12778 -2.09208 0
M  V30 6757 C 659.476 3.37657 -0.82966 0
M  V30 6758 H 658.799 3.63913 -1.65551 0
M  V30 6759 H 660.239 4.17078 -0.762998 0
M  V30 6760 C 658.698 3.33648 0.466991 0
M  V30 6761 O 659.228 3.72886 1.49395 0
M  V30 6762 N 657.434 2.86745 0.471761 0
M  V30 6763 H 656.981 2.55009 -0.364406 0
M  V30 6764 H 656.939 2.84446 1.33933 0
M  V30 6765 N 660.711 1.11618 1.11262 0
M  V30 6766 C 661.939 0.888739 1.8684 0
M  V30 6767 C 662.354 -0.561558 1.80255 0
M  V30 6768 O 661.711 -1.38782 1.18515 0
M  V30 6769 C 661.762 1.34422 3.35579 0
M  V30 6770 O 661.483 2.73766 3.42029 0
M  V30 6771 C 662.984 1.15246 4.28058 0
M  V30 6772 H 660.204 0.318152 0.590779 0
M  V30 6773 H 662.748 1.48398 1.40707 0
M  V30 6774 H 660.903 0.79239 3.7921 0
M  V30 6775 H 661.317 2.9355 4.34659 0
M  V30 6776 H 662.791 1.52015 5.30656 0
M  V30 6777 H 663.268 0.0922007 4.39103 0
M  V30 6778 H 663.874 1.69136 3.90222 0
M  V30 6779 N 662.189 -1.289 0.906776 0
M  V30 6780 C 663.139 -2.25122 0.361109 0
M  V30 6781 C 664.123 -1.52169 -0.52283 0
M  V30 6782 O 665.315 -1.73223 -0.363691 0
M  V30 6783 C 662.444 -3.40915 -0.403982 0
M  V30 6784 C 661.53 -4.21198 0.495279 0
M  V30 6785 N 661.921 -4.79636 1.60572 0
M  V30 6786 C 660.219 -4.45027 0.294372 0
M  V30 6787 C 660.92 -5.39977 2.16332 0
M  V30 6788 N 659.896 -5.23753 1.45546 0
M  V30 6789 H 663.698 -2.67869 1.20927 0
M  V30 6790 H 661.212 -1.43592 0.758632 0
M  V30 6791 H 663.209 -4.08922 -0.811695 0
M  V30 6792 H 661.869 -2.99703 -1.24932 0
M  V30 6793 H 662.88 -4.78209 1.98838 0
M  V30 6794 H 659.557 -4.14348 -0.512021 0
M  V30 6795 H 660.947 -5.96266 3.09704 0
M  V30 6796 N 663.667 -0.670007 -1.42649 0
M  V30 6797 C 664.895 -0.19854 -2.05945 0
M  V30 6798 C 665.31 1.14243 -1.50313 0
M  V30 6799 O 664.667 1.70872 -0.641027 0
M  V30 6800 C 664.718 -0.11966 -3.61302 0
M  V30 6801 O 664.439 -1.40764 -4.1487 0
M  V30 6802 C 665.94 0.375878 -4.41704 0
M  V30 6803 H 663.16 -0.0976894 -0.663851 0
M  V30 6804 H 665.704 -0.915392 -1.82868 0
M  V30 6805 H 663.859 0.547851 -3.83507 0
M  V30 6806 H 664.273 -1.27784 -5.08696 0
M  V30 6807 H 665.747 0.379988 -5.50691 0
M  V30 6808 H 666.224 1.41028 -4.15942 0
M  V30 6809 H 666.83 -0.259727 -4.24506 0
M  V30 6810 N 665.145 1.52092 -0.413018 0
M  V30 6811 C 666.077 2.24819 0.445994 0
M  V30 6812 C 667.09 1.27925 1.00692 0
M  V30 6813 O 668.279 1.53845 0.905204 0
M  V30 6814 C 665.379 2.96951 1.6332 0
M  V30 6815 C 664.552 4.20746 1.19548 0
M  V30 6816 C 663.611 4.75668 2.25003 0
M  V30 6817 O 662.637 5.38148 1.85434 0
M  V30 6818 N 663.839 4.57579 3.57214 0
M  V30 6819 H 666.604 2.99176 -0.177209 0
M  V30 6820 H 664.165 1.60102 -0.240601 0
M  V30 6821 H 666.157 3.30586 2.33441 0
M  V30 6822 H 664.727 2.25756 2.16225 0
M  V30 6823 H 663.947 3.92881 0.32224 0
M  V30 6824 H 665.235 5.01132 0.880033 0
M  V30 6825 H 664.633 4.07758 3.92109 0
M  V30 6826 H 663.19 4.95642 4.23299 0
M  V30 6827 N 666.623 0.143563 1.56945 0
M  V30 6828 C 667.848 -0.518701 2.00809 0
M  V30 6829 C 668.273 -1.5785 1.02298 0
M  V30 6830 O 667.631 -1.813 -0.0017839 0
M  V30 6831 C 667.679 -1.09929 3.43436 0
M  V30 6832 O 666.783 -2.21425 3.47915 0
M  V30 6833 H 666.124 -0.127215 0.6517 0
M  V30 6834 H 668.654 0.239283 2.03196 0
M  V30 6835 H 668.664 -1.4288 3.82164 0
M  V30 6836 H 667.339 -0.323162 4.14643 0
M  V30 6837 H 665.916 -1.89728 3.21026 0
M  V30 6838 N 668.101 -1.57061 -0.130224 0
M  V30 6839 C 669.326 -1.88802 -0.858409 0
M  V30 6840 C 669.751 -0.734353 -1.73173 0
M  V30 6841 O 669.109 0.315529 -1.78533 0
M  V30 6842 C 669.157 -3.19228 -1.67708 0
M  V30 6843 O 668.261 -3.04343 -2.78297 0
M  V30 6844 H 667.602 -0.619849 -0.238083 0
M  V30 6845 H 670.132 -2.04271 -0.115995 0
M  V30 6846 H 670.142 -3.51669 -2.06864 0
M  V30 6847 H 668.817 -4.02793 -1.0359 0
M  V30 6848 H 667.394 -2.83346 -2.42425 0
M  V30 6849 N 669.579 0.400081 -1.52437 0
M  V30 6850 C 670.804 1.17221 -1.71096 0
M  V30 6851 C 671.229 1.83269 -0.423565 0
M  V30 6852 O 670.587 1.70378 0.619751 0
M  V30 6853 C 670.635 2.20425 -2.85386 0
M  V30 6854 O 669.739 3.26769 -2.51586 0
M  V30 6855 H 669.08 0.341766 -0.569291 0
M  V30 6856 H 671.61 0.467772 -1.99181 0
M  V30 6857 H 671.62 2.64605 -3.10561 0
M  V30 6858 H 670.295 1.71737 -3.78786 0
M  V30 6859 H 668.872 2.87804 -2.37114 0
M  V30 6860 N 671.057 1.43213 0.657864 0
M  V30 6861 C 672.282 1.48227 1.45064 0
M  V30 6862 C 672.707 0.0999939 1.87834 0
M  V30 6863 O 672.065 -0.905269 1.57081 0
M  V30 6864 C 672.113 2.42931 2.6649 0
M  V30 6865 O 671.217 1.91237 3.6538 0
M  V30 6866 H 670.558 0.501551 0.435135 0
M  V30 6867 H 673.088 1.8808 0.805431 0
M  V30 6868 H 673.098 2.6008 3.1436 0
M  V30 6869 H 671.773 3.43348 2.34701 0
M  V30 6870 H 670.35 1.83726 3.24498 0
M  V30 6871 N 672.536 -0.895792 1.29666 0
M  V30 6872 C 673.761 -1.68528 1.20885 0
M  V30 6873 C 674.186 -1.8673 -0.226595 0
M  V30 6874 O 673.544 -1.39044 -1.16347 0
M  V30 6875 C 673.592 -3.04512 1.93144 0
M  V30 6876 O 672.696 -3.92963 1.25115 0
M  V30 6877 H 672.037 -0.515371 0.418675 0
M  V30 6878 H 674.567 -1.11878 1.71302 0
M  V30 6879 H 674.577 -3.54628 2.0175 0
M  V30 6880 H 673.252 -2.90582 2.97548 0
M  V30 6881 H 671.829 -3.51399 1.24794 0
M  V30 6882 N 674.014 -1.12206 -1.10668 0
M  V30 6883 C 675.239 -0.898938 -1.86906 0
M  V30 6884 C 675.664 0.546346 -1.79991 0
M  V30 6885 O 675.022 1.38655 -1.1681 0
M  V30 6886 C 675.07 -1.37529 -3.33344 0
M  V30 6887 O 674.174 -0.55218 -4.08687 0
M  V30 6888 H 673.515 -0.323163 -0.580053 0
M  V30 6889 H 676.045 -1.49355 -1.39837 0
M  V30 6890 H 676.055 -1.3733 -3.84193 0
M  V30 6891 H 674.73 -2.42767 -3.37693 0
M  V30 6892 H 673.307 -0.620947 -3.67694 0
M  V30 6893 N 675.492 1.28418 -0.913599 0
M  V30 6894 C 676.769 1.89977 -0.465619 0
M  V30 6895 C 677.149 1.82813 1.05559 0
M  V30 6896 O 676.497 1.26397 1.90358 0
M  V30 6897 C 676.707 3.34492 -0.995813 0
M  V30 6898 C 678.055 4.11468 -1.04782 0
M  V30 6899 O 679.079 3.43451 -0.944445 0
M  V30 6900 O 677.938 5.33046 -1.20518 0
M  V30 6901 H 675.032 0.813734 -0.147532 0
M  V30 6902 H 677.578 1.36786 -1.00437 0
M  V30 6903 H 676.35 3.33929 -2.03978 0
M  V30 6904 H 675.973 3.95181 -0.437878 0
M  V30 6905 N 676.97 0.677563 1.42291 0
M  V30 6906 C 678.218 0.200578 2.01102 0
M  V30 6907 C 678.539 -1.19803 1.53858 0
M  V30 6908 O 677.809 -1.80496 0.761439 0
M  V30 6909 H 676.389 0.0711634 0.743603 0
M  V30 6910 H 679.051 0.874691 1.7417 0
M  V30 6911 H 678.147 0.204 3.11433 0
M  V30 6912 N 678.448 -1.51871 0.421078 0
M  V30 6913 C 679.696 -2.01539 -0.150492 0
M  V30 6914 C 680.017 -1.30803 -1.44623 0
M  V30 6915 O 679.287 -0.437568 -1.90951 0
M  V30 6916 H 677.867 -0.744698 -0.0586041 0
M  V30 6917 H 680.529 -1.8668 0.560059 0
M  V30 6918 H 679.625 -3.10264 -0.338068 0
M  V30 6919 N 679.926 -0.151884 -1.56866 0
M  V30 6920 C 680.856 0.781943 -2.20018 0
M  V30 6921 C 681.837 1.25347 -1.14987 0
M  V30 6922 O 683.022 1.31015 -1.43348 0
M  V30 6923 C 680.152 2.01928 -2.82564 0
M  V30 6924 C 679.106 1.68434 -3.93464 0
M  V30 6925 C 678.432 2.99472 -4.42968 0
M  V30 6926 C 679.732 0.927244 -5.14003 0
M  V30 6927 H 681.426 0.255607 -2.98307 0
M  V30 6928 H 678.972 0.121502 -1.43486 0
M  V30 6929 H 680.925 2.67741 -3.25411 0
M  V30 6930 H 679.649 2.56943 -2.01614 0
M  V30 6931 H 678.308 1.04998 -3.51242 0
M  V30 6932 H 677.956 3.52488 -3.58834 0
M  V30 6933 H 677.656 2.77823 -5.17772 0
M  V30 6934 H 679.18 3.66348 -4.88489 0
M  V30 6935 H 680.594 1.48756 -5.53665 0
M  V30 6936 H 678.991 0.810513 -5.94601 0
M  V30 6937 H 680.061 -0.0801163 -4.84834 0
M  V30 6938 N 681.404 1.57128 0.121893 0
M  V30 6939 C 682.651 1.847 0.830188 0
M  V30 6940 C 682.979 0.736543 1.80015 0
M  V30 6941 O 682.234 -0.272358 1.93796 0
M  V30 6942 C 682.533 3.1874 1.61677 0
M  V30 6943 C 682.199 4.43901 0.791361 0
M  V30 6944 C 680.861 4.77887 0.563731 0
M  V30 6945 C 683.213 5.20753 0.215823 0
M  V30 6946 C 680.541 5.86168 -0.249737 0
M  V30 6947 C 682.893 6.29891 -0.584821 0
M  V30 6948 C 681.557 6.6241 -0.822794 0
M  V30 6949 H 680.827 0.675866 0.303787 0
M  V30 6950 H 683.474 1.91276 0.0926894 0
M  V30 6951 H 681.779 3.07728 2.42509 0
M  V30 6952 H 683.476 3.37295 2.16872 0
M  V30 6953 H 680.066 4.17272 0.978867 0
M  V30 6954 H 684.25 4.94851 0.378907 0
M  V30 6955 H 679.506 6.0979 -0.44336 0
M  V30 6956 H 683.68 6.88624 -1.03779 0
M  V30 6957 H 681.307 7.46147 -1.45496 0
M  V30 6958 N 682.882 -0.391992 1.52647 0
M  V30 6959 C 684.298 -0.731848 1.41831 0
M  V30 6960 C 684.498 -1.9423 0.536361 0
M  V30 6961 O 683.554 -2.52499 0.00866571 0
M  V30 6962 C 684.867 -0.969743 2.84634 0
M  V30 6963 C 686.415 -1.0714 2.94092 0
M  V30 6964 C 686.89 -1.34195 4.37899 0
M  V30 6965 N 688.381 -1.41023 4.41211 0
M  V30 6966 C 689.116 -1.63616 5.49561 0
M  V30 6967 N 688.612 -1.83699 6.68002 0
M  V30 6968 N 690.405 -1.65771 5.371 0
M  V30 6969 H 682.556 0.404547 2.08512 0
M  V30 6970 H 684.819 0.11879 0.940528 0
M  V30 6971 H 684.525 -0.152465 3.51369 0
M  V30 6972 H 684.399 -1.88523 3.26709 0
M  V30 6973 H 686.786 -1.87925 2.27526 0
M  V30 6974 H 686.867 -0.133887 2.55449 0
M  V30 6975 H 686.511 -0.539207 5.0503 0
M  V30 6976 H 686.441 -2.29226 4.74092 0
M  V30 6977 H 688.932 -1.27223 3.55841 0
M  V30 6978 H 689.245 -2.00437 7.46354 0
M  V30 6979 H 687.59 -1.8093 6.71036 0
M  V30 6980 H 690.781 -1.4963 4.43541 0
M  V30 6981 H 690.954 -1.83038 6.21612 0
M  V30 6982 N 684.36 -1.4356 -0.65026 0
M  V30 6983 C 685.585 -1.48995 -1.44275 0
M  V30 6984 C 686.01 -0.109954 -1.87778 0
M  V30 6985 O 685.368 0.896926 -1.57559 0
M  V30 6986 C 685.416 -2.44341 -2.65198 0
M  V30 6987 O 684.52 -1.93172 -3.6436 0
M  V30 6988 H 683.861 -0.503852 -0.432469 0
M  V30 6989 H 686.391 -1.88504 -0.795446 0
M  V30 6990 H 686.401 -2.61743 -3.12977 0
M  V30 6991 H 685.076 -3.44588 -2.32877 0
M  V30 6992 H 683.653 -1.85445 -3.23519 0
M  V30 6993 N 685.838 0.888903 -1.30139 0
M  V30 6994 C 687.254 1.17153 -1.08385 0
M  V30 6995 C 687.454 2.0088 0.157925 0
M  V30 6996 O 686.51 2.37668 0.852652 0
M  V30 6997 C 687.823 1.882 -2.34523 0
M  V30 6998 C 689.371 2.00981 -2.39949 0
M  V30 6999 C 689.846 2.75441 -3.65918 0
M  V30 7000 N 691.337 2.82989 -3.66704 0
M  V30 7001 C 692.072 3.41167 -4.60861 0
M  V30 7002 N 691.568 4.00425 -5.6536 0
M  V30 7003 N 693.361 3.38944 -4.48412 0
M  V30 7004 H 685.512 0.33053 -2.09812 0
M  V30 7005 H 687.775 0.208964 -0.924683 0
M  V30 7006 H 687.481 1.34119 -3.25123 0
M  V30 7007 H 687.355 2.88609 -2.42868 0
M  V30 7008 H 689.742 2.54234 -1.4983 0
M  V30 7009 H 689.823 0.996725 -2.35582 0
M  V30 7010 H 689.467 2.22861 -4.56394 0
M  V30 7011 H 689.397 3.77118 -3.67546 0
M  V30 7012 H 691.888 2.40912 -2.91153 0
M  V30 7013 H 692.201 4.42871 -6.33313 0
M  V30 7014 H 690.546 3.98856 -5.69157 0
M  V30 7015 H 693.737 2.91875 -3.6596 0
M  V30 7016 H 693.91 3.83989 -5.21974 0
M  V30 7017 N 687.317 1.12792 1.10072 0
M  V30 7018 C 688.728 0.899346 1.63611 0
M  V30 7019 C 689.079 -0.565547 1.87872 0
M  V30 7020 O 688.204 -1.43081 1.62348 0
M  V30 7021 C 688.799 1.62608 2.97227 0
M  V30 7022 C 687.358 1.44356 3.47618 0
M  V30 7023 C 686.505 1.65958 2.22156 0
M  V30 7024 H 689.456 1.28216 0.935223 0
M  V30 7025 H 689.477 1.0793 3.64872 0
M  V30 7026 H 688.989 2.69221 2.79538 0
M  V30 7027 H 687.09 0.400148 3.70445 0
M  V30 7028 H 687.203 2.20218 4.25489 0
M  V30 7029 H 685.567 1.08395 2.30484 0
M  V30 7030 H 686.35 2.73877 2.06993 0
M  V30 7031 N 688.795 -1.27931 0.920396 0
M  V30 7032 C 689.758 -2.25345 0.41858 0
M  V30 7033 C 690.758 -1.54116 -0.458798 0
M  V30 7034 O 691.948 -1.72235 -0.260912 0
M  V30 7035 C 689.08 -3.38556 -0.399104 0
M  V30 7036 H 690.273 -2.71251 1.27918 0
M  V30 7037 H 687.826 -1.39728 0.700406 0
M  V30 7038 H 688.561 -2.98021 -1.27882 0
M  V30 7039 H 688.346 -3.91426 0.229863 0
M  V30 7040 H 689.836 -4.10976 -0.740817 0
M  V30 7041 N 690.273 -0.685099 -1.4193 0
M  V30 7042 C 691.223 0.00977295 -2.27998 0
M  V30 7043 C 692.207 0.763315 -1.41641 0
M  V30 7044 O 693.399 0.640532 -1.65004 0
M  V30 7045 C 690.528 0.952972 -3.29808 0
M  V30 7046 C 689.614 0.196231 -4.23646 0
M  V30 7047 N 690.005 -0.804401 -4.99363 0
M  V30 7048 C 688.303 0.433213 -4.43891 0
M  V30 7049 C 689.004 -1.25646 -5.67968 0
M  V30 7050 N 687.98 -0.5844 -5.4045 0
M  V30 7051 H 691.782 -0.757586 -2.83968 0
M  V30 7052 H 689.296 -0.515037 -1.54017 0
M  V30 7053 H 691.293 1.46585 -3.9028 0
M  V30 7054 H 689.953 1.72004 -2.75399 0
M  V30 7055 H 690.964 -1.18429 -5.04177 0
M  V30 7056 H 687.641 1.17899 -4.00507 0
M  V30 7057 H 689.031 -2.08622 -6.38691 0
M  V30 7058 N 691.751 1.51645 -0.429126 0
M  V30 7059 C 692.976 2.06917 0.141399 0
M  V30 7060 C 693.401 1.29527 1.36398 0
M  V30 7061 O 692.759 0.33094 1.78254 0
M  V30 7062 C 692.807 3.57776 0.4504 0
M  V30 7063 O 691.911 3.82639 1.53821 0
M  V30 7064 H 691.252 0.663978 0.0054647 0
M  V30 7065 H 693.782 1.95355 -0.608093 0
M  V30 7066 H 693.792 4.01894 0.703249 0
M  V30 7067 H 692.467 4.13532 -0.443213 0
M  V30 7068 H 691.044 3.5039 1.27597 0
M  V30 7069 N 693.229 0.160201 1.56784 0
M  V30 7070 C 694.159 -0.770264 2.2043 0
M  V30 7071 C 695.14 -1.24736 1.15651 0
M  V30 7072 O 696.325 -1.30253 1.44041 0
M  V30 7073 C 693.455 -2.00427 2.83631 0
M  V30 7074 C 692.409 -1.66345 3.94352 0
M  V30 7075 C 691.735 -2.97119 4.4455 0
M  V30 7076 C 693.035 -0.899972 5.14488 0
M  V30 7077 H 694.729 -0.239783 2.98438 0
M  V30 7078 H 692.275 -0.113891 1.43549 0
M  V30 7079 H 694.228 -2.66012 3.26827 0
M  V30 7080 H 692.952 -2.5587 2.02973 0
M  V30 7081 H 691.611 -1.03133 3.51794 0
M  V30 7082 H 691.259 -3.5058 3.60698 0
M  V30 7083 H 690.959 -2.75073 5.19238 0
M  V30 7084 H 692.483 -3.63753 4.90425 0
M  V30 7085 H 693.897 -1.45818 5.54446 0
M  V30 7086 H 692.294 -0.778968 5.95023 0
M  V30 7087 H 693.364 0.105827 4.84785 0
M  V30 7088 N 694.707 -1.5719 -0.113559 0
M  V30 7089 C 696.118 -1.74259 -0.670116 0
M  V30 7090 C 696.469 -0.779694 -1.80042 0
M  V30 7091 O 695.594 0.0461353 -2.16351 0
M  V30 7092 C 696.189 -3.15981 -1.22236 0
M  V30 7093 C 694.748 -3.34537 -1.72516 0
M  V30 7094 C 693.895 -2.70116 -0.627098 0
M  V30 7095 H 696.846 -1.58301 0.112396 0
M  V30 7096 H 696.867 -3.17832 -2.09197 0
M  V30 7097 H 696.379 -3.86038 -0.39949 0
M  V30 7098 H 694.48 -2.6953 -2.57263 0
M  V30 7099 H 694.593 -4.42737 -1.83086 0
M  V30 7100 H 692.957 -2.31501 -1.06204 0
M  V30 7101 H 693.74 -3.42802 0.184889 0
M  V30 7102 N 696.185 0.383891 -1.52853 0
M  V30 7103 C 697.596 0.961591 -1.60032 0
M  V30 7104 C 697.947 1.90819 -0.456333 0
M  V30 7105 O 697.072 2.12288 0.419873 0
M  V30 7106 C 697.667 1.75078 -2.90057 0
M  V30 7107 C 696.226 2.2781 -2.99632 0
M  V30 7108 C 695.373 1.08512 -2.55187 0
M  V30 7109 H 698.324 0.163269 -1.57858 0
M  V30 7110 H 698.345 2.61046 -2.7683 0
M  V30 7111 H 697.857 1.06157 -3.73299 0
M  V30 7112 H 695.958 3.00028 -2.20939 0
M  V30 7113 H 696.071 2.56947 -4.0437 0
M  V30 7114 H 694.435 1.44667 -2.09627 0
M  V30 7115 H 695.218 0.41118 -3.40829 0
M  V30 7116 N 697.663 1.43903 0.642637 0
M  V30 7117 C 698.911 1.45791 1.39962 0
M  V30 7118 C 699.232 0.0873144 1.94804 0
M  V30 7119 O 698.502 -0.878825 1.75081 0
M  V30 7120 H 697.082 0.536797 0.519479 0
M  V30 7121 H 699.744 1.7959 0.757189 0
M  V30 7122 H 698.84 2.17665 2.2367 0
M  V30 7123 N 699.141 -0.881989 1.30609 0
M  V30 7124 C 700.051 -2.02076 1.19174 0
M  V30 7125 C 701.067 -1.73645 0.11102 0
M  V30 7126 O 702.243 -1.98735 0.326528 0
M  V30 7127 C 699.308 -3.3515 0.887438 0
M  V30 7128 C 698.369 -3.76983 2.05383 0
M  V30 7129 C 697.602 -5.03707 1.76395 0
M  V30 7130 O 697.825 -5.66171 0.693302 0
M  V30 7131 O 696.759 -5.42019 2.61723 0
M  V30 7132 H 700.585 -2.14652 2.14845 0
M  V30 7133 H 698.17 -1.00843 1.10232 0
M  V30 7134 H 700.052 -4.14975 0.73306 0
M  V30 7135 H 698.727 -3.23676 -0.0393354 0
M  V30 7136 H 697.634 -2.97849 2.26355 0
M  V30 7137 H 698.967 -3.93066 2.96243 0
M  V30 7138 N 700.619 -1.13374 -1.09472 0
M  V30 7139 C 701.896 -0.806329 -1.78207 0
M  V30 7140 C 702.276 0.702191 -1.99079 0
M  V30 7141 O 701.624 1.63931 -1.59182 0
M  V30 7142 C 701.834 -1.59271 -3.10538 0
M  V30 7143 C 703.182 -1.78509 -3.85253 0
M  V30 7144 O 704.206 -1.55866 -3.20288 0
M  V30 7145 O 703.065 -2.16287 -5.01879 0
M  V30 7146 H 700.159 -0.29435 -0.772843 0
M  V30 7147 H 702.705 -1.23833 -1.16033 0
M  V30 7148 H 701.477 -2.61792 -2.90828 0
M  V30 7149 H 701.1 -1.15562 -3.80436 0
M  V30 7150 N 702.098 1.27442 -0.927168 0
M  V30 7151 C 703.346 1.94007 -0.566203 0
M  V30 7152 C 703.667 1.7323 0.895345 0
M  V30 7153 O 702.937 1.07973 1.63459 0
M  V30 7154 H 701.517 0.717917 -0.206409 0
M  V30 7155 H 704.179 1.55161 -1.17945 0
M  V30 7156 H 703.275 3.02401 -0.772028 0
M  V30 7157 N 703.576 0.692616 1.41565 0
M  V30 7158 C 704.992 0.363878 1.55397 0
M  V30 7159 C 705.192 -1.1294 1.66874 0
M  V30 7160 O 704.248 -1.91517 1.64552 0
M  V30 7161 C 705.561 1.10982 2.7947 0
M  V30 7162 C 707.109 1.09387 2.93263 0
M  V30 7163 C 707.584 1.8215 4.20221 0
M  V30 7164 N 709.075 1.79105 4.27172 0
M  V30 7165 C 709.81 2.32247 5.2426 0
M  V30 7166 N 709.306 2.93847 6.27396 0
M  V30 7167 N 711.099 2.22519 5.1618 0
M  V30 7168 H 703.25 1.66116 1.3236 0
M  V30 7169 H 705.513 0.700848 0.63837 0
M  V30 7170 H 705.219 2.1647 2.77188 0
M  V30 7171 H 705.093 0.686492 3.709 0
M  V30 7172 H 707.48 0.0472638 2.95062 0
M  V30 7173 H 707.561 1.55623 2.03015 0
M  V30 7174 H 707.205 2.86789 4.19183 0
M  V30 7175 H 707.135 1.33351 5.09436 0
M  V30 7176 H 709.626 1.34191 3.53272 0
M  V30 7177 H 709.939 3.31972 6.97864 0
M  V30 7178 H 708.284 2.97924 6.27906 0
M  V30 7179 H 711.475 1.7407 4.34531 0
M  V30 7180 H 711.648 2.64239 5.91677 0
M  V30 7181 N 705.054 -1.51416 0.437162 0
M  V30 7182 C 706.3 -2.02386 -0.129555 0
M  V30 7183 C 706.633 -1.32071 -1.42376 0
M  V30 7184 O 705.908 -0.43559 -1.8956 0
M  V30 7185 C 706.191 -3.5841 -0.348487 0
M  V30 7186 C 706.044 -4.39341 0.964352 0
M  V30 7187 C 707.363 -4.25654 -1.11834 0
M  V30 7188 H 704.482 -0.735587 -0.0456109 0
M  V30 7189 H 707.124 -1.81055 0.576124 0
M  V30 7190 H 705.274 -3.76716 -0.949592 0
M  V30 7191 H 706.946 -4.32685 1.59942 0
M  V30 7192 H 705.189 -4.04432 1.56898 0
M  V30 7193 H 705.86 -5.4667 0.765212 0
M  V30 7194 H 708.336 -4.11617 -0.609165 0
M  V30 7195 H 707.212 -5.34704 -1.24029 0
M  V30 7196 H 707.473 -3.86502 -2.14636 0
M  V30 7197 N 706.532 -0.168513 -1.56696 0
M  V30 7198 C 707.442 0.775435 -2.21414 0
M  V30 7199 C 708.458 1.25529 -1.20492 0
M  V30 7200 O 709.634 1.30801 -1.53144 0
M  V30 7201 C 706.699 1.9886 -2.83999 0
M  V30 7202 C 705.76 1.5559 -4.00113 0
M  V30 7203 C 704.993 2.71124 -4.59704 0
M  V30 7204 O 705.216 3.87917 -4.18182 0
M  V30 7205 O 704.15 2.4536 -5.4962 0
M  V30 7206 H 707.976 0.254416 -3.02632 0
M  V30 7207 H 705.561 0.0595507 -1.49281 0
M  V30 7208 H 707.443 2.69816 -3.23693 0
M  V30 7209 H 706.118 2.49874 -2.05779 0
M  V30 7210 H 705.025 0.815924 -3.65094 0
M  V30 7211 H 706.358 1.09271 -4.79917 0
M  V30 7212 N 708.01 1.57248 0.105221 0
M  V30 7213 C 709.421 1.74612 0.660865 0
M  V30 7214 C 709.772 0.789231 1.79626 0
M  V30 7215 O 708.897 -0.0346611 2.16372 0
M  V30 7216 C 709.492 3.16624 1.20559 0
M  V30 7217 C 708.051 3.35447 1.7074 0
M  V30 7218 C 707.198 2.70445 0.612764 0
M  V30 7219 H 710.149 1.5824 -0.12079 0
M  V30 7220 H 710.17 3.18937 2.07508 0
M  V30 7221 H 709.682 3.86245 0.379012 0
M  V30 7222 H 707.783 2.7089 2.5583 0
M  V30 7223 H 707.896 4.43702 1.80736 0
M  V30 7224 H 706.26 2.32061 1.04975 0
M  V30 7225 H 707.043 3.42699 -0.203066 0
M  V30 7226 N 709.488 -0.375779 1.53054 0
M  V30 7227 C 710.718 -1.1387 1.72386 0
M  V30 7228 C 711.126 -1.8382 0.447966 0
M  V30 7229 O 710.469 -1.74027 -0.588244 0
M  V30 7230 C 710.531 -2.22047 2.82728 0
M  V30 7231 C 710.195 -1.71951 4.23417 0
M  V30 7232 C 711.192 -1.18909 5.06119 0
M  V30 7233 C 708.877 -1.77773 4.69789 0
M  V30 7234 C 710.871 -0.723529 6.3328 0
M  V30 7235 C 708.558 -1.30829 5.96931 0
M  V30 7236 C 709.556 -0.782077 6.78508 0
M  V30 7237 O 709.244 -0.319529 8.03265 0
M  V30 7238 H 708.976 -0.346835 0.580242 0
M  V30 7239 H 711.53 -0.443748 2.00549 0
M  V30 7240 H 709.76 -2.95006 2.50017 0
M  V30 7241 H 711.449 -2.83654 2.90336 0
M  V30 7242 H 712.215 -1.13758 4.7147 0
M  V30 7243 H 708.094 -2.17673 4.06373 0
M  V30 7244 H 711.638 -0.312126 6.96901 0
M  V30 7245 H 707.535 -1.3567 6.31081 0
M  V30 7246 H 708.303 -0.439796 8.17318 0
M  V30 7247 N 710.966 -1.44241 -0.634997 0
M  V30 7248 C 712.212 -1.47038 -1.39669 0
M  V30 7249 C 712.545 -0.101122 -1.93937 0
M  V30 7250 O 711.82 0.880699 -1.73418 0
M  V30 7251 C 712.103 -2.52763 -2.56482 0
M  V30 7252 C 711.956 -3.99032 -2.07589 0
M  V30 7253 C 713.275 -2.55031 -3.58674 0
M  V30 7254 H 710.394 -0.53537 -0.506506 0
M  V30 7255 H 713.036 -1.75898 -0.718317 0
M  V30 7256 H 711.186 -2.28284 -3.14354 0
M  V30 7257 H 712.858 -4.3463 -1.54577 0
M  V30 7258 H 711.101 -4.10994 -1.38804 0
M  V30 7259 H 711.772 -4.68649 -2.91671 0
M  V30 7260 H 714.248 -2.76893 -3.10595 0
M  V30 7261 H 713.124 -3.30916 -4.37934 0
M  V30 7262 H 713.385 -1.59085 -4.12486 0
M  V30 7263 N 712.444 0.87505 -1.31075 0
M  V30 7264 C 713.721 1.60976 -1.11113 0
M  V30 7265 C 714.101 2.08409 0.336006 0
M  V30 7266 O 713.449 1.85858 1.32924 0
M  V30 7267 C 713.659 2.77166 -2.12085 0
M  V30 7268 C 715.007 3.47254 -2.44335 0
M  V30 7269 O 716.031 2.87367 -2.10472 0
M  V30 7270 O 714.89 4.55276 -3.02301 0
M  V30 7271 H 711.984 0.707982 -0.427424 0
M  V30 7272 H 714.53 0.920957 -1.42536 0
M  V30 7273 H 713.302 2.39494 -3.09449 0
M  V30 7274 H 712.925 3.53737 -1.81538 0
M  V30 7275 N 713.922 1.13953 1.08869 0
M  V30 7276 C 715.169 0.90481 1.81161 0
M  V30 7277 C 715.497 -0.568824 1.85996 0
M  V30 7278 O 714.752 -1.43723 1.32823 0
M  V30 7279 C 715.051 1.44495 3.26888 0
M  V30 7280 C 714.717 2.93641 3.42178 0
M  V30 7281 C 713.379 3.34361 3.46059 0
M  V30 7282 C 715.731 3.89568 3.46246 0
M  V30 7283 C 713.059 4.69681 3.51592 0
M  V30 7284 C 715.411 5.2474 3.53314 0
M  V30 7285 C 714.075 5.64979 3.55465 0
M  V30 7286 H 713.345 0.331094 0.662916 0
M  V30 7287 H 715.992 1.42242 1.28217 0
M  V30 7288 H 714.297 0.848169 3.82509 0
M  V30 7289 H 715.994 1.23934 3.81368 0
M  V30 7290 H 712.584 2.61156 3.39846 0
M  V30 7291 H 716.768 3.59192 3.42483 0
M  V30 7292 H 712.024 5.00224 3.51547 0
M  V30 7293 H 716.198 5.98882 3.55406 0
M  V30 7294 H 713.825 6.69821 3.59505 0
M  V30 7295 N 715.4 -1.26948 0.933913 0
M  V30 7296 C 716.363 -2.24889 0.442457 0
M  V30 7297 C 717.363 -1.54594 -0.442426 0
M  V30 7298 O 718.553 -1.72502 -0.242629 0
M  V30 7299 C 715.685 -3.3896 -0.363173 0
M  V30 7300 H 716.878 -2.69879 1.30787 0
M  V30 7301 H 714.431 -1.38978 0.715187 0
M  V30 7302 H 715.166 -2.99361 -1.24714 0
M  V30 7303 H 714.951 -3.9116 0.271366 0
M  V30 7304 H 716.441 -4.11739 -0.697186 0
M  V30 7305 N 716.879 -0.700114 -1.41195 0
M  V30 7306 C 717.789 -0.0382854 -2.34569 0
M  V30 7307 C 718.805 0.761036 -1.56474 0
M  V30 7308 O 719.981 0.697553 -1.88934 0
M  V30 7309 C 717.046 0.883522 -3.35253 0
M  V30 7310 C 716.107 0.0758957 -4.29233 0
M  V30 7311 C 715.34 0.9538 -5.25108 0
M  V30 7312 O 715.563 2.19326 -5.26547 0
M  V30 7313 O 714.497 0.401049 -6.00562 0
M  V30 7314 H 718.323 -0.808073 -2.92752 0
M  V30 7315 H 715.908 -0.460479 -1.42127 0
M  V30 7316 H 717.79 1.41199 -3.9704 0
M  V30 7317 H 716.465 1.63272 -2.79506 0
M  V30 7318 H 715.372 -0.497274 -3.7078 0
M  V30 7319 H 716.705 -0.634741 -4.8809 0
M  V30 7320 N 718.357 1.51182 -0.445186 0
M  V30 7321 C 719.604 2.02152 0.118645 0
M  V30 7322 C 719.932 1.32888 1.42025 0
M  V30 7323 O 719.187 0.435041 1.90803 0
M  V30 7324 C 719.486 3.55408 0.376797 0
M  V30 7325 C 719.152 4.43008 -0.839945 0
M  V30 7326 C 717.814 4.66669 -1.17361 0
M  V30 7327 C 720.166 4.9435 -1.65127 0
M  V30 7328 C 717.494 5.38919 -2.31913 0
M  V30 7329 C 719.846 5.67857 -2.78786 0
M  V30 7330 C 718.51 5.89779 -3.12597 0
M  V30 7331 H 717.78 0.739727 0.0434152 0
M  V30 7332 H 720.427 1.82055 -0.593984 0
M  V30 7333 H 718.732 3.73879 1.1714 0
M  V30 7334 H 720.429 3.92388 0.826602 0
M  V30 7335 H 717.019 4.24793 -0.569958 0
M  V30 7336 H 721.203 4.75947 -1.4067 0
M  V30 7337 H 716.459 5.54105 -2.58413 0
M  V30 7338 H 720.633 6.06628 -3.42017 0
M  V30 7339 H 718.26 6.45542 -4.01471 0
M  V30 7340 N 719.835 0.176821 1.56605 0
M  V30 7341 C 721.065 -0.472142 2.01133 0
M  V30 7342 C 721.473 -1.56979 1.05614 0
M  V30 7343 O 720.816 -1.83632 0.0500137 0
M  V30 7344 C 720.878 -1.10547 3.42081 0
M  V30 7345 C 720.542 -0.148806 4.56758 0
M  V30 7346 C 721.539 0.634939 5.16008 0
M  V30 7347 C 719.224 -0.0430325 5.02282 0
M  V30 7348 C 721.218 1.5116 6.19217 0
M  V30 7349 C 718.905 0.83721 6.05338 0
M  V30 7350 C 719.903 1.61311 6.63677 0
M  V30 7351 O 719.591 2.47863 7.64735 0
M  V30 7352 H 719.323 -0.124725 0.664394 0
M  V30 7353 H 721.877 0.277329 2.03519 0
M  V30 7354 H 720.107 -1.90318 3.36625 0
M  V30 7355 H 721.796 -1.6572 3.70529 0
M  V30 7356 H 722.562 0.563424 4.81716 0
M  V30 7357 H 718.441 -0.636753 4.56581 0
M  V30 7358 H 721.985 2.11767 6.64681 0
M  V30 7359 H 717.882 0.909908 6.39055 0
M  V30 7360 H 718.65 2.4144 7.8208 0
M  V30 7361 N 721.313 -1.57302 -0.09688 0
M  V30 7362 C 722.729 -1.53094 -0.451041 0
M  V30 7363 C 722.929 -0.893265 -1.80618 0
M  V30 7364 O 721.985 -0.485013 -2.47798 0
M  V30 7365 C 723.298 -2.9782 -0.415172 0
M  V30 7366 C 724.846 -3.09026 -0.497155 0
M  V30 7367 C 725.321 -4.55356 -0.491452 0
M  V30 7368 N 726.812 -4.59896 -0.552258 0
M  V30 7369 C 727.547 -5.70563 -0.569654 0
M  V30 7370 N 727.043 -6.90666 -0.543365 0
M  V30 7371 N 728.836 -5.58733 -0.614331 0
M  V30 7372 H 720.987 -1.97131 0.790771 0
M  V30 7373 H 723.25 -0.901211 0.294147 0
M  V30 7374 H 722.956 -3.47933 0.513362 0
M  V30 7375 H 722.83 -3.56416 -1.23481 0
M  V30 7376 H 725.217 -2.58902 -1.41611 0
M  V30 7377 H 725.298 -2.53386 0.35059 0
M  V30 7378 H 724.942 -5.06131 0.423549 0
M  V30 7379 H 724.872 -5.08832 -1.35639 0
M  V30 7380 H 727.363 -3.73456 -0.577842 0
M  V30 7381 H 727.676 -7.70769 -0.559873 0
M  V30 7382 H 726.021 -6.93123 -0.510441 0
M  V30 7383 H 729.212 -4.63809 -0.632387 0
M  V30 7384 H 729.385 -6.44984 -0.62442 0
M  V30 7385 N 722.791 0.367657 -1.53252 0
M  V30 7386 C 723.721 1.45632 -1.8252 0
M  V30 7387 C 724.702 1.55979 -0.678568 0
M  V30 7388 O 725.887 1.70581 -0.928217 0
M  V30 7389 C 723.017 2.82994 -2.01325 0
M  V30 7390 C 721.971 2.87473 -3.17086 0
M  V30 7391 C 721.297 4.2749 -3.21179 0
M  V30 7392 C 722.597 2.55182 -4.55719 0
M  V30 7393 H 724.291 1.21387 -2.73689 0
M  V30 7394 H 721.837 0.58251 -1.31692 0
M  V30 7395 H 723.79 3.59179 -2.20383 0
M  V30 7396 H 722.514 3.08622 -1.06864 0
M  V30 7397 H 721.173 2.13739 -2.97844 0
M  V30 7398 H 720.821 4.5019 -2.24361 0
M  V30 7399 H 720.521 4.31403 -3.98955 0
M  V30 7400 H 722.045 5.0555 -3.42419 0
M  V30 7401 H 723.459 3.21081 -4.74953 0
M  V30 7402 H 721.856 2.70414 -5.3572 0
M  V30 7403 H 722.926 1.5044 -4.60973 0
M  V30 7404 N 724.269 1.44576 0.627338 0
M  V30 7405 C 725.515 1.4877 1.38705 0
M  V30 7406 C 725.87 0.119976 1.92026 0
M  V30 7407 O 725.163 -0.865341 1.70946 0
M  V30 7408 C 725.357 2.48644 2.56731 0
M  V30 7409 C 725.186 3.94994 2.14965 0
M  V30 7410 C 723.956 4.63139 2.02065 0
M  V30 7411 C 726.154 4.841 1.73643 0
M  V30 7412 N 724.136 5.94296 1.53902 0
M  V30 7413 C 725.507 6.0473 1.36753 0
M  V30 7414 C 727.562 4.71131 1.61058 0
M  V30 7415 C 726.265 7.13831 0.885353 0
M  V30 7416 C 728.291 5.8026 1.14244 0
M  V30 7417 C 727.653 7.00034 0.783067 0
M  V30 7418 H 723.752 0.599415 0.50222 0
M  V30 7419 H 726.336 1.80926 0.719285 0
M  V30 7420 H 724.507 2.18472 3.2113 0
M  V30 7421 H 726.239 2.4311 3.23542 0
M  V30 7422 H 722.994 4.18007 2.22637 0
M  V30 7423 H 723.418 6.63985 1.32108 0
M  V30 7424 H 728.06 3.78964 1.87473 0
M  V30 7425 H 725.778 8.05804 0.608716 0
M  V30 7426 H 729.364 5.72254 1.0496 0
M  V30 7427 H 728.244 7.8304 0.426381 0
M  V30 7428 N 725.747 -0.868086 1.31537 0
M  V30 7429 C 726.972 -1.65926 1.24432 0
M  V30 7430 C 727.397 -1.87169 -0.186936 0
M  V30 7431 O 726.755 -1.4148 -1.13371 0
M  V30 7432 C 726.803 -3.00347 1.9956 0
M  V30 7433 O 725.907 -3.90221 1.33422 0
M  V30 7434 H 725.248 -0.506375 0.429512 0
M  V30 7435 H 727.778 -1.0822 1.73637 0
M  V30 7436 H 727.788 -3.50269 2.09226 0
M  V30 7437 H 726.463 -2.84205 3.03645 0
M  V30 7438 H 725.04 -3.48672 1.32219 0
M  V30 7439 N 727.225 -1.14528 -1.08264 0
M  V30 7440 C 728.471 -0.91576 -1.80947 0
M  V30 7441 C 728.804 0.55623 -1.86064 0
M  V30 7442 O 728.079 1.41207 -1.33756 0
M  V30 7443 C 728.362 -1.51917 -3.26486 0
M  V30 7444 C 728.215 -3.06111 -3.2957 0
M  V30 7445 C 729.534 -1.19724 -4.23502 0
M  V30 7446 H 726.653 -0.334113 -0.656915 0
M  V30 7447 H 729.295 -1.41547 -1.26746 0
M  V30 7448 H 727.445 -1.0942 -3.72773 0
M  V30 7449 H 729.117 -3.57448 -2.91597 0
M  V30 7450 H 727.36 -3.40483 -2.688 0
M  V30 7451 H 728.031 -3.43438 -4.32151 0
M  V30 7452 H 730.507 -1.56467 -3.85561 0
M  V30 7453 H 729.383 -1.64575 -5.23647 0
M  V30 7454 H 729.644 -0.112771 -4.41956 0
M  V30 7455 N 728.703 1.26451 -0.940633 0
M  V30 7456 C 729.98 1.88947 -0.505811 0
M  V30 7457 C 730.36 1.85011 1.01657 0
M  V30 7458 O 729.708 1.30406 1.87634 0
M  V30 7459 C 729.918 3.32304 -1.06654 0
M  V30 7460 C 731.266 4.09153 -1.13486 0
M  V30 7461 O 732.29 3.41371 -1.01708 0
M  V30 7462 O 731.149 5.30369 -1.31797 0
M  V30 7463 H 728.243 0.810422 -0.164759 0
M  V30 7464 H 730.789 1.34625 -1.03316 0
M  V30 7465 H 729.561 3.29527 -2.11015 0
M  V30 7466 H 729.184 3.94164 -0.521603 0
M  V30 7467 N 730.181 0.707592 1.40822 0
M  V30 7468 C 731.131 0.0265008 2.27985 0
M  V30 7469 C 732.115 -0.740685 1.42838 0
M  V30 7470 O 733.307 -0.6142 1.66002 0
M  V30 7471 C 730.436 -0.900382 3.31282 0
M  V30 7472 C 729.522 -0.128807 4.23904 0
M  V30 7473 N 729.913 0.883744 4.9802 0
M  V30 7474 C 728.211 -0.362539 4.44524 0
M  V30 7475 C 728.912 1.34666 5.65898 0
M  V30 7476 N 727.888 0.670306 5.39451 0
M  V30 7477 H 731.69 0.802667 2.82727 0
M  V30 7478 H 729.204 0.539475 1.53178 0
M  V30 7479 H 731.201 -1.40357 3.92563 0
M  V30 7480 H 729.861 -1.67601 2.781 0
M  V30 7481 H 730.872 1.26435 5.0223 0
M  V30 7482 H 727.549 -1.11512 4.02332 0
M  V30 7483 H 728.939 2.18756 6.35292 0
M  V30 7484 N 731.66 -1.50943 0.453197 0
M  V30 7485 C 732.908 -2.01813 -0.107709 0
M  V30 7486 C 733.229 -1.33841 -1.41816 0
M  V30 7487 O 732.499 -0.477973 -1.8998 0
M  V30 7488 H 731.079 -0.745773 -0.0427948 0
M  V30 7489 H 733.741 -1.8545 0.599531 0
M  V30 7490 H 732.837 -3.10911 -0.27218 0
M  V30 7491 N 733.138 -0.185124 -1.56509 0
M  V30 7492 C 734.048 0.751908 -2.22224 0
M  V30 7493 C 735.064 1.24244 -1.21817 0
M  V30 7494 O 736.24 1.29169 -1.54523 0
M  V30 7495 C 733.305 1.95837 -2.86092 0
M  V30 7496 C 732.366 1.51337 -4.01741 0
M  V30 7497 C 731.599 2.66233 -4.62554 0
M  V30 7498 O 731.822 3.8346 -4.22273 0
M  V30 7499 O 730.756 2.39517 -5.52191 0
M  V30 7500 H 734.582 0.222304 -3.02885 0
M  V30 7501 H 732.167 0.0437141 -1.49336 0
M  V30 7502 H 734.049 2.66368 -3.26536 0
M  V30 7503 H 732.724 2.47677 -2.08417 0
M  V30 7504 H 731.631 0.777155 -3.65939 0
M  V30 7505 H 732.964 1.04175 -4.81049 0
M  V30 7506 N 734.616 1.57351 0.0885366 0
M  V30 7507 C 735.548 1.99221 1.13329 0
M  V30 7508 C 736.561 0.895705 1.35945 0
M  V30 7509 O 737.75 1.17376 1.34481 0
M  V30 7510 C 734.85 2.3016 2.48756 0
M  V30 7511 C 734.023 3.61444 2.46327 0
M  V30 7512 C 733.082 3.80244 3.63732 0
M  V30 7513 O 732.108 4.52024 3.45924 0
M  V30 7514 N 733.31 3.2132 4.8346 0
M  V30 7515 H 736.075 2.89456 0.776862 0
M  V30 7516 H 733.636 1.59505 0.277428 0
M  V30 7517 H 735.628 2.39925 3.25911 0
M  V30 7518 H 734.198 1.459 2.76464 0
M  V30 7519 H 733.418 3.62588 1.54673 0
M  V30 7520 H 734.706 4.47678 2.41789 0
M  V30 7521 H 734.104 2.63028 5.00832 0
M  V30 7522 H 732.661 3.3656 5.58185 0
M  V30 7523 N 736.094 -0.359525 1.53444 0
M  V30 7524 C 737.319 -1.12644 1.74144 0
M  V30 7525 C 737.744 -1.82082 0.472007 0
M  V30 7526 O 737.102 -1.71962 -0.57436 0
M  V30 7527 C 737.15 -2.12781 2.9113 0
M  V30 7528 O 736.254 -3.19984 2.60162 0
M  V30 7529 H 735.595 -0.326553 0.578152 0
M  V30 7530 H 738.125 -0.414798 2.00351 0
M  V30 7531 H 738.135 -2.56278 3.17467 0
M  V30 7532 H 736.81 -1.61634 3.83207 0
M  V30 7533 H 735.387 -2.81417 2.44661 0
M  V30 7534 N 737.572 -1.44907 -0.619662 0
M  V30 7535 C 738.818 -1.48512 -1.38102 0
M  V30 7536 C 739.151 -0.121686 -1.93818 0
M  V30 7537 O 738.426 0.862256 -1.74343 0
M  V30 7538 C 738.709 -2.55469 -2.53787 0
M  V30 7539 C 738.562 -4.01212 -2.03345 0
M  V30 7540 C 739.881 -2.58821 -3.55949 0
M  V30 7541 H 737 -0.540712 -0.500799 0
M  V30 7542 H 739.642 -1.7665 -0.69962 0
M  V30 7543 H 737.792 -2.31606 -3.11915 0
M  V30 7544 H 739.464 -4.36245 -1.49959 0
M  V30 7545 H 737.707 -4.12443 -1.34438 0
M  V30 7546 H 738.378 -4.71717 -2.86683 0
M  V30 7547 H 740.854 -2.80172 -3.07641 0
M  V30 7548 H 739.73 -3.35542 -4.34399 0
M  V30 7549 H 739.991 -1.63451 -4.10775 0
M  V30 7550 N 739.05 0.861098 -1.31996 0
M  V30 7551 C 740.296 1.61721 -1.22369 0
M  V30 7552 C 740.629 1.93 0.215587 0
M  V30 7553 O 739.904 1.56789 1.15098 0
M  V30 7554 C 740.187 2.9417 -2.07691 0
M  V30 7555 C 740.04 2.69714 -3.59965 0
M  V30 7556 C 741.359 3.95372 -1.93312 0
M  V30 7557 H 738.478 0.586822 -0.44588 0
M  V30 7558 H 741.12 0.994788 -1.61876 0
M  V30 7559 H 739.27 3.47292 -1.74128 0
M  V30 7560 H 740.942 2.23196 -4.03709 0
M  V30 7561 H 739.185 2.03789 -3.82952 0
M  V30 7562 H 739.856 3.63996 -4.14983 0
M  V30 7563 H 742.332 3.51487 -2.22701 0
M  V30 7564 H 741.208 4.85916 -2.55298 0
M  V30 7565 H 741.469 4.32865 -0.898922 0
M  V30 7566 N 740.528 1.15101 1.07655 0
M  V30 7567 C 741.756 0.947731 1.83918 0
M  V30 7568 C 742.171 -0.503927 1.81951 0
M  V30 7569 O 741.528 -1.34941 1.2287 0
M  V30 7570 C 741.579 1.4503 3.31132 0
M  V30 7571 O 741.3 2.84508 3.33146 0
M  V30 7572 C 742.801 1.28806 4.24174 0
M  V30 7573 H 740.021 0.336786 0.580358 0
M  V30 7574 H 742.565 1.52799 1.35914 0
M  V30 7575 H 740.72 0.912632 3.76497 0
M  V30 7576 H 741.134 3.0723 4.251 0
M  V30 7577 H 742.608 1.6882 5.25551 0
M  V30 7578 H 743.085 0.231851 4.38588 0
M  V30 7579 H 743.691 1.81465 3.84643 0
M  V30 7580 N 742.006 -1.2595 0.947325 0
M  V30 7581 C 742.969 -2.24407 0.466285 0
M  V30 7582 C 743.969 -1.55054 -0.426005 0
M  V30 7583 O 745.159 -1.7275 -0.224319 0
M  V30 7584 C 742.291 -3.39326 -0.327201 0
M  V30 7585 H 743.484 -2.68477 1.33642 0
M  V30 7586 H 741.037 -1.38211 0.729887 0
M  V30 7587 H 741.772 -3.00667 -1.21532 0
M  V30 7588 H 741.557 -3.9085 0.312839 0
M  V30 7589 H 743.047 -4.12455 -0.653477 0
M  V30 7590 N 743.484 -0.715051 -1.40445 0
M  V30 7591 C 744.895 -0.326763 -1.83818 0
M  V30 7592 C 745.246 1.13851 -1.59789 0
M  V30 7593 O 744.371 1.87611 -1.07848 0
M  V30 7594 C 744.966 -0.586297 -3.33688 0
M  V30 7595 C 743.525 -0.251724 -3.75557 0
M  V30 7596 C 742.672 -0.858928 -2.63662 0
M  V30 7597 H 745.623 -0.914241 -1.2972 0
M  V30 7598 H 745.644 0.148636 -3.8021 0
M  V30 7599 H 745.156 -1.65281 -3.51146 0
M  V30 7600 H 743.257 0.809754 -3.63695 0
M  V30 7601 H 743.37 -0.720348 -4.73654 0
M  V30 7602 H 741.734 -0.287013 -2.53078 0
M  V30 7603 H 742.517 -1.9297 -2.83932 0
M  V30 7604 O 745.001 1.49816 -0.603118 0
M  V30 7605 H 745.692 1.93366 -0.113681 0
M  V30 END ATOM
M  V30 BEGIN BOND
M  V30 END BOND
M  V30 END CTAB
M  END
$$$$
