drugbank_target|Q15796 Mothers against decapentaplegic homolog 2 (DB04522)
 OpenBabel12092120533D

  0  0  0     0  0            999 V3000
M  V30 BEGIN CTAB
M  V30 COUNTS 7252 7351 0 0 0
M  V30 BEGIN ATOM
M  V30 1 H -0.908 1.98254 -0.117106 0
M  V30 2 N 0 1.576 0 0
M  V30 3 C 0.933 2.03868 1.02534 0
M  V30 4 C 1.911 0.928543 1.3348 0
M  V30 5 O 3.095 1.19667 1.45644 0
M  V30 6 C 0.222 2.43627 2.35294 0
M  V30 7 C -0.732 3.65373 2.2001 0
M  V30 8 S 0.101 5.13292 1.52614 0
M  V30 9 C 1.257 5.56322 2.86805 0
M  V30 10 H 1.49 2.90518 0.631377 0
M  V30 11 H -0.977 1.52953 0.210867 0
M  V30 12 H 0.981 2.67203 3.11629 0
M  V30 13 H -0.358 1.57376 2.7183 0
M  V30 14 H -1.165 3.90944 3.18086 0
M  V30 15 H -1.563 3.418 1.51819 0
M  V30 16 H 0.729 5.58782 3.83104 0
M  V30 17 H 1.672 6.56266 2.65933 0
M  V30 18 H 2.08 4.83886 2.90714 0
M  V30 19 N 1.4781 -0.272755 1.55222 0
M  V30 20 C 2.7031 -1.02683 1.80197 0
M  V30 21 C 3.1281 -1.79142 0.573551 0
M  V30 22 O 2.4861 -1.74917 -0.476849 0
M  V30 23 C 2.5341 -1.9609 3.02624 0
M  V30 24 O 1.6381 -3.04863 2.77727 0
M  V30 25 H 0.9791 -0.293557 0.595584 0
M  V30 26 H 3.5091 -0.30159 2.02365 0
M  V30 27 H 3.5191 -2.38039 3.31363 0
M  V30 28 H 2.1941 -1.39851 3.91682 0
M  V30 29 H 0.7711 -2.67228 2.60084 0
M  V30 30 N 2.9562 -1.48159 -0.537278 0
M  V30 31 C 4.1812 -1.59707 -1.32319 0
M  V30 32 C 4.6062 -0.254859 -1.86365 0
M  V30 33 O 3.9642 0.772378 -1.64024 0
M  V30 34 C 4.0122 -2.6412 -2.45505 0
M  V30 35 O 3.1162 -2.20774 -3.48328 0
M  V30 36 H 2.4572 -0.535791 -0.392204 0
M  V30 37 H 4.9872 -1.94092 -0.647268 0
M  V30 38 H 4.9972 -2.85166 -2.91795 0
M  V30 39 H 3.6722 -3.61567 -2.05528 0
M  V30 40 H 2.2492 -2.09911 -3.08207 0
M  V30 41 N 4.4343 0.785586 -1.36625 0
M  V30 42 C 5.6833 1.53883 -1.30396 0
M  V30 43 C 5.9963 1.95271 0.113452 0
M  V30 44 O 7.2023 2.69858 0.298142 0
M  V30 45 C 5.6583 2.77808 -2.28802 0
M  V30 46 C 5.2663 2.43574 -3.75999 0
M  V30 47 C 7.0103 3.55783 -2.31558 0
M  V30 48 C 4.9173 3.63919 -4.66173 0
M  V30 49 H 3.8473 0.577678 -0.484566 0
M  V30 50 H 6.4983 0.861705 -1.62009 0
M  V30 51 H 4.8803 3.47339 -1.90188 0
M  V30 52 H 6.0543 1.81916 -4.23371 0
M  V30 53 H 4.3693 1.78803 -3.76056 0
M  V30 54 H 6.9663 4.45205 -2.96137 0
M  V30 55 H 7.3093 3.94644 -1.3252 0
M  V30 56 H 7.8423 2.93235 -2.68809 0
M  V30 57 H 4.5813 3.3015 -5.66287 0
M  V30 58 H 4.1013 4.2473 -4.23515 0
M  V30 59 H 5.7803 4.30901 -4.82632 0
M  V30 60 N 5.9124 1.20967 1.01018 0
M  V30 61 C 6.8424 0.988272 2.11555 0
M  V30 62 C 7.8234 -0.0849778 1.69888 0
M  V30 63 O 9.0084 0.0738202 1.9406 0
M  V30 64 C 6.1384 0.546528 3.42973 0
M  V30 65 C 5.0924 1.56375 3.9841 0
M  V30 66 C 4.4184 0.97842 5.25672 0
M  V30 67 C 5.7184 2.94922 4.31066 0
M  V30 68 H 7.4124 1.91276 2.30334 0
M  V30 69 H 4.9584 0.921073 1.1069 0
M  V30 70 H 6.9114 0.378839 4.19694 0
M  V30 71 H 5.6354 -0.413598 3.23971 0
M  V30 72 H 4.2944 1.71891 3.23804 0
M  V30 73 H 3.9424 0.0101688 5.02999 0
M  V30 74 H 3.6424 1.65784 5.63728 0
M  V30 75 H 5.1664 0.821939 6.05043 0
M  V30 76 H 6.5804 2.8288 4.9865 0
M  V30 77 H 4.9774 3.5983 4.80253 0
M  V30 78 H 6.0474 3.4616 3.39561 0
M  V30 79 N 7.3905 -1.2043 1.01659 0
M  V30 80 C 8.8015 -1.71517 0.737482 0
M  V30 81 C 9.1525 -1.81547 -0.743973 0
M  V30 82 O 8.2775 -1.47803 -1.58061 0
M  V30 83 C 8.8725 -3.11515 1.33206 0
M  V30 84 C 7.4315 -3.59912 1.10183 0
M  V30 85 C 6.5785 -2.37116 1.43776 0
M  V30 86 H 9.5295 -1.05444 1.18606 0
M  V30 87 H 9.5505 -3.73575 0.722636 0
M  V30 88 H 9.0625 -3.04182 2.41028 0
M  V30 89 H 7.1635 -3.72577 0.0412756 0
M  V30 90 H 7.2765 -4.44731 1.78188 0
M  V30 91 H 5.6405 -2.39857 0.856778 0
M  V30 92 H 6.4235 -2.32424 2.52654 0
M  V30 93 N 8.8686 -0.792821 -1.36206 0
M  V30 94 C 10.1156 -0.366786 -1.99151 0
M  V30 95 C 10.4436 1.06243 -1.62919 0
M  V30 96 O 9.6986 1.74927 -0.877442 0
M  V30 97 C 9.9976 -0.481501 -3.54142 0
M  V30 98 C 9.6636 -1.87202 -4.10203 0
M  V30 99 C 8.3256 -2.25248 -4.25226 0
M  V30 100 C 10.6776 -2.78237 -4.40719 0
M  V30 101 C 8.0056 -3.53723 -4.68078 0
M  V30 102 C 10.3576 -4.06144 -4.85005 0
M  V30 103 C 9.0216 -4.44207 -4.98234 0
M  V30 104 H 8.2916 -0.134217 -0.728743 0
M  V30 105 H 10.9386 -1.01094 -1.62641 0
M  V30 106 H 9.2436 0.246146 -3.91026 0
M  V30 107 H 10.9406 -0.132844 -4.0078 0
M  V30 108 H 7.5306 -1.56639 -3.98951 0
M  V30 109 H 11.7146 -2.50097 -4.28679 0
M  V30 110 H 6.9706 -3.8308 -4.76508 0
M  V30 111 H 11.1446 -4.76796 -5.07581 0
M  V30 112 H 8.7716 -5.43814 -5.31197 0
M  V30 113 N 10.3467 1.47872 -0.545128 0
M  V30 114 C 11.5747 2.06889 -0.021084 0
M  V30 115 C 11.9897 1.39955 1.2672 0
M  V30 116 O 11.3467 0.492036 1.75742 0
M  V30 117 C 11.3977 3.60996 0.190817 0
M  V30 118 O 11.1187 4.25419 -1.04644 0
M  V30 119 C 12.6197 4.36849 0.753521 0
M  V30 120 H 9.8397 0.669785 -0.0403635 0
M  V30 121 H 12.3837 1.90049 -0.755095 0
M  V30 122 H 10.5387 3.77391 0.87492 0
M  V30 123 H 10.9527 5.17785 -0.836611 0
M  V30 124 H 12.4267 5.45399 0.851139 0
M  V30 125 H 12.9037 4.02306 1.762 0
M  V30 126 H 13.5097 4.25169 0.105503 0
M  V30 127 N 11.8248 0.280983 1.55075 0
M  V30 128 C 13.2358 -0.215629 1.85451 0
M  V30 129 C 13.5868 -1.54991 1.203 0
M  V30 130 O 12.7118 -2.10699 0.493435 0
M  V30 131 C 13.3068 -0.398026 3.36454 0
M  V30 132 C 11.8658 -0.838866 3.66933 0
M  V30 133 C 11.0128 0.064458 2.77225 0
M  V30 134 H 13.9638 0.502601 1.50531 0
M  V30 135 H 13.9848 -1.23569 3.59876 0
M  V30 136 H 13.4968 0.573241 3.83843 0
M  V30 137 H 11.5978 -1.8214 3.25048 0
M  V30 138 H 11.7108 -0.672123 4.74362 0
M  V30 139 H 10.0748 -0.452863 2.50642 0
M  V30 140 H 10.8578 1.03172 3.2743 0
M  V30 141 N 13.3029 -1.57598 0.00835791 0
M  V30 142 C 14.7139 -1.7892 -0.53333 0
M  V30 143 C 15.0649 -0.916609 -1.73473 0
M  V30 144 O 14.1899 -0.121336 -2.1606 0
M  V30 145 C 14.7849 -3.24488 -0.974313 0
M  V30 146 C 13.3439 -3.46878 -1.46125 0
M  V30 147 C 12.4909 -2.74157 -0.416302 0
M  V30 148 H 15.4419 -1.56958 0.234495 0
M  V30 149 H 15.4629 -3.3306 -1.83988 0
M  V30 150 H 14.9749 -3.87972 -0.099718 0
M  V30 151 H 13.0759 -2.8862 -2.35646 0
M  V30 152 H 13.1889 -4.55572 -1.48295 0
M  V30 153 H 11.5529 -2.39022 -0.87981 0
M  V30 154 H 12.3359 -3.40345 0.44947 0
M  V30 155 N 14.781 0.264519 -1.55364 0
M  V30 156 C 16.027 0.99646 -1.76631 0
M  V30 157 C 16.36 1.85632 -0.570478 0
M  V30 158 O 15.635 1.89647 0.43175 0
M  V30 159 C 15.918 1.87187 -3.07625 0
M  V30 160 C 15.771 1.04138 -4.37579 0
M  V30 161 C 17.09 2.85749 -3.34717 0
M  V30 162 H 14.209 0.360841 -0.642622 0
M  V30 163 H 16.851 0.268218 -1.88097 0
M  V30 164 H 15.001 2.49279 -2.9798 0
M  V30 165 H 16.673 0.440517 -4.59192 0
M  V30 166 H 14.916 0.345115 -4.32425 0
M  V30 167 H 15.587 1.68729 -5.2558 0
M  V30 168 H 18.063 2.33793 -3.4421 0
M  V30 169 H 16.939 3.44136 -4.27623 0
M  V30 170 H 17.2 3.61311 -2.54768 0
M  V30 171 N 16.2591 1.48442 0.529413 0
M  V30 172 C 17.5051 1.5672 1.28711 0
M  V30 173 C 17.8381 0.2406 1.92704 0
M  V30 174 O 17.1131 -0.753454 1.79313 0
M  V30 175 C 17.3961 2.70587 2.37603 0
M  V30 176 C 17.2491 4.12953 1.78297 0
M  V30 177 C 18.5681 2.80212 3.39366 0
M  V30 178 H 15.6871 0.570474 0.466613 0
M  V30 179 H 18.3291 1.80617 0.589706 0
M  V30 180 H 16.4791 2.50342 2.97088 0
M  V30 181 H 18.1511 4.44639 1.22858 0
M  V30 182 H 16.3941 4.19927 1.0883 0
M  V30 183 H 17.0651 4.88448 2.57144 0
M  V30 184 H 19.5411 2.98553 2.89836 0
M  V30 185 H 18.4171 3.61611 4.12951 0
M  V30 186 H 18.6781 1.88393 3.99951 0
M  V30 187 N 17.7372 -0.778329 1.37039 0
M  V30 188 C 18.6842 -1.89139 1.32269 0
M  V30 189 C 19.6542 -1.65017 0.189387 0
M  V30 190 O 20.8392 -1.87024 0.377693 0
M  V30 191 C 17.9792 -3.26112 1.12894 0
M  V30 192 C 17.0922 -3.62233 2.35396 0
M  V30 193 C 16.2272 -4.8838 2.08946 0
M  V30 194 C 15.2662 -5.17212 3.2735 0
M  V30 195 N 14.4032 -6.34546 3.00492 0
M  V30 196 H 19.2432 -1.92552 2.27437 0
M  V30 197 H 16.7802 -0.941473 1.13025 0
M  V30 198 H 18.7382 -4.05116 0.996835 0
M  V30 199 H 17.3682 -3.22091 0.213758 0
M  V30 200 H 16.4202 -2.78265 2.5937 0
M  V30 201 H 17.7322 -3.79481 3.23721 0
M  V30 202 H 16.8862 -5.75274 1.92729 0
M  V30 203 H 15.6252 -4.73222 1.17949 0
M  V30 204 H 14.6302 -4.28796 3.44113 0
M  V30 205 H 15.8552 -5.34283 4.19188 0
M  V30 206 H 13.8012 -6.20759 2.12118 0
M  V30 207 H 13.7182 -6.52179 3.82358 0
M  V30 208 H 14.9862 -7.24394 2.87879 0
M  V30 209 N 19.2153 -1.21501 -1.00376 0
M  V30 210 C 20.6313 -0.972629 -1.26539 0
M  V30 211 C 20.8313 0.340257 -1.98606 0
M  V30 212 O 19.8873 1.06561 -2.28913 0
M  V30 213 C 21.2003 -2.16404 -2.08781 0
M  V30 214 C 22.7483 -2.20643 -2.22004 0
M  V30 215 C 23.2233 -3.39306 -3.07629 0
M  V30 216 N 24.7143 -3.39401 -3.15217 0
M  V30 217 C 25.4493 -4.27867 -3.81729 0
M  V30 218 N 24.9453 -5.26533 -4.5026 0
M  V30 219 N 26.7383 -4.15672 -3.78382 0
M  V30 220 H 18.8893 -2.05929 -0.520281 0
M  V30 221 H 21.1523 -0.901803 -0.292328 0
M  V30 222 H 20.8583 -3.11554 -1.63178 0
M  V30 223 H 20.7323 -2.15567 -3.09533 0
M  V30 224 H 23.1193 -1.26048 -2.66825 0
M  V30 225 H 23.2003 -2.25523 -1.20718 0
M  V30 226 H 22.8443 -4.34195 -2.63509 0
M  V30 227 H 22.7743 -3.31665 -4.09031 0
M  V30 228 H 25.2653 -2.67997 -2.66432 0
M  V30 229 H 25.5783 -5.90337 -4.98721 0
M  V30 230 H 23.9233 -5.30457 -4.49044 0
M  V30 231 H 27.1143 -3.3785 -3.23998 0
M  V30 232 H 27.2873 -4.84825 -4.2994 0
M  V30 233 N 20.6934 1.19889 -1.02296 0
M  V30 234 C 21.6234 2.25141 -0.619174 0
M  V30 235 C 22.6044 1.66051 0.368915 0
M  V30 236 O 23.7894 1.92546 0.252941 0
M  V30 237 C 20.9194 3.4728 0.0368783 0
M  V30 238 C 19.8734 4.19005 -0.872865 0
M  V30 239 C 19.1994 5.34637 -0.0822402 0
M  V30 240 C 20.4994 4.74452 -2.18387 0
M  V30 241 H 22.1934 2.59171 -1.49903 0
M  V30 242 H 19.7394 1.24579 -0.722222 0
M  V30 243 H 21.6924 4.20098 0.330958 0
M  V30 244 H 20.4164 3.12433 0.95149 0
M  V30 245 H 19.0754 3.48061 -1.15105 0
M  V30 246 H 18.7234 4.96034 0.83422 0
M  V30 247 H 18.4234 5.83557 -0.688149 0
M  V30 248 H 19.9474 6.10255 0.205238 0
M  V30 249 H 21.3614 5.39055 -1.95172 0
M  V30 250 H 19.7584 5.33834 -2.74119 0
M  V30 251 H 20.8284 3.92844 -2.84257 0
M  V30 252 N 22.1715 0.800033 1.35784 0
M  V30 253 C 23.1015 0.220184 2.3246 0
M  V30 254 C 24.0825 -0.65073 1.57161 0
M  V30 255 O 25.2675 -0.582359 1.85263 0
M  V30 256 C 22.3975 -0.637353 3.41402 0
M  V30 257 C 21.3515 0.134531 4.27789 0
M  V30 258 C 20.6775 -0.844285 5.27992 0
M  V30 259 C 21.9775 1.32979 5.05088 0
M  V30 260 H 23.6715 1.02787 2.81203 0
M  V30 261 H 21.2175 0.495717 1.35199 0
M  V30 262 H 23.1705 -1.05302 4.08031 0
M  V30 263 H 21.8945 -1.47785 2.91251 0
M  V30 264 H 20.5535 0.531296 3.6273 0
M  V30 265 H 20.2015 -1.68011 4.74111 0
M  V30 266 H 19.9015 -0.332184 5.8666 0
M  V30 267 H 21.4255 -1.2583 5.97494 0
M  V30 268 H 22.8395 0.98934 5.64699 0
M  V30 269 H 21.2365 1.77593 5.7322 0
M  V30 270 H 22.3065 2.11978 4.36111 0
M  V30 271 N 23.6496 -1.47581 0.552962 0
M  V30 272 C 24.8976 -2.02082 0.0272703 0
M  V30 273 C 25.2186 -1.4301 -1.32563 0
M  V30 274 O 24.4886 -0.603745 -1.86365 0
M  V30 275 H 23.0686 -0.746966 0.00709182 0
M  V30 276 H 25.7306 -1.81033 0.722008 0
M  V30 277 H 24.8266 -3.12034 -0.0639951 0
M  V30 278 N 25.1277 -0.289203 -1.54924 0
M  V30 279 C 26.3737 0.316922 -2.00916 0
M  V30 280 C 26.7287 1.52424 -1.17408 0
M  V30 281 O 26.0217 1.90097 -0.239536 0
M  V30 282 C 26.2157 0.736119 -3.49737 0
M  V30 283 C 26.0447 -0.429036 -4.47649 0
M  V30 284 C 24.8147 -0.917311 -4.96904 0
M  V30 285 C 27.0127 -1.27016 -4.98369 0
M  V30 286 N 24.9947 -2.05046 -5.78644 0
M  V30 287 C 26.3657 -2.25097 -5.77695 0
M  V30 288 C 28.4207 -1.30188 -4.80578 0
M  V30 289 C 27.1237 -3.26114 -6.41126 0
M  V30 290 C 29.1497 -2.30057 -5.44819 0
M  V30 291 C 28.5117 -3.2687 -6.23968 0
M  V30 292 H 24.6107 0.0807535 -0.777819 0
M  V30 293 H 27.1947 -0.416434 -1.90194 0
M  V30 294 H 25.3657 1.43867 -3.60773 0
M  V30 295 H 27.0977 1.32078 -3.82541 0
M  V30 296 H 23.8527 -0.494248 -4.71014 0
M  V30 297 H 24.2767 -2.62108 -6.24202 0
M  V30 298 H 28.9187 -0.567163 -4.18979 0
M  V30 299 H 26.6367 -4.00512 -7.01866 0
M  V30 300 H 30.2227 -2.33271 -5.32988 0
M  V30 301 H 29.1027 -4.02883 -6.72796 0
M  V30 302 N 26.6058 1.57591 -0.0167156 0
M  V30 303 C 27.5528 2.09462 0.969251 0
M  V30 304 C 28.5228 0.99381 1.33089 0
M  V30 305 O 29.7078 1.26726 1.42636 0
M  V30 306 C 26.8478 2.61622 2.25051 0
M  V30 307 C 25.9608 3.85666 1.94642 0
M  V30 308 C 25.0958 4.26266 3.16972 0
M  V30 309 C 24.1348 5.43101 2.82326 0
M  V30 310 N 23.2718 5.78915 3.97243 0
M  V30 311 H 28.1118 2.93428 0.519997 0
M  V30 312 H 25.6488 1.45044 0.245087 0
M  V30 313 H 27.6068 2.89949 2.99976 0
M  V30 314 H 26.2368 1.80505 2.67615 0
M  V30 315 H 25.2888 3.64145 1.10013 0
M  V30 316 H 26.6008 4.70678 1.65117 0
M  V30 317 H 25.7548 4.55963 4.00228 0
M  V30 318 H 24.4938 3.39996 3.49648 0
M  V30 319 H 23.4988 5.1311 1.97479 0
M  V30 320 H 24.7238 6.3106 2.50879 0
M  V30 321 H 22.6698 4.95602 4.29785 0
M  V30 322 H 22.5868 6.58539 3.71299 0
M  V30 323 H 23.8548 6.13212 4.81239 0
M  V30 324 N 28.0839 -0.256276 1.55502 0
M  V30 325 C 29.0309 -1.31714 1.89526 0
M  V30 326 C 30.0009 -1.4828 0.748479 0
M  V30 327 O 31.1859 -1.62416 1.00128 0
M  V30 328 C 28.3259 -2.66933 2.18725 0
M  V30 329 C 27.4389 -2.58452 3.4616 0
M  V30 330 C 26.5739 -3.85961 3.64976 0
M  V30 331 C 25.6129 -3.72059 4.86044 0
M  V30 332 N 24.7499 -4.9144 5.01429 0
M  V30 333 H 29.5899 -1.01998 2.80001 0
M  V30 334 H 27.1269 -0.492413 1.38613 0
M  V30 335 H 29.0849 -3.4563 2.33657 0
M  V30 336 H 27.7149 -2.94816 1.31466 0
M  V30 337 H 26.7669 -1.71374 3.3961 0
M  V30 338 H 28.0789 -2.44085 4.34999 0
M  V30 339 H 27.2329 -4.73101 3.79816 0
M  V30 340 H 25.9719 -4.03215 2.74353 0
M  V30 341 H 24.9769 -2.83302 4.7119 0
M  V30 342 H 26.2019 -3.56309 5.78118 0
M  V30 343 H 24.1479 -5.09072 4.13741 0
M  V30 344 H 24.0649 -4.79668 5.84341 0
M  V30 345 H 25.3329 -5.80104 5.20672 0
M  V30 346 N 29.562 -1.4872 -0.521534 0
M  V30 347 C 30.787 -1.61101 -1.30618 0
M  V30 348 C 31.212 -0.274611 -1.86085 0
M  V30 349 O 30.57 0.754937 -1.64834 0
M  V30 350 C 30.618 -2.66709 -2.4269 0
M  V30 351 O 29.722 -2.24456 -3.45967 0
M  V30 352 H 29.063 -0.539921 -0.386499 0
M  V30 353 H 31.593 -1.94767 -0.626645 0
M  V30 354 H 31.603 -2.88245 -2.88754 0
M  V30 355 H 30.278 -3.63727 -2.01682 0
M  V30 356 H 28.855 -2.13168 -3.05964 0
M  V30 357 N 31.0401 0.771051 -1.3745 0
M  V30 358 C 32.0031 1.86598 -1.33093 0
M  V30 359 C 33.0031 1.59076 -0.234845 0
M  V30 360 O 34.1931 1.67145 -0.490732 0
M  V30 361 C 31.3251 3.23747 -1.06773 0
M  V30 362 H 32.5181 1.91873 -2.30488 0
M  V30 363 H 30.0711 0.970876 -1.2249 0
M  V30 364 H 30.8061 3.24148 -0.099129 0
M  V30 365 H 30.5911 3.45115 -1.86112 0
M  V30 366 H 32.0811 4.03824 -1.06377 0
M  V30 367 N 32.5182 1.22032 0.997298 0
M  V30 368 C 33.7662 1.04016 1.73278 0
M  V30 369 C 34.0872 -0.426255 1.90284 0
M  V30 370 O 33.3572 -1.30694 1.45931 0
M  V30 371 H 31.9372 0.381897 0.642 0
M  V30 372 H 34.5992 1.5347 1.20137 0
M  V30 373 H 33.6952 1.51441 2.72896 0
M  V30 374 N 33.9963 -1.19345 1.0293 0
M  V30 375 C 35.2443 -1.88665 0.724574 0
M  V30 376 C 35.5653 -1.80036 -0.749144 0
M  V30 377 O 34.8353 -1.2111 -1.53978 0
M  V30 378 H 33.4153 -0.698406 0.265025 0
M  V30 379 H 36.0773 -1.44885 1.30362 0
M  V30 380 H 35.1733 -2.94987 1.01926 0
M  V30 381 N 35.4744 -0.807222 -1.35358 0
M  V30 382 C 36.6994 -0.399309 -2.0352 0
M  V30 383 C 37.1244 0.981986 -1.60433 0
M  V30 384 O 36.4824 1.63601 -0.781299 0
M  V30 385 C 36.5304 -0.491552 -3.57234 0
M  V30 386 O 35.6344 0.494754 -4.09421 0
M  V30 387 H 34.9754 -0.166682 -0.642739 0
M  V30 388 H 37.5054 -1.09328 -1.72941 0
M  V30 389 H 37.5154 -0.361588 -4.06395 0
M  V30 390 H 36.1904 -1.49907 -3.87944 0
M  V30 391 H 34.7674 0.324977 -3.71481 0
M  V30 392 N 36.9525 1.47285 -0.560781 0
M  V30 393 C 38.2005 2.02064 -0.0379868 0
M  V30 394 C 38.5215 1.43711 1.31803 0
M  V30 395 O 37.7915 0.61362 1.86042 0
M  V30 396 H 36.3715 0.746918 -0.0110531 0
M  V30 397 H 39.0335 1.80648 -0.731598 0
M  V30 398 H 38.1295 3.12064 0.0474463 0
M  V30 399 N 38.4306 0.297415 1.54768 0
M  V30 400 C 39.6786 -0.312295 1.99673 0
M  V30 401 C 39.9996 -1.54686 1.18732 0
M  V30 402 O 39.2696 -1.93854 0.282382 0
M  V30 403 H 37.8496 -0.118381 0.73756 0
M  V30 404 H 40.5116 0.407915 1.90583 0
M  V30 405 H 39.6076 -0.586813 3.06534 0
M  V30 406 N 39.9087 -1.5758 0.0250728 0
M  V30 407 C 40.8717 -2.08896 -0.943139 0
M  V30 408 C 41.8717 -1.00321 -1.25668 0
M  V30 409 O 43.0617 -1.26495 -1.19769 0
M  V30 410 C 40.1937 -2.55143 -2.26086 0
M  V30 411 H 41.3867 -2.95723 -0.498775 0
M  V30 412 H 38.9397 -1.54703 -0.222888 0
M  V30 413 H 39.6747 -1.71633 -2.75159 0
M  V30 414 H 39.4597 -3.34461 -2.04641 0
M  V30 415 H 40.9497 -2.95083 -2.95492 0
M  V30 416 N 41.3868 0.248026 -1.55636 0
M  V30 417 C 42.6348 0.974295 -1.77065 0
M  V30 418 C 42.9558 1.85897 -0.588849 0
M  V30 419 O 42.2258 1.91868 0.395407 0
M  V30 420 H 40.8058 0.362733 -0.653019 0
M  V30 421 H 43.4678 0.266244 -1.93073 0
M  V30 422 H 42.5638 1.59667 -2.68166 0
M  V30 423 N 42.8649 1.48995 0.513639 0
M  V30 424 C 44.1129 1.57531 1.26604 0
M  V30 425 C 44.4339 0.258236 1.93283 0
M  V30 426 O 43.7039 -0.721502 1.8213 0
M  V30 427 H 42.2839 0.580387 0.470276 0
M  V30 428 H 44.9459 1.85552 0.596373 0
M  V30 429 H 44.0419 2.36486 2.03669 0
M  V30 430 N 44.343 -0.763751 1.37857 0
M  V30 431 C 45.591 -1.51957 1.33243 0
M  V30 432 C 45.912 -1.94835 -0.0801709 0
M  V30 433 O 45.182 -1.66894 -1.02582 0
M  V30 434 H 43.762 -0.563626 0.49024 0
M  V30 435 H 46.424 -0.908504 1.7243 0
M  V30 436 H 45.52 -2.41523 1.97669 0
M  V30 437 N 45.8211 -1.22559 -0.990812 0
M  V30 438 C 46.7311 -1.01394 -2.11557 0
M  V30 439 C 47.7471 0.0383962 -1.73958 0
M  V30 440 O 48.9231 -0.154787 -2.00804 0
M  V30 441 C 45.9881 -0.596569 -3.41529 0
M  V30 442 C 45.0491 -1.72276 -3.93217 0
M  V30 443 C 44.2821 -1.32521 -5.16985 0
M  V30 444 O 44.5051 -0.204909 -5.70032 0
M  V30 445 O 43.4391 -2.14247 -5.62478 0
M  V30 446 H 47.2651 -1.95633 -2.32296 0
M  V30 447 H 44.8501 -1.01172 -1.0993 0
M  V30 448 H 46.7321 -0.374263 -4.19735 0
M  V30 449 H 45.4071 0.316939 -3.22145 0
M  V30 450 H 44.3141 -1.99961 -3.16174 0
M  V30 451 H 45.6471 -2.61421 -4.17037 0
M  V30 452 N 47.2992 1.18797 -1.03562 0
M  V30 453 C 48.2312 2.21731 -0.580337 0
M  V30 454 C 49.2442 1.59051 0.347349 0
M  V30 455 O 50.4332 1.77929 0.142669 0
M  V30 456 C 47.5332 3.38459 0.172805 0
M  V30 457 C 46.7062 4.3072 -0.761496 0
M  V30 458 C 45.7652 5.26174 -0.0525547 0
M  V30 459 O 44.7912 5.65108 -0.681333 0
M  V30 460 N 45.9932 5.67624 1.21586 0
M  V30 461 H 48.7582 2.61417 -1.46565 0
M  V30 462 H 46.3192 1.33531 -0.915476 0
M  V30 463 H 48.3112 3.99335 0.656793 0
M  V30 464 H 46.8812 2.97507 0.959602 0
M  V30 465 H 46.1012 3.67525 -1.42544 0
M  V30 466 H 47.3892 4.89267 -1.39626 0
M  V30 467 H 46.7872 5.38038 1.74732 0
M  V30 468 H 45.3442 6.30721 1.64421 0
M  V30 469 N 48.7773 0.814389 1.34928 0
M  V30 470 C 49.7253 0.218424 2.31572 0
M  V30 471 C 50.7193 -0.636128 1.57002 0
M  V30 472 O 51.9253 -0.52842 1.72069 0
M  V30 473 H 48.3003 0.0518799 0.750208 0
M  V30 474 H 50.2713 1.04852 2.79372 0
M  V30 475 C 49.0203 -0.61207 3.4227 0
M  V30 476 H 48.3433 0.0361578 3.99784 0
M  V30 477 H 49.7833 -0.995317 4.12152 0
M  V30 478 C 48.2423 -1.78087 2.85984 0
M  V30 479 O 48.7723 -2.8787 2.80168 0
M  V30 480 N 46.9783 -1.59488 2.42924 0
M  V30 481 H 46.5253 -0.701874 2.47854 0
M  V30 482 H 46.4833 -2.37846 2.05613 0
M  V30 483 N 50.2554 -1.46986 0.568584 0
M  V30 484 C 51.5034 -2.02041 0.0487022 0
M  V30 485 C 51.8244 -1.44408 -1.31039 0
M  V30 486 O 51.0944 -0.623477 -1.85714 0
M  V30 487 H 49.6744 -0.746849 0.015014 0
M  V30 488 H 52.3364 -1.80257 0.741168 0
M  V30 489 H 51.4324 -3.12085 -0.0308961 0
M  V30 490 N 51.7335 -0.305618 -1.54608 0
M  V30 491 C 52.6655 0.602161 -2.21149 0
M  V30 492 C 53.6785 1.09394 -1.20569 0
M  V30 493 O 54.8675 1.0106 -1.47136 0
M  V30 494 C 51.9675 1.83692 -2.84799 0
M  V30 495 C 51.1405 1.48686 -4.11353 0
M  V30 496 C 50.1995 2.57725 -4.58764 0
M  V30 497 O 49.2255 2.22623 -5.23858 0
M  V30 498 N 50.4275 3.88346 -4.31471 0
M  V30 499 H 53.1925 0.0324966 -2.99682 0
M  V30 500 H 50.7535 -0.128021 -1.61393 0
M  V30 501 H 52.7455 2.55994 -3.13448 0
M  V30 502 H 51.3155 2.31486 -2.10078 0
M  V30 503 H 50.5355 0.596269 -3.89664 0
M  V30 504 H 51.8235 1.22842 -4.93748 0
M  V30 505 H 51.2215 4.19671 -3.79331 0
M  V30 506 H 49.7785 4.56932 -4.64818 0
M  V30 507 N 53.2116 1.57565 -0.0334293 0
M  V30 508 C 54.1216 2.13943 0.962572 0
M  V30 509 C 55.1376 1.09276 1.35406 0
M  V30 510 O 56.3136 1.41355 1.4346 0
M  V30 511 C 53.3786 2.65887 2.22497 0
M  V30 512 C 52.4396 3.85286 1.8935 0
M  V30 513 C 51.6726 4.34743 3.09571 0
M  V30 514 O 51.8956 3.83352 4.22371 0
M  V30 515 O 50.8296 5.26538 2.91618 0
M  V30 516 H 54.6556 2.99333 0.513169 0
M  V30 517 H 52.2406 1.4822 0.18743 0
M  V30 518 H 54.1226 2.99346 2.96598 0
M  V30 519 H 52.7976 1.83578 2.6661 0
M  V30 520 H 51.7046 3.56746 1.1262 0
M  V30 521 H 53.0376 4.68771 1.5005 0
M  V30 522 N 54.6897 -0.239769 1.55765 0
M  V30 523 C 55.5997 -1.31831 1.94056 0
M  V30 524 C 56.6157 -1.52275 0.841925 0
M  V30 525 O 57.7917 -1.65759 1.14394 0
M  V30 526 C 54.8567 -2.65156 2.23368 0
M  V30 527 C 53.9177 -2.53173 3.46701 0
M  V30 528 C 53.1507 -3.8014 3.74606 0
M  V30 529 O 53.3737 -4.82343 3.04469 0
M  V30 530 O 52.3077 -3.78344 4.68123 0
M  V30 531 H 56.1337 -1.02347 2.85935 0
M  V30 532 H 53.7187 -0.441123 1.42739 0
M  V30 533 H 55.6007 -3.43929 2.43497 0
M  V30 534 H 54.2757 -2.94358 1.34666 0
M  V30 535 H 53.1827 -1.72662 3.31871 0
M  V30 536 H 54.5157 -2.28915 4.35728 0
M  V30 537 N 56.1678 -1.49265 -0.50573 0
M  V30 538 C 57.1148 -1.65585 -1.6078 0
M  V30 539 C 58.0848 -0.497396 -1.58478 0
M  V30 540 O 59.2698 -0.72385 -1.76536 0
M  V30 541 C 56.4098 -1.72408 -2.98948 0
M  V30 542 C 55.5228 -2.99525 -3.11301 0
M  V30 543 C 54.6578 -2.97356 -4.40174 0
M  V30 544 C 53.6968 -4.19074 -4.46143 0
M  V30 545 N 52.8338 -4.14841 -5.66437 0
M  V30 546 H 57.6738 -2.59688 -1.46172 0
M  V30 547 H 55.2108 -1.28761 -0.711261 0
M  V30 548 H 57.1688 -1.74344 -3.79025 0
M  V30 549 H 55.7988 -0.817753 -3.1227 0
M  V30 550 H 54.8508 -3.07222 -2.24318 0
M  V30 551 H 56.1628 -3.89518 -3.11572 0
M  V30 552 H 55.3168 -2.97829 -5.28567 0
M  V30 553 H 54.0558 -2.05133 -4.42461 0
M  V30 554 H 53.0608 -4.1885 -3.56153 0
M  V30 555 H 54.2858 -5.12483 -4.45575 0
M  V30 556 H 52.2318 -3.25453 -5.69575 0
M  V30 557 H 52.1488 -4.98564 -5.68304 0
M  V30 558 H 53.4168 -4.1941 -6.57051 0
M  V30 559 N 57.6459 0.756429 -1.3826 0
M  V30 560 C 58.8919 1.5168 -1.35517 0
M  V30 561 C 59.2469 1.9232 0.0554451 0
M  V30 562 O 58.5399 1.62352 1.01746 0
M  V30 563 C 58.7339 2.78313 -2.24224 0
M  V30 564 C 58.5629 2.50053 -3.7377 0
M  V30 565 C 57.3329 2.43414 -4.42807 0
M  V30 566 C 59.5309 2.1702 -4.66269 0
M  V30 567 N 57.5129 2.07398 -5.77805 0
M  V30 568 C 58.8839 1.91271 -5.89759 0
M  V30 569 C 60.9389 2.03305 -4.54501 0
M  V30 570 C 59.6419 1.53192 -7.02798 0
M  V30 571 C 61.6679 1.66627 -5.67441 0
M  V30 572 C 61.0299 1.4175 -6.8999 0
M  V30 573 H 57.1289 0.554735 -0.551174 0
M  V30 574 H 59.7129 0.881106 -1.73622 0
M  V30 575 H 57.8839 3.39696 -1.88311 0
M  V30 576 H 59.6159 3.44343 -2.12627 0
M  V30 577 H 56.3709 2.59789 -3.95988 0
M  V30 578 H 56.7949 1.92044 -6.4919 0
M  V30 579 H 61.4369 2.21215 -3.60311 0
M  V30 580 H 59.1549 1.34022 -7.96909 0
M  V30 581 H 62.7409 1.56652 -5.60314 0
M  V30 582 H 61.6209 1.1379 -7.759 0
M  V30 583 N 59.124 1.23083 0.984299 0
M  V30 584 C 60.364 1.07226 1.74017 0
M  V30 585 C 60.728 -0.384766 1.88105 0
M  V30 586 O 61.929 -0.664411 2.60459 0
M  V30 587 C 60.2 1.77348 3.10294 0
M  V30 588 S 61.759 1.77014 4.01512 0
M  V30 589 H 58.577 0.383819 0.598502 0
M  V30 590 H 61.179 1.56158 1.17622 0
M  V30 591 H 59.883 2.82506 2.97689 0
M  V30 592 H 59.414 1.28682 3.71759 0
M  V30 593 H 61.429 0.825956 4.89277 0
M  V30 594 N 60.6021 -1.18246 1.0419 0
M  V30 595 C 61.5121 -2.25574 0.644476 0
M  V30 596 C 62.5281 -1.70845 -0.329826 0
M  V30 597 O 63.7041 -2.00554 -0.184443 0
M  V30 598 C 60.7691 -3.46697 0.014877 0
M  V30 599 C 59.8301 -4.16554 1.03834 0
M  V30 600 C 59.0631 -5.31894 0.438692 0
M  V30 601 O 59.2861 -5.65385 -0.754752 0
M  V30 602 O 58.2201 -5.90459 1.168 0
M  V30 603 H 62.0461 -2.61836 1.53869 0
M  V30 604 H 59.6311 -1.25352 0.812854 0
M  V30 605 H 61.5131 -4.20062 -0.335538 0
M  V30 606 H 60.1881 -3.12255 -0.853138 0
M  V30 607 H 59.0951 -3.45251 1.44057 0
M  V30 608 H 60.4281 -4.54998 1.87716 0
M  V30 609 N 62.0802 -0.821533 -1.34494 0
M  V30 610 C 63.0272 -0.240397 -2.29545 0
M  V30 611 C 63.9972 0.634031 -1.53523 0
M  V30 612 O 65.1822 0.575966 -1.81899 0
M  V30 613 C 62.3222 0.592869 -3.39969 0
M  V30 614 C 61.4352 -0.30365 -4.30932 0
M  V30 615 C 60.5702 0.539049 -5.28458 0
M  V30 616 C 59.6092 -0.356942 -6.11058 0
M  V30 617 N 58.7462 0.446603 -7.00678 0
M  V30 618 H 63.5862 -1.05632 -2.7865 0
M  V30 619 H 61.1232 -0.532413 -1.37127 0
M  V30 620 H 63.0812 1.09129 -4.02675 0
M  V30 621 H 61.7112 1.37392 -2.92102 0
M  V30 622 H 60.7632 -0.920276 -3.691 0
M  V30 623 H 62.0752 -0.992661 -4.88823 0
M  V30 624 H 61.2292 1.102 -5.96608 0
M  V30 625 H 59.9682 1.26157 -4.71101 0
M  V30 626 H 58.9732 -0.932047 -5.41842 0
M  V30 627 H 60.1982 -1.07755 -6.70497 0
M  V30 628 H 58.1442 1.15282 -6.45791 0
M  V30 629 H 58.0612 -0.184048 -7.55776 0
M  V30 630 H 59.3292 0.992352 -7.73158 0
M  V30 631 N 63.5583 1.46682 -0.576371 0
M  V30 632 C 64.5213 2.28707 0.150239 0
M  V30 633 C 65.5213 1.38035 0.824794 0
M  V30 634 O 66.7113 1.60476 0.677719 0
M  V30 635 C 63.8433 3.18248 1.22192 0
M  V30 636 H 65.0363 2.94423 -0.570521 0
M  V30 637 H 62.5893 1.52688 -0.334078 0
M  V30 638 H 63.3243 2.57265 1.97447 0
M  V30 639 H 63.1093 3.85 0.742812 0
M  V30 640 H 64.5993 3.80001 1.73172 0
M  V30 641 N 65.0364 0.313813 1.54444 0
M  V30 642 C 66.2824 -0.292108 2.00685 0
M  V30 643 C 66.6154 -1.52548 1.20177 0
M  V30 644 O 65.8904 -1.92452 0.281531 0
M  V30 645 C 66.1734 -0.635968 3.5444 0
M  V30 646 C 66.0264 0.607437 4.4568 0
M  V30 647 C 67.3454 -1.45747 4.15266 0
M  V30 648 H 64.4644 -0.104697 0.729526 0
M  V30 649 H 67.1064 0.428457 1.85106 0
M  V30 650 H 65.2564 -1.24986 3.67846 0
M  V30 651 H 66.9284 1.24581 4.44159 0
M  V30 652 H 65.1714 1.23822 4.15753 0
M  V30 653 H 65.8424 0.322515 5.51057 0
M  V30 654 H 68.3184 -0.938645 4.05375 0
M  V30 655 H 67.1944 -1.66683 5.2298 0
M  V30 656 H 67.4554 -2.45063 3.67963 0
M  V30 657 N 66.5145 -1.57545 0.0417849 0
M  V30 658 C 67.4615 -2.10977 -0.935805 0
M  V30 659 C 68.4315 -1.01486 -1.31491 0
M  V30 660 O 69.6165 -1.2898 -1.40602 0
M  V30 661 C 66.7565 -2.65169 -2.2086 0
M  V30 662 C 65.8695 -3.88714 -1.88482 0
M  V30 663 C 65.0045 -4.31254 -3.1015 0
M  V30 664 C 64.0435 -5.47524 -2.7365 0
M  V30 665 N 63.1805 -5.85162 -3.87982 0
M  V30 666 H 68.0205 -2.94218 -0.473249 0
M  V30 667 H 65.5575 -1.45415 -0.221981 0
M  V30 668 H 67.5155 -2.94685 -2.95325 0
M  V30 669 H 66.1455 -1.8474 -2.64709 0
M  V30 670 H 65.1975 -3.65849 -1.04205 0
M  V30 671 H 66.5095 -4.73245 -1.57608 0
M  V30 672 H 65.6635 -4.62273 -3.92923 0
M  V30 673 H 64.4025 -3.45516 -3.44195 0
M  V30 674 H 63.4075 -5.16187 -1.89291 0
M  V30 675 H 64.6325 -6.34971 -2.40807 0
M  V30 676 H 62.5785 -5.02377 -4.21846 0
M  V30 677 H 62.4955 -6.64362 -3.60775 0
M  V30 678 H 63.7635 -6.20791 -4.71422 0
M  V30 679 N 67.9926 0.231505 -1.5589 0
M  V30 680 C 69.2176 0.978689 -1.82856 0
M  V30 681 C 69.6426 1.77559 -0.620846 0
M  V30 682 O 69.0006 1.76119 0.430305 0
M  V30 683 C 69.0486 1.87997 -3.07716 0
M  V30 684 O 68.1526 2.97393 -2.85712 0
M  V30 685 H 67.4936 0.277663 -0.603158 0
M  V30 686 H 70.0236 0.24783 -2.03093 0
M  V30 687 H 70.0336 2.2917 -3.37558 0
M  V30 688 H 68.7086 1.29417 -3.95252 0
M  V30 689 H 67.2856 2.60238 -2.67078 0
M  V30 690 N 69.4707 1.49531 0.497807 0
M  V30 691 C 70.4007 1.6935 1.60757 0
M  V30 692 C 71.3817 0.542218 1.61227 0
M  V30 693 O 72.5667 0.778417 1.77917 0
M  V30 694 C 69.6967 1.76298 2.99226 0
M  V30 695 C 68.6507 2.91248 3.13622 0
M  V30 696 C 67.9767 2.83312 4.53474 0
M  V30 697 C 69.2767 4.3214 2.93346 0
M  V30 698 H 70.9707 2.62263 1.44425 0
M  V30 699 H 68.5167 1.26208 0.693367 0
M  V30 700 H 70.4697 1.88749 3.76765 0
M  V30 701 H 69.1937 0.799871 3.16654 0
M  V30 702 H 67.8527 2.78404 2.38509 0
M  V30 703 H 67.5007 1.84902 4.67782 0
M  V30 704 H 67.2007 3.60465 4.64046 0
M  V30 705 H 68.7247 2.97775 5.33069 0
M  V30 706 H 70.1387 4.45649 3.60652 0
M  V30 707 H 68.5357 5.1054 3.15387 0
M  V30 708 H 69.6057 4.46363 1.89441 0
M  V30 709 N 70.9488 -0.749086 1.3866 0
M  V30 710 C 72.1948 -1.51056 1.35314 0
M  V30 711 C 72.5278 -1.94121 -0.0553751 0
M  V30 712 O 71.8028 -1.65763 -1.01749 0
M  V30 713 C 72.0858 -2.76003 2.31288 0
M  V30 714 C 71.9388 -2.39047 3.8102 0
M  V30 715 C 73.2578 -3.78046 2.2532 0
M  V30 716 H 70.3768 -0.547972 0.492844 0
M  V30 717 H 73.0188 -0.857628 1.69543 0
M  V30 718 H 71.1688 -3.31716 2.02229 0
M  V30 719 H 72.8408 -1.89074 4.20771 0
M  V30 720 H 71.0838 -1.71449 3.98482 0
M  V30 721 H 71.7548 -3.28462 4.4364 0
M  V30 722 H 74.2308 -3.31884 2.50983 0
M  V30 723 H 73.1068 -4.63159 2.94576 0
M  V30 724 H 73.3678 -4.23957 1.25352 0
M  V30 725 N 72.4269 -1.23603 -0.977757 0
M  V30 726 C 73.3739 -1.01954 -2.07061 0
M  V30 727 C 74.3439 0.0638697 -1.65977 0
M  V30 728 O 75.5289 -0.0887624 -1.90593 0
M  V30 729 C 72.6689 -0.619658 -3.39491 0
M  V30 730 C 71.7819 -1.77547 -3.93829 0
M  V30 731 C 70.9169 -1.32212 -5.14484 0
M  V30 732 C 69.9559 -2.44852 -5.60994 0
M  V30 733 N 69.0929 -2.00456 -6.72876 0
M  V30 734 H 73.9329 -1.95495 -2.24913 0
M  V30 735 H 71.4699 -0.973861 -1.10247 0
M  V30 736 H 73.4279 -0.368898 -4.15566 0
M  V30 737 H 72.0579 0.278752 -3.21594 0
M  V30 738 H 71.1099 -2.14016 -3.14486 0
M  V30 739 H 72.4219 -2.62219 -4.24314 0
M  V30 740 H 71.5759 -1.02965 -5.97899 0
M  V30 741 H 70.3149 -0.445808 -4.85658 0
M  V30 742 H 69.3199 -2.74871 -4.76157 0
M  V30 743 H 70.5449 -3.33024 -5.91837 0
M  V30 744 H 68.4909 -1.15208 -6.45804 0
M  V30 745 H 68.4079 -2.78687 -7.02759 0
M  V30 746 H 69.6759 -1.7432 -7.59758 0
M  V30 747 N 73.905 1.17692 -1.04816 0
M  V30 748 C 74.852 2.21581 -0.645797 0
M  V30 749 C 75.822 1.62367 0.350159 0
M  V30 750 O 77.007 1.89254 0.242433 0
M  V30 751 C 74.147 3.45092 -0.0227568 0
M  V30 752 C 73.26 4.18613 -1.06709 0
M  V30 753 C 72.395 5.29602 -0.411767 0
M  V30 754 C 71.434 5.94904 -1.44067 0
M  V30 755 N 70.571 6.97414 -0.809781 0
M  V30 756 H 75.411 2.55353 -1.5362 0
M  V30 757 H 72.948 1.25438 -0.768364 0
M  V30 758 H 74.906 4.15679 0.35588 0
M  V30 759 H 73.536 3.11917 0.831122 0
M  V30 760 H 72.588 3.46779 -1.5636 0
M  V30 761 H 73.9 4.63293 -1.84827 0
M  V30 762 H 73.054 6.06696 0.0206623 0
M  V30 763 H 71.793 4.86045 0.401438 0
M  V30 764 H 70.798 5.16544 -1.88316 0
M  V30 765 H 72.023 6.40542 -2.25571 0
M  V30 766 H 69.969 6.55998 -0.0170186 0
M  V30 767 H 69.886 7.40386 -1.52856 0
M  V30 768 H 71.154 7.78463 -0.401999 0
M  V30 769 N 75.3831 0.828654 1.34056 0
M  V30 770 C 76.3131 0.269443 2.3194 0
M  V30 771 C 77.2941 -0.617247 1.58506 0
M  V30 772 O 78.4791 -0.542931 1.86456 0
M  V30 773 C 75.6091 -0.564793 3.42677 0
M  V30 774 C 74.5631 0.225241 4.27407 0
M  V30 775 C 73.8891 -0.7321 5.29664 0
M  V30 776 C 75.1891 1.43663 5.02154 0
M  V30 777 H 76.8831 1.08728 2.7896 0
M  V30 778 H 74.4291 0.524283 1.34117 0
M  V30 779 H 76.3821 -0.966233 4.10173 0
M  V30 780 H 75.1061 -1.41574 2.9432 0
M  V30 781 H 73.7651 0.608117 3.61521 0
M  V30 782 H 73.4131 -1.57916 4.77568 0
M  V30 783 H 73.1131 -0.20767 5.87233 0
M  V30 784 H 74.6371 -1.13128 6.00029 0
M  V30 785 H 76.0511 1.1089 5.62473 0
M  V30 786 H 74.4481 1.89711 5.69324 0
M  V30 787 H 75.5181 2.21181 4.31517 0
M  V30 788 N 76.8612 -1.46375 0.584142 0
M  V30 789 C 77.8082 -2.30323 -0.148286 0
M  V30 790 C 78.7782 -1.40703 -0.882713 0
M  V30 791 O 79.9632 -1.69651 -0.873099 0
M  V30 792 C 77.1032 -3.25196 -1.15507 0
M  V30 793 C 76.2162 -4.29915 -0.423943 0
M  V30 794 C 75.3512 -5.11914 -1.41838 0
M  V30 795 C 74.3902 -6.08381 -0.673736 0
M  V30 796 N 73.5272 -6.83242 -1.6163 0
M  V30 797 H 78.3672 -2.92427 0.573644 0
M  V30 798 H 75.9042 -1.44118 0.294703 0
M  V30 799 H 77.8622 -3.78646 -1.75166 0
M  V30 800 H 76.4922 -2.64898 -1.8447 0
M  V30 801 H 75.5442 -3.7931 0.287714 0
M  V30 802 H 76.8562 -4.98549 0.158128 0
M  V30 803 H 76.0102 -5.69648 -2.08773 0
M  V30 804 H 74.7492 -4.43243 -2.03438 0
M  V30 805 H 73.7542 -5.49799 0.00938483 0
M  V30 806 H 74.9792 -6.79071 -0.0631082 0
M  V30 807 H 72.9252 -6.1728 -2.22038 0
M  V30 808 H 72.8422 -7.48144 -1.08707 0
M  V30 809 H 74.1102 -7.45534 -2.27596 0
M  V30 810 N 78.3393 -0.321999 -1.54275 0
M  V30 811 C 79.2863 0.544664 -2.24281 0
M  V30 812 C 80.2563 1.1129 -1.23303 0
M  V30 813 O 81.4413 1.15354 -1.51981 0
M  V30 814 C 78.5813 1.70045 -3.00298 0
M  V30 815 C 77.6943 1.16159 -4.1609 0
M  V30 816 C 76.8293 2.28293 -4.79641 0
M  V30 817 C 75.8683 1.71648 -5.8754 0
M  V30 818 N 75.0053 2.77438 -6.44959 0
M  V30 819 H 79.8453 -0.0588907 -2.97942 0
M  V30 820 H 77.3823 -0.0408345 -1.47043 0
M  V30 821 H 79.3403 2.38054 -3.42616 0
M  V30 822 H 77.9703 2.27531 -2.28975 0
M  V30 823 H 77.0223 0.373092 -3.78566 0
M  V30 824 H 78.3343 0.707087 -4.93763 0
M  V30 825 H 77.4883 3.0421 -5.2492 0
M  V30 826 H 76.2273 2.77079 -4.01346 0
M  V30 827 H 75.2323 0.942282 -5.41665 0
M  V30 828 H 76.4573 1.23741 -6.67731 0
M  V30 829 H 74.4033 3.25519 -5.69538 0
M  V30 830 H 74.3203 2.36547 -7.1804 0
M  V30 831 H 75.5883 3.53189 -6.94894 0
M  V30 832 N 79.8174 1.5752 -0.0501392 0
M  V30 833 C 81.0454 1.96963 0.633492 0
M  V30 834 C 81.4604 0.927631 1.6444 0
M  V30 835 O 80.8174 -0.0882665 1.82286 0
M  V30 836 C 80.8684 3.36487 1.32132 0
M  V30 837 O 80.5894 4.36693 0.350894 0
M  V30 838 C 82.0904 3.90682 2.09481 0
M  V30 839 H 79.3104 0.648244 0.173266 0
M  V30 840 H 81.8544 2.0417 -0.116134 0
M  V30 841 H 80.0094 3.30434 2.02218 0
M  V30 842 H 80.4234 5.17702 0.841735 0
M  V30 843 H 81.8974 4.90591 2.5303 0
M  V30 844 H 82.3744 3.26053 2.94255 0
M  V30 845 H 82.9804 4.00069 1.44307 0
M  V30 846 N 81.2955 -0.223234 1.56011 0
M  V30 847 C 82.5435 -0.946003 1.78592 0
M  V30 848 C 82.8645 -1.84936 0.618349 0
M  V30 849 O 82.1345 -1.92473 -0.364833 0
M  V30 850 H 80.7145 -0.352298 0.658707 0
M  V30 851 H 83.3765 -0.235494 1.93472 0
M  V30 852 H 82.4725 -1.55381 2.70672 0
M  V30 853 N 82.7736 -1.49793 -0.48987 0
M  V30 854 C 84.1896 -1.36803 -0.822022 0
M  V30 855 C 84.3896 -0.409652 -1.97292 0
M  V30 856 O 83.4456 0.154614 -2.52026 0
M  V30 857 C 84.7586 -2.77768 -1.15175 0
M  V30 858 C 86.3066 -2.86549 -1.25931 0
M  V30 859 C 86.7816 -4.28306 -1.62228 0
M  V30 860 N 88.2726 -4.31169 -1.69256 0
M  V30 861 C 89.0076 -5.37832 -1.98807 0
M  V30 862 N 88.5036 -6.54726 -2.26507 0
M  V30 863 N 90.2966 -5.25258 -2.00152 0
M  V30 864 H 82.4476 -2.10691 0.268881 0
M  V30 865 H 84.7106 -0.946241 0.057728 0
M  V30 866 H 84.4166 -3.49648 -0.379335 0
M  V30 867 H 84.2906 -3.13836 -2.09253 0
M  V30 868 H 86.6776 -2.14899 -2.02243 0
M  V30 869 H 86.7586 -2.54049 -0.298776 0
M  V30 870 H 86.4026 -5.00486 -0.864622 0
M  V30 871 H 86.3326 -4.58279 -2.594 0
M  V30 872 H 88.8236 -3.4687 -1.49965 0
M  V30 873 H 89.1366 -7.31833 -2.48276 0
M  V30 874 H 87.4816 -6.57933 -2.23939 0
M  V30 875 H 90.6726 -4.32938 -1.77996 0
M  V30 876 H 90.8456 -6.08476 -2.22848 0
M  V30 877 N 84.2517 0.741722 -1.39055 0
M  V30 878 C 85.1817 1.869 -1.39966 0
M  V30 879 C 86.1627 1.6804 -0.26392 0
M  V30 880 O 87.3477 1.88458 -0.468755 0
M  V30 881 C 84.4777 3.24572 -1.23574 0
M  V30 882 C 83.4317 3.58056 -2.34477 0
M  V30 883 C 82.7577 4.94593 -2.0318 0
M  V30 884 C 84.0577 3.61716 -3.76774 0
M  V30 885 H 85.7517 1.86395 -2.34302 0
M  V30 886 H 83.2977 0.895361 -1.1278 0
M  V30 887 H 85.2507 4.031 -1.22834 0
M  V30 888 H 83.9747 3.25587 -0.257045 0
M  V30 889 H 82.6337 2.81854 -2.34423 0
M  V30 890 H 82.2817 4.92181 -1.03765 0
M  V30 891 H 81.9817 5.17964 -2.77465 0
M  V30 892 H 83.5057 5.75486 -2.04079 0
M  V30 893 H 84.9197 4.30335 -3.78794 0
M  V30 894 H 83.3167 3.96603 -4.50362 0
M  V30 895 H 84.3867 2.61672 -4.08235 0
M  V30 896 N 85.7298 1.2412 0.971189 0
M  V30 897 C 87.0068 0.986867 1.6888 0
M  V30 898 C 87.3868 -0.491857 2.0529 0
M  V30 899 O 86.7348 -1.46531 1.75331 0
M  V30 900 C 86.9448 1.9063 2.92338 0
M  V30 901 C 88.2928 2.17515 3.64654 0
M  V30 902 O 89.3168 1.88254 3.02388 0
M  V30 903 O 88.1758 2.6719 4.7673 0
M  V30 904 H 85.2698 0.372944 0.738134 0
M  V30 905 H 87.8158 1.35203 1.02559 0
M  V30 906 H 86.5878 2.90552 2.62097 0
M  V30 907 H 86.2108 1.54408 3.66393 0
M  V30 908 N 87.2079 -1.17134 1.05439 0
M  V30 909 C 88.1179 -2.24878 0.668365 0
M  V30 910 C 89.1339 -1.71186 -0.311687 0
M  V30 911 O 90.3099 -2.00738 -0.163161 0
M  V30 912 C 87.3749 -3.46662 0.051648 0
M  V30 913 C 86.4359 -4.15429 1.08246 0
M  V30 914 C 85.6689 -5.31399 0.495082 0
M  V30 915 O 85.8919 -5.66153 -0.694743 0
M  V30 916 O 84.8259 -5.89187 1.23056 0
M  V30 917 H 88.6519 -2.60189 1.56637 0
M  V30 918 H 86.2369 -1.24482 0.826104 0
M  V30 919 H 88.1189 -4.20394 -0.290966 0
M  V30 920 H 86.7939 -3.13142 -0.819971 0
M  V30 921 H 85.7009 -3.43704 1.47711 0
M  V30 922 H 87.0339 -4.52982 1.92532 0
M  V30 923 N 88.686 -0.835752 -1.33615 0
M  V30 924 C 89.616 -0.281739 -2.31794 0
M  V30 925 C 90.597 0.608833 -1.58831 0
M  V30 926 O 91.782 0.533035 -1.86741 0
M  V30 927 C 88.912 0.546612 -3.42971 0
M  V30 928 C 87.866 -0.247904 -4.27281 0
M  V30 929 C 87.192 0.704001 -5.30045 0
M  V30 930 C 88.492 -1.46324 -5.01385 0
M  V30 931 H 90.186 -1.10206 -2.78379 0
M  V30 932 H 87.732 -0.531388 -1.33837 0
M  V30 933 H 89.685 0.944467 -4.1068 0
M  V30 934 H 88.409 1.40011 -2.95067 0
M  V30 935 H 87.068 -0.627281 -3.61194 0
M  V30 936 H 86.716 1.55381 -4.78399 0
M  V30 937 H 86.416 0.176524 -5.87335 0
M  V30 938 H 87.94 1.09944 -6.0062 0
M  V30 939 H 89.354 -1.13871 -5.61877 0
M  V30 940 H 87.751 -1.92728 -5.6831 0
M  V30 941 H 88.821 -2.23467 -4.30338 0
M  V30 942 N 90.1641 1.46063 -0.591896 0
M  V30 943 C 91.0741 2.34192 0.13831 0
M  V30 944 C 92.0901 1.50305 0.876608 0
M  V30 945 O 93.2661 1.8315 0.837728 0
M  V30 946 C 90.3311 3.27656 1.13326 0
M  V30 947 C 89.3921 4.27445 0.39863 0
M  V30 948 C 88.6251 5.16443 1.34618 0
M  V30 949 O 88.8481 5.08553 2.58321 0
M  V30 950 O 87.7821 5.95843 0.851768 0
M  V30 951 H 91.6081 2.98002 -0.58552 0
M  V30 952 H 89.1931 1.45188 -0.352239 0
M  V30 953 H 91.0751 3.85291 1.70671 0
M  V30 954 H 89.7501 2.6643 1.83839 0
M  V30 955 H 88.6571 3.73471 -0.216895 0
M  V30 956 H 89.9901 4.91482 -0.265709 0
M  V30 957 N 91.6422 0.330177 1.54103 0
M  V30 958 C 92.5892 -0.532762 2.24567 0
M  V30 959 C 93.5592 -1.10635 1.23892 0
M  V30 960 O 94.7442 -1.14546 1.5259 0
M  V30 961 C 91.8842 -1.6845 3.01195 0
M  V30 962 C 90.9972 -1.13951 4.167 0
M  V30 963 C 90.1322 -2.25746 4.80845 0
M  V30 964 C 89.1712 -1.6853 5.88442 0
M  V30 965 N 88.3082 -2.74014 6.46421 0
M  V30 966 H 93.1482 0.0746905 2.97906 0
M  V30 967 H 90.6852 0.048632 1.4702 0
M  V30 968 H 92.6432 -2.36234 3.43874 0
M  V30 969 H 91.2732 -2.26314 2.30178 0
M  V30 970 H 90.3252 -0.35301 3.78758 0
M  V30 971 H 91.6372 -0.680892 4.94131 0
M  V30 972 H 90.7912 -3.01422 5.26526 0
M  V30 973 H 89.5302 -2.74947 4.0281 0
M  V30 974 H 88.5352 -0.913543 5.42157 0
M  V30 975 H 89.7602 -1.20198 6.68378 0
M  V30 976 H 87.7062 -3.22494 5.71256 0
M  V30 977 H 87.6232 -2.32735 7.19285 0
M  V30 978 H 88.8912 -3.49499 6.96757 0
M  V30 979 N 93.1203 -1.57491 0.0584922 0
M  V30 980 C 94.0833 -2.1085 -0.898617 0
M  V30 981 C 95.0833 -1.02964 -1.23511 0
M  V30 982 O 96.2733 -1.29007 -1.17059 0
M  V30 983 C 93.4053 -2.59881 -2.20623 0
M  V30 984 H 94.5983 -2.96715 -0.435936 0
M  V30 985 H 92.1513 -1.55141 -0.190023 0
M  V30 986 H 92.8863 -1.77431 -2.71457 0
M  V30 987 H 92.6713 -3.38727 -1.97501 0
M  V30 988 H 94.1613 -3.01285 -2.89166 0
M  V30 989 N 94.5984 0.214957 -1.56127 0
M  V30 990 C 95.8474 0.936451 -1.78643 0
M  V30 991 C 96.1604 1.85237 -0.628229 0
M  V30 992 O 97.3664 2.613 -0.737186 0
M  V30 993 C 95.8224 1.7154 -3.16389 0
M  V30 994 C 95.4304 0.845299 -4.39953 0
M  V30 995 C 97.1744 2.42772 -3.48227 0
M  V30 996 C 95.0814 1.62198 -5.68723 0
M  V30 997 H 94.0114 0.353401 -0.666051 0
M  V30 998 H 96.6624 0.190169 -1.82512 0
M  V30 999 H 95.0444 2.50484 -3.06715 0
M  V30 1000 H 96.2184 0.0959353 -4.607 0
M  V30 1001 H 94.5334 0.244789 -4.1568 0
M  V30 1002 H 97.1304 3.01394 -4.41663 0
M  V30 1003 H 97.4734 3.15984 -2.71035 0
M  V30 1004 H 98.0064 1.70813 -3.5926 0
M  V30 1005 H 94.7454 0.933011 -6.48826 0
M  V30 1006 H 94.2654 2.34579 -5.52026 0
M  V30 1007 H 95.9444 2.18095 -6.09133 0
M  V30 1008 N 96.0765 1.50051 0.48192 0
M  V30 1009 C 97.3045 1.64237 1.25832 0
M  V30 1010 C 97.7195 0.321336 1.86045 0
M  V30 1011 O 97.0765 -0.695478 1.68729 0
M  V30 1012 C 97.1275 2.72548 2.37487 0
M  V30 1013 O 96.8485 3.99529 1.79745 0
M  V30 1014 C 98.3495 2.9761 3.28547 0
M  V30 1015 H 95.5695 0.55237 0.380957 0
M  V30 1016 H 98.1135 1.96207 0.576467 0
M  V30 1017 H 96.2685 2.43303 3.01467 0
M  V30 1018 H 96.6825 4.59342 2.5319 0
M  V30 1019 H 98.1565 3.77084 4.03127 0
M  V30 1020 H 98.6335 2.0826 3.86684 0
M  V30 1021 H 99.2395 3.28345 2.70314 0
M  V30 1022 N 97.5546 -0.734337 1.39446 0
M  V30 1023 C 98.7826 -1.52358 1.39981 0
M  V30 1024 C 99.1976 -1.88799 -0.0054975 0
M  V30 1025 O 98.5546 -1.54146 -0.976998 0
M  V30 1026 C 98.6056 -2.81072 2.27333 0
M  V30 1027 O 98.3266 -2.46178 3.62392 0
M  V30 1028 C 99.8276 -3.75096 2.36259 0
M  V30 1029 H 97.0476 -0.470806 0.478103 0
M  V30 1030 H 99.5916 -0.907339 1.83269 0
M  V30 1031 H 97.7466 -3.39026 1.87457 0
M  V30 1032 H 98.1606 -3.28866 4.08592 0
M  V30 1033 H 99.6346 -4.62305 3.01626 0
M  V30 1034 H 100.112 -4.16892 1.38194 0
M  V30 1035 H 100.718 -3.23061 2.76608 0
M  V30 1036 N 99.0327 -1.24633 -0.964593 0
M  V30 1037 C 99.9647 -0.999302 -2.06268 0
M  V30 1038 C 100.978 0.0323226 -1.62768 0
M  V30 1039 O 102.167 -0.205079 -1.77318 0
M  V30 1040 C 99.2667 -0.486816 -3.35385 0
M  V30 1041 C 98.4397 -1.5823 -4.07777 0
M  V30 1042 C 97.4987 -1.07191 -5.15166 0
M  V30 1043 O 96.5247 -1.76426 -5.41168 0
M  V30 1044 N 97.7267 0.0920373 -5.80427 0
M  V30 1045 H 100.492 -1.94477 -2.28033 0
M  V30 1046 H 98.0527 -1.15704 -1.13244 0
M  V30 1047 H 100.045 -0.130066 -4.04491 0
M  V30 1048 H 98.6147 0.364459 -3.10468 0
M  V30 1049 H 97.8347 -2.11109 -3.32906 0
M  V30 1050 H 99.1227 -2.31854 -4.52903 0
M  V30 1051 H 98.5207 0.670784 -5.61709 0
M  V30 1052 H 97.0777 0.389905 -6.50633 0
M  V30 1053 N 100.511 1.16574 -1.06058 0
M  V30 1054 C 101.459 2.22941 -0.663343 0
M  V30 1055 C 102.453 1.66358 0.319593 0
M  V30 1056 O 103.659 1.7905 0.184713 0
M  V30 1057 H 100.034 0.725907 -0.196376 0
M  V30 1058 H 102.005 2.53736 -1.57037 0
M  V30 1059 C 100.754 3.47642 -0.0632808 0
M  V30 1060 H 100.077 3.91493 -0.810733 0
M  V30 1061 H 101.517 4.2363 0.177177 0
M  V30 1062 C 99.9758 3.1509 1.19248 0
M  V30 1063 O 100.506 3.30673 2.28075 0
M  V30 1064 N 98.7118 2.6924 1.09353 0
M  V30 1065 H 98.2588 2.5676 0.207912 0
M  V30 1066 H 98.2168 2.47833 1.93458 0
M  V30 1067 N 101.989 0.842826 1.3317 0
M  V30 1068 C 103.229 0.446574 1.99462 0
M  V30 1069 C 103.593 -0.976818 1.65295 0
M  V30 1070 O 104.794 -1.477 2.24584 0
M  V30 1071 C 103.065 0.665353 3.51152 0
M  V30 1072 S 104.624 0.364911 4.3728 0
M  V30 1073 H 101.442 0.167803 0.690915 0
M  V30 1074 H 104.044 1.09297 1.62094 0
M  V30 1075 H 102.748 1.7006 3.73507 0
M  V30 1076 H 102.279 0.00494568 3.934 0
M  V30 1077 H 104.294 -0.813761 4.89482 0
M  V30 1078 N 103.467 -1.45747 0.599634 0
M  V30 1079 C 104.415 -2.322 -0.136426 0
M  V30 1080 C 105.409 -1.45497 -0.867583 0
M  V30 1081 O 106.615 -1.62027 -0.78405 0
M  V30 1082 H 102.99 -0.749368 -0.0628588 0
M  V30 1083 H 104.961 -2.92072 0.611281 0
M  V30 1084 C 103.71 -3.28974 -1.12567 0
M  V30 1085 H 103.033 -3.9568 -0.572484 0
M  V30 1086 H 104.473 -3.92212 -1.61077 0
M  V30 1087 C 102.932 -2.55561 -2.19523 0
M  V30 1088 O 103.462 -2.33111 -3.27143 0
M  V30 1089 N 101.668 -2.15832 -1.94589 0
M  V30 1090 H 101.215 -2.3429 -1.07078 0
M  V30 1091 H 101.173 -1.67034 -2.66359 0
M  V30 1092 N 104.945 -0.338344 -1.53925 0
M  V30 1093 C 106.173 0.261298 -2.05243 0
M  V30 1094 C 106.588 1.44625 -1.21363 0
M  V30 1095 O 105.945 1.80811 -0.247736 0
M  V30 1096 C 105.996 0.681412 -3.5502 0
M  V30 1097 O 105.717 -0.456414 -4.35716 0
M  V30 1098 C 107.218 1.34232 -4.22489 0
M  V30 1099 H 104.438 0.0513685 -0.669031 0
M  V30 1100 H 106.982 -0.488822 -1.98572 0
M  V30 1101 H 105.137 1.38148 -3.61931 0
M  V30 1102 H 105.551 -0.122564 -5.24357 0
M  V30 1103 H 107.025 1.58708 -5.28693 0
M  V30 1104 H 107.502 2.29426 -3.74514 0
M  V30 1105 H 108.108 0.684424 -4.19757 0
M  V30 1106 N 106.423 1.57458 -0.0668435 0
M  V30 1107 C 107.37 2.12439 0.902122 0
M  V30 1108 C 108.34 1.03565 1.2986 0
M  V30 1109 O 109.525 1.312 1.38532 0
M  V30 1110 C 106.665 2.6865 2.16614 0
M  V30 1111 C 105.778 3.91663 1.82274 0
M  V30 1112 C 104.913 4.36134 3.0325 0
M  V30 1113 C 103.952 5.51808 2.64904 0
M  V30 1114 N 103.089 5.9126 3.78624 0
M  V30 1115 H 107.929 2.94934 0.426382 0
M  V30 1116 H 105.466 1.4575 0.198819 0
M  V30 1117 H 107.424 2.99346 2.90599 0
M  V30 1118 H 106.054 1.88928 2.61737 0
M  V30 1119 H 105.106 3.6746 0.983719 0
M  V30 1120 H 106.418 4.75693 1.50059 0
M  V30 1121 H 105.572 4.68465 3.85519 0
M  V30 1122 H 104.311 3.50948 3.38655 0
M  V30 1123 H 103.316 5.19133 1.81055 0
M  V30 1124 H 104.541 6.38722 2.30675 0
M  V30 1125 H 102.487 5.09024 4.138 0
M  V30 1126 H 102.404 6.70018 3.5016 0
M  V30 1127 H 103.672 6.28212 4.61486 0
M  V30 1128 N 107.901 -0.206675 1.56239 0
M  V30 1129 C 109.141 -0.93574 1.81723 0
M  V30 1130 C 109.505 -1.80927 0.642609 0
M  V30 1131 O 110.706 -2.57323 0.777081 0
M  V30 1132 C 108.977 -1.74012 3.12177 0
M  V30 1133 S 110.536 -2.52279 3.59028 0
M  V30 1134 H 107.354 -0.314065 0.637875 0
M  V30 1135 H 109.956 -0.200071 1.94474 0
M  V30 1136 H 108.66 -1.0888 3.95693 0
M  V30 1137 H 108.191 -2.51782 3.02274 0
M  V30 1138 H 110.206 -3.76209 3.23545 0
M  V30 1139 N 109.379 -1.50304 -0.473955 0
M  V30 1140 C 110.625 -1.61389 -1.22806 0
M  V30 1141 C 110.958 -0.311955 -1.91678 0
M  V30 1142 O 110.233 0.686384 -1.81986 0
M  V30 1143 C 110.516 -2.79219 -2.27396 0
M  V30 1144 C 110.369 -4.19286 -1.62848 0
M  V30 1145 C 111.688 -2.92614 -3.28732 0
M  V30 1146 H 108.807 -0.587399 -0.445119 0
M  V30 1147 H 111.449 -1.82681 -0.522265 0
M  V30 1148 H 109.599 -2.61195 -2.87592 0
M  V30 1149 H 111.271 -4.48892 -1.06271 0
M  V30 1150 H 109.514 -4.23677 -0.931693 0
M  V30 1151 H 110.185 -4.97655 -2.38838 0
M  V30 1152 H 112.661 -3.09105 -2.78556 0
M  V30 1153 H 111.537 -3.76688 -3.99246 0
M  V30 1154 H 111.798 -2.03107 -3.92683 0
M  V30 1155 N 110.857 0.726932 -1.39834 0
M  V30 1156 C 112.085 1.51613 -1.40787 0
M  V30 1157 C 112.5 1.88799 -0.00451505 0
M  V30 1158 O 111.857 1.54662 0.968809 0
M  V30 1159 C 111.908 2.79863 -2.28821 0
M  V30 1160 O 111.629 2.44253 -3.63692 0
M  V30 1161 C 113.13 3.73837 -2.38245 0
M  V30 1162 H 110.35 0.468264 -0.480593 0
M  V30 1163 H 112.894 0.897607 -1.83748 0
M  V30 1164 H 111.049 3.38027 -1.89252 0
M  V30 1165 H 111.463 3.26695 -4.1033 0
M  V30 1166 H 112.937 4.60699 -3.04073 0
M  V30 1167 H 113.414 4.16153 -1.40403 0
M  V30 1168 H 114.02 3.21589 -2.78317 0
M  V30 1169 N 112.336 1.25143 0.95797 0
M  V30 1170 C 113.585 1.0909 1.69654 0
M  V30 1171 C 113.898 -0.368548 1.92097 0
M  V30 1172 O 115.104 -0.649455 2.63618 0
M  V30 1173 C 113.56 1.90395 3.05414 0
M  V30 1174 C 113.168 3.4081 2.90779 0
M  V30 1175 C 114.912 1.82901 3.83076 0
M  V30 1176 C 112.819 4.14423 4.21909 0
M  V30 1177 H 111.749 0.404625 0.636235 0
M  V30 1178 H 114.4 1.4931 1.06672 0
M  V30 1179 H 112.782 1.42996 3.69281 0
M  V30 1180 H 113.956 3.95859 2.35865 0
M  V30 1181 H 112.271 3.49361 2.26575 0
M  V30 1182 H 114.868 2.35196 4.80195 0
M  V30 1183 H 115.211 0.796224 4.08615 0
M  V30 1184 H 115.744 2.28033 3.25954 0
M  V30 1185 H 112.483 5.18102 4.01561 0
M  V30 1186 H 112.003 3.64159 4.76601 0
M  V30 1187 H 113.682 4.21956 4.90471 0
M  V30 1188 N 113.814 -1.1601 1.06675 0
M  V30 1189 C 115.225 -1.68235 0.809565 0
M  V30 1190 C 115.576 -1.8454 -0.666303 0
M  V30 1191 O 114.701 -1.54374 -1.5165 0
M  V30 1192 C 115.296 -3.05585 1.46299 0
M  V30 1193 C 113.855 -3.54915 1.25349 0
M  V30 1194 C 113.002 -2.30804 1.53703 0
M  V30 1195 H 115.953 -1.00318 1.22971 0
M  V30 1196 H 115.974 -3.70174 0.880431 0
M  V30 1197 H 115.486 -2.93686 2.53713 0
M  V30 1198 H 113.587 -3.72067 0.199261 0
M  V30 1199 H 113.7 -4.36774 1.9689 0
M  V30 1200 H 112.064 -2.36007 0.957739 0
M  V30 1201 H 112.847 -2.21499 2.62284 0
M  V30 1202 N 115.292 -0.849877 -1.32721 0
M  V30 1203 C 116.517 -0.463856 -2.02146 0
M  V30 1204 C 116.942 0.930449 -1.63476 0
M  V30 1205 O 116.3 1.61033 -0.832952 0
M  V30 1206 C 116.348 -0.604955 -3.55489 0
M  V30 1207 O 115.452 0.36425 -4.10788 0
M  V30 1208 H 114.793 -0.187046 -0.637111 0
M  V30 1209 H 117.323 -1.14775 -1.69375 0
M  V30 1210 H 117.333 -0.490696 -4.05038 0
M  V30 1211 H 116.008 -1.62174 -3.82978 0
M  V30 1212 H 114.585 0.206628 -3.72327 0
M  V30 1213 N 116.77 1.45427 -0.607355 0
M  V30 1214 C 117.998 2.06614 -0.108814 0
M  V30 1215 C 118.413 1.45204 1.2067 0
M  V30 1216 O 117.77 0.566132 1.73497 0
M  V30 1217 C 117.821 3.61481 0.0375347 0
M  V30 1218 O 117.542 4.20598 -1.22593 0
M  V30 1219 C 119.043 4.39652 0.567561 0
M  V30 1220 H 116.263 0.66747 -0.0687351 0
M  V30 1221 H 118.807 1.86675 -0.835022 0
M  V30 1222 H 116.962 3.80762 0.714068 0
M  V30 1223 H 117.376 5.1377 -1.05547 0
M  V30 1224 H 118.85 5.48518 0.61905 0
M  V30 1225 H 119.327 4.09417 1.58978 0
M  V30 1226 H 119.933 4.25234 -0.0749202 0
M  V30 1227 N 118.248 0.346503 1.53744 0
M  V30 1228 C 119.488 -0.249413 2.02873 0
M  V30 1229 C 119.852 -1.47532 1.22876 0
M  V30 1230 O 121.053 -2.1456 1.61918 0
M  V30 1231 C 119.324 -0.552909 3.53097 0
M  V30 1232 S 120.883 -1.12521 4.24128 0
M  V30 1233 H 117.701 -0.074042 0.707134 0
M  V30 1234 H 120.303 0.48495 1.8939 0
M  V30 1235 H 119.007 0.347083 4.0893 0
M  V30 1236 H 118.538 -1.31686 3.70705 0
M  V30 1237 H 120.553 -2.41075 4.33702 0
M  V30 1238 N 119.726 -1.57421 0.075193 0
M  V30 1239 C 120.951 -1.98364 -0.605515 0
M  V30 1240 C 121.376 -0.953383 -1.62149 0
M  V30 1241 O 120.734 0.0806053 -1.81121 0
M  V30 1242 C 120.782 -3.38332 -1.24756 0
M  V30 1243 O 119.886 -3.37959 -2.36342 0
M  V30 1244 H 119.227 -0.645553 -0.155428 0
M  V30 1245 H 121.757 -2.04044 0.150714 0
M  V30 1246 H 121.767 -3.75591 -1.5936 0
M  V30 1247 H 120.442 -4.12846 -0.503129 0
M  V30 1248 H 119.019 -3.12474 -2.03506 0
M  V30 1249 N 121.204 0.198386 -1.56346 0
M  V30 1250 C 122.114 1.2664 -1.97483 0
M  V30 1251 C 123.13 1.49989 -0.882002 0
M  V30 1252 O 124.306 1.62668 -1.18748 0
M  V30 1253 C 121.371 2.59141 -2.30319 0
M  V30 1254 C 120.432 2.43892 -3.53292 0
M  V30 1255 C 119.665 3.70074 -3.84553 0
M  V30 1256 O 119.888 4.74101 -3.1715 0
M  V30 1257 O 118.822 3.658 -4.7799 0
M  V30 1258 H 122.648 0.947304 -2.88548 0
M  V30 1259 H 120.233 0.403123 -1.43859 0
M  V30 1260 H 122.115 3.37352 -2.5253 0
M  V30 1261 H 120.79 2.90684 -1.42423 0
M  V30 1262 H 119.697 1.63803 -3.36332 0
M  V30 1263 H 121.03 2.17282 -4.41644 0
M  V30 1264 N 122.682 1.50554 0.465978 0
M  V30 1265 C 123.931 1.61038 1.21448 0
M  V30 1266 C 124.244 0.31865 1.92987 0
M  V30 1267 O 125.45 0.302469 2.6981 0
M  V30 1268 C 123.906 2.84283 2.20706 0
M  V30 1269 C 123.514 4.20352 1.54946 0
M  V30 1270 C 125.258 3.04115 2.96166 0
M  V30 1271 C 123.165 5.34778 2.5252 0
M  V30 1272 H 122.095 0.599718 0.457005 0
M  V30 1273 H 124.746 1.7699 0.484424 0
M  V30 1274 H 123.128 2.61901 2.97025 0
M  V30 1275 H 124.302 4.53008 0.843811 0
M  V30 1276 H 122.617 4.06167 0.917475 0
M  V30 1277 H 125.214 3.86774 3.69202 0
M  V30 1278 H 125.557 2.16045 3.55852 0
M  V30 1279 H 126.09 3.26702 2.26959 0
M  V30 1280 H 122.829 6.25018 1.97566 0
M  V30 1281 H 122.349 5.06534 3.21222 0
M  V30 1282 H 124.028 5.65561 3.14245 0
M  V30 1283 N 124.16 -0.719506 1.40217 0
M  V30 1284 C 125.406 -1.48034 1.39491 0
M  V30 1285 C 125.761 -1.92399 -0.00443536 0
M  V30 1286 O 125.054 -1.64993 -0.974061 0
M  V30 1287 C 125.248 -2.72271 2.31524 0
M  V30 1288 C 125.077 -2.40055 3.80268 0
M  V30 1289 C 123.847 -2.31588 4.49105 0
M  V30 1290 C 126.045 -2.04581 4.71859 0
M  V30 1291 N 124.027 -1.92006 5.83101 0
M  V30 1292 C 125.398 -1.75568 5.94623 0
M  V30 1293 C 127.453 -1.91183 4.59732 0
M  V30 1294 C 126.156 -1.34505 7.06612 0
M  V30 1295 C 128.182 -1.51524 5.71659 0
M  V30 1296 C 127.544 -1.23406 6.93506 0
M  V30 1297 H 123.643 -0.539927 0.565688 0
M  V30 1298 H 126.227 -0.834764 1.75897 0
M  V30 1299 H 124.398 -3.34584 1.97251 0
M  V30 1300 H 126.13 -3.38584 2.21682 0
M  V30 1301 H 122.885 -2.49199 4.02737 0
M  V30 1302 H 123.309 -1.74764 6.54054 0
M  V30 1303 H 127.951 -2.11584 3.66049 0
M  V30 1304 H 125.669 -1.12846 8.00182 0
M  V30 1305 H 129.255 -1.41741 5.6427 0
M  V30 1306 H 128.135 -0.931788 7.78645 0
M  V30 1307 N 125.638 -1.25649 -0.95132 0
M  V30 1308 C 126.886 -1.10375 -1.69298 0
M  V30 1309 C 127.207 0.355339 -1.91735 0
M  V30 1310 O 126.477 1.25188 -1.50681 0
M  V30 1311 H 125.057 -0.405461 -0.627384 0
M  V30 1312 H 127.719 -1.57823 -1.14358 0
M  V30 1313 H 126.815 -1.61465 -2.67087 0
M  V30 1314 N 127.117 1.15442 -1.07289 0
M  V30 1315 C 128.047 2.22312 -0.714107 0
M  V30 1316 C 129.028 1.67467 0.298155 0
M  V30 1317 O 130.213 1.93445 0.171048 0
M  V30 1318 C 127.343 3.47124 -0.110448 0
M  V30 1319 C 126.297 4.14926 -1.04979 0
M  V30 1320 C 125.623 5.33807 -0.308924 0
M  V30 1321 C 126.923 4.64762 -2.38314 0
M  V30 1322 H 128.617 2.5258 -1.6076 0
M  V30 1323 H 126.163 1.21404 -0.77441 0
M  V30 1324 H 128.116 4.21124 0.152482 0
M  V30 1325 H 126.84 3.16187 0.81812 0
M  V30 1326 H 125.499 3.42866 -1.29764 0
M  V30 1327 H 125.147 4.99126 0.623084 0
M  V30 1328 H 124.847 5.80113 -0.935036 0
M  V30 1329 H 126.371 6.10576 -0.0537771 0
M  V30 1330 H 127.785 5.30292 -2.1786 0
M  V30 1331 H 126.182 5.21728 -2.96514 0
M  V30 1332 H 127.252 3.80434 -3.00663 0
M  V30 1333 N 128.595 0.856903 1.32268 0
M  V30 1334 C 129.82 0.474569 2.01897 0
M  V30 1335 C 130.245 -0.921766 1.63967 0
M  V30 1336 O 129.603 -1.60589 0.84148 0
M  V30 1337 C 129.651 0.623799 3.55164 0
M  V30 1338 O 128.755 -0.342459 4.10976 0
M  V30 1339 H 128.096 0.190422 0.63611 0
M  V30 1340 H 130.626 1.15672 1.68764 0
M  V30 1341 H 130.636 0.512169 4.04773 0
M  V30 1342 H 129.311 1.64202 3.82113 0
M  V30 1343 H 127.888 -0.18688 3.72431 0
M  V30 1344 N 130.073 -1.45103 0.615059 0
M  V30 1345 C 131.301 -2.06553 0.11977 0
M  V30 1346 C 131.716 -1.45842 -1.19898 0
M  V30 1347 O 131.073 -0.575325 -1.73194 0
M  V30 1348 C 131.124 -3.61495 -0.018364 0
M  V30 1349 O 130.845 -4.19942 1.24822 0
M  V30 1350 C 132.346 -4.39947 -0.544237 0
M  V30 1351 H 129.566 -0.667096 0.0722739 0
M  V30 1352 H 132.11 -1.8623 0.84491 0
M  V30 1353 H 130.265 -3.81135 -0.693865 0
M  V30 1354 H 130.679 -5.13204 1.0827 0
M  V30 1355 H 132.153 -5.48838 -0.589953 0
M  V30 1356 H 132.63 -4.10255 -1.56805 0
M  V30 1357 H 133.236 -4.25188 0.0974703 0
M  V30 1358 N 131.551 -0.354651 -1.53558 0
M  V30 1359 C 132.962 0.126902 -1.86268 0
M  V30 1360 C 133.313 1.49075 -1.27558 0
M  V30 1361 O 132.438 2.08105 -0.5934 0
M  V30 1362 C 133.033 0.237046 -3.3797 0
M  V30 1363 C 131.592 0.662842 -3.70518 0
M  V30 1364 C 130.739 -0.196652 -2.76602 0
M  V30 1365 H 133.69 -0.573849 -1.47962 0
M  V30 1366 H 133.711 1.06259 -3.65362 0
M  V30 1367 H 133.223 -0.755725 -3.80671 0
M  V30 1368 H 131.324 1.66424 -3.33367 0
M  V30 1369 H 131.437 0.445034 -4.77029 0
M  V30 1370 H 129.801 0.332763 -2.52517 0
M  V30 1371 H 130.584 -1.18676 -3.22135 0
M  V30 1372 N 133.029 1.57378 -0.0835403 0
M  V30 1373 C 133.977 2.14602 0.89714 0
M  V30 1374 C 134.971 1.08589 1.30018 0
M  V30 1375 O 136.177 1.26952 1.27606 0
M  V30 1376 H 132.552 0.686346 0.3073 0
M  V30 1377 H 134.523 2.95845 0.38969 0
M  V30 1378 C 133.272 2.73188 2.15089 0
M  V30 1379 H 132.595 3.54442 1.84962 0
M  V30 1380 H 134.035 3.1681 2.81793 0
M  V30 1381 C 132.494 1.68517 2.91725 0
M  V30 1382 O 133.024 1.11718 3.85852 0
M  V30 1383 N 131.23 1.39277 2.55049 0
M  V30 1384 H 130.777 1.85655 1.78577 0
M  V30 1385 H 130.735 0.694791 3.06627 0
M  V30 1386 N 134.507 -0.190092 1.56449 0
M  V30 1387 C 135.735 -0.925772 1.85033 0
M  V30 1388 C 136.15 -1.76638 0.666658 0
M  V30 1389 O 135.507 -1.78822 -0.364565 0
M  V30 1390 C 135.558 -1.81786 3.12468 0
M  V30 1391 O 135.279 -1.01118 4.26271 0
M  V30 1392 C 136.78 -2.6648 3.54265 0
M  V30 1393 H 134 -0.269872 0.614337 0
M  V30 1394 H 136.544 -0.195837 2.0356 0
M  V30 1395 H 134.699 -2.50136 2.95822 0
M  V30 1396 H 135.113 -1.61956 4.98869 0
M  V30 1397 H 136.587 -3.24722 4.46385 0
M  V30 1398 H 137.064 -3.40434 2.77491 0
M  V30 1399 H 137.67 -2.03493 3.73458 0
M  V30 1400 N 135.985 -1.50799 -0.457987 0
M  V30 1401 C 137.234 -1.6168 -1.20593 0
M  V30 1402 C 137.547 -0.32888 -1.92815 0
M  V30 1403 O 138.753 -0.316773 -2.69646 0
M  V30 1404 C 137.209 -2.8545 -2.19195 0
M  V30 1405 C 136.817 -4.21168 -1.52715 0
M  V30 1406 C 138.561 -3.05681 -2.94549 0
M  V30 1407 C 136.468 -5.3611 -2.4968 0
M  V30 1408 H 135.398 -0.602134 -0.453818 0
M  V30 1409 H 138.049 -1.77245 -0.475031 0
M  V30 1410 H 136.431 -2.63472 -2.95632 0
M  V30 1411 H 137.605 -4.53449 -0.819775 0
M  V30 1412 H 135.92 -4.06648 -0.895922 0
M  V30 1413 H 138.517 -3.88727 -3.67145 0
M  V30 1414 H 138.86 -2.17929 -3.54701 0
M  V30 1415 H 139.393 -3.27901 -2.25223 0
M  V30 1416 H 136.132 -6.26057 -1.94249 0
M  V30 1417 H 135.652 -5.0823 -3.18532 0
M  V30 1418 H 137.331 -5.6722 -3.11241 0
M  V30 1419 N 137.463 0.71206 -1.40597 0
M  V30 1420 C 138.74 1.46536 -1.29563 0
M  V30 1421 C 139.12 2.10931 0.0844217 0
M  V30 1422 O 138.468 2.00418 1.0975 0
M  V30 1423 C 138.678 2.49821 -2.43701 0
M  V30 1424 C 140.026 3.15551 -2.841 0
M  V30 1425 O 141.05 2.60142 -2.4332 0
M  V30 1426 O 139.909 4.15867 -3.54566 0
M  V30 1427 H 137.003 0.651801 -0.509004 0
M  V30 1428 H 139.549 0.743935 -1.52524 0
M  V30 1429 H 138.321 2.00778 -3.35863 0
M  V30 1430 H 137.944 3.29495 -2.22528 0
M  V30 1431 N 138.941 1.26152 0.944643 0
M  V30 1432 C 139.873 1.03199 2.04652 0
M  V30 1433 C 140.886 -0.00642356 1.62799 0
M  V30 1434 O 142.075 0.233263 1.76969 0
M  V30 1435 C 139.175 0.540111 3.34568 0
M  V30 1436 C 138.348 1.64697 4.05208 0
M  V30 1437 C 137.407 1.15374 5.13396 0
M  V30 1438 O 136.433 1.85013 5.38293 0
M  V30 1439 N 137.635 0.00031529 5.805 0
M  V30 1440 H 140.4 1.9808 2.2491 0
M  V30 1441 H 137.961 1.17491 1.11389 0
M  V30 1442 H 139.953 0.194401 4.04233 0
M  V30 1443 H 138.523 -0.315021 3.11009 0
M  V30 1444 H 137.743 2.16379 3.29506 0
M  V30 1445 H 139.031 2.3903 4.49157 0
M  V30 1446 H 138.429 -0.581336 5.62705 0
M  V30 1447 H 136.986 -0.286346 6.51171 0
M  V30 1448 N 140.419 -1.14872 1.07899 0
M  V30 1449 C 141.665 -1.86289 0.81657 0
M  V30 1450 C 142.02 -1.8107 -0.65049 0
M  V30 1451 O 141.313 -1.22684 -1.47171 0
M  V30 1452 C 141.507 -3.34223 1.26609 0
M  V30 1453 C 141.336 -3.53846 2.77531 0
M  V30 1454 C 140.106 -3.68995 3.45212 0
M  V30 1455 C 142.304 -3.51201 3.75716 0
M  V30 1456 N 140.286 -3.76725 4.84718 0
M  V30 1457 C 141.657 -3.65112 5.01092 0
M  V30 1458 C 143.712 -3.34507 3.68794 0
M  V30 1459 C 142.415 -3.64056 6.20368 0
M  V30 1460 C 144.441 -3.34752 4.8754 0
M  V30 1461 C 143.803 -3.49199 6.11751 0
M  V30 1462 H 139.902 -0.698579 0.351443 0
M  V30 1463 H 142.486 -1.37713 1.37634 0
M  V30 1464 H 140.657 -3.81402 0.73395 0
M  V30 1465 H 142.389 -3.93377 0.95062 0
M  V30 1466 H 139.144 -3.70006 2.95622 0
M  V30 1467 H 139.568 -3.8432 5.5734 0
M  V30 1468 H 144.21 -3.22253 2.73702 0
M  V30 1469 H 141.928 -3.75087 7.15776 0
M  V30 1470 H 145.514 -3.23055 4.83866 0
M  V30 1471 H 144.394 -3.49328 7.02097 0
M  V30 1472 N 141.898 -0.863906 -1.31812 0
M  V30 1473 C 143.175 -0.39275 -1.91616 0
M  V30 1474 C 143.555 1.12461 -1.7865 0
M  V30 1475 O 142.903 1.95045 -1.19037 0
M  V30 1476 C 143.113 -0.867385 -3.38049 0
M  V30 1477 C 144.461 -0.889966 -4.15168 0
M  V30 1478 O 145.485 -0.812635 -3.46806 0
M  V30 1479 O 144.344 -1.00079 -5.37258 0
M  V30 1480 H 141.438 -0.116358 -0.818773 0
M  V30 1481 H 143.984 -0.951418 -1.40521 0
M  V30 1482 H 142.756 -1.91081 -3.41473 0
M  V30 1483 H 142.379 -0.286687 -3.96565 0
M  V30 1484 N 143.376 1.44774 -0.622745 0
M  V30 1485 C 144.604 2.06487 -0.130722 0
M  V30 1486 C 145.019 1.46476 1.19123 0
M  V30 1487 O 144.376 0.584502 1.72887 0
M  V30 1488 C 144.427 3.615 -0.000807207 0
M  V30 1489 O 144.148 4.19274 -1.27048 0
M  V30 1490 C 145.649 4.40229 0.520898 0
M  V30 1491 H 142.869 0.666704 -0.0758106 0
M  V30 1492 H 145.413 1.85779 -0.854774 0
M  V30 1493 H 143.568 3.81498 0.673643 0
M  V30 1494 H 143.982 5.12622 -1.1099 0
M  V30 1495 H 145.456 5.49144 0.560838 0
M  V30 1496 H 145.933 4.1108 1.54627 0
M  V30 1497 H 146.539 4.25131 -0.120018 0
M  V30 1498 N 144.854 0.36279 1.53368 0
M  V30 1499 C 146.082 -0.228613 2.05633 0
M  V30 1500 C 146.497 -1.42676 1.23649 0
M  V30 1501 O 145.854 -1.80394 0.27647 0
M  V30 1502 C 145.905 -0.624845 3.56059 0
M  V30 1503 O 145.626 0.525675 4.34935 0
M  V30 1504 C 147.127 -1.27493 4.24571 0
M  V30 1505 H 144.347 -0.0407183 0.669763 0
M  V30 1506 H 146.891 0.520352 1.97769 0
M  V30 1507 H 145.046 -1.32373 3.64083 0
M  V30 1508 H 145.46 0.205969 5.24095 0
M  V30 1509 H 146.934 -1.50277 5.31151 0
M  V30 1510 H 147.411 -2.23439 3.78116 0
M  V30 1511 H 148.017 -0.617558 4.20792 0
M  V30 1512 N 146.332 -1.57332 0.0918853 0
M  V30 1513 C 147.58 -1.93853 -0.571446 0
M  V30 1514 C 147.901 -0.974212 -1.6892 0
M  V30 1515 O 147.171 -0.0257254 -1.95883 0
M  V30 1516 H 145.751 -0.715666 -0.214082 0
M  V30 1517 H 148.413 -1.94287 0.154464 0
M  V30 1518 H 147.509 -2.96191 -0.983729 0
M  V30 1519 N 147.81 0.181792 -1.56548 0
M  V30 1520 C 148.74 1.22765 -1.98623 0
M  V30 1521 C 149.721 1.46747 -0.860189 0
M  V30 1522 O 150.906 1.58259 -1.12551 0
M  V30 1523 C 148.036 2.56894 -2.33715 0
M  V30 1524 C 146.99 2.475 -3.49182 0
M  V30 1525 C 146.316 3.86023 -3.69986 0
M  V30 1526 C 147.616 1.98866 -4.82959 0
M  V30 1527 H 149.31 0.877942 -2.86239 0
M  V30 1528 H 146.856 0.42088 -1.37712 0
M  V30 1529 H 148.809 3.30253 -2.61746 0
M  V30 1530 H 147.533 2.93632 -1.42997 0
M  V30 1531 H 146.192 1.76596 -3.21262 0
M  V30 1532 H 145.84 4.20136 -2.76576 0
M  V30 1533 H 145.54 3.80609 -4.47672 0
M  V30 1534 H 147.064 4.60984 -4.00407 0
M  V30 1535 H 148.478 2.61992 -5.09934 0
M  V30 1536 H 146.875 2.04424 -5.64208 0
M  V30 1537 H 147.945 0.942465 -4.75653 0
M  V30 1538 N 149.288 1.51039 0.449983 0
M  V30 1539 C 150.518 1.66627 1.22143 0
M  V30 1540 C 150.926 0.357776 1.85786 0
M  V30 1541 O 150.269 -0.672424 1.70951 0
M  V30 1542 C 150.331 2.71562 2.35573 0
M  V30 1543 C 149.995 4.14526 1.92399 0
M  V30 1544 C 150.992 4.99717 1.43453 0
M  V30 1545 C 148.677 4.60559 2.00475 0
M  V30 1546 C 150.671 6.28998 1.03155 0
M  V30 1547 C 148.358 5.8984 1.59788 0
M  V30 1548 C 149.356 6.73886 1.11208 0
M  V30 1549 O 149.044 8.0075 0.710935 0
M  V30 1550 H 148.776 0.562635 0.374724 0
M  V30 1551 H 151.33 1.98146 0.541036 0
M  V30 1552 H 149.56 2.3533 3.06849 0
M  V30 1553 H 151.249 2.76156 2.97478 0
M  V30 1554 H 152.015 4.65361 1.36618 0
M  V30 1555 H 147.894 3.95273 2.37235 0
M  V30 1556 H 151.438 6.9455 0.651663 0
M  V30 1557 H 147.335 6.23713 1.66289 0
M  V30 1558 H 148.103 8.142 0.837913 0
M  V30 1559 N 150.766 -0.704594 1.40972 0
M  V30 1560 C 151.991 -1.49858 1.43378 0
M  V30 1561 C 152.416 -1.88061 0.038184 0
M  V30 1562 O 151.774 -1.5402 -0.956425 0
M  V30 1563 C 151.822 -2.74333 2.34038 0
M  V30 1564 O 150.926 -3.7147 1.7912 0
M  V30 1565 H 150.267 -0.45139 0.486974 0
M  V30 1566 H 152.797 -0.866832 1.8533 0
M  V30 1567 H 152.807 -3.22741 2.49604 0
M  V30 1568 H 151.482 -2.45863 3.35446 0
M  V30 1569 H 150.059 -3.30363 1.72958 0
M  V30 1570 N 152.244 -1.26651 -0.937939 0
M  V30 1571 C 153.491 -1.12387 -1.6845 0
M  V30 1572 C 153.819 0.332208 -1.91642 0
M  V30 1573 O 153.074 1.2602 -1.49725 0
M  V30 1574 C 153.373 -1.84168 -3.06295 0
M  V30 1575 C 153.039 -3.34056 -3.02849 0
M  V30 1576 C 151.701 -3.74942 -3.01616 0
M  V30 1577 C 154.053 -4.29741 -2.9491 0
M  V30 1578 C 151.381 -5.09894 -2.90215 0
M  V30 1579 C 153.733 -5.64738 -2.8505 0
M  V30 1580 C 152.397 -6.0493 -2.82162 0
M  V30 1581 H 151.667 -0.411252 -0.616403 0
M  V30 1582 H 154.314 -1.57134 -1.09459 0
M  V30 1583 H 152.619 -1.319 -3.6893 0
M  V30 1584 H 154.316 -1.70569 -3.62915 0
M  V30 1585 H 150.906 -3.01534 -3.0459 0
M  V30 1586 H 155.09 -3.99133 -2.94969 0
M  V30 1587 H 150.346 -5.40194 -2.86358 0
M  V30 1588 H 154.52 -6.38561 -2.77872 0
M  V30 1589 H 152.147 -7.09457 -2.73084 0
M  V30 1590 N 153.722 1.14298 -1.08507 0
M  V30 1591 C 154.947 1.8976 -0.837001 0
M  V30 1592 C 155.372 1.78097 0.605228 0
M  V30 1593 O 154.73 1.12188 1.4242 0
M  V30 1594 C 154.778 3.37685 -1.26495 0
M  V30 1595 O 153.882 4.10281 -0.417514 0
M  V30 1596 H 153.223 0.590365 -0.303917 0
M  V30 1597 H 155.753 1.44672 -1.44676 0
M  V30 1598 H 155.763 3.88501 -1.24625 0
M  V30 1599 H 154.438 3.45492 -2.31534 0
M  V30 1600 H 153.015 3.69536 -0.499722 0
M  V30 1601 N 155.201 0.870884 1.31352 0
M  V30 1602 C 156.111 0.330783 2.32256 0
M  V30 1603 C 157.127 -0.559767 1.6475 0
M  V30 1604 O 158.303 -0.456263 1.96164 0
M  V30 1605 C 155.368 -0.458137 3.4366 0
M  V30 1606 C 154.429 0.460482 4.26823 0
M  V30 1607 C 153.662 -0.290881 5.32907 0
M  V30 1608 O 153.885 -1.51885 5.49806 0
M  V30 1609 O 152.819 0.351732 6.00871 0
M  V30 1610 H 156.645 1.16718 2.80376 0
M  V30 1611 H 154.23 0.634285 1.35267 0
M  V30 1612 H 156.112 -0.905343 4.1156 0
M  V30 1613 H 154.787 -1.27106 2.97701 0
M  V30 1614 H 153.694 0.956207 3.61673 0
M  V30 1615 H 155.027 1.23903 4.7635 0
M  V30 1616 N 156.679 -1.44442 0.630414 0
M  V30 1617 C 157.611 -2.2892 -0.113347 0
M  V30 1618 C 158.624 -1.41243 -0.80959 0
M  V30 1619 O 159.813 -1.65402 -0.671156 0
M  V30 1620 C 156.913 -3.17594 -1.18266 0
M  V30 1621 C 156.086 -4.33682 -0.569073 0
M  V30 1622 C 155.145 -5.03397 -1.53226 0
M  V30 1623 O 154.171 -5.59438 -1.04967 0
M  V30 1624 N 155.373 -5.04783 -2.86661 0
M  V30 1625 H 158.138 -2.93392 0.611636 0
M  V30 1626 H 155.699 -1.54881 0.471523 0
M  V30 1627 H 157.691 -3.61097 -1.82732 0
M  V30 1628 H 156.261 -2.54876 -1.80988 0
M  V30 1629 H 155.481 -3.9338 0.254187 0
M  V30 1630 H 156.769 -5.08608 -0.139767 0
M  V30 1631 H 156.167 -4.60584 -3.28449 0
M  V30 1632 H 154.724 -5.52077 -3.46489 0
M  V30 1633 N 158.157 -0.370918 -1.53173 0
M  V30 1634 C 159.385 0.217704 -2.05751 0
M  V30 1635 C 159.8 1.42018 -1.24404 0
M  V30 1636 O 159.157 1.80245 -0.286033 0
M  V30 1637 C 159.208 0.605954 -3.56385 0
M  V30 1638 O 158.929 -0.548734 -4.3465 0
M  V30 1639 C 160.43 1.2524 -4.25241 0
M  V30 1640 H 157.65 0.0371659 -0.66997 0
M  V30 1641 H 160.194 -0.530832 -1.9749 0
M  V30 1642 H 158.349 1.3044 -3.6478 0
M  V30 1643 H 158.763 -0.23376 -5.23979 0
M  V30 1644 H 160.237 1.47458 -5.3194 0
M  V30 1645 H 160.714 2.2143 -3.79296 0
M  V30 1646 H 161.32 0.595233 -4.21114 0
M  V30 1647 N 159.635 1.57281 -0.100228 0
M  V30 1648 C 161.051 1.57527 0.256416 0
M  V30 1649 C 161.251 1.11173 1.68056 0
M  V30 1650 O 160.307 0.79053 2.39806 0
M  V30 1651 C 161.62 3.00673 0.0401747 0
M  V30 1652 C 163.168 3.12815 0.107528 0
M  V30 1653 C 163.643 4.57929 -0.0807834 0
M  V30 1654 N 165.134 4.63193 -0.0261207 0
M  V30 1655 C 165.869 5.73212 -0.146999 0
M  V30 1656 N 165.365 6.92047 -0.322999 0
M  V30 1657 N 167.158 5.62031 -0.0879044 0
M  V30 1658 H 159.309 1.85718 -1.03065 0
M  V30 1659 H 161.572 0.857446 -0.404339 0
M  V30 1660 H 161.278 3.38804 -0.943649 0
M  V30 1661 H 161.152 3.69042 0.780262 0
M  V30 1662 H 163.539 2.74554 1.08186 0
M  V30 1663 H 163.62 2.47028 -0.664134 0
M  V30 1664 H 163.264 4.96886 -1.05201 0
M  V30 1665 H 163.194 5.21783 0.710635 0
M  V30 1666 H 165.685 3.77748 0.107161 0
M  V30 1667 H 165.998 7.7173 -0.406608 0
M  V30 1668 H 164.343 6.94074 -0.358733 0
M  V30 1669 H 167.534 4.68075 0.048498 0
M  V30 1670 H 167.707 6.47734 -0.185557 0
M  V30 1671 N 161.113 -0.173488 1.56642 0
M  V30 1672 C 162.338 -0.910149 1.86363 0
M  V30 1673 C 162.763 -1.75132 0.686318 0
M  V30 1674 O 162.121 -1.77595 -0.364643 0
M  V30 1675 C 162.169 -1.76447 3.14482 0
M  V30 1676 O 161.273 -2.86584 2.96553 0
M  V30 1677 H 160.614 -0.255086 0.613047 0
M  V30 1678 H 163.144 -0.172283 2.03873 0
M  V30 1679 H 163.154 -2.16483 3.45831 0
M  V30 1680 H 161.829 -1.14658 3.99783 0
M  V30 1681 H 160.406 -2.50146 2.76553 0
M  V30 1682 N 162.591 -1.51276 -0.441967 0
M  V30 1683 C 163.521 -1.752 -1.54361 0
M  V30 1684 C 164.502 -0.601682 -1.59103 0
M  V30 1685 O 165.687 -0.843913 -1.74905 0
M  V30 1686 C 162.817 -1.87282 -2.92477 0
M  V30 1687 C 161.771 -3.02687 -3.02596 0
M  V30 1688 C 161.097 -2.99947 -4.42647 0
M  V30 1689 C 162.397 -4.4273 -2.77106 0
M  V30 1690 H 164.091 -2.67442 -1.34592 0
M  V30 1691 H 161.637 -1.28694 -0.646048 0
M  V30 1692 H 163.59 -2.02602 -3.695 0
M  V30 1693 H 162.314 -0.916844 -3.13467 0
M  V30 1694 H 160.973 -2.87065 -2.28012 0
M  V30 1695 H 160.621 -2.02136 -4.60597 0
M  V30 1696 H 160.321 -3.77439 -4.50348 0
M  V30 1697 H 161.845 -3.17354 -5.2165 0
M  V30 1698 H 163.259 -4.58727 -3.43864 0
M  V30 1699 H 161.656 -5.21893 -2.96222 0
M  V30 1700 H 162.726 -4.53087 -1.72744 0
M  V30 1701 N 164.069 0.697108 -1.41344 0
M  V30 1702 C 165.346 1.45154 -1.31109 0
M  V30 1703 C 165.726 2.11009 0.0620449 0
M  V30 1704 O 165.074 2.01571 1.07618 0
M  V30 1705 C 165.284 2.47223 -2.46337 0
M  V30 1706 C 166.632 3.1252 -2.87431 0
M  V30 1707 O 167.656 2.57547 -2.46065 0
M  V30 1708 O 166.515 4.12083 -3.58957 0
M  V30 1709 H 163.609 0.646365 -0.515889 0
M  V30 1710 H 166.155 0.727716 -1.53305 0
M  V30 1711 H 164.927 1.97204 -3.37974 0
M  V30 1712 H 164.55 3.27116 -2.2601 0
M  V30 1713 N 165.547 1.27147 0.931209 0
M  V30 1714 C 166.795 1.13055 1.6752 0
M  V30 1715 C 167.116 -0.324791 1.92276 0
M  V30 1716 O 166.386 -1.22775 1.52654 0
M  V30 1717 H 164.966 0.415391 0.620854 0
M  V30 1718 H 167.628 1.59623 1.11833 0
M  V30 1719 H 166.724 1.65694 2.64485 0
M  V30 1720 N 167.025 -1.13721 1.09112 0
M  V30 1721 C 168.441 -1.36914 0.820174 0
M  V30 1722 C 168.641 -1.93356 -0.567079 0
M  V30 1723 O 167.697 -2.15093 -1.32255 0
M  V30 1724 C 169.01 -2.3235 1.90877 0
M  V30 1725 C 170.558 -2.45973 1.93562 0
M  V30 1726 C 171.033 -3.44714 3.01556 0
M  V30 1727 N 172.524 -3.52263 3.00775 0
M  V30 1728 C 173.259 -4.28536 3.80978 0
M  V30 1729 N 172.755 -5.07991 4.71081 0
M  V30 1730 N 174.548 -4.23804 3.69251 0
M  V30 1731 H 166.699 -0.754348 1.98553 0
M  V30 1732 H 168.962 -0.3944 0.862063 0
M  V30 1733 H 168.668 -1.98027 2.90651 0
M  V30 1734 H 168.542 -3.32332 1.78424 0
M  V30 1735 H 170.929 -2.79584 0.944286 0
M  V30 1736 H 171.01 -1.45926 2.10093 0
M  V30 1737 H 170.654 -3.11835 4.00901 0
M  V30 1738 H 170.584 -4.44558 2.82269 0
M  V30 1739 H 173.075 -2.95567 2.35475 0
M  V30 1740 H 173.388 -5.63487 5.28869 0
M  V30 1741 H 171.733 -5.07235 4.75119 0
M  V30 1742 H 174.924 -3.60806 2.98222 0
M  V30 1743 H 175.097 -4.82995 4.31995 0
M  V30 1744 N 168.503 -0.877838 -1.30888 0
M  V30 1745 C 169.433 -0.35534 -2.3078 0
M  V30 1746 C 170.414 0.557994 -1.60687 0
M  V30 1747 O 171.599 0.473355 -1.88343 0
M  V30 1748 C 168.729 0.437221 -3.44537 0
M  V30 1749 C 167.683 -0.383715 -4.26276 0
M  V30 1750 C 167.009 0.535014 -5.32017 0
M  V30 1751 C 168.309 -1.62201 -4.96476 0
M  V30 1752 H 170.003 -1.19007 -2.74732 0
M  V30 1753 H 167.549 -0.573698 -1.32078 0
M  V30 1754 H 169.502 0.813334 -4.13477 0
M  V30 1755 H 168.226 1.30553 -2.99372 0
M  V30 1756 H 166.885 -0.741874 -3.59015 0
M  V30 1757 H 166.533 1.40083 -4.831 0
M  V30 1758 H 166.233 -0.0104211 -5.87599 0
M  V30 1759 H 167.757 0.907799 -6.03814 0
M  V30 1760 H 169.171 -1.31689 -5.5797 0
M  V30 1761 H 167.568 -2.10711 -5.61891 0
M  V30 1762 H 168.638 -2.37044 -4.23011 0
M  V30 1763 N 169.982 1.44106 -0.638065 0
M  V30 1764 C 170.914 2.28976 0.101205 0
M  V30 1765 C 171.927 1.4167 0.802088 0
M  V30 1766 O 173.116 1.65755 0.662375 0
M  V30 1767 C 170.216 3.18217 1.16581 0
M  V30 1768 C 169.389 4.33978 0.546066 0
M  V30 1769 C 168.448 5.04202 1.50554 0
M  V30 1770 O 167.474 5.59986 1.01999 0
M  V30 1771 N 168.676 5.06296 2.8398 0
M  V30 1772 H 171.441 2.93064 -0.627186 0
M  V30 1773 H 169.002 1.54629 -0.479731 0
M  V30 1774 H 170.994 3.62061 1.80815 0
M  V30 1775 H 169.564 2.55833 1.79634 0
M  V30 1776 H 168.784 3.93239 -0.275046 0
M  V30 1777 H 170.072 5.08675 0.112793 0
M  V30 1778 H 169.47 4.62319 3.26002 0
M  V30 1779 H 168.027 5.53907 3.43556 0
M  V30 1780 N 171.46 0.379036 1.52974 0
M  V30 1781 C 172.706 -0.206727 2.01744 0
M  V30 1782 C 173.039 -1.47314 1.26539 0
M  V30 1783 O 172.314 -1.91084 0.362903 0
M  V30 1784 C 172.597 -0.485066 3.56818 0
M  V30 1785 C 172.45 0.795919 4.42702 0
M  V30 1786 C 173.769 -1.28003 4.21074 0
M  V30 1787 H 170.888 -0.0736607 0.73331 0
M  V30 1788 H 173.53 0.506581 1.83122 0
M  V30 1789 H 171.68 -1.09272 3.72816 0
M  V30 1790 H 173.352 1.43307 4.38476 0
M  V30 1791 H 171.595 1.41344 4.10127 0
M  V30 1792 H 172.266 0.555947 5.49193 0
M  V30 1793 H 174.742 -0.765867 4.08991 0
M  V30 1794 H 173.618 -1.44352 5.29579 0
M  V30 1795 H 173.879 -2.29236 3.78026 0
M  V30 1796 N 172.938 -1.57226 0.108567 0
M  V30 1797 C 174.163 -1.99604 -0.563303 0
M  V30 1798 C 174.588 -0.987563 -1.6009 0
M  V30 1799 O 173.946 0.0421687 -1.81251 0
M  V30 1800 C 173.994 -3.40902 -1.17552 0
M  V30 1801 O 173.098 -3.42896 -2.2912 0
M  V30 1802 H 172.439 -0.648704 -0.1417 0
M  V30 1803 H 174.969 -2.03679 0.193961 0
M  V30 1804 H 174.979 -3.78886 -1.51357 0
M  V30 1805 H 173.654 -4.1382 -0.415445 0
M  V30 1806 H 172.231 -3.1672 -1.96832 0
M  V30 1807 N 174.416 0.165178 -1.56732 0
M  V30 1808 C 175.366 1.20917 -1.93295 0
M  V30 1809 C 176.35 1.39488 -0.801985 0
M  V30 1810 O 177.542 1.41356 -1.06525 0
M  V30 1811 C 174.671 2.54718 -2.3016 0
M  V30 1812 C 173.757 2.39815 -3.49785 0
M  V30 1813 N 174.148 1.94637 -4.66851 0
M  V30 1814 C 172.446 2.70623 -3.54513 0
M  V30 1815 C 173.147 1.92344 -5.4898 0
M  V30 1816 N 172.123 2.34978 -4.9019 0
M  V30 1817 H 175.925 0.851675 -2.81289 0
M  V30 1818 H 173.439 0.373399 -1.58049 0
M  V30 1819 H 175.436 3.30165 -2.54552 0
M  V30 1820 H 174.096 2.91265 -1.43508 0
M  V30 1821 H 175.107 1.6488 -4.90953 0
M  V30 1822 H 171.784 3.11167 -2.78354 0
M  V30 1823 H 173.174 1.5906 -6.52801 0
M  V30 1824 N 175.894 1.51508 0.433938 0
M  V30 1825 C 177.31 1.39759 0.770682 0
M  V30 1826 C 177.51 0.482594 1.95636 0
M  V30 1827 O 176.566 -0.0609691 2.52426 0
M  V30 1828 C 177.879 2.81851 1.04787 0
M  V30 1829 C 179.427 2.91025 1.1521 0
M  V30 1830 C 179.902 4.34032 1.46219 0
M  V30 1831 N 181.393 4.37154 1.53136 0
M  V30 1832 C 182.128 5.4484 1.78709 0
M  V30 1833 N 181.624 6.62682 2.02051 0
M  V30 1834 N 183.417 5.32324 1.80519 0
M  V30 1835 H 175.568 2.09548 -0.346892 0
M  V30 1836 H 177.831 0.943446 -0.0928074 0
M  V30 1837 H 177.537 3.50815 0.249304 0
M  V30 1838 H 177.411 3.21386 1.97461 0
M  V30 1839 H 179.798 2.22257 1.94128 0
M  V30 1840 H 179.879 2.54983 0.204281 0
M  V30 1841 H 179.523 5.03351 0.678274 0
M  V30 1842 H 179.453 4.6759 2.42212 0
M  V30 1843 H 181.944 3.52197 1.36987 0
M  V30 1844 H 182.257 7.40543 2.20943 0
M  V30 1845 H 180.602 6.65791 1.99366 0
M  V30 1846 H 183.793 4.39246 1.61805 0
M  V30 1847 H 183.966 6.16328 2.00111 0
M  V30 1848 N 177.372 -0.689602 1.41712 0
M  V30 1849 C 178.319 -1.80345 1.44029 0
M  V30 1850 C 179.289 -1.63478 0.293948 0
M  V30 1851 O 180.474 -1.84244 0.495869 0
M  V30 1852 C 177.614 -3.18272 1.33405 0
M  V30 1853 C 176.727 -3.46529 2.57956 0
M  V30 1854 C 175.862 -4.74103 2.39582 0
M  V30 1855 C 174.901 -4.95347 3.5958 0
M  V30 1856 N 174.038 -6.14151 3.40239 0
M  V30 1857 H 178.878 -1.77698 2.39222 0
M  V30 1858 H 176.415 -0.867688 1.18784 0
M  V30 1859 H 178.373 -3.97956 1.25246 0
M  V30 1860 H 177.003 -3.2008 0.418164 0
M  V30 1861 H 176.055 -2.61207 2.76542 0
M  V30 1862 H 177.367 -3.58126 3.47199 0
M  V30 1863 H 176.521 -5.61853 2.28924 0
M  V30 1864 H 175.26 -4.64763 1.47805 0
M  V30 1865 H 174.265 -4.06044 3.70686 0
M  V30 1866 H 175.49 -5.06542 4.52318 0
M  V30 1867 H 173.436 -6.06013 2.51167 0
M  V30 1868 H 173.353 -6.26543 4.23061 0
M  V30 1869 H 174.621 -7.04619 3.33365 0
M  V30 1870 N 178.85 -1.27639 -0.924453 0
M  V30 1871 C 180.098 -1.13941 -1.66918 0
M  V30 1872 C 180.419 0.314589 -1.92446 0
M  V30 1873 O 179.689 1.21964 -1.53303 0
M  V30 1874 H 178.269 -0.418678 -0.618642 0
M  V30 1875 H 180.931 -1.60213 -1.10985 0
M  V30 1876 H 180.027 -1.67094 -2.63602 0
M  V30 1877 N 180.328 1.1314 -1.09713 0
M  V30 1878 C 181.258 2.20748 -0.761102 0
M  V30 1879 C 182.239 1.68061 0.262566 0
M  V30 1880 O 183.424 1.93765 0.129977 0
M  V30 1881 C 180.554 3.46812 -0.184054 0
M  V30 1882 C 179.508 4.12606 -1.13757 0
M  V30 1883 C 178.834 5.33031 -0.422083 0
M  V30 1884 C 180.134 4.59603 -2.48118 0
M  V30 1885 H 181.828 2.49113 -1.66082 0
M  V30 1886 H 179.374 1.19734 -0.799987 0
M  V30 1887 H 181.327 4.21353 0.0631215 0
M  V30 1888 H 180.051 3.17851 0.750868 0
M  V30 1889 H 178.71 3.40036 -1.37007 0
M  V30 1890 H 178.358 5.00335 0.517072 0
M  V30 1891 H 178.058 5.77999 -1.05788 0
M  V30 1892 H 179.582 6.10325 -0.183277 0
M  V30 1893 H 180.996 5.25552 -2.29059 0
M  V30 1894 H 179.393 5.15321 -3.07514 0
M  V30 1895 H 180.463 3.73971 -3.08665 0
M  V30 1896 N 181.806 0.884767 1.30421 0
M  V30 1897 C 183.217 0.553656 1.78302 0
M  V30 1898 C 183.568 -0.930153 1.7275 0
M  V30 1899 O 182.693 -1.72681 1.30423 0
M  V30 1900 C 183.288 0.998234 3.2376 0
M  V30 1901 C 181.847 0.71854 3.69478 0
M  V30 1902 C 180.994 1.18132 2.50879 0
M  V30 1903 H 183.945 1.06901 1.17294 0
M  V30 1904 H 183.966 0.327118 3.79091 0
M  V30 1905 H 183.478 2.0782 3.27769 0
M  V30 1906 H 181.579 -0.349444 3.70958 0
M  V30 1907 H 181.692 1.30595 4.60958 0
M  V30 1908 H 180.056 0.600669 2.47516 0
M  V30 1909 H 180.839 2.26902 2.57624 0
M  V30 1910 N 183.284 -1.43765 0.645699 0
M  V30 1911 C 184.234 -2.27884 -0.0726442 0
M  V30 1912 C 185.218 -1.39483 -0.802086 0
M  V30 1913 O 186.41 -1.63174 -0.685791 0
M  V30 1914 C 183.539 -3.27055 -1.04356 0
M  V30 1915 C 182.625 -4.22944 -0.312985 0
M  V30 1916 N 183.016 -5.01391 0.666386 0
M  V30 1917 C 181.314 -4.42528 -0.55546 0
M  V30 1918 C 182.015 -5.71217 1.09935 0
M  V30 1919 N 180.991 -5.41856 0.435137 0
M  V30 1920 H 184.793 -2.85949 0.678988 0
M  V30 1921 H 182.307 -1.55378 0.472368 0
M  V30 1922 H 184.304 -3.86089 -1.57292 0
M  V30 1923 H 182.964 -2.70551 -1.79534 0
M  V30 1924 H 183.975 -5.07252 1.04481 0
M  V30 1925 H 180.652 -3.97104 -1.28899 0
M  V30 1926 H 182.042 -6.44202 1.90929 0
M  V30 1927 N 184.763 -0.387143 -1.52771 0
M  V30 1928 C 186.009 0.196025 -2.0185 0
M  V30 1929 C 186.342 1.46641 -1.27319 0
M  V30 1930 O 185.617 1.90889 -0.373032 0
M  V30 1931 C 185.9 0.466136 -3.5707 0
M  V30 1932 C 185.753 -0.819385 -4.42274 0
M  V30 1933 C 187.072 1.25768 -4.21747 0
M  V30 1934 H 184.191 0.0697708 -0.73369 0
M  V30 1935 H 186.833 -0.516286 -1.82851 0
M  V30 1936 H 184.983 1.07293 -3.7339 0
M  V30 1937 H 186.655 -1.4563 -4.37709 0
M  V30 1938 H 184.898 -1.43517 -4.09372 0
M  V30 1939 H 185.569 -0.585065 -5.48891 0
M  V30 1940 H 188.045 0.744167 -4.09391 0
M  V30 1941 H 186.921 1.41541 -5.30337 0
M  V30 1942 H 187.182 2.27228 -3.79236 0
M  V30 1943 N 186.241 1.57166 -0.116904 0
M  V30 1944 C 187.49 1.94298 0.541407 0
M  V30 1945 C 187.803 1.00236 1.67964 0
M  V30 1946 O 189.009 1.26826 2.40057 0
M  V30 1947 C 187.465 3.45306 1.01449 0
M  V30 1948 C 187.073 4.47899 -0.0951738 0
M  V30 1949 C 188.817 3.91361 1.6443 0
M  V30 1950 C 186.724 5.90083 0.394491 0
M  V30 1951 H 185.654 0.725308 0.206019 0
M  V30 1952 H 188.305 1.82446 -0.196419 0
M  V30 1953 H 186.687 3.52385 1.80667 0
M  V30 1954 H 187.861 4.52486 -0.871374 0
M  V30 1955 H 186.176 4.11583 -0.631505 0
M  V30 1956 H 188.773 4.95004 2.02176 0
M  V30 1957 H 189.116 3.3122 2.52189 0
M  V30 1958 H 189.649 3.87073 0.917559 0
M  V30 1959 H 186.388 6.53974 -0.447004 0
M  V30 1960 H 185.908 5.88921 1.13722 0
M  V30 1961 H 187.587 6.41307 0.856399 0
M  V30 1962 N 187.719 -0.156864 1.56817 0
M  V30 1963 C 188.949 -0.885031 1.86684 0
M  V30 1964 C 189.357 -1.75696 0.701954 0
M  V30 1965 O 188.7 -1.80569 -0.337732 0
M  V30 1966 C 188.762 -1.80092 3.11138 0
M  V30 1967 C 188.426 -1.10714 4.43386 0
M  V30 1968 C 189.423 -0.465714 5.1781 0
M  V30 1969 C 187.108 -1.09959 4.90117 0
M  V30 1970 C 189.102 0.174002 6.37162 0
M  V30 1971 C 186.789 -0.456055 6.09396 0
M  V30 1972 C 187.787 0.179622 6.82764 0
M  V30 1973 O 187.475 0.812975 7.99779 0
M  V30 1974 H 187.207 -0.261813 0.623242 0
M  V30 1975 H 189.761 -0.157383 2.04796 0
M  V30 1976 H 187.991 -2.56926 2.89009 0
M  V30 1977 H 189.68 -2.40018 3.27332 0
M  V30 1978 H 190.446 -0.463427 4.82781 0
M  V30 1979 H 186.325 -1.58378 4.3294 0
M  V30 1980 H 189.869 0.670765 6.94368 0
M  V30 1981 H 185.766 -0.455975 6.43888 0
M  V30 1982 H 186.534 0.71366 8.15383 0
M  V30 1983 N 189.197 -1.51736 -0.425897 0
M  V30 1984 C 190.437 -1.66636 -1.18371 0
M  V30 1985 C 190.801 -0.379854 -1.88205 0
M  V30 1986 O 192.002 -0.404758 -2.65735 0
M  V30 1987 C 190.273 -2.84382 -2.16476 0
M  V30 1988 S 191.832 -3.19673 -3.0059 0
M  V30 1989 H 188.65 -0.586957 -0.40125 0
M  V30 1990 H 191.252 -1.89679 -0.473518 0
M  V30 1991 H 189.956 -3.76281 -1.63831 0
M  V30 1992 H 189.487 -2.63562 -2.92059 0
M  V30 1993 H 191.502 -2.66994 -4.18245 0
M  V30 1994 N 190.675 0.682077 -1.42076 0
M  V30 1995 C 192.091 0.994324 -1.24841 0
M  V30 1996 C 192.291 2.0096 -0.147389 0
M  V30 1997 O 191.347 2.47822 0.483782 0
M  V30 1998 C 192.66 1.50607 -2.60265 0
M  V30 1999 C 194.208 1.62421 -2.6756 0
M  V30 2000 C 194.683 2.16994 -4.03333 0
M  V30 2001 N 196.174 2.24337 -4.0525 0
M  V30 2002 C 196.909 2.67621 -5.07116 0
M  V30 2003 N 196.405 3.1041 -6.19368 0
M  V30 2004 N 198.198 2.67305 -4.94474 0
M  V30 2005 H 190.349 0.00973908 -2.12398 0
M  V30 2006 H 192.612 0.0668593 -0.945639 0
M  V30 2007 H 192.318 0.834583 -3.41654 0
M  V30 2008 H 192.192 2.48602 -2.83684 0
M  V30 2009 H 194.579 2.28678 -1.86521 0
M  V30 2010 H 194.66 0.629352 -2.47937 0
M  V30 2011 H 194.304 1.51349 -4.84826 0
M  V30 2012 H 194.234 3.17258 -4.20304 0
M  V30 2013 H 196.725 1.94158 -3.24209 0
M  V30 2014 H 197.038 3.42103 -6.92954 0
M  V30 2015 H 195.383 3.08286 -6.22884 0
M  V30 2016 H 198.574 2.33233 -4.05857 0
M  V30 2017 H 198.747 3.00718 -5.73997 0
M  V30 2018 N 192.153 1.28127 0.917671 0
M  V30 2019 C 193.083 1.14248 2.03641 0
M  V30 2020 C 194.064 0.0412748 1.7005 0
M  V30 2021 O 195.249 0.217566 1.92977 0
M  V30 2022 C 192.379 0.799431 3.37974 0
M  V30 2023 C 191.333 1.85497 3.85713 0
M  V30 2024 C 190.659 1.36565 5.16966 0
M  V30 2025 C 191.959 3.26085 4.08002 0
M  V30 2026 H 193.653 2.07835 2.15511 0
M  V30 2027 H 191.199 1.00064 1.03553 0
M  V30 2028 H 193.152 0.689114 4.15727 0
M  V30 2029 H 191.876 -0.172145 3.26146 0
M  V30 2030 H 190.535 1.95437 3.10161 0
M  V30 2031 H 190.183 0.383253 5.01538 0
M  V30 2032 H 189.883 2.07143 5.49878 0
M  V30 2033 H 191.407 1.26848 5.97279 0
M  V30 2034 H 192.821 3.19089 4.76293 0
M  V30 2035 H 191.218 3.94462 4.52238 0
M  V30 2036 H 192.288 3.70394 3.12948 0
M  V30 2037 N 193.631 -1.12557 1.10312 0
M  V30 2038 C 194.877 -1.84515 0.855901 0
M  V30 2039 C 195.232 -1.82409 -0.611936 0
M  V30 2040 O 194.525 -1.25778 -1.44535 0
M  V30 2041 C 194.719 -3.31462 1.33669 0
M  V30 2042 C 194.548 -3.47879 2.84974 0
M  V30 2043 C 193.318 -3.61589 3.52961 0
M  V30 2044 C 195.516 -3.43152 3.83081 0
M  V30 2045 N 193.498 -3.66359 4.926 0
M  V30 2046 C 194.869 -3.54401 5.08724 0
M  V30 2047 C 196.924 -3.2661 3.75807 0
M  V30 2048 C 195.627 -3.50815 6.2795 0
M  V30 2049 C 197.653 -3.24335 4.94531 0
M  V30 2050 C 197.015 -3.36144 6.19021 0
M  V30 2051 H 193.114 -0.690967 0.366182 0
M  V30 2052 H 195.698 -1.34763 1.40524 0
M  V30 2053 H 193.869 -3.7976 0.814686 0
M  V30 2054 H 195.601 -3.91272 1.03385 0
M  V30 2055 H 192.356 -3.63652 3.03404 0
M  V30 2056 H 192.78 -3.72411 5.65366 0
M  V30 2057 H 197.422 -3.16375 2.80476 0
M  V30 2058 H 195.14 -3.5982 7.23571 0
M  V30 2059 H 198.726 -3.12719 4.9061 0
M  V30 2060 H 197.606 -3.34357 7.09348 0
M  V30 2061 N 195.109 -0.891671 -1.2995 0
M  V30 2062 C 196.525 -0.58662 -1.48428 0
M  V30 2063 C 196.725 0.873951 -1.81561 0
M  V30 2064 O 195.781 1.65471 -1.90724 0
M  V30 2065 C 197.094 -1.50553 -2.60296 0
M  V30 2066 C 198.642 -1.50988 -2.74175 0
M  V30 2067 C 199.117 -2.41488 -3.89163 0
M  V30 2068 N 200.608 -2.39489 -3.96483 0
M  V30 2069 C 201.343 -3.06223 -4.84784 0
M  V30 2070 N 200.839 -3.82206 -5.77833 0
M  V30 2071 N 202.632 -2.95421 -4.78208 0
M  V30 2072 H 194.783 -1.83644 -1.06718 0
M  V30 2073 H 197.046 -0.786455 -0.529332 0
M  V30 2074 H 196.752 -2.54581 -2.42654 0
M  V30 2075 H 196.626 -1.22008 -3.56923 0
M  V30 2076 H 199.013 -0.47708 -2.91218 0
M  V30 2077 H 199.094 -1.83567 -1.78148 0
M  V30 2078 H 198.738 -3.44857 -3.72876 0
M  V30 2079 H 198.668 -2.06222 -4.84541 0
M  V30 2080 H 201.159 -1.84278 -3.29924 0
M  V30 2081 H 201.472 -4.302 -6.41988 0
M  V30 2082 H 199.817 -3.86313 -5.77743 0
M  V30 2083 H 203.008 -2.35581 -4.04499 0
M  V30 2084 H 203.181 -3.47704 -5.46814 0
M  V30 2085 N 196.587 1.43421 -0.653314 0
M  V30 2086 C 197.833 2.02641 -0.175593 0
M  V30 2087 C 198.188 1.5062 1.19713 0
M  V30 2088 O 197.481 0.689697 1.78756 0
M  V30 2089 C 197.675 3.57176 -0.126623 0
M  V30 2090 C 197.504 4.24191 -1.49306 0
M  V30 2091 C 196.274 4.60257 -2.08547 0
M  V30 2092 C 198.472 4.53193 -2.43148 0
M  V30 2093 N 196.454 5.12345 -3.38194 0
M  V30 2094 C 197.825 5.06601 -3.57429 0
M  V30 2095 C 199.88 4.35161 -2.41949 0
M  V30 2096 C 198.583 5.43875 -4.70736 0
M  V30 2097 C 200.609 4.73498 -3.54336 0
M  V30 2098 C 199.971 5.27039 -4.67343 0
M  V30 2099 H 196.07 0.77441 -0.108686 0
M  V30 2100 H 198.654 1.74596 -0.861638 0
M  V30 2101 H 196.825 3.84784 0.528766 0
M  V30 2102 H 198.557 4.03078 0.36198 0
M  V30 2103 H 195.312 4.45302 -1.61255 0
M  V30 2104 H 195.736 5.42842 -4.04538 0
M  V30 2105 H 200.378 3.9304 -1.55818 0
M  V30 2106 H 198.096 5.8494 -5.57558 0
M  V30 2107 H 201.682 4.61241 -3.5461 0
M  V30 2108 H 200.562 5.56153 -5.52868 0
M  V30 2109 N 198.065 0.39524 1.52563 0
M  V30 2110 C 199.476 -0.0774719 1.86539 0
M  V30 2111 C 199.827 -1.45641 1.31466 0
M  V30 2112 O 198.952 -2.06459 0.648367 0
M  V30 2113 C 199.547 -0.147356 3.38479 0
M  V30 2114 C 198.106 -0.564373 3.72145 0
M  V30 2115 C 197.253 0.269919 2.75983 0
M  V30 2116 H 200.204 0.612876 1.46388 0
M  V30 2117 H 200.225 -0.965343 3.68051 0
M  V30 2118 H 199.737 0.856387 3.78534 0
M  V30 2119 H 197.838 -1.57527 3.37663 0
M  V30 2120 H 197.951 -0.318402 4.78041 0
M  V30 2121 H 196.315 -0.265696 2.5331 0
M  V30 2122 H 197.098 1.27175 3.18875 0
M  V30 2123 N 199.544 -1.57102 0.125237 0
M  V30 2124 C 200.821 -1.86953 -0.575142 0
M  V30 2125 C 201.201 -1.02749 -1.84407 0
M  V30 2126 O 200.549 -0.108144 -2.28244 0
M  V30 2127 C 200.759 -3.38198 -0.861583 0
M  V30 2128 C 202.107 -4.06937 -1.21192 0
M  V30 2129 O 203.131 -3.43252 -0.951645 0
M  V30 2130 O 201.99 -5.19364 -1.70068 0
M  V30 2131 H 199.084 -0.774147 -0.290906 0
M  V30 2132 H 201.63 -1.68942 0.160211 0
M  V30 2133 H 200.402 -3.91282 0.0373647 0
M  V30 2134 H 200.025 -3.61661 -1.65188 0
M  V30 2135 N 201.022 0.148545 -1.56898 0
M  V30 2136 C 201.952 1.18524 -2.01182 0
M  V30 2137 C 202.933 1.4489 -0.891123 0
M  V30 2138 O 204.118 1.55836 -1.15882 0
M  V30 2139 C 201.248 2.51879 -2.39112 0
M  V30 2140 C 200.202 2.40038 -3.54353 0
M  V30 2141 C 199.528 3.78089 -3.78091 0
M  V30 2142 C 200.828 1.88577 -4.87069 0
M  V30 2143 H 202.522 0.817029 -2.88036 0
M  V30 2144 H 200.068 0.391575 -1.38574 0
M  V30 2145 H 202.021 3.24627 -2.68692 0
M  V30 2146 H 200.745 2.90532 -1.49193 0
M  V30 2147 H 199.404 1.69742 -3.24936 0
M  V30 2148 H 199.052 4.14175 -2.85426 0
M  V30 2149 H 198.752 3.71028 -4.55645 0
M  V30 2150 H 200.276 4.52387 -4.10095 0
M  V30 2151 H 201.69 2.51117 -5.15377 0
M  V30 2152 H 200.087 1.9241 -5.68417 0
M  V30 2153 H 201.157 0.84136 -4.77545 0
M  V30 2154 N 202.5 1.5196 0.417844 0
M  V30 2155 C 203.45 1.7106 1.5074 0
M  V30 2156 C 204.434 0.564487 1.50673 0
M  V30 2157 O 205.626 0.821206 1.56797 0
M  V30 2158 C 202.755 1.85677 2.88754 0
M  V30 2159 C 201.841 3.06133 2.93502 0
M  V30 2160 N 202.232 4.28987 2.67962 0
M  V30 2161 C 200.53 3.05787 3.24669 0
M  V30 2162 C 201.231 5.10395 2.79055 0
M  V30 2163 N 200.207 4.45455 3.11561 0
M  V30 2164 H 204.009 2.63696 1.29775 0
M  V30 2165 H 201.523 1.49873 0.625436 0
M  V30 2166 H 203.52 1.97475 3.67164 0
M  V30 2167 H 202.18 0.942348 3.10725 0
M  V30 2168 H 203.191 4.57607 2.4252 0
M  V30 2169 H 199.868 2.2405 3.52289 0
M  V30 2170 H 201.258 6.18247 2.63097 0
M  V30 2171 N 203.978 -0.674533 1.42435 0
M  V30 2172 C 205.203 -1.46784 1.46524 0
M  V30 2173 C 205.628 -1.87938 0.078066 0
M  V30 2174 O 204.986 -1.56014 -0.92354 0
M  V30 2175 C 205.034 -2.69307 2.39805 0
M  V30 2176 O 204.138 -3.67587 1.86959 0
M  V30 2177 H 203.479 -0.440959 0.496439 0
M  V30 2178 H 206.009 -0.827326 1.87127 0
M  V30 2179 H 206.019 -3.17374 2.56393 0
M  V30 2180 H 204.694 -2.38692 3.40586 0
M  V30 2181 H 203.271 -3.2662 1.79927 0
M  V30 2182 N 205.456 -1.28612 -0.910864 0
M  V30 2183 C 206.406 -1.09423 -2.00026 0
M  V30 2184 C 207.39 -0.0170079 -1.60891 0
M  V30 2185 O 208.582 -0.237472 -1.754 0
M  V30 2186 C 205.711 -0.76114 -3.34756 0
M  V30 2187 C 204.797 -1.87735 -3.80285 0
M  V30 2188 N 205.188 -3.11938 -3.98156 0
M  V30 2189 C 203.486 -1.76786 -4.09467 0
M  V30 2190 C 204.187 -3.84687 -4.36338 0
M  V30 2191 N 203.163 -3.12555 -4.44759 0
M  V30 2192 H 206.965 -2.03658 -2.11898 0
M  V30 2193 H 204.479 -1.19573 -1.09891 0
M  V30 2194 H 206.476 -0.604743 -4.12491 0
M  V30 2195 H 205.136 0.173403 -3.24237 0
M  V30 2196 H 206.147 -3.47516 -3.83996 0
M  V30 2197 H 202.824 -0.905284 -4.07567 0
M  V30 2198 H 204.214 -4.91518 -4.58104 0
M  V30 2199 N 206.934 1.1197 -1.10907 0
M  V30 2200 C 207.884 2.15946 -0.731538 0
M  V30 2201 C 208.868 1.58758 0.261699 0
M  V30 2202 O 210.06 1.76863 0.0696722 0
M  V30 2203 C 207.189 3.42877 -0.170299 0
M  V30 2204 C 206.275 4.07037 -1.19087 0
M  V30 2205 N 206.666 4.46135 -2.38322 0
M  V30 2206 C 204.964 4.33884 -1.03252 0
M  V30 2207 C 205.665 4.96331 -3.03366 0
M  V30 2208 N 204.641 4.9214 -2.30865 0
M  V30 2209 H 208.443 2.43947 -1.63912 0
M  V30 2210 H 205.957 1.28927 -0.987505 0
M  V30 2211 H 207.954 4.16732 0.118271 0
M  V30 2212 H 206.614 3.16343 0.731935 0
M  V30 2213 H 207.625 4.38345 -2.75815 0
M  V30 2214 H 204.302 4.17084 -0.186256 0
M  V30 2215 H 205.692 5.36257 -4.04818 0
M  V30 2216 N 208.412 0.89855 1.29475 0
M  V30 2217 C 209.322 0.379974 2.31502 0
M  V30 2218 C 210.338 -0.524695 1.659 0
M  V30 2219 O 211.514 -0.414551 1.97087 0
M  V30 2220 C 208.579 -0.385138 3.44554 0
M  V30 2221 C 207.64 0.550914 4.2575 0
M  V30 2222 C 206.873 -0.177778 5.33404 0
M  V30 2223 O 207.096 -1.40189 5.52904 0
M  V30 2224 O 206.03 0.479106 5.9999 0
M  V30 2225 H 209.856 1.22639 2.77837 0
M  V30 2226 H 207.441 0.662834 1.33891 0
M  V30 2227 H 209.323 -0.817841 4.13388 0
M  V30 2228 H 207.998 -1.20763 3.0033 0
M  V30 2229 H 206.905 1.03271 3.59564 0
M  V30 2230 H 208.238 1.33979 4.73614 0
M  V30 2231 N 209.89 -1.43072 0.660911 0
M  V30 2232 C 210.82 -2.33497 -0.0122829 0
M  V30 2233 C 211.801 -1.49903 -0.803925 0
M  V30 2234 O 212.986 -1.78546 -0.763864 0
M  V30 2235 C 210.116 -3.33363 -0.973994 0
M  V30 2236 C 209.07 -4.27003 -0.291928 0
M  V30 2237 C 208.396 -5.16967 -1.36562 0
M  V30 2238 C 209.696 -5.15816 0.820462 0
M  V30 2239 H 211.39 -2.90038 0.742873 0
M  V30 2240 H 208.936 -1.39461 0.358688 0
M  V30 2241 H 210.889 -3.95524 -1.45392 0
M  V30 2242 H 209.613 -2.75095 -1.7604 0
M  V30 2243 H 208.272 -3.66217 0.167623 0
M  V30 2244 H 207.92 -4.55034 -2.14366 0
M  V30 2245 H 207.62 -5.80441 -0.914454 0
M  V30 2246 H 209.144 -5.82003 -1.84675 0
M  V30 2247 H 210.558 -5.71742 0.422366 0
M  V30 2248 H 208.955 -5.8805 1.19656 0
M  V30 2249 H 210.025 -4.55045 1.67518 0
M  V30 2250 N 211.368 -0.403325 -1.52352 0
M  V30 2251 C 212.315 0.425011 -2.26853 0
M  V30 2252 C 213.285 1.04598 -1.29029 0
M  V30 2253 O 214.47 1.07135 -1.57882 0
M  V30 2254 C 211.61 1.53888 -3.08889 0
M  V30 2255 C 210.723 0.939396 -4.21663 0
M  V30 2256 C 209.858 2.02547 -4.91068 0
M  V30 2257 C 208.897 1.40263 -5.95813 0
M  V30 2258 N 208.034 2.4286 -6.58759 0
M  V30 2259 H 212.874 -0.21674 -2.97211 0
M  V30 2260 H 210.411 -0.118722 -1.4662 0
M  V30 2261 H 212.369 2.19558 -3.54753 0
M  V30 2262 H 210.999 2.15074 -2.40714 0
M  V30 2263 H 210.051 0.171898 -3.80011 0
M  V30 2264 H 211.363 0.44436 -4.96817 0
M  V30 2265 H 210.517 2.75958 -5.40308 0
M  V30 2266 H 209.256 2.55415 -4.15469 0
M  V30 2267 H 208.261 0.653833 -5.45898 0
M  V30 2268 H 209.486 0.881719 -6.73352 0
M  V30 2269 H 207.432 2.94871 -5.85992 0
M  V30 2270 H 207.349 1.98152 -7.2957 0
M  V30 2271 H 208.617 3.15858 -7.12639 0
M  V30 2272 N 212.846 1.57033 -0.133567 0
M  V30 2273 C 213.809 2.14897 0.796995 0
M  V30 2274 C 214.809 1.0874 1.18458 0
M  V30 2275 O 215.999 1.34446 1.1077 0
M  V30 2276 C 213.131 2.70112 2.07973 0
M  V30 2277 H 214.324 2.98457 0.293873 0
M  V30 2278 H 211.877 1.55871 0.115787 0
M  V30 2279 H 212.612 1.9018 2.62682 0
M  V30 2280 H 212.397 3.47764 1.81115 0
M  V30 2281 H 213.887 3.14738 2.74462 0
M  V30 2282 N 214.325 -0.140222 1.56975 0
M  V30 2283 C 215.574 -0.850152 1.82908 0
M  V30 2284 C 215.887 -1.82028 0.715892 0
M  V30 2285 O 217.093 -2.57485 0.861016 0
M  V30 2286 C 215.549 -1.5625 3.24213 0
M  V30 2287 C 215.157 -0.63443 4.43485 0
M  V30 2288 C 216.901 -2.25881 3.59413 0
M  V30 2289 C 214.808 -1.34879 5.75814 0
M  V30 2290 H 213.738 -0.321221 0.682153 0
M  V30 2291 H 216.389 -0.102874 1.83211 0
M  V30 2292 H 214.771 -2.35565 3.18316 0
M  V30 2293 H 215.945 0.12398 4.60633 0
M  V30 2294 H 214.26 -0.0461836 4.16374 0
M  V30 2295 H 216.857 -2.79978 4.5554 0
M  V30 2296 H 217.2 -3.02693 2.85802 0
M  V30 2297 H 217.733 -1.53477 3.67001 0
M  V30 2298 H 214.472 -0.622385 6.52539 0
M  V30 2299 H 213.992 -2.07974 5.6259 0
M  V30 2300 H 215.671 -1.88784 6.18845 0
M  V30 2301 N 215.803 -1.52179 -0.40978 0
M  V30 2302 C 216.713 -1.78364 -1.52392 0
M  V30 2303 C 217.729 -0.669183 -1.60617 0
M  V30 2304 O 218.905 -0.954518 -1.77344 0
M  V30 2305 C 215.97 -1.92822 -2.88133 0
M  V30 2306 C 215.031 -3.16725 -2.898 0
M  V30 2307 C 214.264 -3.30483 -4.19067 0
M  V30 2308 O 214.487 -2.49522 -5.12928 0
M  V30 2309 O 213.421 -4.2363 -4.27576 0
M  V30 2310 H 217.247 -2.72931 -1.33201 0
M  V30 2311 H 214.832 -1.37016 -0.59557 0
M  V30 2312 H 216.714 -2.04157 -3.68643 0
M  V30 2313 H 215.389 -1.01444 -3.07393 0
M  V30 2314 H 214.296 -3.10848 -2.08146 0
M  V30 2315 H 215.629 -4.07881 -2.75489 0
M  V30 2316 N 217.281 0.66697 -1.42791 0
M  V30 2317 C 218.229 1.80157 -1.47127 0
M  V30 2318 C 219.223 1.65825 -0.346199 0
M  V30 2319 O 220.429 1.72338 -0.519572 0
M  V30 2320 H 216.804 0.594158 -0.460956 0
M  V30 2321 H 218.775 1.73619 -2.42692 0
M  V30 2322 C 217.524 3.18351 -1.39813 0
M  V30 2323 H 216.847 3.3001 -2.25684 0
M  V30 2324 H 218.287 3.97736 -1.46908 0
M  V30 2325 C 216.746 3.36707 -0.11391 0
M  V30 2326 O 217.276 3.93027 0.830241 0
M  V30 2327 N 215.482 2.90586 -0.0285295 0
M  V30 2328 H 215.029 2.4494 -0.79764 0
M  V30 2329 H 214.987 3.03245 0.830063 0
M  V30 2330 N 218.759 1.29093 0.90403 0
M  V30 2331 C 219.999 1.18076 1.66845 0
M  V30 2332 C 220.363 -0.26436 1.90171 0
M  V30 2333 O 221.564 -0.497423 2.64157 0
M  V30 2334 C 219.835 1.96722 2.98388 0
M  V30 2335 S 221.394 2.0219 3.89441 0
M  V30 2336 H 218.212 0.421104 0.572881 0
M  V30 2337 H 220.814 1.63322 1.07453 0
M  V30 2338 H 219.518 3.00866 2.7912 0
M  V30 2339 H 219.049 1.52064 3.62823 0
M  V30 2340 H 221.064 1.13545 4.83034 0
M  V30 2341 N 220.237 -1.11381 1.11499 0
M  V30 2342 C 221.147 -2.21019 0.786628 0
M  V30 2343 C 222.163 -1.72597 -0.220507 0
M  V30 2344 O 223.339 -2.01321 -0.0565251 0
M  V30 2345 C 220.404 -3.459 0.235333 0
M  V30 2346 C 219.465 -4.09107 1.30115 0
M  V30 2347 C 218.698 -5.28027 0.776068 0
M  V30 2348 O 218.921 -5.6904 -0.393661 0
M  V30 2349 O 217.855 -5.81835 1.54114 0
M  V30 2350 H 221.681 -2.51521 1.70209 0
M  V30 2351 H 219.266 -1.19928 0.890928 0
M  V30 2352 H 221.148 -4.21346 -0.067715 0
M  V30 2353 H 219.823 -3.17049 -0.652828 0
M  V30 2354 H 218.73 -3.35391 1.65722 0
M  V30 2355 H 220.063 -4.42139 2.16273 0
M  V30 2356 N 221.715 -0.905404 -1.28997 0
M  V30 2357 C 222.945 -0.549049 -1.99171 0
M  V30 2358 C 223.353 0.87203 -1.67906 0
M  V30 2359 O 222.696 1.58796 -0.923561 0
M  V30 2360 C 222.758 -0.668306 -3.53234 0
M  V30 2361 C 222.422 -2.0574 -4.08069 0
M  V30 2362 C 223.419 -3.0292 -4.22534 0
M  V30 2363 C 221.104 -2.36833 -4.42962 0
M  V30 2364 C 223.098 -4.29314 -4.71135 0
M  V30 2365 C 220.785 -3.63467 -4.91258 0
M  V30 2366 C 221.783 -4.59522 -5.053 0
M  V30 2367 O 221.471 -5.83907 -5.52546 0
M  V30 2368 H 221.203 -0.208784 -0.64295 0
M  V30 2369 H 223.757 -1.21836 -1.65363 0
M  V30 2370 H 221.987 0.0580547 -3.86656 0
M  V30 2371 H 223.676 -0.320273 -4.04634 0
M  V30 2372 H 224.442 -2.80216 -3.95859 0
M  V30 2373 H 220.321 -1.62824 -4.31288 0
M  V30 2374 H 223.865 -5.04293 -4.8201 0
M  V30 2375 H 219.762 -3.86 -5.17372 0
M  V30 2376 H 220.53 -5.86578 -5.70849 0
M  V30 2377 N 223.193 1.4272 -0.668489 0
M  V30 2378 C 224.156 2.292 0.00448567 0
M  V30 2379 C 225.156 1.43001 0.735339 0
M  V30 2380 O 226.346 1.64461 0.57429 0
M  V30 2381 C 223.478 3.25375 1.01705 0
M  V30 2382 H 224.671 2.90199 -0.756608 0
M  V30 2383 H 222.224 1.50254 -0.430506 0
M  V30 2384 H 222.959 2.69301 1.80686 0
M  V30 2385 H 222.744 3.88944 0.496463 0
M  V30 2386 H 224.234 3.90245 1.48655 0
M  V30 2387 N 224.671 0.411399 1.52136 0
M  V30 2388 C 225.918 -0.163645 2.01838 0
M  V30 2389 C 226.246 -1.4495 1.29691 0
M  V30 2390 O 225.501 -1.91725 0.392431 0
M  V30 2391 C 225.8 -0.455872 3.54481 0
M  V30 2392 C 225.466 0.741055 4.44769 0
M  V30 2393 C 224.128 1.06936 4.69167 0
M  V30 2394 C 226.48 1.54075 4.97906 0
M  V30 2395 C 223.808 2.19851 5.43951 0
M  V30 2396 C 226.16 2.66067 5.73926 0
M  V30 2397 C 224.824 2.99381 5.96596 0
M  V30 2398 H 224.094 -0.0598821 0.738576 0
M  V30 2399 H 226.741 0.553283 1.83333 0
M  V30 2400 H 225.046 -1.2544 3.71177 0
M  V30 2401 H 226.743 -0.913802 3.90449 0
M  V30 2402 H 223.333 0.475192 4.25958 0
M  V30 2403 H 227.517 1.30033 4.78963 0
M  V30 2404 H 222.773 2.46006 5.59724 0
M  V30 2405 H 226.947 3.28419 6.14096 0
M  V30 2406 H 224.574 3.86992 6.54325 0
M  V30 2407 N 226.149 -1.5696 0.141893 0
M  V30 2408 C 227.097 -2.17784 -0.816874 0
M  V30 2409 C 228.091 -1.1334 -1.25899 0
M  V30 2410 O 229.297 -1.316 -1.22806 0
M  V30 2411 H 225.672 -0.697278 -0.281615 0
M  V30 2412 H 227.643 -2.97087 -0.279621 0
M  V30 2413 C 226.392 -2.80983 -2.04802 0
M  V30 2414 H 225.715 -3.61062 -1.7168 0
M  V30 2415 H 227.155 -3.2705 -2.69841 0
M  V30 2416 C 225.614 -1.79228 -2.8527 0
M  V30 2417 O 226.144 -1.25962 -3.8144 0
M  V30 2418 N 224.35 -1.48647 -2.49704 0
M  V30 2419 H 223.897 -1.92155 -1.71564 0
M  V30 2420 H 223.855 -0.808115 -3.03837 0
M  V30 2421 N 227.627 0.131896 -1.57047 0
M  V30 2422 C 228.557 1.16384 -2.02428 0
M  V30 2423 C 229.538 1.43936 -0.90644 0
M  V30 2424 O 230.723 1.54599 -1.17528 0
M  V30 2425 C 227.853 2.49328 -2.4177 0
M  V30 2426 C 226.807 2.36266 -3.56879 0
M  V30 2427 C 226.133 3.74057 -3.8208 0
M  V30 2428 C 227.433 1.834 -4.89042 0
M  V30 2429 H 229.127 0.786433 -2.88887 0
M  V30 2430 H 226.673 0.376855 -1.38981 0
M  V30 2431 H 228.626 3.21759 -2.7212 0
M  V30 2432 H 227.35 2.88934 -1.52266 0
M  V30 2433 H 226.009 1.66286 -3.26718 0
M  V30 2434 H 225.657 4.11125 -2.89803 0
M  V30 2435 H 225.357 3.66174 -4.59554 0
M  V30 2436 H 226.881 4.48012 -4.1487 0
M  V30 2437 H 228.295 2.45636 -5.18011 0
M  V30 2438 H 226.692 1.8637 -5.70426 0
M  V30 2439 H 227.762 0.790662 -4.7841 0
M  V30 2440 N 229.106 1.52395 0.401703 0
M  V30 2441 C 230.053 1.76268 1.48991 0
M  V30 2442 C 231.023 0.605386 1.54675 0
M  V30 2443 O 232.208 0.843742 1.7113 0
M  V30 2444 C 229.348 1.92592 2.86361 0
M  V30 2445 C 228.461 3.20259 2.89928 0
M  V30 2446 C 227.596 3.26972 4.18644 0
M  V30 2447 C 226.635 4.48812 4.16214 0
M  V30 2448 N 225.772 4.52877 5.36514 0
M  V30 2449 H 230.612 2.6914 1.27935 0
M  V30 2450 H 228.149 1.33355 0.620871 0
M  V30 2451 H 230.107 2.0004 3.66115 0
M  V30 2452 H 228.737 1.03093 3.05895 0
M  V30 2453 H 227.789 3.21945 2.02621 0
M  V30 2454 H 229.101 4.10056 2.83999 0
M  V30 2455 H 228.255 3.33533 5.06794 0
M  V30 2456 H 226.994 2.35126 4.27278 0
M  V30 2457 H 225.999 4.4239 3.26453 0
M  V30 2458 H 227.224 5.41961 4.09213 0
M  V30 2459 H 225.17 3.63917 5.45802 0
M  V30 2460 H 225.087 5.36529 5.32609 0
M  V30 2461 H 226.355 4.63676 6.26597 0
M  V30 2462 N 230.584 -0.659388 1.43143 0
M  V30 2463 C 231.531 -1.77249 1.47822 0
M  V30 2464 C 232.501 -1.62818 0.328558 0
M  V30 2465 O 233.686 -1.83151 0.534838 0
M  V30 2466 C 230.826 -3.15371 1.40126 0
M  V30 2467 C 229.939 -3.4098 2.65249 0
M  V30 2468 C 229.074 -4.68915 2.49584 0
M  V30 2469 C 228.113 -4.87608 3.70006 0
M  V30 2470 N 227.25 -6.06796 3.53189 0
M  V30 2471 H 232.09 -1.72584 2.42938 0
M  V30 2472 H 229.627 -0.842297 1.20598 0
M  V30 2473 H 231.585 -3.9521 1.33659 0
M  V30 2474 H 230.215 -3.19121 0.485964 0
M  V30 2475 H 229.267 -2.55282 2.8202 0
M  V30 2476 H 230.579 -3.50681 3.54717 0
M  V30 2477 H 229.733 -5.56871 2.4079 0
M  V30 2478 H 228.472 -4.61524 1.5763 0
M  V30 2479 H 227.477 -3.9809 3.79215 0
M  V30 2480 H 228.702 -4.96834 4.62961 0
M  V30 2481 H 226.648 -6.00549 2.63965 0
M  V30 2482 H 226.565 -6.17428 4.36255 0
M  V30 2483 H 227.833 -6.9739 3.48236 0
M  V30 2484 N 232.062 -1.29571 -0.897171 0
M  V30 2485 C 233.339 -1.08365 -1.62839 0
M  V30 2486 C 233.719 0.371331 -2.07808 0
M  V30 2487 O 233.067 1.3606 -1.83576 0
M  V30 2488 C 233.277 -2.0735 -2.80726 0
M  V30 2489 C 234.625 -2.38406 -3.51351 0
M  V30 2490 O 235.649 -2.05564 -2.90898 0
M  V30 2491 O 234.508 -2.9453 -4.60341 0
M  V30 2492 H 231.602 -0.415345 -0.715134 0
M  V30 2493 H 234.148 -1.40952 -0.945018 0
M  V30 2494 H 232.92 -3.05339 -2.44711 0
M  V30 2495 H 232.543 -1.75507 -3.56767 0
M  V30 2496 N 233.54 1.10788 -1.12088 0
M  V30 2497 C 234.45 2.20599 -0.798338 0
M  V30 2498 C 235.466 1.72712 0.21135 0
M  V30 2499 O 236.642 2.01348 0.0458477 0
M  V30 2500 C 233.707 3.45771 -0.253674 0
M  V30 2501 C 232.768 4.08411 -1.32283 0
M  V30 2502 C 232.001 5.27608 -0.80406 0
M  V30 2503 O 232.224 5.69241 0.363478 0
M  V30 2504 O 231.158 5.8101 -1.57198 0
M  V30 2505 H 234.984 2.50614 -1.7154 0
M  V30 2506 H 232.569 1.19454 -0.897275 0
M  V30 2507 H 234.451 4.21376 0.0453691 0
M  V30 2508 H 233.126 3.1739 0.636005 0
M  V30 2509 H 232.033 3.34507 -1.67499 0
M  V30 2510 H 233.366 4.40986 -2.18614 0
M  V30 2511 N 235.018 0.912232 1.28515 0
M  V30 2512 C 236.264 0.545405 1.95328 0
M  V30 2513 C 236.597 -0.908313 1.71649 0
M  V30 2514 O 235.872 -1.64575 1.03659 0
M  V30 2515 C 236.155 0.853483 3.4984 0
M  V30 2516 C 236.008 2.35982 3.82926 0
M  V30 2517 C 237.327 0.348589 4.38717 0
M  V30 2518 H 234.446 0.199626 0.709449 0
M  V30 2519 H 237.088 1.1412 1.5191 0
M  V30 2520 H 235.238 0.34643 3.86952 0
M  V30 2521 H 236.91 2.93738 3.55691 0
M  V30 2522 H 235.153 2.81543 3.30024 0
M  V30 2523 H 235.824 2.52593 4.90816 0
M  V30 2524 H 238.3 0.78294 4.08668 0
M  V30 2525 H 237.176 0.593242 5.45685 0
M  V30 2526 H 237.437 -0.751049 4.35674 0
M  V30 2527 N 236.496 -1.42363 0.676048 0
M  V30 2528 C 237.736 -2.03392 0.20273 0
M  V30 2529 C 238.1 -1.52306 -1.16906 0
M  V30 2530 O 239.301 -2.05129 -1.73711 0
M  V30 2531 C 237.572 -3.56614 0.236947 0
M  V30 2532 S 239.131 -4.38489 -0.165186 0
M  V30 2533 H 235.949 -0.70611 0.0832418 0
M  V30 2534 H 238.551 -1.74093 0.88948 0
M  V30 2535 H 237.255 -3.91293 1.23767 0
M  V30 2536 H 236.786 -3.90587 -0.469596 0
M  V30 2537 H 238.801 -4.76093 -1.39822 0
M  V30 2538 N 237.974 -0.419461 -1.51915 0
M  V30 2539 C 239.22 0.153166 -2.02221 0
M  V30 2540 C 239.553 1.43907 -1.30401 0
M  V30 2541 O 238.828 1.90055 -0.413438 0
M  V30 2542 C 239.111 0.390291 -3.57979 0
M  V30 2543 C 238.964 -0.913014 -4.40436 0
M  V30 2544 C 240.283 1.16794 -4.2432 0
M  V30 2545 H 237.402 0.0541924 -0.735005 0
M  V30 2546 H 240.044 -0.554955 -1.81715 0
M  V30 2547 H 238.194 0.993491 -3.75582 0
M  V30 2548 H 239.866 -1.54882 -4.34522 0
M  V30 2549 H 238.109 -1.52168 -4.06236 0
M  V30 2550 H 238.78 -0.701361 -5.47526 0
M  V30 2551 H 241.256 0.657161 -4.10878 0
M  V30 2552 H 240.132 1.3026 -5.3322 0
M  V30 2553 H 240.393 2.19132 -3.83971 0
M  V30 2554 N 239.452 1.56882 -0.150215 0
M  V30 2555 C 240.4 2.18214 0.805313 0
M  V30 2556 C 241.394 1.14006 1.25296 0
M  V30 2557 O 242.6 1.3225 1.22107 0
M  V30 2558 H 238.975 0.698762 0.277913 0
M  V30 2559 H 240.946 2.97231 0.263862 0
M  V30 2560 C 239.695 2.82065 2.03309 0
M  V30 2561 H 239.018 3.61968 1.69763 0
M  V30 2562 H 240.458 3.28477 2.68103 0
M  V30 2563 C 238.917 1.80739 2.84315 0
M  V30 2564 O 239.447 1.27983 3.80767 0
M  V30 2565 N 237.653 1.4997 2.48913 0
M  V30 2566 H 237.2 1.93062 1.70542 0
M  V30 2567 H 237.158 0.824217 3.03404 0
M  V30 2568 N 240.93 -0.123565 1.57115 0
M  V30 2569 C 242.341 -0.681198 1.73829 0
M  V30 2570 C 242.692 -1.80535 0.768214 0
M  V30 2571 O 241.817 -2.16317 -0.0599103 0
M  V30 2572 C 242.412 -1.24246 3.15196 0
M  V30 2573 C 240.971 -1.74643 3.33432 0
M  V30 2574 C 240.118 -0.644284 2.69711 0
M  V30 2575 H 243.069 0.102315 1.5837 0
M  V30 2576 H 243.09 -2.11216 3.16493 0
M  V30 2577 H 242.602 -0.424062 3.85776 0
M  V30 2578 H 240.703 -2.58974 2.67886 0
M  V30 2579 H 240.816 -1.85902 4.41562 0
M  V30 2580 H 239.18 -1.07676 2.3082 0
M  V30 2581 H 239.963 0.163058 3.42913 0
M  V30 2582 N 242.408 -1.52605 -0.393616 0
M  V30 2583 C 243.638 -1.71046 -1.15874 0
M  V30 2584 C 244.046 -0.426483 -1.84331 0
M  V30 2585 O 243.389 0.608513 -1.73329 0
M  V30 2586 C 243.451 -2.80118 -2.25332 0
M  V30 2587 C 243.115 -4.21381 -1.76881 0
M  V30 2588 C 244.112 -5.04697 -1.24808 0
M  V30 2589 C 241.797 -4.67683 -1.83244 0
M  V30 2590 C 243.791 -6.32393 -0.797387 0
M  V30 2591 C 241.478 -5.95364 -1.37787 0
M  V30 2592 C 242.476 -6.77549 -0.861208 0
M  V30 2593 O 242.164 -8.02837 -0.413252 0
M  V30 2594 H 241.896 -0.576155 -0.353583 0
M  V30 2595 H 244.45 -2.00018 -0.467123 0
M  V30 2596 H 242.68 -2.46557 -2.97904 0
M  V30 2597 H 244.369 -2.87006 -2.87023 0
M  V30 2598 H 245.135 -4.70111 -1.19252 0
M  V30 2599 H 241.014 -4.03805 -2.22401 0
M  V30 2600 H 244.558 -6.9649 -0.393437 0
M  V30 2601 H 240.455 -6.29455 -1.43026 0
M  V30 2602 H 241.223 -8.16749 -0.53515 0
M  V30 2603 N 243.887 0.651787 -1.4349 0
M  V30 2604 C 244.837 1.75783 -1.45205 0
M  V30 2605 C 245.821 1.57679 -0.320328 0
M  V30 2606 O 247.013 1.67767 -0.564211 0
M  V30 2607 C 244.142 3.14377 -1.3792 0
M  V30 2608 C 243.228 3.38023 -2.56127 0
M  V30 2609 N 243.619 3.32135 -3.81471 0
M  V30 2610 C 241.917 3.68747 -2.50882 0
M  V30 2611 C 242.618 3.55902 -4.60118 0
M  V30 2612 N 241.594 3.77783 -3.90872 0
M  V30 2613 H 245.396 1.69657 -2.39987 0
M  V30 2614 H 242.91 0.853508 -1.38163 0
M  V30 2615 H 244.907 3.93666 -1.37231 0
M  V30 2616 H 243.567 3.21683 -0.441596 0
M  V30 2617 H 244.578 3.11515 -4.13738 0
M  V30 2618 H 241.255 3.8316 -1.65816 0
M  V30 2619 H 242.645 3.57116 -5.69138 0
M  V30 2620 N 245.365 1.30045 0.890287 0
M  V30 2621 C 246.595 1.21296 1.67245 0
M  V30 2622 C 247.003 -0.227471 1.87828 0
M  V30 2623 O 246.346 -1.16296 1.422 0
M  V30 2624 C 246.408 1.86519 3.07329 0
M  V30 2625 C 246.072 3.35837 3.09939 0
M  V30 2626 C 247.069 4.31915 2.89389 0
M  V30 2627 C 244.754 3.77196 3.31706 0
M  V30 2628 C 246.748 5.67325 2.90552 0
M  V30 2629 C 244.435 5.12725 3.32499 0
M  V30 2630 C 245.433 6.076 3.11947 0
M  V30 2631 O 245.121 7.40655 3.12547 0
M  V30 2632 H 244.853 0.4211 0.528821 0
M  V30 2633 H 247.407 1.72111 1.12103 0
M  V30 2634 H 245.637 1.30228 3.64112 0
M  V30 2635 H 247.326 1.71963 3.67673 0
M  V30 2636 H 248.092 4.01294 2.72375 0
M  V30 2637 H 243.971 3.03796 3.4674 0
M  V30 2638 H 247.515 6.41354 2.74429 0
M  V30 2639 H 243.412 5.42988 3.49047 0
M  V30 2640 H 244.18 7.49577 3.28749 0
M  V30 2641 N 246.843 -1.10192 1.12674 0
M  V30 2642 C 247.775 -2.16418 0.754701 0
M  V30 2643 C 248.788 -1.61309 -0.21986 0
M  V30 2644 O 249.977 -1.785 -0.000826841 0
M  V30 2645 C 247.077 -3.38762 0.096698 0
M  V30 2646 C 246.25 -4.23307 1.10136 0
M  V30 2647 C 245.309 -5.24092 0.470513 0
M  V30 2648 O 244.335 -5.57906 1.12824 0
M  V30 2649 N 245.537 -5.75491 -0.760948 0
M  V30 2650 H 248.302 -2.48943 1.66875 0
M  V30 2651 H 245.863 -1.25834 1.01869 0
M  V30 2652 H 247.855 -4.03291 -0.337384 0
M  V30 2653 H 246.425 -3.04192 -0.720153 0
M  V30 2654 H 245.645 -3.55036 1.71299 0
M  V30 2655 H 246.933 -4.76624 1.78064 0
M  V30 2656 H 246.331 -5.50222 -1.31424 0
M  V30 2657 H 244.888 -6.41792 -1.13781 0
M  V30 2658 N 248.321 -0.919034 -1.28029 0
M  V30 2659 C 249.737 -0.617972 -1.4715 0
M  V30 2660 C 249.937 0.835242 -1.83374 0
M  V30 2661 O 248.993 1.61388 -1.94191 0
M  V30 2662 C 250.306 -1.56041 -2.57044 0
M  V30 2663 C 251.854 -1.56769 -2.7091 0
M  V30 2664 C 252.329 -2.49688 -3.83953 0
M  V30 2665 N 253.82 -2.47845 -3.91314 0
M  V30 2666 C 254.555 -3.16437 -4.78179 0
M  V30 2667 N 254.051 -3.94376 -5.69596 0
M  V30 2668 N 255.844 -3.05498 -4.71834 0
M  V30 2669 H 247.995 -1.85866 -1.02798 0
M  V30 2670 H 250.258 -0.797506 -0.512531 0
M  V30 2671 H 249.964 -2.59671 -2.372 0
M  V30 2672 H 249.838 -1.29551 -3.54255 0
M  V30 2673 H 252.225 -0.538745 -2.90141 0
M  V30 2674 H 252.306 -1.87305 -1.74214 0
M  V30 2675 H 251.95 -3.52688 -3.65477 0
M  V30 2676 H 251.88 -2.16453 -4.80058 0
M  V30 2677 H 254.371 -1.91234 -3.25941 0
M  V30 2678 H 254.684 -4.43721 -6.32718 0
M  V30 2679 H 253.029 -3.98481 -5.69419 0
M  V30 2680 H 256.22 -2.44108 -3.99411 0
M  V30 2681 H 256.393 -3.59225 -5.39316 0
M  V30 2682 N 249.799 1.42003 -0.683588 0
M  V30 2683 C 251.045 2.01712 -0.209825 0
M  V30 2684 C 251.378 1.53968 1.18353 0
M  V30 2685 O 250.653 0.745661 1.79639 0
M  V30 2686 C 250.936 3.59202 -0.254197 0
M  V30 2687 C 250.789 4.17102 -1.68363 0
M  V30 2688 C 252.108 4.38344 0.392709 0
M  V30 2689 H 249.227 0.732891 -0.0777189 0
M  V30 2690 H 251.869 1.68909 -0.87004 0
M  V30 2691 H 250.019 3.87278 0.307954 0
M  V30 2692 H 251.691 3.99946 -2.29871 0
M  V30 2693 H 249.934 3.72597 -2.22157 0
M  V30 2694 H 250.605 5.26249 -1.6663 0
M  V30 2695 H 253.081 4.16011 -0.0859162 0
M  V30 2696 H 251.957 5.47901 0.331063 0
M  V30 2697 H 252.218 4.16887 1.47164 0
M  V30 2698 N 251.277 0.427512 1.51691 0
M  V30 2699 C 252.187 -0.39527 2.31246 0
M  V30 2700 C 253.203 -1.03674 1.39742 0
M  V30 2701 O 254.379 -1.03425 1.72816 0
M  V30 2702 C 251.444 -1.48706 3.13189 0
M  V30 2703 C 250.505 -0.866743 4.20459 0
M  V30 2704 C 249.738 -1.90651 4.98486 0
M  V30 2705 O 249.961 -3.12733 4.77026 0
M  V30 2706 O 248.895 -1.5025 5.82845 0
M  V30 2707 H 252.721 0.253918 3.02637 0
M  V30 2708 H 250.306 0.190274 1.48183 0
M  V30 2709 H 252.188 -2.12047 3.64162 0
M  V30 2710 H 250.863 -2.12051 2.44573 0
M  V30 2711 H 249.77 -0.195544 3.73589 0
M  V30 2712 H 251.103 -0.276934 4.9142 0
M  V30 2713 N 252.755 -1.56801 0.158532 0
M  V30 2714 C 253.983 -2.00859 -0.496303 0
M  V30 2715 C 254.398 -1.03871 -1.57659 0
M  V30 2716 O 253.755 -0.0375165 -1.82461 0
M  V30 2717 C 253.806 -3.4479 -1.08638 0
M  V30 2718 O 253.527 -4.38072 -0.0492322 0
M  V30 2719 C 255.028 -4.04185 -1.8207 0
M  V30 2720 H 252.248 -0.65864 -0.128199 0
M  V30 2721 H 254.792 -2.02885 0.256506 0
M  V30 2722 H 252.947 -3.43579 -1.78975 0
M  V30 2723 H 253.361 -5.2227 -0.483102 0
M  V30 2724 H 254.835 -5.06857 -2.18633 0
M  V30 2725 H 255.312 -3.45549 -2.71095 0
M  V30 2726 H 255.918 -4.0906 -1.16405 0
M  V30 2727 N 254.233 0.115231 -1.57178 0
M  V30 2728 C 255.644 0.67197 -1.74188 0
M  V30 2729 C 255.995 1.80125 -0.777777 0
M  V30 2730 O 255.12 2.16346 0.0484376 0
M  V30 2731 C 255.715 1.22573 -3.1585 0
M  V30 2732 C 254.274 1.72872 -3.34353 0
M  V30 2733 C 253.421 0.629972 -2.70049 0
M  V30 2734 H 256.372 -0.110712 -1.58313 0
M  V30 2735 H 256.393 2.09535 -3.17609 0
M  V30 2736 H 255.905 0.403598 -3.85996 0
M  V30 2737 H 254.006 2.5755 -2.69256 0
M  V30 2738 H 254.119 1.83557 -4.42542 0
M  V30 2739 H 252.483 1.0645 -2.31388 0
M  V30 2740 H 253.266 -0.181241 -3.42821 0
M  V30 2741 N 255.711 1.52812 0.385517 0
M  V30 2742 C 256.957 1.68275 1.13188 0
M  V30 2743 C 257.29 0.423179 1.89533 0
M  V30 2744 O 256.565 -0.579113 1.85679 0
M  V30 2745 C 256.848 2.92001 2.1073 0
M  V30 2746 C 256.701 4.28067 1.38125 0
M  V30 2747 C 258.02 3.11283 3.11113 0
M  V30 2748 H 255.139 0.612352 0.410115 0
M  V30 2749 H 257.781 1.85415 0.414869 0
M  V30 2750 H 255.931 2.77519 2.71874 0
M  V30 2751 H 257.603 4.54324 0.799187 0
M  V30 2752 H 255.846 4.28388 0.683092 0
M  V30 2753 H 256.517 5.10733 2.09417 0
M  V30 2754 H 258.993 3.2482 2.6006 0
M  V30 2755 H 257.869 3.99325 3.76605 0
M  V30 2756 H 258.13 2.25656 3.80173 0
M  V30 2757 N 257.189 -0.644168 1.43834 0
M  V30 2758 C 258.119 -1.76814 1.52509 0
M  V30 2759 C 259.1 -1.65823 0.379052 0
M  V30 2760 O 260.285 -1.84781 0.597466 0
M  V30 2761 C 257.415 -3.15288 1.4564 0
M  V30 2762 C 256.369 -3.41053 2.58586 0
M  V30 2763 C 255.695 -4.79421 2.36769 0
M  V30 2764 C 256.995 -3.34902 4.00797 0
M  V30 2765 H 258.689 -1.69812 2.46586 0
M  V30 2766 H 256.235 -0.815542 1.1868 0
M  V30 2767 H 258.188 -3.93681 1.50311 0
M  V30 2768 H 256.912 -3.23043 0.480725 0
M  V30 2769 H 255.571 -2.65035 2.53282 0
M  V30 2770 H 255.219 -4.83863 1.37424 0
M  V30 2771 H 254.919 -4.9762 3.12487 0
M  V30 2772 H 256.443 -5.6006 2.43238 0
M  V30 2773 H 257.857 -4.03218 4.07539 0
M  V30 2774 H 256.254 -3.64637 4.76613 0
M  V30 2775 H 257.324 -2.32928 4.25291 0
M  V30 2776 N 258.668 -1.30515 -0.883378 0
M  V30 2777 C 260.079 -1.17509 -1.45081 0
M  V30 2778 C 260.43 0.223605 -1.94922 0
M  V30 2779 O 259.555 1.12041 -1.85137 0
M  V30 2780 C 260.15 -2.12715 -2.63701 0
M  V30 2781 C 258.709 -2.03682 -3.16529 0
M  V30 2782 C 257.856 -2.02706 -1.89224 0
M  V30 2783 H 260.807 -1.42762 -0.693165 0
M  V30 2784 H 260.828 -1.70891 -3.39965 0
M  V30 2785 H 260.34 -3.14505 -2.27395 0
M  V30 2786 H 258.441 -1.05039 -3.57488 0
M  V30 2787 H 258.554 -2.92146 -3.7972 0
M  V30 2788 H 256.918 -1.4753 -2.07622 0
M  V30 2789 H 257.701 -3.06229 -1.55174 0
M  V30 2790 N 260.146 1.09593 -1.13257 0
M  V30 2791 C 261.557 1.63229 -0.906274 0
M  V30 2792 C 261.908 1.8811 0.557578 0
M  V30 2793 O 261.033 1.62953 1.42391 0
M  V30 2794 C 261.628 2.96535 -1.63867 0
M  V30 2795 C 260.187 3.47003 -1.45828 0
M  V30 2796 C 259.334 2.2145 -1.66898 0
M  V30 2797 H 262.285 0.92978 -1.28611 0
M  V30 2798 H 262.306 3.64411 -1.09476 0
M  V30 2799 H 261.818 2.78394 -2.70404 0
M  V30 2800 H 259.919 3.70272 -0.415848 0
M  V30 2801 H 260.032 4.24551 -2.2202 0
M  V30 2802 H 258.396 2.30022 -1.09371 0
M  V30 2803 H 259.179 2.0583 -2.74752 0
M  V30 2804 N 261.624 0.925811 1.2754 0
M  V30 2805 C 262.87 0.566092 1.94739 0
M  V30 2806 C 263.203 -0.890057 1.72603 0
M  V30 2807 O 262.478 -1.63467 1.05399 0
M  V30 2808 C 262.761 0.89054 3.48915 0
M  V30 2809 C 262.614 2.4003 3.80402 0
M  V30 2810 C 263.933 0.395101 4.38323 0
M  V30 2811 H 261.052 0.20714 0.707292 0
M  V30 2812 H 263.694 1.15725 1.50691 0
M  V30 2813 H 261.844 0.387452 3.86563 0
M  V30 2814 H 263.516 2.97494 3.52555 0
M  V30 2815 H 261.759 2.85028 3.2702 0
M  V30 2816 H 262.43 2.57785 4.8811 0
M  V30 2817 H 264.906 0.826241 4.07814 0
M  V30 2818 H 263.782 0.651086 5.45025 0
M  V30 2819 H 264.043 -0.704798 4.36446 0
M  V30 2820 N 263.102 -1.41638 0.69111 0
M  V30 2821 C 264.032 -2.3347 0.037248 0
M  V30 2822 C 265.013 -1.51575 -0.771947 0
M  V30 2823 O 266.198 -1.80126 -0.72582 0
M  V30 2824 C 263.328 -3.35354 -0.903064 0
M  V30 2825 C 262.282 -4.27526 -0.201288 0
M  V30 2826 C 261.608 -5.19747 -1.25565 0
M  V30 2827 C 262.908 -5.13959 0.929689 0
M  V30 2828 H 264.602 -2.88397 0.804227 0
M  V30 2829 H 262.148 -1.38669 0.388189 0
M  V30 2830 H 264.101 -3.98519 -1.36969 0
M  V30 2831 H 262.825 -2.78767 -1.70166 0
M  V30 2832 H 261.484 -3.65779 0.245265 0
M  V30 2833 H 261.132 -4.59479 -2.04666 0
M  V30 2834 H 260.832 -5.8225 -0.791128 0
M  V30 2835 H 262.356 -5.85789 -1.72288 0
M  V30 2836 H 263.77 -5.70718 0.543546 0
M  V30 2837 H 262.167 -5.85379 1.32103 0
M  V30 2838 H 263.237 -4.51389 1.77133 0
M  V30 2839 N 264.58 -0.43555 -1.51462 0
M  V30 2840 C 265.826 0.131709 -2.02372 0
M  V30 2841 C 266.159 1.42516 -1.3192 0
M  V30 2842 O 265.434 1.89606 -0.433573 0
M  V30 2843 C 265.717 0.352301 -3.58373 0
M  V30 2844 C 265.57 -0.959676 -4.39443 0
M  V30 2845 C 266.889 1.12286 -4.25535 0
M  V30 2846 H 264.008 0.0463936 -0.735538 0
M  V30 2847 H 266.65 -0.574197 -1.81116 0
M  V30 2848 H 264.8 0.9536 -3.76615 0
M  V30 2849 H 266.472 -1.59482 -4.32855 0
M  V30 2850 H 264.715 -1.56468 -4.04599 0
M  V30 2851 H 265.386 -0.759394 -5.46752 0
M  V30 2852 H 267.862 0.613545 -4.11552 0
M  V30 2853 H 266.738 1.24598 -5.34571 0
M  V30 2854 H 266.999 2.15048 -3.86273 0
M  V30 2855 N 266.058 1.56714 -0.166846 0
M  V30 2856 C 267.469 1.83378 0.350646 0
M  V30 2857 C 267.82 1.08646 1.63372 0
M  V30 2858 O 266.945 0.338058 2.13743 0
M  V30 2859 C 267.54 3.32643 0.642963 0
M  V30 2860 C 266.099 3.59818 1.10491 0
M  V30 2861 C 265.246 2.76954 0.138411 0
M  V30 2862 H 268.197 1.53803 -0.391193 0
M  V30 2863 H 268.218 3.49878 1.49551 0
M  V30 2864 H 267.73 3.87007 -0.291055 0
M  V30 2865 H 265.831 3.1086 2.05418 0
M  V30 2866 H 265.944 4.68178 1.01716 0
M  V30 2867 H 264.308 2.4666 0.634911 0
M  V30 2868 H 265.091 3.34097 -0.789549 0
M  V30 2869 N 267.536 -0.106894 1.57237 0
M  V30 2870 C 268.952 -0.46078 1.52804 0
M  V30 2871 C 269.152 -1.81184 0.881746 0
M  V30 2872 O 268.208 -2.48102 0.469224 0
M  V30 2873 C 269.521 -0.434127 2.9755 0
M  V30 2874 C 271.069 -0.516821 3.08704 0
M  V30 2875 C 271.544 -0.520436 4.55033 0
M  V30 2876 N 273.035 -0.58153 4.59535 0
M  V30 2877 C 273.77 -0.605973 5.70189 0
M  V30 2878 N 273.266 -0.587331 6.90306 0
M  V30 2879 N 275.059 -0.649895 5.5833 0
M  V30 2880 H 267.21 0.778203 1.9763 0
M  V30 2881 H 269.473 0.288403 0.903066 0
M  V30 2882 H 269.179 0.491197 3.48253 0
M  V30 2883 H 269.053 -1.25748 3.55622 0
M  V30 2884 H 271.44 -1.43256 2.57995 0
M  V30 2885 H 271.521 0.334449 2.53604 0
M  V30 2886 H 271.165 0.391313 5.0639 0
M  V30 2887 H 271.095 -1.38876 5.07958 0
M  V30 2888 H 273.586 -0.60161 3.73081 0
M  V30 2889 H 273.899 -0.60894 7.70397 0
M  V30 2890 H 272.244 -0.554564 6.92784 0
M  V30 2891 H 275.435 -0.661907 4.63397 0
M  V30 2892 H 275.608 -0.665476 6.44574 0
M  V30 2893 N 269.014 -1.53014 -0.377408 0
M  V30 2894 C 269.964 -1.74996 -1.46152 0
M  V30 2895 C 270.948 -0.604236 -1.49123 0
M  V30 2896 O 272.14 -0.862489 -1.54564 0
M  V30 2897 C 269.269 -1.93267 -2.8373 0
M  V30 2898 C 268.355 -3.13807 -2.85283 0
M  V30 2899 N 268.746 -4.35941 -2.56493 0
M  V30 2900 C 267.044 -3.14288 -3.16448 0
M  V30 2901 C 267.745 -5.17615 -2.65424 0
M  V30 2902 N 266.721 -4.53559 -2.99641 0
M  V30 2903 H 270.523 -2.67044 -1.22738 0
M  V30 2904 H 268.037 -1.51479 -0.585479 0
M  V30 2905 H 270.034 -2.0714 -3.61799 0
M  V30 2906 H 268.694 -1.0244 -3.08117 0
M  V30 2907 H 269.705 -4.63876 -2.30302 0
M  V30 2908 H 266.382 -2.33312 -3.46225 0
M  V30 2909 H 267.772 -6.25006 -2.46612 0
M  V30 2910 N 270.492 0.636531 -1.44174 0
M  V30 2911 C 271.72 1.42353 -1.50144 0
M  V30 2912 C 272.135 1.88389 -0.124575 0
M  V30 2913 O 271.492 1.6051 0.868489 0
M  V30 2914 C 271.543 2.64744 -2.46156 0
M  V30 2915 O 271.264 2.20629 -3.7849 0
M  V30 2916 C 272.765 3.57929 -2.61537 0
M  V30 2917 H 269.985 0.436752 -0.5094 0
M  V30 2918 H 272.529 0.778933 -1.89084 0
M  V30 2919 H 270.684 3.25307 -2.10366 0
M  V30 2920 H 271.098 2.99938 -4.30276 0
M  V30 2921 H 272.572 4.40428 -3.32757 0
M  V30 2922 H 273.049 4.06382 -1.66585 0
M  V30 2923 H 273.655 3.03238 -2.98206 0
M  V30 2924 N 271.97 1.30982 0.876444 0
M  V30 2925 C 272.88 1.2003 2.01569 0
M  V30 2926 C 273.896 0.11838 1.73597 0
M  V30 2927 O 275.072 0.33495 1.98595 0
M  V30 2928 C 272.137 0.901637 3.34771 0
M  V30 2929 C 271.198 2.06979 3.76109 0
M  V30 2930 C 270.431 1.78529 5.02954 0
M  V30 2931 O 270.654 0.717296 5.65872 0
M  V30 2932 O 269.588 2.64019 5.40905 0
M  V30 2933 H 273.414 2.15753 2.13739 0
M  V30 2934 H 270.999 1.10658 1.00375 0
M  V30 2935 H 272.881 0.750645 4.1466 0
M  V30 2936 H 271.556 -0.0256141 3.2369 0
M  V30 2937 H 270.463 2.27616 2.96887 0
M  V30 2938 H 271.796 2.97907 3.91807 0
M  V30 2939 N 273.449 -1.08991 1.13837 0
M  V30 2940 C 274.698 -1.80631 0.897509 0
M  V30 2941 C 275.011 -1.86872 -0.57777 0
M  V30 2942 O 276.217 -2.54866 -0.935701 0
M  V30 2943 C 274.673 -3.24517 1.55618 0
M  V30 2944 C 274.281 -3.26529 3.0673 0
M  V30 2945 C 276.025 -4.00882 1.3962 0
M  V30 2946 C 273.932 -4.64965 3.65461 0
M  V30 2947 H 272.862 -0.67691 0.332129 0
M  V30 2948 H 275.513 -1.2246 1.3666 0
M  V30 2949 H 273.895 -3.82778 1.01476 0
M  V30 2950 H 275.069 -2.78008 3.67489 0
M  V30 2951 H 273.384 -2.63656 3.22296 0
M  V30 2952 H 275.981 -5.03167 1.80906 0
M  V30 2953 H 276.324 -4.14896 0.341578 0
M  V30 2954 H 276.857 -3.49075 1.90766 0
M  V30 2955 H 273.596 -4.56153 4.70749 0
M  V30 2956 H 273.116 -5.13792 3.09481 0
M  V30 2957 H 274.795 -5.3394 3.654 0
M  V30 2958 N 274.927 -0.932562 -1.27047 0
M  V30 2959 C 275.857 -0.452902 -2.29066 0
M  V30 2960 C 276.838 0.489338 -1.62909 0
M  V30 2961 O 278.023 0.393046 -1.90181 0
M  V30 2962 C 275.153 0.290698 -3.46081 0
M  V30 2963 C 274.107 -0.564168 -4.24265 0
M  V30 2964 C 273.433 0.308886 -5.33807 0
M  V30 2965 C 274.733 -1.83112 -4.89149 0
M  V30 2966 H 276.427 -1.30552 -2.69437 0
M  V30 2967 H 273.973 -0.629201 -1.29526 0
M  V30 2968 H 275.926 0.637233 -4.16554 0
M  V30 2969 H 274.65 1.17738 -3.0464 0
M  V30 2970 H 273.309 -0.893477 -3.55545 0
M  V30 2971 H 272.957 1.19467 -4.88607 0
M  V30 2972 H 272.657 -0.259633 -5.87026 0
M  V30 2973 H 274.181 0.650884 -6.07121 0
M  V30 2974 H 275.595 -1.55236 -5.51883 0
M  V30 2975 H 273.992 -2.34353 -5.52448 0
M  V30 2976 H 275.062 -2.54772 -4.12576 0
M  V30 2977 N 276.405 1.4127 -0.698611 0
M  V30 2978 C 277.633 2.05503 -0.239992 0
M  V30 2979 C 278.048 1.52584 1.11191 0
M  V30 2980 O 277.405 0.675323 1.69545 0
M  V30 2981 C 277.456 3.60987 -0.192429 0
M  V30 2982 O 277.177 4.1195 -1.49094 0
M  V30 2983 C 278.678 4.42371 0.28681 0
M  V30 2984 H 275.898 0.661748 -0.111045 0
M  V30 2985 H 278.442 1.80987 -0.95205 0
M  V30 2986 H 276.597 3.84533 0.470472 0
M  V30 2987 H 277.011 5.06018 -1.38007 0
M  V30 2988 H 278.485 5.51344 0.26896 0
M  V30 2989 H 278.962 4.18699 1.32619 0
M  V30 2990 H 279.568 4.23897 -0.345201 0
M  V30 2991 N 277.883 0.443576 1.51229 0
M  V30 2992 C 278.793 -0.370721 2.31652 0
M  V30 2993 C 279.809 -1.02186 1.40833 0
M  V30 2994 O 280.985 -1.01586 1.73903 0
M  V30 2995 C 278.05 -1.45376 3.14749 0
M  V30 2996 C 277.111 -0.822099 4.21355 0
M  V30 2997 C 276.344 -1.85353 5.0048 0
M  V30 2998 O 276.567 -3.07656 4.80316 0
M  V30 2999 O 275.501 -1.4406 5.84406 0
M  V30 3000 H 279.327 0.286002 3.0235 0
M  V30 3001 H 276.912 0.20598 1.47973 0
M  V30 3002 H 278.794 -2.08173 3.66391 0
M  V30 3003 H 277.469 -2.09445 2.46809 0
M  V30 3004 H 276.376 -0.155909 3.73775 0
M  V30 3005 H 277.709 -0.224797 4.91686 0
M  V30 3006 N 279.361 -1.56624 0.175154 0
M  V30 3007 C 280.291 -2.21155 -0.749195 0
M  V30 3008 C 281.272 -1.16836 -1.23626 0
M  V30 3009 O 282.457 -1.45277 -1.28873 0
M  V30 3010 C 279.587 -2.8553 -1.97711 0
M  V30 3011 C 278.541 -3.95921 -1.62575 0
M  V30 3012 C 277.867 -4.47365 -2.92864 0
M  V30 3013 C 279.167 -5.15323 -0.850838 0
M  V30 3014 H 280.861 -2.98653 -0.211295 0
M  V30 3015 H 278.407 -1.43651 -0.100188 0
M  V30 3016 H 280.36 -3.2935 -2.62881 0
M  V30 3017 H 279.084 -2.05406 -2.53921 0
M  V30 3018 H 277.743 -3.52762 -0.997719 0
M  V30 3019 H 277.391 -3.64027 -3.47122 0
M  V30 3020 H 277.091 -5.21839 -2.70106 0
M  V30 3021 H 278.615 -4.93873 -3.59056 0
M  V30 3022 H 280.029 -5.55812 -1.40521 0
M  V30 3023 H 278.426 -5.95739 -0.722154 0
M  V30 3024 H 279.496 -4.84661 0.152082 0
M  V30 3025 N 280.839 0.0985539 -1.57292 0
M  V30 3026 C 282.25 0.653457 -1.74891 0
M  V30 3027 C 282.601 1.7929 -0.796838 0
M  V30 3028 O 281.726 2.16385 0.0254886 0
M  V30 3029 C 282.321 1.19216 -3.17133 0
M  V30 3030 C 280.88 1.69316 -3.36168 0
M  V30 3031 C 280.027 0.601294 -2.70702 0
M  V30 3032 H 282.978 -0.127497 -1.58187 0
M  V30 3033 H 282.999 2.06154 -3.19814 0
M  V30 3034 H 282.511 0.362635 -3.86402 0
M  V30 3035 H 280.612 2.5468 -2.71972 0
M  V30 3036 H 280.725 1.78853 -4.44464 0
M  V30 3037 H 279.089 1.0399 -2.32504 0
M  V30 3038 H 279.872 -0.217592 -3.4261 0
M  V30 3039 N 282.317 1.53212 0.369288 0
M  V30 3040 C 283.728 1.60943 0.946276 0
M  V30 3041 C 284.079 0.47452 1.90375 0
M  V30 3042 O 283.204 -0.399597 2.12679 0
M  V30 3043 C 283.799 2.91715 1.72302 0
M  V30 3044 C 282.358 3.01792 2.24941 0
M  V30 3045 C 281.505 2.56211 1.06072 0
M  V30 3046 H 284.456 1.58007 0.148198 0
M  V30 3047 H 284.477 2.79309 2.58393 0
M  V30 3048 H 283.989 3.74295 1.0259 0
M  V30 3049 H 282.09 2.23791 2.97906 0
M  V30 3050 H 282.203 4.06803 2.53077 0
M  V30 3051 H 280.567 2.10998 1.4266 0
M  V30 3052 H 281.35 3.41206 0.378639 0
M  V30 3053 N 283.795 -0.628877 1.44509 0
M  V30 3054 C 284.725 -1.75187 1.54376 0
M  V30 3055 C 285.706 -1.65411 0.396618 0
M  V30 3056 O 286.891 -1.84137 0.617031 0
M  V30 3057 C 284.021 -3.13725 1.48976 0
M  V30 3058 C 282.975 -3.38291 2.62189 0
M  V30 3059 C 282.301 -4.76883 2.41841 0
M  V30 3060 C 283.601 -3.30632 4.04326 0
M  V30 3061 H 285.295 -1.67187 2.48373 0
M  V30 3062 H 282.841 -0.802909 1.19538 0
M  V30 3063 H 284.794 -3.92064 1.54478 0
M  V30 3064 H 283.518 -3.22515 0.514961 0
M  V30 3065 H 282.177 -2.62334 2.56079 0
M  V30 3066 H 281.825 -4.82378 1.42548 0
M  V30 3067 H 281.525 -4.94278 3.17747 0
M  V30 3068 H 283.049 -5.57449 2.49165 0
M  V30 3069 H 284.463 -3.98873 4.11793 0
M  V30 3070 H 282.86 -3.59561 4.80454 0
M  V30 3071 H 283.93 -2.28404 4.27738 0
M  V30 3072 N 285.273 -1.31445 -0.869486 0
M  V30 3073 C 286.55 -1.11795 -1.60503 0
M  V30 3074 C 286.93 0.327168 -2.08549 0
M  V30 3075 O 286.278 1.32135 -1.8642 0
M  V30 3076 C 286.488 -2.13258 -2.76265 0
M  V30 3077 C 287.836 -2.45805 -3.46215 0
M  V30 3078 O 288.86 -2.11688 -2.86473 0
M  V30 3079 O 287.719 -3.04228 -4.5399 0
M  V30 3080 H 284.813 -0.430421 -0.706163 0
M  V30 3081 H 287.359 -1.42925 -0.914907 0
M  V30 3082 H 286.131 -3.10461 -2.3818 0
M  V30 3083 H 285.754 -1.83035 -3.52964 0
M  V30 3084 N 286.751 1.08385 -1.14413 0
M  V30 3085 C 288.028 1.77429 -0.823297 0
M  V30 3086 C 288.408 1.9974 0.683163 0
M  V30 3087 O 287.756 1.60739 1.62405 0
M  V30 3088 C 287.966 3.09004 -1.62227 0
M  V30 3089 C 289.314 3.83532 -1.82177 0
M  V30 3090 O 290.338 3.18786 -1.58915 0
M  V30 3091 O 289.197 4.99792 -2.21067 0
M  V30 3092 H 286.291 0.769999 -0.301712 0
M  V30 3093 H 288.837 1.14846 -1.24934 0
M  V30 3094 H 287.609 2.88316 -2.64555 0
M  V30 3095 H 287.232 3.79316 -1.19187 0
M  V30 3096 N 288.23 0.939286 1.26551 0
M  V30 3097 C 289.46 0.601663 1.97645 0
M  V30 3098 C 289.868 -0.827206 1.70159 0
M  V30 3099 O 289.211 -1.56291 0.965338 0
M  V30 3100 C 289.273 0.761725 3.51337 0
M  V30 3101 C 288.937 2.16487 4.0247 0
M  V30 3102 C 289.934 3.14016 4.14355 0
M  V30 3103 C 287.619 2.48494 4.36527 0
M  V30 3104 C 289.613 4.41654 4.59587 0
M  V30 3105 C 287.3 3.76364 4.81449 0
M  V30 3106 C 288.298 4.72758 4.92939 0
M  V30 3107 O 287.986 5.98352 5.36871 0
M  V30 3108 H 287.718 0.225758 0.637189 0
M  V30 3109 H 290.272 1.26178 1.62075 0
M  V30 3110 H 288.502 0.0444808 3.86674 0
M  V30 3111 H 290.191 0.427442 4.03643 0
M  V30 3112 H 290.957 2.90613 3.8829 0
M  V30 3113 H 286.836 1.74202 4.26819 0
M  V30 3114 H 290.38 5.16896 4.68471 0
M  V30 3115 H 286.277 3.99582 5.06956 0
M  V30 3116 H 287.045 6.01507 5.55096 0
M  V30 3117 N 289.708 -1.40897 0.706093 0
M  V30 3118 C 290.936 -2.05373 0.250887 0
M  V30 3119 C 291.351 -1.53172 -1.10381 0
M  V30 3120 O 290.708 -0.684305 -1.69185 0
M  V30 3121 C 290.759 -3.6088 0.211571 0
M  V30 3122 O 290.48 -4.11153 1.51276 0
M  V30 3123 C 291.981 -4.42517 -0.263346 0
M  V30 3124 H 289.201 -0.66115 0.114552 0
M  V30 3125 H 291.745 -1.80479 0.961635 0
M  V30 3126 H 289.9 -3.84777 -0.450073 0
M  V30 3127 H 290.314 -5.05279 1.40689 0
M  V30 3128 H 291.788 -5.51479 -0.239718 0
M  V30 3129 H 292.265 -4.19396 -1.30397 0
M  V30 3130 H 292.871 -4.23708 0.367677 0
M  V30 3131 N 291.186 -0.45159 -1.50991 0
M  V30 3132 C 292.136 0.370861 -2.24964 0
M  V30 3133 C 293.12 0.978074 -1.2776 0
M  V30 3134 O 294.312 0.893854 -1.52772 0
M  V30 3135 C 291.441 1.46344 -3.10545 0
M  V30 3136 C 290.527 0.864924 -4.15187 0
M  V30 3137 N 290.918 -0.00311354 -5.058 0
M  V30 3138 C 289.216 1.13099 -4.31422 0
M  V30 3139 C 289.917 -0.340772 -5.80701 0
M  V30 3140 N 288.893 0.279203 -5.42883 0
M  V30 3141 H 292.695 -0.298134 -2.92384 0
M  V30 3142 H 290.209 -0.264528 -1.60231 0
M  V30 3143 H 292.206 2.06565 -3.62128 0
M  V30 3144 H 290.866 2.13463 -2.4467 0
M  V30 3145 H 291.877 -0.37058 -5.16572 0
M  V30 3146 H 288.554 1.79861 -3.76771 0
M  V30 3147 H 289.944 -1.048 -6.63677 0
M  V30 3148 N 292.664 1.56529 -0.183458 0
M  V30 3149 C 293.889 2.02064 0.467428 0
M  V30 3150 C 294.314 1.06282 1.55196 0
M  V30 3151 O 293.672 0.0443565 1.81246 0
M  V30 3152 C 293.72 3.46122 1.01153 0
M  V30 3153 O 292.824 3.53437 2.12499 0
M  V30 3154 H 292.165 0.654726 0.110588 0
M  V30 3155 H 294.695 2.02521 -0.290917 0
M  V30 3156 H 294.705 3.85676 1.33108 0
M  V30 3157 H 293.38 4.15331 0.217533 0
M  V30 3158 H 291.957 3.2575 1.81497 0
M  V30 3159 N 294.142 -0.090211 1.57342 0
M  V30 3160 C 295.391 -0.791531 1.8552 0
M  V30 3161 C 295.704 -1.79659 0.773441 0
M  V30 3162 O 296.91 -2.54616 0.942497 0
M  V30 3163 C 295.366 -1.45856 3.2902 0
M  V30 3164 C 294.974 -0.493017 4.45279 0
M  V30 3165 C 296.718 -2.14332 3.66418 0
M  V30 3166 C 294.625 -1.16491 5.79814 0
M  V30 3167 H 293.555 -0.299356 0.692027 0
M  V30 3168 H 296.206 -0.0445343 1.83446 0
M  V30 3169 H 294.588 -2.25318 3.2565 0
M  V30 3170 H 295.762 0.270464 4.60006 0
M  V30 3171 H 294.077 0.0863061 4.16311 0
M  V30 3172 H 296.674 -2.65344 4.64216 0
M  V30 3173 H 297.017 -2.93447 2.95287 0
M  V30 3174 H 297.55 -1.41724 3.71698 0
M  V30 3175 H 294.289 -0.41447 6.54188 0
M  V30 3176 H 293.809 -1.8997 5.68921 0
M  V30 3177 H 295.488 -1.69001 6.24538 0
M  V30 3178 N 295.62 -1.53406 -0.361157 0
M  V30 3179 C 297.031 -1.61442 -0.937728 0
M  V30 3180 C 297.382 -0.48461 -1.90121 0
M  V30 3181 O 296.507 0.388312 -2.12888 0
M  V30 3182 C 297.102 -2.92624 -1.70753 0
M  V30 3183 C 295.661 -3.02981 -2.23337 0
M  V30 3184 C 294.808 -2.5677 -1.04712 0
M  V30 3185 H 297.759 -1.58083 -0.139816 0
M  V30 3186 H 297.78 -2.80675 -2.56908 0
M  V30 3187 H 297.292 -3.74834 -1.00604 0
M  V30 3188 H 295.393 -2.25368 -2.96715 0
M  V30 3189 H 295.506 -4.0814 -2.50916 0
M  V30 3190 H 293.87 -2.11752 -1.41539 0
M  V30 3191 H 294.653 -3.41402 -0.360539 0
M  V30 3192 N 297.098 0.621204 -1.44841 0
M  V30 3193 C 298.008 1.7612 -1.5498 0
M  V30 3194 C 299.024 1.68477 -0.434927 0
M  V30 3195 O 300.2 1.89076 -0.693693 0
M  V30 3196 C 297.265 3.1254 -1.50065 0
M  V30 3197 C 296.326 3.31741 -2.72482 0
M  V30 3198 C 295.559 4.61653 -2.67792 0
M  V30 3199 O 295.782 5.431 -1.74352 0
M  V30 3200 O 294.716 4.83271 -3.58794 0
M  V30 3201 H 298.542 1.70518 -2.51311 0
M  V30 3202 H 296.127 0.783643 -1.27198 0
M  V30 3203 H 298.009 3.93844 -1.49882 0
M  V30 3204 H 296.684 3.18663 -0.568806 0
M  V30 3205 H 295.591 2.50077 -2.7823 0
M  V30 3206 H 296.924 3.30486 -3.64746 0
M  V30 3207 N 298.576 1.31904 0.862503 0
M  V30 3208 C 299.524 1.20125 1.9918 0
M  V30 3209 C 300.518 0.107824 1.69056 0
M  V30 3210 O 301.724 0.270223 1.7796 0
M  V30 3211 H 298.099 0.372148 0.65346 0
M  V30 3212 H 300.07 2.15652 2.06244 0
M  V30 3213 C 298.819 0.933099 3.34946 0
M  V30 3214 H 298.142 1.76664 3.5865 0
M  V30 3215 H 299.582 0.890892 4.14535 0
M  V30 3216 C 298.041 -0.364172 3.34926 0
M  V30 3217 O 298.571 -1.37858 3.77304 0
M  V30 3218 N 296.777 -0.383362 2.8806 0
M  V30 3219 H 296.324 0.442651 2.53768 0
M  V30 3220 H 296.282 -1.25123 2.8843 0
M  V30 3221 N 300.054 -1.07777 1.14986 0
M  V30 3222 C 301.282 -1.84018 0.945773 0
M  V30 3223 C 301.697 -1.81897 -0.505863 0
M  V30 3224 O 301.054 -1.22726 -1.35072 0
M  V30 3225 C 301.105 -3.31287 1.44677 0
M  V30 3226 O 300.826 -3.33449 2.84154 0
M  V30 3227 C 302.327 -4.24311 1.28355 0
M  V30 3228 H 299.547 -0.580716 0.336169 0
M  V30 3229 H 302.091 -1.36077 1.52654 0
M  V30 3230 H 300.246 -3.76594 0.908625 0
M  V30 3231 H 300.66 -4.25427 3.06777 0
M  V30 3232 H 302.134 -5.2573 1.68261 0
M  V30 3233 H 302.611 -4.38612 0.227184 0
M  V30 3234 H 303.217 -3.84836 1.81056 0
M  V30 3235 N 301.532 -0.945985 -1.26051 0
M  V30 3236 C 302.48 -0.450259 -2.282 0
M  V30 3237 C 303.474 0.47497 -1.62605 0
M  V30 3238 O 304.68 0.352653 -1.76512 0
M  V30 3239 H 301.055 -0.127081 -0.741184 0
M  V30 3240 H 303.026 -1.32422 -2.67408 0
M  V30 3241 C 301.775 0.26467 -3.46691 0
M  V30 3242 H 301.098 -0.438123 -3.97392 0
M  V30 3243 H 302.538 0.575678 -4.20074 0
M  V30 3244 C 300.997 1.48416 -3.02447 0
M  V30 3245 O 301.527 2.58227 -3.07704 0
M  V30 3246 N 299.733 1.34243 -2.57735 0
M  V30 3247 H 299.28 0.448994 -2.53657 0
M  V30 3248 H 299.238 2.15957 -2.28495 0
M  V30 3249 N 303.011 1.40521 -0.713556 0
M  V30 3250 C 304.258 2.00923 -0.25219 0
M  V30 3251 C 304.586 1.56571 1.15395 0
M  V30 3252 O 303.841 0.775874 1.79663 0
M  V30 3253 C 304.14 3.56317 -0.278 0
M  V30 3254 C 303.806 4.20246 -1.63415 0
M  V30 3255 C 302.468 4.37422 -2.00538 0
M  V30 3256 C 304.82 4.55923 -2.52554 0
M  V30 3257 C 302.148 4.87558 -3.2635 0
M  V30 3258 C 304.5 5.07458 -3.77716 0
M  V30 3259 C 303.164 5.22843 -4.14959 0
M  V30 3260 H 302.434 0.735231 -0.0922829 0
M  V30 3261 H 305.081 1.68161 -0.916188 0
M  V30 3262 H 303.386 3.88976 0.469567 0
M  V30 3263 H 305.083 4.00883 0.0967819 0
M  V30 3264 H 301.673 4.07263 -1.33546 0
M  V30 3265 H 305.857 4.42291 -2.25149 0
M  V30 3266 H 301.113 4.97654 -3.55176 0
M  V30 3267 H 305.287 5.34041 -4.4696 0
M  V30 3268 H 302.914 5.61454 -5.12516 0
M  V30 3269 N 304.489 0.459591 1.5075 0
M  V30 3270 C 305.9 0.00171547 1.867 0
M  V30 3271 C 306.251 -1.39934 1.37525 0
M  V30 3272 O 305.376 -2.03523 0.735349 0
M  V30 3273 C 305.971 -0.00366298 3.388 0
M  V30 3274 C 304.53 -0.406026 3.74204 0
M  V30 3275 C 303.677 0.38673 2.7459 0
M  V30 3276 H 306.628 0.674413 1.43657 0
M  V30 3277 H 306.649 -0.808371 3.71814 0
M  V30 3278 H 306.161 1.01617 3.74561 0
M  V30 3279 H 304.262 -1.43063 3.4404 0
M  V30 3280 H 304.375 -0.115362 4.78961 0
M  V30 3281 H 302.739 -0.158019 2.54209 0
M  V30 3282 H 303.522 1.40585 3.13194 0
M  V30 3283 N 305.967 -1.56429 0.191757 0
M  V30 3284 C 306.93 -2.17707 -0.716688 0
M  V30 3285 C 307.93 -1.13061 -1.14341 0
M  V30 3286 O 309.12 -1.38464 -1.05704 0
M  V30 3287 C 306.252 -2.77644 -1.97804 0
M  V30 3288 H 307.445 -2.99342 -0.1829 0
M  V30 3289 H 304.998 -1.56193 -0.0578566 0
M  V30 3290 H 305.733 -1.99799 -2.55443 0
M  V30 3291 H 305.518 -3.54246 -1.68083 0
M  V30 3292 H 307.008 -3.24708 -2.62592 0
M  V30 3293 N 307.445 0.0818655 -1.57387 0
M  V30 3294 C 308.693 0.781368 -1.86384 0
M  V30 3295 C 309.014 1.78618 -0.782342 0
M  V30 3296 O 308.284 1.94976 0.190061 0
M  V30 3297 H 306.864 0.291562 -0.687751 0
M  V30 3298 H 309.526 0.060348 -1.94807 0
M  V30 3299 H 308.622 1.3038 -2.83562 0
M  V30 3300 N 308.923 1.53595 0.353017 0
M  V30 3301 C 310.172 1.69603 1.09168 0
M  V30 3302 C 310.485 0.460925 1.90092 0
M  V30 3303 O 311.691 0.501774 2.66823 0
M  V30 3304 C 310.147 2.99872 1.9901 0
M  V30 3305 C 309.755 4.30687 1.23339 0
M  V30 3306 C 311.499 3.25246 2.72792 0
M  V30 3307 C 309.406 5.52036 2.12156 0
M  V30 3308 H 308.336 0.631966 0.411261 0
M  V30 3309 H 310.987 1.80096 0.351802 0
M  V30 3310 H 309.369 2.83212 2.7678 0
M  V30 3311 H 310.543 4.58019 0.505456 0
M  V30 3312 H 308.858 4.11853 0.613663 0
M  V30 3313 H 311.455 4.13095 3.39495 0
M  V30 3314 H 311.798 2.41846 3.38846 0
M  V30 3315 H 312.331 3.42638 2.021 0
M  V30 3316 H 309.07 6.37951 1.50659 0
M  V30 3317 H 308.59 5.28966 2.82764 0
M  V30 3318 H 310.269 5.87313 2.71427 0
M  V30 3319 N 310.401 -0.613514 1.45168 0
M  V30 3320 C 311.311 -1.75296 1.55912 0
M  V30 3321 C 312.327 -1.68244 0.443856 0
M  V30 3322 O 313.503 -1.88706 0.70371 0
M  V30 3323 C 310.568 -3.1174 1.5172 0
M  V30 3324 C 309.629 -3.30291 2.74238 0
M  V30 3325 C 308.862 -4.60226 2.70236 0
M  V30 3326 O 309.085 -5.42168 1.77229 0
M  V30 3327 O 308.019 -4.81361 3.61352 0
M  V30 3328 H 311.845 -1.69183 2.52212 0
M  V30 3329 H 309.43 -0.776886 1.27612 0
M  V30 3330 H 311.312 -3.93044 1.51968 0
M  V30 3331 H 309.987 -3.18357 0.585697 0
M  V30 3332 H 308.894 -2.48598 2.79553 0
M  V30 3333 H 310.227 -3.28547 3.66494 0
M  V30 3334 N 311.879 -1.3236 -0.855495 0
M  V30 3335 C 313.29 -1.2056 -1.42556 0
M  V30 3336 C 313.641 0.182209 -1.95352 0
M  V30 3337 O 312.766 1.08088 -1.87472 0
M  V30 3338 C 313.361 -2.1826 -2.59129 0
M  V30 3339 C 311.92 -2.10351 -3.12137 0
M  V30 3340 C 311.067 -2.06674 -1.84882 0
M  V30 3341 H 314.018 -1.442 -0.662727 0
M  V30 3342 H 314.039 -1.78064 -3.36264 0
M  V30 3343 H 313.551 -3.19257 -2.20673 0
M  V30 3344 H 311.652 -1.12599 -3.55179 0
M  V30 3345 H 311.765 -3.00135 -3.73438 0
M  V30 3346 H 310.129 -1.51901 -2.04446 0
M  V30 3347 H 310.912 -3.09451 -1.48643 0
M  V30 3348 N 313.357 1.07166 -1.15556 0
M  V30 3349 C 314.289 2.14341 -0.811815 0
M  V30 3350 C 315.302 1.61835 0.177015 0
M  V30 3351 O 316.491 1.78439 -0.0464996 0
M  V30 3352 C 313.591 3.38387 -0.186481 0
M  V30 3353 C 312.764 4.20238 -1.21321 0
M  V30 3354 C 311.823 5.2266 -0.609302 0
M  V30 3355 O 310.849 5.54719 -1.27576 0
M  V30 3356 N 312.051 5.77306 0.608099 0
M  V30 3357 H 314.816 2.44431 -1.73417 0
M  V30 3358 H 312.377 1.23089 -1.0517 0
M  V30 3359 H 314.369 4.04044 0.230339 0
M  V30 3360 H 312.939 3.05994 0.639249 0
M  V30 3361 H 312.159 3.50369 -1.80652 0
M  V30 3362 H 313.447 4.71736 -1.90638 0
M  V30 3363 H 312.845 5.53513 1.1679 0
M  V30 3364 H 311.402 6.44583 0.96725 0
M  V30 3365 N 314.835 0.952656 1.25548 0
M  V30 3366 C 316.06 0.623025 1.97821 0
M  V30 3367 C 316.485 -0.7976 1.70352 0
M  V30 3368 O 315.843 -1.53905 0.958283 0
M  V30 3369 C 315.891 0.885532 3.49558 0
M  V30 3370 O 314.995 -0.0366641 4.12384 0
M  V30 3371 H 314.336 0.237082 0.620232 0
M  V30 3372 H 316.866 1.27871 1.59719 0
M  V30 3373 H 316.876 0.811009 3.99858 0
M  V30 3374 H 315.551 1.92094 3.6888 0
M  V30 3375 H 314.128 0.0898954 3.72792 0
M  V30 3376 N 316.313 -1.40141 0.720998 0
M  V30 3377 C 317.261 -2.3252 0.0608547 0
M  V30 3378 C 318.255 -1.52326 -0.741152 0
M  V30 3379 O 319.461 -1.68089 -0.643911 0
M  V30 3380 H 315.836 -0.751999 0.000876664 0
M  V30 3381 H 317.807 -2.8584 0.856614 0
M  V30 3382 C 316.556 -3.37331 -0.842809 0
M  V30 3383 H 315.879 -3.99108 -0.235084 0
M  V30 3384 H 317.319 -4.04452 -1.27257 0
M  V30 3385 C 315.778 -2.73246 -1.97074 0
M  V30 3386 O 316.308 -2.59998 -3.06209 0
M  V30 3387 N 314.514 -2.31547 -1.75597 0
M  V30 3388 H 314.061 -2.42522 -0.868368 0
M  V30 3389 H 314.019 -1.89007 -2.51244 0
M  V30 3390 N 317.792 -0.46758 -1.50504 0
M  V30 3391 C 319.022 0.086288 -2.0642 0
M  V30 3392 C 319.43 1.34369 -1.33197 0
M  V30 3393 O 318.773 1.79431 -0.393747 0
M  V30 3394 C 318.835 0.443846 -3.5675 0
M  V30 3395 C 318.499 -0.711035 -4.51435 0
M  V30 3396 C 319.496 -1.59205 -4.94924 0
M  V30 3397 C 317.181 -0.900363 -4.94165 0
M  V30 3398 C 319.175 -2.64683 -5.79846 0
M  V30 3399 C 316.862 -1.95837 -5.7887 0
M  V30 3400 C 317.86 -2.82997 -6.21612 0
M  V30 3401 O 317.548 -3.86977 -7.0463 0
M  V30 3402 H 317.28 -0.00217814 -0.675996 0
M  V30 3403 H 319.834 -0.654346 -1.94698 0
M  V30 3404 H 318.064 1.23762 -3.6636 0
M  V30 3405 H 319.753 0.932386 -3.95046 0
M  V30 3406 H 320.519 -1.45745 -4.62583 0
M  V30 3407 H 316.398 -0.231427 -4.60419 0
M  V30 3408 H 319.942 -3.32745 -6.13128 0
M  V30 3409 H 315.839 -2.09305 -6.10624 0
M  V30 3410 H 316.607 -3.83923 -7.22873 0
M  V30 3411 N 319.27 1.56325 -0.20005 0
M  V30 3412 C 320.519 1.96895 0.437652 0
M  V30 3413 C 320.832 1.08999 1.62415 0
M  V30 3414 O 322.038 1.39372 2.32997 0
M  V30 3415 C 320.494 3.50198 0.830025 0
M  V30 3416 C 320.102 4.46765 -0.332461 0
M  V30 3417 C 321.846 3.99526 1.43453 0
M  V30 3418 C 319.753 5.91344 0.0811468 0
M  V30 3419 H 318.683 0.735209 0.167282 0
M  V30 3420 H 321.334 1.81148 -0.292853 0
M  V30 3421 H 319.716 3.61467 1.61734 0
M  V30 3422 H 320.89 4.47231 -1.11 0
M  V30 3423 H 319.205 4.07657 -0.848789 0
M  V30 3424 H 321.802 5.05025 1.75652 0
M  V30 3425 H 322.145 3.44122 2.34277 0
M  V30 3426 H 322.678 3.91393 0.71109 0
M  V30 3427 H 319.417 6.50685 -0.793033 0
M  V30 3428 H 318.937 5.94121 0.823445 0
M  V30 3429 H 320.616 6.44945 0.515252 0
M  V30 3430 N 320.748 -0.0735177 1.57428 0
M  V30 3431 C 322.159 -0.625551 1.75908 0
M  V30 3432 C 322.51 -1.78 0.825261 0
M  V30 3433 O 321.635 -2.16398 0.00893964 0
M  V30 3434 C 322.23 -1.14155 3.18989 0
M  V30 3435 C 320.789 -1.63946 3.38819 0
M  V30 3436 C 319.936 -0.558151 2.71625 0
M  V30 3437 H 322.887 0.152647 1.57964 0
M  V30 3438 H 322.908 -2.0104 3.23053 0
M  V30 3439 H 322.42 -0.301116 3.8693 0
M  V30 3440 H 320.521 -2.50321 2.7599 0
M  V30 3441 H 320.634 -1.71759 4.47253 0
M  V30 3442 H 318.998 -1.00278 2.34129 0
M  V30 3443 H 319.781 0.272071 3.4222 0
M  V30 3444 N 322.226 -1.5378 -0.344866 0
M  V30 3445 C 323.136 -1.84667 -1.4469 0
M  V30 3446 C 324.152 -0.736704 -1.57635 0
M  V30 3447 O 325.328 -1.02888 -1.73136 0
M  V30 3448 C 322.393 -2.04869 -2.79696 0
M  V30 3449 C 321.454 -3.28731 -2.76106 0
M  V30 3450 C 320.687 -3.4796 -4.04673 0
M  V30 3451 O 320.91 -2.71052 -5.01883 0
M  V30 3452 O 319.844 -4.41383 -4.09224 0
M  V30 3453 H 323.67 -2.78334 -1.21506 0
M  V30 3454 H 321.255 -1.39418 -0.536921 0
M  V30 3455 H 323.137 -2.19609 -3.59652 0
M  V30 3456 H 321.812 -1.14391 -3.02814 0
M  V30 3457 H 320.719 -3.19396 -1.94774 0
M  V30 3458 H 322.052 -4.19198 -2.57941 0
M  V30 3459 N 323.704 0.605807 -1.45491 0
M  V30 3460 C 324.932 1.39136 -1.5313 0
M  V30 3461 C 325.347 1.88082 -0.164507 0
M  V30 3462 O 324.704 1.62316 0.834247 0
M  V30 3463 C 324.755 2.59463 -2.51716 0
M  V30 3464 O 324.476 2.12551 -3.83084 0
M  V30 3465 C 325.977 3.52301 -2.6907 0
M  V30 3466 H 323.197 0.425849 -0.51855 0
M  V30 3467 H 325.741 0.73865 -1.90694 0
M  V30 3468 H 323.896 3.20772 -2.17219 0
M  V30 3469 H 324.31 2.90744 -4.36541 0
M  V30 3470 H 325.784 4.33271 -3.42024 0
M  V30 3471 H 326.261 4.02757 -1.75167 0
M  V30 3472 H 326.867 2.96845 -3.04571 0
M  V30 3473 N 325.182 1.32811 0.848464 0
M  V30 3474 C 326.593 1.21315 1.41914 0
M  V30 3475 C 326.944 -0.171847 1.95446 0
M  V30 3476 O 326.069 -1.07093 1.88043 0
M  V30 3477 C 326.664 2.19631 2.57968 0
M  V30 3478 C 325.223 2.12003 3.11017 0
M  V30 3479 C 324.37 2.07651 1.83783 0
M  V30 3480 H 327.321 1.44549 0.655071 0
M  V30 3481 H 327.342 1.79845 3.35315 0
M  V30 3482 H 326.854 3.20423 2.18976 0
M  V30 3483 H 324.955 1.14481 3.54577 0
M  V30 3484 H 325.068 3.02111 3.71841 0
M  V30 3485 H 323.432 1.52983 2.03638 0
M  V30 3486 H 324.215 3.10235 1.47 0
M  V30 3487 N 326.66 -1.06551 1.16123 0
M  V30 3488 C 328.071 -1.60768 0.949232 0
M  V30 3489 C 328.422 -1.89523 -0.507508 0
M  V30 3490 O 327.547 -1.66671 -1.38021 0
M  V30 3491 C 328.142 -2.92086 1.71671 0
M  V30 3492 C 326.701 -3.43015 1.54977 0
M  V30 3493 C 325.848 -2.16947 1.72711 0
M  V30 3494 H 328.799 -0.895354 1.31031 0
M  V30 3495 H 328.82 -3.6138 1.19099 0
M  V30 3496 H 328.332 -2.71127 2.7769 0
M  V30 3497 H 326.433 -3.69039 0.513873 0
M  V30 3498 H 326.546 -4.18516 2.33198 0
M  V30 3499 H 324.91 -2.27041 1.15431 0
M  V30 3500 H 325.693 -1.98473 2.80113 0
M  V30 3501 N 328.138 -0.959301 -1.25041 0
M  V30 3502 C 329.549 -0.65667 -1.74771 0
M  V30 3503 C 329.9 0.827852 -1.77879 0
M  V30 3504 O 329.025 1.64783 -1.40269 0
M  V30 3505 C 329.62 -1.1853 -3.1739 0
M  V30 3506 C 328.179 -0.932734 -3.6466 0
M  V30 3507 C 327.326 -1.32558 -2.43564 0
M  V30 3508 H 330.277 -1.13558 -1.10862 0
M  V30 3509 H 330.298 -0.547582 -3.76539 0
M  V30 3510 H 329.81 -2.26576 -3.15095 0
M  V30 3511 H 327.911 0.13257 -3.72364 0
M  V30 3512 H 328.024 -1.57248 -4.52559 0
M  V30 3513 H 326.388 -0.743956 -2.43593 0
M  V30 3514 H 327.171 -2.41537 -2.43957 0
M  V30 3515 N 329.616 1.39756 -0.72842 0
M  V30 3516 C 330.864 2.00248 -0.272946 0
M  V30 3517 C 331.185 1.58077 1.14178 0
M  V30 3518 O 330.455 0.826014 1.77634 0
M  V30 3519 H 329.035 0.740554 -0.0979247 0
M  V30 3520 H 331.697 1.70903 -0.936912 0
M  V30 3521 H 330.793 3.10495 -0.316142 0
M  V30 3522 N 331.094 0.475555 1.50254 0
M  V30 3523 C 332.324 -0.0753399 2.06463 0
M  V30 3524 C 332.732 -1.33661 1.33908 0
M  V30 3525 O 332.075 -1.79219 0.403257 0
M  V30 3526 C 332.137 -0.424921 3.5698 0
M  V30 3527 C 331.801 0.734965 4.51051 0
M  V30 3528 C 332.798 1.61827 4.94073 0
M  V30 3529 C 330.483 0.926557 4.9368 0
M  V30 3530 C 332.477 2.67754 5.78434 0
M  V30 3531 C 330.164 1.98904 5.77824 0
M  V30 3532 C 331.162 2.8629 6.20103 0
M  V30 3533 O 330.85 3.90708 7.02568 0
M  V30 3534 H 330.582 0.00576308 0.675975 0
M  V30 3535 H 333.136 0.664662 1.94349 0
M  V30 3536 H 331.366 -1.21817 3.67012 0
M  V30 3537 H 333.055 -0.911422 3.95535 0
M  V30 3538 H 333.821 1.48196 4.61804 0
M  V30 3539 H 329.7 0.25584 4.6029 0
M  V30 3540 H 333.244 3.35992 6.11355 0
M  V30 3541 H 329.141 2.12541 6.09505 0
M  V30 3542 H 329.909 3.87751 7.20827 0
M  V30 3543 N 332.573 -1.56217 0.208337 0
M  V30 3544 C 333.822 -1.97124 -0.427204 0
M  V30 3545 C 334.135 -1.09859 -1.61835 0
M  V30 3546 O 335.341 -1.40606 -2.32255 0
M  V30 3547 C 333.797 -3.50633 -0.811442 0
M  V30 3548 C 333.405 -4.46582 0.35615 0
M  V30 3549 C 335.149 -4.00282 -1.41332 0
M  V30 3550 C 333.056 -5.91379 -0.0497852 0
M  V30 3551 H 331.986 -0.736086 -0.163381 0
M  V30 3552 H 334.637 -1.8099 0.302456 0
M  V30 3553 H 333.019 -3.62319 -1.59815 0
M  V30 3554 H 334.193 -4.46636 1.1337 0
M  V30 3555 H 332.508 -4.07202 0.870396 0
M  V30 3556 H 335.105 -5.0595 -1.72972 0
M  V30 3557 H 335.448 -3.45359 -2.32449 0
M  V30 3558 H 335.981 -3.91764 -0.690323 0
M  V30 3559 H 332.72 -6.50255 0.827529 0
M  V30 3560 H 332.24 -5.94549 -0.791926 0
M  V30 3561 H 333.919 -6.45209 -0.481042 0
M  V30 3562 N 334.051 0.0651679 -1.57465 0
M  V30 3563 C 335.276 0.779605 -1.9219 0
M  V30 3564 C 335.701 1.69988 -0.805333 0
M  V30 3565 O 335.059 1.79685 0.241435 0
M  V30 3566 C 335.107 1.54364 -3.2589 0
M  V30 3567 O 334.211 2.65474 -3.1559 0
M  V30 3568 H 333.552 0.212249 -0.629163 0
M  V30 3569 H 336.082 0.0314294 -2.04576 0
M  V30 3570 H 336.092 1.92146 -3.59922 0
M  V30 3571 H 334.767 0.868457 -4.06732 0
M  V30 3572 H 333.344 2.30501 -2.93128 0
M  V30 3573 N 335.529 1.53961 0.336706 0
M  V30 3574 C 336.439 1.85432 1.43708 0
M  V30 3575 C 337.455 0.745053 1.57242 0
M  V30 3576 O 338.631 1.03804 1.72588 0
M  V30 3577 C 335.696 2.06349 2.78605 0
M  V30 3578 C 334.757 3.30191 2.74358 0
M  V30 3579 C 333.99 3.50101 4.02822 0
M  V30 3580 O 334.213 2.7371 5.00439 0
M  V30 3581 O 333.147 4.43547 4.06878 0
M  V30 3582 H 336.973 2.78975 1.20028 0
M  V30 3583 H 334.558 1.39701 0.52952 0
M  V30 3584 H 336.44 2.21513 3.58483 0
M  V30 3585 H 335.115 1.15995 3.02203 0
M  V30 3586 H 334.022 3.20425 1.93078 0
M  V30 3587 H 335.355 4.2056 2.55715 0
M  V30 3588 N 337.007 -0.598083 1.45811 0
M  V30 3589 C 338.284 -1.35777 1.40797 0
M  V30 3590 C 338.664 -2.10935 0.083462 0
M  V30 3591 O 338.012 -2.08505 -0.934763 0
M  V30 3592 C 338.222 -2.29666 2.62783 0
M  V30 3593 C 339.57 -2.91977 3.08277 0
M  V30 3594 O 340.594 -2.39984 2.63223 0
M  V30 3595 O 339.453 -3.86376 3.86491 0
M  V30 3596 H 336.547 -0.609291 0.55919 0
M  V30 3597 H 339.093 -0.620379 1.57954 0
M  V30 3598 H 337.865 -1.73454 3.50756 0
M  V30 3599 H 337.488 -3.1077 2.48008 0
M  V30 3600 N 338.485 -1.33259 -0.841409 0
M  V30 3601 C 339.733 -1.24326 -1.59334 0
M  V30 3602 C 340.054 0.191564 -1.94057 0
M  V30 3603 O 339.324 1.11967 -1.60749 0
M  V30 3604 H 337.904 -0.457174 -0.590763 0
M  V30 3605 H 340.566 -1.66947 -1.00571 0
M  V30 3606 H 339.662 -1.8352 -2.52442 0
M  V30 3607 N 339.963 1.05934 -1.16686 0
M  V30 3608 C 340.873 2.17014 -0.891183 0
M  V30 3609 C 341.889 1.73453 0.137907 0
M  V30 3610 O 343.065 2.01361 -0.039592 0
M  V30 3611 C 340.13 3.44384 -0.400099 0
M  V30 3612 C 339.191 4.02433 -1.49486 0
M  V30 3613 C 338.424 5.23723 -1.02711 0
M  V30 3614 O 338.647 5.7027 0.121716 0
M  V30 3615 O 337.581 5.7382 -1.81699 0
M  V30 3616 H 341.407 2.43113 -1.82015 0
M  V30 3617 H 338.992 1.15541 -0.947132 0
M  V30 3618 H 340.874 4.21189 -0.133392 0
M  V30 3619 H 339.549 3.19802 0.500817 0
M  V30 3620 H 338.456 3.27102 -1.81535 0
M  V30 3621 H 339.789 4.31317 -2.37121 0
M  V30 3622 N 341.441 0.965919 1.2453 0
M  V30 3623 C 342.669 0.644385 1.96609 0
M  V30 3624 C 343.084 -0.785823 1.71669 0
M  V30 3625 O 342.441 -1.52703 0.999399 0
M  V30 3626 C 342.492 0.907375 3.49927 0
M  V30 3627 O 342.213 2.28136 3.74013 0
M  V30 3628 C 343.714 0.599784 4.39224 0
M  V30 3629 H 340.934 0.240588 0.626385 0
M  V30 3630 H 343.478 1.29337 1.58405 0
M  V30 3631 H 341.633 0.304631 3.862 0
M  V30 3632 H 342.047 2.36002 4.68405 0
M  V30 3633 H 343.521 0.834263 5.45659 0
M  V30 3634 H 343.998 -0.465921 4.36722 0
M  V30 3635 H 344.604 1.18235 4.08535 0
M  V30 3636 N 342.919 -1.39368 0.735821 0
M  V30 3637 C 344.144 -2.05319 0.293052 0
M  V30 3638 C 344.569 -1.55115 -1.064 0
M  V30 3639 O 343.927 -0.695261 -1.67439 0
M  V30 3640 C 343.975 -3.59305 0.305323 0
M  V30 3641 O 343.079 -4.06299 -0.706761 0
M  V30 3642 H 342.42 -0.650529 0.13307 0
M  V30 3643 H 344.95 -1.78386 1.00197 0
M  V30 3644 H 344.96 -4.07724 0.149997 0
M  V30 3645 H 343.635 -3.95207 1.29553 0
M  V30 3646 H 342.212 -3.69292 -0.517504 0
M  V30 3647 N 344.397 -0.483516 -1.5 0
M  V30 3648 C 345.674 0.129337 -1.95172 0
M  V30 3649 C 346.054 1.55802 -1.4244 0
M  V30 3650 O 345.402 2.19625 -0.630649 0
M  V30 3651 C 345.612 0.0599251 -3.48949 0
M  V30 3652 C 346.96 0.242617 -4.23906 0
M  V30 3653 O 347.984 0.135933 -3.55941 0
M  V30 3654 O 346.843 0.459454 -5.44565 0
M  V30 3655 H 343.937 0.104887 -0.820322 0
M  V30 3656 H 346.483 -0.544807 -1.60717 0
M  V30 3657 H 345.255 -0.937079 -3.79914 0
M  V30 3658 H 344.878 0.774984 -3.89974 0
M  V30 3659 N 345.875 1.56104 -0.216619 0
M  V30 3660 C 346.807 2.17339 0.72776 0
M  V30 3661 C 347.82 1.14109 1.16116 0
M  V30 3662 O 349.009 1.4111 1.09317 0
M  V30 3663 C 346.109 2.73818 1.99693 0
M  V30 3664 C 345.282 4.02168 1.71988 0
M  V30 3665 C 344.341 4.43259 2.83562 0
M  V30 3666 O 343.367 5.10257 2.52244 0
M  V30 3667 N 344.569 4.08535 4.12407 0
M  V30 3668 H 347.334 2.99005 0.203983 0
M  V30 3669 H 344.895 1.61861 -0.0354289 0
M  V30 3670 H 346.887 2.9828 2.73516 0
M  V30 3671 H 345.457 1.96483 2.43132 0
M  V30 3672 H 344.677 3.85612 0.818337 0
M  V30 3673 H 345.965 4.85907 1.50903 0
M  V30 3674 H 345.363 3.54687 4.40696 0
M  V30 3675 H 343.92 4.37901 4.8279 0
M  V30 3676 N 347.353 -0.0568162 1.57498 0
M  V30 3677 C 348.285 -1.09292 2.01464 0
M  V30 3678 C 349.298 -1.34112 0.922913 0
M  V30 3679 O 350.487 -1.32089 1.20062 0
M  V30 3680 C 347.587 -2.44068 2.35125 0
M  V30 3681 C 346.76 -2.38995 3.66333 0
M  V30 3682 C 345.819 -3.55997 3.87495 0
M  V30 3683 O 344.845 -3.36746 4.58901 0
M  V30 3684 N 346.047 -4.76888 3.30996 0
M  V30 3685 H 348.812 -0.718386 2.90963 0
M  V30 3686 H 346.373 -0.245235 1.60032 0
M  V30 3687 H 348.365 -3.21011 2.46443 0
M  V30 3688 H 346.935 -2.73468 1.5144 0
M  V30 3689 H 346.155 -1.47336 3.65631 0
M  V30 3690 H 347.443 -2.3272 4.52458 0
M  V30 3691 H 346.841 -4.95431 2.73065 0
M  V30 3692 H 345.398 -5.51291 3.47738 0
M  V30 3693 N 348.832 -1.54138 -0.328536 0
M  V30 3694 C 349.762 -1.86167 -1.40939 0
M  V30 3695 C 350.743 -0.718044 -1.54202 0
M  V30 3696 O 351.928 -0.971328 -1.68163 0
M  V30 3697 C 349.058 -2.08461 -2.77779 0
M  V30 3698 C 348.012 -3.24299 -2.7931 0
M  V30 3699 C 347.338 -3.31955 -4.19178 0
M  V30 3700 C 348.638 -4.62065 -2.43502 0
M  V30 3701 H 350.332 -2.76689 -1.14383 0
M  V30 3702 H 347.878 -1.33132 -0.548806 0
M  V30 3703 H 349.831 -2.29453 -3.53454 0
M  V30 3704 H 348.555 -1.14684 -3.05802 0
M  V30 3705 H 347.214 -3.03187 -2.0609 0
M  V30 3706 H 346.862 -2.35745 -4.44335 0
M  V30 3707 H 346.562 -4.09805 -4.2111 0
M  V30 3708 H 348.086 -3.55175 -4.96672 0
M  V30 3709 H 349.5 -4.8297 -3.08889 0
M  V30 3710 H 347.897 -5.42429 -2.56693 0
M  V30 3711 H 348.967 -4.64652 -1.38659 0
M  V30 3712 N 350.31 0.590341 -1.46126 0
M  V30 3713 C 351.258 1.72105 -1.5647 0
M  V30 3714 C 352.252 1.63756 -0.433612 0
M  V30 3715 O 353.458 1.69342 -0.610194 0
M  V30 3716 H 349.833 0.568889 -0.491802 0
M  V30 3717 H 351.804 1.6051 -2.51553 0
M  V30 3718 C 350.553 3.10493 -1.56491 0
M  V30 3719 H 349.876 3.17583 -2.4286 0
M  V30 3720 H 351.316 3.8939 -1.67785 0
M  V30 3721 C 349.775 3.3563 -0.292231 0
M  V30 3722 O 350.305 3.96875 0.620739 0
M  V30 3723 N 348.511 2.90026 -0.182523 0
M  V30 3724 H 348.058 2.40367 -0.926356 0
M  V30 3725 H 348.016 3.07218 0.668152 0
M  V30 3726 N 351.788 1.33704 0.83433 0
M  V30 3727 C 352.72 1.20172 1.9517 0
M  V30 3728 C 353.733 0.131572 1.62267 0
M  V30 3729 O 354.922 0.382406 1.74356 0
M  V30 3730 C 352.022 0.821716 3.28787 0
M  V30 3731 C 351.195 1.98446 3.89792 0
M  V30 3732 C 350.254 1.58469 5.01771 0
M  V30 3733 O 349.28 2.29968 5.20676 0
M  V30 3734 N 350.482 0.492291 5.78409 0
M  V30 3735 H 353.247 2.16429 2.07313 0
M  V30 3736 H 350.808 1.26509 1.0103 0
M  V30 3737 H 352.8 0.536291 4.01131 0
M  V30 3738 H 351.37 -0.0503058 3.1256 0
M  V30 3739 H 350.59 2.43526 3.09982 0
M  V30 3740 H 351.878 2.76236 4.27283 0
M  V30 3741 H 351.276 -0.102349 5.65607 0
M  V30 3742 H 349.833 0.266555 6.51255 0
M  V30 3743 N 353.266 -1.05314 1.17247 0
M  V30 3744 C 354.491 -1.82509 0.985148 0
M  V30 3745 C 354.916 -1.82343 -0.461788 0
M  V30 3746 O 354.274 -1.23151 -1.33055 0
M  V30 3747 C 354.322 -3.26566 1.52929 0
M  V30 3748 O 353.426 -4.05666 0.742225 0
M  V30 3749 H 352.767 -0.564347 0.349869 0
M  V30 3750 H 355.297 -1.32718 1.55715 0
M  V30 3751 H 355.307 -3.77369 1.55103 0
M  V30 3752 H 353.982 -3.26001 2.58256 0
M  V30 3753 H 352.559 -3.64397 0.791794 0
M  V30 3754 N 354.744 -0.972509 -1.24016 0
M  V30 3755 C 355.677 -0.45117 -2.23696 0
M  V30 3756 C 356.655 0.477378 -1.55434 0
M  V30 3757 O 357.839 0.407647 -1.84039 0
M  V30 3758 C 354.966 0.34818 -3.36906 0
M  V30 3759 C 354.012 -0.523355 -4.23277 0
M  V30 3760 S 354.845 -1.96647 -4.98087 0
M  V30 3761 C 356.001 -1.17604 -6.14752 0
M  V30 3762 H 356.234 -1.29588 -2.67571 0
M  V30 3763 H 353.767 -0.777903 -1.33372 0
M  V30 3764 H 355.725 0.803387 -4.02562 0
M  V30 3765 H 354.386 1.16792 -2.91579 0
M  V30 3766 H 353.579 0.0906181 -5.03919 0
M  V30 3767 H 353.181 -0.914485 -3.62647 0
M  V30 3768 H 355.473 -0.433434 -6.76112 0
M  V30 3769 H 356.416 -1.95701 -6.8052 0
M  V30 3770 H 356.824 -0.698295 -5.60164 0
M  V30 3771 N 356.222 1.38976 -0.743202 0
M  V30 3772 C 357.499 1.94351 -0.220705 0
M  V30 3773 C 357.879 1.67935 1.2791 0
M  V30 3774 O 357.227 1.01211 2.04862 0
M  V30 3775 C 357.437 3.44426 -0.563171 0
M  V30 3776 C 358.785 4.2144 -0.517046 0
M  V30 3777 O 359.809 3.52661 -0.500846 0
M  V30 3778 O 358.668 5.44032 -0.518806 0
M  V30 3779 H 355.762 0.825879 -0.043047 0
M  V30 3780 H 358.308 1.48429 -0.822618 0
M  V30 3781 H 357.08 3.5712 -1.59941 0
M  V30 3782 H 356.703 3.97543 0.0672883 0
M  V30 3783 N 357.7 0.491464 1.49741 0
M  V30 3784 C 358.928 -0.0535151 2.06831 0
M  V30 3785 C 359.343 -1.31683 1.35296 0
M  V30 3786 O 358.7 -1.77402 0.42836 0
M  V30 3787 C 358.751 -0.320835 3.60073 0
M  V30 3788 O 358.472 0.892394 4.28915 0
M  V30 3789 C 359.973 -0.910519 4.33848 0
M  V30 3790 H 357.193 0.0161909 0.670805 0
M  V30 3791 H 359.737 0.68609 1.92647 0
M  V30 3792 H 357.892 -1.0104 3.73991 0
M  V30 3793 H 358.306 0.649401 5.20464 0
M  V30 3794 H 359.78 -1.04721 5.41976 0
M  V30 3795 H 360.257 -1.90589 3.95692 0
M  V30 3796 H 360.863 -0.258712 4.24512 0
M  V30 3797 N 359.178 -1.55987 0.224894 0
M  V30 3798 C 360.426 -1.97998 -0.405099 0
M  V30 3799 C 360.747 -1.11387 -1.60056 0
M  V30 3800 O 360.017 -0.191645 -1.9496 0
M  V30 3801 H 358.597 -0.731235 -0.152658 0
M  V30 3802 H 361.259 -1.92279 0.318567 0
M  V30 3803 H 360.355 -3.03463 -0.729167 0
M  V30 3804 N 360.656 0.0484629 -1.57525 0
M  V30 3805 C 361.881 0.759177 -1.93006 0
M  V30 3806 C 362.306 1.69125 -0.823317 0
M  V30 3807 O 361.664 1.79931 0.222364 0
M  V30 3808 C 361.712 1.50899 -3.27509 0
M  V30 3809 O 360.816 2.62112 -3.18388 0
M  V30 3810 H 360.157 0.205564 -0.631379 0
M  V30 3811 H 362.687 0.00972959 -2.04598 0
M  V30 3812 H 362.697 1.88317 -3.6194 0
M  V30 3813 H 361.372 0.825269 -4.0763 0
M  V30 3814 H 359.949 2.27379 -2.95556 0
M  V30 3815 N 362.134 1.5431 0.320358 0
M  V30 3816 C 363.545 1.63872 0.894594 0
M  V30 3817 C 363.896 0.534847 1.88769 0
M  V30 3818 O 363.021 -0.331732 2.13842 0
M  V30 3819 C 363.616 2.97049 1.62934 0
M  V30 3820 C 362.175 3.08796 2.15226 0
M  V30 3821 C 361.322 2.59456 0.978671 0
M  V30 3822 H 364.273 1.58398 0.0978544 0
M  V30 3823 H 364.294 2.87388 2.49376 0
M  V30 3824 H 363.806 3.7737 0.906302 0
M  V30 3825 H 361.907 2.33156 2.90636 0
M  V30 3826 H 362.02 4.14649 2.40006 0
M  V30 3827 H 360.384 2.1543 1.35875 0
M  V30 3828 H 361.167 3.42237 0.269895 0
M  V30 3829 N 363.613 -0.582584 1.46437 0
M  V30 3830 C 364.576 -1.67366 1.56592 0
M  V30 3831 C 365.576 -1.54575 0.443072 0
M  V30 3832 O 366.766 -1.59191 0.707381 0
M  V30 3833 C 363.898 -3.06791 1.48634 0
M  V30 3834 H 365.091 -1.5972 2.5383 0
M  V30 3835 H 362.644 -0.800432 1.34249 0
M  V30 3836 H 363.379 -3.19993 0.526763 0
M  V30 3837 H 363.164 -3.17484 2.30101 0
M  V30 3838 H 364.654 -3.86218 1.58826 0
M  V30 3839 N 365.091 -1.34144 -0.827227 0
M  V30 3840 C 366.001 -1.27428 -1.96975 0
M  V30 3841 C 367.017 -0.182728 -1.73038 0
M  V30 3842 O 368.193 -0.408426 -1.97215 0
M  V30 3843 C 365.258 -1.02526 -3.31194 0
M  V30 3844 C 364.319 -2.20796 -3.68168 0
M  V30 3845 C 363.552 -1.97073 -4.95982 0
M  V30 3846 O 363.775 -0.926822 -5.6282 0
M  V30 3847 O 362.709 -2.83912 -5.30733 0
M  V30 3848 H 366.535 -2.23537 -2.05584 0
M  V30 3849 H 364.12 -1.14307 -0.961989 0
M  V30 3850 H 366.002 -0.904026 -4.11589 0
M  V30 3851 H 364.677 -0.0945389 -3.23562 0
M  V30 3852 H 363.584 -2.38477 -2.88235 0
M  V30 3853 H 364.917 -3.12243 -3.8048 0
M  V30 3854 N 366.569 1.04691 -1.17803 0
M  V30 3855 C 367.499 2.14494 -0.92275 0
M  V30 3856 C 368.48 1.69546 0.137179 0
M  V30 3857 O 369.665 1.94195 -0.0141108 0
M  V30 3858 C 366.795 3.44491 -0.440803 0
M  V30 3859 C 365.749 4.03031 -1.4405 0
M  V30 3860 C 365.075 5.28432 -0.81631 0
M  V30 3861 C 366.375 4.39932 -2.81527 0
M  V30 3862 H 368.069 2.36107 -1.84103 0
M  V30 3863 H 365.615 1.1347 -0.886599 0
M  V30 3864 H 367.568 4.2066 -0.249602 0
M  V30 3865 H 366.292 3.22546 0.513025 0
M  V30 3866 H 364.951 3.28937 -1.61853 0
M  V30 3867 H 364.599 5.02792 0.144511 0
M  V30 3868 H 364.299 5.68559 -1.48371 0
M  V30 3869 H 365.823 6.07284 -0.635496 0
M  V30 3870 H 367.237 5.07113 -2.67412 0
M  V30 3871 H 365.634 4.9109 -3.44892 0
M  V30 3872 H 366.704 3.50045 -3.35554 0
M  V30 3873 N 368.047 0.979072 1.23499 0
M  V30 3874 C 369.272 0.664845 1.96455 0
M  V30 3875 C 369.697 -0.761287 1.72006 0
M  V30 3876 O 369.055 -1.51837 0.990713 0
M  V30 3877 C 369.103 0.959479 3.47601 0
M  V30 3878 O 368.207 0.0508168 4.12369 0
M  V30 3879 H 367.548 0.250185 0.615064 0
M  V30 3880 H 370.078 1.31231 1.5697 0
M  V30 3881 H 370.088 0.895642 3.98048 0
M  V30 3882 H 368.763 1.99876 3.64723 0
M  V30 3883 H 367.34 0.16895 3.72517 0
M  V30 3884 N 369.525 -1.3858 0.750561 0
M  V30 3885 C 370.936 -1.82927 0.373438 0
M  V30 3886 C 371.287 -1.62634 -1.09748 0
M  V30 3887 O 370.412 -1.12588 -1.84805 0
M  V30 3888 C 371.007 -3.32088 0.671029 0
M  V30 3889 C 369.566 -3.74795 0.34722 0
M  V30 3890 C 368.713 -2.61391 0.92575 0
M  V30 3891 H 371.664 -1.27351 0.946958 0
M  V30 3892 H 371.685 -3.80465 -0.0518269 0
M  V30 3893 H 371.197 -3.46826 1.74164 0
M  V30 3894 H 369.298 -3.65638 -0.716933 0
M  V30 3895 H 369.411 -4.71667 0.840656 0
M  V30 3896 H 367.775 -2.52265 0.351327 0
M  V30 3897 H 368.558 -2.78929 2.00133 0
M  V30 3898 N 371.003 -0.499398 -1.49478 0
M  V30 3899 C 372.231 0.0425456 -2.06856 0
M  V30 3900 C 372.646 1.30964 -1.35992 0
M  V30 3901 O 372.003 1.77172 -0.437762 0
M  V30 3902 C 372.054 0.301735 -3.60239 0
M  V30 3903 O 371.775 -0.915127 -4.28436 0
M  V30 3904 C 373.276 0.887499 -4.34325 0
M  V30 3905 H 370.496 -0.0197482 -0.670709 0
M  V30 3906 H 373.04 -0.696297 -1.92281 0
M  V30 3907 H 371.195 0.990556 -3.74522 0
M  V30 3908 H 371.609 -0.676993 -5.20113 0
M  V30 3909 H 373.083 1.01845 -5.42523 0
M  V30 3910 H 373.56 1.88488 -3.96698 0
M  V30 3911 H 374.166 0.236196 -4.24644 0
M  V30 3912 N 372.481 1.55866 -0.233164 0
M  V30 3913 C 373.709 2.02998 0.399905 0
M  V30 3914 C 374.124 1.11274 1.52524 0
M  V30 3915 O 373.481 0.124528 1.82075 0
M  V30 3916 C 373.532 3.4958 0.920639 0
M  V30 3917 O 373.253 4.37808 -0.159834 0
M  V30 3918 C 374.754 4.12411 1.62578 0
M  V30 3919 H 371.974 0.664006 0.0966281 0
M  V30 3920 H 374.518 2.0143 -0.353013 0
M  V30 3921 H 372.673 3.51727 1.62379 0
M  V30 3922 H 373.087 5.23981 0.23337 0
M  V30 3923 H 374.561 5.16711 1.94201 0
M  V30 3924 H 375.038 3.5809 2.54299 0
M  V30 3925 H 375.644 4.14148 0.967553 0
M  V30 3926 N 373.959 -0.0401083 1.57549 0
M  V30 3927 C 374.889 -1.04384 2.08869 0
M  V30 3928 C 375.87 -1.38407 0.988817 0
M  V30 3929 O 377.055 -1.47483 1.26342 0
M  V30 3930 C 374.185 -2.34808 2.55895 0
M  V30 3931 C 373.139 -2.15057 3.70047 0
M  V30 3932 C 372.465 -3.51145 4.03239 0
M  V30 3933 C 373.765 -1.54576 4.98902 0
M  V30 3934 H 375.459 -0.616666 2.92981 0
M  V30 3935 H 373.005 -0.295184 1.40942 0
M  V30 3936 H 374.958 -3.05346 2.90417 0
M  V30 3937 H 373.682 -2.79565 1.68853 0
M  V30 3938 H 372.341 -1.46954 3.35857 0
M  V30 3939 H 371.989 -3.93529 3.13279 0
M  V30 3940 H 371.689 -3.38758 4.80122 0
M  V30 3941 H 373.213 -4.23062 4.40285 0
M  V30 3942 H 374.627 -2.15017 5.31451 0
M  V30 3943 H 373.024 -1.52796 5.80322 0
M  V30 3944 H 374.094 -0.51039 4.82206 0
M  V30 3945 N 375.437 -1.54477 -0.31217 0
M  V30 3946 C 376.662 -1.77526 -1.07235 0
M  V30 3947 C 377.087 -0.527775 -1.80544 0
M  V30 3948 O 376.445 0.52121 -1.73646 0
M  V30 3949 C 376.493 -2.97535 -2.03728 0
M  V30 3950 O 375.597 -2.69878 -3.11833 0
M  V30 3951 H 374.938 -0.58792 -0.30862 0
M  V30 3952 H 377.468 -2.01532 -0.352993 0
M  V30 3953 H 377.478 -3.25198 -2.46395 0
M  V30 3954 H 376.153 -3.87996 -1.49774 0
M  V30 3955 H 374.73 -2.53199 -2.7376 0
M  V30 3956 N 376.915 0.57481 -1.46744 0
M  V30 3957 C 378.326 1.15695 -1.46532 0
M  V30 3958 C 378.677 1.95068 -0.210425 0
M  V30 3959 O 377.802 2.05241 0.685944 0
M  V30 3960 C 378.397 2.1048 -2.65487 0
M  V30 3961 C 376.956 2.64002 -2.68291 0
M  V30 3962 C 376.103 1.40026 -2.39349 0
M  V30 3963 H 379.054 0.362325 -1.54509 0
M  V30 3964 H 379.075 2.94074 -2.41455 0
M  V30 3965 H 378.587 1.52683 -3.56805 0
M  V30 3966 H 376.688 3.25646 -1.81067 0
M  V30 3967 H 376.801 3.06197 -3.68483 0
M  V30 3968 H 375.165 1.70106 -1.89568 0
M  V30 3969 H 375.948 0.840485 -3.32852 0
M  V30 3970 N 378.394 1.34581 0.820102 0
M  V30 3971 C 379.64 1.27285 1.57881 0
M  V30 3972 C 379.973 -0.156137 1.93571 0
M  V30 3973 O 379.248 -1.10222 1.60254 0
M  V30 3974 C 379.531 2.16639 2.87645 0
M  V30 3975 C 379.384 3.68088 2.58517 0
M  V30 3976 C 380.703 2.05378 3.8924 0
M  V30 3977 H 377.822 0.463714 0.572833 0
M  V30 3978 H 380.464 1.64859 0.944539 0
M  V30 3979 H 378.614 1.84725 3.41773 0
M  V30 3980 H 380.286 4.10382 2.10676 0
M  V30 3981 H 378.529 3.89038 1.91917 0
M  V30 3982 H 379.2 4.2598 3.51063 0
M  V30 3983 H 381.676 2.33404 3.44473 0
M  V30 3984 H 380.552 2.7012 4.77835 0
M  V30 3985 H 380.813 1.0316 4.29896 0
M  V30 3986 N 379.872 -1.04064 1.18357 0
M  V30 3987 C 380.82 -2.14187 0.907007 0
M  V30 3988 C 381.814 -1.68879 -0.132725 0
M  V30 3989 O 383.02 -1.79993 0.0154248 0
M  V30 3990 H 379.395 -0.699585 0.275835 0
M  V30 3991 H 381.366 -2.34711 1.84264 0
M  V30 3992 C 380.115 -3.44785 0.449254 0
M  V30 3993 H 379.438 -3.80058 1.24081 0
M  V30 3994 H 380.878 -4.22974 0.294737 0
M  V30 3995 C 379.337 -3.26391 -0.834909 0
M  V30 3996 O 379.867 -3.53973 -1.89911 0
M  V30 3997 N 378.073 -2.79726 -0.787523 0
M  V30 3998 H 377.62 -2.5748 0.0787347 0
M  V30 3999 H 377.578 -2.67798 -1.64716 0
M  V30 4000 N 381.35 -0.985608 -1.22978 0
M  V30 4001 C 382.3 -0.50118 -2.22423 0
M  V30 4002 C 383.284 0.426649 -1.5514 0
M  V30 4003 O 384.476 0.254656 -1.75159 0
M  V30 4004 C 381.605 0.190003 -3.42774 0
M  V30 4005 C 380.691 -0.757703 -4.17276 0
M  V30 4006 N 381.082 -1.90251 -4.68656 0
M  V30 4007 C 379.38 -0.57209 -4.42316 0
M  V30 4008 C 380.081 -2.49676 -5.25392 0
M  V30 4009 N 379.057 -1.78013 -5.13627 0
M  V30 4010 H 382.859 -1.37441 -2.59783 0
M  V30 4011 H 380.373 -0.846941 -1.38567 0
M  V30 4012 H 382.37 0.55439 -4.13197 0
M  V30 4013 H 381.03 1.05946 -3.06929 0
M  V30 4014 H 382.041 -2.28354 -4.64839 0
M  V30 4015 H 378.718 0.251909 -4.16739 0
M  V30 4016 H 380.108 -3.46384 -5.75732 0
M  V30 4017 N 382.828 1.3818 -0.7579 0
M  V30 4018 C 384.053 2.04827 -0.325679 0
M  V30 4019 C 384.478 1.56788 1.03919 0
M  V30 4020 O 383.836 0.721811 1.66312 0
M  V30 4021 C 383.884 3.58774 -0.362447 0
M  V30 4022 O 382.988 4.07372 0.642033 0
M  V30 4023 H 382.329 0.64833 -0.143402 0
M  V30 4024 H 384.859 1.7677 -1.03023 0
M  V30 4025 H 384.869 4.07434 -0.214844 0
M  V30 4026 H 383.544 3.93096 -1.35824 0
M  V30 4027 H 382.121 3.70068 0.458688 0
M  V30 4028 N 384.306 0.507319 1.49211 0
M  V30 4029 C 385.236 -0.256939 2.32082 0
M  V30 4030 C 386.217 -0.956609 1.40652 0
M  V30 4031 O 387.402 -0.946788 1.69557 0
M  V30 4032 C 384.532 -1.31802 3.21318 0
M  V30 4033 C 383.486 -0.737855 4.21592 0
M  V30 4034 C 382.812 -1.89992 4.99807 0
M  V30 4035 C 384.112 0.275325 5.21574 0
M  V30 4036 H 385.806 0.434798 2.96226 0
M  V30 4037 H 383.352 0.210546 1.42452 0
M  V30 4038 H 385.305 -1.86045 3.78107 0
M  V30 4039 H 384.029 -2.03903 2.5513 0
M  V30 4040 H 382.688 -0.217126 3.65956 0
M  V30 4041 H 382.336 -2.60877 4.30061 0
M  V30 4042 H 382.036 -1.51777 5.6766 0
M  V30 4043 H 383.56 -2.44657 5.59442 0
M  V30 4044 H 384.974 -0.179193 5.7302 0
M  V30 4045 H 383.371 0.573649 5.97352 0
M  V30 4046 H 384.441 1.18903 4.70096 0
M  V30 4047 N 385.784 -1.5574 0.241426 0
M  V30 4048 C 387.061 -1.90704 -0.434881 0
M  V30 4049 C 387.441 -1.16145 -1.76277 0
M  V30 4050 O 386.789 -0.277152 -2.26813 0
M  V30 4051 C 386.999 -3.43657 -0.608343 0
M  V30 4052 C 388.347 -4.14806 -0.906725 0
M  V30 4053 O 389.371 -3.49366 -0.694408 0
M  V30 4054 O 388.23 -5.30548 -1.31075 0
M  V30 4055 H 385.324 -0.793592 -0.23268 0
M  V30 4056 H 387.87 -1.67288 0.285086 0
M  V30 4057 H 386.642 -3.89927 0.327505 0
M  V30 4058 H 386.265 -3.72918 -1.37906 0
M  V30 4059 N 387.262 0.0317525 -1.57568 0
M  V30 4060 C 388.192 1.03274 -2.0942 0
M  V30 4061 C 389.173 1.3788 -0.996143 0
M  V30 4062 O 390.358 1.46811 -1.27122 0
M  V30 4063 C 387.488 2.33448 -2.57137 0
M  V30 4064 C 386.442 2.13091 -3.71182 0
M  V30 4065 C 385.768 3.49001 -4.05095 0
M  V30 4066 C 387.068 1.51928 -4.99715 0
M  V30 4067 H 388.762 0.60112 -2.93303 0
M  V30 4068 H 386.308 0.287705 -1.41097 0
M  V30 4069 H 388.261 3.03802 -2.92032 0
M  V30 4070 H 386.985 2.78665 -1.70333 0
M  V30 4071 H 385.644 1.45171 -3.36632 0
M  V30 4072 H 385.292 3.91862 -3.15362 0
M  V30 4073 H 384.992 3.36207 -4.81911 0
M  V30 4074 H 386.516 4.20721 -4.42522 0
M  V30 4075 H 387.93 2.12196 -5.32584 0
M  V30 4076 H 386.327 1.49716 -5.81124 0
M  V30 4077 H 387.397 0.484811 -4.8247 0
M  V30 4078 N 388.74 1.54641 0.303973 0
M  V30 4079 C 389.672 1.81754 1.39636 0
M  V30 4080 C 390.685 0.70035 1.46966 0
M  V30 4081 O 391.874 0.97778 1.49338 0
M  V30 4082 C 388.974 1.93785 2.7803 0
M  V30 4083 C 388.147 3.24156 2.93669 0
M  V30 4084 C 387.206 3.26641 4.12544 0
M  V30 4085 O 386.232 4.00187 4.04771 0
M  V30 4086 N 387.434 2.5182 5.23036 0
M  V30 4087 H 390.199 2.76031 1.16734 0
M  V30 4088 H 387.76 1.54178 0.494033 0
M  V30 4089 H 389.752 1.92852 3.55795 0
M  V30 4090 H 388.322 1.06515 2.93893 0
M  V30 4091 H 387.542 3.37887 2.03042 0
M  V30 4092 H 388.83 4.10195 3.01027 0
M  V30 4093 H 388.228 1.91692 5.32232 0
M  V30 4094 H 386.785 2.56644 5.99147 0
M  V30 4095 N 390.218 -0.567019 1.47046 0
M  V30 4096 C 391.629 -1.14916 1.47143 0
M  V30 4097 C 391.98 -1.94954 0.220767 0
M  V30 4098 O 391.105 -2.05602 -0.67505 0
M  V30 4099 C 391.7 -2.09069 2.666 0
M  V30 4100 C 390.259 -2.62575 2.69687 0
M  V30 4101 C 389.406 -1.38755 2.40088 0
M  V30 4102 H 392.357 -0.354126 1.54699 0
M  V30 4103 H 392.378 -2.92789 2.43011 0
M  V30 4104 H 391.89 -1.50789 3.57609 0
M  V30 4105 H 389.991 -3.24681 1.82792 0
M  V30 4106 H 390.104 -3.04239 3.70102 0
M  V30 4107 H 388.468 -1.69098 1.90468 0
M  V30 4108 H 389.251 -0.822822 3.33293 0
M  V30 4109 N 391.696 -1.35014 -0.812953 0
M  V30 4110 C 392.942 -1.2812 -1.57204 0
M  V30 4111 C 393.275 0.145869 -1.93651 0
M  V30 4112 O 392.55 1.0937 -1.60836 0
M  V30 4113 C 392.833 -2.18162 -2.86492 0
M  V30 4114 C 392.686 -3.69454 -2.56561 0
M  V30 4115 C 394.005 -2.07439 -3.88145 0
M  V30 4116 H 391.124 -0.466746 -0.570366 0
M  V30 4117 H 393.766 -1.65357 -0.935783 0
M  V30 4118 H 391.916 -1.86535 -3.40789 0
M  V30 4119 H 393.588 -4.11493 -2.08497 0
M  V30 4120 H 391.831 -3.9005 -1.89851 0
M  V30 4121 H 392.502 -4.27835 -3.48799 0
M  V30 4122 H 394.978 -2.35228 -3.4323 0
M  V30 4123 H 393.854 -2.7265 -4.76396 0
M  V30 4124 H 394.115 -1.05439 -4.29343 0
M  V30 4125 N 393.175 1.03435 -1.18907 0
M  V30 4126 C 394.403 1.80381 -1.01342 0
M  V30 4127 C 394.818 1.83649 0.438005 0
M  V30 4128 O 394.175 1.27655 1.30424 0
M  V30 4129 C 394.226 3.25689 -1.56873 0
M  V30 4130 O 393.947 3.22673 -2.96334 0
M  V30 4131 C 395.448 4.19255 -1.44014 0
M  V30 4132 H 392.668 0.56784 -0.35749 0
M  V30 4133 H 395.212 1.30317 -1.576 0
M  V30 4134 H 393.367 3.72962 -1.04777 0
M  V30 4135 H 393.781 4.13748 -3.22355 0
M  V30 4136 H 395.255 5.19123 -1.87657 0
M  V30 4137 H 395.732 4.37467 -0.389815 0
M  V30 4138 H 396.338 3.77851 -1.95214 0
M  V30 4139 N 394.653 0.992116 1.22453 0
M  V30 4140 C 395.883 0.684949 1.94915 0
M  V30 4141 C 396.291 -0.754292 1.73514 0
M  V30 4142 O 395.634 -1.52056 1.03076 0
M  V30 4143 C 395.696 0.910054 3.47791 0
M  V30 4144 C 395.36 2.33363 3.92926 0
M  V30 4145 C 396.357 3.31308 4.00663 0
M  V30 4146 C 394.042 2.66785 4.25595 0
M  V30 4147 C 396.036 4.6075 4.40441 0
M  V30 4148 C 393.723 3.96446 4.65053 0
M  V30 4149 C 394.721 4.9324 4.72444 0
M  V30 4150 O 394.409 6.20584 5.1101 0
M  V30 4151 H 394.141 0.25258 0.62704 0
M  V30 4152 H 396.695 1.32939 1.56577 0
M  V30 4153 H 394.925 0.208443 3.86138 0
M  V30 4154 H 396.614 0.598257 4.01467 0
M  V30 4155 H 397.38 3.0682 3.75615 0
M  V30 4156 H 393.259 1.92148 4.19047 0
M  V30 4157 H 396.803 5.363 4.46126 0
M  V30 4158 H 392.7 4.20724 4.89552 0
M  V30 4159 H 393.468 6.24509 5.29085 0
M  V30 4160 N 396.131 -1.37776 0.765217 0
M  V30 4161 C 397.356 -2.04651 0.336537 0
M  V30 4162 C 397.781 -1.57337 -1.03086 0
M  V30 4163 O 397.139 -0.730621 -1.65927 0
M  V30 4164 C 397.187 -3.58577 0.381468 0
M  V30 4165 O 396.291 -4.07706 -0.62042 0
M  V30 4166 H 395.632 -0.64756 0.146838 0
M  V30 4167 H 398.162 -1.76221 1.03959 0
M  V30 4168 H 398.172 -4.07314 0.236448 0
M  V30 4169 H 396.847 -3.9237 1.37907 0
M  V30 4170 H 395.424 -3.70306 -0.439056 0
M  V30 4171 N 397.609 -0.515225 -1.4894 0
M  V30 4172 C 398.519 0.259774 -2.33157 0
M  V30 4173 C 399.535 0.953501 -1.45548 0
M  V30 4174 O 400.711 0.931735 -1.78552 0
M  V30 4175 C 397.776 1.30193 -3.21326 0
M  V30 4176 C 396.837 0.620129 -4.24797 0
M  V30 4177 C 396.07 1.61263 -5.08753 0
M  V30 4178 O 396.293 2.84389 -4.94448 0
M  V30 4179 O 395.227 1.16013 -5.90614 0
M  V30 4180 H 399.053 -0.429932 -3.00641 0
M  V30 4181 H 396.638 -0.276346 -1.46822 0
M  V30 4182 H 398.52 1.90455 -3.75905 0
M  V30 4183 H 397.195 1.97431 -2.56521 0
M  V30 4184 H 396.102 -0.0226019 -3.74093 0
M  V30 4185 H 397.435 -0.0100493 -4.92199 0
M  V30 4186 N 399.087 1.5561 -0.249682 0
M  V30 4187 C 400.498 1.84979 0.252949 0
M  V30 4188 C 400.849 1.17153 1.57384 0
M  V30 4189 O 399.974 0.450884 2.11651 0
M  V30 4190 C 400.569 3.35584 0.465732 0
M  V30 4191 C 399.128 3.65169 0.912624 0
M  V30 4192 C 398.275 2.77299 -0.00859085 0
M  V30 4193 H 401.226 1.51513 -0.47217 0
M  V30 4194 H 401.247 3.57313 1.30795 0
M  V30 4195 H 400.759 3.8492 -0.49579 0
M  V30 4196 H 398.86 3.21312 1.88652 0
M  V30 4197 H 398.973 4.72912 0.767559 0
M  V30 4198 H 397.337 2.49678 0.50327 0
M  V30 4199 H 398.12 3.29442 -0.965537 0
M  V30 4200 N 400.565 -0.0233959 1.57583 0
M  V30 4201 C 401.528 -1.00693 2.05897 0
M  V30 4202 C 402.528 -1.28693 0.964092 0
M  V30 4203 O 403.718 -1.23602 1.22753 0
M  V30 4204 C 400.85 -2.33825 2.4807 0
M  V30 4205 H 402.043 -0.589476 2.9405 0
M  V30 4206 H 399.596 -0.270354 1.53944 0
M  V30 4207 H 400.331 -2.80307 1.6309 0
M  V30 4208 H 400.116 -2.1483 3.2801 0
M  V30 4209 H 401.606 -3.04426 2.85857 0
M  V30 4210 N 402.043 -1.548 -0.295768 0
M  V30 4211 C 403.29 -1.74329 -1.03032 0
M  V30 4212 C 403.618 -0.531915 -1.87085 0
M  V30 4213 O 402.873 0.486052 -1.89568 0
M  V30 4214 C 403.172 -2.98797 -1.961 0
M  V30 4215 C 402.838 -4.32356 -1.2798 0
M  V30 4216 C 401.5 -4.68661 -1.09135 0
M  V30 4217 C 403.852 -5.15128 -0.793243 0
M  V30 4218 C 401.18 -5.85312 -0.403269 0
M  V30 4219 C 403.532 -6.32488 -0.118854 0
M  V30 4220 C 402.196 -6.6745 0.0815043 0
M  V30 4221 H 401.466 -0.637916 -0.37702 0
M  V30 4222 H 404.113 -1.8906 -0.304696 0
M  V30 4223 H 402.418 -2.78869 -2.75207 0
M  V30 4224 H 404.115 -3.11102 -2.53015 0
M  V30 4225 H 400.705 -4.03808 -1.43655 0
M  V30 4226 H 404.889 -4.87575 -0.92653 0
M  V30 4227 H 400.145 -6.1094 -0.237098 0
M  V30 4228 H 404.319 -6.95892 0.266035 0
M  V30 4229 H 401.946 -7.57695 0.616685 0
M  V30 4230 N 403.521 0.559213 -1.47345 0
M  V30 4231 C 404.767 1.31614 -1.55079 0
M  V30 4232 C 405.122 1.91257 -0.209422 0
M  V30 4233 O 404.415 1.74796 0.784656 0
M  V30 4234 C 404.609 2.44853 -2.6035 0
M  V30 4235 C 404.438 1.96305 -4.04591 0
M  V30 4236 C 403.208 1.8024 -4.72061 0
M  V30 4237 C 405.406 1.50872 -4.91673 0
M  V30 4238 N 403.388 1.26011 -6.00828 0
M  V30 4239 C 404.759 1.08395 -6.10451 0
M  V30 4240 C 406.814 1.38905 -4.78132 0
M  V30 4241 C 405.517 0.551399 -7.17183 0
M  V30 4242 C 407.543 0.870518 -5.84958 0
M  V30 4243 C 406.905 0.455661 -7.02925 0
M  V30 4244 H 403.004 0.473712 -0.62219 0
M  V30 4245 H 405.588 0.634103 -1.84085 0
M  V30 4246 H 403.759 3.10589 -2.33215 0
M  V30 4247 H 405.491 3.11849 -2.57938 0
M  V30 4248 H 402.246 2.02895 -4.27937 0
M  V30 4249 H 402.67 1.00991 -6.69425 0
M  V30 4250 H 407.312 1.69591 -3.87297 0
M  V30 4251 H 405.03 0.232159 -8.07766 0
M  V30 4252 H 408.616 0.781507 -5.76527 0
M  V30 4253 H 407.496 0.0606414 -7.84177 0
M  V30 4254 N 404.999 1.35443 0.805782 0
M  V30 4255 C 406.239 1.30127 1.57627 0
M  V30 4256 C 406.603 -0.122567 1.91608 0
M  V30 4257 O 407.804 -0.300107 2.67119 0
M  V30 4258 C 406.075 2.18314 2.82973 0
M  V30 4259 S 407.634 2.30521 3.7337 0
M  V30 4260 H 404.452 0.462439 0.540066 0
M  V30 4261 H 407.054 1.70843 0.95042 0
M  V30 4262 H 405.758 3.20741 2.56034 0
M  V30 4263 H 405.289 1.78558 3.50543 0
M  V30 4264 H 407.304 1.49062 4.73281 0
M  V30 4265 N 406.477 -1.02803 1.19454 0
M  V30 4266 C 407.702 -1.80378 1.02364 0
M  V30 4267 C 408.127 -1.83282 -0.423007 0
M  V30 4268 O 407.485 -1.25945 -1.30413 0
M  V30 4269 C 407.533 -3.23248 1.59821 0
M  V30 4270 O 406.637 -4.04 0.828105 0
M  V30 4271 H 405.978 -0.556799 0.361761 0
M  V30 4272 H 408.508 -1.29385 1.58495 0
M  V30 4273 H 408.518 -3.73994 1.63073 0
M  V30 4274 H 407.193 -3.2045 2.65113 0
M  V30 4275 H 405.77 -3.62635 0.86891 0
M  V30 4276 N 407.956 -0.998596 -1.21925 0
M  V30 4277 C 409.205 -0.673085 -1.90138 0
M  V30 4278 C 409.518 0.79895 -1.78539 0
M  V30 4279 O 410.724 1.23628 -2.4172 0
M  V30 4280 C 409.18 -1.15339 -3.40918 0
M  V30 4281 C 408.788 -2.65106 -3.61141 0
M  V30 4282 C 410.532 -0.902476 -4.14796 0
M  V30 4283 C 408.439 -3.0671 -5.05651 0
M  V30 4284 H 407.369 -0.248057 -0.712028 0
M  V30 4285 H 410.02 -1.20891 -1.38049 0
M  V30 4286 H 408.402 -0.545658 -3.92223 0
M  V30 4287 H 409.576 -3.31274 -3.20304 0
M  V30 4288 H 407.891 -2.88142 -3.00605 0
M  V30 4289 H 410.488 -1.18895 -5.21314 0
M  V30 4290 H 410.831 0.161349 -4.15987 0
M  V30 4291 H 411.364 -1.47269 -3.69536 0
M  V30 4292 H 408.103 -4.12292 -5.09603 0
M  V30 4293 H 407.623 -2.45249 -5.47369 0
M  V30 4294 H 409.302 -2.9833 -5.74115 0
M  V30 4295 N 409.434 1.37368 -0.772513 0
M  V30 4296 C 410.397 2.28601 -0.165541 0
M  V30 4297 C 411.397 1.48062 0.627238 0
M  V30 4298 O 412.587 1.68268 0.450715 0
M  V30 4299 C 409.719 3.32023 0.772897 0
M  V30 4300 H 410.912 2.83787 -0.969787 0
M  V30 4301 H 408.465 1.46647 -0.540775 0
M  V30 4302 H 409.2 2.81962 1.60212 0
M  V30 4303 H 408.985 3.91555 0.206585 0
M  V30 4304 H 410.475 4.00197 1.19298 0
M  V30 4305 N 410.912 0.523116 1.48665 0
M  V30 4306 C 412.142 -0.00961724 2.06598 0
M  V30 4307 C 412.55 -1.29333 1.38093 0
M  V30 4308 O 411.893 -1.77846 0.46007 0
M  V30 4309 C 411.955 -0.311135 3.58151 0
M  V30 4310 C 411.619 0.878092 4.48485 0
M  V30 4311 C 412.616 1.77464 4.88674 0
M  V30 4312 C 410.301 1.08315 4.90483 0
M  V30 4313 C 412.295 2.86021 5.69623 0
M  V30 4314 C 409.982 2.17187 5.71203 0
M  V30 4315 C 410.98 3.05873 6.10681 0
M  V30 4316 O 410.668 4.12862 6.89783 0
M  V30 4317 H 410.4 0.0272658 0.67545 0
M  V30 4318 H 412.954 0.726156 1.92136 0
M  V30 4319 H 411.184 -1.10079 3.70701 0
M  V30 4320 H 412.873 -0.785125 3.98234 0
M  V30 4321 H 413.639 1.62813 4.56855 0
M  V30 4322 H 409.518 0.402149 4.59243 0
M  V30 4323 H 413.062 3.55272 6.00356 0
M  V30 4324 H 408.959 2.31824 6.02435 0
M  V30 4325 H 409.727 4.10487 7.08126 0
M  V30 4326 N 412.39 -1.55475 0.257931 0
M  V30 4327 C 413.62 -2.03314 -0.367026 0
M  V30 4328 C 414.028 -1.13625 -1.51281 0
M  V30 4329 O 413.371 -0.145334 -1.83124 0
M  V30 4330 C 413.433 -3.47362 -0.926284 0
M  V30 4331 C 413.097 -4.56914 0.0886584 0
M  V30 4332 C 414.094 -5.12013 0.902123 0
M  V30 4333 C 411.779 -5.01827 0.217936 0
M  V30 4334 C 413.773 -6.10529 1.83122 0
M  V30 4335 C 411.46 -6.00172 1.15052 0
M  V30 4336 C 412.458 -6.54402 1.95568 0
M  V30 4337 O 412.146 -7.50827 2.87253 0
M  V30 4338 H 411.878 -0.669976 -0.0900443 0
M  V30 4339 H 414.432 -2.01804 0.382673 0
M  V30 4340 H 412.662 -3.46056 -1.72575 0
M  V30 4341 H 414.351 -3.78637 -1.46249 0
M  V30 4342 H 415.117 -4.78139 0.812891 0
M  V30 4343 H 410.996 -4.59272 -0.398721 0
M  V30 4344 H 414.54 -6.52783 2.46008 0
M  V30 4345 H 410.437 -6.33465 1.24064 0
M  V30 4346 H 411.205 -7.68483 2.81739 0
M  V30 4347 N 413.868 0.0150385 -1.57593 0
M  V30 4348 C 414.778 1.02791 -2.10882 0
M  V30 4349 C 415.794 1.38702 -1.0506 0
M  V30 4350 O 416.97 1.47739 -1.36877 0
M  V30 4351 C 414.035 2.30568 -2.58919 0
M  V30 4352 C 413.096 2.01108 -3.79281 0
M  V30 4353 C 412.329 3.22794 -4.25018 0
M  V30 4354 O 412.552 4.33959 -3.70183 0
M  V30 4355 O 411.486 3.07672 -5.17322 0
M  V30 4356 H 415.312 0.604973 -2.97613 0
M  V30 4357 H 412.897 0.23292 -1.47573 0
M  V30 4358 H 414.779 3.05662 -2.90084 0
M  V30 4359 H 413.454 2.72129 -1.75293 0
M  V30 4360 H 412.361 1.23537 -3.53114 0
M  V30 4361 H 413.694 1.64394 -4.63935 0
M  V30 4362 N 415.346 1.54954 0.287554 0
M  V30 4363 C 416.276 1.89839 1.35954 0
M  V30 4364 C 417.257 0.758675 1.52244 0
M  V30 4365 O 418.442 1.01557 1.65529 0
M  V30 4366 C 415.572 2.15753 2.72154 0
M  V30 4367 C 414.526 3.3159 2.70614 0
M  V30 4368 C 413.852 3.42952 4.10229 0
M  V30 4369 C 415.152 4.68359 2.31165 0
M  V30 4370 H 416.846 2.79625 1.07007 0
M  V30 4371 H 414.392 1.3454 0.513316 0
M  V30 4372 H 416.345 2.38743 3.47246 0
M  V30 4373 H 415.069 1.22752 3.02654 0
M  V30 4374 H 413.728 3.08545 1.97979 0
M  V30 4375 H 413.376 2.47443 4.37928 0
M  V30 4376 H 413.076 4.20826 4.10097 0
M  V30 4377 H 414.6 3.68218 4.87081 0
M  V30 4378 H 416.014 4.9099 2.95976 0
M  V30 4379 H 414.411 5.49044 2.42221 0
M  V30 4380 H 415.481 4.68165 1.26291 0
M  V30 4381 N 416.824 -0.551391 1.4764 0
M  V30 4382 C 417.772 -1.67896 1.60978 0
M  V30 4383 C 418.766 -1.62549 0.476877 0
M  V30 4384 O 419.972 -1.67664 0.654878 0
M  V30 4385 H 416.347 -0.555649 0.506713 0
M  V30 4386 H 418.318 -1.53784 2.55721 0
M  V30 4387 C 417.067 -3.06234 1.64669 0
M  V30 4388 H 416.39 -3.11033 2.51194 0
M  V30 4389 H 417.83 -3.84804 1.7805 0
M  V30 4390 C 416.289 -3.34737 0.381115 0
M  V30 4391 O 416.819 -3.98381 -0.515297 0
M  V30 4392 N 415.025 -2.8944 0.259354 0
M  V30 4393 H 414.572 -2.37827 0.98976 0
M  V30 4394 H 414.53 -3.08882 -0.586464 0
M  V30 4395 N 418.302 -1.35869 -0.798587 0
M  V30 4396 C 419.234 -1.25305 -1.91915 0
M  V30 4397 C 420.247 -0.174548 -1.61862 0
M  V30 4398 O 421.436 -0.428499 -1.73281 0
M  V30 4399 C 418.536 -0.9086 -3.26493 0
M  V30 4400 C 417.709 -2.08711 -3.84394 0
M  V30 4401 C 416.768 -1.71717 -4.97393 0
M  V30 4402 O 415.794 -2.43692 -5.14396 0
M  V30 4403 N 416.996 -0.645473 -5.769 0
M  V30 4404 H 419.761 -2.21849 -2.01502 0
M  V30 4405 H 417.322 -1.29143 -0.976408 0
M  V30 4406 H 419.314 -0.642455 -3.99568 0
M  V30 4407 H 417.884 -0.0325815 -3.12583 0
M  V30 4408 H 417.104 -2.51659 -3.03416 0
M  V30 4409 H 418.392 -2.87468 -4.19809 0
M  V30 4410 H 417.79 -0.047648 -5.6568 0
M  V30 4411 H 416.347 -0.43913 -6.50319 0
M  V30 4412 N 419.78 1.02168 -1.19998 0
M  V30 4413 C 421.196 1.27969 -0.953737 0
M  V30 4414 C 421.396 1.98079 0.369703 0
M  V30 4415 O 420.452 2.27306 1.09947 0
M  V30 4416 C 421.765 2.11971 -2.13281 0
M  V30 4417 C 423.313 2.25255 -2.17323 0
M  V30 4418 C 423.788 3.12632 -3.34702 0
M  V30 4419 N 425.279 3.2022 -3.34684 0
M  V30 4420 C 426.014 3.88039 -4.22153 0
M  V30 4421 N 425.51 4.58027 -5.19791 0
M  V30 4422 N 427.303 3.84511 -4.10009 0
M  V30 4423 H 419.454 0.550794 -2.05134 0
M  V30 4424 H 421.717 0.305683 -0.897364 0
M  V30 4425 H 421.423 1.67785 -3.09097 0
M  V30 4426 H 421.297 3.12699 -2.10949 0
M  V30 4427 H 423.684 2.68667 -1.22073 0
M  V30 4428 H 423.765 1.24053 -2.23706 0
M  V30 4429 H 423.409 2.69926 -4.30235 0
M  V30 4430 H 423.339 4.13909 -3.25556 0
M  V30 4431 H 425.83 2.70382 -2.64012 0
M  V30 4432 H 426.143 5.07429 -5.82868 0
M  V30 4433 H 424.488 4.56869 -5.23733 0
M  V30 4434 H 427.679 3.28978 -3.33003 0
M  V30 4435 H 427.852 4.3709 -4.78389 0
M  V30 4436 N 421.258 1.00505 1.21394 0
M  V30 4437 C 422.504 0.688793 1.90745 0
M  V30 4438 C 422.837 -0.778486 1.77914 0
M  V30 4439 O 422.112 -1.56433 1.15581 0
M  V30 4440 C 422.395 1.11063 3.42545 0
M  V30 4441 C 422.248 2.63737 3.64367 0
M  V30 4442 C 423.567 0.673059 4.34923 0
M  V30 4443 H 420.686 0.251702 0.692687 0
M  V30 4444 H 423.328 1.25074 1.43026 0
M  V30 4445 H 421.478 0.632508 3.83317 0
M  V30 4446 H 423.15 3.19313 3.32922 0
M  V30 4447 H 421.393 3.05248 3.08231 0
M  V30 4448 H 422.064 2.88305 4.70727 0
M  V30 4449 H 424.54 1.08392 4.01734 0
M  V30 4450 H 423.416 0.996383 5.39781 0
M  V30 4451 H 423.677 -0.425808 4.40045 0
M  V30 4452 N 422.737 -1.36956 0.779787 0
M  V30 4453 C 423.985 -1.99097 0.347079 0
M  V30 4454 C 424.306 -1.62206 -1.08232 0
M  V30 4455 O 423.576 -0.891373 -1.74446 0
M  V30 4456 H 422.156 -0.736409 0.125342 0
M  V30 4457 H 424.818 -1.67308 0.999696 0
M  V30 4458 H 423.914 -3.09107 0.431162 0
M  V30 4459 N 424.215 -0.530993 -1.48385 0
M  V30 4460 C 425.125 0.23503 -2.3342 0
M  V30 4461 C 426.141 0.93801 -1.46552 0
M  V30 4462 O 427.317 0.912745 -1.7953 0
M  V30 4463 C 424.382 1.26778 -3.22689 0
M  V30 4464 C 423.443 0.575038 -4.25431 0
M  V30 4465 C 422.676 1.55858 -5.10435 0
M  V30 4466 O 422.899 2.79129 -4.97437 0
M  V30 4467 O 421.833 1.09742 -5.91811 0
M  V30 4468 H 425.659 -0.461794 -3.00169 0
M  V30 4469 H 423.244 -0.291903 -1.46521 0
M  V30 4470 H 425.126 1.86457 -3.77904 0
M  V30 4471 H 423.801 1.94699 -2.586 0
M  V30 4472 H 422.708 -0.0622782 -3.74048 0
M  V30 4473 H 424.041 -0.062253 -4.92161 0
M  V30 4474 N 425.693 1.55336 -0.266172 0
M  V30 4475 C 426.921 2.03801 0.356756 0
M  V30 4476 C 427.336 1.14485 1.50129 0
M  V30 4477 O 426.693 0.163121 1.8177 0
M  V30 4478 C 426.744 3.51455 0.846281 0
M  V30 4479 O 426.465 4.37371 -0.252663 0
M  V30 4480 C 427.966 4.15767 1.53794 0
M  V30 4481 H 425.186 0.665906 0.0825218 0
M  V30 4482 H 427.73 2.00636 -0.39566 0
M  V30 4483 H 425.885 3.55092 1.54881 0
M  V30 4484 H 426.299 5.24358 0.122173 0
M  V30 4485 H 427.773 5.20714 1.83198 0
M  V30 4486 H 428.25 3.63404 2.46646 0
M  V30 4487 H 428.856 4.16107 0.879488 0
M  V30 4488 N 427.171 -0.0066808 1.57599 0
M  V30 4489 C 428.418 -0.69292 1.90276 0
M  V30 4490 C 428.746 -1.74148 0.866192 0
M  V30 4491 O 428.001 -1.95268 -0.129933 0
M  V30 4492 C 428.3 -1.37939 3.29708 0
M  V30 4493 C 427.966 -0.464679 4.48499 0
M  V30 4494 C 426.628 -0.212809 4.80729 0
M  V30 4495 C 428.98 0.16551 5.20937 0
M  V30 4496 C 426.308 0.677653 5.82773 0
M  V30 4497 C 428.66 1.04381 6.23929 0
M  V30 4498 C 427.324 1.30492 6.54621 0
M  V30 4499 H 426.594 -0.253558 0.696268 0
M  V30 4500 H 429.241 0.0474123 1.91441 0
M  V30 4501 H 427.546 -2.1936 3.24636 0
M  V30 4502 H 429.243 -1.9163 3.52249 0
M  V30 4503 H 425.833 -0.671153 4.23313 0
M  V30 4504 H 430.017 -0.0160756 4.96297 0
M  V30 4505 H 425.273 0.88803 6.04917 0
M  V30 4506 H 429.447 1.53851 6.79193 0
M  V30 4507 H 427.074 1.99662 7.33512 0
M  V30 4508 N 428.649 -1.55105 -0.279332 0
M  V30 4509 C 429.599 -1.83937 -1.34727 0
M  V30 4510 C 430.583 -0.69785 -1.44979 0
M  V30 4511 O 431.775 -0.95904 -1.48766 0
M  V30 4512 C 428.904 -2.1092 -2.70864 0
M  V30 4513 C 427.99 -3.31314 -2.64748 0
M  V30 4514 N 428.381 -4.51371 -2.2825 0
M  V30 4515 C 426.679 -3.33777 -2.95819 0
M  V30 4516 C 427.38 -5.33447 -2.31969 0
M  V30 4517 N 426.356 -4.71697 -2.7019 0
M  V30 4518 H 430.158 -2.74309 -1.05506 0
M  V30 4519 H 427.672 -1.54896 -0.487959 0
M  V30 4520 H 429.669 -2.2973 -3.47893 0
M  V30 4521 H 428.329 -1.21828 -3.00979 0
M  V30 4522 H 429.34 -4.77584 -2.00335 0
M  V30 4523 H 426.017 -2.54858 -3.30687 0
M  V30 4524 H 427.407 -6.39424 -2.06365 0
M  V30 4525 N 430.127 0.543554 -1.4793 0
M  V30 4526 C 431.09 1.63156 -1.60975 0
M  V30 4527 C 432.09 1.53346 -0.483899 0
M  V30 4528 O 433.28 1.5726 -0.749339 0
M  V30 4529 C 430.412 3.02743 -1.56716 0
M  V30 4530 H 431.605 1.52934 -2.57975 0
M  V30 4531 H 429.158 0.764557 -1.36324 0
M  V30 4532 H 429.893 3.18484 -0.611418 0
M  V30 4533 H 429.678 3.11272 -2.38438 0
M  V30 4534 H 431.168 3.81871 -1.6901 0
M  V30 4535 N 431.605 1.3629 0.791371 0
M  V30 4536 C 432.83 1.33726 1.58531 0
M  V30 4537 C 433.255 -0.0794933 1.87932 0
M  V30 4538 O 432.613 -1.05087 1.47738 0
M  V30 4539 C 432.661 2.16425 2.88431 0
M  V30 4540 O 431.765 1.5554 3.81944 0
M  V30 4541 H 431.106 0.457793 0.480959 0
M  V30 4542 H 433.636 1.79547 0.981031 0
M  V30 4543 H 433.646 2.28933 3.37718 0
M  V30 4544 H 432.321 3.19415 2.66359 0
M  V30 4545 H 430.898 1.51961 3.40532 0
M  V30 4546 N 433.083 -1.0153 1.20538 0
M  V30 4547 C 434.015 -2.10224 0.913155 0
M  V30 4548 C 435.028 -1.62495 -0.0995998 0
M  V30 4549 O 436.217 -1.78014 0.131582 0
M  V30 4550 C 433.317 -3.37111 0.347717 0
M  V30 4551 C 432.49 -4.13971 1.41233 0
M  V30 4552 C 431.549 -5.19158 0.857976 0
M  V30 4553 O 430.575 -5.48 1.53897 0
M  V30 4554 N 431.777 -5.7955 -0.331966 0
M  V30 4555 H 434.542 -2.35879 1.84881 0
M  V30 4556 H 432.103 -1.17931 1.10923 0
M  V30 4557 H 434.095 -4.04683 -0.0373026 0
M  V30 4558 H 432.665 -3.08696 -0.492527 0
M  V30 4559 H 431.885 -3.41351 1.97163 0
M  V30 4560 H 433.173 -4.62103 2.12928 0
M  V30 4561 H 432.571 -5.58455 -0.902478 0
M  V30 4562 H 431.128 -6.48464 -0.65861 0
M  V30 4563 N 434.561 -1.01147 -1.20859 0
M  V30 4564 C 435.972 -0.730205 -1.71828 0
M  V30 4565 C 436.323 0.751662 -1.8123 0
M  V30 4566 O 435.448 1.58686 -1.47132 0
M  V30 4567 C 436.043 -1.31885 -3.12077 0
M  V30 4568 C 434.602 -1.08656 -3.60376 0
M  V30 4569 C 433.749 -1.42769 -2.37723 0
M  V30 4570 H 436.7 -1.18158 -1.05945 0
M  V30 4571 H 436.721 -0.706793 -3.73878 0
M  V30 4572 H 436.233 -2.39737 -3.05201 0
M  V30 4573 H 434.334 -0.0254814 -3.72591 0
M  V30 4574 H 434.447 -1.76301 -4.45483 0
M  V30 4575 H 432.811 -0.846603 -2.40218 0
M  V30 4576 H 433.594 -2.51666 -2.33493 0
M  V30 4577 N 436.039 1.36541 -0.78704 0
M  V30 4578 C 437.264 2.0409 -0.369053 0
M  V30 4579 C 437.689 1.58957 1.00569 0
M  V30 4580 O 437.047 0.756926 1.64743 0
M  V30 4581 C 437.095 3.57924 -0.438466 0
M  V30 4582 O 436.199 4.08642 0.555479 0
M  V30 4583 H 435.54 0.645142 -0.157122 0
M  V30 4584 H 438.07 1.74545 -1.06749 0
M  V30 4585 H 438.08 4.06887 -0.301218 0
M  V30 4586 H 436.755 3.90127 -1.44132 0
M  V30 4587 H 435.332 3.70958 0.380088 0
M  V30 4588 N 437.518 0.538854 1.48102 0
M  V30 4589 C 438.448 -0.207654 2.32575 0
M  V30 4590 C 439.429 -0.926559 1.4265 0
M  V30 4591 O 440.614 -0.91061 1.71527 0
M  V30 4592 C 437.744 -1.24957 3.24042 0
M  V30 4593 C 436.698 -0.648263 4.23062 0
M  V30 4594 C 436.024 -1.79348 5.03725 0
M  V30 4595 C 437.324 0.385897 5.20872 0
M  V30 4596 H 439.018 0.497534 2.95237 0
M  V30 4597 H 436.564 0.240715 1.41974 0
M  V30 4598 H 438.517 -1.77983 3.81969 0
M  V30 4599 H 437.241 -1.98446 2.59397 0
M  V30 4600 H 435.9 -0.139452 3.66335 0
M  V30 4601 H 435.548 -2.51696 4.35498 0
M  V30 4602 H 435.248 -1.39702 5.70751 0
M  V30 4603 H 436.772 -2.32735 5.64506 0
M  V30 4604 H 438.186 -0.057607 5.73271 0
M  V30 4605 H 436.583 0.700227 5.96001 0
M  V30 4606 H 437.653 1.28848 4.67468 0
M  V30 4607 N 438.996 -1.55193 0.274407 0
M  V30 4608 C 440.224 -2.03987 -0.345943 0
M  V30 4609 C 440.639 -1.15279 -1.4952 0
M  V30 4610 O 439.996 -0.172759 -1.8168 0
M  V30 4611 C 440.047 -3.51898 -0.827631 0
M  V30 4612 O 439.768 -4.37231 0.275855 0
M  V30 4613 C 441.269 -4.16577 -1.51587 0
M  V30 4614 H 438.489 -0.666335 -0.0789892 0
M  V30 4615 H 441.033 -2.00423 0.406294 0
M  V30 4616 H 439.188 -3.55909 -1.52996 0
M  V30 4617 H 439.602 -5.24415 -0.0943638 0
M  V30 4618 H 441.076 -5.21678 -1.80433 0
M  V30 4619 H 441.553 -3.64707 -2.44716 0
M  V30 4620 H 442.159 -4.16568 -0.857409 0
M  V30 4621 N 440.474 -0.00167713 -1.576 0
M  V30 4622 C 441.72 0.683832 -1.90923 0
M  V30 4623 C 442.053 1.7333 -0.875799 0
M  V30 4624 O 441.328 1.94215 0.10525 0
M  V30 4625 C 441.611 1.32543 -3.3482 0
M  V30 4626 C 441.464 0.287387 -4.48881 0
M  V30 4627 C 442.783 2.25114 -3.78169 0
M  V30 4628 H 439.902 0.247125 -0.694333 0
M  V30 4629 H 442.544 -0.0533149 -1.89925 0
M  V30 4630 H 440.694 1.95372 -3.35801 0
M  V30 4631 H 442.366 -0.341346 -4.60035 0
M  V30 4632 H 440.609 -0.39017 -4.32042 0
M  V30 4633 H 441.28 0.775393 -5.46527 0
M  V30 4634 H 443.756 1.723 -3.7875 0
M  V30 4635 H 442.632 2.66971 -4.79602 0
M  V30 4636 H 442.893 3.13092 -3.12131 0
M  V30 4637 N 441.952 1.55251 0.271103 0
M  V30 4638 C 443.229 1.66664 1.02384 0
M  V30 4639 C 443.609 0.534363 2.04225 0
M  V30 4640 O 442.957 -0.465337 2.23712 0
M  V30 4641 C 443.167 3.05961 1.67895 0
M  V30 4642 C 444.515 3.63772 2.18986 0
M  V30 4643 O 445.539 3.08606 1.77878 0
M  V30 4644 O 444.398 4.60429 2.94393 0
M  V30 4645 H 441.492 0.676957 0.475035 0
M  V30 4646 H 444.038 1.67589 0.26681 0
M  V30 4647 H 442.81 3.79815 0.941071 0
M  V30 4648 H 442.433 3.08943 2.5028 0
M  V30 4649 N 443.43 -0.535701 1.48216 0
M  V30 4650 C 444.678 -1.28928 1.55634 0
M  V30 4651 C 444.999 -1.93645 0.229514 0
M  V30 4652 O 444.269 -1.81038 -0.74846 0
M  V30 4653 H 442.849 -0.47884 0.573342 0
M  V30 4654 H 445.511 -0.623853 1.84646 0
M  V30 4655 H 444.607 -2.07157 2.33436 0
M  V30 4656 N 444.908 -1.36708 -0.784132 0
M  V30 4657 C 446.155 -1.31231 -1.54222 0
M  V30 4658 C 446.483 0.106864 -1.94206 0
M  V30 4659 O 445.738 1.07734 -1.63376 0
M  V30 4660 C 446.037 -2.18571 -2.82774 0
M  V30 4661 C 445.703 -3.67039 -2.61903 0
M  V30 4662 C 444.365 -4.07503 -2.55919 0
M  V30 4663 C 446.717 -4.61149 -2.4288 0
M  V30 4664 C 444.045 -5.40211 -2.28886 0
M  V30 4665 C 446.397 -5.94081 -2.17373 0
M  V30 4666 C 445.061 -6.33664 -2.09825 0
M  V30 4667 H 444.331 -0.48021 -0.56434 0
M  V30 4668 H 446.978 -1.68807 -0.904233 0
M  V30 4669 H 445.283 -1.73949 -3.51068 0
M  V30 4670 H 446.98 -2.11655 -3.40592 0
M  V30 4671 H 443.57 -3.34941 -2.67418 0
M  V30 4672 H 447.754 -4.30756 -2.46501 0
M  V30 4673 H 443.01 -5.69855 -2.21529 0
M  V30 4674 H 447.184 -6.66566 -2.01649 0
M  V30 4675 H 444.811 -7.36423 -1.88641 0
M  V30 4676 N 446.386 1.0089 -1.21074 0
M  V30 4677 C 447.614 1.78191 -1.05145 0
M  V30 4678 C 448.029 1.84537 0.398952 0
M  V30 4679 O 447.386 1.30393 1.27687 0
M  V30 4680 C 447.437 3.22288 -1.63746 0
M  V30 4681 O 447.158 3.16315 -3.03111 0
M  V30 4682 C 448.659 4.16106 -1.52875 0
M  V30 4683 H 445.879 0.560129 -0.369454 0
M  V30 4684 H 448.423 1.26945 -1.60328 0
M  V30 4685 H 446.578 3.70655 -1.12664 0
M  V30 4686 H 446.992 4.06817 -3.31059 0
M  V30 4687 H 448.466 5.15026 -1.98626 0
M  V30 4688 H 448.943 4.36541 -0.482521 0
M  V30 4689 H 449.549 3.73625 -2.03185 0
M  V30 4690 N 447.864 1.01787 1.20321 0
M  V30 4691 C 449.141 0.622978 1.85414 0
M  V30 4692 C 449.521 -0.898887 1.91006 0
M  V30 4693 O 448.869 -1.79112 1.41884 0
M  V30 4694 C 449.079 1.27226 3.24984 0
M  V30 4695 C 450.427 1.3885 4.01255 0
M  V30 4696 O 451.451 1.22857 3.34342 0
M  V30 4697 O 450.31 1.64705 5.2109 0
M  V30 4698 H 447.404 0.215116 0.798533 0
M  V30 4699 H 449.95 1.11533 1.27901 0
M  V30 4700 H 448.722 2.31209 3.15687 0
M  V30 4701 H 448.345 0.767069 3.90131 0
M  V30 4702 N 449.342 -1.36122 0.79427 0
M  V30 4703 C 450.753 -1.81646 0.431446 0
M  V30 4704 C 451.104 -1.66043 -1.04518 0
M  V30 4705 O 450.229 -1.1841 -1.8113 0
M  V30 4706 C 450.824 -3.29785 0.776341 0
M  V30 4707 C 449.383 -3.73501 0.466282 0
M  V30 4708 C 448.53 -2.58313 1.00844 0
M  V30 4709 H 451.481 -1.24274 0.986995 0
M  V30 4710 H 451.502 -3.80437 0.0692413 0
M  V30 4711 H 451.014 -3.4111 1.8511 0
M  V30 4712 H 449.115 -3.67733 -0.600245 0
M  V30 4713 H 449.228 -4.68754 0.990288 0
M  V30 4714 H 447.592 -2.5102 0.431406 0
M  V30 4715 H 448.375 -2.72421 2.08906 0
M  V30 4716 N 450.82 -0.546701 -1.47814 0
M  V30 4717 C 452.045 -0.021268 -2.07389 0
M  V30 4718 C 452.47 1.25822 -1.39822 0
M  V30 4719 O 451.828 1.75111 -0.46968 0
M  V30 4720 C 451.876 0.168502 -3.60206 0
M  V30 4721 O 450.98 1.23347 -3.93522 0
M  V30 4722 H 450.321 -0.0466108 -0.662362 0
M  V30 4723 H 452.851 -0.759387 -1.89985 0
M  V30 4724 H 452.861 0.385982 -4.0617 0
M  V30 4725 H 451.536 -0.766075 -4.08784 0
M  V30 4726 H 450.113 0.997319 -3.59316 0
M  V30 4727 N 452.299 1.55045 -0.282633 0
M  V30 4728 C 453.247 2.24254 0.617478 0
M  V30 4729 C 454.241 1.24215 1.15183 0
M  V30 4730 O 455.447 1.42123 1.10459 0
M  V30 4731 H 451.822 0.719801 0.217693 0
M  V30 4732 H 453.793 2.98398 0.0110076 0
M  V30 4733 C 452.542 2.98281 1.78672 0
M  V30 4734 H 451.865 3.75053 1.38475 0
M  V30 4735 H 453.305 3.50017 2.393 0
M  V30 4736 C 451.764 2.04184 2.67975 0
M  V30 4737 O 452.294 1.59792 3.6855 0
M  V30 4738 N 450.5 1.70526 2.35307 0
M  V30 4739 H 450.047 2.06821 1.53567 0
M  V30 4740 H 450.005 1.07839 2.95327 0
M  V30 4741 N 453.777 0.010035 1.57597 0
M  V30 4742 C 455.002 -0.687021 1.95691 0
M  V30 4743 C 455.427 -1.65952 0.885519 0
M  V30 4744 O 454.785 -1.80633 -0.15543 0
M  V30 4745 C 454.833 -1.3864 3.32884 0
M  V30 4746 O 453.937 -2.50115 3.27897 0
M  V30 4747 H 453.278 -0.181989 0.638573 0
M  V30 4748 H 455.808 0.0662122 2.04493 0
M  V30 4749 H 455.818 -1.74754 3.6868 0
M  V30 4750 H 454.493 -0.673411 4.10412 0
M  V30 4751 H 453.07 -2.16253 3.03791 0
M  V30 4752 N 455.255 -1.55392 -0.262866 0
M  V30 4753 C 456.165 -1.92077 -1.34698 0
M  V30 4754 C 457.181 -0.819227 -1.53508 0
M  V30 4755 O 458.357 -1.11921 -1.67439 0
M  V30 4756 C 455.422 -2.19407 -2.68443 0
M  V30 4757 C 454.483 -3.42905 -2.58292 0
M  V30 4758 C 453.716 -3.68921 -3.85659 0
M  V30 4759 O 453.939 -2.97275 -4.8681 0
M  V30 4760 O 452.873 -4.62455 -3.85252 0
M  V30 4761 H 456.699 -2.84384 -1.06581 0
M  V30 4762 H 454.284 -1.42069 -0.462264 0
M  V30 4763 H 456.166 -2.38365 -3.47506 0
M  V30 4764 H 454.841 -1.30282 -2.96325 0
M  V30 4765 H 453.748 -3.29272 -1.7757 0
M  V30 4766 H 455.081 -4.32282 -2.35358 0
M  V30 4767 N 456.733 0.527833 -1.48498 0
M  V30 4768 C 458.149 0.856571 -1.34666 0
M  V30 4769 C 458.349 1.98271 -0.35931 0
M  V30 4770 O 457.405 2.51551 0.218703 0
M  V30 4771 C 458.718 1.22207 -2.74747 0
M  V30 4772 C 460.266 1.33183 -2.83251 0
M  V30 4773 C 460.741 1.73075 -4.24039 0
M  V30 4774 N 462.232 1.80174 -4.26722 0
M  V30 4775 C 462.967 2.1243 -5.32598 0
M  V30 4776 N 462.463 2.43096 -6.4875 0
M  V30 4777 N 464.256 2.13454 -5.19994 0
M  V30 4778 H 456.407 -0.215174 -2.11307 0
M  V30 4779 H 458.67 -0.0336281 -0.947403 0
M  V30 4780 H 458.376 0.468195 -3.4857 0
M  V30 4781 H 458.25 2.17173 -3.08409 0
M  V30 4782 H 460.637 2.07647 -2.09683 0
M  V30 4783 H 460.718 0.363333 -2.53206 0
M  V30 4784 H 460.362 0.991712 -4.98124 0
M  V30 4785 H 460.292 2.70979 -4.51529 0
M  V30 4786 H 462.783 1.58744 -3.42942 0
M  V30 4787 H 463.096 2.6682 -7.25277 0
M  V30 4788 H 461.441 2.40611 -6.52021 0
M  V30 4789 H 464.632 1.88956 -4.28268 0
M  V30 4790 H 464.805 2.38261 -6.02608 0
M  V30 4791 N 458.211 1.37122 0.776871 0
M  V30 4792 C 459.458 1.32047 1.53524 0
M  V30 4793 C 459.786 -0.0965631 1.9426 0
M  V30 4794 O 459.041 -1.06866 1.63945 0
M  V30 4795 C 459.34 2.20068 2.81611 0
M  V30 4796 C 459.006 3.68423 2.59953 0
M  V30 4797 C 457.668 4.08854 2.53755 0
M  V30 4798 C 460.02 4.62431 2.40431 0
M  V30 4799 C 457.348 5.41417 2.26018 0
M  V30 4800 C 459.7 5.95225 2.14219 0
M  V30 4801 C 458.364 6.34767 2.06462 0
M  V30 4802 H 457.634 0.483196 0.561785 0
M  V30 4803 H 460.281 1.69284 0.895268 0
M  V30 4804 H 458.586 1.75809 3.50141 0
M  V30 4805 H 460.283 2.13458 3.39465 0
M  V30 4806 H 456.873 3.36354 2.65638 0
M  V30 4807 H 461.057 4.32057 2.44213 0
M  V30 4808 H 456.313 5.71022 2.18504 0
M  V30 4809 H 460.487 6.67626 1.98112 0
M  V30 4810 H 458.114 7.37413 1.84733 0
M  V30 4811 N 459.689 -1.00246 1.21608 0
M  V30 4812 C 460.929 -1.75589 1.04631 0
M  V30 4813 C 461.293 -1.87513 -0.412648 0
M  V30 4814 O 462.494 -2.59444 -0.703003 0
M  V30 4815 C 460.765 -3.12893 1.72722 0
M  V30 4816 S 462.324 -4.04095 1.71034 0
M  V30 4817 H 459.142 -0.604133 0.374892 0
M  V30 4818 H 461.744 -1.19927 1.54395 0
M  V30 4819 H 460.448 -3.0185 2.78055 0
M  V30 4820 H 459.979 -3.73628 1.23149 0
M  V30 4821 H 461.994 -4.9045 0.753231 0
M  V30 4822 N 461.167 -1.02423 -1.1978 0
M  V30 4823 C 462.097 -0.62157 -2.25075 0
M  V30 4824 C 463.078 0.367148 -1.6609 0
M  V30 4825 O 464.263 0.250892 -1.92573 0
M  V30 4826 C 461.393 0.0331826 -3.47284 0
M  V30 4827 C 460.347 -0.877323 -4.18912 0
M  V30 4828 C 459.673 -0.0879296 -5.34628 0
M  V30 4829 C 460.973 -2.18892 -4.74219 0
M  V30 4830 H 462.667 -1.50179 -2.59011 0
M  V30 4831 H 460.213 -0.723547 -1.24502 0
M  V30 4832 H 462.166 0.326488 -4.20133 0
M  V30 4833 H 460.89 0.948164 -3.12534 0
M  V30 4834 H 459.549 -1.15475 -3.47938 0
M  V30 4835 H 459.197 0.828941 -4.96123 0
M  V30 4836 H 458.897 -0.694359 -5.83483 0
M  V30 4837 H 460.421 0.198743 -6.10276 0
M  V30 4838 H 461.835 -1.95746 -5.38847 0
M  V30 4839 H 460.232 -2.74686 -5.33542 0
M  V30 4840 H 461.302 -2.84674 -3.92541 0
M  V30 4841 N 462.645 1.35699 -0.801477 0
M  V30 4842 C 463.893 1.9852 -0.37871 0
M  V30 4843 C 464.214 1.63907 1.05638 0
M  V30 4844 O 463.484 0.919013 1.73006 0
M  V30 4845 H 462.064 0.734322 -0.137042 0
M  V30 4846 H 464.726 1.65697 -1.02619 0
M  V30 4847 H 463.822 3.08382 -0.480284 0
M  V30 4848 N 464.123 0.554532 1.47522 0
M  V30 4849 C 465.053 -0.182974 2.32782 0
M  V30 4850 C 466.034 -0.911377 1.43624 0
M  V30 4851 O 467.219 -0.892366 1.72483 0
M  V30 4852 C 464.349 -1.21513 3.25349 0
M  V30 4853 C 463.303 -0.603355 4.23726 0
M  V30 4854 C 462.629 -1.73995 5.05598 0
M  V30 4855 C 463.929 0.441121 5.20434 0
M  V30 4856 H 465.623 0.52882 2.94693 0
M  V30 4857 H 463.169 0.255759 1.41711 0
M  V30 4858 H 465.122 -1.73922 3.83835 0
M  V30 4859 H 463.846 -1.95683 2.61487 0
M  V30 4860 H 462.505 -0.10059 3.66462 0
M  V30 4861 H 462.153 -2.47063 4.38143 0
M  V30 4862 H 461.853 -1.3364 5.72201 0
M  V30 4863 H 463.377 -2.26735 5.66942 0
M  V30 4864 H 464.791 0.00319931 5.733 0
M  V30 4865 H 463.188 0.763402 5.95224 0
M  V30 4866 H 464.258 1.33799 4.66075 0
M  V30 4867 N 465.601 -1.54893 0.290851 0
M  V30 4868 C 466.531 -2.26103 -0.583084 0
M  V30 4869 C 467.512 -1.25684 -1.14619 0
M  V30 4870 O 468.697 -1.54436 -1.17741 0
M  V30 4871 C 465.827 -2.99409 -1.75987 0
M  V30 4872 C 464.781 -4.0689 -1.32758 0
M  V30 4873 C 464.107 -4.67856 -2.58872 0
M  V30 4874 C 465.407 -5.20215 -0.46624 0
M  V30 4875 H 467.101 -2.99398 0.0108214 0
M  V30 4876 H 464.647 -1.43998 0.00664468 0
M  V30 4877 H 466.6 -3.47943 -2.37727 0
M  V30 4878 H 465.324 -2.23675 -2.37985 0
M  V30 4879 H 463.983 -3.59191 -0.733299 0
M  V30 4880 H 463.631 -3.88772 -3.19163 0
M  V30 4881 H 463.331 -5.40438 -2.30653 0
M  V30 4882 H 464.855 -5.19147 -3.21433 0
M  V30 4883 H 466.269 -5.64704 -0.989047 0
M  V30 4884 H 464.666 -5.99455 -0.27826 0
M  V30 4885 H 465.736 -4.82198 0.511173 0
M  V30 4886 N 467.08 -0.0183926 -1.57589 0
M  V30 4887 C 468.305 0.676634 -1.96052 0
M  V30 4888 C 468.73 1.6548 -0.894307 0
M  V30 4889 O 468.088 1.80712 0.145849 0
M  V30 4890 C 468.136 1.36872 -3.33614 0
M  V30 4891 O 467.24 2.48372 -3.29219 0
M  V30 4892 H 466.581 0.1786 -0.63953 0
M  V30 4893 H 469.111 -0.077056 -2.04455 0
M  V30 4894 H 469.121 1.72797 -3.69601 0
M  V30 4895 H 467.796 0.651636 -4.10763 0
M  V30 4896 H 466.373 2.14639 -3.04934 0
M  V30 4897 N 468.558 1.5553 0.254621 0
M  V30 4898 C 469.506 1.9048 1.33492 0
M  V30 4899 C 470.5 0.78304 1.50216 0
M  V30 4900 O 471.706 0.967582 1.51782 0
M  V30 4901 H 468.081 0.604846 0.44684 0
M  V30 4902 H 470.052 2.80688 1.01275 0
M  V30 4903 C 468.801 2.20928 2.68489 0
M  V30 4904 H 468.124 3.06742 2.56417 0
M  V30 4905 H 469.564 2.49291 3.42972 0
M  V30 4906 C 468.023 1.023 3.20993 0
M  V30 4907 O 468.553 0.267027 4.00811 0
M  V30 4908 N 466.759 0.815714 2.78917 0
M  V30 4909 H 466.306 1.43217 2.14119 0
M  V30 4910 H 466.264 0.0236532 3.14391 0
M  V30 4911 N 470.036 -0.519951 1.48776 0
M  V30 4912 C 471.282 -1.27711 1.57536 0
M  V30 4913 C 471.615 -1.92547 0.252866 0
M  V30 4914 O 470.89 -1.7979 -0.742021 0
M  V30 4915 C 471.173 -2.35875 2.72094 0
M  V30 4916 C 471.026 -1.75664 4.1408 0
M  V30 4917 C 472.345 -3.37575 2.82367 0
M  V30 4918 H 469.464 -0.462971 0.573434 0
M  V30 4919 H 472.106 -0.578194 1.80989 0
M  V30 4920 H 470.256 -2.95488 2.52228 0
M  V30 4921 H 471.928 -1.20025 4.45412 0
M  V30 4922 H 470.171 -1.06154 4.20611 0
M  V30 4923 H 470.842 -2.54029 4.90075 0
M  V30 4924 H 473.318 -2.87929 3.00393 0
M  V30 4925 H 472.194 -4.1064 3.64233 0
M  V30 4926 H 472.455 -3.98743 1.90936 0
M  V30 4927 N 471.514 -1.37532 -0.769588 0
M  V30 4928 C 472.462 -1.33561 -1.90432 0
M  V30 4929 C 473.456 -0.224027 -1.67912 0
M  V30 4930 O 474.662 -0.392174 -1.75676 0
M  V30 4931 H 471.037 -0.416279 -0.626271 0
M  V30 4932 H 473.008 -2.29348 -1.90899 0
M  V30 4933 C 471.757 -1.16162 -3.27722 0
M  V30 4934 H 471.08 -2.00951 -3.45628 0
M  V30 4935 H 472.52 -1.17434 -4.07413 0
M  V30 4936 C 470.979 0.132583 -3.36639 0
M  V30 4937 O 471.509 1.11539 -3.85904 0
M  V30 4938 N 469.715 0.184013 -2.90017 0
M  V30 4939 H 469.262 -0.616415 -2.50116 0
M  V30 4940 H 469.22 1.04956 -2.96364 0
M  V30 4941 N 472.992 0.995999 -1.22138 0
M  V30 4942 C 474.408 1.25917 -0.980667 0
M  V30 4943 C 474.608 1.98819 0.327604 0
M  V30 4944 O 473.664 2.29587 1.05101 0
M  V30 4945 C 474.977 2.07399 -2.17729 0
M  V30 4946 C 476.525 2.20594 -2.22052 0
M  V30 4947 C 477 3.05462 -3.41258 0
M  V30 4948 N 478.491 3.13049 -3.41401 0
M  V30 4949 C 479.226 3.78997 -4.30289 0
M  V30 4950 N 478.722 4.46899 -5.2939 0
M  V30 4951 N 480.515 3.75728 -4.18073 0
M  V30 4952 H 472.666 0.507158 -2.06256 0
M  V30 4953 H 474.929 0.28658 -0.903646 0
M  V30 4954 H 474.635 1.61191 -3.12586 0
M  V30 4955 H 474.509 3.08154 -2.17534 0
M  V30 4956 H 476.896 2.66017 -1.27745 0
M  V30 4957 H 476.977 1.1928 -2.26287 0
M  V30 4958 H 476.621 2.60739 -4.35864 0
M  V30 4959 H 476.551 4.06911 -3.34262 0
M  V30 4960 H 479.042 2.64721 -2.69688 0
M  V30 4961 H 479.355 4.94952 -5.935 0
M  V30 4962 H 477.7 4.45657 -5.33306 0
M  V30 4963 H 480.891 3.2184 -3.39907 0
M  V30 4964 H 481.064 4.26845 -4.87553 0
M  V30 4965 N 474.47 1.03057 1.19235 0
M  V30 4966 C 475.418 0.606391 2.24557 0
M  V30 4967 C 476.412 -0.361826 1.65491 0
M  V30 4968 O 477.618 -0.23022 1.78522 0
M  V30 4969 H 473.993 0.177838 0.730669 0
M  V30 4970 H 475.964 1.50529 2.5765 0
M  V30 4971 C 474.713 -0.0252127 3.47691 0
M  V30 4972 H 474.036 0.710838 3.9343 0
M  V30 4973 H 475.476 -0.284931 4.23042 0
M  V30 4974 C 473.935 -1.27229 3.11953 0
M  V30 4975 O 474.465 -2.36416 3.24762 0
M  V30 4976 N 472.671 -1.16169 2.6637 0
M  V30 4977 H 472.218 -0.273189 2.56147 0
M  V30 4978 H 472.176 -1.99703 2.42829 0
M  V30 4979 N 475.948 -1.35272 0.808662 0
M  V30 4980 C 476.911 -2.28082 0.226093 0
M  V30 4981 C 477.911 -1.49673 -0.587762 0
M  V30 4982 O 479.101 -1.69404 -0.405943 0
M  V30 4983 C 476.233 -3.33955 -0.684596 0
M  V30 4984 H 477.426 -2.81116 1.04469 0
M  V30 4985 H 474.979 -1.45162 0.579466 0
M  V30 4986 H 475.714 -2.86111 -1.5268 0
M  V30 4987 H 475.499 -3.91965 -0.102699 0
M  V30 4988 H 476.989 -4.03219 -1.08646 0
M  V30 4989 N 477.426 -0.562348 -1.47226 0
M  V30 4990 C 478.654 -0.0452275 -2.06851 0
M  V30 4991 C 479.069 1.25078 -1.41424 0
M  V30 4992 O 478.426 1.75156 -0.512513 0
M  V30 4993 C 478.477 0.148674 -3.61194 0
M  V30 4994 O 478.198 -1.09602 -4.24169 0
M  V30 4995 C 479.699 0.702488 -4.37699 0
M  V30 4996 H 476.919 -0.0481775 -0.669268 0
M  V30 4997 H 479.463 -0.777223 -1.89155 0
M  V30 4998 H 477.618 0.830817 -3.78386 0
M  V30 4999 H 478.032 -0.896982 -5.16773 0
M  V30 5000 H 479.506 0.78743 -5.46355 0
M  V30 5001 H 479.983 1.71493 -4.04335 0
M  V30 5002 H 480.589 0.0558772 -4.25263 0
M  V30 5003 N 478.904 1.54736 -0.299062 0
M  V30 5004 C 480.15 2.00397 0.311244 0
M  V30 5005 C 480.483 1.18716 1.53688 0
M  V30 5006 O 479.758 0.263154 1.92712 0
M  V30 5007 C 480.041 3.53817 0.669761 0
M  V30 5008 C 479.894 4.46239 -0.564882 0
M  V30 5009 C 481.213 4.13856 1.49702 0
M  V30 5010 H 478.332 0.728493 0.111653 0
M  V30 5011 H 480.974 1.85506 -0.410774 0
M  V30 5012 H 479.124 3.66637 1.28491 0
M  V30 5013 H 480.796 4.45328 -1.20337 0
M  V30 5014 H 479.039 4.16916 -1.19849 0
M  V30 5015 H 479.71 5.5134 -0.269918 0
M  V30 5016 H 482.186 4.04461 0.977284 0
M  V30 5017 H 481.062 5.21365 1.71666 0
M  V30 5018 H 481.323 3.65608 2.48563 0
M  V30 5019 N 480.382 0.0267497 1.57577 0
M  V30 5020 C 481.292 -0.971633 2.13533 0
M  V30 5021 C 482.308 -1.35868 1.08701 0
M  V30 5022 O 483.484 -1.44058 1.40746 0
M  V30 5023 C 480.549 -2.23622 2.64941 0
M  V30 5024 C 479.61 -1.90982 3.8448 0
M  V30 5025 C 478.843 -3.11411 4.33427 0
M  V30 5026 O 479.066 -4.23992 3.81558 0
M  V30 5027 O 478 -2.93848 5.25297 0
M  V30 5028 H 481.826 -0.525853 2.99113 0
M  V30 5029 H 479.411 -0.193712 1.48139 0
M  V30 5030 H 481.293 -2.97864 2.98086 0
M  V30 5031 H 479.968 -2.67386 1.82446 0
M  V30 5032 H 478.875 -1.14132 3.56265 0
M  V30 5033 H 480.208 -1.52036 4.6813 0
M  V30 5034 N 481.861 -1.55662 -0.24637 0
M  V30 5035 C 482.794 -1.85332 -1.33143 0
M  V30 5036 C 483.772 -0.708464 -1.46354 0
M  V30 5037 O 484.956 -0.954274 -1.6256 0
M  V30 5038 C 482.083 -2.0385 -2.70487 0
M  V30 5039 C 481.129 -3.26488 -2.74423 0
M  V30 5040 S 481.962 -4.83124 -2.30979 0
M  V30 5041 C 483.118 -5.04647 -3.70246 0
M  V30 5042 H 483.351 -2.77077 -1.07777 0
M  V30 5043 H 480.884 -1.47776 -0.44738 0
M  V30 5044 H 482.842 -2.15202 -3.49569 0
M  V30 5045 H 481.503 -1.12947 -2.9309 0
M  V30 5046 H 480.696 -3.36413 -3.7529 0
M  V30 5047 H 480.298 -3.13864 -2.03385 0
M  V30 5048 H 482.59 -4.92023 -4.65746 0
M  V30 5049 H 483.533 -6.06625 -3.65255 0
M  V30 5050 H 483.941 -4.32491 -3.62784 0
M  V30 5051 N 483.339 0.512053 -1.4905 0
M  V30 5052 C 484.567 1.29116 -1.61669 0
M  V30 5053 C 484.982 1.86655 -0.283787 0
M  V30 5054 O 484.339 1.67293 0.729331 0
M  V30 5055 C 484.39 2.4293 -2.67707 0
M  V30 5056 O 484.111 1.87758 -3.95826 0
M  V30 5057 C 485.612 3.34476 -2.90931 0
M  V30 5058 H 482.832 0.392009 -0.544583 0
M  V30 5059 H 485.376 0.615881 -1.95006 0
M  V30 5060 H 483.531 3.06308 -2.37179 0
M  V30 5061 H 483.945 2.62393 -4.54148 0
M  V30 5062 H 485.419 4.10642 -3.68886 0
M  V30 5063 H 485.896 3.90801 -2.00427 0
M  V30 5064 H 486.502 2.76874 -3.22832 0
M  V30 5065 N 484.817 1.37938 0.762283 0
M  V30 5066 C 486.233 1.18945 1.06415 0
M  V30 5067 C 486.433 0.0321163 2.01474 0
M  V30 5068 O 485.489 -0.624844 2.44647 0
M  V30 5069 C 486.802 2.51218 1.65258 0
M  V30 5070 C 488.35 2.57824 1.7747 0
M  V30 5071 C 488.825 3.90251 2.39725 0
M  V30 5072 N 490.316 3.91744 2.47166 0
M  V30 5073 C 491.051 4.90966 2.96209 0
M  V30 5074 N 490.547 6.00585 3.45354 0
M  V30 5075 N 492.34 4.78363 2.9517 0
M  V30 5076 H 484.491 2.11994 0.131301 0
M  V30 5077 H 486.754 0.940262 0.120879 0
M  V30 5078 H 486.46 3.36317 1.02878 0
M  V30 5079 H 486.334 2.68989 2.64433 0
M  V30 5080 H 488.721 1.73126 2.3898 0
M  V30 5081 H 488.802 2.43928 0.770241 0
M  V30 5082 H 488.446 4.75368 1.78852 0
M  V30 5083 H 488.376 4.01454 3.40796 0
M  V30 5084 H 490.867 3.12563 2.12397 0
M  V30 5085 H 491.18 6.72236 3.81207 0
M  V30 5086 H 489.525 6.04217 3.43434 0
M  V30 5087 H 492.716 3.91841 2.56082 0
M  V30 5088 H 492.889 5.55843 3.33081 0
M  V30 5089 N 486.295 -0.989507 1.22664 0
M  V30 5090 C 487.711 -1.25395 0.987331 0
M  V30 5091 C 487.911 -1.9899 -0.317056 0
M  V30 5092 O 486.967 -2.30141 -1.03882 0
M  V30 5093 C 488.28 -2.06242 2.18826 0
M  V30 5094 C 489.828 -2.19413 2.23219 0
M  V30 5095 C 490.303 -3.03648 3.42873 0
M  V30 5096 N 491.794 -3.11234 3.43056 0
M  V30 5097 C 492.529 -3.7671 4.32293 0
M  V30 5098 N 492.025 -4.44085 5.31752 0
M  V30 5099 N 493.818 -3.73505 4.2006 0
M  V30 5100 H 485.969 -0.496212 2.06522 0
M  V30 5101 H 488.232 -0.281784 0.905153 0
M  V30 5102 H 487.938 -1.59531 3.13437 0
M  V30 5103 H 487.812 -3.06996 2.19165 0
M  V30 5104 H 490.199 -2.65336 1.29154 0
M  V30 5105 H 490.28 -1.18078 2.26917 0
M  V30 5106 H 489.924 -2.58424 4.37241 0
M  V30 5107 H 489.854 -4.05132 3.36416 0
M  V30 5108 H 492.345 -2.63287 2.71088 0
M  V30 5109 H 492.658 -4.91797 5.96117 0
M  V30 5110 H 491.003 -4.42822 5.35662 0
M  V30 5111 H 494.194 -3.20033 3.41609 0
M  V30 5112 H 494.367 -4.24253 4.8981 0
M  V30 5113 N 487.773 -1.03688 -1.18687 0
M  V30 5114 C 488.723 -0.595067 -2.20098 0
M  V30 5115 C 489.707 0.360465 -1.5681 0
M  V30 5116 O 490.899 0.180136 -1.76081 0
M  V30 5117 C 488.028 0.0444495 -3.43271 0
M  V30 5118 C 487.114 -0.934002 -4.13687 0
M  V30 5119 N 487.505 -2.09957 -4.60165 0
M  V30 5120 C 485.803 -0.759177 -4.39491 0
M  V30 5121 C 486.504 -2.71735 -5.1433 0
M  V30 5122 N 485.48 -1.99638 -5.05614 0
M  V30 5123 H 489.282 -1.48336 -2.5372 0
M  V30 5124 H 486.796 -0.904949 -1.3485 0
M  V30 5125 H 488.793 0.37864 -4.15177 0
M  V30 5126 H 487.453 0.928325 -3.11147 0
M  V30 5127 H 488.464 -2.47863 -4.54735 0
M  V30 5128 H 485.141 0.0749292 -4.17433 0
M  V30 5129 H 486.531 -3.70492 -5.60523 0
M  V30 5130 N 489.251 1.34841 -0.815825 0
M  V30 5131 C 490.5 1.97755 -0.396976 0
M  V30 5132 C 490.813 1.65422 1.04379 0
M  V30 5133 O 492.019 2.21771 1.5662 0
M  V30 5134 C 490.475 3.53818 -0.658869 0
M  V30 5135 C 490.083 3.95051 -2.11278 0
M  V30 5136 C 491.827 4.23397 -0.305834 0
M  V30 5137 C 489.734 5.43997 -2.31994 0
M  V30 5138 H 488.664 0.739985 -0.1447 0
M  V30 5139 H 491.315 1.53781 -1.00118 0
M  V30 5140 H 489.697 3.95997 0.0154112 0
M  V30 5141 H 490.871 3.63998 -2.82564 0
M  V30 5142 H 489.186 3.38388 -2.42657 0
M  V30 5143 H 491.783 5.32899 -0.43854 0
M  V30 5144 H 492.126 4.09508 0.748952 0
M  V30 5145 H 492.659 3.8667 -0.934403 0
M  V30 5146 H 489.398 5.62865 -3.35952 0
M  V30 5147 H 488.918 5.76589 -1.65244 0
M  V30 5148 H 490.597 6.10584 -2.14001 0
M  V30 5149 N 490.729 0.570148 1.46925 0
M  V30 5150 C 491.977 0.0508523 2.02036 0
M  V30 5151 C 492.298 -1.30885 1.44548 0
M  V30 5152 O 491.568 -1.85647 0.625453 0
M  V30 5153 H 490.148 0.0158088 0.746833 0
M  V30 5154 H 492.81 0.743086 1.80178 0
M  V30 5155 H 491.906 -0.027575 3.12088 0
M  V30 5156 N 492.207 -1.54576 0.307264 0
M  V30 5157 C 493.623 -1.59534 -0.0459251 0
M  V30 5158 C 493.823 -1.32414 -1.51884 0
M  V30 5159 O 492.879 -1.1006 -2.27251 0
M  V30 5160 C 494.192 -2.98566 0.357649 0
M  V30 5161 C 495.74 -3.11491 0.306937 0
M  V30 5162 C 496.215 -4.52842 0.685427 0
M  V30 5163 N 497.706 -4.58782 0.638203 0
M  V30 5164 C 498.441 -5.66238 0.903458 0
M  V30 5165 N 497.937 -6.81703 1.23501 0
M  V30 5166 N 499.73 -5.55937 0.830102 0
M  V30 5167 H 491.881 -1.70464 1.26712 0
M  V30 5168 H 494.144 -0.79647 0.514139 0
M  V30 5169 H 493.85 -3.23356 1.38325 0
M  V30 5170 H 493.724 -3.76117 -0.285565 0
M  V30 5171 H 496.111 -2.86446 -0.709424 0
M  V30 5172 H 496.192 -2.36081 0.984861 0
M  V30 5173 H 495.836 -4.78618 1.69963 0
M  V30 5174 H 495.766 -5.26598 -0.0146346 0
M  V30 5175 H 498.257 -3.75849 0.393138 0
M  V30 5176 H 498.57 -7.59582 1.42322 0
M  V30 5177 H 496.915 -6.8324 1.27311 0
M  V30 5178 H 500.106 -4.64608 0.570693 0
M  V30 5179 H 500.279 -6.39597 1.04019 0
M  V30 5180 N 493.685 -0.035106 -1.57561 0
M  V30 5181 C 494.933 0.64096 -1.91667 0
M  V30 5182 C 495.254 1.72323 -0.912681 0
M  V30 5183 O 494.524 1.95849 0.0449089 0
M  V30 5184 H 493.104 0.239743 -0.707483 0
M  V30 5185 H 495.766 -0.084321 -1.94718 0
M  V30 5186 H 494.862 1.08987 -2.92452 0
M  V30 5187 N 495.163 1.55791 0.238111 0
M  V30 5188 C 496.409 1.78297 0.966337 0
M  V30 5189 C 496.742 0.601903 1.84637 0
M  V30 5190 O 496.017 -0.399499 1.90353 0
M  V30 5191 C 496.3 3.10758 1.81939 0
M  V30 5192 C 496.153 4.39283 0.966958 0
M  V30 5193 C 497.472 3.39519 2.80027 0
M  V30 5194 H 494.591 0.648654 0.349882 0
M  V30 5195 H 497.233 1.88525 0.236253 0
M  V30 5196 H 495.383 3.02168 2.44185 0
M  V30 5197 H 497.055 4.59873 0.362514 0
M  V30 5198 H 495.298 4.32948 0.271669 0
M  V30 5199 H 495.969 5.28368 1.59784 0
M  V30 5200 H 498.445 3.48128 2.27917 0
M  V30 5201 H 497.321 4.33402 3.36829 0
M  V30 5202 H 497.582 2.60864 3.56934 0
M  V30 5203 N 496.642 -0.504142 1.49319 0
M  V30 5204 C 498.058 -0.835039 1.36012 0
M  V30 5205 C 498.258 -1.97674 0.390808 0
M  V30 5206 O 497.314 -2.51867 -0.178655 0
M  V30 5207 C 498.627 -1.17821 2.76656 0
M  V30 5208 C 500.175 -1.2866 2.85334 0
M  V30 5209 C 500.65 -1.66307 4.26739 0
M  V30 5210 N 502.141 -1.73362 4.29534 0
M  V30 5211 C 502.876 -2.0393 5.35911 0
M  V30 5212 N 502.372 -2.32744 6.52535 0
M  V30 5213 N 504.165 -2.05155 5.23324 0
M  V30 5214 H 496.316 0.248764 2.10938 0
M  V30 5215 H 498.579 0.0486962 0.946748 0
M  V30 5216 H 498.285 -0.412682 3.4927 0
M  V30 5217 H 498.159 -2.12239 3.11825 0
M  V30 5218 H 500.546 -2.04285 2.1296 0
M  V30 5219 H 500.627 -0.323004 2.53752 0
M  V30 5220 H 500.271 -0.91234 4.99639 0
M  V30 5221 H 500.201 -2.63761 4.55782 0
M  V30 5222 H 502.692 -1.53268 3.45424 0
M  V30 5223 H 503.005 -2.55248 7.2943 0
M  V30 5224 H 501.35 -2.30207 6.55767 0
M  V30 5225 H 504.541 -1.82119 4.3122 0
M  V30 5226 H 504.714 -2.28644 6.06322 0
M  V30 5227 N 498.12 -1.38341 -0.754957 0
M  V30 5228 C 499.05 -1.38176 -1.88227 0
M  V30 5229 C 500.031 -0.247873 -1.68284 0
M  V30 5230 O 501.216 -0.45075 -1.88896 0
M  V30 5231 C 498.346 -1.20471 -3.25736 0
M  V30 5232 C 497.3 -2.3105 -3.60278 0
M  V30 5233 C 496.626 -1.98452 -4.96509 0
M  V30 5234 C 497.926 -3.73305 -3.65295 0
M  V30 5235 H 499.62 -2.32512 -1.88622 0
M  V30 5236 H 497.166 -1.1192 -0.906082 0
M  V30 5237 H 499.119 -1.18982 -4.04254 0
M  V30 5238 H 497.843 -0.225965 -3.25817 0
M  V30 5239 H 496.502 -2.31723 -2.84078 0
M  V30 5240 H 496.15 -0.990641 -4.93148 0
M  V30 5241 H 495.85 -2.7251 -5.20588 0
M  V30 5242 H 497.374 -1.98578 -5.77407 0
M  V30 5243 H 498.788 -3.7467 -4.3393 0
M  V30 5244 H 497.185 -4.46557 -4.00883 0
M  V30 5245 H 498.255 -4.05719 -2.65556 0
M  V30 5246 N 499.598 0.982988 -1.23187 0
M  V30 5247 C 500.828 1.75666 -1.08743 0
M  V30 5248 C 501.236 1.85662 0.364195 0
M  V30 5249 O 500.579 1.33317 1.26382 0
M  V30 5250 C 500.641 3.20144 -1.63549 0
M  V30 5251 C 500.305 3.33665 -3.12277 0
M  V30 5252 C 501.302 3.20194 -4.096 0
M  V30 5253 C 498.987 3.58397 -3.51933 0
M  V30 5254 C 500.981 3.31256 -5.44563 0
M  V30 5255 C 498.668 3.69098 -4.87042 0
M  V30 5256 C 499.666 3.55537 -5.83166 0
M  V30 5257 O 499.354 3.65864 -7.1582 0
M  V30 5258 H 499.086 0.558194 -0.381307 0
M  V30 5259 H 501.64 1.24387 -1.63454 0
M  V30 5260 H 499.87 3.72659 -1.03256 0
M  V30 5261 H 501.559 3.79262 -1.4462 0
M  V30 5262 H 502.325 3.00987 -3.80305 0
M  V30 5263 H 498.204 3.68025 -2.77631 0
M  V30 5264 H 501.748 3.20588 -6.19572 0
M  V30 5265 H 497.645 3.87814 -5.16014 0
M  V30 5266 H 498.413 3.82675 -7.23534 0
M  V30 5267 N 501.076 1.04316 1.18135 0
M  V30 5268 C 502.306 0.767003 1.91835 0
M  V30 5269 C 502.714 -0.68002 1.76557 0
M  V30 5270 O 502.057 -1.47548 1.09432 0
M  V30 5271 C 502.119 1.05674 3.43618 0
M  V30 5272 C 501.783 2.49818 3.82675 0
M  V30 5273 C 502.78 3.48003 3.86251 0
M  V30 5274 C 500.465 2.84596 4.13897 0
M  V30 5275 C 502.459 4.79016 4.20503 0
M  V30 5276 C 500.146 4.15813 4.4782 0
M  V30 5277 C 501.144 5.12834 4.51099 0
M  V30 5278 O 500.832 6.41699 4.84229 0
M  V30 5279 H 500.564 0.278948 0.615763 0
M  V30 5280 H 503.118 1.3946 1.50798 0
M  V30 5281 H 501.348 0.372029 3.84906 0
M  V30 5282 H 503.037 0.767994 3.98568 0
M  V30 5283 H 503.803 3.22475 3.62264 0
M  V30 5284 H 499.682 2.09748 4.1052 0
M  V30 5285 H 503.226 5.54739 4.22978 0
M  V30 5286 H 499.123 4.41109 4.71268 0
M  V30 5287 H 499.891 6.46387 5.02121 0
M  V30 5288 N 502.554 -1.34406 0.822964 0
M  V30 5289 C 503.803 -1.97542 0.407458 0
M  V30 5290 C 504.116 -1.65973 -1.035 0
M  V30 5291 O 505.322 -2.22598 -1.55442 0
M  V30 5292 C 503.778 -3.53463 0.677623 0
M  V30 5293 C 503.386 -3.93925 2.1337 0
M  V30 5294 C 505.13 -4.23229 0.328284 0
M  V30 5295 C 503.037 -5.42759 2.34876 0
M  V30 5296 H 501.967 -0.739207 0.148623 0
M  V30 5297 H 504.618 -1.53248 1.00932 0
M  V30 5298 H 503 -3.96 0.00558965 0
M  V30 5299 H 504.174 -3.62494 2.8449 0
M  V30 5300 H 502.489 -3.37097 2.44448 0
M  V30 5301 H 505.086 -5.32659 0.466794 0
M  V30 5302 H 505.429 -4.09899 -0.727224 0
M  V30 5303 H 505.962 -3.86169 0.954896 0
M  V30 5304 H 502.701 -5.61075 3.38932 0
M  V30 5305 H 502.221 -5.75704 1.68299 0
M  V30 5306 H 503.9 -6.0944 2.17236 0
M  V30 5307 N 504.032 -0.577932 -1.46621 0
M  V30 5308 C 505.28 -0.061566 -2.02006 0
M  V30 5309 C 505.601 1.30117 -1.4524 0
M  V30 5310 O 504.871 1.85313 -0.63529 0
M  V30 5311 H 503.451 -0.0197692 -0.746738 0
M  V30 5312 H 506.113 -0.752631 -1.79782 0
M  V30 5313 H 505.209 0.0110238 -3.12098 0
M  V30 5314 N 505.51 1.54411 -0.315457 0
M  V30 5315 C 506.758 2.00023 0.288971 0
M  V30 5316 C 507.079 1.20529 1.5329 0
M  V30 5317 O 506.349 0.304986 1.93511 0
M  V30 5318 H 504.929 0.738891 0.109766 0
M  V30 5319 H 507.591 1.90094 -0.430129 0
M  V30 5320 H 506.687 3.07198 0.550999 0
M  V30 5321 N 506.988 0.0434614 1.5754 0
M  V30 5322 C 507.898 -0.94893 2.14552 0
M  V30 5323 C 508.914 -1.34707 1.10136 0
M  V30 5324 O 510.09 -1.42557 1.42266 0
M  V30 5325 C 507.155 -2.208 2.67298 0
M  V30 5326 C 506.216 -1.86893 3.86484 0
M  V30 5327 C 505.449 -3.06797 4.36705 0
M  V30 5328 O 505.672 -4.19921 3.86034 0
M  V30 5329 O 504.606 -2.8826 5.28384 0
M  V30 5330 H 508.432 -0.494099 2.99654 0
M  V30 5331 H 506.017 -0.177989 1.48336 0
M  V30 5332 H 507.899 -2.94686 3.01228 0
M  V30 5333 H 506.574 -2.65436 1.85272 0
M  V30 5334 H 505.481 -1.10347 3.57455 0
M  V30 5335 H 506.814 -1.47062 4.69716 0
M  V30 5336 N 508.466 -1.55915 -0.229846 0
M  V30 5337 C 509.712 -1.78807 -0.956868 0
M  V30 5338 C 510.045 -0.611687 -1.84315 0
M  V30 5339 O 509.32 0.389398 -1.90562 0
M  V30 5340 C 509.603 -3.11718 -1.80288 0
M  V30 5341 C 509.456 -4.3979 -0.943649 0
M  V30 5342 C 510.775 -3.40999 -2.78222 0
M  V30 5343 H 507.894 -0.6505 -0.346437 0
M  V30 5344 H 510.536 -1.88648 -0.226252 0
M  V30 5345 H 508.686 -3.03459 -2.42579 0
M  V30 5346 H 510.358 -4.60059 -0.338121 0
M  V30 5347 H 508.601 -4.33086 -0.248705 0
M  V30 5348 H 509.272 -5.29208 -1.5698 0
M  V30 5349 H 511.748 -3.49332 -2.26067 0
M  V30 5350 H 510.624 -4.35183 -3.34526 0
M  V30 5351 H 510.885 -2.62754 -3.55546 0
M  V30 5352 N 509.944 0.496216 -1.49584 0
M  V30 5353 C 511.191 1.25003 -1.59312 0
M  V30 5354 C 511.519 1.92445 -0.28198 0
M  V30 5355 O 510.774 1.81557 0.730452 0
M  V30 5356 C 511.073 2.3359 -2.705 0
M  V30 5357 C 510.739 1.83574 -4.11839 0
M  V30 5358 C 509.401 1.69653 -4.50302 0
M  V30 5359 C 511.753 1.46193 -5.00277 0
M  V30 5360 C 509.081 1.16736 -5.74969 0
M  V30 5361 C 511.433 0.947265 -6.25468 0
M  V30 5362 C 510.097 0.794485 -6.62755 0
M  V30 5363 H 509.367 0.45742 -0.582965 0
M  V30 5364 H 512.014 0.549996 -1.83432 0
M  V30 5365 H 510.319 3.09401 -2.40371 0
M  V30 5366 H 512.016 2.91627 -2.75235 0
M  V30 5367 H 508.606 1.9537 -3.81482 0
M  V30 5368 H 512.79 1.55793 -4.71214 0
M  V30 5369 H 508.046 1.03623 -6.02555 0
M  V30 5370 H 512.22 0.648846 -6.93371 0
M  V30 5371 H 509.847 0.382271 -7.59238 0
M  V30 5372 N 511.423 1.38739 0.74761 0
M  V30 5373 C 512.386 1.36241 1.84312 0
M  V30 5374 C 513.386 0.261811 1.58654 0
M  V30 5375 O 514.576 0.519031 1.66288 0
M  V30 5376 C 511.708 1.12253 3.21888 0
M  V30 5377 H 512.901 2.33712 1.87933 0
M  V30 5378 H 510.454 1.2412 0.949946 0
M  V30 5379 H 511.189 0.154133 3.23934 0
M  V30 5380 H 510.974 1.91943 3.41907 0
M  V30 5381 H 512.464 1.13215 4.0196 0
M  V30 5382 N 512.901 -0.976442 1.23707 0
M  V30 5383 C 513.811 -2.10359 1.03856 0
M  V30 5384 C 514.827 -1.73991 -0.0180919 0
M  V30 5385 O 516.003 -2.0061 0.178211 0
M  V30 5386 C 513.068 -3.40809 0.636387 0
M  V30 5387 C 512.129 -3.91179 1.76854 0
M  V30 5388 C 511.362 -5.15404 1.38546 0
M  V30 5389 O 511.585 -5.69754 0.27142 0
M  V30 5390 O 510.519 -5.5994 2.20797 0
M  V30 5391 H 514.345 -2.29997 1.98331 0
M  V30 5392 H 511.93 -1.08742 1.02448 0
M  V30 5393 H 513.812 -4.19269 0.423223 0
M  V30 5394 H 512.487 -3.22493 -0.279322 0
M  V30 5395 H 511.394 -3.13819 2.03638 0
M  V30 5396 H 512.727 -4.13958 2.6627 0
M  V30 5397 N 514.379 -1.04941 -1.1758 0
M  V30 5398 C 515.619 -0.766996 -1.89464 0
M  V30 5399 C 515.983 0.693123 -1.79053 0
M  V30 5400 O 517.184 1.08953 -2.45729 0
M  V30 5401 C 515.455 -1.23108 -3.35528 0
M  V30 5402 S 517.014 -1.07565 -4.25412 0
M  V30 5403 H 513.832 -0.278616 -0.654136 0
M  V30 5404 H 516.434 -1.34352 -1.4202 0
M  V30 5405 H 515.138 -2.28896 -3.40639 0
M  V30 5406 H 514.669 -0.648724 -3.88014 0
M  V30 5407 H 516.684 0.00169467 -4.962 0
M  V30 5408 N 515.857 1.33968 -0.830081 0
M  V30 5409 C 516.787 2.31911 -0.271911 0
M  V30 5410 C 517.768 1.58571 0.61556 0
M  V30 5411 O 518.953 1.86514 0.540946 0
M  V30 5412 C 516.083 3.42737 0.561146 0
M  V30 5413 C 515.037 4.27383 -0.229789 0
M  V30 5414 C 514.363 5.29742 0.726463 0
M  V30 5415 C 515.663 5.02 -1.44197 0
M  V30 5416 H 517.357 2.78844 -1.09025 0
M  V30 5417 H 514.903 1.34061 -0.52571 0
M  V30 5418 H 516.856 4.10276 0.961867 0
M  V30 5419 H 515.58 2.94471 1.41261 0
M  V30 5420 H 514.239 3.61456 -0.611964 0
M  V30 5421 H 513.887 4.77736 1.57408 0
M  V30 5422 H 513.587 5.87255 0.20142 0
M  V30 5423 H 515.111 6.00149 1.12489 0
M  V30 5424 H 516.525 5.62355 -1.11488 0
M  V30 5425 H 514.922 5.69122 -1.90317 0
M  V30 5426 H 515.992 4.31281 -2.2164 0
M  V30 5427 N 517.335 0.585699 1.46312 0
M  V30 5428 C 518.56 0.0762461 2.0726 0
M  V30 5429 C 518.985 -1.22071 1.43109 0
M  V30 5430 O 518.343 -1.73804 0.515942 0
M  V30 5431 C 518.391 -0.0729404 3.60526 0
M  V30 5432 O 517.495 -1.1287 3.96654 0
M  V30 5433 H 516.836 0.0641558 0.660893 0
M  V30 5434 H 519.366 0.809492 1.87905 0
M  V30 5435 H 519.376 -0.278158 4.07051 0
M  V30 5436 H 518.051 0.874188 4.06609 0
M  V30 5437 H 516.628 -0.901703 3.61834 0
M  V30 5438 N 518.813 -1.54241 0.323641 0
M  V30 5439 C 520.09 -1.92741 -0.333181 0
M  V30 5440 C 520.47 -1.25326 -1.69872 0
M  V30 5441 O 519.818 -0.396991 -2.25025 0
M  V30 5442 C 520.028 -3.46399 -0.425322 0
M  V30 5443 C 521.376 -4.19029 -0.68557 0
M  V30 5444 O 522.4 -3.52555 -0.50824 0
M  V30 5445 O 521.259 -5.36751 -1.02767 0
M  V30 5446 H 518.353 -0.804811 -0.190286 0
M  V30 5447 H 520.899 -1.65542 0.373361 0
M  V30 5448 H 519.671 -3.87643 0.533737 0
M  V30 5449 H 519.294 -3.79704 -1.17944 0
M  V30 5450 N 520.291 -0.0518155 -1.57515 0
M  V30 5451 C 521.516 0.634896 -1.97443 0
M  V30 5452 C 521.941 1.63546 -0.929207 0
M  V30 5453 O 521.299 1.80981 0.107484 0
M  V30 5454 C 521.347 1.29765 -3.36442 0
M  V30 5455 O 520.451 2.41333 -3.34413 0
M  V30 5456 H 519.792 0.164994 -0.643174 0
M  V30 5457 H 522.322 -0.120407 -2.04245 0
M  V30 5458 H 522.332 1.64918 -3.73184 0
M  V30 5459 H 521.007 0.564361 -4.12053 0
M  V30 5460 H 519.584 2.08122 -3.09418 0
M  V30 5461 N 521.769 1.56035 0.221574 0
M  V30 5462 C 522.732 1.91584 1.2581 0
M  V30 5463 C 523.732 0.794425 1.39805 0
M  V30 5464 O 524.922 1.06217 1.38071 0
M  V30 5465 C 522.054 2.16663 2.63192 0
M  V30 5466 H 523.247 2.8429 0.954935 0
M  V30 5467 H 520.8 1.49316 0.461988 0
M  V30 5468 H 521.535 1.26508 2.98607 0
M  V30 5469 H 521.32 2.98358 2.5441 0
M  V30 5470 H 522.81 2.45262 3.37988 0
M  V30 5471 N 523.247 -0.488276 1.49845 0
M  V30 5472 C 524.496 -1.23826 1.59217 0
M  V30 5473 C 524.809 -1.93439 0.289966 0
M  V30 5474 O 526.015 -2.70229 0.262382 0
M  V30 5475 C 524.471 -2.24902 2.80976 0
M  V30 5476 C 524.079 -1.6117 4.18005 0
M  V30 5477 C 525.823 -3.00648 2.99685 0
M  V30 5478 C 523.73 -2.60431 5.3097 0
M  V30 5479 H 522.66 -0.465858 0.592868 0
M  V30 5480 H 525.311 -0.510645 1.76252 0
M  V30 5481 H 523.693 -3.0088 2.57463 0
M  V30 5482 H 524.867 -0.910968 4.51706 0
M  V30 5483 H 523.182 -0.97767 4.0476 0
M  V30 5484 H 525.779 -3.74903 3.81251 0
M  V30 5485 H 526.122 -3.5902 2.10738 0
M  V30 5486 H 526.655 -2.31784 3.23297 0
M  V30 5487 H 523.394 -2.06823 6.22017 0
M  V30 5488 H 522.914 -3.28707 5.01709 0
M  V30 5489 H 524.593 -3.22606 5.60834 0
M  V30 5490 N 524.725 -1.39134 -0.740242 0
M  V30 5491 C 525.972 -1.36071 -1.49969 0
M  V30 5492 C 526.3 0.0450245 -1.94448 0
M  V30 5493 O 525.555 1.02482 -1.66721 0
M  V30 5494 C 525.854 -2.27457 -2.75678 0
M  V30 5495 C 525.52 -3.75185 -2.50094 0
M  V30 5496 C 524.182 -4.15439 -2.42825 0
M  V30 5497 C 526.534 -4.68643 -2.28086 0
M  V30 5498 C 523.862 -5.4722 -2.11584 0
M  V30 5499 C 526.214 -6.00695 -1.98363 0
M  V30 5500 C 524.878 -6.40018 -1.8956 0
M  V30 5501 H 524.148 -0.497921 -0.548777 0
M  V30 5502 H 526.795 -1.71599 -0.85007 0
M  V30 5503 H 525.1 -1.8503 -3.45356 0
M  V30 5504 H 526.797 -2.22384 -3.33686 0
M  V30 5505 H 523.387 -3.43279 -2.56627 0
M  V30 5506 H 527.571 -4.3838 -2.32672 0
M  V30 5507 H 522.827 -5.76615 -2.03287 0
M  V30 5508 H 527.001 -6.72644 -1.80341 0
M  V30 5509 H 524.628 -7.42051 -1.65117 0
M  V30 5510 N 526.204 0.969867 -1.24223 0
M  V30 5511 C 527.45 1.7151 -1.08223 0
M  V30 5512 C 527.783 1.90478 0.37838 0
M  V30 5513 O 527.058 1.4647 1.27971 0
M  V30 5514 C 527.341 3.10714 -1.82013 0
M  V30 5515 C 527.194 2.9925 -3.35811 0
M  V30 5516 C 528.513 4.10332 -1.59108 0
M  V30 5517 H 525.632 0.622499 -0.394543 0
M  V30 5518 H 528.274 1.1284 -1.52863 0
M  V30 5519 H 526.424 3.608 -1.44068 0
M  V30 5520 H 528.096 2.56608 -3.83341 0
M  V30 5521 H 526.339 2.35512 -3.64303 0
M  V30 5522 H 527.01 3.97857 -3.82641 0
M  V30 5523 H 529.486 3.69097 -1.92111 0
M  V30 5524 H 528.362 5.05804 -2.13198 0
M  V30 5525 H 528.623 4.38926 -0.528832 0
M  V30 5526 N 527.682 1.05563 1.17022 0
M  V30 5527 C 528.614 0.617888 2.20714 0
M  V30 5528 C 529.627 -0.320303 1.59618 0
M  V30 5529 O 530.816 -0.112449 1.78145 0
M  V30 5530 C 527.916 -0.115333 3.38704 0
M  V30 5531 C 527.089 0.834493 4.29366 0
M  V30 5532 C 526.148 0.141855 5.26009 0
M  V30 5533 O 525.174 0.777151 5.6387 0
M  V30 5534 N 526.376 -1.11934 5.69606 0
M  V30 5535 H 529.141 1.50981 2.58892 0
M  V30 5536 H 526.702 0.938008 1.31958 0
M  V30 5537 H 528.694 -0.588918 4.00392 0
M  V30 5538 H 527.264 -0.908967 2.99093 0
M  V30 5539 H 526.484 1.48762 3.65053 0
M  V30 5540 H 527.772 1.4791 4.86827 0
M  V30 5541 H 527.17 -1.65574 5.40927 0
M  V30 5542 H 525.727 -1.53692 6.33421 0
M  V30 5543 N 529.16 -1.33526 0.837174 0
M  V30 5544 C 530.385 -2.0258 0.444545 0
M  V30 5545 C 530.81 -1.6258 -0.946006 0
M  V30 5546 O 530.168 -0.817548 -1.6182 0
M  V30 5547 C 530.216 -3.5605 0.571006 0
M  V30 5548 O 529.32 -4.10422 -0.403431 0
M  V30 5549 H 528.661 -0.638866 0.180958 0
M  V30 5550 H 531.191 -1.70462 1.13154 0
M  V30 5551 H 531.201 -4.05488 0.452024 0
M  V30 5552 H 529.876 -3.84509 1.58512 0
M  V30 5553 H 528.453 -3.72113 -0.242147 0
M  V30 5554 N 530.638 -0.59345 -1.46 0
M  V30 5555 C 532.049 -0.169801 -1.85926 0
M  V30 5556 C 532.4 1.26984 -1.49565 0
M  V30 5557 O 531.525 1.96076 -0.915602 0
M  V30 5558 C 532.12 -0.301385 -3.37457 0
M  V30 5559 C 530.679 0.0674684 -3.7634 0
M  V30 5560 C 529.826 -0.632383 -2.69993 0
M  V30 5561 H 532.777 -0.801014 -1.37002 0
M  V30 5562 H 532.798 0.470331 -3.77582 0
M  V30 5563 H 532.31 -1.34927 -3.63891 0
M  V30 5564 H 530.411 1.11507 -3.55523 0
M  V30 5565 H 530.524 -0.316332 -4.78055 0
M  V30 5566 H 528.888 -0.0714961 -2.546 0
M  V30 5567 H 529.671 -1.68212 -2.99265 0
M  V30 5568 N 532.116 1.54067 -0.331816 0
M  V30 5569 C 533.064 2.26105 0.54582 0
M  V30 5570 C 534.058 1.27816 1.11173 0
M  V30 5571 O 535.264 1.45565 1.05882 0
M  V30 5572 H 531.639 0.726363 0.194683 0
M  V30 5573 H 533.61 2.98282 -0.083931 0
M  V30 5574 C 532.359 3.03814 1.69092 0
M  V30 5575 H 531.682 3.79269 1.26473 0
M  V30 5576 H 533.122 3.57453 2.28043 0
M  V30 5577 C 531.581 2.12606 2.61343 0
M  V30 5578 O 532.111 1.71437 3.6328 0
M  V30 5579 N 530.317 1.77925 2.29763 0
M  V30 5580 H 529.864 2.11602 1.46909 0
M  V30 5581 H 529.822 1.1718 2.91747 0
M  V30 5582 N 533.594 0.0601682 1.57485 0
M  V30 5583 C 534.834 -0.615384 1.94916 0
M  V30 5584 C 535.198 -1.67475 0.938948 0
M  V30 5585 O 536.399 -2.40502 1.20051 0
M  V30 5586 C 534.67 -1.18788 3.37082 0
M  V30 5587 S 536.229 -1.88018 3.96478 0
M  V30 5588 H 533.047 -0.201821 0.681754 0
M  V30 5589 H 535.649 0.131252 1.95059 0
M  V30 5590 H 534.353 -0.404869 4.08398 0
M  V30 5591 H 533.884 -1.97114 3.40455 0
M  V30 5592 H 535.899 -3.16161 3.82435 0
M  V30 5593 N 535.072 -1.5615 -0.213296 0
M  V30 5594 C 536.02 -1.93953 -1.28394 0
M  V30 5595 C 537.014 -0.822592 -1.48087 0
M  V30 5596 O 538.22 -1.00748 -1.49164 0
M  V30 5597 H 534.595 -0.61648 -0.430646 0
M  V30 5598 H 536.566 -2.83275 -0.937977 0
M  V30 5599 C 535.315 -2.27969 -2.62537 0
M  V30 5600 H 534.638 -3.13432 -2.48194 0
M  V30 5601 H 536.078 -2.58297 -3.36242 0
M  V30 5602 C 534.537 -1.10775 -3.18167 0
M  V30 5603 O 535.067 -0.373201 -3.99963 0
M  V30 5604 N 533.273 -0.889377 -2.76656 0
M  V30 5605 H 532.82 -1.48843 -2.10246 0
M  V30 5606 H 532.778 -0.107 -3.14218 0
M  V30 5607 N 536.55 0.480323 -1.50102 0
M  V30 5608 C 537.482 1.59669 -1.64433 0
M  V30 5609 C 538.495 1.54063 -0.52615 0
M  V30 5610 O 539.684 1.59619 -0.798992 0
M  V30 5611 C 536.784 2.98527 -1.6042 0
M  V30 5612 C 535.957 3.291 -2.88117 0
M  V30 5613 C 535.016 4.47468 -2.76873 0
M  V30 5614 O 534.042 4.4823 -3.50825 0
M  V30 5615 N 535.244 5.48593 -1.89806 0
M  V30 5616 H 538.009 1.47795 -2.60723 0
M  V30 5617 H 535.57 0.66858 -1.4745 0
M  V30 5618 H 537.562 3.75666 -1.50523 0
M  V30 5619 H 536.132 3.04218 -0.719036 0
M  V30 5620 H 535.352 2.40662 -3.12211 0
M  V30 5621 H 536.64 3.46334 -3.72734 0
M  V30 5622 H 536.038 5.50791 -1.2902 0
M  V30 5623 H 534.595 6.24752 -1.85819 0
M  V30 5624 N 538.028 1.39524 0.732853 0
M  V30 5625 C 539.444 1.21176 1.03868 0
M  V30 5626 C 539.644 0.0748448 2.01361 0
M  V30 5627 O 538.7 -0.57281 2.45917 0
M  V30 5628 C 540.013 2.54667 1.59892 0
M  V30 5629 C 541.561 2.6153 1.71962 0
M  V30 5630 C 542.036 3.95248 2.31394 0
M  V30 5631 N 543.527 3.96899 2.38801 0
M  V30 5632 C 544.262 4.97138 2.85729 0
M  V30 5633 N 543.758 6.07775 3.32537 0
M  V30 5634 N 545.551 4.84516 2.84957 0
M  V30 5635 H 537.702 2.12225 0.086304 0
M  V30 5636 H 539.965 0.942614 0.100907 0
M  V30 5637 H 539.671 3.38423 0.95721 0
M  V30 5638 H 539.545 2.74538 2.58668 0
M  V30 5639 H 541.932 1.78156 2.35254 0
M  V30 5640 H 542.013 2.45507 0.718327 0
M  V30 5641 H 541.657 4.79054 1.68729 0
M  V30 5642 H 541.587 4.08593 3.32204 0
M  V30 5643 H 544.078 3.16998 2.05719 0
M  V30 5644 H 544.391 6.8017 3.66862 0
M  V30 5645 H 542.736 6.11366 3.30541 0
M  V30 5646 H 545.927 3.97185 2.47713 0
M  V30 5647 H 546.1 5.62783 3.21215 0
M  V30 5648 N 539.506 -0.963266 1.24736 0
M  V30 5649 C 540.736 -1.73913 1.11524 0
M  V30 5650 C 541.144 -1.86218 -0.334612 0
M  V30 5651 O 540.487 -1.3531 -1.24245 0
M  V30 5652 C 540.549 -3.17501 1.68622 0
M  V30 5653 C 540.213 -3.28655 3.17546 0
M  V30 5654 C 541.21 -3.13637 4.14642 0
M  V30 5655 C 538.895 -3.52753 3.5759 0
M  V30 5656 C 540.889 -3.2255 5.49764 0
M  V30 5657 C 538.576 -3.61303 4.92852 0
M  V30 5658 C 539.574 -3.46214 5.88748 0
M  V30 5659 O 539.262 -3.5443 7.2155 0
M  V30 5660 H 538.994 -0.552057 0.390139 0
M  V30 5661 H 541.548 -1.2177 1.65412 0
M  V30 5662 H 539.778 -3.70969 1.09172 0
M  V30 5663 H 541.467 -3.76914 1.50635 0
M  V30 5664 H 542.233 -2.94899 3.85045 0
M  V30 5665 H 538.112 -3.63561 2.83451 0
M  V30 5666 H 541.656 -3.1069 6.24594 0
M  V30 5667 H 537.553 -3.79556 5.22118 0
M  V30 5668 H 538.321 -3.71116 7.29531 0
M  V30 5669 N 540.985 -1.06182 -1.16461 0
M  V30 5670 C 542.233 -0.776326 -1.86595 0
M  V30 5671 C 542.554 0.69921 -1.82033 0
M  V30 5672 O 541.824 1.50579 -1.2531 0
M  V30 5673 H 540.404 -0.284184 -0.690832 0
M  V30 5674 H 543.066 -1.34308 -1.41235 0
M  V30 5675 H 542.162 -1.10022 -2.92064 0
M  V30 5676 N 542.463 1.3308 -0.844243 0
M  V30 5677 C 543.709 1.98304 -0.452453 0
M  V30 5678 C 544.064 1.65645 0.978746 0
M  V30 5679 O 543.357 0.928849 1.6758 0
M  V30 5680 C 543.551 3.52045 -0.616354 0
M  V30 5681 C 543.38 3.99643 -2.06193 0
M  V30 5682 C 542.15 4.27224 -2.69829 0
M  V30 5683 C 544.348 4.15471 -3.03131 0
M  V30 5684 N 542.33 4.60998 -4.05406 0
M  V30 5685 C 543.701 4.52665 -4.23668 0
M  V30 5686 C 545.756 3.97776 -2.99465 0
M  V30 5687 C 544.459 4.74011 -5.41023 0
M  V30 5688 C 546.485 4.20301 -4.16055 0
M  V30 5689 C 545.847 4.57801 -5.35348 0
M  V30 5690 H 541.946 0.752122 -0.214096 0
M  V30 5691 H 544.53 1.61096 -1.09344 0
M  V30 5692 H 542.701 3.884 -0.00513205 0
M  V30 5693 H 544.433 4.04228 -0.19548 0
M  V30 5694 H 541.188 4.18911 -2.20931 0
M  V30 5695 H 541.612 4.82087 -4.75312 0
M  V30 5696 H 546.254 3.67893 -2.08362 0
M  V30 5697 H 543.972 5.02753 -6.32665 0
M  V30 5698 H 547.558 4.08122 -4.14641 0
M  V30 5699 H 546.438 4.74884 -6.24063 0
M  V30 5700 N 543.941 0.601185 1.45683 0
M  V30 5701 C 544.891 -0.142686 2.27553 0
M  V30 5702 C 545.875 -0.844598 1.3695 0
M  V30 5703 O 547.067 -0.735644 1.60988 0
M  V30 5704 C 544.196 -1.14364 3.23691 0
M  V30 5705 C 543.282 -0.442894 4.21781 0
M  V30 5706 N 543.673 0.51189 5.03203 0
M  V30 5707 C 541.971 -0.691277 4.4061 0
M  V30 5708 C 542.672 0.92318 5.74328 0
M  V30 5709 N 541.648 0.268308 5.42937 0
M  V30 5710 H 545.45 0.590736 2.87902 0
M  V30 5711 H 542.964 0.424365 1.56757 0
M  V30 5712 H 544.961 -1.6909 3.8107 0
M  V30 5713 H 543.621 -1.87768 2.64902 0
M  V30 5714 H 544.632 0.888329 5.10225 0
M  V30 5715 H 541.309 -1.41049 3.92952 0
M  V30 5716 H 542.699 1.71029 6.49768 0
M  V30 5717 N 545.419 -1.53889 0.339982 0
M  V30 5718 C 546.83 -1.86139 -0.144671 0
M  V30 5719 C 547.181 -1.2613 -1.50285 0
M  V30 5720 O 546.306 -0.573515 -2.08662 0
M  V30 5721 C 546.901 -3.37728 -0.269285 0
M  V30 5722 C 545.46 -3.69868 -0.698168 0
M  V30 5723 C 544.607 -2.76777 0.170249 0
M  V30 5724 H 547.558 -1.48503 0.559704 0
M  V30 5725 H 547.579 -3.64331 -1.0974 0
M  V30 5726 H 547.091 -3.81375 0.719366 0
M  V30 5727 H 545.192 -3.31764 -1.69597 0
M  V30 5728 H 545.305 -4.76582 -0.490533 0
M  V30 5729 H 543.669 -2.52188 -0.356844 0
M  V30 5730 H 544.452 -3.23253 1.15597 0
M  V30 5731 N 546.897 -0.0685191 -1.57451 0
M  V30 5732 C 547.86 0.885173 -2.11417 0
M  V30 5733 C 548.86 1.22853 -1.03748 0
M  V30 5734 O 550.05 1.16235 -1.2975 0
M  V30 5735 C 547.182 2.18964 -2.61281 0
M  V30 5736 H 548.375 0.417034 -2.96986 0
M  V30 5737 H 545.928 0.18014 -1.55258 0
M  V30 5738 H 546.663 2.70321 -1.79156 0
M  V30 5739 H 546.448 1.9534 -3.39977 0
M  V30 5740 H 547.938 2.87242 -3.0312 0
M  V30 5741 N 548.375 1.56261 0.205012 0
M  V30 5742 C 549.603 1.84141 0.943386 0
M  V30 5743 C 550.018 0.649772 1.77266 0
M  V30 5744 O 549.375 -0.381612 1.78466 0
M  V30 5745 C 549.426 3.10719 1.84759 0
M  V30 5746 O 549.147 4.25286 1.05181 0
M  V30 5747 C 550.648 3.51706 2.69848 0
M  V30 5748 H 547.868 0.611734 0.275721 0
M  V30 5749 H 550.412 2.03364 0.215253 0
M  V30 5750 H 548.567 2.93422 2.52947 0
M  V30 5751 H 548.981 4.97301 1.66709 0
M  V30 5752 H 550.455 4.43266 3.28967 0
M  V30 5753 H 550.932 2.7423 3.43067 0
M  V30 5754 H 551.538 3.71499 2.07047 0
M  V30 5755 N 549.853 -0.472356 1.50355 0
M  V30 5756 C 551.099 -1.22634 1.6152 0
M  V30 5757 C 551.432 -1.91645 0.313995 0
M  V30 5758 O 550.707 -1.82059 -0.684446 0
M  V30 5759 C 550.99 -2.27099 2.7946 0
M  V30 5760 C 550.843 -1.62402 4.19459 0
M  V30 5761 C 552.162 -3.28421 2.92964 0
M  V30 5762 H 549.281 -0.444494 0.587873 0
M  V30 5763 H 551.923 -0.520321 1.82737 0
M  V30 5764 H 550.073 -2.87314 2.61501 0
M  V30 5765 H 551.745 -1.05793 4.49005 0
M  V30 5766 H 549.988 -0.927184 4.23776 0
M  V30 5767 H 550.659 -2.38309 4.97909 0
M  V30 5768 H 553.135 -2.78227 3.09401 0
M  V30 5769 H 552.011 -3.98845 3.77113 0
M  V30 5770 H 552.272 -3.92467 2.03525 0
M  V30 5771 N 551.331 -1.39911 -0.725443 0
M  V30 5772 C 552.571 -1.39096 -1.49772 0
M  V30 5773 C 552.935 0.0106452 -1.91997 0
M  V30 5774 O 554.136 0.143859 -2.68415 0
M  V30 5775 C 552.407 -2.34441 -2.69764 0
M  V30 5776 S 553.966 -2.51898 -3.59295 0
M  V30 5777 H 550.784 -0.49314 -0.512186 0
M  V30 5778 H 553.386 -1.76093 -0.849197 0
M  V30 5779 H 552.09 -3.35123 -2.36898 0
M  V30 5780 H 551.621 -1.98692 -3.39537 0
M  V30 5781 H 553.636 -1.76402 -4.63785 0
M  V30 5782 N 552.809 0.956637 -1.25245 0
M  V30 5783 C 553.756 2.053 -1.05454 0
M  V30 5784 C 554.726 1.66062 0.0356889 0
M  V30 5785 O 555.911 1.90415 -0.121099 0
M  V30 5786 C 553.051 3.38391 -0.677191 0
M  V30 5787 C 552.164 3.90758 -1.84206 0
M  V30 5788 C 551.299 5.12165 -1.40926 0
M  V30 5789 C 550.338 5.56757 -2.54338 0
M  V30 5790 N 549.475 6.69376 -2.11848 0
M  V30 5791 H 554.315 2.21562 -1.99284 0
M  V30 5792 H 551.852 1.08578 -0.992434 0
M  V30 5793 H 553.81 4.1488 -0.43938 0
M  V30 5794 H 552.44 3.22021 0.224127 0
M  V30 5795 H 551.492 3.10808 -2.19323 0
M  V30 5796 H 552.804 4.19802 -2.69383 0
M  V30 5797 H 551.958 5.96065 -1.13098 0
M  V30 5798 H 550.697 4.84832 -0.528175 0
M  V30 5799 H 549.702 4.71423 -2.82913 0
M  V30 5800 H 550.927 5.861 -3.43022 0
M  V30 5801 H 548.873 6.43756 -1.26153 0
M  V30 5802 H 548.79 6.97927 -2.90574 0
M  V30 5803 H 550.058 7.5669 -1.87191 0
M  V30 5804 N 554.287 1.06798 1.15896 0
M  V30 5805 C 555.536 0.782796 1.8589 0
M  V30 5806 C 555.849 -0.693498 1.82893 0
M  V30 5807 O 557.055 -1.09325 2.48516 0
M  V30 5808 C 555.511 1.3502 3.33613 0
M  V30 5809 C 555.119 2.8571 3.45071 0
M  V30 5810 C 556.863 1.14278 4.08829 0
M  V30 5811 C 554.77 3.35669 4.86909 0
M  V30 5812 H 553.7 0.289149 0.696354 0
M  V30 5813 H 556.351 1.28734 1.30766 0
M  V30 5814 H 554.733 0.773407 3.88374 0
M  V30 5815 H 555.907 3.49385 3.00445 0
M  V30 5816 H 554.222 3.05178 2.83294 0
M  V30 5817 H 556.819 1.49087 5.13495 0
M  V30 5818 H 557.162 0.0814575 4.1622 0
M  V30 5819 H 557.695 1.68563 3.60321 0
M  V30 5820 H 554.434 4.41302 4.84698 0
M  V30 5821 H 553.954 2.76745 5.32139 0
M  V30 5822 H 555.633 3.31296 5.55745 0
M  V30 5823 N 555.766 -1.3263 0.851289 0
M  V30 5824 C 557.177 -1.79653 0.5081 0
M  V30 5825 C 557.528 -1.70327 -0.973815 0
M  V30 5826 O 556.653 -1.25986 -1.75944 0
M  V30 5827 C 557.248 -3.26196 0.915515 0
M  V30 5828 C 555.807 -3.71187 0.624277 0
M  V30 5829 C 554.954 -2.53804 1.11709 0
M  V30 5830 H 557.905 -1.19976 1.03882 0
M  V30 5831 H 557.926 -3.79801 0.230535 0
M  V30 5832 H 557.438 -3.32952 1.99411 0
M  V30 5833 H 555.539 -3.69948 -0.443737 0
M  V30 5834 H 555.652 -4.64132 1.18821 0
M  V30 5835 H 554.016 -2.48964 0.537484 0
M  V30 5836 H 554.799 -2.63315 2.20272 0
M  V30 5837 N 557.244 -0.608902 -1.45362 0
M  V30 5838 C 558.655 -0.189511 -1.85736 0
M  V30 5839 C 559.006 1.2539 -1.50903 0
M  V30 5840 O 558.131 1.95094 -0.936347 0
M  V30 5841 C 558.726 -0.33716 -3.37118 0
M  V30 5842 C 557.285 0.0275487 -3.7639 0
M  V30 5843 C 556.432 -0.660983 -2.69307 0
M  V30 5844 H 559.383 -0.815499 -1.36144 0
M  V30 5845 H 559.404 0.430257 -3.7806 0
M  V30 5846 H 558.916 -1.38779 -3.62439 0
M  V30 5847 H 557.017 1.0773 -3.56686 0
M  V30 5848 H 557.13 -0.367018 -4.77692 0
M  V30 5849 H 555.494 -0.0984958 -2.54509 0
M  V30 5850 H 556.277 -1.71377 -2.97464 0
M  V30 5851 N 558.722 1.53707 -0.348139 0
M  V30 5852 C 559.97 2.00591 0.246478 0
M  V30 5853 C 560.291 1.23753 1.50699 0
M  V30 5854 O 559.561 0.345964 1.92821 0
M  V30 5855 H 558.141 0.741053 0.0940679 0
M  V30 5856 H 560.803 1.89139 -0.470354 0
M  V30 5857 H 559.899 3.08297 0.485714 0
M  V30 5858 N 560.2 0.0768682 1.57412 0
M  V30 5859 C 561.44 -0.594676 1.95558 0
M  V30 5860 C 561.804 -1.66469 0.956658 0
M  V30 5861 O 563.005 -2.39215 1.22595 0
M  V30 5862 C 561.276 -1.15206 3.38323 0
M  V30 5863 S 562.835 -1.83803 3.9845 0
M  V30 5864 H 559.653 -0.194579 0.683857 0
M  V30 5865 H 562.255 0.151933 1.94909 0
M  V30 5866 H 560.959 -0.36153 4.08805 0
M  V30 5867 H 560.49 -1.93491 3.42527 0
M  V30 5868 H 562.505 -3.12087 3.85767 0
M  V30 5869 N 561.678 -1.56367 -0.196722 0
M  V30 5870 C 562.626 -1.95304 -1.2633 0
M  V30 5871 C 563.62 -0.838252 -1.47206 0
M  V30 5872 O 564.826 -1.02325 -1.48087 0
M  V30 5873 H 561.201 -0.621013 -0.424083 0
M  V30 5874 H 563.172 -2.84254 -0.907879 0
M  V30 5875 C 561.921 -2.3074 -2.60104 0
M  V30 5876 H 561.244 -3.16047 -2.44856 0
M  V30 5877 H 562.684 -2.61849 -3.33484 0
M  V30 5878 C 561.143 -1.14143 -3.16975 0
M  V30 5879 O 561.673 -0.415602 -3.99544 0
M  V30 5880 N 559.879 -0.91867 -2.75697 0
M  V30 5881 H 559.426 -1.51065 -2.08656 0
M  V30 5882 H 559.384 -0.140321 -3.14087 0
M  V30 5883 N 563.156 0.464375 -1.50603 0
M  V30 5884 C 564.086 1.56944 -1.72889 0
M  V30 5885 C 565.067 1.59979 -0.577997 0
M  V30 5886 O 566.252 1.76138 -0.817855 0
M  V30 5887 C 563.382 2.95225 -1.8292 0
M  V30 5888 C 562.336 3.07056 -2.98162 0
M  V30 5889 C 561.662 4.47051 -2.93343 0
M  V30 5890 C 562.962 2.83648 -4.38567 0
M  V30 5891 H 564.656 1.38547 -2.65415 0
M  V30 5892 H 562.202 0.665082 -1.27721 0
M  V30 5893 H 564.155 3.72467 -1.97095 0
M  V30 5894 H 562.879 3.14793 -0.870209 0
M  V30 5895 H 561.538 2.32248 -2.83648 0
M  V30 5896 H 561.186 4.63547 -1.95276 0
M  V30 5897 H 560.886 4.55902 -3.70712 0
M  V30 5898 H 562.41 5.26304 -3.09575 0
M  V30 5899 H 563.824 3.50636 -4.53572 0
M  V30 5900 H 562.221 3.03937 -5.17438 0
M  V30 5901 H 563.291 1.79451 -4.50472 0
M  V30 5902 N 564.634 1.40294 0.718013 0
M  V30 5903 C 565.581 1.40367 1.8321 0
M  V30 5904 C 566.551 0.260952 1.64037 0
M  V30 5905 O 567.736 0.458648 1.85205 0
M  V30 5906 C 564.876 1.26965 3.20895 0
M  V30 5907 C 563.989 2.50922 3.51656 0
M  V30 5908 C 563.124 2.29981 4.78834 0
M  V30 5909 C 562.163 3.49527 5.02491 0
M  V30 5910 N 561.3 3.27796 6.20882 0
M  V30 5911 H 566.14 2.35593 1.82482 0
M  V30 5912 H 563.677 1.17012 0.891444 0
M  V30 5913 H 565.635 1.17202 4.00399 0
M  V30 5914 H 564.265 0.353591 3.20858 0
M  V30 5915 H 563.317 2.71223 2.66725 0
M  V30 5916 H 564.629 3.39913 3.65048 0
M  V30 5917 H 563.783 2.17558 5.66351 0
M  V30 5918 H 562.522 1.38411 4.67647 0
M  V30 5919 H 561.527 3.6243 4.1343 0
M  V30 5920 H 562.752 4.42021 5.15553 0
M  V30 5921 H 560.698 2.38906 6.1095 0
M  V30 5922 H 560.615 4.10351 6.34939 0
M  V30 5923 H 561.883 3.19101 7.11193 0
M  V30 5924 N 566.112 -0.949982 1.2575 0
M  V30 5925 C 567.361 -1.68956 1.10168 0
M  V30 5926 C 567.674 -1.92327 -0.356309 0
M  V30 5927 O 568.88 -2.64026 -0.632657 0
M  V30 5928 C 567.336 -3.04196 1.92336 0
M  V30 5929 C 566.944 -2.88603 3.42655 0
M  V30 5930 C 568.688 -3.81904 1.85336 0
M  V30 5931 C 566.595 -4.19262 4.17101 0
M  V30 5932 H 565.525 -0.633645 0.408668 0
M  V30 5933 H 568.176 -1.05719 1.49986 0
M  V30 5934 H 566.558 -3.68363 1.45344 0
M  V30 5935 H 567.732 -2.3334 3.97353 0
M  V30 5936 H 566.047 -2.24345 3.50796 0
M  V30 5937 H 568.644 -4.78688 2.38248 0
M  V30 5938 H 568.987 -4.08099 0.822226 0
M  V30 5939 H 569.52 -3.24495 2.30104 0
M  V30 5940 H 566.259 -3.98254 5.20648 0
M  V30 5941 H 565.779 -4.74273 3.67186 0
M  V30 5942 H 567.458 -4.87775 4.25071 0
M  V30 5943 N 567.59 -1.07411 -1.15328 0
M  V30 5944 C 568.837 -0.797649 -1.86128 0
M  V30 5945 C 569.165 0.676298 -1.82364 0
M  V30 5946 O 568.42 1.51223 -1.24218 0
M  V30 5947 C 568.719 -1.25191 -3.34757 0
M  V30 5948 C 568.385 -2.73191 -3.58716 0
M  V30 5949 C 567.047 -3.13616 -3.64964 0
M  V30 5950 C 569.399 -3.68718 -3.6837 0
M  V30 5951 C 566.727 -4.48383 -3.78377 0
M  V30 5952 C 569.079 -5.03248 -3.83306 0
M  V30 5953 C 567.743 -5.43293 -3.878 0
M  V30 5954 H 567.013 -0.29188 -0.681092 0
M  V30 5955 H 569.66 -1.34524 -1.36292 0
M  V30 5956 H 567.965 -0.623712 -3.86804 0
M  V30 5957 H 569.662 -1.01489 -3.87945 0
M  V30 5958 H 566.252 -2.40898 -3.54494 0
M  V30 5959 H 570.436 -3.38614 -3.62842 0
M  V30 5960 H 565.692 -4.78877 -3.80114 0
M  V30 5961 H 569.866 -5.77142 -3.89718 0
M  V30 5962 H 567.493 -6.47721 -3.97946 0
M  V30 5963 N 569.068 1.32177 -0.85831 0
M  V30 5964 C 570.016 2.30729 -0.294442 0
M  V30 5965 C 571.01 1.59009 0.584165 0
M  V30 5966 O 572.216 1.73713 0.471562 0
M  V30 5967 H 568.591 0.748097 -0.0765171 0
M  V30 5968 H 570.562 2.75774 -1.1398 0
M  V30 5969 C 569.311 3.44098 0.499208 0
M  V30 5970 H 568.634 3.99449 -0.167579 0
M  V30 5971 H 570.074 4.15202 0.859273 0
M  V30 5972 C 568.533 2.91684 1.68588 0
M  V30 5973 O 569.063 2.89481 2.78503 0
M  V30 5974 N 567.269 2.48036 1.51415 0
M  V30 5975 H 566.816 2.50027 0.620006 0
M  V30 5976 H 566.774 2.13322 2.30957 0
M  V30 5977 N 570.547 0.616602 1.45037 0
M  V30 5978 C 571.495 -0.109318 2.32343 0
M  V30 5979 C 572.489 -0.850543 1.465 0
M  V30 5980 O 573.695 -0.765088 1.62931 0
M  V30 5981 H 570.07 -0.0541091 0.750051 0
M  V30 5982 H 572.041 0.645326 2.91338 0
M  V30 5983 C 570.79 -1.0872 3.30266 0
M  V30 5984 H 570.113 -0.526267 3.96321 0
M  V30 5985 H 571.553 -1.56489 3.94065 0
M  V30 5986 C 570.012 -2.16525 2.58105 0
M  V30 5987 O 570.542 -3.244 2.36913 0
M  V30 5988 N 568.748 -1.92057 2.18088 0
M  V30 5989 H 568.295 -1.04337 2.35524 0
M  V30 5990 H 568.253 -2.64391 1.70131 0
M  V30 5991 N 572.025 -1.5352 0.356285 0
M  V30 5992 C 572.957 -2.23009 -0.529127 0
M  V30 5993 C 573.97 -1.241 -1.05371 0
M  V30 5994 O 575.159 -1.50379 -0.961679 0
M  V30 5995 C 572.259 -2.90685 -1.74229 0
M  V30 5996 C 571.432 -4.16019 -1.35081 0
M  V30 5997 C 570.491 -4.66989 -2.42502 0
M  V30 5998 O 569.517 -5.30895 -2.05279 0
M  V30 5999 N 570.719 -4.44006 -3.7395 0
M  V30 6000 H 573.484 -2.99627 0.0660501 0
M  V30 6001 H 571.045 -1.60885 0.181014 0
M  V30 6002 H 573.037 -3.21695 -2.4555 0
M  V30 6003 H 571.607 -2.17575 -2.24454 0
M  V30 6004 H 570.827 -3.91414 -0.467833 0
M  V30 6005 H 572.115 -4.9752 -1.06542 0
M  V30 6006 H 571.513 -3.92924 -4.06973 0
M  V30 6007 H 570.07 -4.7959 -4.41403 0
M  V30 6008 N 573.503 -0.0852151 -1.57369 0
M  V30 6009 C 574.413 0.891712 -2.16992 0
M  V30 6010 C 575.429 1.3174 -1.13669 0
M  V30 6011 O 576.605 1.38735 -1.45995 0
M  V30 6012 C 573.67 2.13635 -2.73059 0
M  V30 6013 C 572.731 1.7658 -3.91303 0
M  V30 6014 C 571.964 2.95111 -4.44686 0
M  V30 6015 O 572.187 4.09539 -3.97032 0
M  V30 6016 O 571.121 2.74149 -5.35841 0
M  V30 6017 H 574.947 0.414477 -3.00858 0
M  V30 6018 H 572.532 0.138598 -1.48756 0
M  V30 6019 H 574.414 2.86595 -3.08935 0
M  V30 6020 H 573.089 2.6043 -1.92244 0
M  V30 6021 H 571.996 1.00831 -3.60255 0
M  V30 6022 H 573.329 1.34557 -4.7345 0
M  V30 6023 N 574.981 1.5647 0.188427 0
M  V30 6024 C 576.228 1.81013 0.907779 0
M  V30 6025 C 576.556 0.65953 1.82977 0
M  V30 6026 O 575.811 -0.354308 1.92466 0
M  V30 6027 C 576.11 3.11596 1.7505 0
M  V30 6028 C 575.776 4.40145 0.978922 0
M  V30 6029 C 574.438 4.75066 0.765912 0
M  V30 6030 C 576.79 5.19369 0.436498 0
M  V30 6031 C 574.118 5.867 -0.00089868 0
M  V30 6032 C 576.47 6.31805 -0.317136 0
M  V30 6033 C 575.134 6.65303 -0.541103 0
M  V30 6034 H 574.404 0.662373 0.33218 0
M  V30 6035 H 577.051 1.9071 0.173732 0
M  V30 6036 H 575.356 2.97165 2.55343 0
M  V30 6037 H 577.053 3.27793 2.30983 0
M  V30 6038 H 573.643 4.12745 1.15497 0
M  V30 6039 H 577.827 4.92799 0.588449 0
M  V30 6040 H 573.083 6.11122 -0.184329 0
M  V30 6041 H 577.257 6.92406 -0.744788 0
M  V30 6042 H 574.884 7.51646 -1.13718 0
M  V30 6043 N 576.459 -0.456382 1.50847 0
M  V30 6044 C 577.422 -1.53493 1.70213 0
M  V30 6045 C 578.422 -1.50264 0.572481 0
M  V30 6046 O 579.612 -1.52623 0.839751 0
M  V30 6047 C 576.744 -2.93091 1.741 0
M  V30 6048 H 577.937 -1.37633 2.66453 0
M  V30 6049 H 575.49 -0.683776 1.4055 0
M  V30 6050 H 576.225 -3.14378 0.796063 0
M  V30 6051 H 576.01 -2.9684 2.5618 0
M  V30 6052 H 577.5 -3.71368 1.90987 0
M  V30 6053 N 577.937 -1.40673 -0.710563 0
M  V30 6054 C 578.9 -1.4108 -1.80635 0
M  V30 6055 C 579.9 -0.303783 -1.57904 0
M  V30 6056 O 581.09 -0.562937 -1.64853 0
M  V30 6057 C 578.222 -1.20748 -3.18799 0
M  V30 6058 H 579.415 -2.38612 -1.81671 0
M  V30 6059 H 576.968 -1.26595 -0.916704 0
M  V30 6060 H 577.703 -0.239964 -3.23411 0
M  V30 6061 H 577.488 -2.00941 -3.36698 0
M  V30 6062 H 578.978 -1.23833 -3.98817 0
M  V30 6063 N 579.415 0.9433 -1.26252 0
M  V30 6064 C 580.345 2.05902 -1.10122 0
M  V30 6065 C 581.326 1.70099 -0.00700552 0
M  V30 6066 O 582.511 1.93377 -0.178641 0
M  V30 6067 C 579.641 3.39516 -0.731175 0
M  V30 6068 C 578.595 3.89372 -1.77688 0
M  V30 6069 C 577.921 5.19613 -1.26122 0
M  V30 6070 C 579.221 4.14489 -3.17799 0
M  V30 6071 H 580.915 2.19655 -2.03451 0
M  V30 6072 H 578.461 1.05548 -0.979576 0
M  V30 6073 H 580.414 4.17031 -0.605215 0
M  V30 6074 H 579.138 3.25733 0.23782 0
M  V30 6075 H 577.797 3.14036 -1.89148 0
M  V30 6076 H 577.445 5.02208 -0.282128 0
M  V30 6077 H 577.145 5.53939 -1.96023 0
M  V30 6078 H 578.669 5.99713 -1.14789 0
M  V30 6079 H 580.083 4.82625 -3.09428 0
M  V30 6080 H 578.48 4.60094 -3.85271 0
M  V30 6081 H 579.55 3.20347 -3.64014 0
M  V30 6082 N 580.893 1.08022 1.14757 0
M  V30 6083 C 581.823 0.728248 2.21853 0
M  V30 6084 C 582.804 -0.287486 1.67653 0
M  V30 6085 O 583.989 -0.158727 1.9355 0
M  V30 6086 C 581.119 0.132549 3.47047 0
M  V30 6087 C 580.073 1.07619 4.14249 0
M  V30 6088 C 579.399 0.342907 5.33599 0
M  V30 6089 C 580.699 2.41268 4.63235 0
M  V30 6090 H 582.393 1.62365 2.51551 0
M  V30 6091 H 579.939 0.782125 1.20908 0
M  V30 6092 H 581.892 -0.125665 4.21213 0
M  V30 6093 H 580.616 -0.797971 3.16702 0
M  V30 6094 H 579.275 1.31944 3.42033 0
M  V30 6095 H 578.923 -0.59129 4.99513 0
M  V30 6096 H 578.623 0.971955 5.79506 0
M  V30 6097 H 580.147 0.0926538 6.1053 0
M  V30 6098 H 581.561 2.21232 5.28894 0
M  V30 6099 H 579.958 2.9983 5.19829 0
M  V30 6100 H 581.028 3.03079 3.78512 0
M  V30 6101 N 582.371 -1.3172 0.865308 0
M  V30 6102 C 583.334 -2.26918 0.322627 0
M  V30 6103 C 584.334 -1.52031 -0.523751 0
M  V30 6104 O 585.524 -1.70973 -0.333727 0
M  V30 6105 C 582.656 -3.36558 -0.542338 0
M  V30 6106 H 583.849 -2.76432 1.16298 0
M  V30 6107 H 581.402 -1.42573 0.640512 0
M  V30 6108 H 582.137 -2.92329 -1.40407 0
M  V30 6109 H 581.922 -3.92048 0.0636395 0
M  V30 6110 H 583.412 -4.07465 -0.91446 0
M  V30 6111 N 583.85 -0.624285 -1.44708 0
M  V30 6112 C 584.782 0.12305 -2.28869 0
M  V30 6113 C 585.795 0.81557 -1.40898 0
M  V30 6114 O 586.984 0.678162 -1.65116 0
M  V30 6115 C 584.084 1.19612 -3.1709 0
M  V30 6116 C 583.257 0.587452 -4.33437 0
M  V30 6117 C 582.316 1.55358 -5.02743 0
M  V30 6118 O 581.341 1.07338 -5.58988 0
M  V30 6119 N 582.543 2.88798 -5.03563 0
M  V30 6120 H 585.308 -0.599193 -2.93649 0
M  V30 6121 H 582.87 -0.464954 -1.5508 0
M  V30 6122 H 584.861 1.84261 -3.60319 0
M  V30 6123 H 583.432 1.82067 -2.54107 0
M  V30 6124 H 582.652 -0.237509 -3.93484 0
M  V30 6125 H 583.94 0.161326 -5.08544 0
M  V30 6126 H 583.338 3.30399 -4.59188 0
M  V30 6127 H 581.894 3.48826 -5.50603 0
M  V30 6128 N 585.328 1.53329 -0.364422 0
M  V30 6129 C 586.553 2.06132 0.229033 0
M  V30 6130 C 586.978 1.23625 1.41769 0
M  V30 6131 O 586.336 0.255038 1.79497 0
M  V30 6132 C 586.384 3.55544 0.60174 0
M  V30 6133 O 585.488 3.75771 1.69912 0
M  V30 6134 H 584.829 0.663148 0.0336213 0
M  V30 6135 H 587.359 1.97758 -0.524689 0
M  V30 6136 H 587.369 3.98549 0.873073 0
M  V30 6137 H 586.044 4.15039 -0.267421 0
M  V30 6138 H 584.621 3.44663 1.42343 0
M  V30 6139 N 586.806 0.0935595 1.57322 0
M  V30 6140 C 588.052 -0.571355 1.94585 0
M  V30 6141 C 588.385 -1.67929 0.975366 0
M  V30 6142 O 587.66 -1.94498 0.00816206 0
M  V30 6143 C 587.943 -1.12797 3.41978 0
M  V30 6144 C 587.796 -0.0251881 4.49793 0
M  V30 6145 C 589.115 -2.02682 3.90651 0
M  V30 6146 H 586.234 -0.206223 0.70756 0
M  V30 6147 H 588.876 0.163956 1.89291 0
M  V30 6148 H 587.026 -1.75461 3.4662 0
M  V30 6149 H 588.698 0.608979 4.57263 0
M  V30 6150 H 586.941 0.641399 4.29032 0
M  V30 6151 H 587.612 -0.455433 5.50118 0
M  V30 6152 H 590.088 -1.49925 3.88152 0
M  V30 6153 H 588.964 -2.38555 4.94351 0
M  V30 6154 H 589.225 -2.94362 3.29854 0
M  V30 6155 N 588.284 -1.56567 -0.180126 0
M  V30 6156 C 589.232 -1.96632 -1.24251 0
M  V30 6157 C 590.226 -0.853818 -1.46309 0
M  V30 6158 O 591.432 -1.0389 -1.46993 0
M  V30 6159 H 587.807 -0.625476 -0.417473 0
M  V30 6160 H 589.778 -2.85201 -0.877679 0
M  V30 6161 C 588.527 -2.33486 -2.57642 0
M  V30 6162 H 587.85 -3.18626 -2.4149 0
M  V30 6163 H 589.29 -2.65371 -3.30688 0
M  V30 6164 C 587.749 -1.17499 -3.15746 0
M  V30 6165 O 588.279 -0.457956 -3.99081 0
M  V30 6166 N 586.485 -0.94786 -2.74707 0
M  V30 6167 H 586.032 -1.53269 -2.07042 0
M  V30 6168 H 585.99 -0.173626 -3.1392 0
M  V30 6169 N 589.762 0.448376 -1.51087 0
M  V30 6170 C 590.694 1.56146 -1.67783 0
M  V30 6171 C 591.707 1.52913 -0.55871 0
M  V30 6172 O 592.896 1.57889 -0.83267 0
M  V30 6173 C 589.996 2.95057 -1.66716 0
M  V30 6174 C 589.169 3.22915 -2.95033 0
M  V30 6175 C 588.228 4.41495 -2.86302 0
M  V30 6176 O 587.254 4.40688 -3.60254 0
M  V30 6177 N 588.456 5.44443 -2.014 0
M  V30 6178 H 591.221 1.42232 -2.638 0
M  V30 6179 H 588.782 0.637153 -1.48835 0
M  V30 6180 H 590.774 3.72388 -1.58458 0
M  V30 6181 H 589.344 3.02624 -0.783403 0
M  V30 6182 H 588.564 2.33985 -3.17245 0
M  V30 6183 H 589.852 3.38349 -3.79996 0
M  V30 6184 H 589.25 5.4793 -1.40674 0
M  V30 6185 H 587.807 6.2067 -1.99029 0
M  V30 6186 N 591.24 1.41047 0.703093 0
M  V30 6187 C 592.488 1.39723 1.4602 0
M  V30 6188 C 592.809 0.00461257 1.94999 0
M  V30 6189 O 592.079 -0.952292 1.71196 0
M  V30 6190 H 590.659 0.514281 0.541779 0
M  V30 6191 H 593.321 1.76217 0.832678 0
M  V30 6192 H 592.417 2.07982 2.32701 0
M  V30 6193 N 592.718 -0.936591 1.26751 0
M  V30 6194 C 593.965 -1.68331 1.12566 0
M  V30 6195 C 594.293 -1.91677 -0.330168 0
M  V30 6196 O 593.548 -1.49859 -1.2586 0
M  V30 6197 C 593.847 -3.06099 1.84494 0
M  V30 6198 C 593.513 -3.02493 3.34378 0
M  V30 6199 C 592.175 -3.01217 3.75262 0
M  V30 6200 C 594.527 -2.94453 4.30055 0
M  V30 6201 C 591.855 -2.89672 5.10203 0
M  V30 6202 C 594.207 -2.84449 5.65041 0
M  V30 6203 C 592.871 -2.81518 6.0523 0
M  V30 6204 H 592.141 -0.615965 0.411907 0
M  V30 6205 H 594.788 -1.09292 1.5725 0
M  V30 6206 H 593.093 -3.6879 1.32292 0
M  V30 6207 H 594.79 -3.62733 1.70955 0
M  V30 6208 H 591.38 -3.04269 3.01858 0
M  V30 6209 H 595.564 -2.94544 3.99447 0
M  V30 6210 H 590.82 -2.85783 5.40498 0
M  V30 6211 H 594.994 -2.77192 6.38856 0
M  V30 6212 H 592.621 -2.72329 7.09747 0
M  V30 6213 N 594.196 -1.08629 -1.14182 0
M  V30 6214 C 595.106 -0.730126 -2.22949 0
M  V30 6215 C 596.122 0.26436 -1.7198 0
M  V30 6216 O 597.298 0.107742 -2.01112 0
M  V30 6217 C 594.363 -0.147227 -3.46387 0
M  V30 6218 C 593.424 -1.19662 -4.12286 0
M  V30 6219 C 592.657 -0.641437 -5.29831 0
M  V30 6220 O 592.88 0.538351 -5.67854 0
M  V30 6221 O 591.814 -1.39257 -5.85569 0
M  V30 6222 H 595.64 -1.63753 -2.55771 0
M  V30 6223 H 593.225 -0.860118 -1.22157 0
M  V30 6224 H 595.107 0.174923 -4.21037 0
M  V30 6225 H 593.782 0.733304 -3.15285 0
M  V30 6226 H 592.689 -1.57133 -3.395 0
M  V30 6227 H 594.022 -2.0495 -4.475 0
M  V30 6228 N 595.674 1.31259 -0.872281 0
M  V30 6229 C 596.637 2.26744 -0.334656 0
M  V30 6230 C 597.637 1.52307 0.515681 0
M  V30 6231 O 598.827 1.71148 0.324656 0
M  V30 6232 C 595.959 3.36841 0.524482 0
M  V30 6233 H 597.152 2.75812 -1.17762 0
M  V30 6234 H 594.705 1.42232 -0.648064 0
M  V30 6235 H 595.44 2.93069 1.38855 0
M  V30 6236 H 595.225 3.92009 -0.0844299 0
M  V30 6237 H 596.715 4.07944 0.892838 0
M  V30 6238 N 597.152 0.631951 1.44375 0
M  V30 6239 C 598.398 0.13697 2.02337 0
M  V30 6240 C 598.731 -1.23826 1.49602 0
M  V30 6241 O 598.006 -1.8221 0.680415 0
M  V30 6242 C 598.289 0.124536 3.59885 0
M  V30 6243 C 598.142 1.53217 4.229 0
M  V30 6244 C 599.461 -0.550481 4.36644 0
M  V30 6245 H 596.58 0.051247 0.735216 0
M  V30 6246 H 599.222 0.808581 1.71936 0
M  V30 6247 H 597.372 -0.44737 3.85916 0
M  V30 6248 H 599.044 2.15303 4.07973 0
M  V30 6249 H 597.287 2.0858 3.80364 0
M  V30 6250 H 597.958 1.4755 5.31914 0
M  V30 6251 H 600.434 -0.0641154 4.16051 0
M  V30 6252 H 599.31 -0.528371 5.46351 0
M  V30 6253 H 599.571 -1.62097 4.11311 0
M  V30 6254 N 598.631 -1.53133 0.372548 0
M  V30 6255 C 599.861 -2.05476 -0.215202 0
M  V30 6256 C 600.269 -1.24534 -1.42436 0
M  V30 6257 O 599.612 -0.280771 -1.81542 0
M  V30 6258 C 599.674 -3.53276 -0.666068 0
M  V30 6259 C 599.338 -4.54998 0.427342 0
M  V30 6260 C 600.335 -5.03911 1.27944 0
M  V30 6261 C 598.02 -4.98828 0.589579 0
M  V30 6262 C 600.014 -5.95263 2.27905 0
M  V30 6263 C 597.701 -5.89984 1.59255 0
M  V30 6264 C 598.699 -6.38093 2.43571 0
M  V30 6265 O 598.387 -7.27451 3.42156 0
M  V30 6266 H 598.119 -0.67481 -0.040099 0
M  V30 6267 H 600.673 -1.98409 0.531312 0
M  V30 6268 H 598.903 -3.57904 -1.4643 0
M  V30 6269 H 600.592 -3.88442 -1.1776 0
M  V30 6270 H 601.358 -4.70792 1.16532 0
M  V30 6271 H 597.237 -4.60965 -0.0569456 0
M  V30 6272 H 600.781 -6.32736 2.93753 0
M  V30 6273 H 596.678 -6.22518 1.70711 0
M  V30 6274 H 597.446 -7.45467 3.37967 0
M  V30 6275 N 600.109 -0.101901 -1.5727 0
M  V30 6276 C 601.041 0.884723 -2.11436 0
M  V30 6277 C 602.054 1.24149 -1.05314 0
M  V30 6278 O 603.243 1.19341 -1.3274 0
M  V30 6279 C 600.343 2.19179 -2.58484 0
M  V30 6280 C 599.516 2.00933 -3.88516 0
M  V30 6281 C 598.575 3.15213 -4.2134 0
M  V30 6282 O 597.601 2.88877 -4.90448 0
M  V30 6283 N 598.803 4.41174 -3.77288 0
M  V30 6284 H 601.568 0.422058 -2.96713 0
M  V30 6285 H 599.129 0.0830128 -1.61687 0
M  V30 6286 H 601.121 2.94593 -2.77484 0
M  V30 6287 H 599.691 2.56847 -1.7818 0
M  V30 6288 H 598.911 1.09809 -3.78597 0
M  V30 6289 H 600.199 1.86026 -4.73573 0
M  V30 6290 H 599.597 4.6545 -3.21516 0
M  V30 6291 H 598.154 5.13515 -4.01429 0
M  V30 6292 N 601.587 1.56661 0.17182 0
M  V30 6293 C 602.517 1.99401 1.21498 0
M  V30 6294 C 603.498 0.869516 1.46197 0
M  V30 6295 O 604.683 1.13556 1.57539 0
M  V30 6296 C 601.813 2.35346 2.55401 0
M  V30 6297 C 600.767 3.5075 2.45272 0
M  V30 6298 C 600.093 3.72437 3.8366 0
M  V30 6299 C 601.393 4.84216 1.95787 0
M  V30 6300 H 603.087 2.86792 0.859699 0
M  V30 6301 H 600.633 1.37977 0.412103 0
M  V30 6302 H 602.586 2.63843 3.2858 0
M  V30 6303 H 601.31 1.44864 2.92715 0
M  V30 6304 H 599.969 3.2238 1.74547 0
M  V30 6305 H 599.617 2.79246 4.18367 0
M  V30 6306 H 599.317 4.50087 3.77751 0
M  V30 6307 H 600.841 4.03334 4.58426 0
M  V30 6308 H 602.255 5.11592 2.5874 0
M  V30 6309 H 600.652 5.65498 2.00827 0
M  V30 6310 H 601.722 4.76243 0.912159 0
M  V30 6311 N 603.065 -0.440357 1.51323 0
M  V30 6312 C 604.293 -1.21255 1.67645 0
M  V30 6313 C 604.708 -1.85088 0.37252 0
M  V30 6314 O 604.065 -1.70582 -0.648683 0
M  V30 6315 C 604.116 -2.29881 2.78993 0
M  V30 6316 O 603.837 -1.68659 4.04334 0
M  V30 6317 C 605.338 -3.20214 3.06558 0
M  V30 6318 H 602.558 -0.36558 0.562666 0
M  V30 6319 H 605.102 -0.52214 1.97722 0
M  V30 6320 H 603.257 -2.94643 2.51524 0
M  V30 6321 H 603.671 -2.40426 4.6615 0
M  V30 6322 H 605.145 -3.92575 3.88058 0
M  V30 6323 H 605.622 -3.80794 2.18844 0
M  V30 6324 H 606.228 -2.61156 3.35675 0
M  V30 6325 N 604.543 -1.41418 -0.695603 0
M  V30 6326 C 605.959 -1.23887 -1.00619 0
M  V30 6327 C 606.159 -0.128206 -2.01092 0
M  V30 6328 O 605.215 0.507408 -2.47349 0
M  V30 6329 C 606.528 -2.58816 -1.53083 0
M  V30 6330 C 608.076 -2.65998 -1.64967 0
M  V30 6331 C 608.551 -4.01244 -2.20833 0
M  V30 6332 N 610.042 -4.0309 -2.28194 0
M  V30 6333 C 610.777 -5.04539 -2.72448 0
M  V30 6334 N 610.273 -6.16378 -3.16306 0
M  V30 6335 N 612.066 -4.91901 -2.72011 0
M  V30 6336 H 604.217 -2.12379 -0.0300061 0
M  V30 6337 H 606.48 -0.944958 -0.0758797 0
M  V30 6338 H 606.186 -3.40842 -0.867147 0
M  V30 6339 H 606.06 -2.81299 -2.51298 0
M  V30 6340 H 608.447 -1.84331 -2.30448 0
M  V30 6341 H 608.528 -2.47325 -0.652982 0
M  V30 6342 H 608.172 -4.83359 -1.55968 0
M  V30 6343 H 608.102 -4.17257 -3.21254 0
M  V30 6344 H 610.593 -3.22341 -1.97242 0
M  V30 6345 H 610.906 -6.89658 -3.487 0
M  V30 6346 H 609.251 -6.19914 -3.14215 0
M  V30 6347 H 612.442 -4.03613 -2.37095 0
M  V30 6348 H 612.615 -5.71102 -3.06181 0
M  V30 6349 N 606.021 0.929856 -1.27246 0
M  V30 6350 C 606.954 2.03069 -1.04106 0
M  V30 6351 C 607.932 1.62556 0.0378417 0
M  V30 6352 O 609.116 1.88197 -0.106869 0
M  V30 6353 C 606.243 3.33718 -0.578778 0
M  V30 6354 C 605.289 3.93209 -1.65193 0
M  V30 6355 S 606.122 4.26068 -3.24386 0
M  V30 6356 C 607.278 5.598 -2.79954 0
M  V30 6357 H 607.511 2.22386 -1.97311 0
M  V30 6358 H 605.044 1.07269 -1.11053 0
M  V30 6359 H 607.002 4.09261 -0.31874 0
M  V30 6360 H 605.663 3.12328 0.333182 0
M  V30 6361 H 604.856 4.87482 -1.27973 0
M  V30 6362 H 604.458 3.24243 -1.86393 0
M  V30 6363 H 606.75 6.39004 -2.25123 0
M  V30 6364 H 607.693 6.01917 -3.72963 0
M  V30 6365 H 608.101 5.20219 -2.19164 0
M  V30 6366 N 607.499 1.09233 1.13605 0
M  V30 6367 C 608.739 0.836786 1.86487 0
M  V30 6368 C 609.103 -0.626191 1.81502 0
M  V30 6369 O 610.304 -0.99758 2.49603 0
M  V30 6370 C 608.575 1.35476 3.30728 0
M  V30 6371 S 610.134 1.2328 4.21126 0
M  V30 6372 H 606.952 0.302702 0.643345 0
M  V30 6373 H 609.554 1.3953 1.36936 0
M  V30 6374 H 608.258 2.41381 3.31909 0
M  V30 6375 H 607.789 0.792286 3.85339 0
M  V30 6376 H 609.804 0.182468 4.95864 0
M  V30 6377 N 608.977 -1.30795 0.87923 0
M  V30 6378 C 610.205 -2.00527 0.509548 0
M  V30 6379 C 610.62 -1.65944 -0.90045 0
M  V30 6380 O 609.977 -0.893525 -1.5913 0
M  V30 6381 C 610.028 -3.55276 0.667943 0
M  V30 6382 O 609.749 -3.88625 2.02242 0
M  V30 6383 C 611.25 -4.4228 0.300494 0
M  V30 6384 H 608.47 -0.641261 0.197549 0
M  V30 6385 H 611.014 -1.66813 1.18295 0
M  V30 6386 H 609.169 -3.87377 0.0419843 0
M  V30 6387 H 609.583 -4.83334 2.03688 0
M  V30 6388 H 611.057 -5.50061 0.462242 0
M  V30 6389 H 611.534 -4.32556 -0.76106 0
M  V30 6390 H 612.14 -4.15613 0.902536 0
M  V30 6391 N 610.455 -0.639598 -1.44038 0
M  V30 6392 C 611.704 -0.144885 -2.01179 0
M  V30 6393 C 612.017 1.24372 -1.50967 0
M  V30 6394 O 613.223 1.83291 -2.00292 0
M  V30 6395 C 611.679 -0.208244 -3.59297 0
M  V30 6396 C 611.287 -1.59869 -4.18504 0
M  V30 6397 C 613.031 0.229568 -4.23879 0
M  V30 6398 C 610.938 -1.61671 -5.68873 0
M  V30 6399 H 609.868 -0.0504005 -0.752314 0
M  V30 6400 H 612.519 -0.799639 -1.65161 0
M  V30 6401 H 610.901 0.513767 -3.92653 0
M  V30 6402 H 612.075 -2.34496 -3.96671 0
M  V30 6403 H 610.39 -1.98131 -3.66242 0
M  V30 6404 H 612.987 0.235758 -5.3418 0
M  V30 6405 H 613.33 1.25848 -3.96822 0
M  V30 6406 H 613.863 -0.440233 -3.95357 0
M  V30 6407 H 610.602 -2.62427 -6.00677 0
M  V30 6408 H 610.122 -0.913489 -5.92803 0
M  V30 6409 H 611.801 -1.35439 -6.32665 0
M  V30 6410 N 611.933 1.52934 -0.380664 0
M  V30 6411 C 613.349 1.59571 -0.0302429 0
M  V30 6412 C 613.549 1.39509 1.45394 0
M  V30 6413 O 612.605 1.20777 2.21741 0
M  V30 6414 C 613.918 2.96519 -0.499691 0
M  V30 6415 C 615.466 3.09672 -0.455204 0
M  V30 6416 C 615.941 4.49056 -0.900703 0
M  V30 6417 N 617.432 4.55215 -0.856367 0
M  V30 6418 C 618.167 5.61282 -1.17259 0
M  V30 6419 N 617.663 6.75035 -1.55885 0
M  V30 6420 N 619.456 5.51343 -1.0944 0
M  V30 6421 H 611.607 1.64224 -1.347 0
M  V30 6422 H 613.87 0.771033 -0.551554 0
M  V30 6423 H 613.576 3.16388 -1.53595 0
M  V30 6424 H 613.45 3.77052 0.105789 0
M  V30 6425 H 615.837 2.89504 0.571949 0
M  V30 6426 H 615.918 2.31113 -1.09638 0
M  V30 6427 H 615.562 4.69964 -1.92604 0
M  V30 6428 H 615.492 5.26068 -0.236629 0
M  V30 6429 H 617.983 3.73546 -0.572013 0
M  V30 6430 H 618.296 7.51926 -1.784 0
M  V30 6431 H 616.641 6.76388 -1.59764 0
M  V30 6432 H 619.832 4.61356 -0.791713 0
M  V30 6433 H 620.005 6.33905 -1.34417 0
M  V30 6434 N 613.412 0.11024 1.57214 0
M  V30 6435 C 614.345 -0.880224 2.1054 0
M  V30 6436 C 615.323 -1.26658 1.01964 0
M  V30 6437 O 616.507 -1.36917 1.29561 0
M  V30 6438 C 613.634 -2.17676 2.59489 0
M  V30 6439 C 612.68 -1.93914 3.79868 0
M  V30 6440 S 613.513 -1.16336 5.2271 0
M  V30 6441 C 614.669 -2.47188 5.75021 0
M  V30 6442 H 614.902 -0.426614 2.94223 0
M  V30 6443 H 612.435 -0.10336 1.54054 0
M  V30 6444 H 614.393 -2.92175 2.88347 0
M  V30 6445 H 613.054 -2.60156 1.76005 0
M  V30 6446 H 612.247 -2.8996 4.12236 0
M  V30 6447 H 611.849 -1.27539 3.51582 0
M  V30 6448 H 614.141 -3.43079 5.84211 0
M  V30 6449 H 615.084 -2.19377 6.7326 0
M  V30 6450 H 615.492 -2.56154 5.03036 0
M  V30 6451 N 614.89 -1.56749 -0.16351 0
M  V30 6452 C 616.115 -1.86938 -0.898264 0
M  V30 6453 C 616.54 -0.697456 -1.74692 0
M  V30 6454 O 615.898 0.353327 -1.77824 0
M  V30 6455 C 615.946 -3.15599 -1.74441 0
M  V30 6456 O 615.05 -2.98371 -2.8469 0
M  V30 6457 H 614.391 -0.614659 -0.251178 0
M  V30 6458 H 616.921 -2.03979 -0.159298 0
M  V30 6459 H 616.931 -3.47202 -2.14277 0
M  V30 6460 H 615.606 -4.00505 -1.1211 0
M  V30 6461 H 614.183 -2.7814 -2.4838 0
M  V30 6462 N 616.368 0.432326 -1.51554 0
M  V30 6463 C 617.615 1.18134 -1.64471 0
M  V30 6464 C 617.943 1.91076 -0.363349 0
M  V30 6465 O 617.198 1.84492 0.65279 0
M  V30 6466 C 617.497 2.21907 -2.80164 0
M  V30 6467 C 617.163 1.65941 -4.19255 0
M  V30 6468 C 615.825 1.50401 -4.57092 0
M  V30 6469 C 618.177 1.24843 -5.06027 0
M  V30 6470 C 615.505 0.922443 -5.79403 0
M  V30 6471 C 617.857 0.68113 -6.28922 0
M  V30 6472 C 616.521 0.512673 -6.65528 0
M  V30 6473 H 615.791 0.432283 -0.601841 0
M  V30 6474 H 618.438 0.471701 -1.856 0
M  V30 6475 H 616.743 2.98928 -2.53277 0
M  V30 6476 H 618.44 2.79691 -2.87357 0
M  V30 6477 H 615.03 1.79014 -3.89425 0
M  V30 6478 H 619.214 1.35667 -4.77397 0
M  V30 6479 H 614.47 0.779733 -6.06408 0
M  V30 6480 H 618.644 0.35418 -6.95499 0
M  V30 6481 H 616.271 0.0599084 -7.60176 0
M  V30 6482 N 617.846 1.41785 0.688094 0
M  V30 6483 C 619.092 1.41753 1.4503 0
M  V30 6484 C 619.425 0.0290745 1.94178 0
M  V30 6485 O 618.7 -0.944456 1.7003 0
M  V30 6486 C 618.983 2.43069 2.65686 0
M  V30 6487 C 618.836 3.91053 2.22256 0
M  V30 6488 C 620.155 2.41543 3.67893 0
M  V30 6489 H 617.274 0.516202 0.526027 0
M  V30 6490 H 619.916 1.73111 0.783105 0
M  V30 6491 H 618.066 2.1646 3.2261 0
M  V30 6492 H 619.738 4.28594 1.70602 0
M  V30 6493 H 617.981 4.05559 1.53963 0
M  V30 6494 H 618.652 4.57501 3.08863 0
M  V30 6495 H 621.128 2.65175 3.20658 0
M  V30 6496 H 620.004 3.14434 4.49914 0
M  V30 6497 H 620.265 1.43666 4.18106 0
M  V30 6498 N 619.324 -0.923095 1.27737 0
M  V30 6499 C 620.271 -2.02432 1.1086 0
M  V30 6500 C 621.241 -1.66098 0.00835195 0
M  V30 6501 O 622.426 -1.90027 0.171542 0
M  V30 6502 C 619.566 -3.36476 0.766671 0
M  V30 6503 C 618.679 -3.85737 1.94501 0
M  V30 6504 C 617.814 -5.08249 1.54455 0
M  V30 6505 C 616.853 -5.49818 2.6901 0
M  V30 6506 N 615.99 -6.63524 2.29521 0
M  V30 6507 H 620.83 -2.16201 2.05089 0
M  V30 6508 H 618.367 -1.05909 1.02087 0
M  V30 6509 H 620.325 -4.13569 0.549223 0
M  V30 6510 H 618.955 -3.22502 -0.13867 0
M  V30 6511 H 618.007 -3.04883 2.27487 0
M  V30 6512 H 619.319 -4.12513 2.80419 0
M  V30 6513 H 618.473 -5.92857 1.28862 0
M  V30 6514 H 617.212 -4.83261 0.656534 0
M  V30 6515 H 616.217 -4.63757 2.95313 0
M  V30 6516 H 617.442 -5.76799 3.5844 0
M  V30 6517 H 615.388 -6.40185 1.43177 0
M  V30 6518 H 615.305 -6.89978 3.08977 0
M  V30 6519 H 616.573 -7.51461 2.07187 0
M  V30 6520 N 620.802 -1.09834 -1.13024 0
M  V30 6521 C 622.05 -0.835297 -1.8403 0
M  V30 6522 C 622.371 0.640944 -1.84165 0
M  V30 6523 O 621.641 1.46517 -1.30037 0
M  V30 6524 H 620.221 -0.306018 -0.681441 0
M  V30 6525 H 622.883 -1.38734 -1.36891 0
M  V30 6526 H 621.979 -1.19258 -2.88416 0
M  V30 6527 N 622.28 1.30327 -0.886154 0
M  V30 6528 C 623.526 1.96764 -0.515312 0
M  V30 6529 C 623.881 1.68675 0.925552 0
M  V30 6530 O 623.174 0.981693 1.6454 0
M  V30 6531 C 623.368 3.49906 -0.728042 0
M  V30 6532 C 623.197 3.92881 -2.18803 0
M  V30 6533 C 621.967 4.18424 -2.83284 0
M  V30 6534 C 624.165 4.05617 -3.16195 0
M  V30 6535 N 622.147 4.47867 -4.19867 0
M  V30 6536 C 623.518 4.38957 -4.37855 0
M  V30 6537 C 625.573 3.88047 -3.11968 0
M  V30 6538 C 624.276 4.56559 -5.55829 0
M  V30 6539 C 626.302 4.06851 -4.29215 0
M  V30 6540 C 625.664 4.40538 -5.49641 0
M  V30 6541 H 621.763 0.74493 -0.237916 0
M  V30 6542 H 624.347 1.57536 -1.14414 0
M  V30 6543 H 622.518 3.88187 -0.128696 0
M  V30 6544 H 624.25 4.03401 -0.323983 0
M  V30 6545 H 621.005 4.1167 -2.34146 0
M  V30 6546 H 621.429 4.66721 -4.90408 0
M  V30 6547 H 626.071 3.61078 -2.19961 0
M  V30 6548 H 623.789 4.8237 -6.4834 0
M  V30 6549 H 627.375 3.94724 -4.27416 0
M  V30 6550 H 626.255 4.54789 -6.38856 0
M  V30 6551 N 623.758 0.647228 1.43697 0
M  V30 6552 C 625.006 0.157876 2.01482 0
M  V30 6553 C 625.327 -1.23039 1.51282 0
M  V30 6554 O 624.597 -1.82071 0.722982 0
M  V30 6555 H 623.177 0.0553745 0.744945 0
M  V30 6556 H 625.839 0.83755 1.75986 0
M  V30 6557 H 624.935 0.137895 3.11795 0
M  V30 6558 N 625.236 -1.5273 0.388769 0
M  V30 6559 C 626.199 -2.25043 -0.434544 0
M  V30 6560 C 627.199 -1.26661 -0.990644 0
M  V30 6561 O 628.389 -1.50762 -0.872731 0
M  V30 6562 C 625.521 -3.00507 -1.60961 0
M  V30 6563 H 626.714 -2.99242 0.198549 0
M  V30 6564 H 624.267 -1.55664 0.140875 0
M  V30 6565 H 625.002 -2.30607 -2.28015 0
M  V30 6566 H 624.787 -3.72716 -1.21757 0
M  V30 6567 H 626.277 -3.55413 -2.19251 0
M  V30 6568 N 626.714 -0.118576 -1.57153 0
M  V30 6569 C 627.624 0.845484 -2.18835 0
M  V30 6570 C 628.64 1.29299 -1.16438 0
M  V30 6571 O 629.816 1.35607 -1.48905 0
M  V30 6572 C 626.881 2.07795 -2.77529 0
M  V30 6573 C 625.942 1.6824 -3.9496 0
M  V30 6574 C 625.175 2.85612 -4.50845 0
M  V30 6575 O 625.398 4.01025 -4.05629 0
M  V30 6576 O 624.332 2.62721 -5.41536 0
M  V30 6577 H 628.158 0.350568 -3.0167 0
M  V30 6578 H 625.743 0.107013 -1.49016 0
M  V30 6579 H 627.625 2.79978 -3.14945 0
M  V30 6580 H 626.3 2.56294 -1.97725 0
M  V30 6581 H 625.207 0.931663 -3.62313 0
M  V30 6582 H 626.54 1.24484 -4.76198 0
M  V30 6583 N 628.193 1.56834 0.155195 0
M  V30 6584 C 629.423 1.86778 0.883044 0
M  V30 6585 C 629.831 0.703824 1.75622 0
M  V30 6586 O 629.174 -0.33581 1.80605 0
M  V30 6587 C 629.236 3.1133 1.79761 0
M  V30 6588 C 628.9 4.43504 1.10242 0
M  V30 6589 C 629.897 5.17859 0.460204 0
M  V30 6590 C 627.582 4.90233 1.09437 0
M  V30 6591 C 629.576 6.37144 -0.180782 0
M  V30 6592 C 627.263 6.09444 0.449569 0
M  V30 6593 C 628.261 6.82744 -0.186888 0
M  V30 6594 O 627.949 7.99692 -0.821486 0
M  V30 6595 H 627.681 0.62352 0.261149 0
M  V30 6596 H 630.235 2.04813 0.155204 0
M  V30 6597 H 628.465 2.89282 2.56618 0
M  V30 6598 H 630.154 3.27587 2.39669 0
M  V30 6599 H 630.92 4.8283 0.458289 0
M  V30 6600 H 626.799 4.33109 1.57917 0
M  V30 6601 H 630.343 6.94296 -0.678154 0
M  V30 6602 H 626.24 6.43936 0.449123 0
M  V30 6603 H 627.008 8.15306 -0.722337 0
M  V30 6604 N 629.671 -0.424282 1.51781 0
M  V30 6605 C 631.087 -0.761768 1.40247 0
M  V30 6606 C 631.287 -1.95324 0.495041 0
M  V30 6607 O 630.343 -2.5246 -0.0448949 0
M  V30 6608 C 631.656 -1.0299 2.82513 0
M  V30 6609 C 633.204 -1.13354 2.91753 0
M  V30 6610 C 633.679 -1.43453 4.34954 0
M  V30 6611 N 635.17 -1.5035 4.3812 0
M  V30 6612 C 635.905 -1.75236 5.45967 0
M  V30 6613 N 635.401 -1.97827 6.63955 0
M  V30 6614 N 637.194 -1.77126 5.33463 0
M  V30 6615 H 629.345 0.360228 2.09323 0
M  V30 6616 H 631.608 0.0988128 0.942836 0
M  V30 6617 H 631.314 -0.226961 3.50967 0
M  V30 6618 H 631.188 -1.95411 3.22637 0
M  V30 6619 H 633.575 -1.92709 2.23489 0
M  V30 6620 H 633.656 -0.188041 2.55108 0
M  V30 6621 H 633.3 -0.646209 5.03772 0
M  V30 6622 H 633.23 -2.3923 4.69123 0
M  V30 6623 H 635.721 -1.34742 3.53062 0
M  V30 6624 H 636.034 -2.16223 7.41935 0
M  V30 6625 H 634.379 -1.95123 6.67047 0
M  V30 6626 H 637.57 -1.59005 4.40267 0
M  V30 6627 H 637.743 -1.96182 6.17589 0
M  V30 6628 N 631.149 -1.42148 -0.680565 0
M  V30 6629 C 632.565 -1.24947 -0.992995 0
M  V30 6630 C 632.765 -0.149527 -2.00944 0
M  V30 6631 O 631.821 0.481145 -2.47873 0
M  V30 6632 C 633.134 -2.60426 -1.5033 0
M  V30 6633 C 634.682 -2.67733 -1.62137 0
M  V30 6634 C 635.157 -4.03564 -2.16565 0
M  V30 6635 N 636.648 -4.05488 -2.23905 0
M  V30 6636 C 637.383 -5.07401 -2.67081 0
M  V30 6637 N 636.879 -6.19698 -3.09751 0
M  V30 6638 N 638.672 -4.94758 -2.66778 0
M  V30 6639 H 630.823 -2.12399 -0.0074788 0
M  V30 6640 H 633.086 -0.94571 -0.0658529 0
M  V30 6641 H 632.792 -3.41743 -0.830947 0
M  V30 6642 H 632.666 -2.83949 -2.483 0
M  V30 6643 H 635.053 -1.86765 -2.2848 0
M  V30 6644 H 635.134 -2.48004 -0.626713 0
M  V30 6645 H 634.778 -4.84987 -1.50833 0
M  V30 6646 H 634.708 -4.20641 -3.1681 0
M  V30 6647 H 637.199 -3.24415 -1.93812 0
M  V30 6648 H 637.512 -6.93318 -3.41365 0
M  V30 6649 H 635.857 -6.23212 -3.07623 0
M  V30 6650 H 639.048 -4.06105 -2.32801 0
M  V30 6651 H 639.221 -5.74317 -3.00107 0
M  V30 6652 N 632.627 0.916307 -1.28225 0
M  V30 6653 C 633.559 2.02303 -1.07732 0
M  V30 6654 C 634.572 1.62773 -0.0298421 0
M  V30 6655 O 635.761 1.76406 -0.272626 0
M  V30 6656 C 632.861 3.33282 -0.614504 0
M  V30 6657 C 632.034 4.01439 -1.73682 0
M  V30 6658 C 631.093 5.10698 -1.26781 0
M  V30 6659 O 630.119 5.34038 -1.96958 0
M  V30 6660 N 631.321 5.80355 -0.129624 0
M  V30 6661 H 634.086 2.20442 -2.03041 0
M  V30 6662 H 631.647 1.08744 -1.19943 0
M  V30 6663 H 633.639 4.03699 -0.284397 0
M  V30 6664 H 632.209 3.11633 0.245664 0
M  V30 6665 H 631.429 3.24604 -2.23665 0
M  V30 6666 H 632.717 4.43721 -2.48976 0
M  V30 6667 H 632.115 5.6386 0.455847 0
M  V30 6668 H 630.672 6.51647 0.141224 0
M  V30 6669 N 634.105 1.10431 1.1244 0
M  V30 6670 C 635.333 0.868872 1.87772 0
M  V30 6671 C 635.748 -0.580645 1.7965 0
M  V30 6672 O 635.105 -1.40031 1.17036 0
M  V30 6673 C 635.156 1.30855 3.36986 0
M  V30 6674 O 634.877 2.70123 3.44914 0
M  V30 6675 C 636.378 1.107 4.29256 0
M  V30 6676 H 633.598 0.311868 0.59412 0
M  V30 6677 H 636.142 1.46897 1.42273 0
M  V30 6678 H 634.297 0.752126 3.80029 0
M  V30 6679 H 634.711 2.88923 4.37748 0
M  V30 6680 H 636.185 1.46378 5.32238 0
M  V30 6681 H 636.662 0.0456228 4.39176 0
M  V30 6682 H 637.268 1.64988 3.91994 0
M  V30 6683 N 635.583 -1.29855 0.893053 0
M  V30 6684 C 636.829 -1.96116 0.516349 0
M  V30 6685 C 637.162 -1.70281 -0.933695 0
M  V30 6686 O 636.437 -1.01205 -1.66096 0
M  V30 6687 C 636.72 -3.51068 0.801455 0
M  V30 6688 C 636.573 -3.86387 2.30272 0
M  V30 6689 C 637.892 -4.39186 0.283423 0
M  V30 6690 H 635.011 -0.712335 0.189072 0
M  V30 6691 H 637.653 -1.53587 1.11852 0
M  V30 6692 H 635.803 -3.87424 0.288949 0
M  V30 6693 H 637.475 -3.60012 2.88425 0
M  V30 6694 H 635.718 -3.34167 2.76613 0
M  V30 6695 H 636.389 -4.94512 2.45279 0
M  V30 6696 H 638.865 -4.09785 0.722187 0
M  V30 6697 H 637.741 -5.46505 0.512169 0
M  V30 6698 H 638.002 -4.34511 -0.815643 0
M  V30 6699 N 637.061 -0.65484 -1.43351 0
M  V30 6700 C 638.289 -0.176685 -2.06144 0
M  V30 6701 C 638.704 1.15831 -1.49093 0
M  V30 6702 O 638.061 1.71542 -0.622868 0
M  V30 6703 C 638.112 -0.0813326 -3.61408 0
M  V30 6704 O 637.833 -1.36355 -4.1634 0
M  V30 6705 C 639.334 0.422706 -4.4128 0
M  V30 6706 H 636.554 -0.0906429 -0.66485 0
M  V30 6707 H 639.098 -0.895945 -1.83829 0
M  V30 6708 H 637.253 0.588496 -3.82904 0
M  V30 6709 H 637.667 -1.22381 -5.10023 0
M  V30 6710 H 639.141 0.438375 -5.50257 0
M  V30 6711 H 639.618 1.45432 -4.14423 0
M  V30 6712 H 640.224 -0.214687 -4.24758 0
M  V30 6713 N 638.539 1.52521 -0.396863 0
M  V30 6714 C 639.764 2.06571 0.185258 0
M  V30 6715 C 640.189 1.26605 1.39115 0
M  V30 6716 O 639.547 0.293055 1.78916 0
M  V30 6717 C 639.595 3.5674 0.526189 0
M  V30 6718 O 638.699 3.7929 1.61903 0
M  V30 6719 H 638.04 0.663712 0.0195474 0
M  V30 6720 H 640.57 1.966 -0.566519 0
M  V30 6721 H 640.58 4.00311 0.788338 0
M  V30 6722 H 639.255 4.14379 -0.355397 0
M  V30 6723 H 637.832 3.47605 1.35 0
M  V30 6724 N 640.017 0.126909 1.57088 0
M  V30 6725 C 641.245 -0.53667 1.99819 0
M  V30 6726 C 641.66 -1.5972 1.00673 0
M  V30 6727 O 641.017 -1.825 0.000747365 0
M  V30 6728 C 641.068 -1.15563 3.42531 0
M  V30 6729 O 640.789 -0.137483 4.37884 0
M  V30 6730 C 642.29 -1.90176 4.00435 0
M  V30 6731 H 639.51 -0.141443 0.655923 0
M  V30 6732 H 642.054 0.215578 2.03361 0
M  V30 6733 H 640.209 -1.85861 3.39904 0
M  V30 6734 H 640.623 -0.588229 5.21191 0
M  V30 6735 H 642.097 -2.28801 5.02349 0
M  V30 6736 H 642.574 -2.78002 3.40017 0
M  V30 6737 H 643.18 -1.24623 4.06632 0
M  V30 6738 N 641.495 -1.56914 -0.146875 0
M  V30 6739 C 642.906 -1.72799 -0.706928 0
M  V30 6740 C 643.257 -0.741329 -1.81656 0
M  V30 6741 O 642.382 0.0920162 -2.16204 0
M  V30 6742 C 642.977 -3.13317 -1.28911 0
M  V30 6743 C 641.536 -3.30803 -1.79573 0
M  V30 6744 C 640.683 -2.68725 -0.684252 0
M  V30 6745 H 643.634 -1.58504 0.0787931 0
M  V30 6746 H 643.655 -3.13323 -2.15891 0
M  V30 6747 H 643.167 -3.85104 -0.481284 0
M  V30 6748 H 641.268 -2.64012 -2.62923 0
M  V30 6749 H 641.381 -4.38754 -1.92436 0
M  V30 6750 H 639.745 -2.29196 -1.11091 0
M  V30 6751 H 640.528 -3.43117 0.112134 0
M  V30 6752 N 642.974 0.416227 -1.52004 0
M  V30 6753 C 644.214 1.17307 -1.67387 0
M  V30 6754 C 644.578 1.87959 -0.39183 0
M  V30 6755 O 645.779 2.65472 -0.421671 0
M  V30 6756 C 644.05 2.14661 -2.85754 0
M  V30 6757 S 645.609 2.98549 -3.21581 0
M  V30 6758 H 642.427 0.397505 -0.5895 0
M  V30 6759 H 645.029 0.461431 -1.89976 0
M  V30 6760 H 643.733 1.61431 -3.77317 0
M  V30 6761 H 643.264 2.90375 -2.65417 0
M  V30 6762 H 645.279 4.16536 -2.69652 0
M  V30 6763 N 644.452 1.42507 0.673017 0
M  V30 6764 C 645.698 1.44282 1.43367 0
M  V30 6765 C 646.053 0.0588239 1.9231 0
M  V30 6766 O 645.346 -0.919288 1.68106 0
M  V30 6767 C 645.54 2.40351 2.64511 0
M  V30 6768 C 645.369 3.87955 2.27423 0
M  V30 6769 C 644.139 4.56476 2.16697 0
M  V30 6770 C 646.337 4.7833 1.88957 0
M  V30 6771 N 644.319 5.89099 1.72731 0
M  V30 6772 C 645.69 6.00073 1.55923 0
M  V30 6773 C 647.745 4.65769 1.75965 0
M  V30 6774 C 646.448 7.10652 1.112 0
M  V30 6775 C 648.474 5.76332 1.32647 0
M  V30 6776 C 647.836 6.97188 1.00538 0
M  V30 6777 H 643.935 0.583134 0.521036 0
M  V30 6778 H 646.519 1.78547 0.776481 0
M  V30 6779 H 644.69 2.08145 3.27918 0
M  V30 6780 H 646.422 2.32694 3.31113 0
M  V30 6781 H 643.177 4.10712 2.35823 0
M  V30 6782 H 643.601 6.59446 1.53166 0
M  V30 6783 H 648.243 3.72808 1.99435 0
M  V30 6784 H 645.961 8.0346 0.864768 0
M  V30 6785 H 649.547 5.68625 1.23112 0
M  V30 6786 H 648.427 7.81287 0.675283 0
M  V30 6787 N 645.93 -0.909495 1.28709 0
M  V30 6788 C 647.179 -1.65365 1.15487 0
M  V30 6789 C 647.492 -1.93364 -0.294941 0
M  V30 6790 O 648.698 -2.65905 -0.548338 0
M  V30 6791 C 647.154 -2.97923 2.01916 0
M  V30 6792 C 646.762 -2.77556 3.51663 0
M  V30 6793 C 648.506 -3.75814 1.97393 0
M  V30 6794 C 646.413 -4.0578 4.30229 0
M  V30 6795 H 645.343 -0.620323 0.42862 0
M  V30 6796 H 647.994 -1.00894 1.53273 0
M  V30 6797 H 646.376 -3.63552 1.5699 0
M  V30 6798 H 647.55 -2.2058 4.04575 0
M  V30 6799 H 645.865 -2.13072 3.57756 0
M  V30 6800 H 648.462 -4.70866 2.53357 0
M  V30 6801 H 648.805 -4.05277 0.951643 0
M  V30 6802 H 649.338 -3.1701 2.40311 0
M  V30 6803 H 646.077 -3.81488 5.33055 0
M  V30 6804 H 645.597 -4.62351 3.82089 0
M  V30 6805 H 647.276 -4.74004 4.40374 0
M  V30 6806 N 647.408 -1.11026 -1.11852 0
M  V30 6807 C 648.318 -0.777252 -2.2135 0
M  V30 6808 C 649.334 0.227821 -1.72502 0
M  V30 6809 O 650.51 0.0650587 -2.01295 0
M  V30 6810 C 647.575 -0.220668 -3.45997 0
M  V30 6811 C 646.636 -1.2838 -4.09655 0
M  V30 6812 C 645.869 -0.753678 -5.28352 0
M  V30 6813 O 646.092 0.417779 -5.68868 0
M  V30 6814 O 645.026 -1.51647 -5.82483 0
M  V30 6815 H 648.852 -1.69141 -2.5224 0
M  V30 6816 H 646.437 -0.885836 -1.20305 0
M  V30 6817 H 648.319 0.0855756 -4.21313 0
M  V30 6818 H 646.994 0.666262 -3.16769 0
M  V30 6819 H 645.901 -1.64299 -3.3609 0
M  V30 6820 H 647.234 -2.14396 -4.43052 0
M  V30 6821 N 648.886 1.2938 -0.899927 0
M  V30 6822 C 649.816 2.30144 -0.39446 0
M  V30 6823 C 650.797 1.61611 0.530639 0
M  V30 6824 O 651.982 1.89119 0.441319 0
M  V30 6825 C 649.112 3.45229 0.37868 0
M  V30 6826 C 648.066 4.25564 -0.456012 0
M  V30 6827 C 647.392 5.32848 0.444637 0
M  V30 6828 C 648.692 4.93651 -1.70605 0
M  V30 6829 H 650.386 2.72673 -1.23653 0
M  V30 6830 H 647.932 1.31086 -0.596034 0
M  V30 6831 H 649.885 4.14797 0.743037 0
M  V30 6832 H 648.609 3.01545 1.25453 0
M  V30 6833 H 647.268 3.57704 -0.802704 0
M  V30 6834 H 646.916 4.85408 1.31863 0
M  V30 6835 H 646.616 5.87497 -0.110154 0
M  V30 6836 H 648.14 6.05268 0.805182 0
M  V30 6837 H 649.554 5.55655 -1.41141 0
M  V30 6838 H 647.951 5.58233 -2.20217 0
M  V30 6839 H 649.021 4.18926 -2.4419 0
M  V30 6840 N 650.364 0.662433 1.43002 0
M  V30 6841 C 651.314 -0.0460442 2.27954 0
M  V30 6842 C 652.298 -0.785753 1.40409 0
M  V30 6843 O 653.49 -0.666701 1.63964 0
M  V30 6844 C 650.619 -1.00532 3.2825 0
M  V30 6845 C 649.705 -0.263604 4.2328 0
M  V30 6846 N 650.096 0.724855 5.00579 0
M  V30 6847 C 648.394 -0.503778 4.43146 0
M  V30 6848 C 649.095 1.16594 5.69895 0
M  V30 6849 N 648.071 0.498345 5.41311 0
M  V30 6850 H 651.873 0.712314 2.85137 0
M  V30 6851 H 649.387 0.490469 1.54817 0
M  V30 6852 H 651.384 -1.52775 3.87899 0
M  V30 6853 H 650.044 -1.76364 2.72628 0
M  V30 6854 H 651.055 1.10393 5.05998 0
M  V30 6855 H 647.732 -1.24255 3.98581 0
M  V30 6856 H 649.122 1.98434 6.4193 0
M  V30 6857 N 651.842 -1.52309 0.404946 0
M  V30 6858 C 652.772 -2.29805 -0.41376 0
M  V30 6859 C 653.753 -1.3384 -1.0498 0
M  V30 6860 O 654.938 -1.62745 -1.05961 0
M  V30 6861 C 652.068 -3.11639 -1.53292 0
M  V30 6862 C 651.022 -4.15616 -1.02211 0
M  V30 6863 C 650.348 -4.8577 -2.23455 0
M  V30 6864 C 651.648 -5.2224 -0.0790725 0
M  V30 6865 H 653.342 -2.98493 0.232878 0
M  V30 6866 H 650.888 -1.43552 0.113441 0
M  V30 6867 H 652.841 -3.64618 -2.11262 0
M  V30 6868 H 651.565 -2.40712 -2.20738 0
M  V30 6869 H 650.224 -3.63641 -0.46484 0
M  V30 6870 H 649.872 -4.11376 -2.89445 0
M  V30 6871 H 649.572 -5.56058 -1.89929 0
M  V30 6872 H 651.096 -5.4156 -2.82038 0
M  V30 6873 H 652.51 -5.70485 -0.567438 0
M  V30 6874 H 650.907 -5.99867 0.167167 0
M  V30 6875 H 651.977 -4.77078 0.867447 0
M  V30 6876 N 653.32 -0.135238 -1.57019 0
M  V30 6877 C 654.268 0.826099 -2.17436 0
M  V30 6878 C 655.262 1.26378 -1.12805 0
M  V30 6879 O 656.468 1.23363 -1.31079 0
M  V30 6880 H 652.843 0.284568 -0.696078 0
M  V30 6881 H 654.814 0.292212 -2.96966 0
M  V30 6882 C 653.563 2.05991 -2.80112 0
M  V30 6883 H 652.886 1.73209 -3.60331 0
M  V30 6884 H 654.326 2.71225 -3.25903 0
M  V30 6885 C 652.785 2.86027 -1.78017 0
M  V30 6886 O 653.315 3.81971 -1.24344 0
M  V30 6887 N 651.521 2.50332 -1.47588 0
M  V30 6888 H 651.068 1.72377 -1.91426 0
M  V30 6889 H 651.026 3.04177 -0.795228 0
M  V30 6890 N 654.798 1.5699 0.138552 0
M  V30 6891 C 656.046 1.83446 0.848053 0
M  V30 6892 C 656.367 0.71744 1.81322 0
M  V30 6893 O 655.637 -0.260228 1.94164 0
M  V30 6894 H 654.217 0.676792 0.316166 0
M  V30 6895 H 656.879 1.94462 0.130538 0
M  V30 6896 H 655.975 2.78677 1.40518 0
M  V30 6897 N 656.276 -0.40816 1.52223 0
M  V30 6898 C 657.687 -0.986929 1.58482 0
M  V30 6899 C 658.038 -1.91521 0.425917 0
M  V30 6900 O 657.163 -2.11593 -0.453593 0
M  V30 6901 C 657.758 -1.7967 2.87235 0
M  V30 6902 C 656.317 -2.32549 2.9597 0
M  V30 6903 C 655.464 -1.12558 2.53428 0
M  V30 6904 H 658.415 -0.188362 1.57578 0
M  V30 6905 H 658.436 -2.65417 2.72642 0
M  V30 6906 H 657.948 -1.12082 3.71563 0
M  V30 6907 H 656.049 -3.03505 2.16137 0
M  V30 6908 H 656.162 -2.63348 4.00231 0
M  V30 6909 H 654.526 -1.47984 2.07299 0
M  V30 6910 H 655.309 -0.465351 3.40131 0
M  V30 6911 N 657.755 -1.42862 -0.66545 0
M  V30 6912 C 658.685 -1.49867 -1.79059 0
M  V30 6913 C 659.666 -0.354394 -1.66367 0
M  V30 6914 O 660.851 -0.569969 -1.85647 0
M  V30 6915 C 657.981 -1.40943 -3.17415 0
M  V30 6916 C 656.935 -2.53495 -3.44854 0
M  V30 6917 C 656.261 -2.29626 -4.82883 0
M  V30 6918 C 657.561 -3.95781 -3.40815 0
M  V30 6919 H 659.255 -2.44037 -1.73453 0
M  V30 6920 H 656.801 -1.17456 -0.833071 0
M  V30 6921 H 658.754 -1.4445 -3.95869 0
M  V30 6922 H 657.478 -0.432716 -3.23721 0
M  V30 6923 H 656.137 -2.4932 -2.68766 0
M  V30 6924 H 655.785 -1.30226 -4.8585 0
M  V30 6925 H 655.485 -3.05065 -5.02204 0
M  V30 6926 H 657.009 -2.34897 -5.63609 0
M  V30 6927 H 658.423 -4.01508 -4.09224 0
M  V30 6928 H 656.82 -4.71148 -3.71672 0
M  V30 6929 H 657.89 -4.21786 -2.39216 0
M  V30 6930 N 659.233 0.902656 -1.29189 0
M  V30 6931 C 660.165 2.01149 -1.09872 0
M  V30 6932 C 661.178 1.62732 -0.0471046 0
M  V30 6933 O 662.367 1.76107 -0.29132 0
M  V30 6934 C 659.467 3.32612 -0.649818 0
M  V30 6935 C 658.64 3.99574 -1.7793 0
M  V30 6936 C 657.699 5.09325 -1.32191 0
M  V30 6937 O 656.725 5.31919 -2.02611 0
M  V30 6938 N 657.927 5.80185 -0.191171 0
M  V30 6939 H 660.692 2.18276 -2.05368 0
M  V30 6940 H 658.253 1.07466 -1.2109 0
M  V30 6941 H 660.245 4.03375 -0.327199 0
M  V30 6942 H 658.815 3.11876 0.212597 0
M  V30 6943 H 658.035 3.22213 -2.27095 0
M  V30 6944 H 659.323 4.41056 -2.53668 0
M  V30 6945 H 658.721 5.64312 0.396016 0
M  V30 6946 H 657.278 6.5176 0.0721001 0
M  V30 6947 N 660.711 1.11618 1.11262 0
M  V30 6948 C 661.957 0.877377 1.83504 0
M  V30 6949 C 662.312 -0.590606 1.83111 0
M  V30 6950 O 661.605 -1.43057 1.27456 0
M  V30 6951 C 661.799 1.37529 3.2988 0
M  V30 6952 C 661.628 2.89014 3.4453 0
M  V30 6953 C 660.398 3.57157 3.57445 0
M  V30 6954 C 662.596 3.8706 3.38658 0
M  V30 6955 N 660.578 4.96842 3.60585 0
M  V30 6956 C 661.949 5.12825 3.4844 0
M  V30 6957 C 664.004 3.79593 3.22201 0
M  V30 6958 C 662.707 6.32002 3.43462 0
M  V30 6959 C 664.733 4.98282 3.18542 0
M  V30 6960 C 664.095 6.22901 3.28897 0
M  V30 6961 H 660.194 0.37422 0.686646 0
M  V30 6962 H 662.778 1.42087 1.33114 0
M  V30 6963 H 660.949 0.85895 3.78783 0
M  V30 6964 H 662.681 1.07944 3.90039 0
M  V30 6965 H 659.436 3.07628 3.60086 0
M  V30 6966 H 659.86 5.69674 3.65788 0
M  V30 6967 H 664.502 2.84149 3.1308 0
M  V30 6968 H 662.22 7.27721 3.51352 0
M  V30 6969 H 665.806 4.94226 3.06972 0
M  V30 6970 H 664.686 7.13202 3.26056 0
M  V30 6971 N 662.189 -1.289 0.906776 0
M  V30 6972 C 663.119 -2.29932 0.406659 0
M  V30 6973 C 664.1 -1.6189 -0.522061 0
M  V30 6974 O 665.285 -1.8935 -0.431283 0
M  V30 6975 C 662.415 -3.45425 -0.360366 0
M  V30 6976 C 661.369 -4.25316 0.478574 0
M  V30 6977 C 660.695 -5.33076 -0.416373 0
M  V30 6978 C 661.995 -4.92739 1.7322 0
M  V30 6979 H 663.689 -2.72013 1.25097 0
M  V30 6980 H 661.235 -1.30768 0.602977 0
M  V30 6981 H 663.188 -4.15186 -0.721029 0
M  V30 6982 H 661.912 -3.02206 -1.23852 0
M  V30 6983 H 660.571 -3.57273 0.821662 0
M  V30 6984 H 660.219 -4.86101 -1.29287 0
M  V30 6985 H 659.919 -5.8743 0.141309 0
M  V30 6986 H 661.443 -6.05686 -0.773072 0
M  V30 6987 H 662.857 -5.54898 1.44086 0
M  V30 6988 H 661.254 -5.57057 2.23175 0
M  V30 6989 H 662.324 -4.17625 2.46408 0
M  V30 6990 N 663.667 -0.670007 -1.42649 0
M  V30 6991 C 664.944 -0.119451 -1.95235 0
M  V30 6992 C 665.324 1.36461 -1.61064 0
M  V30 6993 O 664.672 2.09843 -0.904329 0
M  V30 6994 C 664.882 -0.383498 -3.46887 0
M  V30 6995 C 666.23 -0.297431 -4.23557 0
M  V30 6996 O 667.254 -0.31698 -3.54787 0
M  V30 6997 O 666.113 -0.235507 -5.45992 0
M  V30 6998 H 663.207 -8.85474e-05 -0.827 0
M  V30 6999 H 665.753 -0.744406 -1.52501 0
M  V30 7000 H 664.525 -1.41174 -3.64946 0
M  V30 7001 H 664.148 0.273702 -3.96657 0
M  V30 7002 N 665.145 1.52092 -0.413018 0
M  V30 7003 C 666.092 2.27119 0.410558 0
M  V30 7004 C 667.062 1.29692 1.03774 0
M  V30 7005 O 668.247 1.58561 1.06128 0
M  V30 7006 C 665.387 3.09863 1.51918 0
M  V30 7007 C 664.5 4.22252 0.912528 0
M  V30 7008 C 663.635 4.92348 1.99417 0
M  V30 7009 C 662.674 5.96694 1.36466 0
M  V30 7010 N 661.811 6.60292 2.38661 0
M  V30 7011 H 666.651 2.97067 -0.235661 0
M  V30 7012 H 664.188 1.46542 -0.128055 0
M  V30 7013 H 666.146 3.56144 2.17295 0
M  V30 7014 H 664.776 2.42078 2.13537 0
M  V30 7015 H 663.828 3.80113 0.147697 0
M  V30 7016 H 665.14 4.9709 0.412717 0
M  V30 7017 H 664.294 5.42054 2.72512 0
M  V30 7018 H 663.033 4.17087 2.52764 0
M  V30 7019 H 662.038 5.46304 0.61906 0
M  V30 7020 H 663.263 6.73899 0.838827 0
M  V30 7021 H 661.209 5.87858 2.91134 0
M  V30 7022 H 661.126 7.30816 1.93503 0
M  V30 7023 H 662.394 7.14635 3.11314 0
M  V30 7024 N 666.623 0.143563 1.56945 0
M  V30 7025 C 667.869 -0.50916 1.96304 0
M  V30 7026 C 668.202 -1.64741 1.0283 0
M  V30 7027 O 667.477 -1.94374 0.0700361 0
M  V30 7028 C 667.76 -1.0186 3.45393 0
M  V30 7029 C 667.613 0.117923 4.49645 0
M  V30 7030 C 668.932 -1.90151 3.96901 0
M  V30 7031 H 666.051 -0.183608 0.713763 0
M  V30 7032 H 668.693 0.224095 1.88674 0
M  V30 7033 H 666.843 -1.64345 3.52027 0
M  V30 7034 H 668.515 0.754145 4.55094 0
M  V30 7035 H 666.758 0.777568 4.26774 0
M  V30 7036 H 667.429 -0.280187 5.51288 0
M  V30 7037 H 669.905 -1.375 3.92725 0
M  V30 7038 H 668.781 -2.22707 5.0169 0
M  V30 7039 H 669.042 -2.83718 3.39052 0
M  V30 7040 N 668.101 -1.57061 -0.130224 0
M  V30 7041 C 669.031 -2.02552 -1.16168 0
M  V30 7042 C 670.012 -0.907971 -1.4384 0
M  V30 7043 O 671.197 -1.17693 -1.54473 0
M  V30 7044 C 668.327 -2.42035 -2.49071 0
M  V30 7045 C 667.281 -3.5713 -2.35886 0
M  V30 7046 C 666.607 -3.82478 -3.7365 0
M  V30 7047 C 667.907 -4.89236 -1.8288 0
M  V30 7048 H 669.601 -2.8897 -0.783359 0
M  V30 7049 H 667.147 -1.39021 -0.375376 0
M  V30 7050 H 669.1 -2.72462 -3.21469 0
M  V30 7051 H 667.824 -1.52573 -2.88771 0
M  V30 7052 H 666.483 -3.26895 -1.65938 0
M  V30 7053 H 666.131 -2.9024 -4.10816 0
M  V30 7054 H 665.831 -4.59944 -3.65685 0
M  V30 7055 H 667.355 -4.15347 -4.47571 0
M  V30 7056 H 668.769 -5.18272 -2.45085 0
M  V30 7057 H 667.166 -5.70624 -1.85763 0
M  V30 7058 H 668.236 -4.78494 -0.785571 0
M  V30 7059 N 669.579 0.400081 -1.52437 0
M  V30 7060 C 670.807 1.16768 -1.70801 0
M  V30 7061 C 671.222 1.84036 -0.421462 0
M  V30 7062 O 670.579 1.72242 0.603228 0
M  V30 7063 C 670.63 2.22403 -2.8499 0
M  V30 7064 O 670.351 1.57879 -4.08663 0
M  V30 7065 C 671.852 3.11974 -3.1494 0
M  V30 7066 H 669.072 0.350533 -0.57216 0
M  V30 7067 H 671.616 0.469534 -1.99037 0
M  V30 7068 H 669.771 2.87871 -2.59247 0
M  V30 7069 H 670.185 2.27982 -4.7236 0
M  V30 7070 H 671.659 3.82148 -3.9833 0
M  V30 7071 H 672.136 3.74858 -2.28863 0
M  V30 7072 H 672.742 2.52165 -3.42481 0
M  V30 7073 N 671.057 1.43213 0.657864 0
M  V30 7074 C 671.989 1.43974 1.78337 0
M  V30 7075 C 673.002 0.336482 1.59285 0
M  V30 7076 O 674.191 0.600631 1.68091 0
M  V30 7077 C 671.291 1.23242 3.15697 0
M  V30 7078 C 670.464 2.46319 3.61449 0
M  V30 7079 C 669.523 2.2088 4.77597 0
M  V30 7080 O 668.549 2.942 4.87273 0
M  V30 7081 N 669.751 1.22251 5.67481 0
M  V30 7082 H 672.516 2.40993 1.78164 0
M  V30 7083 H 670.077 1.3831 0.841549 0
M  V30 7084 H 672.069 1.04113 3.91079 0
M  V30 7085 H 670.639 0.346849 3.1067 0
M  V30 7086 H 669.859 2.80904 2.76563 0
M  V30 7087 H 671.147 3.28239 3.88763 0
M  V30 7088 H 670.545 0.616433 5.62331 0
M  V30 7089 H 669.102 1.09107 6.42603 0
M  V30 7090 N 672.536 -0.895792 1.29666 0
M  V30 7091 C 673.469 -2.00238 1.09453 0
M  V30 7092 C 674.447 -1.62599 0.00527044 0
M  V30 7093 O 675.631 -1.87847 0.156729 0
M  V30 7094 C 672.758 -3.32066 0.667054 0
M  V30 7095 C 671.804 -3.88691 1.7556 0
M  V30 7096 S 672.637 -4.17317 3.35569 0
M  V30 7097 C 673.793 -5.52181 2.94698 0
M  V30 7098 H 674.026 -2.17076 2.03138 0
M  V30 7099 H 671.559 -1.04287 1.13858 0
M  V30 7100 H 673.517 -4.08272 0.427136 0
M  V30 7101 H 672.178 -3.13101 -0.250256 0
M  V30 7102 H 671.371 -4.83918 1.40853 0
M  V30 7103 H 670.973 -3.19187 1.94924 0
M  V30 7104 H 673.265 -6.3281 2.41986 0
M  V30 7105 H 674.208 -5.91817 3.88791 0
M  V30 7106 H 674.616 -5.14225 2.32879 0
M  V30 7107 N 674.014 -1.12206 -1.10668 0
M  V30 7108 C 675.262 -0.874144 -1.82217 0
M  V30 7109 C 675.583 0.601736 -1.85484 0
M  V30 7110 O 674.853 1.43725 -1.33116 0
M  V30 7111 H 673.433 -0.320404 -0.674797 0
M  V30 7112 H 676.095 -1.41606 -1.33917 0
M  V30 7113 H 675.191 -1.25349 -2.85822 0
M  V30 7114 N 675.492 1.28418 -0.913599 0
M  V30 7115 C 676.717 1.99643 -0.561899 0
M  V30 7116 C 677.142 1.67819 0.849608 0
M  V30 7117 O 676.5 0.910503 1.56779 0
M  V30 7118 C 676.548 3.52116 -0.777622 0
M  V30 7119 O 675.652 4.12076 0.163457 0
M  V30 7120 H 674.993 0.627229 -0.217898 0
M  V30 7121 H 677.523 1.63575 -1.229 0
M  V30 7122 H 677.533 4.02163 -0.687666 0
M  V30 7123 H 676.208 3.74613 -1.8066 0
M  V30 7124 H 674.785 3.72892 0.0247827 0
M  V30 7125 N 676.97 0.677563 1.42291 0
M  V30 7126 C 678.381 0.277912 1.8462 0
M  V30 7127 C 678.732 -1.18048 1.56714 0
M  V30 7128 O 677.857 -1.90404 1.02836 0
M  V30 7129 C 678.452 0.497619 3.35126 0
M  V30 7130 C 677.011 0.152063 3.76093 0
M  V30 7131 C 676.158 0.78872 2.65847 0
M  V30 7132 H 679.109 0.879527 1.32098 0
M  V30 7133 H 679.13 -0.24939 3.79682 0
M  V30 7134 H 678.642 1.55913 3.55405 0
M  V30 7135 H 676.743 -0.905896 3.6142 0
M  V30 7136 H 676.856 0.594514 4.75397 0
M  V30 7137 H 675.22 0.219813 2.5375 0
M  V30 7138 H 676.003 1.85374 2.88949 0
M  V30 7139 N 678.448 -1.51871 0.421078 0
M  V30 7140 C 679.673 -2.0684 -0.152371 0
M  V30 7141 C 680.098 -1.28802 -1.37083 0
M  V30 7142 O 679.456 -0.321482 -1.78427 0
M  V30 7143 C 679.504 -3.57532 -0.469368 0
M  V30 7144 O 678.608 -3.81818 -1.55848 0
M  V30 7145 H 677.949 -0.663939 -0.00898586 0
M  V30 7146 H 680.479 -1.95674 0.597724 0
M  V30 7147 H 680.489 -4.01515 -0.724553 0
M  V30 7148 H 679.164 -4.13761 0.421276 0
M  V30 7149 H 677.741 -3.49709 -1.29453 0
M  V30 7150 N 679.926 -0.151884 -1.56866 0
M  V30 7151 C 681.172 0.498742 -1.96572 0
M  V30 7152 C 681.505 1.64194 -1.03702 0
M  V30 7153 O 680.78 1.94334 -0.0803432 0
M  V30 7154 C 681.063 1.00027 -3.45929 0
M  V30 7155 C 680.916 -0.141767 -4.49577 0
M  V30 7156 C 682.235 1.88044 -3.97904 0
M  V30 7157 H 679.354 0.17982 -0.714726 0
M  V30 7158 H 681.996 -0.234097 -1.88552 0
M  V30 7159 H 680.146 1.62476 -3.52894 0
M  V30 7160 H 681.818 -0.778269 -4.54687 0
M  V30 7161 H 680.061 -0.80019 -4.26356 0
M  V30 7162 H 680.732 0.250947 -5.51429 0
M  V30 7163 H 683.208 1.35416 -3.93449 0
M  V30 7164 H 682.084 2.20043 -5.02864 0
M  V30 7165 H 682.345 2.81916 -3.40552 0
M  V30 7166 N 681.404 1.57128 0.121893 0
M  V30 7167 C 682.82 1.52357 0.47534 0
M  V30 7168 C 683.02 0.864417 1.82017 0
M  V30 7169 O 682.076 0.445529 2.48538 0
M  V30 7170 C 683.389 2.97122 0.4625 0
M  V30 7171 C 684.937 3.08196 0.546255 0
M  V30 7172 C 685.412 4.54516 0.563833 0
M  V30 7173 N 686.903 4.58959 0.625353 0
M  V30 7174 C 687.638 5.69585 0.660354 0
M  V30 7175 N 687.134 6.89714 0.653175 0
M  V30 7176 N 688.927 5.57685 0.703143 0
M  V30 7177 H 681.078 1.98364 -0.75931 0
M  V30 7178 H 683.341 0.905777 -0.279772 0
M  V30 7179 H 683.047 3.48706 -0.457943 0
M  V30 7180 H 682.921 3.54406 1.29136 0
M  V30 7181 H 685.308 2.56617 1.45712 0
M  V30 7182 H 685.389 2.53912 -0.310234 0
M  V30 7183 H 685.033 5.06741 -0.342974 0
M  V30 7184 H 684.963 5.06609 1.43716 0
M  V30 7185 H 687.454 3.72489 0.637182 0
M  V30 7186 H 687.767 7.69781 0.682425 0
M  V30 7187 H 686.112 6.92223 0.620646 0
M  V30 7188 H 689.303 4.62744 0.706095 0
M  V30 7189 H 689.476 6.43909 0.726952 0
M  V30 7190 N 682.882 -0.391992 1.52647 0
M  V30 7191 C 684.122 -1.1463 1.69232 0
M  V30 7192 C 684.486 -1.87312 0.421684 0
M  V30 7193 O 685.687 -2.64768 0.463852 0
M  V30 7194 C 683.958 -2.10088 2.89133 0
M  V30 7195 S 685.517 -2.93395 3.2629 0
M  V30 7196 H 682.335 -0.388076 0.59575 0
M  V30 7197 H 684.937 -0.431149 1.90687 0
M  V30 7198 H 683.641 -1.55408 3.79837 0
M  V30 7199 H 683.172 -2.86116 2.70003 0
M  V30 7200 H 685.187 -4.12193 2.76244 0
M  V30 7201 N 684.36 -1.4356 -0.65026 0
M  V30 7202 C 685.585 -1.48995 -1.44275 0
M  V30 7203 C 686.01 -0.109954 -1.87778 0
M  V30 7204 O 685.368 0.896926 -1.57559 0
M  V30 7205 C 685.416 -2.44341 -2.65198 0
M  V30 7206 O 684.52 -1.93172 -3.6436 0
M  V30 7207 H 683.861 -0.503852 -0.432469 0
M  V30 7208 H 686.391 -1.88504 -0.795446 0
M  V30 7209 H 686.401 -2.61743 -3.12977 0
M  V30 7210 H 685.076 -3.44588 -2.32877 0
M  V30 7211 H 683.653 -1.85445 -3.23519 0
M  V30 7212 N 685.838 0.888903 -1.30139 0
M  V30 7213 C 687.063 1.67884 -1.21777 0
M  V30 7214 C 687.488 1.86848 0.216689 0
M  V30 7215 O 686.846 1.39659 1.15608 0
M  V30 7216 C 686.894 3.03483 -1.94757 0
M  V30 7217 O 685.998 3.92294 -1.27198 0
M  V30 7218 H 685.339 0.513144 -0.421402 0
M  V30 7219 H 687.869 1.10968 -1.71893 0
M  V30 7220 H 687.879 3.53553 -2.03627 0
M  V30 7221 H 686.554 2.89 -2.99085 0
M  V30 7222 H 685.131 3.50732 -1.26655 0
M  V30 7223 N 687.317 1.12792 1.10072 0
M  V30 7224 C 688.25 0.742921 2.15768 0
M  V30 7225 C 689.228 -0.267714 1.60381 0
M  V30 7226 O 690.412 -0.160782 1.87813 0
M  V30 7227 C 687.539 0.100244 3.38552 0
M  V30 7228 C 686.585 1.07831 4.12644 0
M  V30 7229 S 687.418 2.60765 4.6772 0
M  V30 7230 C 688.574 1.97838 5.9381 0
M  V30 7231 H 688.807 1.63822 2.48092 0
M  V30 7232 H 686.34 0.947385 1.21918 0
M  V30 7233 H 688.298 -0.264175 4.09649 0
M  V30 7234 H 686.959 -0.772223 3.04459 0
M  V30 7235 H 686.152 0.576325 5.00694 0
M  V30 7236 H 685.754 1.38586 3.47376 0
M  V30 7237 H 688.046 1.32341 6.64449 0
M  V30 7238 H 688.989 2.83943 6.48677 0
M  V30 7239 H 689.397 1.43267 5.46017 0
M  V30 7240 N 688.795 -1.27931 0.920396 0
M  V30 7241 C 690.02 -1.99343 0.572478 0
M  V30 7242 C 690.445 -1.68267 -0.840696 0
M  V30 7243 O 689.803 -0.918805 -1.56294 0
M  V30 7244 C 689.851 -3.51698 0.796284 0
M  V30 7245 O 688.955 -4.12157 -0.141602 0
M  V30 7246 H 688.296 -0.626065 0.221221 0
M  V30 7247 H 690.826 -1.62921 1.23765 0
M  V30 7248 H 690.836 -4.01793 0.708984 0
M  V30 7249 H 689.511 -3.73649 1.82644 0
M  V30 7250 H 688.088 -3.729 -0.005007 0
M  V30 7251 O 690.312 -0.824023 -1.38896 0
M  V30 7252 H 691.003 -0.40654 -1.89386 0
M  V30 END ATOM
M  V30 BEGIN BOND
M  V30 END BOND
M  V30 END CTAB
M  END
$$$$
