drugbank_target|Q15825 Neuronal acetylcholine receptor subunit alpha-6 (DB00184; DB00898; DB01273; DB09028)
 OpenBabel12092120353D

  0  0  0     0  0            999 V3000
M  V30 BEGIN CTAB
M  V30 COUNTS 8017 8132 0 0 0
M  V30 BEGIN ATOM
M  V30 1 H -0.908 1.98254 -0.117106 0
M  V30 2 N 0 1.576 0 0
M  V30 3 C 0.933 2.03868 1.02534 0
M  V30 4 C 1.911 0.928543 1.3348 0
M  V30 5 O 3.095 1.19667 1.45644 0
M  V30 6 C 0.222 2.43627 2.35294 0
M  V30 7 C -0.732 3.65373 2.2001 0
M  V30 8 S 0.101 5.13292 1.52614 0
M  V30 9 C 1.257 5.56322 2.86805 0
M  V30 10 H 1.49 2.90518 0.631377 0
M  V30 11 H -0.977 1.52953 0.210867 0
M  V30 12 H 0.981 2.67203 3.11629 0
M  V30 13 H -0.358 1.57376 2.7183 0
M  V30 14 H -1.165 3.90944 3.18086 0
M  V30 15 H -1.563 3.418 1.51819 0
M  V30 16 H 0.729 5.58782 3.83104 0
M  V30 17 H 1.672 6.56266 2.65933 0
M  V30 18 H 2.08 4.83886 2.90714 0
M  V30 19 N 1.4781 -0.272755 1.55222 0
M  V30 20 C 2.4081 -1.34136 1.91127 0
M  V30 21 C 3.3891 -1.51513 0.773168 0
M  V30 22 O 4.5741 -1.64552 1.03132 0
M  V30 23 C 1.7041 -2.70083 2.1834 0
M  V30 24 C 0.6581 -2.67437 3.34158 0
M  V30 25 C -0.0159 -4.06938 3.46851 0
M  V30 26 C 1.2841 -2.26686 4.70543 0
M  V30 27 H 2.9781 -1.04333 2.80633 0
M  V30 28 H 0.5241 -0.500454 1.35024 0
M  V30 29 H 2.4771 -3.44952 2.42046 0
M  V30 30 H 1.2011 -3.01469 1.25634 0
M  V30 31 H -0.1399 -1.95026 3.1042 0
M  V30 32 H -0.4919 -4.35547 2.51611 0
M  V30 33 H -0.7919 -4.06062 4.2472 0
M  V30 34 H 0.7321 -4.83545 3.72849 0
M  V30 35 H 2.1461 -2.91277 4.93792 0
M  V30 36 H 0.5431 -2.36971 5.5133 0
M  V30 37 H 1.6131 -1.21818 4.69349 0
M  V30 38 N 2.9562 -1.48159 -0.537278 0
M  V30 39 C 4.1842 -1.59454 -1.31841 0
M  V30 40 C 4.5992 -0.252065 -1.8711 0
M  V30 41 O 3.9562 0.757621 -1.66031 0
M  V30 42 C 4.0072 -2.63546 -2.47439 0
M  V30 43 O 3.7282 -3.92583 -1.94449 0
M  V30 44 C 5.2292 -2.85212 -3.39366 0
M  V30 45 H 2.4492 -0.53785 -0.401196 0
M  V30 46 H 4.9932 -1.93932 -0.648891 0
M  V30 47 H 3.1482 -2.31946 -3.1029 0
M  V30 48 H 3.5622 -4.49629 -2.70063 0
M  V30 49 H 5.0362 -3.61863 -4.16844 0
M  V30 50 H 5.5132 -1.93765 -3.94147 0
M  V30 51 H 6.1192 -3.18086 -2.82314 0
M  V30 52 N 4.4343 0.785586 -1.36625 0
M  V30 53 C 5.6593 1.57963 -1.34397 0
M  V30 54 C 6.0843 1.87964 0.071526 0
M  V30 55 O 5.4423 1.48182 1.0446 0
M  V30 56 C 5.4903 2.87511 -2.17646 0
M  V30 57 O 4.5943 3.81281 -1.57158 0
M  V30 58 H 3.9353 0.479014 -0.459828 0
M  V30 59 H 6.4653 0.973411 -1.79961 0
M  V30 60 H 6.4753 3.36745 -2.30362 0
M  V30 61 H 5.1503 2.65002 -3.20541 0
M  V30 62 H 3.7273 3.39885 -1.53403 0
M  V30 63 N 5.9124 1.20967 1.01018 0
M  V30 64 C 6.8594 0.964281 2.09691 0
M  V30 65 C 7.8294 -0.107853 1.65749 0
M  V30 66 O 9.0144 0.0381987 1.90762 0
M  V30 67 C 6.1544 0.52943 3.41015 0
M  V30 68 C 5.2674 1.67043 3.98398 0
M  V30 69 C 4.4024 1.18525 5.17808 0
M  V30 70 C 3.4414 2.29892 5.67288 0
M  V30 71 N 2.5784 1.82546 6.77954 0
M  V30 72 H 7.4184 1.89463 2.30017 0
M  V30 73 H 4.9554 0.944289 1.1279 0
M  V30 74 H 6.9134 0.258588 4.16398 0
M  V30 75 H 5.5434 -0.363919 3.20742 0
M  V30 76 H 4.5954 2.05603 3.20049 0
M  V30 77 H 5.9074 2.50877 4.31117 0
M  V30 78 H 5.0614 0.870762 6.00419 0
M  V30 79 H 3.8004 0.316887 4.86669 0
M  V30 80 H 2.8054 2.6215 4.83278 0
M  V30 81 H 4.0304 3.17216 6.00459 0
M  V30 82 H 1.9764 0.980454 6.48632 0
M  V30 83 H 1.8934 2.59956 7.09901 0
M  V30 84 H 3.1614 1.54115 7.64113 0
M  V30 85 N 7.3905 -1.2043 1.01659 0
M  V30 86 C 8.6385 -1.89423 0.704522 0
M  V30 87 C 8.9595 -1.79231 -0.768197 0
M  V30 88 O 8.2295 -1.1947 -1.55254 0
M  V30 89 H 6.8095 -0.701178 0.257602 0
M  V30 90 H 9.4715 -1.4626 1.28818 0
M  V30 91 H 8.5675 -2.96052 0.987916 0
M  V30 92 N 8.8686 -0.792821 -1.36206 0
M  V30 93 C 9.8006 -0.151469 -2.28699 0
M  V30 94 C 10.8136 0.641262 -1.49638 0
M  V30 95 O 12.0026 0.475885 -1.72039 0
M  V30 96 C 9.1026 0.808424 -3.29117 0
M  V30 97 C 8.2756 0.0650202 -4.37352 0
M  V30 98 C 7.3346 0.941358 -5.17711 0
M  V30 99 O 6.3606 0.397352 -5.67811 0
M  V30 100 N 7.5626 2.2652 -5.3448 0
M  V30 101 H 10.3276 -0.945982 -2.84379 0
M  V30 102 H 7.8886 -0.647032 -1.48409 0
M  V30 103 H 9.8806 1.3986 -3.79765 0
M  V30 104 H 8.4506 1.5038 -2.74052 0
M  V30 105 H 7.6706 -0.706255 -3.87822 0
M  V30 106 H 8.9586 -0.447847 -5.06825 0
M  V30 107 H 8.3566 2.73128 -4.95396 0
M  V30 108 H 6.9136 2.80493 -5.88359 0
M  V30 109 N 10.3467 1.47872 -0.545128 0
M  V30 110 C 11.5947 2.02093 -0.016553 0
M  V30 111 C 11.9157 1.42305 1.3332 0
M  V30 112 O 11.1857 0.593853 1.86682 0
M  V30 113 H 9.7657 0.746993 -0.00313038 0
M  V30 114 H 12.4277 1.81414 -0.712397 0
M  V30 115 H 11.5237 3.11996 0.0805422 0
M  V30 116 N 11.8248 0.280983 1.55075 0
M  V30 117 C 13.0718 -0.334115 1.99725 0
M  V30 118 C 13.3998 -1.5542 1.1694 0
M  V30 119 O 12.6548 -1.94361 0.228531 0
M  V30 120 C 12.9538 -0.754656 3.49342 0
M  V30 121 C 12.6198 0.361445 4.49449 0
M  V30 122 C 11.2818 0.667893 4.76542 0
M  V30 123 C 13.6338 1.11322 5.09173 0
M  V30 124 C 10.9618 1.7296 5.60626 0
M  V30 125 C 13.3138 2.1647 5.9441 0
M  V30 126 C 11.9778 2.47742 6.19822 0
M  V30 127 H 11.2478 -0.122261 0.730844 0
M  V30 128 H 13.8948 0.395917 1.87363 0
M  V30 129 H 12.1998 -1.56446 3.5921 0
M  V30 130 H 13.8968 -1.24142 3.813 0
M  V30 131 H 10.4868 0.112481 4.28452 0
M  V30 132 H 14.6708 0.88973 4.8826 0
M  V30 133 H 9.9268 1.97684 5.78559 0
M  V30 134 H 14.1008 2.75193 6.3972 0
M  V30 135 H 11.7278 3.30145 6.84769 0
M  V30 136 N 13.3029 -1.57598 0.00835791 0
M  V30 137 C 14.2329 -2.1198 -0.979113 0
M  V30 138 C 15.2139 -1.03091 -1.35301 0
M  V30 139 O 16.3989 -1.30818 -1.43528 0
M  V30 140 C 13.5289 -2.62995 -2.26828 0
M  V30 141 C 12.4829 -3.76485 -2.03576 0
M  V30 142 C 11.8089 -4.13846 -3.38579 0
M  V30 143 C 13.1089 -5.0342 -1.39161 0
M  V30 144 H 14.8029 -2.94738 -0.526281 0
M  V30 145 H 12.3489 -1.41783 -0.251704 0
M  V30 146 H 14.3019 -2.99669 -2.96271 0
M  V30 147 H 13.0259 -1.7737 -2.7424 0
M  V30 148 H 11.6849 -3.40217 -1.36557 0
M  V30 149 H 11.3329 -3.25232 -3.83709 0
M  V30 150 H 11.0329 -4.90312 -3.23834 0
M  V30 151 H 12.5569 -4.53086 -4.09323 0
M  V30 152 H 13.9709 -5.37812 -1.98573 0
M  V30 153 H 12.3679 -5.84746 -1.34878 0
M  V30 154 H 13.4379 -4.83548 -0.361868 0
M  V30 155 N 14.781 0.264519 -1.55364 0
M  V30 156 C 15.731 1.32966 -1.85214 0
M  V30 157 C 16.715 1.44306 -0.711653 0
M  V30 158 O 17.907 1.47844 -0.973192 0
M  V30 159 C 15.036 2.68839 -2.13495 0
M  V30 160 C 14.122 2.61575 -3.33825 0
M  V30 161 N 14.513 2.23933 -4.53528 0
M  V30 162 C 12.811 2.92621 -3.36584 0
M  V30 163 C 13.512 2.26868 -5.35636 0
M  V30 164 N 12.488 2.65677 -4.74254 0
M  V30 165 H 16.29 1.02884 -2.75304 0
M  V30 166 H 13.804 0.473157 -1.55354 0
M  V30 167 H 15.801 3.45685 -2.33039 0
M  V30 168 H 14.461 2.99802 -1.24694 0
M  V30 169 H 15.472 1.95769 -4.79474 0
M  V30 170 H 12.149 3.2824 -2.58002 0
M  V30 171 H 13.539 2.00254 -6.41364 0
M  V30 172 N 16.2591 1.48442 0.529413 0
M  V30 173 C 17.5071 1.56179 1.28267 0
M  V30 174 C 17.8281 0.237721 1.93546 0
M  V30 175 O 17.0981 -0.740779 1.81354 0
M  V30 176 H 15.6781 0.575367 0.476405 0
M  V30 177 H 18.3401 1.84909 0.61602 0
M  V30 178 H 17.4361 2.34312 2.06165 0
M  V30 179 N 17.7372 -0.778329 1.37039 0
M  V30 180 C 18.9852 -1.53361 1.31623 0
M  V30 181 C 19.3062 -1.94739 -0.100831 0
M  V30 182 O 18.5762 -1.65797 -1.04347 0
M  V30 183 H 17.1562 -0.568794 0.484234 0
M  V30 184 H 19.8182 -0.926742 1.71457 0
M  V30 185 H 18.9142 -2.43606 1.95096 0
M  V30 186 N 19.2153 -1.21501 -1.00376 0
M  V30 187 C 20.1453 -0.999478 -2.11028 0
M  V30 188 C 21.1263 0.0759671 -1.6993 0
M  V30 189 O 22.3113 -0.0841106 -1.94018 0
M  V30 190 C 19.4413 -0.564709 -3.42678 0
M  V30 191 C 18.3953 -1.58486 -3.97576 0
M  V30 192 C 17.7213 -1.00628 -5.25146 0
M  V30 193 C 19.0213 -2.97204 -4.29496 0
M  V30 194 H 20.7153 -1.92495 -2.29317 0
M  V30 195 H 18.2613 -0.92693 -1.102 0
M  V30 196 H 20.2143 -0.401091 -4.19487 0
M  V30 197 H 18.9383 0.396411 -3.24185 0
M  V30 198 H 17.5973 -1.73606 -3.22888 0
M  V30 199 H 17.2453 -0.0368439 -5.02987 0
M  V30 200 H 16.9453 -1.68771 -5.62841 0
M  V30 201 H 18.4693 -0.854015 -6.04598 0
M  V30 202 H 19.8833 -2.8552 -4.97143 0
M  V30 203 H 18.2803 -3.62372 -4.78338 0
M  V30 204 H 19.3503 -3.47956 -3.3772 0
M  V30 205 N 20.6934 1.19889 -1.02296 0
M  V30 206 C 21.9334 1.91125 -0.724602 0
M  V30 207 C 22.2974 1.77464 0.732835 0
M  V30 208 O 23.4984 2.43241 1.144 0
M  V30 209 C 21.7694 3.38187 -1.15604 0
M  V30 210 S 23.3284 4.27702 -0.980621 0
M  V30 211 H 20.1464 0.66018 -0.263976 0
M  V30 212 H 22.7484 1.44978 -1.31155 0
M  V30 213 H 21.4524 3.45653 -2.21251 0
M  V30 214 H 20.9834 3.89363 -0.562131 0
M  V30 215 H 22.9984 4.96073 0.112225 0
M  V30 216 N 22.1715 0.800033 1.35784 0
M  V30 217 C 23.1015 0.220184 2.3246 0
M  V30 218 C 24.0825 -0.65073 1.57161 0
M  V30 219 O 25.2675 -0.582359 1.85263 0
M  V30 220 C 22.3975 -0.637353 3.41402 0
M  V30 221 C 21.3515 0.134531 4.27789 0
M  V30 222 C 20.6775 -0.844285 5.27992 0
M  V30 223 C 21.9775 1.32979 5.05088 0
M  V30 224 H 23.6715 1.02787 2.81203 0
M  V30 225 H 21.2175 0.495717 1.35199 0
M  V30 226 H 23.1705 -1.05302 4.08031 0
M  V30 227 H 21.8945 -1.47785 2.91251 0
M  V30 228 H 20.5535 0.531296 3.6273 0
M  V30 229 H 20.2015 -1.68011 4.74111 0
M  V30 230 H 19.9015 -0.332184 5.8666 0
M  V30 231 H 21.4255 -1.2583 5.97494 0
M  V30 232 H 22.8395 0.98934 5.64699 0
M  V30 233 H 21.2365 1.77593 5.7322 0
M  V30 234 H 22.3065 2.11978 4.36111 0
M  V30 235 N 23.6496 -1.47581 0.552962 0
M  V30 236 C 24.8956 -2.03369 0.0355807 0
M  V30 237 C 25.2506 -1.42016 -1.29805 0
M  V30 238 O 24.5436 -0.564917 -1.83083 0
M  V30 239 C 24.7376 -3.57199 -0.119728 0
M  V30 240 C 24.5666 -4.33468 1.1973 0
M  V30 241 C 23.3366 -4.7353 1.76345 0
M  V30 242 C 25.5346 -4.68866 2.11351 0
M  V30 243 N 23.5166 -5.34426 3.02097 0
M  V30 244 C 24.8876 -5.3002 3.21681 0
M  V30 245 C 26.9426 -4.50795 2.11397 0
M  V30 246 C 25.6456 -5.75011 4.32151 0
M  V30 247 C 27.6716 -4.96782 3.20876 0
M  V30 248 C 27.0336 -5.57981 4.29926 0
M  V30 249 H 23.1326 -0.780058 0.0550806 0
M  V30 250 H 25.7166 -1.80117 0.739315 0
M  V30 251 H 23.8876 -3.80227 -0.792579 0
M  V30 252 H 25.6196 -3.99627 -0.638792 0
M  V30 253 H 22.3746 -4.55352 1.30196 0
M  V30 254 H 22.7986 -5.69421 3.66182 0
M  V30 255 H 27.4406 -4.0284 1.28372 0
M  V30 256 H 25.1586 -6.21959 5.15938 0
M  V30 257 H 28.7446 -4.84573 3.21994 0
M  V30 258 H 27.6246 -5.92918 5.13243 0
M  V30 259 N 25.1277 -0.289203 -1.54924 0
M  V30 260 C 26.0577 0.58549 -2.2604 0
M  V30 261 C 27.0387 1.14753 -1.25562 0
M  V30 262 O 28.2237 1.17906 -1.54311 0
M  V30 263 C 25.3537 1.76305 -2.99222 0
M  V30 264 C 24.3077 1.33191 -4.06748 0
M  V30 265 C 23.6337 2.5937 -4.6758 0
M  V30 266 C 24.9337 0.471775 -5.20165 0
M  V30 267 H 26.6277 -0.00763532 -2.99399 0
M  V30 268 H 24.1737 -0.00511229 -1.43999 0
M  V30 269 H 26.1267 2.38097 -3.47689 0
M  V30 270 H 24.8507 2.38223 -2.23422 0
M  V30 271 H 23.5097 0.737121 -3.59113 0
M  V30 272 H 23.1577 3.19576 -3.88433 0
M  V30 273 H 22.8577 2.31228 -5.40192 0
M  V30 274 H 24.3817 3.21985 -5.18804 0
M  V30 275 H 25.7957 0.995056 -5.64599 0
M  V30 276 H 24.1927 0.284639 -5.99425 0
M  V30 277 H 25.2627 -0.506041 -4.82252 0
M  V30 278 N 26.6058 1.57591 -0.0167156 0
M  V30 279 C 27.8458 1.93145 0.668902 0
M  V30 280 C 28.2098 0.892406 1.7 0
M  V30 281 O 29.4108 1.13373 2.43721 0
M  V30 282 C 27.6818 3.33678 1.28039 0
M  V30 283 S 29.2408 3.91142 1.9888 0
M  V30 284 H 26.0588 0.67593 0.220545 0
M  V30 285 H 28.6608 1.95347 -0.0774105 0
M  V30 286 H 27.3648 4.07126 0.517339 0
M  V30 287 H 26.8958 3.3489 2.06427 0
M  V30 288 H 28.9108 3.73571 3.26587 0
M  V30 289 N 28.0839 -0.256276 1.55502 0
M  V30 290 C 29.3299 -0.987079 1.77157 0
M  V30 291 C 29.6629 -1.85327 0.580315 0
M  V30 292 O 28.9379 -1.89874 -0.421686 0
M  V30 293 C 29.2209 -1.85553 3.08613 0
M  V30 294 C 29.0739 -1.01816 4.38125 0
M  V30 295 C 30.3929 -2.8397 3.36228 0
M  V30 296 H 27.5119 -0.357428 0.644526 0
M  V30 297 H 30.1539 -0.258239 1.88237 0
M  V30 298 H 28.3039 -2.47695 2.99298 0
M  V30 299 H 29.9759 -0.416159 4.59419 0
M  V30 300 H 28.2189 -0.322178 4.32602 0
M  V30 301 H 28.8899 -1.65939 5.26468 0
M  V30 302 H 31.3659 -2.31964 3.45445 0
M  V30 303 H 30.2419 -3.41864 4.29442 0
M  V30 304 H 30.5029 -3.59955 2.56681 0
M  V30 305 N 29.562 -1.4872 -0.521534 0
M  V30 306 C 30.809 -1.57168 -1.27689 0
M  V30 307 C 31.137 -0.249275 -1.92896 0
M  V30 308 O 30.392 0.761162 -1.80291 0
M  V30 309 C 30.691 -2.66497 -2.38148 0
M  V30 310 C 30.357 -4.08664 -1.90538 0
M  V30 311 C 29.019 -4.47357 -1.77271 0
M  V30 312 C 31.371 -4.97724 -1.54663 0
M  V30 313 C 28.699 -5.72905 -1.26478 0
M  V30 314 C 31.051 -6.2377 -1.05329 0
M  V30 315 C 29.715 -6.61311 -0.906861 0
M  V30 316 H 28.985 -0.575117 -0.467249 0
M  V30 317 H 31.632 -1.82472 -0.581051 0
M  V30 318 H 29.937 -2.35085 -3.13437 0
M  V30 319 H 31.634 -2.70246 -2.96257 0
M  V30 320 H 28.224 -3.78111 -2.01816 0
M  V30 321 H 32.408 -4.68501 -1.63768 0
M  V30 322 H 27.664 -6.00709 -1.13835 0
M  V30 323 H 31.838 -6.9217 -0.76644 0
M  V30 324 H 29.465 -7.5848 -0.511083 0
M  V30 325 N 31.0401 0.771051 -1.3745 0
M  V30 326 C 32.2681 1.56015 -1.35893 0
M  V30 327 C 32.6831 1.88718 0.0555523 0
M  V30 328 O 32.0401 1.51502 1.01752 0
M  V30 329 C 32.0911 2.87001 -2.19801 0
M  V30 330 O 31.8121 2.557 -3.55738 0
M  V30 331 C 33.3131 3.81228 -2.26231 0
M  V30 332 H 30.5331 0.483317 -0.465453 0
M  V30 333 H 33.0771 0.955611 -1.80799 0
M  V30 334 H 31.2321 3.43877 -1.78402 0
M  V30 335 H 31.6461 3.39584 -3.99729 0
M  V30 336 H 33.1201 4.70139 -2.89263 0
M  V30 337 H 33.5971 4.20409 -1.27093 0
M  V30 338 H 34.2031 3.30281 -2.67945 0
M  V30 339 N 32.5182 1.22032 0.997298 0
M  V30 340 C 33.9292 1.0397 1.55071 0
M  V30 341 C 34.2802 -0.398192 1.92117 0
M  V30 342 O 33.4052 -1.28254 1.74298 0
M  V30 343 C 34.0002 1.88109 2.81781 0
M  V30 344 C 32.5592 1.74357 3.33581 0
M  V30 345 C 31.7062 1.84846 2.06706 0
M  V30 346 H 34.6572 1.35941 0.818883 0
M  V30 347 H 34.6782 1.39589 3.53971 0
M  V30 348 H 34.1902 2.92754 2.54787 0
M  V30 349 H 32.2912 0.72427 3.65493 0
M  V30 350 H 32.4042 2.56772 4.04481 0
M  V30 351 H 30.7682 1.28238 2.20062 0
M  V30 352 H 31.5512 2.91014 1.82114 0
M  V30 353 N 33.9963 -1.19345 1.0293 0
M  V30 354 C 35.2433 -1.89038 0.726008 0
M  V30 355 C 35.5713 -1.79649 -0.745427 0
M  V30 356 O 34.8263 -1.18354 -1.55855 0
M  V30 357 C 35.1253 -3.39292 1.12319 0
M  V30 358 C 34.7913 -3.68885 2.59297 0
M  V30 359 C 33.4533 -3.76671 2.99453 0
M  V30 360 C 35.8053 -3.82178 3.54386 0
M  V30 361 C 33.1333 -3.9522 4.33611 0
M  V30 362 C 35.4853 -4.0224 4.88248 0
M  V30 363 C 34.1493 -4.08259 5.28092 0
M  V30 364 H 33.4193 -0.691739 0.265665 0
M  V30 365 H 36.0663 -1.41328 1.29223 0
M  V30 366 H 34.3713 -3.88903 0.475584 0
M  V30 367 H 36.0683 -3.91536 0.866037 0
M  V30 368 H 32.6583 -3.63433 2.27189 0
M  V30 369 H 36.8423 -3.75505 3.24514 0
M  V30 370 H 32.0983 -3.98119 4.64016 0
M  V30 371 H 36.2723 -4.11468 5.61843 0
M  V30 372 H 33.8993 -4.22384 6.32057 0
M  V30 373 N 35.4744 -0.807222 -1.35358 0
M  V30 374 C 36.7214 -0.387888 -1.9875 0
M  V30 375 C 37.0494 1.04509 -1.64037 0
M  V30 376 O 36.3044 1.73986 -0.895946 0
M  V30 377 C 36.6034 -0.519036 -3.53611 0
M  V30 378 C 36.2694 -1.91542 -4.08194 0
M  V30 379 C 34.9314 -2.29745 -4.22813 0
M  V30 380 C 37.2834 -2.82896 -4.37744 0
M  V30 381 C 34.6114 -3.58668 -4.643 0
M  V30 382 C 36.9634 -4.11265 -4.8067 0
M  V30 383 C 35.6274 -4.49466 -4.93494 0
M  V30 384 H 34.8974 -0.141938 -0.727279 0
M  V30 385 H 37.5444 -1.02814 -1.6156 0
M  V30 386 H 35.8494 0.204658 -3.91265 0
M  V30 387 H 37.5464 -0.175345 -4.00616 0
M  V30 388 H 34.1364 -1.60862 -3.97268 0
M  V30 389 H 38.3204 -2.54629 -4.26002 0
M  V30 390 H 33.5764 -3.88113 -4.72418 0
M  V30 391 H 37.7504 -4.82153 -5.02496 0
M  V30 392 H 35.3774 -5.49418 -5.25399 0
M  V30 393 N 36.9525 1.47285 -0.560781 0
M  V30 394 C 37.8995 2.30058 0.18491 0
M  V30 395 C 38.8695 1.39281 0.904986 0
M  V30 396 O 40.0545 1.68241 0.899979 0
M  V30 397 C 37.1945 3.23317 1.20666 0
M  V30 398 C 36.3075 4.29186 0.492285 0
M  V30 399 C 35.4425 5.09592 1.49964 0
M  V30 400 C 34.4815 6.07232 0.770439 0
M  V30 401 N 33.6185 6.80584 1.72479 0
M  V30 402 H 38.4585 2.93302 -0.527048 0
M  V30 403 H 35.9955 1.44568 -0.271738 0
M  V30 404 H 37.9535 3.75811 1.81168 0
M  V30 405 H 36.5835 2.61929 1.88661 0
M  V30 406 H 35.6355 3.7972 -0.227333 0
M  V30 407 H 36.9475 4.98738 -0.0787929 0
M  V30 408 H 36.1015 5.66254 2.17809 0
M  V30 409 H 34.8405 4.3995 2.10464 0
M  V30 410 H 33.8455 5.49745 0.0780846 0
M  V30 411 H 35.0705 6.78884 0.171134 0
M  V30 412 H 33.0165 6.1367 2.3183 0
M  V30 413 H 32.9335 7.46319 1.20596 0
M  V30 414 H 34.2015 7.41818 2.39428 0
M  V30 415 N 38.4306 0.297415 1.54768 0
M  V30 416 C 39.6786 -0.312295 1.99673 0
M  V30 417 C 39.9996 -1.54686 1.18732 0
M  V30 418 O 39.2696 -1.93854 0.282382 0
M  V30 419 H 37.8496 -0.118381 0.73756 0
M  V30 420 H 40.5116 0.407915 1.90583 0
M  V30 421 H 39.6076 -0.586813 3.06534 0
M  V30 422 N 39.9087 -1.5758 0.0250728 0
M  V30 423 C 41.1487 -1.93497 -0.65865 0
M  V30 424 C 41.5127 -0.901409 -1.69525 0
M  V30 425 O 42.7137 -1.14664 -2.43116 0
M  V30 426 C 40.9847 -3.34352 -1.26267 0
M  V30 427 S 42.5437 -3.92191 -1.96803 0
M  V30 428 H 39.3617 -0.67709 -0.216958 0
M  V30 429 H 41.9637 -1.95303 0.0877692 0
M  V30 430 H 40.6677 -4.07395 -0.495741 0
M  V30 431 H 40.1987 -3.3598 -2.04648 0
M  V30 432 H 42.2137 -3.75298 -3.24601 0
M  V30 433 N 41.3868 0.248026 -1.55636 0
M  V30 434 C 42.6328 0.97767 -1.77678 0
M  V30 435 C 42.9658 1.85016 -0.590135 0
M  V30 436 O 42.2408 1.90095 0.411611 0
M  V30 437 C 42.5238 1.83914 -3.09593 0
M  V30 438 C 42.3768 0.99491 -4.38659 0
M  V30 439 C 43.6958 2.82183 -3.37729 0
M  V30 440 H 40.8148 0.354005 -0.646413 0
M  V30 441 H 43.4568 0.248253 -1.88371 0
M  V30 442 H 41.6068 2.46104 -3.00608 0
M  V30 443 H 43.2788 0.391789 -4.59633 0
M  V30 444 H 41.5218 0.299231 -4.32767 0
M  V30 445 H 42.1928 1.63145 -5.2734 0
M  V30 446 H 44.6688 2.30129 -3.4667 0
M  V30 447 H 43.5448 3.39582 -4.31249 0
M  V30 448 H 43.8058 3.58588 -2.58586 0
M  V30 449 N 42.8649 1.48995 0.513639 0
M  V30 450 C 44.1129 1.57531 1.26604 0
M  V30 451 C 44.4339 0.258236 1.93283 0
M  V30 452 O 43.7039 -0.721502 1.8213 0
M  V30 453 H 42.2839 0.580387 0.470276 0
M  V30 454 H 44.9459 1.85552 0.596373 0
M  V30 455 H 44.0419 2.36486 2.03669 0
M  V30 456 N 44.343 -0.763751 1.37857 0
M  V30 457 C 45.583 -1.53551 1.34913 0
M  V30 458 C 45.947 -1.91895 -0.0635882 0
M  V30 459 O 47.148 -2.67916 -0.217825 0
M  V30 460 C 45.419 -2.76126 2.26912 0
M  V30 461 S 46.978 -3.66105 2.41893 0
M  V30 462 H 43.796 -0.52559 0.478828 0
M  V30 463 H 46.398 -0.897435 1.73685 0
M  V30 464 H 45.102 -2.4605 3.28463 0
M  V30 465 H 44.633 -3.44887 1.89253 0
M  V30 466 H 46.648 -4.68473 1.63545 0
M  V30 467 N 45.8211 -1.22559 -0.990812 0
M  V30 468 C 46.7841 -0.998863 -2.0629 0
M  V30 469 C 47.7841 0.0354834 -1.60761 0
M  V30 470 O 48.9741 -0.203231 -1.7301 0
M  V30 471 C 46.1061 -0.509203 -3.37076 0
M  V30 472 H 47.2991 -1.95014 -2.27837 0
M  V30 473 H 44.8521 -1.04456 -1.16269 0
M  V30 474 H 45.5871 0.446335 -3.21214 0
M  V30 475 H 45.3721 -1.25547 -3.71457 0
M  V30 476 H 46.8621 -0.370888 -4.1595 0
M  V30 477 N 47.2992 1.18797 -1.03562 0
M  V30 478 C 48.5272 1.92599 -0.755869 0
M  V30 479 C 48.9422 1.75886 0.686271 0
M  V30 480 O 48.2992 1.08517 1.46732 0
M  V30 481 C 48.3502 3.44159 -1.10619 0
M  V30 482 O 48.0712 3.60341 -2.4917 0
M  V30 483 C 49.5722 4.3507 -0.850214 0
M  V30 484 H 46.7922 0.611587 -0.276048 0
M  V30 485 H 49.3362 1.50742 -1.38192 0
M  V30 486 H 47.4912 3.83823 -0.525194 0
M  V30 487 H 47.9052 4.54128 -2.62427 0
M  V30 488 H 49.3792 5.39989 -1.14523 0
M  V30 489 H 49.8562 4.38673 0.215176 0
M  V30 490 H 50.4622 4.01097 -1.41426 0
M  V30 491 N 48.7773 0.814389 1.34928 0
M  V30 492 C 49.6873 0.231978 2.3345 0
M  V30 493 C 50.7033 -0.629139 1.62228 0
M  V30 494 O 51.8793 -0.539052 1.94052 0
M  V30 495 C 48.9443 -0.603482 3.41407 0
M  V30 496 C 48.0053 0.279037 4.28392 0
M  V30 497 C 47.2383 -0.516643 5.31193 0
M  V30 498 O 47.4613 -1.75068 5.4287 0
M  V30 499 O 46.3953 0.0965652 6.01823 0
M  V30 500 H 50.2213 1.04721 2.85074 0
M  V30 501 H 47.8063 0.576343 1.37836 0
M  V30 502 H 49.6883 -1.07908 4.0735 0
M  V30 503 H 48.3633 -1.39618 2.92042 0
M  V30 504 H 47.2703 0.801948 3.65403 0
M  V30 505 H 48.6033 1.03588 4.81176 0
M  V30 506 N 50.2554 -1.46986 0.568584 0
M  V30 507 C 51.1654 -2.33942 -0.17555 0
M  V30 508 C 52.1814 -1.48891 -0.90041 0
M  V30 509 O 53.3574 -1.81794 -0.86676 0
M  V30 510 C 50.4224 -3.25811 -1.18524 0
M  V30 511 C 49.4834 -4.26757 -0.466582 0
M  V30 512 C 48.7164 -5.14236 -1.42817 0
M  V30 513 O 48.9394 -5.04379 -2.66379 0
M  V30 514 O 47.8734 -5.94412 -0.946453 0
M  V30 515 H 51.6994 -2.98896 0.538036 0
M  V30 516 H 49.2844 -1.4573 0.329097 0
M  V30 517 H 51.1664 -3.82527 -1.76779 0
M  V30 518 H 49.8414 -2.63471 -1.88055 0
M  V30 519 H 48.7484 -3.73769 0.157451 0
M  V30 520 H 50.0814 -4.91843 0.187485 0
M  V30 521 N 51.7335 -0.305618 -1.54608 0
M  V30 522 C 53.1495 0.0476228 -1.59529 0
M  V30 523 C 53.3495 1.52025 -1.32252 0
M  V30 524 O 52.4055 2.27368 -1.09818 0
M  V30 525 C 53.7185 -0.354471 -2.98603 0
M  V30 526 C 55.2665 -0.303622 -3.11524 0
M  V30 527 C 55.7415 -0.680608 -4.52915 0
M  V30 528 N 57.2325 -0.63332 -4.5885 0
M  V30 529 C 57.9675 -0.897432 -5.66334 0
M  V30 530 N 57.4635 -1.22775 -6.81834 0
M  V30 531 N 59.2565 -0.824186 -5.56025 0
M  V30 532 H 51.4075 -1.2653 -1.70599 0
M  V30 533 H 53.6705 -0.513291 -0.797017 0
M  V30 534 H 53.3765 -1.3798 -3.23503 0
M  V30 535 H 53.2505 0.289568 -3.76087 0
M  V30 536 H 55.6375 0.712472 -2.8637 0
M  V30 537 H 55.7185 -0.982348 -2.36185 0
M  V30 538 H 55.3625 -1.69453 -4.78799 0
M  V30 539 H 55.2925 0.0202385 -5.26596 0
M  V30 540 H 57.7835 -0.389138 -3.75891 0
M  V30 541 H 58.0965 -1.41513 -7.59733 0
M  V30 542 H 56.4415 -1.26583 -6.83375 0
M  V30 543 H 59.6325 -0.565748 -4.64669 0
M  V30 544 H 59.8055 -1.03338 -6.39707 0
M  V30 545 N 53.2116 1.57565 -0.0334293 0
M  V30 546 C 54.1416 2.13511 0.945265 0
M  V30 547 C 55.1226 1.05231 1.33643 0
M  V30 548 O 56.3076 1.33084 1.41429 0
M  V30 549 C 53.4376 2.6657 2.22616 0
M  V30 550 C 52.3916 3.79676 1.97561 0
M  V30 551 C 51.7176 4.1918 3.31952 0
M  V30 552 C 53.0176 5.0557 1.31135 0
M  V30 553 H 54.7116 2.95538 0.479325 0
M  V30 554 H 52.2576 1.42166 0.229115 0
M  V30 555 H 54.2106 3.04344 2.91466 0
M  V30 556 H 52.9346 1.8171 2.71384 0
M  V30 557 H 51.5936 3.42347 1.31127 0
M  V30 558 H 51.2416 3.31296 3.78487 0
M  V30 559 H 50.9416 4.95402 3.15992 0
M  V30 560 H 52.4656 4.59541 4.02063 0
M  V30 561 H 53.8796 5.40903 1.89992 0
M  V30 562 H 52.2766 5.86818 1.25559 0
M  V30 563 H 53.3466 4.84062 0.284894 0
M  V30 564 N 54.6897 -0.239769 1.55765 0
M  V30 565 C 55.9367 -0.966801 1.7793 0
M  V30 566 C 56.2647 -1.85046 0.599015 0
M  V30 567 O 55.5197 -1.91197 -0.417395 0
M  V30 568 C 55.8187 -1.852 3.05672 0
M  V30 569 C 55.4847 -1.1231 4.36689 0
M  V30 570 C 54.1467 -0.921689 4.72291 0
M  V30 571 C 56.4987 -0.607019 5.17653 0
M  V30 572 C 53.8267 -0.191996 5.86386 0
M  V30 573 C 56.1787 0.109241 6.32506 0
M  V30 574 C 54.8427 0.322073 6.66723 0
M  V30 575 H 54.1127 -0.353778 0.651093 0
M  V30 576 H 56.7597 -0.23634 1.90036 0
M  V30 577 H 55.0647 -2.64975 2.8861 0
M  V30 578 H 56.7617 -2.41635 3.20021 0
M  V30 579 H 53.3517 -1.29004 4.08725 0
M  V30 580 H 57.5357 -0.750153 4.90598 0
M  V30 581 H 52.7917 -0.0166949 6.11398 0
M  V30 582 H 56.9657 0.516737 6.9448 0
M  V30 583 H 54.5927 0.88944 7.54979 0
M  V30 584 N 56.1678 -1.49265 -0.50573 0
M  V30 585 C 57.1178 -1.6198 -1.60457 0
M  V30 586 C 58.1018 -0.47568 -1.53708 0
M  V30 587 O 59.2938 -0.728392 -1.61318 0
M  V30 588 C 56.4228 -1.68526 -2.99089 0
M  V30 589 C 55.5088 -2.885 -3.10852 0
M  V30 590 N 55.8998 -4.12635 -2.92517 0
M  V30 591 C 54.1978 -2.86338 -3.41945 0
M  V30 592 C 54.8988 -4.93258 -3.08337 0
M  V30 593 N 53.8748 -4.26533 -3.37003 0
M  V30 594 H 57.6768 -2.55681 -1.44928 0
M  V30 595 H 55.1908 -1.45972 -0.711752 0
M  V30 596 H 57.1878 -1.75732 -3.78053 0
M  V30 597 H 55.8478 -0.759584 -3.1569 0
M  V30 598 H 56.8588 -4.42689 -2.68787 0
M  V30 599 H 53.5358 -2.03129 -3.64753 0
M  V30 600 H 54.9258 -6.01856 -2.98695 0
M  V30 601 N 57.6459 0.756429 -1.3826 0
M  V30 602 C 58.5929 1.87011 -1.35261 0
M  V30 603 C 59.5629 1.64695 -0.215616 0
M  V30 604 O 60.7479 1.864 -0.407399 0
M  V30 605 C 57.8879 3.24275 -1.18068 0
M  V30 606 C 57.0009 3.58442 -2.41129 0
M  V30 607 C 56.1359 4.84994 -2.16689 0
M  V30 608 C 55.1749 5.11939 -3.35537 0
M  V30 609 N 54.3119 6.29685 -3.10549 0
M  V30 610 H 59.1519 1.8891 -2.30472 0
M  V30 611 H 56.6889 0.923373 -1.14509 0
M  V30 612 H 58.6469 4.03479 -1.06116 0
M  V30 613 H 57.2769 3.21711 -0.264973 0
M  V30 614 H 56.3289 2.74103 -2.63764 0
M  V30 615 H 57.6409 3.74283 -3.29717 0
M  V30 616 H 56.7949 5.72135 -2.01857 0
M  V30 617 H 55.5339 4.71286 -1.25462 0
M  V30 618 H 54.5389 4.23268 -3.50891 0
M  V30 619 H 55.7639 5.27546 -4.27635 0
M  V30 620 H 53.7099 6.17306 -2.21967 0
M  V30 621 H 53.6269 6.46014 -3.92686 0
M  V30 622 H 54.8949 7.19722 -2.99367 0
M  V30 623 N 59.124 1.23083 0.984299 0
M  V30 624 C 60.054 1.03292 2.09411 0
M  V30 625 C 61.035 -0.048923 1.7003 0
M  V30 626 O 62.22 0.114967 1.93859 0
M  V30 627 C 59.35 0.619155 3.41736 0
M  V30 628 C 58.304 1.64791 3.95004 0
M  V30 629 C 57.63 1.0897 5.23478 0
M  V30 630 C 58.93 3.03999 4.24714 0
M  V30 631 H 60.624 1.96119 2.26225 0
M  V30 632 H 58.17 0.944344 1.08711 0
M  V30 633 H 60.123 0.467777 4.18796 0
M  V30 634 H 58.847 -0.344786 3.24775 0
M  V30 635 H 57.506 1.78721 3.20085 0
M  V30 636 H 57.154 0.11686 5.02864 0
M  V30 637 H 56.854 1.77704 5.60085 0
M  V30 638 H 58.378 0.950093 6.03163 0
M  V30 639 H 59.792 2.93393 4.92538 0
M  V30 640 H 58.189 3.69936 4.72512 0
M  V30 641 H 59.259 3.53285 3.32142 0
M  V30 642 N 60.6021 -1.18246 1.0419 0
M  V30 643 C 61.8491 -1.88257 0.746017 0
M  V30 644 C 62.1771 -1.80429 -0.726331 0
M  V30 645 O 61.4321 -1.2 -1.54591 0
M  V30 646 C 61.7311 -3.38082 1.15911 0
M  V30 647 C 61.3971 -3.66114 2.63195 0
M  V30 648 C 60.0591 -3.73474 3.03432 0
M  V30 649 C 62.4111 -3.78398 3.5842 0
M  V30 650 C 59.7391 -3.90599 4.37778 0
M  V30 651 C 62.0911 -3.97039 4.92487 0
M  V30 652 C 60.7551 -4.02635 5.32392 0
M  V30 653 H 60.0251 -0.688883 0.272987 0
M  V30 654 H 62.6721 -1.3995 1.30715 0
M  V30 655 H 60.9771 -3.88377 0.516806 0
M  V30 656 H 62.6741 -3.90596 0.907516 0
M  V30 657 H 59.2641 -3.61003 2.3103 0
M  V30 658 H 63.4481 -3.72042 3.28479 0
M  V30 659 H 58.7041 -3.93175 4.68213 0
M  V30 660 H 62.8781 -4.05486 5.66175 0
M  V30 661 H 60.5051 -4.15657 6.36501 0
M  V30 662 N 62.0802 -0.821533 -1.34494 0
M  V30 663 C 63.3052 -0.420873 -2.03085 0
M  V30 664 C 63.7302 0.964915 -1.61465 0
M  V30 665 O 63.0882 1.62763 -0.798607 0
M  V30 666 C 63.1362 -0.529414 -3.56693 0
M  V30 667 O 62.2402 0.451302 -4.09923 0
M  V30 668 H 61.5812 -0.173489 -0.640935 0
M  V30 669 H 64.1112 -1.11157 -1.71771 0
M  V30 670 H 64.1212 -0.404671 -4.05988 0
M  V30 671 H 62.7962 -1.54014 -3.86332 0
M  V30 672 H 61.3732 0.285558 -3.71805 0
M  V30 673 N 63.5583 1.46682 -0.576371 0
M  V30 674 C 64.5083 2.27278 0.181288 0
M  V30 675 C 65.4923 1.35497 0.867721 0
M  V30 676 O 66.6843 1.59717 0.762863 0
M  V30 677 C 63.8133 3.21703 1.19841 0
M  V30 678 C 62.8993 4.20969 0.51442 0
M  V30 679 N 63.2903 5.03999 -0.426407 0
M  V30 680 C 61.5883 4.39373 0.765963 0
M  V30 681 C 62.2893 5.75812 -0.825565 0
M  V30 682 N 61.2653 5.43315 -0.176116 0
M  V30 683 H 65.0673 2.88863 -0.541785 0
M  V30 684 H 62.5813 1.57455 -0.397697 0
M  V30 685 H 64.5783 3.78145 1.75533 0
M  V30 686 H 63.2383 2.61677 1.92238 0
M  V30 687 H 64.2493 5.11659 -0.8016 0
M  V30 688 H 60.9263 3.90502 1.47698 0
M  V30 689 H 62.3163 6.52577 -1.59976 0
M  V30 690 N 65.0364 0.313813 1.54444 0
M  V30 691 C 66.2664 -0.293491 2.04505 0
M  V30 692 C 66.6744 -1.47086 1.19005 0
M  V30 693 O 66.0174 -1.82481 0.211257 0
M  V30 694 C 66.0794 -0.800455 3.50475 0
M  V30 695 C 65.7434 0.253322 4.56297 0
M  V30 696 C 66.7404 1.08612 5.08428 0
M  V30 697 C 64.4254 0.398708 5.00715 0
M  V30 698 C 66.4194 2.05013 6.0353 0
M  V30 699 C 64.1064 1.36614 5.95634 0
M  V30 700 C 65.1044 2.19033 6.46926 0
M  V30 701 O 64.7924 3.14134 7.39983 0
M  V30 702 H 64.5244 -0.0658325 0.672787 0
M  V30 703 H 67.0784 0.455177 2.00293 0
M  V30 704 H 65.3084 -1.59987 3.52053 0
M  V30 705 H 66.9974 -1.32504 3.83663 0
M  V30 706 H 67.7634 0.984736 4.74898 0
M  V30 707 H 63.6424 -0.23289 4.60411 0
M  V30 708 H 67.1864 2.69382 6.4349 0
M  V30 709 H 63.0834 1.4682 6.28581 0
M  V30 710 H 63.8514 3.0926 7.57826 0
M  V30 711 N 66.5145 -1.57545 0.0417849 0
M  V30 712 C 67.4625 -2.12148 -0.953723 0
M  V30 713 C 68.4565 -1.05104 -1.32852 0
M  V30 714 O 69.6625 -1.23524 -1.30927 0
M  V30 715 H 66.0375 -0.677957 -0.325389 0
M  V30 716 H 68.0085 -2.94707 -0.467991 0
M  V30 717 C 66.7575 -2.6739 -2.22257 0
M  V30 718 H 66.0805 -3.49413 -1.94295 0
M  V30 719 H 67.5205 -3.09227 -2.90094 0
M  V30 720 C 65.9795 -1.60723 -2.96091 0
M  V30 721 O 66.5095 -1.01449 -3.88679 0
M  V30 722 N 64.7155 -1.32466 -2.58652 0
M  V30 723 H 64.2625 -1.80856 -1.83437 0
M  V30 724 H 64.2205 -0.61325 -3.08361 0
M  V30 725 N 67.9926 0.231505 -1.5589 0
M  V30 726 C 68.9246 1.31006 -1.8807 0
M  V30 727 C 69.9376 1.43539 -0.768145 0
M  V30 728 O 71.1266 1.44614 -1.04638 0
M  V30 729 C 68.2266 2.68688 -2.06543 0
M  V30 730 C 67.3996 2.78228 -3.37502 0
M  V30 731 C 66.4586 3.96857 -3.4553 0
M  V30 732 O 65.4846 3.85662 -4.18633 0
M  V30 733 N 66.6866 5.1072 -2.75944 0
M  V30 734 H 69.4516 1.03731 -2.81176 0
M  V30 735 H 67.0126 0.421573 -1.56315 0
M  V30 736 H 69.0046 3.46412 -2.09239 0
M  V30 737 H 67.5746 2.88605 -1.20109 0
M  V30 738 H 66.7946 1.87059 -3.46991 0
M  V30 739 H 68.0826 2.81564 -4.23791 0
M  V30 740 H 67.4806 5.2271 -2.16311 0
M  V30 741 H 66.0376 5.86523 -2.84314 0
M  V30 742 N 69.4707 1.49531 0.497807 0
M  V30 743 C 70.7177 1.59179 1.25173 0
M  V30 744 C 71.0457 0.279932 1.92475 0
M  V30 745 O 70.3007 -0.732383 1.81479 0
M  V30 746 C 70.5997 2.70252 2.33878 0
M  V30 747 C 70.2657 4.11644 1.84012 0
M  V30 748 C 68.9277 4.50121 1.70132 0
M  V30 749 C 71.2797 5.00121 1.46725 0
M  V30 750 C 68.6077 5.74845 1.17348 0
M  V30 751 C 70.9597 6.25366 0.95392 0
M  V30 752 C 69.6237 6.6267 0.801538 0
M  V30 753 H 68.8937 0.582478 0.45804 0
M  V30 754 H 71.5407 1.83373 0.551948 0
M  V30 755 H 69.8457 2.40041 3.09657 0
M  V30 756 H 71.5427 2.74925 2.9192 0
M  V30 757 H 68.1327 3.81274 1.95775 0
M  V30 758 H 72.3167 4.71048 1.56294 0
M  V30 759 H 67.5727 6.02444 1.04264 0
M  V30 760 H 71.7467 6.93301 0.656225 0
M  V30 761 H 69.3737 7.59197 0.390351 0
M  V30 762 N 70.9488 -0.749086 1.3866 0
M  V30 763 C 72.1978 -1.50371 1.3443 0
M  V30 764 C 72.5108 -1.95503 -0.0616397 0
M  V30 765 O 73.7168 -2.70554 -0.226489 0
M  V30 766 C 72.1728 -2.71644 2.36088 0
M  V30 767 C 71.7808 -2.3352 3.82325 0
M  V30 768 C 73.5248 -3.49518 2.40909 0
M  V30 769 C 71.4318 -3.51431 4.75658 0
M  V30 770 H 70.3618 -0.564628 0.499712 0
M  V30 771 H 73.0128 -0.818449 1.64237 0
M  V30 772 H 71.3948 -3.42175 1.9933 0
M  V30 773 H 72.5688 -1.70627 4.28046 0
M  V30 774 H 70.8838 -1.6877 3.80665 0
M  V30 775 H 73.4808 -4.37197 3.07836 0
M  V30 776 H 73.8238 -3.90992 1.42937 0
M  V30 777 H 74.3568 -2.86005 2.76489 0
M  V30 778 H 71.0958 -3.15019 5.74842 0
M  V30 779 H 70.6158 -4.13352 4.34627 0
M  V30 780 H 72.2948 -4.17953 4.93887 0
M  V30 781 N 72.4269 -1.23603 -0.977757 0
M  V30 782 C 73.8429 -0.999251 -1.24447 0
M  V30 783 C 74.0429 0.298053 -1.99283 0
M  V30 784 O 73.0989 1.01681 -2.31122 0
M  V30 785 C 74.4119 -2.20784 -2.04144 0
M  V30 786 C 75.9599 -2.25303 -2.17273 0
M  V30 787 C 76.4349 -3.45755 -3.00362 0
M  V30 788 N 77.9259 -3.4601 -3.07947 0
M  V30 789 C 78.6609 -4.35868 -3.72568 0
M  V30 790 N 78.1569 -5.35966 -4.38991 0
M  V30 791 N 79.9499 -4.23605 -3.6948 0
M  V30 792 H 72.1009 -2.06986 -0.476483 0
M  V30 793 H 74.3639 -0.907801 -0.273134 0
M  V30 794 H 74.0699 -3.14945 -1.56533 0
M  V30 795 H 73.9439 -2.22085 -3.04891 0
M  V30 796 H 76.3309 -1.3168 -2.64092 0
M  V30 797 H 76.4119 -2.28033 -1.15907 0
M  V30 798 H 76.0559 -4.39687 -2.5424 0
M  V30 799 H 75.9859 -3.40266 -4.01904 0
M  V30 800 H 78.4769 -2.73588 -2.60688 0
M  V30 801 H 78.7899 -6.00783 -4.86086 0
M  V30 802 H 77.1349 -5.39863 -4.37691 0
M  V30 803 H 80.3259 -3.44647 -3.16759 0
M  V30 804 H 80.4989 -4.93836 -4.1956 0
M  V30 805 N 73.905 1.17692 -1.04816 0
M  V30 806 C 75.316 1.69501 -0.782698 0
M  V30 807 C 75.667 1.83456 0.695577 0
M  V30 808 O 74.792 1.51942 1.54086 0
M  V30 809 C 75.387 3.07874 -1.41419 0
M  V30 810 C 73.946 3.56864 -1.19686 0
M  V30 811 C 73.093 2.3322 -1.50012 0
M  V30 812 H 76.044 1.02262 -1.2136 0
M  V30 813 H 76.065 3.71528 -0.821428 0
M  V30 814 H 75.577 2.97685 -2.49009 0
M  V30 815 H 73.678 3.72337 -0.140043 0
M  V30 816 H 73.791 4.39851 -1.89916 0
M  V30 817 H 72.155 2.37501 -0.920071 0
M  V30 818 H 72.938 2.25644 -2.58727 0
M  V30 819 N 75.3831 0.828654 1.34056 0
M  V30 820 C 76.6291 0.42008 1.98402 0
M  V30 821 C 76.9621 -1.01564 1.65525 0
M  V30 822 O 76.2371 -1.70834 0.929831 0
M  V30 823 C 76.5201 0.62927 3.54559 0
M  V30 824 C 76.3731 2.11152 3.97159 0
M  V30 825 C 77.6921 0.0688756 4.40046 0
M  V30 826 H 74.8111 0.154104 0.720709 0
M  V30 827 H 77.4531 1.04228 1.5886 0
M  V30 828 H 75.6031 0.0996418 3.88372 0
M  V30 829 H 77.2751 2.70522 3.73651 0
M  V30 830 H 75.5181 2.59985 3.47261 0
M  V30 831 H 76.1891 2.20868 5.05887 0
M  V30 832 H 78.6651 0.521458 4.1282 0
M  V30 833 H 77.5411 0.245006 5.48353 0
M  V30 834 H 77.8021 -1.0266 4.30015 0
M  V30 835 N 76.8612 -1.46375 0.584142 0
M  V30 836 C 77.7712 -2.34115 -0.150728 0
M  V30 837 C 78.7872 -1.49838 -0.884567 0
M  V30 838 O 79.9632 -1.82704 -0.847429 0
M  V30 839 C 77.0282 -3.2705 -1.15062 0
M  V30 840 C 76.0892 -4.27228 -0.421293 0
M  V30 841 C 75.3222 -5.15722 -1.37355 0
M  V30 842 O 75.5452 -5.07176 -2.61014 0
M  V30 843 O 74.4792 -5.95383 -0.883355 0
M  V30 844 H 78.3052 -2.98309 0.569708 0
M  V30 845 H 75.8902 -1.45373 0.344535 0
M  V30 846 H 77.7722 -3.84381 -1.72712 0
M  V30 847 H 76.4472 -2.65451 -1.8525 0
M  V30 848 H 75.3542 -3.7358 0.197085 0
M  V30 849 H 76.6872 -4.91616 0.239641 0
M  V30 850 N 78.3393 -0.321999 -1.54275 0
M  V30 851 C 79.2873 0.560206 -2.25753 0
M  V30 852 C 80.2813 1.11984 -1.27106 0
M  V30 853 O 81.4873 1.06806 -1.44888 0
M  V30 854 H 77.8623 0.199304 -0.725108 0
M  V30 855 H 79.8333 -0.0649365 -2.98329 0
M  V30 856 C 78.5823 1.71023 -3.02731 0
M  V30 857 H 77.9053 1.28885 -3.78456 0
M  V30 858 H 79.3453 2.30314 -3.55993 0
M  V30 859 C 77.8043 2.62692 -2.10938 0
M  V30 860 O 78.3343 3.64364 -1.6912 0
M  V30 861 N 76.5403 2.30891 -1.76459 0
M  V30 862 H 76.0873 1.48253 -2.10663 0
M  V30 863 H 76.0453 2.92487 -1.1532 0
M  V30 864 N 79.8174 1.5752 -0.0501392 0
M  V30 865 C 81.0634 1.92936 0.624798 0
M  V30 866 C 81.3964 0.928685 1.70555 0
M  V30 867 O 80.6714 -0.0454779 1.94447 0
M  V30 868 C 80.9544 3.38737 1.22185 0
M  V30 869 C 80.8074 4.49552 0.149218 0
M  V30 870 C 82.1264 3.84913 2.13378 0
M  V30 871 H 79.2454 0.701604 0.225657 0
M  V30 872 H 81.8874 1.89671 -0.111693 0
M  V30 873 H 80.0374 3.4165 1.84953 0
M  V30 874 H 81.7094 4.58768 -0.482648 0
M  V30 875 H 79.9524 4.30638 -0.522841 0
M  V30 876 H 80.6234 5.48653 0.606966 0
M  V30 877 H 83.0994 3.8387 1.60572 0
M  V30 878 H 81.9754 4.87584 2.52097 0
M  V30 879 H 82.2364 3.21611 3.03346 0
M  V30 880 N 81.2955 -0.223234 1.56011 0
M  V30 881 C 82.5205 -0.968978 1.83373 0
M  V30 882 C 82.9455 -1.77227 0.630254 0
M  V30 883 O 82.3035 -1.76345 -0.420959 0
M  V30 884 C 82.3515 -1.86363 3.08709 0
M  V30 885 O 81.4555 -2.95873 2.87285 0
M  V30 886 H 80.7965 -0.274461 0.604622 0
M  V30 887 H 83.3265 -0.237056 2.03222 0
M  V30 888 H 83.3365 -2.27376 3.38768 0
M  V30 889 H 82.0115 -1.27319 3.95933 0
M  V30 890 H 80.5885 -2.58818 2.68454 0
M  V30 891 N 82.7736 -1.49793 -0.48987 0
M  V30 892 C 84.0506 -1.50348 -1.25119 0
M  V30 893 C 84.4306 -0.237466 -2.0976 0
M  V30 894 O 83.7786 0.77981 -2.14782 0
M  V30 895 C 83.9886 -2.78872 -2.09837 0
M  V30 896 C 85.3366 -3.288 -2.68655 0
M  V30 897 O 86.3606 -2.80065 -2.20096 0
M  V30 898 O 85.2196 -4.13707 -3.57083 0
M  V30 899 H 82.3136 -0.602242 -0.566775 0
M  V30 900 H 84.8596 -1.62067 -0.503229 0
M  V30 901 H 83.6316 -3.62499 -1.47343 0
M  V30 902 H 83.2546 -2.70066 -2.91805 0
M  V30 903 N 84.2517 0.741722 -1.39055 0
M  V30 904 C 85.6627 1.31966 -1.32068 0
M  V30 905 C 86.0137 1.96192 0.0180797 0
M  V30 906 O 85.1387 1.95861 0.920196 0
M  V30 907 C 85.7337 2.39954 -2.39181 0
M  V30 908 C 84.2927 2.93438 -2.35735 0
M  V30 909 C 83.4397 1.66936 -2.21422 0
M  V30 910 H 86.3907 0.539721 -1.4924 0
M  V30 911 H 86.4117 3.20182 -2.05581 0
M  V30 912 H 85.9237 1.9318 -3.36605 0
M  V30 913 H 84.0247 3.4451 -1.41929 0
M  V30 914 H 84.1377 3.4701 -3.30335 0
M  V30 915 H 82.5017 1.91016 -1.68478 0
M  V30 916 H 83.2847 1.22224 -3.20806 0
M  V30 917 N 85.7298 1.2412 0.971189 0
M  V30 918 C 86.9758 1.08041 1.71625 0
M  V30 919 C 87.3088 -0.380407 1.90438 0
M  V30 920 O 86.5838 -1.28127 1.46334 0
M  V30 921 C 86.8668 1.81682 3.10908 0
M  V30 922 C 86.7198 3.35493 2.99608 0
M  V30 923 C 88.0388 1.58671 4.10501 0
M  V30 924 H 85.1578 0.39388 0.622919 0
M  V30 925 H 87.7998 1.52743 1.13003 0
M  V30 926 H 85.9498 1.43684 3.60953 0
M  V30 927 H 87.6218 3.83068 2.57015 0
M  V30 928 H 85.8648 3.64052 2.35899 0
M  V30 929 H 86.5358 3.82217 3.98264 0
M  V30 930 H 89.0118 1.91719 3.69301 0
M  V30 931 H 87.8878 2.1266 5.06031 0
M  V30 932 H 88.1488 0.524161 4.38982 0
M  V30 933 N 87.2079 -1.17134 1.05439 0
M  V30 934 C 88.4359 -1.91372 0.786414 0
M  V30 935 C 88.8509 -1.76955 -0.658202 0
M  V30 936 O 88.2079 -1.10838 -1.44987 0
M  V30 937 C 88.2589 -3.42356 1.1608 0
M  V30 938 O 87.9799 -3.56332 2.54871 0
M  V30 939 C 89.4809 -4.33663 0.919322 0
M  V30 940 H 86.7009 -0.607118 0.285743 0
M  V30 941 H 89.2449 -1.48525 1.40572 0
M  V30 942 H 87.3999 -3.82939 0.586191 0
M  V30 943 H 87.8139 -4.49896 2.69618 0
M  V30 944 H 89.2879 -5.38099 1.231 0
M  V30 945 H 89.7649 -4.38959 -0.145359 0
M  V30 946 H 90.3709 -3.98796 1.47789 0
M  V30 947 N 88.686 -0.835752 -1.33615 0
M  V30 948 C 89.932 -0.430596 -1.98176 0
M  V30 949 C 90.265 1.00684 -1.66061 0
M  V30 950 O 89.54 1.70339 -0.938877 0
M  V30 951 C 89.823 -0.648065 -3.5422 0
M  V30 952 C 89.676 -2.13255 -3.96033 0
M  V30 953 C 90.995 -0.0922113 -4.40003 0
M  V30 954 H 88.114 -0.157924 -0.719881 0
M  V30 955 H 90.756 -1.05069 -1.58305 0
M  V30 956 H 88.906 -0.120237 -3.88314 0
M  V30 957 H 90.578 -2.725 -3.72211 0
M  V30 958 H 88.821 -2.61823 -3.45878 0
M  V30 959 H 89.492 -2.23547 -5.04708 0
M  V30 960 H 91.968 -0.543343 -4.12537 0
M  V30 961 H 90.844 -0.274083 -5.48215 0
M  V30 962 H 91.105 1.00378 -4.30554 0
M  V30 963 N 90.1641 1.46063 -0.591896 0
M  V30 964 C 91.1141 2.27458 0.157172 0
M  V30 965 C 92.0981 1.3641 0.853301 0
M  V30 966 O 93.2901 1.60517 0.74588 0
M  V30 967 C 90.4191 3.22956 1.16423 0
M  V30 968 C 89.5051 4.2149 0.469742 0
M  V30 969 N 89.8961 5.03519 -0.479839 0
M  V30 970 C 88.1941 4.40161 0.719319 0
M  V30 971 C 88.8951 5.74904 -0.886591 0
M  V30 972 N 87.8711 5.43097 -0.233731 0
M  V30 973 H 91.6731 2.88272 -0.572392 0
M  V30 974 H 89.1871 1.57024 -0.414375 0
M  V30 975 H 91.1841 3.79986 1.71513 0
M  V30 976 H 89.8441 2.63701 1.89451 0
M  V30 977 H 90.8551 5.1078 -0.855823 0
M  V30 978 H 87.5321 3.92046 1.43548 0
M  V30 979 H 88.9221 6.50844 -1.66888 0
M  V30 980 N 91.6422 0.330177 1.54103 0
M  V30 981 C 92.8892 -0.270405 2.00686 0
M  V30 982 C 93.2172 -1.51621 1.21825 0
M  V30 983 O 92.4722 -1.93536 0.29025 0
M  V30 984 C 92.7712 -0.643134 3.51566 0
M  V30 985 C 92.4372 0.504251 4.48072 0
M  V30 986 C 91.0992 0.819163 4.74176 0
M  V30 987 C 93.4512 1.27465 5.05373 0
M  V30 988 C 90.7792 1.90708 5.5484 0
M  V30 989 C 93.1312 2.35271 5.87223 0
M  V30 990 C 91.7952 2.67336 6.11627 0
M  V30 991 H 91.0652 -0.0989482 0.734364 0
M  V30 992 H 93.7122 0.455324 1.86008 0
M  V30 993 H 92.0172 -1.44938 3.64006 0
M  V30 994 H 93.7142 -1.11949 3.85056 0
M  V30 995 H 90.3042 0.248733 4.27878 0
M  V30 996 H 94.4882 1.04462 4.85182 0
M  V30 997 H 89.7442 2.15991 5.71977 0
M  V30 998 H 93.9182 2.95405 6.30641 0
M  V30 999 H 91.5452 3.51763 6.73919 0
M  V30 1000 N 93.1203 -1.57491 0.0584922 0
M  V30 1001 C 94.0303 -2.15448 -0.928414 0
M  V30 1002 C 95.0463 -1.11416 -1.3365 0
M  V30 1003 O 96.2223 -1.4362 -1.41193 0
M  V30 1004 C 93.2873 -2.69393 -2.18239 0
M  V30 1005 C 92.3483 -3.88249 -1.83196 0
M  V30 1006 C 91.5813 -4.39613 -3.02616 0
M  V30 1007 O 91.8043 -3.90023 -4.16219 0
M  V30 1008 O 90.7383 -5.31111 -2.83204 0
M  V30 1009 H 94.5643 -3.00112 -0.465483 0
M  V30 1010 H 92.1493 -1.48499 -0.163826 0
M  V30 1011 H 94.0313 -3.04026 -2.91798 0
M  V30 1012 H 92.7063 -1.87796 -2.63656 0
M  V30 1013 H 91.6133 -3.58492 -1.06931 0
M  V30 1014 H 92.9463 -4.71098 -1.42573 0
M  V30 1015 N 94.5984 0.214957 -1.56127 0
M  V30 1016 C 95.8444 0.939762 -1.79712 0
M  V30 1017 C 96.1774 1.83723 -0.629247 0
M  V30 1018 O 95.4524 1.90925 0.371197 0
M  V30 1019 C 95.7354 1.77306 -3.13424 0
M  V30 1020 C 95.5884 0.90164 -4.40671 0
M  V30 1021 C 96.9074 2.74956 -3.43638 0
M  V30 1022 H 94.0264 0.340214 -0.653776 0
M  V30 1023 H 96.6684 0.20824 -1.88855 0
M  V30 1024 H 94.8184 2.39673 -3.0576 0
M  V30 1025 H 96.4904 0.294206 -4.60361 0
M  V30 1026 H 94.7334 0.207368 -4.33304 0
M  V30 1027 H 95.4044 1.51923 -5.30682 0
M  V30 1028 H 97.8804 2.22724 -3.51473 0
M  V30 1029 H 96.7564 3.30358 -4.38355 0
M  V30 1030 H 97.0174 3.53023 -2.66134 0
M  V30 1031 N 96.0765 1.50051 0.48192 0
M  V30 1032 C 97.0395 1.67584 1.5636 0
M  V30 1033 C 98.0395 0.546894 1.51214 0
M  V30 1034 O 99.2295 0.813725 1.54026 0
M  V30 1035 C 96.3615 1.691 2.96003 0
M  V30 1036 H 97.5545 2.64078 1.42136 0
M  V30 1037 H 95.1075 1.39369 0.707533 0
M  V30 1038 H 95.8425 0.742589 3.15684 0
M  V30 1039 H 95.6275 2.51105 3.01146 0
M  V30 1040 H 97.1175 1.84656 3.74556 0
M  V30 1041 N 97.5546 -0.734337 1.39446 0
M  V30 1042 C 98.8036 -1.48937 1.36017 0
M  V30 1043 C 99.1166 -1.95557 -0.0409005 0
M  V30 1044 O 100.323 -2.70779 -0.19778 0
M  V30 1045 C 98.7786 -2.69125 2.38955 0
M  V30 1046 C 98.3866 -2.29452 3.8478 0
M  V30 1047 C 100.131 -3.46944 2.44603 0
M  V30 1048 C 98.0376 -3.46366 4.79358 0
M  V30 1049 H 96.9676 -0.559296 0.505672 0
M  V30 1050 H 99.6186 -0.800983 1.65095 0
M  V30 1051 H 98.0006 -3.40041 2.02948 0
M  V30 1052 H 99.1746 -1.66077 4.29831 0
M  V30 1053 H 97.4896 -1.64723 3.82433 0
M  V30 1054 H 100.087 -4.33907 3.12456 0
M  V30 1055 H 100.43 -3.89454 1.47076 0
M  V30 1056 H 100.963 -2.83056 2.79507 0
M  V30 1057 H 97.7016 -3.08905 5.78151 0
M  V30 1058 H 97.2216 -4.08719 4.38986 0
M  V30 1059 H 98.9006 -4.12691 4.98292 0
M  V30 1060 N 99.0327 -1.24633 -0.964593 0
M  V30 1061 C 100.261 -1.11501 -1.74285 0
M  V30 1062 C 100.676 0.332165 -1.85855 0
M  V30 1063 O 100.033 1.22903 -1.34911 0
M  V30 1064 C 100.084 -1.75258 -3.16175 0
M  V30 1065 O 99.8047 -3.14318 -3.05182 0
M  V30 1066 C 101.306 -1.67776 -4.10324 0
M  V30 1067 H 98.5257 -0.389407 -0.546446 0
M  V30 1068 H 101.07 -1.64801 -1.21083 0
M  V30 1069 H 99.2247 -1.25954 -3.66353 0
M  V30 1070 H 99.6387 -3.4551 -3.94618 0
M  V30 1071 H 101.113 -2.17064 -5.0753 0
M  V30 1072 H 101.59 -0.639584 -4.34518 0
M  V30 1073 H 102.196 -2.16522 -3.66058 0
M  V30 1074 N 100.511 1.16574 -1.06058 0
M  V30 1075 C 101.443 2.2045 -0.627239 0
M  V30 1076 C 102.456 1.59752 0.313534 0
M  V30 1077 O 103.645 1.78192 0.104896 0
M  V30 1078 C 100.745 3.3875 0.100974 0
M  V30 1079 C 99.9178 4.29008 -0.852687 0
M  V30 1080 C 98.9768 5.25944 -0.164152 0
M  V30 1081 O 98.0028 5.63535 -0.801047 0
M  V30 1082 N 99.2048 5.70075 1.09518 0
M  V30 1083 H 101.97 2.58249 -1.52077 0
M  V30 1084 H 99.5308 1.3156 -0.943594 0
M  V30 1085 H 101.523 4.00638 0.57194 0
M  V30 1086 H 100.093 2.99476 0.89628 0
M  V30 1087 H 99.3128 3.64419 -1.50308 0
M  V30 1088 H 100.601 4.86195 -1.49972 0
M  V30 1089 H 99.9988 5.41624 1.6328 0
M  V30 1090 H 98.5558 6.34067 1.51006 0
M  V30 1091 N 101.989 0.842826 1.3317 0
M  V30 1092 C 102.919 0.294028 2.31641 0
M  V30 1093 C 103.9 -0.600401 1.59151 0
M  V30 1094 O 105.085 -0.523124 1.87022 0
M  V30 1095 C 102.215 -0.528416 3.43257 0
M  V30 1096 C 101.169 0.27056 4.27144 0
M  V30 1097 C 100.495 -0.675881 5.30411 0
M  V30 1098 C 101.795 1.48981 5.00602 0
M  V30 1099 H 103.489 1.11681 2.77791 0
M  V30 1100 H 101.035 0.538478 1.33553 0
M  V30 1101 H 102.988 -0.922674 4.11175 0
M  V30 1102 H 101.712 -1.38445 2.95805 0
M  V30 1103 H 100.371 0.646427 3.60856 0
M  V30 1104 H 100.019 -1.52842 4.79216 0
M  V30 1105 H 99.7189 -0.145374 5.8742 0
M  V30 1106 H 101.243 -1.06757 6.01195 0
M  V30 1107 H 102.657 1.16849 5.61266 0
M  V30 1108 H 101.054 1.95739 5.6728 0
M  V30 1109 H 102.124 2.25746 4.29147 0
M  V30 1110 N 103.467 -1.45747 0.599634 0
M  V30 1111 C 104.43 -2.28917 -0.113835 0
M  V30 1112 C 105.43 -1.3933 -0.802729 0
M  V30 1113 O 106.62 -1.61534 -0.652103 0
M  V30 1114 C 103.752 -3.20152 -1.17114 0
M  V30 1115 H 104.945 -2.93478 0.617289 0
M  V30 1116 H 102.498 -1.52137 0.358327 0
M  V30 1117 H 103.233 -2.60374 -1.93329 0
M  V30 1118 H 103.018 -3.86133 -0.681468 0
M  V30 1119 H 104.508 -3.82708 -1.67105 0
M  V30 1120 N 104.945 -0.338344 -1.53925 0
M  V30 1121 C 105.893 0.536231 -2.26335 0
M  V30 1122 C 106.887 1.1063 -1.28286 0
M  V30 1123 O 108.093 1.05264 -1.46012 0
M  V30 1124 H 104.468 0.191602 -0.727181 0
M  V30 1125 H 106.439 -0.0965747 -2.98244 0
M  V30 1126 C 105.188 1.67803 -3.04528 0
M  V30 1127 H 104.511 1.24864 -3.79801 0
M  V30 1128 H 105.951 2.26526 -3.58416 0
M  V30 1129 C 104.41 2.60439 -2.13712 0
M  V30 1130 O 104.94 3.6255 -1.72975 0
M  V30 1131 N 103.146 2.29006 -1.78898 0
M  V30 1132 H 102.693 1.46011 -2.12223 0
M  V30 1133 H 102.651 2.91248 -1.18416 0
M  V30 1134 N 106.423 1.57458 -0.0668435 0
M  V30 1135 C 107.669 1.93587 0.6043 0
M  V30 1136 C 108.002 0.946722 1.69561 0
M  V30 1137 O 107.277 -0.0248516 1.94484 0
M  V30 1138 C 107.56 3.40014 1.18585 0
M  V30 1139 C 107.413 4.49685 0.101529 0
M  V30 1140 C 108.732 3.87154 2.09284 0
M  V30 1141 H 105.851 0.703958 0.218202 0
M  V30 1142 H 108.493 1.89542 -0.131804 0
M  V30 1143 H 106.643 3.43592 1.81319 0
M  V30 1144 H 108.315 4.5823 -0.531279 0
M  V30 1145 H 106.558 4.30059 -0.568487 0
M  V30 1146 H 107.229 5.49266 0.54874 0
M  V30 1147 H 109.705 3.85551 1.56491 0
M  V30 1148 H 108.581 4.90231 2.46911 0
M  V30 1149 H 108.842 3.2481 2.99918 0
M  V30 1150 N 107.901 -0.206675 1.56239 0
M  V30 1151 C 109.178 -0.954051 1.70755 0
M  V30 1152 C 109.558 -2.01841 0.618353 0
M  V30 1153 O 108.906 -2.25444 -0.372434 0
M  V30 1154 C 109.116 -1.551 3.12642 0
M  V30 1155 C 110.464 -2.03757 3.72516 0
M  V30 1156 O 111.488 -1.64965 3.15698 0
M  V30 1157 O 110.347 -2.75103 4.72208 0
M  V30 1158 H 107.441 -0.446636 0.696021 0
M  V30 1159 H 109.987 -0.197283 1.68549 0
M  V30 1160 H 108.759 -0.783212 3.83382 0
M  V30 1161 H 108.382 -2.37291 3.19028 0
M  V30 1162 N 109.379 -1.50304 -0.473955 0
M  V30 1163 C 110.289 -1.7174 -1.5982 0
M  V30 1164 C 111.305 -0.600457 -1.63311 0
M  V30 1165 O 112.481 -0.878441 -1.81233 0
M  V30 1166 C 109.546 -1.80427 -2.96052 0
M  V30 1167 C 108.607 -3.04148 -3.02972 0
M  V30 1168 C 107.84 -3.12411 -4.32706 0
M  V30 1169 O 108.063 -2.27542 -5.23049 0
M  V30 1170 O 106.997 -4.05113 -4.45159 0
M  V30 1171 H 110.823 -2.67035 -1.44657 0
M  V30 1172 H 108.408 -1.34366 -0.653148 0
M  V30 1173 H 110.29 -1.88338 -3.7697 0
M  V30 1174 H 108.965 -0.883156 -3.11419 0
M  V30 1175 H 107.872 -3.0174 -2.21142 0
M  V30 1176 H 109.205 -3.95829 -2.92541 0
M  V30 1177 N 110.857 0.726932 -1.39834 0
M  V30 1178 C 112.103 1.48884 -1.377 0
M  V30 1179 C 112.436 1.94185 0.0244852 0
M  V30 1180 O 111.711 1.67361 0.990986 0
M  V30 1181 C 111.994 2.72288 -2.3565 0
M  V30 1182 C 111.847 2.32956 -3.84775 0
M  V30 1183 C 113.166 3.74414 -2.31306 0
M  V30 1184 H 110.285 0.540062 -0.5015 0
M  V30 1185 H 112.927 0.830547 -1.70886 0
M  V30 1186 H 111.077 3.28457 -2.07481 0
M  V30 1187 H 112.749 1.82356 -4.23726 0
M  V30 1188 H 110.992 1.65088 -4.01159 0
M  V30 1189 H 111.663 3.21362 -4.4881 0
M  V30 1190 H 114.139 3.27849 -2.56231 0
M  V30 1191 H 113.015 4.58414 -3.01907 0
M  V30 1192 H 113.276 4.21909 -1.32081 0
M  V30 1193 N 112.336 1.25143 0.95797 0
M  V30 1194 C 113.284 1.05019 2.07542 0
M  V30 1195 C 114.278 -0.0178751 1.69391 0
M  V30 1196 O 115.484 0.137472 1.79474 0
M  V30 1197 H 111.859 0.32265 0.679265 0
M  V30 1198 H 113.83 1.99759 2.21673 0
M  V30 1199 C 112.579 0.682074 3.40944 0
M  V30 1200 H 111.902 1.49573 3.70767 0
M  V30 1201 H 113.342 0.580945 4.20001 0
M  V30 1202 C 111.801 -0.611608 3.31302 0
M  V30 1203 O 112.331 -1.65465 3.66038 0
M  V30 1204 N 110.537 -0.595982 2.84423 0
M  V30 1205 H 110.084 0.253192 2.56353 0
M  V30 1206 H 110.042 -1.46173 2.78354 0
M  V30 1207 N 113.814 -1.1601 1.06675 0
M  V30 1208 C 114.746 -2.20115 0.638921 0
M  V30 1209 C 115.759 -1.59916 -0.305057 0
M  V30 1210 O 116.948 -1.78245 -0.0954446 0
M  V30 1211 C 114.048 -3.38798 -0.0830083 0
M  V30 1212 C 113.221 -4.2855 0.875426 0
M  V30 1213 C 112.28 -5.25849 0.192042 0
M  V30 1214 O 111.306 -5.63102 0.830921 0
M  V30 1215 N 112.508 -5.70648 -1.06493 0
M  V30 1216 H 115.273 -2.57439 1.53444 0
M  V30 1217 H 112.834 -1.31057 0.950557 0
M  V30 1218 H 114.826 -4.00936 -0.550685 0
M  V30 1219 H 113.396 -2.99947 -0.880386 0
M  V30 1220 H 112.616 -3.63617 1.52238 0
M  V30 1221 H 113.904 -4.85393 1.52548 0
M  V30 1222 H 113.302 -5.42482 -1.60405 0
M  V30 1223 H 111.859 -6.34859 -1.47641 0
M  V30 1224 N 115.292 -0.849877 -1.32721 0
M  V30 1225 C 116.541 -0.447175 -1.96681 0
M  V30 1226 C 116.854 1.00135 -1.68025 0
M  V30 1227 O 118.06 1.50926 -2.25685 0
M  V30 1228 C 116.516 -0.7487 -3.52026 0
M  V30 1229 C 116.124 -2.21264 -3.89546 0
M  V30 1230 C 117.868 -0.413487 -4.22481 0
M  V30 1231 C 115.775 -2.45763 -5.37917 0
M  V30 1232 H 114.705 -0.163486 -0.736063 0
M  V30 1233 H 117.356 -1.03999 -1.51183 0
M  V30 1234 H 115.738 -0.0853727 -3.95908 0
M  V30 1235 H 116.912 -2.91736 -3.56689 0
M  V30 1236 H 115.227 -2.5119 -3.32103 0
M  V30 1237 H 117.824 -0.574017 -5.3161 0
M  V30 1238 H 118.167 0.644492 -4.11281 0
M  V30 1239 H 118.7 -1.03251 -3.84167 0
M  V30 1240 H 115.439 -3.50168 -5.54132 0
M  V30 1241 H 114.959 -1.79864 -5.72197 0
M  V30 1242 H 116.638 -2.29471 -6.0494 0
M  V30 1243 N 116.77 1.45427 -0.607355 0
M  V30 1244 C 117.703 2.27635 0.160482 0
M  V30 1245 C 118.681 1.37122 0.873857 0
M  V30 1246 O 119.865 1.66551 0.882775 0
M  V30 1247 C 116.992 3.15486 1.23231 0
M  V30 1248 C 116.038 4.21939 0.622097 0
M  V30 1249 S 116.871 5.32459 -0.569852 0
M  V30 1250 C 118.027 6.23879 0.502577 0
M  V30 1251 H 118.26 2.9241 -0.536983 0
M  V30 1252 H 115.793 1.49265 -0.394868 0
M  V30 1253 H 117.751 3.66659 1.84585 0
M  V30 1254 H 116.412 2.49977 1.90185 0
M  V30 1255 H 115.605 4.8333 1.42856 0
M  V30 1256 H 115.207 3.73906 0.0837063 0
M  V30 1257 H 117.499 6.63261 1.38171 0
M  V30 1258 H 118.442 7.0806 -0.0751759 0
M  V30 1259 H 118.85 5.58545 0.8178 0
M  V30 1260 N 118.248 0.346503 1.53744 0
M  V30 1261 C 119.158 -0.517293 2.28826 0
M  V30 1262 C 120.174 -1.10935 1.3405 0
M  V30 1263 O 121.35 -1.1244 1.6709 0
M  V30 1264 C 118.415 -1.65098 3.04866 0
M  V30 1265 C 117.476 -1.0884 4.15274 0
M  V30 1266 C 116.709 -2.16806 4.87679 0
M  V30 1267 O 116.932 -3.3758 4.59778 0
M  V30 1268 O 115.866 -1.80934 5.74061 0
M  V30 1269 H 119.692 0.0931396 3.03557 0
M  V30 1270 H 117.277 0.111458 1.48984 0
M  V30 1271 H 119.159 -2.31053 3.5241 0
M  V30 1272 H 117.834 -2.24717 2.32989 0
M  V30 1273 H 116.741 -0.3933 3.72027 0
M  V30 1274 H 118.074 -0.537036 4.89261 0
M  V30 1275 N 119.726 -1.57421 0.075193 0
M  V30 1276 C 120.954 -1.97946 -0.602076 0
M  V30 1277 C 121.369 -0.953674 -1.62943 0
M  V30 1278 O 120.726 0.0592551 -1.82404 0
M  V30 1279 C 120.777 -3.38546 -1.26762 0
M  V30 1280 O 120.498 -4.37195 -0.281376 0
M  V30 1281 C 121.999 -3.93966 -2.03239 0
M  V30 1282 H 119.219 -0.650918 -0.162931 0
M  V30 1283 H 121.763 -2.03959 0.148601 0
M  V30 1284 H 119.918 -3.33609 -1.96936 0
M  V30 1285 H 120.332 -5.18975 -0.759267 0
M  V30 1286 H 121.806 -4.94555 -2.45193 0
M  V30 1287 H 122.283 -3.30693 -2.8903 0
M  V30 1288 H 122.889 -4.02315 -1.37924 0
M  V30 1289 N 121.204 0.198386 -1.56346 0
M  V30 1290 C 122.152 1.26538 -1.95169 0
M  V30 1291 C 123.146 1.47295 -0.836685 0
M  V30 1292 O 124.352 1.48195 -1.02167 0
M  V30 1293 H 120.727 0.424744 -0.620561 0
M  V30 1294 H 122.698 0.910904 -2.84157 0
M  V30 1295 C 121.447 2.6035 -2.30463 0
M  V30 1296 H 120.77 2.45192 -3.15786 0
M  V30 1297 H 122.21 3.33762 -2.61494 0
M  V30 1298 C 120.669 3.17096 -1.13806 0
M  V30 1299 O 121.199 3.99588 -0.41135 0
M  V30 1300 N 119.405 2.75795 -0.915736 0
M  V30 1301 H 118.952 2.08816 -1.50843 0
M  V30 1302 H 118.91 3.14101 -0.136979 0
M  V30 1303 N 122.682 1.50554 0.465978 0
M  V30 1304 C 123.612 1.72722 1.57128 0
M  V30 1305 C 124.593 0.576294 1.6004 0
M  V30 1306 O 125.778 0.81598 1.76225 0
M  V30 1307 C 122.908 1.82605 2.95419 0
M  V30 1308 C 121.862 2.97835 3.07373 0
M  V30 1309 C 121.188 2.92867 4.47363 0
M  V30 1310 C 122.488 4.38265 2.84114 0
M  V30 1311 H 124.182 2.65267 1.38829 0
M  V30 1312 H 121.728 1.2765 0.666441 0
M  V30 1313 H 123.681 1.96698 3.72677 0
M  V30 1314 H 122.405 0.866858 3.14886 0
M  V30 1315 H 121.064 2.83401 2.3255 0
M  V30 1316 H 120.712 1.94783 4.63755 0
M  V30 1317 H 120.412 3.70227 4.56296 0
M  V30 1318 H 121.936 3.09015 5.26633 0
M  V30 1319 H 123.35 4.53198 3.51118 0
M  V30 1320 H 121.747 5.17115 3.04487 0
M  V30 1321 H 122.817 4.50281 1.7993 0
M  V30 1322 N 124.16 -0.719506 1.40217 0
M  V30 1323 C 125.406 -1.48034 1.39491 0
M  V30 1324 C 125.761 -1.92399 -0.00443536 0
M  V30 1325 O 125.054 -1.64993 -0.974061 0
M  V30 1326 C 125.248 -2.72271 2.31524 0
M  V30 1327 C 125.077 -2.40055 3.80268 0
M  V30 1328 C 123.847 -2.31588 4.49105 0
M  V30 1329 C 126.045 -2.04581 4.71859 0
M  V30 1330 N 124.027 -1.92006 5.83101 0
M  V30 1331 C 125.398 -1.75568 5.94623 0
M  V30 1332 C 127.453 -1.91183 4.59732 0
M  V30 1333 C 126.156 -1.34505 7.06612 0
M  V30 1334 C 128.182 -1.51524 5.71659 0
M  V30 1335 C 127.544 -1.23406 6.93506 0
M  V30 1336 H 123.643 -0.539927 0.565688 0
M  V30 1337 H 126.227 -0.834764 1.75897 0
M  V30 1338 H 124.398 -3.34584 1.97251 0
M  V30 1339 H 126.13 -3.38584 2.21682 0
M  V30 1340 H 122.885 -2.49199 4.02737 0
M  V30 1341 H 123.309 -1.74764 6.54054 0
M  V30 1342 H 127.951 -2.11584 3.66049 0
M  V30 1343 H 125.669 -1.12846 8.00182 0
M  V30 1344 H 129.255 -1.41741 5.6427 0
M  V30 1345 H 128.135 -0.931788 7.78645 0
M  V30 1346 N 125.638 -1.25649 -0.95132 0
M  V30 1347 C 126.568 -1.08808 -2.06599 0
M  V30 1348 C 127.549 0.00382547 -1.701 0
M  V30 1349 O 128.734 -0.166325 -1.93486 0
M  V30 1350 C 125.864 -0.709542 -3.39975 0
M  V30 1351 C 124.818 -1.75206 -3.90496 0
M  V30 1352 C 124.144 -1.22811 -5.20405 0
M  V30 1353 C 125.444 -3.15153 -4.16504 0
M  V30 1354 H 127.138 -2.02048 -2.20946 0
M  V30 1355 H 124.684 -0.972835 -1.06169 0
M  V30 1356 H 126.637 -0.578649 -4.17408 0
M  V30 1357 H 125.361 0.258556 -3.25575 0
M  V30 1358 H 124.02 -1.87145 -3.15234 0
M  V30 1359 H 123.668 -0.250145 -5.02378 0
M  V30 1360 H 123.368 -1.92492 -5.55176 0
M  V30 1361 H 124.892 -1.10968 -6.00432 0
M  V30 1362 H 126.306 -3.06349 -4.84586 0
M  V30 1363 H 124.703 -3.82333 -4.62538 0
M  V30 1364 H 125.773 -3.61966 -3.22658 0
M  V30 1365 N 127.117 1.15442 -1.07289 0
M  V30 1366 C 128.533 1.38201 -0.798288 0
M  V30 1367 C 128.733 1.92429 0.597769 0
M  V30 1368 O 127.789 2.12962 1.3566 0
M  V30 1369 C 129.102 2.35357 -1.87156 0
M  V30 1370 C 130.65 2.49021 -1.89624 0
M  V30 1371 C 131.125 3.49468 -2.96034 0
M  V30 1372 N 132.616 3.57003 -2.95132 0
M  V30 1373 C 133.351 4.34543 -3.74112 0
M  V30 1374 N 132.847 5.15421 -4.6294 0
M  V30 1375 N 134.64 4.29625 -3.62462 0
M  V30 1376 H 126.791 0.78584 -1.97328 0
M  V30 1377 H 129.054 0.408065 -0.855679 0
M  V30 1378 H 128.76 2.02626 -2.87464 0
M  V30 1379 H 128.634 3.35129 -1.73114 0
M  V30 1380 H 131.021 2.81051 -0.899687 0
M  V30 1381 H 131.102 1.4925 -2.07745 0
M  V30 1382 H 130.746 3.18173 -3.95889 0
M  V30 1383 H 130.676 4.48992 -2.75161 0
M  V30 1384 H 133.167 2.99276 -2.30743 0
M  V30 1385 H 133.48 5.7183 -5.19837 0
M  V30 1386 H 131.825 5.14729 -4.66989 0
M  V30 1387 H 135.016 3.65505 -2.92444 0
M  V30 1388 H 135.189 4.89807 -4.24256 0
M  V30 1389 N 128.595 0.856903 1.32268 0
M  V30 1390 C 129.545 0.274899 2.26337 0
M  V30 1391 C 130.529 -0.580543 1.50062 0
M  V30 1392 O 131.721 -0.429559 1.71708 0
M  V30 1393 C 128.85 -0.533841 3.39124 0
M  V30 1394 C 127.936 0.334114 4.22782 0
M  V30 1395 N 128.327 1.42143 4.85416 0
M  V30 1396 C 126.625 0.124256 4.45827 0
M  V30 1397 C 127.326 1.95559 5.47843 0
M  V30 1398 N 126.302 1.25444 5.28928 0
M  V30 1399 H 130.104 1.10612 2.72291 0
M  V30 1400 H 127.618 0.703258 1.46383 0
M  V30 1401 H 129.615 -0.96722 4.05525 0
M  V30 1402 H 128.275 -1.36283 2.94715 0
M  V30 1403 H 129.286 1.80436 4.85451 0
M  V30 1404 H 125.963 -0.669837 4.12092 0
M  V30 1405 H 127.353 2.86714 6.07655 0
M  V30 1406 N 130.073 -1.45103 0.615059 0
M  V30 1407 C 131.322 -2.01396 0.110718 0
M  V30 1408 C 131.635 -1.48834 -1.26916 0
M  V30 1409 O 132.841 -1.97152 -1.86664 0
M  V30 1410 C 131.297 -3.59599 0.14723 0
M  V30 1411 C 130.905 -4.21158 1.52743 0
M  V30 1412 C 132.649 -4.23428 -0.30148 0
M  V30 1413 C 130.556 -5.71535 1.51992 0
M  V30 1414 H 129.486 -0.753061 0.0376241 0
M  V30 1415 H 132.137 -1.66494 0.77149 0
M  V30 1416 H 130.519 -3.91724 -0.580339 0
M  V30 1417 H 131.693 -4.00594 2.2773 0
M  V30 1418 H 130.008 -3.69552 1.91886 0
M  V30 1419 H 132.605 -5.33703 -0.326392 0
M  V30 1420 H 132.948 -3.94629 -1.32565 0
M  V30 1421 H 133.481 -3.96047 0.373065 0
M  V30 1422 H 130.22 -6.05044 2.52193 0
M  V30 1423 H 129.74 -5.94268 0.81274 0
M  V30 1424 H 131.419 -6.34873 1.24681 0
M  V30 1425 N 131.551 -0.354651 -1.53558 0
M  V30 1426 C 132.797 0.231422 -2.02079 0
M  V30 1427 C 133.152 1.47308 -1.23767 0
M  V30 1428 O 132.445 1.8891 -0.319947 0
M  V30 1429 C 132.639 0.587121 -3.52545 0
M  V30 1430 C 132.468 -0.618513 -4.45426 0
M  V30 1431 C 131.238 -1.12724 -4.92566 0
M  V30 1432 C 133.436 -1.48039 -4.92533 0
M  V30 1433 N 131.418 -2.29404 -5.69427 0
M  V30 1434 C 132.789 -2.49397 -5.67628 0
M  V30 1435 C 134.844 -1.50454 -4.74624 0
M  V30 1436 C 133.547 -3.53013 -6.26717 0
M  V30 1437 C 135.573 -2.52958 -5.34571 0
M  V30 1438 C 134.935 -3.5304 -6.09543 0
M  V30 1439 H 131.034 0.0476909 -0.780544 0
M  V30 1440 H 133.618 -0.496727 -1.88257 0
M  V30 1441 H 131.789 1.28436 -3.6655 0
M  V30 1442 H 133.521 1.15734 -3.87799 0
M  V30 1443 H 130.276 -0.693577 -4.68494 0
M  V30 1444 H 130.7 -2.88347 -6.12524 0
M  V30 1445 H 135.342 -0.744356 -4.16196 0
M  V30 1446 H 133.06 -4.2992 -6.84247 0
M  V30 1447 H 136.646 -2.55667 -5.22614 0
M  V30 1448 H 135.526 -4.31056 -6.55103 0
M  V30 1449 N 133.029 1.57378 -0.0835403 0
M  V30 1450 C 133.977 2.14602 0.89714 0
M  V30 1451 C 134.971 1.08589 1.30018 0
M  V30 1452 O 136.177 1.26952 1.27606 0
M  V30 1453 H 132.552 0.686346 0.3073 0
M  V30 1454 H 134.523 2.95845 0.38969 0
M  V30 1455 C 133.272 2.73188 2.15089 0
M  V30 1456 H 132.595 3.54442 1.84962 0
M  V30 1457 H 134.035 3.1681 2.81793 0
M  V30 1458 C 132.494 1.68517 2.91725 0
M  V30 1459 O 133.024 1.11718 3.85852 0
M  V30 1460 N 131.23 1.39277 2.55049 0
M  V30 1461 H 130.777 1.85655 1.78577 0
M  V30 1462 H 130.735 0.694791 3.06627 0
M  V30 1463 N 134.507 -0.190092 1.56449 0
M  V30 1464 C 135.784 -0.935886 1.71757 0
M  V30 1465 C 136.164 -2.01173 0.639726 0
M  V30 1466 O 135.512 -2.25827 -0.348502 0
M  V30 1467 C 135.722 -1.51775 3.1427 0
M  V30 1468 C 137.07 -1.99794 3.74656 0
M  V30 1469 O 138.094 -1.61607 3.1743 0
M  V30 1470 O 136.953 -2.70079 4.751 0
M  V30 1471 H 134.047 -0.439229 0.700719 0
M  V30 1472 H 136.593 -0.179395 1.68749 0
M  V30 1473 H 135.365 -0.742505 3.84191 0
M  V30 1474 H 134.988 -2.33894 3.21527 0
M  V30 1475 N 135.985 -1.50799 -0.457987 0
M  V30 1476 C 137.215 -1.65977 -1.23025 0
M  V30 1477 C 137.623 -0.347918 -1.85974 0
M  V30 1478 O 136.966 0.68148 -1.70592 0
M  V30 1479 C 137.028 -2.70309 -2.3701 0
M  V30 1480 C 136.692 -4.135 -1.94594 0
M  V30 1481 C 137.689 -4.98949 -1.46101 0
M  V30 1482 C 135.374 -4.5949 -2.02915 0
M  V30 1483 C 137.368 -6.28442 -1.06489 0
M  V30 1484 C 135.055 -5.88984 -1.62914 0
M  V30 1485 C 136.053 -6.73286 -1.1478 0
M  V30 1486 O 135.741 -8.00362 -0.75339 0
M  V30 1487 H 135.473 -0.56064 -0.377702 0
M  V30 1488 H 138.027 -1.97857 -0.551537 0
M  V30 1489 H 136.257 -2.337 -3.08093 0
M  V30 1490 H 137.946 -2.74574 -2.98938 0
M  V30 1491 H 138.712 -4.6463 -1.39084 0
M  V30 1492 H 134.591 -3.94009 -2.39328 0
M  V30 1493 H 138.135 -6.94194 -0.688488 0
M  V30 1494 H 134.032 -6.22822 -1.69595 0
M  V30 1495 H 134.8 -8.13744 -0.88108 0
M  V30 1496 N 137.463 0.71206 -1.40597 0
M  V30 1497 C 138.41 1.82613 -1.41142 0
M  V30 1498 C 139.38 1.63925 -0.267903 0
M  V30 1499 O 140.565 1.85009 -0.466495 0
M  V30 1500 C 137.705 3.20354 -1.28324 0
M  V30 1501 C 136.818 3.50589 -2.52411 0
M  V30 1502 C 135.953 4.77855 -2.32009 0
M  V30 1503 C 134.992 5.01005 -3.51654 0
M  V30 1504 N 134.129 6.19487 -3.30425 0
M  V30 1505 H 138.969 1.81482 -2.36365 0
M  V30 1506 H 136.506 0.886475 -1.17388 0
M  V30 1507 H 138.464 3.99899 -1.18899 0
M  V30 1508 H 137.094 3.20705 -0.367189 0
M  V30 1509 H 136.146 2.65573 -2.72351 0
M  V30 1510 H 137.458 3.63604 -3.41458 0
M  V30 1511 H 136.612 5.65424 -2.19956 0
M  V30 1512 H 135.351 4.67056 -1.40392 0
M  V30 1513 H 134.356 4.1189 -3.64179 0
M  V30 1514 H 135.581 5.13674 -4.44202 0
M  V30 1515 H 133.527 6.09932 -2.41494 0
M  V30 1516 H 133.444 6.33194 -4.13039 0
M  V30 1517 H 134.712 7.09834 -3.22113 0
M  V30 1518 N 138.941 1.26152 0.944643 0
M  V30 1519 C 139.871 1.09902 2.06019 0
M  V30 1520 C 140.852 0.00519538 1.70099 0
M  V30 1521 O 142.037 0.176583 1.93396 0
M  V30 1522 C 139.167 0.727562 3.39594 0
M  V30 1523 C 138.121 1.77274 3.89561 0
M  V30 1524 C 137.447 1.25569 5.19747 0
M  V30 1525 C 138.747 3.17357 4.14827 0
M  V30 1526 H 140.441 2.03217 2.19871 0
M  V30 1527 H 137.987 0.978452 1.05652 0
M  V30 1528 H 139.94 0.600777 4.17095 0
M  V30 1529 H 138.664 -0.241287 3.25707 0
M  V30 1530 H 137.323 1.88814 3.14237 0
M  V30 1531 H 136.971 0.276783 5.02238 0
M  V30 1532 H 136.671 1.95433 5.54148 0
M  V30 1533 H 138.195 1.1415 5.99835 0
M  V30 1534 H 139.609 3.08914 4.82954 0
M  V30 1535 H 138.006 3.84781 4.60504 0
M  V30 1536 H 139.076 3.63673 3.20734 0
M  V30 1537 N 140.419 -1.14872 1.07899 0
M  V30 1538 C 141.835 -1.37776 0.805606 0
M  V30 1539 C 142.035 -1.92743 -0.587555 0
M  V30 1540 O 141.091 -2.13678 -1.34528 0
M  V30 1541 C 142.404 -2.34361 1.88402 0
M  V30 1542 C 143.952 -2.48012 1.90942 0
M  V30 1543 C 144.427 -3.47893 2.97883 0
M  V30 1544 N 145.918 -3.55433 2.97021 0
M  V30 1545 C 146.653 -4.32553 3.76412 0
M  V30 1546 N 146.149 -5.12959 4.65666 0
M  V30 1547 N 147.942 -4.27697 3.64735 0
M  V30 1548 H 140.093 -0.775365 1.97742 0
M  V30 1549 H 142.356 -0.403521 0.857831 0
M  V30 1550 H 142.062 -2.01098 2.88535 0
M  V30 1551 H 141.936 -3.34206 1.74889 0
M  V30 1552 H 144.323 -2.8057 0.914579 0
M  V30 1553 H 144.404 -1.48147 2.08534 0
M  V30 1554 H 144.048 -3.16069 3.97571 0
M  V30 1555 H 143.978 -4.47527 2.77538 0
M  V30 1556 H 146.469 -2.98048 2.32326 0
M  V30 1557 H 146.782 -5.69065 5.22862 0
M  V30 1558 H 145.127 -5.12245 4.69712 0
M  V30 1559 H 148.318 -3.63949 2.94378 0
M  V30 1560 H 148.491 -4.8755 4.26848 0
M  V30 1561 N 141.898 -0.863906 -1.31812 0
M  V30 1562 C 143.144 -0.481841 -1.9761 0
M  V30 1563 C 143.499 0.954048 -1.6708 0
M  V30 1564 O 142.792 1.66182 -0.953624 0
M  V30 1565 C 142.986 -0.668547 -3.51091 0
M  V30 1566 C 142.815 -2.12103 -3.96538 0
M  V30 1567 C 141.585 -2.76141 -4.23171 0
M  V30 1568 C 143.783 -3.09265 -4.10925 0
M  V30 1569 N 141.765 -4.12205 -4.54929 0
M  V30 1570 C 143.136 -4.30341 -4.46326 0
M  V30 1571 C 145.191 -3.05337 -3.93286 0
M  V30 1572 C 143.894 -5.48 -4.65928 0
M  V30 1573 C 145.92 -4.22248 -4.14078 0
M  V30 1574 C 145.282 -5.42085 -4.49804 0
M  V30 1575 H 141.381 -0.225238 -0.74886 0
M  V30 1576 H 143.965 -1.11723 -1.59455 0
M  V30 1577 H 142.136 -0.0627898 -3.88349 0
M  V30 1578 H 143.868 -0.255467 -4.03893 0
M  V30 1579 H 140.623 -2.27125 -4.15585 0
M  V30 1580 H 141.047 -4.82416 -4.74978 0
M  V30 1581 H 145.689 -2.138 -3.64759 0
M  V30 1582 H 143.407 -6.40059 -4.93305 0
M  V30 1583 H 146.993 -4.20654 -4.01922 0
M  V30 1584 H 145.873 -6.31044 -4.65567 0
M  V30 1585 N 143.376 1.44774 -0.622745 0
M  V30 1586 C 144.653 1.95522 -0.0551974 0
M  V30 1587 C 145.033 1.5649 1.41683 0
M  V30 1588 O 144.381 0.834848 2.12703 0
M  V30 1589 C 144.591 3.4796 -0.269242 0
M  V30 1590 C 145.939 4.24306 -0.158014 0
M  V30 1591 O 146.963 3.55637 -0.200162 0
M  V30 1592 O 145.822 5.46471 -0.0558693 0
M  V30 1593 H 142.916 0.826556 0.0271015 0
M  V30 1594 H 145.462 1.54866 -0.693864 0
M  V30 1595 H 144.234 3.6939 -1.29099 0
M  V30 1596 H 143.857 3.95543 0.403966 0
M  V30 1597 N 144.854 0.36279 1.53368 0
M  V30 1598 C 146.265 -0.117022 1.86333 0
M  V30 1599 C 146.616 -1.48397 1.28347 0
M  V30 1600 O 145.741 -2.07787 0.604428 0
M  V30 1601 C 146.336 -0.21912 3.38091 0
M  V30 1602 C 144.895 -0.643184 3.70864 0
M  V30 1603 C 144.042 0.211318 2.76494 0
M  V30 1604 H 146.993 0.581687 1.47655 0
M  V30 1605 H 147.014 -1.04319 3.6592 0
M  V30 1606 H 146.526 0.775902 3.80265 0
M  V30 1607 H 144.627 -1.64654 3.34245 0
M  V30 1608 H 144.74 -0.41973 4.77258 0
M  V30 1609 H 143.104 -0.319367 2.5269 0
M  V30 1610 H 143.887 1.20383 3.21501 0
M  V30 1611 N 146.332 -1.57332 0.0918853 0
M  V30 1612 C 147.265 -2.09499 -0.904735 0
M  V30 1613 C 148.243 -1.00479 -1.27839 0
M  V30 1614 O 149.427 -1.27954 -1.38419 0
M  V30 1615 C 146.554 -2.56931 -2.2069 0
M  V30 1616 C 145.6 -3.77579 -1.98334 0
M  V30 1617 S 146.433 -5.21317 -1.22428 0
M  V30 1618 C 147.589 -5.72097 -2.53882 0
M  V30 1619 H 147.822 -2.93705 -0.460922 0
M  V30 1620 H 145.355 -1.53923 -0.121332 0
M  V30 1621 H 147.313 -2.84917 -2.95521 0
M  V30 1622 H 145.974 -1.72956 -2.62192 0
M  V30 1623 H 145.167 -4.08824 -2.94752 0
M  V30 1624 H 144.769 -3.5007 -1.31633 0
M  V30 1625 H 147.061 -5.80168 -3.49874 0
M  V30 1626 H 148.004 -6.70654 -2.27219 0
M  V30 1627 H 148.412 -5.00012 -2.62007 0
M  V30 1628 N 147.81 0.181792 -1.56548 0
M  V30 1629 C 148.72 1.24538 -1.98815 0
M  V30 1630 C 149.736 1.49045 -0.897861 0
M  V30 1631 O 150.912 1.61399 -1.20467 0
M  V30 1632 C 147.977 2.56683 -2.33055 0
M  V30 1633 C 147.038 2.40131 -3.55859 0
M  V30 1634 C 146.271 3.65975 -3.88456 0
M  V30 1635 O 146.494 4.70711 -3.22161 0
M  V30 1636 O 145.428 3.6071 -4.81842 0
M  V30 1637 H 149.254 0.916647 -2.89536 0
M  V30 1638 H 146.839 0.387842 -1.44278 0
M  V30 1639 H 148.721 3.34655 -2.56094 0
M  V30 1640 H 147.396 2.89157 -1.45498 0
M  V30 1641 H 146.303 1.60226 -3.38051 0
M  V30 1642 H 147.636 2.12585 -4.43924 0
M  V30 1643 N 149.288 1.51039 0.449983 0
M  V30 1644 C 150.518 1.66627 1.22143 0
M  V30 1645 C 150.926 0.357776 1.85786 0
M  V30 1646 O 150.269 -0.672424 1.70951 0
M  V30 1647 C 150.331 2.71562 2.35573 0
M  V30 1648 C 149.995 4.14526 1.92399 0
M  V30 1649 C 150.992 4.99717 1.43453 0
M  V30 1650 C 148.677 4.60559 2.00475 0
M  V30 1651 C 150.671 6.28998 1.03155 0
M  V30 1652 C 148.358 5.8984 1.59788 0
M  V30 1653 C 149.356 6.73886 1.11208 0
M  V30 1654 O 149.044 8.0075 0.710935 0
M  V30 1655 H 148.776 0.562635 0.374724 0
M  V30 1656 H 151.33 1.98146 0.541036 0
M  V30 1657 H 149.56 2.3533 3.06849 0
M  V30 1658 H 151.249 2.76156 2.97478 0
M  V30 1659 H 152.015 4.65361 1.36618 0
M  V30 1660 H 147.894 3.95273 2.37235 0
M  V30 1661 H 151.438 6.9455 0.651663 0
M  V30 1662 H 147.335 6.23713 1.66289 0
M  V30 1663 H 148.103 8.142 0.837913 0
M  V30 1664 N 150.766 -0.704594 1.40972 0
M  V30 1665 C 152.043 -1.45847 1.30338 0
M  V30 1666 C 152.423 -2.10973 -0.0732344 0
M  V30 1667 O 151.771 -2.00997 -1.08685 0
M  V30 1668 C 151.981 -2.48525 2.45023 0
M  V30 1669 C 153.329 -3.1404 2.8577 0
M  V30 1670 O 154.353 -2.58848 2.44696 0
M  V30 1671 O 153.212 -4.13981 3.56766 0
M  V30 1672 H 150.306 -0.649092 0.512454 0
M  V30 1673 H 152.852 -0.735836 1.52917 0
M  V30 1674 H 151.624 -1.98994 3.36923 0
M  V30 1675 H 151.247 -3.2831 2.24272 0
M  V30 1676 N 152.244 -1.26651 -0.937939 0
M  V30 1677 C 153.492 -1.12165 -1.68118 0
M  V30 1678 C 153.813 0.334983 -1.92101 0
M  V30 1679 O 153.083 1.23583 -1.52 0
M  V30 1680 H 151.663 -0.412093 -0.623048 0
M  V30 1681 H 154.325 -1.59027 -1.12678 0
M  V30 1682 H 153.421 -1.64289 -2.6536 0
M  V30 1683 N 153.722 1.14298 -1.08507 0
M  V30 1684 C 154.971 1.84708 -0.810305 0
M  V30 1685 C 155.284 1.83903 0.666271 0
M  V30 1686 O 156.49 2.50112 1.05624 0
M  V30 1687 C 154.946 3.31572 -1.39957 0
M  V30 1688 C 154.554 3.40791 -2.90801 0
M  V30 1689 C 156.298 4.07087 -1.20334 0
M  V30 1690 C 154.205 4.81872 -3.4286 0
M  V30 1691 H 153.135 0.691985 -0.299454 0
M  V30 1692 H 155.786 1.28841 -1.30661 0
M  V30 1693 H 154.168 3.87183 -0.830976 0
M  V30 1694 H 155.342 2.95225 -3.53806 0
M  V30 1695 H 153.657 2.78732 -3.0935 0
M  V30 1696 H 156.254 5.11225 -1.56693 0
M  V30 1697 H 156.597 4.16054 -0.143237 0
M  V30 1698 H 157.13 3.57779 -1.73893 0
M  V30 1699 H 153.869 4.78094 -4.48449 0
M  V30 1700 H 153.389 5.27972 -2.84615 0
M  V30 1701 H 155.068 5.50765 -3.39509 0
M  V30 1702 N 155.201 0.870884 1.31352 0
M  V30 1703 C 156.111 0.330783 2.32256 0
M  V30 1704 C 157.127 -0.559767 1.6475 0
M  V30 1705 O 158.303 -0.456263 1.96164 0
M  V30 1706 C 155.368 -0.458137 3.4366 0
M  V30 1707 C 154.429 0.460482 4.26823 0
M  V30 1708 C 153.662 -0.290881 5.32907 0
M  V30 1709 O 153.885 -1.51885 5.49806 0
M  V30 1710 O 152.819 0.351732 6.00871 0
M  V30 1711 H 156.645 1.16718 2.80376 0
M  V30 1712 H 154.23 0.634285 1.35267 0
M  V30 1713 H 156.112 -0.905343 4.1156 0
M  V30 1714 H 154.787 -1.27106 2.97701 0
M  V30 1715 H 153.694 0.956207 3.61673 0
M  V30 1716 H 155.027 1.23903 4.7635 0
M  V30 1717 N 156.679 -1.44442 0.630414 0
M  V30 1718 C 157.907 -2.06414 0.141671 0
M  V30 1719 C 158.322 -1.47105 -1.18345 0
M  V30 1720 O 157.679 -0.593662 -1.72574 0
M  V30 1721 C 157.73 -3.61494 0.0199784 0
M  V30 1722 O 157.451 -4.18594 1.29269 0
M  V30 1723 C 158.952 -4.40499 -0.497544 0
M  V30 1724 H 156.172 -0.666292 0.0793452 0
M  V30 1725 H 158.716 -1.85323 0.864614 0
M  V30 1726 H 156.871 -3.8185 -0.653402 0
M  V30 1727 H 157.285 -5.12026 1.13707 0
M  V30 1728 H 158.759 -5.49433 -0.531708 0
M  V30 1729 H 159.236 -4.11895 -1.52445 0
M  V30 1730 H 159.842 -4.25061 0.142562 0
M  V30 1731 N 158.157 -0.370918 -1.53173 0
M  V30 1732 C 159.087 0.464847 -2.28826 0
M  V30 1733 C 160.068 1.07936 -1.31468 0
M  V30 1734 O 161.253 1.0956 -1.60344 0
M  V30 1735 C 158.383 1.60196 -3.08147 0
M  V30 1736 C 157.337 1.11443 -4.13237 0
M  V30 1737 C 156.663 2.3422 -4.80672 0
M  V30 1738 C 157.963 0.195384 -5.21934 0
M  V30 1739 H 159.657 -0.166329 -2.98938 0
M  V30 1740 H 157.203 -0.0814359 -1.4377 0
M  V30 1741 H 159.156 2.19332 -3.59822 0
M  V30 1742 H 157.88 2.26045 -2.35735 0
M  V30 1743 H 156.539 0.545727 -3.62515 0
M  V30 1744 H 156.187 2.98537 -4.04827 0
M  V30 1745 H 155.887 2.02269 -5.51689 0
M  V30 1746 H 157.411 2.94032 -5.35143 0
M  V30 1747 H 158.825 0.694375 -5.69079 0
M  V30 1748 H 157.222 -0.0335027 -6.00091 0
M  V30 1749 H 158.292 -0.760961 -4.78892 0
M  V30 1750 N 159.635 1.57281 -0.100228 0
M  V30 1751 C 161.051 1.57527 0.256416 0
M  V30 1752 C 161.251 1.11173 1.68056 0
M  V30 1753 O 160.307 0.79053 2.39806 0
M  V30 1754 C 161.62 3.00673 0.0401747 0
M  V30 1755 C 163.168 3.12815 0.107528 0
M  V30 1756 C 163.643 4.57929 -0.0807834 0
M  V30 1757 N 165.134 4.63193 -0.0261207 0
M  V30 1758 C 165.869 5.73212 -0.146999 0
M  V30 1759 N 165.365 6.92047 -0.322999 0
M  V30 1760 N 167.158 5.62031 -0.0879044 0
M  V30 1761 H 159.309 1.85718 -1.03065 0
M  V30 1762 H 161.572 0.857446 -0.404339 0
M  V30 1763 H 161.278 3.38804 -0.943649 0
M  V30 1764 H 161.152 3.69042 0.780262 0
M  V30 1765 H 163.539 2.74554 1.08186 0
M  V30 1766 H 163.62 2.47028 -0.664134 0
M  V30 1767 H 163.264 4.96886 -1.05201 0
M  V30 1768 H 163.194 5.21783 0.710635 0
M  V30 1769 H 165.685 3.77748 0.107161 0
M  V30 1770 H 165.998 7.7173 -0.406608 0
M  V30 1771 H 164.343 6.94074 -0.358733 0
M  V30 1772 H 167.534 4.68075 0.048498 0
M  V30 1773 H 167.707 6.47734 -0.185557 0
M  V30 1774 N 161.113 -0.173488 1.56642 0
M  V30 1775 C 162.359 -0.891784 1.8214 0
M  V30 1776 C 162.692 -1.8199 0.677736 0
M  V30 1777 O 161.967 -1.91842 -0.320446 0
M  V30 1778 C 162.25 -1.68933 3.18015 0
M  V30 1779 C 162.103 -0.784487 4.42906 0
M  V30 1780 C 163.422 -2.65748 3.50808 0
M  V30 1781 H 160.541 -0.322761 0.662567 0
M  V30 1782 H 163.183 -0.158095 1.89341 0
M  V30 1783 H 161.333 -2.31482 3.12007 0
M  V30 1784 H 163.005 -0.172046 4.60979 0
M  V30 1785 H 161.248 -0.0924117 4.33702 0
M  V30 1786 H 161.919 -1.37799 5.34524 0
M  V30 1787 H 164.395 -2.13327 3.57255 0
M  V30 1788 H 163.271 -3.18619 4.4696 0
M  V30 1789 H 163.532 -3.45842 2.75401 0
M  V30 1790 N 162.591 -1.51276 -0.441967 0
M  V30 1791 C 164.002 -1.56244 -1.02199 0
M  V30 1792 C 164.353 -0.383149 -1.92422 0
M  V30 1793 O 163.478 0.500613 -2.1053 0
M  V30 1794 C 164.073 -2.83162 -1.86024 0
M  V30 1795 C 162.632 -2.90716 -2.39084 0
M  V30 1796 C 161.779 -2.50858 -1.18175 0
M  V30 1797 H 164.73 -1.5712 -0.223416 0
M  V30 1798 H 164.751 -2.66663 -2.71425 0
M  V30 1799 H 164.263 -3.68974 -1.20331 0
M  V30 1800 H 162.364 -2.09323 -3.08244 0
M  V30 1801 H 162.477 -3.94266 -2.72198 0
M  V30 1802 H 160.841 -2.03951 -1.52565 0
M  V30 1803 H 161.624 -3.3901 -0.541001 0
M  V30 1804 N 164.069 0.697108 -1.41344 0
M  V30 1805 C 165.032 1.79281 -1.42797 0
M  V30 1806 C 166.032 1.57607 -0.318837 0
M  V30 1807 O 167.222 1.64309 -0.578642 0
M  V30 1808 C 164.354 3.17632 -1.23785 0
M  V30 1809 H 165.547 1.79385 -2.40335 0
M  V30 1810 H 163.1 0.904582 -1.27464 0
M  V30 1811 H 163.835 3.23167 -0.270814 0
M  V30 1812 H 163.62 3.34765 -2.04144 0
M  V30 1813 H 165.11 3.97617 -1.27633 0
M  V30 1814 N 165.547 1.27147 0.931209 0
M  V30 1815 C 166.824 1.0401 1.65654 0
M  V30 1816 C 167.204 -0.426297 2.06751 0
M  V30 1817 O 166.552 -1.40879 1.79904 0
M  V30 1818 C 166.762 1.99834 2.86125 0
M  V30 1819 C 168.11 2.29007 3.57549 0
M  V30 1820 O 169.134 1.97779 2.96246 0
M  V30 1821 O 167.993 2.82222 4.67989 0
M  V30 1822 H 165.087 0.396239 0.725895 0
M  V30 1823 H 167.633 1.38397 0.982056 0
M  V30 1824 H 166.405 2.98744 2.52721 0
M  V30 1825 H 166.028 1.65987 3.61295 0
M  V30 1826 N 167.025 -1.13721 1.09112 0
M  V30 1827 C 167.972 -2.19031 0.727591 0
M  V30 1828 C 168.942 -1.63555 -0.289656 0
M  V30 1829 O 170.127 -1.90023 -0.172026 0
M  V30 1830 C 167.267 -3.4477 0.15082 0
M  V30 1831 C 166.38 -4.14365 1.22172 0
M  V30 1832 C 165.515 -5.27709 0.608042 0
M  V30 1833 C 164.554 -5.89147 1.66047 0
M  V30 1834 N 163.691 -6.93929 1.06806 0
M  V30 1835 H 168.531 -2.49475 1.62991 0
M  V30 1836 H 166.068 -1.22499 0.81439 0
M  V30 1837 H 168.026 -4.16714 -0.201358 0
M  V30 1838 H 166.656 -3.14787 -0.714783 0
M  V30 1839 H 165.708 -3.40737 1.69122 0
M  V30 1840 H 167.02 -4.56114 2.01895 0
M  V30 1841 H 166.174 -6.06355 0.204523 0
M  V30 1842 H 164.913 -4.872 -0.220769 0
M  V30 1843 H 163.918 -5.09198 2.07357 0
M  V30 1844 H 165.143 -6.31729 2.49189 0
M  V30 1845 H 163.089 -6.55483 0.260476 0
M  V30 1846 H 163.006 -7.34202 1.8023 0
M  V30 1847 H 164.274 -7.76434 0.690644 0
M  V30 1848 N 168.503 -0.877838 -1.30888 0
M  V30 1849 C 169.752 -0.488793 -1.95688 0
M  V30 1850 C 170.065 0.965485 -1.70111 0
M  V30 1851 O 171.271 1.46104 -2.28836 0
M  V30 1852 C 169.727 -0.823201 -3.50359 0
M  V30 1853 C 169.335 -2.29477 -3.84765 0
M  V30 1854 C 171.079 -0.503009 -4.21509 0
M  V30 1855 C 168.986 -2.57118 -5.32583 0
M  V30 1856 H 167.916 -0.179062 -0.732429 0
M  V30 1857 H 170.567 -1.07183 -1.48943 0
M  V30 1858 H 168.949 -0.169331 -3.95638 0
M  V30 1859 H 170.123 -2.99236 -3.5042 0
M  V30 1860 H 168.438 -2.58178 -3.267 0
M  V30 1861 H 171.035 -0.68665 -5.30273 0
M  V30 1862 H 171.378 0.557109 -4.12555 0
M  V30 1863 H 171.911 -1.11376 -3.8189 0
M  V30 1864 H 168.65 -3.61843 -5.4658 0
M  V30 1865 H 168.17 -1.91961 -5.68253 0
M  V30 1866 H 169.849 -2.42251 -5.99936 0
M  V30 1867 N 169.982 1.44106 -0.638065 0
M  V30 1868 C 171.228 2.02815 -0.15409 0
M  V30 1869 C 171.583 1.49342 1.21304 0
M  V30 1870 O 170.876 0.670699 1.79478 0
M  V30 1871 C 171.07 3.5729 -0.0887327 0
M  V30 1872 C 170.899 4.2575 -1.44799 0
M  V30 1873 C 169.669 4.62443 -2.03653 0
M  V30 1874 C 171.867 4.55746 -2.38327 0
M  V30 1875 N 169.849 5.15903 -3.32741 0
M  V30 1876 C 171.22 5.10364 -3.52036 0
M  V30 1877 C 173.275 4.37703 -2.3732 0
M  V30 1878 C 171.978 5.48837 -4.64941 0
M  V30 1879 C 174.004 4.77229 -3.49294 0
M  V30 1880 C 173.366 5.31966 -4.61726 0
M  V30 1881 H 169.465 0.775519 -0.100466 0
M  V30 1882 H 172.049 1.755 -0.843071 0
M  V30 1883 H 170.22 3.84201 0.569548 0
M  V30 1884 H 171.952 4.02671 0.404711 0
M  V30 1885 H 168.707 4.46987 -1.56523 0
M  V30 1886 H 169.131 5.47102 -3.98758 0
M  V30 1887 H 173.773 3.94671 -1.51641 0
M  V30 1888 H 171.491 5.9082 -5.51323 0
M  V30 1889 H 175.077 4.64976 -3.49698 0
M  V30 1890 H 173.957 5.61986 -5.46939 0
M  V30 1891 N 171.46 0.379036 1.52974 0
M  V30 1892 C 172.407 -0.461048 2.26148 0
M  V30 1893 C 173.377 -1.06637 1.27349 0
M  V30 1894 O 174.562 -1.09633 1.56157 0
M  V30 1895 C 171.702 -1.58782 3.06402 0
M  V30 1896 C 170.815 -1.00636 4.20115 0
M  V30 1897 C 169.95 -2.10334 4.87784 0
M  V30 1898 C 168.989 -1.49724 5.93506 0
M  V30 1899 N 168.126 -2.5331 6.54812 0
M  V30 1900 H 172.966 0.169429 2.97518 0
M  V30 1901 H 170.503 0.0953806 1.4679 0
M  V30 1902 H 172.461 -2.25174 3.51215 0
M  V30 1903 H 171.091 -2.18876 2.37261 0
M  V30 1904 H 170.143 -0.232332 3.7969 0
M  V30 1905 H 171.455 -0.523343 4.96047 0
M  V30 1906 H 170.609 -2.84519 5.35849 0
M  V30 1907 H 169.348 -2.61992 4.11353 0
M  V30 1908 H 168.353 -0.740598 5.44789 0
M  V30 1909 H 169.578 -0.988732 6.71864 0
M  V30 1910 H 167.524 -3.04156 5.81227 0
M  V30 1911 H 167.441 -2.09734 7.26325 0
M  V30 1912 H 168.709 -3.27155 7.07524 0
M  V30 1913 N 172.938 -1.57226 0.108567 0
M  V30 1914 C 174.349 -1.8195 -0.418464 0
M  V30 1915 C 174.7 -1.02508 -1.67292 0
M  V30 1916 O 173.825 -0.258496 -2.14851 0
M  V30 1917 C 174.42 -3.30028 -0.765979 0
M  V30 1918 C 172.979 -3.55469 -1.23769 0
M  V30 1919 C 172.126 -2.7625 -0.241106 0
M  V30 1920 H 175.077 -1.55149 0.33384 0
M  V30 1921 H 175.098 -3.44086 -1.62434 0
M  V30 1922 H 174.61 -3.87821 0.147219 0
M  V30 1923 H 172.711 -3.03022 -2.16814 0
M  V30 1924 H 172.824 -4.6408 -1.19022 0
M  V30 1925 H 171.188 -2.44133 -0.72602 0
M  V30 1926 H 171.971 -3.36797 0.665007 0
M  V30 1927 N 174.416 0.165178 -1.56732 0
M  V30 1928 C 175.693 0.908443 -1.73224 0
M  V30 1929 C 176.073 2.0013 -0.67165 0
M  V30 1930 O 175.421 2.26353 0.31253 0
M  V30 1931 C 175.631 1.46756 -3.16644 0
M  V30 1932 C 176.979 1.93809 -3.77787 0
M  V30 1933 O 178.003 1.56537 -3.1996 0
M  V30 1934 O 176.862 2.62486 -4.79336 0
M  V30 1935 H 173.956 0.428025 -0.707618 0
M  V30 1936 H 176.502 0.152526 -1.69013 0
M  V30 1937 H 175.274 0.68129 -3.85323 0
M  V30 1938 H 174.897 2.28749 -3.25207 0
M  V30 1939 N 175.894 1.51508 0.433938 0
M  V30 1940 C 177.143 1.63578 1.18005 0
M  V30 1941 C 177.456 0.359514 1.92268 0
M  V30 1942 O 178.662 0.359632 2.69108 0
M  V30 1943 C 177.118 2.88901 2.14626 0
M  V30 1944 C 176.726 4.23544 1.45995 0
M  V30 1945 C 178.47 3.10328 2.89649 0
M  V30 1946 C 176.377 5.40014 2.4112 0
M  V30 1947 H 175.307 0.609277 0.444182 0
M  V30 1948 H 177.958 1.77978 0.446773 0
M  V30 1949 H 176.34 2.68142 2.91403 0
M  V30 1950 H 177.514 4.54696 0.747532 0
M  V30 1951 H 175.829 4.08021 0.831115 0
M  V30 1952 H 178.426 3.94518 3.60915 0
M  V30 1953 H 178.769 2.23544 3.51189 0
M  V30 1954 H 179.302 3.31443 2.19978 0
M  V30 1955 H 176.041 6.29068 1.84264 0
M  V30 1956 H 175.561 5.13233 3.10406 0
M  V30 1957 H 177.24 5.72099 3.02177 0
M  V30 1958 N 177.372 -0.689602 1.41712 0
M  V30 1959 C 178.618 -1.45181 1.41599 0
M  V30 1960 C 178.951 -1.94181 0.0270081 0
M  V30 1961 O 178.226 -1.6993 -0.946265 0
M  V30 1962 C 178.509 -2.65945 2.42787 0
M  V30 1963 C 178.362 -2.22672 3.90816 0
M  V30 1964 C 179.681 -3.68149 2.41151 0
M  V30 1965 H 176.8 -0.526576 0.515642 0
M  V30 1966 H 179.442 -0.784947 1.73028 0
M  V30 1967 H 177.592 -3.2284 2.16116 0
M  V30 1968 H 179.264 -1.71058 4.28412 0
M  V30 1969 H 177.507 -1.54394 4.05395 0
M  V30 1970 H 178.178 -3.0935 4.57172 0
M  V30 1971 H 180.654 -3.2094 2.64834 0
M  V30 1972 H 179.53 -4.50248 3.13955 0
M  V30 1973 H 179.791 -4.18259 1.43221 0
M  V30 1974 N 178.85 -1.27639 -0.924453 0
M  V30 1975 C 179.78 -1.13166 -2.04244 0
M  V30 1976 C 180.761 -0.032256 -1.70069 0
M  V30 1977 O 181.946 -0.207328 -1.9309 0
M  V30 1978 C 179.076 -0.781496 -3.38393 0
M  V30 1979 C 178.03 -1.83449 -3.86692 0
M  V30 1980 C 177.356 -1.33822 -5.17683 0
M  V30 1981 C 178.656 -3.23917 -4.09726 0
M  V30 1982 H 180.35 -2.06689 -2.1661 0
M  V30 1983 H 177.896 -0.995136 -1.04082 0
M  V30 1984 H 179.849 -0.667057 -4.16087 0
M  V30 1985 H 178.573 0.189439 -3.2605 0
M  V30 1986 H 177.232 -1.93789 -3.11193 0
M  V30 1987 H 176.88 -0.35665 -5.01734 0
M  V30 1988 H 176.58 -2.04224 -5.50968 0
M  V30 1989 H 178.104 -1.23679 -5.97943 0
M  V30 1990 H 179.518 -3.16559 -4.77978 0
M  V30 1991 H 177.915 -3.92059 -4.54324 0
M  V30 1992 H 178.985 -3.68729 -3.14908 0
M  V30 1993 N 180.328 1.1314 -1.09713 0
M  V30 1994 C 181.558 1.88048 -0.855656 0
M  V30 1995 C 181.966 1.79537 0.596919 0
M  V30 1996 O 181.309 1.16196 1.42282 0
M  V30 1997 C 181.371 3.38314 -1.21589 0
M  V30 1998 C 181.035 3.70605 -2.67397 0
M  V30 1999 C 182.032 3.69596 -3.65643 0
M  V30 2000 C 179.717 4.0017 -3.03593 0
M  V30 2001 C 181.711 3.977 -4.9811 0
M  V30 2002 C 179.398 4.27935 -4.36251 0
M  V30 2003 C 180.396 4.26685 -5.33318 0
M  V30 2004 O 180.084 4.53767 -6.63589 0
M  V30 2005 H 179.816 0.60208 -0.307368 0
M  V30 2006 H 182.37 1.44128 -1.46343 0
M  V30 2007 H 180.6 3.82752 -0.551177 0
M  V30 2008 H 182.289 3.94552 -0.953083 0
M  V30 2009 H 183.055 3.46826 -3.39023 0
M  V30 2010 H 178.934 4.00289 -2.2867 0
M  V30 2011 H 182.478 3.9664 -5.73866 0
M  V30 2012 H 178.375 4.50178 -4.62613 0
M  V30 2013 H 179.143 4.71422 -6.69107 0
M  V30 2014 N 181.806 0.884767 1.30421 0
M  V30 2015 C 182.754 0.340869 2.30089 0
M  V30 2016 C 183.748 -0.55201 1.60154 0
M  V30 2017 O 184.954 -0.436467 1.74628 0
M  V30 2018 H 181.329 0.0915739 0.746404 0
M  V30 2019 H 183.3 1.19513 2.73421 0
M  V30 2020 C 182.049 -0.429779 3.45034 0
M  V30 2021 H 181.372 0.248024 3.9903 0
M  V30 2022 H 182.812 -0.775445 4.16849 0
M  V30 2023 C 181.271 -1.62677 2.95022 0
M  V30 2024 O 181.801 -2.72614 2.95033 0
M  V30 2025 N 180.007 -1.46387 2.51036 0
M  V30 2026 H 179.554 -0.569506 2.51226 0
M  V30 2027 H 179.512 -2.26612 2.17932 0
M  V30 2028 N 183.284 -1.43765 0.645699 0
M  V30 2029 C 184.232 -2.32516 -0.0624849 0
M  V30 2030 C 185.226 -1.48183 -0.820855 0
M  V30 2031 O 186.432 -1.64439 -0.732106 0
M  V30 2032 H 182.807 -0.750989 -0.0389864 0
M  V30 2033 H 184.778 -2.89979 0.703892 0
M  V30 2034 C 183.527 -3.32389 -1.02044 0
M  V30 2035 H 182.85 -3.97301 -0.446312 0
M  V30 2036 H 184.29 -3.97138 -1.48517 0
M  V30 2037 C 182.749 -2.62416 -2.11281 0
M  V30 2038 O 183.279 -2.434 -3.19561 0
M  V30 2039 N 181.485 -2.21913 -1.87624 0
M  V30 2040 H 181.032 -2.37578 -0.995703 0
M  V30 2041 H 180.99 -1.75424 -2.6091 0
M  V30 2042 N 184.763 -0.387143 -1.52771 0
M  V30 2043 C 185.726 0.436939 -2.24997 0
M  V30 2044 C 186.726 0.991991 -1.26555 0
M  V30 2045 O 187.916 0.874335 -1.50669 0
M  V30 2046 C 185.048 1.61281 -3.00335 0
M  V30 2047 H 186.241 -0.195365 -2.99263 0
M  V30 2048 H 183.794 -0.139218 -1.55679 0
M  V30 2049 H 184.529 2.2826 -2.30364 0
M  V30 2050 H 184.314 1.22154 -3.72587 0
M  V30 2051 H 185.804 2.19629 -3.5518 0
M  V30 2052 N 186.241 1.57166 -0.116904 0
M  V30 2053 C 187.487 1.95412 0.542405 0
M  V30 2054 C 187.82 1.00019 1.66463 0
M  V30 2055 O 187.095 0.0370346 1.94465 0
M  V30 2056 C 187.378 3.43615 1.07708 0
M  V30 2057 C 187.231 4.49781 -0.0415868 0
M  V30 2058 C 188.55 3.93616 1.96861 0
M  V30 2059 H 185.669 0.710543 0.195696 0
M  V30 2060 H 188.311 1.89027 -0.192038 0
M  V30 2061 H 186.461 3.49187 1.70296 0
M  V30 2062 H 188.133 4.56308 -0.676793 0
M  V30 2063 H 186.376 4.28033 -0.705019 0
M  V30 2064 H 187.047 5.50733 0.373717 0
M  V30 2065 H 189.523 3.90335 1.44146 0
M  V30 2066 H 188.399 4.97838 2.3119 0
M  V30 2067 H 188.66 3.34188 2.89432 0
M  V30 2068 N 187.719 -0.156864 1.56817 0
M  V30 2069 C 188.967 -0.869404 1.82444 0
M  V30 2070 C 189.288 -1.82147 0.69623 0
M  V30 2071 O 188.558 -1.93847 -0.28287 0
M  V30 2072 H 187.138 -0.324043 0.673056 0
M  V30 2073 H 189.8 -0.153224 1.94297 0
M  V30 2074 H 188.896 -1.43761 2.77019 0
M  V30 2075 N 189.197 -1.51736 -0.425897 0
M  V30 2076 C 190.474 -1.55519 -1.1863 0
M  V30 2077 C 190.854 -0.326219 -2.08564 0
M  V30 2078 O 190.202 0.688012 -2.17896 0
M  V30 2079 C 190.412 -2.87521 -1.9782 0
M  V30 2080 C 191.76 -3.39899 -2.54468 0
M  V30 2081 O 192.784 -2.89148 -2.08019 0
M  V30 2082 O 191.643 -4.2848 -3.39215 0
M  V30 2083 H 188.737 -0.625739 -0.540721 0
M  V30 2084 H 191.283 -1.64055 -0.434038 0
M  V30 2085 H 190.055 -3.68422 -1.31836 0
M  V30 2086 H 189.678 -2.822 -2.80088 0
M  V30 2087 N 190.675 0.682077 -1.42076 0
M  V30 2088 C 191.922 1.44215 -1.42156 0
M  V30 2089 C 192.25 1.94468 -0.0354186 0
M  V30 2090 O 191.505 1.70816 0.955002 0
M  V30 2091 C 191.804 2.66036 -2.38662 0
M  V30 2092 C 191.47 2.34366 -3.85206 0
M  V30 2093 C 190.132 2.25439 -4.25124 0
M  V30 2094 C 192.484 2.08513 -4.77673 0
M  V30 2095 C 189.812 1.88775 -5.55501 0
M  V30 2096 C 192.164 1.73354 -6.08384 0
M  V30 2097 C 190.828 1.62933 -6.47309 0
M  V30 2098 H 190.098 0.527718 -0.520187 0
M  V30 2099 H 192.745 0.778387 -1.74967 0
M  V30 2100 H 191.05 3.3741 -1.99152 0
M  V30 2101 H 192.747 3.24205 -2.35991 0
M  V30 2102 H 189.337 2.42213 -3.53597 0
M  V30 2103 H 193.521 2.14346 -4.47626 0
M  V30 2104 H 188.777 1.7927 -5.84527 0
M  V30 2105 H 192.951 1.52373 -6.79526 0
M  V30 2106 H 190.578 1.34292 -7.48244 0
M  V30 2107 N 192.153 1.28127 0.917671 0
M  V30 2108 C 193.085 1.07517 2.02417 0
M  V30 2109 C 194.098 0.0281099 1.62776 0
M  V30 2110 O 195.287 0.270748 1.76435 0
M  V30 2111 C 192.387 0.610957 3.33347 0
M  V30 2112 C 191.56 1.73255 4.01624 0
M  V30 2113 C 190.619 1.26238 5.10833 0
M  V30 2114 O 189.645 1.96389 5.34247 0
M  V30 2115 N 190.847 0.123448 5.80369 0
M  V30 2116 H 193.612 2.02806 2.20658 0
M  V30 2117 H 191.173 1.19827 1.08871 0
M  V30 2118 H 193.165 0.280101 4.0373 0
M  V30 2119 H 191.735 -0.24898 3.11607 0
M  V30 2120 H 190.955 2.23319 3.24842 0
M  V30 2121 H 192.243 2.48503 4.43986 0
M  V30 2122 H 191.641 -0.461847 5.63812 0
M  V30 2123 H 190.198 -0.148158 6.51632 0
M  V30 2124 N 193.631 -1.12557 1.10312 0
M  V30 2125 C 194.877 -1.84311 0.846011 0
M  V30 2126 C 195.21 -1.83805 -0.626859 0
M  V30 2127 O 194.485 -1.28268 -1.46211 0
M  V30 2128 C 194.768 -3.32048 1.39341 0
M  V30 2129 C 194.621 -3.41016 2.93305 0
M  V30 2130 C 195.94 -4.27764 1.03468 0
M  V30 2131 H 193.059 -0.669192 0.30879 0
M  V30 2132 H 195.701 -1.32057 1.36605 0
M  V30 2133 H 193.851 -3.76678 0.951087 0
M  V30 2134 H 195.523 -3.05031 3.46055 0
M  V30 2135 H 193.766 -2.81603 3.29973 0
M  V30 2136 H 194.437 -4.44948 3.26689 0
M  V30 2137 H 196.913 -3.91253 1.41633 0
M  V30 2138 H 195.789 -5.29549 1.44463 0
M  V30 2139 H 196.05 -4.42064 -0.0560404 0
M  V30 2140 N 195.109 -0.891671 -1.2995 0
M  V30 2141 C 196.019 -0.367691 -2.31701 0
M  V30 2142 C 197.035 0.533486 -1.6562 0
M  V30 2143 O 198.211 0.424997 -1.96865 0
M  V30 2144 C 195.276 0.403406 -3.44345 0
M  V30 2145 C 194.337 -0.528328 -4.26037 0
M  V30 2146 C 193.57 0.206063 -5.33302 0
M  V30 2147 O 193.793 1.43119 -5.52153 0
M  V30 2148 O 192.727 -0.447281 -6.00236 0
M  V30 2149 H 196.553 -1.21163 -2.78484 0
M  V30 2150 H 194.138 -0.655725 -1.34241 0
M  V30 2151 H 196.02 0.839753 -4.12948 0
M  V30 2152 H 194.695 1.22354 -2.99685 0
M  V30 2153 H 193.602 -1.01362 -3.60106 0
M  V30 2154 H 194.935 -1.31465 -4.74318 0
M  V30 2155 N 196.587 1.43421 -0.653314 0
M  V30 2156 C 197.835 2.01414 -0.166415 0
M  V30 2157 C 198.156 1.51803 1.22397 0
M  V30 2158 O 197.426 0.730693 1.81763 0
M  V30 2159 H 196.006 0.744703 -0.0585319 0
M  V30 2160 H 198.668 1.75629 -0.845003 0
M  V30 2161 H 197.764 3.11734 -0.151111 0
M  V30 2162 N 198.065 0.39524 1.52563 0
M  V30 2163 C 199.012 -0.437036 2.26624 0
M  V30 2164 C 199.982 -1.05281 1.28472 0
M  V30 2165 O 201.167 -1.07971 1.57311 0
M  V30 2166 C 198.307 -1.55524 3.08069 0
M  V30 2167 C 197.42 -0.961745 4.21158 0
M  V30 2168 C 196.555 -2.05149 4.89987 0
M  V30 2169 C 195.594 -1.4342 5.95061 0
M  V30 2170 N 194.731 -2.46351 6.57462 0
M  V30 2171 H 199.571 0.200976 2.97322 0
M  V30 2172 H 197.108 0.110944 1.46681 0
M  V30 2173 H 199.066 -2.21437 3.53584 0
M  V30 2174 H 197.696 -2.16348 2.3957 0
M  V30 2175 H 196.748 -0.192048 3.79915 0
M  V30 2176 H 198.06 -0.470701 4.96574 0
M  V30 2177 H 197.214 -2.78819 5.38837 0
M  V30 2178 H 195.953 -2.57615 4.14109 0
M  V30 2179 H 194.958 -0.682774 5.45544 0
M  V30 2180 H 196.183 -0.917416 6.72875 0
M  V30 2181 H 194.129 -2.97975 5.8442 0
M  V30 2182 H 194.046 -2.02019 7.28508 0
M  V30 2183 H 195.314 -3.19633 7.10954 0
M  V30 2184 N 199.544 -1.57102 0.125237 0
M  V30 2185 C 200.772 -1.99761 -0.538797 0
M  V30 2186 C 201.187 -1.00503 -1.59827 0
M  V30 2187 O 200.544 0.00119474 -1.825 0
M  V30 2188 C 200.595 -3.42408 -1.15927 0
M  V30 2189 O 200.316 -4.37869 -0.142143 0
M  V30 2190 C 201.817 -4.00232 -1.90602 0
M  V30 2191 H 199.037 -0.655772 -0.14214 0
M  V30 2192 H 201.581 -2.03383 0.213413 0
M  V30 2193 H 199.736 -3.39706 -1.86223 0
M  V30 2194 H 200.15 -5.21128 -0.593775 0
M  V30 2195 H 201.624 -5.02105 -2.29335 0
M  V30 2196 H 202.101 -3.39721 -2.78363 0
M  V30 2197 H 202.707 -4.06499 -1.25055 0
M  V30 2198 N 201.022 0.148545 -1.56898 0
M  V30 2199 C 201.969 1.18345 -1.98149 0
M  V30 2200 C 202.939 1.42772 -0.848848 0
M  V30 2201 O 204.124 1.55132 -1.11079 0
M  V30 2202 C 201.264 2.51231 -2.36594 0
M  V30 2203 C 200.377 2.33991 -3.63142 0
M  V30 2204 C 199.512 3.59902 -3.90697 0
M  V30 2205 C 198.551 3.37692 -5.1052 0
M  V30 2206 N 197.688 4.5573 -5.34092 0
M  V30 2207 H 202.528 0.82467 -2.86362 0
M  V30 2208 H 200.065 0.395756 -1.41676 0
M  V30 2209 H 202.023 3.28713 -2.56912 0
M  V30 2210 H 200.653 2.85059 -1.51463 0
M  V30 2211 H 199.705 1.47572 -3.50609 0
M  V30 2212 H 201.017 2.13539 -4.5078 0
M  V30 2213 H 200.171 4.45813 -4.11505 0
M  V30 2214 H 198.91 3.83357 -3.01477 0
M  V30 2215 H 197.915 2.5017 -4.89587 0
M  V30 2216 H 199.14 3.15637 -6.0129 0
M  V30 2217 H 197.086 4.79361 -4.47827 0
M  V30 2218 H 197.003 4.38274 -6.15996 0
M  V30 2219 H 198.271 5.42858 -5.59397 0
M  V30 2220 N 202.5 1.5196 0.417844 0
M  V30 2221 C 203.463 1.74065 1.49111 0
M  V30 2222 C 204.463 0.610537 1.48758 0
M  V30 2223 O 205.653 0.87832 1.50437 0
M  V30 2224 C 202.785 1.81502 2.88565 0
M  V30 2225 H 203.978 2.69869 1.30807 0
M  V30 2226 H 201.531 1.42244 0.647785 0
M  V30 2227 H 202.266 0.875813 3.1225 0
M  V30 2228 H 202.051 2.63651 2.90225 0
M  V30 2229 H 203.541 2.00376 3.66387 0
M  V30 2230 N 203.978 -0.674533 1.42435 0
M  V30 2231 C 204.908 -1.80009 1.48724 0
M  V30 2232 C 205.889 -1.6659 0.343793 0
M  V30 2233 O 207.074 -1.86007 0.558137 0
M  V30 2234 C 204.204 -3.18306 1.38919 0
M  V30 2235 C 203.158 -3.46461 2.51294 0
M  V30 2236 C 202.484 -4.84335 2.26547 0
M  V30 2237 C 203.784 -3.43328 3.93603 0
M  V30 2238 H 205.478 -1.75004 2.42928 0
M  V30 2239 H 203.024 -0.840533 1.16923 0
M  V30 2240 H 204.977 -3.9678 1.41927 0
M  V30 2241 H 203.701 -3.2399 0.412094 0
M  V30 2242 H 202.36 -2.70348 2.47604 0
M  V30 2243 H 202.008 -4.86669 1.2713 0
M  V30 2244 H 201.708 -5.04136 3.01861 0
M  V30 2245 H 203.232 -5.65094 2.31304 0
M  V30 2246 H 204.646 -4.11772 3.98894 0
M  V30 2247 H 203.043 -3.74664 4.68771 0
M  V30 2248 H 204.113 -2.41897 4.20255 0
M  V30 2249 N 205.456 -1.28612 -0.910864 0
M  V30 2250 C 206.386 -1.15326 -2.03032 0
M  V30 2251 C 207.367 -0.0502924 -1.70026 0
M  V30 2252 O 208.552 -0.227797 -1.92859 0
M  V30 2253 C 205.682 -0.817343 -3.37545 0
M  V30 2254 C 204.636 -1.8754 -3.84724 0
M  V30 2255 C 203.962 -1.39305 -5.16235 0
M  V30 2256 C 205.262 -3.28244 -4.06267 0
M  V30 2257 H 206.956 -2.08975 -2.14406 0
M  V30 2258 H 204.502 -1.00612 -1.03021 0
M  V30 2259 H 206.455 -0.711151 -4.15356 0
M  V30 2260 H 205.179 0.154846 -3.26233 0
M  V30 2261 H 203.838 -1.97079 -3.09121 0
M  V30 2262 H 203.486 -0.409846 -5.01328 0
M  V30 2263 H 203.186 -2.10057 -5.48771 0
M  V30 2264 H 204.71 -1.30014 -5.96598 0
M  V30 2265 H 206.124 -3.21611 -4.74594 0
M  V30 2266 H 204.521 -3.96855 -4.5014 0
M  V30 2267 H 205.591 -3.72048 -3.10979 0
M  V30 2268 N 206.934 1.1197 -1.10907 0
M  V30 2269 C 207.881 2.17846 -0.762345 0
M  V30 2270 C 208.851 1.63995 0.263599 0
M  V30 2271 O 210.036 1.90273 0.141773 0
M  V30 2272 C 207.176 3.44487 -0.205651 0
M  V30 2273 C 206.289 4.12369 -1.28748 0
M  V30 2274 C 205.424 5.26674 -0.691919 0
M  V30 2275 C 204.463 5.86431 -1.75399 0
M  V30 2276 N 203.6 6.92142 -1.17833 0
M  V30 2277 H 208.44 2.46851 -1.6694 0
M  V30 2278 H 205.977 1.21188 -0.833776 0
M  V30 2279 H 207.935 4.16981 0.135037 0
M  V30 2280 H 206.565 3.15884 0.664613 0
M  V30 2281 H 205.617 3.38003 -1.74522 0
M  V30 2282 H 206.929 4.52844 -2.09125 0
M  V30 2283 H 206.083 6.05953 -0.300963 0
M  V30 2284 H 204.822 4.8749 0.143232 0
M  V30 2285 H 203.827 5.05835 -2.15432 0
M  V30 2286 H 205.052 6.27685 -2.59208 0
M  V30 2287 H 202.998 6.54985 -0.364725 0
M  V30 2288 H 202.915 7.31242 -1.91887 0
M  V30 2289 H 204.183 7.75237 -0.81408 0
M  V30 2290 N 208.412 0.89855 1.29475 0
M  V30 2291 C 209.642 0.538479 1.99459 0
M  V30 2292 C 210.05 -0.880922 1.67441 0
M  V30 2293 O 209.393 -1.59283 0.915127 0
M  V30 2294 C 209.455 0.649564 3.53583 0
M  V30 2295 C 209.119 2.03573 4.09154 0
M  V30 2296 C 210.116 3.00675 4.24135 0
M  V30 2297 C 207.801 2.3448 4.44212 0
M  V30 2298 C 209.795 4.26809 4.73405 0
M  V30 2299 C 207.482 3.60857 4.93179 0
M  V30 2300 C 208.48 4.56836 5.0773 0
M  V30 2301 O 208.168 5.80969 5.55635 0
M  V30 2302 H 207.9 0.205372 0.644048 0
M  V30 2303 H 210.454 1.20958 1.66007 0
M  V30 2304 H 208.684 -0.0785592 3.8662 0
M  V30 2305 H 210.373 0.29881 4.04799 0
M  V30 2306 H 211.139 2.78112 3.97339 0
M  V30 2307 H 207.018 1.60534 4.32145 0
M  V30 2308 H 210.562 5.0173 4.84678 0
M  V30 2309 H 206.459 3.83251 5.19412 0
M  V30 2310 H 207.227 5.83542 5.73952 0
M  V30 2311 N 209.89 -1.43072 0.660911 0
M  V30 2312 C 210.838 -2.32569 -0.0378199 0
M  V30 2313 C 211.832 -1.49046 -0.805092 0
M  V30 2314 O 213.038 -1.65206 -0.714624 0
M  V30 2315 H 209.413 -0.75136 -0.031019 0
M  V30 2316 H 211.384 -2.89216 0.734609 0
M  V30 2317 C 210.133 -3.33453 -0.985124 0
M  V30 2318 H 209.456 -3.97752 -0.404147 0
M  V30 2319 H 210.896 -3.98691 -1.44297 0
M  V30 2320 C 209.355 -2.64642 -2.08486 0
M  V30 2321 O 209.885 -2.46776 -3.16961 0
M  V30 2322 N 208.091 -2.23891 -1.8526 0
M  V30 2323 H 207.638 -2.38621 -0.970449 0
M  V30 2324 H 207.596 -1.78181 -2.59034 0
M  V30 2325 N 211.368 -0.403325 -1.52352 0
M  V30 2326 C 212.616 0.174003 -2.0135 0
M  V30 2327 C 212.937 1.46139 -1.29106 0
M  V30 2328 O 212.207 1.91448 -0.415253 0
M  V30 2329 H 210.787 0.0672911 -0.743963 0
M  V30 2330 H 213.449 -0.538235 -1.87321 0
M  V30 2331 H 212.545 0.374254 -3.09848 0
M  V30 2332 N 212.846 1.57033 -0.133567 0
M  V30 2333 C 213.779 2.11824 0.848872 0
M  V30 2334 C 214.757 1.03833 1.2513 0
M  V30 2335 O 215.941 1.31579 1.34978 0
M  V30 2336 C 213.068 2.62692 2.138 0
M  V30 2337 C 212.114 3.82705 1.88253 0
M  V30 2338 S 212.947 5.2438 1.08563 0
M  V30 2339 C 214.103 5.78627 2.38624 0
M  V30 2340 H 214.336 2.94824 0.38289 0
M  V30 2341 H 211.869 1.5419 0.0804796 0
M  V30 2342 H 213.827 2.92652 2.87863 0
M  V30 2343 H 212.488 1.79847 2.57515 0
M  V30 2344 H 211.681 4.16496 2.83809 0
M  V30 2345 H 211.283 3.53437 1.22305 0
M  V30 2346 H 213.575 5.8924 3.34369 0
M  V30 2347 H 214.518 6.76443 2.09358 0
M  V30 2348 H 214.926 5.06783 2.48658 0
M  V30 2349 N 214.325 -0.140222 1.56975 0
M  V30 2350 C 215.574 -0.850152 1.82908 0
M  V30 2351 C 215.887 -1.82028 0.715892 0
M  V30 2352 O 217.093 -2.57485 0.861016 0
M  V30 2353 C 215.549 -1.5625 3.24213 0
M  V30 2354 C 215.157 -0.63443 4.43485 0
M  V30 2355 C 216.901 -2.25881 3.59413 0
M  V30 2356 C 214.808 -1.34879 5.75814 0
M  V30 2357 H 213.738 -0.321221 0.682153 0
M  V30 2358 H 216.389 -0.102874 1.83211 0
M  V30 2359 H 214.771 -2.35565 3.18316 0
M  V30 2360 H 215.945 0.12398 4.60633 0
M  V30 2361 H 214.26 -0.0461836 4.16374 0
M  V30 2362 H 216.857 -2.79978 4.5554 0
M  V30 2363 H 217.2 -3.02693 2.85802 0
M  V30 2364 H 217.733 -1.53477 3.67001 0
M  V30 2365 H 214.472 -0.622385 6.52539 0
M  V30 2366 H 213.992 -2.07974 5.6259 0
M  V30 2367 H 215.671 -1.88784 6.18845 0
M  V30 2368 N 215.803 -1.52179 -0.40978 0
M  V30 2369 C 217.031 -1.70054 -1.17853 0
M  V30 2370 C 217.446 -0.409735 -1.843 0
M  V30 2371 O 216.803 0.614183 -1.71855 0
M  V30 2372 C 216.854 -2.83568 -2.24213 0
M  V30 2373 O 216.575 -4.0765 -1.60478 0
M  V30 2374 C 218.076 -3.12947 -3.13973 0
M  V30 2375 H 215.296 -0.569917 -0.354169 0
M  V30 2376 H 217.84 -1.98734 -0.482198 0
M  V30 2377 H 215.995 -2.57409 -2.89516 0
M  V30 2378 H 216.409 -4.70899 -2.30986 0
M  V30 2379 H 217.883 -3.95889 -3.84677 0
M  V30 2380 H 218.36 -2.26472 -3.76307 0
M  V30 2381 H 218.966 -3.40868 -2.5434 0
M  V30 2382 N 217.281 0.66697 -1.42791 0
M  V30 2383 C 218.527 1.42754 -1.44889 0
M  V30 2384 C 218.882 1.92283 -0.0669755 0
M  V30 2385 O 218.175 1.68494 0.912154 0
M  V30 2386 C 218.369 2.6349 -2.4147 0
M  V30 2387 C 218.198 2.25776 -3.88915 0
M  V30 2388 C 216.968 2.1476 -4.57391 0
M  V30 2389 C 219.166 1.86927 -4.79127 0
M  V30 2390 N 217.148 1.70232 -5.89826 0
M  V30 2391 C 218.519 1.53378 -6.00729 0
M  V30 2392 C 220.574 1.73989 -4.66511 0
M  V30 2393 C 219.277 1.08187 -7.11117 0
M  V30 2394 C 221.303 1.30203 -5.76889 0
M  V30 2395 C 220.665 0.975818 -6.97608 0
M  V30 2396 H 216.764 0.518559 -0.585338 0
M  V30 2397 H 219.348 0.768906 -1.78874 0
M  V30 2398 H 217.519 3.27033 -2.09533 0
M  V30 2399 H 219.251 3.30123 -2.34096 0
M  V30 2400 H 216.006 2.3408 -4.11708 0
M  V30 2401 H 216.43 1.50369 -6.6009 0
M  V30 2402 H 221.072 1.97853 -3.7365 0
M  V30 2403 H 218.79 0.830701 -8.03819 0
M  V30 2404 H 222.376 1.20701 -5.69142 0
M  V30 2405 H 221.256 0.642157 -7.81566 0
M  V30 2406 N 218.759 1.29093 0.90403 0
M  V30 2407 C 219.987 1.19689 1.68766 0
M  V30 2408 C 220.402 -0.243113 1.87228 0
M  V30 2409 O 219.759 -1.16326 1.40621 0
M  V30 2410 C 219.81 1.90144 3.07453 0
M  V30 2411 O 219.531 3.2852 2.89838 0
M  V30 2412 C 221.032 1.87162 4.01852 0
M  V30 2413 H 218.252 0.415035 0.527244 0
M  V30 2414 H 220.796 1.7039 1.13082 0
M  V30 2415 H 218.951 1.43289 3.59926 0
M  V30 2416 H 219.365 3.63944 3.77684 0
M  V30 2417 H 220.839 2.41032 4.96596 0
M  V30 2418 H 221.316 0.84617 4.30972 0
M  V30 2419 H 221.922 2.33741 3.5531 0
M  V30 2420 N 220.237 -1.11381 1.11499 0
M  V30 2421 C 221.648 -1.6465 0.880191 0
M  V30 2422 C 221.999 -1.87199 -0.587434 0
M  V30 2423 O 221.124 -1.60667 -1.44966 0
M  V30 2424 C 221.719 -2.99105 1.59128 0
M  V30 2425 C 220.278 -3.49279 1.40289 0
M  V30 2426 C 219.425 -2.24077 1.63354 0
M  V30 2427 H 222.376 -0.950123 1.27116 0
M  V30 2428 H 222.397 -3.66107 1.03664 0
M  V30 2429 H 221.909 -2.82661 2.65941 0
M  V30 2430 H 220.01 -3.70887 0.356888 0
M  V30 2431 H 220.123 -4.2803 2.15238 0
M  V30 2432 H 218.487 -2.31733 1.05698 0
M  V30 2433 H 219.27 -2.10175 2.71443 0
M  V30 2434 N 221.715 -0.905404 -1.28997 0
M  V30 2435 C 223.126 -0.581953 -1.77398 0
M  V30 2436 C 223.477 0.902552 -1.74208 0
M  V30 2437 O 222.602 1.70584 -1.33154 0
M  V30 2438 C 223.197 -1.04961 -3.22131 0
M  V30 2439 C 221.756 -0.777229 -3.68288 0
M  V30 2440 C 220.903 -1.22109 -2.48967 0
M  V30 2441 H 223.854 -1.08754 -1.15578 0
M  V30 2442 H 223.875 -0.387387 -3.78523 0
M  V30 2443 H 223.387 -2.13008 -3.24421 0
M  V30 2444 H 221.488 0.290383 -3.71467 0
M  V30 2445 H 221.601 -1.37911 -4.58822 0
M  V30 2446 H 219.965 -0.639971 -2.46529 0
M  V30 2447 H 220.748 -2.30972 -2.53982 0
M  V30 2448 N 223.193 1.4272 -0.668489 0
M  V30 2449 C 224.156 2.292 0.00448567 0
M  V30 2450 C 225.156 1.43001 0.735339 0
M  V30 2451 O 226.346 1.64461 0.57429 0
M  V30 2452 C 223.478 3.25375 1.01705 0
M  V30 2453 H 224.671 2.90199 -0.756608 0
M  V30 2454 H 222.224 1.50254 -0.430506 0
M  V30 2455 H 222.959 2.69301 1.80686 0
M  V30 2456 H 222.744 3.88944 0.496463 0
M  V30 2457 H 224.234 3.90245 1.48655 0
M  V30 2458 N 224.671 0.411399 1.52136 0
M  V30 2459 C 225.92 -0.165009 2.01024 0
M  V30 2460 C 226.233 -1.4603 1.30133 0
M  V30 2461 O 227.439 -2.1181 1.69849 0
M  V30 2462 C 225.895 -0.344618 3.58246 0
M  V30 2463 C 225.503 0.938716 4.38055 0
M  V30 2464 C 227.247 -0.876195 4.15359 0
M  V30 2465 C 225.154 0.726172 5.86925 0
M  V30 2466 H 224.084 -0.0654407 0.751155 0
M  V30 2467 H 226.735 0.537192 1.75461 0
M  V30 2468 H 225.117 -1.10921 3.80148 0
M  V30 2469 H 226.291 1.70963 4.27912 0
M  V30 2470 H 224.606 1.39688 3.92271 0
M  V30 2471 H 227.203 -1.05128 5.24263 0
M  V30 2472 H 227.546 -1.85152 3.7286 0
M  V30 2473 H 228.079 -0.170607 3.97434 0
M  V30 2474 H 224.818 1.67312 6.33788 0
M  V30 2475 H 224.338 -0.00540283 5.998 0
M  V30 2476 H 226.017 0.369231 6.45946 0
M  V30 2477 N 226.149 -1.5696 0.141893 0
M  V30 2478 C 227.396 -1.9596 -0.510492 0
M  V30 2479 C 227.724 -1.02648 -1.65208 0
M  V30 2480 O 226.979 -0.0546947 -1.95624 0
M  V30 2481 C 227.278 -3.41242 -1.06249 0
M  V30 2482 C 226.944 -4.50882 -0.0398791 0
M  V30 2483 C 225.606 -4.80595 0.241247 0
M  V30 2484 C 227.958 -5.17058 0.65578 0
M  V30 2485 C 225.286 -5.73792 1.22393 0
M  V30 2486 C 227.638 -6.11313 1.62724 0
M  V30 2487 C 226.302 -6.39407 1.91612 0
M  V30 2488 H 225.572 -0.717068 -0.186802 0
M  V30 2489 H 228.219 -1.90142 0.227643 0
M  V30 2490 H 226.524 -3.43866 -1.87785 0
M  V30 2491 H 228.221 -3.68742 -1.57576 0
M  V30 2492 H 224.811 -4.27754 -0.269174 0
M  V30 2493 H 228.995 -4.94239 0.451779 0
M  V30 2494 H 224.251 -5.93853 1.45424 0
M  V30 2495 H 228.425 -6.61668 2.17183 0
M  V30 2496 H 226.052 -7.11427 2.6791 0
M  V30 2497 N 227.627 0.131896 -1.57047 0
M  V30 2498 C 228.574 1.16236 -1.99393 0
M  V30 2499 C 229.544 1.41863 -0.863943 0
M  V30 2500 O 230.729 1.53946 -1.12718 0
M  V30 2501 C 227.869 2.48708 -2.39245 0
M  V30 2502 C 226.982 2.30127 -3.65603 0
M  V30 2503 C 226.117 3.55738 -3.94492 0
M  V30 2504 C 225.156 3.32259 -5.14073 0
M  V30 2505 N 224.293 4.50039 -5.38896 0
M  V30 2506 H 229.133 0.794251 -2.87221 0
M  V30 2507 H 226.67 0.380707 -1.42088 0
M  V30 2508 H 228.628 3.25969 -2.60384 0
M  V30 2509 H 227.258 2.83437 -1.54478 0
M  V30 2510 H 226.31 1.43845 -3.52154 0
M  V30 2511 H 227.622 2.08746 -4.5302 0
M  V30 2512 H 226.776 4.41423 -4.1621 0
M  V30 2513 H 225.515 3.80138 -3.05526 0
M  V30 2514 H 224.52 2.44963 -4.92212 0
M  V30 2515 H 225.745 3.09242 -6.04604 0
M  V30 2516 H 223.691 4.74584 -4.52886 0
M  V30 2517 H 223.608 4.31716 -6.2061 0
M  V30 2518 H 224.876 5.36895 -5.65123 0
M  V30 2519 N 229.106 1.52395 0.401703 0
M  V30 2520 C 230.331 1.70972 1.17403 0
M  V30 2521 C 230.756 0.421615 1.83314 0
M  V30 2522 O 230.114 -0.621564 1.70312 0
M  V30 2523 C 230.162 2.85151 2.20728 0
M  V30 2524 O 229.266 2.51238 3.27037 0
M  V30 2525 H 228.607 0.568927 0.342372 0
M  V30 2526 H 231.137 1.99131 0.469891 0
M  V30 2527 H 231.147 3.10279 2.64936 0
M  V30 2528 H 229.822 3.78603 1.7214 0
M  V30 2529 H 228.399 2.36808 2.88057 0
M  V30 2530 N 230.584 -0.659388 1.43143 0
M  V30 2531 C 231.809 -1.45221 1.48073 0
M  V30 2532 C 232.234 -1.87845 0.097995 0
M  V30 2533 O 231.592 -1.56985 -0.90694 0
M  V30 2534 C 231.64 -2.66748 2.42647 0
M  V30 2535 O 230.744 -3.65583 1.90848 0
M  V30 2536 H 230.085 -0.435669 0.501088 0
M  V30 2537 H 232.615 -0.807432 1.87994 0
M  V30 2538 H 232.625 -3.14637 2.59745 0
M  V30 2539 H 231.3 -2.35067 3.43098 0
M  V30 2540 H 229.877 -3.24693 1.83381 0
M  V30 2541 N 232.062 -1.29571 -0.897171 0
M  V30 2542 C 233.302 -1.18959 -1.66217 0
M  V30 2543 C 233.666 0.254271 -1.90309 0
M  V30 2544 O 234.867 0.483407 -2.64417 0
M  V30 2545 C 233.138 -1.98302 -2.9734 0
M  V30 2546 S 234.697 -2.04253 -3.88364 0
M  V30 2547 H 231.515 -0.424137 -0.570639 0
M  V30 2548 H 234.117 -1.6389 -1.06585 0
M  V30 2549 H 232.821 -3.02342 -2.77521 0
M  V30 2550 H 232.352 -1.53986 -3.62011 0
M  V30 2551 H 234.367 -1.16105 -4.82425 0
M  V30 2552 N 233.54 1.10788 -1.12088 0
M  V30 2553 C 234.951 1.64181 -0.88891 0
M  V30 2554 C 235.302 1.87508 0.577498 0
M  V30 2555 O 234.427 1.61434 1.44112 0
M  V30 2556 C 235.022 2.98257 -1.60712 0
M  V30 2557 C 233.581 3.4853 -1.42139 0
M  V30 2558 C 232.728 2.23208 -1.6454 0
M  V30 2559 H 235.679 0.943368 -1.27618 0
M  V30 2560 H 235.7 3.65552 -1.05604 0
M  V30 2561 H 235.212 2.81246 -2.67436 0
M  V30 2562 H 233.313 3.70692 -0.376552 0
M  V30 2563 H 233.426 4.26882 -2.17505 0
M  V30 2564 H 231.79 2.31169 -1.06925 0
M  V30 2565 H 232.573 2.08733 -2.72554 0
M  V30 2566 N 235.018 0.912232 1.28515 0
M  V30 2567 C 235.951 0.343928 2.25593 0
M  V30 2568 C 236.929 -0.550994 1.5298 0
M  V30 2569 O 238.113 -0.494991 1.81885 0
M  V30 2570 C 235.24 -0.508525 3.34861 0
M  V30 2571 C 234.286 0.320808 4.25292 0
M  V30 2572 S 235.119 1.72658 5.06902 0
M  V30 2573 C 236.275 0.881394 6.19663 0
M  V30 2574 H 236.508 1.16674 2.73449 0
M  V30 2575 H 234.041 0.713384 1.36931 0
M  V30 2576 H 235.999 -0.994539 3.9827 0
M  V30 2577 H 234.66 -1.30571 2.85675 0
M  V30 2578 H 233.853 -0.330941 5.02912 0
M  V30 2579 H 233.455 0.74042 3.66598 0
M  V30 2580 H 235.747 0.110359 6.7741 0
M  V30 2581 H 236.69 1.63009 6.89082 0
M  V30 2582 H 237.098 0.430239 5.62858 0
M  V30 2583 N 236.496 -1.42363 0.676048 0
M  V30 2584 C 237.773 -1.95183 0.127726 0
M  V30 2585 C 238.153 -1.61641 -1.35777 0
M  V30 2586 O 237.501 -0.913216 -2.09458 0
M  V30 2587 C 237.711 -3.46721 0.398199 0
M  V30 2588 C 239.059 -4.23427 0.315383 0
M  V30 2589 O 240.083 -3.54649 0.332016 0
M  V30 2590 O 238.942 -5.45888 0.25865 0
M  V30 2591 H 236.036 -0.826992 0.00359427 0
M  V30 2592 H 238.582 -1.52184 0.750864 0
M  V30 2593 H 237.354 -3.64344 1.4272 0
M  V30 2594 H 236.977 -3.96769 -0.256885 0
M  V30 2595 N 237.974 -0.419461 -1.51915 0
M  V30 2596 C 239.223 0.154346 -2.01109 0
M  V30 2597 C 239.536 1.45338 -1.30905 0
M  V30 2598 O 240.742 2.10906 -1.7097 0
M  V30 2599 C 239.198 0.325615 -3.58424 0
M  V30 2600 C 238.806 -0.961934 -4.37551 0
M  V30 2601 C 240.55 0.854155 -4.15818 0
M  V30 2602 C 238.457 -0.757287 -5.86531 0
M  V30 2603 H 237.387 0.0614563 -0.751491 0
M  V30 2604 H 240.038 -0.54649 -1.75173 0
M  V30 2605 H 238.42 1.08903 -3.80731 0
M  V30 2606 H 239.594 -1.7323 -4.26999 0
M  V30 2607 H 237.909 -1.41766 -3.91524 0
M  V30 2608 H 240.506 1.02346 -5.24814 0
M  V30 2609 H 240.849 1.83172 -3.73837 0
M  V30 2610 H 241.382 0.149528 -3.97519 0
M  V30 2611 H 238.121 -1.70671 -6.32892 0
M  V30 2612 H 237.641 -0.0264061 -5.99794 0
M  V30 2613 H 239.32 -0.403482 -6.45741 0
M  V30 2614 N 239.452 1.56882 -0.150215 0
M  V30 2615 C 240.68 2.00593 0.506948 0
M  V30 2616 C 241.095 1.03033 1.58208 0
M  V30 2617 O 240.452 0.0278396 1.82479 0
M  V30 2618 C 240.503 3.44209 1.10465 0
M  V30 2619 O 240.224 4.3804 0.0724636 0
M  V30 2620 C 241.725 4.03214 1.84211 0
M  V30 2621 H 238.945 0.65795 0.13169 0
M  V30 2622 H 241.489 2.03018 -0.245743 0
M  V30 2623 H 239.644 3.42625 1.80795 0
M  V30 2624 H 240.058 5.22007 0.510793 0
M  V30 2625 H 241.532 5.0569 2.21318 0
M  V30 2626 H 242.009 3.44107 2.72923 0
M  V30 2627 H 242.615 4.08437 1.18572 0
M  V30 2628 N 240.93 -0.123565 1.57115 0
M  V30 2629 C 242.177 -0.832153 1.84612 0
M  V30 2630 C 242.505 -1.80093 0.734627 0
M  V30 2631 O 241.76 -1.93766 -0.27442 0
M  V30 2632 C 242.059 -1.62016 3.18568 0
M  V30 2633 C 241.725 -0.796084 4.43817 0
M  V30 2634 C 240.387 -0.568816 4.77826 0
M  V30 2635 C 242.739 -0.221364 5.2073 0
M  V30 2636 C 240.067 0.243499 5.86194 0
M  V30 2637 C 242.419 0.578117 6.29953 0
M  V30 2638 C 241.083 0.815744 6.62497 0
M  V30 2639 H 240.353 -0.304507 0.675542 0
M  V30 2640 H 243 -0.0947248 1.91266 0
M  V30 2641 H 241.305 -2.42837 3.0747 0
M  V30 2642 H 243.002 -2.17231 3.37064 0
M  V30 2643 H 239.592 -0.983307 4.17168 0
M  V30 2644 H 243.776 -0.384173 4.94811 0
M  V30 2645 H 239.032 0.436871 6.09837 0
M  V30 2646 H 243.206 1.03046 6.88734 0
M  V30 2647 H 240.833 1.44701 7.46301 0
M  V30 2648 N 242.408 -1.52605 -0.393616 0
M  V30 2649 C 243.655 -1.67424 -1.1391 0
M  V30 2650 C 243.983 -0.411859 -1.90089 0
M  V30 2651 O 243.238 0.605626 -1.86093 0
M  V30 2652 C 243.537 -2.85721 -2.14705 0
M  V30 2653 C 243.203 -4.23342 -1.55218 0
M  V30 2654 C 241.865 -4.60771 -1.3872 0
M  V30 2655 C 244.217 -5.09041 -1.11924 0
M  V30 2656 C 241.545 -5.81563 -0.774689 0
M  V30 2657 C 243.897 -6.30452 -0.520853 0
M  V30 2658 C 242.561 -6.66617 -0.343134 0
M  V30 2659 H 241.831 -0.612648 -0.416826 0
M  V30 2660 H 244.478 -1.8674 -0.424315 0
M  V30 2661 H 242.783 -2.60803 -2.92385 0
M  V30 2662 H 244.48 -2.94382 -2.72288 0
M  V30 2663 H 241.07 -3.93855 -1.69045 0
M  V30 2664 H 245.254 -4.80695 -1.23473 0
M  V30 2665 H 240.51 -6.08196 -0.625154 0
M  V30 2666 H 244.684 -6.96175 -0.177065 0
M  V30 2667 H 242.311 -7.60083 0.133571 0
M  V30 2668 N 243.887 0.651787 -1.4349 0
M  V30 2669 C 245.298 1.233 -1.40193 0
M  V30 2670 C 245.649 1.9591 -0.106727 0
M  V30 2671 O 244.774 2.01316 0.793773 0
M  V30 2672 C 245.369 2.24257 -2.53957 0
M  V30 2673 C 243.928 2.77852 -2.5392 0
M  V30 2674 C 243.075 1.52517 -2.3159 0
M  V30 2675 H 246.026 0.443717 -1.52371 0
M  V30 2676 H 246.047 3.0646 -2.25528 0
M  V30 2677 H 245.559 1.71382 -3.4821 0
M  V30 2678 H 243.66 3.34786 -1.63551 0
M  V30 2679 H 243.773 3.25299 -3.51735 0
M  V30 2680 H 242.137 1.79915 -1.80285 0
M  V30 2681 H 242.92 1.01574 -3.27929 0
M  V30 2682 N 245.365 1.30045 0.890287 0
M  V30 2683 C 246.612 1.18561 1.64163 0
M  V30 2684 C 246.94 -0.260852 1.92743 0
M  V30 2685 O 246.195 -1.20376 1.54299 0
M  V30 2686 C 246.494 1.95409 2.99249 0
M  V30 2687 C 246.16 3.45066 2.90242 0
M  V30 2688 C 244.822 3.85878 2.87492 0
M  V30 2689 C 247.174 4.4039 2.78758 0
M  V30 2690 C 244.502 5.20314 2.7109 0
M  V30 2691 C 246.854 5.74928 2.63894 0
M  V30 2692 C 245.518 6.14986 2.59516 0
M  V30 2693 H 244.788 0.433846 0.600715 0
M  V30 2694 H 247.435 1.61088 1.03552 0
M  V30 2695 H 245.74 1.45501 3.63781 0
M  V30 2696 H 247.437 1.8392 3.56334 0
M  V30 2697 H 244.027 3.12631 2.93189 0
M  V30 2698 H 248.211 4.09806 2.79952 0
M  V30 2699 H 243.467 5.50449 2.66112 0
M  V30 2700 H 247.641 6.48434 2.53981 0
M  V30 2701 H 245.268 7.19104 2.46565 0
M  V30 2702 N 246.843 -1.10192 1.12674 0
M  V30 2703 C 248.12 -1.78717 0.794965 0
M  V30 2704 C 248.5 -1.98628 -0.714853 0
M  V30 2705 O 247.848 -1.58135 -1.64941 0
M  V30 2706 C 248.058 -3.11546 1.5729 0
M  V30 2707 C 249.406 -3.86382 1.76052 0
M  V30 2708 O 250.43 -3.21274 1.53823 0
M  V30 2709 O 249.289 -5.03246 2.13087 0
M  V30 2710 H 246.383 -0.774702 0.289423 0
M  V30 2711 H 248.929 -1.16819 1.23091 0
M  V30 2712 H 247.701 -2.92489 2.59935 0
M  V30 2713 H 247.324 -3.81164 1.13137 0
M  V30 2714 N 248.321 -0.919034 -1.28029 0
M  V30 2715 C 249.271 -0.382574 -2.24767 0
M  V30 2716 C 250.255 0.508286 -1.52661 0
M  V30 2717 O 251.447 0.347145 -1.73562 0
M  V30 2718 C 248.576 0.371432 -3.41285 0
M  V30 2719 C 247.662 -0.535449 -4.20706 0
M  V30 2720 N 248.053 -1.65141 -4.78082 0
M  V30 2721 C 246.351 -0.336824 -4.44726 0
M  V30 2722 C 247.052 -2.21475 -5.37888 0
M  V30 2723 N 246.028 -1.50537 -5.22341 0
M  V30 2724 H 249.83 -1.23477 -2.66703 0
M  V30 2725 H 247.344 -0.772299 -1.42861 0
M  V30 2726 H 249.341 0.772638 -4.09678 0
M  V30 2727 H 248.001 1.22066 -3.00882 0
M  V30 2728 H 249.012 -2.03392 -4.7629 0
M  V30 2729 H 245.689 0.47246 -4.14818 0
M  V30 2730 H 247.079 -3.15379 -5.93284 0
M  V30 2731 N 249.799 1.42003 -0.683588 0
M  V30 2732 C 250.731 2.29183 0.0283068 0
M  V30 2733 C 251.744 1.4415 0.756611 0
M  V30 2734 O 252.933 1.67779 0.609306 0
M  V30 2735 C 250.033 3.21765 1.06398 0
M  V30 2736 C 249.206 4.35496 0.407723 0
M  V30 2737 C 248.265 5.08737 1.34437 0
M  V30 2738 O 247.291 5.62948 0.841318 0
M  V30 2739 N 248.493 5.15075 2.67728 0
M  V30 2740 H 251.258 2.9092 -0.720105 0
M  V30 2741 H 248.819 1.53025 -0.528682 0
M  V30 2742 H 250.811 3.6763 1.69204 0
M  V30 2743 H 249.381 2.61418 1.71404 0
M  V30 2744 H 248.601 3.92165 -0.400012 0
M  V30 2745 H 249.889 5.08776 -0.0490956 0
M  V30 2746 H 249.287 4.72457 3.11129 0
M  V30 2747 H 247.844 5.64556 3.2576 0
M  V30 2748 N 251.277 0.427512 1.51691 0
M  V30 2749 C 252.225 -0.403359 2.29076 0
M  V30 2750 C 253.219 -1.02962 1.34518 0
M  V30 2751 O 254.425 -0.965715 1.51901 0
M  V30 2752 H 250.8 -0.148879 0.737115 0
M  V30 2753 H 252.771 0.270295 2.97173 0
M  V30 2754 C 251.52 -1.49763 3.13794 0
M  V30 2755 H 250.843 -1.02508 3.86435 0
M  V30 2756 H 252.283 -2.05244 3.71014 0
M  V30 2757 C 250.742 -2.47536 2.28533 0
M  V30 2758 O 251.272 -3.51848 1.93819 0
M  V30 2759 N 249.478 -2.18187 1.91945 0
M  V30 2760 H 249.025 -1.33389 2.20375 0
M  V30 2761 H 248.983 -2.83848 1.35195 0
M  V30 2762 N 252.755 -1.56801 0.158532 0
M  V30 2763 C 253.995 -1.98383 -0.49229 0
M  V30 2764 C 254.359 -1.04184 -1.61275 0
M  V30 2765 O 255.56 -1.34856 -2.32524 0
M  V30 2766 C 253.831 -3.4385 -0.974766 0
M  V30 2767 S 255.39 -4.07459 -1.62857 0
M  V30 2768 H 252.208 -0.693041 -0.158794 0
M  V30 2769 H 254.81 -1.93856 0.252974 0
M  V30 2770 H 253.514 -4.10131 -0.148688 0
M  V30 2771 H 253.045 -3.52115 -1.75438 0
M  V30 2772 H 255.06 -4.01458 -2.91627 0
M  V30 2773 N 254.233 0.115231 -1.57178 0
M  V30 2774 C 255.458 0.840354 -1.89612 0
M  V30 2775 C 255.883 1.72464 -0.750845 0
M  V30 2776 O 255.241 1.78826 0.298478 0
M  V30 2777 C 255.289 1.64654 -3.20814 0
M  V30 2778 O 254.393 2.7538 -3.06985 0
M  V30 2779 H 253.734 0.232158 -0.622092 0
M  V30 2780 H 256.264 0.0964977 -2.04372 0
M  V30 2781 H 256.274 2.03499 -3.53627 0
M  V30 2782 H 254.949 0.997416 -4.03763 0
M  V30 2783 H 253.526 2.3971 -2.85646 0
M  V30 2784 N 255.711 1.52812 0.385517 0
M  V30 2785 C 256.641 1.80808 1.47752 0
M  V30 2786 C 257.622 0.660318 1.5676 0
M  V30 2787 O 258.807 0.908246 1.71652 0
M  V30 2788 C 255.937 1.98008 2.85324 0
M  V30 2789 C 254.891 3.13709 2.91154 0
M  V30 2790 C 254.217 3.16169 4.31209 0
M  V30 2791 C 255.517 4.52709 2.60483 0
M  V30 2792 H 257.211 2.72253 1.24573 0
M  V30 2793 H 254.757 1.31003 0.597839 0
M  V30 2794 H 256.71 2.16176 3.61726 0
M  V30 2795 H 255.434 1.03255 3.09848 0
M  V30 2796 H 254.093 2.95329 2.17201 0
M  V30 2797 H 253.741 2.19092 4.52778 0
M  V30 2798 H 253.441 3.93894 4.36029 0
M  V30 2799 H 254.965 3.36496 5.09512 0
M  V30 2800 H 256.379 4.71173 3.26602 0
M  V30 2801 H 254.776 5.32528 2.76648 0
M  V30 2802 H 255.846 4.59186 1.55809 0
M  V30 2803 N 257.189 -0.644168 1.43834 0
M  V30 2804 C 258.136 -1.75671 1.49694 0
M  V30 2805 C 259.106 -1.6246 0.345809 0
M  V30 2806 O 260.291 -1.82573 0.554234 0
M  V30 2807 C 257.431 -3.13867 1.43463 0
M  V30 2808 C 256.544 -3.38147 2.6885 0
M  V30 2809 C 255.679 -4.66241 2.54544 0
M  V30 2810 C 254.718 -4.83657 3.75157 0
M  V30 2811 N 253.855 -6.03016 3.59605 0
M  V30 2812 H 258.695 -1.69998 2.44754 0
M  V30 2813 H 256.232 -0.829458 1.21484 0
M  V30 2814 H 258.19 -3.9377 1.37843 0
M  V30 2815 H 256.82 -3.18588 0.519783 0
M  V30 2816 H 255.872 -2.52276 2.84712 0
M  V30 2817 H 257.184 -3.46899 3.58417 0
M  V30 2818 H 256.338 -5.54285 2.46683 0
M  V30 2819 H 255.077 -4.59826 1.62516 0
M  V30 2820 H 254.082 -3.94046 3.83416 0
M  V30 2821 H 255.307 -4.91896 4.68204 0
M  V30 2822 H 253.253 -5.97715 2.7032 0
M  V30 2823 H 253.17 -6.12766 4.42779 0
M  V30 2824 H 254.438 -6.93657 3.55613 0
M  V30 2825 N 258.668 -1.30515 -0.883378 0
M  V30 2826 C 259.915 -1.1943 -1.63532 0
M  V30 2827 C 260.243 0.250627 -1.92878 0
M  V30 2828 O 259.498 1.19556 -1.54935 0
M  V30 2829 C 259.797 -1.96994 -2.98209 0
M  V30 2830 C 259.463 -3.466 -2.88408 0
M  V30 2831 C 258.125 -3.87397 -2.85442 0
M  V30 2832 C 260.477 -4.41863 -2.76418 0
M  V30 2833 C 257.805 -5.21745 -2.68327 0
M  V30 2834 C 260.157 -5.7632 -2.60841 0
M  V30 2835 C 258.821 -6.16354 -2.56251 0
M  V30 2836 H 258.091 -0.437025 -0.598406 0
M  V30 2837 H 260.738 -1.61635 -1.02696 0
M  V30 2838 H 259.043 -1.47429 -3.63004 0
M  V30 2839 H 260.74 -1.85808 -3.55354 0
M  V30 2840 H 257.33 -3.14182 -2.91527 0
M  V30 2841 H 261.514 -4.11285 -2.77775 0
M  V30 2842 H 256.77 -5.51853 -2.63189 0
M  V30 2843 H 260.944 -6.49772 -2.50538 0
M  V30 2844 H 258.571 -7.20401 -2.42748 0
M  V30 2845 N 260.146 1.09593 -1.13257 0
M  V30 2846 C 261.394 1.81375 -0.891492 0
M  V30 2847 C 261.715 1.86049 0.584009 0
M  V30 2848 O 260.985 1.34481 1.42449 0
M  V30 2849 H 259.565 0.671708 -0.326828 0
M  V30 2850 H 262.227 1.3256 -1.42877 0
M  V30 2851 H 261.323 2.84612 -1.28071 0
M  V30 2852 N 261.624 0.925811 1.2754 0
M  V30 2853 C 262.849 0.580924 1.99098 0
M  V30 2854 C 263.274 -0.833555 1.68622 0
M  V30 2855 O 262.632 -1.55903 0.925422 0
M  V30 2856 C 262.68 0.811186 3.51358 0
M  V30 2857 O 261.784 -0.124129 4.12213 0
M  V30 2858 H 261.125 0.223873 0.625122 0
M  V30 2859 H 263.655 1.24455 1.62395 0
M  V30 2860 H 263.665 0.72601 4.01489 0
M  V30 2861 H 262.34 1.84227 3.72872 0
M  V30 2862 H 260.917 0.0108006 3.72898 0
M  V30 2863 N 263.102 -1.41638 0.69111 0
M  V30 2864 C 264.348 -2.02104 0.229258 0
M  V30 2865 C 264.703 -1.53741 -1.15678 0
M  V30 2866 O 263.996 -0.736849 -1.76865 0
M  V30 2867 C 264.19 -3.56714 0.221277 0
M  V30 2868 C 264.019 -4.20083 1.605 0
M  V30 2869 C 262.789 -4.54566 2.20676 0
M  V30 2870 C 264.987 -4.46587 2.55078 0
M  V30 2871 N 262.969 -5.03199 3.5166 0
M  V30 2872 C 264.34 -4.96946 3.70735 0
M  V30 2873 C 266.395 -4.28593 2.53401 0
M  V30 2874 C 265.098 -5.31203 4.8499 0
M  V30 2875 C 267.124 -4.63936 3.66765 0
M  V30 2876 C 266.486 -5.14463 4.81152 0
M  V30 2877 H 262.585 -0.771256 0.12918 0
M  V30 2878 H 265.169 -1.72251 0.907626 0
M  V30 2879 H 263.34 -3.86051 -0.426562 0
M  V30 2880 H 265.072 -4.03896 -0.254983 0
M  V30 2881 H 261.827 -4.4087 1.73005 0
M  V30 2882 H 262.251 -5.31926 4.18789 0
M  V30 2883 H 266.893 -3.88771 1.66184 0
M  V30 2884 H 264.611 -5.69951 5.72871 0
M  V30 2885 H 268.197 -4.51677 3.66714 0
M  V30 2886 H 267.077 -5.41299 5.67419 0
M  V30 2887 N 264.58 -0.43555 -1.51462 0
M  V30 2888 C 265.808 0.130242 -2.0649 0
M  V30 2889 C 266.223 1.36614 -1.30315 0
M  V30 2890 O 265.58 1.78869 -0.362223 0
M  V30 2891 C 265.631 0.454253 -3.58635 0
M  V30 2892 O 265.352 -0.73259 -4.31931 0
M  V30 2893 C 266.853 1.07091 -4.3017 0
M  V30 2894 H 264.073 0.00871669 -0.670943 0
M  V30 2895 H 266.617 -0.614117 -1.95061 0
M  V30 2896 H 264.772 1.14851 -3.69984 0
M  V30 2897 H 265.186 -0.455787 -5.22516 0
M  V30 2898 H 266.66 1.24764 -5.37716 0
M  V30 2899 H 267.137 2.05144 -3.88346 0
M  V30 2900 H 267.743 0.416089 -4.2326 0
M  V30 2901 N 266.058 1.56714 -0.166846 0
M  V30 2902 C 267.288 2.00828 0.48494 0
M  V30 2903 C 267.696 1.04612 1.57648 0
M  V30 2904 O 267.039 0.0383201 1.8366 0
M  V30 2905 C 267.101 3.4137 1.12723 0
M  V30 2906 C 266.765 4.56654 0.177886 0
M  V30 2907 C 267.762 5.16402 -0.60207 0
M  V30 2908 C 265.447 5.02244 0.0750139 0
M  V30 2909 C 267.441 6.20167 -1.47215 0
M  V30 2910 C 265.128 6.05859 -0.798649 0
M  V30 2911 C 266.126 6.64691 -1.57082 0
M  V30 2912 O 265.814 7.66297 -2.42989 0
M  V30 2913 H 265.546 0.663587 0.128953 0
M  V30 2914 H 268.1 2.03692 -0.264365 0
M  V30 2915 H 266.33 3.35406 1.92457 0
M  V30 2916 H 268.019 3.69466 1.68076 0
M  V30 2917 H 268.785 4.82065 -0.53274 0
M  V30 2918 H 264.664 4.56167 0.665812 0
M  V30 2919 H 268.208 6.66016 -2.07531 0
M  V30 2920 H 264.105 6.39621 -0.869199 0
M  V30 2921 H 264.873 7.83601 -2.36455 0
M  V30 2922 N 267.536 -0.106894 1.57237 0
M  V30 2923 C 268.813 -0.843526 1.76477 0
M  V30 2924 C 269.193 -1.97499 0.745464 0
M  V30 2925 O 268.541 -2.27357 -0.228306 0
M  V30 2926 C 268.751 -1.34903 3.21873 0
M  V30 2927 C 270.099 -1.79654 3.8472 0
M  V30 2928 O 271.123 -1.44554 3.2555 0
M  V30 2929 O 269.982 -2.44515 4.88748 0
M  V30 2930 H 267.076 -0.401468 0.723016 0
M  V30 2931 H 269.622 -0.0896927 1.69463 0
M  V30 2932 H 268.394 -0.53781 3.87586 0
M  V30 2933 H 268.017 -2.16522 3.33473 0
M  V30 2934 N 269.014 -1.53014 -0.377408 0
M  V30 2935 C 269.961 -1.78616 -1.46168 0
M  V30 2936 C 270.931 -0.629917 -1.53692 0
M  V30 2937 O 272.116 -0.870861 -1.69766 0
M  V30 2938 C 269.256 -1.97123 -2.8326 0
M  V30 2939 C 268.369 -3.24831 -2.84796 0
M  V30 2940 C 267.504 -3.33591 -4.13389 0
M  V30 2941 C 266.543 -4.55377 -4.09021 0
M  V30 2942 N 265.68 -4.61355 -5.29241 0
M  V30 2943 H 270.52 -2.71142 -1.23637 0
M  V30 2944 H 268.057 -1.34326 -0.599577 0
M  V30 2945 H 270.015 -2.05839 -3.62886 0
M  V30 2946 H 268.645 -1.07946 -3.04216 0
M  V30 2947 H 267.697 -3.25128 -1.97474 0
M  V30 2948 H 269.009 -4.14523 -2.77439 0
M  V30 2949 H 268.163 -3.41554 -5.01424 0
M  V30 2950 H 266.902 -2.41894 -4.23484 0
M  V30 2951 H 265.907 -4.47527 -3.19373 0
M  V30 2952 H 267.132 -5.48402 -4.00539 0
M  V30 2953 H 265.078 -3.72554 -5.39944 0
M  V30 2954 H 264.995 -5.44935 -5.24006 0
M  V30 2955 H 266.263 -4.73586 -6.19141 0
M  V30 2956 N 270.492 0.636531 -1.44174 0
M  V30 2957 C 271.455 1.73063 -1.50273 0
M  V30 2958 C 272.455 1.56113 -0.385397 0
M  V30 2959 O 273.645 1.61707 -0.64781 0
M  V30 2960 C 270.777 3.12096 -1.37145 0
M  V30 2961 H 271.97 1.69031 -2.47727 0
M  V30 2962 H 269.523 0.849706 -1.31186 0
M  V30 2963 H 270.258 3.21728 -0.407636 0
M  V30 2964 H 270.043 3.25805 -2.18159 0
M  V30 2965 H 271.533 3.91846 -1.44382 0
M  V30 2966 N 271.97 1.30982 0.876444 0
M  V30 2967 C 272.88 1.2003 2.01569 0
M  V30 2968 C 273.896 0.11838 1.73597 0
M  V30 2969 O 275.072 0.33495 1.98595 0
M  V30 2970 C 272.137 0.901637 3.34771 0
M  V30 2971 C 271.198 2.06979 3.76109 0
M  V30 2972 C 270.431 1.78529 5.02954 0
M  V30 2973 O 270.654 0.717296 5.65872 0
M  V30 2974 O 269.588 2.64019 5.40905 0
M  V30 2975 H 273.414 2.15753 2.13739 0
M  V30 2976 H 270.999 1.10658 1.00375 0
M  V30 2977 H 272.881 0.750645 4.1466 0
M  V30 2978 H 271.556 -0.0256141 3.2369 0
M  V30 2979 H 270.463 2.27616 2.96887 0
M  V30 2980 H 271.796 2.97907 3.91807 0
M  V30 2981 N 273.449 -1.08991 1.13837 0
M  V30 2982 C 274.698 -1.80631 0.897509 0
M  V30 2983 C 275.011 -1.86872 -0.57777 0
M  V30 2984 O 276.217 -2.54866 -0.935701 0
M  V30 2985 C 274.673 -3.24517 1.55618 0
M  V30 2986 C 274.281 -3.26529 3.0673 0
M  V30 2987 C 276.025 -4.00882 1.3962 0
M  V30 2988 C 273.932 -4.64965 3.65461 0
M  V30 2989 H 272.862 -0.67691 0.332129 0
M  V30 2990 H 275.513 -1.2246 1.3666 0
M  V30 2991 H 273.895 -3.82778 1.01476 0
M  V30 2992 H 275.069 -2.78008 3.67489 0
M  V30 2993 H 273.384 -2.63656 3.22296 0
M  V30 2994 H 275.981 -5.03167 1.80906 0
M  V30 2995 H 276.324 -4.14896 0.341578 0
M  V30 2996 H 276.857 -3.49075 1.90766 0
M  V30 2997 H 273.596 -4.56153 4.70749 0
M  V30 2998 H 273.116 -5.13792 3.09481 0
M  V30 2999 H 274.795 -5.3394 3.654 0
M  V30 3000 N 274.927 -0.932562 -1.27047 0
M  V30 3001 C 276.204 -0.49377 -1.89265 0
M  V30 3002 C 276.584 1.02833 -1.8436 0
M  V30 3003 O 275.932 1.88461 -1.29209 0
M  V30 3004 C 276.142 -1.04536 -3.32976 0
M  V30 3005 C 277.49 -1.10879 -4.09867 0
M  V30 3006 O 278.514 -0.995327 -3.42011 0
M  V30 3007 O 277.373 -1.28417 -5.31198 0
M  V30 3008 H 274.467 -0.159596 -0.811454 0
M  V30 3009 H 277.013 -1.02457 -1.3528 0
M  V30 3010 H 275.785 -2.08913 -3.30864 0
M  V30 3011 H 275.408 -0.496494 -3.94488 0
M  V30 3012 N 276.405 1.4127 -0.698611 0
M  V30 3013 C 277.335 2.33447 -0.049629 0
M  V30 3014 C 278.316 1.51982 0.763898 0
M  V30 3015 O 279.501 1.80509 0.716257 0
M  V30 3016 C 276.631 3.35828 0.885267 0
M  V30 3017 C 275.585 4.27627 0.178613 0
M  V30 3018 C 274.911 5.20406 1.22807 0
M  V30 3019 C 276.211 5.13459 -0.956933 0
M  V30 3020 H 277.905 2.87966 -0.81951 0
M  V30 3021 H 275.451 1.38461 -0.395538 0
M  V30 3022 H 277.404 3.9924 1.34854 0
M  V30 3023 H 276.128 2.79666 1.68685 0
M  V30 3024 H 274.787 3.65643 -0.26466 0
M  V30 3025 H 274.435 4.60558 2.02226 0
M  V30 3026 H 274.135 5.82661 0.760239 0
M  V30 3027 H 275.659 5.86695 1.69179 0
M  V30 3028 H 277.073 5.70421 -0.573805 0
M  V30 3029 H 275.47 5.8467 -1.35205 0
M  V30 3030 H 276.54 4.50443 -1.79524 0
M  V30 3031 N 277.883 0.443576 1.51229 0
M  V30 3032 C 278.813 -0.355142 2.30783 0
M  V30 3033 C 279.794 -1.0154 1.36468 0
M  V30 3034 O 280.979 -1.01785 1.65389 0
M  V30 3035 C 278.109 -1.45312 3.15439 0
M  V30 3036 C 277.063 -0.916002 4.18083 0
M  V30 3037 C 276.389 -2.1102 4.91299 0
M  V30 3038 C 277.689 0.0538602 5.22272 0
M  V30 3039 H 279.383 0.308767 2.97804 0
M  V30 3040 H 276.929 0.149937 1.43217 0
M  V30 3041 H 278.882 -2.01914 3.69876 0
M  V30 3042 H 277.606 -2.14541 2.46252 0
M  V30 3043 H 276.265 -0.372145 3.64706 0
M  V30 3044 H 275.913 -2.78882 4.18609 0
M  V30 3045 H 275.613 -1.75717 5.60712 0
M  V30 3046 H 277.137 -2.68164 5.48562 0
M  V30 3047 H 278.551 -0.422069 5.71744 0
M  V30 3048 H 276.948 0.319776 5.99247 0
M  V30 3049 H 278.018 0.98858 4.74716 0
M  V30 3050 N 279.361 -1.56624 0.175154 0
M  V30 3051 C 280.61 -1.96173 -0.468921 0
M  V30 3052 C 280.923 -1.06401 -1.64128 0
M  V30 3053 O 282.129 -1.35648 -2.35185 0
M  V30 3054 C 280.585 -3.48833 -0.885633 0
M  V30 3055 C 280.193 -4.47237 0.261343 0
M  V30 3056 C 281.937 -3.97194 -1.49791 0
M  V30 3057 C 279.844 -5.9114 -0.175214 0
M  V30 3058 H 278.774 -0.732455 -0.178958 0
M  V30 3059 H 281.425 -1.81591 0.263997 0
M  V30 3060 H 279.807 -3.58848 -1.67464 0
M  V30 3061 H 280.981 -4.4894 1.03871 0
M  V30 3062 H 279.296 -4.08956 0.783827 0
M  V30 3063 H 281.893 -5.02167 -1.83665 0
M  V30 3064 H 282.236 -3.40351 -2.39722 0
M  V30 3065 H 282.769 -3.90212 -0.773267 0
M  V30 3066 H 279.508 -6.51865 0.689414 0
M  V30 3067 H 279.028 -5.92735 -0.91786 0
M  V30 3068 H 280.707 -6.44044 -0.617792 0
M  V30 3069 N 280.839 0.0985539 -1.57292 0
M  V30 3070 C 282.088 0.801358 -1.85098 0
M  V30 3071 C 282.401 1.80066 -0.763902 0
M  V30 3072 O 283.607 2.55112 -0.928981 0
M  V30 3073 C 282.063 1.47599 -3.28242 0
M  V30 3074 C 281.671 0.516624 -4.45011 0
M  V30 3075 C 283.415 2.16272 -3.65276 0
M  V30 3076 C 281.322 1.19564 -5.79188 0
M  V30 3077 H 280.252 0.303022 -0.69043 0
M  V30 3078 H 282.903 0.0542623 -1.8342 0
M  V30 3079 H 281.285 2.27042 -3.2445 0
M  V30 3080 H 282.459 -0.246065 -4.60143 0
M  V30 3081 H 280.774 -0.064227 -4.1635 0
M  V30 3082 H 283.371 2.67802 -4.62803 0
M  V30 3083 H 283.714 2.95009 -2.93727 0
M  V30 3084 H 284.247 1.43693 -3.70941 0
M  V30 3085 H 280.986 0.449157 -6.53959 0
M  V30 3086 H 280.506 1.92984 -5.67906 0
M  V30 3087 H 282.185 1.7231 -6.23633 0
M  V30 3088 N 282.317 1.53212 0.369288 0
M  V30 3089 C 283.565 1.68881 1.11012 0
M  V30 3090 C 283.886 0.441285 1.89941 0
M  V30 3091 O 283.156 -0.544623 1.88177 0
M  V30 3092 H 281.736 0.622569 0.412816 0
M  V30 3093 H 284.398 1.90391 0.416802 0
M  V30 3094 H 283.494 2.54822 1.80201 0
M  V30 3095 N 283.795 -0.628877 1.44509 0
M  V30 3096 C 285.02 -1.42048 1.5112 0
M  V30 3097 C 285.445 -1.87594 0.137818 0
M  V30 3098 O 284.803 -1.58873 -0.873437 0
M  V30 3099 C 284.851 -2.61541 2.48251 0
M  V30 3100 O 283.955 -3.61453 1.98559 0
M  V30 3101 H 283.296 -0.424942 0.510216 0
M  V30 3102 H 285.826 -0.767374 1.89664 0
M  V30 3103 H 285.836 -3.09057 2.66361 0
M  V30 3104 H 284.511 -2.27736 3.48007 0
M  V30 3105 H 283.088 -3.20731 1.90227 0
M  V30 3106 N 285.273 -1.31445 -0.869486 0
M  V30 3107 C 286.22 -1.19135 -1.97675 0
M  V30 3108 C 287.19 -0.0770266 -1.65921 0
M  V30 3109 O 288.375 -0.249972 -1.89155 0
M  V30 3110 C 285.515 -0.905149 -3.33018 0
M  V30 3111 C 284.628 -2.10285 -3.77365 0
M  V30 3112 C 283.763 -1.75339 -5.01427 0
M  V30 3113 C 282.802 -2.91515 -5.38224 0
M  V30 3114 N 281.939 -2.56762 -6.53466 0
M  V30 3115 H 286.779 -2.13853 -2.07535 0
M  V30 3116 H 284.316 -1.06379 -1.01597 0
M  V30 3117 H 286.274 -0.719765 -4.10944 0
M  V30 3118 H 284.904 0.00519624 -3.228 0
M  V30 3119 H 283.956 -2.39899 -2.95216 0
M  V30 3120 H 285.268 -2.97237 -4.00564 0
M  V30 3121 H 284.422 -1.53266 -5.87022 0
M  V30 3122 H 283.161 -0.855801 -4.80133 0
M  V30 3123 H 282.166 -3.14237 -4.51149 0
M  V30 3124 H 283.391 -3.81985 -5.61484 0
M  V30 3125 H 281.337 -1.69526 -6.33717 0
M  V30 3126 H 281.254 -3.37243 -6.76612 0
M  V30 3127 H 282.522 -2.38083 -7.42251 0
M  V30 3128 N 286.751 1.08385 -1.14413 0
M  V30 3129 C 287.997 1.81044 -0.913834 0
M  V30 3130 C 288.33 1.86004 0.558209 0
M  V30 3131 O 287.605 1.33606 1.4135 0
M  V30 3132 C 287.888 3.26648 -1.51569 0
M  V30 3133 C 287.741 3.29895 -3.0576 0
M  V30 3134 C 289.06 4.23629 -1.19273 0
M  V30 3135 H 286.179 0.65727 -0.333414 0
M  V30 3136 H 288.821 1.26896 -1.41412 0
M  V30 3137 H 286.971 3.72889 -1.09023 0
M  V30 3138 H 288.643 2.91977 -3.57137 0
M  V30 3139 H 286.886 2.69163 -3.40197 0
M  V30 3140 H 287.557 4.32516 -3.42977 0
M  V30 3141 H 290.033 3.85727 -1.56057 0
M  V30 3142 H 288.909 5.23822 -1.64017 0
M  V30 3143 H 289.17 4.41968 -0.108068 0
M  V30 3144 N 288.23 0.939286 1.26551 0
M  V30 3145 C 289.507 0.5038 1.89001 0
M  V30 3146 C 289.887 -1.01854 1.84903 0
M  V30 3147 O 289.235 -1.87773 1.30206 0
M  V30 3148 C 289.445 1.063 3.32417 0
M  V30 3149 C 290.793 1.13051 4.09273 0
M  V30 3150 O 291.817 1.01345 3.41479 0
M  V30 3151 O 290.676 1.31233 5.30509 0
M  V30 3152 H 287.77 0.163897 0.810597 0
M  V30 3153 H 290.316 1.03173 1.34735 0
M  V30 3154 H 289.088 2.10665 3.29752 0
M  V30 3155 H 288.711 0.517408 3.94219 0
M  V30 3156 N 289.708 -1.40897 0.706093 0
M  V30 3157 C 290.641 -2.282 -0.00328781 0
M  V30 3158 C 291.619 -1.42816 -0.77732 0
M  V30 3159 O 292.803 -1.72237 -0.765944 0
M  V30 3160 C 289.93 -3.23226 -1.01205 0
M  V30 3161 C 288.976 -4.25222 -0.329955 0
M  V30 3162 S 289.809 -5.27269 0.935298 0
M  V30 3163 C 290.965 -6.25859 -0.0716061 0
M  V30 3164 H 291.198 -2.88016 0.737143 0
M  V30 3165 H 288.731 -1.46191 0.496756 0
M  V30 3166 H 290.689 -3.78503 -1.58888 0
M  V30 3167 H 289.35 -2.62485 -1.72513 0
M  V30 3168 H 288.543 -4.92023 -1.09221 0
M  V30 3169 H 288.145 -3.73595 0.174069 0
M  V30 3170 H 290.437 -6.71204 -0.921521 0
M  V30 3171 H 291.38 -7.0586 0.562765 0
M  V30 3172 H 291.788 -5.62852 -0.431088 0
M  V30 3173 N 291.186 -0.45159 -1.50991 0
M  V30 3174 C 292.134 0.366864 -2.29689 0
M  V30 3175 C 293.128 1.00809 -1.36139 0
M  V30 3176 O 294.334 0.941427 -1.53418 0
M  V30 3177 H 290.709 0.137133 -0.739391 0
M  V30 3178 H 292.68 -0.317538 -2.96706 0
M  V30 3179 C 291.429 1.44751 -3.16137 0
M  V30 3180 H 290.752 0.963473 -3.88017 0
M  V30 3181 H 292.192 1.99315 -3.74232 0
M  V30 3182 C 290.651 2.43869 -2.32442 0
M  V30 3183 O 291.181 3.4872 -1.99392 0
M  V30 3184 N 289.387 2.15105 -1.95392 0
M  V30 3185 H 288.934 1.29866 -2.22469 0
M  V30 3186 H 288.892 2.81661 -1.39693 0
M  V30 3187 N 292.664 1.56529 -0.183458 0
M  V30 3188 C 293.941 1.88959 0.50536 0
M  V30 3189 C 294.321 1.09523 1.80466 0
M  V30 3190 O 293.669 0.19278 2.27685 0
M  V30 3191 C 293.879 3.41162 0.73547 0
M  V30 3192 C 295.227 4.11155 1.06005 0
M  V30 3193 O 296.251 3.46548 0.823594 0
M  V30 3194 O 295.11 5.25318 1.50675 0
M  V30 3195 H 292.204 0.78441 0.261973 0
M  V30 3196 H 294.75 1.68231 -0.222802 0
M  V30 3197 H 293.522 3.90874 -0.182561 0
M  V30 3198 H 293.145 3.67543 1.51651 0
M  V30 3199 N 294.142 -0.090211 1.57342 0
M  V30 3200 C 295.389 -0.792807 1.86335 0
M  V30 3201 C 295.717 -1.78494 0.772662 0
M  V30 3202 O 294.972 -1.94305 -0.233258 0
M  V30 3203 C 295.271 -1.55222 3.21933 0
M  V30 3204 C 294.937 -0.701765 4.45406 0
M  V30 3205 C 293.599 -0.467334 4.78925 0
M  V30 3206 C 295.951 -0.11086 5.21082 0
M  V30 3207 C 293.279 0.367785 5.85546 0
M  V30 3208 C 295.631 0.711609 6.28585 0
M  V30 3209 C 294.295 0.956086 6.60617 0
M  V30 3210 H 293.565 -0.290109 0.681849 0
M  V30 3211 H 296.212 -0.0541332 1.91423 0
M  V30 3212 H 294.517 -2.3626 3.12551 0
M  V30 3213 H 296.214 -2.10032 3.41595 0
M  V30 3214 H 292.804 -0.894598 4.1916 0
M  V30 3215 H 296.988 -0.279129 4.95514 0
M  V30 3216 H 292.244 0.566128 6.08773 0
M  V30 3217 H 296.418 1.17632 6.86393 0
M  V30 3218 H 294.045 1.60499 7.43064 0
M  V30 3219 N 295.62 -1.53406 -0.361157 0
M  V30 3220 C 296.866 -1.70999 -1.1014 0
M  V30 3221 C 297.221 -0.458425 -1.86859 0
M  V30 3222 O 296.514 0.548654 -1.83577 0
M  V30 3223 C 296.708 -2.90211 -2.08596 0
M  V30 3224 C 296.537 -4.26841 -1.41553 0
M  V30 3225 C 295.307 -4.91621 -1.16778 0
M  V30 3226 C 297.505 -5.07212 -0.850915 0
M  V30 3227 N 295.487 -6.12164 -0.461312 0
M  V30 3228 C 296.858 -6.19394 -0.274046 0
M  V30 3229 C 298.913 -4.92218 -0.750036 0
M  V30 3230 C 297.616 -7.18221 0.393868 0
M  V30 3231 C 299.642 -5.91322 -0.095894 0
M  V30 3232 C 299.004 -7.0283 0.470081 0
M  V30 3233 H 295.103 -0.678939 -0.388028 0
M  V30 3234 H 297.687 -1.90811 -0.38722 0
M  V30 3235 H 295.858 -2.71931 -2.77323 0
M  V30 3236 H 297.59 -2.96606 -2.7533 0
M  V30 3237 H 294.345 -4.50849 -1.45024 0
M  V30 3238 H 294.769 -6.76888 -0.123312 0
M  V30 3239 H 299.411 -4.06192 -1.17337 0
M  V30 3240 H 297.129 -8.03835 0.82914 0
M  V30 3241 H 300.715 -5.81797 -0.0187075 0
M  V30 3242 H 299.595 -7.782 0.968241 0
M  V30 3243 N 297.098 0.621204 -1.44841 0
M  V30 3244 C 298.008 1.7612 -1.5498 0
M  V30 3245 C 299.024 1.68477 -0.434927 0
M  V30 3246 O 300.2 1.89076 -0.693693 0
M  V30 3247 C 297.265 3.1254 -1.50065 0
M  V30 3248 C 296.326 3.31741 -2.72482 0
M  V30 3249 C 295.559 4.61653 -2.67792 0
M  V30 3250 O 295.782 5.431 -1.74352 0
M  V30 3251 O 294.716 4.83271 -3.58794 0
M  V30 3252 H 298.542 1.70518 -2.51311 0
M  V30 3253 H 296.127 0.783643 -1.27198 0
M  V30 3254 H 298.009 3.93844 -1.49882 0
M  V30 3255 H 296.684 3.18663 -0.568806 0
M  V30 3256 H 295.591 2.50077 -2.7823 0
M  V30 3257 H 296.924 3.30486 -3.64746 0
M  V30 3258 N 298.576 1.31904 0.862503 0
M  V30 3259 C 299.524 1.20125 1.9918 0
M  V30 3260 C 300.518 0.107824 1.69056 0
M  V30 3261 O 301.724 0.270223 1.7796 0
M  V30 3262 H 298.099 0.372148 0.65346 0
M  V30 3263 H 300.07 2.15652 2.06244 0
M  V30 3264 C 298.819 0.933099 3.34946 0
M  V30 3265 H 298.142 1.76664 3.5865 0
M  V30 3266 H 299.582 0.890892 4.14535 0
M  V30 3267 C 298.041 -0.364172 3.34926 0
M  V30 3268 O 298.571 -1.37858 3.77304 0
M  V30 3269 N 296.777 -0.383362 2.8806 0
M  V30 3270 H 296.324 0.442651 2.53768 0
M  V30 3271 H 296.282 -1.25123 2.8843 0
M  V30 3272 N 300.054 -1.07777 1.14986 0
M  V30 3273 C 301.279 -1.84558 0.946213 0
M  V30 3274 C 301.704 -1.81323 -0.500362 0
M  V30 3275 O 301.062 -1.20301 -1.35637 0
M  V30 3276 C 301.11 -3.29736 1.45968 0
M  V30 3277 O 300.214 -4.07149 0.65601 0
M  V30 3278 H 299.555 -0.571641 0.33782 0
M  V30 3279 H 302.085 -1.35991 1.52865 0
M  V30 3280 H 302.095 -3.80574 1.47063 0
M  V30 3281 H 300.77 -3.31406 2.51283 0
M  V30 3282 H 299.347 -3.65994 0.714322 0
M  V30 3283 N 301.532 -0.945985 -1.26051 0
M  V30 3284 C 302.442 -0.465633 -2.29933 0
M  V30 3285 C 303.458 0.462761 -1.67733 0
M  V30 3286 O 304.634 0.341118 -1.9849 0
M  V30 3287 C 301.699 0.256994 -3.45746 0
M  V30 3288 C 300.76 -0.708549 -4.23412 0
M  V30 3289 C 299.993 -0.0203135 -5.33696 0
M  V30 3290 O 300.216 1.19571 -5.57726 0
M  V30 3291 O 299.15 -0.701459 -5.97799 0
M  V30 3292 H 302.976 -1.32866 -2.73094 0
M  V30 3293 H 300.561 -0.712071 -1.31339 0
M  V30 3294 H 302.443 0.663852 -4.16138 0
M  V30 3295 H 301.118 1.09533 -3.04605 0
M  V30 3296 H 300.025 -1.16545 -3.55483 0
M  V30 3297 H 301.358 -1.51465 -4.68315 0
M  V30 3298 N 303.011 1.40521 -0.713556 0
M  V30 3299 C 304.257 2.01714 -0.261382 0
M  V30 3300 C 304.612 1.55562 1.13217 0
M  V30 3301 O 303.905 0.764893 1.7567 0
M  V30 3302 C 304.099 3.56317 -0.278 0
M  V30 3303 C 303.928 4.17476 -1.67163 0
M  V30 3304 C 302.698 4.50998 -2.2788 0
M  V30 3305 C 304.896 4.42472 -2.6215 0
M  V30 3306 N 302.878 4.9754 -3.5962 0
M  V30 3307 C 304.249 4.90985 -3.78594 0
M  V30 3308 C 306.304 4.24508 -2.60188 0
M  V30 3309 C 305.007 5.2342 -4.9338 0
M  V30 3310 C 307.033 4.58043 -3.741 0
M  V30 3311 C 306.395 5.06743 -4.89276 0
M  V30 3312 H 302.494 0.769104 -0.141434 0
M  V30 3313 H 305.078 1.70785 -0.934915 0
M  V30 3314 H 303.249 3.8668 0.36509 0
M  V30 3315 H 304.981 4.0425 0.190695 0
M  V30 3316 H 301.736 4.38062 -1.79997 0
M  V30 3317 H 302.16 5.25196 -4.27198 0
M  V30 3318 H 306.802 3.86078 -1.72348 0
M  V30 3319 H 304.52 5.60765 -5.81866 0
M  V30 3320 H 308.106 4.45785 -3.73854 0
M  V30 3321 H 306.986 5.32204 -5.75959 0
M  V30 3322 N 304.489 0.459591 1.5075 0
M  V30 3323 C 305.399 -0.34613 2.32033 0
M  V30 3324 C 306.415 -1.00686 1.41909 0
M  V30 3325 O 307.591 -0.997361 1.7497 0
M  V30 3326 C 304.656 -1.42029 3.16273 0
M  V30 3327 C 303.717 -0.777362 4.22203 0
M  V30 3328 C 302.95 -1.80034 5.02418 0
M  V30 3329 O 303.173 -3.02544 4.83553 0
M  V30 3330 O 302.107 -1.37853 5.85901 0
M  V30 3331 H 305.933 0.318054 3.0203 0
M  V30 3332 H 303.518 0.221663 1.47746 0
M  V30 3333 H 305.4 -2.04275 3.68578 0
M  V30 3334 H 304.075 -2.06815 2.49016 0
M  V30 3335 H 302.982 -0.116256 3.73919 0
M  V30 3336 H 304.315 -0.172634 4.91897 0
M  V30 3337 N 305.967 -1.56429 0.191757 0
M  V30 3338 C 307.216 -1.9666 -0.448088 0
M  V30 3339 C 307.529 -1.08136 -1.62991 0
M  V30 3340 O 308.735 -1.38135 -2.33733 0
M  V30 3341 C 307.191 -3.49753 -0.848585 0
M  V30 3342 C 306.799 -4.46935 0.308764 0
M  V30 3343 C 308.543 -3.9876 -1.4557 0
M  V30 3344 C 306.45 -5.91293 -0.112506 0
M  V30 3345 H 305.38 -0.734312 -0.171179 0
M  V30 3346 H 308.031 -1.81301 0.283242 0
M  V30 3347 H 306.413 -3.60604 -1.63649 0
M  V30 3348 H 307.587 -4.47813 1.08627 0
M  V30 3349 H 305.902 -4.08102 0.827158 0
M  V30 3350 H 308.499 -5.04086 -1.78328 0
M  V30 3351 H 308.842 -3.42875 -2.36099 0
M  V30 3352 H 309.375 -3.9101 -0.731836 0
M  V30 3353 H 306.114 -6.51097 0.758514 0
M  V30 3354 H 305.634 -5.93676 -0.854941 0
M  V30 3355 H 307.313 -6.44663 -0.549448 0
M  V30 3356 N 307.445 0.0818655 -1.57387 0
M  V30 3357 C 308.694 0.781681 -1.85937 0
M  V30 3358 C 309.007 1.79246 -0.782957 0
M  V30 3359 O 310.213 2.54112 -0.955987 0
M  V30 3360 C 308.669 1.44109 -3.29789 0
M  V30 3361 C 308.277 0.469396 -4.45534 0
M  V30 3362 C 310.021 2.12386 -3.67549 0
M  V30 3363 C 307.928 1.13415 -5.80423 0
M  V30 3364 H 306.858 0.295682 -0.693605 0
M  V30 3365 H 309.509 0.0348051 -1.83467 0
M  V30 3366 H 307.891 2.23588 -3.2684 0
M  V30 3367 H 309.065 -0.294856 -4.59856 0
M  V30 3368 H 307.38 -0.108383 -4.16259 0
M  V30 3369 H 309.977 2.62878 -4.65617 0
M  V30 3370 H 310.32 2.91877 -2.96839 0
M  V30 3371 H 310.853 1.39751 -3.72444 0
M  V30 3372 H 307.592 0.379771 -6.54399 0
M  V30 3373 H 307.112 1.8695 -5.69921 0
M  V30 3374 H 308.791 1.65686 -6.25426 0
M  V30 3375 N 308.923 1.53595 0.353017 0
M  V30 3376 C 310.2 1.61002 1.11075 0
M  V30 3377 C 310.58 0.425356 2.0677 0
M  V30 3378 O 309.928 -0.583267 2.2093 0
M  V30 3379 C 310.138 2.96631 1.83877 0
M  V30 3380 C 311.486 3.51653 2.37961 0
M  V30 3381 O 312.51 2.98743 1.93987 0
M  V30 3382 O 311.369 4.44177 3.18386 0
M  V30 3383 H 308.463 0.650825 0.510251 0
M  V30 3384 H 311.009 1.6594 0.35527 0
M  V30 3385 H 309.781 3.74293 1.14108 0
M  V30 3386 H 309.404 2.95242 2.66304 0
M  V30 3387 N 310.401 -0.613514 1.45168 0
M  V30 3388 C 311.364 -1.7065 1.53007 0
M  V30 3389 C 312.364 -1.5548 0.410184 0
M  V30 3390 O 313.554 -1.60656 0.673455 0
M  V30 3391 C 310.686 -3.09875 1.42093 0
M  V30 3392 H 311.879 -1.65068 2.50385 0
M  V30 3393 H 309.432 -0.828728 1.32521 0
M  V30 3394 H 310.167 -3.21039 0.458769 0
M  V30 3395 H 309.952 -3.22293 2.23315 0
M  V30 3396 H 311.442 -3.895 1.50598 0
M  V30 3397 N 311.879 -1.3236 -0.855495 0
M  V30 3398 C 313.104 -1.2601 -1.64731 0
M  V30 3399 C 313.529 0.169068 -1.87339 0
M  V30 3400 O 312.887 1.12016 -1.42556 0
M  V30 3401 C 312.935 -2.02417 -2.98429 0
M  V30 3402 O 312.039 -1.3714 -3.8893 0
M  V30 3403 H 311.38 -0.434325 -0.502253 0
M  V30 3404 H 313.91 -1.74661 -1.06558 0
M  V30 3405 H 313.92 -2.12559 -3.48257 0
M  V30 3406 H 312.595 -3.06343 -2.81295 0
M  V30 3407 H 311.172 -1.3554 -3.47395 0
M  V30 3408 N 313.357 1.07166 -1.15556 0
M  V30 3409 C 314.605 1.79443 -0.929764 0
M  V30 3410 C 314.926 1.87246 0.544414 0
M  V30 3411 O 314.196 1.37473 1.39564 0
M  V30 3412 H 312.776 0.664625 -0.341003 0
M  V30 3413 H 315.438 1.29499 -1.45657 0
M  V30 3414 H 314.534 2.81832 -1.34079 0
M  V30 3415 N 314.835 0.952656 1.25548 0
M  V30 3416 C 316.065 0.622592 1.96996 0
M  V30 3417 C 316.473 -0.809112 1.71026 0
M  V30 3418 O 315.816 -1.55258 0.981861 0
M  V30 3419 C 315.878 0.798946 3.5051 0
M  V30 3420 C 315.542 2.20744 4.00151 0
M  V30 3421 C 316.539 3.18394 4.11001 0
M  V30 3422 C 314.224 2.5311 4.33867 0
M  V30 3423 C 316.218 4.46504 4.54877 0
M  V30 3424 C 313.905 3.8145 4.7743 0
M  V30 3425 C 314.903 4.77959 4.87897 0
M  V30 3426 O 314.591 6.04012 5.30494 0
M  V30 3427 H 314.323 0.232503 0.634758 0
M  V30 3428 H 316.877 1.2789 1.60728 0
M  V30 3429 H 315.107 0.0854903 3.86605 0
M  V30 3430 H 316.796 0.47023 4.03167 0
M  V30 3431 H 317.562 2.94715 3.85186 0
M  V30 3432 H 313.441 1.78719 4.24948 0
M  V30 3433 H 316.985 5.21835 4.62962 0
M  V30 3434 H 312.882 4.04936 5.0269 0
M  V30 3435 H 313.65 6.0736 5.48685 0
M  V30 3436 N 316.313 -1.40141 0.720998 0
M  V30 3437 C 317.26 -2.30688 0.071919 0
M  V30 3438 C 318.23 -1.48476 -0.744584 0
M  V30 3439 O 319.415 -1.77201 -0.707423 0
M  V30 3440 C 316.555 -3.34724 -0.839855 0
M  V30 3441 C 315.668 -4.31998 -0.0122438 0
M  V30 3442 C 314.803 -5.23102 -0.923995 0
M  V30 3443 C 313.842 -6.12033 -0.0907969 0
M  V30 3444 N 312.979 -6.95537 -0.957718 0
M  V30 3445 H 317.819 -2.85628 0.849755 0
M  V30 3446 H 315.356 -1.40653 0.430726 0
M  V30 3447 H 317.314 -3.93618 -1.38279 0
M  V30 3448 H 315.944 -2.81274 -1.58381 0
M  V30 3449 H 314.996 -3.74841 0.64794 0
M  V30 3450 H 316.308 -4.94772 0.632595 0
M  V30 3451 H 315.462 -5.86953 -1.53527 0
M  V30 3452 H 314.201 -4.60615 -1.60264 0
M  V30 3453 H 313.206 -5.47207 0.533377 0
M  V30 3454 H 314.431 -6.76581 0.584428 0
M  V30 3455 H 312.377 -6.35633 -1.62192 0
M  V30 3456 H 312.294 -7.55099 -0.36904 0
M  V30 3457 H 313.562 -7.63832 -1.555 0
M  V30 3458 N 317.792 -0.46758 -1.50504 0
M  V30 3459 C 318.742 0.34698 -2.25344 0
M  V30 3460 C 319.726 0.964469 -1.2879 0
M  V30 3461 O 320.918 0.8776 -1.53711 0
M  V30 3462 C 318.047 1.43042 -3.1208 0
M  V30 3463 C 317.133 0.82084 -4.16081 0
M  V30 3464 N 317.524 -0.0567602 -5.05768 0
M  V30 3465 C 315.822 1.08517 -4.32597 0
M  V30 3466 C 316.523 -0.402343 -5.80307 0
M  V30 3467 N 315.499 0.221607 -5.43148 0
M  V30 3468 H 319.301 -0.329129 -2.92051 0
M  V30 3469 H 316.815 -0.281508 -1.59942 0
M  V30 3470 H 318.812 2.02712 -3.64299 0
M  V30 3471 H 317.472 2.10856 -2.46921 0
M  V30 3472 H 318.483 -0.425349 -5.1615 0
M  V30 3473 H 315.16 1.75855 -3.78657 0
M  V30 3474 H 316.55 -1.11834 -6.62528 0
M  V30 3475 N 319.27 1.56325 -0.20005 0
M  V30 3476 C 320.547 1.89484 0.48529 0
M  V30 3477 C 320.927 1.1143 1.79294 0
M  V30 3478 O 320.275 0.216919 2.27468 0
M  V30 3479 C 320.485 3.41923 0.699243 0
M  V30 3480 C 321.833 4.12256 1.01638 0
M  V30 3481 O 322.857 3.47402 0.786792 0
M  V30 3482 O 321.716 5.26887 1.45095 0
M  V30 3483 H 318.81 0.787144 0.253639 0
M  V30 3484 H 321.356 1.67985 -0.240633 0
M  V30 3485 H 320.128 3.90658 -0.224008 0
M  V30 3486 H 319.751 3.69131 1.47744 0
M  V30 3487 N 320.748 -0.0735177 1.57428 0
M  V30 3488 C 321.997 -0.771809 1.86349 0
M  V30 3489 C 322.31 -1.78828 0.792452 0
M  V30 3490 O 323.516 -2.53602 0.96945 0
M  V30 3491 C 321.972 -1.42358 3.30548 0
M  V30 3492 C 321.58 -0.445761 4.45777 0
M  V30 3493 C 323.324 -2.10434 3.6867 0
M  V30 3494 C 321.231 -1.10335 5.81016 0
M  V30 3495 H 320.161 -0.291999 0.695164 0
M  V30 3496 H 322.812 -0.0250749 1.83483 0
M  V30 3497 H 321.194 -2.21852 3.28021 0
M  V30 3498 H 322.368 0.319239 4.59693 0
M  V30 3499 H 320.683 0.130457 4.16196 0
M  V30 3500 H 323.28 -2.60405 4.67004 0
M  V30 3501 H 323.623 -2.90298 2.98383 0
M  V30 3502 H 324.156 -1.37773 3.7318 0
M  V30 3503 H 320.895 -0.345061 6.54591 0
M  V30 3504 H 320.415 -1.83925 5.70904 0
M  V30 3505 H 322.094 -1.62367 6.26295 0
M  V30 3506 N 322.226 -1.5378 -0.344866 0
M  V30 3507 C 323.173 -1.81676 -1.42346 0
M  V30 3508 C 324.143 -0.662376 -1.52321 0
M  V30 3509 O 325.328 -0.906675 -1.67881 0
M  V30 3510 C 322.468 -2.03087 -2.79015 0
M  V30 3511 C 321.581 -3.30799 -2.77842 0
M  V30 3512 C 320.716 -3.42285 -4.0622 0
M  V30 3513 C 319.755 -4.6395 -3.9927 0
M  V30 3514 N 318.892 -4.72477 -5.19336 0
M  V30 3515 H 323.732 -2.73703 -1.17858 0
M  V30 3516 H 321.269 -1.35568 -0.570949 0
M  V30 3517 H 323.227 -2.1349 -3.58438 0
M  V30 3518 H 321.857 -1.14375 -3.01858 0
M  V30 3519 H 320.909 -3.29244 -1.90533 0
M  V30 3520 H 322.221 -4.20314 -2.68584 0
M  V30 3521 H 321.375 -3.52113 -4.94066 0
M  V30 3522 H 320.114 -2.50823 -4.18258 0
M  V30 3523 H 319.119 -4.54201 -3.09809 0
M  V30 3524 H 320.344 -5.56775 -3.88817 0
M  V30 3525 H 318.29 -3.83924 -5.3192 0
M  V30 3526 H 318.207 -5.55927 -5.12329 0
M  V30 3527 H 319.475 -4.86613 -6.08957 0
M  V30 3528 N 323.704 0.605807 -1.45491 0
M  V30 3529 C 324.934 1.38934 -1.52908 0
M  V30 3530 C 325.342 1.88513 -0.161086 0
M  V30 3531 O 324.685 1.62962 0.847891 0
M  V30 3532 C 324.747 2.62737 -2.45376 0
M  V30 3533 C 324.411 2.34785 -3.92078 0
M  V30 3534 C 325.408 1.95038 -4.8193 0
M  V30 3535 C 323.093 2.47642 -4.37011 0
M  V30 3536 C 325.087 1.68511 -6.14722 0
M  V30 3537 C 322.774 2.20728 -5.69844 0
M  V30 3538 C 323.772 1.81225 -6.58519 0
M  V30 3539 O 323.46 1.54627 -7.88889 0
M  V30 3540 H 323.192 0.431629 -0.520262 0
M  V30 3541 H 325.746 0.74573 -1.91384 0
M  V30 3542 H 323.976 3.29824 -2.01874 0
M  V30 3543 H 325.665 3.24783 -2.43456 0
M  V30 3544 H 326.431 1.84639 -4.48479 0
M  V30 3545 H 322.31 2.77356 -3.68232 0
M  V30 3546 H 325.854 1.37602 -6.83894 0
M  V30 3547 H 321.751 2.30744 -6.02849 0
M  V30 3548 H 322.519 1.68665 -8.00933 0
M  V30 3549 N 325.182 1.32811 0.848464 0
M  V30 3550 C 326.13 1.22231 1.97895 0
M  V30 3551 C 327.124 0.125749 1.68933 0
M  V30 3552 O 328.33 0.289083 1.77663 0
M  V30 3553 H 324.705 0.379058 0.649476 0
M  V30 3554 H 326.676 2.17828 2.03945 0
M  V30 3555 C 325.425 0.968572 3.33937 0
M  V30 3556 H 324.748 1.80458 3.56756 0
M  V30 3557 H 326.188 0.934808 4.13567 0
M  V30 3558 C 324.647 -0.328628 3.35293 0
M  V30 3559 O 325.177 -1.33848 3.78745 0
M  V30 3560 N 323.383 -0.352788 2.88451 0
M  V30 3561 H 322.93 0.469541 2.53285 0
M  V30 3562 H 322.888 -1.22057 2.89741 0
M  V30 3563 N 326.66 -1.06551 1.16123 0
M  V30 3564 C 327.9 -1.80889 0.951766 0
M  V30 3565 C 328.264 -1.85062 -0.511465 0
M  V30 3566 O 329.465 -2.55353 -0.83954 0
M  V30 3567 C 327.736 -3.21609 1.55893 0
M  V30 3568 S 329.295 -4.12593 1.49373 0
M  V30 3569 H 326.113 -0.623156 0.342341 0
M  V30 3570 H 328.715 -1.27943 1.47821 0
M  V30 3571 H 327.419 -3.16165 2.61664 0
M  V30 3572 H 326.95 -3.79631 1.0317 0
M  V30 3573 H 328.965 -4.93753 0.492196 0
M  V30 3574 N 328.138 -0.959301 -1.25041 0
M  V30 3575 C 329.378 -0.624343 -1.94631 0
M  V30 3576 C 329.742 0.82403 -1.73418 0
M  V30 3577 O 330.943 1.26881 -2.3697 0
M  V30 3578 C 329.214 -0.978805 -3.43736 0
M  V30 3579 S 330.773 -0.757127 -4.32219 0
M  V30 3580 H 327.591 -0.229327 -0.673001 0
M  V30 3581 H 330.193 -1.23447 -1.51595 0
M  V30 3582 H 328.897 -2.02997 -3.56679 0
M  V30 3583 H 328.428 -0.359117 -3.91757 0
M  V30 3584 H 330.443 0.369759 -4.9482 0
M  V30 3585 N 329.616 1.39756 -0.72842 0
M  V30 3586 C 330.526 2.34444 -0.0855374 0
M  V30 3587 C 331.542 1.57976 0.729356 0
M  V30 3588 O 332.718 1.90301 0.659346 0
M  V30 3589 C 329.783 3.36965 0.815798 0
M  V30 3590 C 328.844 4.29299 -0.0105996 0
M  V30 3591 C 328.077 5.26923 0.84781 0
M  V30 3592 O 328.3 5.30859 2.08673 0
M  V30 3593 O 327.234 6.01249 0.279969 0
M  V30 3594 H 331.06 2.91065 -0.866892 0
M  V30 3595 H 328.645 1.4117 -0.48902 0
M  V30 3596 H 330.527 3.99804 1.33171 0
M  V30 3597 H 329.202 2.82739 1.57608 0
M  V30 3598 H 328.109 3.69703 -0.571877 0
M  V30 3599 H 329.442 4.86712 -0.73295 0
M  V30 3600 N 331.094 0.475555 1.50254 0
M  V30 3601 C 332.004 -0.321501 2.32387 0
M  V30 3602 C 333.02 -0.991755 1.42969 0
M  V30 3603 O 334.196 -0.978747 1.76018 0
M  V30 3604 C 331.261 -1.38667 3.17762 0
M  V30 3605 C 330.322 -0.732538 4.23004 0
M  V30 3606 C 329.555 -1.74695 5.04299 0
M  V30 3607 O 329.778 -2.97399 4.86734 0
M  V30 3608 O 328.712 -1.31631 5.8733 0
M  V30 3609 H 332.538 0.350071 3.01676 0
M  V30 3610 H 330.123 0.237321 1.47503 0
M  V30 3611 H 332.005 -2.00354 3.70724 0
M  V30 3612 H 330.68 -2.04163 2.51196 0
M  V30 3613 H 329.587 -0.0765902 3.74022 0
M  V30 3614 H 330.92 -0.120452 4.92053 0
M  V30 3615 N 332.573 -1.56217 0.208337 0
M  V30 3616 C 333.822 -1.97124 -0.427204 0
M  V30 3617 C 334.135 -1.09859 -1.61835 0
M  V30 3618 O 335.341 -1.40606 -2.32255 0
M  V30 3619 C 333.797 -3.50633 -0.811442 0
M  V30 3620 C 333.405 -4.46582 0.35615 0
M  V30 3621 C 335.149 -4.00282 -1.41332 0
M  V30 3622 C 333.056 -5.91379 -0.0497852 0
M  V30 3623 H 331.986 -0.736086 -0.163381 0
M  V30 3624 H 334.637 -1.8099 0.302456 0
M  V30 3625 H 333.019 -3.62319 -1.59815 0
M  V30 3626 H 334.193 -4.46636 1.1337 0
M  V30 3627 H 332.508 -4.07202 0.870396 0
M  V30 3628 H 335.105 -5.0595 -1.72972 0
M  V30 3629 H 335.448 -3.45359 -2.32449 0
M  V30 3630 H 335.981 -3.91764 -0.690323 0
M  V30 3631 H 332.72 -6.50255 0.827529 0
M  V30 3632 H 332.24 -5.94549 -0.791926 0
M  V30 3633 H 333.919 -6.45209 -0.481042 0
M  V30 3634 N 334.051 0.0651679 -1.57465 0
M  V30 3635 C 335.281 0.774683 -1.91526 0
M  V30 3636 C 335.689 1.71305 -0.803196 0
M  V30 3637 O 335.032 1.82231 0.231881 0
M  V30 3638 C 335.094 1.61645 -3.21109 0
M  V30 3639 C 334.758 0.846753 -4.49087 0
M  V30 3640 C 335.755 0.163024 -5.19644 0
M  V30 3641 C 333.44 0.811966 -4.95694 0
M  V30 3642 C 335.434 -0.54519 -6.35064 0
M  V30 3643 C 333.121 0.0999836 -6.11018 0
M  V30 3644 C 334.119 -0.577388 -6.80555 0
M  V30 3645 O 333.807 -1.27789 -7.93678 0
M  V30 3646 H 333.539 0.225031 -0.637446 0
M  V30 3647 H 336.093 0.0377134 -2.05365 0
M  V30 3648 H 334.323 2.39638 -3.03497 0
M  V30 3649 H 336.012 2.20525 -3.40769 0
M  V30 3650 H 336.778 0.181163 -4.84662 0
M  V30 3651 H 332.657 1.32867 -4.41438 0
M  V30 3652 H 336.201 -1.07446 -6.89276 0
M  V30 3653 H 332.098 0.0797945 -6.45451 0
M  V30 3654 H 332.866 -1.18784 -8.09835 0
M  V30 3655 N 335.529 1.53961 0.336706 0
M  V30 3656 C 336.757 1.75483 1.09605 0
M  V30 3657 C 337.172 0.4972 1.82136 0
M  V30 3658 O 336.529 -0.53149 1.74589 0
M  V30 3659 C 336.58 2.93943 2.10428 0
M  V30 3660 O 336.301 4.14842 1.40846 0
M  V30 3661 C 337.802 3.27571 2.98684 0
M  V30 3662 H 335.022 0.586166 0.326574 0
M  V30 3663 H 337.566 2.00808 0.38683 0
M  V30 3664 H 335.721 2.70929 2.76905 0
M  V30 3665 H 336.135 4.81383 2.08255 0
M  V30 3666 H 337.609 4.13791 3.6535 0
M  V30 3667 H 338.086 2.44168 3.65074 0
M  V30 3668 H 338.692 3.52615 2.37787 0
M  V30 3669 N 337.007 -0.598083 1.45811 0
M  V30 3670 C 338.284 -1.35777 1.40797 0
M  V30 3671 C 338.664 -2.10935 0.083462 0
M  V30 3672 O 338.012 -2.08505 -0.934763 0
M  V30 3673 C 338.222 -2.29666 2.62783 0
M  V30 3674 C 339.57 -2.91977 3.08277 0
M  V30 3675 O 340.594 -2.39984 2.63223 0
M  V30 3676 O 339.453 -3.86376 3.86491 0
M  V30 3677 H 336.547 -0.609291 0.55919 0
M  V30 3678 H 339.093 -0.620379 1.57954 0
M  V30 3679 H 337.865 -1.73454 3.50756 0
M  V30 3680 H 337.488 -3.1077 2.48008 0
M  V30 3681 N 338.485 -1.33259 -0.841409 0
M  V30 3682 C 339.734 -1.23921 -1.59143 0
M  V30 3683 C 340.047 0.1941 -1.94635 0
M  V30 3684 O 341.253 0.409474 -2.68394 0
M  V30 3685 C 339.709 -2.17119 -2.87032 0
M  V30 3686 C 339.317 -3.65606 -2.58914 0
M  V30 3687 C 341.061 -2.16648 -3.65053 0
M  V30 3688 C 338.968 -4.50726 -3.82884 0
M  V30 3689 H 337.898 -0.460264 -0.597221 0
M  V30 3690 H 340.549 -1.58307 -0.927959 0
M  V30 3691 H 338.931 -1.75663 -3.54906 0
M  V30 3692 H 340.105 -4.15487 -1.99267 0
M  V30 3693 H 338.42 -3.68341 -1.942 0
M  V30 3694 H 341.017 -2.77474 -4.57069 0
M  V30 3695 H 341.36 -1.16088 -3.99787 0
M  V30 3696 H 341.893 -2.56453 -3.041 0
M  V30 3697 H 338.632 -5.52151 -3.53283 0
M  V30 3698 H 338.152 -4.0559 -4.41879 0
M  V30 3699 H 339.831 -4.64401 -4.50489 0
M  V30 3700 N 339.963 1.05934 -1.16686 0
M  V30 3701 C 341.191 1.8249 -0.974929 0
M  V30 3702 C 341.606 1.82679 0.476861 0
M  V30 3703 O 340.963 1.2486 1.33103 0
M  V30 3704 C 341.014 3.28943 -1.49929 0
M  V30 3705 O 340.735 3.28886 -2.89423 0
M  V30 3706 C 342.236 4.22215 -1.35089 0
M  V30 3707 H 339.456 0.575295 -0.345365 0
M  V30 3708 H 342 1.33631 -1.548 0
M  V30 3709 H 340.155 3.751 -0.968423 0
M  V30 3710 H 340.569 4.20493 -3.13506 0
M  V30 3711 H 342.043 5.22987 -1.76603 0
M  V30 3712 H 342.52 4.38195 -0.296935 0
M  V30 3713 H 343.126 3.81907 -1.87155 0
M  V30 3714 N 341.441 0.965919 1.2453 0
M  V30 3715 C 342.671 0.643451 1.96324 0
M  V30 3716 C 343.079 -0.790927 1.71875 0
M  V30 3717 O 342.422 -1.54208 0.998273 0
M  V30 3718 C 342.484 0.836078 3.49643 0
M  V30 3719 C 342.148 2.24975 3.97788 0
M  V30 3720 C 343.145 3.22735 4.07601 0
M  V30 3721 C 340.83 2.57697 4.31158 0
M  V30 3722 C 342.824 4.51303 4.50116 0
M  V30 3723 C 340.511 3.86492 4.73357 0
M  V30 3724 C 341.509 4.83107 4.828 0
M  V30 3725 O 341.197 6.09605 5.24058 0
M  V30 3726 H 340.929 0.239223 0.632257 0
M  V30 3727 H 343.483 1.29587 1.59362 0
M  V30 3728 H 341.713 0.12649 3.86493 0
M  V30 3729 H 343.402 0.512965 4.02646 0
M  V30 3730 H 344.168 2.98783 3.82039 0
M  V30 3731 H 340.047 1.83216 4.23028 0
M  V30 3732 H 343.591 5.26716 4.57401 0
M  V30 3733 H 339.488 4.10245 4.98366 0
M  V30 3734 H 340.256 6.13146 5.42213 0
M  V30 3735 N 342.919 -1.39368 0.735821 0
M  V30 3736 C 344.144 -2.05319 0.293052 0
M  V30 3737 C 344.569 -1.55115 -1.064 0
M  V30 3738 O 343.927 -0.695261 -1.67439 0
M  V30 3739 C 343.975 -3.59305 0.305323 0
M  V30 3740 O 343.079 -4.06299 -0.706761 0
M  V30 3741 H 342.42 -0.650529 0.13307 0
M  V30 3742 H 344.95 -1.78386 1.00197 0
M  V30 3743 H 344.96 -4.07724 0.149997 0
M  V30 3744 H 343.635 -3.95207 1.29553 0
M  V30 3745 H 342.212 -3.69292 -0.517504 0
M  V30 3746 N 344.397 -0.483516 -1.5 0
M  V30 3747 C 345.644 0.0671597 -2.02389 0
M  V30 3748 C 345.972 1.38597 -1.36459 0
M  V30 3749 O 345.227 1.89634 -0.483458 0
M  V30 3750 C 345.526 0.286226 -3.56252 0
M  V30 3751 C 345.192 -0.952416 -4.40726 0
M  V30 3752 C 343.854 -1.29199 -4.63531 0
M  V30 3753 C 346.206 -1.77655 -4.89988 0
M  V30 3754 C 343.534 -2.45553 -5.32842 0
M  V30 3755 C 345.886 -2.93147 -5.60578 0
M  V30 3756 C 344.55 -3.27505 -5.81633 0
M  V30 3757 H 343.82 0.0245755 -0.740592 0
M  V30 3758 H 346.467 -0.640124 -1.80485 0
M  V30 3759 H 344.772 1.07587 -3.76739 0
M  V30 3760 H 346.469 0.726473 -3.94365 0
M  V30 3761 H 343.059 -0.677881 -4.23205 0
M  V30 3762 H 347.243 -1.52737 -4.72213 0
M  V30 3763 H 342.499 -2.72431 -5.47349 0
M  V30 3764 H 346.673 -3.57344 -5.97727 0
M  V30 3765 H 344.3 -4.1777 -6.35116 0
M  V30 3766 N 345.875 1.56104 -0.216619 0
M  V30 3767 C 347.105 2.02269 0.420802 0
M  V30 3768 C 347.513 1.09575 1.5424 0
M  V30 3769 O 346.856 0.0967308 1.83445 0
M  V30 3770 C 346.918 3.44784 1.01806 0
M  V30 3771 C 346.582 4.56988 0.0325154 0
M  V30 3772 C 347.579 5.14225 -0.766055 0
M  V30 3773 C 345.264 5.02228 -0.0848092 0
M  V30 3774 C 347.258 6.15169 -1.6687 0
M  V30 3775 C 344.945 6.03011 -0.990994 0
M  V30 3776 C 345.943 6.59357 -1.78149 0
M  V30 3777 O 345.631 7.58179 -2.67245 0
M  V30 3778 H 345.363 0.667353 0.107776 0
M  V30 3779 H 347.917 2.02747 -0.329034 0
M  V30 3780 H 346.147 3.41359 1.81689 0
M  V30 3781 H 347.836 3.74626 1.56237 0
M  V30 3782 H 348.602 4.80126 -0.685836 0
M  V30 3783 H 344.481 4.58054 0.520349 0
M  V30 3784 H 348.025 6.59076 -2.28615 0
M  V30 3785 H 343.922 6.36532 -1.07225 0
M  V30 3786 H 344.69 7.75682 -2.61265 0
M  V30 3787 N 347.353 -0.0568162 1.57498 0
M  V30 3788 C 348.602 -0.752001 1.87157 0
M  V30 3789 C 348.915 -1.77978 0.811375 0
M  V30 3790 O 350.121 -2.52559 0.996293 0
M  V30 3791 C 348.577 -1.38844 3.3204 0
M  V30 3792 C 348.185 -0.398456 4.46225 0
M  V30 3793 C 349.929 -2.06512 3.70882 0
M  V30 3794 C 347.836 -1.04166 5.82154 0
M  V30 3795 H 346.766 -0.28461 0.698222 0
M  V30 3796 H 349.417 -0.00561272 1.83499 0
M  V30 3797 H 347.799 -2.1836 3.30356 0
M  V30 3798 H 348.973 0.367977 4.59328 0
M  V30 3799 H 347.288 0.174592 4.16034 0
M  V30 3800 H 349.885 -2.55437 4.6974 0
M  V30 3801 H 350.228 -2.87117 3.01445 0
M  V30 3802 H 350.761 -1.33808 3.7462 0
M  V30 3803 H 347.5 -0.275614 6.5492 0
M  V30 3804 H 347.02 -1.7786 5.72823 0
M  V30 3805 H 348.699 -1.55715 6.27982 0
M  V30 3806 N 348.832 -1.54138 -0.328536 0
M  V30 3807 C 350.248 -1.44736 -0.672574 0
M  V30 3808 C 350.448 -0.616217 -1.91846 0
M  V30 3809 O 349.504 -0.113067 -2.52247 0
M  V30 3810 C 350.817 -2.884 -0.851217 0
M  V30 3811 C 352.365 -2.98271 -0.948877 0
M  V30 3812 C 352.84 -4.43074 -1.15973 0
M  V30 3813 N 354.331 -4.46665 -1.22658 0
M  V30 3814 C 355.066 -5.55857 -1.40751 0
M  V30 3815 N 354.562 -6.75026 -1.5592 0
M  V30 3816 N 356.355 -5.43495 -1.4342 0
M  V30 3817 H 348.506 -2.06661 0.490421 0
M  V30 3818 H 350.769 -0.934812 0.157579 0
M  V30 3819 H 350.475 -3.51699 -0.00704236 0
M  V30 3820 H 350.349 -3.34225 -1.74853 0
M  V30 3821 H 352.736 -2.35102 -1.78356 0
M  V30 3822 H 352.817 -2.55785 -0.0281435 0
M  V30 3823 H 352.461 -5.06827 -0.329915 0
M  V30 3824 H 352.391 -4.83165 -2.09426 0
M  V30 3825 H 354.882 -3.60797 -1.124 0
M  V30 3826 H 355.195 -7.54004 -1.69404 0
M  V30 3827 H 353.54 -6.77944 -1.53027 0
M  V30 3828 H 356.731 -4.49349 -1.31162 0
M  V30 3829 H 356.904 -6.28649 -1.57178 0
M  V30 3830 N 350.31 0.590341 -1.46126 0
M  V30 3831 C 351.726 0.912917 -1.30912 0
M  V30 3832 C 351.926 1.99616 -0.274893 0
M  V30 3833 O 350.982 2.50397 0.325197 0
M  V30 3834 C 352.295 1.3375 -2.69317 0
M  V30 3835 C 353.843 1.45077 -2.77348 0
M  V30 3836 C 354.318 1.90904 -4.16317 0
M  V30 3837 N 355.809 1.9811 -4.18696 0
M  V30 3838 C 356.544 2.34828 -5.23109 0
M  V30 3839 N 356.04 2.70393 -6.37856 0
M  V30 3840 N 357.833 2.35317 -5.10473 0
M  V30 3841 H 349.984 -0.125358 -2.1203 0
M  V30 3842 H 352.247 0.00658481 -0.947977 0
M  V30 3843 H 351.953 0.615614 -3.4627 0
M  V30 3844 H 351.827 2.30058 -2.9892 0
M  V30 3845 H 354.214 2.16353 -2.00687 0
M  V30 3846 H 354.295 0.4704 -2.51438 0
M  V30 3847 H 353.939 1.20209 -4.9347 0
M  V30 3848 H 353.869 2.89886 -4.39629 0
M  V30 3849 H 356.36 1.73146 -3.359 0
M  V30 3850 H 356.673 2.97341 -7.13308 0
M  V30 3851 H 355.018 2.68048 -6.41229 0
M  V30 3852 H 358.209 2.0695 -4.19868 0
M  V30 3853 H 358.382 2.63605 -5.9196 0
M  V30 3854 N 351.788 1.33704 0.83433 0
M  V30 3855 C 352.718 1.26967 1.95963 0
M  V30 3856 C 353.699 0.149337 1.69443 0
M  V30 3857 O 354.884 0.339852 1.91203 0
M  V30 3858 C 352.014 1.01275 3.32206 0
M  V30 3859 C 350.968 2.09652 3.73136 0
M  V30 3860 C 350.294 1.69166 5.07235 0
M  V30 3861 C 351.594 3.51372 3.86439 0
M  V30 3862 H 353.288 2.2112 2.01857 0
M  V30 3863 H 350.834 1.06447 0.969793 0
M  V30 3864 H 352.787 0.952106 4.10503 0
M  V30 3865 H 351.511 0.0356203 3.26581 0
M  V30 3866 H 350.17 2.14766 2.97104 0
M  V30 3867 H 349.818 0.701437 4.98085 0
M  V30 3868 H 349.518 2.41694 5.35591 0
M  V30 3869 H 351.042 1.64576 5.88003 0
M  V30 3870 H 352.456 3.48734 4.55036 0
M  V30 3871 H 350.853 4.22425 4.26236 0
M  V30 3872 H 351.923 3.89546 2.88759 0
M  V30 3873 N 353.266 -1.05314 1.17247 0
M  V30 3874 C 354.677 -1.59753 0.96623 0
M  V30 3875 C 355.028 -1.9005 -0.487378 0
M  V30 3876 O 354.153 -1.68126 -1.36245 0
M  V30 3877 C 354.748 -2.90249 1.74759 0
M  V30 3878 C 353.307 -3.41352 1.58606 0
M  V30 3879 C 352.454 -2.15103 1.75002 0
M  V30 3880 H 355.405 -0.881406 1.31973 0
M  V30 3881 H 355.426 -3.60097 1.22925 0
M  V30 3882 H 354.938 -2.68166 2.8055 0
M  V30 3883 H 353.039 -3.68474 0.552985 0
M  V30 3884 H 353.152 -4.16019 2.37624 0
M  V30 3885 H 351.516 -2.25804 1.17833 0
M  V30 3886 H 352.299 -1.95491 2.82202 0
M  V30 3887 N 354.744 -0.972509 -1.24016 0
M  V30 3888 C 355.677 -0.45117 -2.23696 0
M  V30 3889 C 356.655 0.477378 -1.55434 0
M  V30 3890 O 357.839 0.407647 -1.84039 0
M  V30 3891 C 354.966 0.34818 -3.36906 0
M  V30 3892 C 354.012 -0.523355 -4.23277 0
M  V30 3893 S 354.845 -1.96647 -4.98087 0
M  V30 3894 C 356.001 -1.17604 -6.14752 0
M  V30 3895 H 356.234 -1.29588 -2.67571 0
M  V30 3896 H 353.767 -0.777903 -1.33372 0
M  V30 3897 H 355.725 0.803387 -4.02562 0
M  V30 3898 H 354.386 1.16792 -2.91579 0
M  V30 3899 H 353.579 0.0906181 -5.03919 0
M  V30 3900 H 353.181 -0.914485 -3.62647 0
M  V30 3901 H 355.473 -0.433434 -6.76112 0
M  V30 3902 H 356.416 -1.95701 -6.8052 0
M  V30 3903 H 356.824 -0.698295 -5.60164 0
M  V30 3904 N 356.222 1.38976 -0.743202 0
M  V30 3905 C 357.469 2.00343 -0.294752 0
M  V30 3906 C 357.797 1.58983 1.12047 0
M  V30 3907 O 357.052 0.813809 1.77977 0
M  V30 3908 C 357.351 3.55647 -0.353517 0
M  V30 3909 C 357.017 4.16685 -1.72292 0
M  V30 3910 C 355.679 4.3307 -2.09771 0
M  V30 3911 C 358.031 4.50464 -2.62168 0
M  V30 3912 C 355.359 4.80526 -3.36618 0
M  V30 3913 C 357.711 4.99332 -3.88395 0
M  V30 3914 C 356.375 5.13924 -4.25956 0
M  V30 3915 H 355.645 0.733108 -0.107857 0
M  V30 3916 H 358.292 1.6618 -0.951651 0
M  V30 3917 H 356.597 3.89884 0.386954 0
M  V30 3918 H 358.294 4.00998 0.0117269 0
M  V30 3919 H 354.884 4.04339 -1.42155 0
M  V30 3920 H 359.068 4.37416 -2.3448 0
M  V30 3921 H 354.324 4.90008 -3.65653 0
M  V30 3922 H 358.498 5.2444 -4.58187 0
M  V30 3923 H 356.125 5.50457 -5.2431 0
M  V30 3924 N 357.7 0.491464 1.49741 0
M  V30 3925 C 358.93 -0.0534375 2.06531 0
M  V30 3926 C 359.338 -1.32233 1.35318 0
M  V30 3927 O 358.681 -1.78781 0.422243 0
M  V30 3928 C 358.743 -0.387034 3.57411 0
M  V30 3929 C 358.407 0.782764 4.50246 0
M  V30 3930 C 359.404 1.67059 4.92329 0
M  V30 3931 C 357.089 0.978866 4.9267 0
M  V30 3932 C 359.083 2.73874 5.75562 0
M  V30 3933 C 356.77 2.05022 5.75682 0
M  V30 3934 C 357.768 2.92851 6.17031 0
M  V30 3935 O 357.456 3.98138 6.98385 0
M  V30 3936 H 357.188 0.0129324 0.675876 0
M  V30 3937 H 359.742 0.685238 1.93633 0
M  V30 3938 H 357.972 -1.17918 3.68283 0
M  V30 3939 H 359.661 -0.869419 3.96479 0
M  V30 3940 H 360.427 1.53086 4.60206 0
M  V30 3941 H 356.306 0.304646 4.59992 0
M  V30 3942 H 359.85 3.42458 6.07757 0
M  V30 3943 H 355.747 2.18993 6.07217 0
M  V30 3944 H 356.515 3.95374 7.16674 0
M  V30 3945 N 359.178 -1.55987 0.224894 0
M  V30 3946 C 360.406 -2.02784 -0.410665 0
M  V30 3947 C 360.821 -1.10464 -1.53112 0
M  V30 3948 O 360.178 -0.114871 -1.82138 0
M  V30 3949 C 360.229 -3.49087 -0.939165 0
M  V30 3950 O 359.95 -4.37887 0.136614 0
M  V30 3951 C 361.451 -4.11543 -1.64763 0
M  V30 3952 H 358.671 -0.663484 -0.100148 0
M  V30 3953 H 361.215 -2.01614 0.342326 0
M  V30 3954 H 359.37 -3.50861 -1.64242 0
M  V30 3955 H 359.784 -5.23849 -0.261155 0
M  V30 3956 H 361.258 -5.15673 -1.96939 0
M  V30 3957 H 361.735 -3.56736 -2.56195 0
M  V30 3958 H 362.341 -4.13629 -0.989503 0
M  V30 3959 N 360.656 0.0484629 -1.57525 0
M  V30 3960 C 361.905 0.742065 -1.87553 0
M  V30 3961 C 362.218 1.77545 -0.820802 0
M  V30 3962 O 363.424 2.52027 -1.00967 0
M  V30 3963 C 361.88 1.37081 -3.32771 0
M  V30 3964 C 361.488 0.374786 -4.4643 0
M  V30 3965 C 363.232 2.04542 -3.71972 0
M  V30 3966 C 361.139 1.01077 -5.82698 0
M  V30 3967 H 360.069 0.280903 -0.699721 0
M  V30 3968 H 362.72 -0.00411877 -1.835 0
M  V30 3969 H 361.102 2.16605 -3.31509 0
M  V30 3970 H 362.276 -0.392331 -4.59127 0
M  V30 3971 H 360.591 -0.196653 -4.15935 0
M  V30 3972 H 363.188 2.52943 -4.71088 0
M  V30 3973 H 363.531 2.85515 -3.02964 0
M  V30 3974 H 364.064 1.31819 -3.75325 0
M  V30 3975 H 360.803 0.240878 -6.55057 0
M  V30 3976 H 360.323 1.74819 -5.73758 0
M  V30 3977 H 362.002 1.52383 -6.28799 0
M  V30 3978 N 362.134 1.5431 0.320358 0
M  V30 3979 C 363.082 1.84647 1.4145 0
M  V30 3980 C 364.076 0.718624 1.53402 0
M  V30 3981 O 365.282 0.902335 1.5575 0
M  V30 3982 H 361.657 0.585349 0.472091 0
M  V30 3983 H 363.628 2.7614 1.13089 0
M  V30 3984 C 362.377 2.09341 2.77617 0
M  V30 3985 H 361.7 2.9559 2.69196 0
M  V30 3986 H 363.14 2.3452 3.53237 0
M  V30 3987 C 361.599 0.885939 3.25043 0
M  V30 3988 O 362.129 0.0967891 4.01583 0
M  V30 3989 N 360.335 0.696682 2.82125 0
M  V30 3990 H 359.882 1.34006 2.2 0
M  V30 3991 H 359.84 -0.109712 3.14209 0
M  V30 3992 N 363.613 -0.582584 1.46437 0
M  V30 3993 C 364.543 -1.70187 1.59871 0
M  V30 3994 C 365.524 -1.64066 0.449042 0
M  V30 3995 O 366.709 -1.82081 0.6753 0
M  V30 3996 C 363.839 -3.08827 1.58881 0
M  V30 3997 C 362.793 -3.29779 2.72819 0
M  V30 3998 C 362.119 -4.68947 2.5689 0
M  V30 3999 C 363.419 -3.17601 4.1464 0
M  V30 4000 H 365.113 -1.592 2.53566 0
M  V30 4001 H 362.659 -0.764472 1.22032 0
M  V30 4002 H 364.612 -3.86951 1.66873 0
M  V30 4003 H 363.336 -3.20713 0.617306 0
M  V30 4004 H 361.995 -2.54054 2.64296 0
M  V30 4005 H 361.643 -4.77599 1.57823 0
M  V30 4006 H 361.343 -4.83919 3.33312 0
M  V30 4007 H 362.867 -5.4924 2.66773 0
M  V30 4008 H 364.281 -3.8557 4.24274 0
M  V30 4009 H 362.678 -3.44094 4.9165 0
M  V30 4010 H 363.748 -2.14681 4.34788 0
M  V30 4011 N 365.091 -1.34144 -0.827227 0
M  V30 4012 C 366.34 -1.25602 -1.5782 0
M  V30 4013 C 366.653 0.173445 -1.94829 0
M  V30 4014 O 367.859 0.380984 -2.68814 0
M  V30 4015 C 366.315 -2.20151 -2.84713 0
M  V30 4016 C 365.923 -3.68331 -2.55021 0
M  V30 4017 C 367.667 -2.20508 -3.62735 0
M  V30 4018 C 365.574 -4.54762 -3.78082 0
M  V30 4019 H 364.504 -0.466573 -0.592306 0
M  V30 4020 H 367.155 -1.59283 -0.911116 0
M  V30 4021 H 365.537 -1.79417 -3.53023 0
M  V30 4022 H 366.711 -4.17577 -1.94849 0
M  V30 4023 H 365.026 -3.7038 -1.90283 0
M  V30 4024 H 367.623 -2.82306 -4.54101 0
M  V30 4025 H 367.966 -1.20322 -3.98533 0
M  V30 4026 H 368.499 -2.59664 -3.01362 0
M  V30 4027 H 365.238 -5.55867 -3.47407 0
M  V30 4028 H 364.758 -4.10254 -4.37552 0
M  V30 4029 H 366.437 -4.69153 -4.45538 0
M  V30 4030 N 366.569 1.04691 -1.17803 0
M  V30 4031 C 367.818 1.77176 -0.963931 0
M  V30 4032 C 368.131 1.88888 0.508015 0
M  V30 4033 O 369.337 2.58164 0.840465 0
M  V30 4034 C 367.793 3.18518 -1.67555 0
M  V30 4035 C 367.401 3.14919 -3.18637 0
M  V30 4036 C 369.145 3.95424 -1.54402 0
M  V30 4037 C 367.052 4.51081 -3.82466 0
M  V30 4038 H 365.982 0.664116 -0.357023 0
M  V30 4039 H 368.633 1.17303 -1.4111 0
M  V30 4040 H 367.015 3.78748 -1.15613 0
M  V30 4041 H 368.189 2.64178 -3.77554 0
M  V30 4042 H 366.504 2.51512 -3.31859 0
M  V30 4043 H 369.101 4.96106 -1.99456 0
M  V30 4044 H 369.444 4.13343 -0.495329 0
M  V30 4045 H 369.977 3.41754 -2.0359 0
M  V30 4046 H 366.716 4.38368 -4.87354 0
M  V30 4047 H 366.236 5.01951 -3.28337 0
M  V30 4048 H 367.915 5.2001 -3.84965 0
M  V30 4049 N 368.047 0.979072 1.23499 0
M  V30 4050 C 369.458 0.684391 1.73704 0
M  V30 4051 C 369.809 -0.799448 1.79174 0
M  V30 4052 O 368.934 -1.62531 1.42873 0
M  V30 4053 C 369.529 1.23564 3.15464 0
M  V30 4054 C 368.088 0.99063 3.6313 0
M  V30 4055 C 367.235 1.36416 2.41425 0
M  V30 4056 H 370.186 1.15307 1.09041 0
M  V30 4057 H 370.207 0.607417 3.7562 0
M  V30 4058 H 369.719 2.31561 3.1145 0
M  V30 4059 H 367.82 -0.0733136 3.72528 0
M  V30 4060 H 367.933 1.64427 4.5 0
M  V30 4061 H 366.297 0.782616 2.42378 0
M  V30 4062 H 367.08 2.45387 2.40083 0
M  V30 4063 N 369.525 -1.3858 0.750561 0
M  V30 4064 C 370.765 -2.02032 0.310258 0
M  V30 4065 C 371.129 -1.58288 -1.08668 0
M  V30 4066 O 372.33 -2.14049 -1.62593 0
M  V30 4067 C 370.601 -3.54856 0.425647 0
M  V30 4068 S 372.16 -4.38748 0.0674797 0
M  V30 4069 H 368.978 -0.700705 0.120554 0
M  V30 4070 H 371.58 -1.69134 0.980512 0
M  V30 4071 H 370.284 -3.84182 1.44335 0
M  V30 4072 H 369.815 -3.92527 -0.261894 0
M  V30 4073 H 371.83 -4.82835 -1.14388 0
M  V30 4074 N 371.003 -0.499398 -1.49478 0
M  V30 4075 C 371.933 0.269244 -2.31943 0
M  V30 4076 C 372.914 0.964054 -1.40143 0
M  V30 4077 O 374.099 0.955767 -1.69052 0
M  V30 4078 C 371.229 1.33504 -3.20615 0
M  V30 4079 C 370.183 0.760202 -4.21195 0
M  V30 4080 C 369.509 1.9264 -4.98792 0
M  V30 4081 C 370.809 -0.247661 -5.21712 0
M  V30 4082 H 372.503 -0.419082 -2.96452 0
M  V30 4083 H 370.049 -0.202988 -1.42562 0
M  V30 4084 H 372.002 1.88048 -3.77115 0
M  V30 4085 H 370.726 2.05253 -2.54045 0
M  V30 4086 H 369.385 0.23653 -3.65836 0
M  V30 4087 H 369.033 2.63154 -4.28671 0
M  V30 4088 H 368.733 1.54785 -5.66847 0
M  V30 4089 H 370.257 2.4762 -5.58137 0
M  V30 4090 H 371.671 0.209579 -5.72917 0
M  V30 4091 H 370.068 -0.541962 -5.97648 0
M  V30 4092 H 371.138 -1.16409 -4.7072 0
M  V30 4093 N 372.481 1.55866 -0.233164 0
M  V30 4094 C 373.728 1.98603 0.395374 0
M  V30 4095 C 374.056 1.12105 1.58942 0
M  V30 4096 O 373.311 0.168656 1.94972 0
M  V30 4097 C 373.61 3.46856 0.861724 0
M  V30 4098 C 373.276 4.50348 -0.223066 0
M  V30 4099 C 371.938 4.78371 -0.521038 0
M  V30 4100 C 374.29 5.12355 -0.956124 0
M  V30 4101 C 371.618 5.6568 -1.55638 0
M  V30 4102 C 373.97 6.00786 -1.98089 0
M  V30 4103 C 372.634 6.27148 -2.28565 0
M  V30 4104 H 371.904 0.726739 0.144677 0
M  V30 4105 H 374.551 1.88491 -0.338114 0
M  V30 4106 H 372.856 3.5423 1.67418 0
M  V30 4107 H 374.553 3.77302 1.35809 0
M  V30 4108 H 371.143 4.28596 0.0193234 0
M  V30 4109 H 375.327 4.90765 -0.739166 0
M  V30 4110 H 370.583 5.84365 -1.798 0
M  V30 4111 H 374.757 6.4788 -2.55391 0
M  V30 4112 H 372.384 6.94597 -3.08932 0
M  V30 4113 N 373.959 -0.0401083 1.57549 0
M  V30 4114 C 375.208 -0.732108 1.87944 0
M  V30 4115 C 375.521 -1.77107 0.830206 0
M  V30 4116 O 376.727 -2.51488 1.02302 0
M  V30 4117 C 375.183 -1.35315 3.33494 0
M  V30 4118 C 374.791 -0.351105 4.46622 0
M  V30 4119 C 376.535 -2.02566 3.73051 0
M  V30 4120 C 374.442 -0.979859 5.83226 0
M  V30 4121 H 373.372 -0.277188 0.701201 0
M  V30 4122 H 376.023 0.0138501 1.83495 0
M  V30 4123 H 374.405 -2.14844 3.32653 0
M  V30 4124 H 375.579 0.416674 4.58912 0
M  V30 4125 H 373.894 0.218708 4.15825 0
M  V30 4126 H 376.491 -2.50441 4.72423 0
M  V30 4127 H 376.834 -2.83904 3.04474 0
M  V30 4128 H 377.367 -1.29827 3.76018 0
M  V30 4129 H 374.106 -0.206135 6.55176 0
M  V30 4130 H 373.626 -1.71774 5.74677 0
M  V30 4131 H 375.305 -1.49046 6.29599 0
M  V30 4132 N 375.437 -1.54477 -0.31217 0
M  V30 4133 C 376.662 -1.77526 -1.07235 0
M  V30 4134 C 377.087 -0.527775 -1.80544 0
M  V30 4135 O 376.445 0.52121 -1.73646 0
M  V30 4136 C 376.493 -2.97535 -2.03728 0
M  V30 4137 O 375.597 -2.69878 -3.11833 0
M  V30 4138 H 374.938 -0.58792 -0.30862 0
M  V30 4139 H 377.468 -2.01532 -0.352993 0
M  V30 4140 H 377.478 -3.25198 -2.46395 0
M  V30 4141 H 376.153 -3.87996 -1.49774 0
M  V30 4142 H 374.73 -2.53199 -2.7376 0
M  V30 4143 N 376.915 0.57481 -1.46744 0
M  V30 4144 C 378.162 1.33272 -1.52462 0
M  V30 4145 C 378.49 1.93669 -0.179572 0
M  V30 4146 O 377.745 1.7743 0.825664 0
M  V30 4147 C 378.044 2.476 -2.57738 0
M  V30 4148 C 377.71 2.05146 -4.01529 0
M  V30 4149 C 376.372 1.93284 -4.40676 0
M  V30 4150 C 378.724 1.72506 -4.91824 0
M  V30 4151 C 376.052 1.47049 -5.67973 0
M  V30 4152 C 378.404 1.27748 -6.19567 0
M  V30 4153 C 377.068 1.14468 -6.57612 0
M  V30 4154 H 376.338 0.487678 -0.557899 0
M  V30 4155 H 378.985 0.646456 -1.80259 0
M  V30 4156 H 377.29 3.21708 -2.23632 0
M  V30 4157 H 378.987 3.05807 -2.5939 0
M  V30 4158 H 375.577 2.15316 -3.7059 0
M  V30 4159 H 379.761 1.80552 -4.62293 0
M  V30 4160 H 375.017 1.35417 -5.96215 0
M  V30 4161 H 379.191 1.01547 -6.88957 0
M  V30 4162 H 376.818 0.78419 -7.56145 0
M  V30 4163 N 378.394 1.34581 0.820102 0
M  V30 4164 C 379.324 1.29038 1.94606 0
M  V30 4165 C 380.305 0.1673 1.69275 0
M  V30 4166 O 381.49 0.360112 1.90832 0
M  V30 4167 C 378.62 1.04793 3.31113 0
M  V30 4168 C 377.574 2.13597 3.70891 0
M  V30 4169 C 376.9 1.74537 5.05412 0
M  V30 4170 C 378.2 3.55451 3.8269 0
M  V30 4171 H 379.894 2.23248 1.99501 0
M  V30 4172 H 377.44 1.0747 0.958449 0
M  V30 4173 H 379.393 0.995592 4.0947 0
M  V30 4174 H 378.117 0.0702565 3.26524 0
M  V30 4175 H 376.776 2.17905 2.9481 0
M  V30 4176 H 376.424 0.754226 4.97313 0
M  V30 4177 H 376.124 2.47361 5.32997 0
M  V30 4178 H 377.648 1.70803 5.86224 0
M  V30 4179 H 379.062 3.5354 4.51312 0
M  V30 4180 H 377.459 4.26922 4.21732 0
M  V30 4181 H 378.529 3.92587 2.84611 0
M  V30 4182 N 379.872 -1.04064 1.18357 0
M  V30 4183 C 381.1 -1.80916 1.00384 0
M  V30 4184 C 381.515 -1.83414 -0.447738 0
M  V30 4185 O 380.872 -1.26962 -1.31099 0
M  V30 4186 C 380.923 -3.26516 1.55144 0
M  V30 4187 O 380.644 -3.2424 2.94618 0
M  V30 4188 C 382.145 -4.20013 1.41789 0
M  V30 4189 H 379.365 -0.569728 0.354474 0
M  V30 4190 H 381.909 -1.31151 1.56906 0
M  V30 4191 H 380.064 -3.73512 1.02798 0
M  V30 4192 H 380.478 -4.15452 3.20156 0
M  V30 4193 H 381.952 -5.20111 1.84901 0
M  V30 4194 H 382.429 -4.37667 0.36661 0
M  V30 4195 H 383.035 -3.78881 1.93207 0
M  V30 4196 N 381.35 -0.985608 -1.22978 0
M  V30 4197 C 382.596 -0.65836 -1.91816 0
M  V30 4198 C 382.929 0.806692 -1.76653 0
M  V30 4199 O 382.204 1.58252 -1.13078 0
M  V30 4200 C 382.487 -1.056 -3.44268 0
M  V30 4201 C 382.34 -2.57906 -3.68516 0
M  V30 4202 C 383.659 -0.603781 -4.35939 0
M  V30 4203 H 380.778 -0.24065 -0.696604 0
M  V30 4204 H 383.42 -1.22783 -1.44998 0
M  V30 4205 H 381.57 -0.571445 -3.84274 0
M  V30 4206 H 383.242 -3.13976 -3.3796 0
M  V30 4207 H 381.485 -3.00305 -3.13048 0
M  V30 4208 H 382.156 -2.80779 -4.75255 0
M  V30 4209 H 384.632 -1.01987 -4.03408 0
M  V30 4210 H 383.508 -0.910383 -5.41298 0
M  V30 4211 H 383.769 0.495761 -4.39312 0
M  V30 4212 N 382.828 1.3818 -0.7579 0
M  V30 4213 C 383.758 2.33027 -0.148597 0
M  V30 4214 C 384.739 1.55085 0.69875 0
M  V30 4215 O 385.924 1.83384 0.639053 0
M  V30 4216 C 383.054 3.3928 0.742034 0
M  V30 4217 C 382.008 4.28 -0.00291946 0
M  V30 4218 C 381.334 5.25146 1.00625 0
M  V30 4219 C 382.634 5.08938 -1.17385 0
M  V30 4220 H 384.328 2.84231 -0.940909 0
M  V30 4221 H 381.874 1.36659 -0.453908 0
M  V30 4222 H 383.827 4.046 1.17799 0
M  V30 4223 H 382.551 2.86569 1.56671 0
M  V30 4224 H 381.21 3.64192 -0.419504 0
M  V30 4225 H 380.858 4.68721 1.8251 0
M  V30 4226 H 380.558 5.85361 0.512428 0
M  V30 4227 H 382.082 5.93342 1.44143 0
M  V30 4228 H 383.496 5.67474 -0.815224 0
M  V30 4229 H 381.893 5.7841 -1.59882 0
M  V30 4230 H 382.963 4.42424 -1.98468 0
M  V30 4231 N 384.306 0.507319 1.49211 0
M  V30 4232 C 385.552 -0.0350047 2.0277 0
M  V30 4233 C 385.885 -1.3606 1.38569 0
M  V30 4234 O 385.16 -1.87321 0.523542 0
M  V30 4235 C 385.443 -0.180916 3.59645 0
M  V30 4236 C 385.296 1.16825 4.34364 0
M  V30 4237 C 386.615 -0.918558 4.30407 0
M  V30 4238 H 383.734 -0.0112473 0.736914 0
M  V30 4239 H 386.376 0.659956 1.7817 0
M  V30 4240 H 384.526 -0.772826 3.80736 0
M  V30 4241 H 386.198 1.79952 4.24753 0
M  V30 4242 H 384.441 1.75594 3.96673 0
M  V30 4243 H 385.112 1.01939 5.42506 0
M  V30 4244 H 387.588 -0.41649 4.1401 0
M  V30 4245 H 386.464 -0.989505 5.39907 0
M  V30 4246 H 386.725 -1.96373 3.96093 0
M  V30 4247 N 385.784 -1.5574 0.241426 0
M  V30 4248 C 387.031 -1.9881 -0.384836 0
M  V30 4249 C 387.359 -1.12947 -1.58346 0
M  V30 4250 O 386.614 -0.178993 -1.9488 0
M  V30 4251 C 386.913 -3.47308 -0.843317 0
M  V30 4252 C 386.579 -4.50223 0.246946 0
M  V30 4253 C 385.241 -4.78088 0.546399 0
M  V30 4254 C 387.593 -5.11841 0.983282 0
M  V30 4255 C 384.921 -5.64846 1.58636 0
M  V30 4256 C 387.273 -5.99727 2.01272 0
M  V30 4257 C 385.937 -6.25927 2.31888 0
M  V30 4258 H 385.207 -0.727496 -0.140821 0
M  V30 4259 H 387.854 -1.8831 0.348106 0
M  V30 4260 H 386.159 -3.55112 -1.65537 0
M  V30 4261 H 387.856 -3.78017 -1.33806 0
M  V30 4262 H 384.446 -4.286 0.00340639 0
M  V30 4263 H 388.63 -4.90366 0.765182 0
M  V30 4264 H 383.886 -5.83403 1.82896 0
M  V30 4265 H 388.06 -6.46517 2.58823 0
M  V30 4266 H 385.687 -6.92949 3.12611 0
M  V30 4267 N 387.262 0.0317525 -1.57568 0
M  V30 4268 C 388.492 0.733884 -1.93126 0
M  V30 4269 C 388.9 1.69563 -0.839352 0
M  V30 4270 O 388.243 1.82681 0.193175 0
M  V30 4271 C 388.305 1.54798 -3.24465 0
M  V30 4272 C 387.969 0.751304 -4.50782 0
M  V30 4273 C 388.966 0.0527632 -5.19873 0
M  V30 4274 C 386.651 0.706639 -4.97305 0
M  V30 4275 C 388.645 -0.679774 -6.33765 0
M  V30 4276 C 386.332 -0.0296449 -6.11093 0
M  V30 4277 C 387.33 -0.721614 -6.79177 0
M  V30 4278 O 387.018 -1.44595 -7.90789 0
M  V30 4279 H 386.75 0.211459 -0.642076 0
M  V30 4280 H 389.304 -0.00585615 -2.05399 0
M  V30 4281 H 387.534 2.33147 -3.08512 0
M  V30 4282 H 389.223 2.13247 -3.4537 0
M  V30 4283 H 389.989 0.0783188 -4.84937 0
M  V30 4284 H 385.868 1.23474 -4.44157 0
M  V30 4285 H 389.412 -1.22042 -6.86842 0
M  V30 4286 H 385.309 -0.0571331 -6.45475 0
M  V30 4287 H 386.077 -1.35935 -8.07133 0
M  V30 4288 N 388.74 1.54641 0.303973 0
M  V30 4289 C 389.67 1.88386 1.3796 0
M  V30 4290 C 390.651 0.742485 1.5304 0
M  V30 4291 O 391.836 0.997959 1.66597 0
M  V30 4292 C 388.966 2.12854 2.74427 0
M  V30 4293 C 387.92 3.28702 2.74115 0
M  V30 4294 C 387.246 3.38582 4.13844 0
M  V30 4295 C 388.546 4.65881 2.3612 0
M  V30 4296 H 390.24 2.78474 1.09966 0
M  V30 4297 H 387.786 1.33988 0.527556 0
M  V30 4298 H 389.739 2.35047 3.49758 0
M  V30 4299 H 388.463 1.19535 3.03939 0
M  V30 4300 H 387.122 3.06428 2.0124 0
M  V30 4301 H 386.77 2.42784 4.40528 0
M  V30 4302 H 386.47 4.16453 4.14537 0
M  V30 4303 H 387.994 3.63031 4.90959 0
M  V30 4304 H 389.408 4.87823 3.01167 0
M  V30 4305 H 387.805 5.46444 2.48031 0
M  V30 4306 H 388.875 4.66799 1.3125 0
M  V30 4307 N 390.218 -0.567019 1.47046 0
M  V30 4308 C 391.629 -1.14916 1.47143 0
M  V30 4309 C 391.98 -1.94954 0.220767 0
M  V30 4310 O 391.105 -2.05602 -0.67505 0
M  V30 4311 C 391.7 -2.09069 2.666 0
M  V30 4312 C 390.259 -2.62575 2.69687 0
M  V30 4313 C 389.406 -1.38755 2.40088 0
M  V30 4314 H 392.357 -0.354126 1.54699 0
M  V30 4315 H 392.378 -2.92789 2.43011 0
M  V30 4316 H 391.89 -1.50789 3.57609 0
M  V30 4317 H 389.991 -3.24681 1.82792 0
M  V30 4318 H 390.104 -3.04239 3.70102 0
M  V30 4319 H 388.468 -1.69098 1.90468 0
M  V30 4320 H 389.251 -0.822822 3.33293 0
M  V30 4321 N 391.696 -1.35014 -0.812953 0
M  V30 4322 C 392.921 -1.31187 -1.60639 0
M  V30 4323 C 393.346 0.109382 -1.87782 0
M  V30 4324 O 392.704 1.07424 -1.46047 0
M  V30 4325 C 392.752 -2.11809 -2.91838 0
M  V30 4326 O 391.856 -1.49444 -3.8437 0
M  V30 4327 H 391.197 -0.450084 -0.488181 0
M  V30 4328 H 393.727 -1.77963 -1.00947 0
M  V30 4329 H 393.737 -2.23531 -3.41318 0
M  V30 4330 H 392.412 -3.15137 -2.71407 0
M  V30 4331 H 390.989 -1.46524 -3.42907 0
M  V30 4332 N 393.175 1.03435 -1.18907 0
M  V30 4333 C 394.452 1.73778 -0.89781 0
M  V30 4334 C 394.832 2.02458 0.597832 0
M  V30 4335 O 394.18 1.67482 1.55441 0
M  V30 4336 C 394.39 3.01845 -1.75187 0
M  V30 4337 C 395.738 3.7546 -1.9828 0
M  V30 4338 O 396.762 3.11759 -1.72293 0
M  V30 4339 O 395.621 4.89966 -2.42065 0
M  V30 4340 H 392.715 0.75651 -0.334098 0
M  V30 4341 H 395.261 1.09444 -1.29693 0
M  V30 4342 H 394.033 2.76836 -2.76545 0
M  V30 4343 H 393.656 3.73919 -1.35167 0
M  V30 4344 N 394.653 0.992116 1.22453 0
M  V30 4345 C 395.893 0.675727 1.92907 0
M  V30 4346 C 396.257 -0.777762 1.75542 0
M  V30 4347 O 397.458 -1.20553 2.40251 0
M  V30 4348 C 395.729 1.0696 3.4102 0
M  V30 4349 S 397.288 0.871456 4.30059 0
M  V30 4350 H 394.106 0.247089 0.666684 0
M  V30 4351 H 396.708 1.27423 1.48269 0
M  V30 4352 H 395.412 2.12383 3.51172 0
M  V30 4353 H 394.943 0.462858 3.90668 0
M  V30 4354 H 396.958 -0.238436 4.95627 0
M  V30 4355 N 396.131 -1.37776 0.765217 0
M  V30 4356 C 397.379 -1.99454 0.325943 0
M  V30 4357 C 397.7 -1.61049 -1.09947 0
M  V30 4358 O 396.97 -0.872821 -1.75381 0
M  V30 4359 H 395.55 -0.737697 0.117525 0
M  V30 4360 H 398.212 -1.68359 0.981895 0
M  V30 4361 H 397.308 -3.09547 0.398353 0
M  V30 4362 N 397.609 -0.515225 -1.4894 0
M  V30 4363 C 398.519 0.259774 -2.33157 0
M  V30 4364 C 399.535 0.953501 -1.45548 0
M  V30 4365 O 400.711 0.931735 -1.78552 0
M  V30 4366 C 397.776 1.30193 -3.21326 0
M  V30 4367 C 396.837 0.620129 -4.24797 0
M  V30 4368 C 396.07 1.61263 -5.08753 0
M  V30 4369 O 396.293 2.84389 -4.94448 0
M  V30 4370 O 395.227 1.16013 -5.90614 0
M  V30 4371 H 399.053 -0.429932 -3.00641 0
M  V30 4372 H 396.638 -0.276346 -1.46822 0
M  V30 4373 H 398.52 1.90455 -3.75905 0
M  V30 4374 H 397.195 1.97431 -2.56521 0
M  V30 4375 H 396.102 -0.0226019 -3.74093 0
M  V30 4376 H 397.435 -0.0100493 -4.92199 0
M  V30 4377 N 399.087 1.5561 -0.249682 0
M  V30 4378 C 400.034 2.21496 0.648694 0
M  V30 4379 C 401.004 1.17977 1.16921 0
M  V30 4380 O 402.189 1.46434 1.22318 0
M  V30 4381 C 399.329 2.92039 1.83868 0
M  V30 4382 C 398.442 4.10219 1.35442 0
M  V30 4383 C 397.577 4.6847 2.50419 0
M  V30 4384 C 396.616 5.78893 1.98869 0
M  V30 4385 N 395.753 6.31315 3.07223 0
M  V30 4386 H 400.593 2.97892 0.0801582 0
M  V30 4387 H 398.13 1.47074 0.0278031 0
M  V30 4388 H 400.088 3.31138 2.53778 0
M  V30 4389 H 398.718 2.18111 2.37965 0
M  V30 4390 H 397.77 3.76413 0.54928 0
M  V30 4391 H 399.082 4.89927 0.936649 0
M  V30 4392 H 398.236 5.10158 3.28366 0
M  V30 4393 H 396.975 3.87984 2.95499 0
M  V30 4394 H 395.98 5.3668 1.19393 0
M  V30 4395 H 397.205 6.61232 1.54755 0
M  V30 4396 H 395.151 5.53733 3.51732 0
M  V30 4397 H 395.068 7.06224 2.69784 0
M  V30 4398 H 396.336 6.77662 3.8522 0
M  V30 4399 N 400.565 -0.0233959 1.57583 0
M  V30 4400 C 401.811 -0.714119 1.89811 0
M  V30 4401 C 402.144 -1.74702 0.848113 0
M  V30 4402 O 401.419 -1.94023 -0.136135 0
M  V30 4403 C 401.702 -1.37853 3.32669 0
M  V30 4404 C 401.555 -0.358764 4.48367 0
M  V30 4405 C 402.874 -2.31101 3.7454 0
M  V30 4406 H 399.993 -0.25814 0.690314 0
M  V30 4407 H 402.635 0.0230927 1.89986 0
M  V30 4408 H 400.785 -2.00689 3.3265 0
M  V30 4409 H 402.457 0.268115 4.6052 0
M  V30 4410 H 400.7 0.321387 4.32608 0
M  V30 4411 H 401.371 -0.862242 5.45224 0
M  V30 4412 H 403.847 -1.78304 3.75961 0
M  V30 4413 H 402.723 -2.74567 4.75294 0
M  V30 4414 H 402.984 -3.18018 3.0711 0
M  V30 4415 N 402.043 -1.548 -0.295768 0
M  V30 4416 C 403.271 -1.78327 -1.04914 0
M  V30 4417 C 403.686 -0.545316 -1.80753 0
M  V30 4418 O 403.043 0.485013 -1.75937 0
M  V30 4419 C 403.094 -2.99418 -2.02561 0
M  V30 4420 O 402.815 -4.18431 -1.29798 0
M  V30 4421 C 404.316 -3.35375 -2.89895 0
M  V30 4422 H 401.536 -0.594618 -0.310918 0
M  V30 4423 H 404.08 -2.01763 -0.333454 0
M  V30 4424 H 402.235 -2.78175 -2.69624 0
M  V30 4425 H 402.649 -4.86736 -1.95419 0
M  V30 4426 H 404.123 -4.23332 -3.54251 0
M  V30 4427 H 404.6 -2.53761 -3.58472 0
M  V30 4428 H 405.206 -3.58796 -2.28355 0
M  V30 4429 N 403.521 0.559213 -1.47345 0
M  V30 4430 C 404.451 1.67622 -1.62558 0
M  V30 4431 C 405.432 1.63331 -0.475087 0
M  V30 4432 O 406.617 1.80983 -0.704182 0
M  V30 4433 C 403.747 3.0626 -1.63774 0
M  V30 4434 C 402.701 3.25397 -2.7803 0
M  V30 4435 C 402.027 4.64801 -2.64318 0
M  V30 4436 C 403.327 3.10965 -4.19641 0
M  V30 4437 H 405.021 1.55146 -2.56067 0
M  V30 4438 H 402.567 0.744961 -1.23233 0
M  V30 4439 H 404.52 3.84247 -1.73008 0
M  V30 4440 H 403.244 3.1969 -0.66825 0
M  V30 4441 H 401.903 2.49817 -2.68304 0
M  V30 4442 H 401.551 4.75028 -1.65401 0
M  V30 4443 H 401.251 4.78555 -3.40968 0
M  V30 4444 H 402.775 5.44926 -2.75478 0
M  V30 4445 H 404.189 3.78772 -4.30354 0
M  V30 4446 H 402.586 3.36229 -4.97062 0
M  V30 4447 H 403.656 2.07736 -4.38148 0
M  V30 4448 N 404.999 1.35443 0.805782 0
M  V30 4449 C 406.239 1.30127 1.57627 0
M  V30 4450 C 406.603 -0.122567 1.91608 0
M  V30 4451 O 407.804 -0.300107 2.67119 0
M  V30 4452 C 406.075 2.18314 2.82973 0
M  V30 4453 S 407.634 2.30521 3.7337 0
M  V30 4454 H 404.452 0.462439 0.540066 0
M  V30 4455 H 407.054 1.70843 0.95042 0
M  V30 4456 H 405.758 3.20741 2.56034 0
M  V30 4457 H 405.289 1.78558 3.50543 0
M  V30 4458 H 407.304 1.49062 4.73281 0
M  V30 4459 N 406.477 -1.02803 1.19454 0
M  V30 4460 C 407.726 -1.7562 0.991996 0
M  V30 4461 C 408.039 -1.89672 -0.477901 0
M  V30 4462 O 409.245 -2.59468 -0.799287 0
M  V30 4463 C 407.701 -3.15812 1.72601 0
M  V30 4464 C 407.309 -3.0981 3.23607 0
M  V30 4465 C 409.053 -3.92918 1.60674 0
M  V30 4466 C 406.96 -4.44939 3.89594 0
M  V30 4467 H 405.89 -0.658352 0.367543 0
M  V30 4468 H 408.541 -1.15044 1.42959 0
M  V30 4469 H 406.923 -3.7686 1.21624 0
M  V30 4470 H 408.097 -2.58138 3.81709 0
M  V30 4471 H 406.412 -2.46201 3.35819 0
M  V30 4472 H 409.009 -4.9287 2.07323 0
M  V30 4473 H 409.352 -4.12502 0.561025 0
M  V30 4474 H 409.885 -3.38472 2.09001 0
M  V30 4475 H 406.624 -4.30559 4.94267 0
M  V30 4476 H 406.144 -4.96664 3.36281 0
M  V30 4477 H 407.823 -5.1382 3.93189 0
M  V30 4478 N 407.956 -0.998596 -1.21925 0
M  V30 4479 C 409.181 -0.696015 -1.95372 0
M  V30 4480 C 409.606 0.733826 -1.73195 0
M  V30 4481 O 408.964 1.50242 -1.01474 0
M  V30 4482 C 409.012 -1.01466 -3.4603 0
M  V30 4483 O 408.116 -0.116415 -4.12236 0
M  V30 4484 H 407.457 -0.259938 -0.611006 0
M  V30 4485 H 409.987 -1.33711 -1.54863 0
M  V30 4486 H 409.997 -0.958855 -3.96573 0
M  V30 4487 H 408.672 -2.05653 -3.61497 0
M  V30 4488 H 407.249 -0.228193 -3.72201 0
M  V30 4489 N 409.434 1.37368 -0.772513 0
M  V30 4490 C 410.68 1.99969 -0.337681 0
M  V30 4491 C 411.013 1.61184 1.08321 0
M  V30 4492 O 410.288 0.858395 1.74533 0
M  V30 4493 C 410.571 3.56858 -0.482121 0
M  V30 4494 C 410.424 4.0555 -1.94549 0
M  V30 4495 C 411.743 4.39955 0.113143 0
M  V30 4496 H 408.862 0.726464 -0.124171 0
M  V30 4497 H 411.504 1.63034 -0.975699 0
M  V30 4498 H 409.654 3.88452 0.0610361 0
M  V30 4499 H 411.326 3.84518 -2.54841 0
M  V30 4500 H 409.569 3.57715 -2.45403 0
M  V30 4501 H 410.24 5.14587 -1.9976 0
M  V30 4502 H 412.716 4.14623 -0.35031 0
M  V30 4503 H 411.592 5.48897 -0.0180514 0
M  V30 4504 H 411.853 4.25403 1.20354 0
M  V30 4505 N 410.912 0.523116 1.48665 0
M  V30 4506 C 411.842 -0.23231 2.32342 0
M  V30 4507 C 412.823 -0.941637 1.41659 0
M  V30 4508 O 414.008 -0.928751 1.70552 0
M  V30 4509 C 411.138 -1.28387 3.22698 0
M  V30 4510 C 410.092 -0.693098 4.22351 0
M  V30 4511 C 409.418 -1.8468 5.01794 0
M  V30 4512 C 410.718 0.33063 5.21252 0
M  V30 4513 H 412.412 0.466192 2.95748 0
M  V30 4514 H 409.958 0.225643 1.42221 0
M  V30 4515 H 411.911 -1.82024 3.80059 0
M  V30 4516 H 410.635 -2.01186 2.57278 0
M  V30 4517 H 409.294 -0.178299 3.66166 0
M  V30 4518 H 408.942 -2.56301 4.32804 0
M  V30 4519 H 408.642 -1.45747 5.69238 0
M  V30 4520 H 410.166 -2.38709 5.62006 0
M  V30 4521 H 411.58 -0.118407 5.73178 0
M  V30 4522 H 409.977 0.636974 5.9671 0
M  V30 4523 H 411.047 1.23883 4.68808 0
M  V30 4524 N 412.39 -1.55475 0.257931 0
M  V30 4525 C 413.32 -2.24815 -0.630912 0
M  V30 4526 C 414.301 -1.23224 -1.17259 0
M  V30 4527 O 415.486 -1.51904 -1.20991 0
M  V30 4528 C 412.616 -2.95609 -1.82298 0
M  V30 4529 C 411.57 -4.03982 -1.41359 0
M  V30 4530 C 410.896 -4.6226 -2.68738 0
M  V30 4531 C 412.196 -5.19109 -0.57648 0
M  V30 4532 H 413.89 -2.99354 -0.0526878 0
M  V30 4533 H 411.436 -1.4398 -0.023901 0
M  V30 4534 H 413.389 -3.42822 -2.45054 0
M  V30 4535 H 412.113 -2.18577 -2.42676 0
M  V30 4536 H 410.772 -3.57555 -0.809324 0
M  V30 4537 H 410.42 -3.81915 -3.27338 0
M  V30 4538 H 410.12 -5.35424 -2.42065 0
M  V30 4539 H 411.644 -5.12212 -3.32372 0
M  V30 4540 H 413.058 -5.62479 -1.10861 0
M  V30 4541 H 411.455 -5.98729 -0.405351 0
M  V30 4542 H 412.525 -4.83174 0.408776 0
M  V30 4543 N 413.868 0.0150385 -1.57593 0
M  V30 4544 C 415.093 0.718067 -1.94573 0
M  V30 4545 C 415.518 1.6734 -0.859005 0
M  V30 4546 O 414.876 1.80362 0.184147 0
M  V30 4547 C 414.924 1.43918 -3.30636 0
M  V30 4548 O 414.028 2.55299 -3.23876 0
M  V30 4549 H 413.369 0.192125 -0.635597 0
M  V30 4550 H 415.899 -0.0336708 -2.04572 0
M  V30 4551 H 415.909 1.80598 -3.65853 0
M  V30 4552 H 414.584 0.738619 -4.09289 0
M  V30 4553 H 413.161 2.21058 -3.00312 0
M  V30 4554 N 415.346 1.54954 0.287554 0
M  V30 4555 C 416.276 1.89839 1.35954 0
M  V30 4556 C 417.257 0.758675 1.52244 0
M  V30 4557 O 418.442 1.01557 1.65529 0
M  V30 4558 C 415.572 2.15753 2.72154 0
M  V30 4559 C 414.526 3.3159 2.70614 0
M  V30 4560 C 413.852 3.42952 4.10229 0
M  V30 4561 C 415.152 4.68359 2.31165 0
M  V30 4562 H 416.846 2.79625 1.07007 0
M  V30 4563 H 414.392 1.3454 0.513316 0
M  V30 4564 H 416.345 2.38743 3.47246 0
M  V30 4565 H 415.069 1.22752 3.02654 0
M  V30 4566 H 413.728 3.08545 1.97979 0
M  V30 4567 H 413.376 2.47443 4.37928 0
M  V30 4568 H 413.076 4.20826 4.10097 0
M  V30 4569 H 414.6 3.68218 4.87081 0
M  V30 4570 H 416.014 4.9099 2.95976 0
M  V30 4571 H 414.411 5.49044 2.42221 0
M  V30 4572 H 415.481 4.68165 1.26291 0
M  V30 4573 N 416.824 -0.551391 1.4764 0
M  V30 4574 C 418.052 -1.33357 1.58189 0
M  V30 4575 C 418.467 -1.87342 0.234199 0
M  V30 4576 O 417.824 -1.65301 -0.77343 0
M  V30 4577 C 417.875 -2.49942 2.61173 0
M  V30 4578 O 417.596 -1.98187 3.90709 0
M  V30 4579 C 419.097 -3.42072 2.8196 0
M  V30 4580 H 416.317 -0.40631 0.533998 0
M  V30 4581 H 418.861 -0.667367 1.93304 0
M  V30 4582 H 417.016 -3.12489 2.28975 0
M  V30 4583 H 417.43 -2.74342 4.47031 0
M  V30 4584 H 418.904 -4.20278 3.57869 0
M  V30 4585 H 419.381 -3.95978 1.89995 0
M  V30 4586 H 419.987 -2.85336 3.15378 0
M  V30 4587 N 418.302 -1.35869 -0.798587 0
M  V30 4588 C 419.548 -1.2978 -1.55836 0
M  V30 4589 C 419.881 0.125322 -1.93795 0
M  V30 4590 O 419.156 1.07658 -1.61987 0
M  V30 4591 C 419.439 -2.21188 -2.84162 0
M  V30 4592 C 419.292 -3.72155 -2.52628 0
M  V30 4593 C 420.611 -2.11545 -3.85923 0
M  V30 4594 H 417.73 -0.472769 -0.565383 0
M  V30 4595 H 420.372 -1.66341 -0.918192 0
M  V30 4596 H 418.522 -1.90139 -3.38791 0
M  V30 4597 H 420.194 -4.13682 -2.04121 0
M  V30 4598 H 418.437 -3.92042 -1.85704 0
M  V30 4599 H 419.108 -4.31511 -3.44242 0
M  V30 4600 H 421.584 -2.38855 -3.40716 0
M  V30 4601 H 420.46 -2.77688 -4.73477 0
M  V30 4602 H 420.721 -1.09987 -4.282 0
M  V30 4603 N 419.78 1.02168 -1.19998 0
M  V30 4604 C 421.027 1.75685 -1.00702 0
M  V30 4605 C 421.355 1.88947 0.461426 0
M  V30 4606 O 420.61 1.40832 1.35885 0
M  V30 4607 C 420.909 3.18081 -1.62969 0
M  V30 4608 C 420.575 3.24809 -3.12746 0
M  V30 4609 C 419.237 3.26352 -3.53621 0
M  V30 4610 C 421.589 3.23379 -4.08749 0
M  V30 4611 C 418.917 3.2413 -4.89036 0
M  V30 4612 C 421.269 3.22698 -5.44104 0
M  V30 4613 C 419.933 3.22542 -5.84399 0
M  V30 4614 H 419.203 0.642877 -0.368496 0
M  V30 4615 H 421.85 1.19865 -1.49348 0
M  V30 4616 H 420.155 3.77027 -1.06573 0
M  V30 4617 H 421.852 3.73648 -1.45561 0
M  V30 4618 H 418.442 3.2434 -2.80181 0
M  V30 4619 H 422.626 3.21361 -3.78207 0
M  V30 4620 H 417.882 3.22338 -5.19527 0
M  V30 4621 H 422.056 3.20543 -6.18244 0
M  V30 4622 H 419.683 3.20575 -6.89301 0
M  V30 4623 N 421.258 1.00505 1.21394 0
M  V30 4624 C 422.188 0.585684 2.26035 0
M  V30 4625 C 423.169 -0.393525 1.65485 0
M  V30 4626 O 424.354 -0.281497 1.92149 0
M  V30 4627 C 421.484 -0.0884283 3.47187 0
M  V30 4628 C 420.438 0.810567 4.20254 0
M  V30 4629 C 419.764 0.00286382 5.347 0
M  V30 4630 C 421.064 2.1132 4.77641 0
M  V30 4631 H 422.758 1.46039 2.61368 0
M  V30 4632 H 420.304 0.703648 1.25638 0
M  V30 4633 H 422.257 -0.393286 4.19561 0
M  V30 4634 H 420.981 -0.997766 3.10986 0
M  V30 4635 H 419.64 1.09925 3.49731 0
M  V30 4636 H 419.288 -0.907765 4.94741 0
M  V30 4637 H 418.988 0.601444 5.84514 0
M  V30 4638 H 420.512 -0.295808 6.09883 0
M  V30 4639 H 421.926 1.87148 5.41893 0
M  V30 4640 H 420.323 2.66164 5.37845 0
M  V30 4641 H 421.393 2.78393 3.9702 0
M  V30 4642 N 422.737 -1.36956 0.779787 0
M  V30 4643 C 423.667 -2.32761 0.185651 0
M  V30 4644 C 424.648 -1.56177 -0.673989 0
M  V30 4645 O 425.833 -1.84378 -0.609797 0
M  V30 4646 C 422.963 -3.40418 -0.687964 0
M  V30 4647 C 421.917 -4.27941 0.0710102 0
M  V30 4648 C 421.243 -5.26681 -0.922573 0
M  V30 4649 C 422.543 -5.07006 1.25467 0
M  V30 4650 H 424.237 -2.82698 0.986008 0
M  V30 4651 H 421.783 -1.3592 0.475592 0
M  V30 4652 H 423.736 -4.06423 -1.11348 0
M  V30 4653 H 422.46 -2.89025 -1.52093 0
M  V30 4654 H 421.119 -3.63478 0.47739 0
M  V30 4655 H 420.767 -4.71565 -1.7503 0
M  V30 4656 H 420.467 -5.86103 -0.419237 0
M  V30 4657 H 421.991 -5.9556 -1.34686 0
M  V30 4658 H 423.405 -5.66105 0.905401 0
M  V30 4659 H 421.802 -5.75793 1.69063 0
M  V30 4660 H 422.872 -4.3921 2.05481 0
M  V30 4661 N 424.215 -0.530993 -1.48385 0
M  V30 4662 C 425.461 0.00274135 -2.028 0
M  V30 4663 C 425.794 1.33838 -1.40716 0
M  V30 4664 O 425.069 1.86465 -0.553277 0
M  V30 4665 C 425.352 0.123676 -3.59888 0
M  V30 4666 C 425.205 -1.2372 -4.3245 0
M  V30 4667 C 426.524 0.849967 -4.31814 0
M  V30 4668 H 423.643 -0.000477758 -0.737 0
M  V30 4669 H 426.285 -0.688217 -1.77098 0
M  V30 4670 H 424.435 0.712157 -3.81917 0
M  V30 4671 H 426.107 -1.86687 -4.21836 0
M  V30 4672 H 424.35 -1.81882 -3.93829 0
M  V30 4673 H 425.021 -1.10557 -5.40815 0
M  V30 4674 H 427.497 0.350572 -4.14621 0
M  V30 4675 H 426.373 0.903486 -5.41413 0
M  V30 4676 H 426.634 1.90047 -3.99167 0
M  V30 4677 N 425.693 1.55336 -0.266172 0
M  V30 4678 C 426.942 1.98574 0.353749 0
M  V30 4679 C 427.255 1.15789 1.57646 0
M  V30 4680 O 428.461 1.49129 2.26876 0
M  V30 4681 C 426.917 3.53403 0.680747 0
M  V30 4682 C 426.525 4.44953 -0.52165 0
M  V30 4683 C 428.269 4.05251 1.26379 0
M  V30 4684 C 426.176 5.91156 -0.169736 0
M  V30 4685 H 425.106 0.741643 0.135949 0
M  V30 4686 H 427.757 1.79743 -0.369421 0
M  V30 4687 H 426.139 3.68001 1.46257 0
M  V30 4688 H 427.313 4.42121 -1.29869 0
M  V30 4689 H 425.628 4.03691 -1.02093 0
M  V30 4690 H 428.225 5.12021 1.54074 0
M  V30 4691 H 428.568 3.53749 2.19471 0
M  V30 4692 H 429.101 3.94057 0.544447 0
M  V30 4693 H 425.84 6.46736 -1.0683 0
M  V30 4694 H 425.36 5.97079 0.570717 0
M  V30 4695 H 427.039 6.4655 0.241245 0
M  V30 4696 N 427.171 -0.0066808 1.57599 0
M  V30 4697 C 428.399 -0.704087 1.94551 0
M  V30 4698 C 428.814 -1.67677 0.867746 0
M  V30 4699 O 428.171 -1.8185 -0.153925 0
M  V30 4700 C 428.222 -1.44177 3.31505 0
M  V30 4701 O 427.943 -0.508097 4.35144 0
M  V30 4702 C 429.444 -2.23429 3.82876 0
M  V30 4703 H 426.664 -0.196523 0.641576 0
M  V30 4704 H 429.208 0.042453 2.04456 0
M  V30 4705 H 427.363 -2.13999 3.22929 0
M  V30 4706 H 427.777 -1.02782 5.14331 0
M  V30 4707 H 429.251 -2.70552 4.8115 0
M  V30 4708 H 429.728 -3.05818 3.15233 0
M  V30 4709 H 430.334 -1.58636 3.94607 0
M  V30 4710 N 428.649 -1.55105 -0.279332 0
M  V30 4711 C 429.559 -1.90638 -1.36727 0
M  V30 4712 C 430.575 -0.802899 -1.54368 0
M  V30 4713 O 431.751 -1.10138 -1.68616 0
M  V30 4714 C 428.816 -2.16547 -2.70755 0
M  V30 4715 C 427.877 -3.40146 -2.61915 0
M  V30 4716 C 427.11 -3.6481 -3.8955 0
M  V30 4717 O 427.333 -2.92095 -4.89935 0
M  V30 4718 O 426.267 -4.58343 -3.90135 0
M  V30 4719 H 430.093 -2.83237 -1.09591 0
M  V30 4720 H 427.678 -1.4157 -0.477306 0
M  V30 4721 H 429.56 -2.34665 -3.50014 0
M  V30 4722 H 428.235 -1.27131 -2.9769 0
M  V30 4723 H 427.142 -3.2737 -1.81052 0
M  V30 4724 H 428.475 -4.29761 -2.3993 0
M  V30 4725 N 430.127 0.543554 -1.4793 0
M  V30 4726 C 431.355 1.32516 -1.58894 0
M  V30 4727 C 431.77 1.87215 -0.244131 0
M  V30 4728 O 431.127 1.65709 0.764652 0
M  V30 4729 C 431.178 2.48554 -2.62494 0
M  V30 4730 O 430.899 1.96112 -3.91755 0
M  V30 4731 C 432.4 3.40572 -2.8377 0
M  V30 4732 H 429.62 0.403472 -0.536145 0
M  V30 4733 H 432.164 0.657106 -1.93655 0
M  V30 4734 H 430.319 3.1127 -2.30629 0
M  V30 4735 H 430.733 2.71967 -4.4848 0
M  V30 4736 H 432.207 4.18375 -3.60093 0
M  V30 4737 H 432.684 3.94965 -1.92092 0
M  V30 4738 H 433.29 2.8366 -3.16887 0
M  V30 4739 N 431.605 1.3629 0.791371 0
M  V30 4740 C 432.854 1.29742 1.54434 0
M  V30 4741 C 433.167 -0.121729 1.95221 0
M  V30 4742 O 434.373 -0.309579 2.69729 0
M  V30 4743 C 432.829 2.27623 2.78776 0
M  V30 4744 C 432.437 3.74963 2.45166 0
M  V30 4745 C 434.181 2.30047 3.56761 0
M  V30 4746 C 432.088 4.64626 3.65891 0
M  V30 4747 H 431.018 0.482113 0.579727 0
M  V30 4748 H 433.669 1.61642 0.868565 0
M  V30 4749 H 432.051 1.88714 3.48142 0
M  V30 4750 H 433.225 4.22596 1.83709 0
M  V30 4751 H 431.54 3.75295 1.80396 0
M  V30 4752 H 434.137 2.94247 4.46456 0
M  V30 4753 H 434.48 1.30846 3.95203 0
M  V30 4754 H 435.013 2.67563 2.94372 0
M  V30 4755 H 431.752 5.64883 3.32547 0
M  V30 4756 H 431.272 4.2171 4.26521 0
M  V30 4757 H 432.951 4.80801 4.32943 0
M  V30 4758 N 433.083 -1.0153 1.20538 0
M  V30 4759 C 434.494 -1.56598 1.01657 0
M  V30 4760 C 434.845 -1.91505 -0.426668 0
M  V30 4761 O 433.97 -1.72375 -1.30827 0
M  V30 4762 C 434.565 -2.84542 1.83905 0
M  V30 4763 C 433.124 -3.36133 1.69386 0
M  V30 4764 C 432.271 -2.09427 1.81757 0
M  V30 4765 H 435.222 -0.838974 1.34711 0
M  V30 4766 H 435.243 -3.56004 1.34319 0
M  V30 4767 H 434.755 -2.59105 2.8894 0
M  V30 4768 H 432.856 -3.66528 0.669933 0
M  V30 4769 H 432.969 -4.08248 2.50739 0
M  V30 4770 H 431.333 -2.21941 1.24957 0
M  V30 4771 H 432.116 -1.86414 2.88279 0
M  V30 4772 N 434.561 -1.01147 -1.20859 0
M  V30 4773 C 435.786 -0.716698 -1.94623 0
M  V30 4774 C 436.211 0.715415 -1.73964 0
M  V30 4775 O 435.569 1.49157 -1.03062 0
M  V30 4776 C 435.617 -1.0513 -3.44935 0
M  V30 4777 O 434.721 -0.160131 -4.12089 0
M  V30 4778 H 434.062 -0.266404 -0.608214 0
M  V30 4779 H 436.592 -1.35346 -1.53436 0
M  V30 4780 H 436.602 -1.00086 -3.95533 0
M  V30 4781 H 435.277 -2.09475 -3.59295 0
M  V30 4782 H 433.854 -0.267657 -3.71938 0
M  V30 4783 N 436.039 1.36541 -0.78704 0
M  V30 4784 C 437.267 2.03561 -0.370199 0
M  V30 4785 C 437.682 1.59347 1.01263 0
M  V30 4786 O 437.039 0.781781 1.64907 0
M  V30 4787 C 437.09 3.59033 -0.421614 0
M  V30 4788 O 436.811 4.01634 -1.7499 0
M  V30 4789 C 438.312 4.433 0.00489763 0
M  V30 4790 H 435.532 0.653346 -0.152904 0
M  V30 4791 H 438.076 1.74566 -1.06522 0
M  V30 4792 H 436.231 3.86746 0.224971 0
M  V30 4793 H 436.645 4.96217 -1.69909 0
M  V30 4794 H 438.119 5.51939 -0.0822184 0
M  V30 4795 H 438.596 4.26285 1.05723 0
M  V30 4796 H 439.202 4.20843 -0.614085 0
M  V30 4797 N 437.518 0.538854 1.48102 0
M  V30 4798 C 438.743 0.0102694 2.07397 0
M  V30 4799 C 439.168 -1.26562 1.39153 0
M  V30 4800 O 438.526 -1.75357 0.460387 0
M  V30 4801 C 438.574 -0.187602 3.60112 0
M  V30 4802 O 437.678 -1.25432 3.92862 0
M  V30 4803 H 437.019 0.0430975 0.6626 0
M  V30 4804 H 439.549 0.749301 1.90385 0
M  V30 4805 H 439.559 -0.407517 4.0596 0
M  V30 4806 H 438.234 0.744386 4.09184 0
M  V30 4807 H 436.811 -1.01636 3.58782 0
M  V30 4808 N 438.996 -1.55193 0.274407 0
M  V30 4809 C 439.926 -2.25471 -0.607032 0
M  V30 4810 C 440.907 -1.24461 -1.15946 0
M  V30 4811 O 442.092 -1.53179 -1.19373 0
M  V30 4812 C 439.222 -2.97526 -1.79153 0
M  V30 4813 C 438.176 -4.05459 -1.37067 0
M  V30 4814 C 437.502 -4.65084 -2.6382 0
M  V30 4815 C 438.802 -5.19691 -0.521389 0
M  V30 4816 H 440.496 -2.99393 -0.0209343 0
M  V30 4817 H 438.042 -1.43997 -0.00862866 0
M  V30 4818 H 439.995 -3.45402 -2.41404 0
M  V30 4819 H 438.719 -2.21138 -2.40344 0
M  V30 4820 H 437.378 -3.58393 -0.771355 0
M  V30 4821 H 437.026 -3.85365 -3.23268 0
M  V30 4822 H 436.726 -5.37961 -2.36372 0
M  V30 4823 H 438.25 -5.15708 -3.26921 0
M  V30 4824 H 439.664 -5.63623 -1.04889 0
M  V30 4825 H 438.061 -5.99126 -0.341825 0
M  V30 4826 H 439.131 -4.82713 0.46 0
M  V30 4827 N 440.474 -0.00167713 -1.576 0
M  V30 4828 C 441.72 0.683832 -1.90923 0
M  V30 4829 C 442.053 1.7333 -0.875799 0
M  V30 4830 O 441.328 1.94215 0.10525 0
M  V30 4831 C 441.611 1.32543 -3.3482 0
M  V30 4832 C 441.464 0.287387 -4.48881 0
M  V30 4833 C 442.783 2.25114 -3.78169 0
M  V30 4834 H 439.902 0.247125 -0.694333 0
M  V30 4835 H 442.544 -0.0533149 -1.89925 0
M  V30 4836 H 440.694 1.95372 -3.35801 0
M  V30 4837 H 442.366 -0.341346 -4.60035 0
M  V30 4838 H 440.609 -0.39017 -4.32042 0
M  V30 4839 H 441.28 0.775393 -5.46527 0
M  V30 4840 H 443.756 1.723 -3.7875 0
M  V30 4841 H 442.632 2.66971 -4.79602 0
M  V30 4842 H 442.893 3.13092 -3.12131 0
M  V30 4843 N 441.952 1.55251 0.271103 0
M  V30 4844 C 443.198 1.76207 1.00394 0
M  V30 4845 C 443.531 0.562604 1.85872 0
M  V30 4846 O 442.806 -0.439785 1.89463 0
M  V30 4847 C 443.089 3.06828 1.8849 0
M  V30 4848 C 442.942 4.37134 1.05992 0
M  V30 4849 C 444.261 3.33503 2.87165 0
M  V30 4850 H 441.38 0.641086 0.363562 0
M  V30 4851 H 444.022 1.87982 0.276189 0
M  V30 4852 H 442.172 2.96921 2.5054 0
M  V30 4853 H 443.844 4.59001 0.459978 0
M  V30 4854 H 442.087 4.32275 0.363443 0
M  V30 4855 H 442.758 5.2486 1.70955 0
M  V30 4856 H 445.234 3.43215 2.3525 0
M  V30 4857 H 444.11 4.2616 3.45946 0
M  V30 4858 H 444.371 2.53235 3.62387 0
M  V30 4859 N 443.43 -0.535701 1.48216 0
M  V30 4860 C 444.841 -1.11769 1.49548 0
M  V30 4861 C 445.192 -1.94442 0.26207 0
M  V30 4862 O 444.317 -2.06987 -0.631287 0
M  V30 4863 C 444.912 -2.03367 2.70975 0
M  V30 4864 C 443.471 -2.56795 2.75196 0
M  V30 4865 C 442.618 -1.33631 2.42977 0
M  V30 4866 H 445.569 -0.321232 1.55415 0
M  V30 4867 H 445.59 -2.87569 2.49167 0
M  V30 4868 H 445.102 -1.43169 3.60727 0
M  V30 4869 H 443.203 -3.20731 1.89638 0
M  V30 4870 H 443.316 -2.9632 3.76472 0
M  V30 4871 H 441.68 -1.6502 1.94012 0
M  V30 4872 H 442.463 -0.75194 3.34964 0
M  V30 4873 N 444.908 -1.36708 -0.784132 0
M  V30 4874 C 445.838 -1.34153 -1.91116 0
M  V30 4875 C 446.819 -0.212121 -1.68772 0
M  V30 4876 O 448.004 -0.410581 -1.8981 0
M  V30 4877 C 445.134 -1.13535 -3.28218 0
M  V30 4878 C 444.088 -2.23356 -3.65097 0
M  V30 4879 C 443.414 -1.87875 -5.00607 0
M  V30 4880 C 444.714 -3.65473 -3.73131 0
M  V30 4881 H 446.408 -2.28459 -1.93512 0
M  V30 4882 H 443.954 -1.09973 -0.929618 0
M  V30 4883 H 445.907 -1.10381 -4.06687 0
M  V30 4884 H 444.631 -0.156804 -3.26223 0
M  V30 4885 H 443.29 -2.25645 -2.88929 0
M  V30 4886 H 442.938 -0.885814 -4.95139 0
M  V30 4887 H 442.638 -2.61406 -5.26252 0
M  V30 4888 H 444.162 -1.86286 -5.81489 0
M  V30 4889 H 445.576 -3.65382 -4.41779 0
M  V30 4890 H 443.973 -4.37953 -4.10265 0
M  V30 4891 H 445.043 -3.99995 -2.74102 0
M  V30 4892 N 446.386 1.0089 -1.21074 0
M  V30 4893 C 447.632 1.74866 -1.02712 0
M  V30 4894 C 447.965 1.89178 0.438787 0
M  V30 4895 O 447.24 1.42325 1.32567 0
M  V30 4896 C 447.523 3.16347 -1.72036 0
M  V30 4897 C 447.376 3.09782 -3.26121 0
M  V30 4898 C 448.695 4.15187 -1.45973 0
M  V30 4899 H 445.814 0.634736 -0.374539 0
M  V30 4900 H 448.456 1.17646 -1.49196 0
M  V30 4901 H 446.606 3.65201 -1.32517 0
M  V30 4902 H 448.278 2.68673 -3.74983 0
M  V30 4903 H 446.521 2.46982 -3.56626 0
M  V30 4904 H 447.192 4.09829 -3.6979 0
M  V30 4905 H 449.668 3.75022 -1.80272 0
M  V30 4906 H 448.544 5.12331 -1.96999 0
M  V30 4907 H 448.805 4.40386 -0.388924 0
M  V30 4908 N 447.864 1.01787 1.20321 0
M  V30 4909 C 449.112 0.706538 1.89347 0
M  V30 4910 C 449.433 -0.766289 1.79313 0
M  V30 4911 O 448.703 -1.55126 1.19635 0
M  V30 4912 H 447.283 0.258348 0.700903 0
M  V30 4913 H 449.945 1.28974 1.46122 0
M  V30 4914 H 449.041 0.991066 2.95946 0
M  V30 4915 N 449.342 -1.36122 0.79427 0
M  V30 4916 C 450.252 -2.33769 0.197296 0
M  V30 4917 C 451.268 -1.61276 -0.653153 0
M  V30 4918 O 452.444 -1.9323 -0.5678 0
M  V30 4919 C 449.509 -3.40474 -0.654098 0
M  V30 4920 C 448.57 -4.28759 0.215411 0
M  V30 4921 C 447.803 -5.30368 -0.595443 0
M  V30 4922 O 448.026 -5.40211 -1.83107 0
M  V30 4923 O 446.96 -6.019 0.00721351 0
M  V30 4924 H 450.786 -2.86597 1.00478 0
M  V30 4925 H 448.371 -1.38676 0.555818 0
M  V30 4926 H 450.253 -4.05703 -1.13944 0
M  V30 4927 H 448.928 -2.89937 -1.43938 0
M  V30 4928 H 447.835 -3.66554 0.747615 0
M  V30 4929 H 449.168 -4.82661 0.964332 0
M  V30 4930 N 450.82 -0.546701 -1.47814 0
M  V30 4931 C 452.05 -0.0232519 -2.06587 0
M  V30 4932 C 452.458 1.2712 -1.40133 0
M  V30 4933 O 451.801 1.77091 -0.488305 0
M  V30 4934 C 451.863 0.254117 -3.58601 0
M  V30 4935 C 451.527 -0.949331 -4.47031 0
M  V30 4936 C 452.524 -1.85216 -4.85789 0
M  V30 4937 C 450.209 -1.16104 -4.88697 0
M  V30 4938 C 452.203 -2.95047 -5.65001 0
M  V30 4939 C 449.89 -2.26247 -5.67676 0
M  V30 4940 C 450.888 -3.1555 -6.05737 0
M  V30 4941 O 450.576 -4.23784 -6.83127 0
M  V30 4942 H 450.308 -0.0380082 -0.674931 0
M  V30 4943 H 452.862 -0.756631 -1.90956 0
M  V30 4944 H 451.092 1.04168 -3.72406 0
M  V30 4945 H 452.781 0.72167 -3.99433 0
M  V30 4946 H 453.547 -1.70061 -4.54207 0
M  V30 4947 H 449.426 -0.475159 -4.58545 0
M  V30 4948 H 452.97 -3.64778 -5.94628 0
M  V30 4949 H 448.867 -2.41379 -5.98671 0
M  V30 4950 H 449.635 -4.21701 -7.01506 0
M  V30 4951 N 452.299 1.55045 -0.282633 0
M  V30 4952 C 453.229 2.2579 0.595066 0
M  V30 4953 C 454.21 1.25074 1.15284 0
M  V30 4954 O 455.395 1.5381 1.18559 0
M  V30 4955 C 452.525 2.98472 1.77572 0
M  V30 4956 C 451.479 4.0618 1.34914 0
M  V30 4957 C 450.805 4.66477 2.6135 0
M  V30 4958 C 452.105 5.1996 0.493821 0
M  V30 4959 H 453.799 2.994 0.00505653 0
M  V30 4960 H 451.345 1.44 0.000992001 0
M  V30 4961 H 453.298 3.46677 2.39568 0
M  V30 4962 H 452.022 2.2241 2.39168 0
M  V30 4963 H 450.681 3.58797 0.752338 0
M  V30 4964 H 450.329 3.87074 3.2122 0
M  V30 4965 H 450.029 5.39207 2.33516 0
M  V30 4966 H 451.553 5.17435 3.24181 0
M  V30 4967 H 452.967 5.64172 1.01898 0
M  V30 4968 H 451.364 5.99299 0.310047 0
M  V30 4969 H 452.434 4.82462 -0.485593 0
M  V30 4970 N 453.777 0.010035 1.57597 0
M  V30 4971 C 454.707 -0.976857 2.12084 0
M  V30 4972 C 455.688 -1.35191 1.03235 0
M  V30 4973 O 456.873 -1.43389 1.3097 0
M  V30 4974 C 454.003 -2.26548 2.63236 0
M  V30 4975 C 452.957 -2.03175 3.76701 0
M  V30 4976 C 452.283 -3.38138 4.14206 0
M  V30 4977 C 453.583 -1.38625 5.03568 0
M  V30 4978 H 455.277 -0.523145 2.94794 0
M  V30 4979 H 452.823 -0.250195 1.4181 0
M  V30 4980 H 454.776 -2.95952 2.99984 0
M  V30 4981 H 453.5 -2.74051 1.77661 0
M  V30 4982 H 452.159 -1.36195 3.40362 0
M  V30 4983 H 451.807 -3.83363 3.25641 0
M  V30 4984 H 451.507 -3.23312 4.90656 0
M  V30 4985 H 453.031 -4.08841 4.53521 0
M  V30 4986 H 454.445 -1.98 5.38023 0
M  V30 4987 H 452.842 -1.34256 5.84889 0
M  V30 4988 H 453.912 -0.356722 4.83586 0
M  V30 4989 N 455.255 -1.55392 -0.262866 0
M  V30 4990 C 456.502 -1.76476 -0.993109 0
M  V30 4991 C 456.83 -0.571479 -1.85915 0
M  V30 4992 O 456.085 0.445733 -1.90556 0
M  V30 4993 C 456.384 -3.02889 -1.89718 0
M  V30 4994 C 456.05 -4.34974 -1.18781 0
M  V30 4995 C 454.712 -4.7087 -0.991699 0
M  V30 4996 C 457.064 -5.16695 -0.683798 0
M  V30 4997 C 454.392 -5.86036 -0.279024 0
M  V30 4998 C 456.744 -6.32598 0.0153327 0
M  V30 4999 C 455.408 -6.67127 0.223062 0
M  V30 5000 H 454.678 -0.64577 -0.363404 0
M  V30 5001 H 457.325 -1.89664 -0.264525 0
M  V30 5002 H 455.63 -2.84644 -2.6923 0
M  V30 5003 H 457.327 -3.16399 -2.46359 0
M  V30 5004 H 453.917 -4.06765 -1.35058 0
M  V30 5005 H 458.101 -4.8943 -0.8229 0
M  V30 5006 H 453.357 -6.11306 -0.107456 0
M  V30 5007 H 457.531 -6.95171 0.413584 0
M  V30 5008 H 455.158 -7.56216 0.777265 0
M  V30 5009 N 456.733 0.527833 -1.48498 0
M  V30 5010 C 457.961 1.30823 -1.6029 0
M  V30 5011 C 458.376 1.86945 -0.263974 0
M  V30 5012 O 457.733 1.6651 0.747034 0
M  V30 5013 C 457.784 2.45756 -2.65116 0
M  V30 5014 O 457.505 1.91946 -3.93813 0
M  V30 5015 C 459.006 3.37543 -2.87367 0
M  V30 5016 H 456.226 0.397763 -0.540394 0
M  V30 5017 H 458.77 0.636529 -1.94341 0
M  V30 5018 H 456.925 3.08806 -2.33917 0
M  V30 5019 H 457.339 2.67195 -4.51339 0
M  V30 5020 H 458.813 4.14532 -3.6451 0
M  V30 5021 H 459.29 3.92905 -1.9627 0
M  V30 5022 H 459.896 2.80283 -3.19878 0
M  V30 5023 N 458.211 1.37122 0.776871 0
M  V30 5024 C 459.144 1.26835 1.89705 0
M  V30 5025 C 460.122 0.14992 1.61907 0
M  V30 5026 O 461.306 0.323242 1.85708 0
M  V30 5027 C 458.433 0.95986 3.24814 0
M  V30 5028 C 457.479 2.09447 3.7153 0
M  V30 5029 S 458.312 3.71368 3.85806 0
M  V30 5030 C 459.468 3.42659 5.23771 0
M  V30 5031 H 459.701 2.21647 1.98141 0
M  V30 5032 H 457.234 1.22685 0.937433 0
M  V30 5033 H 459.192 0.788696 4.02852 0
M  V30 5034 H 457.853 0.0293137 3.14086 0
M  V30 5035 H 457.046 1.8335 4.69467 0
M  V30 5036 H 456.648 2.2255 3.00578 0
M  V30 5037 H 458.94 2.9733 6.0877 0
M  V30 5038 H 459.883 4.39905 5.54878 0
M  V30 5039 H 460.291 2.77708 4.91466 0
M  V30 5040 N 459.689 -1.00246 1.21608 0
M  V30 5041 C 460.938 -1.73476 1.02902 0
M  V30 5042 C 461.251 -1.90643 -0.437561 0
M  V30 5043 O 462.457 -2.61105 -0.74407 0
M  V30 5044 C 460.913 -3.12079 1.79261 0
M  V30 5045 C 460.521 -3.02877 3.30106 0
M  V30 5046 C 462.265 -3.89421 1.68972 0
M  V30 5047 C 460.172 -4.36575 3.98944 0
M  V30 5048 H 459.102 -0.650408 0.381425 0
M  V30 5049 H 461.753 -1.11985 1.45367 0
M  V30 5050 H 460.135 -3.74196 1.2959 0
M  V30 5051 H 461.309 -2.49983 3.87098 0
M  V30 5052 H 459.624 -2.39022 3.40965 0
M  V30 5053 H 462.221 -4.88362 2.17731 0
M  V30 5054 H 462.564 -4.1122 0.648397 0
M  V30 5055 H 463.097 -3.33963 2.16133 0
M  V30 5056 H 459.836 -4.19978 5.03288 0
M  V30 5057 H 459.356 -4.8942 3.4674 0
M  V30 5058 H 461.035 -5.05364 4.04 0
M  V30 5059 N 461.167 -1.02423 -1.1978 0
M  V30 5060 C 462.414 -0.717988 -1.89344 0
M  V30 5061 C 462.742 0.753036 -1.79331 0
M  V30 5062 O 461.997 1.56355 -1.17692 0
M  V30 5063 C 462.296 -1.1088 -3.39765 0
M  V30 5064 C 461.962 -2.57731 -3.6998 0
M  V30 5065 C 460.624 -2.97854 -3.77937 0
M  V30 5066 C 462.976 -3.52763 -3.83677 0
M  V30 5067 C 460.304 -4.31931 -3.97054 0
M  V30 5068 C 462.656 -4.86538 -4.04306 0
M  V30 5069 C 461.32 -5.26356 -4.10494 0
M  V30 5070 H 460.59 -0.26273 -0.692859 0
M  V30 5071 H 463.237 -1.28623 -1.41875 0
M  V30 5072 H 461.542 -0.459094 -3.89101 0
M  V30 5073 H 463.239 -0.849432 -3.919 0
M  V30 5074 H 459.829 -2.25646 -3.64393 0
M  V30 5075 H 464.013 -3.2292 -3.76877 0
M  V30 5076 H 459.269 -4.62324 -4.00083 0
M  V30 5077 H 463.443 -5.60093 -4.13846 0
M  V30 5078 H 461.07 -6.3026 -4.2506 0
M  V30 5079 N 462.645 1.35699 -0.801477 0
M  V30 5080 C 463.891 1.99208 -0.380022 0
M  V30 5081 C 464.224 1.63445 1.04878 0
M  V30 5082 O 463.499 0.895223 1.72673 0
M  V30 5083 C 463.782 3.55755 -0.557708 0
M  V30 5084 C 463.635 4.01332 -2.03107 0
M  V30 5085 C 464.954 4.40096 0.0197968 0
M  V30 5086 H 462.073 0.723667 -0.139552 0
M  V30 5087 H 464.715 1.60928 -1.01006 0
M  V30 5088 H 462.865 3.88494 -0.0213741 0
M  V30 5089 H 464.537 3.79026 -2.62939 0
M  V30 5090 H 462.78 3.52429 -2.52936 0
M  V30 5091 H 463.451 5.10234 -2.1063 0
M  V30 5092 H 465.927 4.13786 -0.438179 0
M  V30 5093 H 464.803 5.48735 -0.134477 0
M  V30 5094 H 465.064 4.2786 1.11303 0
M  V30 5095 N 464.123 0.554532 1.47522 0
M  V30 5096 C 465.351 0.034257 2.06872 0
M  V30 5097 C 465.766 -1.25826 1.40759 0
M  V30 5098 O 465.123 -1.75425 0.503217 0
M  V30 5099 C 465.174 -0.167827 3.6111 0
M  V30 5100 O 464.895 1.07351 4.24744 0
M  V30 5101 C 466.396 -0.72569 4.3732 0
M  V30 5102 H 463.616 0.0446275 0.669514 0
M  V30 5103 H 466.16 0.767181 1.89564 0
M  V30 5104 H 464.315 -0.850872 3.7794 0
M  V30 5105 H 464.729 0.869563 5.17242 0
M  V30 5106 H 466.203 -0.816394 5.45929 0
M  V30 5107 H 466.68 -1.73635 4.0342 0
M  V30 5108 H 467.286 -0.0784292 4.25228 0
M  V30 5109 N 465.601 -1.54893 0.290851 0
M  V30 5110 C 466.531 -2.26103 -0.583084 0
M  V30 5111 C 467.512 -1.25684 -1.14619 0
M  V30 5112 O 468.697 -1.54436 -1.17741 0
M  V30 5113 C 465.827 -2.99409 -1.75987 0
M  V30 5114 C 464.781 -4.0689 -1.32758 0
M  V30 5115 C 464.107 -4.67856 -2.58872 0
M  V30 5116 C 465.407 -5.20215 -0.46624 0
M  V30 5117 H 467.101 -2.99398 0.0108214 0
M  V30 5118 H 464.647 -1.43998 0.00664468 0
M  V30 5119 H 466.6 -3.47943 -2.37727 0
M  V30 5120 H 465.324 -2.23675 -2.37985 0
M  V30 5121 H 463.983 -3.59191 -0.733299 0
M  V30 5122 H 463.631 -3.88772 -3.19163 0
M  V30 5123 H 463.331 -5.40438 -2.30653 0
M  V30 5124 H 464.855 -5.19147 -3.21433 0
M  V30 5125 H 466.269 -5.64704 -0.989047 0
M  V30 5126 H 464.666 -5.99455 -0.27826 0
M  V30 5127 H 465.736 -4.82198 0.511173 0
M  V30 5128 N 467.08 -0.0183926 -1.57589 0
M  V30 5129 C 468.305 0.676634 -1.96052 0
M  V30 5130 C 468.73 1.6548 -0.894307 0
M  V30 5131 O 468.088 1.80712 0.145849 0
M  V30 5132 C 468.136 1.36872 -3.33614 0
M  V30 5133 O 467.24 2.48372 -3.29219 0
M  V30 5134 H 466.581 0.1786 -0.63953 0
M  V30 5135 H 469.111 -0.077056 -2.04455 0
M  V30 5136 H 469.121 1.72797 -3.69601 0
M  V30 5137 H 467.796 0.651636 -4.10763 0
M  V30 5138 H 466.373 2.14639 -3.04934 0
M  V30 5139 N 468.558 1.5553 0.254621 0
M  V30 5140 C 469.807 1.76202 0.981612 0
M  V30 5141 C 470.12 0.580883 1.86776 0
M  V30 5142 O 471.326 0.670448 2.63092 0
M  V30 5143 C 469.782 3.11921 1.79537 0
M  V30 5144 C 469.39 4.37659 0.956991 0
M  V30 5145 C 471.134 3.41936 2.51555 0
M  V30 5146 C 469.041 5.64411 1.76619 0
M  V30 5147 H 467.971 0.656841 0.370237 0
M  V30 5148 H 470.622 1.81969 0.236556 0
M  V30 5149 H 469.004 3.00241 2.58208 0
M  V30 5150 H 470.178 4.60307 0.21315 0
M  V30 5151 H 468.493 4.14922 0.350497 0
M  V30 5152 H 471.09 4.33849 3.12536 0
M  V30 5153 H 471.433 2.62905 3.22779 0
M  V30 5154 H 471.966 3.54797 1.799 0
M  V30 5155 H 468.705 6.46241 1.09783 0
M  V30 5156 H 468.225 5.45877 2.48551 0
M  V30 5157 H 469.904 6.03386 2.33527 0
M  V30 5158 N 470.036 -0.519951 1.48776 0
M  V30 5159 C 471.282 -1.27711 1.57536 0
M  V30 5160 C 471.615 -1.92547 0.252866 0
M  V30 5161 O 470.89 -1.7979 -0.742021 0
M  V30 5162 C 471.173 -2.35875 2.72094 0
M  V30 5163 C 471.026 -1.75664 4.1408 0
M  V30 5164 C 472.345 -3.37575 2.82367 0
M  V30 5165 H 469.464 -0.462971 0.573434 0
M  V30 5166 H 472.106 -0.578194 1.80989 0
M  V30 5167 H 470.256 -2.95488 2.52228 0
M  V30 5168 H 471.928 -1.20025 4.45412 0
M  V30 5169 H 470.171 -1.06154 4.20611 0
M  V30 5170 H 470.842 -2.54029 4.90075 0
M  V30 5171 H 473.318 -2.87929 3.00393 0
M  V30 5172 H 472.194 -4.1064 3.64233 0
M  V30 5173 H 472.455 -3.98743 1.90936 0
M  V30 5174 N 471.514 -1.37532 -0.769588 0
M  V30 5175 C 472.76 -1.33057 -1.53048 0
M  V30 5176 C 473.093 0.0841865 -1.94017 0
M  V30 5177 O 472.368 1.04198 -1.64235 0
M  V30 5178 C 472.651 -2.27166 -2.79406 0
M  V30 5179 C 472.504 -3.77429 -2.44677 0
M  V30 5180 C 473.823 -2.19683 -3.81349 0
M  V30 5181 H 470.942 -0.484655 -0.555228 0
M  V30 5182 H 473.584 -1.68251 -0.882702 0
M  V30 5183 H 471.734 -1.97283 -3.34682 0
M  V30 5184 H 473.406 -4.17918 -1.953 0
M  V30 5185 H 471.649 -3.95892 -1.77346 0
M  V30 5186 H 472.32 -4.38716 -3.35011 0
M  V30 5187 H 474.796 -2.46029 -3.35573 0
M  V30 5188 H 473.672 -2.87668 -4.67481 0
M  V30 5189 H 473.933 -1.19045 -4.25771 0
M  V30 5190 N 472.992 0.995999 -1.22138 0
M  V30 5191 C 474.22 1.77066 -1.07029 0
M  V30 5192 C 474.635 1.8495 0.379357 0
M  V30 5193 O 473.992 1.3174 1.26297 0
M  V30 5194 C 474.043 3.20533 -1.67155 0
M  V30 5195 O 473.764 3.13082 -3.06449 0
M  V30 5196 C 475.265 4.14461 -1.5728 0
M  V30 5197 H 472.485 0.556179 -0.375374 0
M  V30 5198 H 475.029 1.25238 -1.61666 0
M  V30 5199 H 473.184 3.6944 -1.16589 0
M  V30 5200 H 473.598 4.03283 -3.35355 0
M  V30 5201 H 475.072 5.1289 -2.04078 0
M  V30 5202 H 475.549 4.36005 -0.528795 0
M  V30 5203 H 476.155 3.71449 -2.07136 0
M  V30 5204 N 474.47 1.03057 1.19235 0
M  V30 5205 C 475.716 0.729098 1.89241 0
M  V30 5206 C 476.049 -0.740573 1.79525 0
M  V30 5207 O 475.324 -1.53946 1.18874 0
M  V30 5208 C 475.607 1.18304 3.40112 0
M  V30 5209 C 475.46 2.71406 3.5869 0
M  V30 5210 C 476.779 0.765161 4.33397 0
M  V30 5211 H 473.898 0.266338 0.687192 0
M  V30 5212 H 476.54 1.28079 1.40341 0
M  V30 5213 H 474.69 0.713672 3.81889 0
M  V30 5214 H 476.362 3.26303 3.26074 0
M  V30 5215 H 474.605 3.11717 3.01687 0
M  V30 5216 H 475.276 2.98225 4.64506 0
M  V30 5217 H 477.752 1.16889 3.99345 0
M  V30 5218 H 476.628 1.11065 5.37546 0
M  V30 5219 H 476.889 -0.332372 4.40849 0
M  V30 5220 N 475.948 -1.35272 0.808662 0
M  V30 5221 C 477.195 -1.98709 0.390003 0
M  V30 5222 C 477.523 -1.64148 -1.04335 0
M  V30 5223 O 476.778 -0.897797 -1.73891 0
M  V30 5224 C 477.077 -3.53556 0.522798 0
M  V30 5225 C 476.743 -4.0799 1.91977 0
M  V30 5226 C 475.405 -4.22568 2.30195 0
M  V30 5227 C 477.757 -4.37442 2.83361 0
M  V30 5228 C 475.085 -4.63918 3.59162 0
M  V30 5229 C 477.437 -4.80232 4.11776 0
M  V30 5230 C 476.101 -4.93016 4.49991 0
M  V30 5231 H 475.371 -0.727127 0.142712 0
M  V30 5232 H 478.018 -1.6145 1.02985 0
M  V30 5233 H 476.323 -3.91287 -0.200494 0
M  V30 5234 H 478.02 -4.00598 0.179608 0
M  V30 5235 H 474.61 -3.97096 1.61284 0
M  V30 5236 H 478.794 -4.25731 2.55083 0
M  V30 5237 H 474.05 -4.72005 3.88615 0
M  V30 5238 H 478.224 -5.01982 4.82687 0
M  V30 5239 H 475.851 -5.24814 5.49976 0
M  V30 5240 N 477.426 -0.562348 -1.47226 0
M  V30 5241 C 478.672 -0.0402761 -2.0276 0
M  V30 5242 C 479.005 1.30823 -1.43523 0
M  V30 5243 O 478.28 1.85249 -0.592705 0
M  V30 5244 C 478.563 0.047311 -3.60069 0
M  V30 5245 C 478.416 -1.32865 -4.29729 0
M  V30 5246 C 479.735 0.758182 -4.3352 0
M  V30 5247 H 476.854 -0.0161105 -0.736824 0
M  V30 5248 H 479.496 -0.725628 -1.75598 0
M  V30 5249 H 477.646 0.630986 -3.83342 0
M  V30 5250 H 479.318 -1.95593 -4.17781 0
M  V30 5251 H 477.561 -1.90195 -3.89882 0
M  V30 5252 H 478.232 -1.22004 -5.38349 0
M  V30 5253 H 480.708 0.262546 -4.15271 0
M  V30 5254 H 479.584 0.78844 -5.43208 0
M  V30 5255 H 479.845 1.81537 -4.03109 0
M  V30 5256 N 478.904 1.54736 -0.299062 0
M  V30 5257 C 479.834 2.26409 0.571085 0
M  V30 5258 C 480.815 1.2629 1.13951 0
M  V30 5259 O 482 1.55059 1.16921 0
M  V30 5260 C 479.13 3.00338 1.74396 0
M  V30 5261 C 478.084 4.07588 1.30599 0
M  V30 5262 C 477.41 4.69222 2.56387 0
M  V30 5263 C 478.71 5.20455 0.438645 0
M  V30 5264 H 480.404 2.99388 -0.0266991 0
M  V30 5265 H 477.95 1.43993 -0.0142812 0
M  V30 5266 H 479.903 3.49198 2.35878 0
M  V30 5267 H 478.627 2.24934 2.36796 0
M  V30 5268 H 477.286 3.59575 0.71424 0
M  V30 5269 H 476.934 3.9046 3.17097 0
M  V30 5270 H 476.634 5.41653 2.27784 0
M  V30 5271 H 478.158 5.20844 3.18675 0
M  V30 5272 H 479.572 5.65221 0.959085 0
M  V30 5273 H 477.969 5.99594 0.246466 0
M  V30 5274 H 479.039 4.8192 -0.536738 0
M  V30 5275 N 480.382 0.0267497 1.57577 0
M  V30 5276 C 481.33 -0.973923 2.11229 0
M  V30 5277 C 482.324 -1.33849 1.03831 0
M  V30 5278 O 483.53 -1.321 1.22269 0
M  V30 5279 H 479.905 -0.331844 0.674821 0
M  V30 5280 H 481.876 -0.496092 2.94247 0
M  V30 5281 C 480.625 -2.24798 2.65257 0
M  V30 5282 H 479.948 -1.9762 3.47543 0
M  V30 5283 H 481.388 -2.93031 3.06445 0
M  V30 5284 C 479.847 -2.97611 1.57891 0
M  V30 5285 O 480.377 -3.89629 0.97735 0
M  V30 5286 N 478.583 -2.59905 1.29992 0
M  V30 5287 H 478.13 -1.85154 1.79097 0
M  V30 5288 H 478.088 -3.08932 0.583798 0
M  V30 5289 N 481.861 -1.55662 -0.24637 0
M  V30 5290 C 483.11 -1.7672 -0.972254 0
M  V30 5291 C 483.423 -0.59078 -1.86465 0
M  V30 5292 O 484.629 -0.684391 -2.62732 0
M  V30 5293 C 483.085 -3.12869 -1.7788 0
M  V30 5294 C 482.693 -4.38161 -0.933768 0
M  V30 5295 C 484.437 -3.43265 -2.49738 0
M  V30 5296 C 482.344 -5.6534 -1.73623 0
M  V30 5297 H 481.274 -0.658795 -0.366749 0
M  V30 5298 H 483.925 -1.82092 -0.226902 0
M  V30 5299 H 482.307 -3.01606 -2.56612 0
M  V30 5300 H 483.481 -4.60413 -0.188736 0
M  V30 5301 H 481.796 -4.15102 -0.328488 0
M  V30 5302 H 484.393 -4.35501 -3.10231 0
M  V30 5303 H 484.736 -2.64614 -3.2138 0
M  V30 5304 H 485.269 -3.55746 -1.78016 0
M  V30 5305 H 482.008 -6.46814 -1.06354 0
M  V30 5306 H 481.528 -5.47188 -2.45653 0
M  V30 5307 H 483.207 -6.04616 -2.30323 0
M  V30 5308 N 483.339 0.512053 -1.4905 0
M  V30 5309 C 484.289 1.61142 -1.61298 0
M  V30 5310 C 485.273 1.53908 -0.46916 0
M  V30 5311 O 486.465 1.61625 -0.721547 0
M  V30 5312 C 483.594 2.998 -1.67256 0
M  V30 5313 C 482.68 3.12072 -2.87179 0
M  V30 5314 N 483.071 2.94263 -4.11391 0
M  V30 5315 C 481.369 3.43156 -2.84886 0
M  V30 5316 C 482.07 3.10426 -4.91946 0
M  V30 5317 N 481.046 3.38808 -4.251 0
M  V30 5318 H 484.848 1.46011 -2.55065 0
M  V30 5319 H 482.362 0.717934 -1.45669 0
M  V30 5320 H 484.359 3.78794 -1.74128 0
M  V30 5321 H 483.019 3.1601 -0.746195 0
M  V30 5322 H 484.03 2.70661 -4.41546 0
M  V30 5323 H 480.707 3.65611 -2.01581 0
M  V30 5324 H 482.097 3.01243 -6.00585 0
M  V30 5325 N 484.817 1.37938 0.762283 0
M  V30 5326 C 486.047 1.36685 1.54922 0
M  V30 5327 C 486.455 -0.0474099 1.89141 0
M  V30 5328 O 485.798 -1.02213 1.52638 0
M  V30 5329 C 485.86 2.14963 2.88152 0
M  V30 5330 C 485.524 3.6385 2.76518 0
M  V30 5331 C 486.521 4.57531 2.46904 0
M  V30 5332 C 484.206 4.07095 2.94243 0
M  V30 5333 C 486.2 5.92436 2.35156 0
M  V30 5334 C 483.887 5.42083 2.82116 0
M  V30 5335 C 484.885 6.34567 2.52614 0
M  V30 5336 O 484.573 7.67073 2.40529 0
M  V30 5337 H 484.305 0.469586 0.486276 0
M  V30 5338 H 486.859 1.82012 0.951876 0
M  V30 5339 H 485.089 1.6434 3.50042 0
M  V30 5340 H 486.778 2.06224 3.49609 0
M  V30 5341 H 487.544 4.25428 2.32886 0
M  V30 5342 H 483.423 3.35462 3.16206 0
M  V30 5343 H 486.967 6.64591 2.12049 0
M  V30 5344 H 482.864 5.73785 2.95704 0
M  V30 5345 H 483.632 7.77499 2.55807 0
M  V30 5346 N 486.295 -0.989507 1.22664 0
M  V30 5347 C 487.711 -1.25395 0.987331 0
M  V30 5348 C 487.911 -1.9899 -0.317056 0
M  V30 5349 O 486.967 -2.30141 -1.03882 0
M  V30 5350 C 488.28 -2.06242 2.18826 0
M  V30 5351 C 489.828 -2.19413 2.23219 0
M  V30 5352 C 490.303 -3.03648 3.42873 0
M  V30 5353 N 491.794 -3.11234 3.43056 0
M  V30 5354 C 492.529 -3.7671 4.32293 0
M  V30 5355 N 492.025 -4.44085 5.31752 0
M  V30 5356 N 493.818 -3.73505 4.2006 0
M  V30 5357 H 485.969 -0.496212 2.06522 0
M  V30 5358 H 488.232 -0.281784 0.905153 0
M  V30 5359 H 487.938 -1.59531 3.13437 0
M  V30 5360 H 487.812 -3.06996 2.19165 0
M  V30 5361 H 490.199 -2.65336 1.29154 0
M  V30 5362 H 490.28 -1.18078 2.26917 0
M  V30 5363 H 489.924 -2.58424 4.37241 0
M  V30 5364 H 489.854 -4.05132 3.36416 0
M  V30 5365 H 492.345 -2.63287 2.71088 0
M  V30 5366 H 492.658 -4.91797 5.96117 0
M  V30 5367 H 491.003 -4.42822 5.35662 0
M  V30 5368 H 494.194 -3.20033 3.41609 0
M  V30 5369 H 494.367 -4.24253 4.8981 0
M  V30 5370 N 487.773 -1.03688 -1.18687 0
M  V30 5371 C 489.001 -0.757918 -1.92518 0
M  V30 5372 C 489.416 0.684398 -1.75959 0
M  V30 5373 O 488.773 1.46617 -1.08673 0
M  V30 5374 C 488.824 -1.10985 -3.44042 0
M  V30 5375 O 488.545 -2.49554 -3.60076 0
M  V30 5376 C 490.046 -0.854844 -4.3498 0
M  V30 5377 H 487.266 -0.276699 -0.611293 0
M  V30 5378 H 489.81 -1.38352 -1.50595 0
M  V30 5379 H 487.965 -0.529279 -3.83767 0
M  V30 5380 H 488.379 -2.6291 -4.53849 0
M  V30 5381 H 489.853 -1.15098 -5.39867 0
M  V30 5382 H 490.33 0.210507 -4.38695 0
M  V30 5383 H 490.936 -1.41853 -4.00946 0
M  V30 5384 N 489.251 1.34841 -0.815825 0
M  V30 5385 C 490.662 1.80937 -0.46029 0
M  V30 5386 C 491.013 1.67685 1.01863 0
M  V30 5387 O 490.138 1.21277 1.79223 0
M  V30 5388 C 490.733 3.28509 -0.828708 0
M  V30 5389 C 489.292 3.72712 -0.525644 0
M  V30 5390 C 488.439 2.56676 -1.04941 0
M  V30 5391 H 491.39 1.22688 -1.00664 0
M  V30 5392 H 491.411 3.80279 -0.129757 0
M  V30 5393 H 490.923 3.38122 -1.90513 0
M  V30 5394 H 489.024 3.68642 0.541666 0
M  V30 5395 H 489.137 4.67119 -1.06474 0
M  V30 5396 H 487.501 2.50302 -0.471286 0
M  V30 5397 H 488.284 2.69063 -2.13214 0
M  V30 5398 N 490.729 0.570148 1.46925 0
M  V30 5399 C 491.957 0.0561966 2.06824 0
M  V30 5400 C 492.372 -1.24326 1.42086 0
M  V30 5401 O 491.729 -1.74882 0.521794 0
M  V30 5402 C 491.78 -0.129517 3.61268 0
M  V30 5403 O 491.501 1.1185 4.23581 0
M  V30 5404 C 493.002 -0.679266 4.38065 0
M  V30 5405 H 490.222 0.0517261 0.669003 0
M  V30 5406 H 492.766 0.787243 1.8874 0
M  V30 5407 H 490.921 -0.810739 3.78822 0
M  V30 5408 H 491.335 0.924375 5.1629 0
M  V30 5409 H 492.809 -0.758445 5.46765 0
M  V30 5410 H 493.286 -1.69346 4.05239 0
M  V30 5411 H 493.892 -0.0333237 4.25287 0
M  V30 5412 N 492.207 -1.54576 0.307264 0
M  V30 5413 C 493.435 -2.04675 -0.302597 0
M  V30 5414 C 493.85 -1.18425 -1.47041 0
M  V30 5415 O 493.207 -0.211257 -1.81273 0
M  V30 5416 C 493.258 -3.53575 -0.752801 0
M  V30 5417 O 492.979 -4.36547 0.368536 0
M  V30 5418 C 494.48 -4.19699 -1.42717 0
M  V30 5419 H 491.7 -0.66786 -0.0648374 0
M  V30 5420 H 494.244 -1.99516 0.448716 0
M  V30 5421 H 492.399 -3.59074 -1.45412 0
M  V30 5422 H 492.813 -5.24497 0.0168937 0
M  V30 5423 H 494.287 -5.25388 -1.69327 0
M  V30 5424 H 494.764 -3.69815 -2.36925 0
M  V30 5425 H 495.37 -4.18293 -0.768856 0
M  V30 5426 N 493.685 -0.035106 -1.57561 0
M  V30 5427 C 494.635 0.954034 -2.0708 0
M  V30 5428 C 495.619 1.2818 -0.972558 0
M  V30 5429 O 496.811 1.26691 -1.23606 0
M  V30 5430 C 493.94 2.23442 -2.60631 0
M  V30 5431 C 493.026 1.93475 -3.77396 0
M  V30 5432 N 493.417 1.33802 -4.87781 0
M  V30 5433 C 491.715 2.23434 -3.85996 0
M  V30 5434 C 492.416 1.21103 -5.68954 0
M  V30 5435 N 491.392 1.70855 -5.16052 0
M  V30 5436 H 495.194 0.487731 -2.89825 0
M  V30 5437 H 492.708 0.169759 -1.6151 0
M  V30 5438 H 494.705 2.95183 -2.94402 0
M  V30 5439 H 493.365 2.70693 -1.79319 0
M  V30 5440 H 494.376 1.01227 -5.07911 0
M  V30 5441 H 491.053 2.73317 -3.15601 0
M  V30 5442 H 492.443 0.749105 -6.67711 0
M  V30 5443 N 495.163 1.55791 0.238111 0
M  V30 5444 C 496.391 1.82098 0.982233 0
M  V30 5445 C 496.806 0.612025 1.78605 0
M  V30 5446 O 496.163 -0.419381 1.77616 0
M  V30 5447 C 496.214 3.0673 1.91309 0
M  V30 5448 O 495.935 4.2296 1.14179 0
M  V30 5449 C 497.436 3.45903 2.77248 0
M  V30 5450 H 494.656 0.605748 0.288635 0
M  V30 5451 H 497.2 2.02862 0.258341 0
M  V30 5452 H 495.355 2.87991 2.59114 0
M  V30 5453 H 495.769 4.93653 1.7722 0
M  V30 5454 H 497.243 4.36189 3.38295 0
M  V30 5455 H 497.72 2.66891 3.48806 0
M  V30 5456 H 498.326 3.67024 2.14881 0
M  V30 5457 N 496.642 -0.504142 1.49319 0
M  V30 5458 C 497.575 -1.62361 1.60356 0
M  V30 5459 C 498.553 -1.56169 0.45277 0
M  V30 5460 O 499.737 -1.76271 0.667892 0
M  V30 5461 C 496.864 -3.00864 1.55559 0
M  V30 5462 C 495.91 -3.25328 2.75797 0
M  V30 5463 S 496.743 -3.08791 4.37503 0
M  V30 5464 C 497.899 -4.49695 4.35345 0
M  V30 5465 H 498.132 -1.52753 2.55056 0
M  V30 5466 H 495.665 -0.689065 1.38171 0
M  V30 5467 H 497.623 -3.8073 1.53477 0
M  V30 5468 H 496.284 -3.0789 0.621515 0
M  V30 5469 H 495.477 -4.2643 2.68651 0
M  V30 5470 H 495.079 -2.53179 2.75275 0
M  V30 5471 H 497.371 -5.41721 4.06871 0
M  V30 5472 H 498.314 -4.61891 5.36714 0
M  V30 5473 H 498.722 -4.30227 3.65465 0
M  V30 5474 N 498.12 -1.38341 -0.754957 0
M  V30 5475 C 499.531 -1.30803 -1.3322 0
M  V30 5476 C 499.882 0.0368 -1.96165 0
M  V30 5477 O 499.007 0.938844 -1.94974 0
M  V30 5478 C 499.602 -2.3688 -2.42225 0
M  V30 5479 C 498.161 -2.32925 -2.95674 0
M  V30 5480 C 497.308 -2.19819 -1.69042 0
M  V30 5481 H 500.259 -1.48719 -0.553937 0
M  V30 5482 H 500.28 -2.02517 -3.22129 0
M  V30 5483 H 499.792 -3.34747 -1.96383 0
M  V30 5484 H 497.893 -1.38635 -3.45848 0
M  V30 5485 H 498.006 -3.27008 -3.50146 0
M  V30 5486 H 496.37 -1.66648 -1.92615 0
M  V30 5487 H 497.153 -3.19625 -1.25279 0
M  V30 5488 N 499.598 0.982988 -1.23187 0
M  V30 5489 C 501.014 1.2487 -0.993967 0
M  V30 5490 C 501.214 1.99155 0.306498 0
M  V30 5491 O 500.27 2.30688 1.0266 0
M  V30 5492 C 501.583 2.05078 -2.19917 0
M  V30 5493 C 503.131 2.18227 -2.2438 0
M  V30 5494 C 503.606 3.01825 -3.44479 0
M  V30 5495 N 505.097 3.09411 -3.44702 0
M  V30 5496 C 505.832 3.74412 -4.34285 0
M  V30 5497 N 505.328 4.41259 -5.341 0
M  V30 5498 N 507.121 3.71273 -4.22035 0
M  V30 5499 H 499.272 0.485253 -2.06783 0
M  V30 5500 H 501.535 0.276979 -0.906635 0
M  V30 5501 H 501.241 1.57867 -3.14279 0
M  V30 5502 H 501.115 3.05829 -2.2079 0
M  V30 5503 H 503.502 2.64648 -1.30559 0
M  V30 5504 H 503.583 1.16873 -2.2754 0
M  V30 5505 H 503.227 2.56102 -4.38605 0
M  V30 5506 H 503.157 4.03342 -3.38559 0
M  V30 5507 H 505.648 2.61845 -2.7248 0
M  V30 5508 H 505.961 4.88629 -5.98717 0
M  V30 5509 H 504.306 4.39975 -5.38002 0
M  V30 5510 H 507.497 3.18217 -3.43301 0
M  V30 5511 H 507.67 4.21649 -4.92053 0
M  V30 5512 N 501.076 1.04316 1.18135 0
M  V30 5513 C 502.322 0.758899 1.88712 0
M  V30 5514 C 502.677 -0.705863 1.78984 0
M  V30 5515 O 501.97 -1.50874 1.18101 0
M  V30 5516 C 502.164 1.16271 3.37958 0
M  V30 5517 C 501.993 2.66518 3.62213 0
M  V30 5518 C 500.763 3.33702 3.79436 0
M  V30 5519 C 502.961 3.64739 3.62588 0
M  V30 5520 N 500.943 4.72904 3.91452 0
M  V30 5521 C 502.314 4.89627 3.80348 0
M  V30 5522 C 504.369 3.58333 3.4569 0
M  V30 5523 C 503.072 6.08879 3.8296 0
M  V30 5524 C 505.098 4.77016 3.49586 0
M  V30 5525 C 504.46 6.00724 3.67845 0
M  V30 5526 H 500.559 0.329795 0.709055 0
M  V30 5527 H 503.143 1.33334 1.4188 0
M  V30 5528 H 501.314 0.616319 3.83479 0
M  V30 5529 H 503.046 0.829205 3.96114 0
M  V30 5530 H 499.801 2.84105 3.78921 0
M  V30 5531 H 500.225 5.45258 4.01277 0
M  V30 5532 H 504.867 2.63663 3.30517 0
M  V30 5533 H 502.585 7.03903 3.96921 0
M  V30 5534 H 506.171 4.73703 3.37782 0
M  V30 5535 H 505.051 6.91022 3.70753 0
M  V30 5536 N 502.554 -1.34406 0.822964 0
M  V30 5537 C 503.8 -1.98578 0.411666 0
M  V30 5538 C 504.133 -1.65093 -1.02264 0
M  V30 5539 O 503.408 -0.92258 -1.71227 0
M  V30 5540 C 503.691 -3.54823 0.614235 0
M  V30 5541 C 503.544 -3.9805 2.09466 0
M  V30 5542 C 504.863 -4.40071 0.050221 0
M  V30 5543 H 501.982 -0.721355 0.151047 0
M  V30 5544 H 504.624 -1.59301 1.03554 0
M  V30 5545 H 502.774 -3.88411 0.0831774 0
M  V30 5546 H 504.446 -3.74795 2.68936 0
M  V30 5547 H 502.689 -3.4836 2.5851 0
M  V30 5548 H 503.36 -5.06819 2.18721 0
M  V30 5549 H 505.836 -4.13037 0.503953 0
M  V30 5550 H 504.712 -5.48452 0.221759 0
M  V30 5551 H 504.973 -4.29576 -1.04482 0
M  V30 5552 N 504.032 -0.577932 -1.46621 0
M  V30 5553 C 504.979 0.158048 -2.30258 0
M  V30 5554 C 505.949 0.888669 -1.40328 0
M  V30 5555 O 507.134 0.880283 -1.6928 0
M  V30 5556 C 504.274 1.16884 -3.24703 0
M  V30 5557 C 503.387 0.442163 -4.29731 0
M  V30 5558 C 502.522 1.44007 -5.11308 0
M  V30 5559 C 501.561 0.69952 -6.0809 0
M  V30 5560 N 500.698 1.64525 -6.82551 0
M  V30 5561 H 505.538 -0.561242 -2.92667 0
M  V30 5562 H 503.075 -0.288591 -1.44241 0
M  V30 5563 H 505.033 1.7677 -3.779 0
M  V30 5564 H 503.663 1.85591 -2.64113 0
M  V30 5565 H 502.715 -0.271632 -3.79429 0
M  V30 5566 H 504.027 -0.136992 -4.98612 0
M  V30 5567 H 503.181 2.11186 -5.68758 0
M  V30 5568 H 501.92 2.05315 -4.42377 0
M  V30 5569 H 500.925 0.0139217 -5.49798 0
M  V30 5570 H 502.15 0.091894 -6.79038 0
M  V30 5571 H 500.096 2.24653 -6.16334 0
M  V30 5572 H 500.013 1.11878 -7.47676 0
M  V30 5573 H 501.281 2.30754 -7.44562 0
M  V30 5574 N 505.51 1.54411 -0.315457 0
M  V30 5575 C 506.738 2.04833 0.291738 0
M  V30 5576 C 507.153 1.19203 1.46411 0
M  V30 5577 O 506.51 0.220867 1.81159 0
M  V30 5578 C 506.561 3.53969 0.73404 0
M  V30 5579 O 506.282 4.36346 -0.391682 0
M  V30 5580 C 507.783 4.2045 1.40489 0
M  V30 5581 H 505.003 0.668195 0.0612947 0
M  V30 5582 H 507.547 1.99276 -0.45929 0
M  V30 5583 H 505.702 3.5984 1.43506 0
M  V30 5584 H 506.116 5.24481 -0.0447088 0
M  V30 5585 H 507.59 5.26278 1.66539 0
M  V30 5586 H 508.067 3.71067 2.3496 0
M  V30 5587 H 508.673 4.18694 0.746662 0
M  V30 5588 N 506.988 0.0434614 1.5754 0
M  V30 5589 C 508.234 -0.632971 1.92669 0
M  V30 5590 C 508.567 -1.70947 0.921446 0
M  V30 5591 O 507.842 -1.94426 -0.0537202 0
M  V30 5592 C 508.125 -1.23619 3.38216 0
M  V30 5593 C 507.978 -0.168274 4.49485 0
M  V30 5594 C 509.297 -2.15008 3.84005 0
M  V30 5595 H 506.416 -0.228629 0.700641 0
M  V30 5596 H 509.058 0.103651 1.89717 0
M  V30 5597 H 507.208 -1.864 3.40863 0
M  V30 5598 H 508.88 0.463196 4.58969 0
M  V30 5599 H 507.123 0.504581 4.30855 0
M  V30 5600 H 507.794 -0.630218 5.48391 0
M  V30 5601 H 510.27 -1.62198 3.83185 0
M  V30 5602 H 509.146 -2.54161 4.86511 0
M  V30 5603 H 509.407 -3.04707 3.20322 0
M  V30 5604 N 508.466 -1.55915 -0.229846 0
M  V30 5605 C 509.713 -1.78542 -0.955452 0
M  V30 5606 C 510.041 -0.610785 -1.84661 0
M  V30 5607 O 509.296 0.405213 -1.91459 0
M  V30 5608 C 509.595 -3.06845 -1.8325 0
M  V30 5609 C 509.261 -4.37395 -1.09528 0
M  V30 5610 C 507.923 -4.72868 -0.891598 0
M  V30 5611 C 510.275 -5.18029 -0.574046 0
M  V30 5612 C 507.603 -5.86496 -0.154655 0
M  V30 5613 C 509.955 -6.32423 0.149513 0
M  V30 5614 C 508.619 -6.66504 0.364519 0
M  V30 5615 H 507.889 -0.653333 -0.349625 0
M  V30 5616 H 510.536 -1.90183 -0.224235 0
M  V30 5617 H 508.841 -2.90291 -2.63132 0
M  V30 5618 H 510.538 -3.21553 -2.39592 0
M  V30 5619 H 507.128 -4.09538 -1.26399 0
M  V30 5620 H 511.312 -4.91066 -0.718899 0
M  V30 5621 H 506.568 -6.11396 0.0222356 0
M  V30 5622 H 510.742 -6.94137 0.560947 0
M  V30 5623 H 508.369 -7.54397 0.937495 0
M  V30 5624 N 509.944 0.496216 -1.49584 0
M  V30 5625 C 510.874 1.60576 -1.69521 0
M  V30 5626 C 511.855 1.61169 -0.543933 0
M  V30 5627 O 513.04 1.77834 -0.78031 0
M  V30 5628 C 510.17 2.99038 -1.76616 0
M  V30 5629 C 509.124 3.13312 -2.91581 0
M  V30 5630 C 508.45 4.53172 -2.83794 0
M  V30 5631 C 509.75 2.92886 -4.32452 0
M  V30 5632 H 511.444 1.44146 -2.62416 0
M  V30 5633 H 508.99 0.692024 -1.26282 0
M  V30 5634 H 510.943 3.76564 -1.8915 0
M  V30 5635 H 509.667 3.16568 -0.80324 0
M  V30 5636 H 508.326 2.38213 -2.78658 0
M  V30 5637 H 507.974 4.67585 -1.854 0
M  V30 5638 H 507.674 4.63662 -3.60958 0
M  V30 5639 H 509.198 5.32752 -2.98342 0
M  V30 5640 H 510.612 3.60178 -4.46032 0
M  V30 5641 H 509.009 3.14844 -5.10875 0
M  V30 5642 H 510.079 1.88966 -4.46565 0
M  V30 5643 N 511.423 1.38739 0.74761 0
M  V30 5644 C 512.37 1.36449 1.86146 0
M  V30 5645 C 513.34 0.226098 1.64554 0
M  V30 5646 O 514.525 0.41926 1.86137 0
M  V30 5647 C 511.665 1.2013 3.23516 0
M  V30 5648 C 510.778 2.43407 3.56899 0
M  V30 5649 C 509.913 2.19773 4.83605 0
M  V30 5650 C 508.952 3.3879 5.09792 0
M  V30 5651 N 508.089 3.14553 6.27695 0
M  V30 5652 H 512.929 2.3167 1.87438 0
M  V30 5653 H 510.466 1.15094 0.916063 0
M  V30 5654 H 512.424 1.08683 4.02795 0
M  V30 5655 H 511.054 0.285453 3.21535 0
M  V30 5656 H 510.106 2.65504 2.72418 0
M  V30 5657 H 511.418 3.32094 3.72176 0
M  V30 5658 H 510.572 2.05496 5.70838 0
M  V30 5659 H 509.311 1.28461 4.70478 0
M  V30 5660 H 508.316 3.53579 4.21025 0
M  V30 5661 H 509.541 4.30986 5.24812 0
M  V30 5662 H 507.487 2.25893 6.1588 0
M  V30 5663 H 507.404 3.96791 6.435 0
M  V30 5664 H 508.672 3.03943 7.17801 0
M  V30 5665 N 512.901 -0.976442 1.23707 0
M  V30 5666 C 513.831 -2.08749 1.04624 0
M  V30 5667 C 514.812 -1.70057 -0.0380956 0
M  V30 5668 O 515.997 -1.93782 0.127308 0
M  V30 5669 C 513.127 -3.41335 0.640902 0
M  V30 5670 C 512.081 -3.93947 1.67302 0
M  V30 5671 C 511.407 -5.22774 1.12301 0
M  V30 5672 C 512.707 -4.22769 3.06697 0
M  V30 5673 H 514.401 -2.24972 1.97555 0
M  V30 5674 H 511.947 -1.08108 0.951247 0
M  V30 5675 H 513.9 -4.18489 0.494434 0
M  V30 5676 H 512.624 -3.24988 -0.324099 0
M  V30 5677 H 511.283 -3.18941 1.80755 0
M  V30 5678 H 510.931 -5.0278 0.148877 0
M  V30 5679 H 510.631 -5.58942 1.81267 0
M  V30 5680 H 512.155 -6.02546 0.988479 0
M  V30 5681 H 513.569 -4.90659 2.96524 0
M  V30 5682 H 511.966 -4.70147 3.72937 0
M  V30 5683 H 513.036 -3.29885 3.55392 0
M  V30 5684 N 514.379 -1.04941 -1.1758 0
M  V30 5685 C 515.309 -0.669172 -2.23706 0
M  V30 5686 C 516.29 0.331835 -1.66832 0
M  V30 5687 O 517.475 0.209988 -1.93061 0
M  V30 5688 C 514.605 -0.0404889 -3.47276 0
M  V30 5689 C 513.559 -0.965983 -4.16957 0
M  V30 5690 C 512.885 -0.201312 -5.34321 0
M  V30 5691 C 514.185 -2.28902 -4.69469 0
M  V30 5692 H 515.879 -1.55639 -2.55767 0
M  V30 5693 H 513.425 -0.749793 -1.22939 0
M  V30 5694 H 515.378 0.237298 -4.20731 0
M  V30 5695 H 514.102 0.881658 -3.14475 0
M  V30 5696 H 512.761 -1.22829 -3.45411 0
M  V30 5697 H 512.409 0.723519 -4.97769 0
M  V30 5698 H 512.109 -0.817968 -5.81879 0
M  V30 5699 H 513.633 0.0692499 -6.10561 0
M  V30 5700 H 515.047 -2.07132 -5.34574 0
M  V30 5701 H 513.444 -2.85942 -5.27596 0
M  V30 5702 H 514.514 -2.92937 -3.86414 0
M  V30 5703 N 515.857 1.33968 -0.830081 0
M  V30 5704 C 517.268 1.80439 -0.479455 0
M  V30 5705 C 517.619 1.68756 1.00079 0
M  V30 5706 O 516.744 1.23171 1.77927 0
M  V30 5707 C 517.339 3.27611 -0.863505 0
M  V30 5708 C 515.898 3.72133 -0.565145 0
M  V30 5709 C 515.045 2.55549 -1.07657 0
M  V30 5710 H 517.996 1.21614 -1.0196 0
M  V30 5711 H 518.017 3.8012 -0.170083 0
M  V30 5712 H 517.529 3.36082 -1.94089 0
M  V30 5713 H 515.63 3.69196 0.502536 0
M  V30 5714 H 515.743 4.65963 -1.11422 0
M  V30 5715 H 514.107 2.49788 -0.497807 0
M  V30 5716 H 514.89 2.66786 -2.16055 0
M  V30 5717 N 517.335 0.585699 1.46312 0
M  V30 5718 C 518.267 -0.183687 2.28463 0
M  V30 5719 C 519.28 -0.85264 1.38686 0
M  V30 5720 O 520.469 -0.721701 1.6326 0
M  V30 5721 C 517.569 -1.27977 3.13808 0
M  V30 5722 C 516.742 -0.702164 4.31727 0
M  V30 5723 C 515.801 -1.68633 4.98447 0
M  V30 5724 O 514.827 -1.22121 5.55945 0
M  V30 5725 N 516.029 -3.02047 4.95729 0
M  V30 5726 H 518.794 0.521127 2.95134 0
M  V30 5727 H 516.355 0.423673 1.56258 0
M  V30 5728 H 518.347 -1.9375 3.55307 0
M  V30 5729 H 516.917 -1.8874 2.4919 0
M  V30 5730 H 516.137 0.1331 3.93975 0
M  V30 5731 H 517.425 -0.296101 5.07938 0
M  V30 5732 H 516.823 -3.42457 4.50266 0
M  V30 5733 H 515.38 -3.63301 5.41161 0
M  V30 5734 N 518.813 -1.54241 0.323641 0
M  V30 5735 C 520.059 -2.00867 -0.279323 0
M  V30 5736 C 520.392 -1.21146 -1.5178 0
M  V30 5737 O 519.667 -0.29378 -1.92269 0
M  V30 5738 C 519.95 -3.54837 -0.613387 0
M  V30 5739 C 519.803 -4.45284 0.635803 0
M  V30 5740 C 521.122 -4.16186 -1.43099 0
M  V30 5741 H 518.241 -0.730177 -0.100049 0
M  V30 5742 H 520.883 -1.84829 0.440235 0
M  V30 5743 H 519.033 -3.68634 -1.22641 0
M  V30 5744 H 520.705 -4.43357 1.27406 0
M  V30 5745 H 518.948 -4.14956 1.26466 0
M  V30 5746 H 519.619 -5.5084 0.357597 0
M  V30 5747 H 522.095 -4.05964 -0.912814 0
M  V30 5748 H 520.971 -5.24031 -1.6335 0
M  V30 5749 H 521.232 -3.69516 -2.42715 0
M  V30 5750 N 520.291 -0.0518155 -1.57515 0
M  V30 5751 C 521.221 0.920283 -2.146 0
M  V30 5752 C 522.202 1.32406 -1.06783 0
M  V30 5753 O 523.387 1.39866 -1.34726 0
M  V30 5754 C 520.517 2.1949 -2.6915 0
M  V30 5755 C 519.471 1.93116 -3.81956 0
M  V30 5756 C 518.797 3.27037 -4.23026 0
M  V30 5757 C 520.097 1.25225 -5.07066 0
M  V30 5758 H 521.791 0.444801 -2.96077 0
M  V30 5759 H 519.337 0.212508 -1.42423 0
M  V30 5760 H 521.29 2.87894 -3.07725 0
M  V30 5761 H 520.014 2.69244 -1.84865 0
M  V30 5762 H 518.673 1.27123 -3.43854 0
M  V30 5763 H 518.321 3.74595 -3.3569 0
M  V30 5764 H 518.021 3.10189 -4.99056 0
M  V30 5765 H 519.545 3.96673 -4.64202 0
M  V30 5766 H 520.959 1.83666 -5.43083 0
M  V30 5767 H 519.356 1.18702 -5.88243 0
M  V30 5768 H 520.426 0.228382 -4.84362 0
M  V30 5769 N 521.769 1.56035 0.221574 0
M  V30 5770 C 522.699 1.95434 1.2778 0
M  V30 5771 C 523.68 0.822564 1.48889 0
M  V30 5772 O 524.865 1.08486 1.61072 0
M  V30 5773 C 521.995 2.27102 2.62759 0
M  V30 5774 C 520.949 3.4277 2.56306 0
M  V30 5775 C 520.275 3.60043 3.95314 0
M  V30 5776 C 521.575 4.77742 2.11093 0
M  V30 5777 H 523.269 2.83912 0.950504 0
M  V30 5778 H 520.815 1.36596 0.455791 0
M  V30 5779 H 522.768 2.53256 3.36807 0
M  V30 5780 H 521.492 1.35478 2.97176 0
M  V30 5781 H 520.151 3.16664 1.84715 0
M  V30 5782 H 519.799 2.65794 4.27039 0
M  V30 5783 H 519.499 4.37841 3.91879 0
M  V30 5784 H 521.023 3.88545 4.71025 0
M  V30 5785 H 522.437 5.03102 2.74885 0
M  V30 5786 H 520.834 5.58823 2.18716 0
M  V30 5787 H 521.904 4.731 1.06321 0
M  V30 5788 N 523.247 -0.488276 1.49845 0
M  V30 5789 C 524.18 -1.60651 1.62069 0
M  V30 5790 C 525.158 -1.5568 0.469308 0
M  V30 5791 O 526.342 -1.75553 0.686551 0
M  V30 5792 C 523.469 -2.99197 1.58741 0
M  V30 5793 C 522.515 -3.22385 2.79232 0
M  V30 5794 S 523.348 -3.04133 4.40753 0
M  V30 5795 C 524.504 -4.45052 4.4009 0
M  V30 5796 H 524.737 -1.50039 2.56662 0
M  V30 5797 H 522.27 -0.674371 1.38894 0
M  V30 5798 H 524.228 -3.79081 1.57506 0
M  V30 5799 H 522.889 -3.07213 0.654136 0
M  V30 5800 H 522.082 -4.23557 2.73159 0
M  V30 5801 H 521.684 -2.50245 2.77945 0
M  V30 5802 H 523.976 -5.37375 4.12594 0
M  V30 5803 H 524.919 -4.56172 5.41583 0
M  V30 5804 H 525.327 -4.26327 3.70008 0
M  V30 5805 N 524.725 -1.39134 -0.740242 0
M  V30 5806 C 526.141 -1.20623 -1.0451 0
M  V30 5807 C 526.341 -0.0641651 -2.01398 0
M  V30 5808 O 525.397 0.585843 -2.4561 0
M  V30 5809 C 526.71 -2.53815 -1.6124 0
M  V30 5810 C 528.258 -2.60615 -1.73346 0
M  V30 5811 C 528.733 -3.94015 -2.33486 0
M  V30 5812 N 530.224 -3.95627 -2.40902 0
M  V30 5813 C 530.959 -4.95616 -2.88361 0
M  V30 5814 N 530.455 -6.06003 -3.35756 0
M  V30 5815 N 532.248 -4.82998 -2.87523 0
M  V30 5816 H 524.399 -2.12176 -0.0975576 0
M  V30 5817 H 526.662 -0.942066 -0.105904 0
M  V30 5818 H 526.368 -3.37911 -0.975144 0
M  V30 5819 H 526.242 -2.73162 -2.6012 0
M  V30 5820 H 528.629 -1.76906 -2.36195 0
M  V30 5821 H 528.71 -2.45123 -0.731336 0
M  V30 5822 H 528.354 -4.78153 -1.71267 0
M  V30 5823 H 528.284 -4.06825 -3.34366 0
M  V30 5824 H 530.775 -3.15903 -2.07398 0
M  V30 5825 H 531.088 -6.78215 -3.70464 0
M  V30 5826 H 529.433 -6.09604 -3.33778 0
M  V30 5827 H 532.624 -3.95866 -2.49816 0
M  V30 5828 H 532.797 -5.61072 -3.24196 0
M  V30 5829 N 526.204 0.969867 -1.24223 0
M  V30 5830 C 527.45 1.71582 -1.09231 0
M  V30 5831 C 527.805 1.88898 0.365432 0
M  V30 5832 O 527.098 1.43781 1.2664 0
M  V30 5833 C 527.292 3.10883 -1.76314 0
M  V30 5834 C 527.121 3.07155 -3.2846 0
M  V30 5835 C 525.891 3.11757 -3.97663 0
M  V30 5836 C 528.089 2.895 -4.25082 0
M  V30 5837 N 526.071 2.98025 -5.36707 0
M  V30 5838 C 527.442 2.84041 -5.51109 0
M  V30 5839 C 529.497 2.74064 -4.15684 0
M  V30 5840 C 528.2 2.64725 -6.68815 0
M  V30 5841 C 530.226 2.56115 -5.33066 0
M  V30 5842 C 529.588 2.51363 -6.58024 0
M  V30 5843 H 525.687 0.636496 -0.454309 0
M  V30 5844 H 528.271 1.15004 -1.57106 0
M  V30 5845 H 526.442 3.65657 -1.30955 0
M  V30 5846 H 528.174 3.74171 -1.54201 0
M  V30 5847 H 524.929 3.20352 -3.48814 0
M  V30 5848 H 525.353 2.94405 -6.09635 0
M  V30 5849 H 529.995 2.76521 -3.19837 0
M  V30 5850 H 527.713 2.61011 -7.64787 0
M  V30 5851 H 531.299 2.45119 -5.27644 0
M  V30 5852 H 530.179 2.37651 -7.47323 0
M  V30 5853 N 527.682 1.05563 1.17022 0
M  V30 5854 C 529.093 0.793475 1.69 0
M  V30 5855 C 529.444 -0.683882 1.83895 0
M  V30 5856 O 528.569 -1.53116 1.5292 0
M  V30 5857 C 529.164 1.43376 3.06967 0
M  V30 5858 C 527.723 1.21956 3.56095 0
M  V30 5859 C 526.87 1.51494 2.3226 0
M  V30 5860 H 529.821 1.22008 1.01487 0
M  V30 5861 H 529.842 0.845068 3.70997 0
M  V30 5862 H 529.354 2.50899 2.96093 0
M  V30 5863 H 527.455 0.163749 3.7224 0
M  V30 5864 H 527.568 1.92713 4.38633 0
M  V30 5865 H 525.932 0.935175 2.3691 0
M  V30 5866 H 526.715 2.60159 2.23992 0
M  V30 5867 N 529.16 -1.33526 0.837174 0
M  V30 5868 C 530.09 -2.31764 0.284206 0
M  V30 5869 C 531.071 -1.58896 -0.607142 0
M  V30 5870 O 532.256 -1.86798 -0.531047 0
M  V30 5871 C 529.386 -3.43029 -0.542962 0
M  V30 5872 C 528.34 -4.27255 0.252451 0
M  V30 5873 C 527.666 -5.3012 -0.69836 0
M  V30 5874 C 528.966 -5.01229 1.46858 0
M  V30 5875 H 530.66 -2.78262 1.10502 0
M  V30 5876 H 528.206 -1.3378 0.532812 0
M  V30 5877 H 530.159 -4.1078 -0.940096 0
M  V30 5878 H 528.883 -2.95216 -1.39697 0
M  V30 5879 H 527.542 -3.61127 0.631124 0
M  V30 5880 H 527.19 -4.78564 -1.54872 0
M  V30 5881 H 526.89 -5.87353 -0.170274 0
M  V30 5882 H 528.414 -6.00737 -1.09305 0
M  V30 5883 H 529.828 -5.61756 1.14469 0
M  V30 5884 H 528.225 -5.68104 1.93333 0
M  V30 5885 H 529.295 -4.301 2.23924 0
M  V30 5886 N 530.638 -0.59345 -1.46 0
M  V30 5887 C 531.915 -0.0157933 -1.95594 0
M  V30 5888 C 532.295 1.44807 -1.53604 0
M  V30 5889 O 531.643 2.14342 -0.791824 0
M  V30 5890 C 531.853 -0.199081 -3.48432 0
M  V30 5891 C 533.201 -0.0724943 -4.24538 0
M  V30 5892 O 534.225 -0.128469 -3.55968 0
M  V30 5893 O 533.084 0.0542426 -5.46473 0
M  V30 5894 H 530.178 0.043749 -0.825842 0
M  V30 5895 H 532.724 -0.662522 -1.56233 0
M  V30 5896 H 531.496 -1.21631 -3.71916 0
M  V30 5897 H 531.119 0.483576 -3.94648 0
M  V30 5898 N 532.116 1.54067 -0.331816 0
M  V30 5899 C 533.063 2.24623 0.530372 0
M  V30 5900 C 534.033 1.24009 1.10503 0
M  V30 5901 O 535.218 1.52712 1.14384 0
M  V30 5902 C 532.358 3.01374 1.68129 0
M  V30 5903 C 531.471 4.16821 1.13507 0
M  V30 5904 C 530.606 4.81085 2.25234 0
M  V30 5905 C 529.645 5.88621 1.67903 0
M  V30 5906 N 528.782 6.46713 2.73326 0
M  V30 5907 H 533.622 2.97898 -0.0778607 0
M  V30 5908 H 531.159 1.47014 -0.0501965 0
M  V30 5909 H 533.117 3.44125 2.35868 0
M  V30 5910 H 531.747 2.30419 2.26069 0
M  V30 5911 H 530.799 3.78796 0.348979 0
M  V30 5912 H 532.111 4.94203 0.675633 0
M  V30 5913 H 531.265 5.26846 3.00862 0
M  V30 5914 H 530.004 4.03102 2.74518 0
M  V30 5915 H 529.009 5.42254 0.907773 0
M  V30 5916 H 530.234 6.68506 1.19487 0
M  V30 5917 H 528.18 5.71599 3.21886 0
M  V30 5918 H 528.097 7.19532 2.3197 0
M  V30 5919 H 529.365 6.97129 3.48758 0
M  V30 5920 N 533.594 0.0601682 1.57485 0
M  V30 5921 C 534.822 -0.620937 1.97363 0
M  V30 5922 C 535.237 -1.63846 0.938082 0
M  V30 5923 O 534.594 -1.82339 -0.0766578 0
M  V30 5924 C 534.645 -1.29987 3.37321 0
M  V30 5925 O 534.366 -0.323081 4.36907 0
M  V30 5926 C 535.867 -2.06989 3.92008 0
M  V30 5927 H 533.087 -0.169135 0.649334 0
M  V30 5928 H 535.631 0.129132 2.04092 0
M  V30 5929 H 533.786 -2.0011 3.31715 0
M  V30 5930 H 534.2 -0.808754 5.18227 0
M  V30 5931 H 535.674 -2.49901 4.92192 0
M  V30 5932 H 536.151 -2.92173 3.2792 0
M  V30 5933 H 536.757 -1.41757 4.0098 0
M  V30 5934 N 535.072 -1.5615 -0.213296 0
M  V30 5935 C 536.488 -1.49327 -0.56336 0
M  V30 5936 C 536.688 -0.756826 -1.86747 0
M  V30 5937 O 535.744 -0.299866 -2.50713 0
M  V30 5938 C 537.057 -2.9392 -0.634944 0
M  V30 5939 C 538.605 -3.04487 -0.725013 0
M  V30 5940 C 539.08 -4.50456 -0.82787 0
M  V30 5941 N 540.571 -4.54533 -0.891876 0
M  V30 5942 C 541.306 -5.64766 -0.991315 0
M  V30 5943 N 540.802 -6.84733 -1.05419 0
M  V30 5944 N 542.595 -5.52637 -1.02709 0
M  V30 5945 H 534.746 -2.02453 0.642366 0
M  V30 5946 H 537.009 -0.920548 0.226487 0
M  V30 5947 H 536.715 -3.50783 0.253859 0
M  V30 5948 H 536.589 -3.46274 -1.49579 0
M  V30 5949 H 538.976 -2.47685 -1.60425 0
M  V30 5950 H 539.057 -2.55289 0.161669 0
M  V30 5951 H 538.701 -5.07878 0.0469464 0
M  V30 5952 H 538.631 -4.97369 -1.73009 0
M  V30 5953 H 541.122 -3.68141 -0.85327 0
M  V30 5954 H 541.435 -7.64493 -1.13007 0
M  V30 5955 H 539.78 -6.87427 -1.02318 0
M  V30 5956 H 542.971 -4.5784 -0.974687 0
M  V30 5957 H 543.144 -6.38576 -1.10113 0
M  V30 5958 N 536.55 0.480323 -1.50102 0
M  V30 5959 C 537.798 1.23063 -1.60312 0
M  V30 5960 C 538.119 1.92659 -0.301226 0
M  V30 5961 O 537.389 1.83691 0.680753 0
M  V30 5962 H 535.969 0.457231 -0.590719 0
M  V30 5963 H 538.631 0.554893 -1.86834 0
M  V30 5964 H 537.727 1.9835 -2.40964 0
M  V30 5965 N 538.028 1.39524 0.732853 0
M  V30 5966 C 539.256 1.40143 1.52209 0
M  V30 5967 C 539.671 -0.00348836 1.888 0
M  V30 5968 O 539.028 -0.975357 1.5425 0
M  V30 5969 C 539.079 2.27632 2.8083 0
M  V30 5970 O 538.8 3.62654 2.45792 0
M  V30 5971 C 540.301 2.36658 3.74844 0
M  V30 5972 H 537.521 0.478604 0.470297 0
M  V30 5973 H 540.065 1.83366 0.905388 0
M  V30 5974 H 538.22 1.87818 3.38826 0
M  V30 5975 H 538.634 4.08941 3.28431 0
M  V30 5976 H 540.108 3.02118 4.61984 0
M  V30 5977 H 540.585 1.38638 4.16745 0
M  V30 5978 H 541.191 2.76951 3.22766 0
M  V30 5979 N 539.506 -0.963266 1.24736 0
M  V30 5980 C 540.754 -1.70343 1.08755 0
M  V30 5981 C 541.075 -1.91387 -0.373619 0
M  V30 5982 O 540.345 -1.4948 -1.2662 0
M  V30 5983 H 538.925 -0.631224 0.399456 0
M  V30 5984 H 541.587 -1.15859 1.56725 0
M  V30 5985 H 540.683 -2.68616 1.58909 0
M  V30 5986 N 540.985 -1.06182 -1.16461 0
M  V30 5987 C 542.21 -0.798599 -1.91408 0
M  V30 5988 C 542.635 0.640987 -1.76842 0
M  V30 5989 O 541.993 1.44652 -1.09296 0
M  V30 5990 C 542.041 -1.19665 -3.40165 0
M  V30 5991 O 541.145 -0.334768 -4.11039 0
M  V30 5992 H 540.486 -0.291961 -0.596368 0
M  V30 5993 H 543.016 -1.41732 -1.47557 0
M  V30 5994 H 543.026 -1.16772 -3.90933 0
M  V30 5995 H 541.701 -2.24526 -3.50087 0
M  V30 5996 H 540.278 -0.425168 -3.70468 0
M  V30 5997 N 542.463 1.3308 -0.844243 0
M  V30 5998 C 543.74 1.92178 -0.364261 0
M  V30 5999 C 544.12 1.76961 1.15101 0
M  V30 6000 O 543.468 1.16128 1.9679 0
M  V30 6001 C 543.678 3.393 -0.817106 0
M  V30 6002 C 545.026 4.16444 -0.828236 0
M  V30 6003 O 546.05 3.47975 -0.761062 0
M  V30 6004 O 544.909 5.38685 -0.920926 0
M  V30 6005 H 542.003 0.820411 -0.10419 0
M  V30 6006 H 544.549 1.41918 -0.930453 0
M  V30 6007 H 543.321 3.44272 -1.85991 0
M  V30 6008 H 542.944 3.96947 -0.227785 0
M  V30 6009 N 543.941 0.601185 1.45683 0
M  V30 6010 C 544.904 -0.111398 2.28929 0
M  V30 6011 C 545.904 -0.801246 1.39416 0
M  V30 6012 O 547.094 -0.650383 1.61603 0
M  V30 6013 C 544.226 -1.16773 3.20276 0
M  V30 6014 H 545.419 0.620412 2.93413 0
M  V30 6015 H 542.972 0.359946 1.52099 0
M  V30 6016 H 543.707 -1.93051 2.60579 0
M  V30 6017 H 543.492 -0.677358 3.86205 0
M  V30 6018 H 544.982 -1.66698 3.82886 0
M  V30 6019 N 545.419 -1.53889 0.339982 0
M  V30 6020 C 546.665 -2.01152 -0.258003 0
M  V30 6021 C 546.998 -1.22749 -1.50487 0
M  V30 6022 O 546.273 -0.314156 -1.91946 0
M  V30 6023 C 546.556 -3.55468 -0.575717 0
M  V30 6024 C 546.409 -4.44584 0.682996 0
M  V30 6025 C 547.728 -4.1768 -1.38677 0
M  V30 6026 H 544.847 -0.731198 -0.0922992 0
M  V30 6027 H 547.489 -1.84352 0.459814 0
M  V30 6028 H 545.639 -3.69914 -1.18725 0
M  V30 6029 H 547.311 -4.41981 1.32102 0
M  V30 6030 H 545.554 -4.13592 1.3086 0
M  V30 6031 H 546.225 -5.5043 0.416001 0
M  V30 6032 H 548.701 -4.0691 -0.869705 0
M  V30 6033 H 547.577 -5.25734 -1.57783 0
M  V30 6034 H 547.838 -3.72069 -2.38782 0
M  V30 6035 N 546.897 -0.0685191 -1.57451 0
M  V30 6036 C 548.308 0.464634 -1.80826 0
M  V30 6037 C 548.659 1.69847 -0.982169 0
M  V30 6038 O 547.784 2.15439 -0.203734 0
M  V30 6039 C 548.379 0.849721 -3.27971 0
M  V30 6040 C 546.938 1.32776 -3.52204 0
M  V30 6041 C 546.085 0.311332 -2.75547 0
M  V30 6042 H 549.036 -0.294248 -1.55948 0
M  V30 6043 H 549.057 1.71138 -3.39841 0
M  V30 6044 H 548.569 -0.0484736 -3.8807 0
M  V30 6045 H 546.67 2.24456 -2.97406 0
M  V30 6046 H 546.783 1.30794 -4.60901 0
M  V30 6047 H 545.147 0.787915 -2.42206 0
M  V30 6048 H 545.93 -0.579078 -3.38381 0
M  V30 6049 N 548.375 1.56261 0.205012 0
M  V30 6050 C 549.791 1.49623 0.555433 0
M  V30 6051 C 549.991 0.766719 1.86343 0
M  V30 6052 O 549.047 0.313158 2.50551 0
M  V30 6053 C 550.36 2.94253 0.619347 0
M  V30 6054 C 551.908 3.04868 0.708855 0
M  V30 6055 C 552.383 4.50888 0.803969 0
M  V30 6056 N 553.874 4.54999 0.867758 0
M  V30 6057 C 554.609 5.65284 0.96135 0
M  V30 6058 N 554.105 6.85282 1.01786 0
M  V30 6059 N 555.898 5.53174 0.997771 0
M  V30 6060 H 548.049 2.0211 -0.653094 0
M  V30 6061 H 550.312 0.919333 -0.231366 0
M  V30 6062 H 550.018 3.50643 -0.272458 0
M  V30 6063 H 549.892 3.47063 1.47741 0
M  V30 6064 H 552.279 2.48532 1.5911 0
M  V30 6065 H 552.36 2.55199 -0.175205 0
M  V30 6066 H 552.004 5.07846 -0.0738798 0
M  V30 6067 H 551.934 4.98279 1.70369 0
M  V30 6068 H 554.425 3.68588 0.833735 0
M  V30 6069 H 554.738 7.65081 1.08951 0
M  V30 6070 H 553.083 6.8796 0.986706 0
M  V30 6071 H 556.274 4.5835 0.950392 0
M  V30 6072 H 556.447 6.39151 1.06725 0
M  V30 6073 N 549.853 -0.472356 1.50355 0
M  V30 6074 C 551.101 -1.22211 1.60962 0
M  V30 6075 C 551.422 -1.92497 0.311439 0
M  V30 6076 O 550.692 -1.8405 -0.671002 0
M  V30 6077 H 549.272 -0.454092 0.593135 0
M  V30 6078 H 551.934 -0.544977 1.87126 0
M  V30 6079 H 551.03 -1.9707 2.42012 0
M  V30 6080 N 551.331 -1.39911 -0.725443 0
M  V30 6081 C 552.261 -1.42138 -1.85254 0
M  V30 6082 C 553.242 -0.283513 -1.67721 0
M  V30 6083 O 554.427 -0.490717 -1.87898 0
M  V30 6084 C 551.557 -1.27354 -3.23107 0
M  V30 6085 C 550.511 -2.3864 -3.55296 0
M  V30 6086 C 549.837 -2.08939 -4.92188 0
M  V30 6087 C 551.137 -3.8097 -3.57295 0
M  V30 6088 H 552.831 -2.36461 -1.83648 0
M  V30 6089 H 550.377 -1.13817 -0.882138 0
M  V30 6090 H 552.33 -1.2753 -4.01639 0
M  V30 6091 H 551.054 -0.295025 -3.25265 0
M  V30 6092 H 549.713 -2.37696 -2.79099 0
M  V30 6093 H 549.361 -1.09502 -4.90936 0
M  V30 6094 H 549.061 -2.83491 -5.14691 0
M  V30 6095 H 550.585 -2.10781 -5.73065 0
M  V30 6096 H 551.999 -3.8379 -4.25885 0
M  V30 6097 H 550.396 -4.5496 -3.9132 0
M  V30 6098 H 551.466 -4.11261 -2.5689 0
M  V30 6099 N 552.809 0.956637 -1.25245 0
M  V30 6100 C 553.772 2.03457 -1.05537 0
M  V30 6101 C 554.772 1.60798 -0.00886317 0
M  V30 6102 O 555.962 1.72384 -0.250865 0
M  V30 6103 C 553.094 3.35543 -0.601965 0
M  V30 6104 H 554.287 2.22372 -2.01223 0
M  V30 6105 H 551.84 1.13344 -1.07623 0
M  V30 6106 H 552.575 3.22323 0.357584 0
M  V30 6107 H 552.36 3.67854 -1.35743 0
M  V30 6108 H 553.85 4.14769 -0.485454 0
M  V30 6109 N 554.287 1.06798 1.15896 0
M  V30 6110 C 555.703 0.792423 1.38538 0
M  V30 6111 C 555.903 -0.60592 1.92174 0
M  V30 6112 O 554.959 -1.36561 2.12385 0
M  V30 6113 C 556.272 1.86157 2.36149 0
M  V30 6114 C 557.82 1.88567 2.49823 0
M  V30 6115 C 558.295 2.9455 3.5072 0
M  V30 6116 N 559.786 2.93616 3.58251 0
M  V30 6117 C 560.521 3.72267 4.36125 0
M  V30 6118 N 560.017 4.60751 5.17379 0
M  V30 6119 N 561.81 3.60637 4.31158 0
M  V30 6120 H 553.961 1.96993 0.794198 0
M  V30 6121 H 556.224 0.853942 0.411688 0
M  V30 6122 H 555.93 2.86603 2.03843 0
M  V30 6123 H 555.804 1.71692 3.3586 0
M  V30 6124 H 558.191 0.887765 2.8143 0
M  V30 6125 H 558.272 2.0711 1.5013 0
M  V30 6126 H 557.916 3.94537 3.19849 0
M  V30 6127 H 557.846 2.73255 4.50155 0
M  V30 6128 H 560.337 2.29472 3.00252 0
M  V30 6129 H 560.65 5.17408 5.74028 0
M  V30 6130 H 558.995 4.64803 5.16704 0
M  V30 6131 H 562.186 2.90892 3.66742 0
M  V30 6132 H 562.359 4.22176 4.91601 0
M  V30 6133 N 555.766 -1.3263 0.851289 0
M  V30 6134 C 557.182 -1.50162 0.5407 0
M  V30 6135 C 557.382 -1.78788 -0.929369 0
M  V30 6136 O 556.438 -1.85545 -1.71258 0
M  V30 6137 C 557.751 -2.64803 1.42478 0
M  V30 6138 C 559.299 -2.78688 1.42485 0
M  V30 6139 C 559.774 -3.96405 2.29407 0
M  V30 6140 N 561.265 -4.0366 2.27184 0
M  V30 6141 C 562 -4.93971 2.9117 0
M  V30 6142 N 561.496 -5.89313 3.64256 0
M  V30 6143 N 563.289 -4.87066 2.80576 0
M  V30 6144 H 555.44 -1.12315 1.80275 0
M  V30 6145 H 557.703 -0.553266 0.769806 0
M  V30 6146 H 557.409 -2.50368 2.46999 0
M  V30 6147 H 557.283 -3.60506 1.10974 0
M  V30 6148 H 559.67 -2.92547 0.387304 0
M  V30 6149 H 559.751 -1.83708 1.78002 0
M  V30 6150 H 559.395 -3.83304 3.33228 0
M  V30 6151 H 559.325 -4.90654 1.91224 0
M  V30 6152 H 561.816 -3.35435 1.74045 0
M  V30 6153 H 562.129 -6.54913 4.10255 0
M  V30 6154 H 560.474 -5.8935 3.68364 0
M  V30 6155 H 563.665 -4.11552 2.23031 0
M  V30 6156 H 563.838 -5.57248 3.30725 0
M  V30 6157 N 557.244 -0.608902 -1.45362 0
M  V30 6158 C 558.655 -0.189511 -1.85736 0
M  V30 6159 C 559.006 1.2539 -1.50903 0
M  V30 6160 O 558.131 1.95094 -0.936347 0
M  V30 6161 C 558.726 -0.33716 -3.37118 0
M  V30 6162 C 557.285 0.0275487 -3.7639 0
M  V30 6163 C 556.432 -0.660983 -2.69307 0
M  V30 6164 H 559.383 -0.815499 -1.36144 0
M  V30 6165 H 559.404 0.430257 -3.7806 0
M  V30 6166 H 558.916 -1.38779 -3.62439 0
M  V30 6167 H 557.017 1.0773 -3.56686 0
M  V30 6168 H 557.13 -0.367018 -4.77692 0
M  V30 6169 H 555.494 -0.0984958 -2.54509 0
M  V30 6170 H 556.277 -1.71377 -2.97464 0
M  V30 6171 N 558.722 1.53707 -0.348139 0
M  V30 6172 C 559.685 2.23812 0.494058 0
M  V30 6173 C 560.685 1.23989 1.02388 0
M  V30 6174 O 561.875 1.48395 0.912396 0
M  V30 6175 C 559.007 2.96133 1.68872 0
M  V30 6176 H 560.2 2.99663 -0.119141 0
M  V30 6177 H 557.753 1.55983 -0.0995539 0
M  V30 6178 H 558.488 2.24481 2.34049 0
M  V30 6179 H 558.273 3.69357 1.31596 0
M  V30 6180 H 559.763 3.49475 2.28597 0
M  V30 6181 N 560.2 0.0768682 1.57412 0
M  V30 6182 C 561.147 -0.888577 2.13009 0
M  V30 6183 C 562.117 -1.29198 1.0439 0
M  V30 6184 O 563.302 -1.37694 1.3208 0
M  V30 6185 C 560.442 -2.14899 2.70023 0
M  V30 6186 C 559.555 -1.79777 3.92816 0
M  V30 6187 C 558.69 -3.00467 4.38056 0
M  V30 6188 C 557.729 -2.61385 5.53484 0
M  V30 6189 N 556.866 -3.74851 5.93659 0
M  V30 6190 H 561.706 -0.407593 2.95199 0
M  V30 6191 H 559.243 -0.189534 1.45874 0
M  V30 6192 H 561.201 -2.88688 3.0119 0
M  V30 6193 H 559.831 -2.60529 1.9059 0
M  V30 6194 H 558.883 -0.960301 3.68079 0
M  V30 6195 H 560.195 -1.47027 4.76639 0
M  V30 6196 H 559.349 -3.82529 4.7091 0
M  V30 6197 H 558.088 -3.36413 3.53097 0
M  V30 6198 H 557.093 -1.77746 5.20275 0
M  V30 6199 H 558.318 -2.26603 6.40178 0
M  V30 6200 H 556.264 -4.1055 5.11649 0
M  V30 6201 H 556.181 -3.45887 6.72234 0
M  V30 6202 H 557.449 -4.57477 6.31138 0
M  V30 6203 N 561.678 -1.56367 -0.196722 0
M  V30 6204 C 562.926 -1.80172 -0.915554 0
M  V30 6205 C 563.247 -0.649649 -1.8386 0
M  V30 6206 O 562.517 0.332111 -1.93064 0
M  V30 6207 H 561.097 -0.664592 -0.341067 0
M  V30 6208 H 563.759 -1.93844 -0.202622 0
M  V30 6209 H 562.855 -2.7327 -1.50764 0
M  V30 6210 N 563.156 0.464375 -1.50603 0
M  V30 6211 C 564.103 1.56152 -1.69956 0
M  V30 6212 C 565.073 1.57046 -0.54091 0
M  V30 6213 O 566.258 1.74473 -0.772258 0
M  V30 6214 C 563.398 2.94079 -1.80586 0
M  V30 6215 C 562.511 3.02923 -3.07996 0
M  V30 6216 C 561.646 4.31806 -3.09382 0
M  V30 6217 C 560.685 4.34417 -4.31218 0
M  V30 6218 N 559.822 5.54782 -4.30304 0
M  V30 6219 H 564.662 1.38955 -2.6362 0
M  V30 6220 H 562.199 0.675482 -1.30674 0
M  V30 6221 H 564.157 3.74073 -1.8473 0
M  V30 6222 H 562.787 3.09896 -0.903556 0
M  V30 6223 H 561.839 2.1576 -3.13292 0
M  V30 6224 H 563.151 3.00712 -3.97962 0
M  V30 6225 H 562.305 5.20153 -3.12292 0
M  V30 6226 H 561.044 4.36636 -2.17257 0
M  V30 6227 H 560.049 3.44467 -4.28512 0
M  V30 6228 H 561.274 4.31273 -5.24576 0
M  V30 6229 H 559.22 5.60384 -3.41037 0
M  V30 6230 H 559.137 5.54339 -5.14047 0
M  V30 6231 H 560.405 6.45235 -4.3737 0
M  V30 6232 N 564.634 1.40294 0.718013 0
M  V30 6233 C 565.564 1.43118 1.84498 0
M  V30 6234 C 566.545 0.292403 1.67568 0
M  V30 6235 O 567.73 0.500675 1.87635 0
M  V30 6236 C 564.86 1.29065 3.22427 0
M  V30 6237 C 563.814 2.40521 3.54025 0
M  V30 6238 C 563.14 2.11546 4.91073 0
M  V30 6239 C 564.44 3.82859 3.55269 0
M  V30 6240 H 566.134 2.37432 1.82391 0
M  V30 6241 H 563.68 1.14283 0.87609 0
M  V30 6242 H 565.633 1.29658 4.00957 0
M  V30 6243 H 564.357 0.312271 3.25104 0
M  V30 6244 H 563.016 2.39173 2.77834 0
M  V30 6245 H 562.664 1.12104 4.90348 0
M  V30 6246 H 562.364 2.86216 5.1318 0
M  V30 6247 H 563.888 2.13817 5.71939 0
M  V30 6248 H 565.302 3.86044 4.23843 0
M  V30 6249 H 563.699 4.57029 3.88902 0
M  V30 6250 H 564.769 4.12617 2.54706 0
M  V30 6251 N 566.112 -0.949982 1.2575 0
M  V30 6252 C 567.075 -2.02894 1.06615 0
M  V30 6253 C 568.075 -1.60791 0.0173905 0
M  V30 6254 O 569.265 -1.72249 0.260003 0
M  V30 6255 C 566.397 -3.35219 0.619751 0
M  V30 6256 H 567.59 -2.21302 2.02399 0
M  V30 6257 H 565.143 -1.12772 1.08223 0
M  V30 6258 H 565.878 -3.22508 -0.340486 0
M  V30 6259 H 565.663 -3.67129 1.37692 0
M  V30 6260 H 567.153 -4.14505 0.507443 0
M  V30 6261 N 567.59 -1.07411 -1.15328 0
M  V30 6262 C 568.815 -0.818856 -1.90551 0
M  V30 6263 C 569.24 0.622194 -1.77512 0
M  V30 6264 O 568.598 1.43484 -1.10824 0
M  V30 6265 C 568.646 -1.23267 -3.38877 0
M  V30 6266 O 567.75 -0.378345 -4.10661 0
M  V30 6267 H 567.091 -0.29827 -0.593238 0
M  V30 6268 H 569.621 -1.43289 -1.46046 0
M  V30 6269 H 569.631 -1.20912 -3.89672 0
M  V30 6270 H 568.306 -2.28226 -3.47686 0
M  V30 6271 H 566.883 -0.464437 -3.69996 0
M  V30 6272 N 569.068 1.32177 -0.85831 0
M  V30 6273 C 570.018 2.26307 -0.277307 0
M  V30 6274 C 571.002 1.50123 0.578946 0
M  V30 6275 O 572.194 1.71754 0.427731 0
M  V30 6276 C 569.323 3.39181 0.530232 0
M  V30 6277 C 568.409 4.22746 -0.338613 0
M  V30 6278 N 568.8 4.85265 -1.4266 0
M  V30 6279 C 567.098 4.45813 -0.129 0
M  V30 6280 C 567.799 5.47634 -1.96142 0
M  V30 6281 N 566.775 5.28794 -1.26007 0
M  V30 6282 H 570.577 2.72173 -1.10902 0
M  V30 6283 H 568.091 1.46308 -0.704816 0
M  V30 6284 H 570.088 4.05628 0.962904 0
M  V30 6285 H 568.748 2.9486 1.35969 0
M  V30 6286 H 569.759 4.85259 -1.80953 0
M  V30 6287 H 566.436 4.12163 0.665451 0
M  V30 6288 H 567.826 6.0735 -2.8736 0
M  V30 6289 N 570.547 0.616602 1.45037 0
M  V30 6290 C 571.795 0.115103 2.01772 0
M  V30 6291 C 572.116 -1.2622 1.48639 0
M  V30 6292 O 571.386 -1.83563 0.684199 0
M  V30 6293 H 569.966 0.0395607 0.745952 0
M  V30 6294 H 572.628 0.800032 1.77723 0
M  V30 6295 H 571.724 0.0717274 3.12018 0
M  V30 6296 N 572.025 -1.5352 0.356285 0
M  V30 6297 C 572.935 -2.29151 -0.502712 0
M  V30 6298 C 573.951 -1.34753 -1.1008 0
M  V30 6299 O 575.127 -1.67803 -1.11374 0
M  V30 6300 C 572.192 -3.05911 -1.63154 0
M  V30 6301 C 571.253 -4.15958 -1.06194 0
M  V30 6302 C 570.486 -4.8905 -2.13696 0
M  V30 6303 O 570.709 -4.61919 -3.34645 0
M  V30 6304 O 569.643 -5.75202 -1.77275 0
M  V30 6305 H 573.469 -3.03492 0.112466 0
M  V30 6306 H 571.054 -1.4891 0.120942 0
M  V30 6307 H 572.936 -3.53874 -2.28804 0
M  V30 6308 H 571.611 -2.34415 -2.23229 0
M  V30 6309 H 570.518 -3.7227 -0.369603 0
M  V30 6310 H 571.851 -4.89593 -0.505872 0
M  V30 6311 N 573.503 -0.0852151 -1.57369 0
M  V30 6312 C 574.914 0.445428 -1.81309 0
M  V30 6313 C 575.265 1.68795 -1.00013 0
M  V30 6314 O 574.39 2.15211 -0.226573 0
M  V30 6315 C 574.985 0.814887 -3.28854 0
M  V30 6316 C 573.544 1.29032 -3.53592 0
M  V30 6317 C 572.691 0.282089 -2.75861 0
M  V30 6318 H 575.642 -0.310771 -1.55627 0
M  V30 6319 H 575.663 1.67524 -3.41637 0
M  V30 6320 H 575.175 -0.0896309 -3.87996 0
M  V30 6321 H 573.276 2.21289 -2.9977 0
M  V30 6322 H 573.389 1.25898 -4.62262 0
M  V30 6323 H 571.753 0.762182 -2.43029 0
M  V30 6324 H 572.536 -0.614936 -3.37748 0
M  V30 6325 N 574.981 1.5647 0.188427 0
M  V30 6326 C 576.397 1.50204 0.539532 0
M  V30 6327 C 576.597 0.78644 1.85519 0
M  V30 6328 O 575.653 0.339714 2.50204 0
M  V30 6329 C 576.966 2.94893 0.588103 0
M  V30 6330 C 578.514 3.05602 0.67648 0
M  V30 6331 C 578.989 4.51716 0.756101 0
M  V30 6332 N 580.48 4.55894 0.819451 0
M  V30 6333 C 581.215 5.66272 0.90134 0
M  V30 6334 N 580.711 6.86323 0.945118 0
M  V30 6335 N 582.504 5.54201 0.939043 0
M  V30 6336 H 574.655 2.01406 -0.674493 0
M  V30 6337 H 576.918 0.916828 -0.241103 0
M  V30 6338 H 576.624 3.50334 -0.309633 0
M  V30 6339 H 576.498 3.4861 1.44051 0
M  V30 6340 H 578.885 2.50206 1.56465 0
M  V30 6341 H 578.966 2.54999 -0.202262 0
M  V30 6342 H 578.61 5.07739 -0.12774 0
M  V30 6343 H 578.54 5.00058 1.65074 0
M  V30 6344 H 581.031 3.69452 0.794594 0
M  V30 6345 H 581.344 7.66194 1.0083 0
M  V30 6346 H 579.689 6.88968 0.913683 0
M  V30 6347 H 582.88 4.59333 0.901725 0
M  V30 6348 H 583.053 6.40247 0.999402 0
M  V30 6349 N 576.459 -0.456382 1.50847 0
M  V30 6350 C 577.409 -1.55045 1.67168 0
M  V30 6351 C 578.393 -1.52061 0.525958 0
M  V30 6352 O 579.585 -1.58836 0.781036 0
M  V30 6353 C 576.714 -2.93386 1.78268 0
M  V30 6354 C 575.8 -3.01198 2.98564 0
M  V30 6355 N 576.191 -2.78792 4.22029 0
M  V30 6356 C 574.489 -3.32346 2.97426 0
M  V30 6357 C 575.19 -2.91953 5.03128 0
M  V30 6358 N 574.166 -3.22797 4.37382 0
M  V30 6359 H 577.968 -1.36444 2.60308 0
M  V30 6360 H 575.482 -0.663375 1.48233 0
M  V30 6361 H 577.479 -3.72071 1.88067 0
M  V30 6362 H 576.139 -3.13022 0.862965 0
M  V30 6363 H 577.15 -2.54087 4.51287 0
M  V30 6364 H 573.827 -3.57877 2.15012 0
M  V30 6365 H 575.217 -2.78745 6.11351 0
M  V30 6366 N 577.937 -1.40673 -0.710563 0
M  V30 6367 C 578.867 -1.44095 -1.83736 0
M  V30 6368 C 579.848 -0.301286 -1.67411 0
M  V30 6369 O 581.033 -0.510618 -1.87367 0
M  V30 6370 C 578.163 -1.30773 -3.21738 0
M  V30 6371 C 577.117 -2.42395 -3.52745 0
M  V30 6372 C 576.443 -2.14147 -4.89944 0
M  V30 6373 C 577.743 -3.84738 -3.53234 0
M  V30 6374 H 579.437 -2.38396 -1.81129 0
M  V30 6375 H 576.983 -1.14746 -0.870017 0
M  V30 6376 H 578.936 -1.31783 -4.00264 0
M  V30 6377 H 577.66 -0.329507 -3.24934 0
M  V30 6378 H 576.319 -2.40643 -2.76562 0
M  V30 6379 H 575.967 -1.14703 -4.89747 0
M  V30 6380 H 575.667 -2.88934 -5.11655 0
M  V30 6381 H 577.191 -2.16848 -5.70797 0
M  V30 6382 H 578.605 -3.88286 -4.2179 0
M  V30 6383 H 577.002 -4.59085 -3.86473 0
M  V30 6384 H 578.072 -4.13962 -2.52514 0
M  V30 6385 N 579.415 0.9433 -1.26252 0
M  V30 6386 C 580.362 2.0417 -1.07625 0
M  V30 6387 C 581.332 1.6609 0.0180738 0
M  V30 6388 O 582.517 1.90276 -0.141289 0
M  V30 6389 C 579.657 3.37653 -0.713043 0
M  V30 6390 C 578.77 3.88783 -1.8834 0
M  V30 6391 C 577.905 5.10642 -1.4635 0
M  V30 6392 C 576.944 5.54028 -2.60229 0
M  V30 6393 N 576.081 6.67092 -2.18936 0
M  V30 6394 H 580.921 2.19436 -2.01623 0
M  V30 6395 H 578.458 1.07519 -1.00389 0
M  V30 6396 H 580.416 4.14391 -0.483358 0
M  V30 6397 H 579.046 3.22241 0.18996 0
M  V30 6398 H 578.098 3.08464 -2.22608 0
M  V30 6399 H 579.41 4.16922 -2.73821 0
M  V30 6400 H 578.564 5.94832 -1.19414 0
M  V30 6401 H 577.303 4.84244 -0.579568 0
M  V30 6402 H 576.308 4.68396 -2.87898 0
M  V30 6403 H 577.533 5.82429 -3.49219 0
M  V30 6404 H 575.479 6.42381 -1.32974 0
M  V30 6405 H 575.396 6.94806 -2.97961 0
M  V30 6406 H 576.664 7.54662 -1.95206 0
M  V30 6407 N 580.893 1.08022 1.14757 0
M  V30 6408 C 581.803 0.718292 2.23333 0
M  V30 6409 C 582.819 -0.273477 1.71837 0
M  V30 6410 O 583.995 -0.118406 2.01052 0
M  V30 6411 C 581.06 0.128855 3.4646 0
M  V30 6412 C 580.121 1.17473 4.12915 0
M  V30 6413 C 579.354 0.61333 5.30164 0
M  V30 6414 O 579.577 -0.568458 5.6756 0
M  V30 6415 O 578.511 1.3615 5.86299 0
M  V30 6416 H 582.337 1.62394 2.56636 0
M  V30 6417 H 579.922 0.853628 1.22611 0
M  V30 6418 H 581.804 -0.197249 4.20938 0
M  V30 6419 H 580.479 -0.750014 3.14891 0
M  V30 6420 H 579.386 1.5533 3.40328 0
M  V30 6421 H 580.719 2.02574 4.48581 0
M  V30 6422 N 582.371 -1.3172 0.865308 0
M  V30 6423 C 583.611 -1.98675 0.480365 0
M  V30 6424 C 583.975 -1.66929 -0.948621 0
M  V30 6425 O 585.176 -2.27059 -1.43867 0
M  V30 6426 C 583.447 -3.49972 0.724858 0
M  V30 6427 S 585.006 -4.36598 0.439078 0
M  V30 6428 H 581.824 -0.687967 0.179506 0
M  V30 6429 H 584.426 -1.60215 1.12033 0
M  V30 6430 H 583.13 -3.70567 1.76375 0
M  V30 6431 H 582.661 -3.93335 0.0717173 0
M  V30 6432 H 584.676 -4.90792 -0.730564 0
M  V30 6433 N 583.85 -0.624285 -1.44708 0
M  V30 6434 C 585.096 -0.126051 -2.02107 0
M  V30 6435 C 585.425 1.2496 -1.49048 0
M  V30 6436 O 584.68 1.84163 -0.662005 0
M  V30 6437 C 584.979 -0.0546353 -3.57358 0
M  V30 6438 C 584.644 -1.36815 -4.29642 0
M  V30 6439 C 583.307 -1.72792 -4.49106 0
M  V30 6440 C 585.659 -2.23549 -4.70824 0
M  V30 6441 C 582.986 -2.95222 -5.07012 0
M  V30 6442 C 585.339 -3.45243 -5.30085 0
M  V30 6443 C 584.003 -3.81452 -5.47769 0
M  V30 6444 H 583.273 -0.0461252 -0.739563 0
M  V30 6445 H 585.92 -0.809236 -1.73562 0
M  V30 6446 H 584.225 0.711891 -3.85278 0
M  V30 6447 H 585.922 0.347282 -3.99493 0
M  V30 6448 H 582.512 -1.07817 -4.14817 0
M  V30 6449 H 586.696 -1.9705 -4.55505 0
M  V30 6450 H 581.952 -3.23361 -5.18891 0
M  V30 6451 H 586.125 -4.12689 -5.60946 0
M  V30 6452 H 583.753 -4.76403 -5.92405 0
M  V30 6453 N 585.328 1.53329 -0.364422 0
M  V30 6454 C 586.278 2.22472 0.499024 0
M  V30 6455 C 587.262 1.21952 1.0496 0
M  V30 6456 O 588.454 1.47405 0.979836 0
M  V30 6457 C 585.583 3.01659 1.6388 0
M  V30 6458 C 584.669 4.09555 1.10116 0
M  V30 6459 N 585.06 5.04988 0.286414 0
M  V30 6460 C 583.358 4.2424 1.37608 0
M  V30 6461 C 584.059 5.81699 -0.00781682 0
M  V30 6462 N 583.035 5.40394 0.589494 0
M  V30 6463 H 586.837 2.93611 -0.130284 0
M  V30 6464 H 584.351 1.61483 -0.172377 0
M  V30 6465 H 586.348 3.4971 2.26954 0
M  V30 6466 H 585.008 2.32051 2.27118 0
M  V30 6467 H 586.019 5.17847 -0.0742839 0
M  V30 6468 H 582.696 3.65858 2.01133 0
M  V30 6469 H 584.086 6.68587 -0.666394 0
M  V30 6470 N 586.806 0.0935595 1.57322 0
M  V30 6471 C 588.046 -0.573901 1.96178 0
M  V30 6472 C 588.41 -1.65445 0.97426 0
M  V30 6473 O 589.611 -2.37901 1.25126 0
M  V30 6474 C 587.882 -1.11612 3.39526 0
M  V30 6475 S 589.441 -1.79566 4.00377 0
M  V30 6476 H 586.259 -0.187315 0.685882 0
M  V30 6477 H 588.861 0.172597 1.94737 0
M  V30 6478 H 587.565 -0.31815 4.09165 0
M  V30 6479 H 587.096 -1.89848 3.4456 0
M  V30 6480 H 589.111 -3.07978 3.89056 0
M  V30 6481 N 588.284 -1.56567 -0.180126 0
M  V30 6482 C 589.234 -1.92132 -1.22756 0
M  V30 6483 C 590.218 -0.788639 -1.40247 0
M  V30 6484 O 591.41 -1.05171 -1.42366 0
M  V30 6485 C 588.539 -2.27719 -2.56902 0
M  V30 6486 C 587.625 -3.47481 -2.43142 0
M  V30 6487 N 588.016 -4.64973 -1.99082 0
M  V30 6488 C 586.314 -3.51914 -2.73994 0
M  V30 6489 C 587.015 -5.47119 -1.97574 0
M  V30 6490 N 585.991 -4.87925 -2.39645 0
M  V30 6491 H 589.793 -2.80464 -0.878478 0
M  V30 6492 H 587.307 -1.57686 -0.388463 0
M  V30 6493 H 589.304 -2.51389 -3.32579 0
M  V30 6494 H 587.964 -1.40722 -2.92621 0
M  V30 6495 H 588.975 -4.89358 -1.69557 0
M  V30 6496 H 585.652 -2.75372 -3.13809 0
M  V30 6497 H 587.042 -6.51254 -1.65282 0
M  V30 6498 N 589.762 0.448376 -1.51087 0
M  V30 6499 C 590.709 1.54341 -1.71603 0
M  V30 6500 C 591.679 1.56463 -0.557536 0
M  V30 6501 O 592.864 1.73644 -0.79072 0
M  V30 6502 C 590.004 2.92148 -1.83695 0
M  V30 6503 C 589.117 2.99639 -3.11192 0
M  V30 6504 C 588.252 4.285 -3.13944 0
M  V30 6505 C 587.291 4.29819 -4.35801 0
M  V30 6506 N 586.428 5.50186 -4.36164 0
M  V30 6507 H 591.268 1.36151 -2.65079 0
M  V30 6508 H 588.805 0.661585 -1.31383 0
M  V30 6509 H 590.763 3.72093 -1.88687 0
M  V30 6510 H 589.393 3.0892 -0.936374 0
M  V30 6511 H 588.445 2.12425 -3.15562 0
M  V30 6512 H 589.757 2.96474 -4.01129 0
M  V30 6513 H 588.911 5.16811 -3.17791 0
M  V30 6514 H 587.65 4.34307 -2.21876 0
M  V30 6515 H 586.655 3.39902 -4.32142 0
M  V30 6516 H 587.88 4.25685 -5.29121 0
M  V30 6517 H 585.826 5.56735 -3.46961 0
M  V30 6518 H 585.743 5.48856 -5.19897 0
M  V30 6519 H 587.011 6.40559 -4.44189 0
M  V30 6520 N 591.24 1.41047 0.703093 0
M  V30 6521 C 592.465 1.43537 1.49706 0
M  V30 6522 C 592.89 0.0401853 1.88057 0
M  V30 6523 O 592.248 -0.954785 1.54122 0
M  V30 6524 C 592.296 2.3433 2.74084 0
M  V30 6525 O 591.4 1.79515 3.71279 0
M  V30 6526 H 590.741 0.487454 0.450871 0
M  V30 6527 H 593.271 1.85422 0.86486 0
M  V30 6528 H 593.281 2.49947 3.22476 0
M  V30 6529 H 591.956 3.35708 2.45506 0
M  V30 6530 H 590.533 1.7331 3.30179 0
M  V30 6531 N 592.718 -0.936591 1.26751 0
M  V30 6532 C 593.666 -2.0573 1.08527 0
M  V30 6533 C 594.66 -1.69397 0.0108784 0
M  V30 6534 O 595.866 -1.79215 0.167915 0
M  V30 6535 H 592.241 -0.673691 0.334133 0
M  V30 6536 H 594.212 -2.1825 2.03493 0
M  V30 6537 C 592.961 -3.39738 0.739845 0
M  V30 6538 H 592.284 -3.68174 1.55845 0
M  V30 6539 H 593.724 -4.18955 0.652149 0
M  V30 6540 C 592.183 -3.32292 -0.555288 0
M  V30 6541 O 592.713 -3.68794 -1.59229 0
M  V30 6542 N 590.919 -2.85394 -0.54762 0
M  V30 6543 H 590.466 -2.55886 0.296667 0
M  V30 6544 H 590.424 -2.80795 -1.41427 0
M  V30 6545 N 594.196 -1.08629 -1.14182 0
M  V30 6546 C 595.106 -0.730126 -2.22949 0
M  V30 6547 C 596.122 0.26436 -1.7198 0
M  V30 6548 O 597.298 0.107742 -2.01112 0
M  V30 6549 C 594.363 -0.147227 -3.46387 0
M  V30 6550 C 593.424 -1.19662 -4.12286 0
M  V30 6551 C 592.657 -0.641437 -5.29831 0
M  V30 6552 O 592.88 0.538351 -5.67854 0
M  V30 6553 O 591.814 -1.39257 -5.85569 0
M  V30 6554 H 595.64 -1.63753 -2.55771 0
M  V30 6555 H 593.225 -0.860118 -1.22157 0
M  V30 6556 H 595.107 0.174923 -4.21037 0
M  V30 6557 H 593.782 0.733304 -3.15285 0
M  V30 6558 H 592.689 -1.57133 -3.395 0
M  V30 6559 H 594.022 -2.0495 -4.475 0
M  V30 6560 N 595.674 1.31259 -0.872281 0
M  V30 6561 C 596.604 2.30929 -0.345554 0
M  V30 6562 C 597.585 1.60449 0.5648 0
M  V30 6563 O 598.77 1.8814 0.481335 0
M  V30 6564 C 595.9 3.44348 0.451823 0
M  V30 6565 C 594.854 4.26435 -0.365641 0
M  V30 6566 C 594.18 5.31785 0.557562 0
M  V30 6567 C 595.48 4.97159 -1.60095 0
M  V30 6568 H 597.174 2.75234 -1.17841 0
M  V30 6569 H 594.72 1.3232 -0.568094 0
M  V30 6570 H 596.673 4.13128 0.830854 0
M  V30 6571 H 595.397 2.98816 1.31821 0
M  V30 6572 H 594.056 3.59326 -0.726649 0
M  V30 6573 H 593.704 4.82502 1.4213 0
M  V30 6574 H 593.404 5.87598 0.0144878 0
M  V30 6575 H 594.928 6.03424 0.933387 0
M  V30 6576 H 596.342 5.58523 -1.29323 0
M  V30 6577 H 594.739 5.62779 -2.08327 0
M  V30 6578 H 595.809 4.24012 -2.35249 0
M  V30 6579 N 597.152 0.631951 1.44375 0
M  V30 6580 C 598.115 -0.0628142 2.29114 0
M  V30 6581 C 599.115 -0.771494 1.41084 0
M  V30 6582 O 600.305 -0.615959 1.62947 0
M  V30 6583 C 597.437 -1.09953 3.22681 0
M  V30 6584 H 598.63 0.682509 2.92031 0
M  V30 6585 H 596.183 0.392128 1.51301 0
M  V30 6586 H 596.918 -1.87481 2.64616 0
M  V30 6587 H 596.703 -0.595286 3.87555 0
M  V30 6588 H 598.193 -1.58538 3.86336 0
M  V30 6589 N 598.631 -1.53133 0.372548 0
M  V30 6590 C 599.859 -2.05774 -0.215515 0
M  V30 6591 C 600.274 -1.24555 -1.41886 0
M  V30 6592 O 599.631 -0.287951 -1.80214 0
M  V30 6593 C 599.682 -3.5645 -0.602161 0
M  V30 6594 O 599.403 -4.34591 0.553359 0
M  V30 6595 C 600.904 -4.25374 -1.24787 0
M  V30 6596 H 598.124 -0.670009 -0.0364529 0
M  V30 6597 H 600.668 -1.97434 0.532934 0
M  V30 6598 H 598.823 -3.64918 -1.30052 0
M  V30 6599 H 599.237 -5.23954 0.239336 0
M  V30 6600 H 600.711 -5.32097 -1.46891 0
M  V30 6601 H 601.188 -3.79531 -2.21026 0
M  V30 6602 H 601.794 -4.21177 -0.590752 0
M  V30 6603 N 600.109 -0.101901 -1.5727 0
M  V30 6604 C 601.334 0.571759 -1.99363 0
M  V30 6605 C 601.759 1.60507 -0.980768 0
M  V30 6606 O 601.117 1.81231 0.0498517 0
M  V30 6607 C 601.165 1.18996 -3.404 0
M  V30 6608 O 600.269 2.30572 -3.41922 0
M  V30 6609 H 599.61 0.144449 -0.648098 0
M  V30 6610 H 602.14 -0.185325 -2.03759 0
M  V30 6611 H 602.15 1.52962 -3.78241 0
M  V30 6612 H 600.825 0.432984 -4.1364 0
M  V30 6613 H 599.402 1.98173 -3.15883 0
M  V30 6614 N 601.587 1.56661 0.17182 0
M  V30 6615 C 602.534 1.96371 1.21273 0
M  V30 6616 C 603.504 0.82756 1.44016 0
M  V30 6617 O 604.689 1.08764 1.56764 0
M  V30 6618 C 601.829 2.32838 2.54716 0
M  V30 6619 C 600.942 3.59628 2.39356 0
M  V30 6620 C 600.077 3.85311 3.65662 0
M  V30 6621 C 599.116 5.0545 3.45234 0
M  V30 6622 N 598.253 5.27268 4.63608 0
M  V30 6623 H 603.093 2.85106 0.86709 0
M  V30 6624 H 600.63 1.41073 0.416744 0
M  V30 6625 H 602.588 2.52004 3.3249 0
M  V30 6626 H 601.218 1.47214 2.87277 0
M  V30 6627 H 600.27 3.4838 1.52761 0
M  V30 6628 H 601.582 4.4756 2.20207 0
M  V30 6629 H 600.736 4.04841 4.51872 0
M  V30 6630 H 599.475 2.95753 3.8779 0
M  V30 6631 H 598.48 4.85819 2.5741 0
M  V30 6632 H 599.705 5.96538 3.24529 0
M  V30 6633 H 597.651 4.40662 4.85956 0
M  V30 6634 H 597.568 6.09422 4.4737 0
M  V30 6635 H 598.836 5.51277 5.51103 0
M  V30 6636 N 603.065 -0.440357 1.51323 0
M  V30 6637 C 604.481 -0.7766 1.39431 0
M  V30 6638 C 604.681 -1.95838 0.474296 0
M  V30 6639 O 603.737 -2.52398 -0.0716692 0
M  V30 6640 C 605.05 -1.05981 2.81405 0
M  V30 6641 C 606.598 -1.16442 2.90534 0
M  V30 6642 C 607.073 -1.48058 4.33408 0
M  V30 6643 N 608.564 -1.54988 4.36501 0
M  V30 6644 C 609.299 -1.81017 5.44078 0
M  V30 6645 N 608.795 -2.04858 6.61819 0
M  V30 6646 N 610.588 -1.82774 5.31554 0
M  V30 6647 H 602.739 0.338006 2.09693 0
M  V30 6648 H 605.002 0.0888072 0.943831 0
M  V30 6649 H 604.708 -0.264173 3.50706 0
M  V30 6650 H 604.582 -1.98822 3.20546 0
M  V30 6651 H 606.969 -1.95068 2.21432 0
M  V30 6652 H 607.05 -0.215088 2.54894 0
M  V30 6653 H 606.694 -0.699605 5.03059 0
M  V30 6654 H 606.624 -2.44192 4.66559 0
M  V30 6655 H 609.115 -1.38479 3.51613 0
M  V30 6656 H 609.428 -2.2408 7.396 0
M  V30 6657 H 607.773 -2.02187 6.6494 0
M  V30 6658 H 610.964 -1.63665 4.38556 0
M  V30 6659 H 611.137 -2.02722 6.15474 0
M  V30 6660 N 604.543 -1.41418 -0.695603 0
M  V30 6661 C 605.959 -1.23887 -1.00619 0
M  V30 6662 C 606.159 -0.128206 -2.01092 0
M  V30 6663 O 605.215 0.507408 -2.47349 0
M  V30 6664 C 606.528 -2.58816 -1.53083 0
M  V30 6665 C 608.076 -2.65998 -1.64967 0
M  V30 6666 C 608.551 -4.01244 -2.20833 0
M  V30 6667 N 610.042 -4.0309 -2.28194 0
M  V30 6668 C 610.777 -5.04539 -2.72448 0
M  V30 6669 N 610.273 -6.16378 -3.16306 0
M  V30 6670 N 612.066 -4.91901 -2.72011 0
M  V30 6671 H 604.217 -2.12379 -0.0300061 0
M  V30 6672 H 606.48 -0.944958 -0.0758797 0
M  V30 6673 H 606.186 -3.40842 -0.867147 0
M  V30 6674 H 606.06 -2.81299 -2.51298 0
M  V30 6675 H 608.447 -1.84331 -2.30448 0
M  V30 6676 H 608.528 -2.47325 -0.652982 0
M  V30 6677 H 608.172 -4.83359 -1.55968 0
M  V30 6678 H 608.102 -4.17257 -3.21254 0
M  V30 6679 H 610.593 -3.22341 -1.97242 0
M  V30 6680 H 610.906 -6.89658 -3.487 0
M  V30 6681 H 609.251 -6.19914 -3.14215 0
M  V30 6682 H 612.442 -4.03613 -2.37095 0
M  V30 6683 H 612.615 -5.71102 -3.06181 0
M  V30 6684 N 606.021 0.929856 -1.27246 0
M  V30 6685 C 606.951 2.04722 -1.12299 0
M  V30 6686 C 607.932 1.70082 -0.0250464 0
M  V30 6687 O 609.117 1.93176 -0.199141 0
M  V30 6688 C 606.247 3.38721 -0.767145 0
M  V30 6689 C 605.201 3.87466 -1.81808 0
M  V30 6690 C 604.527 5.18246 -1.31626 0
M  V30 6691 C 605.827 4.11095 -3.22177 0
M  V30 6692 H 607.521 2.17485 -2.05769 0
M  V30 6693 H 605.067 1.04503 -0.990715 0
M  V30 6694 H 607.02 4.16366 -0.649413 0
M  V30 6695 H 605.744 3.25967 0.203259 0
M  V30 6696 H 604.403 3.12012 -1.92468 0
M  V30 6697 H 604.051 5.01881 -0.335378 0
M  V30 6698 H 603.751 5.51829 -2.01887 0
M  V30 6699 H 605.275 5.98462 -1.21143 0
M  V30 6700 H 606.689 4.79316 -3.1453 0
M  V30 6701 H 605.086 4.55982 -3.90129 0
M  V30 6702 H 606.156 3.16468 -3.67391 0
M  V30 6703 N 607.499 1.09233 1.13605 0
M  V30 6704 C 608.724 0.849067 1.89224 0
M  V30 6705 C 609.149 -0.593875 1.78479 0
M  V30 6706 O 608.507 -1.41703 1.13092 0
M  V30 6707 C 608.555 1.28642 3.36873 0
M  V30 6708 O 607.659 0.44363 4.10007 0
M  V30 6709 H 607 0.30767 0.588417 0
M  V30 6710 H 609.53 1.45595 1.43748 0
M  V30 6711 H 609.54 1.27096 3.87699 0
M  V30 6712 H 608.215 2.33729 3.44011 0
M  V30 6713 H 606.792 0.523241 3.69211 0
M  V30 6714 N 608.977 -1.30795 0.87923 0
M  V30 6715 C 609.927 -2.25838 0.313276 0
M  V30 6716 C 610.911 -1.51025 -0.55499 0
M  V30 6717 O 612.103 -1.72413 -0.400353 0
M  V30 6718 C 609.232 -3.39981 -0.476204 0
M  V30 6719 C 608.318 -4.22154 0.405826 0
M  V30 6720 N 608.709 -4.82934 1.50362 0
M  V30 6721 C 607.007 -4.45552 0.199909 0
M  V30 6722 C 607.708 -5.44444 2.0483 0
M  V30 6723 N 606.684 -5.26723 1.34403 0
M  V30 6724 H 610.486 -2.70374 1.15218 0
M  V30 6725 H 608 -1.45168 0.728003 0
M  V30 6726 H 609.997 -4.07108 -0.898251 0
M  V30 6727 H 608.657 -2.96986 -1.31261 0
M  V30 6728 H 609.668 -4.82319 1.8865 0
M  V30 6729 H 606.345 -4.13169 -0.599795 0
M  V30 6730 H 607.735 -6.02701 2.96986 0
M  V30 6731 N 610.455 -0.639598 -1.44038 0
M  V30 6732 C 611.387 0.0987684 -2.28987 0
M  V30 6733 C 612.4 0.80058 -1.41755 0
M  V30 6734 O 613.589 0.660611 -1.65826 0
M  V30 6735 C 610.689 1.16242 -3.18341 0
M  V30 6736 C 609.862 0.541447 -4.34036 0
M  V30 6737 C 608.921 1.50017 -5.04362 0
M  V30 6738 O 607.947 1.01403 -5.60095 0
M  V30 6739 N 609.149 2.83441 -5.06598 0
M  V30 6740 H 611.914 -0.630305 -2.92997 0
M  V30 6741 H 609.475 -0.481376 -1.54578 0
M  V30 6742 H 611.467 1.80429 -3.62253 0
M  V30 6743 H 610.037 1.79362 -2.56024 0
M  V30 6744 H 609.257 -0.27923 -3.9321 0
M  V30 6745 H 610.545 0.107379 -5.08687 0
M  V30 6746 H 609.943 3.2551 -4.62666 0
M  V30 6747 H 608.5 3.42966 -5.54272 0
M  V30 6748 N 611.933 1.52934 -0.380664 0
M  V30 6749 C 613.344 1.86457 0.0952684 0
M  V30 6750 C 613.695 1.3007 1.46889 0
M  V30 6751 O 612.82 0.628636 2.07068 0
M  V30 6752 C 613.415 3.38323 0.179648 0
M  V30 6753 C 611.974 3.71589 0.599858 0
M  V30 6754 C 611.121 2.76228 -0.243572 0
M  V30 6755 H 614.072 1.46966 -0.59888 0
M  V30 6756 H 614.093 3.67113 1.00042 0
M  V30 6757 H 613.605 3.79333 -0.820228 0
M  V30 6758 H 611.706 3.36144 1.60742 0
M  V30 6759 H 611.819 4.77715 0.364003 0
M  V30 6760 H 610.183 2.53045 0.289855 0
M  V30 6761 H 610.966 3.20074 -1.24127 0
M  V30 6762 N 613.412 0.11024 1.57214 0
M  V30 6763 C 614.342 -0.840002 2.17867 0
M  V30 6764 C 615.323 -1.28352 1.11624 0
M  V30 6765 O 616.508 -1.3477 1.39824 0
M  V30 6766 C 613.638 -2.09349 2.77111 0
M  V30 6767 C 612.592 -1.78807 3.8886 0
M  V30 6768 C 611.918 -3.11112 4.34872 0
M  V30 6769 C 613.218 -1.0632 5.11364 0
M  V30 6770 H 614.912 -0.334608 2.97524 0
M  V30 6771 H 612.458 -0.159502 1.43114 0
M  V30 6772 H 614.411 -2.76275 3.18198 0
M  V30 6773 H 613.135 -2.62198 1.9473 0
M  V30 6774 H 611.794 -1.14273 3.48335 0
M  V30 6775 H 611.442 -3.61877 3.49362 0
M  V30 6776 H 611.142 -2.91453 5.10224 0
M  V30 6777 H 612.666 -3.79171 4.78604 0
M  V30 6778 H 614.08 -1.63383 5.49526 0
M  V30 6779 H 612.477 -0.967876 5.92243 0
M  V30 6780 H 613.547 -0.0484569 4.84876 0
M  V30 6781 N 614.89 -1.56749 -0.16351 0
M  V30 6782 C 615.822 -1.93587 -1.22705 0
M  V30 6783 C 616.835 -0.829824 -1.40063 0
M  V30 6784 O 618.024 -1.10826 -1.39928 0
M  V30 6785 C 615.124 -2.1803 -2.59454 0
M  V30 6786 C 614.297 -3.4928 -2.63292 0
M  V30 6787 C 613.356 -3.62457 -3.8146 0
M  V30 6788 O 612.382 -4.35004 -3.67096 0
M  V30 6789 N 613.584 -2.97888 -4.9824 0
M  V30 6790 H 616.349 -2.8542 -0.914081 0
M  V30 6791 H 613.91 -1.58 -0.353214 0
M  V30 6792 H 615.902 -2.24102 -3.36987 0
M  V30 6793 H 614.472 -1.32543 -2.8311 0
M  V30 6794 H 613.692 -3.54795 -1.71796 0
M  V30 6795 H 614.98 -4.35632 -2.62873 0
M  V30 6796 H 614.378 -2.38833 -5.12811 0
M  V30 6797 H 612.935 -3.09545 -5.73607 0
M  V30 6798 N 616.368 0.432326 -1.51554 0
M  V30 6799 C 617.614 1.17997 -1.65675 0
M  V30 6800 C 617.969 1.88794 -0.37076 0
M  V30 6801 O 617.262 1.80817 0.633692 0
M  V30 6802 C 617.456 2.21907 -2.80164 0
M  V30 6803 C 617.285 1.6131 -4.19773 0
M  V30 6804 C 616.055 1.39585 -4.85638 0
M  V30 6805 C 618.253 1.08659 -5.0269 0
M  V30 6806 N 616.235 0.746374 -6.09346 0
M  V30 6807 C 617.606 0.562685 -6.17441 0
M  V30 6808 C 619.661 0.978831 -4.88184 0
M  V30 6809 C 618.364 -0.0584015 -7.19276 0
M  V30 6810 C 620.39 0.371631 -5.90231 0
M  V30 6811 C 619.752 -0.141711 -7.04257 0
M  V30 6812 H 615.851 0.419277 -0.660099 0
M  V30 6813 H 618.435 0.475809 -1.88797 0
M  V30 6814 H 616.606 2.89706 -2.58698 0
M  V30 6815 H 618.338 2.88867 -2.8344 0
M  V30 6816 H 615.093 1.65897 -4.43593 0
M  V30 6817 H 615.517 0.438934 -6.75576 0
M  V30 6818 H 620.159 1.36157 -4.00276 0
M  V30 6819 H 617.877 -0.453262 -8.06828 0
M  V30 6820 H 621.463 0.290086 -5.81076 0
M  V30 6821 H 620.343 -0.60417 -7.81869 0
M  V30 6822 N 617.846 1.41785 0.688094 0
M  V30 6823 C 619.092 1.41753 1.4503 0
M  V30 6824 C 619.425 0.0290745 1.94178 0
M  V30 6825 O 618.7 -0.944456 1.7003 0
M  V30 6826 C 618.983 2.43069 2.65686 0
M  V30 6827 C 618.836 3.91053 2.22256 0
M  V30 6828 C 620.155 2.41543 3.67893 0
M  V30 6829 H 617.274 0.516202 0.526027 0
M  V30 6830 H 619.916 1.73111 0.783105 0
M  V30 6831 H 618.066 2.1646 3.2261 0
M  V30 6832 H 619.738 4.28594 1.70602 0
M  V30 6833 H 617.981 4.05559 1.53963 0
M  V30 6834 H 618.652 4.57501 3.08863 0
M  V30 6835 H 621.128 2.65175 3.20658 0
M  V30 6836 H 620.004 3.14434 4.49914 0
M  V30 6837 H 620.265 1.43666 4.18106 0
M  V30 6838 N 619.324 -0.923095 1.27737 0
M  V30 6839 C 620.57 -1.67375 1.14514 0
M  V30 6840 C 620.903 -1.91751 -0.307424 0
M  V30 6841 O 620.178 -1.51119 -1.22447 0
M  V30 6842 C 620.461 -3.03745 1.9342 0
M  V30 6843 C 620.314 -2.86581 3.46686 0
M  V30 6844 C 621.633 -4.04144 1.74228 0
M  V30 6845 H 618.752 -0.607427 0.417374 0
M  V30 6846 H 621.394 -1.07089 1.56946 0
M  V30 6847 H 619.544 -3.55204 1.5736 0
M  V30 6848 H 621.216 -2.42203 3.92601 0
M  V30 6849 H 619.459 -2.21829 3.72793 0
M  V30 6850 H 620.13 -3.83381 3.97143 0
M  V30 6851 H 622.606 -3.61712 2.05678 0
M  V30 6852 H 621.482 -4.97543 2.31824 0
M  V30 6853 H 621.743 -4.36661 0.691373 0
M  V30 6854 N 620.802 -1.09834 -1.13024 0
M  V30 6855 C 621.712 -0.753731 -2.22162 0
M  V30 6856 C 622.728 0.246105 -1.72251 0
M  V30 6857 O 623.904 0.0864051 -2.01215 0
M  V30 6858 C 620.969 -0.183958 -3.46212 0
M  V30 6859 C 620.03 -1.24028 -4.10993 0
M  V30 6860 C 619.263 -0.697597 -5.29121 0
M  V30 6861 O 619.486 0.478092 -5.68393 0
M  V30 6862 O 618.42 -1.4546 -5.84059 0
M  V30 6863 H 622.246 -1.66456 -2.5402 0
M  V30 6864 H 619.831 -0.873026 -1.21238 0
M  V30 6865 H 621.713 0.130257 -4.21199 0
M  V30 6866 H 620.388 0.699823 -3.16045 0
M  V30 6867 H 619.295 -1.60725 -3.37814 0
M  V30 6868 H 620.628 -2.09685 -4.45301 0
M  V30 6869 N 622.28 1.30327 -0.886154 0
M  V30 6870 C 623.228 2.30052 -0.343317 0
M  V30 6871 C 624.222 1.60212 0.550305 0
M  V30 6872 O 625.428 1.74674 0.434609 0
M  V30 6873 H 621.803 0.746306 -0.0923681 0
M  V30 6874 H 623.774 2.73294 -1.19804 0
M  V30 6875 C 622.523 3.45079 0.426107 0
M  V30 6876 H 621.846 3.99003 -0.25227 0
M  V30 6877 H 623.286 4.16931 0.771009 0
M  V30 6878 C 621.745 2.95195 1.62363 0
M  V30 6879 O 622.275 2.95323 2.723 0
M  V30 6880 N 620.481 2.51192 1.4612 0
M  V30 6881 H 620.028 2.51286 0.566832 0
M  V30 6882 H 619.986 2.18173 2.2638 0
M  V30 6883 N 623.758 0.647228 1.43697 0
M  V30 6884 C 624.983 0.164083 2.0675 0
M  V30 6885 C 625.408 -1.15892 1.48158 0
M  V30 6886 O 624.766 -1.71459 0.589194 0
M  V30 6887 C 624.814 0.0800368 3.60511 0
M  V30 6888 O 623.918 -0.959453 4.01084 0
M  V30 6889 H 623.259 0.0921288 0.657578 0
M  V30 6890 H 625.789 0.88846 1.84303 0
M  V30 6891 H 625.799 -0.105263 4.07864 0
M  V30 6892 H 624.474 1.04586 4.02535 0
M  V30 6893 H 623.051 -0.747425 3.65333 0
M  V30 6894 N 625.236 -1.5273 0.388769 0
M  V30 6895 C 626.146 -2.30165 -0.453993 0
M  V30 6896 C 627.162 -1.37058 -1.07197 0
M  V30 6897 O 628.338 -1.70127 -1.0779 0
M  V30 6898 C 625.403 -3.09303 -1.56628 0
M  V30 6899 C 624.464 -4.18117 -0.973467 0
M  V30 6900 C 623.697 -4.93472 -2.03275 0
M  V30 6901 O 623.92 -4.68913 -3.24772 0
M  V30 6902 O 622.854 -5.78833 -1.65034 0
M  V30 6903 H 626.68 -3.03185 0.176816 0
M  V30 6904 H 624.265 -1.4862 0.152501 0
M  V30 6905 H 626.147 -3.58648 -2.21246 0
M  V30 6906 H 624.822 -2.39098 -2.18206 0
M  V30 6907 H 623.729 -3.7297 -0.290556 0
M  V30 6908 H 625.062 -4.90556 -0.401908 0
M  V30 6909 N 626.714 -0.118576 -1.57153 0
M  V30 6910 C 627.664 0.842924 -2.11846 0
M  V30 6911 C 628.648 1.22845 -1.03914 0
M  V30 6912 O 629.84 1.19961 -1.30148 0
M  V30 6913 C 626.969 2.09312 -2.72109 0
M  V30 6914 C 626.055 1.73198 -3.87122 0
M  V30 6915 N 626.446 1.07758 -4.94188 0
M  V30 6916 C 624.744 2.02659 -3.97298 0
M  V30 6917 C 625.445 0.907741 -5.74574 0
M  V30 6918 N 624.421 1.4326 -5.24383 0
M  V30 6919 H 628.223 0.333416 -2.92003 0
M  V30 6920 H 625.737 0.0839073 -1.62183 0
M  V30 6921 H 627.734 2.79162 -3.09635 0
M  V30 6922 H 626.394 2.60807 -1.93416 0
M  V30 6923 H 627.405 0.741613 -5.12563 0
M  V30 6924 H 624.082 2.56204 -3.29645 0
M  V30 6925 H 625.472 0.394112 -6.70743 0
M  V30 6926 N 628.193 1.56834 0.155195 0
M  V30 6927 C 629.418 1.87412 0.888337 0
M  V30 6928 C 629.843 0.70671 1.74319 0
M  V30 6929 O 629.201 -0.343892 1.78009 0
M  V30 6930 C 629.249 3.1652 1.72765 0
M  V30 6931 O 628.353 2.99877 2.83103 0
M  V30 6932 H 627.694 0.615983 0.247914 0
M  V30 6933 H 630.224 2.04061 0.148478 0
M  V30 6934 H 630.234 3.48334 2.12433 0
M  V30 6935 H 628.909 4.01094 1.09985 0
M  V30 6936 H 627.486 2.79453 2.46902 0
M  V30 6937 N 629.671 -0.424282 1.51781 0
M  V30 6938 C 631.082 -1.00368 1.57427 0
M  V30 6939 C 631.433 -1.91962 0.40558 0
M  V30 6940 O 630.558 -2.111 -0.47601 0
M  V30 6941 C 631.153 -1.82707 2.85313 0
M  V30 6942 C 629.712 -2.35675 2.93487 0
M  V30 6943 C 628.859 -1.1524 2.5222 0
M  V30 6944 H 631.81 -0.205064 1.5737 0
M  V30 6945 H 631.831 -2.68294 2.69812 0
M  V30 6946 H 631.343 -1.16017 3.70353 0
M  V30 6947 H 629.444 -3.05781 2.12906 0
M  V30 6948 H 629.557 -2.67578 3.97415 0
M  V30 6949 H 627.921 -1.50174 2.05718 0
M  V30 6950 H 628.704 -0.5014 3.39619 0
M  V30 6951 N 631.149 -1.42148 -0.680565 0
M  V30 6952 C 632.059 -1.47565 -1.82378 0
M  V30 6953 C 633.075 -0.36489 -1.70131 0
M  V30 6954 O 634.251 -0.614916 -1.91783 0
M  V30 6955 C 631.316 -1.37013 -3.18478 0
M  V30 6956 C 630.377 -2.58532 -3.42724 0
M  V30 6957 C 629.61 -2.48473 -4.72331 0
M  V30 6958 O 629.833 -1.51745 -5.49845 0
M  V30 6959 O 628.767 -3.38503 -4.97694 0
M  V30 6960 H 632.593 -2.44045 -1.80764 0
M  V30 6961 H 630.178 -1.23849 -0.835569 0
M  V30 6962 H 632.06 -1.33468 -3.99705 0
M  V30 6963 H 630.735 -0.436552 -3.20743 0
M  V30 6964 H 629.642 -2.67652 -2.61368 0
M  V30 6965 H 630.975 -3.50769 -3.45286 0
M  V30 6966 N 632.627 0.916307 -1.28225 0
M  V30 6967 C 633.873 1.66765 -1.154 0
M  V30 6968 C 634.206 1.91912 0.297251 0
M  V30 6969 O 633.481 1.51766 1.21644 0
M  V30 6970 C 633.764 3.02715 -1.95028 0
M  V30 6971 C 633.617 2.84738 -3.48201 0
M  V30 6972 C 634.936 4.03215 -1.76369 0
M  V30 6973 H 632.055 0.605205 -0.42059 0
M  V30 6974 H 634.697 1.06255 -1.57512 0
M  V30 6975 H 632.847 3.54365 -1.59242 0
M  V30 6976 H 634.519 2.40118 -3.9388 0
M  V30 6977 H 632.762 2.19848 -3.73964 0
M  V30 6978 H 633.433 3.8127 -3.99171 0
M  V30 6979 H 635.909 3.60617 -2.07593 0
M  V30 6980 H 634.785 4.96306 -2.34459 0
M  V30 6981 H 635.046 4.36288 -0.71452 0
M  V30 6982 N 634.105 1.10431 1.1244 0
M  V30 6983 C 635.015 0.765502 2.21759 0
M  V30 6984 C 636.031 -0.236966 1.72379 0
M  V30 6985 O 637.207 -0.0757329 2.01258 0
M  V30 6986 C 634.272 0.202316 3.46109 0
M  V30 6987 C 633.333 1.26205 4.1033 0
M  V30 6988 C 632.566 0.725648 5.28744 0
M  V30 6989 O 632.789 -0.447942 5.68638 0
M  V30 6990 O 631.723 1.48555 5.83279 0
M  V30 6991 H 635.549 1.67801 2.53133 0
M  V30 6992 H 633.134 0.879443 1.20773 0
M  V30 6993 H 635.016 -0.107918 4.21262 0
M  V30 6994 H 633.691 -0.683052 3.16411 0
M  V30 6995 H 632.598 1.62514 3.36957 0
M  V30 6996 H 633.931 2.12044 4.44183 0
M  V30 6997 N 635.583 -1.29855 0.893053 0
M  V30 6998 C 636.86 -1.90694 0.435336 0
M  V30 6999 C 637.24 -1.8111 -1.08454 0
M  V30 7000 O 636.588 -1.23352 -1.92345 0
M  V30 7001 C 636.798 -3.36033 0.942472 0
M  V30 7002 C 638.146 -4.13083 0.982226 0
M  V30 7003 O 639.17 -3.4491 0.889686 0
M  V30 7004 O 638.029 -5.34896 1.12022 0
M  V30 7005 H 635.123 -0.815978 0.134567 0
M  V30 7006 H 637.669 -1.38367 0.982484 0
M  V30 7007 H 636.441 -3.37132 1.9864 0
M  V30 7008 H 636.064 -3.95828 0.374952 0
M  V30 7009 N 637.061 -0.65484 -1.43351 0
M  V30 7010 C 638.307 -0.169142 -2.02093 0
M  V30 7011 C 638.64 1.21431 -1.51553 0
M  V30 7012 O 637.915 1.81105 -0.709317 0
M  V30 7013 C 638.198 -0.181775 -3.59641 0
M  V30 7014 C 638.051 -1.59926 -4.20409 0
M  V30 7015 C 639.37 0.480945 -4.37464 0
M  V30 7016 H 636.489 -0.0629371 -0.734308 0
M  V30 7017 H 639.131 -0.835833 -1.70628 0
M  V30 7018 H 637.281 0.385918 -3.86578 0
M  V30 7019 H 638.953 -2.21766 -4.04497 0
M  V30 7020 H 637.196 -2.14605 -3.76998 0
M  V30 7021 H 637.867 -1.55994 -5.295 0
M  V30 7022 H 640.343 -0.00208273 -4.161 0
M  V30 7023 H 639.219 0.441384 -5.47122 0
M  V30 7024 H 639.48 1.55533 -4.13838 0
M  V30 7025 N 638.539 1.52521 -0.396863 0
M  V30 7026 C 639.788 2.00857 0.184184 0
M  V30 7027 C 640.101 1.28733 1.47265 0
M  V30 7028 O 641.307 1.67821 2.13421 0
M  V30 7029 C 639.763 3.57901 0.378787 0
M  V30 7030 C 639.371 4.38931 -0.896873 0
M  V30 7031 C 641.115 4.14504 0.915789 0
M  V30 7032 C 639.022 5.87591 -0.670133 0
M  V30 7033 H 637.952 0.750496 0.0726055 0
M  V30 7034 H 640.603 1.75965 -0.520425 0
M  V30 7035 H 638.985 3.79072 1.14543 0
M  V30 7036 H 640.159 4.29524 -1.66872 0
M  V30 7037 H 638.474 3.93586 -1.35938 0
M  V30 7038 H 641.071 5.23236 1.10126 0
M  V30 7039 H 641.414 3.71076 1.88701 0
M  V30 7040 H 641.947 3.97253 0.208523 0
M  V30 7041 H 638.686 6.35355 -1.61257 0
M  V30 7042 H 638.206 5.99767 0.0626368 0
M  V30 7043 H 639.885 6.46268 -0.307577 0
M  V30 7044 N 640.017 0.126909 1.57088 0
M  V30 7045 C 640.965 -0.837618 2.16995 0
M  V30 7046 C 641.959 -1.26974 1.12133 0
M  V30 7047 O 643.165 -1.24056 1.30423 0
M  V30 7048 H 639.54 -0.288256 0.694559 0
M  V30 7049 H 641.511 -0.307957 2.96807 0
M  V30 7050 C 640.26 -2.07474 2.79016 0
M  V30 7051 H 639.583 -1.75117 3.59408 0
M  V30 7052 H 641.023 -2.72949 3.24461 0
M  V30 7053 C 639.482 -2.86967 1.76498 0
M  V30 7054 O 640.012 -3.82625 1.22316 0
M  V30 7055 N 638.218 -2.51111 1.46258 0
M  V30 7056 H 637.765 -1.73389 1.90509 0
M  V30 7057 H 637.723 -3.04594 0.779085 0
M  V30 7058 N 641.495 -1.56914 -0.146875 0
M  V30 7059 C 642.72 -1.87881 -0.878386 0
M  V30 7060 C 643.145 -0.715945 -1.73942 0
M  V30 7061 O 642.503 0.334447 -1.78189 0
M  V30 7062 C 642.551 -3.17431 -1.71084 0
M  V30 7063 O 641.655 -3.01374 -2.81509 0
M  V30 7064 H 640.996 -0.617289 -0.244644 0
M  V30 7065 H 643.526 -2.04136 -0.137654 0
M  V30 7066 H 643.536 -3.49455 -2.10582 0
M  V30 7067 H 642.211 -4.01671 -1.07856 0
M  V30 7068 H 640.788 -2.80758 -2.45416 0
M  V30 7069 N 642.974 0.416227 -1.52004 0
M  V30 7070 C 644.22 1.16555 -1.6596 0
M  V30 7071 C 644.553 1.90347 -0.384906 0
M  V30 7072 O 643.828 1.84474 0.616405 0
M  V30 7073 C 644.111 2.1657 -2.87696 0
M  V30 7074 C 643.964 1.46722 -4.25197 0
M  V30 7075 C 645.283 3.17321 -3.04951 0
M  V30 7076 H 642.402 0.422369 -0.603965 0
M  V30 7077 H 645.044 0.452141 -1.84542 0
M  V30 7078 H 643.194 2.77411 -2.71985 0
M  V30 7079 H 644.866 0.89056 -4.52622 0
M  V30 7080 H 643.109 0.769263 -4.26925 0
M  V30 7081 H 643.78 2.19665 -5.0641 0
M  V30 7082 H 646.256 2.66552 -3.19514 0
M  V30 7083 H 645.132 3.84573 -3.91656 0
M  V30 7084 H 645.393 3.84643 -2.17951 0
M  V30 7085 N 644.452 1.42507 0.673017 0
M  V30 7086 C 645.384 1.42074 1.79854 0
M  V30 7087 C 646.397 0.319569 1.59633 0
M  V30 7088 O 647.586 0.582769 1.68719 0
M  V30 7089 C 644.686 1.19886 3.16987 0
M  V30 7090 C 643.859 2.42471 3.64042 0
M  V30 7091 C 642.918 2.15802 4.79913 0
M  V30 7092 O 641.944 2.89015 4.90366 0
M  V30 7093 N 643.146 1.16225 5.68746 0
M  V30 7094 H 645.911 2.3909 1.8071 0
M  V30 7095 H 643.472 1.37409 0.856171 0
M  V30 7096 H 645.464 0.999591 3.92161 0
M  V30 7097 H 644.034 0.313879 3.1102 0
M  V30 7098 H 643.254 2.77954 2.79526 0
M  V30 7099 H 644.542 3.24097 3.92223 0
M  V30 7100 H 643.94 0.556756 5.62954 0
M  V30 7101 H 642.497 1.02285 6.43724 0
M  V30 7102 N 645.93 -0.909495 1.28709 0
M  V30 7103 C 647.177 -1.65905 1.16111 0
M  V30 7104 C 647.505 -1.92334 -0.289436 0
M  V30 7105 O 646.76 -1.52495 -1.22653 0
M  V30 7106 C 647.059 -3.02117 1.90945 0
M  V30 7107 C 646.725 -2.95332 3.40719 0
M  V30 7108 C 645.387 -2.93189 3.81567 0
M  V30 7109 C 647.739 -2.85264 4.36204 0
M  V30 7110 C 645.067 -2.78784 5.16233 0
M  V30 7111 C 647.419 -2.724 5.70948 0
M  V30 7112 C 646.083 -2.68617 6.11066 0
M  V30 7113 H 645.353 -0.60709 0.42488 0
M  V30 7114 H 648 -1.05932 1.59533 0
M  V30 7115 H 646.305 -3.65901 1.40085 0
M  V30 7116 H 648.002 -3.59026 1.7861 0
M  V30 7117 H 644.592 -2.97797 3.08245 0
M  V30 7118 H 648.776 -2.86005 4.05605 0
M  V30 7119 H 644.032 -2.74254 5.46438 0
M  V30 7120 H 648.206 -2.63579 6.44592 0
M  V30 7121 H 645.833 -2.57213 7.15364 0
M  V30 7122 N 647.408 -1.11026 -1.11852 0
M  V30 7123 C 648.657 -0.851249 -1.82857 0
M  V30 7124 C 648.97 0.62514 -1.85341 0
M  V30 7125 O 650.176 1.00026 -2.52403 0
M  V30 7126 C 648.632 -1.47309 -3.28372 0
M  V30 7127 C 648.24 -2.9832 -3.34229 0
M  V30 7128 C 649.984 -1.29373 -4.04306 0
M  V30 7129 C 647.891 -3.53509 -4.74115 0
M  V30 7130 H 646.821 -0.314794 -0.685143 0
M  V30 7131 H 649.472 -1.33499 -1.25898 0
M  V30 7132 H 647.854 -0.917017 -3.85236 0
M  V30 7133 H 649.028 -3.60295 -2.87271 0
M  V30 7134 H 647.343 -3.15482 -2.71772 0
M  V30 7135 H 649.94 -1.68042 -5.07608 0
M  V30 7136 H 650.283 -0.235879 -4.15631 0
M  V30 7137 H 650.816 -1.8182 -3.53817 0
M  V30 7138 H 647.555 -4.58987 -4.67986 0
M  V30 7139 H 647.075 -2.96305 -5.21501 0
M  V30 7140 H 648.754 -3.51693 -5.43066 0
M  V30 7141 N 648.886 1.2938 -0.899927 0
M  V30 7142 C 649.849 2.25983 -0.382677 0
M  V30 7143 C 650.849 1.53366 0.483259 0
M  V30 7144 O 652.039 1.71798 0.28828 0
M  V30 7145 C 649.171 3.37878 0.452915 0
M  V30 7146 H 650.364 2.73252 -1.23586 0
M  V30 7147 H 647.917 1.40825 -0.678088 0
M  V30 7148 H 648.652 2.95949 1.32608 0
M  V30 7149 H 648.437 3.91742 -0.167562 0
M  V30 7150 H 649.927 4.09746 0.806107 0
M  V30 7151 N 650.364 0.662433 1.43002 0
M  V30 7152 C 651.274 -0.0239199 2.34588 0
M  V30 7153 C 652.29 -0.802255 1.54402 0
M  V30 7154 O 653.466 -0.747401 1.87018 0
M  V30 7155 C 650.531 -0.972098 3.32793 0
M  V30 7156 C 649.592 -0.189673 4.28881 0
M  V30 7157 C 648.825 -1.09269 5.22395 0
M  V30 7158 O 649.048 -2.33209 5.20547 0
M  V30 7159 O 647.982 -0.560136 5.99288 0
M  V30 7160 H 651.808 0.730171 2.94792 0
M  V30 7161 H 649.393 0.422635 1.43297 0
M  V30 7162 H 651.275 -1.51676 3.93157 0
M  V30 7163 H 649.95 -1.70626 2.75079 0
M  V30 7164 H 648.857 0.398794 3.71968 0
M  V30 7165 H 650.19 0.50511 4.89601 0
M  V30 7166 N 651.842 -1.52309 0.404946 0
M  V30 7167 C 652.79 -2.28452 -0.437321 0
M  V30 7168 C 653.784 -1.32975 -1.04948 0
M  V30 7169 O 654.99 -1.50451 -0.988159 0
M  V30 7170 H 651.365 -0.734824 -0.159805 0
M  V30 7171 H 653.336 -2.97542 0.22615 0
M  V30 7172 C 652.085 -3.11536 -1.54404 0
M  V30 7173 H 651.408 -3.84871 -1.08233 0
M  V30 7174 H 652.848 -3.67926 -2.10729 0
M  V30 7175 C 651.307 -2.24833 -2.50902 0
M  V30 7176 O 651.837 -1.88574 -3.54687 0
M  V30 7177 N 650.043 -1.88685 -2.21012 0
M  V30 7178 H 649.59 -2.18371 -1.36646 0
M  V30 7179 H 649.548 -1.30966 -2.85824 0
M  V30 7180 N 653.32 -0.135238 -1.57019 0
M  V30 7181 C 654.253 0.846618 -2.11914 0
M  V30 7182 C 655.231 1.25019 -1.03966 0
M  V30 7183 O 656.415 1.34838 -1.31723 0
M  V30 7184 C 653.542 2.1352 -2.6292 0
M  V30 7185 C 652.588 1.87846 -3.82905 0
M  V30 7186 S 653.421 1.08005 -5.24495 0
M  V30 7187 C 654.577 2.38008 -5.78881 0
M  V30 7188 H 654.81 0.379752 -2.94865 0
M  V30 7189 H 652.343 0.0788387 -1.54199 0
M  V30 7190 H 654.301 2.87551 -2.92958 0
M  V30 7191 H 652.962 2.57323 -1.80121 0
M  V30 7192 H 652.155 2.83365 -4.16797 0
M  V30 7193 H 651.757 1.21929 -3.53567 0
M  V30 7194 H 654.049 3.33742 -5.89595 0
M  V30 7195 H 654.992 2.08638 -6.76665 0
M  V30 7196 H 655.4 2.48119 -5.07048 0
M  V30 7197 N 654.798 1.5699 0.138552 0
M  V30 7198 C 655.745 1.98899 1.17081 0
M  V30 7199 C 656.715 0.857922 1.42228 0
M  V30 7200 O 657.9 1.12065 1.54422 0
M  V30 7201 C 655.04 2.38189 2.4972 0
M  V30 7202 C 654.153 3.64624 2.31674 0
M  V30 7203 C 653.288 3.9298 3.57407 0
M  V30 7204 C 652.327 5.1266 3.34435 0
M  V30 7205 N 651.464 5.36983 4.5232 0
M  V30 7206 H 656.304 2.86881 0.80642 0
M  V30 7207 H 653.841 1.41925 0.386727 0
M  V30 7208 H 655.799 2.59 3.2707 0
M  V30 7209 H 654.429 1.53275 2.84089 0
M  V30 7210 H 653.481 3.51542 1.45337 0
M  V30 7211 H 654.793 4.52131 2.10664 0
M  V30 7212 H 653.947 4.14335 4.43183 0
M  V30 7213 H 652.686 3.03912 3.8143 0
M  V30 7214 H 651.691 4.9117 2.47048 0
M  V30 7215 H 652.916 6.03288 3.11802 0
M  V30 7216 H 650.862 4.50871 4.76499 0
M  V30 7217 H 650.779 6.18775 4.34343 0
M  V30 7218 H 652.047 5.62842 5.39285 0
M  V30 7219 N 656.276 -0.40816 1.52223 0
M  V30 7220 C 657.501 -1.18127 1.70472 0
M  V30 7221 C 657.926 -1.83491 0.41384 0
M  V30 7222 O 657.284 -1.70047 -0.628778 0
M  V30 7223 C 657.332 -2.21935 2.84213 0
M  V30 7224 O 656.436 -3.28099 2.4985 0
M  V30 7225 H 655.777 -0.344781 0.56747 0
M  V30 7226 H 658.307 -0.478328 1.9893 0
M  V30 7227 H 658.317 -2.66248 3.09153 0
M  V30 7228 H 656.992 -1.73744 3.7787 0
M  V30 7229 H 655.569 -2.89058 2.35584 0
M  V30 7230 N 657.755 -1.42862 -0.66545 0
M  V30 7231 C 658.705 -1.43521 -1.7716 0
M  V30 7232 C 659.689 -0.305267 -1.57978 0
M  V30 7233 O 660.881 -0.548176 -1.68297 0
M  V30 7234 C 658.01 -1.34914 -3.15679 0
M  V30 7235 C 657.096 -2.5289 -3.40452 0
M  V30 7236 N 657.487 -3.78284 -3.3576 0
M  V30 7237 C 655.785 -2.47351 -3.71124 0
M  V30 7238 C 656.486 -4.56701 -3.60276 0
M  V30 7239 N 655.462 -3.87249 -3.81496 0
M  V30 7240 H 659.264 -2.38357 -1.7194 0
M  V30 7241 H 656.778 -1.37342 -0.866653 0
M  V30 7242 H 658.775 -1.33468 -3.94958 0
M  V30 7243 H 657.435 -0.410881 -3.2209 0
M  V30 7244 H 658.446 -4.10746 -3.15448 0
M  V30 7245 H 655.123 -1.62152 -3.84725 0
M  V30 7246 H 656.513 -5.65704 -3.6253 0
M  V30 7247 N 659.233 0.902656 -1.29189 0
M  V30 7248 C 660.181 2.0278 -1.13943 0
M  V30 7249 C 661.175 1.69308 -0.055787 0
M  V30 7250 O 662.381 1.78707 -0.215371 0
M  V30 7251 H 658.756 0.664595 -0.351877 0
M  V30 7252 H 660.727 2.12778 -2.09208 0
M  V30 7253 C 659.476 3.37657 -0.82966 0
M  V30 7254 H 658.799 3.63913 -1.65551 0
M  V30 7255 H 660.239 4.17078 -0.762998 0
M  V30 7256 C 658.698 3.33648 0.466991 0
M  V30 7257 O 659.228 3.72886 1.49395 0
M  V30 7258 N 657.434 2.86745 0.471761 0
M  V30 7259 H 656.981 2.55009 -0.364406 0
M  V30 7260 H 656.939 2.84446 1.33933 0
M  V30 7261 N 660.711 1.11618 1.11262 0
M  V30 7262 C 661.621 0.78898 2.20935 0
M  V30 7263 C 662.637 -0.21867 1.7262 0
M  V30 7264 O 663.813 -0.0543826 2.01327 0
M  V30 7265 C 660.878 0.239014 3.45875 0
M  V30 7266 C 659.939 1.3055 4.08968 0
M  V30 7267 C 659.172 0.781687 5.27944 0
M  V30 7268 O 659.395 -0.387605 5.69082 0
M  V30 7269 O 658.329 1.54734 5.81671 0
M  V30 7270 H 662.155 1.70477 2.51339 0
M  V30 7271 H 659.74 0.892203 1.19834 0
M  V30 7272 H 661.622 -0.0632312 4.21353 0
M  V30 7273 H 660.297 -0.649454 3.17118 0
M  V30 7274 H 659.204 1.66079 3.35214 0
M  V30 7275 H 660.537 2.16743 4.41909 0
M  V30 7276 N 662.189 -1.289 0.906776 0
M  V30 7277 C 663.417 -1.99401 0.551969 0
M  V30 7278 C 663.832 -1.67816 -0.865048 0
M  V30 7279 O 663.189 -0.927078 -1.57199 0
M  V30 7280 C 663.24 -3.53779 0.743152 0
M  V30 7281 O 662.961 -3.84248 2.1044 0
M  V30 7282 C 664.462 -4.41543 0.39424 0
M  V30 7283 H 661.682 -0.636926 0.211106 0
M  V30 7284 H 664.226 -1.64266 1.21807 0
M  V30 7285 H 662.381 -3.87201 0.124143 0
M  V30 7286 H 662.795 -4.78904 2.13895 0
M  V30 7287 H 664.269 -5.48957 0.578814 0
M  V30 7288 H 664.746 -4.34073 -0.669137 0
M  V30 7289 H 665.352 -4.13605 0.990491 0
M  V30 7290 N 663.667 -0.670007 -1.42649 0
M  V30 7291 C 664.614 0.0112928 -2.30797 0
M  V30 7292 C 665.584 0.797627 -1.45695 0
M  V30 7293 O 666.769 0.770845 -1.74535 0
M  V30 7294 C 663.909 0.95998 -3.31479 0
M  V30 7295 C 663.022 0.167975 -4.31673 0
M  V30 7296 C 662.157 1.11198 -5.19431 0
M  V30 7297 C 661.196 0.311381 -6.11307 0
M  V30 7298 N 660.333 1.20784 -6.91633 0
M  V30 7299 H 665.173 -0.746231 -2.88505 0
M  V30 7300 H 662.71 -0.379739 -1.42114 0
M  V30 7301 H 664.668 1.52379 -3.88377 0
M  V30 7302 H 663.298 1.68419 -2.75382 0
M  V30 7303 H 662.35 -0.512385 -3.76933 0
M  V30 7304 H 663.662 -0.453814 -4.96731 0
M  V30 7305 H 662.816 1.74587 -5.81037 0
M  V30 7306 H 661.555 1.76766 -4.54538 0
M  V30 7307 H 660.56 -0.335758 -5.48774 0
M  V30 7308 H 661.785 -0.340135 -6.78248 0
M  V30 7309 H 659.731 1.85001 -6.29373 0
M  V30 7310 H 659.648 0.64102 -7.53277 0
M  V30 7311 H 660.916 1.82936 -7.5773 0
M  V30 7312 N 665.145 1.52092 -0.413018 0
M  V30 7313 C 666.055 2.30858 0.417318 0
M  V30 7314 C 667.071 1.38746 1.05003 0
M  V30 7315 O 668.247 1.71821 1.05069 0
M  V30 7316 C 665.312 3.11756 1.51687 0
M  V30 7317 C 664.373 4.19613 0.906825 0
M  V30 7318 C 663.606 4.96644 1.95399 0
M  V30 7319 O 663.829 4.7402 3.17271 0
M  V30 7320 O 662.763 5.81385 1.55805 0
M  V30 7321 H 666.589 3.02865 -0.225028 0
M  V30 7322 H 664.174 1.48358 -0.176126 0
M  V30 7323 H 666.056 3.62122 2.15512 0
M  V30 7324 H 664.731 2.42539 2.14375 0
M  V30 7325 H 663.638 3.73385 0.231183 0
M  V30 7326 H 664.971 4.91134 0.323814 0
M  V30 7327 N 666.623 0.143563 1.56945 0
M  V30 7328 C 667.869 -0.50916 1.96304 0
M  V30 7329 C 668.202 -1.64741 1.0283 0
M  V30 7330 O 667.477 -1.94374 0.0700361 0
M  V30 7331 C 667.76 -1.0186 3.45393 0
M  V30 7332 C 667.613 0.117923 4.49645 0
M  V30 7333 C 668.932 -1.90151 3.96901 0
M  V30 7334 H 666.051 -0.183608 0.713763 0
M  V30 7335 H 668.693 0.224095 1.88674 0
M  V30 7336 H 666.843 -1.64345 3.52027 0
M  V30 7337 H 668.515 0.754145 4.55094 0
M  V30 7338 H 666.758 0.777568 4.26774 0
M  V30 7339 H 667.429 -0.280187 5.51288 0
M  V30 7340 H 669.905 -1.375 3.92725 0
M  V30 7341 H 668.781 -2.22707 5.0169 0
M  V30 7342 H 669.042 -2.83718 3.39052 0
M  V30 7343 N 668.101 -1.57061 -0.130224 0
M  V30 7344 C 669.011 -2.02802 -1.17934 0
M  V30 7345 C 670.027 -0.946378 -1.46013 0
M  V30 7346 O 671.203 -1.25708 -1.57351 0
M  V30 7347 C 668.268 -2.41368 -2.48882 0
M  V30 7348 C 667.329 -3.63561 -2.28301 0
M  V30 7349 C 666.562 -4.00279 -3.53005 0
M  V30 7350 O 666.785 -3.37463 -4.59864 0
M  V30 7351 O 665.719 -4.93441 -3.44673 0
M  V30 7352 H 669.545 -2.92394 -0.820958 0
M  V30 7353 H 667.13 -1.45475 -0.340197 0
M  V30 7354 H 669.012 -2.66958 -3.26054 0
M  V30 7355 H 667.687 -1.54926 -2.84217 0
M  V30 7356 H 666.594 -3.43136 -1.49025 0
M  V30 7357 H 667.927 -4.50673 -1.97875 0
M  V30 7358 N 669.579 0.400081 -1.52437 0
M  V30 7359 C 670.856 1.15973 -1.57511 0
M  V30 7360 C 671.236 2.0798 -0.361572 0
M  V30 7361 O 670.584 2.19032 0.650929 0
M  V30 7362 C 670.794 1.92912 -2.90837 0
M  V30 7363 C 672.142 2.48662 -3.44169 0
M  V30 7364 O 673.166 2.03081 -2.92637 0
M  V30 7365 O 672.025 3.31894 -4.34176 0
M  V30 7366 H 669.119 0.530023 -0.634827 0
M  V30 7367 H 671.665 0.40613 -1.64769 0
M  V30 7368 H 670.437 1.25564 -3.70607 0
M  V30 7369 H 670.06 2.75257 -2.86913 0
M  V30 7370 N 671.057 1.43213 0.657864 0
M  V30 7371 C 672.334 1.35063 1.41483 0
M  V30 7372 C 672.714 -0.0038314 2.111 0
M  V30 7373 O 672.062 -1.02018 2.04462 0
M  V30 7374 C 672.272 2.53061 2.40335 0
M  V30 7375 C 673.62 2.9594 3.04474 0
M  V30 7376 O 674.644 2.53074 2.50663 0
M  V30 7377 O 673.503 3.70184 4.02027 0
M  V30 7378 H 670.597 0.533517 0.631893 0
M  V30 7379 H 673.143 1.55253 0.685162 0
M  V30 7380 H 671.915 3.43283 1.87809 0
M  V30 7381 H 671.538 2.34945 3.20759 0
M  V30 7382 N 672.536 -0.895792 1.29666 0
M  V30 7383 C 673.782 -1.64921 1.19049 0
M  V30 7384 C 674.137 -1.90707 -0.254678 0
M  V30 7385 O 673.43 -1.5092 -1.18041 0
M  V30 7386 C 673.624 -3.00075 1.94139 0
M  V30 7387 C 673.453 -2.87482 3.4581 0
M  V30 7388 C 672.223 -2.88041 4.15163 0
M  V30 7389 C 674.421 -2.64224 4.41237 0
M  V30 7390 N 672.403 -2.66226 5.5317 0
M  V30 7391 C 673.774 -2.51427 5.66732 0
M  V30 7392 C 675.829 -2.49362 4.30956 0
M  V30 7393 C 674.532 -2.25281 6.83111 0
M  V30 7394 C 676.558 -2.246 5.47091 0
M  V30 7395 C 675.92 -2.12571 6.7156 0
M  V30 7396 H 672.019 -0.608926 0.490646 0
M  V30 7397 H 674.603 -1.05648 1.63544 0
M  V30 7398 H 672.774 -3.574 1.52052 0
M  V30 7399 H 674.506 -3.64544 1.75754 0
M  V30 7400 H 671.261 -2.99471 3.66898 0
M  V30 7401 H 671.685 -2.58361 6.25762 0
M  V30 7402 H 676.327 -2.57403 3.35415 0
M  V30 7403 H 674.045 -2.15978 7.78704 0
M  V30 7404 H 677.631 -2.13939 5.41037 0
M  V30 7405 H 676.511 -1.93676 7.59907 0
M  V30 7406 N 674.014 -1.12206 -1.10668 0
M  V30 7407 C 674.961 -0.787716 -2.16942 0
M  V30 7408 C 675.931 0.244442 -1.64291 0
M  V30 7409 O 677.116 0.119558 -1.90425 0
M  V30 7410 C 674.256 -0.24584 -3.44223 0
M  V30 7411 C 673.369 -1.33552 -4.10838 0
M  V30 7412 C 672.504 -0.753337 -5.25831 0
M  V30 7413 C 671.543 -1.82231 -5.84344 0
M  V30 7414 N 670.68 -1.25902 -6.90719 0
M  V30 7415 H 675.52 -1.69809 -2.44885 0
M  V30 7416 H 673.057 -0.847862 -1.20207 0
M  V30 7417 H 675.015 0.0863639 -4.17111 0
M  V30 7418 H 673.645 0.627702 -3.16638 0
M  V30 7419 H 672.697 -1.78454 -3.35944 0
M  V30 7420 H 674.009 -2.14396 -4.50373 0
M  V30 7421 H 673.163 -0.37166 -6.05561 0
M  V30 7422 H 671.902 0.0863297 -4.87624 0
M  V30 7423 H 670.907 -2.2132 -5.03287 0
M  V30 7424 H 672.132 -2.66515 -6.24617 0
M  V30 7425 H 670.078 -0.44114 -6.54515 0
M  V30 7426 H 669.995 -2.00408 -7.28953 0
M  V30 7427 H 671.263 -0.904498 -7.74235 0
M  V30 7428 N 675.492 1.28418 -0.913599 0
M  V30 7429 C 676.722 1.98817 -0.56172 0
M  V30 7430 C 677.13 1.68457 0.861321 0
M  V30 7431 O 676.473 0.933653 1.58204 0
M  V30 7432 C 676.535 3.52801 -0.690785 0
M  V30 7433 C 676.199 4.0675 -2.08334 0
M  V30 7434 C 677.196 4.20597 -3.05604 0
M  V30 7435 C 674.881 4.41445 -2.39648 0
M  V30 7436 C 676.875 4.68392 -4.32305 0
M  V30 7437 C 674.562 4.88934 -3.66588 0
M  V30 7438 C 675.56 5.02364 -4.6273 0
M  V30 7439 O 675.248 5.48817 -5.87414 0
M  V30 7440 H 674.98 0.641608 -0.212874 0
M  V30 7441 H 677.534 1.64584 -1.22887 0
M  V30 7442 H 675.764 3.86686 0.0334336 0
M  V30 7443 H 677.453 4.04422 -0.346031 0
M  V30 7444 H 678.219 3.94067 -2.8273 0
M  V30 7445 H 674.098 4.30242 -1.65567 0
M  V30 7446 H 677.642 4.7879 -5.07352 0
M  V30 7447 H 673.539 5.14904 -3.89287 0
M  V30 7448 H 674.307 5.67103 -5.90201 0
M  V30 7449 N 676.97 0.677563 1.42291 0
M  V30 7450 C 678.216 0.201272 2.01799 0
M  V30 7451 C 678.549 -1.19004 1.53465 0
M  V30 7452 O 677.824 -1.79953 0.738039 0
M  V30 7453 C 678.107 0.238968 3.59306 0
M  V30 7454 C 677.96 1.66594 4.17812 0
M  V30 7455 C 679.279 -0.411287 4.38174 0
M  V30 7456 H 676.398 0.0746114 0.733214 0
M  V30 7457 H 679.04 0.862872 1.69276 0
M  V30 7458 H 677.19 -0.324368 3.87144 0
M  V30 7459 H 678.862 2.28173 4.00917 0
M  V30 7460 H 677.105 2.20576 3.73536 0
M  V30 7461 H 677.776 1.64398 5.26951 0
M  V30 7462 H 680.252 0.0682804 4.16044 0
M  V30 7463 H 679.128 -0.354286 5.47755 0
M  V30 7464 H 679.389 -1.4893 4.1626 0
M  V30 7465 N 678.448 -1.51871 0.421078 0
M  V30 7466 C 679.411 -2.25914 -0.386712 0
M  V30 7467 C 680.411 -1.28733 -0.963555 0
M  V30 7468 O 681.601 -1.52579 -0.840556 0
M  V30 7469 C 678.733 -3.03853 -1.54551 0
M  V30 7470 H 679.926 -2.98754 0.261978 0
M  V30 7471 H 677.479 -1.5533 0.173862 0
M  V30 7472 H 678.214 -2.35392 -2.23072 0
M  V30 7473 H 677.999 -3.75215 -1.13824 0
M  V30 7474 H 679.489 -3.59984 -2.11663 0
M  V30 7475 N 679.926 -0.151884 -1.56866 0
M  V30 7476 C 680.859 0.824094 -2.128 0
M  V30 7477 C 681.837 1.2391 -1.05286 0
M  V30 7478 O 683.021 1.33433 -1.33146 0
M  V30 7479 C 680.148 2.1072 -2.65169 0
M  V30 7480 C 679.194 1.83774 -3.84876 0
M  V30 7481 S 680.027 1.02436 -5.25611 0
M  V30 7482 C 681.183 2.31855 -5.81373 0
M  V30 7483 H 681.416 0.348456 -2.95251 0
M  V30 7484 H 678.949 0.0624794 -1.54274 0
M  V30 7485 H 680.907 2.84428 -2.95992 0
M  V30 7486 H 679.568 2.55398 -1.8284 0
M  V30 7487 H 678.761 2.78929 -4.19779 0
M  V30 7488 H 678.363 1.18172 -3.5484 0
M  V30 7489 H 680.655 3.27469 -5.93102 0
M  V30 7490 H 681.598 2.01449 -6.7884 0
M  V30 7491 H 682.006 2.42727 -5.09651 0
M  V30 7492 N 681.404 1.57128 0.121893 0
M  V30 7493 C 682.65 1.84974 0.831418 0
M  V30 7494 C 682.983 0.737204 1.79663 0
M  V30 7495 O 682.258 -0.257199 1.92792 0
M  V30 7496 C 682.541 3.23397 1.58386 0
M  V30 7497 C 682.394 4.45246 0.638445 0
M  V30 7498 C 683.713 3.59355 2.54071 0
M  V30 7499 H 680.832 0.67282 0.300803 0
M  V30 7500 H 683.474 1.89759 0.0957587 0
M  V30 7501 H 681.624 3.19449 2.21098 0
M  V30 7502 H 683.296 4.61295 0.0203925 0
M  V30 7503 H 681.539 4.33771 -0.05023 0
M  V30 7504 H 682.21 5.38765 1.20151 0
M  V30 7505 H 684.686 3.64075 2.01465 0
M  V30 7506 H 683.562 4.57193 3.03752 0
M  V30 7507 H 683.823 2.86622 3.36601 0
M  V30 7508 N 682.882 -0.391992 1.52647 0
M  V30 7509 C 684.128 -1.139 1.67793 0
M  V30 7510 C 684.461 -1.89711 0.41514 0
M  V30 7511 O 683.736 -1.85431 -0.586979 0
M  V30 7512 C 684.019 -2.11966 2.91105 0
M  V30 7513 C 683.872 -1.39939 4.27478 0
M  V30 7514 C 685.191 -3.1243 3.09961 0
M  V30 7515 H 682.31 -0.412707 0.610608 0
M  V30 7516 H 684.952 -0.422725 1.85238 0
M  V30 7517 H 683.102 -2.73048 2.76364 0
M  V30 7518 H 684.774 -0.818439 4.53982 0
M  V30 7519 H 683.017 -0.701246 4.28095 0
M  V30 7520 H 683.688 -2.1158 5.09841 0
M  V30 7521 H 686.164 -2.61435 3.23714 0
M  V30 7522 H 685.04 -3.78294 3.97725 0
M  V30 7523 H 685.301 -3.81127 2.24042 0
M  V30 7524 N 684.36 -1.4356 -0.65026 0
M  V30 7525 C 685.637 -1.35811 -1.40765 0
M  V30 7526 C 686.017 -0.00736379 -2.11099 0
M  V30 7527 O 685.365 1.00932 -2.05 0
M  V30 7528 C 685.575 -2.54332 -2.3899 0
M  V30 7529 C 686.923 -2.97551 -3.02901 0
M  V30 7530 O 687.947 -2.544 -2.49317 0
M  V30 7531 O 686.806 -3.72311 -4.00059 0
M  V30 7532 H 683.9 -0.536861 -0.629054 0
M  V30 7533 H 686.446 -1.55615 -0.676919 0
M  V30 7534 H 685.218 -3.44274 -1.85986 0
M  V30 7535 H 684.841 -2.36643 -3.19509 0
M  V30 7536 N 685.838 0.888903 -1.30139 0
M  V30 7537 C 687.254 1.17153 -1.08385 0
M  V30 7538 C 687.454 2.0088 0.157925 0
M  V30 7539 O 686.51 2.37668 0.852652 0
M  V30 7540 C 687.823 1.882 -2.34523 0
M  V30 7541 C 689.371 2.00981 -2.39949 0
M  V30 7542 C 689.846 2.75441 -3.65918 0
M  V30 7543 N 691.337 2.82989 -3.66704 0
M  V30 7544 C 692.072 3.41167 -4.60861 0
M  V30 7545 N 691.568 4.00425 -5.6536 0
M  V30 7546 N 693.361 3.38944 -4.48412 0
M  V30 7547 H 685.512 0.33053 -2.09812 0
M  V30 7548 H 687.775 0.208964 -0.924683 0
M  V30 7549 H 687.481 1.34119 -3.25123 0
M  V30 7550 H 687.355 2.88609 -2.42868 0
M  V30 7551 H 689.742 2.54234 -1.4983 0
M  V30 7552 H 689.823 0.996725 -2.35582 0
M  V30 7553 H 689.467 2.22861 -4.56394 0
M  V30 7554 H 689.397 3.77118 -3.67546 0
M  V30 7555 H 691.888 2.40912 -2.91153 0
M  V30 7556 H 692.201 4.42871 -6.33313 0
M  V30 7557 H 690.546 3.98856 -5.69157 0
M  V30 7558 H 693.737 2.91875 -3.6596 0
M  V30 7559 H 693.91 3.83989 -5.21974 0
M  V30 7560 N 687.317 1.12792 1.10072 0
M  V30 7561 C 688.563 0.886857 1.82381 0
M  V30 7562 C 688.896 -0.58576 1.85155 0
M  V30 7563 O 688.171 -1.43317 1.31493 0
M  V30 7564 C 688.454 1.46703 3.28862 0
M  V30 7565 C 688.307 3.00829 3.34398 0
M  V30 7566 C 689.626 1.12971 4.25353 0
M  V30 7567 H 686.745 0.32362 0.662148 0
M  V30 7568 H 689.387 1.39513 1.28982 0
M  V30 7569 H 687.537 1.03476 3.74466 0
M  V30 7570 H 689.209 3.52764 2.97247 0
M  V30 7571 H 687.452 3.36164 2.74183 0
M  V30 7572 H 688.123 3.36519 4.3756 0
M  V30 7573 H 690.599 1.50313 3.88001 0
M  V30 7574 H 689.475 1.56223 5.26199 0
M  V30 7575 H 689.736 0.0424452 4.4208 0
M  V30 7576 N 688.795 -1.27931 0.920396 0
M  V30 7577 C 690.042 -1.94689 0.557007 0
M  V30 7578 C 690.37 -1.724 -0.900476 0
M  V30 7579 O 689.625 -1.04194 -1.65657 0
M  V30 7580 C 689.924 -3.47853 0.820558 0
M  V30 7581 C 689.59 -3.90252 2.25863 0
M  V30 7582 C 688.252 -4.01539 2.65179 0
M  V30 7583 C 690.604 -4.11853 3.19415 0
M  V30 7584 C 687.932 -4.3181 3.97187 0
M  V30 7585 C 690.284 -4.43606 4.50995 0
M  V30 7586 C 688.948 -4.53105 4.90155 0
M  V30 7587 H 688.218 -0.712416 0.203823 0
M  V30 7588 H 690.865 -1.52142 1.16298 0
M  V30 7589 H 689.17 -3.91578 0.131844 0
M  V30 7590 H 690.867 -3.97634 0.51847 0
M  V30 7591 H 687.457 -3.81999 1.94358 0
M  V30 7592 H 691.641 -4.0258 2.90246 0
M  V30 7593 H 686.897 -4.37371 4.2722 0
M  V30 7594 H 691.071 -4.59268 5.23494 0
M  V30 7595 H 688.698 -4.76315 5.92476 0
M  V30 7596 N 690.273 -0.685099 -1.4193 0
M  V30 7597 C 691.203 -0.0273506 -2.33484 0
M  V30 7598 C 692.184 0.778366 -1.51246 0
M  V30 7599 O 693.369 0.733449 -1.79817 0
M  V30 7600 C 690.499 0.917272 -3.34968 0
M  V30 7601 C 689.453 0.21941 -4.27437 0
M  V30 7602 C 688.779 1.27768 -5.1921 0
M  V30 7603 C 690.079 -0.907894 -5.14349 0
M  V30 7604 H 691.773 -0.791994 -2.88735 0
M  V30 7605 H 689.319 -0.382308 -1.38832 0
M  V30 7606 H 691.272 1.38657 -3.97935 0
M  V30 7607 H 689.996 1.71346 -2.78043 0
M  V30 7608 H 688.655 -0.229757 -3.65879 0
M  V30 7609 H 688.303 2.06612 -4.58607 0
M  V30 7610 H 688.003 0.815803 -5.81909 0
M  V30 7611 H 689.527 1.7477 -5.85054 0
M  V30 7612 H 690.941 -0.519348 -5.70943 0
M  V30 7613 H 689.338 -1.2962 -5.85934 0
M  V30 7614 H 690.408 -1.75218 -4.52136 0
M  V30 7615 N 691.751 1.51645 -0.429126 0
M  V30 7616 C 692.997 2.02967 0.132584 0
M  V30 7617 C 693.352 1.30804 1.41096 0
M  V30 7618 O 692.645 0.411705 1.87124 0
M  V30 7619 C 692.839 3.54989 0.414472 0
M  V30 7620 C 692.668 4.41879 -0.83503 0
M  V30 7621 C 691.438 4.86482 -1.36614 0
M  V30 7622 C 693.636 4.84727 -1.71886 0
M  V30 7623 N 691.618 5.5756 -2.56904 0
M  V30 7624 C 692.989 5.54788 -2.76786 0
M  V30 7625 C 695.044 4.66721 -1.73425 0
M  V30 7626 C 693.747 6.08753 -3.8316 0
M  V30 7627 C 695.773 5.21597 -2.7873 0
M  V30 7628 C 695.135 5.91598 -3.8235 0
M  V30 7629 H 691.234 0.781942 0.00956367 0
M  V30 7630 H 693.818 1.8561 -0.587957 0
M  V30 7631 H 691.989 3.72378 1.10405 0
M  V30 7632 H 693.721 3.92982 0.966817 0
M  V30 7633 H 690.476 4.64553 -0.921255 0
M  V30 7634 H 690.9 5.97731 -3.17879 0
M  V30 7635 H 695.542 4.1207 -0.946467 0
M  V30 7636 H 693.26 6.62464 -4.62782 0
M  V30 7637 H 696.846 5.09522 -2.80853 0
M  V30 7638 H 695.726 6.33299 -4.62495 0
M  V30 7639 N 693.229 0.160201 1.56784 0
M  V30 7640 C 694.475 -0.48831 1.96833 0
M  V30 7641 C 694.808 -1.63641 1.04571 0
M  V30 7642 O 694.083 -1.94289 0.0906481 0
M  V30 7643 C 694.366 -0.981908 3.46454 0
M  V30 7644 C 694.219 0.165607 4.49495 0
M  V30 7645 C 695.538 -1.85931 3.98896 0
M  V30 7646 H 692.657 -0.176027 0.71567 0
M  V30 7647 H 695.299 0.244093 1.88426 0
M  V30 7648 H 693.449 -1.60602 3.5375 0
M  V30 7649 H 695.121 0.802372 4.54268 0
M  V30 7650 H 693.364 0.822789 4.25926 0
M  V30 7651 H 694.035 -0.221699 5.51555 0
M  V30 7652 H 696.511 -1.33327 3.94161 0
M  V30 7653 H 695.387 -2.17373 5.04024 0
M  V30 7654 H 695.648 -2.80106 3.42042 0
M  V30 7655 N 694.707 -1.5719 -0.113559 0
M  V30 7656 C 695.954 -1.85138 -0.820382 0
M  V30 7657 C 696.282 -0.74608 -1.79622 0
M  V30 7658 O 695.537 0.262077 -1.93937 0
M  V30 7659 C 695.836 -3.19593 -1.59984 0
M  V30 7660 C 695.502 -4.44315 -0.767809 0
M  V30 7661 C 694.164 -4.78179 -0.538379 0
M  V30 7662 C 696.516 -5.2086 -0.188203 0
M  V30 7663 C 693.844 -5.86028 0.28082 0
M  V30 7664 C 696.196 -6.29572 0.618217 0
M  V30 7665 C 694.86 -6.61964 0.857912 0
M  V30 7666 H 694.13 -0.677467 -0.300199 0
M  V30 7667 H 696.777 -1.91322 -0.0825443 0
M  V30 7668 H 695.082 -3.0901 -2.40874 0
M  V30 7669 H 696.779 -3.3844 -2.1508 0
M  V30 7670 H 693.369 -4.17786 -0.956724 0
M  V30 7671 H 697.553 -4.95045 -0.352658 0
M  V30 7672 H 692.809 -6.09547 0.475693 0
M  V30 7673 H 696.983 -6.88064 1.0743 0
M  V30 7674 H 694.61 -7.45365 1.49451 0
M  V30 7675 N 696.185 0.383891 -1.52853 0
M  V30 7676 C 697.434 1.12563 -1.67369 0
M  V30 7677 C 697.747 1.90982 -0.422533 0
M  V30 7678 O 698.953 2.6778 -0.447914 0
M  V30 7679 C 697.409 2.05011 -2.95801 0
M  V30 7680 C 697.017 1.31991 -4.28115 0
M  V30 7681 C 698.761 2.79289 -3.19684 0
M  V30 7682 C 696.668 2.23235 -5.4765 0
M  V30 7683 H 695.598 0.42391 -0.623552 0
M  V30 7684 H 698.249 0.388016 -1.79351 0
M  V30 7685 H 696.631 2.82429 -2.77578 0
M  V30 7686 H 697.805 0.597633 -4.56908 0
M  V30 7687 H 696.12 0.696517 -4.10533 0
M  V30 7688 H 698.717 3.47749 -4.06171 0
M  V30 7689 H 699.06 3.43649 -2.3497 0
M  V30 7690 H 699.593 2.08962 -3.38496 0
M  V30 7691 H 696.332 1.63482 -6.34786 0
M  V30 7692 H 695.852 2.93364 -5.23161 0
M  V30 7693 H 697.531 2.83205 -5.81725 0
M  V30 7694 N 697.663 1.43903 0.642637 0
M  V30 7695 C 698.912 1.45362 1.39831 0
M  V30 7696 C 699.225 0.0856289 1.95412 0
M  V30 7697 O 700.431 -0.0222856 2.71491 0
M  V30 7698 C 698.887 2.55857 2.53111 0
M  V30 7699 C 698.495 3.98811 2.04092 0
M  V30 7700 C 700.239 2.66524 3.30402 0
M  V30 7701 C 698.146 5.00751 3.14647 0
M  V30 7702 H 697.076 0.540777 0.52543 0
M  V30 7703 H 699.727 1.69929 0.692559 0
M  V30 7704 H 698.109 2.2451 3.26207 0
M  V30 7705 H 699.283 4.3967 1.37938 0
M  V30 7706 H 697.598 3.92284 1.39651 0
M  V30 7707 H 700.195 3.39858 4.12796 0
M  V30 7708 H 700.538 1.71949 3.79129 0
M  V30 7709 H 701.071 2.97224 2.64392 0
M  V30 7710 H 697.81 5.96914 2.70876 0
M  V30 7711 H 697.33 4.64495 3.79479 0
M  V30 7712 H 699.009 5.23933 3.79609 0
M  V30 7713 N 699.141 -0.881989 1.30609 0
M  V30 7714 C 700.387 -1.63647 1.19781 0
M  V30 7715 C 700.72 -1.92632 -0.246265 0
M  V30 7716 O 699.995 -1.54938 -1.17577 0
M  V30 7717 C 700.278 -2.97437 2.02985 0
M  V30 7718 C 700.131 -2.75406 3.55628 0
M  V30 7719 C 701.45 -3.98397 1.86997 0
M  V30 7720 H 698.569 -0.593841 0.436488 0
M  V30 7721 H 701.211 -1.02041 1.60273 0
M  V30 7722 H 699.361 -3.50018 1.68581 0
M  V30 7723 H 701.033 -2.2959 4.00107 0
M  V30 7724 H 699.276 -2.09856 3.79662 0
M  V30 7725 H 699.947 -3.70552 4.09139 0
M  V30 7726 H 702.423 -3.54986 2.17081 0
M  V30 7727 H 701.299 -4.89916 2.47536 0
M  V30 7728 H 701.56 -4.3424 0.829943 0
M  V30 7729 N 700.619 -1.13374 -1.09472 0
M  V30 7730 C 701.859 -0.905422 -1.83252 0
M  V30 7731 C 702.223 0.558396 -1.83701 0
M  V30 7732 O 703.424 0.904254 -2.53134 0
M  V30 7733 C 701.695 -1.47658 -3.25472 0
M  V30 7734 S 703.254 -1.38825 -4.16261 0
M  V30 7735 H 700.072 -0.326371 -0.631667 0
M  V30 7736 H 702.674 -1.44517 -1.31663 0
M  V30 7737 H 701.378 -2.53533 -3.22722 0
M  V30 7738 H 700.909 -0.934756 -3.82133 0
M  V30 7739 H 702.924 -0.366379 -4.94846 0
M  V30 7740 N 702.098 1.27442 -0.927168 0
M  V30 7741 C 703.344 1.94679 -0.568164 0
M  V30 7742 C 703.677 1.72697 0.888219 0
M  V30 7743 O 702.952 1.05573 1.63354 0
M  V30 7744 C 703.235 3.4882 -0.894253 0
M  V30 7745 C 703.088 3.80146 -2.40435 0
M  V30 7746 C 704.407 4.38281 -0.399766 0
M  V30 7747 H 701.526 0.707071 -0.207892 0
M  V30 7748 H 704.168 1.50568 -1.15885 0
M  V30 7749 H 702.318 3.86522 -0.391566 0
M  V30 7750 H 703.99 3.52238 -2.97869 0
M  V30 7751 H 702.233 3.26716 -2.85375 0
M  V30 7752 H 702.904 4.87835 -2.58304 0
M  V30 7753 H 705.38 4.07726 -0.83058 0
M  V30 7754 H 704.256 5.44955 -0.656885 0
M  V30 7755 H 704.517 4.36521 0.700153 0
M  V30 7756 N 703.576 0.692616 1.41565 0
M  V30 7757 C 704.823 0.222335 2.01276 0
M  V30 7758 C 705.151 -1.17706 1.5484 0
M  V30 7759 O 704.406 -1.80795 0.749118 0
M  V30 7760 C 704.705 0.225073 3.56691 0
M  V30 7761 C 704.371 1.57158 4.22625 0
M  V30 7762 C 703.033 1.94022 4.40351 0
M  V30 7763 C 705.385 2.45758 4.59622 0
M  V30 7764 C 702.713 3.19076 4.92349 0
M  V30 7765 C 705.065 3.70141 5.13009 0
M  V30 7766 C 703.729 4.07152 5.28946 0
M  V30 7767 H 702.999 0.0813581 0.73652 0
M  V30 7768 H 705.646 0.891123 1.69503 0
M  V30 7769 H 703.951 -0.527259 3.88236 0
M  V30 7770 H 705.648 -0.156283 4.00695 0
M  V30 7771 H 702.238 1.27486 4.09201 0
M  V30 7772 H 706.422 2.18558 4.45585 0
M  V30 7773 H 701.678 3.4775 5.02872 0
M  V30 7774 H 705.852 4.38983 5.40617 0
M  V30 7775 H 703.479 5.04125 5.69001 0
M  V30 7776 N 705.054 -1.51416 0.437162 0
M  V30 7777 C 706.302 -2.01687 -0.129108 0
M  V30 7778 C 706.623 -1.32329 -1.43227 0
M  V30 7779 O 705.893 -0.457796 -1.90476 0
M  V30 7780 H 704.473 -0.745277 -0.0507023 0
M  V30 7781 H 707.135 -1.86075 0.579828 0
M  V30 7782 H 706.231 -3.10605 -0.305141 0
M  V30 7783 N 706.532 -0.168513 -1.56696 0
M  V30 7784 C 707.76 0.483503 -2.01171 0
M  V30 7785 C 708.175 1.56994 -1.04872 0
M  V30 7786 O 707.532 1.82434 -0.0491337 0
M  V30 7787 C 707.583 1.0644 -3.45475 0
M  V30 7788 O 707.304 0.0213375 -4.38095 0
M  V30 7789 C 708.805 1.79493 -4.05336 0
M  V30 7790 H 706.025 0.124002 -0.659443 0
M  V30 7791 H 708.569 -0.269419 -2.02717 0
M  V30 7792 H 706.724 1.76784 -3.44712 0
M  V30 7793 H 707.138 0.449837 -5.22567 0
M  V30 7794 H 708.612 2.15401 -5.08238 0
M  V30 7795 H 709.089 2.68889 -3.47269 0
M  V30 7796 H 709.695 1.13798 -4.09793 0
M  V30 7797 N 708.01 1.57248 0.105221 0
M  V30 7798 C 708.973 2.00388 1.11252 0
M  V30 7799 C 709.973 0.89594 1.33527 0
M  V30 7800 O 711.163 1.16166 1.29811 0
M  V30 7801 C 708.295 2.35589 2.46395 0
M  V30 7802 H 709.488 2.90591 0.741424 0
M  V30 7803 H 707.041 1.52332 0.349956 0
M  V30 7804 H 707.776 1.4831 2.884 0
M  V30 7805 H 707.561 3.16408 2.31578 0
M  V30 7806 H 709.051 2.69658 3.18864 0
M  V30 7807 N 709.488 -0.375779 1.53054 0
M  V30 7808 C 710.736 -1.11727 1.68409 0
M  V30 7809 C 711.057 -1.90127 0.43323 0
M  V30 7810 O 710.327 -1.87945 -0.552595 0
M  V30 7811 H 708.907 -0.415451 0.620813 0
M  V30 7812 H 711.569 -0.424869 1.90213 0
M  V30 7813 H 710.665 -1.8128 2.54055 0
M  V30 7814 N 710.966 -1.44241 -0.634997 0
M  V30 7815 C 711.896 -1.53632 -1.7584 0
M  V30 7816 C 712.877 -0.389603 -1.65578 0
M  V30 7817 O 714.062 -0.609219 -1.84397 0
M  V30 7818 C 711.192 -1.47644 -3.14354 0
M  V30 7819 C 710.146 -2.60752 -3.394 0
M  V30 7820 C 709.472 -2.39817 -4.77904 0
M  V30 7821 C 710.772 -4.02921 -3.32343 0
M  V30 7822 H 712.466 -2.47662 -1.68238 0
M  V30 7823 H 710.012 -1.19197 -0.807969 0
M  V30 7824 H 711.965 -1.52815 -3.92716 0
M  V30 7825 H 710.689 -0.501284 -3.2273 0
M  V30 7826 H 709.348 -2.54965 -2.63417 0
M  V30 7827 H 708.996 -1.40502 -4.82978 0
M  V30 7828 H 708.696 -3.15649 -4.9562 0
M  V30 7829 H 710.22 -2.46799 -5.585 0
M  V30 7830 H 711.634 -4.10098 -4.00615 0
M  V30 7831 H 710.031 -4.78925 -3.61595 0
M  V30 7832 H 711.101 -4.26766 -2.30215 0
M  V30 7833 N 712.444 0.87505 -1.31075 0
M  V30 7834 C 713.691 1.62768 -1.20469 0
M  V30 7835 C 714.019 1.93034 0.23834 0
M  V30 7836 O 713.274 1.55693 1.18567 0
M  V30 7837 C 713.573 2.96948 -1.98888 0
M  V30 7838 C 713.239 2.86195 -3.4843 0
M  V30 7839 C 711.901 2.82969 -3.89207 0
M  V30 7840 C 714.253 2.73599 -4.43614 0
M  V30 7841 C 711.581 2.64999 -5.23443 0
M  V30 7842 C 713.933 2.57166 -5.77969 0
M  V30 7843 C 712.597 2.52321 -6.17973 0
M  V30 7844 H 711.867 0.595611 -0.440827 0
M  V30 7845 H 714.514 1.01665 -1.62285 0
M  V30 7846 H 712.819 3.62058 -1.49737 0
M  V30 7847 H 714.516 3.54164 -1.88067 0
M  V30 7848 H 711.106 2.8952 -3.16032 0
M  V30 7849 H 715.29 2.7515 -4.13045 0
M  V30 7850 H 710.546 2.5967 -5.53517 0
M  V30 7851 H 714.72 2.46396 -6.51354 0
M  V30 7852 H 712.347 2.38156 -7.21932 0
M  V30 7853 N 713.922 1.13953 1.08869 0
M  V30 7854 C 714.852 0.844824 2.17681 0
M  V30 7855 C 715.833 -0.198213 1.68941 0
M  V30 7856 O 717.018 -0.0559073 1.9412 0
M  V30 7857 C 714.148 0.316325 3.45856 0
M  V30 7858 C 713.102 1.29426 4.07962 0
M  V30 7859 C 712.428 0.625275 5.31031 0
M  V30 7860 C 713.728 2.65484 4.49795 0
M  V30 7861 H 715.422 1.75471 2.42591 0
M  V30 7862 H 712.968 0.845116 1.16592 0
M  V30 7863 H 714.921 0.0977876 4.21287 0
M  V30 7864 H 713.645 -0.628972 3.20486 0
M  V30 7865 H 712.304 1.49889 3.34558 0
M  V30 7866 H 711.952 -0.325678 5.01945 0
M  V30 7867 H 711.652 1.27777 5.73539 0
M  V30 7868 H 713.176 0.416152 6.0918 0
M  V30 7869 H 714.59 2.48957 5.16424 0
M  V30 7870 H 712.987 3.26963 5.03205 0
M  V30 7871 H 714.057 3.22717 3.61914 0
M  V30 7872 N 715.4 -1.26948 0.933913 0
M  V30 7873 C 716.332 -2.25768 0.395137 0
M  V30 7874 C 717.345 -1.55637 -0.477585 0
M  V30 7875 O 718.534 -1.76142 -0.289204 0
M  V30 7876 C 715.634 -3.35874 -0.451882 0
M  V30 7877 C 714.807 -4.3554 0.40299 0
M  V30 7878 C 713.866 -5.24809 -0.3824 0
M  V30 7879 O 712.892 -5.68805 0.212057 0
M  V30 7880 N 714.094 -5.55636 -1.68072 0
M  V30 7881 H 716.859 -2.72634 1.24463 0
M  V30 7882 H 714.42 -1.40639 0.802008 0
M  V30 7883 H 716.412 -3.92542 -0.984516 0
M  V30 7884 H 714.982 -2.8856 -1.20215 0
M  V30 7885 H 714.202 -3.78047 1.11688 0
M  V30 7886 H 715.49 -4.99131 0.987201 0
M  V30 7887 H 714.888 -5.2176 -2.18592 0
M  V30 7888 H 713.445 -6.14978 -2.15975 0
M  V30 7889 N 716.879 -0.700114 -1.41195 0
M  V30 7890 C 718.29 -0.307249 -1.84154 0
M  V30 7891 C 718.641 1.15539 -1.58572 0
M  V30 7892 O 717.766 1.88744 -1.05852 0
M  V30 7893 C 718.361 -0.550872 -3.34292 0
M  V30 7894 C 716.92 -0.211877 -3.75803 0
M  V30 7895 C 716.067 -0.830915 -2.64558 0
M  V30 7896 H 719.018 -0.900431 -1.30683 0
M  V30 7897 H 719.039 0.188954 -3.80031 0
M  V30 7898 H 718.551 -1.61548 -3.5288 0
M  V30 7899 H 716.652 0.848283 -3.62815 0
M  V30 7900 H 716.765 -0.67007 -4.74391 0
M  V30 7901 H 715.129 -0.260155 -2.53368 0
M  V30 7902 H 715.912 -1.89948 -2.85963 0
M  V30 7903 N 718.357 1.51182 -0.445186 0
M  V30 7904 C 719.287 2.30821 0.352686 0
M  V30 7905 C 720.268 1.36576 1.01395 0
M  V30 7906 O 721.453 1.65497 1.01609 0
M  V30 7907 C 718.583 3.15593 1.44976 0
M  V30 7908 C 717.537 4.1818 0.911553 0
M  V30 7909 C 716.863 4.91523 2.10497 0
M  V30 7910 C 718.163 5.22266 -0.059418 0
M  V30 7911 H 719.857 2.97771 -0.311936 0
M  V30 7912 H 717.403 1.43201 -0.151461 0
M  V30 7913 H 719.356 3.70091 2.01521 0
M  V30 7914 H 718.08 2.4648 2.14278 0
M  V30 7915 H 716.739 3.64746 0.368264 0
M  V30 7916 H 716.387 4.18906 2.78437 0
M  V30 7917 H 716.087 5.60898 1.7512 0
M  V30 7918 H 717.611 5.48847 2.6758 0
M  V30 7919 H 719.025 5.71789 0.415985 0
M  V30 7920 H 717.422 5.99213 -0.326152 0
M  V30 7921 H 718.492 4.7461 -0.993631 0
M  V30 7922 N 719.835 0.176821 1.56605 0
M  V30 7923 C 720.765 -0.746841 2.21234 0
M  V30 7924 C 721.746 -1.23502 1.16967 0
M  V30 7925 O 722.931 -1.28718 1.45414 0
M  V30 7926 C 720.061 -1.97407 2.8574 0
M  V30 7927 C 719.015 -1.62153 3.96094 0
M  V30 7928 C 718.341 -2.92387 4.47676 0
M  V30 7929 C 719.641 -0.845353 5.15413 0
M  V30 7930 H 721.335 -0.208116 2.98676 0
M  V30 7931 H 718.881 -0.0986594 1.43662 0
M  V30 7932 H 720.834 -2.62531 3.2963 0
M  V30 7933 H 719.558 -2.53703 2.05676 0
M  V30 7934 H 718.217 -0.993964 3.52868 0
M  V30 7935 H 717.865 -3.46734 3.64396 0
M  V30 7936 H 717.565 -2.69551 5.22127 0
M  V30 7937 H 719.089 -3.5853 4.94255 0
M  V30 7938 H 720.503 -1.39929 5.55961 0
M  V30 7939 H 718.9 -0.715814 5.95815 0
M  V30 7940 H 719.97 0.157239 4.84645 0
M  V30 7941 N 721.313 -1.57302 -0.09688 0
M  V30 7942 C 722.561 -1.8563 -0.799117 0
M  V30 7943 C 722.882 -0.765263 -1.79356 0
M  V30 7944 O 722.152 0.208657 -1.94786 0
M  V30 7945 H 720.732 -0.684937 -0.298111 0
M  V30 7946 H 723.394 -1.9474 -0.0789341 0
M  V30 7947 H 722.49 -2.82305 -1.3308 0
M  V30 7948 N 722.791 0.367657 -1.53252 0
M  V30 7949 C 723.739 1.47061 -1.8021 0
M  V30 7950 C 724.733 1.55539 -0.671112 0
M  V30 7951 O 725.939 1.58451 -0.854014 0
M  V30 7952 H 722.314 0.489868 -0.570555 0
M  V30 7953 H 724.285 1.21527 -2.72532 0
M  V30 7954 C 723.034 2.83924 -2.00706 0
M  V30 7955 H 722.357 2.78158 -2.87172 0
M  V30 7956 H 723.797 3.60281 -2.23547 0
M  V30 7957 C 722.256 3.27613 -0.785568 0
M  V30 7958 O 722.786 4.01691 0.0267459 0
M  V30 7959 N 720.992 2.84134 -0.609597 0
M  V30 7960 H 720.539 2.24017 -1.27178 0
M  V30 7961 H 720.497 3.13723 0.206281 0
M  V30 7962 N 724.269 1.44576 0.627338 0
M  V30 7963 C 725.497 1.51048 1.41394 0
M  V30 7964 C 725.912 0.136568 1.88305 0
M  V30 7965 O 725.269 -0.858251 1.6106 0
M  V30 7966 C 725.32 2.47837 2.63172 0
M  V30 7967 O 725.041 3.79887 2.18215 0
M  V30 7968 C 726.542 2.63811 3.56257 0
M  V30 7969 H 723.762 0.512171 0.4335 0
M  V30 7970 H 726.306 1.89576 0.766878 0
M  V30 7971 H 724.461 2.12433 3.23961 0
M  V30 7972 H 724.875 4.32177 2.97192 0
M  V30 7973 H 726.349 3.35554 4.38301 0
M  V30 7974 H 726.826 1.69169 4.05313 0
M  V30 7975 H 727.432 3.0013 3.01333 0
M  V30 7976 N 725.747 -0.868086 1.31537 0
M  V30 7977 C 726.995 -1.61807 1.21091 0
M  V30 7978 C 727.316 -1.93631 -0.230623 0
M  V30 7979 O 726.586 -1.5846 -1.15183 0
M  V30 7980 H 725.166 -0.599854 0.445178 0
M  V30 7981 H 727.828 -1.03915 1.64887 0
M  V30 7982 H 726.924 -2.56088 1.78396 0
M  V30 7983 N 727.225 -1.14528 -1.08264 0
M  V30 7984 C 728.172 -0.833556 -2.15222 0
M  V30 7985 C 729.142 0.209539 -1.64773 0
M  V30 7986 O 730.327 0.0791388 -1.90636 0
M  V30 7987 C 727.467 -0.318799 -3.43624 0
M  V30 7988 C 726.58 -1.42237 -4.07913 0
M  V30 7989 C 725.715 -0.864704 -5.24115 0
M  V30 7990 C 724.754 -1.94585 -5.80347 0
M  V30 7991 N 723.891 -1.40525 -6.87893 0
M  V30 7992 H 728.731 -1.74965 -2.41228 0
M  V30 7993 H 726.268 -0.873169 -1.18381 0
M  V30 7994 H 728.226 -0.00213088 -4.172 0
M  V30 7995 H 726.856 0.560397 -3.17898 0
M  V30 7996 H 725.908 -1.8554 -3.32083 0
M  V30 7997 H 727.22 -2.23901 -4.45724 0
M  V30 7998 H 726.374 -0.500025 -6.04636 0
M  V30 7999 H 725.113 -0.0171219 -4.87697 0
M  V30 8000 H 724.118 -2.31946 -4.98479 0
M  V30 8001 H 725.343 -2.79704 -6.18823 0
M  V30 8002 H 723.289 -0.579873 -6.53432 0
M  V30 8003 H 723.206 -2.15825 -7.24538 0
M  V30 8004 H 724.474 -1.06852 -7.72142 0
M  V30 8005 N 728.703 1.26451 -0.940633 0
M  V30 8006 C 729.928 1.98407 -0.60412 0
M  V30 8007 C 730.353 1.69584 0.81382 0
M  V30 8008 O 729.711 0.943553 1.54812 0
M  V30 8009 C 729.759 3.50387 -0.852136 0
M  V30 8010 O 728.863 4.1233 0.076013 0
M  V30 8011 H 728.204 0.622466 -0.231153 0
M  V30 8012 H 730.734 1.60932 -1.26342 0
M  V30 8013 H 730.744 4.00614 -0.772816 0
M  V30 8014 H 729.419 3.70696 -1.88566 0
M  V30 8015 H 727.996 3.7286 -0.0543187 0
M  V30 8016 O 730.22 0.846016 1.37567 0
M  V30 8017 H 730.911 0.436618 1.88715 0
M  V30 END ATOM
M  V30 BEGIN BOND
M  V30 END BOND
M  V30 END CTAB
M  END
$$$$
