drugbank_target|Q15904 V-type proton ATPase subunit S1 (DB01133)
 OpenBabel12092121233D

  0  0  0     0  0            999 V3000
M  V30 BEGIN CTAB
M  V30 COUNTS 7322 7419 0 0 0
M  V30 BEGIN ATOM
M  V30 1 H -0.908 1.98254 -0.117106 0
M  V30 2 N 0 1.576 0 0
M  V30 3 C 0.933 2.03868 1.02534 0
M  V30 4 C 1.911 0.928543 1.3348 0
M  V30 5 O 3.095 1.19667 1.45644 0
M  V30 6 C 0.222 2.43627 2.35294 0
M  V30 7 C -0.732 3.65373 2.2001 0
M  V30 8 S 0.101 5.13292 1.52614 0
M  V30 9 C 1.257 5.56322 2.86805 0
M  V30 10 H 1.49 2.90518 0.631377 0
M  V30 11 H -0.977 1.52953 0.210867 0
M  V30 12 H 0.981 2.67203 3.11629 0
M  V30 13 H -0.358 1.57376 2.7183 0
M  V30 14 H -1.165 3.90944 3.18086 0
M  V30 15 H -1.563 3.418 1.51819 0
M  V30 16 H 0.729 5.58782 3.83104 0
M  V30 17 H 1.672 6.56266 2.65933 0
M  V30 18 H 2.08 4.83886 2.90714 0
M  V30 19 N 1.4781 -0.272755 1.55222 0
M  V30 20 C 2.4111 -1.3627 1.83046 0
M  V30 21 C 3.3891 -1.47536 0.683521 0
M  V30 22 O 4.5731 -1.64157 0.926545 0
M  V30 23 C 1.7001 -2.73908 1.99229 0
M  V30 24 C 0.7461 -2.79925 3.21783 0
M  V30 25 S 1.5791 -2.39146 4.79134 0
M  V30 26 C 2.7351 -3.78758 4.9829 0
M  V30 27 H 2.9681 -1.12464 2.75207 0
M  V30 28 H 0.5011 -0.472398 1.46996 0
M  V30 29 H 2.4591 -3.53171 2.09238 0
M  V30 30 H 1.1201 -2.94965 1.07956 0
M  V30 31 H 0.3131 -3.80946 3.29994 0
M  V30 32 H -0.0849 -2.08683 3.10367 0
M  V30 33 H 2.2071 -4.7403 4.84047 0
M  V30 34 H 3.1501 -3.75499 6.00338 0
M  V30 35 H 3.5581 -3.70072 4.26271 0
M  V30 36 N 2.9562 -1.48159 -0.537278 0
M  V30 37 C 3.9192 -1.61665 -1.62472 0
M  V30 38 C 4.9192 -0.490395 -1.5314 0
M  V30 39 O 6.1092 -0.755998 -1.5694 0
M  V30 40 C 3.2412 -1.57997 -3.02076 0
M  V30 41 H 4.4342 -2.58621 -1.51839 0
M  V30 42 H 1.9872 -1.36647 -0.758771 0
M  V30 43 H 2.7222 -0.624913 -3.18222 0
M  V30 44 H 2.5072 -2.39755 -3.10258 0
M  V30 45 H 3.9972 -1.70627 -3.81151 0
M  V30 46 N 4.4343 0.785586 -1.36625 0
M  V30 47 C 5.3973 1.87999 -1.31107 0
M  V30 48 C 6.3973 1.59316 -0.217959 0
M  V30 49 O 7.5873 1.67656 -0.472977 0
M  V30 50 C 4.7193 3.24861 -1.03334 0
M  V30 51 H 5.9123 1.94307 -2.2844 0
M  V30 52 H 3.4653 0.983813 -1.21453 0
M  V30 53 H 4.2003 3.24235 -0.0647432 0
M  V30 54 H 3.9853 3.4707 -1.82441 0
M  V30 55 H 5.4753 4.04929 -1.02088 0
M  V30 56 N 5.9124 1.20967 1.01018 0
M  V30 57 C 6.8454 0.907578 2.09376 0
M  V30 58 C 7.8234 -0.142868 1.61971 0
M  V30 59 O 9.0074 -0.0150391 1.88494 0
M  V30 60 C 6.1344 0.361791 3.36762 0
M  V30 61 C 5.1804 1.39423 4.03068 0
M  V30 62 S 6.0134 2.96159 4.4615 0
M  V30 63 C 7.1694 2.43173 5.7673 0
M  V30 64 H 7.4024 1.82519 2.34678 0
M  V30 65 H 4.9354 1.03884 1.14225 0
M  V30 66 H 6.8934 0.0534523 4.10465 0
M  V30 67 H 5.5544 -0.53443 3.0952 0
M  V30 68 H 4.7474 0.961853 4.94737 0
M  V30 69 H 4.3494 1.65038 3.35617 0
M  V30 70 H 6.6414 1.83335 6.52223 0
M  V30 71 H 7.5844 3.33264 6.24773 0
M  V30 72 H 7.9924 1.85069 5.33301 0
M  V30 73 N 7.3905 -1.2043 1.01659 0
M  V30 74 C 8.3535 -2.21433 0.591616 0
M  V30 75 C 9.3535 -1.57203 -0.338226 0
M  V30 76 O 10.5435 -1.73737 -0.126918 0
M  V30 77 C 7.6755 -3.40628 -0.136058 0
M  V30 78 H 8.8685 -2.60545 1.48514 0
M  V30 79 H 6.4215 -1.33893 0.806379 0
M  V30 80 H 7.1565 -3.07019 -1.04449 0
M  V30 81 H 6.9415 -3.88475 0.531917 0
M  V30 82 H 8.4315 -4.15475 -0.420735 0
M  V30 83 N 8.8686 -0.792821 -1.36206 0
M  V30 84 C 10.0966 -0.378825 -2.03402 0
M  V30 85 C 10.5116 1.00586 -1.59774 0
M  V30 86 O 9.8686 1.64574 -0.788764 0
M  V30 87 C 9.9196 -0.43683 -3.58851 0
M  V30 88 O 9.6406 -1.76691 -4.00889 0
M  V30 89 C 11.1416 -0.0138943 -4.43298 0
M  V30 90 H 8.3616 -0.155673 -0.652692 0
M  V30 91 H 10.9056 -1.07261 -1.74113 0
M  V30 92 H 9.0606 0.208575 -3.86838 0
M  V30 93 H 9.4746 -1.72011 -4.95492 0
M  V30 94 H 10.9486 -0.105615 -5.51899 0
M  V30 95 H 11.4256 1.03915 -4.2673 0
M  V30 96 H 12.0316 -0.63192 -4.20579 0
M  V30 97 N 10.3467 1.47872 -0.545128 0
M  V30 98 C 11.3097 2.28337 0.198717 0
M  V30 99 C 12.3097 1.36255 0.853888 0
M  V30 100 O 13.4997 1.59003 0.711606 0
M  V30 101 C 10.6317 3.15585 1.28915 0
M  V30 102 H 11.8247 2.95567 -0.507941 0
M  V30 103 H 9.3777 1.53362 -0.301616 0
M  V30 104 H 10.1127 2.53019 2.02859 0
M  V30 105 H 9.8977 3.83337 0.824309 0
M  V30 106 H 11.3877 3.76243 1.81194 0
M  V30 107 N 11.8248 0.280983 1.55075 0
M  V30 108 C 13.2408 -0.0729964 1.59433 0
M  V30 109 C 13.4408 -1.5411 1.29817 0
M  V30 110 O 12.4968 -2.29086 1.06187 0
M  V30 111 C 13.8098 0.306921 2.9913 0
M  V30 112 C 15.3578 0.254023 3.11968 0
M  V30 113 C 15.8328 0.608467 4.5394 0
M  V30 114 N 17.3238 0.560241 4.59799 0
M  V30 115 C 18.0588 0.80722 5.6769 0
M  V30 116 N 17.5548 1.11912 6.83701 0
M  V30 117 N 19.3478 0.735623 5.57266 0
M  V30 118 H 11.4988 1.238 1.7259 0
M  V30 119 H 13.7618 0.500547 0.805082 0
M  V30 120 H 13.4678 1.32816 3.25657 0
M  V30 121 H 13.3418 -0.349363 3.75579 0
M  V30 122 H 15.7288 -0.75794 2.852 0
M  V30 123 H 15.8098 0.944649 2.37718 0
M  V30 124 H 15.4538 1.61814 4.81434 0
M  V30 125 H 15.3838 -0.104013 5.26497 0
M  V30 126 H 17.8748 0.329288 3.76463 0
M  V30 127 H 18.1878 1.29409 7.61888 0
M  V30 128 H 16.5328 1.15695 6.85303 0
M  V30 129 H 19.7238 0.491752 4.6551 0
M  V30 130 H 19.8968 0.931482 6.4127 0
M  V30 131 N 13.3029 -1.57598 0.00835791 0
M  V30 132 C 14.5489 -1.91211 -0.675732 0
M  V30 133 C 14.8819 -0.883139 -1.72958 0
M  V30 134 O 14.1569 0.097016 -1.94258 0
M  V30 135 C 14.4399 -3.35379 -1.31123 0
M  V30 136 C 14.2929 -4.48999 -0.268356 0
M  V30 137 C 15.6119 -3.7912 -2.23508 0
M  V30 138 H 12.7309 -0.695374 -0.244179 0
M  V30 139 H 15.3729 -1.89901 0.0613655 0
M  V30 140 H 13.5229 -3.36626 -1.93946 0
M  V30 141 H 15.1949 -4.59887 0.360844 0
M  V30 142 H 13.4379 -4.31873 0.408482 0
M  V30 143 H 14.1089 -5.46851 -0.752218 0
M  V30 144 H 16.5849 -3.79477 -1.70693 0
M  V30 145 H 15.4609 -4.80729 -2.64936 0
M  V30 146 H 15.7219 -3.13455 -3.11766 0
M  V30 147 N 14.781 0.264519 -1.55364 0
M  V30 148 C 16.197 0.61215 -1.47394 0
M  V30 149 C 16.397 1.89134 -0.695018 0
M  V30 150 O 15.453 2.51563 -0.217275 0
M  V30 151 C 16.766 0.731235 -2.91674 0
M  V30 152 C 18.314 0.82473 -3.01939 0
M  V30 153 C 18.789 0.975522 -4.4749 0
M  V30 154 N 20.28 1.04083 -4.51354 0
M  V30 155 C 21.015 1.17646 -5.61201 0
M  V30 156 N 20.511 1.27874 -6.80896 0
M  V30 157 N 22.304 1.20823 -5.48961 0
M  V30 158 H 14.455 -0.575456 -2.04456 0
M  V30 159 H 16.718 -0.196099 -0.927496 0
M  V30 160 H 16.424 -0.138392 -3.51428 0
M  V30 161 H 16.298 1.60883 -3.41169 0
M  V30 162 H 18.685 1.68482 -2.42276 0
M  V30 163 H 18.766 -0.0776479 -2.55682 0
M  V30 164 H 18.41 0.120058 -5.07758 0
M  V30 165 H 18.34 1.89268 -4.91412 0
M  V30 166 H 20.831 0.973846 -3.65136 0
M  V30 167 H 21.144 1.38081 -7.60364 0
M  V30 168 H 19.489 1.24863 -6.83692 0
M  V30 169 H 22.68 1.12469 -4.54388 0
M  V30 170 H 22.853 1.31049 -6.3461 0
M  V30 171 N 16.2591 1.48442 0.529413 0
M  V30 172 C 17.1921 1.57577 1.65059 0
M  V30 173 C 18.1701 0.426198 1.56915 0
M  V30 174 O 19.3541 0.637877 1.77379 0
M  V30 175 C 16.4811 1.5043 3.03461 0
M  V30 176 C 15.5271 2.70235 3.29962 0
M  V30 177 S 16.3601 4.32198 3.16172 0
M  V30 178 C 17.5161 4.2765 4.57019 0
M  V30 179 H 17.7491 2.52427 1.5706 0
M  V30 180 H 15.2821 1.36982 0.712417 0
M  V30 181 H 17.2401 1.46992 3.8328 0
M  V30 182 H 15.9011 0.569167 3.089 0
M  V30 183 H 15.0941 2.61374 4.30929 0
M  V30 184 H 14.6961 2.70938 2.57815 0
M  V30 185 H 16.9881 3.97618 5.48549 0
M  V30 186 H 17.9311 5.28797 4.70934 0
M  V30 187 H 18.3391 3.5811 4.36368 0
M  V30 188 N 17.7372 -0.778329 1.37039 0
M  V30 189 C 18.9852 -1.53361 1.31623 0
M  V30 190 C 19.3062 -1.94739 -0.100831 0
M  V30 191 O 18.5762 -1.65797 -1.04347 0
M  V30 192 H 17.1562 -0.568794 0.484234 0
M  V30 193 H 19.8182 -0.926742 1.71457 0
M  V30 194 H 18.9142 -2.43606 1.95096 0
M  V30 195 N 19.2153 -1.21501 -1.00376 0
M  V30 196 C 20.6263 -1.03146 -1.55621 0
M  V30 197 C 20.9773 0.408375 -1.91903 0
M  V30 198 O 20.1023 1.29177 -1.73616 0
M  V30 199 C 20.6973 -1.86612 -2.82775 0
M  V30 200 C 19.2563 -1.72586 -3.34501 0
M  V30 201 C 18.4033 -1.83747 -2.07683 0
M  V30 202 H 21.3543 -1.35505 -0.826081 0
M  V30 203 H 21.3753 -1.3771 -3.54706 0
M  V30 204 H 20.8873 -2.91399 -2.56336 0
M  V30 205 H 18.9883 -0.704877 -3.65872 0
M  V30 206 H 19.1013 -2.54623 -4.05837 0
M  V30 207 H 17.4653 -1.27069 -2.20739 0
M  V30 208 H 18.2483 -2.90044 -1.83655 0
M  V30 209 N 20.6934 1.19889 -1.02296 0
M  V30 210 C 22.1094 1.41462 -0.738954 0
M  V30 211 C 22.3094 1.89721 0.678846 0
M  V30 212 O 21.3654 2.07016 1.4457 0
M  V30 213 C 22.6784 2.43083 -1.77005 0
M  V30 214 C 24.2264 2.5684 -1.78892 0
M  V30 215 C 24.7014 3.61709 -2.80945 0
M  V30 216 N 26.1924 3.69199 -2.79725 0
M  V30 217 C 26.9274 4.50019 -3.55345 0
M  V30 218 N 26.4234 5.34592 -4.40662 0
M  V30 219 N 28.2164 4.44612 -3.43914 0
M  V30 220 H 20.3674 0.868827 -1.93817 0
M  V30 221 H 22.6304 0.44399 -0.837602 0
M  V30 222 H 22.3364 2.14636 -2.78612 0
M  V30 223 H 22.2104 3.4217 -1.58744 0
M  V30 224 H 24.5974 2.84614 -0.779674 0
M  V30 225 H 24.6784 1.57927 -2.01228 0
M  V30 226 H 24.3224 3.34678 -3.82038 0
M  V30 227 H 24.2524 4.60259 -2.5587 0
M  V30 228 H 26.7434 3.08794 -2.17842 0
M  V30 229 H 27.0564 5.93363 -4.95116 0
M  V30 230 H 25.4014 5.34073 -4.44737 0
M  V30 231 H 28.5924 3.7758 -2.76679 0
M  V30 232 H 28.7654 5.0736 -4.031 0
M  V30 233 N 22.1715 0.800033 1.35784 0
M  V30 234 C 23.4115 0.382891 2.00782 0
M  V30 235 C 23.7755 -1.02891 1.62103 0
M  V30 236 O 24.9765 -1.54771 2.19771 0
M  V30 237 C 23.2475 0.553299 3.53091 0
M  V30 238 S 24.8065 0.225608 4.3822 0
M  V30 239 H 21.6245 0.145737 0.695904 0
M  V30 240 H 24.2265 1.04085 1.65489 0
M  V30 241 H 22.9305 1.58091 3.78729 0
M  V30 242 H 22.4615 -0.120214 3.93216 0
M  V30 243 H 24.4765 -0.969074 4.86645 0
M  V30 244 N 23.6496 -1.47581 0.552962 0
M  V30 245 C 24.6126 -2.28439 -0.186605 0
M  V30 246 C 25.6126 -1.36706 -0.84665 0
M  V30 247 O 26.8026 -1.59378 -0.703164 0
M  V30 248 C 23.9346 -3.16264 -1.2724 0
M  V30 249 H 25.1276 -2.95294 0.523609 0
M  V30 250 H 22.6806 -1.532 0.309745 0
M  V30 251 H 23.4156 -2.54091 -2.01514 0
M  V30 252 H 23.2006 -3.83769 -0.803968 0
M  V30 253 H 24.6906 -3.77198 -1.79196 0
M  V30 254 N 25.1277 -0.289203 -1.54924 0
M  V30 255 C 26.0597 0.625583 -2.20497 0
M  V30 256 C 27.0727 1.10667 -1.19402 0
M  V30 257 O 28.2617 1.02615 -1.46056 0
M  V30 258 C 25.3617 1.86702 -2.82835 0
M  V30 259 C 24.5347 1.5304 -4.09753 0
M  V30 260 C 23.5937 2.62576 -4.56005 0
M  V30 261 O 22.6197 2.28167 -5.21468 0
M  V30 262 N 23.8217 3.92901 -4.27328 0
M  V30 263 H 26.5867 0.0642801 -2.99631 0
M  V30 264 H 24.1477 -0.110896 -1.6152 0
M  V30 265 H 26.1397 2.59304 -3.10715 0
M  V30 266 H 24.7097 2.33702 -2.07611 0
M  V30 267 H 23.9297 0.637564 -3.8901 0
M  V30 268 H 25.2177 1.28072 -4.92418 0
M  V30 269 H 24.6157 4.23671 -3.74859 0
M  V30 270 H 23.1727 4.61837 -4.59946 0
M  V30 271 N 26.6058 1.57591 -0.0167156 0
M  V30 272 C 27.5688 2.08393 0.954204 0
M  V30 273 C 28.5688 0.996531 1.26198 0
M  V30 274 O 29.7588 1.25858 1.20438 0
M  V30 275 C 26.8908 2.5394 2.27436 0
M  V30 276 H 28.0838 2.95455 0.514451 0
M  V30 277 H 25.6368 1.54582 0.231089 0
M  V30 278 H 26.3718 1.70171 2.76066 0
M  V30 279 H 26.1568 3.33371 2.06412 0
M  V30 280 H 27.6468 2.93512 2.97053 0
M  V30 281 N 28.0839 -0.256276 1.55502 0
M  V30 282 C 29.0139 -1.32102 1.92539 0
M  V30 283 C 29.9949 -1.50684 0.789194 0
M  V30 284 O 31.1799 -1.63449 1.04872 0
M  V30 285 C 28.3099 -2.67752 2.21192 0
M  V30 286 C 27.2639 -2.63878 3.36975 0
M  V30 287 C 26.5899 -4.03236 3.51147 0
M  V30 288 C 27.8899 -2.21682 4.72921 0
M  V30 289 H 29.5839 -1.01351 2.81724 0
M  V30 290 H 27.1299 -0.486105 1.35547 0
M  V30 291 H 29.0829 -3.42365 2.45691 0
M  V30 292 H 27.8069 -3.0012 1.28824 0
M  V30 293 H 26.4659 -1.91722 3.12471 0
M  V30 294 H 26.1139 -4.32854 2.56216 0
M  V30 295 H 25.8139 -4.01535 4.29003 0
M  V30 296 H 27.3379 -4.79563 3.77957 0
M  V30 297 H 28.7519 -2.86023 4.96854 0
M  V30 298 H 27.1489 -2.3111 5.53812 0
M  V30 299 H 28.2189 -1.16833 4.70615 0
M  V30 300 N 29.562 -1.4872 -0.521534 0
M  V30 301 C 30.808 -1.58378 -1.27624 0
M  V30 302 C 31.163 -0.258028 -1.90662 0
M  V30 303 O 30.456 0.739917 -1.76736 0
M  V30 304 C 30.65 -2.66497 -2.38148 0
M  V30 305 C 30.479 -4.09456 -1.85945 0
M  V30 306 C 29.249 -4.76495 -1.68168 0
M  V30 307 C 31.447 -4.95353 -1.3831 0
M  V30 308 N 29.429 -6.0384 -1.1068 0
M  V30 309 C 30.8 -6.13012 -0.928238 0
M  V30 310 C 32.855 -4.81512 -1.26692 0
M  V30 311 C 31.558 -7.18354 -0.368701 0
M  V30 312 C 33.584 -5.86984 -0.721368 0
M  V30 313 C 32.946 -7.03857 -0.276623 0
M  V30 314 H 29.045 -0.634045 -0.457724 0
M  V30 315 H 31.629 -1.85639 -0.587049 0
M  V30 316 H 29.8 -2.41043 -3.04553 0
M  V30 317 H 31.532 -2.65791 -3.05184 0
M  V30 318 H 28.287 -4.32962 -1.91939 0
M  V30 319 H 28.711 -6.71778 -0.839217 0
M  V30 320 H 33.353 -3.91487 -1.5968 0
M  V30 321 H 31.071 -8.08096 -0.0265122 0
M  V30 322 H 34.657 -5.78329 -0.634531 0
M  V30 323 H 33.537 -7.84077 0.138947 0
M  V30 324 N 31.0401 0.771051 -1.3745 0
M  V30 325 C 32.4561 1.07171 -1.18265 0
M  V30 326 C 32.6561 2.01491 -0.019287 0
M  V30 327 O 31.7121 2.44244 0.640408 0
M  V30 328 C 33.0251 1.66854 -2.50161 0
M  V30 329 C 34.5731 1.79109 -2.56689 0
M  V30 330 C 35.0481 2.42205 -3.88717 0
M  V30 331 N 36.5391 2.49655 -3.90162 0
M  V30 332 C 37.2741 2.9933 -4.8907 0
M  V30 333 N 36.7701 3.49172 -5.98374 0
M  V30 334 N 38.5631 2.9821 -4.76474 0
M  V30 335 H 30.7141 0.144796 -2.11906 0
M  V30 336 H 32.9771 0.126863 -0.939473 0
M  V30 337 H 32.6831 1.05017 -3.35655 0
M  V30 338 H 32.5571 2.6614 -2.673 0
M  V30 339 H 34.9441 2.40077 -1.71601 0
M  V30 340 H 35.0251 0.785757 -2.43433 0
M  V30 341 H 34.6691 1.81875 -4.74219 0
M  V30 342 H 34.5991 3.43345 -3.99276 0
M  V30 343 H 37.0901 2.14383 -3.11205 0
M  V30 344 H 37.4031 3.8548 -6.69795 0
M  V30 345 H 35.7481 3.47275 -6.02018 0
M  V30 346 H 38.9391 2.58572 -3.90203 0
M  V30 347 H 39.1121 3.36613 -5.53711 0
M  V30 348 N 32.5182 1.22032 0.997298 0
M  V30 349 C 33.4512 0.929735 2.08401 0
M  V30 350 C 34.4292 -0.125681 1.62114 0
M  V30 351 O 35.6132 0.00495409 1.88499 0
M  V30 352 C 32.7402 0.397488 3.3636 0
M  V30 353 C 31.7862 1.4369 4.01566 0
M  V30 354 S 32.6192 3.00874 4.42984 0
M  V30 355 C 33.7752 2.49276 5.74119 0
M  V30 356 H 34.0082 1.84998 2.32729 0
M  V30 357 H 31.5412 1.0509 1.13117 0
M  V30 358 H 33.4992 0.0969846 4.10385 0
M  V30 359 H 32.1602 -0.501571 3.10069 0
M  V30 360 H 31.3532 1.01427 4.93689 0
M  V30 361 H 30.9552 1.68588 3.33847 0
M  V30 362 H 33.2472 1.90242 6.50242 0
M  V30 363 H 34.1902 3.39872 6.21203 0
M  V30 364 H 34.5982 1.90714 5.31308 0
M  V30 365 N 33.9963 -1.19345 1.0293 0
M  V30 366 C 35.4073 -1.70725 0.755633 0
M  V30 367 C 35.7583 -1.82326 -0.724676 0
M  V30 368 O 34.8833 -1.49471 -1.56484 0
M  V30 369 C 35.4783 -3.10084 1.36503 0
M  V30 370 C 34.0373 -3.58723 1.13994 0
M  V30 371 C 33.1843 -2.35577 1.46283 0
M  V30 372 H 36.1353 -1.0418 1.19718 0
M  V30 373 H 36.1563 -3.72787 0.762217 0
M  V30 374 H 35.6683 -3.01609 2.44241 0
M  V30 375 H 33.7693 -3.72512 0.0807901 0
M  V30 376 H 33.8823 -4.42816 1.82894 0
M  V30 377 H 32.2463 -2.38935 0.88217 0
M  V30 378 H 33.0293 -2.29731 2.55105 0
M  V30 379 N 35.4744 -0.807222 -1.35358 0
M  V30 380 C 36.7204 -0.397594 -1.99476 0
M  V30 381 C 37.0754 1.02405 -1.62883 0
M  V30 382 O 36.3684 1.70077 -0.882282 0
M  V30 383 C 36.5624 -0.519036 -3.53611 0
M  V30 384 C 36.3914 -1.95094 -4.05177 0
M  V30 385 C 35.1614 -2.57945 -4.34503 0
M  V30 386 C 37.3594 -2.91558 -4.23673 0
M  V30 387 N 35.3414 -3.92539 -4.72003 0
M  V30 388 C 36.7124 -4.11024 -4.64176 0
M  V30 389 C 38.7674 -2.88381 -4.05883 0
M  V30 390 C 37.4704 -5.27745 -4.88751 0
M  V30 391 C 39.4964 -4.04306 -4.31614 0
M  V30 392 C 38.8584 -5.22519 -4.72391 0
M  V30 393 H 34.9574 -0.193274 -0.75774 0
M  V30 394 H 37.5414 -1.0486 -1.6405 0
M  V30 395 H 35.7124 0.101979 -3.88266 0
M  V30 396 H 37.4444 -0.0839321 -4.04613 0
M  V30 397 H 34.1994 -2.09295 -4.24844 0
M  V30 398 H 34.6234 -4.61836 -4.95011 0
M  V30 399 H 39.2654 -1.98137 -3.73499 0
M  V30 400 H 36.9834 -6.1856 -5.20008 0
M  V30 401 H 40.5694 -4.03229 -4.19402 0
M  V30 402 H 39.4494 -6.1073 -4.91913 0
M  V30 403 N 36.9525 1.47285 -0.560781 0
M  V30 404 C 37.8825 2.32857 0.173105 0
M  V30 405 C 38.8635 1.44009 0.905281 0
M  V30 406 O 40.0485 1.7286 0.885046 0
M  V30 407 C 37.1785 3.25861 1.20133 0
M  V30 408 C 36.1325 4.23978 0.585388 0
M  V30 409 C 35.4585 5.06332 1.7185 0
M  V30 410 C 36.7585 5.20242 -0.463178 0
M  V30 411 H 38.4525 2.94466 -0.541307 0
M  V30 412 H 35.9985 1.41601 -0.261764 0
M  V30 413 H 37.9515 3.84569 1.72293 0
M  V30 414 H 36.6755 2.62315 1.94573 0
M  V30 415 H 35.3345 3.66501 0.085054 0
M  V30 416 H 34.9825 4.39186 2.45203 0
M  V30 417 H 34.6825 5.72762 1.31213 0
M  V30 418 H 36.2065 5.67899 2.24329 0
M  V30 419 H 37.6205 5.73293 -0.027502 0
M  V30 420 H 36.0175 5.94896 -0.788627 0
M  V30 421 H 37.0875 4.65504 -1.35773 0
M  V30 422 N 38.4306 0.297415 1.54768 0
M  V30 423 C 39.8416 -0.195947 1.85669 0
M  V30 424 C 40.1926 -1.53707 1.21937 0
M  V30 425 O 39.3176 -2.10164 0.515754 0
M  V30 426 C 39.9126 -0.362318 3.36857 0
M  V30 427 C 38.4716 -0.799901 3.67802 0
M  V30 428 C 37.6186 0.0938578 2.77141 0
M  V30 429 H 40.5696 0.518538 1.4999 0
M  V30 430 H 40.5906 -1.19745 3.61167 0
M  V30 431 H 40.1026 0.613921 3.83214 0
M  V30 432 H 38.2036 -1.78682 3.26961 0
M  V30 433 H 38.3166 -0.621773 4.75048 0
M  V30 434 H 36.6806 -0.426254 2.51108 0
M  V30 435 H 37.4636 1.06639 3.26318 0
M  V30 436 N 39.9087 -1.5758 0.0250728 0
M  V30 437 C 41.1547 -1.91917 -0.655413 0
M  V30 438 C 41.4877 -0.901433 -1.72011 0
M  V30 439 O 40.7627 0.0764069 -1.9435 0
M  V30 440 C 41.0457 -3.36751 -1.27558 0
M  V30 441 C 40.8987 -4.49258 -0.220719 0
M  V30 442 C 42.2177 -3.81469 -2.19475 0
M  V30 443 H 39.3367 -0.697925 -0.23679 0
M  V30 444 H 41.9787 -1.89825 0.0815036 0
M  V30 445 H 40.1287 -3.38664 -1.90365 0
M  V30 446 H 41.8007 -4.59478 0.409601 0
M  V30 447 H 40.0437 -4.31415 0.454264 0
M  V30 448 H 40.7147 -5.47618 -0.694175 0
M  V30 449 H 43.1907 -3.81266 -1.66659 0
M  V30 450 H 42.0667 -4.83512 -2.59822 0
M  V30 451 H 42.3277 -3.16744 -3.08424 0
M  V30 452 N 41.3868 0.248026 -1.55636 0
M  V30 453 C 42.6338 0.976224 -1.77415 0
M  V30 454 C 42.9618 1.85361 -0.589193 0
M  V30 455 O 42.2168 1.90973 0.427529 0
M  V30 456 C 42.5158 1.86819 -3.04686 0
M  V30 457 C 42.1818 1.14625 -4.36087 0
M  V30 458 C 40.8438 0.946723 -4.71795 0
M  V30 459 C 43.1958 0.634463 -5.17324 0
M  V30 460 C 40.5238 0.223091 -5.86276 0
M  V30 461 C 42.8758 -0.0756959 -6.32555 0
M  V30 462 C 41.5398 -0.286711 -6.66884 0
M  V30 463 H 40.8098 0.357226 -0.649208 0
M  V30 464 H 43.4568 0.246415 -1.89908 0
M  V30 465 H 41.7618 2.66502 -2.872 0
M  V30 466 H 43.4588 2.43329 -3.18735 0
M  V30 467 H 40.0488 1.3117 -4.08035 0
M  V30 468 H 44.2328 0.77616 -4.90193 0
M  V30 469 H 39.4888 0.0491185 -6.1138 0
M  V30 470 H 43.6628 -0.479899 -6.94745 0
M  V30 471 H 41.2898 -0.849389 -7.5544 0
M  V30 472 N 42.8649 1.48995 0.513639 0
M  V30 473 C 43.7949 1.67636 1.62544 0
M  V30 474 C 44.7759 0.525087 1.61793 0
M  V30 475 O 45.9609 0.759502 1.78732 0
M  V30 476 C 43.0909 1.73114 3.01079 0
M  V30 477 C 42.0449 2.87905 3.16693 0
M  V30 478 C 41.3709 2.78486 4.56453 0
M  V30 479 C 42.6709 4.29005 2.97913 0
M  V30 480 H 44.3649 2.60716 1.47198 0
M  V30 481 H 41.9109 1.25465 0.706714 0
M  V30 482 H 43.8639 1.84742 3.78746 0
M  V30 483 H 42.5879 0.766241 3.17484 0
M  V30 484 H 41.2469 2.75859 2.41448 0
M  V30 485 H 40.8949 1.7993 4.69717 0
M  V30 486 H 40.5949 3.55523 4.67843 0
M  V30 487 H 42.1189 2.92104 5.36197 0
M  V30 488 H 43.5329 4.41798 3.65359 0
M  V30 489 H 41.9299 5.07166 3.20785 0
M  V30 490 H 42.9999 4.44329 1.94165 0
M  V30 491 N 44.343 -0.763751 1.37857 0
M  V30 492 C 45.568 -1.55805 1.36893 0
M  V30 493 C 45.993 -1.88054 -0.0416135 0
M  V30 494 O 45.351 -1.49825 -1.02089 0
M  V30 495 C 45.399 -2.84012 2.22192 0
M  V30 496 O 44.503 -3.78732 1.63204 0
M  V30 497 H 43.844 -0.471638 0.46739 0
M  V30 498 H 46.374 -0.944657 1.81487 0
M  V30 499 H 46.384 -3.33037 2.35691 0
M  V30 500 H 45.059 -2.59869 3.24716 0
M  V30 501 H 43.636 -3.37402 1.58791 0
M  V30 502 N 45.8211 -1.22559 -0.990812 0
M  V30 503 C 46.7511 -1.0218 -2.09956 0
M  V30 504 C 47.7321 0.0579394 -1.70001 0
M  V30 505 O 48.9171 -0.104684 -1.93918 0
M  V30 506 C 46.0471 -0.601023 -3.4206 0
M  V30 507 C 45.0011 -1.62694 -3.95872 0
M  V30 508 C 44.3271 -1.06193 -5.24049 0
M  V30 509 C 45.6271 -3.01743 -4.2632 0
M  V30 510 H 47.3211 -1.94916 -2.27262 0
M  V30 511 H 44.8671 -0.938566 -1.09211 0
M  V30 512 H 46.8201 -0.445561 -4.19038 0
M  V30 513 H 45.5441 0.362005 -3.24588 0
M  V30 514 H 44.2031 -1.77021 -3.21028 0
M  V30 515 H 43.8511 -0.0901903 -5.02919 0
M  V30 516 H 43.5511 -1.74732 -5.61019 0
M  V30 517 H 45.0751 -0.918092 -6.03658 0
M  V30 518 H 46.4891 -2.90777 -4.94087 0
M  V30 519 H 44.8861 -3.67425 -4.74467 0
M  V30 520 H 45.9561 -3.51518 -3.34011 0
M  V30 521 N 47.2992 1.18797 -1.03562 0
M  V30 522 C 48.2622 2.20464 -0.626769 0
M  V30 523 C 49.2622 1.57721 0.313173 0
M  V30 524 O 50.4522 1.73917 0.0992615 0
M  V30 525 C 47.5842 3.40802 0.0818498 0
M  V30 526 H 48.7772 2.58149 -1.5264 0
M  V30 527 H 46.3302 1.32593 -0.827578 0
M  V30 528 H 47.0652 3.08642 0.995518 0
M  V30 529 H 46.8502 3.8758 -0.593652 0
M  V30 530 H 48.3402 4.16092 0.354584 0
M  V30 531 N 48.7773 0.814389 1.34928 0
M  V30 532 C 49.7403 0.235759 2.27984 0
M  V30 533 C 50.7403 -0.581412 1.49921 0
M  V30 534 O 51.9303 -0.398758 1.69575 0
M  V30 535 C 49.0623 -0.670433 3.34242 0
M  V30 536 H 50.2553 1.05659 2.80671 0
M  V30 537 H 47.8083 0.585614 1.44915 0
M  V30 538 H 48.5433 -1.51466 2.86755 0
M  V30 539 H 48.3283 -0.0860822 3.92005 0
M  V30 540 H 49.8183 -1.06935 4.03676 0
M  V30 541 N 50.2554 -1.46986 0.568584 0
M  V30 542 C 51.2184 -2.28624 -0.162366 0
M  V30 543 C 52.2184 -1.37596 -0.832103 0
M  V30 544 O 53.4084 -1.60115 -0.68622 0
M  V30 545 C 50.5404 -3.17596 -1.23878 0
M  V30 546 H 51.7334 -2.94722 0.554899 0
M  V30 547 H 49.2864 -1.52863 0.325976 0
M  V30 548 H 50.0214 -2.56214 -1.98808 0
M  V30 549 H 49.8064 -3.846 -0.763219 0
M  V30 550 H 51.2964 -3.79078 -1.75185 0
M  V30 551 N 51.7335 -0.305618 -1.54608 0
M  V30 552 C 52.6965 0.555591 -2.22364 0
M  V30 553 C 53.6965 1.05768 -1.21119 0
M  V30 554 O 54.8865 0.952972 -1.45822 0
M  V30 555 C 52.0185 1.76974 -2.91364 0
M  V30 556 H 53.2115 -0.0364572 -2.99878 0
M  V30 557 H 50.7645 -0.0565007 -1.56198 0
M  V30 558 H 51.4995 2.40151 -2.17941 0
M  V30 559 H 51.2845 1.41732 -3.65588 0
M  V30 560 H 52.7745 2.38148 -3.43038 0
M  V30 561 N 53.2116 1.57565 -0.0334293 0
M  V30 562 C 54.1746 2.09393 0.932048 0
M  V30 563 C 55.1746 1.00986 1.25134 0
M  V30 564 O 56.3646 1.27129 1.19096 0
M  V30 565 C 53.4966 2.56338 2.2473 0
M  V30 566 H 54.6896 2.95984 0.483085 0
M  V30 567 H 52.2426 1.54819 0.21468 0
M  V30 568 H 52.9776 1.7309 2.74245 0
M  V30 569 H 52.7626 3.35542 2.02865 0
M  V30 570 H 54.2526 2.96646 2.93923 0
M  V30 571 N 54.6897 -0.239769 1.55765 0
M  V30 572 C 55.6527 -1.28038 1.90103 0
M  V30 573 C 56.6527 -1.40723 0.778055 0
M  V30 574 O 57.8427 -1.39301 1.04599 0
M  V30 575 C 54.9747 -2.65702 2.13577 0
M  V30 576 H 56.1677 -0.988048 2.83157 0
M  V30 577 H 53.7207 -0.479382 1.48767 0
M  V30 578 H 54.4557 -3.00063 1.23015 0
M  V30 579 H 54.2407 -2.57875 2.95369 0
M  V30 580 H 55.7307 -3.40828 2.41301 0
M  V30 581 N 56.1678 -1.49265 -0.50573 0
M  V30 582 C 57.1308 -1.65075 -1.59006 0
M  V30 583 C 58.1308 -0.522768 -1.52065 0
M  V30 584 O 59.3208 -0.789117 -1.55302 0
M  V30 585 C 56.4528 -1.64369 -2.98656 0
M  V30 586 H 57.6458 -2.61784 -1.46319 0
M  V30 587 H 55.1988 -1.38226 -0.729616 0
M  V30 588 H 55.9338 -0.692272 -3.16825 0
M  V30 589 H 55.7188 -2.46282 -3.05103 0
M  V30 590 H 57.2088 -1.78674 -3.77446 0
M  V30 591 N 57.6459 0.756429 -1.3826 0
M  V30 592 C 58.6089 1.85176 -1.35065 0
M  V30 593 C 59.6089 1.58818 -0.251703 0
M  V30 594 O 60.7989 1.66615 -0.508433 0
M  V30 595 C 57.9309 3.22596 -1.10201 0
M  V30 596 H 59.1239 1.89417 -2.3251 0
M  V30 597 H 56.6769 0.95783 -1.23512 0
M  V30 598 H 57.4119 3.24025 -0.133504 0
M  V30 599 H 57.1969 3.43122 -1.89762 0
M  V30 600 H 58.6869 4.02673 -1.10654 0
M  V30 601 N 59.124 1.23083 0.984299 0
M  V30 602 C 60.087 1.00979 2.05757 0
M  V30 603 C 61.087 -0.0269573 1.60777 0
M  V30 604 O 62.277 0.212403 1.729 0
M  V30 605 C 59.409 0.527072 3.36801 0
M  V30 606 H 60.602 1.9622 2.26799 0
M  V30 607 H 58.155 1.05072 1.15714 0
M  V30 608 H 58.89 -0.429294 3.21446 0
M  V30 609 H 58.675 1.27515 3.70786 0
M  V30 610 H 60.165 0.392942 4.15747 0
M  V30 611 N 60.6021 -1.18246 1.0419 0
M  V30 612 C 61.5121 -2.25574 0.644476 0
M  V30 613 C 62.5281 -1.70845 -0.329826 0
M  V30 614 O 63.7041 -2.00554 -0.184443 0
M  V30 615 C 60.7691 -3.46697 0.014877 0
M  V30 616 C 59.8301 -4.16554 1.03834 0
M  V30 617 C 59.0631 -5.31894 0.438692 0
M  V30 618 O 59.2861 -5.65385 -0.754752 0
M  V30 619 O 58.2201 -5.90459 1.168 0
M  V30 620 H 62.0461 -2.61836 1.53869 0
M  V30 621 H 59.6311 -1.25352 0.812854 0
M  V30 622 H 61.5131 -4.20062 -0.335538 0
M  V30 623 H 60.1881 -3.12255 -0.853138 0
M  V30 624 H 59.0951 -3.45251 1.44057 0
M  V30 625 H 60.4281 -4.54998 1.87716 0
M  V30 626 N 62.0802 -0.821533 -1.34494 0
M  V30 627 C 63.0122 -0.199946 -2.28326 0
M  V30 628 C 64.0252 0.609377 -1.50965 0
M  V30 629 O 65.2142 0.439285 -1.7301 0
M  V30 630 C 62.3142 0.738431 -3.30757 0
M  V30 631 C 61.4872 -0.0277632 -4.37391 0
M  V30 632 C 60.5462 0.831332 -5.19591 0
M  V30 633 O 59.5722 0.276822 -5.68526 0
M  V30 634 N 60.7742 2.15132 -5.39165 0
M  V30 635 H 63.5392 -1.00609 -2.82308 0
M  V30 636 H 61.1002 -0.678366 -1.47003 0
M  V30 637 H 63.0922 1.31773 -3.82646 0
M  V30 638 H 61.6622 1.44533 -2.7718 0
M  V30 639 H 60.8822 -0.788359 -3.86236 0
M  V30 640 H 62.1702 -0.555251 -5.05761 0
M  V30 641 H 61.5682 2.62559 -5.01078 0
M  V30 642 H 60.1252 2.6795 -5.94177 0
M  V30 643 N 63.5583 1.46682 -0.576371 0
M  V30 644 C 64.4903 2.28341 0.198231 0
M  V30 645 C 65.5033 1.38141 0.861453 0
M  V30 646 O 66.6923 1.62797 0.732082 0
M  V30 647 C 63.7923 3.12986 1.29972 0
M  V30 648 C 62.9653 4.31271 0.729639 0
M  V30 649 C 62.0243 4.97363 1.71803 0
M  V30 650 O 61.0503 5.55156 1.25658 0
M  V30 651 N 62.2523 4.93796 3.05198 0
M  V30 652 H 65.0173 2.9546 -0.502324 0
M  V30 653 H 62.5783 1.56525 -0.413715 0
M  V30 654 H 64.5703 3.54066 1.96008 0
M  V30 655 H 63.1403 2.47984 1.90323 0
M  V30 656 H 62.3603 3.94052 -0.108012 0
M  V30 657 H 63.6483 5.07739 0.328438 0
M  V30 658 H 63.0463 4.48077 3.45317 0
M  V30 659 H 61.6033 5.38837 3.6674 0
M  V30 660 N 65.0364 0.313813 1.54444 0
M  V30 661 C 66.2824 -0.292108 2.00685 0
M  V30 662 C 66.6154 -1.52548 1.20177 0
M  V30 663 O 65.8904 -1.92452 0.281531 0
M  V30 664 C 66.1734 -0.635968 3.5444 0
M  V30 665 C 66.0264 0.607437 4.4568 0
M  V30 666 C 67.3454 -1.45747 4.15266 0
M  V30 667 H 64.4644 -0.104697 0.729526 0
M  V30 668 H 67.1064 0.428457 1.85106 0
M  V30 669 H 65.2564 -1.24986 3.67846 0
M  V30 670 H 66.9284 1.24581 4.44159 0
M  V30 671 H 65.1714 1.23822 4.15753 0
M  V30 672 H 65.8424 0.322515 5.51057 0
M  V30 673 H 68.3184 -0.938645 4.05375 0
M  V30 674 H 67.1944 -1.66683 5.2298 0
M  V30 675 H 67.4554 -2.45063 3.67963 0
M  V30 676 N 66.5145 -1.57545 0.0417849 0
M  V30 677 C 67.9255 -1.80011 -0.495259 0
M  V30 678 C 68.2765 -0.953199 -1.71489 0
M  V30 679 O 67.4015 -0.167138 -2.15754 0
M  V30 680 C 67.9965 -3.26482 -0.905265 0
M  V30 681 C 66.5555 -3.499 -1.38734 0
M  V30 682 C 65.7025 -2.74979 -0.358056 0
M  V30 683 H 68.6535 -1.56425 0.267736 0
M  V30 684 H 68.6745 -3.36887 -1.76882 0
M  V30 685 H 68.1865 -3.88096 -0.017401 0
M  V30 686 H 66.2875 -2.93553 -2.29471 0
M  V30 687 H 66.4005 -4.58615 -1.38598 0
M  V30 688 H 64.7645 -2.40834 -0.828912 0
M  V30 689 H 65.5475 -3.39315 0.521561 0
M  V30 690 N 67.9926 0.231505 -1.5589 0
M  V30 691 C 68.9226 1.29022 -1.94617 0
M  V30 692 C 69.9036 1.4941 -0.813067 0
M  V30 693 O 71.0886 1.6176 -1.07459 0
M  V30 694 C 68.2186 2.64199 -2.25424 0
M  V30 695 C 67.1726 2.58484 -3.41131 0
M  V30 696 C 66.4986 3.97599 -3.57518 0
M  V30 697 C 67.7986 2.1413 -4.76388 0
M  V30 698 H 69.4926 0.968563 -2.83301 0
M  V30 699 H 67.0386 0.464479 -1.36303 0
M  V30 700 H 68.9916 3.38413 -2.51107 0
M  V30 701 H 67.7156 2.98032 -1.33583 0
M  V30 702 H 66.3746 1.86727 -3.15481 0
M  V30 703 H 66.0226 4.28723 -2.6307 0
M  V30 704 H 65.7226 3.94659 -4.35337 0
M  V30 705 H 67.2466 4.7349 -3.85538 0
M  V30 706 H 68.6606 2.78083 -5.01341 0
M  V30 707 H 67.0576 2.2227 -5.57419 0
M  V30 708 H 68.1276 1.09331 -4.72414 0
M  V30 709 N 69.4707 1.49531 0.497807 0
M  V30 710 C 70.7167 1.59415 1.25358 0
M  V30 711 C 71.0497 0.281422 1.9215 0
M  V30 712 O 70.3247 -0.715249 1.80871 0
M  V30 713 C 70.6077 2.75566 2.3181 0
M  V30 714 C 70.4607 4.16642 1.69498 0
M  V30 715 C 71.7797 2.87347 3.33346 0
M  V30 716 H 68.8987 0.580244 0.454408 0
M  V30 717 H 71.5407 1.81827 0.551262 0
M  V30 718 H 69.6907 2.56587 2.91711 0
M  V30 719 H 71.3627 4.47145 1.13399 0
M  V30 720 H 69.6057 4.22141 0.998978 0
M  V30 721 H 70.2767 4.93792 2.46725 0
M  V30 722 H 72.7527 3.04634 2.83438 0
M  V30 723 H 71.6287 3.70289 4.05188 0
M  V30 724 H 71.8897 1.96834 3.95865 0
M  V30 725 N 70.9488 -0.749086 1.3866 0
M  V30 726 C 71.8788 -1.8764 1.38973 0
M  V30 727 C 72.8598 -1.68178 0.255004 0
M  V30 728 O 74.0448 -1.88704 0.458754 0
M  V30 729 C 71.1748 -3.25222 1.21851 0
M  V30 730 C 70.1288 -3.59295 2.32575 0
M  V30 731 C 69.4548 -4.95663 2.00555 0
M  V30 732 C 70.7548 -3.63709 3.7485 0
M  V30 733 H 72.4488 -1.87635 2.3331 0
M  V30 734 H 69.9948 -0.901329 1.12303 0
M  V30 735 H 71.9478 -4.03746 1.20695 0
M  V30 736 H 70.6718 -3.25719 0.239775 0
M  V30 737 H 69.3308 -2.83093 2.32925 0
M  V30 738 H 68.9788 -4.92724 1.01154 0
M  V30 739 H 68.6788 -5.19429 2.74714 0
M  V30 740 H 70.2028 -5.7656 2.01024 0
M  V30 741 H 71.6168 -4.32338 3.76506 0
M  V30 742 H 70.0138 -3.98986 4.48252 0
M  V30 743 H 71.0838 -2.63834 4.06841 0
M  V30 744 N 72.4269 -1.23603 -0.977757 0
M  V30 745 C 73.6729 -1.08136 -1.72274 0
M  V30 746 C 74.0279 0.377453 -1.88661 0
M  V30 747 O 73.3209 1.27552 -1.42972 0
M  V30 748 C 73.5149 -1.7433 -3.11999 0
M  V30 749 C 73.3439 -3.26498 -3.0924 0
M  V30 750 C 72.1139 -3.9567 -3.14282 0
M  V30 751 C 74.3119 -4.2323 -2.92201 0
M  V30 752 N 72.2939 -5.34799 -3.01436 0
M  V30 753 C 73.6649 -5.49289 -2.87544 0
M  V30 754 C 75.7199 -4.13931 -2.76705 0
M  V30 755 C 74.4229 -6.67116 -2.68978 0
M  V30 756 C 76.4489 -5.31424 -2.59504 0
M  V30 757 C 75.8109 -6.5641 -2.55548 0
M  V30 758 H 71.9099 -0.450247 -0.639376 0
M  V30 759 H 74.4939 -1.5637 -1.16002 0
M  V30 760 H 72.6649 -1.28624 -3.66484 0
M  V30 761 H 74.3969 -1.51815 -3.75146 0
M  V30 762 H 71.1519 -3.46767 -3.22567 0
M  V30 763 H 71.5759 -6.07748 -2.98281 0
M  V30 764 H 76.2179 -3.1807 -2.78552 0
M  V30 765 H 73.9359 -7.63109 -2.65876 0
M  V30 766 H 77.5219 -5.26072 -2.48474 0
M  V30 767 H 76.4019 -7.45795 -2.42405 0
M  V30 768 N 73.905 1.17692 -1.04816 0
M  V30 769 C 75.13 1.92327 -0.776207 0
M  V30 770 C 75.555 1.76082 0.661581 0
M  V30 771 O 74.913 1.076 1.45917 0
M  V30 772 C 74.961 3.41539 -1.15687 0
M  V30 773 O 74.065 4.11402 -0.286775 0
M  V30 774 H 73.406 0.599735 -0.284981 0
M  V30 775 H 75.936 1.49201 -1.4 0
M  V30 776 H 75.946 3.92269 -1.12202 0
M  V30 777 H 74.621 3.52684 -2.20425 0
M  V30 778 H 73.198 3.70939 -0.381903 0
M  V30 779 N 75.3831 0.828654 1.34056 0
M  V30 780 C 76.6081 0.431637 2.02859 0
M  V30 781 C 77.0331 -0.956339 1.61975 0
M  V30 782 O 76.3911 -1.62338 0.807228 0
M  V30 783 C 76.4391 0.548323 3.56407 0
M  V30 784 O 75.5431 -0.429556 4.10157 0
M  V30 785 H 74.8841 0.176886 0.640006 0
M  V30 786 H 77.4141 1.12066 1.71179 0
M  V30 787 H 77.4241 0.426196 4.05768 0
M  V30 788 H 76.0991 1.5606 3.8551 0
M  V30 789 H 74.6761 -0.265836 3.71951 0
M  V30 790 N 76.8612 -1.46375 0.584142 0
M  V30 791 C 78.1382 -1.956 0.0033388 0
M  V30 792 C 78.5182 -1.52679 -1.45782 0
M  V30 793 O 77.8662 -0.77816 -2.14842 0
M  V30 794 C 78.0762 -3.48551 0.176891 0
M  V30 795 C 79.4242 -4.24576 0.0454609 0
M  V30 796 O 80.4482 -3.56043 0.105801 0
M  V30 797 O 79.3072 -5.46427 -0.0890376 0
M  V30 798 H 76.4012 -0.825547 -0.0490066 0
M  V30 799 H 78.9472 -1.56652 0.65256 0
M  V30 800 H 77.7192 -3.72683 1.1926 0
M  V30 801 H 77.3422 -3.94332 -0.508695 0
M  V30 802 N 78.3393 -0.321999 -1.54275 0
M  V30 803 C 79.7553 0.0306999 -1.5957 0
M  V30 804 C 79.9553 1.50614 -1.33857 0
M  V30 805 O 79.0113 2.2619 -1.12223 0
M  V30 806 C 80.3243 -0.386122 -2.98211 0
M  V30 807 C 81.8723 -0.336647 -3.11184 0
M  V30 808 C 82.3473 -0.728607 -4.52167 0
M  V30 809 N 83.8383 -0.681952 -4.58152 0
M  V30 810 C 84.5733 -0.957449 -5.6535 0
M  V30 811 N 84.0693 -1.3 -6.80494 0
M  V30 812 N 85.8623 -0.883113 -5.55119 0
M  V30 813 H 78.0133 -1.28332 -1.69247 0
M  V30 814 H 80.2763 -0.521716 -0.791528 0
M  V30 815 H 79.9823 -1.41404 -3.22022 0
M  V30 816 H 79.8563 0.249662 -3.76373 0
M  V30 817 H 82.2433 0.682058 -2.8711 0
M  V30 818 H 82.3243 -1.00734 -2.3513 0
M  V30 819 H 81.9683 -1.74522 -4.76974 0
M  V30 820 H 81.8983 -0.0356152 -5.26588 0
M  V30 821 H 84.3893 -0.428985 -3.75457 0
M  V30 822 H 84.7023 -1.49563 -7.58189 0
M  V30 823 H 83.0473 -1.33824 -6.81994 0
M  V30 824 H 86.2383 -0.615001 -4.64042 0
M  V30 825 H 86.4113 -1.10118 -6.38575 0
M  V30 826 N 79.8174 1.5752 -0.0501392 0
M  V30 827 C 81.0944 1.83996 0.663685 0
M  V30 828 C 81.4744 0.938339 1.89099 0
M  V30 829 O 80.8224 -0.00087759 2.285 0
M  V30 830 C 81.0324 3.33702 1.02196 0
M  V30 831 C 82.3804 4.00691 1.40469 0
M  V30 832 O 83.4044 3.38321 1.11433 0
M  V30 833 O 82.2634 5.10658 1.94654 0
M  V30 834 H 79.3574 0.759385 0.32751 0
M  V30 835 H 81.9034 1.69514 -0.0794238 0
M  V30 836 H 80.6754 3.91015 0.149364 0
M  V30 837 H 80.2984 3.53368 1.82255 0
M  V30 838 N 81.2955 -0.223234 1.56011 0
M  V30 839 C 82.2255 -1.27988 1.95298 0
M  V30 840 C 83.2065 -1.48976 0.820979 0
M  V30 841 O 84.3915 -1.61188 1.08315 0
M  V30 842 C 81.5215 -2.63 2.26822 0
M  V30 843 C 80.4755 -2.56671 3.42497 0
M  V30 844 C 79.8015 -3.95697 3.59622 0
M  V30 845 C 81.1015 -2.11601 4.77517 0
M  V30 846 H 82.7955 -0.953525 2.8381 0
M  V30 847 H 80.3415 -0.457244 1.36548 0
M  V30 848 H 82.2945 -3.37077 2.52898 0
M  V30 849 H 81.0185 -2.9732 1.35161 0
M  V30 850 H 79.6775 -1.85051 3.16467 0
M  V30 851 H 79.3255 -4.27322 2.6534 0
M  V30 852 H 79.0255 -3.92345 4.37424 0
M  V30 853 H 80.5495 -4.71438 3.88044 0
M  V30 854 H 81.9635 -2.7542 5.02809 0
M  V30 855 H 80.3605 -2.19311 5.5859 0
M  V30 856 H 81.4305 -1.06824 4.72987 0
M  V30 857 N 82.7736 -1.49793 -0.48987 0
M  V30 858 C 84.0196 -1.61049 -1.24236 0
M  V30 859 C 84.3746 -0.298412 -1.90072 0
M  V30 860 O 83.6676 0.702262 -1.78266 0
M  V30 861 C 83.8616 -2.71488 -2.32441 0
M  V30 862 C 83.6906 -4.13308 -1.77218 0
M  V30 863 C 82.4606 -4.79955 -1.58023 0
M  V30 864 C 84.6586 -4.98176 -1.27772 0
M  V30 865 N 82.6406 -6.06052 -0.978465 0
M  V30 866 C 84.0116 -6.14843 -0.798 0
M  V30 867 C 86.0666 -4.84091 -1.16449 0
M  V30 868 C 84.7696 -7.18975 -0.216245 0
M  V30 869 C 86.7956 -5.88382 -0.596698 0
M  V30 870 C 86.1576 -7.04285 -0.127262 0
M  V30 871 H 82.2566 -0.643611 -0.444172 0
M  V30 872 H 84.8406 -1.86842 -0.54754 0
M  V30 873 H 83.0116 -2.47449 -2.99372 0
M  V30 874 H 84.7436 -2.72205 -2.99477 0
M  V30 875 H 81.4986 -4.36936 -1.82712 0
M  V30 876 H 81.9226 -6.73407 -0.696534 0
M  V30 877 H 86.5646 -3.94786 -1.5134 0
M  V30 878 H 84.2826 -8.0797 0.144903 0
M  V30 879 H 87.8686 -5.79545 -0.511716 0
M  V30 880 H 86.7486 -7.83606 0.30523 0
M  V30 881 N 84.2517 0.741722 -1.39055 0
M  V30 882 C 85.2147 1.83733 -1.37021 0
M  V30 883 C 86.2147 1.58542 -0.268534 0
M  V30 884 O 87.4047 1.66067 -0.526076 0
M  V30 885 C 84.5367 3.2141 -1.13617 0
M  V30 886 H 85.7297 1.86941 -2.34506 0
M  V30 887 H 83.2827 0.944676 -1.24521 0
M  V30 888 H 84.0177 3.23865 -0.167863 0
M  V30 889 H 83.8027 3.4109 -1.93391 0
M  V30 890 H 85.2927 4.01477 -1.14918 0
M  V30 891 N 85.7298 1.2412 0.971189 0
M  V30 892 C 87.1408 1.07236 1.52831 0
M  V30 893 C 87.4918 -0.357352 1.92918 0
M  V30 894 O 86.6168 -1.24528 1.76979 0
M  V30 895 C 87.2118 1.94043 2.77728 0
M  V30 896 C 85.7708 1.81394 3.29808 0
M  V30 897 C 84.9178 1.89189 2.02738 0
M  V30 898 H 87.8688 1.37648 0.789864 0
M  V30 899 H 87.8898 1.47066 3.5093 0
M  V30 900 H 87.4018 2.98093 2.4852 0
M  V30 901 H 85.5028 0.801634 3.63874 0
M  V30 902 H 85.6158 2.65294 3.98944 0
M  V30 903 H 83.9798 1.32877 2.17292 0
M  V30 904 H 84.7628 2.94812 1.759 0
M  V30 905 N 87.2079 -1.17134 1.05439 0
M  V30 906 C 88.1709 -2.19439 0.661764 0
M  V30 907 C 89.1709 -1.58199 -0.288042 0
M  V30 908 O 90.3609 -1.74053 -0.0715803 0
M  V30 909 C 87.4929 -3.40889 -0.0276209 0
M  V30 910 H 88.6859 -2.55688 1.56728 0
M  V30 911 H 86.2389 -1.31259 0.848567 0
M  V30 912 H 86.9739 -3.10187 -0.94629 0
M  V30 913 H 86.7589 -3.86586 0.655238 0
M  V30 914 H 88.2489 -4.16603 -0.288342 0
M  V30 915 N 88.686 -0.835752 -1.33615 0
M  V30 916 C 89.649 -0.272 -2.2758 0
M  V30 917 C 90.649 0.557487 -1.50827 0
M  V30 918 O 91.839 0.37173 -1.70188 0
M  V30 919 C 88.971 0.617173 -3.35267 0
M  V30 920 H 90.164 -1.10111 -2.78954 0
M  V30 921 H 87.717 -0.608594 -1.43965 0
M  V30 922 H 88.452 1.46884 -2.89129 0
M  V30 923 H 88.237 0.0237066 -3.92093 0
M  V30 924 H 89.727 1.005 -4.05326 0
M  V30 925 N 90.1641 1.46063 -0.591896 0
M  V30 926 C 91.4411 1.95595 -0.0137119 0
M  V30 927 C 91.8211 1.5345 1.4497 0
M  V30 928 O 91.1691 0.789543 2.14426 0
M  V30 929 C 91.3791 3.48453 -0.195373 0
M  V30 930 C 92.7271 4.24546 -0.0679765 0
M  V30 931 O 93.7511 3.55982 -0.124681 0
M  V30 932 O 92.6101 5.46467 0.0600579 0
M  V30 933 H 89.7041 0.825795 0.0446279 0
M  V30 934 H 92.2501 1.56303 -0.660859 0
M  V30 935 H 91.0221 3.72045 -1.21235 0
M  V30 936 H 90.6451 3.94597 0.487775 0
M  V30 937 N 91.6422 0.330177 1.54103 0
M  V30 938 C 92.8702 -0.272179 2.05102 0
M  V30 939 C 93.2852 -1.45267 1.20595 0
M  V30 940 O 92.6422 -1.8094 0.238144 0
M  V30 941 C 92.6932 -0.70023 3.54653 0
M  V30 942 O 92.4142 0.433301 4.35952 0
M  V30 943 C 93.9152 -1.3647 4.21771 0
M  V30 944 H 91.1352 -0.0549159 0.668749 0
M  V30 945 H 93.6792 0.478285 1.98828 0
M  V30 946 H 91.8342 -1.40066 3.61193 0
M  V30 947 H 92.2482 0.0947539 5.24414 0
M  V30 948 H 93.7222 -1.61509 5.27843 0
M  V30 949 H 94.1992 -2.31409 3.73292 0
M  V30 950 H 94.8052 -0.706675 4.19388 0
M  V30 951 N 93.1203 -1.57491 0.0584922 0
M  V30 952 C 94.0703 -2.08474 -0.923188 0
M  V30 953 C 95.0543 -0.991479 -1.26722 0
M  V30 954 O 96.2463 -1.25473 -1.24842 0
M  V30 955 C 93.3753 -2.6392 -2.19548 0
M  V30 956 C 92.4613 -3.80227 -1.87852 0
M  V30 957 N 92.8523 -4.89714 -1.26546 0
M  V30 958 C 91.1503 -3.89271 -2.17679 0
M  V30 959 C 91.8513 -5.70689 -1.12644 0
M  V30 960 N 90.8273 -5.18531 -1.63176 0
M  V30 961 H 94.6293 -2.90517 -0.444653 0
M  V30 962 H 92.1433 -1.61745 -0.145764 0
M  V30 963 H 94.1403 -2.98752 -2.9078 0
M  V30 964 H 92.8003 -1.83318 -2.68001 0
M  V30 965 H 93.8113 -5.09358 -0.936757 0
M  V30 966 H 90.4883 -3.19623 -2.68602 0
M  V30 967 H 91.8783 -6.6875 -0.6499 0
M  V30 968 N 94.5984 0.214957 -1.56127 0
M  V30 969 C 95.5084 1.28727 -1.96129 0
M  V30 970 C 96.5244 1.50916 -0.866044 0
M  V30 971 O 97.7004 1.63918 -1.17016 0
M  V30 972 C 94.7654 2.61569 -2.27558 0
M  V30 973 C 93.8264 2.47625 -3.50685 0
M  V30 974 C 93.0594 3.74132 -3.80606 0
M  V30 975 O 93.2824 4.77438 -3.12104 0
M  V30 976 O 92.2164 3.70849 -4.74083 0
M  V30 977 H 96.0424 0.977855 -2.87527 0
M  V30 978 H 93.6274 0.418358 -1.43423 0
M  V30 979 H 95.5094 3.40012 -2.48938 0
M  V30 980 H 94.1844 2.92178 -1.39332 0
M  V30 981 H 93.0914 1.67361 -3.34576 0
M  V30 982 H 94.4244 2.21954 -4.39315 0
M  V30 983 N 96.0765 1.50051 0.48192 0
M  V30 984 C 97.3245 1.60181 1.23234 0
M  V30 985 C 97.6455 0.299176 1.92691 0
M  V30 986 O 96.9155 -0.682708 1.83619 0
M  V30 987 H 95.4955 0.590232 0.457859 0
M  V30 988 H 98.1575 1.86775 0.556881 0
M  V30 989 H 97.2535 2.40753 1.98607 0
M  V30 990 N 97.5546 -0.734337 1.39446 0
M  V30 991 C 98.5046 -1.83949 1.34709 0
M  V30 992 C 99.4886 -1.59279 0.227851 0
M  V30 993 O 100.681 -1.70771 0.465438 0
M  V30 994 C 97.8096 -3.21884 1.19356 0
M  V30 995 C 96.8956 -3.52381 2.35984 0
M  V30 996 N 97.2866 -3.53811 3.61457 0
M  V30 997 C 95.5846 -3.82747 2.28956 0
M  V30 998 C 96.2856 -3.82122 4.38586 0
M  V30 999 N 95.2616 -3.9993 3.68181 0
M  V30 1000 H 99.0636 -1.83361 2.29687 0
M  V30 1001 H 96.5776 -0.932609 1.32952 0
M  V30 1002 H 98.5746 -4.00998 1.14046 0
M  V30 1003 H 97.2346 -3.23711 0.253295 0
M  V30 1004 H 98.2456 -3.35107 3.94872 0
M  V30 1005 H 94.9226 -3.92175 1.43194 0
M  V30 1006 H 96.3126 -3.89691 5.47349 0
M  V30 1007 N 99.0327 -1.24633 -0.964593 0
M  V30 1008 C 100.282 -1.08188 -1.7023 0
M  V30 1009 C 100.595 0.37873 -1.91898 0
M  V30 1010 O 101.801 0.663427 -2.6327 0
M  V30 1011 C 100.257 -1.88773 -3.06419 0
M  V30 1012 C 99.8647 -3.39263 -2.92582 0
M  V30 1013 C 101.609 -1.80867 -3.84041 0
M  V30 1014 C 99.5157 -4.1218 -4.24101 0
M  V30 1015 H 98.4457 -0.401245 -0.638372 0
M  V30 1016 H 101.097 -1.48742 -1.07462 0
M  V30 1017 H 99.4787 -1.41035 -3.70034 0
M  V30 1018 H 100.653 -3.94603 -2.37961 0
M  V30 1019 H 98.9677 -3.48154 -2.28424 0
M  V30 1020 H 101.565 -2.32646 -4.81435 0
M  V30 1021 H 101.908 -0.774543 -4.09031 0
M  V30 1022 H 102.441 -2.26301 -3.27159 0
M  V30 1023 H 99.1797 -5.15965 -4.04303 0
M  V30 1024 H 98.6997 -3.61626 -4.78526 0
M  V30 1025 H 100.379 -4.19349 -4.92702 0
M  V30 1026 N 100.511 1.16574 -1.06058 0
M  V30 1027 C 101.739 1.90952 -0.796552 0
M  V30 1028 C 102.154 1.77302 0.648808 0
M  V30 1029 O 101.511 1.11605 1.44397 0
M  V30 1030 C 101.562 3.41736 -1.17894 0
M  V30 1031 O 101.283 3.54975 -2.56758 0
M  V30 1032 C 102.784 4.33169 -0.942308 0
M  V30 1033 H 100.004 0.605594 -0.288959 0
M  V30 1034 H 102.548 1.47777 -1.41358 0
M  V30 1035 H 100.703 3.82623 -0.606491 0
M  V30 1036 H 101.117 4.4846 -2.72 0
M  V30 1037 H 102.591 5.37439 -1.25952 0
M  V30 1038 H 103.068 4.3903 0.122078 0
M  V30 1039 H 103.674 3.98007 -1.49902 0
M  V30 1040 N 101.989 0.842826 1.3317 0
M  V30 1041 C 103.214 0.453129 2.02389 0
M  V30 1042 C 103.639 -0.939105 1.6298 0
M  V30 1043 O 102.997 -1.61472 0.8244 0
M  V30 1044 C 103.045 0.586094 3.55805 0
M  V30 1045 O 102.149 -0.386029 4.10589 0
M  V30 1046 H 101.49 0.183664 0.638094 0
M  V30 1047 H 104.02 1.13875 1.69981 0
M  V30 1048 H 104.03 0.469209 4.05293 0
M  V30 1049 H 102.705 1.6014 3.83833 0
M  V30 1050 H 101.282 -0.226371 3.72212 0
M  V30 1051 N 103.467 -1.45747 0.599634 0
M  V30 1052 C 104.744 -1.95585 0.0240846 0
M  V30 1053 C 105.124 -1.54217 -1.44154 0
M  V30 1054 O 104.472 -0.800903 -2.14004 0
M  V30 1055 C 104.682 -3.48344 0.21385 0
M  V30 1056 C 106.03 -4.24504 0.0904902 0
M  V30 1057 O 107.054 -3.55911 0.143558 0
M  V30 1058 O 105.913 -5.46491 -0.0310766 0
M  V30 1059 H 103.007 -0.82602 -0.0402478 0
M  V30 1060 H 105.553 -1.55951 0.669139 0
M  V30 1061 H 104.325 -3.71397 1.23206 0
M  V30 1062 H 103.948 -3.9485 -0.466842 0
M  V30 1063 N 104.945 -0.338344 -1.53925 0
M  V30 1064 C 105.875 0.51328 -2.27789 0
M  V30 1065 C 106.856 1.107 -1.29149 0
M  V30 1066 O 108.041 1.12937 -1.57984 0
M  V30 1067 C 105.171 1.66697 -3.04679 0
M  V30 1068 C 104.125 1.20183 -4.1078 0
M  V30 1069 C 103.451 2.44363 -4.75595 0
M  V30 1070 C 104.751 0.30605 -5.21403 0
M  V30 1071 H 106.445 -0.102883 -2.99223 0
M  V30 1072 H 103.991 -0.0509219 -1.4391 0
M  V30 1073 H 105.944 2.26915 -3.55088 0
M  V30 1074 H 104.668 2.30995 -2.30887 0
M  V30 1075 H 103.327 0.622499 -3.61276 0
M  V30 1076 H 102.975 3.07057 -3.98403 0
M  V30 1077 H 102.675 2.13925 -5.47275 0
M  V30 1078 H 104.199 3.05317 -5.28786 0
M  V30 1079 H 105.613 0.814929 -5.67478 0
M  V30 1080 H 104.01 0.0937929 -6.00027 0
M  V30 1081 H 105.08 -0.65921 -4.80398 0
M  V30 1082 N 106.423 1.57458 -0.0668435 0
M  V30 1083 C 107.355 2.09413 0.931601 0
M  V30 1084 C 108.368 1.02522 1.26464 0
M  V30 1085 O 109.557 1.30049 1.22269 0
M  V30 1086 C 106.657 2.53537 2.24882 0
M  V30 1087 C 105.83 3.83944 2.09537 0
M  V30 1088 C 104.889 4.14214 3.2452 0
M  V30 1089 O 103.915 4.83891 2.9973 0
M  V30 1090 N 105.117 3.67367 4.49469 0
M  V30 1091 H 107.882 2.95699 0.488048 0
M  V30 1092 H 105.443 1.61462 0.119009 0
M  V30 1093 H 107.435 2.70853 3.00701 0
M  V30 1094 H 106.005 1.72415 2.60753 0
M  V30 1095 H 105.225 3.76057 1.18215 0
M  V30 1096 H 106.513 4.69312 1.96529 0
M  V30 1097 H 105.911 3.11068 4.72497 0
M  V30 1098 H 104.468 3.89891 5.2233 0
M  V30 1099 N 107.901 -0.206675 1.56239 0
M  V30 1100 C 108.831 -1.25909 1.96645 0
M  V30 1101 C 109.812 -1.48097 0.836734 0
M  V30 1102 O 110.997 -1.6003 1.10019 0
M  V30 1103 C 108.127 -2.6058 2.29599 0
M  V30 1104 C 107.081 -2.53024 3.452 0
M  V30 1105 C 106.407 -3.91861 3.63798 0
M  V30 1106 C 107.707 -2.06524 4.79734 0
M  V30 1107 H 109.401 -0.923369 2.84806 0
M  V30 1108 H 106.947 -0.442735 1.37025 0
M  V30 1109 H 108.9 -3.34375 2.56459 0
M  V30 1110 H 107.624 -2.95869 1.38307 0
M  V30 1111 H 106.283 -1.81684 3.18412 0
M  V30 1112 H 105.931 -4.24483 2.69857 0
M  V30 1113 H 105.631 -3.87683 4.4156 0
M  V30 1114 H 107.155 -4.67296 3.93022 0
M  V30 1115 H 108.569 -2.70072 5.05702 0
M  V30 1116 H 106.966 -2.13374 5.60885 0
M  V30 1117 H 108.036 -1.01802 4.74093 0
M  V30 1118 N 109.379 -1.50304 -0.473955 0
M  V30 1119 C 110.604 -1.65175 -1.25427 0
M  V30 1120 C 111.029 -0.333673 -1.85117 0
M  V30 1121 O 110.387 0.702114 -1.67153 0
M  V30 1122 C 110.435 -2.74295 -2.34082 0
M  V30 1123 O 109.539 -2.35349 -3.38651 0
M  V30 1124 H 108.88 -0.551944 -0.369126 0
M  V30 1125 H 111.41 -1.96662 -0.564364 0
M  V30 1126 H 111.42 -2.97285 -2.79438 0
M  V30 1127 H 110.095 -3.69959 -1.90008 0
M  V30 1128 H 108.672 -2.22794 -2.99027 0
M  V30 1129 N 110.857 0.726932 -1.39834 0
M  V30 1130 C 112.085 1.51613 -1.40787 0
M  V30 1131 C 112.5 1.88799 -0.00451505 0
M  V30 1132 O 111.857 1.54662 0.968809 0
M  V30 1133 C 111.908 2.79863 -2.28821 0
M  V30 1134 O 111.629 2.44253 -3.63692 0
M  V30 1135 C 113.13 3.73837 -2.38245 0
M  V30 1136 H 110.35 0.468264 -0.480593 0
M  V30 1137 H 112.894 0.897607 -1.83748 0
M  V30 1138 H 111.049 3.38027 -1.89252 0
M  V30 1139 H 111.463 3.26695 -4.1033 0
M  V30 1140 H 112.937 4.60699 -3.04073 0
M  V30 1141 H 113.414 4.16153 -1.40403 0
M  V30 1142 H 114.02 3.21589 -2.78317 0
M  V30 1143 N 112.336 1.25143 0.95797 0
M  V30 1144 C 113.566 1.12261 1.73439 0
M  V30 1145 C 113.974 -0.326715 1.86358 0
M  V30 1146 O 113.317 -1.2367 1.35836 0
M  V30 1147 C 113.379 1.69966 3.16784 0
M  V30 1148 C 113.043 3.18936 3.27305 0
M  V30 1149 C 114.04 4.15968 3.11877 0
M  V30 1150 C 111.725 3.59083 3.51234 0
M  V30 1151 C 113.719 5.51126 3.20217 0
M  V30 1152 C 111.406 4.9438 3.5921 0
M  V30 1153 C 112.404 5.90211 3.43716 0
M  V30 1154 O 112.092 7.23046 3.51368 0
M  V30 1155 H 111.824 0.392476 0.550399 0
M  V30 1156 H 114.378 1.65927 1.21068 0
M  V30 1157 H 112.608 1.10744 3.70503 0
M  V30 1158 H 114.297 1.52232 3.76272 0
M  V30 1159 H 115.063 3.86292 2.93264 0
M  V30 1160 H 110.942 2.84989 3.62356 0
M  V30 1161 H 114.486 6.25905 3.0804 0
M  V30 1162 H 110.383 5.23723 3.77339 0
M  V30 1163 H 111.151 7.31097 3.6802 0
M  V30 1164 N 113.814 -1.1601 1.06675 0
M  V30 1165 C 114.744 -2.22688 0.702307 0
M  V30 1166 C 115.725 -1.67306 -0.307032 0
M  V30 1167 O 116.91 -1.93352 -0.181305 0
M  V30 1168 C 114.04 -3.47178 0.092038 0
M  V30 1169 C 112.994 -4.15477 1.02777 0
M  V30 1170 C 112.32 -5.33963 0.28061 0
M  V30 1171 C 113.62 -4.66019 2.35846 0
M  V30 1172 H 115.314 -2.53429 1.59419 0
M  V30 1173 H 112.86 -1.21813 0.767961 0
M  V30 1174 H 114.813 -4.21037 -0.174814 0
M  V30 1175 H 113.537 -3.15749 -0.834877 0
M  V30 1176 H 112.196 -3.43549 1.27944 0
M  V30 1177 H 111.844 -4.98788 -0.649545 0
M  V30 1178 H 111.544 -5.806 0.904258 0
M  V30 1179 H 113.068 -6.10596 0.021396 0
M  V30 1180 H 114.482 -5.3144 2.15045 0
M  V30 1181 H 112.879 -5.23293 2.93743 0
M  V30 1182 H 113.949 -3.82023 2.98641 0
M  V30 1183 N 115.292 -0.849877 -1.32721 0
M  V30 1184 C 116.569 -0.372405 -1.92022 0
M  V30 1185 C 116.949 1.1435 -1.77447 0
M  V30 1186 O 116.297 1.96296 -1.16962 0
M  V30 1187 C 116.507 -0.831482 -3.3895 0
M  V30 1188 C 117.855 -0.845882 -4.16089 0
M  V30 1189 O 118.879 -0.775806 -3.47649 0
M  V30 1190 O 117.738 -0.943753 -5.38289 0
M  V30 1191 H 114.832 -0.107667 -0.819961 0
M  V30 1192 H 117.378 -0.93646 -1.41522 0
M  V30 1193 H 116.15 -1.87448 -3.4348 0
M  V30 1194 H 115.773 -0.24461 -3.96847 0
M  V30 1195 N 116.77 1.45427 -0.607355 0
M  V30 1196 C 118.181 1.85756 -0.187535 0
M  V30 1197 C 118.532 1.5077 1.25551 0
M  V30 1198 O 117.657 0.93427 1.95193 0
M  V30 1199 C 118.252 3.37154 -0.333572 0
M  V30 1200 C 116.811 3.76387 0.0315542 0
M  V30 1201 C 115.958 2.69377 -0.658117 0
M  V30 1202 H 118.909 1.36231 -0.81405 0
M  V30 1203 H 118.93 3.78014 0.43428 0
M  V30 1204 H 118.442 3.62586 -1.38393 0
M  V30 1205 H 116.543 3.56571 1.0811 0
M  V30 1206 H 116.656 4.77731 -0.361935 0
M  V30 1207 H 115.02 2.5452 -0.0957873 0
M  V30 1208 H 115.803 2.97646 -1.7106 0
M  V30 1209 N 118.248 0.346503 1.53744 0
M  V30 1210 C 119.211 -0.496439 2.23759 0
M  V30 1211 C 120.211 -1.0252 1.2388 0
M  V30 1212 O 121.401 -0.913974 1.48297 0
M  V30 1213 C 118.533 -1.69187 2.95954 0
M  V30 1214 H 119.726 0.115952 2.99676 0
M  V30 1215 H 117.279 0.0978939 1.55993 0
M  V30 1216 H 118.014 -2.34288 2.24231 0
M  V30 1217 H 117.799 -1.31989 3.69217 0
M  V30 1218 H 119.289 -2.28969 3.49232 0
M  V30 1219 N 119.726 -1.57421 0.075193 0
M  V30 1220 C 120.656 -2.15942 -0.888324 0
M  V30 1221 C 121.637 -1.08737 -1.30806 0
M  V30 1222 O 122.822 -1.36787 -1.37851 0
M  V30 1223 C 119.952 -2.72379 -2.1547 0
M  V30 1224 C 118.906 -3.8478 -1.87425 0
M  V30 1225 C 118.232 -4.27834 -3.20721 0
M  V30 1226 C 119.532 -5.08869 -1.17684 0
M  V30 1227 H 121.226 -2.96705 -0.400799 0
M  V30 1228 H 118.772 -1.42723 -0.191342 0
M  V30 1229 H 120.725 -3.11965 -2.83295 0
M  V30 1230 H 119.449 -1.88841 -2.6647 0
M  V30 1231 H 118.108 -3.45703 -1.22004 0
M  V30 1232 H 117.756 -3.41214 -3.6957 0
M  V30 1233 H 117.456 -5.03605 -3.02746 0
M  V30 1234 H 118.98 -4.70039 -3.89738 0
M  V30 1235 H 120.394 -5.4575 -1.75584 0
M  V30 1236 H 118.791 -5.8994 -1.09956 0
M  V30 1237 H 119.861 -4.84648 -0.156453 0
M  V30 1238 N 121.204 0.198386 -1.56346 0
M  V30 1239 C 122.114 1.2664 -1.97483 0
M  V30 1240 C 123.13 1.49989 -0.882002 0
M  V30 1241 O 124.306 1.62668 -1.18748 0
M  V30 1242 C 121.371 2.59141 -2.30319 0
M  V30 1243 C 120.432 2.43892 -3.53292 0
M  V30 1244 C 119.665 3.70074 -3.84553 0
M  V30 1245 O 119.888 4.74101 -3.1715 0
M  V30 1246 O 118.822 3.658 -4.7799 0
M  V30 1247 H 122.648 0.947304 -2.88548 0
M  V30 1248 H 120.233 0.403123 -1.43859 0
M  V30 1249 H 122.115 3.37352 -2.5253 0
M  V30 1250 H 120.79 2.90684 -1.42423 0
M  V30 1251 H 119.697 1.63803 -3.36332 0
M  V30 1252 H 121.03 2.17282 -4.41644 0
M  V30 1253 N 122.682 1.50554 0.465978 0
M  V30 1254 C 123.612 1.72722 1.57128 0
M  V30 1255 C 124.593 0.576294 1.6004 0
M  V30 1256 O 125.778 0.81598 1.76225 0
M  V30 1257 C 122.908 1.82605 2.95419 0
M  V30 1258 C 121.862 2.97835 3.07373 0
M  V30 1259 C 121.188 2.92867 4.47363 0
M  V30 1260 C 122.488 4.38265 2.84114 0
M  V30 1261 H 124.182 2.65267 1.38829 0
M  V30 1262 H 121.728 1.2765 0.666441 0
M  V30 1263 H 123.681 1.96698 3.72677 0
M  V30 1264 H 122.405 0.866858 3.14886 0
M  V30 1265 H 121.064 2.83401 2.3255 0
M  V30 1266 H 120.712 1.94783 4.63755 0
M  V30 1267 H 120.412 3.70227 4.56296 0
M  V30 1268 H 121.936 3.09015 5.26633 0
M  V30 1269 H 123.35 4.53198 3.51118 0
M  V30 1270 H 121.747 5.17115 3.04487 0
M  V30 1271 H 122.817 4.50281 1.7993 0
M  V30 1272 N 124.16 -0.719506 1.40217 0
M  V30 1273 C 125.408 -1.47641 1.3801 0
M  V30 1274 C 125.729 -1.94992 -0.018145 0
M  V30 1275 O 124.999 -1.70073 -0.972207 0
M  V30 1276 H 123.579 -0.547744 0.507923 0
M  V30 1277 H 126.241 -0.853187 1.75233 0
M  V30 1278 H 125.337 -2.35112 2.05253 0
M  V30 1279 N 125.638 -1.25649 -0.95132 0
M  V30 1280 C 127.049 -1.09654 -1.51106 0
M  V30 1281 C 127.4 0.326615 -1.93462 0
M  V30 1282 O 126.525 1.21697 -1.78938 0
M  V30 1283 C 127.12 -1.98437 -2.74605 0
M  V30 1284 C 125.679 -1.86618 -3.2688 0
M  V30 1285 C 124.826 -1.9239 -1.99703 0
M  V30 1286 H 127.777 -1.38887 -0.767865 0
M  V30 1287 H 127.798 -1.5263 -3.48546 0
M  V30 1288 H 127.31 -3.02009 -2.43746 0
M  V30 1289 H 125.411 -0.859421 -3.62553 0
M  V30 1290 H 125.524 -2.71607 -3.94673 0
M  V30 1291 H 123.888 -1.36317 -2.15151 0
M  V30 1292 H 124.671 -2.97573 -1.71188 0
M  V30 1293 N 127.117 1.15442 -1.07289 0
M  V30 1294 C 128.533 1.38201 -0.798288 0
M  V30 1295 C 128.733 1.92429 0.597769 0
M  V30 1296 O 127.789 2.12962 1.3566 0
M  V30 1297 C 129.102 2.35357 -1.87156 0
M  V30 1298 C 130.65 2.49021 -1.89624 0
M  V30 1299 C 131.125 3.49468 -2.96034 0
M  V30 1300 N 132.616 3.57003 -2.95132 0
M  V30 1301 C 133.351 4.34543 -3.74112 0
M  V30 1302 N 132.847 5.15421 -4.6294 0
M  V30 1303 N 134.64 4.29625 -3.62462 0
M  V30 1304 H 126.791 0.78584 -1.97328 0
M  V30 1305 H 129.054 0.408065 -0.855679 0
M  V30 1306 H 128.76 2.02626 -2.87464 0
M  V30 1307 H 128.634 3.35129 -1.73114 0
M  V30 1308 H 131.021 2.81051 -0.899687 0
M  V30 1309 H 131.102 1.4925 -2.07745 0
M  V30 1310 H 130.746 3.18173 -3.95889 0
M  V30 1311 H 130.676 4.48992 -2.75161 0
M  V30 1312 H 133.167 2.99276 -2.30743 0
M  V30 1313 H 133.48 5.7183 -5.19837 0
M  V30 1314 H 131.825 5.14729 -4.66989 0
M  V30 1315 H 135.016 3.65505 -2.92444 0
M  V30 1316 H 135.189 4.89807 -4.24256 0
M  V30 1317 N 128.595 0.856903 1.32268 0
M  V30 1318 C 129.543 0.291987 2.3076 0
M  V30 1319 C 130.537 -0.585857 1.58947 0
M  V30 1320 O 131.743 -0.47341 1.73663 0
M  V30 1321 H 128.118 0.075721 0.748178 0
M  V30 1322 H 130.089 1.13687 2.75895 0
M  V30 1323 C 128.838 -0.502869 3.44044 0
M  V30 1324 H 128.161 0.163328 3.99466 0
M  V30 1325 H 129.601 -0.863691 4.1511 0
M  V30 1326 C 128.06 -1.68898 2.91505 0
M  V30 1327 O 128.59 -2.78811 2.89184 0
M  V30 1328 N 126.796 -1.51679 2.47875 0
M  V30 1329 H 126.343 -0.622666 2.49961 0
M  V30 1330 H 126.301 -2.31184 2.13076 0
M  V30 1331 N 130.073 -1.45103 0.615059 0
M  V30 1332 C 131.319 -2.02483 0.113347 0
M  V30 1333 C 131.652 -1.48146 -1.25564 0
M  V30 1334 O 130.927 -0.659104 -1.82992 0
M  V30 1335 C 131.21 -3.60005 0.0825278 0
M  V30 1336 C 131.063 -4.2466 1.48271 0
M  V30 1337 C 132.382 -4.35972 -0.601401 0
M  V30 1338 H 129.501 -0.735764 0.0426632 0
M  V30 1339 H 132.143 -1.72868 0.788461 0
M  V30 1340 H 130.293 -3.85367 -0.492378 0
M  V30 1341 H 131.965 -4.10458 2.10527 0
M  V30 1342 H 130.208 -3.82772 2.04127 0
M  V30 1343 H 130.879 -5.336 1.41332 0
M  V30 1344 H 133.355 -4.15947 -0.112666 0
M  V30 1345 H 132.231 -5.45697 -0.592097 0
M  V30 1346 H 132.492 -4.09391 -1.66887 0
M  V30 1347 N 131.551 -0.354651 -1.53558 0
M  V30 1348 C 132.481 0.489091 -2.2832 0
M  V30 1349 C 133.462 1.09324 -1.30316 0
M  V30 1350 O 134.647 1.11255 -1.59173 0
M  V30 1351 C 131.777 1.63456 -3.0643 0
M  V30 1352 C 130.731 1.1582 -4.12031 0
M  V30 1353 C 130.057 2.39305 -4.7816 0
M  V30 1354 C 131.357 0.250731 -5.21698 0
M  V30 1355 H 133.051 -0.134614 -2.99097 0
M  V30 1356 H 130.597 -0.0661826 -1.43848 0
M  V30 1357 H 132.55 2.23136 -3.57475 0
M  V30 1358 H 131.274 2.28533 -2.33325 0
M  V30 1359 H 129.933 0.584146 -3.61916 0
M  V30 1360 H 129.581 3.02814 -4.01637 0
M  V30 1361 H 129.281 2.08109 -5.49513 0
M  V30 1362 H 130.805 2.99691 -5.31994 0
M  V30 1363 H 132.219 0.754695 -5.68311 0
M  V30 1364 H 130.616 0.0301468 -6.00092 0
M  V30 1365 H 131.686 -0.710125 -4.79672 0
M  V30 1366 N 133.029 1.57378 -0.0835403 0
M  V30 1367 C 133.959 2.1641 0.87686 0
M  V30 1368 C 134.94 1.09429 1.30228 0
M  V30 1369 O 136.125 1.37516 1.37124 0
M  V30 1370 C 133.255 2.73517 2.14022 0
M  V30 1371 C 132.209 3.85769 1.85381 0
M  V30 1372 C 131.535 4.29529 3.18448 0
M  V30 1373 C 132.835 5.09486 1.14984 0
M  V30 1374 H 134.529 2.96914 0.385059 0
M  V30 1375 H 132.075 1.42823 0.18377 0
M  V30 1376 H 134.028 3.13463 2.81636 0
M  V30 1377 H 132.752 1.90252 2.65465 0
M  V30 1378 H 131.411 3.46345 1.20169 0
M  V30 1379 H 131.059 3.43169 3.67755 0
M  V30 1380 H 130.759 5.05204 3.00071 0
M  V30 1381 H 132.283 4.72099 3.8724 0
M  V30 1382 H 133.697 5.46674 1.72687 0
M  V30 1383 H 132.094 5.90515 1.06826 0
M  V30 1384 H 133.164 4.84724 0.130749 0
M  V30 1385 N 134.507 -0.190092 1.56449 0
M  V30 1386 C 135.754 -0.909705 1.80916 0
M  V30 1387 C 136.082 -1.83047 0.657583 0
M  V30 1388 O 135.337 -1.92428 -0.356356 0
M  V30 1389 C 135.636 -1.75382 3.1141 0
M  V30 1390 C 135.302 -0.983606 4.40041 0
M  V30 1391 C 133.964 -0.770967 4.74984 0
M  V30 1392 C 136.316 -0.442024 5.19322 0
M  V30 1393 C 133.644 -0.0053448 5.867 0
M  V30 1394 C 135.996 0.310412 6.31838 0
M  V30 1395 C 134.66 0.534023 6.6536 0
M  V30 1396 H 133.93 -0.332885 0.662019 0
M  V30 1397 H 136.577 -0.175762 1.90692 0
M  V30 1398 H 134.882 -2.55659 2.96893 0
M  V30 1399 H 136.579 -2.31331 3.27547 0
M  V30 1400 H 133.169 -1.15936 4.12622 0
M  V30 1401 H 137.353 -0.593693 4.92736 0
M  V30 1402 H 132.609 0.177825 6.11141 0
M  V30 1403 H 136.783 0.737419 6.92485 0
M  V30 1404 H 134.41 1.12918 7.51767 0
M  V30 1405 N 135.985 -1.50799 -0.457987 0
M  V30 1406 C 136.915 -1.73553 -1.5621 0
M  V30 1407 C 137.896 -0.584774 -1.59732 0
M  V30 1408 O 139.081 -0.825314 -1.7579 0
M  V30 1409 C 136.211 -1.84169 -2.94447 0
M  V30 1410 C 135.165 -2.99461 -3.0579 0
M  V30 1411 C 134.491 -2.95235 -4.45803 0
M  V30 1412 C 135.791 -4.39766 -2.81786 0
M  V30 1413 H 137.485 -2.66 -1.37421 0
M  V30 1414 H 135.031 -1.28002 -0.659662 0
M  V30 1415 H 136.984 -1.98672 -3.71628 0
M  V30 1416 H 135.708 -0.883545 -3.14422 0
M  V30 1417 H 134.367 -2.8463 -2.31044 0
M  V30 1418 H 134.015 -1.97239 -4.62715 0
M  V30 1419 H 133.715 -3.72642 -4.54326 0
M  V30 1420 H 135.239 -3.11803 -5.24987 0
M  V30 1421 H 136.653 -4.55054 -3.4871 0
M  V30 1422 H 135.05 -5.18722 -3.0174 0
M  V30 1423 H 136.12 -4.51229 -1.7754 0
M  V30 1424 N 137.463 0.71206 -1.40597 0
M  V30 1425 C 138.395 1.83704 -1.37061 0
M  V30 1426 C 139.408 1.60453 -0.275426 0
M  V30 1427 O 140.597 1.70262 -0.53602 0
M  V30 1428 C 137.697 3.20172 -1.11099 0
M  V30 1429 C 136.87 3.7059 -2.3234 0
M  V30 1430 C 135.929 4.85681 -2.02485 0
M  V30 1431 O 134.955 4.9815 -2.75382 0
M  V30 1432 N 136.157 5.71735 -1.00497 0
M  V30 1433 H 138.922 1.87235 -2.34016 0
M  V30 1434 H 136.483 0.893739 -1.34996 0
M  V30 1435 H 138.475 3.94768 -0.891064 0
M  V30 1436 H 137.045 3.11767 -0.227989 0
M  V30 1437 H 136.265 2.87085 -2.7014 0
M  V30 1438 H 137.553 4.01011 -3.13157 0
M  V30 1439 H 136.951 5.64275 -0.401298 0
M  V30 1440 H 135.508 6.463 -0.844942 0
M  V30 1441 N 138.941 1.26152 0.944643 0
M  V30 1442 C 140.218 1.02247 1.66748 0
M  V30 1443 C 140.598 -0.448202 2.06287 0
M  V30 1444 O 139.946 -1.42779 1.78399 0
M  V30 1445 C 140.156 1.96788 2.88228 0
M  V30 1446 C 141.504 2.25201 3.59958 0
M  V30 1447 O 142.528 1.94626 2.98327 0
M  V30 1448 O 141.387 2.77242 4.70956 0
M  V30 1449 H 138.481 0.388517 0.730057 0
M  V30 1450 H 141.027 1.37348 0.99668 0
M  V30 1451 H 139.799 2.96047 2.55875 0
M  V30 1452 H 139.422 1.62145 3.63035 0
M  V30 1453 N 140.419 -1.14872 1.07899 0
M  V30 1454 C 141.366 -2.19791 0.704319 0
M  V30 1455 C 142.336 -1.63238 -0.306987 0
M  V30 1456 O 143.521 -1.8983 -0.192171 0
M  V30 1457 C 140.661 -3.44911 0.114244 0
M  V30 1458 C 139.774 -4.15637 1.1777 0
M  V30 1459 C 138.909 -5.28324 0.552037 0
M  V30 1460 C 137.948 -5.90875 1.59789 0
M  V30 1461 N 137.085 -6.95022 0.994404 0
M  V30 1462 H 141.925 -2.5119 1.60336 0
M  V30 1463 H 139.462 -1.23356 0.801352 0
M  V30 1464 H 141.42 -4.16477 -0.245544 0
M  V30 1465 H 140.05 -3.14011 -0.74813 0
M  V30 1466 H 139.102 -3.42512 1.65499 0
M  V30 1467 H 140.414 -4.5823 1.97046 0
M  V30 1468 H 139.568 -6.06538 0.1402 0
M  V30 1469 H 138.307 -4.86939 -0.272431 0
M  V30 1470 H 137.312 -5.11369 2.01945 0
M  V30 1471 H 138.537 -6.34337 2.42474 0
M  V30 1472 H 136.483 -6.55722 0.190939 0
M  V30 1473 H 136.4 -7.36073 1.72432 0
M  V30 1474 H 137.668 -7.77123 0.608253 0
M  V30 1475 N 141.898 -0.863906 -1.31812 0
M  V30 1476 C 142.828 -0.330843 -2.31144 0
M  V30 1477 C 143.809 0.575005 -1.60087 0
M  V30 1478 O 144.994 0.493304 -1.8783 0
M  V30 1479 C 142.124 0.47374 -3.44054 0
M  V30 1480 C 141.078 -0.338481 -4.26659 0
M  V30 1481 C 140.404 0.591412 -5.31419 0
M  V30 1482 C 141.704 -1.56926 -4.98168 0
M  V30 1483 H 143.398 -1.16086 -2.75979 0
M  V30 1484 H 140.944 -0.559657 -1.32679 0
M  V30 1485 H 142.897 0.857143 -4.12591 0
M  V30 1486 H 141.621 1.33721 -2.9797 0
M  V30 1487 H 140.28 -0.703754 -3.59782 0
M  V30 1488 H 139.928 1.45199 -4.81587 0
M  V30 1489 H 139.628 0.0519022 -5.87577 0
M  V30 1490 H 141.152 0.97179 -6.02817 0
M  V30 1491 H 142.566 -1.25764 -5.59336 0
M  V30 1492 H 140.963 -2.04739 -5.64094 0
M  V30 1493 H 142.033 -2.32544 -4.25501 0
M  V30 1494 N 143.376 1.44774 -0.622745 0
M  V30 1495 C 144.601 2.06999 -0.128968 0
M  V30 1496 C 145.026 1.4617 1.1839 0
M  V30 1497 O 144.384 0.560007 1.72434 0
M  V30 1498 C 144.432 3.60595 -0.0188351 0
M  V30 1499 O 143.536 3.99398 1.02739 0
M  V30 1500 H 142.877 0.659047 -0.0809544 0
M  V30 1501 H 145.407 1.85784 -0.85705 0
M  V30 1502 H 145.417 4.07627 0.174476 0
M  V30 1503 H 144.092 4.04252 -0.977384 0
M  V30 1504 H 142.669 3.64011 0.809326 0
M  V30 1505 N 144.854 0.36279 1.53368 0
M  V30 1506 C 146.103 -0.22888 2.00397 0
M  V30 1507 C 146.416 -1.50096 1.25421 0
M  V30 1508 O 147.622 -2.17106 1.63025 0
M  V30 1509 C 146.078 -0.458417 3.56969 0
M  V30 1510 C 145.686 0.798877 4.4082 0
M  V30 1511 C 147.43 -1.00789 4.12361 0
M  V30 1512 C 145.337 0.539078 5.88938 0
M  V30 1513 H 144.267 -0.089305 0.748693 0
M  V30 1514 H 146.918 0.481099 1.77081 0
M  V30 1515 H 145.3 -1.22959 3.76427 0
M  V30 1516 H 146.474 1.57262 4.33134 0
M  V30 1517 H 144.789 1.27137 3.96516 0
M  V30 1518 H 147.386 -1.21754 5.20653 0
M  V30 1519 H 147.729 -1.9692 3.66781 0
M  V30 1520 H 148.262 -0.296961 3.9669 0
M  V30 1521 H 145.001 1.47064 6.3879 0
M  V30 1522 H 144.521 -0.196222 5.99479 0
M  V30 1523 H 146.2 0.163542 6.46793 0
M  V30 1524 N 146.332 -1.57332 0.0918853 0
M  V30 1525 C 147.242 -2.17368 -0.882505 0
M  V30 1526 C 148.258 -1.14226 -1.31257 0
M  V30 1527 O 149.434 -1.46582 -1.38115 0
M  V30 1528 C 146.499 -2.73962 -2.12476 0
M  V30 1529 C 145.56 -3.92048 -1.7492 0
M  V30 1530 C 144.793 -4.45933 -2.93223 0
M  V30 1531 O 145.016 -3.98764 -4.07852 0
M  V30 1532 O 143.95 -5.36999 -2.71875 0
M  V30 1533 H 147.776 -3.01031 -0.40172 0
M  V30 1534 H 145.361 -1.48813 -0.132291 0
M  V30 1535 H 147.243 -3.10147 -2.85283 0
M  V30 1536 H 145.918 -1.93347 -2.59613 0
M  V30 1537 H 144.825 -3.6068 -0.993025 0
M  V30 1538 H 146.158 -4.74017 -1.32548 0
M  V30 1539 N 147.81 0.181792 -1.56548 0
M  V30 1540 C 149.087 0.926765 -1.72251 0
M  V30 1541 C 149.467 2.00831 -0.650386 0
M  V30 1542 O 148.815 2.26008 0.336521 0
M  V30 1543 C 149.025 1.50106 -3.1507 0
M  V30 1544 C 150.373 1.97805 -3.75711 0
M  V30 1545 O 151.397 1.59922 -3.18282 0
M  V30 1546 O 150.256 2.67555 -4.76525 0
M  V30 1547 H 147.35 0.435506 -0.703039 0
M  V30 1548 H 149.896 0.170443 -1.68842 0
M  V30 1549 H 148.668 0.72212 -3.84579 0
M  V30 1550 H 148.291 2.32186 -3.22763 0
M  V30 1551 N 149.288 1.51039 0.449983 0
M  V30 1552 C 150.535 1.63081 1.20045 0
M  V30 1553 C 150.863 0.341024 1.91487 0
M  V30 1554 O 150.118 -0.674276 1.83717 0
M  V30 1555 C 150.417 2.77556 2.25161 0
M  V30 1556 C 150.083 4.17289 1.70823 0
M  V30 1557 C 148.745 4.55305 1.55725 0
M  V30 1558 C 151.097 5.04536 1.3074 0
M  V30 1559 C 148.425 5.78287 0.989999 0
M  V30 1560 C 150.777 6.28085 0.754482 0
M  V30 1561 C 149.441 6.64885 0.590308 0
M  V30 1562 H 148.711 0.596755 0.439277 0
M  V30 1563 H 151.358 1.85037 0.49333 0
M  V30 1564 H 149.663 2.49771 3.01863 0
M  V30 1565 H 151.36 2.84073 2.83026 0
M  V30 1566 H 147.95 3.8731 1.83546 0
M  V30 1567 H 152.134 4.75782 1.41229 0
M  V30 1568 H 147.39 6.05456 0.850451 0
M  V30 1569 H 151.564 6.95038 0.435324 0
M  V30 1570 H 149.191 7.60055 0.14862 0
M  V30 1571 N 150.766 -0.704594 1.40972 0
M  V30 1572 C 151.994 -1.49354 1.43182 0
M  V30 1573 C 152.409 -1.88768 0.0345508 0
M  V30 1574 O 151.766 -1.56184 -0.944081 0
M  V30 1575 C 151.817 -2.76187 2.33244 0
M  V30 1576 O 151.538 -2.38436 3.67532 0
M  V30 1577 C 153.039 -3.7 2.44162 0
M  V30 1578 H 150.259 -0.460559 0.487982 0
M  V30 1579 H 152.803 -0.868261 1.85153 0
M  V30 1580 H 150.958 -3.34974 1.94606 0
M  V30 1581 H 151.372 -3.20126 4.15475 0
M  V30 1582 H 152.846 -4.55803 3.11364 0
M  V30 1583 H 153.323 -4.13867 1.47006 0
M  V30 1584 H 153.929 -3.17121 2.83398 0
M  V30 1585 N 152.244 -1.26651 -0.937939 0
M  V30 1586 C 153.207 -1.08546 -2.01867 0
M  V30 1587 C 154.207 -0.0327327 -1.60767 0
M  V30 1588 O 155.397 -0.276427 -1.71993 0
M  V30 1589 C 152.529 -0.651711 -3.34613 0
M  V30 1590 H 153.722 -2.04502 -2.1936 0
M  V30 1591 H 151.275 -1.09294 -1.11734 0
M  V30 1592 H 152.01 0.309696 -3.22818 0
M  V30 1593 H 151.795 -1.41189 -3.65798 0
M  V30 1594 H 153.285 -0.546973 -4.14002 0
M  V30 1595 N 153.722 1.14298 -1.08507 0
M  V30 1596 C 154.952 1.88945 -0.835663 0
M  V30 1597 C 155.36 1.78894 0.615928 0
M  V30 1598 O 154.703 1.1468 1.43506 0
M  V30 1599 C 154.765 3.39585 -1.17994 0
M  V30 1600 C 154.429 3.7342 -2.63451 0
M  V30 1601 C 155.426 3.73454 -3.61702 0
M  V30 1602 C 153.111 4.03368 -2.99332 0
M  V30 1603 C 155.105 4.02961 -4.93864 0
M  V30 1604 C 152.792 4.32538 -4.31687 0
M  V30 1605 C 153.79 4.32318 -5.28763 0
M  V30 1606 O 153.478 4.6078 -6.58739 0
M  V30 1607 H 153.21 0.605307 -0.300965 0
M  V30 1608 H 155.764 1.45673 -1.44806 0
M  V30 1609 H 153.994 3.83315 -0.51055 0
M  V30 1610 H 155.683 3.9554 -0.911182 0
M  V30 1611 H 156.449 3.50403 -3.35325 0
M  V30 1612 H 152.328 4.02692 -2.24411 0
M  V30 1613 H 155.872 4.02704 -5.69627 0
M  V30 1614 H 151.769 4.55059 -4.57812 0
M  V30 1615 H 152.537 4.78492 -6.64069 0
M  V30 1616 N 155.201 0.870884 1.31352 0
M  V30 1617 C 156.449 0.48132 1.96285 0
M  V30 1618 C 156.77 -0.969813 1.69173 0
M  V30 1619 O 156.04 -1.67998 1.00764 0
M  V30 1620 H 154.62 0.175002 0.726212 0
M  V30 1621 H 157.282 1.11087 1.60143 0
M  V30 1622 H 156.378 0.639825 3.05471 0
M  V30 1623 N 156.679 -1.44442 0.630414 0
M  V30 1624 C 157.927 -2.01653 0.134351 0
M  V30 1625 C 158.248 -1.49836 -1.24796 0
M  V30 1626 O 157.518 -0.701684 -1.82902 0
M  V30 1627 H 156.098 -0.74554 0.0466769 0
M  V30 1628 H 158.76 -1.76952 0.816955 0
M  V30 1629 H 157.856 -3.11935 0.101498 0
M  V30 1630 N 158.157 -0.370918 -1.53173 0
M  V30 1631 C 159.403 0.217423 -2.01631 0
M  V30 1632 C 159.736 1.47983 -1.25756 0
M  V30 1633 O 159.011 1.91274 -0.352764 0
M  V30 1634 C 159.294 0.503982 -3.56556 0
M  V30 1635 C 159.147 -0.77243 -4.43118 0
M  V30 1636 C 160.466 1.30234 -4.20389 0
M  V30 1637 H 157.585 0.0775486 -0.732909 0
M  V30 1638 H 160.227 -0.496863 -1.83388 0
M  V30 1639 H 158.377 1.11248 -3.72231 0
M  V30 1640 H 160.049 -1.4098 -4.39229 0
M  V30 1641 H 158.292 -1.39167 -4.10871 0
M  V30 1642 H 158.963 -0.526815 -5.4948 0
M  V30 1643 H 161.439 0.787546 -4.08579 0
M  V30 1644 H 160.315 1.47158 -5.28806 0
M  V30 1645 H 160.576 2.31237 -3.76805 0
M  V30 1646 N 159.635 1.57281 -0.100228 0
M  V30 1647 C 160.882 1.94537 0.562268 0
M  V30 1648 C 161.21 0.982315 1.67871 0
M  V30 1649 O 160.465 0.00280936 1.957 0
M  V30 1650 C 160.764 3.38305 1.15259 0
M  V30 1651 C 160.43 4.50618 0.159409 0
M  V30 1652 C 159.092 4.81066 -0.113741 0
M  V30 1653 C 161.444 5.18615 -0.518461 0
M  V30 1654 C 158.772 5.76835 -1.07137 0
M  V30 1655 C 161.124 6.15412 -1.46459 0
M  V30 1656 C 159.788 6.44262 -1.74592 0
M  V30 1657 H 159.058 0.711863 0.205748 0
M  V30 1658 H 161.705 1.90679 -0.17715 0
M  V30 1659 H 160.01 3.38766 1.96836 0
M  V30 1660 H 161.707 3.64435 1.67297 0
M  V30 1661 H 158.297 4.2689 0.382491 0
M  V30 1662 H 162.481 4.95264 -0.320581 0
M  V30 1663 H 157.737 5.975 -1.29628 0
M  V30 1664 H 161.911 6.67194 -1.99564 0
M  V30 1665 H 159.538 7.1828 -2.48953 0
M  V30 1666 N 161.113 -0.173488 1.56642 0
M  V30 1667 C 162.361 -0.888706 1.81512 0
M  V30 1668 C 162.682 -1.82875 0.676872 0
M  V30 1669 O 161.952 -1.93536 -0.303414 0
M  V30 1670 H 160.532 -0.331164 0.669582 0
M  V30 1671 H 163.194 -0.173823 1.94123 0
M  V30 1672 H 162.29 -1.46691 2.75478 0
M  V30 1673 N 162.591 -1.51276 -0.441967 0
M  V30 1674 C 163.539 -1.72823 -1.55676 0
M  V30 1675 C 164.533 -0.59445 -1.58627 0
M  V30 1676 O 165.739 -0.775715 -1.62427 0
M  V30 1677 H 162.114 -0.545983 -0.517113 0
M  V30 1678 H 164.085 -2.6628 -1.34675 0
M  V30 1679 C 162.834 -1.86619 -2.93375 0
M  V30 1680 H 162.157 -2.73264 -2.91834 0
M  V30 1681 H 163.597 -2.05709 -3.70756 0
M  V30 1682 C 162.056 -0.624842 -3.31055 0
M  V30 1683 O 162.586 0.222636 -4.01083 0
M  V30 1684 N 160.792 -0.470288 -2.86769 0
M  V30 1685 H 160.339 -1.161 -2.29953 0
M  V30 1686 H 160.297 0.359051 -3.12343 0
M  V30 1687 N 164.069 0.697108 -1.41344 0
M  V30 1688 C 165.016 1.81106 -1.43071 0
M  V30 1689 C 165.986 1.63632 -0.285275 0
M  V30 1690 O 167.171 1.84504 -0.486091 0
M  V30 1691 C 164.311 3.18975 -1.31715 0
M  V30 1692 C 163.424 3.47892 -2.56115 0
M  V30 1693 C 162.559 4.75367 -2.37064 0
M  V30 1694 C 161.598 4.97247 -3.56948 0
M  V30 1695 N 160.735 6.15947 -3.36977 0
M  V30 1696 H 165.575 1.78965 -2.38276 0
M  V30 1697 H 163.112 0.873975 -1.18322 0
M  V30 1698 H 165.07 3.98615 -1.23133 0
M  V30 1699 H 163.7 3.20297 -0.401183 0
M  V30 1700 H 162.752 2.62669 -2.75153 0
M  V30 1701 H 164.064 3.59962 -3.45295 0
M  V30 1702 H 163.218 5.63059 -2.25941 0
M  V30 1703 H 161.957 4.65541 -1.45338 0
M  V30 1704 H 160.962 4.08004 -3.68527 0
M  V30 1705 H 162.187 5.08934 -4.49626 0
M  V30 1706 H 160.133 6.07336 -2.47949 0
M  V30 1707 H 160.05 6.28777 -4.19732 0
M  V30 1708 H 161.318 7.06377 -3.29623 0
M  V30 1709 N 165.547 1.27147 0.931209 0
M  V30 1710 C 166.479 1.05364 2.03546 0
M  V30 1711 C 167.492 0.0108438 1.62796 0
M  V30 1712 O 168.681 0.25202 1.76712 0
M  V30 1713 C 165.781 0.575566 3.33977 0
M  V30 1714 C 164.954 1.68985 4.03439 0
M  V30 1715 C 164.013 1.20813 5.12143 0
M  V30 1716 O 163.039 1.90712 5.363 0
M  V30 1717 N 164.241 0.0618851 5.80467 0
M  V30 1718 H 167.006 2.00454 2.22796 0
M  V30 1719 H 164.567 1.18666 1.10136 0
M  V30 1720 H 166.559 0.237264 4.04004 0
M  V30 1721 H 165.129 -0.282016 3.11325 0
M  V30 1722 H 164.349 2.19861 3.27192 0
M  V30 1723 H 165.637 2.4378 4.46597 0
M  V30 1724 H 165.035 -0.521621 5.6329 0
M  V30 1725 H 163.592 -0.217264 6.51438 0
M  V30 1726 N 167.025 -1.13721 1.09112 0
M  V30 1727 C 168.302 -1.81155 0.737706 0
M  V30 1728 C 168.682 -1.96253 -0.777683 0
M  V30 1729 O 168.03 -1.52807 -1.69889 0
M  V30 1730 C 168.24 -3.16392 1.47299 0
M  V30 1731 C 169.588 -3.91787 1.63671 0
M  V30 1732 O 170.612 -3.26005 1.43524 0
M  V30 1733 O 169.471 -5.0977 1.96969 0
M  V30 1734 H 166.565 -0.783518 0.26463 0
M  V30 1735 H 169.111 -1.20676 1.19312 0
M  V30 1736 H 167.883 -3.0061 2.50498 0
M  V30 1737 H 167.506 -3.8457 1.00953 0
M  V30 1738 N 168.503 -0.877838 -1.30888 0
M  V30 1739 C 169.728 -0.506629 -2.01117 0
M  V30 1740 C 170.153 0.895564 -1.65412 0
M  V30 1741 O 169.511 1.5923 -0.866922 0
M  V30 1742 C 169.559 -0.680223 -3.54126 0
M  V30 1743 O 168.663 0.277033 -4.11468 0
M  V30 1744 H 168.004 -0.200518 -0.633 0
M  V30 1745 H 170.534 -1.18342 -1.66902 0
M  V30 1746 H 170.544 -0.5765 -4.03907 0
M  V30 1747 H 169.219 -1.70261 -3.79452 0
M  V30 1748 H 167.796 0.127606 -3.72682 0
M  V30 1749 N 169.982 1.44106 -0.638065 0
M  V30 1750 C 170.945 2.29138 0.0531013 0
M  V30 1751 C 171.945 1.41409 0.765506 0
M  V30 1752 O 173.135 1.63206 0.609046 0
M  V30 1753 C 170.267 3.23144 1.08584 0
M  V30 1754 H 171.46 2.91739 -0.694883 0
M  V30 1755 H 169.013 1.51134 -0.398538 0
M  V30 1756 H 169.748 2.65408 1.86357 0
M  V30 1757 H 169.533 3.87804 0.578852 0
M  V30 1758 H 171.023 3.87004 1.56899 0
M  V30 1759 N 171.46 0.379036 1.52974 0
M  V30 1760 C 172.707 -0.206421 2.01445 0
M  V30 1761 C 173.035 -1.47668 1.26587 0
M  V30 1762 O 172.29 -1.92514 0.351675 0
M  V30 1763 C 172.589 -0.53096 3.53434 0
M  V30 1764 C 172.255 0.646546 4.46241 0
M  V30 1765 C 170.917 0.969604 4.7133 0
M  V30 1766 C 173.269 1.43479 5.01062 0
M  V30 1767 C 170.597 2.08263 5.48492 0
M  V30 1768 C 172.949 2.53834 5.7944 0
M  V30 1769 C 171.613 2.86659 6.02812 0
M  V30 1770 H 170.883 -0.0755349 0.73714 0
M  V30 1771 H 173.53 0.514271 1.84465 0
M  V30 1772 H 171.835 -1.33285 3.68432 0
M  V30 1773 H 173.532 -0.996417 3.88423 0
M  V30 1774 H 170.122 0.384734 4.2687 0
M  V30 1775 H 174.306 1.19844 4.81613 0
M  V30 1776 H 169.562 2.34078 5.64816 0
M  V30 1777 H 173.736 3.15319 6.20924 0
M  V30 1778 H 171.363 3.73026 6.62387 0
M  V30 1779 N 172.938 -1.57226 0.108567 0
M  V30 1780 C 174.163 -1.99604 -0.563303 0
M  V30 1781 C 174.588 -0.987563 -1.6009 0
M  V30 1782 O 173.946 0.0421687 -1.81251 0
M  V30 1783 C 173.994 -3.40902 -1.17552 0
M  V30 1784 O 173.098 -3.42896 -2.2912 0
M  V30 1785 H 172.439 -0.648704 -0.1417 0
M  V30 1786 H 174.969 -2.03679 0.193961 0
M  V30 1787 H 174.979 -3.78886 -1.51357 0
M  V30 1788 H 173.654 -4.1382 -0.415445 0
M  V30 1789 H 172.231 -3.1672 -1.96832 0
M  V30 1790 N 174.416 0.165178 -1.56732 0
M  V30 1791 C 175.364 1.22369 -1.97809 0
M  V30 1792 C 176.358 1.45488 -0.867741 0
M  V30 1793 O 177.564 1.45995 -1.05288 0
M  V30 1794 H 173.939 0.411486 -0.629431 0
M  V30 1795 H 175.91 0.850425 -2.86025 0
M  V30 1796 C 174.659 2.55403 -2.35934 0
M  V30 1797 H 173.982 2.38438 -3.20916 0
M  V30 1798 H 175.422 3.2814 -2.68514 0
M  V30 1799 C 173.881 3.14611 -1.20506 0
M  V30 1800 O 174.411 3.98626 -0.496016 0
M  V30 1801 N 172.617 2.7379 -0.97403 0
M  V30 1802 H 172.164 2.0557 -1.55238 0
M  V30 1803 H 172.122 3.1374 -0.203573 0
M  V30 1804 N 175.894 1.51508 0.433938 0
M  V30 1805 C 176.824 1.76016 1.53429 0
M  V30 1806 C 177.805 0.610112 1.58782 0
M  V30 1807 O 178.99 0.853177 1.74455 0
M  V30 1808 C 176.12 1.88831 2.9148 0
M  V30 1809 C 175.074 3.04288 3.00987 0
M  V30 1810 C 174.4 3.0229 4.4105 0
M  V30 1811 C 175.7 4.44193 2.74754 0
M  V30 1812 H 177.394 2.68152 1.33171 0
M  V30 1813 H 174.94 1.29035 0.639214 0
M  V30 1814 H 176.893 2.04559 3.6842 0
M  V30 1815 H 175.617 0.933455 3.12976 0
M  V30 1816 H 174.276 2.8827 2.26486 0
M  V30 1817 H 173.924 2.04576 4.59519 0
M  V30 1818 H 173.624 3.79822 4.4834 0
M  V30 1819 H 175.148 3.20116 5.1996 0
M  V30 1820 H 176.562 4.60544 3.41426 0
M  V30 1821 H 174.959 5.23457 2.9345 0
M  V30 1822 H 176.029 4.53996 1.70339 0
M  V30 1823 N 177.372 -0.689602 1.41712 0
M  V30 1824 C 178.282 -1.83314 1.46401 0
M  V30 1825 C 179.298 -1.7036 0.35405 0
M  V30 1826 O 180.474 -1.92171 0.602692 0
M  V30 1827 C 177.539 -3.19344 1.34982 0
M  V30 1828 C 176.6 -3.44363 2.56344 0
M  V30 1829 C 175.833 -4.73904 2.45461 0
M  V30 1830 O 176.056 -5.508 1.48241 0
M  V30 1831 O 174.99 -4.99839 3.35328 0
M  V30 1832 H 178.816 -1.82314 2.42889 0
M  V30 1833 H 176.401 -0.843438 1.23315 0
M  V30 1834 H 178.283 -4.00547 1.3092 0
M  V30 1835 H 176.958 -3.21014 0.41612 0
M  V30 1836 H 175.865 -2.63067 2.65982 0
M  V30 1837 H 177.198 -3.47512 3.48563 0
M  V30 1838 N 178.85 -1.27639 -0.924453 0
M  V30 1839 C 179.798 -1.10485 -2.04685 0
M  V30 1840 C 180.792 -0.0270421 -1.69378 0
M  V30 1841 O 181.998 -0.185008 -1.79047 0
M  V30 1842 H 178.373 -0.340546 -0.670472 0
M  V30 1843 H 180.344 -2.05566 -2.16298 0
M  V30 1844 C 179.093 -0.772229 -3.39016 0
M  V30 1845 H 178.416 -1.59351 -3.66671 0
M  V30 1846 H 179.856 -0.692097 -4.18313 0
M  V30 1847 C 178.315 0.523554 -3.32807 0
M  V30 1848 O 178.845 1.55702 -3.70297 0
M  V30 1849 N 177.051 0.520363 -2.85903 0
M  V30 1850 H 176.598 -0.32107 -2.55591 0
M  V30 1851 H 176.556 1.38742 -2.82131 0
M  V30 1852 N 180.328 1.1314 -1.09713 0
M  V30 1853 C 181.291 2.16831 -0.742751 0
M  V30 1854 C 182.291 1.59159 0.229129 0
M  V30 1855 O 183.481 1.74199 0.00693237 0
M  V30 1856 C 180.613 3.40756 -0.0989168 0
M  V30 1857 H 181.806 2.49695 -1.66109 0
M  V30 1858 H 179.359 1.2802 -0.896699 0
M  V30 1859 H 180.094 3.13485 0.830514 0
M  V30 1860 H 179.879 3.83888 -0.798265 0
M  V30 1861 H 181.369 4.17386 0.133524 0
M  V30 1862 N 181.806 0.884767 1.30421 0
M  V30 1863 C 182.736 0.367574 2.30589 0
M  V30 1864 C 183.717 -0.549464 1.60981 0
M  V30 1865 O 184.902 -0.46336 1.88591 0
M  V30 1866 C 182.032 -0.418944 3.44764 0
M  V30 1867 C 180.986 0.406316 4.26067 0
M  V30 1868 C 180.312 -0.506793 5.32293 0
M  V30 1869 C 181.612 1.64832 4.95608 0
M  V30 1870 H 183.306 1.20462 2.74097 0
M  V30 1871 H 180.852 0.580695 1.31772 0
M  V30 1872 H 182.805 -0.791395 4.13902 0
M  V30 1873 H 181.529 -1.28964 3.0006 0
M  V30 1874 H 180.188 0.760903 3.58617 0
M  V30 1875 H 179.836 -1.37519 4.83836 0
M  V30 1876 H 179.536 0.0415828 5.87585 0
M  V30 1877 H 181.06 -0.875764 6.04287 0
M  V30 1878 H 182.474 1.34646 5.57264 0
M  V30 1879 H 180.871 2.13688 5.60765 0
M  V30 1880 H 181.941 2.39284 4.21748 0
M  V30 1881 N 183.284 -1.43765 0.645699 0
M  V30 1882 C 184.561 -1.9541 0.0862963 0
M  V30 1883 C 184.941 -1.58725 -1.39175 0
M  V30 1884 O 184.289 -0.868581 -2.11348 0
M  V30 1885 C 184.499 -3.47488 0.324565 0
M  V30 1886 C 185.847 -4.24001 0.225497 0
M  V30 1887 O 186.871 -3.55274 0.256715 0
M  V30 1888 O 185.73 -5.46313 0.142801 0
M  V30 1889 H 182.824 -0.826882 -0.0139483 0
M  V30 1890 H 185.37 -1.53743 0.718415 0
M  V30 1891 H 184.142 -3.67289 1.3496 0
M  V30 1892 H 183.765 -3.96135 -0.340987 0
M  V30 1893 N 184.763 -0.387143 -1.52771 0
M  V30 1894 C 185.693 0.440551 -2.29306 0
M  V30 1895 C 186.674 1.06535 -1.32606 0
M  V30 1896 O 187.859 1.07853 -1.61497 0
M  V30 1897 C 184.989 1.56919 -3.09829 0
M  V30 1898 C 183.943 1.07054 -4.14395 0
M  V30 1899 C 183.269 2.29109 -4.83129 0
M  V30 1900 C 184.569 0.140015 -5.22112 0
M  V30 1901 H 186.263 -0.198026 -2.98744 0
M  V30 1902 H 183.809 -0.09668 -1.43675 0
M  V30 1903 H 185.762 2.15503 -3.62128 0
M  V30 1904 H 184.486 2.23532 -2.3812 0
M  V30 1905 H 183.145 0.507247 -3.63074 0
M  V30 1906 H 182.793 2.94227 -4.0797 0
M  V30 1907 H 182.493 1.96406 -5.53804 0
M  V30 1908 H 184.017 2.88339 -5.38231 0
M  V30 1909 H 185.431 0.633978 -5.69784 0
M  V30 1910 H 183.828 -0.0971485 -6.00021 0
M  V30 1911 H 184.898 -0.811711 -4.78058 0
M  V30 1912 N 186.241 1.57166 -0.116904 0
M  V30 1913 C 187.204 2.14039 0.819742 0
M  V30 1914 C 188.204 1.07477 1.19605 0
M  V30 1915 O 189.394 1.33263 1.1219 0
M  V30 1916 C 186.526 2.67891 2.10826 0
M  V30 1917 H 187.719 2.98128 0.325511 0
M  V30 1918 H 185.272 1.55739 0.132312 0
M  V30 1919 H 186.007 1.87384 2.64685 0
M  V30 1920 H 185.792 3.45823 1.84793 0
M  V30 1921 H 187.282 3.11809 2.77785 0
M  V30 1922 N 187.719 -0.156864 1.56817 0
M  V30 1923 C 189.13 -0.717916 1.72345 0
M  V30 1924 C 189.481 -1.82124 0.729747 0
M  V30 1925 O 188.606 -2.16141 -0.105781 0
M  V30 1926 C 189.201 -1.30904 3.12489 0
M  V30 1927 C 187.76 -1.81676 3.29653 0
M  V30 1928 C 186.907 -0.701349 2.68284 0
M  V30 1929 H 189.858 0.0686989 1.58551 0
M  V30 1930 H 189.879 -2.17882 3.11942 0
M  V30 1931 H 189.391 -0.505796 3.8479 0
M  V30 1932 H 187.492 -2.64598 2.62333 0
M  V30 1933 H 187.605 -1.95226 4.3752 0
M  V30 1934 H 185.969 -1.12548 2.28484 0
M  V30 1935 H 186.752 0.0902846 3.43181 0
M  V30 1936 N 189.197 -1.51736 -0.425897 0
M  V30 1937 C 190.422 -1.69082 -1.20108 0
M  V30 1938 C 190.847 -0.392398 -1.83962 0
M  V30 1939 O 190.205 0.64858 -1.69302 0
M  V30 1940 C 190.253 -2.81604 -2.25237 0
M  V30 1941 O 189.357 -2.46004 -3.30992 0
M  V30 1942 H 188.698 -0.563408 -0.35138 0
M  V30 1943 H 191.228 -1.98358 -0.501512 0
M  V30 1944 H 191.238 -3.06025 -2.69838 0
M  V30 1945 H 189.913 -3.75817 -1.78142 0
M  V30 1946 H 188.49 -2.32195 -2.91787 0
M  V30 1947 N 190.675 0.682077 -1.42076 0
M  V30 1948 C 191.9 1.47558 -1.45744 0
M  V30 1949 C 192.325 1.87977 -0.0680981 0
M  V30 1950 O 191.683 1.55522 0.9318 0
M  V30 1951 C 191.731 2.70575 -2.38373 0
M  V30 1952 O 190.835 3.68573 -1.85007 0
M  V30 1953 H 190.176 0.443585 -0.494093 0
M  V30 1954 H 192.706 0.837238 -1.86686 0
M  V30 1955 H 192.716 3.18729 -2.54707 0
M  V30 1956 H 191.391 2.40495 -3.39315 0
M  V30 1957 H 189.968 3.2757 -1.78192 0
M  V30 1958 N 192.153 1.28127 0.917671 0
M  V30 1959 C 193.083 1.14248 2.03641 0
M  V30 1960 C 194.064 0.0412748 1.7005 0
M  V30 1961 O 195.249 0.217566 1.92977 0
M  V30 1962 C 192.379 0.799431 3.37974 0
M  V30 1963 C 191.333 1.85497 3.85713 0
M  V30 1964 C 190.659 1.36565 5.16966 0
M  V30 1965 C 191.959 3.26085 4.08002 0
M  V30 1966 H 193.653 2.07835 2.15511 0
M  V30 1967 H 191.199 1.00064 1.03553 0
M  V30 1968 H 193.152 0.689114 4.15727 0
M  V30 1969 H 191.876 -0.172145 3.26146 0
M  V30 1970 H 190.535 1.95437 3.10161 0
M  V30 1971 H 190.183 0.383253 5.01538 0
M  V30 1972 H 189.883 2.07143 5.49878 0
M  V30 1973 H 191.407 1.26848 5.97279 0
M  V30 1974 H 192.821 3.19089 4.76293 0
M  V30 1975 H 191.218 3.94462 4.52238 0
M  V30 1976 H 192.288 3.70394 3.12948 0
M  V30 1977 N 193.631 -1.12557 1.10312 0
M  V30 1978 C 194.877 -1.84311 0.846011 0
M  V30 1979 C 195.21 -1.83805 -0.626859 0
M  V30 1980 O 194.485 -1.28268 -1.46211 0
M  V30 1981 C 194.768 -3.32048 1.39341 0
M  V30 1982 C 194.621 -3.41016 2.93305 0
M  V30 1983 C 195.94 -4.27764 1.03468 0
M  V30 1984 H 193.059 -0.669192 0.30879 0
M  V30 1985 H 195.701 -1.32057 1.36605 0
M  V30 1986 H 193.851 -3.76678 0.951087 0
M  V30 1987 H 195.523 -3.05031 3.46055 0
M  V30 1988 H 193.766 -2.81603 3.29973 0
M  V30 1989 H 194.437 -4.44948 3.26689 0
M  V30 1990 H 196.913 -3.91253 1.41633 0
M  V30 1991 H 195.789 -5.29549 1.44463 0
M  V30 1992 H 196.05 -4.42064 -0.0560404 0
M  V30 1993 N 195.109 -0.891671 -1.2995 0
M  V30 1994 C 196.039 -0.379797 -2.30391 0
M  V30 1995 C 197.02 0.540919 -1.6127 0
M  V30 1996 O 198.205 0.453352 -1.88834 0
M  V30 1997 C 195.335 0.400654 -3.44981 0
M  V30 1998 C 194.289 -0.428905 -4.25846 0
M  V30 1999 C 193.615 0.478557 -5.32554 0
M  V30 2000 C 194.915 -1.67458 -4.94727 0
M  V30 2001 H 196.609 -1.21914 -2.73454 0
M  V30 2002 H 194.155 -0.587675 -1.31462 0
M  V30 2003 H 196.108 0.769434 -4.14316 0
M  V30 2004 H 194.832 1.27371 -3.0074 0
M  V30 2005 H 193.491 -0.779911 -3.58208 0
M  V30 2006 H 193.139 1.34951 -4.84559 0
M  V30 2007 H 192.839 -0.0727433 -5.87555 0
M  V30 2008 H 194.363 0.843705 -6.04743 0
M  V30 2009 H 195.777 -1.376 -5.56542 0
M  V30 2010 H 194.174 -2.16659 -5.59624 0
M  V30 2011 H 195.244 -2.41518 -4.20473 0
M  V30 2012 N 196.587 1.43421 -0.653314 0
M  V30 2013 C 197.998 1.85065 -0.246537 0
M  V30 2014 C 198.349 1.54688 1.2069 0
M  V30 2015 O 197.474 0.995896 1.92122 0
M  V30 2016 C 198.069 3.35922 -0.440666 0
M  V30 2017 C 196.628 3.76297 -0.0882064 0
M  V30 2018 C 195.775 2.67147 -0.743484 0
M  V30 2019 H 198.726 1.33572 -0.856979 0
M  V30 2020 H 198.747 3.79204 0.313798 0
M  V30 2021 H 198.259 3.58 -1.49858 0
M  V30 2022 H 196.36 3.5983 0.96711 0
M  V30 2023 H 196.473 4.76338 -0.513738 0
M  V30 2024 H 194.837 2.54086 -0.176712 0
M  V30 2025 H 195.62 2.92053 -1.80443 0
M  V30 2026 N 198.065 0.39524 1.52563 0
M  V30 2027 C 199.028 -0.425001 2.25225 0
M  V30 2028 C 200.028 -0.985266 1.27079 0
M  V30 2029 O 201.218 -0.866332 1.5113 0
M  V30 2030 C 198.35 -1.59686 3.01186 0
M  V30 2031 H 199.543 0.211233 2.99155 0
M  V30 2032 H 197.096 0.147472 1.55603 0
M  V30 2033 H 197.831 -2.27035 2.31572 0
M  V30 2034 H 197.616 -1.20176 3.73229 0
M  V30 2035 H 199.106 -2.17743 3.5634 0
M  V30 2036 N 199.544 -1.57102 0.125237 0
M  V30 2037 C 200.79 -1.95697 -0.532035 0
M  V30 2038 C 201.123 -1.009 -1.6593 0
M  V30 2039 O 200.398 -0.047347 -1.94442 0
M  V30 2040 C 200.681 -3.44181 -1.05884 0
M  V30 2041 C 200.534 -4.49752 0.0654392 0
M  V30 2042 C 201.853 -3.94655 -1.9477 0
M  V30 2043 H 198.972 -0.711571 -0.191925 0
M  V30 2044 H 201.614 -1.88923 0.20206 0
M  V30 2045 H 199.764 -3.50085 -1.68442 0
M  V30 2046 H 201.436 -4.55943 0.700982 0
M  V30 2047 H 199.679 -4.27653 0.727709 0
M  V30 2048 H 200.35 -5.50924 -0.344505 0
M  V30 2049 H 202.826 -3.91094 -1.42074 0
M  V30 2050 H 201.702 -4.99057 -2.28546 0
M  V30 2051 H 201.963 -3.35718 -2.87656 0
M  V30 2052 N 201.022 0.148545 -1.56898 0
M  V30 2053 C 202.299 0.890019 -1.74178 0
M  V30 2054 C 202.679 1.99407 -0.692839 0
M  V30 2055 O 202.027 2.26671 0.288505 0
M  V30 2056 C 202.237 1.43389 -3.18183 0
M  V30 2057 C 203.585 1.89791 -3.79822 0
M  V30 2058 O 204.609 1.53134 -3.21603 0
M  V30 2059 O 203.468 2.57387 -4.82093 0
M  V30 2060 H 200.562 0.420496 -0.712118 0
M  V30 2061 H 203.108 0.134591 -1.69165 0
M  V30 2062 H 201.88 0.640383 -3.86024 0
M  V30 2063 H 201.503 2.25287 -3.27615 0
M  V30 2064 N 202.5 1.5196 0.417844 0
M  V30 2065 C 203.746 1.66793 1.16411 0
M  V30 2066 C 204.101 0.388758 1.88432 0
M  V30 2067 O 203.394 -0.616409 1.81414 0
M  V30 2068 C 203.588 2.82269 2.19223 0
M  V30 2069 C 203.417 4.21293 1.57297 0
M  V30 2070 C 202.187 4.86948 1.34944 0
M  V30 2071 C 204.385 5.03704 1.03858 0
M  V30 2072 N 202.367 6.1003 0.688195 0
M  V30 2073 C 203.738 6.1795 0.503742 0
M  V30 2074 C 205.793 4.89095 0.932203 0
M  V30 2075 C 204.496 7.19188 -0.127034 0
M  V30 2076 C 206.522 5.90559 0.315293 0
M  V30 2077 C 205.884 7.0409 -0.208906 0
M  V30 2078 H 201.983 0.66407 0.412959 0
M  V30 2079 H 204.567 1.89242 0.457772 0
M  V30 2080 H 202.738 2.61451 2.87225 0
M  V30 2081 H 204.47 2.86183 2.86149 0
M  V30 2082 H 201.225 4.45156 1.61657 0
M  V30 2083 H 201.649 6.75964 0.374449 0
M  V30 2084 H 206.291 4.01557 1.32332 0
M  V30 2085 H 204.009 8.06359 -0.530231 0
M  V30 2086 H 207.595 5.81327 0.234625 0
M  V30 2087 H 206.475 7.81257 -0.67875 0
M  V30 2088 N 203.978 -0.674533 1.42435 0
M  V30 2089 C 205.208 -1.46071 1.46105 0
M  V30 2090 C 205.616 -1.89067 0.0709605 0
M  V30 2091 O 204.959 -1.58731 -0.924677 0
M  V30 2092 C 205.021 -2.74145 2.32561 0
M  V30 2093 C 204.685 -2.53224 3.8043 0
M  V30 2094 C 205.682 -2.17809 4.72075 0
M  V30 2095 C 203.367 -2.6821 4.24698 0
M  V30 2096 C 205.361 -1.97648 6.05982 0
M  V30 2097 C 203.048 -2.47665 5.58664 0
M  V30 2098 C 204.046 -2.12437 6.49122 0
M  V30 2099 O 203.734 -1.9209 7.80613 0
M  V30 2100 H 203.466 -0.455959 0.499076 0
M  V30 2101 H 206.02 -0.836193 1.87609 0
M  V30 2102 H 204.25 -3.3908 1.85908 0
M  V30 2103 H 205.939 -3.36028 2.27683 0
M  V30 2104 H 206.705 -2.05826 4.39159 0
M  V30 2105 H 202.584 -2.94609 3.54579 0
M  V30 2106 H 206.128 -1.70075 6.7655 0
M  V30 2107 H 202.025 -2.59244 5.91154 0
M  V30 2108 H 202.793 -2.06686 7.91974 0
M  V30 2109 N 205.456 -1.28612 -0.910864 0
M  V30 2110 C 206.419 -1.12803 -1.9952 0
M  V30 2111 C 207.419 -0.0668264 -1.60661 0
M  V30 2112 O 208.609 -0.312847 -1.71368 0
M  V30 2113 C 205.741 -0.72254 -3.33155 0
M  V30 2114 H 206.934 -2.09109 -2.14973 0
M  V30 2115 H 204.487 -1.11639 -1.09391 0
M  V30 2116 H 205.222 0.241152 -3.23402 0
M  V30 2117 H 205.007 -1.48916 -3.62721 0
M  V30 2118 H 206.497 -0.634666 -4.12749 0
M  V30 2119 N 206.934 1.1197 -1.10907 0
M  V30 2120 C 208.18 1.8386 -0.855773 0
M  V30 2121 C 208.513 1.84134 0.617103 0
M  V30 2122 O 207.788 1.29041 1.45529 0
M  V30 2123 C 208.071 3.31305 -1.411 0
M  V30 2124 C 207.924 3.39456 -2.9511 0
M  V30 2125 C 209.243 4.2721 -1.05736 0
M  V30 2126 H 206.362 0.667545 -0.312334 0
M  V30 2127 H 209.004 1.31331 -1.37303 0
M  V30 2128 H 207.154 3.76169 -0.97105 0
M  V30 2129 H 208.826 3.03191 -3.47668 0
M  V30 2130 H 207.069 2.79849 -3.31462 0
M  V30 2131 H 207.74 4.43209 -3.29044 0
M  V30 2132 H 210.216 3.90497 -1.43706 0
M  V30 2133 H 209.092 5.28775 -1.47269 0
M  V30 2134 H 209.353 4.42088 0.0325958 0
M  V30 2135 N 208.412 0.89855 1.29475 0
M  V30 2136 C 209.637 0.538561 2.00285 0
M  V30 2137 C 210.062 -0.869135 1.66816 0
M  V30 2138 O 209.42 -1.57831 0.892145 0
M  V30 2139 C 209.468 0.736475 3.52999 0
M  V30 2140 O 208.572 -0.211537 4.11857 0
M  V30 2141 H 207.913 0.210563 0.62973 0
M  V30 2142 H 210.443 1.20982 1.64998 0
M  V30 2143 H 210.453 0.640685 4.02938 0
M  V30 2144 H 209.128 1.76276 3.76696 0
M  V30 2145 H 207.705 -0.0682991 3.72837 0
M  V30 2146 N 209.89 -1.43072 0.660911 0
M  V30 2147 C 211.118 -2.06067 0.185422 0
M  V30 2148 C 211.533 -1.49582 -1.15198 0
M  V30 2149 O 210.89 -0.630134 -1.71276 0
M  V30 2150 C 210.941 -3.61371 0.0966523 0
M  V30 2151 O 210.662 -4.15758 1.38119 0
M  V30 2152 C 212.163 -4.41455 -0.403996 0
M  V30 2153 H 209.383 -0.664459 0.0934604 0
M  V30 2154 H 211.927 -1.83447 0.90373 0
M  V30 2155 H 210.082 -3.8315 -0.572259 0
M  V30 2156 H 210.496 -5.09499 1.24542 0
M  V30 2157 H 211.97 -5.50437 -0.415045 0
M  V30 2158 H 212.447 -4.15036 -1.43674 0
M  V30 2159 H 213.053 -4.24663 0.232691 0
M  V30 2160 N 211.368 -0.403325 -1.52352 0
M  V30 2161 C 212.298 0.416205 -2.29761 0
M  V30 2162 C 213.279 1.05123 -1.33728 0
M  V30 2163 O 214.464 1.06134 -1.62632 0
M  V30 2164 C 211.594 1.53624 -3.11475 0
M  V30 2165 C 210.548 1.02653 -4.15507 0
M  V30 2166 C 209.874 2.23971 -4.85532 0
M  V30 2167 C 211.174 0.08463 -5.22231 0
M  V30 2168 H 212.868 -0.229701 -2.98518 0
M  V30 2169 H 210.414 -0.111913 -1.43564 0
M  V30 2170 H 212.367 2.1165 -3.64393 0
M  V30 2171 H 211.091 2.20994 -2.40477 0
M  V30 2172 H 209.75 0.46871 -3.63591 0
M  V30 2173 H 209.398 2.89883 -4.11068 0
M  V30 2174 H 209.098 1.90521 -5.55856 0
M  V30 2175 H 210.622 2.82614 -5.41259 0
M  V30 2176 H 212.036 0.573509 -5.70424 0
M  V30 2177 H 210.433 -0.160783 -5.99885 0
M  V30 2178 H 211.503 -0.86237 -4.7717 0
M  V30 2179 N 212.846 1.57033 -0.133567 0
M  V30 2180 C 214.074 2.00044 0.528195 0
M  V30 2181 C 214.489 1.01349 1.59291 0
M  V30 2182 O 213.846 0.00848369 1.82498 0
M  V30 2183 C 213.897 3.43018 1.1411 0
M  V30 2184 O 213.618 4.37939 0.11892 0
M  V30 2185 C 215.119 4.01237 1.88477 0
M  V30 2186 H 212.339 0.656517 0.138661 0
M  V30 2187 H 214.883 2.03267 -0.224196 0
M  V30 2188 H 213.038 3.40688 1.84418 0
M  V30 2189 H 213.452 5.21436 0.56613 0
M  V30 2190 H 214.926 5.03314 2.26669 0
M  V30 2191 H 215.403 3.41193 2.76558 0
M  V30 2192 H 216.009 4.07156 1.22898 0
M  V30 2193 N 214.325 -0.140222 1.56975 0
M  V30 2194 C 215.553 -0.866437 1.87884 0
M  V30 2195 C 215.968 -1.74428 0.722517 0
M  V30 2196 O 215.325 -1.79891 -0.30749 0
M  V30 2197 C 215.376 -1.71753 3.18093 0
M  V30 2198 O 215.097 -0.875056 4.29272 0
M  V30 2199 C 216.598 -2.55074 3.62563 0
M  V30 2200 H 213.818 -0.25019 0.622612 0
M  V30 2201 H 216.362 -0.130977 2.0408 0
M  V30 2202 H 214.517 -2.40598 3.03631 0
M  V30 2203 H 214.931 -1.46002 5.03769 0
M  V30 2204 H 216.405 -3.10356 4.5649 0
M  V30 2205 H 216.882 -3.31434 2.88181 0
M  V30 2206 H 217.488 -1.91509 3.79743 0
M  V30 2207 N 215.803 -1.52179 -0.40978 0
M  V30 2208 C 217.033 -1.69807 -1.17682 0
M  V30 2209 C 217.441 -0.406908 -1.84773 0
M  V30 2210 O 216.784 0.626863 -1.72673 0
M  V30 2211 C 216.846 -2.77712 -2.2829 0
M  V30 2212 C 216.51 -4.19481 -1.81341 0
M  V30 2213 C 217.507 -5.03345 -1.30154 0
M  V30 2214 C 215.192 -4.65713 -1.88194 0
M  V30 2215 C 217.186 -6.31511 -0.864416 0
M  V30 2216 C 214.873 -5.93869 -1.44093 0
M  V30 2217 C 215.871 -6.76597 -0.933023 0
M  V30 2218 O 215.559 -8.02354 -0.49838 0
M  V30 2219 H 215.291 -0.572372 -0.359675 0
M  V30 2220 H 217.845 -1.99511 -0.488311 0
M  V30 2221 H 216.075 -2.43383 -3.00502 0
M  V30 2222 H 217.764 -2.83946 -2.90051 0
M  V30 2223 H 218.53 -4.68819 -1.24232 0
M  V30 2224 H 214.409 -4.01424 -2.26671 0
M  V30 2225 H 217.953 -6.96033 -0.467286 0
M  V30 2226 H 213.85 -6.27903 -1.49694 0
M  V30 2227 H 214.618 -8.16135 -0.621747 0
M  V30 2228 N 217.281 0.66697 -1.42791 0
M  V30 2229 C 218.211 1.79218 -1.49677 0
M  V30 2230 C 219.192 1.66405 -0.352623 0
M  V30 2231 O 220.377 1.85708 -0.567993 0
M  V30 2232 C 217.507 3.17565 -1.40605 0
M  V30 2233 C 216.461 3.45124 -2.53127 0
M  V30 2234 C 215.787 4.83127 -2.29112 0
M  V30 2235 C 217.087 3.41236 -3.95418 0
M  V30 2236 H 218.781 1.73713 -2.43853 0
M  V30 2237 H 216.327 0.83432 -1.17367 0
M  V30 2238 H 218.28 3.96022 -1.44029 0
M  V30 2239 H 217.004 3.23767 -0.429271 0
M  V30 2240 H 215.663 2.69031 -2.49034 0
M  V30 2241 H 215.311 4.85988 -1.29709 0
M  V30 2242 H 215.011 5.02528 -3.04531 0
M  V30 2243 H 216.535 5.63859 -2.34297 0
M  V30 2244 H 217.949 4.09651 -4.01073 0
M  V30 2245 H 216.346 3.72173 -4.70752 0
M  V30 2246 H 217.416 2.39665 -4.21532 0
M  V30 2247 N 218.759 1.29093 0.90403 0
M  V30 2248 C 219.691 1.09658 2.01266 0
M  V30 2249 C 220.704 0.0453729 1.62737 0
M  V30 2250 O 221.893 0.289446 1.76138 0
M  V30 2251 C 218.993 0.646278 3.32681 0
M  V30 2252 C 218.166 1.77505 3.99763 0
M  V30 2253 C 217.225 1.31649 5.09465 0
M  V30 2254 O 216.251 2.02045 5.32134 0
M  V30 2255 N 217.453 0.184997 5.80205 0
M  V30 2256 H 220.218 2.05135 2.18494 0
M  V30 2257 H 217.779 1.20975 1.07594 0
M  V30 2258 H 219.771 0.322906 4.0341 0
M  V30 2259 H 218.341 -0.215916 3.11853 0
M  V30 2260 H 217.561 2.26752 3.22455 0
M  V30 2261 H 218.849 2.53198 4.41325 0
M  V30 2262 H 218.247 -0.402021 5.6427 0
M  V30 2263 H 216.804 -0.0790358 6.51752 0
M  V30 2264 N 220.237 -1.11381 1.11499 0
M  V30 2265 C 221.147 -2.21019 0.786628 0
M  V30 2266 C 222.163 -1.72597 -0.220507 0
M  V30 2267 O 223.339 -2.01321 -0.0565251 0
M  V30 2268 C 220.404 -3.459 0.235333 0
M  V30 2269 C 219.465 -4.09107 1.30115 0
M  V30 2270 C 218.698 -5.28027 0.776068 0
M  V30 2271 O 218.921 -5.6904 -0.393661 0
M  V30 2272 O 217.855 -5.81835 1.54114 0
M  V30 2273 H 221.681 -2.51521 1.70209 0
M  V30 2274 H 219.266 -1.19928 0.890928 0
M  V30 2275 H 221.148 -4.21346 -0.067715 0
M  V30 2276 H 219.823 -3.17049 -0.652828 0
M  V30 2277 H 218.73 -3.35391 1.65722 0
M  V30 2278 H 220.063 -4.42139 2.16273 0
M  V30 2279 N 221.715 -0.905404 -1.28997 0
M  V30 2280 C 222.662 -0.385892 -2.27551 0
M  V30 2281 C 223.632 0.535113 -1.57244 0
M  V30 2282 O 224.817 0.459119 -1.85194 0
M  V30 2283 C 221.957 0.375461 -3.43051 0
M  V30 2284 C 221.07 -0.577092 -4.28128 0
M  V30 2285 C 220.205 0.201879 -5.30816 0
M  V30 2286 C 219.244 -0.744829 -6.07551 0
M  V30 2287 N 218.381 9.42587e-05 -7.021 0
M  V30 2288 H 223.221 -1.23139 -2.71368 0
M  V30 2289 H 220.758 -0.618542 -1.33463 0
M  V30 2290 H 222.716 0.832992 -4.088 0
M  V30 2291 H 221.346 1.18537 -3.00248 0
M  V30 2292 H 220.398 -1.15315 -3.62501 0
M  V30 2293 H 221.71 -1.30152 -4.8152 0
M  V30 2294 H 220.864 0.720351 -6.02408 0
M  V30 2295 H 219.603 0.959413 -4.7817 0
M  V30 2296 H 218.608 -1.27475 -5.34818 0
M  V30 2297 H 219.833 -1.50178 -6.62286 0
M  V30 2298 H 217.779 0.739791 -6.51815 0
M  V30 2299 H 217.696 -0.664321 -7.53076 0
M  V30 2300 H 218.964 0.498644 -7.77903 0
M  V30 2301 N 223.193 1.4272 -0.668489 0
M  V30 2302 C 224.123 2.335 -0.000100175 0
M  V30 2303 C 225.104 1.50328 0.795964 0
M  V30 2304 O 226.289 1.78949 0.754385 0
M  V30 2305 C 223.419 3.33874 0.956302 0
M  V30 2306 C 222.373 4.27152 0.269278 0
M  V30 2307 C 221.699 5.17684 1.33818 0
M  V30 2308 C 222.999 5.15373 -0.847805 0
M  V30 2309 H 224.693 2.89639 -0.758244 0
M  V30 2310 H 222.239 1.39269 -0.366079 0
M  V30 2311 H 224.192 3.9629 1.43292 0
M  V30 2312 H 222.916 2.76025 1.74579 0
M  V30 2313 H 221.575 3.66123 -0.187042 0
M  V30 2314 H 221.223 4.56165 2.1195 0
M  V30 2315 H 220.923 5.80918 0.883659 0
M  V30 2316 H 222.447 5.82974 1.81586 0
M  V30 2317 H 223.861 5.7151 -0.452681 0
M  V30 2318 H 222.258 5.87407 -1.22773 0
M  V30 2319 H 223.328 4.5415 -1.69929 0
M  V30 2320 N 224.671 0.411399 1.52136 0
M  V30 2321 C 225.919 -0.163322 2.01439 0
M  V30 2322 C 226.24 -1.45453 1.29879 0
M  V30 2323 O 225.51 -1.91225 0.4254 0
M  V30 2324 H 224.09 -0.0633447 0.744309 0
M  V30 2325 H 226.752 0.548161 1.87033 0
M  V30 2326 H 225.848 -0.357817 3.10042 0
M  V30 2327 N 226.149 -1.5696 0.141893 0
M  V30 2328 C 227.112 -2.15316 -0.785587 0
M  V30 2329 C 228.112 -1.09366 -1.1788 0
M  V30 2330 O 229.302 -1.35031 -1.10056 0
M  V30 2331 C 226.434 -2.71211 -2.06537 0
M  V30 2332 H 227.627 -2.98608 -0.278041 0
M  V30 2333 H 225.18 -1.5593 -0.107519 0
M  V30 2334 H 225.915 -1.91571 -2.6167 0
M  V30 2335 H 225.7 -3.4872 -1.79268 0
M  V30 2336 H 227.19 -3.16189 -2.72789 0
M  V30 2337 N 227.627 0.131896 -1.57047 0
M  V30 2338 C 228.852 0.860418 -1.8871 0
M  V30 2339 C 229.277 1.73251 -0.73251 0
M  V30 2340 O 228.635 1.785 0.317429 0
M  V30 2341 C 228.683 1.68047 -3.19049 0
M  V30 2342 O 227.787 2.7862 -3.04047 0
M  V30 2343 H 227.128 0.238743 -0.619595 0
M  V30 2344 H 229.658 0.118169 -2.04258 0
M  V30 2345 H 229.668 2.07238 -3.51449 0
M  V30 2346 H 228.343 1.04018 -4.02682 0
M  V30 2347 H 226.92 2.42726 -2.83088 0
M  V30 2348 N 229.106 1.52395 0.401703 0
M  V30 2349 C 230.517 1.58899 0.980202 0
M  V30 2350 C 230.868 0.434032 1.91339 0
M  V30 2351 O 229.993 -0.444619 2.11783 0
M  V30 2352 C 230.588 2.87994 1.78451 0
M  V30 2353 C 229.147 2.96953 2.31292 0
M  V30 2354 C 228.294 2.53903 1.11483 0
M  V30 2355 H 231.245 1.57657 0.18168 0
M  V30 2356 H 231.266 2.73765 2.64259 0
M  V30 2357 H 230.778 3.72035 1.10506 0
M  V30 2358 H 228.879 2.17422 3.02586 0
M  V30 2359 H 228.992 4.01344 2.61649 0
M  V30 2360 H 227.356 2.07925 1.47104 0
M  V30 2361 H 228.139 3.40326 0.450928 0
M  V30 2362 N 230.584 -0.659388 1.43143 0
M  V30 2363 C 231.514 -1.78422 1.50625 0
M  V30 2364 C 232.495 -1.66216 0.361443 0
M  V30 2365 O 233.68 -1.85404 0.577834 0
M  V30 2366 C 230.81 -3.16815 1.42287 0
M  V30 2367 C 229.764 -3.43777 2.54954 0
M  V30 2368 C 229.09 -4.81905 2.31671 0
M  V30 2369 C 230.39 -3.39134 3.97222 0
M  V30 2370 H 232.084 -1.72417 2.44771 0
M  V30 2371 H 229.63 -0.828084 1.17808 0
M  V30 2372 H 231.583 -3.95253 1.46127 0
M  V30 2373 H 230.307 -3.23534 0.446435 0
M  V30 2374 H 228.966 -2.67707 2.50457 0
M  V30 2375 H 228.614 -4.85294 1.32284 0
M  V30 2376 H 228.314 -5.00906 3.07192 0
M  V30 2377 H 229.838 -5.62609 2.37284 0
M  V30 2378 H 231.252 -4.07518 4.03239 0
M  V30 2379 H 229.649 -3.69671 4.72719 0
M  V30 2380 H 230.719 -2.37426 4.22797 0
M  V30 2381 N 232.062 -1.29571 -0.897171 0
M  V30 2382 C 233.012 -1.11539 -1.98855 0
M  V30 2383 C 233.996 -0.0340716 -1.60864 0
M  V30 2384 O 235.188 -0.256062 -1.75138 0
M  V30 2385 C 232.317 -0.796603 -3.3393 0
M  V30 2386 C 231.403 -1.91758 -3.78272 0
M  V30 2387 N 231.794 -3.16143 -3.94826 0
M  V30 2388 C 230.092 -1.81119 -4.07568 0
M  V30 2389 C 230.793 -3.89293 -4.32233 0
M  V30 2390 N 229.769 -3.17255 -4.41419 0
M  V30 2391 H 233.571 -2.05894 -2.09726 0
M  V30 2392 H 231.085 -1.20732 -1.08616 0
M  V30 2393 H 233.082 -0.648459 -4.11826 0
M  V30 2394 H 231.742 0.139003 -3.24402 0
M  V30 2395 H 232.753 -3.5157 -3.80288 0
M  V30 2396 H 229.43 -0.948461 -4.06584 0
M  V30 2397 H 230.82 -4.9635 -4.52865 0
M  V30 2398 N 233.54 1.10788 -1.12088 0
M  V30 2399 C 234.786 1.82942 -0.875226 0
M  V30 2400 C 235.119 1.84779 0.597538 0
M  V30 2401 O 234.394 1.30578 1.44152 0
M  V30 2402 C 234.677 3.29789 -1.44606 0
M  V30 2403 C 234.53 3.36307 -2.98693 0
M  V30 2404 C 235.849 4.26064 -1.10261 0
M  V30 2405 H 232.968 0.664195 -0.319397 0
M  V30 2406 H 235.61 1.29867 -1.38689 0
M  V30 2407 H 233.76 3.75118 -1.01089 0
M  V30 2408 H 235.432 2.99487 -3.50864 0
M  V30 2409 H 233.675 2.76318 -3.34411 0
M  V30 2410 H 234.346 4.39694 -3.33726 0
M  V30 2411 H 236.822 3.88951 -1.4784 0
M  V30 2412 H 235.698 5.27183 -1.52869 0
M  V30 2413 H 235.959 4.42098 -0.0142953 0
M  V30 2414 N 235.018 0.912232 1.28515 0
M  V30 2415 C 236.295 0.463597 1.90027 0
M  V30 2416 C 236.675 -1.05753 1.82701 0
M  V30 2417 O 236.023 -1.90492 1.26194 0
M  V30 2418 C 236.233 0.992253 3.34597 0
M  V30 2419 C 237.581 1.04344 4.11579 0
M  V30 2420 O 238.605 0.94079 3.43551 0
M  V30 2421 O 237.464 1.1995 5.33174 0
M  V30 2422 H 234.558 0.146666 0.813891 0
M  V30 2423 H 237.104 1.00292 1.36893 0
M  V30 2424 H 235.876 2.03623 3.34146 0
M  V30 2425 H 235.499 0.433672 3.95228 0
M  V30 2426 N 236.496 -1.42363 0.676048 0
M  V30 2427 C 237.426 -2.33497 0.0124832 0
M  V30 2428 C 238.407 -1.50748 -0.787981 0
M  V30 2429 O 239.592 -1.79346 -0.744884 0
M  V30 2430 C 236.722 -3.34377 -0.938582 0
M  V30 2431 C 235.676 -4.27289 -0.246622 0
M  V30 2432 C 235.002 -5.18386 -1.31071 0
M  V30 2433 C 236.302 -5.14916 0.875125 0
M  V30 2434 H 237.996 -2.89233 0.773593 0
M  V30 2435 H 235.542 -1.39073 0.37346 0
M  V30 2436 H 237.495 -3.97044 -1.41188 0
M  V30 2437 H 236.219 -2.76947 -1.73113 0
M  V30 2438 H 234.878 -3.66018 0.206456 0
M  V30 2439 H 234.526 -4.57282 -2.09528 0
M  V30 2440 H 234.226 -5.81378 -0.852839 0
M  V30 2441 H 235.75 -5.83929 -1.78492 0
M  V30 2442 H 237.164 -5.71262 0.482983 0
M  V30 2443 H 235.561 -5.86747 1.25887 0
M  V30 2444 H 236.631 -4.53242 1.72335 0
M  V30 2445 N 237.974 -0.419461 -1.51915 0
M  V30 2446 C 238.937 0.389116 -2.25873 0
M  V30 2447 C 239.937 0.964924 -1.28631 0
M  V30 2448 O 241.127 0.842179 -1.52489 0
M  V30 2449 C 238.259 1.54874 -3.03689 0
M  V30 2450 H 239.452 -0.258799 -2.98781 0
M  V30 2451 H 237.005 -0.172209 -1.55348 0
M  V30 2452 H 237.74 2.23323 -2.35154 0
M  V30 2453 H 237.525 1.14223 -3.75094 0
M  V30 2454 H 239.015 2.12046 -3.59759 0
M  V30 2455 N 239.452 1.56882 -0.150215 0
M  V30 2456 C 240.68 2.00593 0.506948 0
M  V30 2457 C 241.095 1.03033 1.58208 0
M  V30 2458 O 240.452 0.0278396 1.82479 0
M  V30 2459 C 240.503 3.44209 1.10465 0
M  V30 2460 O 240.224 4.3804 0.0724636 0
M  V30 2461 C 241.725 4.03214 1.84211 0
M  V30 2462 H 238.945 0.65795 0.13169 0
M  V30 2463 H 241.489 2.03018 -0.245743 0
M  V30 2464 H 239.644 3.42625 1.80795 0
M  V30 2465 H 240.058 5.22007 0.510793 0
M  V30 2466 H 241.532 5.0569 2.21318 0
M  V30 2467 H 242.009 3.44107 2.72923 0
M  V30 2468 H 242.615 4.08437 1.18572 0
M  V30 2469 N 240.93 -0.123565 1.57115 0
M  V30 2470 C 241.86 -1.15309 2.03042 0
M  V30 2471 C 242.841 -1.43454 0.914061 0
M  V30 2472 O 244.026 -1.53973 1.18347 0
M  V30 2473 C 241.156 -2.48043 2.43089 0
M  V30 2474 C 240.11 -2.3437 3.58127 0
M  V30 2475 C 239.436 -3.72026 3.84059 0
M  V30 2476 C 240.736 -1.80804 4.90007 0
M  V30 2477 H 242.43 -0.771102 2.893 0
M  V30 2478 H 239.976 -0.369479 1.39179 0
M  V30 2479 H 241.929 -3.20311 2.73823 0
M  V30 2480 H 240.653 -2.88122 1.53796 0
M  V30 2481 H 239.312 -1.64551 3.27595 0
M  V30 2482 H 238.96 -4.09582 2.91979 0
M  V30 2483 H 238.66 -3.63732 4.6149 0
M  V30 2484 H 240.184 -4.45806 4.1724 0
M  V30 2485 H 241.598 -2.42886 5.19307 0
M  V30 2486 H 239.995 -1.83343 5.71407 0
M  V30 2487 H 241.065 -0.76528 4.78823 0
M  V30 2488 N 242.408 -1.52605 -0.393616 0
M  V30 2489 C 243.824 -1.41753 -0.733357 0
M  V30 2490 C 244.024 -0.534293 -1.94287 0
M  V30 2491 O 243.08 -0.0059787 -2.52499 0
M  V30 2492 C 244.393 -2.84531 -0.972772 0
M  V30 2493 C 245.941 -2.93978 -1.07453 0
M  V30 2494 C 246.416 -4.37756 -1.3466 0
M  V30 2495 N 247.907 -4.4106 -1.41492 0
M  V30 2496 C 248.642 -5.49387 -1.642 0
M  V30 2497 N 248.138 -6.67806 -1.8441 0
M  V30 2498 N 249.931 -5.36923 -1.66342 0
M  V30 2499 H 242.082 -2.08555 0.402328 0
M  V30 2500 H 244.345 -0.940654 0.117789 0
M  V30 2501 H 244.051 -3.51353 -0.156204 0
M  V30 2502 H 243.925 -3.26508 -1.88871 0
M  V30 2503 H 246.312 -2.27326 -1.88167 0
M  V30 2504 H 246.393 -2.55435 -0.136605 0
M  V30 2505 H 246.037 -5.04972 -0.544581 0
M  V30 2506 H 245.967 -4.73848 -2.2973 0
M  V30 2507 H 248.458 -3.55705 -1.27601 0
M  V30 2508 H 248.771 -7.46141 -2.01231 0
M  V30 2509 H 247.116 -6.70843 -1.81644 0
M  V30 2510 H 250.307 -4.43381 -1.50102 0
M  V30 2511 H 250.48 -6.21416 -1.837 0
M  V30 2512 N 243.887 0.651787 -1.4349 0
M  V30 2513 C 244.797 1.79368 -1.5121 0
M  V30 2514 C 245.813 1.69361 -0.399093 0
M  V30 2515 O 246.989 1.90505 -0.653431 0
M  V30 2516 C 244.054 3.15653 -1.43401 0
M  V30 2517 C 243.115 3.37446 -2.65384 0
M  V30 2518 C 242.348 4.67229 -2.57939 0
M  V30 2519 O 242.571 5.46676 -1.62792 0
M  V30 2520 O 241.505 4.90773 -3.48462 0
M  V30 2521 H 245.331 1.7581 -2.47638 0
M  V30 2522 H 242.916 0.810447 -1.25507 0
M  V30 2523 H 244.798 3.96935 -1.41494 0
M  V30 2524 H 243.473 3.19798 -0.501085 0
M  V30 2525 H 242.38 2.55923 -2.72863 0
M  V30 2526 H 243.713 3.38148 -3.57654 0
M  V30 2527 N 245.365 1.30045 0.890287 0
M  V30 2528 C 246.295 1.18541 2.01172 0
M  V30 2529 C 247.276 0.0773356 1.69924 0
M  V30 2530 O 248.461 0.25845 1.92473 0
M  V30 2531 C 245.591 0.870941 3.36202 0
M  V30 2532 C 244.545 1.93637 3.81692 0
M  V30 2533 C 243.871 1.475 5.13953 0
M  V30 2534 C 245.171 3.34666 4.00994 0
M  V30 2535 H 246.865 2.12359 2.11054 0
M  V30 2536 H 244.411 1.02238 1.01407 0
M  V30 2537 H 246.364 0.777141 4.14172 0
M  V30 2538 H 245.088 -0.102926 3.26438 0
M  V30 2539 H 243.747 2.01972 3.05946 0
M  V30 2540 H 243.395 0.489551 5.00612 0
M  V30 2541 H 243.095 2.1876 5.4536 0
M  V30 2542 H 244.619 1.39489 5.94454 0
M  V30 2543 H 246.033 3.2912 4.69417 0
M  V30 2544 H 244.43 4.03966 4.43769 0
M  V30 2545 H 245.5 3.76949 3.05021 0
M  V30 2546 N 246.843 -1.10192 1.12674 0
M  V30 2547 C 247.79 -2.16606 0.796906 0
M  V30 2548 C 248.76 -1.64394 -0.237476 0
M  V30 2549 O 249.945 -1.90474 -0.111484 0
M  V30 2550 C 247.085 -3.44116 0.26043 0
M  V30 2551 C 246.198 -4.10268 1.35293 0
M  V30 2552 C 245.333 -5.25507 0.775621 0
M  V30 2553 C 244.372 -5.83567 1.84706 0
M  V30 2554 N 243.509 -6.90179 1.28829 0
M  V30 2555 H 248.349 -2.44163 1.70846 0
M  V30 2556 H 245.886 -1.19846 0.85295 0
M  V30 2557 H 247.844 -4.17143 -0.0686814 0
M  V30 2558 H 246.474 -3.16901 -0.614274 0
M  V30 2559 H 245.526 -3.35184 1.79877 0
M  V30 2560 H 246.838 -4.4946 2.16303 0
M  V30 2561 H 245.992 -6.05398 0.397327 0
M  V30 2562 H 244.731 -4.87656 -0.0656581 0
M  V30 2563 H 243.736 -5.02344 2.23452 0
M  V30 2564 H 244.961 -6.23482 2.69161 0
M  V30 2565 H 242.907 -6.54322 0.468881 0
M  V30 2566 H 242.824 -7.28097 2.03497 0
M  V30 2567 H 244.092 -7.73844 0.937311 0
M  V30 2568 N 248.321 -0.919034 -1.28029 0
M  V30 2569 C 249.251 -0.428581 -2.29533 0
M  V30 2570 C 250.232 0.50659 -1.62381 0
M  V30 2571 O 251.417 0.413195 -1.89753 0
M  V30 2572 C 248.547 0.327388 -3.45753 0
M  V30 2573 C 247.501 -0.519137 -4.2484 0
M  V30 2574 C 246.827 0.365486 -5.33449 0
M  V30 2575 C 248.127 -1.77914 -4.91064 0
M  V30 2576 H 249.821 -1.27687 -2.70807 0
M  V30 2577 H 247.367 -0.615428 -1.30186 0
M  V30 2578 H 249.32 0.681378 -4.15855 0
M  V30 2579 H 248.044 1.20963 -3.03374 0
M  V30 2580 H 246.703 -0.855717 -3.56473 0
M  V30 2581 H 246.351 1.24642 -4.87312 0
M  V30 2582 H 246.051 -0.197356 -5.87268 0
M  V30 2583 H 247.575 0.715241 -6.06396 0
M  V30 2584 H 248.989 -1.49374 -5.53498 0
M  V30 2585 H 247.386 -2.2848 -5.54903 0
M  V30 2586 H 248.456 -2.50382 -4.15255 0
M  V30 2587 N 249.799 1.42003 -0.683588 0
M  V30 2588 C 250.747 2.326 0.000815408 0
M  V30 2589 C 251.741 1.50308 0.781278 0
M  V30 2590 O 252.947 1.66322 0.688251 0
M  V30 2591 H 249.322 0.751758 0.0190616 0
M  V30 2592 H 251.293 2.88011 -0.780528 0
M  V30 2593 C 250.042 3.34978 0.93195 0
M  V30 2594 H 249.365 3.98345 0.340817 0
M  V30 2595 H 250.805 4.00936 1.37936 0
M  V30 2596 C 249.264 2.67925 2.04249 0
M  V30 2597 O 249.794 2.51788 3.12995 0
M  V30 2598 N 248 2.2681 1.81675 0
M  V30 2599 H 247.547 2.40135 0.932363 0
M  V30 2600 H 247.505 1.8228 2.56167 0
M  V30 2601 N 251.277 0.427512 1.51691 0
M  V30 2602 C 252.24 -0.377132 2.26076 0
M  V30 2603 C 253.24 -0.958089 1.29141 0
M  V30 2604 O 254.43 -0.83408 1.52934 0
M  V30 2605 C 251.562 -1.53262 3.04506 0
M  V30 2606 H 252.755 0.27464 2.9864 0
M  V30 2607 H 250.308 0.180445 1.55255 0
M  V30 2608 H 251.043 -2.22072 2.36335 0
M  V30 2609 H 250.828 -1.12232 3.75694 0
M  V30 2610 H 252.318 -2.10135 3.60878 0
M  V30 2611 N 252.755 -1.56801 0.158532 0
M  V30 2612 C 253.98 -2.01295 -0.499516 0
M  V30 2613 C 254.405 -1.03799 -1.56867 0
M  V30 2614 O 253.763 -0.0155162 -1.81293 0
M  V30 2615 C 253.811 -3.44469 -1.06647 0
M  V30 2616 O 252.915 -3.50012 -2.18095 0
M  V30 2617 H 252.256 -0.652884 -0.12099 0
M  V30 2618 H 254.786 -2.02958 0.258661 0
M  V30 2619 H 254.796 -3.8351 -1.39227 0
M  V30 2620 H 253.471 -4.14932 -0.283581 0
M  V30 2621 H 252.048 -3.22822 -1.86656 0
M  V30 2622 N 254.233 0.115231 -1.57178 0
M  V30 2623 C 255.163 1.1423 -2.03651 0
M  V30 2624 C 256.144 1.42967 -0.921655 0
M  V30 2625 O 257.329 1.53343 -1.19162 0
M  V30 2626 C 254.459 2.4675 -2.44401 0
M  V30 2627 C 253.413 2.32467 -3.59365 0
M  V30 2628 C 252.739 3.69984 -3.86026 0
M  V30 2629 C 254.039 1.78203 -4.90959 0
M  V30 2630 H 255.733 0.755749 -2.89705 0
M  V30 2631 H 253.279 0.362093 -1.39373 0
M  V30 2632 H 255.232 3.18854 -2.75517 0
M  V30 2633 H 253.956 2.87302 -1.55322 0
M  V30 2634 H 252.615 1.62811 -3.28463 0
M  V30 2635 H 252.263 4.08028 -2.94147 0
M  V30 2636 H 251.963 3.61279 -4.63412 0
M  V30 2637 H 253.487 4.43587 -4.19599 0
M  V30 2638 H 254.901 2.40128 -5.20587 0
M  V30 2639 H 253.298 1.8031 -5.72371 0
M  V30 2640 H 254.368 0.739876 -4.79222 0
M  V30 2641 N 255.711 1.52812 0.385517 0
M  V30 2642 C 257.122 1.5993 0.963293 0
M  V30 2643 C 257.473 0.454302 1.90868 0
M  V30 2644 O 256.598 -0.422132 2.12243 0
M  V30 2645 C 257.193 2.89871 1.75387 0
M  V30 2646 C 255.752 2.99389 2.28129 0
M  V30 2647 C 254.899 2.55071 1.08783 0
M  V30 2648 H 257.85 1.5784 0.164948 0
M  V30 2649 H 257.871 2.76553 2.61341 0
M  V30 2650 H 257.383 3.73186 1.06554 0
M  V30 2651 H 255.484 2.20619 3.00263 0
M  V30 2652 H 255.597 4.04096 2.57377 0
M  V30 2653 H 253.961 2.09473 1.4489 0
M  V30 2654 H 254.744 3.40785 0.414807 0
M  V30 2655 N 257.189 -0.644168 1.43834 0
M  V30 2656 C 258.152 -1.73857 1.49353 0
M  V30 2657 C 259.152 -1.56315 0.377112 0
M  V30 2658 O 260.342 -1.62048 0.639226 0
M  V30 2659 C 257.474 -3.12819 1.35488 0
M  V30 2660 H 258.667 -1.70342 2.46827 0
M  V30 2661 H 256.22 -0.856652 1.30733 0
M  V30 2662 H 256.955 -3.2194 0.390569 0
M  V30 2663 H 256.74 -3.26958 2.16428 0
M  V30 2664 H 258.23 -3.92606 1.42302 0
M  V30 2665 N 258.668 -1.30515 -0.883378 0
M  V30 2666 C 259.598 -1.19607 -2.00541 0
M  V30 2667 C 260.579 -0.086346 -1.69881 0
M  V30 2668 O 261.764 -0.268654 -1.92333 0
M  V30 2669 C 258.894 -0.888758 -3.35736 0
M  V30 2670 C 257.848 -1.95659 -3.8066 0
M  V30 2671 C 257.174 -1.50224 -5.13164 0
M  V30 2672 C 258.474 -3.36788 -3.99213 0
M  V30 2673 H 260.168 -2.13476 -2.09925 0
M  V30 2674 H 257.714 -1.02775 -1.00863 0
M  V30 2675 H 259.667 -0.799094 -4.13754 0
M  V30 2676 H 258.391 0.0856125 -3.26488 0
M  V30 2677 H 257.05 -2.03591 -3.04871 0
M  V30 2678 H 256.698 -0.516092 -5.00345 0
M  V30 2679 H 256.398 -2.2165 -5.44192 0
M  V30 2680 H 257.922 -1.42639 -5.93706 0
M  V30 2681 H 259.336 -3.31605 -4.67665 0
M  V30 2682 H 257.733 -4.06314 -4.41621 0
M  V30 2683 H 258.803 -3.78561 -3.03017 0
M  V30 2684 N 260.146 1.09593 -1.13257 0
M  V30 2685 C 261.076 2.18214 -0.830946 0
M  V30 2686 C 262.057 1.68812 0.208966 0
M  V30 2687 O 263.242 1.9408 0.0682666 0
M  V30 2688 C 260.372 3.46051 -0.294296 0
M  V30 2689 C 259.326 4.08778 -1.26826 0
M  V30 2690 C 258.652 5.31419 -0.591449 0
M  V30 2691 C 259.952 4.51476 -2.62615 0
M  V30 2692 H 261.646 2.43703 -1.73923 0
M  V30 2693 H 259.192 1.17128 -0.837675 0
M  V30 2694 H 261.145 4.2134 -0.0709606 0
M  V30 2695 H 259.869 3.20079 0.649366 0
M  V30 2696 H 258.528 3.35505 -1.47756 0
M  V30 2697 H 258.176 5.01727 0.357633 0
M  V30 2698 H 257.876 5.74341 -1.24123 0
M  V30 2699 H 259.4 6.09433 -0.377355 0
M  V30 2700 H 260.814 5.17999 -2.45663 0
M  V30 2701 H 259.211 5.05277 -3.23752 0
M  V30 2702 H 260.281 3.63962 -3.20406 0
M  V30 2703 N 261.624 0.925811 1.2754 0
M  V30 2704 C 262.554 0.440748 2.29303 0
M  V30 2705 C 263.535 -0.497971 1.62648 0
M  V30 2706 O 264.72 -0.403126 1.8997 0
M  V30 2707 C 261.85 -0.309048 3.45922 0
M  V30 2708 C 260.804 0.54166 4.24559 0
M  V30 2709 C 260.13 -0.337191 5.33636 0
M  V30 2710 C 261.43 1.80516 4.90114 0
M  V30 2711 H 263.124 1.29121 2.70126 0
M  V30 2712 H 260.67 0.622323 1.29858 0
M  V30 2713 H 262.623 -0.659315 4.1621 0
M  V30 2714 H 261.347 -1.19352 3.04011 0
M  V30 2715 H 260.006 0.874609 3.56014 0
M  V30 2716 H 259.654 -1.22056 4.87966 0
M  V30 2717 H 259.354 0.228497 5.87156 0
M  V30 2718 H 260.878 -0.683072 6.06767 0
M  V30 2719 H 262.292 1.52307 5.52698 0
M  V30 2720 H 260.689 2.3142 5.53683 0
M  V30 2721 H 261.759 2.52581 4.13921 0
M  V30 2722 N 263.102 -1.41638 0.69111 0
M  V30 2723 C 264.351 -2.00526 0.217318 0
M  V30 2724 C 264.664 -1.55353 -1.18848 0
M  V30 2725 O 265.87 -2.06769 -1.75951 0
M  V30 2726 C 264.326 -3.58313 0.337639 0
M  V30 2727 C 263.934 -4.12469 1.74852 0
M  V30 2728 C 265.678 -4.24431 -0.0766066 0
M  V30 2729 C 263.585 -5.62675 1.82074 0
M  V30 2730 H 262.515 -0.750008 0.0774893 0
M  V30 2731 H 265.166 -1.6217 0.858661 0
M  V30 2732 H 263.548 -3.9425 -0.371879 0
M  V30 2733 H 264.722 -3.8796 2.48644 0
M  V30 2734 H 263.037 -3.58861 2.11205 0
M  V30 2735 H 265.634 -5.34683 -0.0430284 0
M  V30 2736 H 265.977 -4.01101 -1.1146 0
M  V30 2737 H 266.51 -3.93512 0.582476 0
M  V30 2738 H 263.249 -5.90826 2.83911 0
M  V30 2739 H 262.769 -5.89124 1.12661 0
M  V30 2740 H 264.448 -6.27371 1.58159 0
M  V30 2741 N 264.58 -0.43555 -1.51462 0
M  V30 2742 C 265.996 -0.0877501 -1.59359 0
M  V30 2743 C 266.196 1.4027 -1.4466 0
M  V30 2744 O 265.252 2.17243 -1.28693 0
M  V30 2745 C 266.565 -0.606264 -2.94525 0
M  V30 2746 C 268.113 -0.566548 -3.0783 0
M  V30 2747 C 268.588 -1.06201 -4.45517 0
M  V30 2748 N 270.079 -1.01992 -4.51832 0
M  V30 2749 C 270.814 -1.37417 -5.5669 0
M  V30 2750 N 270.31 -1.80119 -6.68976 0
M  V30 2751 N 272.103 -1.29245 -5.47039 0
M  V30 2752 H 264.254 -1.40533 -1.59261 0
M  V30 2753 H 266.517 -0.578992 -0.750648 0
M  V30 2754 H 266.223 -1.64901 -3.10645 0
M  V30 2755 H 266.097 -0.0302097 -3.77188 0
M  V30 2756 H 268.484 0.467208 -2.91378 0
M  V30 2757 H 268.565 -1.17898 -2.2701 0
M  V30 2758 H 268.209 -2.09422 -4.62715 0
M  V30 2759 H 268.139 -0.426127 -5.24873 0
M  V30 2760 H 270.63 -0.706308 -3.71241 0
M  V30 2761 H 270.943 -2.05392 -7.45006 0
M  V30 2762 H 269.288 -1.84044 -6.70189 0
M  V30 2763 H 272.479 -0.957522 -4.58202 0
M  V30 2764 H 272.652 -1.57182 -6.28648 0
M  V30 2765 N 266.058 1.56714 -0.166846 0
M  V30 2766 C 266.988 2.20754 0.760913 0
M  V30 2767 C 267.969 1.16178 1.24244 0
M  V30 2768 O 269.154 1.44592 1.29641 0
M  V30 2769 C 266.284 2.84478 1.99223 0
M  V30 2770 C 265.238 3.95053 1.64672 0
M  V30 2771 C 264.564 4.45805 2.95232 0
M  V30 2772 C 265.864 5.14865 0.878155 0
M  V30 2773 H 267.558 2.98537 0.22713 0
M  V30 2774 H 265.104 1.43596 0.107805 0
M  V30 2775 H 267.057 3.27951 2.64624 0
M  V30 2776 H 265.781 2.04056 2.55007 0
M  V30 2777 H 264.44 3.52228 1.01641 0
M  V30 2778 H 264.088 3.62181 3.49047 0
M  V30 2779 H 263.788 5.204 2.7287 0
M  V30 2780 H 265.312 4.91962 3.6167 0
M  V30 2781 H 266.726 5.55059 1.43466 0
M  V30 2782 H 265.123 5.95348 0.753738 0
M  V30 2783 H 266.193 4.84735 -0.126377 0
M  V30 2784 N 267.536 -0.106894 1.57237 0
M  V30 2785 C 268.947 -0.662723 1.74542 0
M  V30 2786 C 269.298 -1.7971 0.787319 0
M  V30 2787 O 268.423 -2.16368 -0.0369636 0
M  V30 2788 C 269.018 -1.20896 3.16496 0
M  V30 2789 C 267.577 -1.71096 3.35266 0
M  V30 2790 C 266.724 -0.615642 2.7038 0
M  V30 2791 H 269.675 0.119106 1.58252 0
M  V30 2792 H 269.696 -2.07847 3.18716 0
M  V30 2793 H 269.208 -0.383122 3.86204 0
M  V30 2794 H 267.309 -2.56119 2.70618 0
M  V30 2795 H 267.422 -1.81208 4.43509 0
M  V30 2796 H 265.786 -1.05222 2.31949 0
M  V30 2797 H 266.569 0.199419 3.4272 0
M  V30 2798 N 269.014 -1.53014 -0.377408 0
M  V30 2799 C 270.244 -1.72265 -1.14054 0
M  V30 2800 C 270.652 -0.44601 -1.83868 0
M  V30 2801 O 269.995 0.590095 -1.73964 0
M  V30 2802 C 270.057 -2.82492 -2.22348 0
M  V30 2803 C 269.721 -4.23233 -1.72402 0
M  V30 2804 C 270.718 -5.05992 -1.19448 0
M  V30 2805 C 268.403 -4.696 -1.78273 0
M  V30 2806 C 270.397 -6.33203 -0.730268 0
M  V30 2807 C 268.084 -5.96792 -1.31464 0
M  V30 2808 C 269.082 -6.78424 -0.789297 0
M  V30 2809 O 268.77 -8.0323 -0.328077 0
M  V30 2810 H 268.502 -0.579873 -0.347453 0
M  V30 2811 H 271.056 -2.00502 -0.445882 0
M  V30 2812 H 269.286 -2.49702 -2.95272 0
M  V30 2813 H 270.975 -2.90034 -2.83963 0
M  V30 2814 H 271.741 -4.71349 -1.14259 0
M  V30 2815 H 267.62 -4.06142 -2.18106 0
M  V30 2816 H 271.164 -6.96868 -0.319542 0
M  V30 2817 H 267.061 -6.30937 -1.36342 0
M  V30 2818 H 267.829 -8.1727 -0.448493 0
M  V30 2819 N 270.492 0.636531 -1.44174 0
M  V30 2820 C 271.72 1.42353 -1.50144 0
M  V30 2821 C 272.135 1.88389 -0.124575 0
M  V30 2822 O 271.492 1.6051 0.868489 0
M  V30 2823 C 271.543 2.64744 -2.46156 0
M  V30 2824 O 271.264 2.20629 -3.7849 0
M  V30 2825 C 272.765 3.57929 -2.61537 0
M  V30 2826 H 269.985 0.436752 -0.5094 0
M  V30 2827 H 272.529 0.778933 -1.89084 0
M  V30 2828 H 270.684 3.25307 -2.10366 0
M  V30 2829 H 271.098 2.99938 -4.30276 0
M  V30 2830 H 272.572 4.40428 -3.32757 0
M  V30 2831 H 273.049 4.06382 -1.66585 0
M  V30 2832 H 273.655 3.03238 -2.98206 0
M  V30 2833 N 271.97 1.30982 0.876444 0
M  V30 2834 C 272.933 1.18054 1.96459 0
M  V30 2835 C 273.933 0.109399 1.60427 0
M  V30 2836 O 275.123 0.358173 1.70478 0
M  V30 2837 C 272.255 0.810616 3.31122 0
M  V30 2838 H 273.448 2.14735 2.09354 0
M  V30 2839 H 271.001 1.145 1.06392 0
M  V30 2840 H 271.736 -0.155322 3.23928 0
M  V30 2841 H 271.521 1.58481 3.58645 0
M  V30 2842 H 273.011 0.743876 4.10921 0
M  V30 2843 N 273.449 -1.08991 1.13837 0
M  V30 2844 C 274.674 -1.85551 0.926585 0
M  V30 2845 C 275.099 -1.80782 -0.519566 0
M  V30 2846 O 274.457 -1.18855 -1.36906 0
M  V30 2847 C 274.505 -3.31266 1.42462 0
M  V30 2848 O 273.609 -4.07822 0.612789 0
M  V30 2849 H 272.95 -0.575192 0.331738 0
M  V30 2850 H 275.48 -1.37604 1.51414 0
M  V30 2851 H 275.49 -3.82112 1.43019 0
M  V30 2852 H 274.165 -3.34052 2.47754 0
M  V30 2853 H 272.742 -3.66731 0.675463 0
M  V30 2854 N 274.927 -0.932562 -1.27047 0
M  V30 2855 C 276.152 -0.591474 -1.98787 0
M  V30 2856 C 276.577 0.824601 -1.69062 0
M  V30 2857 O 275.935 1.5541 -0.933677 0
M  V30 2858 C 275.983 -0.829808 -3.50922 0
M  V30 2859 O 275.087 0.102266 -4.12273 0
M  V30 2860 H 274.428 -0.227185 -0.623926 0
M  V30 2861 H 276.958 -1.25314 -1.61733 0
M  V30 2862 H 276.968 -0.747292 -4.01098 0
M  V30 2863 H 275.643 -1.86201 -3.7189 0
M  V30 2864 H 274.22 -0.0305761 -3.72887 0
M  V30 2865 N 276.405 1.4127 -0.698611 0
M  V30 2866 C 277.653 2.00782 -0.230409 0
M  V30 2867 C 277.974 1.5562 1.17505 0
M  V30 2868 O 277.244 0.78815 1.79346 0
M  V30 2869 H 275.824 0.742464 -0.0821944 0
M  V30 2870 H 278.486 1.72852 -0.90045 0
M  V30 2871 H 277.582 3.11095 -0.25021 0
M  V30 2872 N 277.883 0.443576 1.51229 0
M  V30 2873 C 278.813 -0.355142 2.30783 0
M  V30 2874 C 279.794 -1.0154 1.36468 0
M  V30 2875 O 280.979 -1.01785 1.65389 0
M  V30 2876 C 278.109 -1.45312 3.15439 0
M  V30 2877 C 277.063 -0.916002 4.18083 0
M  V30 2878 C 276.389 -2.1102 4.91299 0
M  V30 2879 C 277.689 0.0538602 5.22272 0
M  V30 2880 H 279.383 0.308767 2.97804 0
M  V30 2881 H 276.929 0.149937 1.43217 0
M  V30 2882 H 278.882 -2.01914 3.69876 0
M  V30 2883 H 277.606 -2.14541 2.46252 0
M  V30 2884 H 276.265 -0.372145 3.64706 0
M  V30 2885 H 275.913 -2.78882 4.18609 0
M  V30 2886 H 275.613 -1.75717 5.60712 0
M  V30 2887 H 277.137 -2.68164 5.48562 0
M  V30 2888 H 278.551 -0.422069 5.71744 0
M  V30 2889 H 276.948 0.319776 5.99247 0
M  V30 2890 H 278.018 0.98858 4.74716 0
M  V30 2891 N 279.361 -1.56624 0.175154 0
M  V30 2892 C 280.294 -2.14 -0.792412 0
M  V30 2893 C 281.272 -1.07114 -1.22333 0
M  V30 2894 O 282.456 -1.35112 -1.31442 0
M  V30 2895 C 279.583 -2.68268 -2.0676 0
M  V30 2896 C 278.629 -3.87562 -1.7804 0
M  V30 2897 S 279.462 -5.27074 -0.946222 0
M  V30 2898 C 280.618 -5.8475 -2.23199 0
M  V30 2899 H 280.851 -2.95736 -0.304588 0
M  V30 2900 H 278.384 -1.54349 -0.0395705 0
M  V30 2901 H 280.342 -3.00182 -2.80002 0
M  V30 2902 H 279.003 -1.86612 -2.52656 0
M  V30 2903 H 278.196 -4.23874 -2.72666 0
M  V30 2904 H 277.798 -3.56555 -1.12891 0
M  V30 2905 H 280.09 -5.97898 -3.18629 0
M  V30 2906 H 281.033 -6.81756 -1.91349 0
M  V30 2907 H 281.441 -5.13198 -2.35134 0
M  V30 2908 N 280.839 0.0985539 -1.57292 0
M  V30 2909 C 281.802 1.10402 -2.00858 0
M  V30 2910 C 282.802 1.33146 -0.901593 0
M  V30 2911 O 283.992 1.29318 -1.16716 0
M  V30 2912 C 281.124 2.45394 -2.36632 0
M  V30 2913 H 282.317 0.729099 -2.90902 0
M  V30 2914 H 279.87 0.343495 -1.52479 0
M  V30 2915 H 280.605 2.87769 -1.49531 0
M  V30 2916 H 280.39 2.30235 -3.17387 0
M  V30 2917 H 281.88 3.17718 -2.71007 0
M  V30 2918 N 282.317 1.53212 0.369288 0
M  V30 2919 C 283.728 1.60943 0.946276 0
M  V30 2920 C 284.079 0.47452 1.90375 0
M  V30 2921 O 283.204 -0.399597 2.12679 0
M  V30 2922 C 283.799 2.91715 1.72302 0
M  V30 2923 C 282.358 3.01792 2.24941 0
M  V30 2924 C 281.505 2.56211 1.06072 0
M  V30 2925 H 284.456 1.58007 0.148198 0
M  V30 2926 H 284.477 2.79309 2.58393 0
M  V30 2927 H 283.989 3.74295 1.0259 0
M  V30 2928 H 282.09 2.23791 2.97906 0
M  V30 2929 H 282.203 4.06803 2.53077 0
M  V30 2930 H 280.567 2.10998 1.4266 0
M  V30 2931 H 281.35 3.41206 0.378639 0
M  V30 2932 N 283.795 -0.628877 1.44509 0
M  V30 2933 C 285.211 -0.947305 1.28446 0
M  V30 2934 C 285.411 -2.00275 0.221872 0
M  V30 2935 O 284.467 -2.49447 -0.391471 0
M  V30 2936 C 285.78 -1.40843 2.65676 0
M  V30 2937 C 287.328 -1.52379 2.73404 0
M  V30 2938 C 287.803 -2.01875 4.11109 0
M  V30 2939 N 289.294 -2.09142 4.13296 0
M  V30 2940 C 290.029 -2.48615 5.16699 0
M  V30 2941 N 289.525 -2.87209 6.30462 0
M  V30 2942 N 291.318 -2.48768 5.04054 0
M  V30 2943 H 283.469 0.0690977 2.12288 0
M  V30 2944 H 285.732 -0.0317164 0.947469 0
M  V30 2945 H 285.438 -0.707206 3.44516 0
M  V30 2946 H 285.312 -2.37902 2.92716 0
M  V30 2947 H 287.699 -2.21598 1.9488 0
M  V30 2948 H 287.78 -0.536898 2.50102 0
M  V30 2949 H 287.424 -1.3325 4.90109 0
M  V30 2950 H 287.354 -3.0144 4.31789 0
M  V30 2951 H 289.845 -1.81991 3.31191 0
M  V30 2952 H 290.158 -3.16149 7.05174 0
M  V30 2953 H 288.503 -2.84955 6.33897 0
M  V30 2954 H 291.694 -2.18009 4.14234 0
M  V30 2955 H 291.867 -2.79207 5.84763 0
M  V30 2956 N 285.273 -1.31445 -0.869486 0
M  V30 2957 C 286.183 -1.21097 -2.0093 0
M  V30 2958 C 287.199 -0.127584 -1.73532 0
M  V30 2959 O 288.375 -0.345477 -1.98415 0
M  V30 2960 C 285.44 -0.919378 -3.34288 0
M  V30 2961 C 284.501 -2.08971 -3.75006 0
M  V30 2962 C 283.734 -1.81194 -5.02001 0
M  V30 2963 O 283.957 -0.747296 -5.65484 0
M  V30 2964 O 282.891 -2.66883 -5.39497 0
M  V30 2965 H 286.717 -2.16883 -2.12592 0
M  V30 2966 H 284.302 -1.11189 -0.997868 0
M  V30 2967 H 286.184 -0.772625 -4.14257 0
M  V30 2968 H 284.859 0.00844772 -3.23699 0
M  V30 2969 H 283.766 -2.29187 -2.95676 0
M  V30 2970 H 285.099 -2.9998 -3.90221 0
M  V30 2971 N 286.751 1.08385 -1.14413 0
M  V30 2972 C 287.997 1.81044 -0.913834 0
M  V30 2973 C 288.33 1.86004 0.558209 0
M  V30 2974 O 287.605 1.33606 1.4135 0
M  V30 2975 C 287.888 3.26648 -1.51569 0
M  V30 2976 C 287.741 3.29895 -3.0576 0
M  V30 2977 C 289.06 4.23629 -1.19273 0
M  V30 2978 H 286.179 0.65727 -0.333414 0
M  V30 2979 H 288.821 1.26896 -1.41412 0
M  V30 2980 H 286.971 3.72889 -1.09023 0
M  V30 2981 H 288.643 2.91977 -3.57137 0
M  V30 2982 H 286.886 2.69163 -3.40197 0
M  V30 2983 H 287.557 4.32516 -3.42977 0
M  V30 2984 H 290.033 3.85727 -1.56057 0
M  V30 2985 H 288.909 5.23822 -1.64017 0
M  V30 2986 H 289.17 4.41968 -0.108068 0
M  V30 2987 N 288.23 0.939286 1.26551 0
M  V30 2988 C 289.16 0.465044 2.28822 0
M  V30 2989 C 290.141 -0.480692 1.63167 0
M  V30 2990 O 291.326 -0.382955 1.90387 0
M  V30 2991 C 288.456 -0.27234 3.46231 0
M  V30 2992 C 287.41 0.58666 4.2396 0
M  V30 2993 C 286.736 -0.280573 5.33963 0
M  V30 2994 C 288.036 1.85704 4.88171 0
M  V30 2995 H 289.73 1.31979 2.68741 0
M  V30 2996 H 287.276 0.636061 1.29191 0
M  V30 2997 H 289.229 -0.615133 4.16886 0
M  V30 2998 H 287.953 -1.16121 3.0526 0
M  V30 2999 H 286.612 0.91232 3.55067 0
M  V30 3000 H 286.26 -1.16874 4.89234 0
M  V30 3001 H 285.96 0.29076 5.8688 0
M  V30 3002 H 287.484 -0.618678 6.07458 0
M  V30 3003 H 288.898 1.58161 5.51052 0
M  V30 3004 H 287.295 2.37279 5.51197 0
M  V30 3005 H 288.365 2.56957 4.11219 0
M  V30 3006 N 289.708 -1.40897 0.706093 0
M  V30 3007 C 290.936 -2.05373 0.250887 0
M  V30 3008 C 291.351 -1.53172 -1.10381 0
M  V30 3009 O 290.708 -0.684305 -1.69185 0
M  V30 3010 C 290.759 -3.6088 0.211571 0
M  V30 3011 O 290.48 -4.11153 1.51276 0
M  V30 3012 C 291.981 -4.42517 -0.263346 0
M  V30 3013 H 289.201 -0.66115 0.114552 0
M  V30 3014 H 291.745 -1.80479 0.961635 0
M  V30 3015 H 289.9 -3.84777 -0.450073 0
M  V30 3016 H 290.314 -5.05279 1.40689 0
M  V30 3017 H 291.788 -5.51479 -0.239718 0
M  V30 3018 H 292.265 -4.19396 -1.30397 0
M  V30 3019 H 292.871 -4.23708 0.367677 0
M  V30 3020 N 291.186 -0.45159 -1.50991 0
M  V30 3021 C 292.434 0.109857 -2.01801 0
M  V30 3022 C 292.755 1.41958 -1.3369 0
M  V30 3023 O 292.025 1.9003 -0.475951 0
M  V30 3024 H 290.605 0.0435884 -0.745727 0
M  V30 3025 H 293.267 -0.597557 -1.85514 0
M  V30 3026 H 292.363 0.275489 -3.10882 0
M  V30 3027 N 292.664 1.56529 -0.183458 0
M  V30 3028 C 293.612 2.19873 0.758845 0
M  V30 3029 C 294.606 1.16638 1.22849 0
M  V30 3030 O 295.812 1.3481 1.19274 0
M  V30 3031 H 292.187 0.7045 0.263029 0
M  V30 3032 H 294.158 2.97724 0.200755 0
M  V30 3033 C 292.907 2.86314 1.9728 0
M  V30 3034 H 292.23 3.65487 1.62047 0
M  V30 3035 H 293.67 3.3409 2.61075 0
M  V30 3036 C 292.129 1.86729 2.80418 0
M  V30 3037 O 292.659 1.36031 3.77966 0
M  V30 3038 N 290.865 1.55216 2.45675 0
M  V30 3039 H 290.412 1.96636 1.66409 0
M  V30 3040 H 290.37 0.888388 3.01588 0
M  V30 3041 N 294.142 -0.090211 1.57342 0
M  V30 3042 C 295.419 -0.824761 1.77361 0
M  V30 3043 C 295.799 -1.96698 0.76637 0
M  V30 3044 O 295.147 -2.27586 -0.204179 0
M  V30 3045 C 295.357 -1.31481 3.23286 0
M  V30 3046 C 296.705 -1.75563 3.86604 0
M  V30 3047 O 297.729 -1.41093 3.27065 0
M  V30 3048 O 296.588 -2.39317 4.91314 0
M  V30 3049 H 293.682 -0.393776 0.727234 0
M  V30 3050 H 296.228 -0.0717138 1.69548 0
M  V30 3051 H 295 -0.496671 3.88135 0
M  V30 3052 H 294.623 -2.12973 3.35751 0
M  V30 3053 N 295.62 -1.53406 -0.361157 0
M  V30 3054 C 296.53 -1.83122 -1.4664 0
M  V30 3055 C 297.546 -0.719943 -1.58407 0
M  V30 3056 O 298.722 -1.01046 -1.74218 0
M  V30 3057 C 295.787 -2.01891 -2.81853 0
M  V30 3058 C 294.848 -3.25784 -2.79577 0
M  V30 3059 C 294.081 -3.43648 -4.0834 0
M  V30 3060 O 294.304 -2.65714 -5.0473 0
M  V30 3061 O 293.238 -4.37018 -4.13883 0
M  V30 3062 H 297.064 -2.7703 -1.24451 0
M  V30 3063 H 294.649 -1.38841 -0.551678 0
M  V30 3064 H 296.531 -2.15782 -3.61962 0
M  V30 3065 H 295.206 -1.11173 -3.0401 0
M  V30 3066 H 294.113 -3.17312 -1.98151 0
M  V30 3067 H 295.446 -4.16439 -2.62373 0
M  V30 3068 N 297.098 0.621204 -1.44841 0
M  V30 3069 C 298.344 1.3826 -1.48365 0
M  V30 3070 C 298.677 1.93831 -0.119624 0
M  V30 3071 O 297.952 1.74251 0.864111 0
M  V30 3072 C 298.235 2.54058 -2.55199 0
M  V30 3073 C 298.088 2.03772 -4.00995 0
M  V30 3074 C 299.407 3.56225 -2.58442 0
M  V30 3075 H 296.526 0.501374 -0.540179 0
M  V30 3076 H 299.168 0.7015 -1.76576 0
M  V30 3077 H 297.318 3.12162 -2.31274 0
M  V30 3078 H 298.99 1.50423 -4.36086 0
M  V30 3079 H 297.233 1.34876 -4.12299 0
M  V30 3080 H 297.904 2.87185 -4.71411 0
M  V30 3081 H 300.38 3.07939 -2.79844 0
M  V30 3082 H 299.256 4.34756 -3.3508 0
M  V30 3083 H 299.517 4.10949 -1.63013 0
M  V30 3084 N 298.576 1.31904 0.862503 0
M  V30 3085 C 299.825 1.21373 1.61094 0
M  V30 3086 C 300.138 -0.22504 1.94301 0
M  V30 3087 O 301.344 -0.452121 2.67709 0
M  V30 3088 C 299.8 2.12525 2.9045 0
M  V30 3089 C 299.408 3.61441 2.64697 0
M  V30 3090 C 301.152 2.10813 3.68454 0
M  V30 3091 C 299.059 4.44578 3.90006 0
M  V30 3092 H 297.989 0.450705 0.604468 0
M  V30 3093 H 300.64 1.56811 0.953027 0
M  V30 3094 H 299.022 1.69994 3.57656 0
M  V30 3095 H 300.196 4.12264 2.05851 0
M  V30 3096 H 298.511 3.65205 2.00036 0
M  V30 3097 H 301.108 2.70167 4.61426 0
M  V30 3098 H 301.451 1.09713 4.01583 0
M  V30 3099 H 301.984 2.51583 3.08141 0
M  V30 3100 H 298.723 5.46461 3.62023 0
M  V30 3101 H 298.243 3.98508 4.48276 0
M  V30 3102 H 299.922 4.57176 4.5782 0
M  V30 3103 N 300.054 -1.07777 1.14986 0
M  V30 3104 C 301.302 -1.79934 0.920235 0
M  V30 3105 C 301.623 -1.86955 -0.554336 0
M  V30 3106 O 300.893 -1.36731 -1.40291 0
M  V30 3107 H 299.473 -0.666424 0.337473 0
M  V30 3108 H 302.135 -1.3027 1.44968 0
M  V30 3109 H 301.231 -2.82539 1.32583 0
M  V30 3110 N 301.532 -0.945985 -1.26051 0
M  V30 3111 C 302.464 -0.416662 -2.25381 0
M  V30 3112 C 303.477 0.462712 -1.56086 0
M  V30 3113 O 304.666 0.272383 -1.7641 0
M  V30 3114 C 301.766 0.419812 -3.3629 0
M  V30 3115 C 300.939 -0.444531 -4.35135 0
M  V30 3116 C 299.998 0.332305 -5.2515 0
M  V30 3117 O 299.024 -0.266324 -5.68577 0
M  V30 3118 N 300.226 1.62763 -5.57215 0
M  V30 3119 H 302.991 -1.27059 -2.71433 0
M  V30 3120 H 300.552 -0.815392 -1.39868 0
M  V30 3121 H 302.544 0.947013 -3.93464 0
M  V30 3122 H 301.114 1.17456 -2.89694 0
M  V30 3123 H 300.334 -1.15291 -3.76964 0
M  V30 3124 H 301.622 -1.03478 -4.98166 0
M  V30 3125 H 301.02 2.13603 -5.23823 0
M  V30 3126 H 299.577 2.10097 -6.17011 0
M  V30 3127 N 303.011 1.40521 -0.713556 0
M  V30 3128 C 304.257 2.01221 -0.252564 0
M  V30 3129 C 304.59 1.56444 1.1506 0
M  V30 3130 O 303.865 0.783597 1.78017 0
M  V30 3131 C 304.148 3.58582 -0.330332 0
M  V30 3132 C 304.001 4.13437 -1.77173 0
M  V30 3133 C 305.32 4.39079 0.299641 0
M  V30 3134 H 302.439 0.731077 -0.0932471 0
M  V30 3135 H 305.081 1.67026 -0.905673 0
M  V30 3136 H 303.231 3.87844 0.225737 0
M  V30 3137 H 304.903 3.9498 -2.38303 0
M  V30 3138 H 303.146 3.67801 -2.3001 0
M  V30 3139 H 303.817 5.22597 -1.77755 0
M  V30 3140 H 306.293 4.15735 -0.174139 0
M  V30 3141 H 305.169 5.4848 0.214771 0
M  V30 3142 H 305.43 4.19915 1.38288 0
M  V30 3143 N 304.489 0.459591 1.5075 0
M  V30 3144 C 305.419 -0.330644 2.31147 0
M  V30 3145 C 306.4 -1.00087 1.37538 0
M  V30 3146 O 307.585 -1.00025 1.66459 0
M  V30 3147 C 304.715 -1.41958 3.16962 0
M  V30 3148 C 303.669 -0.871608 4.19031 0
M  V30 3149 C 302.995 -2.05797 4.9351 0
M  V30 3150 C 304.295 0.109251 5.22186 0
M  V30 3151 H 305.989 0.340336 2.97459 0
M  V30 3152 H 303.535 0.165119 1.4305 0
M  V30 3153 H 305.488 -1.9798 3.71997 0
M  V30 3154 H 304.212 -2.11917 2.48513 0
M  V30 3155 H 302.871 -0.333442 3.6508 0
M  V30 3156 H 302.519 -2.74427 4.21544 0
M  V30 3157 H 302.219 -1.6976 5.62544 0
M  V30 3158 H 303.743 -2.62331 5.51375 0
M  V30 3159 H 305.157 -0.361405 5.7216 0
M  V30 3160 H 303.554 0.383316 5.98875 0
M  V30 3161 H 304.624 1.03887 4.73641 0
M  V30 3162 N 305.967 -1.56429 0.191757 0
M  V30 3163 C 307.192 -2.02309 -0.456706 0
M  V30 3164 C 307.617 -1.07103 -1.5463 0
M  V30 3165 O 306.975 -0.0539677 -1.8122 0
M  V30 3166 C 307.023 -3.46654 -0.993159 0
M  V30 3167 O 306.127 -3.54559 -2.10622 0
M  V30 3168 H 305.468 -0.655303 -0.107114 0
M  V30 3169 H 307.998 -2.02364 0.301653 0
M  V30 3170 H 308.008 -3.86377 -1.31061 0
M  V30 3171 H 306.683 -4.1544 -0.195504 0
M  V30 3172 H 305.26 -3.26708 -1.79767 0
M  V30 3173 N 307.445 0.0818655 -1.57387 0
M  V30 3174 C 308.673 0.796108 -1.9097 0
M  V30 3175 C 309.088 1.71626 -0.786757 0
M  V30 3176 O 308.445 1.80908 0.240513 0
M  V30 3177 C 308.496 1.59829 -3.24248 0
M  V30 3178 O 308.217 0.715131 -4.32224 0
M  V30 3179 C 309.718 2.41442 -3.7178 0
M  V30 3180 H 306.938 0.22691 -0.631469 0
M  V30 3181 H 309.482 0.0551439 -2.04426 0
M  V30 3182 H 307.637 2.29163 -3.12351 0
M  V30 3183 H 308.051 1.27205 -5.08841 0
M  V30 3184 H 309.525 2.932 -4.67694 0
M  V30 3185 H 310.002 3.2051 -3.00283 0
M  V30 3186 H 310.608 1.77283 -3.86589 0
M  V30 3187 N 308.923 1.53595 0.353017 0
M  V30 3188 C 309.853 1.83902 1.43883 0
M  V30 3189 C 310.834 0.693421 1.55324 0
M  V30 3190 O 312.019 0.944452 1.69687 0
M  V30 3191 C 309.149 2.04016 2.8106 0
M  V30 3192 C 308.103 3.19814 2.84434 0
M  V30 3193 C 307.429 3.25244 4.24406 0
M  V30 3194 C 308.729 4.58133 2.50822 0
M  V30 3195 H 310.423 2.74835 1.1877 0
M  V30 3196 H 307.969 1.32242 0.569917 0
M  V30 3197 H 309.922 2.238 3.57059 0
M  V30 3198 H 308.646 1.09804 3.07588 0
M  V30 3199 H 307.305 2.9987 2.10887 0
M  V30 3200 H 306.953 2.28646 4.48029 0
M  V30 3201 H 306.653 4.03054 4.27576 0
M  V30 3202 H 308.177 3.47228 5.0226 0
M  V30 3203 H 309.591 4.77995 3.16534 0
M  V30 3204 H 307.988 5.38276 2.6529 0
M  V30 3205 H 309.058 4.62387 1.46034 0
M  V30 3206 N 310.401 -0.613514 1.45168 0
M  V30 3207 C 311.348 -1.72456 1.53387 0
M  V30 3208 C 312.318 -1.6169 0.380191 0
M  V30 3209 O 313.503 -1.81356 0.592836 0
M  V30 3210 C 310.643 -3.10753 1.50088 0
M  V30 3211 C 309.756 -3.32368 2.75963 0
M  V30 3212 C 308.891 -4.60737 2.64376 0
M  V30 3213 C 307.93 -4.7559 3.85332 0
M  V30 3214 N 307.067 -5.95253 3.72315 0
M  V30 3215 H 311.907 -1.64768 2.48305 0
M  V30 3216 H 309.444 -0.803503 1.23216 0
M  V30 3217 H 311.402 -3.90758 1.46164 0
M  V30 3218 H 310.032 -3.17413 0.587243 0
M  V30 3219 H 309.084 -2.4618 2.89999 0
M  V30 3220 H 310.396 -3.39218 3.65695 0
M  V30 3221 H 309.55 -5.48928 2.58385 0
M  V30 3222 H 308.289 -4.56275 1.72233 0
M  V30 3223 H 307.294 -3.85824 3.91688 0
M  V30 3224 H 308.519 -4.81854 4.78533 0
M  V30 3225 H 306.465 -5.91847 2.82937 0
M  V30 3226 H 306.382 -6.03236 4.55677 0
M  V30 3227 H 307.65 -6.85958 3.70246 0
M  V30 3228 N 311.879 -1.3236 -0.855495 0
M  V30 3229 C 313.104 -1.2601 -1.64731 0
M  V30 3230 C 313.529 0.169068 -1.87339 0
M  V30 3231 O 312.887 1.12016 -1.42556 0
M  V30 3232 C 312.935 -2.02417 -2.98429 0
M  V30 3233 O 312.039 -1.3714 -3.8893 0
M  V30 3234 H 311.38 -0.434325 -0.502253 0
M  V30 3235 H 313.91 -1.74661 -1.06558 0
M  V30 3236 H 313.92 -2.12559 -3.48257 0
M  V30 3237 H 312.595 -3.06343 -2.81295 0
M  V30 3238 H 311.172 -1.3554 -3.47395 0
M  V30 3239 N 313.357 1.07166 -1.15556 0
M  V30 3240 C 314.267 2.17947 -0.868116 0
M  V30 3241 C 315.283 1.73297 0.156297 0
M  V30 3242 O 316.459 2.01392 -0.0182327 0
M  V30 3243 C 313.524 3.44789 -0.36355 0
M  V30 3244 C 312.585 4.03996 -1.45209 0
M  V30 3245 C 311.818 5.24783 -0.971508 0
M  V30 3246 O 312.041 5.70109 0.182194 0
M  V30 3247 O 310.975 5.75715 -1.75603 0
M  V30 3248 H 314.801 2.4503 -1.79427 0
M  V30 3249 H 312.386 1.16539 -0.934824 0
M  V30 3250 H 314.268 4.21307 -0.0887113 0
M  V30 3251 H 312.943 3.19253 0.534708 0
M  V30 3252 H 311.85 3.29009 -1.78056 0
M  V30 3253 H 313.183 4.33808 -2.32533 0
M  V30 3254 N 314.835 0.952656 1.25548 0
M  V30 3255 C 316.112 0.523818 1.88456 0
M  V30 3256 C 316.492 -0.998871 1.85973 0
M  V30 3257 O 315.84 -1.86381 1.3219 0
M  V30 3258 C 316.05 1.0982 3.31271 0
M  V30 3259 C 317.398 1.17385 4.08051 0
M  V30 3260 O 318.422 1.04961 3.40384 0
M  V30 3261 O 317.281 1.36852 5.29088 0
M  V30 3262 H 314.375 0.172485 0.808813 0
M  V30 3263 H 316.921 1.04596 1.33633 0
M  V30 3264 H 315.693 2.1415 3.27499 0
M  V30 3265 H 315.316 0.559191 3.93648 0
M  V30 3266 N 316.313 -1.40141 0.720998 0
M  V30 3267 C 317.559 -2.01084 0.263231 0
M  V30 3268 C 317.892 -1.57052 -1.14229 0
M  V30 3269 O 317.167 -0.793027 -1.77599 0
M  V30 3270 C 317.45 -3.58401 0.349344 0
M  V30 3271 C 317.303 -4.12491 1.79363 0
M  V30 3272 C 318.622 -4.39231 -0.276351 0
M  V30 3273 H 315.741 -0.730572 0.0971228 0
M  V30 3274 H 318.383 -1.66543 0.914518 0
M  V30 3275 H 316.533 -3.87958 -0.205165 0
M  V30 3276 H 318.205 -3.93711 2.40394 0
M  V30 3277 H 316.448 -3.66576 2.31958 0
M  V30 3278 H 317.119 -5.21646 1.80524 0
M  V30 3279 H 319.595 -4.15637 0.196184 0
M  V30 3280 H 318.471 -5.48586 -0.185681 0
M  V30 3281 H 318.732 -4.20643 -1.36059 0
M  V30 3282 N 317.792 -0.46758 -1.50504 0
M  V30 3283 C 319.203 -0.0116166 -1.86696 0
M  V30 3284 C 319.554 1.39202 -1.38265 0
M  V30 3285 O 318.679 2.0313 -0.746132 0
M  V30 3286 C 319.274 -0.0143044 -3.38797 0
M  V30 3287 C 317.833 0.386175 -3.74414 0
M  V30 3288 C 316.98 -0.401287 -2.74381 0
M  V30 3289 H 319.931 -0.682022 -1.43297 0
M  V30 3290 H 319.952 0.788641 -3.72237 0
M  V30 3291 H 319.464 -1.03602 -3.74016 0
M  V30 3292 H 317.565 1.41237 -3.44794 0
M  V30 3293 H 317.678 0.0899596 -4.79016 0
M  V30 3294 H 316.042 0.144536 -2.5429 0
M  V30 3295 H 316.825 -1.42244 -3.12444 0
M  V30 3296 N 319.27 1.56325 -0.20005 0
M  V30 3297 C 320.5 2.01811 0.442232 0
M  V30 3298 C 320.908 1.07932 1.55394 0
M  V30 3299 O 320.251 0.0772685 1.83537 0
M  V30 3300 C 320.313 3.43685 1.05457 0
M  V30 3301 C 319.977 4.56928 0.0809833 0
M  V30 3302 C 320.974 5.15009 -0.711471 0
M  V30 3303 C 318.659 5.0229 -0.0315364 0
M  V30 3304 C 320.653 6.16904 -1.60336 0
M  V30 3305 C 318.34 6.04028 -0.926981 0
M  V30 3306 C 319.338 6.6121 -1.71146 0
M  V30 3307 O 319.026 7.60971 -2.59189 0
M  V30 3308 H 318.758 0.666173 0.114848 0
M  V30 3309 H 321.312 2.03085 -0.307511 0
M  V30 3310 H 319.542 3.39413 1.85299 0
M  V30 3311 H 321.231 3.72948 1.60201 0
M  V30 3312 H 321.997 4.80827 -0.634873 0
M  V30 3313 H 317.876 4.57476 0.568902 0
M  V30 3314 H 321.42 6.61464 -2.21611 0
M  V30 3315 H 317.317 6.37634 -1.00468 0
M  V30 3316 H 318.085 7.7841 -2.53023 0
M  V30 3317 N 320.748 -0.0735177 1.57428 0
M  V30 3318 C 321.976 -0.785969 1.9139 0
M  V30 3319 C 322.391 -1.71207 0.795847 0
M  V30 3320 O 321.748 -1.81033 -0.230915 0
M  V30 3321 C 321.799 -1.58107 3.25091 0
M  V30 3322 O 321.52 -0.6922 4.32597 0
M  V30 3323 C 323.021 -2.39467 3.73055 0
M  V30 3324 H 320.241 -0.223558 0.632663 0
M  V30 3325 H 322.785 -0.044302 2.04452 0
M  V30 3326 H 320.94 -2.27503 3.13562 0
M  V30 3327 H 321.354 -1.24504 5.09508 0
M  V30 3328 H 322.828 -2.90716 4.69242 0
M  V30 3329 H 323.305 -3.18913 3.01979 0
M  V30 3330 H 323.911 -1.7523 3.87523 0
M  V30 3331 N 322.226 -1.5378 -0.344866 0
M  V30 3332 C 323.189 -1.80981 -1.40637 0
M  V30 3333 C 324.189 -0.680816 -1.45676 0
M  V30 3334 O 325.379 -0.949095 -1.46075 0
M  V30 3335 C 322.511 -1.95063 -2.79577 0
M  V30 3336 H 323.704 -2.75803 -1.17783 0
M  V30 3337 H 321.257 -1.45173 -0.579181 0
M  V30 3338 H 321.992 -1.02379 -3.07716 0
M  V30 3339 H 321.777 -2.77198 -2.77315 0
M  V30 3340 H 323.267 -2.17629 -3.56409 0
M  V30 3341 N 323.704 0.605807 -1.45491 0
M  V30 3342 C 324.667 1.69836 -1.5391 0
M  V30 3343 C 325.667 1.55261 -0.418424 0
M  V30 3344 O 326.857 1.60296 -0.681965 0
M  V30 3345 C 323.989 3.09117 -1.43734 0
M  V30 3346 H 325.182 1.63738 -2.51257 0
M  V30 3347 H 322.735 0.821689 -1.32959 0
M  V30 3348 H 323.47 3.20791 -0.475788 0
M  V30 3349 H 323.255 3.21104 -2.25021 0
M  V30 3350 H 324.745 3.88696 -1.52661 0
M  V30 3351 N 325.182 1.32811 0.848464 0
M  V30 3352 C 326.112 1.24882 1.97299 0
M  V30 3353 C 327.093 0.131357 1.69592 0
M  V30 3354 O 328.278 0.319553 1.91553 0
M  V30 3355 C 325.408 0.97746 3.33261 0
M  V30 3356 C 324.362 2.05682 3.75338 0
M  V30 3357 C 323.688 1.63777 5.09 0
M  V30 3358 C 324.988 3.47254 3.90144 0
M  V30 3359 H 326.682 2.18966 2.04191 0
M  V30 3360 H 324.228 1.05413 0.981029 0
M  V30 3361 H 326.181 0.908513 4.1149 0
M  V30 3362 H 324.905 0.000980011 3.266 0
M  V30 3363 H 323.564 2.11603 2.99366 0
M  V30 3364 H 323.212 0.648569 4.98801 0
M  V30 3365 H 322.912 2.36 5.38124 0
M  V30 3366 H 324.436 1.5833 5.89715 0
M  V30 3367 H 325.85 3.43888 4.58709 0
M  V30 3368 H 324.247 4.1788 4.30693 0
M  V30 3369 H 325.317 3.86462 2.92874 0
M  V30 3370 N 326.66 -1.06551 1.16123 0
M  V30 3371 C 327.888 -1.83005 0.965237 0
M  V30 3372 C 328.303 -1.82423 -0.486542 0
M  V30 3373 O 327.66 -1.24152 -1.33763 0
M  V30 3374 C 327.711 -3.29733 1.48183 0
M  V30 3375 O 327.432 -3.30416 2.87674 0
M  V30 3376 C 328.933 -4.22926 1.32848 0
M  V30 3377 H 326.153 -0.577118 0.342309 0
M  V30 3378 H 328.697 -1.3445 1.54089 0
M  V30 3379 H 326.852 -3.75609 0.948517 0
M  V30 3380 H 327.266 -4.22149 3.11272 0
M  V30 3381 H 328.74 -5.23916 1.73827 0
M  V30 3382 H 329.217 -4.38346 0.273692 0
M  V30 3383 H 329.823 -3.82894 1.85127 0
M  V30 3384 N 328.138 -0.959301 -1.25041 0
M  V30 3385 C 329.101 -0.487677 -2.23952 0
M  V30 3386 C 330.101 0.41119 -1.55454 0
M  V30 3387 O 331.291 0.207825 -1.72956 0
M  V30 3388 C 328.423 0.294807 -3.39623 0
M  V30 3389 H 329.616 -1.36198 -2.67189 0
M  V30 3390 H 327.169 -0.743042 -1.37508 0
M  V30 3391 H 327.904 1.18658 -3.01813 0
M  V30 3392 H 327.689 -0.35012 -3.90534 0
M  V30 3393 H 329.179 0.614089 -4.1306 0
M  V30 3394 N 329.616 1.39756 -0.72842 0
M  V30 3395 C 330.862 2.00942 -0.273892 0
M  V30 3396 C 331.195 1.57656 1.13394 0
M  V30 3397 O 330.47 0.802434 1.77176 0
M  V30 3398 C 330.753 3.58211 -0.368346 0
M  V30 3399 C 330.606 4.11534 -1.81548 0
M  V30 3400 C 331.925 4.39372 0.253054 0
M  V30 3401 H 329.044 0.730047 -0.100996 0
M  V30 3402 H 331.686 1.66056 -0.923337 0
M  V30 3403 H 329.836 3.88061 0.184588 0
M  V30 3404 H 331.508 3.92431 -2.42478 0
M  V30 3405 H 329.751 3.65341 -2.33898 0
M  V30 3406 H 330.422 5.20682 -1.83288 0
M  V30 3407 H 332.898 4.15527 -0.218224 0
M  V30 3408 H 331.774 5.48677 0.156585 0
M  V30 3409 H 332.035 4.21358 1.33826 0
M  V30 3410 N 331.094 0.475555 1.50254 0
M  V30 3411 C 332.51 0.12997 1.5907 0
M  V30 3412 C 332.71 -1.36385 1.48328 0
M  V30 3413 O 331.766 -2.13754 1.34407 0
M  V30 3414 C 333.079 0.684139 2.92814 0
M  V30 3415 C 334.627 0.647965 3.0622 0
M  V30 3416 C 335.102 1.17975 4.42545 0
M  V30 3417 N 336.593 1.13936 4.48969 0
M  V30 3418 C 337.328 1.52129 5.52851 0
M  V30 3419 N 336.824 1.97793 6.63965 0
M  V30 3420 N 338.617 1.43704 5.4342 0
M  V30 3421 H 330.768 1.44706 1.55479 0
M  V30 3422 H 333.031 0.598691 0.735033 0
M  V30 3423 H 332.737 1.73079 3.06164 0
M  V30 3424 H 332.611 0.130204 3.76975 0
M  V30 3425 H 334.998 -0.38979 2.92514 0
M  V30 3426 H 335.079 1.23876 2.23805 0
M  V30 3427 H 334.723 2.21616 4.57 0
M  V30 3428 H 334.653 0.565138 5.23559 0
M  V30 3429 H 337.144 0.804488 3.69238 0
M  V30 3430 H 337.457 2.25072 7.39299 0
M  V30 3431 H 335.802 2.01749 6.65073 0
M  V30 3432 H 338.993 1.07867 4.55502 0
M  V30 3433 H 339.166 1.73794 6.24259 0
M  V30 3434 N 332.573 -1.56217 0.208337 0
M  V30 3435 C 333.984 -1.84243 -0.301904 0
M  V30 3436 C 334.335 -1.12939 -1.60434 0
M  V30 3437 O 333.46 -0.39461 -2.12772 0
M  V30 3438 C 334.055 -3.34231 -0.554543 0
M  V30 3439 C 332.614 -3.62621 -1.00912 0
M  V30 3440 C 331.761 -2.77224 -0.064933 0
M  V30 3441 H 334.712 -1.52712 0.431833 0
M  V30 3442 H 334.733 -3.5372 -1.40223 0
M  V30 3443 H 334.245 -3.86099 0.393561 0
M  V30 3444 H 332.346 -3.16197 -1.97104 0
M  V30 3445 H 332.459 -4.7071 -0.892674 0
M  V30 3446 H 330.823 -2.48256 -0.56929 0
M  V30 3447 H 331.606 -3.31887 0.877851 0
M  V30 3448 N 334.051 0.0651679 -1.57465 0
M  V30 3449 C 335.276 0.779605 -1.9219 0
M  V30 3450 C 335.701 1.69988 -0.805333 0
M  V30 3451 O 335.059 1.79685 0.241435 0
M  V30 3452 C 335.107 1.54364 -3.2589 0
M  V30 3453 O 334.211 2.65474 -3.1559 0
M  V30 3454 H 333.552 0.212249 -0.629163 0
M  V30 3455 H 336.082 0.0314294 -2.04576 0
M  V30 3456 H 336.092 1.92146 -3.59922 0
M  V30 3457 H 334.767 0.868457 -4.06732 0
M  V30 3458 H 333.344 2.30501 -2.93128 0
M  V30 3459 N 335.529 1.53961 0.336706 0
M  V30 3460 C 336.945 1.44378 0.680241 0
M  V30 3461 C 337.145 0.606034 1.9217 0
M  V30 3462 O 336.201 0.099688 2.52303 0
M  V30 3463 C 337.514 2.87945 0.8665 0
M  V30 3464 C 339.062 2.97763 0.964682 0
M  V30 3465 C 339.537 4.42453 1.18321 0
M  V30 3466 N 341.028 4.46008 1.25025 0
M  V30 3467 C 341.763 5.55102 1.43697 0
M  V30 3468 N 341.259 6.7419 1.59498 0
M  V30 3469 N 343.052 5.42727 1.463 0
M  V30 3470 H 335.203 2.06918 -0.479455 0
M  V30 3471 H 337.466 0.935634 -0.152619 0
M  V30 3472 H 337.172 3.51691 0.0256937 0
M  V30 3473 H 337.046 3.33293 1.76623 0
M  V30 3474 H 339.433 2.34153 1.796 0
M  V30 3475 H 339.514 2.55766 0.041708 0
M  V30 3476 H 339.158 5.06645 0.356788 0
M  V30 3477 H 339.088 4.82048 2.11985 0
M  V30 3478 H 341.579 3.60196 1.14312 0
M  V30 3479 H 341.892 7.53095 1.734 0
M  V30 3480 H 340.237 6.77123 1.56621 0
M  V30 3481 H 343.428 4.48647 1.33543 0
M  V30 3482 H 343.601 6.27806 1.6051 0
M  V30 3483 N 337.007 -0.598083 1.45811 0
M  V30 3484 C 338.253 -1.35882 1.50545 0
M  V30 3485 C 338.586 -1.93616 0.150445 0
M  V30 3486 O 337.861 -1.75604 -0.83628 0
M  V30 3487 C 338.144 -2.49966 2.59208 0
M  V30 3488 C 337.997 -1.97367 4.04186 0
M  V30 3489 C 339.316 -3.52068 2.64076 0
M  V30 3490 H 336.435 -0.492717 0.548087 0
M  V30 3491 H 339.077 -0.673319 1.77669 0
M  V30 3492 H 337.227 -3.08443 2.3621 0
M  V30 3493 H 338.899 -1.43466 4.38423 0
M  V30 3494 H 337.142 -1.283 4.14393 0
M  V30 3495 H 337.813 -2.79649 4.75921 0
M  V30 3496 H 340.289 -3.03448 2.84708 0
M  V30 3497 H 339.165 -4.2937 3.41954 0
M  V30 3498 H 339.426 -4.08304 1.69531 0
M  V30 3499 N 338.485 -1.33259 -0.841409 0
M  V30 3500 C 339.448 -1.23221 -1.9326 0
M  V30 3501 C 340.448 -0.151895 -1.60081 0
M  V30 3502 O 341.638 -0.403246 -1.69468 0
M  V30 3503 C 338.77 -0.898123 -3.28856 0
M  V30 3504 H 339.963 -2.2021 -2.03587 0
M  V30 3505 H 337.516 -1.17281 -1.03319 0
M  V30 3506 H 338.251 0.0693841 -3.24226 0
M  V30 3507 H 338.036 -1.67934 -3.54317 0
M  V30 3508 H 339.526 -0.852563 -4.08805 0
M  V30 3509 N 339.963 1.05934 -1.16686 0
M  V30 3510 C 341.379 1.30938 -0.912542 0
M  V30 3511 C 341.579 1.96803 0.432533 0
M  V30 3512 O 340.635 2.23693 1.17123 0
M  V30 3513 C 341.948 2.18649 -2.06429 0
M  V30 3514 C 343.496 2.32055 -2.10047 0
M  V30 3515 C 343.971 3.23122 -3.24586 0
M  V30 3516 N 345.462 3.30706 -3.24327 0
M  V30 3517 C 346.197 4.01273 -4.09594 0
M  V30 3518 N 345.693 4.74332 -5.04956 0
M  V30 3519 N 347.486 3.97361 -3.97569 0
M  V30 3520 H 339.637 0.615777 -2.03278 0
M  V30 3521 H 341.9 0.334077 -0.887185 0
M  V30 3522 H 341.606 1.77534 -3.03603 0
M  V30 3523 H 341.48 3.19252 -2.00894 0
M  V30 3524 H 343.867 2.72415 -1.13464 0
M  V30 3525 H 343.948 1.31107 -2.19647 0
M  V30 3526 H 343.592 2.83477 -4.2143 0
M  V30 3527 H 343.522 4.24057 -3.12223 0
M  V30 3528 H 346.013 2.78644 -2.55276 0
M  V30 3529 H 346.326 5.25716 -5.6643 0
M  V30 3530 H 344.671 4.733 -5.08933 0
M  V30 3531 H 347.862 3.39405 -3.22369 0
M  V30 3532 H 348.035 4.52089 -4.64241 0
M  V30 3533 N 341.441 0.965919 1.2453 0
M  V30 3534 C 342.718 0.543777 1.87889 0
M  V30 3535 C 343.098 -0.97909 1.87021 0
M  V30 3536 O 342.446 -1.84969 1.3416 0
M  V30 3537 C 342.656 1.13327 3.30088 0
M  V30 3538 C 344.004 1.21707 4.06783 0
M  V30 3539 O 345.028 1.08566 3.39252 0
M  V30 3540 O 343.887 1.42456 5.27606 0
M  V30 3541 H 340.981 0.181054 0.806938 0
M  V30 3542 H 343.527 1.06007 1.32516 0
M  V30 3543 H 342.299 2.17612 3.25209 0
M  V30 3544 H 341.922 0.600911 3.93033 0
M  V30 3545 N 342.919 -1.39368 0.735821 0
M  V30 3546 C 344.165 -2.00794 0.284544 0
M  V30 3547 C 344.498 -1.58255 -1.12557 0
M  V30 3548 O 343.773 -0.811819 -1.76748 0
M  V30 3549 C 344.056 -3.58011 0.387337 0
M  V30 3550 C 343.909 -4.10566 1.83728 0
M  V30 3551 C 345.228 -4.395 -0.22975 0
M  V30 3552 H 342.347 -0.729501 0.104866 0
M  V30 3553 H 344.989 -1.65564 0.93213 0
M  V30 3554 H 343.139 -3.88154 -0.164006 0
M  V30 3555 H 344.811 -3.91139 2.44556 0
M  V30 3556 H 343.054 -3.64095 2.35833 0
M  V30 3557 H 343.725 -5.19702 1.86047 0
M  V30 3558 H 346.201 -4.15406 0.240257 0
M  V30 3559 H 345.077 -5.48752 -0.127485 0
M  V30 3560 H 345.338 -4.22062 -1.3159 0
M  V30 3561 N 344.397 -0.483516 -1.5 0
M  V30 3562 C 345.36 0.292965 -2.2732 0
M  V30 3563 C 346.36 0.909499 -1.32608 0
M  V30 3564 O 347.55 0.776745 -1.55924 0
M  V30 3565 C 344.682 1.41854 -3.09984 0
M  V30 3566 H 345.875 -0.385289 -2.97415 0
M  V30 3567 H 343.428 -0.237942 -1.54478 0
M  V30 3568 H 344.163 2.13148 -2.44414 0
M  V30 3569 H 343.948 0.982114 -3.79601 0
M  V30 3570 H 345.438 1.96597 -3.68429 0
M  V30 3571 N 345.875 1.56104 -0.216619 0
M  V30 3572 C 347.121 1.98466 0.417033 0
M  V30 3573 C 347.454 1.10403 1.59765 0
M  V30 3574 O 346.729 0.160632 1.93836 0
M  V30 3575 C 347.012 3.49769 0.85637 0
M  V30 3576 C 346.865 4.48606 -0.327546 0
M  V30 3577 C 348.184 4.05339 1.7143 0
M  V30 3578 H 345.303 0.721551 0.150112 0
M  V30 3579 H 347.945 1.87423 -0.311864 0
M  V30 3580 H 346.095 3.5931 1.47745 0
M  V30 3581 H 347.767 4.5108 -0.965618 0
M  V30 3582 H 346.01 4.22682 -0.975805 0
M  V30 3583 H 346.681 5.51995 0.0227149 0
M  V30 3584 H 349.157 3.98712 1.19031 0
M  V30 3585 H 348.033 5.11533 1.99061 0
M  V30 3586 H 348.294 3.51918 2.67593 0
M  V30 3587 N 347.353 -0.0568162 1.57498 0
M  V30 3588 C 348.599 -0.75422 1.88253 0
M  V30 3589 C 348.932 -1.76461 0.810865 0
M  V30 3590 O 348.207 -1.93691 -0.177259 0
M  V30 3591 C 348.49 -1.44878 3.2967 0
M  V30 3592 C 348.343 -0.453789 4.47505 0
M  V30 3593 C 349.662 -2.38994 3.69554 0
M  V30 3594 H 346.781 -0.272724 0.684683 0
M  V30 3595 H 349.423 -0.0172113 1.89992 0
M  V30 3596 H 347.573 -2.077 3.28318 0
M  V30 3597 H 349.245 0.170371 4.60985 0
M  V30 3598 H 347.488 0.229552 4.33192 0
M  V30 3599 H 348.159 -0.977699 5.43273 0
M  V30 3600 H 350.635 -1.86239 3.72095 0
M  V30 3601 H 349.511 -2.84587 4.69363 0
M  V30 3602 H 349.772 -3.24461 3.00296 0
M  V30 3603 N 348.832 -1.54138 -0.328536 0
M  V30 3604 C 349.795 -1.82462 -1.38709 0
M  V30 3605 C 350.795 -0.696229 -1.44946 0
M  V30 3606 O 351.985 -0.964535 -1.4506 0
M  V30 3607 C 349.117 -1.98018 -2.77492 0
M  V30 3608 H 350.31 -2.77037 -1.14851 0
M  V30 3609 H 347.863 -1.45779 -0.563751 0
M  V30 3610 H 348.598 -1.05637 -3.06613 0
M  V30 3611 H 348.383 -2.80124 -2.74359 0
M  V30 3612 H 349.873 -2.21396 -3.54081 0
M  V30 3613 N 350.31 0.590341 -1.46126 0
M  V30 3614 C 351.558 1.34616 -1.50742 0
M  V30 3615 C 351.879 1.94363 -0.157486 0
M  V30 3616 O 351.149 1.78136 0.815136 0
M  V30 3617 H 349.729 0.499789 -0.555175 0
M  V30 3618 H 352.391 0.691953 -1.82203 0
M  V30 3619 H 351.487 2.15678 -2.25587 0
M  V30 3620 N 351.788 1.33704 0.83433 0
M  V30 3621 C 353.036 1.25169 1.58673 0
M  V30 3622 C 353.357 -0.18127 1.94156 0
M  V30 3623 O 352.627 -1.11113 1.6134 0
M  V30 3624 H 351.207 0.4603 0.58833 0
M  V30 3625 H 353.869 1.67478 0.996847 0
M  V30 3626 H 352.965 1.84856 2.51465 0
M  V30 3627 N 353.266 -1.05314 1.17247 0
M  V30 3628 C 354.196 -2.1498 0.911362 0
M  V30 3629 C 355.177 -1.69471 -0.146169 0
M  V30 3630 O 356.362 -1.942 0.003812 0
M  V30 3631 C 353.492 -3.4472 0.422528 0
M  V30 3632 C 352.446 -4.03789 1.4191 0
M  V30 3633 C 351.772 -5.28858 0.788274 0
M  V30 3634 C 353.072 -4.41418 2.7919 0
M  V30 3635 H 354.766 -2.3708 1.82848 0
M  V30 3636 H 352.312 -1.13938 0.880569 0
M  V30 3637 H 354.265 -4.20787 0.227289 0
M  V30 3638 H 352.989 -3.22269 -0.530123 0
M  V30 3639 H 351.648 -3.2979 1.60106 0
M  V30 3640 H 351.296 -5.02709 -0.171173 0
M  V30 3641 H 350.996 -5.69338 1.45353 0
M  V30 3642 H 352.52 -6.07612 0.603282 0
M  V30 3643 H 353.934 -5.08524 2.64719 0
M  V30 3644 H 352.331 -4.92913 3.42282 0
M  V30 3645 H 353.401 -3.51819 3.33693 0
M  V30 3646 N 354.744 -0.972509 -1.24016 0
M  V30 3647 C 355.992 -0.635776 -1.91839 0
M  V30 3648 C 356.313 0.832312 -1.76345 0
M  V30 3649 O 355.583 1.5946 -1.13795 0
M  V30 3650 H 354.163 -0.232157 -0.710009 0
M  V30 3651 H 356.825 -1.23462 -1.50809 0
M  V30 3652 H 355.921 -0.880545 -2.99421 0
M  V30 3653 N 356.222 1.38976 -0.743202 0
M  V30 3654 C 357.638 1.53984 -0.419664 0
M  V30 3655 C 357.838 1.70837 1.0685 0
M  V30 3656 O 356.894 1.7135 1.8546 0
M  V30 3657 C 358.207 2.75287 -1.20985 0
M  V30 3658 C 359.755 2.89129 -1.19889 0
M  V30 3659 C 360.23 4.13381 -1.97181 0
M  V30 3660 N 361.721 4.20437 -1.94389 0
M  V30 3661 C 362.456 5.15547 -2.50996 0
M  V30 3662 N 361.952 6.16395 -3.16274 0
M  V30 3663 N 363.745 5.07822 -2.40984 0
M  V30 3664 H 355.896 1.26285 -1.7078 0
M  V30 3665 H 358.159 0.612689 -0.723406 0
M  V30 3666 H 357.865 2.69204 -2.26323 0
M  V30 3667 H 357.739 3.68184 -0.819759 0
M  V30 3668 H 360.126 2.947 -0.153606 0
M  V30 3669 H 360.207 1.97272 -1.62841 0
M  V30 3670 H 359.851 4.08572 -3.01714 0
M  V30 3671 H 359.781 5.04298 -1.51629 0
M  V30 3672 H 362.272 3.48205 -1.46839 0
M  V30 3673 H 362.585 6.85443 -3.56915 0
M  V30 3674 H 360.93 6.16758 -3.20367 0
M  V30 3675 H 364.121 4.27973 -1.89622 0
M  V30 3676 H 364.294 5.81767 -2.85397 0
M  V30 3677 N 357.7 0.491464 1.49741 0
M  V30 3678 C 358.632 -0.328609 2.26832 0
M  V30 3679 C 359.645 -0.939113 1.32983 0
M  V30 3680 O 360.834 -0.824067 1.58339 0
M  V30 3681 C 357.934 -1.47675 3.05033 0
M  V30 3682 C 357.107 -0.975305 4.26388 0
M  V30 3683 C 356.166 -1.99991 4.86714 0
M  V30 3684 O 355.192 -1.57229 5.47054 0
M  V30 3685 N 356.394 -3.32962 4.75517 0
M  V30 3686 H 359.159 0.332377 2.97851 0
M  V30 3687 H 356.72 0.323441 1.58636 0
M  V30 3688 H 358.712 -2.15954 3.42266 0
M  V30 3689 H 357.282 -2.04206 2.36683 0
M  V30 3690 H 356.502 -0.117723 3.94024 0
M  V30 3691 H 357.79 -0.618531 5.05026 0
M  V30 3692 H 357.188 -3.70399 4.27576 0
M  V30 3693 H 355.745 -3.96982 5.16961 0
M  V30 3694 N 359.178 -1.55987 0.224894 0
M  V30 3695 C 360.108 -2.23426 -0.678457 0
M  V30 3696 C 361.089 -1.20709 -1.19847 0
M  V30 3697 O 362.274 -1.49304 -1.24186 0
M  V30 3698 C 359.404 -2.91676 -1.88527 0
M  V30 3699 C 358.358 -4.00893 -1.49896 0
M  V30 3700 C 357.684 -4.56455 -2.78483 0
M  V30 3701 C 358.984 -5.17769 -0.686461 0
M  V30 3702 H 360.678 -2.99175 -0.116173 0
M  V30 3703 H 358.224 -1.43897 -0.054436 0
M  V30 3704 H 360.177 -3.37547 -2.5227 0
M  V30 3705 H 358.901 -2.1338 -2.47258 0
M  V30 3706 H 357.56 -3.55758 -0.884985 0
M  V30 3707 H 357.208 -3.74886 -3.35365 0
M  V30 3708 H 356.908 -5.30169 -2.53368 0
M  V30 3709 H 358.432 -5.05047 -3.43162 0
M  V30 3710 H 359.846 -5.60001 -1.22767 0
M  V30 3711 H 358.243 -5.97735 -0.532259 0
M  V30 3712 H 359.313 -4.83932 0.306196 0
M  V30 3713 N 360.656 0.0484629 -1.57525 0
M  V30 3714 C 361.586 1.0549 -2.08313 0
M  V30 3715 C 362.567 1.38929 -0.981463 0
M  V30 3716 O 363.752 1.48151 -1.25558 0
M  V30 3717 C 360.882 2.36162 -2.54646 0
M  V30 3718 C 359.836 2.17016 -3.68901 0
M  V30 3719 C 359.162 3.53278 -4.01371 0
M  V30 3720 C 360.462 1.57219 -4.98076 0
M  V30 3721 H 362.156 0.632195 -2.92649 0
M  V30 3722 H 359.702 0.302654 -1.40784 0
M  V30 3723 H 361.655 3.06882 -2.88793 0
M  V30 3724 H 360.379 2.80456 -1.67368 0
M  V30 3725 H 359.038 1.48733 -3.35073 0
M  V30 3726 H 358.686 3.95185 -3.11188 0
M  V30 3727 H 358.386 3.41299 -4.78318 0
M  V30 3728 H 359.91 4.25391 -4.38035 0
M  V30 3729 H 361.324 2.17832 -5.30304 0
M  V30 3730 H 359.721 1.55871 -5.79503 0
M  V30 3731 H 360.791 0.535956 -4.81929 0
M  V30 3732 N 362.134 1.5431 0.320358 0
M  V30 3733 C 363.066 1.80262 1.41556 0
M  V30 3734 C 364.079 0.684723 1.477 0
M  V30 3735 O 365.268 0.961886 1.50366 0
M  V30 3736 C 362.368 1.90825 2.8007 0
M  V30 3737 C 361.541 3.21023 2.97091 0
M  V30 3738 C 360.6 3.22247 4.15985 0
M  V30 3739 O 359.626 3.95871 4.08992 0
M  V30 3740 N 360.828 2.46258 5.25678 0
M  V30 3741 H 363.593 2.74778 1.19655 0
M  V30 3742 H 361.154 1.53646 0.510358 0
M  V30 3743 H 363.146 1.89067 3.57821 0
M  V30 3744 H 361.716 1.03392 2.95006 0
M  V30 3745 H 360.936 3.35715 2.06614 0
M  V30 3746 H 362.224 4.0698 3.05361 0
M  V30 3747 H 361.622 1.86037 5.34235 0
M  V30 3748 H 360.179 2.50275 6.01835 0
M  V30 3749 N 363.613 -0.582584 1.46437 0
M  V30 3750 C 364.56 -1.69164 1.5701 0
M  V30 3751 C 365.53 -1.60847 0.414403 0
M  V30 3752 O 366.715 -1.80058 0.631171 0
M  V30 3753 C 363.855 -3.075 1.56646 0
M  V30 3754 C 362.968 -3.2644 2.82951 0
M  V30 3755 C 362.103 -4.55026 2.7409 0
M  V30 3756 C 361.142 -4.6731 3.95333 0
M  V30 3757 N 360.279 -5.87221 3.84858 0
M  V30 3758 H 365.119 -1.59464 2.51744 0
M  V30 3759 H 362.656 -0.777186 1.24893 0
M  V30 3760 H 364.614 -3.8757 1.5442 0
M  V30 3761 H 363.244 -3.16096 0.654439 0
M  V30 3762 H 362.296 -2.39974 2.95155 0
M  V30 3763 H 363.608 -3.31385 3.72808 0
M  V30 3764 H 362.762 -5.43324 2.6997 0
M  V30 3765 H 361.501 -4.52519 1.81873 0
M  V30 3766 H 360.506 -3.77429 3.99784 0
M  V30 3767 H 361.731 -4.71595 4.88646 0
M  V30 3768 H 359.677 -5.85712 2.95427 0
M  V30 3769 H 359.594 -5.93435 4.6837 0
M  V30 3770 H 360.862 -6.7795 3.84713 0
M  V30 3771 N 365.091 -1.34144 -0.827227 0
M  V30 3772 C 366.023 -1.21206 -1.9453 0
M  V30 3773 C 367.036 -0.140176 -1.62195 0
M  V30 3774 O 368.225 -0.391647 -1.7415 0
M  V30 3775 C 365.325 -0.839141 -3.28347 0
M  V30 3776 C 364.498 -2.0051 -3.88734 0
M  V30 3777 C 363.557 -1.61128 -5.00923 0
M  V30 3778 O 362.583 -2.32726 -5.19449 0
M  V30 3779 N 363.785 -0.522958 -5.7814 0
M  V30 3780 H 366.55 -2.17525 -2.06162 0
M  V30 3781 H 364.111 -1.27043 -1.00358 0
M  V30 3782 H 366.103 -0.557556 -4.00841 0
M  V30 3783 H 364.673 0.0337293 -3.12582 0
M  V30 3784 H 363.893 -2.45166 -3.08686 0
M  V30 3785 H 365.181 -2.78498 -4.25812 0
M  V30 3786 H 364.579 0.0723518 -5.65654 0
M  V30 3787 H 363.136 -0.301089 -6.51104 0
M  V30 3788 N 366.569 1.04691 -1.17803 0
M  V30 3789 C 367.98 1.59238 -0.974689 0
M  V30 3790 C 368.331 1.90306 0.477292 0
M  V30 3791 O 367.456 1.68846 1.35352 0
M  V30 3792 C 368.051 2.89318 -1.76296 0
M  V30 3793 C 366.61 3.40506 -1.60414 0
M  V30 3794 C 365.757 2.14172 -1.76141 0
M  V30 3795 H 368.708 0.874395 -1.32439 0
M  V30 3796 H 368.729 3.5944 -1.24833 0
M  V30 3797 H 368.241 2.66675 -2.81968 0
M  V30 3798 H 366.342 3.68175 -0.572519 0
M  V30 3799 H 366.455 4.14753 -2.39827 0
M  V30 3800 H 364.819 2.25176 -1.19028 0
M  V30 3801 H 365.602 1.93992 -2.83235 0
M  V30 3802 N 368.047 0.979072 1.23499 0
M  V30 3803 C 369.293 0.648178 1.92163 0
M  V30 3804 C 369.626 -0.816049 1.76222 0
M  V30 3805 O 368.901 -1.58849 1.12237 0
M  V30 3806 C 369.184 1.03773 3.44824 0
M  V30 3807 C 369.037 2.55948 3.69879 0
M  V30 3808 C 370.356 0.580653 4.36253 0
M  V30 3809 H 367.475 0.236952 0.69787 0
M  V30 3810 H 370.117 1.22012 1.45647 0
M  V30 3811 H 368.267 0.551058 3.84572 0
M  V30 3812 H 369.939 3.12179 3.3962 0
M  V30 3813 H 368.182 2.98641 3.14636 0
M  V30 3814 H 368.853 2.78255 4.76737 0
M  V30 3815 H 371.329 0.998465 4.03943 0
M  V30 3816 H 370.205 0.881663 5.41773 0
M  V30 3817 H 370.466 -0.519052 4.39042 0
M  V30 3818 N 369.525 -1.3858 0.750561 0
M  V30 3819 C 370.75 -2.04997 0.314812 0
M  V30 3820 C 371.175 -1.56235 -1.04749 0
M  V30 3821 O 370.533 -0.712981 -1.66692 0
M  V30 3822 C 370.581 -3.58961 0.343415 0
M  V30 3823 O 369.685 -4.07025 -0.663628 0
M  V30 3824 H 369.026 -0.649081 0.139962 0
M  V30 3825 H 371.556 -1.77313 1.02084 0
M  V30 3826 H 371.566 -4.07542 0.193233 0
M  V30 3827 H 370.241 -3.93811 1.33738 0
M  V30 3828 H 368.818 -3.6982 -0.478307 0
M  V30 3829 N 371.003 -0.499398 -1.49478 0
M  V30 3830 C 372.414 -0.051215 -1.8663 0
M  V30 3831 C 372.765 1.36238 -1.41186 0
M  V30 3832 O 371.89 2.01502 -0.789051 0
M  V30 3833 C 372.485 -0.0861651 -3.3869 0
M  V30 3834 C 371.044 0.30667 -3.75149 0
M  V30 3835 C 370.191 -0.459397 -2.73468 0
M  V30 3836 H 373.142 -0.712264 -1.41818 0
M  V30 3837 H 373.163 0.709507 -3.73826 0
M  V30 3838 H 372.675 -1.11512 -3.71735 0
M  V30 3839 H 370.776 1.33892 -3.47712 0
M  V30 3840 H 370.889 -0.0116669 -4.79099 0
M  V30 3841 H 369.253 0.0905645 -2.54539 0
M  V30 3842 H 370.036 -1.4884 -3.09357 0
M  V30 3843 N 372.481 1.55866 -0.233164 0
M  V30 3844 C 373.727 1.98897 0.395959 0
M  V30 3845 C 374.06 1.12091 1.58585 0
M  V30 3846 O 373.335 0.181182 1.93654 0
M  V30 3847 C 373.618 3.50658 0.819224 0
M  V30 3848 C 373.471 4.48233 -0.375109 0
M  V30 3849 C 374.79 4.07135 1.67121 0
M  V30 3850 H 371.909 0.723102 0.142451 0
M  V30 3851 H 374.551 1.87082 -0.331725 0
M  V30 3852 H 372.701 3.60857 1.43925 0
M  V30 3853 H 374.373 4.50031 -1.01341 0
M  V30 3854 H 372.616 4.21624 -1.02058 0
M  V30 3855 H 373.287 5.51988 -0.0358328 0
M  V30 3856 H 375.763 3.99952 1.14795 0
M  V30 3857 H 374.639 5.13615 1.93625 0
M  V30 3858 H 374.9 3.54736 2.63846 0
M  V30 3859 N 373.959 -0.0401083 1.57549 0
M  V30 3860 C 375.208 -0.732108 1.87944 0
M  V30 3861 C 375.521 -1.77107 0.830206 0
M  V30 3862 O 376.727 -2.51488 1.02302 0
M  V30 3863 C 375.183 -1.35315 3.33494 0
M  V30 3864 C 374.791 -0.351105 4.46622 0
M  V30 3865 C 376.535 -2.02566 3.73051 0
M  V30 3866 C 374.442 -0.979859 5.83226 0
M  V30 3867 H 373.372 -0.277188 0.701201 0
M  V30 3868 H 376.023 0.0138501 1.83495 0
M  V30 3869 H 374.405 -2.14844 3.32653 0
M  V30 3870 H 375.579 0.416674 4.58912 0
M  V30 3871 H 373.894 0.218708 4.15825 0
M  V30 3872 H 376.491 -2.50441 4.72423 0
M  V30 3873 H 376.834 -2.83904 3.04474 0
M  V30 3874 H 377.367 -1.29827 3.76018 0
M  V30 3875 H 374.106 -0.206135 6.55176 0
M  V30 3876 H 373.626 -1.71774 5.74677 0
M  V30 3877 H 375.305 -1.49046 6.29599 0
M  V30 3878 N 375.437 -1.54477 -0.31217 0
M  V30 3879 C 376.387 -1.81037 -1.38598 0
M  V30 3880 C 377.371 -0.666941 -1.46426 0
M  V30 3881 O 378.563 -0.927269 -1.50767 0
M  V30 3882 C 375.692 -2.05127 -2.75277 0
M  V30 3883 C 374.778 -3.25624 -2.71716 0
M  V30 3884 N 375.169 -4.46428 -2.37773 0
M  V30 3885 C 373.467 -3.27427 -3.02833 0
M  V30 3886 C 374.168 -5.28406 -2.43232 0
M  V30 3887 N 373.144 -4.6586 -2.80135 0
M  V30 3888 H 376.946 -2.7201 -1.11301 0
M  V30 3889 H 374.46 -1.53826 -0.520705 0
M  V30 3890 H 376.457 -2.22299 -3.52688 0
M  V30 3891 H 375.117 -1.15416 -3.03495 0
M  V30 3892 H 376.128 -4.73227 -2.1042 0
M  V30 3893 H 372.805 -2.47786 -3.36018 0
M  V30 3894 H 374.195 -6.34903 -2.19882 0
M  V30 3895 N 376.915 0.57481 -1.46744 0
M  V30 3896 C 378.326 1.15695 -1.46532 0
M  V30 3897 C 378.677 1.95068 -0.210425 0
M  V30 3898 O 377.802 2.05241 0.685944 0
M  V30 3899 C 378.397 2.1048 -2.65487 0
M  V30 3900 C 376.956 2.64002 -2.68291 0
M  V30 3901 C 376.103 1.40026 -2.39349 0
M  V30 3902 H 379.054 0.362325 -1.54509 0
M  V30 3903 H 379.075 2.94074 -2.41455 0
M  V30 3904 H 378.587 1.52683 -3.56805 0
M  V30 3905 H 376.688 3.25646 -1.81067 0
M  V30 3906 H 376.801 3.06197 -3.68483 0
M  V30 3907 H 375.165 1.70106 -1.89568 0
M  V30 3908 H 375.948 0.840485 -3.32852 0
M  V30 3909 N 378.394 1.34581 0.820102 0
M  V30 3910 C 379.805 1.24298 1.39309 0
M  V30 3911 C 380.156 -0.130351 1.95767 0
M  V30 3912 O 379.281 -1.0308 1.90272 0
M  V30 3913 C 379.876 2.25054 2.53251 0
M  V30 3914 C 378.435 2.18552 3.0645 0
M  V30 3915 C 377.582 2.11503 1.79337 0
M  V30 3916 H 380.533 1.45906 0.624262 0
M  V30 3917 H 380.554 1.86917 3.31425 0
M  V30 3918 H 380.066 3.24996 2.1213 0
M  V30 3919 H 378.167 1.21976 3.52069 0
M  V30 3920 H 378.28 3.0993 3.65349 0
M  V30 3921 H 376.644 1.57268 2.00347 0
M  V30 3922 H 377.427 3.13284 1.40386 0
M  V30 3923 N 379.872 -1.04064 1.18357 0
M  V30 3924 C 381.118 -1.77528 0.980397 0
M  V30 3925 C 381.451 -1.87948 -0.48879 0
M  V30 3926 O 380.726 -1.3876 -1.36293 0
M  V30 3927 C 381.009 -3.20797 1.63588 0
M  V30 3928 C 380.862 -3.1832 3.17793 0
M  V30 3929 C 382.181 -4.18911 1.34914 0
M  V30 3930 H 379.3 -0.644443 0.357578 0
M  V30 3931 H 381.942 -1.2156 1.46024 0
M  V30 3932 H 380.092 -3.68586 1.22788 0
M  V30 3933 H 381.764 -2.78521 3.67728 0
M  V30 3934 H 380.007 -2.56351 3.49952 0
M  V30 3935 H 380.678 -4.19489 3.58794 0
M  V30 3936 H 383.154 -3.7967 1.70265 0
M  V30 3937 H 382.03 -5.17374 1.83346 0
M  V30 3938 H 382.291 -4.41262 0.272027 0
M  V30 3939 N 381.35 -0.985608 -1.22978 0
M  V30 3940 C 382.575 -0.675254 -1.961 0
M  V30 3941 C 383 0.752154 -1.72407 0
M  V30 3942 O 382.358 1.5131 -0.998751 0
M  V30 3943 C 382.406 -0.977899 -3.47087 0
M  V30 3944 O 381.51 -0.072685 -4.12336 0
M  V30 3945 H 380.851 -0.253443 -0.613728 0
M  V30 3946 H 383.381 -1.32061 -1.56272 0
M  V30 3947 H 383.391 -0.916739 -3.97567 0
M  V30 3948 H 382.066 -2.01807 -3.63657 0
M  V30 3949 H 380.643 -0.188703 -3.72422 0
M  V30 3950 N 382.828 1.3818 -0.7579 0
M  V30 3951 C 384.058 2.04004 -0.326463 0
M  V30 3952 C 384.466 1.57286 1.05156 0
M  V30 3953 O 383.809 0.743144 1.67997 0
M  V30 3954 C 383.871 3.58444 -0.275402 0
M  V30 3955 C 383.535 4.28237 -1.59569 0
M  V30 3956 C 384.532 4.53312 -2.54566 0
M  V30 3957 C 382.217 4.66341 -1.86631 0
M  V30 3958 C 384.211 5.15531 -3.74842 0
M  V30 3959 C 381.898 5.28283 -3.0718 0
M  V30 3960 C 382.896 5.52814 -4.01106 0
M  V30 3961 O 382.584 6.13465 -5.19534 0
M  V30 3962 H 382.316 0.662026 -0.136739 0
M  V30 3963 H 384.87 1.7777 -1.02893 0
M  V30 3964 H 383.1 3.83667 0.483337 0
M  V30 3965 H 384.789 4.05701 0.127099 0
M  V30 3966 H 385.555 4.24299 -2.34936 0
M  V30 3967 H 381.434 4.46591 -1.14358 0
M  V30 3968 H 384.978 5.34594 -4.48168 0
M  V30 3969 H 380.875 5.56719 -3.26702 0
M  V30 3970 H 381.643 6.31951 -5.20173 0
M  V30 3971 N 384.306 0.507319 1.49211 0
M  V30 3972 C 385.254 -0.281364 2.30892 0
M  V30 3973 C 386.248 -0.95687 1.39787 0
M  V30 3974 O 387.454 -0.883838 1.56807 0
M  V30 3975 H 383.829 -0.109597 0.743971 0
M  V30 3976 H 385.8 0.42744 2.95323 0
M  V30 3977 C 384.549 -1.32918 3.21291 0
M  V30 3978 H 383.872 -0.818799 3.91326 0
M  V30 3979 H 385.312 -1.85288 3.81372 0
M  V30 3980 C 383.771 -2.35074 2.41333 0
M  V30 3981 O 384.301 -3.4108 2.12197 0
M  V30 3982 N 382.507 -2.07705 2.03241 0
M  V30 3983 H 382.054 -1.2152 2.27136 0
M  V30 3984 H 382.012 -2.76283 1.50051 0
M  V30 3985 N 385.784 -1.5574 0.241426 0
M  V30 3986 C 387.061 -1.90704 -0.434881 0
M  V30 3987 C 387.441 -1.16145 -1.76277 0
M  V30 3988 O 386.789 -0.277152 -2.26813 0
M  V30 3989 C 386.999 -3.43657 -0.608343 0
M  V30 3990 C 388.347 -4.14806 -0.906725 0
M  V30 3991 O 389.371 -3.49366 -0.694408 0
M  V30 3992 O 388.23 -5.30548 -1.31075 0
M  V30 3993 H 385.324 -0.793592 -0.23268 0
M  V30 3994 H 387.87 -1.67288 0.285086 0
M  V30 3995 H 386.642 -3.89927 0.327505 0
M  V30 3996 H 386.265 -3.72918 -1.37906 0
M  V30 3997 N 387.262 0.0317525 -1.57568 0
M  V30 3998 C 388.49 0.734949 -1.93407 0
M  V30 3999 C 388.905 1.69036 -0.84096 0
M  V30 4000 O 388.262 1.81582 0.182836 0
M  V30 4001 C 388.313 1.49432 -3.29169 0
M  V30 4002 O 388.034 0.577261 -4.3428 0
M  V30 4003 C 389.535 2.29492 -3.79273 0
M  V30 4004 H 386.755 0.206706 -0.638368 0
M  V30 4005 H 389.299 -0.00992046 -2.04498 0
M  V30 4006 H 387.454 2.1911 -3.19483 0
M  V30 4007 H 387.868 1.10952 -5.1263 0
M  V30 4008 H 389.342 2.78172 -4.76785 0
M  V30 4009 H 389.819 3.10794 -3.10328 0
M  V30 4010 H 390.425 1.64894 -3.92033 0
M  V30 4011 N 388.74 1.54641 0.303973 0
M  V30 4012 C 389.703 1.84646 1.35789 0
M  V30 4013 C 390.703 0.7192 1.4382 0
M  V30 4014 O 391.893 0.987491 1.43507 0
M  V30 4015 C 389.025 2.02407 2.74307 0
M  V30 4016 H 390.218 2.78829 1.10429 0
M  V30 4017 H 387.771 1.46658 0.540487 0
M  V30 4018 H 388.506 1.10502 3.04893 0
M  V30 4019 H 388.291 2.84453 2.69868 0
M  V30 4020 H 389.781 2.27002 3.50514 0
M  V30 4021 N 390.218 -0.567019 1.47046 0
M  V30 4022 C 391.629 -1.14916 1.47143 0
M  V30 4023 C 391.98 -1.94954 0.220767 0
M  V30 4024 O 391.105 -2.05602 -0.67505 0
M  V30 4025 C 391.7 -2.09069 2.666 0
M  V30 4026 C 390.259 -2.62575 2.69687 0
M  V30 4027 C 389.406 -1.38755 2.40088 0
M  V30 4028 H 392.357 -0.354126 1.54699 0
M  V30 4029 H 392.378 -2.92789 2.43011 0
M  V30 4030 H 391.89 -1.50789 3.57609 0
M  V30 4031 H 389.991 -3.24681 1.82792 0
M  V30 4032 H 390.104 -3.04239 3.70102 0
M  V30 4033 H 388.468 -1.69098 1.90468 0
M  V30 4034 H 389.251 -0.822822 3.33293 0
M  V30 4035 N 391.696 -1.35014 -0.812953 0
M  V30 4036 C 393.112 -1.14914 -1.10757 0
M  V30 4037 C 393.312 0.0426818 -2.01455 0
M  V30 4038 O 392.368 0.715212 -2.42159 0
M  V30 4039 C 393.681 -2.44911 -1.74468 0
M  V30 4040 C 395.229 -2.5106 -1.86917 0
M  V30 4041 C 395.704 -3.81085 -2.54044 0
M  V30 4042 N 397.195 -3.82301 -2.61535 0
M  V30 4043 C 397.93 -4.79634 -3.14227 0
M  V30 4044 N 397.426 -5.87353 -3.67407 0
M  V30 4045 N 399.219 -4.67078 -3.12721 0
M  V30 4046 H 391.37 -2.1136 -0.20989 0
M  V30 4047 H 393.633 -0.935128 -0.155692 0
M  V30 4048 H 393.339 -3.32267 -1.15289 0
M  V30 4049 H 393.213 -2.58989 -2.74234 0
M  V30 4050 H 395.6 -1.64137 -2.45241 0
M  V30 4051 H 395.681 -2.40901 -0.860242 0
M  V30 4052 H 395.325 -4.68402 -1.96372 0
M  V30 4053 H 395.255 -3.88529 -3.55461 0
M  V30 4054 H 397.746 -3.04465 -2.23851 0
M  V30 4055 H 398.059 -6.57624 -4.05894 0
M  V30 4056 H 396.404 -5.91054 -3.65623 0
M  V30 4057 H 399.595 -3.82067 -2.70449 0
M  V30 4058 H 399.768 -5.43098 -3.53481 0
M  V30 4059 N 393.175 1.03435 -1.18907 0
M  V30 4060 C 394.424 1.76143 -0.982669 0
M  V30 4061 C 394.737 1.89416 0.487953 0
M  V30 4062 O 395.943 2.59041 0.813036 0
M  V30 4063 C 394.399 3.16722 -1.70924 0
M  V30 4064 C 394.007 3.11522 -3.21959 0
M  V30 4065 C 395.751 3.93764 -1.58588 0
M  V30 4066 C 393.658 4.46999 -3.87228 0
M  V30 4067 H 392.588 0.660292 -0.364047 0
M  V30 4068 H 395.239 1.158 -1.42347 0
M  V30 4069 H 393.621 3.775 -1.19623 0
M  V30 4070 H 394.795 2.60158 -3.80335 0
M  V30 4071 H 393.11 2.47978 -3.34508 0
M  V30 4072 H 395.707 4.93963 -2.04707 0
M  V30 4073 H 396.05 4.12794 -0.539142 0
M  V30 4074 H 396.583 3.39576 -2.07203 0
M  V30 4075 H 393.322 4.33174 -4.91976 0
M  V30 4076 H 392.842 4.98441 -3.33642 0
M  V30 4077 H 394.521 5.15898 -3.90459 0
M  V30 4078 N 394.653 0.992116 1.22453 0
M  V30 4079 C 395.583 0.561677 2.26644 0
M  V30 4080 C 396.564 -0.411055 1.65059 0
M  V30 4081 O 397.749 -0.301861 1.9184 0
M  V30 4082 C 394.879 -0.125247 3.47074 0
M  V30 4083 C 393.833 0.765948 4.21091 0
M  V30 4084 C 393.159 -0.0538484 5.34673 0
M  V30 4085 C 394.459 2.06242 4.79856 0
M  V30 4086 H 396.153 1.43259 2.62902 0
M  V30 4087 H 393.699 0.690283 1.26377 0
M  V30 4088 H 395.652 -0.437764 4.1912 0
M  V30 4089 H 394.376 -1.03069 3.0991 0
M  V30 4090 H 393.035 1.0621 3.50878 0
M  V30 4091 H 392.683 -0.960188 4.9375 0
M  V30 4092 H 392.383 0.539415 5.85119 0
M  V30 4093 H 393.907 -0.360477 6.09535 0
M  V30 4094 H 395.321 1.8139 5.43848 0
M  V30 4095 H 393.718 2.60444 5.40638 0
M  V30 4096 H 394.788 2.74167 3.99951 0
M  V30 4097 N 396.131 -1.37776 0.765217 0
M  V30 4098 C 397.378 -1.99849 0.326588 0
M  V30 4099 C 397.706 -1.60746 -1.09504 0
M  V30 4100 O 396.961 -0.84202 -1.76659 0
M  V30 4101 C 397.26 -3.5504 0.410053 0
M  V30 4102 C 396.926 -4.13891 1.78899 0
M  V30 4103 C 395.588 -4.29678 2.16635 0
M  V30 4104 C 397.94 -4.46236 2.69301 0
M  V30 4105 C 395.268 -4.7511 3.44221 0
M  V30 4106 C 397.62 -4.93089 3.9629 0
M  V30 4107 C 396.284 -5.07082 4.34078 0
M  V30 4108 H 395.554 -0.7313 0.119507 0
M  V30 4109 H 398.201 -1.64645 0.977968 0
M  V30 4110 H 396.506 -3.90451 -0.324878 0
M  V30 4111 H 398.203 -4.00966 0.0520699 0
M  V30 4112 H 394.793 -4.02026 1.48569 0
M  V30 4113 H 398.977 -4.3363 2.41409 0
M  V30 4114 H 394.233 -4.84129 3.73402 0
M  V30 4115 H 398.407 -5.17084 4.66472 0
M  V30 4116 H 396.034 -5.42046 5.33001 0
M  V30 4117 N 397.609 -0.515225 -1.4894 0
M  V30 4118 C 398.855 0.016187 -2.03394 0
M  V30 4119 C 399.21 1.33377 -1.38666 0
M  V30 4120 O 398.503 1.84461 -0.518141 0
M  V30 4121 C 398.697 0.210595 -3.56779 0
M  V30 4122 C 398.526 -1.08659 -4.36375 0
M  V30 4123 C 397.296 -1.64237 -4.77864 0
M  V30 4124 C 399.494 -1.9935 -4.74093 0
M  V30 4125 N 397.476 -2.88398 -5.41941 0
M  V30 4126 C 398.847 -3.08088 -5.38035 0
M  V30 4127 C 400.902 -1.99856 -4.56029 0
M  V30 4128 C 399.605 -4.17377 -5.85823 0
M  V30 4129 C 401.631 -3.08129 -5.04787 0
M  V30 4130 C 400.993 -4.15586 -5.68742 0
M  V30 4131 H 397.092 -0.0352107 -0.781207 0
M  V30 4132 H 399.676 -0.693237 -1.8194 0
M  V30 4133 H 397.847 0.889088 -3.78087 0
M  V30 4134 H 399.579 0.740287 -3.97872 0
M  V30 4135 H 396.334 -1.18566 -4.58518 0
M  V30 4136 H 396.758 -3.51572 -5.78555 0
M  V30 4137 H 401.4 -1.18079 -4.05977 0
M  V30 4138 H 399.118 -4.99943 -6.34888 0
M  V30 4139 H 402.704 -3.09557 -4.92611 0
M  V30 4140 H 401.584 -4.97987 -6.05787 0
M  V30 4141 N 399.087 1.5561 -0.249682 0
M  V30 4142 C 400.05 2.20217 0.635394 0
M  V30 4143 C 401.05 1.17227 1.10066 0
M  V30 4144 O 402.24 1.42292 1.00492 0
M  V30 4145 C 399.372 2.84794 1.87363 0
M  V30 4146 H 400.565 2.99814 0.0716752 0
M  V30 4147 H 398.118 1.563 -0.000153234 0
M  V30 4148 H 398.853 2.09142 2.47851 0
M  V30 4149 H 398.638 3.60241 1.5482 0
M  V30 4150 H 400.128 3.3423 2.5036 0
M  V30 4151 N 400.565 -0.0233959 1.57583 0
M  V30 4152 C 401.497 -1.04994 2.03737 0
M  V30 4153 C 402.51 -1.32125 0.951152 0
M  V30 4154 O 403.699 -1.29512 1.22837 0
M  V30 4155 C 400.799 -2.39026 2.40249 0
M  V30 4156 C 399.972 -2.31171 3.7132 0
M  V30 4157 C 399.031 -3.47698 3.94959 0
M  V30 4158 O 398.057 -3.26937 4.65941 0
M  V30 4159 N 399.259 -4.6976 3.41037 0
M  V30 4160 H 402.024 -0.656507 2.92421 0
M  V30 4161 H 399.585 -0.211235 1.60516 0
M  V30 4162 H 401.577 -3.15712 2.53196 0
M  V30 4163 H 400.147 -2.70194 1.57207 0
M  V30 4164 H 399.367 -1.39547 3.68674 0
M  V30 4165 H 400.655 -2.23071 4.57293 0
M  V30 4166 H 400.053 -4.89528 2.83512 0
M  V30 4167 H 398.61 -5.43791 3.59353 0
M  V30 4168 N 402.043 -1.548 -0.295768 0
M  V30 4169 C 402.991 -1.86874 -1.38495 0
M  V30 4170 C 403.985 -0.742938 -1.52239 0
M  V30 4171 O 405.191 -0.926999 -1.54294 0
M  V30 4172 H 401.566 -0.592786 -0.462719 0
M  V30 4173 H 403.537 -2.77904 -1.08682 0
M  V30 4174 C 402.286 -2.13732 -2.74252 0
M  V30 4175 H 401.609 -2.99835 -2.64459 0
M  V30 4176 H 403.049 -2.4011 -3.49461 0
M  V30 4177 C 401.508 -0.937539 -3.23592 0
M  V30 4178 O 402.038 -0.160665 -4.01379 0
M  V30 4179 N 400.244 -0.741478 -2.80981 0
M  V30 4180 H 399.791 -1.37489 -2.1784 0
M  V30 4181 H 399.749 0.0597103 -3.14343 0
M  V30 4182 N 403.521 0.559213 -1.47345 0
M  V30 4183 C 404.768 1.31648 -1.53867 0
M  V30 4184 C 405.096 1.93468 -0.200104 0
M  V30 4185 O 404.351 1.78295 0.806799 0
M  V30 4186 C 404.65 2.44853 -2.6035 0
M  V30 4187 C 404.316 2.00876 -4.03683 0
M  V30 4188 C 402.978 1.88599 -4.42701 0
M  V30 4189 C 405.33 1.67279 -4.93626 0
M  V30 4190 C 402.658 1.41017 -5.69501 0
M  V30 4191 C 405.01 1.21169 -6.20887 0
M  V30 4192 C 403.674 1.07487 -6.58789 0
M  V30 4193 H 402.944 0.481734 -0.56304 0
M  V30 4194 H 405.591 0.627301 -1.80934 0
M  V30 4195 H 403.896 3.19318 -2.27032 0
M  V30 4196 H 405.593 3.03039 -2.62619 0
M  V30 4197 H 402.183 2.11374 -3.72853 0
M  V30 4198 H 406.367 1.75638 -4.64182 0
M  V30 4199 H 401.623 1.29086 -5.97618 0
M  V30 4200 H 405.797 0.942345 -6.89995 0
M  V30 4201 H 403.424 0.703946 -7.56934 0
M  V30 4202 N 404.999 1.35443 0.805782 0
M  V30 4203 C 406.224 1.32037 1.59941 0
M  V30 4204 C 406.649 -0.0994215 1.87837 0
M  V30 4205 O 406.007 -1.06648 1.46615 0
M  V30 4206 C 406.055 2.13354 2.90711 0
M  V30 4207 O 405.159 1.5148 3.83572 0
M  V30 4208 H 404.5 0.452666 0.485787 0
M  V30 4209 H 407.03 1.78496 1.00002 0
M  V30 4210 H 407.04 2.25338 3.40128 0
M  V30 4211 H 405.715 3.16572 2.69732 0
M  V30 4212 H 404.292 1.4834 3.42125 0
M  V30 4213 N 406.477 -1.02803 1.19454 0
M  V30 4214 C 407.723 -1.76478 0.999171 0
M  V30 4215 C 408.056 -1.88456 -0.468828 0
M  V30 4216 O 407.331 -1.40198 -1.34814 0
M  V30 4217 C 407.614 -3.19044 1.66981 0
M  V30 4218 C 407.467 -3.14932 3.21151 0
M  V30 4219 C 408.786 -4.17456 1.39349 0
M  V30 4220 H 405.905 -0.640614 0.364393 0
M  V30 4221 H 408.547 -1.20005 1.47305 0
M  V30 4222 H 406.697 -3.67263 1.2669 0
M  V30 4223 H 408.369 -2.74605 3.70661 0
M  V30 4224 H 406.612 -2.52625 3.52652 0
M  V30 4225 H 407.283 -4.1566 3.63223 0
M  V30 4226 H 409.759 -3.77842 1.74283 0
M  V30 4227 H 408.635 -5.154 1.88823 0
M  V30 4228 H 408.896 -4.40949 0.318813 0
M  V30 4229 N 407.956 -0.998596 -1.21925 0
M  V30 4230 C 408.919 -0.558679 -2.22287 0
M  V30 4231 C 409.919 0.361525 -1.56683 0
M  V30 4232 O 411.109 0.152695 -1.73529 0
M  V30 4233 C 408.241 0.18661 -3.40389 0
M  V30 4234 H 409.434 -1.4463 -2.62721 0
M  V30 4235 H 406.987 -0.786413 -1.35075 0
M  V30 4236 H 407.722 1.08996 -3.05435 0
M  V30 4237 H 407.507 -0.474188 -3.89222 0
M  V30 4238 H 408.997 0.482367 -4.14805 0
M  V30 4239 N 409.434 1.37368 -0.772513 0
M  V30 4240 C 410.664 2.03647 -0.348082 0
M  V30 4241 C 411.072 1.58392 1.03482 0
M  V30 4242 O 410.415 0.760921 1.672 0
M  V30 4243 C 410.477 3.58131 -0.313404 0
M  V30 4244 C 410.141 4.2652 -1.64102 0
M  V30 4245 C 411.138 4.50587 -2.5936 0
M  V30 4246 C 408.823 4.64335 -1.91567 0
M  V30 4247 C 410.817 5.11526 -3.80289 0
M  V30 4248 C 408.504 5.24996 -3.12766 0
M  V30 4249 C 409.502 5.48529 -4.06946 0
M  V30 4250 O 409.19 6.07921 -5.26011 0
M  V30 4251 H 408.922 0.660538 -0.143753 0
M  V30 4252 H 411.476 1.76669 -1.04772 0
M  V30 4253 H 409.706 3.84159 0.442617 0
M  V30 4254 H 411.395 4.05813 0.0840613 0
M  V30 4255 H 412.161 4.21784 -2.39423 0
M  V30 4256 H 408.04 4.45353 -1.19088 0
M  V30 4257 H 411.584 5.29811 -4.53813 0
M  V30 4258 H 407.481 5.53223 -3.32588 0
M  V30 4259 H 408.249 6.26398 -5.26847 0
M  V30 4260 N 410.912 0.523116 1.48665 0
M  V30 4261 C 411.859 -0.243398 2.29513 0
M  V30 4262 C 412.829 -0.940139 1.36933 0
M  V30 4263 O 414.014 -0.942503 1.65896 0
M  V30 4264 C 411.154 -1.28855 3.20141 0
M  V30 4265 C 410.267 -0.60135 4.27794 0
M  V30 4266 C 409.402 -1.62884 5.05611 0
M  V30 4267 C 408.441 -0.924726 6.05075 0
M  V30 4268 N 407.578 -1.89744 6.75975 0
M  V30 4269 H 412.418 0.452234 2.94549 0
M  V30 4270 H 409.955 0.234858 1.45213 0
M  V30 4271 H 411.913 -1.90674 3.71079 0
M  V30 4272 H 410.543 -1.95266 2.57043 0
M  V30 4273 H 409.595 0.130623 3.80176 0
M  V30 4274 H 410.907 -0.0481585 4.98777 0
M  V30 4275 H 410.061 -2.32149 5.60528 0
M  V30 4276 H 408.8 -2.21592 4.34452 0
M  V30 4277 H 407.805 -0.217966 5.49368 0
M  V30 4278 H 409.03 -0.343851 6.78229 0
M  V30 4279 H 406.976 -2.47373 6.07571 0
M  V30 4280 H 406.893 -1.3955 7.43009 0
M  V30 4281 H 408.161 -2.58229 7.35485 0
M  V30 4282 N 412.39 -1.55475 0.257931 0
M  V30 4283 C 413.667 -1.91155 -0.414629 0
M  V30 4284 C 414.047 -1.18008 -1.75035 0
M  V30 4285 O 413.395 -0.301193 -2.26506 0
M  V30 4286 C 413.605 -3.44283 -0.571859 0
M  V30 4287 C 414.953 -4.15744 -0.862678 0
M  V30 4288 O 415.977 -3.50083 -0.657314 0
M  V30 4289 O 414.836 -5.31909 -1.2544 0
M  V30 4290 H 411.93 -0.796016 -0.22425 0
M  V30 4291 H 414.476 -1.66976 0.302814 0
M  V30 4292 H 413.248 -3.89558 0.368844 0
M  V30 4293 H 412.871 -3.7436 -1.33943 0
M  V30 4294 N 413.868 0.0150385 -1.57593 0
M  V30 4295 C 414.8 1.03912 -2.04291 0
M  V30 4296 C 415.813 1.31618 -0.958146 0
M  V30 4297 O 417.002 1.28859 -1.23522 0
M  V30 4298 C 414.102 2.37749 -2.41514 0
M  V30 4299 C 413.275 2.29198 -3.72541 0
M  V30 4300 C 412.334 3.45598 -3.96797 0
M  V30 4301 O 411.36 3.24461 -4.67668 0
M  V30 4302 N 412.562 4.67945 -3.43523 0
M  V30 4303 H 415.327 0.64099 -2.92765 0
M  V30 4304 H 412.888 0.20272 -1.60626 0
M  V30 4305 H 414.88 3.14364 -2.54867 0
M  V30 4306 H 413.45 2.69357 -1.58637 0
M  V30 4307 H 412.67 1.3759 -3.69408 0
M  V30 4308 H 413.958 2.20642 -4.5847 0
M  V30 4309 H 413.356 4.88017 -2.86104 0
M  V30 4310 H 411.913 5.41878 -3.62232 0
M  V30 4311 N 415.346 1.54954 0.287554 0
M  V30 4312 C 416.592 1.76059 1.01856 0
M  V30 4313 C 416.947 0.547056 1.84459 0
M  V30 4314 O 416.24 -0.460442 1.85985 0
M  V30 4315 C 416.434 2.99833 1.94512 0
M  V30 4316 C 416.263 4.33108 1.21026 0
M  V30 4317 C 415.033 4.96632 0.931896 0
M  V30 4318 C 417.231 5.10694 0.607949 0
M  V30 4319 N 415.213 6.13668 0.168716 0
M  V30 4320 C 416.584 6.19996 -0.0217865 0
M  V30 4321 C 418.639 4.95236 0.514338 0
M  V30 4322 C 417.342 7.15524 -0.736092 0
M  V30 4323 C 419.368 5.91106 -0.186343 0
M  V30 4324 C 418.73 6.99786 -0.804875 0
M  V30 4325 H 414.829 0.696679 0.355193 0
M  V30 4326 H 417.413 1.92441 0.295741 0
M  V30 4327 H 415.584 2.84853 2.64033 0
M  V30 4328 H 417.316 3.09405 2.60865 0
M  V30 4329 H 414.071 4.57255 1.23348 0
M  V30 4330 H 414.495 6.76705 -0.199781 0
M  V30 4331 H 419.137 4.11328 0.978234 0
M  V30 4332 H 416.855 7.98964 -1.21172 0
M  V30 4333 H 420.441 5.81224 -0.258897 0
M  V30 4334 H 419.321 7.72694 -1.33843 0
M  V30 4335 N 416.824 -0.551391 1.4764 0
M  V30 4336 C 417.734 -1.68525 1.63207 0
M  V30 4337 C 418.75 -1.6621 0.514815 0
M  V30 4338 O 419.926 -1.85551 0.783113 0
M  V30 4339 C 416.991 -3.05025 1.64805 0
M  V30 4340 C 416.052 -3.18362 2.88 0
M  V30 4341 C 415.285 -4.4835 2.89513 0
M  V30 4342 O 415.508 -5.34163 2.00065 0
M  V30 4343 O 414.442 -4.65602 3.81443 0
M  V30 4344 H 418.268 -1.58333 2.59161 0
M  V30 4345 H 415.853 -0.722063 1.30792 0
M  V30 4346 H 417.735 -3.86245 1.68502 0
M  V30 4347 H 416.41 -3.15587 0.720197 0
M  V30 4348 H 415.317 -2.36518 2.89845 0
M  V30 4349 H 416.65 -3.12707 3.80099 0
M  V30 4350 N 418.302 -1.35869 -0.798587 0
M  V30 4351 C 419.579 -1.20145 -1.54352 0
M  V30 4352 C 419.959 0.216161 -2.0999 0
M  V30 4353 O 419.307 1.22068 -1.93162 0
M  V30 4354 C 419.517 -2.27602 -2.64572 0
M  V30 4355 C 420.865 -2.63811 -3.32699 0
M  V30 4356 O 421.889 -2.26576 -2.74849 0
M  V30 4357 O 420.748 -3.27866 -4.37226 0
M  V30 4358 H 417.842 -0.467248 -0.682355 0
M  V30 4359 H 420.388 -1.47574 -0.837859 0
M  V30 4360 H 419.16 -3.2265 -2.21388 0
M  V30 4361 H 418.783 -2.01488 -3.42766 0
M  V30 4362 N 419.78 1.02168 -1.19998 0
M  V30 4363 C 420.71 2.12488 -0.96804 0
M  V30 4364 C 421.691 1.69799 0.101185 0
M  V30 4365 O 422.876 1.94121 -0.0552993 0
M  V30 4366 C 420.006 3.43479 -0.513776 0
M  V30 4367 C 418.96 3.99884 -1.52566 0
M  V30 4368 C 418.286 5.26582 -0.928214 0
M  V30 4369 C 419.586 4.33861 -2.90795 0
M  V30 4370 H 421.28 2.32149 -1.89069 0
M  V30 4371 H 418.826 1.11564 -0.910468 0
M  V30 4372 H 420.779 4.20036 -0.338774 0
M  V30 4373 H 419.503 3.23561 0.444493 0
M  V30 4374 H 418.162 3.25429 -1.68794 0
M  V30 4375 H 417.81 5.02986 0.0378289 0
M  V30 4376 H 417.51 5.65284 -1.60397 0
M  V30 4377 H 419.034 6.05799 -0.764167 0
M  V30 4378 H 420.448 5.01327 -2.78109 0
M  V30 4379 H 418.845 4.83664 -3.55231 0
M  V30 4380 H 419.915 3.42848 -3.42904 0
M  V30 4381 N 421.258 1.00505 1.21394 0
M  V30 4382 C 422.486 0.706609 1.9446 0
M  V30 4383 C 422.901 -0.73081 1.74082 0
M  V30 4384 O 422.258 -1.49446 1.04747 0
M  V30 4385 C 422.309 1.01824 3.46863 0
M  V30 4386 O 422.03 2.39919 3.66566 0
M  V30 4387 C 423.531 0.739216 4.37093 0
M  V30 4388 H 420.751 0.260394 0.618414 0
M  V30 4389 H 423.295 1.34311 1.54211 0
M  V30 4390 H 421.45 0.427343 3.85036 0
M  V30 4391 H 421.864 2.50784 4.6066 0
M  V30 4392 H 423.338 1.00744 5.42729 0
M  V30 4393 H 423.815 -0.326746 4.37983 0
M  V30 4394 H 424.421 1.31173 4.04566 0
M  V30 4395 N 422.737 -1.36956 0.779787 0
M  V30 4396 C 424.148 -1.82094 0.412156 0
M  V30 4397 C 424.499 -1.64926 -1.06273 0
M  V30 4398 O 423.624 -1.16483 -1.82375 0
M  V30 4399 C 424.219 -3.3059 0.741319 0
M  V30 4400 C 422.778 -3.73974 0.426641 0
M  V30 4401 C 421.925 -2.59368 0.980987 0
M  V30 4402 H 424.876 -1.25314 0.973758 0
M  V30 4403 H 424.897 -3.80489 0.028887 0
M  V30 4404 H 424.409 -3.43054 1.81482 0
M  V30 4405 H 422.51 -3.67076 -0.639215 0
M  V30 4406 H 422.623 -4.69778 0.940515 0
M  V30 4407 H 420.987 -2.51463 0.404757 0
M  V30 4408 H 421.77 -2.74621 2.06005 0
M  V30 4409 N 424.215 -0.530993 -1.48385 0
M  V30 4410 C 425.145 0.219985 -2.32461 0
M  V30 4411 C 426.126 0.934111 -1.42156 0
M  V30 4412 O 427.311 0.919694 -1.71042 0
M  V30 4413 C 424.441 1.26674 -3.23375 0
M  V30 4414 C 423.395 0.67069 -4.22712 0
M  V30 4415 C 422.721 1.82017 -5.02766 0
M  V30 4416 C 424.021 -0.358268 -5.2107 0
M  V30 4417 H 425.715 -0.48187 -2.95497 0
M  V30 4418 H 423.261 -0.233182 -1.42099 0
M  V30 4419 H 425.214 1.80006 -3.81019 0
M  V30 4420 H 423.938 1.99818 -2.58341 0
M  V30 4421 H 422.597 0.158878 -3.66256 0
M  V30 4422 H 422.245 2.54002 -4.34157 0
M  V30 4423 H 421.945 1.42727 -5.70003 0
M  V30 4424 H 423.469 2.35725 -5.63264 0
M  V30 4425 H 424.883 0.0880081 -5.73232 0
M  V30 4426 H 423.28 -0.66861 -5.96364 0
M  V30 4427 H 424.35 -1.26367 -4.68145 0
M  V30 4428 N 425.693 1.55336 -0.266172 0
M  V30 4429 C 426.921 2.03801 0.356756 0
M  V30 4430 C 427.336 1.14485 1.50129 0
M  V30 4431 O 426.693 0.163121 1.8177 0
M  V30 4432 C 426.744 3.51455 0.846281 0
M  V30 4433 O 426.465 4.37371 -0.252663 0
M  V30 4434 C 427.966 4.15767 1.53794 0
M  V30 4435 H 425.186 0.665906 0.0825218 0
M  V30 4436 H 427.73 2.00636 -0.39566 0
M  V30 4437 H 425.885 3.55092 1.54881 0
M  V30 4438 H 426.299 5.24358 0.122173 0
M  V30 4439 H 427.773 5.20714 1.83198 0
M  V30 4440 H 428.25 3.63404 2.46646 0
M  V30 4441 H 428.856 4.16107 0.879488 0
M  V30 4442 N 427.171 -0.0066808 1.57599 0
M  V30 4443 C 428.418 -0.69292 1.90276 0
M  V30 4444 C 428.746 -1.74148 0.866192 0
M  V30 4445 O 428.001 -1.95268 -0.129933 0
M  V30 4446 C 428.3 -1.37939 3.29708 0
M  V30 4447 C 427.966 -0.464679 4.48499 0
M  V30 4448 C 426.628 -0.212809 4.80729 0
M  V30 4449 C 428.98 0.16551 5.20937 0
M  V30 4450 C 426.308 0.677653 5.82773 0
M  V30 4451 C 428.66 1.04381 6.23929 0
M  V30 4452 C 427.324 1.30492 6.54621 0
M  V30 4453 H 426.594 -0.253558 0.696268 0
M  V30 4454 H 429.241 0.0474123 1.91441 0
M  V30 4455 H 427.546 -2.1936 3.24636 0
M  V30 4456 H 429.243 -1.9163 3.52249 0
M  V30 4457 H 425.833 -0.671153 4.23313 0
M  V30 4458 H 430.017 -0.0160756 4.96297 0
M  V30 4459 H 425.273 0.88803 6.04917 0
M  V30 4460 H 429.447 1.53851 6.79193 0
M  V30 4461 H 427.074 1.99662 7.33512 0
M  V30 4462 N 428.649 -1.55105 -0.279332 0
M  V30 4463 C 429.897 -1.75066 -1.00977 0
M  V30 4464 C 430.218 -0.551276 -1.87045 0
M  V30 4465 O 429.488 0.433984 -1.91032 0
M  V30 4466 H 428.068 -0.645578 -0.375816 0
M  V30 4467 H 430.73 -1.92497 -0.305089 0
M  V30 4468 H 429.826 -2.64894 -1.65038 0
M  V30 4469 N 430.127 0.543554 -1.4793 0
M  V30 4470 C 431.373 1.30201 -1.55485 0
M  V30 4471 C 431.706 1.92925 -0.222201 0
M  V30 4472 O 430.981 1.78586 0.77053 0
M  V30 4473 C 431.264 2.40174 -2.68307 0
M  V30 4474 C 431.117 1.8223 -4.11233 0
M  V30 4475 C 432.436 3.42024 -2.76961 0
M  V30 4476 H 429.555 0.472036 -0.565996 0
M  V30 4477 H 432.197 0.606914 -1.80046 0
M  V30 4478 H 430.347 2.99463 -2.47495 0
M  V30 4479 H 432.019 1.27096 -4.43446 0
M  V30 4480 H 430.262 1.12832 -4.18869 0
M  V30 4481 H 430.933 2.61793 -4.85972 0
M  V30 4482 H 433.409 2.92672 -2.95774 0
M  V30 4483 H 432.285 4.16383 -3.57654 0
M  V30 4484 H 432.546 4.0173 -1.84568 0
M  V30 4485 N 431.605 1.3629 0.791371 0
M  V30 4486 C 432.537 1.26321 1.91248 0
M  V30 4487 C 433.55 0.18313 1.61767 0
M  V30 4488 O 434.739 0.437682 1.73051 0
M  V30 4489 C 431.839 0.925901 3.26007 0
M  V30 4490 C 431.012 2.10746 3.83281 0
M  V30 4491 C 430.071 1.74352 4.96475 0
M  V30 4492 O 429.097 2.46416 5.13096 0
M  V30 4493 N 430.299 0.676058 5.7655 0
M  V30 4494 H 433.064 2.22915 2.00323 0
M  V30 4495 H 430.625 1.29659 0.969546 0
M  V30 4496 H 432.617 0.663636 3.99222 0
M  V30 4497 H 431.187 0.0491581 3.12561 0
M  V30 4498 H 430.407 2.53264 3.02077 0
M  V30 4499 H 431.695 2.8969 4.18279 0
M  V30 4500 H 431.093 0.0776467 5.65647 0
M  V30 4501 H 429.65 0.473612 6.50077 0
M  V30 4502 N 433.083 -1.0153 1.20538 0
M  V30 4503 C 433.993 -2.13557 0.971113 0
M  V30 4504 C 435.009 -1.73845 -0.0734366 0
M  V30 4505 O 436.185 -2.01075 0.114299 0
M  V30 4506 C 433.25 -3.42661 0.527639 0
M  V30 4507 C 432.311 -3.96608 1.64319 0
M  V30 4508 C 431.544 -5.1955 1.22078 0
M  V30 4509 O 431.767 -5.70329 0.0900198 0
M  V30 4510 O 430.701 -5.66681 2.02871 0
M  V30 4511 H 434.527 -2.3619 1.90913 0
M  V30 4512 H 432.112 -1.11946 0.989362 0
M  V30 4513 H 433.994 -4.20404 0.289621 0
M  V30 4514 H 432.669 -3.21441 -0.381779 0
M  V30 4515 H 431.576 -3.20139 1.93551 0
M  V30 4516 H 432.909 -4.22219 2.52966 0
M  V30 4517 N 434.561 -1.01147 -1.20859 0
M  V30 4518 C 435.491 -0.597663 -2.25722 0
M  V30 4519 C 436.472 0.384744 -1.65692 0
M  V30 4520 O 437.657 0.271303 -1.92296 0
M  V30 4521 C 434.787 0.0700149 -3.47229 0
M  V30 4522 C 433.741 -0.832843 -4.19819 0
M  V30 4523 C 433.067 -0.0312202 -5.34691 0
M  V30 4524 C 434.367 -2.1385 -4.76514 0
M  V30 4525 H 436.061 -1.47423 -2.60589 0
M  V30 4526 H 433.607 -0.710301 -1.25263 0
M  V30 4527 H 435.56 0.37103 -4.19763 0
M  V30 4528 H 434.284 0.981259 -3.11511 0
M  V30 4529 H 432.943 -1.11778 -3.49144 0
M  V30 4530 H 432.591 0.881515 -4.95215 0
M  V30 4531 H 432.291 -0.632434 -5.84187 0
M  V30 4532 H 433.815 0.26346 -6.10031 0
M  V30 4533 H 435.229 -1.9002 -5.40893 0
M  V30 4534 H 433.626 -2.69012 -5.36426 0
M  V30 4535 H 434.696 -2.80495 -3.95538 0
M  V30 4536 N 436.039 1.36541 -0.78704 0
M  V30 4537 C 436.987 2.31965 -0.171724 0
M  V30 4538 C 437.981 1.55689 0.667631 0
M  V30 4539 O 439.187 1.70969 0.562981 0
M  V30 4540 H 435.562 0.751101 -0.0367545 0
M  V30 4541 H 437.533 2.81428 -0.992017 0
M  V30 4542 C 436.282 3.40968 0.680904 0
M  V30 4543 H 435.605 3.99775 0.0443961 0
M  V30 4544 H 437.045 4.10063 1.07815 0
M  V30 4545 C 435.504 2.82338 1.83813 0
M  V30 4546 O 436.034 2.74311 2.93456 0
M  V30 4547 N 434.24 2.39661 1.6435 0
M  V30 4548 H 433.787 2.46389 0.751668 0
M  V30 4549 H 433.745 2.00779 2.4194 0
M  V30 4550 N 437.518 0.538854 1.48102 0
M  V30 4551 C 438.448 -0.207654 2.32575 0
M  V30 4552 C 439.429 -0.926559 1.4265 0
M  V30 4553 O 440.614 -0.91061 1.71527 0
M  V30 4554 C 437.744 -1.24957 3.24042 0
M  V30 4555 C 436.698 -0.648263 4.23062 0
M  V30 4556 C 436.024 -1.79348 5.03725 0
M  V30 4557 C 437.324 0.385897 5.20872 0
M  V30 4558 H 439.018 0.497534 2.95237 0
M  V30 4559 H 436.564 0.240715 1.41974 0
M  V30 4560 H 438.517 -1.77983 3.81969 0
M  V30 4561 H 437.241 -1.98446 2.59397 0
M  V30 4562 H 435.9 -0.139452 3.66335 0
M  V30 4563 H 435.548 -2.51696 4.35498 0
M  V30 4564 H 435.248 -1.39702 5.70751 0
M  V30 4565 H 436.772 -2.32735 5.64506 0
M  V30 4566 H 438.186 -0.057607 5.73271 0
M  V30 4567 H 436.583 0.700227 5.96001 0
M  V30 4568 H 437.653 1.28848 4.67468 0
M  V30 4569 N 438.996 -1.55193 0.274407 0
M  V30 4570 C 440.224 -2.03987 -0.345943 0
M  V30 4571 C 440.639 -1.15279 -1.4952 0
M  V30 4572 O 439.996 -0.172759 -1.8168 0
M  V30 4573 C 440.047 -3.51898 -0.827631 0
M  V30 4574 O 439.768 -4.37231 0.275855 0
M  V30 4575 C 441.269 -4.16577 -1.51587 0
M  V30 4576 H 438.489 -0.666335 -0.0789892 0
M  V30 4577 H 441.033 -2.00423 0.406294 0
M  V30 4578 H 439.188 -3.55909 -1.52996 0
M  V30 4579 H 439.602 -5.24415 -0.0943638 0
M  V30 4580 H 441.076 -5.21678 -1.80433 0
M  V30 4581 H 441.553 -3.64707 -2.44716 0
M  V30 4582 H 442.159 -4.16568 -0.857409 0
M  V30 4583 N 440.474 -0.00167713 -1.576 0
M  V30 4584 C 441.722 0.681471 -1.90264 0
M  V30 4585 C 442.043 1.7422 -0.875924 0
M  V30 4586 O 441.313 1.95709 0.0864412 0
M  V30 4587 H 439.893 0.254696 -0.702239 0
M  V30 4588 H 442.555 -0.0429996 -1.94853 0
M  V30 4589 H 441.651 1.15166 -2.90075 0
M  V30 4590 N 441.952 1.55251 0.271103 0
M  V30 4591 C 443.177 1.80306 1.02491 0
M  V30 4592 C 443.602 0.575457 1.79081 0
M  V30 4593 O 442.96 -0.474987 1.74967 0
M  V30 4594 C 443.008 3.02832 1.95768 0
M  V30 4595 O 442.112 2.78051 3.04568 0
M  V30 4596 H 441.453 0.595896 0.292923 0
M  V30 4597 H 443.983 2.02397 0.299436 0
M  V30 4598 H 443.993 3.31616 2.37686 0
M  V30 4599 H 442.668 3.9183 1.39434 0
M  V30 4600 H 441.245 2.60369 2.66951 0
M  V30 4601 N 443.43 -0.535701 1.48216 0
M  V30 4602 C 444.677 -1.29183 1.55942 0
M  V30 4603 C 445.005 -1.93125 0.230857 0
M  V30 4604 O 444.26 -1.79556 -0.778331 0
M  V30 4605 C 444.559 -2.4068 2.64212 0
M  V30 4606 C 444.225 -1.94428 4.06827 0
M  V30 4607 C 442.887 -1.81532 4.45645 0
M  V30 4608 C 445.239 -1.59405 4.96225 0
M  V30 4609 C 442.567 -1.31939 5.71672 0
M  V30 4610 C 444.919 -1.11276 6.22736 0
M  V30 4611 C 443.583 -0.969924 6.60416 0
M  V30 4612 H 442.853 -0.472715 0.570632 0
M  V30 4613 H 445.5 -0.598437 1.81909 0
M  V30 4614 H 443.805 -3.15666 2.32083 0
M  V30 4615 H 445.502 -2.98822 2.67407 0
M  V30 4616 H 442.092 -2.05415 3.76168 0
M  V30 4617 H 446.276 -1.68231 4.66917 0
M  V30 4618 H 441.532 -1.19562 5.99596 0
M  V30 4619 H 445.706 -0.832453 6.91407 0
M  V30 4620 H 443.333 -0.583436 7.57958 0
M  V30 4621 N 444.908 -1.36708 -0.784132 0
M  V30 4622 C 446.154 -1.32433 -1.54379 0
M  V30 4623 C 446.509 0.0941816 -1.92169 0
M  V30 4624 O 445.802 1.04997 -1.60269 0
M  V30 4625 C 445.996 -2.18571 -2.82774 0
M  V30 4626 C 445.825 -3.68656 -2.57533 0
M  V30 4627 C 444.595 -4.37813 -2.52286 0
M  V30 4628 C 446.793 -4.61802 -2.2637 0
M  V30 4629 N 444.775 -5.7351 -2.18997 0
M  V30 4630 C 446.146 -5.85785 -2.03115 0
M  V30 4631 C 448.201 -4.50313 -2.12421 0
M  V30 4632 C 446.904 -6.99569 -1.67321 0
M  V30 4633 C 448.93 -5.63969 -1.78026 0
M  V30 4634 C 448.292 -6.86994 -1.55622 0
M  V30 4635 H 444.391 -0.539886 -0.565727 0
M  V30 4636 H 446.975 -1.71812 -0.915908 0
M  V30 4637 H 445.146 -1.81429 -3.43421 0
M  V30 4638 H 446.878 -2.05646 -3.48557 0
M  V30 4639 H 443.633 -3.90674 -2.67714 0
M  V30 4640 H 444.057 -6.45189 -2.05084 0
M  V30 4641 H 448.699 -3.55781 -2.28429 0
M  V30 4642 H 446.417 -7.94047 -1.5005 0
M  V30 4643 H 450.003 -5.57044 -1.67909 0
M  V30 4644 H 448.883 -7.7345 -1.294 0
M  V30 4645 N 446.386 1.0089 -1.21074 0
M  V30 4646 C 447.334 2.11707 -0.963476 0
M  V30 4647 C 448.328 1.69172 0.0879032 0
M  V30 4648 O 449.534 1.79889 -0.0631415 0
M  V30 4649 H 445.909 0.692026 -0.294287 0
M  V30 4650 H 447.88 2.29743 -1.90422 0
M  V30 4651 C 446.629 3.43473 -0.540509 0
M  V30 4652 H 445.952 3.76634 -1.34114 0
M  V30 4653 H 447.392 4.22044 -0.406777 0
M  V30 4654 C 445.851 3.2849 0.748079 0
M  V30 4655 O 446.381 3.58883 1.8046 0
M  V30 4656 N 444.587 2.81715 0.713081 0
M  V30 4657 H 444.134 2.5718 -0.146973 0
M  V30 4658 H 444.092 2.72071 1.57558 0
M  V30 4659 N 447.864 1.01787 1.20321 0
M  V30 4660 C 449.141 0.622978 1.85414 0
M  V30 4661 C 449.521 -0.898887 1.91006 0
M  V30 4662 O 448.869 -1.79112 1.41884 0
M  V30 4663 C 449.079 1.27226 3.24984 0
M  V30 4664 C 450.427 1.3885 4.01255 0
M  V30 4665 O 451.451 1.22857 3.34342 0
M  V30 4666 O 450.31 1.64705 5.2109 0
M  V30 4667 H 447.404 0.215116 0.798533 0
M  V30 4668 H 449.95 1.11533 1.27901 0
M  V30 4669 H 448.722 2.31209 3.15687 0
M  V30 4670 H 448.345 0.767069 3.90131 0
M  V30 4671 N 449.342 -1.36122 0.79427 0
M  V30 4672 C 450.567 -2.03891 0.379871 0
M  V30 4673 C 450.992 -1.59488 -0.997251 0
M  V30 4674 O 450.35 -0.765652 -1.64339 0
M  V30 4675 C 450.398 -3.57687 0.457442 0
M  V30 4676 O 449.502 -4.08931 -0.5338 0
M  V30 4677 H 448.843 -0.6443 0.160541 0
M  V30 4678 H 451.373 -1.73976 1.07673 0
M  V30 4679 H 451.383 -4.06721 0.322792 0
M  V30 4680 H 450.058 -3.89357 1.46199 0
M  V30 4681 H 448.635 -3.71154 -0.360409 0
M  V30 4682 N 450.82 -0.546701 -1.47814 0
M  V30 4683 C 452.067 -0.0187407 -2.02491 0
M  V30 4684 C 452.395 1.32685 -1.42215 0
M  V30 4685 O 451.65 1.87413 -0.563454 0
M  V30 4686 C 451.949 0.134869 -3.57145 0
M  V30 4687 C 451.615 -1.13849 -4.3629 0
M  V30 4688 C 450.277 -1.48743 -4.57634 0
M  V30 4689 C 452.629 -1.98277 -4.82012 0
M  V30 4690 C 449.957 -2.67932 -5.21948 0
M  V30 4691 C 452.309 -3.16659 -5.4764 0
M  V30 4692 C 450.973 -3.51879 -5.67219 0
M  V30 4693 H 450.243 -0.0068577 -0.740968 0
M  V30 4694 H 452.89 -0.716097 -1.77607 0
M  V30 4695 H 451.195 0.915118 -3.80963 0
M  V30 4696 H 452.892 0.558556 -3.97091 0
M  V30 4697 H 449.482 -0.856767 -4.19949 0
M  V30 4698 H 453.666 -1.72628 -4.6531 0
M  V30 4699 H 448.922 -2.95401 -5.35302 0
M  V30 4700 H 453.096 -3.82374 -5.82033 0
M  V30 4701 H 450.723 -4.44331 -6.16825 0
M  V30 4702 N 452.299 1.55045 -0.282633 0
M  V30 4703 C 453.262 2.21515 0.588539 0
M  V30 4704 C 454.262 1.19535 1.07554 0
M  V30 4705 O 455.452 1.44391 0.974514 0
M  V30 4706 C 452.584 2.88704 1.8128 0
M  V30 4707 H 453.777 2.99899 0.00806397 0
M  V30 4708 H 451.33 1.56265 -0.0333067 0
M  V30 4709 H 452.065 2.14352 2.43359 0
M  V30 4710 H 451.85 3.63443 1.47144 0
M  V30 4711 H 453.34 3.39465 2.43214 0
M  V30 4712 N 453.777 0.010035 1.57597 0
M  V30 4713 C 455.193 -0.346164 1.55801 0
M  V30 4714 C 455.393 -1.74144 1.01371 0
M  V30 4715 O 454.449 -2.43938 0.651968 0
M  V30 4716 C 455.762 -0.212216 2.9995 0
M  V30 4717 C 457.31 -0.286409 3.11687 0
M  V30 4718 C 457.785 -0.18147 4.5764 0
M  V30 4719 N 459.276 -0.239056 4.62583 0
M  V30 4720 C 460.011 -0.181351 5.73113 0
M  V30 4721 N 459.507 -0.073661 6.92761 0
M  V30 4722 N 461.3 -0.233949 5.61613 0
M  V30 4723 H 453.451 0.922657 1.91313 0
M  V30 4724 H 455.714 0.354595 0.879185 0
M  V30 4725 H 455.42 0.748169 3.4365 0
M  V30 4726 H 455.294 -0.990224 3.6397 0
M  V30 4727 H 457.681 -1.23724 2.67911 0
M  V30 4728 H 457.762 0.521645 2.50425 0
M  V30 4729 H 457.406 0.765863 5.02093 0
M  V30 4730 H 457.336 -1.00814 5.1686 0
M  V30 4731 H 459.827 -0.32321 3.76515 0
M  V30 4732 H 460.14 -0.0358003 7.72792 0
M  V30 4733 H 458.485 -0.0391461 6.94989 0
M  V30 4734 H 461.676 -0.316347 4.6703 0
M  V30 4735 H 461.849 -0.185514 6.47734 0
M  V30 4736 N 455.255 -1.55392 -0.262866 0
M  V30 4737 C 456.185 -1.91978 -1.32917 0
M  V30 4738 C 457.166 -0.7828 -1.51017 0
M  V30 4739 O 458.351 -1.04178 -1.63892 0
M  V30 4740 C 455.481 -2.20055 -2.68687 0
M  V30 4741 C 454.435 -3.35854 -2.65304 0
M  V30 4742 C 453.761 -3.49435 -4.04721 0
M  V30 4743 C 455.061 -4.71977 -2.23685 0
M  V30 4744 H 456.755 -2.81292 -1.02544 0
M  V30 4745 H 454.301 -1.3534 -0.491846 0
M  V30 4746 H 456.254 -2.44237 -3.43404 0
M  V30 4747 H 454.978 -1.27551 -3.00663 0
M  V30 4748 H 453.637 -3.11655 -1.93045 0
M  V30 4749 H 453.285 -2.54379 -4.33936 0
M  V30 4750 H 452.985 -4.27297 -4.0335 0
M  V30 4751 H 454.509 -3.7592 -4.81161 0
M  V30 4752 H 455.923 -4.95637 -2.88127 0
M  V30 4753 H 454.32 -5.52828 -2.33456 0
M  V30 4754 H 455.39 -4.70115 -1.18827 0
M  V30 4755 N 456.733 0.527833 -1.48498 0
M  V30 4756 C 457.958 1.313 -1.60546 0
M  V30 4757 C 458.383 1.86199 -0.26672 0
M  V30 4758 O 457.741 1.64513 0.761918 0
M  V30 4759 C 457.789 2.43818 -2.65678 0
M  V30 4760 O 456.893 3.46916 -2.22987 0
M  V30 4761 H 456.234 0.388784 -0.538277 0
M  V30 4762 H 458.764 0.634896 -1.945 0
M  V30 4763 H 458.774 2.89973 -2.87018 0
M  V30 4764 H 457.449 2.03222 -3.62869 0
M  V30 4765 H 456.026 3.06864 -2.11869 0
M  V30 4766 N 458.211 1.37122 0.776871 0
M  V30 4767 C 459.141 1.35164 1.90402 0
M  V30 4768 C 460.122 0.221069 1.68657 0
M  V30 4769 O 461.307 0.420642 1.8959 0
M  V30 4770 C 458.437 1.15274 3.27611 0
M  V30 4771 C 457.391 2.25289 3.63908 0
M  V30 4772 C 456.717 1.90527 4.99603 0
M  V30 4773 C 458.017 3.67446 3.71188 0
M  V30 4774 H 459.711 2.29482 1.92297 0
M  V30 4775 H 457.257 1.10465 0.923773 0
M  V30 4776 H 459.21 1.12536 4.06096 0
M  V30 4777 H 457.934 0.174102 3.26136 0
M  V30 4778 H 456.593 2.27174 2.87728 0
M  V30 4779 H 456.241 0.91206 4.94662 0
M  V30 4780 H 455.941 2.64193 5.24858 0
M  V30 4781 H 457.465 1.89367 5.80493 0
M  V30 4782 H 458.879 3.67719 4.39836 0
M  V30 4783 H 457.276 4.40123 4.07936 0
M  V30 4784 H 458.346 4.01443 2.71977 0
M  V30 4785 N 459.689 -1.00246 1.21608 0
M  V30 4786 C 460.917 -1.77631 1.06089 0
M  V30 4787 C 461.332 -1.84746 -0.38916 0
M  V30 4788 O 460.689 -1.31068 -1.26994 0
M  V30 4789 C 460.74 -3.21415 1.65453 0
M  V30 4790 O 460.461 -3.14703 3.04785 0
M  V30 4791 C 461.962 -4.15289 1.55079 0
M  V30 4792 H 459.182 -0.558162 0.37242 0
M  V30 4793 H 461.726 -1.26093 1.60999 0
M  V30 4794 H 459.881 -3.70053 1.14629 0
M  V30 4795 H 460.295 -4.05056 3.33212 0
M  V30 4796 H 461.769 -5.13965 2.01355 0
M  V30 4797 H 462.246 -4.36279 0.505665 0
M  V30 4798 H 462.852 -3.72543 2.05163 0
M  V30 4799 N 461.167 -1.02423 -1.1978 0
M  V30 4800 C 462.397 -0.736387 -1.93031 0
M  V30 4801 C 462.805 0.708023 -1.75453 0
M  V30 4802 O 462.148 1.4927 -1.07071 0
M  V30 4803 C 462.21 -1.00194 -3.45255 0
M  V30 4804 C 461.874 -2.43698 -3.86601 0
M  V30 4805 C 462.871 -3.41814 -3.91738 0
M  V30 4806 C 460.556 -2.77975 -4.18372 0
M  V30 4807 C 462.55 -4.72265 -4.28071 0
M  V30 4808 C 460.237 -4.08636 -4.54378 0
M  V30 4809 C 461.235 -5.05592 -4.59201 0
M  V30 4810 O 460.923 -6.33914 -4.94376 0
M  V30 4811 H 460.655 -0.269116 -0.620123 0
M  V30 4812 H 463.209 -1.37043 -1.52998 0
M  V30 4813 H 461.439 -0.310747 -3.85449 0
M  V30 4814 H 463.128 -0.704488 -3.9974 0
M  V30 4815 H 463.894 -3.16671 -3.67348 0
M  V30 4816 H 459.773 -2.0319 -4.13805 0
M  V30 4817 H 463.317 -5.4794 -4.3175 0
M  V30 4818 H 459.214 -4.33556 -4.78226 0
M  V30 4819 H 459.982 -6.38317 -5.12341 0
M  V30 4820 N 462.645 1.35699 -0.801477 0
M  V30 4821 C 463.555 2.33661 -0.209691 0
M  V30 4822 C 464.571 1.6162 0.644591 0
M  V30 4823 O 465.747 1.93529 0.557545 0
M  V30 4824 C 462.812 3.40816 0.636033 0
M  V30 4825 C 461.873 4.28639 -0.238147 0
M  V30 4826 C 461.106 5.30676 0.567307 0
M  V30 4827 O 461.329 5.41174 1.8024 0
M  V30 4828 O 460.263 6.01887 -0.0391336 0
M  V30 4829 H 464.089 2.8606 -1.01996 0
M  V30 4830 H 461.674 1.38379 -0.563164 0
M  V30 4831 H 463.556 4.06301 1.11791 0
M  V30 4832 H 462.231 2.90696 1.42399 0
M  V30 4833 H 461.138 3.66152 -0.767044 0
M  V30 4834 H 462.471 4.82143 -0.989915 0
M  V30 4835 N 464.123 0.554532 1.47522 0
M  V30 4836 C 465.539 0.214107 1.58157 0
M  V30 4837 C 465.739 -1.28331 1.55349 0
M  V30 4838 O 464.795 -2.06329 1.45549 0
M  V30 4839 C 466.108 0.838391 2.88776 0
M  V30 4840 C 467.656 0.809374 3.02354 0
M  V30 4841 C 468.131 1.41268 4.35669 0
M  V30 4842 N 469.622 1.37574 4.42298 0
M  V30 4843 C 470.357 1.8122 5.4401 0
M  V30 4844 N 469.853 2.3271 6.52547 0
M  V30 4845 N 471.646 1.72307 5.35039 0
M  V30 4846 H 463.797 1.52744 1.4759 0
M  V30 4847 H 466.06 0.636812 0.702264 0
M  V30 4848 H 465.766 1.89065 2.96559 0
M  V30 4849 H 465.64 0.329847 3.75755 0
M  V30 4850 H 468.027 -0.234187 2.94169 0
M  V30 4851 H 468.108 1.35565 2.16924 0
M  V30 4852 H 467.752 2.45529 4.4461 0
M  V30 4853 H 467.682 0.841871 5.19827 0
M  V30 4854 H 470.173 0.999081 3.64454 0
M  V30 4855 H 470.486 2.63944 7.26329 0
M  V30 4856 H 468.831 2.36719 6.53444 0
M  V30 4857 H 472.022 1.3186 4.49144 0
M  V30 4858 H 472.195 2.06641 6.14169 0
M  V30 4859 N 465.601 -1.54893 0.290851 0
M  V30 4860 C 466.531 -2.26103 -0.583084 0
M  V30 4861 C 467.512 -1.25684 -1.14619 0
M  V30 4862 O 468.697 -1.54436 -1.17741 0
M  V30 4863 C 465.827 -2.99409 -1.75987 0
M  V30 4864 C 464.781 -4.0689 -1.32758 0
M  V30 4865 C 464.107 -4.67856 -2.58872 0
M  V30 4866 C 465.407 -5.20215 -0.46624 0
M  V30 4867 H 467.101 -2.99398 0.0108214 0
M  V30 4868 H 464.647 -1.43998 0.00664468 0
M  V30 4869 H 466.6 -3.47943 -2.37727 0
M  V30 4870 H 465.324 -2.23675 -2.37985 0
M  V30 4871 H 463.983 -3.59191 -0.733299 0
M  V30 4872 H 463.631 -3.88772 -3.19163 0
M  V30 4873 H 463.331 -5.40438 -2.30653 0
M  V30 4874 H 464.855 -5.19147 -3.21433 0
M  V30 4875 H 466.269 -5.64704 -0.989047 0
M  V30 4876 H 464.666 -5.99455 -0.27826 0
M  V30 4877 H 465.736 -4.82198 0.511173 0
M  V30 4878 N 467.08 -0.0183926 -1.57589 0
M  V30 4879 C 468.327 0.662562 -1.91354 0
M  V30 4880 C 468.655 1.72747 -0.893788 0
M  V30 4881 O 467.91 1.9545 0.0988509 0
M  V30 4882 C 468.209 1.32676 -3.31861 0
M  V30 4883 C 467.875 0.393267 -4.49182 0
M  V30 4884 C 466.537 0.136302 -4.81007 0
M  V30 4885 C 468.889 -0.248366 -5.20608 0
M  V30 4886 C 466.217 -0.770282 -5.81621 0
M  V30 4887 C 468.569 -1.14294 -6.22189 0
M  V30 4888 C 467.233 -1.4089 -6.52462 0
M  V30 4889 H 466.503 0.242448 -0.700214 0
M  V30 4890 H 469.15 -0.0778629 -1.91342 0
M  V30 4891 H 467.455 2.14168 -3.28084 0
M  V30 4892 H 469.152 1.86001 -3.55253 0
M  V30 4893 H 465.742 0.603723 -4.24327 0
M  V30 4894 H 469.926 -0.062883 -4.9626 0
M  V30 4895 H 465.182 -0.984154 -6.03427 0
M  V30 4896 H 469.356 -1.64637 -6.76659 0
M  V30 4897 H 466.983 -2.11306 -7.30242 0
M  V30 4898 N 468.558 1.5553 0.254621 0
M  V30 4899 C 469.806 1.7665 0.981793 0
M  V30 4900 C 470.127 0.580963 1.86145 0
M  V30 4901 O 469.397 -0.403537 1.91699 0
M  V30 4902 H 467.977 0.651475 0.365498 0
M  V30 4903 H 470.639 1.92958 0.274426 0
M  V30 4904 H 469.735 2.67486 1.60802 0
M  V30 4905 N 470.036 -0.519951 1.48776 0
M  V30 4906 C 471.264 -1.29971 1.60982 0
M  V30 4907 C 471.679 -1.86803 0.273885 0
M  V30 4908 O 471.036 -1.66904 -0.738193 0
M  V30 4909 C 471.087 -2.44346 2.66415 0
M  V30 4910 O 470.808 -1.89855 3.94825 0
M  V30 4911 C 472.309 -3.36014 2.89153 0
M  V30 4912 H 469.529 -0.394891 0.542496 0
M  V30 4913 H 472.073 -0.626214 1.94676 0
M  V30 4914 H 470.228 -3.07562 2.35552 0
M  V30 4915 H 470.642 -2.64798 4.5275 0
M  V30 4916 H 472.116 -4.12593 3.66703 0
M  V30 4917 H 472.593 -3.91859 1.98351 0
M  V30 4918 H 473.199 -2.78582 3.21359 0
M  V30 4919 N 471.514 -1.37532 -0.769588 0
M  V30 4920 C 472.742 -1.36059 -1.55871 0
M  V30 4921 C 473.157 0.053544 -1.88724 0
M  V30 4922 O 472.514 1.01591 -1.5161 0
M  V30 4923 C 472.565 -2.20107 -2.86767 0
M  V30 4924 O 472.286 -3.56009 -2.55321 0
M  V30 4925 C 473.787 -2.26636 -3.80987 0
M  V30 4926 H 471.007 -0.465967 -0.482821 0
M  V30 4927 H 473.551 -1.80901 -0.953686 0
M  V30 4928 H 471.706 -1.78768 -3.43687 0
M  V30 4929 H 472.12 -4.0009 -3.39158 0
M  V30 4930 H 473.594 -2.89763 -4.69831 0
M  V30 4931 H 474.071 -1.2754 -4.20274 0
M  V30 4932 H 474.677 -2.68296 -3.29996 0
M  V30 4933 N 472.992 0.995999 -1.22138 0
M  V30 4934 C 474.238 1.73767 -1.04561 0
M  V30 4935 C 474.571 1.89633 0.418698 0
M  V30 4936 O 473.846 1.43723 1.3105 0
M  V30 4937 C 474.129 3.14505 -1.75382 0
M  V30 4938 C 473.982 3.06306 -3.29388 0
M  V30 4939 C 475.301 4.13615 -1.50369 0
M  V30 4940 H 472.42 0.630728 -0.38125 0
M  V30 4941 H 475.062 1.16057 -1.50435 0
M  V30 4942 H 473.212 3.63775 -1.36383 0
M  V30 4943 H 474.884 2.64681 -3.77812 0
M  V30 4944 H 473.127 2.43186 -3.59226 0
M  V30 4945 H 473.798 4.05884 -3.74116 0
M  V30 4946 H 476.274 3.73089 -1.84239 0
M  V30 4947 H 475.15 5.10212 -2.02421 0
M  V30 4948 H 475.411 4.39949 -0.435611 0
M  V30 4949 N 474.47 1.03057 1.19235 0
M  V30 4950 C 475.698 0.747697 1.92917 0
M  V30 4951 C 476.113 -0.69372 1.75593 0
M  V30 4952 O 475.47 -1.47191 1.07894 0
M  V30 4953 C 475.521 1.09159 3.44625 0
M  V30 4954 O 475.242 2.47641 3.61394 0
M  V30 4955 C 476.743 0.831763 4.35427 0
M  V30 4956 H 473.963 0.273453 0.612751 0
M  V30 4957 H 476.507 1.37552 1.51327 0
M  V30 4958 H 474.662 0.508919 3.84043 0
M  V30 4959 H 475.076 2.60499 4.55237 0
M  V30 4960 H 476.55 1.12233 5.4047 0
M  V30 4961 H 477.027 -0.233769 4.38577 0
M  V30 4962 H 477.633 1.39725 4.01693 0
M  V30 4963 N 475.948 -1.35272 0.808662 0
M  V30 4964 C 477.195 -1.98709 0.390003 0
M  V30 4965 C 477.523 -1.64148 -1.04335 0
M  V30 4966 O 476.778 -0.897797 -1.73891 0
M  V30 4967 C 477.077 -3.53556 0.522798 0
M  V30 4968 C 476.743 -4.0799 1.91977 0
M  V30 4969 C 475.405 -4.22568 2.30195 0
M  V30 4970 C 477.757 -4.37442 2.83361 0
M  V30 4971 C 475.085 -4.63918 3.59162 0
M  V30 4972 C 477.437 -4.80232 4.11776 0
M  V30 4973 C 476.101 -4.93016 4.49991 0
M  V30 4974 H 475.371 -0.727127 0.142712 0
M  V30 4975 H 478.018 -1.6145 1.02985 0
M  V30 4976 H 476.323 -3.91287 -0.200494 0
M  V30 4977 H 478.02 -4.00598 0.179608 0
M  V30 4978 H 474.61 -3.97096 1.61284 0
M  V30 4979 H 478.794 -4.25731 2.55083 0
M  V30 4980 H 474.05 -4.72005 3.88615 0
M  V30 4981 H 478.224 -5.01982 4.82687 0
M  V30 4982 H 475.851 -5.24814 5.49976 0
M  V30 4983 N 477.426 -0.562348 -1.47226 0
M  V30 4984 C 478.373 0.182461 -2.30078 0
M  V30 4985 C 479.343 0.903503 -1.39377 0
M  V30 4986 O 480.528 0.898188 -1.68337 0
M  V30 4987 C 477.668 1.20322 -3.23445 0
M  V30 4988 C 476.781 0.487717 -4.29238 0
M  V30 4989 C 475.916 1.49422 -5.09752 0
M  V30 4990 C 474.955 0.763976 -6.07314 0
M  V30 4991 N 474.092 1.71755 -6.80768 0
M  V30 4992 H 478.932 -0.530169 -2.93246 0
M  V30 4993 H 476.469 -0.273276 -1.44539 0
M  V30 4994 H 478.427 1.80768 -3.76004 0
M  V30 4995 H 477.057 1.88382 -2.6213 0
M  V30 4996 H 476.109 -0.231374 -3.79696 0
M  V30 4997 H 477.421 -0.0841003 -4.98729 0
M  V30 4998 H 476.575 2.17206 -5.66486 0
M  V30 4999 H 475.314 2.09995 -4.40174 0
M  V30 5000 H 474.319 0.0722344 -5.49753 0
M  V30 5001 H 475.544 0.16391 -6.78902 0
M  V30 5002 H 473.49 2.31177 -6.13916 0
M  V30 5003 H 473.407 1.19802 -7.46447 0
M  V30 5004 H 474.675 2.38638 -7.42073 0
M  V30 5005 N 478.904 1.54736 -0.299062 0
M  V30 5006 C 480.151 2.00101 0.310784 0
M  V30 5007 C 480.479 1.18746 1.54045 0
M  V30 5008 O 479.734 0.251198 1.94081 0
M  V30 5009 C 480.033 3.50199 0.713835 0
M  V30 5010 C 479.699 4.48997 -0.413873 0
M  V30 5011 C 478.361 4.7573 -0.723462 0
M  V30 5012 C 480.713 5.07839 -1.17257 0
M  V30 5013 C 478.041 5.5857 -1.79491 0
M  V30 5014 C 480.393 5.91844 -2.23392 0
M  V30 5015 C 479.057 6.16889 -2.54959 0
M  V30 5016 H 478.327 0.732221 0.113724 0
M  V30 5017 H 480.974 1.86888 -0.417756 0
M  V30 5018 H 479.279 3.61012 1.52243 0
M  V30 5019 H 480.976 3.82723 1.19684 0
M  V30 5020 H 477.566 4.28292 -0.162476 0
M  V30 5021 H 481.75 4.87188 -0.946651 0
M  V30 5022 H 477.006 5.76213 -2.04423 0
M  V30 5023 H 481.18 6.36465 -2.8264 0
M  V30 5024 H 478.807 6.80869 -3.38114 0
M  V30 5025 N 480.382 0.0267497 1.57577 0
M  V30 5026 C 481.631 -0.651736 1.9088 0
M  V30 5027 C 481.944 -1.73427 0.904576 0
M  V30 5028 O 483.15 -2.46923 1.12877 0
M  V30 5029 C 481.606 -1.21048 3.38933 0
M  V30 5030 C 481.214 -0.161362 4.47709 0
M  V30 5031 C 482.958 -1.86562 3.81307 0
M  V30 5032 C 480.865 -0.731611 5.86857 0
M  V30 5033 H 479.795 -0.247198 0.712326 0
M  V30 5034 H 482.446 0.0916641 1.83271 0
M  V30 5035 H 480.828 -2.00542 3.41466 0
M  V30 5036 H 482.002 0.61094 4.56732 0
M  V30 5037 H 480.317 0.394877 4.14523 0
M  V30 5038 H 482.914 -2.30178 4.8262 0
M  V30 5039 H 483.257 -2.70735 3.16241 0
M  V30 5040 H 483.79 -1.13762 3.81186 0
M  V30 5041 H 480.529 0.0719329 6.55461 0
M  V30 5042 H 480.049 -1.47245 5.81445 0
M  V30 5043 H 481.728 -1.22208 6.35354 0
M  V30 5044 N 481.861 -1.55662 -0.24637 0
M  V30 5045 C 482.791 -1.93377 -1.30873 0
M  V30 5046 C 483.772 -0.798773 -1.50179 0
M  V30 5047 O 484.957 -1.0591 -1.62778 0
M  V30 5048 C 482.087 -2.22893 -2.66338 0
M  V30 5049 C 481.041 -3.38649 -2.61727 0
M  V30 5050 C 480.367 -3.53708 -4.00992 0
M  V30 5051 C 481.667 -4.74323 -2.18666 0
M  V30 5052 H 483.361 -2.82363 -0.995552 0
M  V30 5053 H 480.907 -1.35854 -0.477464 0
M  V30 5054 H 482.86 -2.47866 -3.40794 0
M  V30 5055 H 481.584 -1.30733 -2.99293 0
M  V30 5056 H 480.243 -3.13685 -1.89729 0
M  V30 5057 H 479.891 -2.58967 -4.31214 0
M  V30 5058 H 479.591 -4.31551 -3.98795 0
M  V30 5059 H 481.115 -3.81003 -4.77147 0
M  V30 5060 H 482.529 -4.98665 -2.82854 0
M  V30 5061 H 480.926 -5.55273 -2.27579 0
M  V30 5062 H 481.996 -4.71349 -1.13834 0
M  V30 5063 N 483.339 0.512053 -1.4905 0
M  V30 5064 C 484.302 1.59704 -1.64399 0
M  V30 5065 C 485.302 1.52285 -0.516317 0
M  V30 5066 O 486.492 1.55635 -0.782527 0
M  V30 5067 C 483.624 2.9935 -1.63102 0
M  V30 5068 H 484.817 1.47428 -2.61161 0
M  V30 5069 H 482.37 0.735469 -1.37915 0
M  V30 5070 H 483.105 3.17116 -0.678836 0
M  V30 5071 H 482.89 3.06144 -2.44986 0
M  V30 5072 H 484.38 3.782 -1.77072 0
M  V30 5073 N 484.817 1.37938 0.762283 0
M  V30 5074 C 485.765 1.34569 1.89721 0
M  V30 5075 C 486.759 0.232929 1.67791 0
M  V30 5076 O 487.965 0.401485 1.75465 0
M  V30 5077 H 484.34 0.419594 0.624055 0
M  V30 5078 H 486.311 2.30357 1.8968 0
M  V30 5079 C 485.06 1.17898 3.27101 0
M  V30 5080 H 484.383 2.02781 3.44558 0
M  V30 5081 H 485.823 1.19593 4.06784 0
M  V30 5082 C 484.282 -0.114728 3.36705 0
M  V30 5083 O 484.812 -1.0949 3.8649 0
M  V30 5084 N 483.018 -0.16863 2.9011 0
M  V30 5085 H 482.565 0.62967 2.49786 0
M  V30 5086 H 482.523 -1.03383 2.96916 0
M  V30 5087 N 486.295 -0.989507 1.22664 0
M  V30 5088 C 487.711 -1.25395 0.987331 0
M  V30 5089 C 487.911 -1.9899 -0.317056 0
M  V30 5090 O 486.967 -2.30141 -1.03882 0
M  V30 5091 C 488.28 -2.06242 2.18826 0
M  V30 5092 C 489.828 -2.19413 2.23219 0
M  V30 5093 C 490.303 -3.03648 3.42873 0
M  V30 5094 N 491.794 -3.11234 3.43056 0
M  V30 5095 C 492.529 -3.7671 4.32293 0
M  V30 5096 N 492.025 -4.44085 5.31752 0
M  V30 5097 N 493.818 -3.73505 4.2006 0
M  V30 5098 H 485.969 -0.496212 2.06522 0
M  V30 5099 H 488.232 -0.281784 0.905153 0
M  V30 5100 H 487.938 -1.59531 3.13437 0
M  V30 5101 H 487.812 -3.06996 2.19165 0
M  V30 5102 H 490.199 -2.65336 1.29154 0
M  V30 5103 H 490.28 -1.18078 2.26917 0
M  V30 5104 H 489.924 -2.58424 4.37241 0
M  V30 5105 H 489.854 -4.05132 3.36416 0
M  V30 5106 H 492.345 -2.63287 2.71088 0
M  V30 5107 H 492.658 -4.91797 5.96117 0
M  V30 5108 H 491.003 -4.42822 5.35662 0
M  V30 5109 H 494.194 -3.20033 3.41609 0
M  V30 5110 H 494.367 -4.24253 4.8981 0
M  V30 5111 N 487.773 -1.03688 -1.18687 0
M  V30 5112 C 488.703 -0.645407 -2.24403 0
M  V30 5113 C 489.684 0.349511 -1.66471 0
M  V30 5114 O 490.869 0.230453 -1.92828 0
M  V30 5115 C 487.999 -0.00365337 -3.473 0
M  V30 5116 C 486.953 -0.921705 -4.17958 0
M  V30 5117 C 486.279 -0.144629 -5.34504 0
M  V30 5118 C 487.579 -2.23909 -4.71871 0
M  V30 5119 H 489.273 -1.52917 -2.57404 0
M  V30 5120 H 486.819 -0.736711 -1.23728 0
M  V30 5121 H 488.772 0.281908 -4.20456 0
M  V30 5122 H 487.496 0.914963 -3.13522 0
M  V30 5123 H 486.155 -1.19159 -3.46694 0
M  V30 5124 H 485.803 0.776274 -4.96974 0
M  V30 5125 H 485.503 -0.756206 -5.82714 0
M  V30 5126 H 487.027 0.134004 -6.10453 0
M  V30 5127 H 488.441 -2.0145 -5.36741 0
M  V30 5128 H 486.838 -2.8033 -5.30599 0
M  V30 5129 H 487.908 -2.88822 -3.895 0
M  V30 5130 N 489.251 1.34841 -0.815825 0
M  V30 5131 C 490.481 2.02436 -0.412695 0
M  V30 5132 C 490.889 1.61604 0.983906 0
M  V30 5133 O 490.232 0.813729 1.64694 0
M  V30 5134 C 490.294 3.56953 -0.427182 0
M  V30 5135 C 489.958 4.21083 -1.77589 0
M  V30 5136 C 490.955 4.42107 -2.73564 0
M  V30 5137 C 488.64 4.58006 -2.06243 0
M  V30 5138 C 490.634 4.99169 -3.9637 0
M  V30 5139 C 488.321 5.1478 -3.2931 0
M  V30 5140 C 489.319 5.35304 -4.24191 0
M  V30 5141 O 489.007 5.90878 -5.45086 0
M  V30 5142 H 488.739 0.655631 -0.164695 0
M  V30 5143 H 491.293 1.73246 -1.1034 0
M  V30 5144 H 489.523 3.85372 0.320175 0
M  V30 5145 H 491.212 4.05875 -0.0450875 0
M  V30 5146 H 491.978 4.13953 -2.52721 0
M  V30 5147 H 487.857 4.41339 -1.33196 0
M  V30 5148 H 491.401 5.15105 -4.70439 0
M  V30 5149 H 487.298 5.42362 -3.5002 0
M  V30 5150 H 488.066 6.0932 -5.46508 0
M  V30 5151 N 490.729 0.570148 1.46925 0
M  V30 5152 C 492.14 0.1402 1.86173 0
M  V30 5153 C 492.491 -1.29347 1.47526 0
M  V30 5154 O 491.616 -1.97508 0.884292 0
M  V30 5155 C 492.211 0.247661 3.37894 0
M  V30 5156 C 490.77 -0.127332 3.76185 0
M  V30 5157 C 489.917 0.589349 2.70965 0
M  V30 5158 H 492.868 0.779117 1.38259 0
M  V30 5159 H 492.889 -0.530341 3.76786 0
M  V30 5160 H 492.401 1.29121 3.65991 0
M  V30 5161 H 490.502 -1.17149 3.53704 0
M  V30 5162 H 490.615 0.240238 4.78497 0
M  V30 5163 H 488.979 0.0309824 2.54681 0
M  V30 5164 H 489.762 1.6343 3.01903 0
M  V30 5165 N 492.207 -1.54576 0.307264 0
M  V30 5166 C 493.453 -2.0056 -0.300612 0
M  V30 5167 C 493.786 -1.1953 -1.53057 0
M  V30 5168 O 493.061 -0.27337 -1.92569 0
M  V30 5169 C 493.344 -3.54167 -0.650987 0
M  V30 5170 C 493.197 -4.45933 0.588539 0
M  V30 5171 C 494.516 -4.14645 -1.47506 0
M  V30 5172 H 491.635 -0.729075 -0.107788 0
M  V30 5173 H 494.277 -1.85286 0.420606 0
M  V30 5174 H 492.427 -3.67313 -1.26544 0
M  V30 5175 H 494.099 -4.44683 1.22697 0
M  V30 5176 H 492.342 -4.16274 1.22058 0
M  V30 5177 H 493.013 -5.51189 0.299153 0
M  V30 5178 H 495.489 -4.04973 -0.955821 0
M  V30 5179 H 494.365 -5.22269 -1.68899 0
M  V30 5180 H 494.626 -3.66921 -2.4662 0
M  V30 5181 N 493.685 -0.035106 -1.57561 0
M  V30 5182 C 494.91 0.655802 -1.96759 0
M  V30 5183 C 495.335 1.64523 -0.911809 0
M  V30 5184 O 494.693 1.80857 0.126673 0
M  V30 5185 C 494.741 1.33326 -3.35047 0
M  V30 5186 O 493.845 2.44866 -3.31835 0
M  V30 5187 H 493.186 0.171807 -0.641388 0
M  V30 5188 H 495.716 -0.0987369 -2.04362 0
M  V30 5189 H 495.726 1.68867 -3.71413 0
M  V30 5190 H 494.401 0.608033 -4.11431 0
M  V30 5191 H 492.978 2.11392 -3.07193 0
M  V30 5192 N 495.163 1.55791 0.238111 0
M  V30 5193 C 496.126 1.90239 1.27835 0
M  V30 5194 C 497.126 0.779552 1.4064 0
M  V30 5195 O 498.316 1.04747 1.3919 0
M  V30 5196 C 495.448 2.13859 2.65475 0
M  V30 5197 H 496.641 2.83262 0.985034 0
M  V30 5198 H 494.194 1.48818 0.477799 0
M  V30 5199 H 494.929 1.23334 2.99932 0
M  V30 5200 H 494.714 2.95643 2.57561 0
M  V30 5201 H 496.204 2.41664 3.40571 0
M  V30 5202 N 496.642 -0.504142 1.49319 0
M  V30 5203 C 498.058 -0.835039 1.36012 0
M  V30 5204 C 498.258 -1.97674 0.390808 0
M  V30 5205 O 497.314 -2.51867 -0.178655 0
M  V30 5206 C 498.627 -1.17821 2.76656 0
M  V30 5207 C 500.175 -1.2866 2.85334 0
M  V30 5208 C 500.65 -1.66307 4.26739 0
M  V30 5209 N 502.141 -1.73362 4.29534 0
M  V30 5210 C 502.876 -2.0393 5.35911 0
M  V30 5211 N 502.372 -2.32744 6.52535 0
M  V30 5212 N 504.165 -2.05155 5.23324 0
M  V30 5213 H 496.316 0.248764 2.10938 0
M  V30 5214 H 498.579 0.0486962 0.946748 0
M  V30 5215 H 498.285 -0.412682 3.4927 0
M  V30 5216 H 498.159 -2.12239 3.11825 0
M  V30 5217 H 500.546 -2.04285 2.1296 0
M  V30 5218 H 500.627 -0.323004 2.53752 0
M  V30 5219 H 500.271 -0.91234 4.99639 0
M  V30 5220 H 500.201 -2.63761 4.55782 0
M  V30 5221 H 502.692 -1.53268 3.45424 0
M  V30 5222 H 503.005 -2.55248 7.2943 0
M  V30 5223 H 501.35 -2.30207 6.55767 0
M  V30 5224 H 504.541 -1.82119 4.3122 0
M  V30 5225 H 504.714 -2.28644 6.06322 0
M  V30 5226 N 498.12 -1.38341 -0.754957 0
M  V30 5227 C 499.07 -1.31964 -1.85929 0
M  V30 5228 C 500.054 -0.204181 -1.59599 0
M  V30 5229 O 501.246 -0.440036 -1.71443 0
M  V30 5230 C 498.375 -1.14565 -3.2362 0
M  V30 5231 C 497.461 -2.30727 -3.55846 0
M  V30 5232 N 497.852 -3.56165 -3.59138 0
M  V30 5233 C 496.15 -2.23249 -3.86104 0
M  V30 5234 C 496.851 -4.32865 -3.88591 0
M  V30 5235 N 495.827 -3.62203 -4.05351 0
M  V30 5236 H 499.629 -2.2694 -1.8675 0
M  V30 5237 H 497.143 -1.31553 -0.952243 0
M  V30 5238 H 499.14 -1.0808 -4.02647 0
M  V30 5239 H 497.8 -0.205212 -3.24051 0
M  V30 5240 H 498.811 -3.89854 -3.40932 0
M  V30 5241 H 495.488 -1.37357 -3.94258 0
M  V30 5242 H 496.878 -5.41504 -3.97773 0
M  V30 5243 N 499.598 0.982988 -1.23187 0
M  V30 5244 C 500.844 1.7273 -1.07405 0
M  V30 5245 C 501.199 1.885 0.385447 0
M  V30 5246 O 500.492 1.4243 1.28157 0
M  V30 5247 C 500.686 3.12736 -1.73006 0
M  V30 5248 C 500.515 3.10621 -3.25184 0
M  V30 5249 C 499.285 3.15957 -3.94334 0
M  V30 5250 C 501.483 2.93992 -4.21987 0
M  V30 5251 N 499.465 3.03701 -5.33516 0
M  V30 5252 C 500.836 2.8987 -5.48065 0
M  V30 5253 C 502.891 2.78457 -4.12754 0
M  V30 5254 C 501.594 2.71804 -6.65969 0
M  V30 5255 C 503.62 2.61754 -5.30319 0
M  V30 5256 C 502.982 2.58328 -6.55321 0
M  V30 5257 H 499.081 0.641279 -0.447533 0
M  V30 5258 H 501.665 1.16664 -1.55877 0
M  V30 5259 H 499.836 3.67026 -1.2707 0
M  V30 5260 H 501.568 3.75786 -1.50224 0
M  V30 5261 H 498.323 3.24034 -3.45397 0
M  V30 5262 H 498.747 3.00855 -6.06478 0
M  V30 5263 H 503.389 2.79898 -3.16886 0
M  V30 5264 H 501.107 2.69108 -7.61975 0
M  V30 5265 H 504.693 2.50702 -5.25014 0
M  V30 5266 H 503.573 2.45564 -7.4476 0
M  V30 5267 N 501.076 1.04316 1.18135 0
M  V30 5268 C 502.323 0.74802 1.88178 0
M  V30 5269 C 502.651 -0.72441 1.80506 0
M  V30 5270 O 501.906 -1.54463 1.20165 0
M  V30 5271 C 502.205 1.16271 3.37958 0
M  V30 5272 C 501.871 2.63585 3.65833 0
M  V30 5273 C 500.533 3.03829 3.73151 0
M  V30 5274 C 502.885 3.58822 3.78016 0
M  V30 5275 C 500.213 4.38194 3.90132 0
M  V30 5276 C 502.565 4.92909 3.96514 0
M  V30 5277 C 501.229 5.3282 4.02068 0
M  V30 5278 H 500.499 0.27372 0.688592 0
M  V30 5279 H 503.146 1.30863 1.39811 0
M  V30 5280 H 501.451 0.520938 3.88321 0
M  V30 5281 H 503.148 0.911672 3.90499 0
M  V30 5282 H 499.738 2.31414 3.60757 0
M  V30 5283 H 503.922 3.28875 3.71692 0
M  V30 5284 H 499.178 4.68631 3.92677 0
M  V30 5285 H 503.352 5.66606 4.04883 0
M  V30 5286 H 500.979 6.36943 4.14979 0
M  V30 5287 N 502.554 -1.34406 0.822964 0
M  V30 5288 C 503.782 -2.02508 0.424039 0
M  V30 5289 C 504.197 -1.61975 -0.970022 0
M  V30 5290 O 503.554 -0.825228 -1.62777 0
M  V30 5291 C 503.605 -3.57789 0.516657 0
M  V30 5292 O 503.326 -3.96853 1.85577 0
M  V30 5293 C 504.827 -4.43157 0.112637 0
M  V30 5294 H 502.047 -0.649063 0.170173 0
M  V30 5295 H 504.591 -1.7168 1.11113 0
M  V30 5296 H 502.746 -3.87207 -0.122353 0
M  V30 5297 H 503.16 -4.91538 1.83005 0
M  V30 5298 H 504.634 -5.51527 0.228526 0
M  V30 5299 H 505.111 -4.28939 -0.943837 0
M  V30 5300 H 505.717 -4.19067 0.725449 0
M  V30 5301 N 504.032 -0.577932 -1.46621 0
M  V30 5302 C 504.965 0.206312 -2.27265 0
M  V30 5303 C 505.943 0.901306 -1.35334 0
M  V30 5304 O 507.127 0.916151 -1.64739 0
M  V30 5305 C 504.254 1.29563 -3.1294 0
M  V30 5306 C 503.3 0.706981 -4.206 0
M  V30 5307 S 504.133 -0.462459 -5.33499 0
M  V30 5308 C 505.289 0.628171 -6.2274 0
M  V30 5309 H 505.522 -0.477961 -2.93433 0
M  V30 5310 H 503.055 -0.364715 -1.50031 0
M  V30 5311 H 505.013 1.91935 -3.62865 0
M  V30 5312 H 503.674 1.95183 -2.46095 0
M  V30 5313 H 502.867 1.52565 -4.80354 0
M  V30 5314 H 502.469 0.159022 -3.73662 0
M  V30 5315 H 504.761 1.51506 -6.60342 0
M  V30 5316 H 505.704 0.0674961 -7.08068 0
M  V30 5317 H 506.112 0.930167 -5.56784 0
M  V30 5318 N 505.51 1.54411 -0.315457 0
M  V30 5319 C 506.42 2.27737 0.56329 0
M  V30 5320 C 507.436 1.31787 1.13614 0
M  V30 5321 O 508.612 1.64791 1.15784 0
M  V30 5322 C 505.677 3.01478 1.71207 0
M  V30 5323 C 504.738 4.12997 1.17185 0
M  V30 5324 C 503.971 4.83212 2.26588 0
M  V30 5325 O 504.194 4.52884 3.46775 0
M  V30 5326 O 503.128 5.70299 1.92463 0
M  V30 5327 H 506.954 3.03683 -0.0319614 0
M  V30 5328 H 504.539 1.49178 -0.0814188 0
M  V30 5329 H 506.421 3.47683 2.38106 0
M  V30 5330 H 505.096 2.28414 2.29366 0
M  V30 5331 H 504.003 3.71159 0.468174 0
M  V30 5332 H 505.336 4.8808 0.635501 0
M  V30 5333 N 506.988 0.0434614 1.5754 0
M  V30 5334 C 508.404 -0.313039 1.565 0
M  V30 5335 C 508.604 -1.71954 1.05043 0
M  V30 5336 O 507.66 -2.425 0.703564 0
M  V30 5337 C 508.973 -0.148544 3.00333 0
M  V30 5338 C 510.521 -0.220231 3.12224 0
M  V30 5339 C 510.996 -0.0843565 4.57922 0
M  V30 5340 N 512.487 -0.140881 4.62986 0
M  V30 5341 C 513.222 -0.0597443 5.73369 0
M  V30 5342 N 512.718 0.0733004 6.92761 0
M  V30 5343 N 514.511 -0.11477 5.61983 0
M  V30 5344 H 506.662 0.96303 1.89313 0
M  V30 5345 H 508.925 0.373164 0.871466 0
M  V30 5346 H 508.631 0.820894 3.41986 0
M  V30 5347 H 508.505 -0.912798 3.65989 0
M  V30 5348 H 510.892 -1.18014 2.70475 0
M  V30 5349 H 510.973 0.574646 2.49262 0
M  V30 5350 H 510.617 0.872192 5.00355 0
M  V30 5351 H 510.547 -0.898281 5.18882 0
M  V30 5352 H 513.038 -0.243273 3.77116 0
M  V30 5353 H 513.351 0.128128 7.72694 0
M  V30 5354 H 511.696 0.10828 6.94916 0
M  V30 5355 H 514.887 -0.217212 4.67596 0
M  V30 5356 H 515.06 -0.0480779 6.47982 0
M  V30 5357 N 508.466 -1.55915 -0.229846 0
M  V30 5358 C 509.396 -1.94754 -1.28815 0
M  V30 5359 C 510.377 -0.814657 -1.49323 0
M  V30 5360 O 511.562 -1.07631 -1.61645 0
M  V30 5361 C 508.692 -2.25705 -2.63959 0
M  V30 5362 C 507.646 -3.41406 -2.5812 0
M  V30 5363 C 506.972 -3.57941 -3.97218 0
M  V30 5364 C 508.272 -4.76616 -2.13623 0
M  V30 5365 H 509.966 -2.83404 -0.965547 0
M  V30 5366 H 507.512 -1.36353 -0.463028 0
M  V30 5367 H 509.465 -2.51467 -3.38146 0
M  V30 5368 H 508.189 -1.339 -2.9789 0
M  V30 5369 H 506.848 -3.1568 -1.86391 0
M  V30 5370 H 506.496 -2.63526 -4.28443 0
M  V30 5371 H 506.196 -4.35757 -3.94195 0
M  V30 5372 H 507.72 -3.86042 -4.73079 0
M  V30 5373 H 509.134 -5.01637 -2.77549 0
M  V30 5374 H 507.531 -5.57655 -2.21677 0
M  V30 5375 H 508.601 -4.7253 -1.08829 0
M  V30 5376 N 509.944 0.496216 -1.49584 0
M  V30 5377 C 510.854 1.62352 -1.69349 0
M  V30 5378 C 511.87 1.64184 -0.576147 0
M  V30 5379 O 513.046 1.82517 -0.85144 0
M  V30 5380 C 510.111 2.98698 -1.76013 0
M  V30 5381 C 509.172 3.07454 -2.99617 0
M  V30 5382 C 508.405 4.37296 -3.05953 0
M  V30 5383 O 508.628 5.2637 -2.19752 0
M  V30 5384 O 507.562 4.51124 -3.9846 0
M  V30 5385 H 511.388 1.48606 -2.64859 0
M  V30 5386 H 508.973 0.673022 -1.33382 0
M  V30 5387 H 510.855 3.79725 -1.82721 0
M  V30 5388 H 509.53 3.12696 -0.836828 0
M  V30 5389 H 508.437 2.25597 -2.98424 0
M  V30 5390 H 509.77 2.98385 -3.91443 0
M  V30 5391 N 511.423 1.38739 0.74761 0
M  V30 5392 C 512.669 1.35475 1.50912 0
M  V30 5393 C 513.002 -0.0533093 1.94127 0
M  V30 5394 O 512.277 -1.01572 1.65871 0
M  V30 5395 C 512.56 2.31582 2.75757 0
M  V30 5396 C 512.413 3.81274 2.38642 0
M  V30 5397 C 513.732 2.25722 3.77806 0
M  V30 5398 H 510.851 0.493427 0.547447 0
M  V30 5399 H 513.493 1.69634 0.855823 0
M  V30 5400 H 511.643 2.02582 3.31501 0
M  V30 5401 H 513.315 4.20972 1.88626 0
M  V30 5402 H 511.558 3.98664 1.71025 0
M  V30 5403 H 512.229 4.4399 3.27989 0
M  V30 5404 H 514.705 2.51336 3.31616 0
M  V30 5405 H 513.581 2.95069 4.62845 0
M  V30 5406 H 513.842 1.25803 4.23823 0
M  V30 5407 N 512.901 -0.976442 1.23707 0
M  V30 5408 C 513.851 -2.0544 0.988851 0
M  V30 5409 C 514.835 -1.60762 -0.0665901 0
M  V30 5410 O 516.027 -1.76396 0.14604 0
M  V30 5411 C 513.156 -3.38258 0.586223 0
M  V30 5412 C 512.242 -3.89523 1.67728 0
M  V30 5413 N 512.633 -4.13823 2.90834 0
M  V30 5414 C 510.931 -4.18097 1.55277 0
M  V30 5415 C 511.632 -4.55731 3.61502 0
M  V30 5416 N 510.608 -4.60394 2.8903 0
M  V30 5417 H 514.41 -2.22191 1.92376 0
M  V30 5418 H 511.924 -1.15954 1.13704 0
M  V30 5419 H 513.921 -4.15075 0.389658 0
M  V30 5420 H 512.581 -3.22898 -0.341594 0
M  V30 5421 H 513.592 -4.01529 3.271 0
M  V30 5422 H 510.269 -4.11719 0.692351 0
M  V30 5423 H 511.659 -4.83018 4.67059 0
M  V30 5424 N 514.379 -1.04941 -1.1758 0
M  V30 5425 C 515.604 -0.778253 -1.92245 0
M  V30 5426 C 516.029 0.659707 -1.76152 0
M  V30 5427 O 515.387 1.45803 -1.07755 0
M  V30 5428 C 515.435 -1.16051 -3.41416 0
M  V30 5429 O 514.539 -0.291153 -4.11371 0
M  V30 5430 H 513.88 -0.285619 -0.599431 0
M  V30 5431 H 516.41 -1.40159 -1.49052 0
M  V30 5432 H 516.42 -1.12619 -3.92149 0
M  V30 5433 H 515.095 -2.208 -3.52449 0
M  V30 5434 H 513.672 -0.385851 -3.70898 0
M  V30 5435 N 515.857 1.33968 -0.830081 0
M  V30 5436 C 516.805 2.31301 -0.245435 0
M  V30 5437 C 517.799 1.57734 0.617762 0
M  V30 5438 O 519.005 1.72674 0.508303 0
M  V30 5439 H 515.38 0.749552 -0.0606316 0
M  V30 5440 H 517.351 2.78129 -1.08105 0
M  V30 5441 C 516.1 3.42961 0.572084 0
M  V30 5442 H 515.423 3.99714 -0.0828118 0
M  V30 5443 H 516.863 4.13286 0.94715 0
M  V30 5444 C 515.322 2.88043 1.74737 0
M  V30 5445 O 515.852 2.83508 2.8458 0
M  V30 5446 N 514.058 2.44768 1.56642 0
M  V30 5447 H 513.605 2.48656 0.672901 0
M  V30 5448 H 513.563 2.08375 2.3543 0
M  V30 5449 N 517.335 0.585699 1.46312 0
M  V30 5450 C 518.583 0.072278 2.01971 0
M  V30 5451 C 518.904 -1.29345 1.45928 0
M  V30 5452 O 518.174 -1.84973 0.645109 0
M  V30 5453 H 516.754 0.023729 0.746623 0
M  V30 5454 H 519.416 0.762155 1.7938 0
M  V30 5455 H 518.512 0.00552767 3.121 0
M  V30 5456 N 518.813 -1.54241 0.323641 0
M  V30 5457 C 520.038 -2.05452 -0.283605 0
M  V30 5458 C 520.463 -1.19823 -1.44997 0
M  V30 5459 O 519.821 -0.207358 -1.8011 0
M  V30 5460 C 519.869 -3.53823 -0.695795 0
M  V30 5461 O 518.973 -3.71134 -1.79815 0
M  V30 5462 H 518.314 -0.662024 -0.0511917 0
M  V30 5463 H 520.844 -1.99079 0.472073 0
M  V30 5464 H 520.854 -3.96094 -0.978434 0
M  V30 5465 H 519.529 -4.15602 0.157287 0
M  V30 5466 H 518.106 -3.40768 -1.51431 0
M  V30 5467 N 520.291 -0.0518155 -1.57515 0
M  V30 5468 C 521.537 0.622745 -1.93002 0
M  V30 5469 C 521.87 1.70456 -0.930499 0
M  V30 5470 O 521.145 1.94452 0.0434086 0
M  V30 5471 C 521.428 1.21824 -3.38867 0
M  V30 5472 C 521.281 0.144434 -4.49568 0
M  V30 5473 C 522.6 2.12968 -3.8514 0
M  V30 5474 H 519.719 0.22491 -0.701844 0
M  V30 5475 H 522.361 -0.113711 -1.89659 0
M  V30 5476 H 520.511 1.8459 -3.41846 0
M  V30 5477 H 522.183 -0.48753 -4.58717 0
M  V30 5478 H 520.426 -0.527424 -4.30582 0
M  V30 5479 H 521.097 0.601127 -5.48717 0
M  V30 5480 H 523.573 1.60163 -3.8404 0
M  V30 5481 H 522.449 2.51578 -4.87852 0
M  V30 5482 H 522.71 3.03004 -3.21934 0
M  V30 5483 N 521.769 1.56035 0.221574 0
M  V30 5484 C 522.732 1.91584 1.2581 0
M  V30 5485 C 523.732 0.794425 1.39805 0
M  V30 5486 O 524.922 1.06217 1.38071 0
M  V30 5487 C 522.054 2.16663 2.63192 0
M  V30 5488 H 523.247 2.8429 0.954935 0
M  V30 5489 H 520.8 1.49316 0.461988 0
M  V30 5490 H 521.535 1.26508 2.98607 0
M  V30 5491 H 521.32 2.98358 2.5441 0
M  V30 5492 H 522.81 2.45262 3.37988 0
M  V30 5493 N 523.247 -0.488276 1.49845 0
M  V30 5494 C 524.477 -1.26344 1.63465 0
M  V30 5495 C 524.885 -1.86637 0.310379 0
M  V30 5496 O 524.228 -1.69184 -0.715712 0
M  V30 5497 C 524.29 -2.42407 2.65479 0
M  V30 5498 C 523.954 -2.02886 4.09495 0
M  V30 5499 C 524.951 -1.56124 4.95904 0
M  V30 5500 C 522.636 -2.12131 4.55308 0
M  V30 5501 C 524.63 -1.19129 6.26169 0
M  V30 5502 C 522.317 -1.74747 5.85582 0
M  V30 5503 C 523.315 -1.28322 6.70837 0
M  V30 5504 O 523.003 -0.914491 7.98682 0
M  V30 5505 H 522.735 -0.388921 0.552916 0
M  V30 5506 H 525.289 -0.591288 1.96705 0
M  V30 5507 H 523.519 -3.12739 2.27445 0
M  V30 5508 H 525.208 -3.04409 2.68495 0
M  V30 5509 H 525.974 -1.48417 4.61733 0
M  V30 5510 H 521.853 -2.47217 3.89107 0
M  V30 5511 H 525.397 -0.828211 6.92666 0
M  V30 5512 H 521.294 -1.82109 6.19279 0
M  V30 5513 H 522.062 -1.04485 8.11804 0
M  V30 5514 N 524.725 -1.39134 -0.740242 0
M  V30 5515 C 525.972 -1.36071 -1.49969 0
M  V30 5516 C 526.3 0.0450245 -1.94448 0
M  V30 5517 O 525.555 1.02482 -1.66721 0
M  V30 5518 C 525.854 -2.27457 -2.75678 0
M  V30 5519 C 525.52 -3.75185 -2.50094 0
M  V30 5520 C 524.182 -4.15439 -2.42825 0
M  V30 5521 C 526.534 -4.68643 -2.28086 0
M  V30 5522 C 523.862 -5.4722 -2.11584 0
M  V30 5523 C 526.214 -6.00695 -1.98363 0
M  V30 5524 C 524.878 -6.40018 -1.8956 0
M  V30 5525 H 524.148 -0.497921 -0.548777 0
M  V30 5526 H 526.795 -1.71599 -0.85007 0
M  V30 5527 H 525.1 -1.8503 -3.45356 0
M  V30 5528 H 526.797 -2.22384 -3.33686 0
M  V30 5529 H 523.387 -3.43279 -2.56627 0
M  V30 5530 H 527.571 -4.3838 -2.32672 0
M  V30 5531 H 522.827 -5.76615 -2.03287 0
M  V30 5532 H 527.001 -6.72644 -1.80341 0
M  V30 5533 H 524.628 -7.42051 -1.65117 0
M  V30 5534 N 526.204 0.969867 -1.24223 0
M  V30 5535 C 527.152 2.08535 -1.03034 0
M  V30 5536 C 528.146 1.69366 0.0340379 0
M  V30 5537 O 529.352 1.79597 -0.12034 0
M  V30 5538 H 525.727 0.682313 -0.316154 0
M  V30 5539 H 527.698 2.23569 -1.97635 0
M  V30 5540 C 526.447 3.4158 -0.649509 0
M  V30 5541 H 525.77 3.72177 -1.46028 0
M  V30 5542 H 527.21 4.20536 -0.540841 0
M  V30 5543 C 525.669 3.30703 0.643194 0
M  V30 5544 O 526.199 3.64443 1.68951 0
M  V30 5545 N 524.405 2.83841 0.623095 0
M  V30 5546 H 523.952 2.56583 -0.228719 0
M  V30 5547 H 523.91 2.76946 1.48823 0
M  V30 5548 N 527.682 1.05563 1.17022 0
M  V30 5549 C 528.645 0.664098 2.19368 0
M  V30 5550 C 529.645 -0.286358 1.5823 0
M  V30 5551 O 530.835 -0.069728 1.7406 0
M  V30 5552 C 527.967 -0.0239932 3.40892 0
M  V30 5553 H 529.16 1.57 2.55521 0
M  V30 5554 H 526.713 0.849964 1.31169 0
M  V30 5555 H 527.448 -0.942988 3.10287 0
M  V30 5556 H 527.233 0.659351 3.86516 0
M  V30 5557 H 528.723 -0.283909 4.16634 0
M  V30 5558 N 529.16 -1.33526 0.837174 0
M  V30 5559 C 530.385 -2.0258 0.444545 0
M  V30 5560 C 530.81 -1.6258 -0.946006 0
M  V30 5561 O 530.168 -0.817548 -1.6182 0
M  V30 5562 C 530.216 -3.5605 0.571006 0
M  V30 5563 O 529.32 -4.10422 -0.403431 0
M  V30 5564 H 528.661 -0.638866 0.180958 0
M  V30 5565 H 531.191 -1.70462 1.13154 0
M  V30 5566 H 531.201 -4.05488 0.452024 0
M  V30 5567 H 529.876 -3.84509 1.58512 0
M  V30 5568 H 528.453 -3.72113 -0.242147 0
M  V30 5569 N 530.638 -0.59345 -1.46 0
M  V30 5570 C 531.57 0.171569 -2.28557 0
M  V30 5571 C 532.583 0.845273 -1.39137 0
M  V30 5572 O 533.772 0.713033 -1.6364 0
M  V30 5573 C 530.872 1.26311 -3.14482 0
M  V30 5574 C 530.045 0.679258 -4.32094 0
M  V30 5575 C 529.104 1.65987 -4.99334 0
M  V30 5576 O 528.13 1.19171 -5.56585 0
M  V30 5577 N 529.332 2.99414 -4.97324 0
M  V30 5578 H 532.097 -0.536771 -2.94854 0
M  V30 5579 H 529.658 -0.431954 -1.56031 0
M  V30 5580 H 531.65 1.91863 -3.5633 0
M  V30 5581 H 530.22 1.87416 -2.50188 0
M  V30 5582 H 529.44 -0.153992 -3.93899 0
M  V30 5583 H 530.728 0.26916 -5.08088 0
M  V30 5584 H 530.126 3.40064 -4.52076 0
M  V30 5585 H 528.683 3.60426 -5.4308 0
M  V30 5586 N 532.116 1.54067 -0.331816 0
M  V30 5587 C 533.362 2.01012 0.268667 0
M  V30 5588 C 533.695 1.2195 1.51136 0
M  V30 5589 O 532.97 0.303972 1.9211 0
M  V30 5590 C 533.253 3.55158 0.59456 0
M  V30 5591 C 533.106 4.4494 -0.659409 0
M  V30 5592 C 534.425 4.16939 1.4089 0
M  V30 5593 H 531.544 0.730698 0.0961756 0
M  V30 5594 H 534.186 1.84593 -0.450031 0
M  V30 5595 H 532.336 3.6928 1.20685 0
M  V30 5596 H 534.008 4.42675 -1.29756 0
M  V30 5597 H 532.251 4.1428 -1.28665 0
M  V30 5598 H 532.922 5.50643 -0.386804 0
M  V30 5599 H 535.398 4.06443 0.891272 0
M  V30 5600 H 534.274 5.24889 1.60569 0
M  V30 5601 H 534.535 3.70798 2.40752 0
M  V30 5602 N 533.594 0.0601682 1.57485 0
M  V30 5603 C 534.822 -0.620937 1.97363 0
M  V30 5604 C 535.237 -1.63846 0.938082 0
M  V30 5605 O 534.594 -1.82339 -0.0766578 0
M  V30 5606 C 534.645 -1.29987 3.37321 0
M  V30 5607 O 534.366 -0.323081 4.36907 0
M  V30 5608 C 535.867 -2.06989 3.92008 0
M  V30 5609 H 533.087 -0.169135 0.649334 0
M  V30 5610 H 535.631 0.129132 2.04092 0
M  V30 5611 H 533.786 -2.0011 3.31715 0
M  V30 5612 H 534.2 -0.808754 5.18227 0
M  V30 5613 H 535.674 -2.49901 4.92192 0
M  V30 5614 H 536.151 -2.92173 3.2792 0
M  V30 5615 H 536.757 -1.41757 4.0098 0
M  V30 5616 N 535.072 -1.5615 -0.213296 0
M  V30 5617 C 536.32 -1.79191 -0.934612 0
M  V30 5618 C 536.641 -0.630112 -1.84539 0
M  V30 5619 O 535.911 0.35257 -1.92701 0
M  V30 5620 H 534.491 -0.660937 -0.348097 0
M  V30 5621 H 537.153 -1.93618 -0.22317 0
M  V30 5622 H 536.249 -2.71656 -1.53654 0
M  V30 5623 N 536.55 0.480323 -1.50102 0
M  V30 5624 C 537.961 1.06142 -1.53593 0
M  V30 5625 C 538.312 1.93335 -0.334055 0
M  V30 5626 O 537.437 2.09188 0.55403 0
M  V30 5627 C 538.032 1.9317 -2.78336 0
M  V30 5628 C 536.591 2.46405 -2.84538 0
M  V30 5629 C 535.738 1.24521 -2.4777 0
M  V30 5630 H 538.689 0.26333 -1.565 0
M  V30 5631 H 538.71 2.78123 -2.59669 0
M  V30 5632 H 538.222 1.29683 -3.65792 0
M  V30 5633 H 536.323 3.13472 -2.01411 0
M  V30 5634 H 536.436 2.82143 -3.87211 0
M  V30 5635 H 534.8 1.57706 -2.00003 0
M  V30 5636 H 535.583 0.627102 -3.37524 0
M  V30 5637 N 538.028 1.39524 0.732853 0
M  V30 5638 C 539.253 1.40329 1.52717 0
M  V30 5639 C 539.678 0.000286574 1.881 0
M  V30 5640 O 539.036 -0.987262 1.52062 0
M  V30 5641 C 539.084 2.28464 2.78992 0
M  V30 5642 O 538.188 1.716 3.75003 0
M  V30 5643 H 537.529 0.47778 0.461109 0
M  V30 5644 H 540.059 1.83546 0.903996 0
M  V30 5645 H 540.069 2.43051 3.27705 0
M  V30 5646 H 538.744 3.30425 2.52572 0
M  V30 5647 H 537.321 1.66267 3.33781 0
M  V30 5648 N 539.506 -0.963266 1.24736 0
M  V30 5649 C 540.755 -1.70115 1.08369 0
M  V30 5650 C 541.068 -1.91939 -0.376688 0
M  V30 5651 O 542.274 -2.6334 -0.660624 0
M  V30 5652 C 540.73 -3.06218 1.89099 0
M  V30 5653 C 540.338 -2.92221 3.39574 0
M  V30 5654 C 542.082 -3.83848 1.81275 0
M  V30 5655 C 539.989 -4.23662 4.12631 0
M  V30 5656 H 538.919 -0.637944 0.401924 0
M  V30 5657 H 541.57 -1.07304 1.48856 0
M  V30 5658 H 539.952 -3.69884 1.41429 0
M  V30 5659 H 541.126 -2.37541 3.94856 0
M  V30 5660 H 539.441 -2.28054 3.48397 0
M  V30 5661 H 542.038 -4.81188 2.33158 0
M  V30 5662 H 542.381 -4.08949 0.778895 0
M  V30 5663 H 542.914 -3.26918 2.26649 0
M  V30 5664 H 539.653 -4.03753 5.16395 0
M  V30 5665 H 539.173 -4.78141 3.62135 0
M  V30 5666 H 540.852 -4.92256 4.19873 0
M  V30 5667 N 540.985 -1.06182 -1.16461 0
M  V30 5668 C 542.215 -0.797425 -1.9059 0
M  V30 5669 C 542.623 0.651845 -1.77616 0
M  V30 5670 O 541.966 1.45788 -1.11766 0
M  V30 5671 C 542.028 -1.11128 -3.41893 0
M  V30 5672 C 541.692 -2.55874 -3.78652 0
M  V30 5673 C 542.689 -3.54104 -3.80665 0
M  V30 5674 C 540.374 -2.91144 -4.09317 0
M  V30 5675 C 542.368 -4.85645 -4.12829 0
M  V30 5676 C 540.055 -4.22885 -4.41148 0
M  V30 5677 C 541.053 -5.19945 -4.42883 0
M  V30 5678 O 540.741 -6.49322 -4.73959 0
M  V30 5679 H 540.473 -0.288709 -0.611247 0
M  V30 5680 H 543.027 -1.41841 -1.4856 0
M  V30 5681 H 541.257 -0.433217 -3.84266 0
M  V30 5682 H 542.946 -0.831306 -3.97296 0
M  V30 5683 H 543.712 -3.28197 -3.57088 0
M  V30 5684 H 539.591 -2.16252 -4.07131 0
M  V30 5685 H 543.135 -5.61398 -4.14099 0
M  V30 5686 H 539.032 -4.48551 -4.6419 0
M  V30 5687 H 539.8 -6.54294 -4.91774 0
M  V30 5688 N 542.463 1.3308 -0.844243 0
M  V30 5689 C 543.688 2.02341 -0.455282 0
M  V30 5690 C 544.113 1.6308 0.93737 0
M  V30 5691 O 543.471 0.826118 1.61385 0
M  V30 5692 C 543.519 3.55743 -0.58988 0
M  V30 5693 O 542.623 4.1063 0.38166 0
M  V30 5694 H 541.964 0.637898 -0.184343 0
M  V30 5695 H 544.494 1.6986 -1.14056 0
M  V30 5696 H 544.504 4.05243 -0.473522 0
M  V30 5697 H 543.179 3.83662 -1.60549 0
M  V30 5698 H 541.756 3.72236 0.22241 0
M  V30 5699 N 543.941 0.601185 1.45683 0
M  V30 5700 C 545.188 0.0938811 2.02282 0
M  V30 5701 C 545.516 -1.27315 1.47041 0
M  V30 5702 O 544.771 -1.85193 0.632623 0
M  V30 5703 C 545.07 -0.00222425 3.574 0
M  V30 5704 C 544.736 1.29963 4.31764 0
M  V30 5705 C 543.398 1.65625 4.51798 0
M  V30 5706 C 545.75 2.1603 4.74321 0
M  V30 5707 C 543.078 2.87119 5.11644 0
M  V30 5708 C 545.43 3.36766 5.3551 0
M  V30 5709 C 544.094 3.72689 5.53768 0
M  V30 5710 H 543.364 0.0343535 0.740203 0
M  V30 5711 H 546.011 0.781522 1.74827 0
M  V30 5712 H 544.316 -0.773096 3.84097 0
M  V30 5713 H 546.013 -0.410794 3.9889 0
M  V30 5714 H 542.603 1.01204 4.1648 0
M  V30 5715 H 546.787 1.89778 4.58582 0
M  V30 5716 H 542.043 3.15065 5.2397 0
M  V30 5717 H 546.217 4.03713 5.67441 0
M  V30 5718 H 543.844 4.66918 5.99909 0
M  V30 5719 N 545.419 -1.53889 0.339982 0
M  V30 5720 C 546.369 -2.2165 -0.534354 0
M  V30 5721 C 547.353 -1.20266 -1.06887 0
M  V30 5722 O 548.545 -1.45827 -1.00316 0
M  V30 5723 C 545.674 -2.99014 -1.68659 0
M  V30 5724 C 544.76 -4.07751 -1.16618 0
M  V30 5725 N 545.151 -5.04469 -0.366717 0
M  V30 5726 C 543.449 -4.21998 -1.4434 0
M  V30 5727 C 544.15 -5.81638 -0.0847275 0
M  V30 5728 N 543.126 -5.39388 -0.675391 0
M  V30 5729 H 546.928 -2.93781 0.0835562 0
M  V30 5730 H 544.442 -1.61736 0.146665 0
M  V30 5731 H 546.439 -3.46056 -2.32489 0
M  V30 5732 H 545.099 -2.28408 -2.30781 0
M  V30 5733 H 546.11 -5.17899 -0.00811038 0
M  V30 5734 H 542.787 -3.62612 -2.06928 0
M  V30 5735 H 544.177 -6.69563 0.559943 0
M  V30 5736 N 546.897 -0.0685191 -1.57451 0
M  V30 5737 C 548.137 0.605038 -1.9524 0
M  V30 5738 C 548.501 1.66974 -0.947816 0
M  V30 5739 O 549.702 2.39862 -1.21325 0
M  V30 5740 C 547.973 1.16999 -3.37707 0
M  V30 5741 S 549.532 1.85913 -3.97469 0
M  V30 5742 H 546.35 0.198203 -0.682815 0
M  V30 5743 H 548.952 -0.141594 -1.94987 0
M  V30 5744 H 547.656 0.383205 -4.08607 0
M  V30 5745 H 547.187 1.95305 -3.41496 0
M  V30 5746 H 549.202 3.14128 -3.84107 0
M  V30 5747 N 548.375 1.56261 0.205012 0
M  V30 5748 C 549.285 1.96944 1.27476 0
M  V30 5749 C 550.301 0.875636 1.50362 0
M  V30 5750 O 551.477 1.18058 1.6317 0
M  V30 5751 C 548.542 2.29219 2.60115 0
M  V30 5752 C 547.603 3.52255 2.45387 0
M  V30 5753 C 546.836 3.8298 3.71701 0
M  V30 5754 O 547.059 3.15138 4.75441 0
M  V30 5755 O 545.993 4.76435 3.67823 0
M  V30 5756 H 549.819 2.88144 0.959527 0
M  V30 5757 H 547.404 1.43686 0.409217 0
M  V30 5758 H 549.286 2.51098 3.3842 0
M  V30 5759 H 547.961 1.4119 2.91285 0
M  V30 5760 H 546.868 3.35635 1.65227 0
M  V30 5761 H 548.201 4.40719 2.19152 0
M  V30 5762 N 549.853 -0.472356 1.50355 0
M  V30 5763 C 551.083 -1.24603 1.64796 0
M  V30 5764 C 551.491 -1.86297 0.330156 0
M  V30 5765 O 550.834 -1.69934 -0.697728 0
M  V30 5766 C 550.896 -2.39578 2.68035 0
M  V30 5767 C 550.56 -1.98531 4.11624 0
M  V30 5768 C 551.557 -1.50856 4.97532 0
M  V30 5769 C 549.242 -2.0729 4.57532 0
M  V30 5770 C 551.236 -1.12481 6.27397 0
M  V30 5771 C 548.923 -1.68527 5.87403 0
M  V30 5772 C 549.921 -1.212 6.7216 0
M  V30 5773 O 549.609 -0.829728 7.99607 0
M  V30 5774 H 549.341 -0.383035 0.55701 0
M  V30 5775 H 551.895 -0.570392 1.97321 0
M  V30 5776 H 550.125 -3.10309 2.30749 0
M  V30 5777 H 551.814 -3.01544 2.71709 0
M  V30 5778 H 552.58 -1.43511 4.63281 0
M  V30 5779 H 548.459 -2.43076 3.91708 0
M  V30 5780 H 552.003 -0.754698 6.93506 0
M  V30 5781 H 547.9 -1.7553 6.21176 0
M  V30 5782 H 548.668 -0.958689 8.12866 0
M  V30 5783 N 551.331 -1.39911 -0.725443 0
M  V30 5784 C 552.577 -1.37858 -1.48738 0
M  V30 5785 C 552.91 0.0224187 -1.94187 0
M  V30 5786 O 552.185 0.989204 -1.67466 0
M  V30 5787 C 552.468 -2.3594 -2.72038 0
M  V30 5788 C 552.321 -3.85023 -2.32546 0
M  V30 5789 C 553.64 -2.31704 -3.74167 0
M  V30 5790 H 550.759 -0.502074 -0.539528 0
M  V30 5791 H 553.401 -1.70974 -0.828728 0
M  V30 5792 H 551.551 -2.0783 -3.28236 0
M  V30 5793 H 553.223 -4.2392 -1.81905 0
M  V30 5794 H 551.466 -4.01334 -1.64661 0
M  V30 5795 H 552.137 -4.49152 -3.20884 0
M  V30 5796 H 554.613 -2.5658 -3.27576 0
M  V30 5797 H 553.489 -3.02395 -4.58092 0
M  V30 5798 H 553.75 -1.3253 -4.21768 0
M  V30 5799 N 552.809 0.956637 -1.25245 0
M  V30 5800 C 554.034 1.74104 -1.12706 0
M  V30 5801 C 554.459 1.85436 0.315429 0
M  V30 5802 O 553.817 1.33334 1.22848 0
M  V30 5803 C 553.865 3.1338 -1.78396 0
M  V30 5804 O 552.969 3.98485 -1.06224 0
M  V30 5805 H 552.31 0.53476 -0.393609 0
M  V30 5806 H 554.84 1.19924 -1.65769 0
M  V30 5807 H 554.85 3.6385 -1.846 0
M  V30 5808 H 553.525 3.04448 -2.83345 0
M  V30 5809 H 552.102 3.56952 -1.07886 0
M  V30 5810 N 554.287 1.06798 1.15896 0
M  V30 5811 C 555.512 0.808739 1.90982 0
M  V30 5812 C 555.937 -0.6316 1.77179 0
M  V30 5813 O 555.295 -1.4407 1.10061 0
M  V30 5814 C 555.343 1.21468 3.39526 0
M  V30 5815 O 554.447 0.356562 4.10856 0
M  V30 5816 H 553.788 0.29512 0.594811 0
M  V30 5817 H 556.318 1.42513 1.46804 0
M  V30 5818 H 556.328 1.18844 3.90308 0
M  V30 5819 H 555.003 2.26379 3.48891 0
M  V30 5820 H 553.58 0.444808 3.70238 0
M  V30 5821 N 555.766 -1.3263 0.851289 0
M  V30 5822 C 556.696 -2.31449 0.308771 0
M  V30 5823 C 557.677 -1.59531 -0.590255 0
M  V30 5824 O 558.862 -1.87351 -0.511205 0
M  V30 5825 C 555.992 -3.43586 -0.506548 0
M  V30 5826 C 554.946 -4.26963 0.297753 0
M  V30 5827 C 554.272 -5.30831 -0.642094 0
M  V30 5828 C 555.572 -4.99643 1.52166 0
M  V30 5829 H 557.266 -2.77074 1.13447 0
M  V30 5830 H 554.812 -1.33207 0.546971 0
M  V30 5831 H 556.765 -4.11754 -0.896474 0
M  V30 5832 H 555.489 -2.96681 -1.36558 0
M  V30 5833 H 554.148 -3.60437 0.669391 0
M  V30 5834 H 553.796 -4.8018 -1.49788 0
M  V30 5835 H 553.496 -5.87501 -0.107968 0
M  V30 5836 H 555.02 -6.01862 -1.02927 0
M  V30 5837 H 556.434 -5.6051 1.20421 0
M  V30 5838 H 554.831 -5.66022 1.99347 0
M  V30 5839 H 555.901 -4.27701 2.28474 0
M  V30 5840 N 557.244 -0.608902 -1.45362 0
M  V30 5841 C 558.469 -0.10921 -2.07112 0
M  V30 5842 C 558.894 1.19779 -1.45033 0
M  V30 5843 O 558.252 1.72961 -0.543527 0
M  V30 5844 C 558.3 0.0155745 -3.60597 0
M  V30 5845 O 557.404 1.06546 -3.98399 0
M  V30 5846 H 556.745 -0.0746619 -0.659789 0
M  V30 5847 H 559.275 -0.839283 -1.86594 0
M  V30 5848 H 559.285 0.213364 -4.07442 0
M  V30 5849 H 557.96 -0.938765 -4.05167 0
M  V30 5850 H 556.537 0.844024 -3.63223 0
M  V30 5851 N 558.722 1.53707 -0.348139 0
M  V30 5852 C 559.669 2.25173 0.506518 0
M  V30 5853 C 560.639 1.25174 1.09182 0
M  V30 5854 O 561.824 1.53917 1.12757 0
M  V30 5855 C 558.964 3.03141 1.64923 0
M  V30 5856 C 558.077 4.18002 1.0908 0
M  V30 5857 C 557.212 4.83447 2.20119 0
M  V30 5858 C 556.251 5.90369 1.61651 0
M  V30 5859 N 555.388 6.49575 2.66451 0
M  V30 5860 H 560.228 2.97799 -0.109452 0
M  V30 5861 H 557.765 1.46953 -0.0657866 0
M  V30 5862 H 559.723 3.46607 2.32205 0
M  V30 5863 H 558.353 2.32803 2.23612 0
M  V30 5864 H 557.405 3.79145 0.308783 0
M  V30 5865 H 558.717 4.94892 0.623178 0
M  V30 5866 H 557.871 5.30008 2.95257 0
M  V30 5867 H 556.61 4.05991 2.70227 0
M  V30 5868 H 555.615 5.43186 0.850209 0
M  V30 5869 H 556.84 6.69735 1.1239 0
M  V30 5870 H 554.786 5.74981 3.15805 0
M  V30 5871 H 554.703 7.21952 2.24325 0
M  V30 5872 H 555.971 7.00789 3.41344 0
M  V30 5873 N 560.2 0.0768682 1.57412 0
M  V30 5874 C 561.147 -0.888577 2.13009 0
M  V30 5875 C 562.117 -1.29198 1.0439 0
M  V30 5876 O 563.302 -1.37694 1.3208 0
M  V30 5877 C 560.442 -2.14899 2.70023 0
M  V30 5878 C 559.555 -1.79777 3.92816 0
M  V30 5879 C 558.69 -3.00467 4.38056 0
M  V30 5880 C 557.729 -2.61385 5.53484 0
M  V30 5881 N 556.866 -3.74851 5.93659 0
M  V30 5882 H 561.706 -0.407593 2.95199 0
M  V30 5883 H 559.243 -0.189534 1.45874 0
M  V30 5884 H 561.201 -2.88688 3.0119 0
M  V30 5885 H 559.831 -2.60529 1.9059 0
M  V30 5886 H 558.883 -0.960301 3.68079 0
M  V30 5887 H 560.195 -1.47027 4.76639 0
M  V30 5888 H 559.349 -3.82529 4.7091 0
M  V30 5889 H 558.088 -3.36413 3.53097 0
M  V30 5890 H 557.093 -1.77746 5.20275 0
M  V30 5891 H 558.318 -2.26603 6.40178 0
M  V30 5892 H 556.264 -4.1055 5.11649 0
M  V30 5893 H 556.181 -3.45887 6.72234 0
M  V30 5894 H 557.449 -4.57477 6.31138 0
M  V30 5895 N 561.678 -1.56367 -0.196722 0
M  V30 5896 C 562.926 -1.80172 -0.915554 0
M  V30 5897 C 563.247 -0.649649 -1.8386 0
M  V30 5898 O 562.517 0.332111 -1.93064 0
M  V30 5899 H 561.097 -0.664592 -0.341067 0
M  V30 5900 H 563.759 -1.93844 -0.202622 0
M  V30 5901 H 562.855 -2.7327 -1.50764 0
M  V30 5902 N 563.156 0.464375 -1.50603 0
M  V30 5903 C 564.381 1.24372 -1.65971 0
M  V30 5904 C 564.806 1.84901 -0.345453 0
M  V30 5905 O 564.164 1.67596 0.691457 0
M  V30 5906 C 564.212 2.32331 -2.7578 0
M  V30 5907 O 563.316 3.37146 -2.375 0
M  V30 5908 H 562.657 0.365604 -0.554283 0
M  V30 5909 H 565.187 0.55183 -1.97018 0
M  V30 5910 H 565.197 2.77539 -2.99059 0
M  V30 5911 H 563.872 1.87648 -3.71162 0
M  V30 5912 H 562.449 2.97602 -2.24694 0
M  V30 5913 N 564.634 1.40294 0.718013 0
M  V30 5914 C 565.564 1.43118 1.84498 0
M  V30 5915 C 566.545 0.292403 1.67568 0
M  V30 5916 O 567.73 0.500675 1.87635 0
M  V30 5917 C 564.86 1.29065 3.22427 0
M  V30 5918 C 563.814 2.40521 3.54025 0
M  V30 5919 C 563.14 2.11546 4.91073 0
M  V30 5920 C 564.44 3.82859 3.55269 0
M  V30 5921 H 566.134 2.37432 1.82391 0
M  V30 5922 H 563.68 1.14283 0.87609 0
M  V30 5923 H 565.633 1.29658 4.00957 0
M  V30 5924 H 564.357 0.312271 3.25104 0
M  V30 5925 H 563.016 2.39173 2.77834 0
M  V30 5926 H 562.664 1.12104 4.90348 0
M  V30 5927 H 562.364 2.86216 5.1318 0
M  V30 5928 H 563.888 2.13817 5.71939 0
M  V30 5929 H 565.302 3.86044 4.23843 0
M  V30 5930 H 563.699 4.57029 3.88902 0
M  V30 5931 H 564.769 4.12617 2.54706 0
M  V30 5932 N 566.112 -0.949982 1.2575 0
M  V30 5933 C 567.042 -2.06483 1.09028 0
M  V30 5934 C 568.023 -1.701 -0.00201532 0
M  V30 5935 O 569.208 -1.93469 0.168383 0
M  V30 5936 C 566.338 -3.39899 0.71316 0
M  V30 5937 C 565.292 -3.90309 1.75621 0
M  V30 5938 C 564.618 -5.20274 1.23365 0
M  V30 5939 C 565.918 -4.16169 3.15596 0
M  V30 5940 H 567.612 -2.20731 2.02283 0
M  V30 5941 H 565.158 -1.06066 0.973964 0
M  V30 5942 H 567.111 -4.17346 0.58309 0
M  V30 5943 H 565.835 -3.25602 -0.255091 0
M  V30 5944 H 564.494 -3.15035 1.8748 0
M  V30 5945 H 564.142 -5.02351 0.255491 0
M  V30 5946 H 563.842 -5.54971 1.93082 0
M  V30 5947 H 565.366 -6.00314 1.11607 0
M  V30 5948 H 566.78 -4.84259 3.06864 0
M  V30 5949 H 565.177 -4.62131 3.82825 0
M  V30 5950 H 566.247 -3.22273 3.6231 0
M  V30 5951 N 567.59 -1.07411 -1.15328 0
M  V30 5952 C 568.836 -0.798831 -1.86404 0
M  V30 5953 C 569.169 0.673433 -1.8215 0
M  V30 5954 O 568.444 1.49428 -1.24505 0
M  V30 5955 C 568.727 -1.30846 -3.35487 0
M  V30 5956 C 568.58 -2.84532 -3.4837 0
M  V30 5957 C 569.899 -0.925486 -4.30259 0
M  V30 5958 H 567.018 -0.291659 -0.676834 0
M  V30 5959 H 569.66 -1.332 -1.35491 0
M  V30 5960 H 567.81 -0.854916 -3.78977 0
M  V30 5961 H 569.482 -3.3818 -3.13739 0
M  V30 5962 H 567.725 -3.22699 -2.8991 0
M  V30 5963 H 568.396 -3.15259 -4.53118 0
M  V30 5964 H 570.872 -1.3163 -3.94731 0
M  V30 5965 H 569.748 -1.3094 -5.33053 0
M  V30 5966 H 570.009 0.168525 -4.41779 0
M  V30 5967 N 569.068 1.32177 -0.85831 0
M  V30 5968 C 570.031 2.27086 -0.310588 0
M  V30 5969 C 571.031 1.51751 0.531806 0
M  V30 5970 O 572.221 1.70794 0.34279 0
M  V30 5971 C 569.353 3.36266 0.560179 0
M  V30 5972 H 570.546 2.77045 -1.1483 0
M  V30 5973 H 568.099 1.42911 -0.632942 0
M  V30 5974 H 568.834 2.9158 1.41956 0
M  V30 5975 H 568.619 3.92077 -0.0428473 0
M  V30 5976 H 570.109 4.06974 0.936056 0
M  V30 5977 N 570.547 0.616602 1.45037 0
M  V30 5978 C 571.963 0.280994 1.57107 0
M  V30 5979 C 572.163 -1.21627 1.60653 0
M  V30 5980 O 571.219 -1.9997 1.54169 0
M  V30 5981 C 572.532 0.960116 2.8496 0
M  V30 5982 C 574.08 0.936884 2.98649 0
M  V30 5983 C 574.555 1.59619 4.29285 0
M  V30 5984 N 576.046 1.5621 4.36065 0
M  V30 5985 C 576.781 2.04131 5.35834 0
M  V30 5986 N 576.277 2.60177 6.4209 0
M  V30 5987 N 578.07 1.94845 5.27249 0
M  V30 5988 H 570.221 1.58867 1.40979 0
M  V30 5989 H 572.484 0.666024 0.674623 0
M  V30 5990 H 572.19 2.01473 2.88273 0
M  V30 5991 H 572.064 0.488921 3.74018 0
M  V30 5992 H 574.451 -0.109209 2.94898 0
M  V30 5993 H 574.532 1.44643 2.10979 0
M  V30 5994 H 574.176 2.64166 4.33796 0
M  V30 5995 H 574.106 1.06159 5.15789 0
M  V30 5996 H 576.597 1.15276 3.59889 0
M  V30 5997 H 576.91 2.94513 7.1448 0
M  V30 5998 H 575.255 2.64221 6.42816 0
M  V30 5999 H 578.446 1.50792 4.43147 0
M  V30 6000 H 578.619 2.32504 6.04852 0
M  V30 6001 N 572.025 -1.5352 0.356285 0
M  V30 6002 C 573.253 -2.05534 -0.237328 0
M  V30 6003 C 573.668 -1.23043 -1.43199 0
M  V30 6004 O 573.025 -0.268821 -1.80509 0
M  V30 6005 C 573.076 -3.55791 -0.639933 0
M  V30 6006 O 572.797 -4.35154 0.507233 0
M  V30 6007 C 574.298 -4.24027 -1.29292 0
M  V30 6008 H 571.518 -0.669585 -0.0435572 0
M  V30 6009 H 574.062 -1.97988 0.511963 0
M  V30 6010 H 572.217 -3.63518 -1.33915 0
M  V30 6011 H 572.631 -5.24178 0.18375 0
M  V30 6012 H 574.105 -5.30509 -1.52527 0
M  V30 6013 H 574.582 -3.77166 -2.25039 0
M  V30 6014 H 575.188 -4.20527 -0.63539 0
M  V30 6015 N 573.503 -0.0852151 -1.57369 0
M  V30 6016 C 574.435 0.907099 -2.10486 0
M  V30 6017 C 575.448 1.25259 -1.03991 0
M  V30 6018 O 576.637 1.20743 -1.31467 0
M  V30 6019 C 573.737 2.21908 -2.56145 0
M  V30 6020 C 572.91 2.05042 -3.86363 0
M  V30 6021 C 571.969 3.19664 -4.17973 0
M  V30 6022 O 570.995 2.94062 -4.87356 0
M  V30 6023 N 572.197 4.45151 -3.72587 0
M  V30 6024 H 574.962 0.453505 -2.96249 0
M  V30 6025 H 572.523 0.100157 -1.6159 0
M  V30 6026 H 574.515 2.97519 -2.74343 0
M  V30 6027 H 573.085 2.58723 -1.75446 0
M  V30 6028 H 572.305 1.13819 -3.77411 0
M  V30 6029 H 573.593 1.91039 -4.71574 0
M  V30 6030 H 572.991 4.68834 -3.16561 0
M  V30 6031 H 571.548 5.17744 -3.9596 0
M  V30 6032 N 574.981 1.5647 0.188427 0
M  V30 6033 C 576.392 1.70864 0.752494 0
M  V30 6034 C 576.743 0.692905 1.83557 0
M  V30 6035 O 575.868 -0.149307 2.15884 0
M  V30 6036 C 576.463 3.09789 1.37173 0
M  V30 6037 C 575.022 3.25925 1.88281 0
M  V30 6038 C 574.169 2.66817 0.755259 0
M  V30 6039 H 577.12 1.58657 -0.0367408 0
M  V30 6040 H 577.141 3.07489 2.24122 0
M  V30 6041 H 576.653 3.83693 0.583219 0
M  V30 6042 H 574.754 2.56948 2.6983 0
M  V30 6043 H 574.867 4.33498 2.04001 0
M  V30 6044 H 573.231 2.2617 1.17128 0
M  V30 6045 H 574.014 3.43294 -0.0211237 0
M  V30 6046 N 576.459 -0.456382 1.50847 0
M  V30 6047 C 577.684 -1.2349 1.66628 0
M  V30 6048 C 578.109 -1.84715 0.355254 0
M  V30 6049 O 577.467 -1.67961 -0.682559 0
M  V30 6050 C 577.515 -2.30865 2.77009 0
M  V30 6051 O 576.619 -3.35882 2.39285 0
M  V30 6052 H 575.96 -0.36266 0.556214 0
M  V30 6053 H 578.49 -0.541374 1.97308 0
M  V30 6054 H 578.5 -2.75949 3.00526 0
M  V30 6055 H 577.175 -1.85677 3.72152 0
M  V30 6056 H 575.752 -2.96406 2.26269 0
M  V30 6057 N 577.937 -1.40673 -0.710563 0
M  V30 6058 C 579.348 -1.34975 -1.28991 0
M  V30 6059 C 579.699 -0.0256272 -1.96183 0
M  V30 6060 O 578.824 0.876339 -1.97862 0
M  V30 6061 C 579.419 -2.44467 -2.34567 0
M  V30 6062 C 577.978 -2.42213 -2.88114 0
M  V30 6063 C 577.125 -2.25085 -1.61963 0
M  V30 6064 H 580.076 -1.50406 -0.506343 0
M  V30 6065 H 580.097 -2.12663 -3.15523 0
M  V30 6066 H 579.609 -3.40825 -1.85634 0
M  V30 6067 H 577.71 -1.49568 -3.41263 0
M  V30 6068 H 577.823 -3.37983 -3.39565 0
M  V30 6069 H 576.187 -1.72691 -1.87216 0
M  V30 6070 H 576.97 -3.23449 -1.15047 0
M  V30 6071 N 579.415 0.9433 -1.26252 0
M  V30 6072 C 580.661 1.69226 -1.12846 0
M  V30 6073 C 581.016 1.8963 0.325282 0
M  V30 6074 O 580.309 1.46435 1.23561 0
M  V30 6075 C 580.503 3.07073 -1.82868 0
M  V30 6076 C 580.332 3.00118 -3.34902 0
M  V30 6077 C 579.102 3.03251 -4.04186 0
M  V30 6078 C 581.3 2.80418 -4.31127 0
M  V30 6079 N 579.282 2.86573 -5.42908 0
M  V30 6080 C 580.653 2.72287 -5.5701 0
M  V30 6081 C 582.708 2.65185 -4.21404 0
M  V30 6082 C 581.411 2.50479 -6.74279 0
M  V30 6083 C 583.437 2.4475 -5.38378 0
M  V30 6084 C 582.799 2.37349 -6.63208 0
M  V30 6085 H 578.898 0.626716 -0.467708 0
M  V30 6086 H 581.482 1.11645 -1.5951 0
M  V30 6087 H 579.653 3.62797 -1.38682 0
M  V30 6088 H 581.385 3.70816 -1.62103 0
M  V30 6089 H 578.14 3.12882 -3.55531 0
M  V30 6090 H 578.564 2.81408 -6.15742 0
M  V30 6091 H 583.206 2.69675 -3.25631 0
M  V30 6092 H 580.924 2.4473 -7.70151 0
M  V30 6093 H 584.51 2.33872 -5.32724 0
M  V30 6094 H 583.39 2.21746 -7.52196 0
M  V30 6095 N 580.893 1.08022 1.14757 0
M  V30 6096 C 581.825 0.664566 2.19354 0
M  V30 6097 C 582.838 -0.286374 1.60261 0
M  V30 6098 O 584.027 -0.0746362 1.78344 0
M  V30 6099 C 581.127 -0.0434634 3.38872 0
M  V30 6100 C 580.3 0.925381 4.27499 0
M  V30 6101 C 579.359 0.253398 5.2559 0
M  V30 6102 O 578.385 0.896581 5.62094 0
M  V30 6103 N 579.587 -0.998263 5.71852 0
M  V30 6104 H 582.352 1.56438 2.55631 0
M  V30 6105 H 579.913 0.965788 1.29939 0
M  V30 6106 H 581.905 -0.503857 4.01551 0
M  V30 6107 H 580.475 -0.845321 3.00954 0
M  V30 6108 H 579.695 1.56472 3.61815 0
M  V30 6109 H 580.983 1.58203 4.8358 0
M  V30 6110 H 580.381 -1.54063 5.44317 0
M  V30 6111 H 578.938 -1.40222 6.36538 0
M  V30 6112 N 582.371 -1.3172 0.865308 0
M  V30 6113 C 583.304 -2.26687 0.262376 0
M  V30 6114 C 584.282 -1.50894 -0.605787 0
M  V30 6115 O 585.466 -1.79982 -0.56024 0
M  V30 6116 C 582.593 -3.3281 -0.628915 0
M  V30 6117 C 581.639 -4.26172 0.167278 0
M  V30 6118 S 582.472 -5.12797 1.54272 0
M  V30 6119 C 583.628 -6.22438 0.657427 0
M  V30 6120 H 583.861 -2.77478 1.0674 0
M  V30 6121 H 581.394 -1.39414 0.663555 0
M  V30 6122 H 583.352 -3.94426 -1.13747 0
M  V30 6123 H 582.013 -2.80782 -1.40785 0
M  V30 6124 H 581.206 -5.01392 -0.51203 0
M  V30 6125 H 580.808 -3.69029 0.607777 0
M  V30 6126 H 583.1 -6.77368 -0.133925 0
M  V30 6127 H 584.043 -6.9451 1.38061 0
M  V30 6128 H 584.451 -5.64043 0.227044 0
M  V30 6129 N 583.85 -0.624285 -1.44708 0
M  V30 6130 C 584.783 0.133905 -2.27807 0
M  V30 6131 C 585.76 0.857794 -1.38133 0
M  V30 6132 O 586.945 0.863277 -1.6757 0
M  V30 6133 C 584.072 1.19541 -3.16903 0
M  V30 6134 C 583.118 0.572813 -4.22636 0
M  V30 6135 S 583.951 -0.631953 -5.31758 0
M  V30 6136 C 585.106 0.429733 -6.24423 0
M  V30 6137 H 585.34 -0.571072 -2.91764 0
M  V30 6138 H 582.873 -0.412261 -1.48794 0
M  V30 6139 H 584.831 1.80293 -3.68788 0
M  V30 6140 H 583.492 1.87255 -2.5218 0
M  V30 6141 H 582.685 1.37205 -4.84965 0
M  V30 6142 H 582.287 0.0400641 -3.73979 0
M  V30 6143 H 584.579 1.30421 -6.64828 0
M  V30 6144 H 585.522 -0.157804 -7.07924 0
M  V30 6145 H 585.93 0.75256 -5.59461 0
M  V30 6146 N 585.328 1.53329 -0.364422 0
M  V30 6147 C 586.258 2.28627 0.474543 0
M  V30 6148 C 587.239 1.31009 1.08492 0
M  V30 6149 O 588.424 1.59878 1.10239 0
M  V30 6150 C 585.554 3.07465 1.61501 0
M  V30 6151 C 584.508 4.1276 1.13194 0
M  V30 6152 C 583.834 4.79674 2.36255 0
M  V30 6153 C 585.134 5.21847 0.217507 0
M  V30 6154 H 586.828 2.99005 -0.153656 0
M  V30 6155 H 584.374 1.43803 -0.0753406 0
M  V30 6156 H 586.327 3.58889 2.20855 0
M  V30 6157 H 585.051 2.34775 2.27042 0
M  V30 6158 H 583.71 3.62281 0.56109 0
M  V30 6159 H 583.358 4.03557 3.00251 0
M  V30 6160 H 583.058 5.50827 2.04606 0
M  V30 6161 H 584.582 5.33892 2.96297 0
M  V30 6162 H 585.996 5.6878 0.718493 0
M  V30 6163 H 584.393 6.00099 -0.00806408 0
M  V30 6164 H 585.463 4.7921 -0.740653 0
M  V30 6165 N 586.806 0.0935595 1.57322 0
M  V30 6166 C 587.738 -0.895923 2.10964 0
M  V30 6167 C 588.751 -1.24705 1.04654 0
M  V30 6168 O 589.94 -1.20044 1.32105 0
M  V30 6169 C 587.04 -2.20546 2.57318 0
M  V30 6170 C 586.213 -2.0299 3.87445 0
M  V30 6171 C 585.272 -3.17443 4.19662 0
M  V30 6172 O 584.298 -2.91474 4.88909 0
M  V30 6173 N 585.5 -4.43168 3.74943 0
M  V30 6174 H 588.265 -0.437788 2.96485 0
M  V30 6175 H 585.826 -0.0915863 1.61641 0
M  V30 6176 H 587.818 -2.9606 2.75917 0
M  V30 6177 H 586.388 -2.57789 1.76816 0
M  V30 6178 H 585.608 -1.11815 3.78009 0
M  V30 6179 H 586.896 -1.88535 4.7258 0
M  V30 6180 H 586.294 -4.67149 3.19043 0
M  V30 6181 H 584.851 -5.15637 3.987 0
M  V30 6182 N 588.284 -1.56567 -0.180126 0
M  V30 6183 C 589.561 -1.7235 -0.924931 0
M  V30 6184 C 589.941 -0.652523 -2.00762 0
M  V30 6185 O 589.289 0.334115 -2.26044 0
M  V30 6186 C 589.499 -3.1523 -1.49771 0
M  V30 6187 C 590.847 -3.75921 -1.97405 0
M  V30 6188 O 591.871 -3.18452 -1.59583 0
M  V30 6189 O 590.73 -4.7681 -2.67048 0
M  V30 6190 H 587.824 -0.703502 -0.434758 0
M  V30 6191 H 590.37 -1.6886 -0.168647 0
M  V30 6192 H 589.142 -3.84656 -0.718027 0
M  V30 6193 H 588.765 -3.23009 -2.31842 0
M  V30 6194 N 589.762 0.448376 -1.51087 0
M  V30 6195 C 591.009 1.19872 -1.63209 0
M  V30 6196 C 591.337 1.91451 -0.343062 0
M  V30 6197 O 590.592 1.83789 0.672321 0
M  V30 6198 C 590.891 2.24866 -2.77795 0
M  V30 6199 C 590.557 1.70378 -4.17471 0
M  V30 6200 C 589.219 1.55241 -4.55471 0
M  V30 6201 C 591.571 1.30203 -5.04675 0
M  V30 6202 C 588.899 0.983844 -5.78392 0
M  V30 6203 C 591.251 0.747798 -6.28165 0
M  V30 6204 C 589.915 0.583233 -6.64947 0
M  V30 6205 H 589.185 0.438642 -0.597222 0
M  V30 6206 H 591.832 0.49136 -1.85089 0
M  V30 6207 H 590.137 3.01598 -2.50092 0
M  V30 6208 H 591.834 2.82723 -2.84374 0
M  V30 6209 H 588.424 1.83134 -3.87505 0
M  V30 6210 H 592.608 1.40723 -4.75932 0
M  V30 6211 H 587.864 0.844007 -6.05546 0
M  V30 6212 H 592.038 0.427927 -6.95084 0
M  V30 6213 H 589.665 0.140532 -7.6007 0
M  V30 6214 N 591.24 1.41047 0.703093 0
M  V30 6215 C 592.172 1.38228 1.82827 0
M  V30 6216 C 593.185 0.285637 1.60275 0
M  V30 6217 O 594.374 0.54685 1.69917 0
M  V30 6218 C 591.474 1.13136 3.19458 0
M  V30 6219 C 590.647 2.34695 3.69103 0
M  V30 6220 C 589.706 2.05574 4.84382 0
M  V30 6221 O 588.732 2.78549 4.96386 0
M  V30 6222 N 589.934 1.04135 5.71083 0
M  V30 6223 H 592.699 2.35203 1.85741 0
M  V30 6224 H 590.26 1.35562 0.885125 0
M  V30 6225 H 592.252 0.916183 3.94193 0
M  V30 6226 H 590.822 0.247836 3.11616 0
M  V30 6227 H 590.042 2.71963 2.85359 0
M  V30 6228 H 591.33 3.15705 3.99009 0
M  V30 6229 H 590.728 0.43722 5.64008 0
M  V30 6230 H 589.285 0.886078 6.45749 0
M  V30 6231 N 592.718 -0.936591 1.26751 0
M  V30 6232 C 593.967 -1.67778 1.11953 0
M  V30 6233 C 594.28 -1.92694 -0.33589 0
M  V30 6234 O 595.486 -2.64682 -0.604618 0
M  V30 6235 C 593.942 -3.02138 1.95551 0
M  V30 6236 C 593.55 -2.84953 3.45696 0
M  V30 6237 C 595.294 -3.79917 1.89377 0
M  V30 6238 C 593.201 -4.14814 4.21525 0
M  V30 6239 H 592.131 -0.629275 0.415366 0
M  V30 6240 H 594.782 -1.04122 1.51099 0
M  V30 6241 H 593.164 -3.668 1.49243 0
M  V30 6242 H 594.338 -2.29112 3.99805 0
M  V30 6243 H 592.653 -2.20612 3.53156 0
M  V30 6244 H 595.25 -4.76134 2.43312 0
M  V30 6245 H 595.593 -4.07204 0.865464 0
M  V30 6246 H 596.126 -3.22037 2.33532 0
M  V30 6247 H 592.865 -3.92709 5.24843 0
M  V30 6248 H 592.385 -4.70352 3.72195 0
M  V30 6249 H 594.064 -4.83239 4.3022 0
M  V30 6250 N 594.196 -1.08629 -1.14182 0
M  V30 6251 C 595.128 -0.676189 -2.18998 0
M  V30 6252 C 596.141 0.277871 -1.60411 0
M  V30 6253 O 597.33 0.0651771 -1.78381 0
M  V30 6254 C 594.43 0.0254916 -3.3889 0
M  V30 6255 C 593.603 -0.948039 -4.27002 0
M  V30 6256 C 592.662 -0.281268 -5.25448 0
M  V30 6257 O 591.688 -0.926378 -5.61611 0
M  V30 6258 N 592.89 0.967923 -5.72374 0
M  V30 6259 H 595.655 -1.57792 -2.54798 0
M  V30 6260 H 593.216 -0.972665 -1.29425 0
M  V30 6261 H 595.208 0.482554 -4.01813 0
M  V30 6262 H 593.778 0.829348 -3.01398 0
M  V30 6263 H 592.998 -1.58388 -3.6098 0
M  V30 6264 H 594.286 -1.60765 -4.82734 0
M  V30 6265 H 593.684 1.51175 -5.45126 0
M  V30 6266 H 592.241 1.36844 -6.37273 0
M  V30 6267 N 595.674 1.31259 -0.872281 0
M  V30 6268 C 596.637 2.26744 -0.334656 0
M  V30 6269 C 597.637 1.52307 0.515681 0
M  V30 6270 O 598.827 1.71148 0.324656 0
M  V30 6271 C 595.959 3.36841 0.524482 0
M  V30 6272 H 597.152 2.75812 -1.17762 0
M  V30 6273 H 594.705 1.42232 -0.648064 0
M  V30 6274 H 595.44 2.93069 1.38855 0
M  V30 6275 H 595.225 3.92009 -0.0844299 0
M  V30 6276 H 596.715 4.07944 0.892838 0
M  V30 6277 N 597.152 0.631951 1.44375 0
M  V30 6278 C 598.399 0.136767 2.02038 0
M  V30 6279 C 598.727 -1.24168 1.49709 0
M  V30 6280 O 597.982 -1.83809 0.671763 0
M  V30 6281 C 598.281 0.0735861 3.57324 0
M  V30 6282 C 597.947 1.39092 4.28911 0
M  V30 6283 C 596.609 1.75171 4.48184 0
M  V30 6284 C 598.961 2.26042 4.69632 0
M  V30 6285 C 596.289 2.97907 5.05439 0
M  V30 6286 C 598.641 3.4805 5.28246 0
M  V30 6287 C 597.305 3.84351 5.45738 0
M  V30 6288 H 596.575 0.0500466 0.739308 0
M  V30 6289 H 599.222 0.818429 1.7313 0
M  V30 6290 H 597.527 -0.691449 3.8565 0
M  V30 6291 H 599.224 -0.326091 3.99672 0
M  V30 6292 H 595.814 1.10015 4.1424 0
M  V30 6293 H 599.998 1.99463 4.54454 0
M  V30 6294 H 595.254 3.26108 5.17169 0
M  V30 6295 H 599.428 4.15658 5.5875 0
M  V30 6296 H 597.055 4.79538 5.8987 0
M  V30 6297 N 598.631 -1.53133 0.372548 0
M  V30 6298 C 599.579 -2.27473 -0.485681 0
M  V30 6299 C 600.573 -1.30719 -1.07745 0
M  V30 6300 O 601.779 -1.48321 -1.01985 0
M  V30 6301 H 598.154 -0.731269 -0.175356 0
M  V30 6302 H 600.125 -2.97955 0.162986 0
M  V30 6303 C 598.874 -3.08191 -1.60978 0
M  V30 6304 H 598.197 -3.82488 -1.16373 0
M  V30 6305 H 599.637 -3.63373 -2.18485 0
M  V30 6306 C 598.096 -2.19461 -2.55614 0
M  V30 6307 O 598.626 -1.81008 -3.58607 0
M  V30 6308 N 596.832 -1.83955 -2.24965 0
M  V30 6309 H 596.379 -2.15423 -1.41247 0
M  V30 6310 H 596.337 -1.24874 -2.88538 0
M  V30 6311 N 600.109 -0.101901 -1.5727 0
M  V30 6312 C 601.355 0.561027 -1.94885 0
M  V30 6313 C 601.688 1.6741 -0.984258 0
M  V30 6314 O 600.963 1.94491 -0.0184767 0
M  V30 6315 C 601.246 1.10982 -3.42571 0
M  V30 6316 C 601.099 0.00133418 -4.498 0
M  V30 6317 C 602.418 2.00608 -3.9172 0
M  V30 6318 H 599.537 0.202467 -0.708644 0
M  V30 6319 H 602.179 -0.173992 -1.89202 0
M  V30 6320 H 600.329 1.73621 -3.47546 0
M  V30 6321 H 602.001 -0.63322 -4.56933 0
M  V30 6322 H 600.244 -0.664143 -4.28686 0
M  V30 6323 H 600.915 0.426253 -5.50352 0
M  V30 6324 H 603.391 1.47864 -3.88941 0
M  V30 6325 H 602.267 2.3593 -4.95609 0
M  V30 6326 H 602.528 2.92608 -3.3141 0
M  V30 6327 N 601.587 1.56661 0.17182 0
M  V30 6328 C 602.52 1.91474 1.24149 0
M  V30 6329 C 603.498 0.777485 1.42807 0
M  V30 6330 O 604.682 1.03075 1.57822 0
M  V30 6331 C 601.809 2.16523 2.60453 0
M  V30 6332 C 600.855 3.39209 2.58533 0
M  V30 6333 S 601.688 4.93594 2.07665 0
M  V30 6334 C 602.844 5.21737 3.45747 0
M  V30 6335 H 603.077 2.81903 0.944346 0
M  V30 6336 H 600.61 1.49743 0.376364 0
M  V30 6337 H 602.568 2.31635 3.38903 0
M  V30 6338 H 601.229 1.26802 2.87368 0
M  V30 6339 H 600.422 3.53935 3.58812 0
M  V30 6340 H 600.024 3.2321 1.88178 0
M  V30 6341 H 602.316 5.13684 4.41741 0
M  V30 6342 H 603.259 6.23361 3.35896 0
M  V30 6343 H 603.667 4.49307 3.41736 0
M  V30 6344 N 603.065 -0.440357 1.51323 0
M  V30 6345 C 604.313 -1.18769 1.63518 0
M  V30 6346 C 604.634 -1.91793 0.352201 0
M  V30 6347 O 603.904 -1.85432 -0.631811 0
M  V30 6348 H 602.484 -0.441408 0.602634 0
M  V30 6349 H 605.146 -0.505162 1.8824 0
M  V30 6350 H 604.242 -1.91892 2.46138 0
M  V30 6351 N 604.543 -1.41418 -0.695603 0
M  V30 6352 C 605.453 -1.45622 -1.83933 0
M  V30 6353 C 606.469 -0.346825 -1.70508 0
M  V30 6354 O 607.645 -0.59454 -1.92424 0
M  V30 6355 C 604.71 -1.33627 -3.19914 0
M  V30 6356 C 603.771 -2.54882 -3.45447 0
M  V30 6357 C 603.004 -2.43449 -4.7494 0
M  V30 6358 O 603.227 -1.45905 -5.51424 0
M  V30 6359 O 602.161 -3.33206 -5.01256 0
M  V30 6360 H 605.987 -2.42114 -1.83342 0
M  V30 6361 H 603.572 -1.22956 -0.848658 0
M  V30 6362 H 605.454 -1.29221 -4.01098 0
M  V30 6363 H 604.129 -0.402508 -3.21188 0
M  V30 6364 H 603.036 -2.64865 -2.64192 0
M  V30 6365 H 604.369 -3.47087 -3.48987 0
M  V30 6366 N 606.021 0.929856 -1.27246 0
M  V30 6367 C 606.953 2.03434 -1.0558 0
M  V30 6368 C 607.966 1.62795 -0.0125762 0
M  V30 6369 O 609.155 1.76685 -0.2539 0
M  V30 6370 C 606.255 3.33915 -0.57912 0
M  V30 6371 C 605.428 4.03259 -1.69415 0
M  V30 6372 C 604.487 5.12014 -1.21357 0
M  V30 6373 O 603.513 5.36097 -1.91282 0
M  V30 6374 N 604.715 5.8046 -0.0680622 0
M  V30 6375 H 607.48 2.22583 -2.00691 0
M  V30 6376 H 605.041 1.1001 -1.18783 0
M  V30 6377 H 607.033 4.03978 -0.241563 0
M  V30 6378 H 605.603 3.11355 0.278703 0
M  V30 6379 H 604.823 3.26958 -2.20209 0
M  V30 6380 H 606.111 4.46337 -2.44255 0
M  V30 6381 H 605.509 5.63345 0.515626 0
M  V30 6382 H 604.066 6.51461 0.210332 0
M  V30 6383 N 607.499 1.09233 1.13605 0
M  V30 6384 C 608.746 0.827159 1.84836 0
M  V30 6385 C 609.074 -0.647199 1.83416 0
M  V30 6386 O 608.329 -1.49228 1.26608 0
M  V30 6387 C 608.628 1.305 3.32723 0
M  V30 6388 C 608.294 2.78864 3.54325 0
M  V30 6389 C 606.956 3.19382 3.59928 0
M  V30 6390 C 609.308 3.74532 3.62457 0
M  V30 6391 C 606.636 4.54346 3.71196 0
M  V30 6392 C 608.988 5.09283 3.75252 0
M  V30 6393 C 607.652 5.49394 3.79108 0
M  V30 6394 H 606.922 0.302679 0.676363 0
M  V30 6395 H 609.569 1.36676 1.34134 0
M  V30 6396 H 607.874 0.68517 3.85762 0
M  V30 6397 H 609.571 1.07648 3.86281 0
M  V30 6398 H 606.161 2.46507 3.50617 0
M  V30 6399 H 610.345 3.44343 3.57409 0
M  V30 6400 H 605.601 4.84864 3.72447 0
M  V30 6401 H 609.775 5.83269 3.80487 0
M  V30 6402 H 607.402 6.5397 3.87591 0
M  V30 6403 N 608.977 -1.30795 0.87923 0
M  V30 6404 C 610.202 -2.01063 0.508769 0
M  V30 6405 C 610.627 -1.65508 -0.893803 0
M  V30 6406 O 609.985 -0.868616 -1.59138 0
M  V30 6407 C 610.033 -3.54054 0.683991 0
M  V30 6408 O 609.137 -4.11498 -0.272654 0
M  V30 6409 H 608.478 -0.632786 0.201191 0
M  V30 6410 H 611.008 -1.66776 1.18519 0
M  V30 6411 H 611.018 -4.03845 0.580798 0
M  V30 6412 H 609.693 -3.79271 1.70665 0
M  V30 6413 H 608.27 -3.72695 -0.12364 0
M  V30 6414 N 610.455 -0.639598 -1.44038 0
M  V30 6415 C 611.685 -0.154586 -2.06021 0
M  V30 6416 C 612.093 1.17951 -1.47933 0
M  V30 6417 O 611.436 1.73627 -0.59994 0
M  V30 6418 C 611.498 0.0255459 -3.59491 0
M  V30 6419 C 611.162 -1.2317 -4.40089 0
M  V30 6420 C 612.159 -2.15735 -4.73027 0
M  V30 6421 C 609.844 -1.46949 -4.80324 0
M  V30 6422 C 611.838 -3.30382 -5.45093 0
M  V30 6423 C 609.525 -2.61891 -5.52138 0
M  V30 6424 C 610.523 -3.53433 -5.84443 0
M  V30 6425 O 610.211 -4.6637 -6.54793 0
M  V30 6426 H 609.943 -0.0808543 -0.671147 0
M  V30 6427 H 612.497 -0.876541 -1.85758 0
M  V30 6428 H 610.727 0.802733 -3.78276 0
M  V30 6429 H 612.416 0.466184 -4.03214 0
M  V30 6430 H 613.182 -1.98602 -4.42473 0
M  V30 6431 H 609.061 -0.765815 -4.54595 0
M  V30 6432 H 612.605 -4.01856 -5.70226 0
M  V30 6433 H 608.502 -2.78964 -5.82108 0
M  V30 6434 H 609.27 -4.6546 -6.73267 0
M  V30 6435 N 611.933 1.52934 -0.380664 0
M  V30 6436 C 612.896 2.24809 0.446473 0
M  V30 6437 C 613.896 1.26133 0.997347 0
M  V30 6438 O 615.086 1.50297 0.880714 0
M  V30 6439 C 612.218 2.99649 1.62553 0
M  V30 6440 H 613.411 2.99343 -0.182677 0
M  V30 6441 H 610.964 1.55736 -0.132618 0
M  V30 6442 H 611.699 2.29395 2.29235 0
M  V30 6443 H 611.484 3.72066 1.23732 0
M  V30 6444 H 612.974 3.54246 2.21133 0
M  V30 6445 N 613.412 0.11024 1.57214 0
M  V30 6446 C 614.637 -0.561179 1.99664 0
M  V30 6447 C 615.062 -1.59985 0.989266 0
M  V30 6448 O 614.42 -1.81255 -0.0402399 0
M  V30 6449 C 614.468 -1.17189 3.41027 0
M  V30 6450 O 613.572 -2.28755 3.4314 0
M  V30 6451 H 612.913 -0.14101 0.648855 0
M  V30 6452 H 615.443 0.196128 2.03658 0
M  V30 6453 H 615.453 -1.50954 3.79047 0
M  V30 6454 H 614.128 -0.411041 4.13864 0
M  V30 6455 H 612.705 -1.96495 3.16929 0
M  V30 6456 N 614.89 -1.56749 -0.16351 0
M  V30 6457 C 616.167 -1.73321 -0.906599 0
M  V30 6458 C 616.547 -0.673779 -2.00059 0
M  V30 6459 O 615.895 0.310121 -2.26386 0
M  V30 6460 C 616.105 -3.168 -1.46419 0
M  V30 6461 C 617.453 -3.77993 -1.93407 0
M  V30 6462 O 618.477 -3.20127 -1.56196 0
M  V30 6463 O 617.336 -4.79615 -2.61976 0
M  V30 6464 H 614.43 -0.708073 -0.427272 0
M  V30 6465 H 616.976 -1.69029 -0.150727 0
M  V30 6466 H 615.748 -3.85396 -0.677189 0
M  V30 6467 H 615.371 -3.2545 -2.28403 0
M  V30 6468 N 616.368 0.432326 -1.51554 0
M  V30 6469 C 617.608 1.19076 -1.66133 0
M  V30 6470 C 617.972 1.88364 -0.371873 0
M  V30 6471 O 619.173 2.65904 -0.39349 0
M  V30 6472 C 617.444 2.1768 -2.83461 0
M  V30 6473 S 619.003 3.01943 -3.18396 0
M  V30 6474 H 615.821 0.403735 -0.585251 0
M  V30 6475 H 618.423 0.481554 -1.89476 0
M  V30 6476 H 617.127 1.65424 -3.75583 0
M  V30 6477 H 616.658 2.93174 -2.62322 0
M  V30 6478 H 618.673 4.19373 -2.65219 0
M  V30 6479 N 617.846 1.41785 0.688094 0
M  V30 6480 C 618.809 1.43936 1.78368 0
M  V30 6481 C 619.809 0.328866 1.57401 0
M  V30 6482 O 620.999 0.589093 1.63937 0
M  V30 6483 C 618.131 1.25804 3.16838 0
M  V30 6484 H 619.324 2.41472 1.77852 0
M  V30 6485 H 616.877 1.28037 0.896448 0
M  V30 6486 H 617.612 0.291386 3.22988 0
M  V30 6487 H 617.397 2.06272 3.33458 0
M  V30 6488 H 618.887 1.30162 3.96797 0
M  V30 6489 N 619.324 -0.923095 1.27737 0
M  V30 6490 C 620.549 -1.71054 1.17283 0
M  V30 6491 C 620.974 -1.86208 -0.266153 0
M  V30 6492 O 620.332 -1.36545 -1.1927 0
M  V30 6493 C 620.38 -3.0854 1.86642 0
M  V30 6494 O 619.484 -3.95528 1.16752 0
M  V30 6495 H 618.825 -0.524136 0.407649 0
M  V30 6496 H 621.355 -1.15487 1.6889 0
M  V30 6497 H 621.365 -3.58828 1.94182 0
M  V30 6498 H 620.04 -2.96828 2.91317 0
M  V30 6499 H 618.617 -3.53967 1.17312 0
M  V30 6500 N 620.802 -1.09834 -1.13024 0
M  V30 6501 C 622.049 -0.83695 -1.84395 0
M  V30 6502 C 622.377 0.637463 -1.83757 0
M  V30 6503 O 621.632 1.48554 -1.27398 0
M  V30 6504 C 621.931 -1.32263 -3.32026 0
M  V30 6505 C 621.597 -2.80739 -3.52841 0
M  V30 6506 C 620.259 -3.21286 -3.5823 0
M  V30 6507 C 622.611 -3.76449 -3.60466 0
M  V30 6508 C 619.939 -4.56308 -3.68781 0
M  V30 6509 C 622.291 -5.11266 -3.72546 0
M  V30 6510 C 620.955 -5.51397 -3.76189 0
M  V30 6511 H 620.225 -0.306262 -0.674748 0
M  V30 6512 H 622.872 -1.37385 -1.33408 0
M  V30 6513 H 621.177 -0.705618 -3.85394 0
M  V30 6514 H 622.874 -1.09695 -3.85705 0
M  V30 6515 H 619.464 -2.48363 -3.49305 0
M  V30 6516 H 623.648 -3.46234 -3.55578 0
M  V30 6517 H 618.904 -4.86832 -3.69871 0
M  V30 6518 H 623.078 -5.85279 -3.77388 0
M  V30 6519 H 620.705 -6.56017 -3.84117 0
M  V30 6520 N 622.28 1.30327 -0.886154 0
M  V30 6521 C 623.527 1.96097 -0.505192 0
M  V30 6522 C 623.855 1.69952 0.945868 0
M  V30 6523 O 623.11 0.997653 1.68361 0
M  V30 6524 C 623.409 3.49906 -0.728042 0
M  V30 6525 C 623.075 3.96103 -2.15437 0
M  V30 6526 C 621.737 4.08428 -2.5444 0
M  V30 6527 C 624.089 4.20177 -3.08384 0
M  V30 6528 C 621.417 4.42189 -3.85598 0
M  V30 6529 C 623.769 4.55407 -4.39075 0
M  V30 6530 C 622.433 4.65941 -4.7797 0
M  V30 6531 H 621.703 0.71757 -0.184863 0
M  V30 6532 H 624.35 1.55171 -1.12223 0
M  V30 6533 H 622.655 3.9179 -0.027978 0
M  V30 6534 H 624.352 3.98869 -0.412862 0
M  V30 6535 H 620.942 3.87017 -1.84162 0
M  V30 6536 H 625.126 4.10134 -2.7947 0
M  V30 6537 H 620.382 4.48544 -4.15473 0
M  V30 6538 H 624.556 4.72986 -5.11133 0
M  V30 6539 H 622.183 4.91856 -5.79639 0
M  V30 6540 N 623.758 0.647228 1.43697 0
M  V30 6541 C 624.983 0.164083 2.0675 0
M  V30 6542 C 625.408 -1.15892 1.48158 0
M  V30 6543 O 624.766 -1.71459 0.589194 0
M  V30 6544 C 624.814 0.0800368 3.60511 0
M  V30 6545 O 623.918 -0.959453 4.01084 0
M  V30 6546 H 623.259 0.0921288 0.657578 0
M  V30 6547 H 625.789 0.88846 1.84303 0
M  V30 6548 H 625.799 -0.105263 4.07864 0
M  V30 6549 H 624.474 1.04586 4.02535 0
M  V30 6550 H 623.051 -0.747425 3.65333 0
M  V30 6551 N 625.236 -1.5273 0.388769 0
M  V30 6552 C 626.647 -1.86505 -0.0853788 0
M  V30 6553 C 626.998 -1.30847 -1.46197 0
M  V30 6554 O 626.123 -0.639609 -2.06732 0
M  V30 6555 C 626.718 -3.38414 -0.161703 0
M  V30 6556 C 625.277 -3.71902 -0.580144 0
M  V30 6557 C 624.424 -2.76095 0.258218 0
M  V30 6558 H 627.375 -1.46647 0.606665 0
M  V30 6559 H 627.396 -3.67638 -0.980936 0
M  V30 6560 H 626.908 -3.78893 0.840333 0
M  V30 6561 H 625.009 -3.36992 -1.58957 0
M  V30 6562 H 625.122 -4.77902 -0.338663 0
M  V30 6563 H 623.486 -2.53195 -0.276432 0
M  V30 6564 H 624.269 -3.19411 1.25822 0
M  V30 6565 N 626.714 -0.118576 -1.57153 0
M  V30 6566 C 627.962 0.538461 -1.94795 0
M  V30 6567 C 628.283 1.67243 -1.00274 0
M  V30 6568 O 627.553 1.95811 -0.0589692 0
M  V30 6569 H 626.133 0.201904 -0.719197 0
M  V30 6570 H 628.795 -0.187418 -1.93997 0
M  V30 6571 H 627.891 0.933315 -2.97818 0
M  V30 6572 N 628.193 1.56834 0.155195 0
M  V30 6573 C 629.442 1.82088 0.867567 0
M  V30 6574 C 629.755 0.69849 1.82703 0
M  V30 6575 O 630.961 0.836407 2.58295 0
M  V30 6576 C 629.417 3.22707 1.59336 0
M  V30 6577 C 629.025 4.42859 0.676719 0
M  V30 6578 C 630.769 3.57242 2.293 0
M  V30 6579 C 628.676 5.74501 1.40367 0
M  V30 6580 H 627.606 0.679057 0.327715 0
M  V30 6581 H 630.257 1.83105 0.120351 0
M  V30 6582 H 628.639 3.16054 2.38591 0
M  V30 6583 H 629.813 4.60731 -0.0800196 0
M  V30 6584 H 628.128 4.16311 0.0859129 0
M  V30 6585 H 630.725 4.52847 2.84312 0
M  V30 6586 H 631.068 2.82901 3.05406 0
M  V30 6587 H 631.601 3.6552 1.56972 0
M  V30 6588 H 628.34 6.51915 0.684623 0
M  V30 6589 H 627.86 5.60579 2.13332 0
M  V30 6590 H 629.539 6.17016 1.94681 0
M  V30 6591 N 629.671 -0.424282 1.51781 0
M  V30 6592 C 630.917 -1.17117 1.66298 0
M  V30 6593 C 631.272 -1.88595 0.380767 0
M  V30 6594 O 630.565 -1.81151 -0.624094 0
M  V30 6595 C 630.759 -2.20418 2.81337 0
M  V30 6596 C 630.588 -1.59081 4.20622 0
M  V30 6597 C 629.358 -1.37007 4.86371 0
M  V30 6598 C 631.556 -1.05992 5.0326 0
M  V30 6599 N 629.538 -0.714049 6.09733 0
M  V30 6600 C 630.909 -0.529933 6.17731 0
M  V30 6601 C 632.964 -0.952927 4.88696 0
M  V30 6602 C 631.667 0.0965457 7.19235 0
M  V30 6603 C 633.693 -0.340325 5.9042 0
M  V30 6604 C 633.055 0.179057 7.04172 0
M  V30 6605 H 629.154 -0.41577 0.662314 0
M  V30 6606 H 631.738 -0.46579 1.89046 0
M  V30 6607 H 629.909 -2.8833 2.60231 0
M  V30 6608 H 631.641 -2.8736 2.84968 0
M  V30 6609 H 628.396 -1.63543 4.44467 0
M  V30 6610 H 628.82 -0.403101 6.75799 0
M  V30 6611 H 633.462 -1.34033 4.00993 0
M  V30 6612 H 631.18 0.496044 8.06576 0
M  V30 6613 H 634.766 -0.259266 5.81222 0
M  V30 6614 H 633.646 0.645626 7.81538 0
M  V30 6615 N 631.149 -1.42148 -0.680565 0
M  V30 6616 C 632.082 -1.39602 -1.80517 0
M  V30 6617 C 633.06 -0.261098 -1.6049 0
M  V30 6618 O 634.244 -0.450404 -1.8304 0
M  V30 6619 C 631.371 -1.18134 -3.1743 0
M  V30 6620 C 630.417 -2.34543 -3.56219 0
M  V30 6621 S 631.25 -3.97063 -3.59306 0
M  V30 6622 C 632.406 -3.77926 -4.98921 0
M  V30 6623 H 632.639 -2.3477 -1.82402 0
M  V30 6624 H 630.172 -1.28851 -0.850691 0
M  V30 6625 H 632.13 -1.06434 -3.96462 0
M  V30 6626 H 630.791 -0.245611 -3.13138 0
M  V30 6627 H 629.984 -2.15255 -4.55721 0
M  V30 6628 H 629.586 -2.42728 -2.84533 0
M  V30 6629 H 631.878 -3.3856 -5.86842 0
M  V30 6630 H 632.821 -4.77084 -5.23256 0
M  V30 6631 H 633.229 -3.10904 -4.71167 0
M  V30 6632 N 632.627 0.916307 -1.28225 0
M  V30 6633 C 633.875 1.6619 -1.15002 0
M  V30 6634 C 634.196 1.92642 0.302329 0
M  V30 6635 O 633.466 1.54076 1.20985 0
M  V30 6636 H 632.046 0.615964 -0.422608 0
M  V30 6637 H 634.708 1.09963 -1.60917 0
M  V30 6638 H 633.804 2.62533 -1.68769 0
M  V30 6639 N 634.105 1.10431 1.1244 0
M  V30 6640 C 635.035 0.775143 2.20258 0
M  V30 6641 C 636.016 -0.25186 1.68225 0
M  V30 6642 O 637.201 -0.117637 1.93843 0
M  V30 6643 C 634.331 0.206133 3.46688 0
M  V30 6644 C 633.285 1.16382 4.11873 0
M  V30 6645 C 632.611 0.456014 5.32752 0
M  V30 6646 C 633.911 2.5104 4.58013 0
M  V30 6647 H 635.605 1.67665 2.4805 0
M  V30 6648 H 633.151 0.807595 1.19222 0
M  V30 6649 H 635.104 -0.036291 4.21384 0
M  V30 6650 H 633.828 -0.730614 3.18323 0
M  V30 6651 H 632.487 1.39169 3.39157 0
M  V30 6652 H 632.135 -0.485203 5.00654 0
M  V30 6653 H 631.835 1.09466 5.77314 0
M  V30 6654 H 633.359 0.222135 6.10196 0
M  V30 6655 H 634.773 2.32401 5.24083 0
M  V30 6656 H 633.17 3.10789 5.13352 0
M  V30 6657 H 634.24 3.11039 3.71998 0
M  V30 6658 N 635.583 -1.29855 0.893053 0
M  V30 6659 C 636.513 -2.3035 0.382249 0
M  V30 6660 C 637.494 -1.61328 -0.539203 0
M  V30 6661 O 638.679 -1.88882 -0.451342 0
M  V30 6662 C 635.809 -3.45024 -0.396983 0
M  V30 6663 C 634.763 -4.258 0.433437 0
M  V30 6664 C 634.089 -5.32605 -0.472889 0
M  V30 6665 C 635.389 -4.94549 1.67984 0
M  V30 6666 H 637.083 -2.73325 1.22205 0
M  V30 6667 H 634.629 -1.314 0.589073 0
M  V30 6668 H 636.582 -4.14398 -0.765024 0
M  V30 6669 H 635.306 -3.00875 -1.2705 0
M  V30 6670 H 633.965 -3.58125 0.783723 0
M  V30 6671 H 633.613 -4.84702 -1.34435 0
M  V30 6672 H 633.313 -5.87547 0.0789958 0
M  V30 6673 H 634.837 -6.04832 -0.837269 0
M  V30 6674 H 636.251 -5.56395 1.38192 0
M  V30 6675 H 634.648 -5.59393 2.17254 0
M  V30 6676 H 635.718 -4.20215 2.41965 0
M  V30 6677 N 637.061 -0.65484 -1.43351 0
M  V30 6678 C 638.289 -0.176685 -2.06144 0
M  V30 6679 C 638.704 1.15831 -1.49093 0
M  V30 6680 O 638.061 1.71542 -0.622868 0
M  V30 6681 C 638.112 -0.0813326 -3.61408 0
M  V30 6682 O 637.833 -1.36355 -4.1634 0
M  V30 6683 C 639.334 0.422706 -4.4128 0
M  V30 6684 H 636.554 -0.0906429 -0.66485 0
M  V30 6685 H 639.098 -0.895945 -1.83829 0
M  V30 6686 H 637.253 0.588496 -3.82904 0
M  V30 6687 H 637.667 -1.22381 -5.10023 0
M  V30 6688 H 639.141 0.438375 -5.50257 0
M  V30 6689 H 639.618 1.45432 -4.14423 0
M  V30 6690 H 640.224 -0.214687 -4.24758 0
M  V30 6691 N 638.539 1.52521 -0.396863 0
M  V30 6692 C 639.764 2.06571 0.185258 0
M  V30 6693 C 640.189 1.26605 1.39115 0
M  V30 6694 O 639.547 0.293055 1.78916 0
M  V30 6695 C 639.595 3.5674 0.526189 0
M  V30 6696 O 638.699 3.7929 1.61903 0
M  V30 6697 H 638.04 0.663712 0.0195474 0
M  V30 6698 H 640.57 1.966 -0.566519 0
M  V30 6699 H 640.58 4.00311 0.788338 0
M  V30 6700 H 639.255 4.14379 -0.355397 0
M  V30 6701 H 637.832 3.47605 1.35 0
M  V30 6702 N 640.017 0.126909 1.57088 0
M  V30 6703 C 640.947 -0.816847 2.18746 0
M  V30 6704 C 641.928 -1.27161 1.12979 0
M  V30 6705 O 643.113 -1.33279 1.41246 0
M  V30 6706 C 640.243 -2.06398 2.79315 0
M  V30 6707 C 639.197 -1.74673 3.90735 0
M  V30 6708 C 638.523 -3.06482 4.38147 0
M  V30 6709 C 639.823 -1.0089 5.12463 0
M  V30 6710 H 641.517 -0.303032 2.97863 0
M  V30 6711 H 639.063 -0.144314 1.43275 0
M  V30 6712 H 641.016 -2.72885 3.2111 0
M  V30 6713 H 639.74 -2.60118 1.975 0
M  V30 6714 H 638.399 -1.10572 3.49527 0
M  V30 6715 H 638.047 -3.58152 3.5318 0
M  V30 6716 H 637.747 -2.86025 5.13287 0
M  V30 6717 H 639.271 -3.74073 4.82599 0
M  V30 6718 H 640.685 -1.57546 5.51228 0
M  V30 6719 H 639.082 -0.905006 5.93237 0
M  V30 6720 H 640.152 0.00297335 4.849 0
M  V30 6721 N 641.495 -1.56914 -0.146875 0
M  V30 6722 C 642.742 -1.83356 -0.859467 0
M  V30 6723 C 643.07 -0.707811 -1.81164 0
M  V30 6724 O 642.325 0.303155 -1.93338 0
M  V30 6725 C 642.624 -3.16128 -1.66727 0
M  V30 6726 C 642.29 -4.42586 -0.861881 0
M  V30 6727 C 640.952 -4.76929 -0.639687 0
M  V30 6728 C 643.304 -5.20344 -0.298643 0
M  V30 6729 C 640.632 -5.86491 0.156451 0
M  V30 6730 C 642.984 -6.30742 0.484536 0
M  V30 6731 C 641.648 -6.63635 0.717306 0
M  V30 6732 H 640.918 -0.670947 -0.314501 0
M  V30 6733 H 643.565 -1.91104 -0.123108 0
M  V30 6734 H 641.87 -3.03831 -2.47374 0
M  V30 6735 H 643.567 -3.33802 -2.2221 0
M  V30 6736 H 640.157 -4.15662 -1.04513 0
M  V30 6737 H 644.341 -4.94186 -0.457585 0
M  V30 6738 H 639.597 -6.10419 0.346292 0
M  V30 6739 H 643.771 -6.90188 0.928105 0
M  V30 6740 H 641.398 -7.48367 1.33607 0
M  V30 6741 N 642.974 0.416227 -1.52004 0
M  V30 6742 C 643.907 1.52736 -1.6955 0
M  V30 6743 C 644.885 1.53264 -0.54305 0
M  V30 6744 O 646.069 1.72077 -0.769527 0
M  V30 6745 C 643.196 2.91283 -1.72835 0
M  V30 6746 C 642.242 3.08695 -2.94295 0
M  V30 6747 S 643.075 2.82758 -4.54762 0
M  V30 6748 C 644.231 4.23548 -4.60823 0
M  V30 6749 H 644.464 1.37623 -2.63528 0
M  V30 6750 H 641.997 0.607335 -1.41954 0
M  V30 6751 H 643.955 3.71134 -1.75413 0
M  V30 6752 H 642.616 3.03742 -0.799966 0
M  V30 6753 H 641.809 4.10042 -2.93056 0
M  V30 6754 H 641.411 2.36699 -2.89568 0
M  V30 6755 H 643.703 5.17078 -4.37763 0
M  V30 6756 H 644.646 4.29813 -5.62731 0
M  V30 6757 H 645.054 4.08188 -3.89927 0
M  V30 6758 N 644.452 1.42507 0.673017 0
M  V30 6759 C 645.382 1.48916 1.79851 0
M  V30 6760 C 646.363 0.345566 1.66553 0
M  V30 6761 O 647.548 0.560116 1.85947 0
M  V30 6762 C 644.678 1.39258 3.18158 0
M  V30 6763 C 643.632 2.51662 3.46194 0
M  V30 6764 C 642.958 2.27062 4.84094 0
M  V30 6765 C 644.258 3.93968 3.42909 0
M  V30 6766 H 645.952 2.43114 1.74745 0
M  V30 6767 H 643.498 1.17013 0.839288 0
M  V30 6768 H 645.451 1.42349 3.96629 0
M  V30 6769 H 644.175 0.415542 3.23946 0
M  V30 6770 H 642.834 2.47891 2.70084 0
M  V30 6771 H 642.482 1.27648 4.86534 0
M  V30 6772 H 642.182 3.02398 5.03815 0
M  V30 6773 H 643.706 2.31905 5.64847 0
M  V30 6774 H 645.12 3.99332 4.11347 0
M  V30 6775 H 643.517 4.6917 3.74165 0
M  V30 6776 H 644.587 4.20512 2.41449 0
M  V30 6777 N 645.93 -0.909495 1.28709 0
M  V30 6778 C 647.177 -1.65905 1.16111 0
M  V30 6779 C 647.505 -1.92334 -0.289436 0
M  V30 6780 O 646.76 -1.52495 -1.22653 0
M  V30 6781 C 647.059 -3.02117 1.90945 0
M  V30 6782 C 646.725 -2.95332 3.40719 0
M  V30 6783 C 645.387 -2.93189 3.81567 0
M  V30 6784 C 647.739 -2.85264 4.36204 0
M  V30 6785 C 645.067 -2.78784 5.16233 0
M  V30 6786 C 647.419 -2.724 5.70948 0
M  V30 6787 C 646.083 -2.68617 6.11066 0
M  V30 6788 H 645.353 -0.60709 0.42488 0
M  V30 6789 H 648 -1.05932 1.59533 0
M  V30 6790 H 646.305 -3.65901 1.40085 0
M  V30 6791 H 648.002 -3.59026 1.7861 0
M  V30 6792 H 644.592 -2.97797 3.08245 0
M  V30 6793 H 648.776 -2.86005 4.05605 0
M  V30 6794 H 644.032 -2.74254 5.46438 0
M  V30 6795 H 648.206 -2.63579 6.44592 0
M  V30 6796 H 645.833 -2.57213 7.15364 0
M  V30 6797 N 647.408 -1.11026 -1.11852 0
M  V30 6798 C 648.657 -0.851249 -1.82857 0
M  V30 6799 C 648.97 0.62514 -1.85341 0
M  V30 6800 O 650.176 1.00026 -2.52403 0
M  V30 6801 C 648.632 -1.47309 -3.28372 0
M  V30 6802 C 648.24 -2.9832 -3.34229 0
M  V30 6803 C 649.984 -1.29373 -4.04306 0
M  V30 6804 C 647.891 -3.53509 -4.74115 0
M  V30 6805 H 646.821 -0.314794 -0.685143 0
M  V30 6806 H 649.472 -1.33499 -1.25898 0
M  V30 6807 H 647.854 -0.917017 -3.85236 0
M  V30 6808 H 649.028 -3.60295 -2.87271 0
M  V30 6809 H 647.343 -3.15482 -2.71772 0
M  V30 6810 H 649.94 -1.68042 -5.07608 0
M  V30 6811 H 650.283 -0.235879 -4.15631 0
M  V30 6812 H 650.816 -1.8182 -3.53817 0
M  V30 6813 H 647.555 -4.58987 -4.67986 0
M  V30 6814 H 647.075 -2.96305 -5.21501 0
M  V30 6815 H 648.754 -3.51693 -5.43066 0
M  V30 6816 N 648.886 1.2938 -0.899927 0
M  V30 6817 C 650.133 1.9555 -0.525963 0
M  V30 6818 C 650.461 1.70945 0.927789 0
M  V30 6819 O 649.716 1.01545 1.67293 0
M  V30 6820 C 650.015 3.49114 -0.765113 0
M  V30 6821 C 649.681 3.93796 -2.19626 0
M  V30 6822 C 648.343 4.05707 -2.58758 0
M  V30 6823 C 650.695 4.16883 -3.12823 0
M  V30 6824 C 648.023 4.38074 -3.90267 0
M  V30 6825 C 650.375 4.50725 -4.4388 0
M  V30 6826 C 649.039 4.60845 -4.82885 0
M  V30 6827 H 648.309 0.715569 -0.192463 0
M  V30 6828 H 650.956 1.53972 -1.13863 0
M  V30 6829 H 649.261 3.91738 -0.069531 0
M  V30 6830 H 650.958 3.98409 -0.455144 0
M  V30 6831 H 647.548 3.85042 -1.88256 0
M  V30 6832 H 651.732 4.07147 -2.83804 0
M  V30 6833 H 646.988 4.44112 -4.20207 0
M  V30 6834 H 651.162 4.67538 -5.16121 0
M  V30 6835 H 648.789 4.85681 -5.84823 0
M  V30 6836 N 650.364 0.662433 1.43002 0
M  V30 6837 C 651.592 0.187615 2.06048 0
M  V30 6838 C 652.007 -1.15039 1.49705 0
M  V30 6839 O 651.364 -1.71209 0.631956 0
M  V30 6840 C 651.415 0.100498 3.6136 0
M  V30 6841 O 651.136 1.38562 4.15611 0
M  V30 6842 C 652.637 -0.399298 4.41498 0
M  V30 6843 H 649.857 0.0941675 0.664359 0
M  V30 6844 H 652.401 0.905681 1.83351 0
M  V30 6845 H 650.556 -0.568181 3.83211 0
M  V30 6846 H 650.97 1.25084 5.09366 0
M  V30 6847 H 652.444 -0.409187 5.50481 0
M  V30 6848 H 652.921 -1.43232 4.15188 0
M  V30 6849 H 653.527 0.23721 4.24638 0
M  V30 6850 N 651.842 -1.52309 0.404946 0
M  V30 6851 C 653.072 -2.05886 -0.171569 0
M  V30 6852 C 653.48 -1.27527 -1.39762 0
M  V30 6853 O 652.823 -0.319215 -1.80905 0
M  V30 6854 C 652.885 -3.54609 -0.590983 0
M  V30 6855 C 652.549 -4.53989 0.523757 0
M  V30 6856 C 653.546 -5.01084 1.38604 0
M  V30 6857 C 651.231 -4.97465 0.695255 0
M  V30 6858 C 653.225 -5.90295 2.4048 0
M  V30 6859 C 650.912 -5.86473 1.71733 0
M  V30 6860 C 651.91 -6.32782 2.57051 0
M  V30 6861 O 651.598 -7.20029 3.57509 0
M  V30 6862 H 651.33 -0.675508 -0.0257763 0
M  V30 6863 H 653.884 -1.97238 0.573278 0
M  V30 6864 H 652.114 -3.60929 -1.38805 0
M  V30 6865 H 653.803 -3.90853 -1.09494 0
M  V30 6866 H 654.569 -4.68214 1.26492 0
M  V30 6867 H 650.448 -4.60982 0.0408447 0
M  V30 6868 H 653.992 -6.26363 3.07108 0
M  V30 6869 H 649.889 -6.18756 1.83877 0
M  V30 6870 H 650.657 -7.3813 3.53703 0
M  V30 6871 N 653.32 -0.135238 -1.57019 0
M  V30 6872 C 654.568 0.51777 -1.95355 0
M  V30 6873 C 654.889 1.6617 -1.02042 0
M  V30 6874 O 654.159 1.95738 -0.0797343 0
M  V30 6875 H 652.739 0.194264 -0.721298 0
M  V30 6876 H 655.401 -0.207983 -1.93787 0
M  V30 6877 H 654.497 0.901675 -2.98791 0
M  V30 6878 N 654.798 1.5699 0.138552 0
M  V30 6879 C 655.728 2.01933 1.17241 0
M  V30 6880 C 656.709 0.90033 1.44319 0
M  V30 6881 O 657.894 1.16872 1.55095 0
M  V30 6882 C 655.024 2.40711 2.50351 0
M  V30 6883 C 653.978 3.55874 2.37776 0
M  V30 6884 C 653.304 3.80491 3.75674 0
M  V30 6885 C 654.604 4.8826 1.85472 0
M  V30 6886 H 656.298 2.88551 0.798672 0
M  V30 6887 H 653.844 1.3882 0.382743 0
M  V30 6888 H 655.797 2.70754 3.22909 0
M  V30 6889 H 654.521 1.5104 2.89576 0
M  V30 6890 H 653.18 3.2601 1.67669 0
M  V30 6891 H 652.828 2.88057 4.12349 0
M  V30 6892 H 652.528 4.57998 3.68119 0
M  V30 6893 H 654.052 4.12967 4.49767 0
M  V30 6894 H 655.466 5.16965 2.4783 0
M  V30 6895 H 653.863 5.69631 1.88787 0
M  V30 6896 H 654.933 4.78071 0.810935 0
M  V30 6897 N 656.276 -0.40816 1.52223 0
M  V30 6898 C 657.226 -1.49648 1.72016 0
M  V30 6899 C 658.21 -1.50311 0.574069 0
M  V30 6900 O 659.402 -1.56271 0.831173 0
M  V30 6901 C 656.531 -2.87566 1.87512 0
M  V30 6902 C 655.617 -2.91547 3.07995 0
M  V30 6903 N 656.008 -2.65225 4.30685 0
M  V30 6904 C 654.306 -3.22715 3.07849 0
M  V30 6905 C 655.007 -2.75799 5.12162 0
M  V30 6906 N 653.983 -3.08719 4.4743 0
M  V30 6907 H 657.785 -1.28093 2.64517 0
M  V30 6908 H 655.299 -0.61588 1.50269 0
M  V30 6909 H 657.296 -3.65899 1.99809 0
M  V30 6910 H 655.956 -3.10118 0.962114 0
M  V30 6911 H 656.967 -2.39601 4.59142 0
M  V30 6912 H 653.644 -3.50856 2.26289 0
M  V30 6913 H 655.034 -2.59155 6.1991 0
M  V30 6914 N 657.755 -1.42862 -0.66545 0
M  V30 6915 C 658.688 -1.41509 -1.79026 0
M  V30 6916 C 659.666 -0.278106 -1.60204 0
M  V30 6917 O 660.85 -0.469792 -1.82552 0
M  V30 6918 C 657.977 -1.21494 -3.1616 0
M  V30 6919 C 657.023 -2.38308 -3.53711 0
M  V30 6920 S 657.856 -4.00852 -3.55075 0
M  V30 6921 C 659.012 -3.83197 -4.94885 0
M  V30 6922 H 659.245 -2.36691 -1.79902 0
M  V30 6923 H 656.778 -1.29746 -0.836977 0
M  V30 6924 H 658.736 -1.10633 -3.95311 0
M  V30 6925 H 657.397 -0.27881 -3.1286 0
M  V30 6926 H 656.59 -2.20076 -4.53412 0
M  V30 6927 H 656.192 -2.45732 -2.81943 0
M  V30 6928 H 658.484 -3.44765 -5.83218 0
M  V30 6929 H 659.427 -4.82607 -5.18166 0
M  V30 6930 H 659.835 -3.15884 -4.67843 0
M  V30 6931 N 659.233 0.902656 -1.29189 0
M  V30 6932 C 660.482 1.6475 -1.16362 0
M  V30 6933 C 660.795 1.93517 0.284682 0
M  V30 6934 O 662.001 2.66192 0.534229 0
M  V30 6935 C 660.457 2.96848 -2.03493 0
M  V30 6936 C 660.065 2.75687 -3.5313 0
M  V30 6937 C 661.809 3.74762 -1.99383 0
M  V30 6938 C 659.716 4.03492 -4.32375 0
M  V30 6939 H 658.646 0.618041 -0.431904 0
M  V30 6940 H 661.297 1.0008 -1.53806 0
M  V30 6941 H 659.679 3.62715 -1.58916 0
M  V30 6942 H 660.853 2.18431 -4.05739 0
M  V30 6943 H 659.168 2.11171 -3.58881 0
M  V30 6944 H 661.765 4.69515 -2.5585 0
M  V30 6945 H 662.108 4.04767 -0.973123 0
M  V30 6946 H 662.641 3.15732 -2.41988 0
M  V30 6947 H 659.38 3.78656 -5.3507 0
M  V30 6948 H 658.9 4.60318 -3.84535 0
M  V30 6949 H 660.579 4.71662 -4.42881 0
M  V30 6950 N 660.711 1.11618 1.11262 0
M  V30 6951 C 661.641 0.79846 2.19424 0
M  V30 6952 C 662.622 -0.234003 1.68483 0
M  V30 6953 O 663.807 -0.0970704 1.93957 0
M  V30 6954 C 660.937 0.242892 3.4645 0
M  V30 6955 C 659.891 1.20744 4.10615 0
M  V30 6956 C 659.217 0.512494 5.32238 0
M  V30 6957 C 660.517 2.55884 4.55325 0
M  V30 6958 H 662.211 1.70286 2.46258 0
M  V30 6959 H 659.757 0.820195 1.18359 0
M  V30 6960 H 661.71 0.00840447 4.21399 0
M  V30 6961 H 660.434 -0.696811 3.1908 0
M  V30 6962 H 659.093 1.42759 3.37662 0
M  V30 6963 H 658.741 -0.432075 5.01141 0
M  V30 6964 H 658.441 1.15583 5.7612 0
M  V30 6965 H 659.965 0.286842 6.09926 0
M  V30 6966 H 661.379 2.37946 5.21588 0
M  V30 6967 H 659.776 3.16216 5.10027 0
M  V30 6968 H 660.846 3.14968 3.68678 0
M  V30 6969 N 662.189 -1.289 0.906776 0
M  V30 6970 C 663.414 -1.99939 0.551303 0
M  V30 6971 C 663.839 -1.67366 -0.858496 0
M  V30 6972 O 663.197 -0.902176 -1.57259 0
M  V30 6973 C 663.245 -3.52523 0.758937 0
M  V30 6974 O 662.349 -4.11983 -0.185308 0
M  V30 6975 H 661.69 -0.628376 0.214568 0
M  V30 6976 H 664.22 -1.64225 1.2203 0
M  V30 6977 H 664.23 -4.02522 0.666329 0
M  V30 6978 H 662.905 -3.75566 1.78671 0
M  V30 6979 H 661.482 -3.72873 -0.0445577 0
M  V30 6980 N 663.667 -0.670007 -1.42649 0
M  V30 6981 C 664.597 -0.00258501 -2.335 0
M  V30 6982 C 665.578 0.794364 -1.50412 0
M  V30 6983 O 666.763 0.75248 -1.79029 0
M  V30 6984 C 663.893 0.952748 -3.33976 0
M  V30 6985 C 662.847 0.264733 -4.2718 0
M  V30 6986 C 662.173 1.33267 -5.17826 0
M  V30 6987 C 663.473 -0.853289 -5.15283 0
M  V30 6988 H 665.167 -0.761326 -2.89559 0
M  V30 6989 H 662.713 -0.367561 -1.3923 0
M  V30 6990 H 664.666 1.4287 -3.96442 0
M  V30 6991 H 663.39 1.74285 -2.7621 0
M  V30 6992 H 662.049 -0.190938 -3.66102 0
M  V30 6993 H 661.697 2.11464 -4.5639 0
M  V30 6994 H 661.397 0.877476 -5.81011 0
M  V30 6995 H 662.921 1.80965 -5.83167 0
M  V30 6996 H 664.335 -0.458763 -5.71462 0
M  V30 6997 H 662.732 -1.23398 -5.87276 0
M  V30 6998 H 663.802 -1.70412 -4.53969 0
M  V30 6999 N 665.145 1.52092 -0.413018 0
M  V30 7000 C 666.092 2.27119 0.410558 0
M  V30 7001 C 667.062 1.29692 1.03774 0
M  V30 7002 O 668.247 1.58561 1.06128 0
M  V30 7003 C 665.387 3.09863 1.51918 0
M  V30 7004 C 664.5 4.22252 0.912528 0
M  V30 7005 C 663.635 4.92348 1.99417 0
M  V30 7006 C 662.674 5.96694 1.36466 0
M  V30 7007 N 661.811 6.60292 2.38661 0
M  V30 7008 H 666.651 2.97067 -0.235661 0
M  V30 7009 H 664.188 1.46542 -0.128055 0
M  V30 7010 H 666.146 3.56144 2.17295 0
M  V30 7011 H 664.776 2.42078 2.13537 0
M  V30 7012 H 663.828 3.80113 0.147697 0
M  V30 7013 H 665.14 4.9709 0.412717 0
M  V30 7014 H 664.294 5.42054 2.72512 0
M  V30 7015 H 663.033 4.17087 2.52764 0
M  V30 7016 H 662.038 5.46304 0.61906 0
M  V30 7017 H 663.263 6.73899 0.838827 0
M  V30 7018 H 661.209 5.87858 2.91134 0
M  V30 7019 H 661.126 7.30816 1.93503 0
M  V30 7020 H 662.394 7.14635 3.11314 0
M  V30 7021 N 666.623 0.143563 1.56945 0
M  V30 7022 C 667.851 -0.515447 2.00377 0
M  V30 7023 C 668.266 -1.58643 1.02361 0
M  V30 7024 O 667.623 -1.82489 0.0201039 0
M  V30 7025 C 667.674 -1.11923 3.43737 0
M  V30 7026 O 667.395 -0.0910318 4.38005 0
M  V30 7027 C 668.896 -1.85918 4.02429 0
M  V30 7028 H 666.116 -0.134478 0.657386 0
M  V30 7029 H 668.66 0.237135 2.0312 0
M  V30 7030 H 666.815 -1.82245 3.41856 0
M  V30 7031 H 667.229 -0.532916 5.21786 0
M  V30 7032 H 668.703 -2.2346 5.04747 0
M  V30 7033 H 669.18 -2.7438 3.42947 0
M  V30 7034 H 669.786 -1.20303 4.07931 0
M  V30 7035 N 668.101 -1.57061 -0.130224 0
M  V30 7036 C 669.034 -1.94698 -1.19029 0
M  V30 7037 C 670.012 -0.815074 -1.40696 0
M  V30 7038 O 671.196 -1.07223 -1.55034 0
M  V30 7039 C 668.323 -2.23352 -2.5462 0
M  V30 7040 C 667.369 -3.45945 -2.49448 0
M  V30 7041 S 668.202 -4.98927 -1.94505 0
M  V30 7042 C 669.358 -5.30721 -3.31792 0
M  V30 7043 H 669.591 -2.84308 -0.869272 0
M  V30 7044 H 667.124 -1.50688 -0.336531 0
M  V30 7045 H 669.082 -2.40539 -3.32643 0
M  V30 7046 H 667.743 -1.34376 -2.83905 0
M  V30 7047 H 666.936 -3.63324 -3.49302 0
M  V30 7048 H 666.538 -3.28086 -1.79543 0
M  V30 7049 H 668.83 -5.25215 -4.27966 0
M  V30 7050 H 669.773 -6.32048 -3.19251 0
M  V30 7051 H 670.181 -4.5821 -3.29703 0
M  V30 7052 N 669.579 0.400081 -1.52437 0
M  V30 7053 C 670.856 1.15973 -1.57511 0
M  V30 7054 C 671.236 2.0798 -0.361572 0
M  V30 7055 O 670.584 2.19032 0.650929 0
M  V30 7056 C 670.794 1.92912 -2.90837 0
M  V30 7057 C 672.142 2.48662 -3.44169 0
M  V30 7058 O 673.166 2.03081 -2.92637 0
M  V30 7059 O 672.025 3.31894 -4.34176 0
M  V30 7060 H 669.119 0.530023 -0.634827 0
M  V30 7061 H 671.665 0.40613 -1.64769 0
M  V30 7062 H 670.437 1.25564 -3.70607 0
M  V30 7063 H 670.06 2.75257 -2.86913 0
M  V30 7064 N 671.057 1.43213 0.657864 0
M  V30 7065 C 672.473 1.26511 0.972992 0
M  V30 7066 C 672.673 0.181477 2.00681 0
M  V30 7067 O 671.729 -0.441649 2.48608 0
M  V30 7068 C 673.042 2.62784 1.46168 0
M  V30 7069 C 674.59 2.70278 1.57857 0
M  V30 7070 C 675.065 4.06958 2.10117 0
M  V30 7071 N 676.556 4.08999 2.17426 0
M  V30 7072 C 677.291 5.11585 2.58975 0
M  V30 7073 N 676.787 6.24548 2.99853 0
M  V30 7074 N 678.58 4.9894 2.58873 0
M  V30 7075 H 670.731 2.12384 -0.0263129 0
M  V30 7076 H 672.994 0.946638 0.0507992 0
M  V30 7077 H 672.7 3.43022 0.776474 0
M  V30 7078 H 672.574 2.87863 2.43751 0
M  V30 7079 H 674.961 1.90376 2.25479 0
M  V30 7080 H 675.042 2.4897 0.587179 0
M  V30 7081 H 674.686 4.87325 1.43098 0
M  V30 7082 H 674.616 4.25628 3.10078 0
M  V30 7083 H 677.107 3.27457 1.88627 0
M  V30 7084 H 677.42 6.98661 3.30292 0
M  V30 7085 H 675.765 6.28027 2.97669 0
M  V30 7086 H 678.956 4.09757 2.26311 0
M  V30 7087 H 679.129 5.79019 2.90932 0
M  V30 7088 N 672.536 -0.895792 1.29666 0
M  V30 7089 C 673.783 -1.64664 1.17864 0
M  V30 7090 C 674.111 -1.92631 -0.26902 0
M  V30 7091 O 673.366 -1.53787 -1.21029 0
M  V30 7092 C 673.665 -3.00075 1.94139 0
M  V30 7093 C 673.331 -2.91702 3.43833 0
M  V30 7094 C 671.993 -2.89126 3.84656 0
M  V30 7095 C 674.345 -2.80622 4.39205 0
M  V30 7096 C 671.673 -2.73293 5.1916 0
M  V30 7097 C 674.025 -2.66329 5.73805 0
M  V30 7098 C 672.689 -2.62121 6.1388 0
M  V30 7099 H 671.959 -0.602549 0.431295 0
M  V30 7100 H 674.606 -1.04234 1.60648 0
M  V30 7101 H 672.911 -3.64394 1.43958 0
M  V30 7102 H 674.608 -3.57111 1.82408 0
M  V30 7103 H 671.198 -2.94511 3.11386 0
M  V30 7104 H 675.382 -2.81686 4.08615 0
M  V30 7105 H 670.638 -2.68443 5.49316 0
M  V30 7106 H 674.812 -2.56727 6.47352 0
M  V30 7107 H 672.439 -2.49611 7.18052 0
M  V30 7108 N 674.014 -1.12206 -1.10668 0
M  V30 7109 C 675.291 -0.787382 -1.79052 0
M  V30 7110 C 675.671 0.723267 -1.98323 0
M  V30 7111 O 675.019 1.6561 -1.57434 0
M  V30 7112 C 675.229 -1.55968 -3.1221 0
M  V30 7113 C 676.577 -1.74413 -3.87125 0
M  V30 7114 O 677.601 -1.5246 -3.21923 0
M  V30 7115 O 676.46 -2.10952 -5.04144 0
M  V30 7116 H 673.554 -0.286137 -0.775922 0
M  V30 7117 H 676.1 -1.22595 -1.1734 0
M  V30 7118 H 674.872 -2.58692 -2.93588 0
M  V30 7119 H 674.495 -1.1152 -3.8164 0
M  V30 7120 N 675.492 1.28418 -0.913599 0
M  V30 7121 C 676.769 1.89977 -0.465619 0
M  V30 7122 C 677.149 1.82813 1.05559 0
M  V30 7123 O 676.497 1.26397 1.90358 0
M  V30 7124 C 676.707 3.34492 -0.995813 0
M  V30 7125 C 678.055 4.11468 -1.04782 0
M  V30 7126 O 679.079 3.43451 -0.944445 0
M  V30 7127 O 677.938 5.33046 -1.20518 0
M  V30 7128 H 675.032 0.813734 -0.147532 0
M  V30 7129 H 677.578 1.36786 -1.00437 0
M  V30 7130 H 676.35 3.33929 -2.03978 0
M  V30 7131 H 675.973 3.95181 -0.437878 0
M  V30 7132 N 676.97 0.677563 1.42291 0
M  V30 7133 C 677.92 -0.0218641 2.2799 0
M  V30 7134 C 678.904 -0.770816 1.41235 0
M  V30 7135 O 680.096 -0.649273 1.64662 0
M  V30 7136 C 677.225 -0.970449 3.29298 0
M  V30 7137 C 676.311 -0.218695 4.23536 0
M  V30 7138 N 676.702 0.777908 4.99782 0
M  V30 7139 C 675 -0.456748 4.43655 0
M  V30 7140 C 675.701 1.22632 5.68627 0
M  V30 7141 N 674.677 0.55573 5.40752 0
M  V30 7142 H 678.479 0.742516 2.84366 0
M  V30 7143 H 675.993 0.506862 1.54288 0
M  V30 7144 H 677.99 -1.48652 3.89497 0
M  V30 7145 H 676.65 -1.73463 2.74483 0
M  V30 7146 H 677.661 1.15754 5.04798 0
M  V30 7147 H 674.338 -1.20021 3.99877 0
M  V30 7148 H 675.728 2.05231 6.39789 0
M  V30 7149 N 678.448 -1.51871 0.421078 0
M  V30 7150 C 679.395 -2.27334 -0.398508 0
M  V30 7151 C 680.365 -1.30241 -1.03085 0
M  V30 7152 O 681.55 -1.59121 -1.05285 0
M  V30 7153 C 678.69 -3.10664 -1.50272 0
M  V30 7154 C 677.803 -4.2273 -0.890122 0
M  V30 7155 C 676.938 -4.93399 -1.96803 0
M  V30 7156 C 675.977 -5.97409 -1.333 0
M  V30 7157 N 675.114 -6.61548 -2.35156 0
M  V30 7158 H 679.954 -2.96938 0.251411 0
M  V30 7159 H 677.491 -1.46472 0.135825 0
M  V30 7160 H 679.449 -3.57292 -2.15403 0
M  V30 7161 H 678.079 -2.43207 -2.1225 0
M  V30 7162 H 677.131 -3.80186 -0.127537 0
M  V30 7163 H 678.443 -4.97302 -0.386349 0
M  V30 7164 H 677.597 -5.43491 -2.69633 0
M  V30 7165 H 676.336 -4.18421 -2.50549 0
M  V30 7166 H 675.341 -5.46624 -0.59008 0
M  V30 7167 H 676.566 -6.74335 -0.803076 0
M  V30 7168 H 674.512 -5.89394 -2.88012 0
M  V30 7169 H 674.429 -7.31832 -1.89624 0
M  V30 7170 H 675.697 -7.16276 -3.0752 0
M  V30 7171 N 679.926 -0.151884 -1.56866 0
M  V30 7172 C 681.174 0.497021 -1.95893 0
M  V30 7173 C 681.495 1.65078 -1.03799 0
M  V30 7174 O 680.765 1.95642 -0.10049 0
M  V30 7175 H 679.345 0.186603 -0.723318 0
M  V30 7176 H 682.007 -0.228525 -1.93556 0
M  V30 7177 H 681.103 0.869933 -2.99731 0
M  V30 7178 N 681.404 1.57128 0.121893 0
M  V30 7179 C 682.815 1.73902 0.679348 0
M  V30 7180 C 683.166 0.770135 1.80453 0
M  V30 7181 O 682.291 -0.0576083 2.16323 0
M  V30 7182 C 682.886 3.15328 1.2391 0
M  V30 7183 C 681.445 3.33618 1.74288 0
M  V30 7184 C 680.592 2.6978 0.641414 0
M  V30 7185 H 683.543 1.58359 -0.104 0
M  V30 7186 H 683.564 3.16718 2.10879 0
M  V30 7187 H 683.076 3.85821 0.419957 0
M  V30 7188 H 681.177 2.68162 2.58689 0
M  V30 7189 H 681.29 4.4176 1.85432 0
M  V30 7190 H 679.654 2.30935 1.0743 0
M  V30 7191 H 680.437 3.42895 -0.166707 0
M  V30 7192 N 682.882 -0.391992 1.52647 0
M  V30 7193 C 684.11 -1.1586 1.71418 0
M  V30 7194 C 684.525 -1.8381 0.431216 0
M  V30 7195 O 683.882 -1.7256 -0.594085 0
M  V30 7196 C 683.933 -2.20888 2.86165 0
M  V30 7197 O 683.654 -1.5571 4.09495 0
M  V30 7198 C 685.155 -3.103 3.1659 0
M  V30 7199 H 682.375 -0.347494 0.574011 0
M  V30 7200 H 684.919 -0.458972 1.99283 0
M  V30 7201 H 683.074 -2.86492 2.6077 0
M  V30 7202 H 683.488 -2.25474 4.73563 0
M  V30 7203 H 684.962 -3.8003 4.00351 0
M  V30 7204 H 685.439 -3.73639 2.30848 0
M  V30 7205 H 686.045 -2.50345 3.43813 0
M  V30 7206 N 684.36 -1.4356 -0.65026 0
M  V30 7207 C 685.609 -1.44619 -1.406 0
M  V30 7208 C 685.922 -0.0752645 -1.95455 0
M  V30 7209 O 687.128 0.0366832 -2.71475 0
M  V30 7210 C 685.584 -2.54511 -2.54465 0
M  V30 7211 C 685.192 -3.97723 -2.06204 0
M  V30 7212 C 686.936 -2.64768 -3.31811 0
M  V30 7213 C 684.843 -4.99075 -3.17298 0
M  V30 7214 H 683.773 -0.537983 -0.52829 0
M  V30 7215 H 686.424 -1.69559 -0.701561 0
M  V30 7216 H 684.806 -2.22777 -3.27393 0
M  V30 7217 H 685.98 -4.38932 -1.40267 0
M  V30 7218 H 684.295 -3.91538 -1.41729 0
M  V30 7219 H 686.892 -3.37664 -4.14593 0
M  V30 7220 H 687.235 -1.69936 -3.80036 0
M  V30 7221 H 687.768 -2.95817 -2.65964 0
M  V30 7222 H 684.507 -5.95469 -2.74038 0
M  V30 7223 H 684.027 -4.62476 -3.81937 0
M  V30 7224 H 685.706 -5.21913 -3.82382 0
M  V30 7225 N 685.838 0.888903 -1.30139 0
M  V30 7226 C 687.063 1.67884 -1.21777 0
M  V30 7227 C 687.488 1.86848 0.216689 0
M  V30 7228 O 686.846 1.39659 1.15608 0
M  V30 7229 C 686.894 3.03483 -1.94757 0
M  V30 7230 O 685.998 3.92294 -1.27198 0
M  V30 7231 H 685.339 0.513144 -0.421402 0
M  V30 7232 H 687.869 1.10968 -1.71893 0
M  V30 7233 H 687.879 3.53553 -2.03627 0
M  V30 7234 H 686.554 2.89 -2.99085 0
M  V30 7235 H 685.131 3.50732 -1.26655 0
M  V30 7236 N 687.317 1.12792 1.10072 0
M  V30 7237 C 688.247 0.821688 2.18565 0
M  V30 7238 C 689.228 -0.21612 1.68721 0
M  V30 7239 O 690.413 -0.0764932 1.94049 0
M  V30 7240 C 687.543 0.279624 3.46172 0
M  V30 7241 C 686.497 1.25092 4.09312 0
M  V30 7242 C 685.823 0.568916 5.31665 0
M  V30 7243 C 687.123 2.60699 4.52585 0
M  V30 7244 H 688.817 1.72888 2.44438 0
M  V30 7245 H 686.363 0.832702 1.17482 0
M  V30 7246 H 688.316 0.053099 4.21367 0
M  V30 7247 H 687.04 -0.662929 3.19801 0
M  V30 7248 H 685.699 1.46332 3.36129 0
M  V30 7249 H 685.347 -0.378898 5.01571 0
M  V30 7250 H 685.047 1.21687 5.74862 0
M  V30 7251 H 686.571 0.351517 6.09587 0
M  V30 7252 H 687.985 2.43465 5.19035 0
M  V30 7253 H 686.382 3.21608 5.06644 0
M  V30 7254 H 687.452 3.1886 3.65317 0
M  V30 7255 N 688.795 -1.27931 0.920396 0
M  V30 7256 C 690.023 -1.98805 0.573087 0
M  V30 7257 C 690.438 -1.68724 -0.847201 0
M  V30 7258 O 689.795 -0.943699 -1.56207 0
M  V30 7259 C 689.846 -3.52971 0.780633 0
M  V30 7260 O 689.567 -3.81994 2.14504 0
M  V30 7261 C 691.068 -4.411 0.44105 0
M  V30 7262 H 688.288 -0.634651 0.21785 0
M  V30 7263 H 690.832 -1.62965 1.23542 0
M  V30 7264 H 688.987 -3.87048 0.165204 0
M  V30 7265 H 689.401 -4.76609 2.18962 0
M  V30 7266 H 690.875 -5.48312 0.637006 0
M  V30 7267 H 691.352 -4.34758 -0.62306 0
M  V30 7268 H 691.958 -4.12532 1.0343 0
M  V30 7269 N 690.273 -0.685099 -1.4193 0
M  V30 7270 C 691.205 0.0258679 -2.29185 0
M  V30 7271 C 692.218 0.755076 -1.44231 0
M  V30 7272 O 693.407 0.60752 -1.67844 0
M  V30 7273 C 690.507 1.06055 -3.21878 0
M  V30 7274 C 689.68 0.403088 -4.35539 0
M  V30 7275 C 688.739 1.33895 -5.0888 0
M  V30 7276 O 687.765 0.835326 -5.63037 0
M  V30 7277 N 688.967 2.6718 -5.15359 0
M  V30 7278 H 691.732 -0.723201 -2.90843 0
M  V30 7279 H 689.293 -0.53031 -1.52968 0
M  V30 7280 H 691.285 1.68813 -3.6781 0
M  V30 7281 H 689.855 1.71126 -2.616 0
M  V30 7282 H 689.075 -0.404185 -3.92122 0
M  V30 7283 H 690.363 -0.0545098 -5.08771 0
M  V30 7284 H 689.761 3.10626 -4.72788 0
M  V30 7285 H 688.318 3.25159 -5.64903 0
M  V30 7286 N 691.751 1.51645 -0.429126 0
M  V30 7287 C 693 2.01203 0.141538 0
M  V30 7288 C 693.313 1.31828 1.44502 0
M  V30 7289 O 694.519 1.7231 2.09813 0
M  V30 7290 C 692.975 3.58624 0.302786 0
M  V30 7291 C 692.583 4.3693 -0.989775 0
M  V30 7292 C 694.327 4.16353 0.827661 0
M  V30 7293 C 692.234 5.86037 -0.794619 0
M  V30 7294 H 691.164 0.751867 0.05667 0
M  V30 7295 H 693.815 1.74822 -0.557633 0
M  V30 7296 H 692.197 3.81417 1.06476 0
M  V30 7297 H 693.371 4.25887 -1.75945 0
M  V30 7298 H 691.686 3.90614 -1.44256 0
M  V30 7299 H 694.283 5.25455 0.990026 0
M  V30 7300 H 694.626 3.74995 1.80787 0
M  V30 7301 H 695.159 3.97606 0.124213 0
M  V30 7302 H 691.898 6.31792 -1.74697 0
M  V30 7303 H 691.418 5.99765 -0.0645968 0
M  V30 7304 H 693.097 6.45471 -0.444591 0
M  V30 7305 N 693.229 0.160201 1.56784 0
M  V30 7306 C 694.475 -0.48831 1.96833 0
M  V30 7307 C 694.808 -1.63641 1.04571 0
M  V30 7308 O 694.083 -1.94289 0.0906481 0
M  V30 7309 C 694.366 -0.981908 3.46454 0
M  V30 7310 C 694.219 0.165607 4.49495 0
M  V30 7311 C 695.538 -1.85931 3.98896 0
M  V30 7312 H 692.657 -0.176027 0.71567 0
M  V30 7313 H 695.299 0.244093 1.88426 0
M  V30 7314 H 693.449 -1.60602 3.5375 0
M  V30 7315 H 695.121 0.802372 4.54268 0
M  V30 7316 H 693.364 0.822789 4.25926 0
M  V30 7317 H 694.035 -0.221699 5.51555 0
M  V30 7318 H 696.511 -1.33327 3.94161 0
M  V30 7319 H 695.387 -2.17373 5.04024 0
M  V30 7320 H 695.648 -2.80106 3.42042 0
M  V30 7321 O 694.746 -1.61485 0.0219998 0
M  V30 7322 H 695.437 -1.84445 -0.591595 0
M  V30 END ATOM
M  V30 BEGIN BOND
M  V30 END BOND
M  V30 END CTAB
M  END
$$$$
