drugbank_target|Q15942 Zyxin (DB11638)
 OpenBabel12092121093D

  0  0  0     0  0            999 V3000
M  V30 BEGIN CTAB
M  V30 COUNTS 8491 8642 0 0 0
M  V30 BEGIN ATOM
M  V30 1 H -0.908 1.98254 -0.117106 0
M  V30 2 N 0 1.576 0 0
M  V30 3 C 0.933 2.03868 1.02534 0
M  V30 4 C 1.911 0.928543 1.3348 0
M  V30 5 O 3.095 1.19667 1.45644 0
M  V30 6 C 0.222 2.43627 2.35294 0
M  V30 7 C -0.732 3.65373 2.2001 0
M  V30 8 S 0.101 5.13292 1.52614 0
M  V30 9 C 1.257 5.56322 2.86805 0
M  V30 10 H 1.49 2.90518 0.631377 0
M  V30 11 H -0.977 1.52953 0.210867 0
M  V30 12 H 0.981 2.67203 3.11629 0
M  V30 13 H -0.358 1.57376 2.7183 0
M  V30 14 H -1.165 3.90944 3.18086 0
M  V30 15 H -1.563 3.418 1.51819 0
M  V30 16 H 0.729 5.58782 3.83104 0
M  V30 17 H 1.672 6.56266 2.65933 0
M  V30 18 H 2.08 4.83886 2.90714 0
M  V30 19 N 1.4781 -0.272755 1.55222 0
M  V30 20 C 2.4411 -1.32041 1.87344 0
M  V30 21 C 3.4411 -1.42342 0.74803 0
M  V30 22 O 4.6311 -1.41488 1.0162 0
M  V30 23 C 1.7631 -2.70173 2.07893 0
M  V30 24 H 2.9561 -1.04789 2.80997 0
M  V30 25 H 0.5091 -0.51083 1.47717 0
M  V30 26 H 1.2441 -3.02605 1.16622 0
M  V30 27 H 1.0291 -2.64082 2.89833 0
M  V30 28 H 2.5191 -3.45869 2.34017 0
M  V30 29 N 2.9562 -1.48159 -0.537278 0
M  V30 30 C 3.9192 -1.61665 -1.62472 0
M  V30 31 C 4.9192 -0.490395 -1.5314 0
M  V30 32 O 6.1092 -0.755998 -1.5694 0
M  V30 33 C 3.2412 -1.57997 -3.02076 0
M  V30 34 H 4.4342 -2.58621 -1.51839 0
M  V30 35 H 1.9872 -1.36647 -0.758771 0
M  V30 36 H 2.7222 -0.624913 -3.18222 0
M  V30 37 H 2.5072 -2.39755 -3.10258 0
M  V30 38 H 3.9972 -1.70627 -3.81151 0
M  V30 39 N 4.4343 0.785586 -1.36625 0
M  V30 40 C 5.8453 1.36101 -1.27803 0
M  V30 41 C 6.1963 1.96035 0.0804875 0
M  V30 42 O 5.3213 1.92834 0.982042 0
M  V30 43 C 5.9163 2.47442 -2.31426 0
M  V30 44 C 4.4753 3.00789 -2.26281 0
M  V30 45 C 3.6223 1.73896 -2.15999 0
M  V30 46 H 6.5733 0.586928 -1.47448 0
M  V30 47 H 6.5943 3.2656 -1.95291 0
M  V30 48 H 6.1063 2.03791 -3.30289 0
M  V30 49 H 4.2073 3.48851 -1.30896 0
M  V30 50 H 4.3203 3.57343 -3.19128 0
M  V30 51 H 2.6843 1.9628 -1.62316 0
M  V30 52 H 3.4673 1.32368 -3.16755 0
M  V30 53 N 5.9124 1.20967 1.01018 0
M  V30 54 C 7.3284 0.965905 1.27053 0
M  V30 55 C 7.5284 -0.350785 1.98423 0
M  V30 56 O 6.5844 -1.07773 2.28344 0
M  V30 57 C 7.8974 2.15294 2.09926 0
M  V30 58 C 9.4454 2.19463 2.23171 0
M  V30 59 C 9.9204 3.3767 3.09424 0
M  V30 60 N 11.4114 3.37724 3.17012 0
M  V30 61 C 12.1464 4.25837 3.83993 0
M  V30 62 N 11.6424 5.24138 4.53047 0
M  V30 63 N 13.4354 4.1366 3.80581 0
M  V30 64 H 5.5864 2.0565 0.531194 0
M  V30 65 H 7.8494 0.90024 0.297106 0
M  V30 66 H 7.5554 3.10684 1.64828 0
M  V30 67 H 7.4294 2.13923 3.10672 0
M  V30 68 H 9.8164 1.24632 2.6749 0
M  V30 69 H 9.8974 2.2488 1.21912 0
M  V30 70 H 9.5414 4.32791 2.65808 0
M  V30 71 H 9.4714 3.29491 4.10784 0
M  V30 72 H 11.9624 2.6658 2.6785 0
M  V30 73 H 12.2754 5.87684 5.01844 0
M  V30 74 H 10.6204 5.28068 4.5185 0
M  V30 75 H 13.8114 3.36127 3.25785 0
M  V30 76 H 13.9844 4.82538 4.32505 0
M  V30 77 N 7.3905 -1.2043 1.01659 0
M  V30 78 C 8.8015 -1.71517 0.737482 0
M  V30 79 C 9.1525 -1.81547 -0.743973 0
M  V30 80 O 8.2775 -1.47803 -1.58061 0
M  V30 81 C 8.8725 -3.11515 1.33206 0
M  V30 82 C 7.4315 -3.59912 1.10183 0
M  V30 83 C 6.5785 -2.37116 1.43776 0
M  V30 84 H 9.5295 -1.05444 1.18606 0
M  V30 85 H 9.5505 -3.73575 0.722636 0
M  V30 86 H 9.0625 -3.04182 2.41028 0
M  V30 87 H 7.1635 -3.72577 0.0412756 0
M  V30 88 H 7.2765 -4.44731 1.78188 0
M  V30 89 H 5.6405 -2.39857 0.856778 0
M  V30 90 H 6.4235 -2.32424 2.52654 0
M  V30 91 N 8.8686 -0.792821 -1.36206 0
M  V30 92 C 10.0936 -0.377701 -2.03932 0
M  V30 93 C 10.5186 0.998947 -1.59382 0
M  V30 94 O 9.8766 1.64421 -0.763903 0
M  V30 95 C 9.9246 -0.453635 -3.57735 0
M  V30 96 O 9.0286 0.538151 -4.08874 0
M  V30 97 H 8.3696 -0.159855 -0.644471 0
M  V30 98 H 10.8996 -1.07488 -1.7409 0
M  V30 99 H 10.9096 -0.318464 -4.06755 0
M  V30 100 H 9.5846 -1.45784 -3.89512 0
M  V30 101 H 8.1616 0.364359 -3.71116 0
M  V30 102 N 10.3467 1.47872 -0.545128 0
M  V30 103 C 11.7577 1.86384 -0.108581 0
M  V30 104 C 12.1087 1.45309 1.31832 0
M  V30 105 O 11.2337 0.850641 1.9898 0
M  V30 106 C 11.8287 3.38265 -0.190274 0
M  V30 107 C 10.3877 3.75914 0.191164 0
M  V30 108 C 9.5347 2.71926 -0.543273 0
M  V30 109 H 12.4857 1.39561 -0.755537 0
M  V30 110 H 12.5067 3.75831 0.594217 0
M  V30 111 H 12.0187 3.6813 -1.2289 0
M  V30 112 H 10.1197 3.51665 1.23136 0
M  V30 113 H 10.2327 4.78836 -0.158987 0
M  V30 114 H 8.5967 2.54697 0.0122495 0
M  V30 115 H 9.3797 3.04634 -1.58282 0
M  V30 116 N 11.8248 0.280983 1.55075 0
M  V30 117 C 12.7878 -0.590896 2.21452 0
M  V30 118 C 13.7878 -1.07682 1.19421 0
M  V30 119 O 14.9778 -0.97605 1.44288 0
M  V30 120 C 12.1098 -1.81587 2.88511 0
M  V30 121 H 13.3028 -0.0112554 2.99898 0
M  V30 122 H 10.8558 0.0316438 1.56268 0
M  V30 123 H 11.5908 -2.43587 2.14093 0
M  V30 124 H 11.3758 -1.4753 3.63287 0
M  V30 125 H 12.8658 -2.43575 3.39206 0
M  V30 126 N 13.3029 -1.57598 0.00835791 0
M  V30 127 C 14.5519 -1.90107 -0.673968 0
M  V30 128 C 14.8649 -0.884275 -1.7447 0
M  V30 129 O 16.0709 -1.09987 -2.48224 0
M  V30 130 C 14.5269 -3.37497 -1.24995 0
M  V30 131 C 14.1349 -4.47491 -0.2136 0
M  V30 132 C 15.8789 -3.79104 -1.90999 0
M  V30 133 C 13.7859 -5.85963 -0.80005 0
M  V30 134 H 12.7159 -0.709393 -0.255495 0
M  V30 135 H 15.3669 -1.83365 0.0702693 0
M  V30 136 H 13.7489 -3.39102 -2.04513 0
M  V30 137 H 14.9229 -4.57414 0.557596 0
M  V30 138 H 13.2379 -4.14956 0.346474 0
M  V30 139 H 15.8349 -4.79901 -2.35795 0
M  V30 140 H 16.1779 -3.1306 -2.74407 0
M  V30 141 H 16.7109 -3.79833 -1.18203 0
M  V30 142 H 13.4499 -6.555 -0.00456708 0
M  V30 143 H 12.9699 -5.79687 -1.54021 0
M  V30 144 H 14.6489 -6.33884 -1.29615 0
M  V30 145 N 14.781 0.264519 -1.55364 0
M  V30 146 C 16.006 1.01726 -1.80739 0
M  V30 147 C 16.431 1.78836 -0.583044 0
M  V30 148 O 15.789 1.75167 0.467566 0
M  V30 149 C 15.837 1.94482 -3.03659 0
M  V30 150 O 14.941 3.03386 -2.7934 0
M  V30 151 H 14.282 0.290395 -0.597132 0
M  V30 152 H 16.812 0.290854 -2.02522 0
M  V30 153 H 16.822 2.36278 -3.32621 0
M  V30 154 H 15.497 1.37772 -3.92418 0
M  V30 155 H 14.074 2.65844 -2.61498 0
M  V30 156 N 16.2591 1.48442 0.529413 0
M  V30 157 C 17.5051 1.5672 1.28711 0
M  V30 158 C 17.8381 0.2406 1.92704 0
M  V30 159 O 17.1131 -0.753454 1.79313 0
M  V30 160 C 17.3961 2.70587 2.37603 0
M  V30 161 C 17.2491 4.12953 1.78297 0
M  V30 162 C 18.5681 2.80212 3.39366 0
M  V30 163 H 15.6871 0.570474 0.466613 0
M  V30 164 H 18.3291 1.80617 0.589706 0
M  V30 165 H 16.4791 2.50342 2.97088 0
M  V30 166 H 18.1511 4.44639 1.22858 0
M  V30 167 H 16.3941 4.19927 1.0883 0
M  V30 168 H 17.0651 4.88448 2.57144 0
M  V30 169 H 19.5411 2.98553 2.89836 0
M  V30 170 H 18.4171 3.61611 4.12951 0
M  V30 171 H 18.6781 1.88393 3.99951 0
M  V30 172 N 17.7372 -0.778329 1.37039 0
M  V30 173 C 18.9622 -1.57248 1.35233 0
M  V30 174 C 19.3872 -1.87999 -0.0615568 0
M  V30 175 O 18.7452 -1.48734 -1.03672 0
M  V30 176 C 18.7932 -2.86353 2.19167 0
M  V30 177 O 17.8972 -3.80442 1.59178 0
M  V30 178 H 17.2382 -0.476569 0.462362 0
M  V30 179 H 19.7682 -0.963853 1.80474 0
M  V30 180 H 19.7782 -3.35519 2.32145 0
M  V30 181 H 18.4532 -2.63299 3.21942 0
M  V30 182 H 17.0302 -3.39067 1.55203 0
M  V30 183 N 19.2153 -1.21501 -1.00376 0
M  V30 184 C 20.4613 -1.03452 -1.74429 0
M  V30 185 C 20.7943 0.430764 -1.89362 0
M  V30 186 O 20.0693 1.31962 -1.42886 0
M  V30 187 C 20.3523 -1.73375 -3.15615 0
M  V30 188 C 20.2053 -3.27431 -3.08397 0
M  V30 189 C 21.5243 -1.47732 -4.14564 0
M  V30 190 H 18.6433 -0.377226 -0.633143 0
M  V30 191 H 21.2853 -1.49693 -1.17013 0
M  V30 192 H 19.4353 -1.34064 -3.64636 0
M  V30 193 H 21.1073 -3.76119 -2.67081 0
M  V30 194 H 19.3503 -3.5767 -2.45468 0
M  V30 195 H 20.0213 -3.71524 -4.08258 0
M  V30 196 H 22.4973 -1.8186 -3.74254 0
M  V30 197 H 21.3733 -1.99169 -5.11491 0
M  V30 198 H 21.6343 -0.407589 -4.40217 0
M  V30 199 N 20.6934 1.19889 -1.02296 0
M  V30 200 C 21.9184 1.9393 -0.735237 0
M  V30 201 C 22.3434 1.74639 0.698782 0
M  V30 202 O 21.7014 1.04481 1.48167 0
M  V30 203 C 21.7494 3.43916 -1.08417 0
M  V30 204 O 20.8534 4.11917 -0.199446 0
M  V30 205 H 20.1944 0.605645 -0.272196 0
M  V30 206 H 22.7244 1.52137 -1.36804 0
M  V30 207 H 22.7344 3.9456 -1.03856 0
M  V30 208 H 21.4094 3.5728 -2.12894 0
M  V30 209 H 19.9864 3.71666 -0.303136 0
M  V30 210 N 22.1715 0.800033 1.35784 0
M  V30 211 C 23.1345 0.211565 2.28221 0
M  V30 212 C 24.1345 -0.59728 1.49296 0
M  V30 213 O 25.3245 -0.416721 1.69142 0
M  V30 214 C 22.4565 -0.705846 3.33513 0
M  V30 215 H 23.6495 1.02677 2.81776 0
M  V30 216 H 21.2025 0.570211 1.45528 0
M  V30 217 H 21.9375 -1.54498 2.85133 0
M  V30 218 H 21.7225 -0.127655 3.91892 0
M  V30 219 H 23.2125 -1.11211 4.02519 0
M  V30 220 N 23.6496 -1.47581 0.552962 0
M  V30 221 C 25.0606 -1.86324 0.118463 0
M  V30 222 C 25.4116 -1.46006 -1.3106 0
M  V30 223 O 24.5366 -0.861182 -1.98526 0
M  V30 224 C 25.1316 -3.3816 0.20821 0
M  V30 225 C 23.6906 -3.7601 -0.171226 0
M  V30 226 C 22.8376 -2.71634 0.557686 0
M  V30 227 H 25.7886 -1.39159 0.762928 0
M  V30 228 H 25.8096 -3.76141 -0.574278 0
M  V30 229 H 25.3216 -3.67473 1.24841 0
M  V30 230 H 23.4226 -3.52313 -1.21269 0
M  V30 231 H 23.5356 -4.78745 0.184379 0
M  V30 232 H 21.8996 -2.547 0.00125792 0
M  V30 233 H 22.6826 -3.0379 1.59896 0
M  V30 234 N 25.1277 -0.289203 -1.54924 0
M  V30 235 C 26.0907 0.579144 -2.21762 0
M  V30 236 C 27.0907 1.07047 -1.1999 0
M  V30 237 O 28.2807 0.968384 -1.44803 0
M  V30 238 C 25.4127 1.80055 -2.8947 0
M  V30 239 H 26.6057 -0.00464908 -2.999 0
M  V30 240 H 24.1587 -0.0399306 -1.56249 0
M  V30 241 H 24.8937 2.42449 -2.15381 0
M  V30 242 H 24.6787 1.45602 -3.64064 0
M  V30 243 H 26.1687 2.41773 -3.40493 0
M  V30 244 N 26.6058 1.57591 -0.0167156 0
M  V30 245 C 27.8528 1.91283 0.664597 0
M  V30 246 C 28.1808 0.891949 1.72842 0
M  V30 247 O 27.4358 -0.100931 1.9544 0
M  V30 248 C 27.7348 3.3172 1.33029 0
M  V30 249 C 27.4008 4.4914 0.398047 0
M  V30 250 C 26.0628 4.80992 0.141421 0
M  V30 251 C 28.4148 5.20634 -0.242825 0
M  V30 252 C 25.7428 5.81703 -0.764092 0
M  V30 253 C 28.0948 6.22311 -1.13632 0
M  V30 254 C 26.7588 6.52611 -1.40196 0
M  V30 255 H 26.0288 0.699956 0.243193 0
M  V30 256 H 28.6758 1.9135 -0.0758267 0
M  V30 257 H 26.9808 3.27856 2.14517 0
M  V30 258 H 28.6778 3.55055 1.86379 0
M  V30 259 H 25.2678 4.24262 0.608238 0
M  V30 260 H 29.4518 4.96267 -0.0576019 0
M  V30 261 H 24.7078 6.03532 -0.977732 0
M  V30 262 H 28.8818 6.76834 -1.63917 0
M  V30 263 H 26.5088 7.30467 -2.10529 0
M  V30 264 N 28.0839 -0.256276 1.55502 0
M  V30 265 C 29.3139 -1.00196 1.80677 0
M  V30 266 C 29.7219 -1.79805 0.588797 0
M  V30 267 O 29.0649 -1.78055 -0.451883 0
M  V30 268 C 29.1269 -1.99515 2.99055 0
M  V30 269 C 28.7909 -1.38688 4.35448 0
M  V30 270 C 29.7879 -0.794079 5.138 0
M  V30 271 C 27.4729 -1.40906 4.82132 0
M  V30 272 C 29.4669 -0.231562 6.36979 0
M  V30 273 C 27.1539 -0.842684 6.05262 0
M  V30 274 C 28.1519 -0.254953 6.82524 0
M  V30 275 O 27.8399 0.3027 8.0333 0
M  V30 276 H 27.5719 -0.300919 0.60533 0
M  V30 277 H 30.1259 -0.287307 2.03381 0
M  V30 278 H 28.3559 -2.74785 2.72084 0
M  V30 279 H 30.0449 -2.60349 3.11405 0
M  V30 280 H 30.8109 -0.769519 4.78856 0
M  V30 281 H 26.6899 -1.85591 4.21992 0
M  V30 282 H 30.2339 0.227816 6.97228 0
M  V30 283 H 26.1309 -0.86454 6.39684 0
M  V30 284 H 26.8989 0.193662 8.18271 0
M  V30 285 N 29.562 -1.4872 -0.521534 0
M  V30 286 C 30.525 -1.63379 -1.60748 0
M  V30 287 C 31.525 -0.50661 -1.52611 0
M  V30 288 O 32.715 -0.772601 -1.5613 0
M  V30 289 C 29.847 -1.61192 -3.00383 0
M  V30 290 H 31.04 -2.60217 -1.49087 0
M  V30 291 H 28.593 -1.37444 -0.744235 0
M  V30 292 H 29.328 -0.65863 -3.17541 0
M  V30 293 H 29.113 -2.43032 -3.07698 0
M  V30 294 H 30.603 -1.7466 -3.7932 0
M  V30 295 N 31.0401 0.771051 -1.3745 0
M  V30 296 C 32.4511 1.34737 -1.29239 0
M  V30 297 C 32.8021 1.96109 0.0596908 0
M  V30 298 O 31.9271 1.93865 0.961534 0
M  V30 299 C 32.5221 2.44973 -2.34037 0
M  V30 300 C 31.0811 2.98372 -2.29458 0
M  V30 301 C 30.2281 1.71595 -2.17831 0
M  V30 302 H 33.1791 0.571256 -1.48062 0
M  V30 303 H 33.2001 3.24471 -1.98744 0
M  V30 304 H 32.7121 2.00276 -3.32432 0
M  V30 305 H 30.8131 3.47443 -1.34589 0
M  V30 306 H 30.9261 3.53939 -3.229 0
M  V30 307 H 29.2901 1.94547 -1.64388 0
M  V30 308 H 30.0731 1.29001 -3.18141 0
M  V30 309 N 32.5182 1.22032 0.997298 0
M  V30 310 C 33.4502 0.944263 2.08845 0
M  V30 311 C 34.4632 -0.0754663 1.62625 0
M  V30 312 O 35.6522 0.157994 1.77799 0
M  V30 313 C 32.7522 0.397723 3.36558 0
M  V30 314 C 31.9252 1.47362 4.11829 0
M  V30 315 C 30.9842 0.934951 5.17827 0
M  V30 316 O 30.0102 1.62016 5.45655 0
M  V30 317 N 31.2122 -0.245895 5.79979 0
M  V30 318 H 33.9772 1.88363 2.33109 0
M  V30 319 H 31.5382 1.12661 1.16272 0
M  V30 320 H 33.5302 0.0227771 4.04694 0
M  V30 321 H 32.1002 -0.446646 3.09393 0
M  V30 322 H 31.3202 2.02208 3.38386 0
M  V30 323 H 32.6082 2.19764 4.58891 0
M  V30 324 H 32.0062 -0.819475 5.59733 0
M  V30 325 H 30.5632 -0.562272 6.4937 0
M  V30 326 N 33.9963 -1.19345 1.0293 0
M  V30 327 C 34.9433 -2.2258 0.610464 0
M  V30 328 C 35.9133 -1.6179 -0.375946 0
M  V30 329 O 37.0983 -1.88844 -0.272511 0
M  V30 330 C 34.2383 -3.45085 -0.0321473 0
M  V30 331 C 33.3513 -4.20258 1.00035 0
M  V30 332 C 32.4863 -5.3019 0.32746 0
M  V30 333 C 31.5253 -5.97121 1.34584 0
M  V30 334 N 30.6623 -6.98615 0.698726 0
M  V30 335 H 35.5023 -2.57764 1.49538 0
M  V30 336 H 33.0393 -1.26644 0.748311 0
M  V30 337 H 34.9973 -4.15061 -0.421966 0
M  V30 338 H 33.6273 -3.10555 -0.88064 0
M  V30 339 H 32.6793 -3.49223 1.50823 0
M  V30 340 H 33.9913 -4.66175 1.77433 0
M  V30 341 H 33.1453 -6.06587 -0.11718 0
M  V30 342 H 31.8843 -4.85345 -0.478713 0
M  V30 343 H 30.8893 -5.19474 1.80074 0
M  V30 344 H 32.1143 -6.4405 2.15352 0
M  V30 345 H 30.0603 -6.55942 -0.0873471 0
M  V30 346 H 29.9773 -7.42724 1.41058 0
M  V30 347 H 31.2453 -7.79004 0.278102 0
M  V30 348 N 35.4744 -0.807222 -1.35358 0
M  V30 349 C 36.4214 -0.216037 -2.29787 0
M  V30 350 C 37.3914 0.650278 -1.52842 0
M  V30 351 O 38.5764 0.595227 -1.81278 0
M  V30 352 C 35.7164 0.628893 -3.39321 0
M  V30 353 C 34.8294 -0.257927 -4.31229 0
M  V30 354 C 33.9644 0.595069 -5.27856 0
M  V30 355 C 33.0034 -0.292111 -6.11403 0
M  V30 356 N 32.1404 0.520895 -7.00165 0
M  V30 357 H 36.9804 -1.02671 -2.79755 0
M  V30 358 H 34.5174 -0.517839 -1.37684 0
M  V30 359 H 36.4754 1.13393 -4.01494 0
M  V30 360 H 35.1054 1.40482 -2.90628 0
M  V30 361 H 34.1574 -0.881076 -3.70056 0
M  V30 362 H 35.4694 -0.940759 -4.89848 0
M  V30 363 H 34.6234 1.16522 -5.95405 0
M  V30 364 H 33.3624 1.31146 -4.69736 0
M  V30 365 H 32.3674 -0.874525 -5.428 0
M  V30 366 H 33.5924 -1.00638 -6.71602 0
M  V30 367 H 31.5384 1.22125 -6.44532 0
M  V30 368 H 31.4554 -0.103877 -7.55929 0
M  V30 369 H 32.7234 1.0743 -7.72062 0
M  V30 370 N 36.9525 1.47285 -0.560781 0
M  V30 371 C 38.1995 2.02464 -0.038062 0
M  V30 372 C 38.5275 1.43474 1.31322 0
M  V30 373 O 37.7825 0.581311 1.86867 0
M  V30 374 C 38.0815 3.57258 0.100784 0
M  V30 375 C 37.7475 4.35184 -1.18007 0
M  V30 376 C 36.4095 4.56194 -1.53103 0
M  V30 377 C 38.7615 4.80098 -2.02867 0
M  V30 378 C 36.0895 5.19367 -2.729 0
M  V30 379 C 38.4415 5.44593 -3.21871 0
M  V30 380 C 37.1055 5.63835 -3.57276 0
M  V30 381 H 36.3755 0.740869 -0.0139279 0
M  V30 382 H 39.0225 1.76916 -0.733012 0
M  V30 383 H 37.3275 3.81819 0.878724 0
M  V30 384 H 39.0245 3.97606 0.520639 0
M  V30 385 H 35.6145 4.19113 -0.8968 0
M  V30 386 H 39.7985 4.63642 -1.7706 0
M  V30 387 H 35.0545 5.32459 -3.00496 0
M  V30 388 H 39.2285 5.78358 -3.87911 0
M  V30 389 H 36.8555 6.12557 -4.50197 0
M  V30 390 N 38.4306 0.297415 1.54768 0
M  V30 391 C 39.6786 -0.312295 1.99673 0
M  V30 392 C 39.9996 -1.54686 1.18732 0
M  V30 393 O 39.2696 -1.93854 0.282382 0
M  V30 394 H 37.8496 -0.118381 0.73756 0
M  V30 395 H 40.5116 0.407915 1.90583 0
M  V30 396 H 39.6076 -0.586813 3.06534 0
M  V30 397 N 39.9087 -1.5758 0.0250728 0
M  V30 398 C 41.3197 -1.79476 -0.514323 0
M  V30 399 C 41.6707 -0.934956 -1.72491 0
M  V30 400 O 40.7957 -0.144245 -2.15919 0
M  V30 401 C 41.3907 -3.25503 -0.939842 0
M  V30 402 C 39.9497 -3.48408 -1.42438 0
M  V30 403 C 39.0967 -2.74583 -0.387201 0
M  V30 404 H 42.0477 -1.567 0.25113 0
M  V30 405 H 42.0687 -3.34992 -1.80445 0
M  V30 406 H 41.5807 -3.88056 -0.0585628 0
M  V30 407 H 39.6817 -2.91103 -2.32572 0
M  V30 408 H 39.7947 -4.57119 -1.43455 0
M  V30 409 H 38.1587 -2.39942 -0.854409 0
M  V30 410 H 38.9417 -3.39849 0.485543 0
M  V30 411 N 41.3868 0.248026 -1.55636 0
M  V30 412 C 42.6328 0.97767 -1.77678 0
M  V30 413 C 42.9658 1.85016 -0.590135 0
M  V30 414 O 42.2408 1.90095 0.411611 0
M  V30 415 C 42.5238 1.83914 -3.09593 0
M  V30 416 C 42.3768 0.99491 -4.38659 0
M  V30 417 C 43.6958 2.82183 -3.37729 0
M  V30 418 H 40.8148 0.354005 -0.646413 0
M  V30 419 H 43.4568 0.248253 -1.88371 0
M  V30 420 H 41.6068 2.46104 -3.00608 0
M  V30 421 H 43.2788 0.391789 -4.59633 0
M  V30 422 H 41.5218 0.299231 -4.32767 0
M  V30 423 H 42.1928 1.63145 -5.2734 0
M  V30 424 H 44.6688 2.30129 -3.4667 0
M  V30 425 H 43.5448 3.39582 -4.31249 0
M  V30 426 H 43.8058 3.58588 -2.58586 0
M  V30 427 N 42.8649 1.48995 0.513639 0
M  V30 428 C 44.1109 1.58076 1.27042 0
M  V30 429 C 44.4439 0.261026 1.92438 0
M  V30 430 O 43.7189 -0.734393 1.80103 0
M  V30 431 C 44.0019 2.73091 2.34719 0
M  V30 432 C 43.8549 4.14821 1.73907 0
M  V30 433 C 45.1739 2.83796 3.36375 0
M  V30 434 H 42.2929 0.575391 0.460536 0
M  V30 435 H 44.9349 1.81232 0.570516 0
M  V30 436 H 43.0849 2.53479 2.94416 0
M  V30 437 H 44.7569 4.45917 1.18135 0
M  V30 438 H 42.9999 4.21058 1.0437 0
M  V30 439 H 43.6709 4.91147 2.51949 0
M  V30 440 H 46.1469 3.01611 2.86653 0
M  V30 441 H 45.0229 3.65971 4.09093 0
M  V30 442 H 45.2839 1.92624 3.9793 0
M  V30 443 N 44.343 -0.763751 1.37857 0
M  V30 444 C 45.306 -1.85889 1.34081 0
M  V30 445 C 46.306 -1.58949 0.243277 0
M  V30 446 O 47.496 -1.66882 0.499589 0
M  V30 447 C 44.628 -3.23176 1.08489 0
M  V30 448 H 45.821 -1.90648 2.31502 0
M  V30 449 H 43.374 -0.964367 1.23003 0
M  V30 450 H 44.109 -3.24091 0.116318 0
M  V30 451 H 43.894 -3.44124 1.8794 0
M  V30 452 H 45.384 -4.03254 1.08517 0
M  V30 453 N 45.8211 -1.22559 -0.990812 0
M  V30 454 C 47.2321 -1.04791 -1.54518 0
M  V30 455 C 47.5831 0.387998 -1.92325 0
M  V30 456 O 46.7081 1.27328 -1.74976 0
M  V30 457 C 47.3031 -1.896 -2.80779 0
M  V30 458 C 45.8621 -1.76124 -3.32652 0
M  V30 459 C 45.0091 -1.8594 -2.05722 0
M  V30 460 H 47.9601 -1.36374 -0.811662 0
M  V30 461 H 47.9811 -1.41464 -3.53225 0
M  V30 462 H 47.4931 -2.94101 -2.53231 0
M  V30 463 H 45.5941 -0.743643 -3.65104 0
M  V30 464 H 45.7071 -2.58913 -4.03114 0
M  V30 465 H 44.0711 -1.29403 -2.19379 0
M  V30 466 H 44.8541 -2.91976 -1.80568 0
M  V30 467 N 47.2992 1.18797 -1.03562 0
M  V30 468 C 48.2462 2.22253 -0.622259 0
M  V30 469 C 49.2162 1.61987 0.36736 0
M  V30 470 O 50.4012 1.88986 0.262492 0
M  V30 471 C 47.5412 3.45097 0.0138462 0
M  V30 472 C 46.6542 4.19722 -1.02263 0
M  V30 473 C 45.7892 5.30009 -0.355573 0
M  V30 474 C 44.8282 5.96399 -1.37749 0
M  V30 475 N 43.9652 6.98234 -0.735766 0
M  V30 476 H 48.8052 2.56968 -1.50903 0
M  V30 477 H 46.3422 1.26245 -0.755017 0
M  V30 478 H 48.3002 4.15279 0.399948 0
M  V30 479 H 46.9302 3.11018 0.864158 0
M  V30 480 H 45.9822 3.48418 -1.52673 0
M  V30 481 H 47.2942 4.65227 -1.79903 0
M  V30 482 H 46.4482 6.0664 0.0850095 0
M  V30 483 H 45.1872 4.85592 0.452967 0
M  V30 484 H 44.1922 5.18512 -1.82826 0
M  V30 485 H 45.4172 6.42899 -2.18764 0
M  V30 486 H 43.3632 6.55979 0.0525597 0
M  V30 487 H 43.2802 7.41965 -1.44995 0
M  V30 488 H 44.5482 7.78845 -0.31941 0
M  V30 489 N 48.7773 0.814389 1.34928 0
M  V30 490 C 50.1883 0.458364 1.80986 0
M  V30 491 C 50.5393 -1.02042 1.67577 0
M  V30 492 O 49.6643 -1.79352 1.21086 0
M  V30 493 C 50.2593 0.825212 3.28597 0
M  V30 494 C 48.8183 0.521677 3.72767 0
M  V30 495 C 47.9653 1.04668 2.56788 0
M  V30 496 H 50.9163 1.00533 1.22795 0
M  V30 497 H 50.9373 0.12571 3.80292 0
M  V30 498 H 50.4493 1.90154 3.38324 0
M  V30 499 H 48.5503 -0.545589 3.68584 0
M  V30 500 H 48.6633 1.05977 4.67232 0
M  V30 501 H 47.0273 0.468622 2.50352 0
M  V30 502 H 47.8103 2.12927 2.6929 0
M  V30 503 N 50.2554 -1.46986 0.568584 0
M  V30 504 C 51.2024 -2.30153 -0.172707 0
M  V30 505 C 52.1724 -1.39759 -0.897586 0
M  V30 506 O 53.3574 -1.68716 -0.891044 0
M  V30 507 C 50.4974 -3.23952 -1.1895 0
M  V30 508 C 49.6104 -4.29441 -0.469517 0
M  V30 509 C 48.7454 -5.1038 -1.47259 0
M  V30 510 C 47.7844 -6.07632 -0.738225 0
M  V30 511 N 46.9214 -6.8149 -1.68868 0
M  V30 512 H 51.7614 -2.93019 0.542596 0
M  V30 513 H 49.2984 -1.44422 0.279401 0
M  V30 514 H 51.2564 -3.76767 -1.79173 0
M  V30 515 H 49.8864 -2.62926 -1.87269 0
M  V30 516 H 48.9384 -3.79594 0.247467 0
M  V30 517 H 50.2504 -4.98689 0.105241 0
M  V30 518 H 49.4044 -5.67402 -2.14803 0
M  V30 519 H 48.1434 -4.4106 -2.08128 0
M  V30 520 H 47.1484 -5.49778 -0.0489293 0
M  V30 521 H 48.3734 -6.78966 -0.135129 0
M  V30 522 H 46.3194 -6.14891 -2.28573 0
M  V30 523 H 46.2364 -7.46948 -1.16636 0
M  V30 524 H 47.5044 -7.43078 -2.3549 0
M  V30 525 N 51.7335 -0.305618 -1.54608 0
M  V30 526 C 52.9795 0.302746 -2.00528 0
M  V30 527 C 53.3125 1.53184 -1.19367 0
M  V30 528 O 52.5875 1.92598 -0.271321 0
M  V30 529 C 52.8705 0.654756 -3.54097 0
M  V30 530 C 52.7235 -0.583793 -4.45995 0
M  V30 531 C 54.0425 1.47947 -4.14487 0
M  V30 532 H 51.1615 0.108564 -0.72896 0
M  V30 533 H 53.8035 -0.418634 -1.85331 0
M  V30 534 H 51.9535 1.26935 -3.67178 0
M  V30 535 H 53.6255 -1.22224 -4.44814 0
M  V30 536 H 51.8685 -1.21615 -4.16404 0
M  V30 537 H 52.5395 -0.293287 -5.5122 0
M  V30 538 H 55.0155 0.96013 -4.04871 0
M  V30 539 H 53.8915 1.69454 -5.22088 0
M  V30 540 H 54.1525 2.47011 -3.66658 0
M  V30 541 N 53.2116 1.57565 -0.0334293 0
M  V30 542 C 54.1596 2.1164 0.96496 0
M  V30 543 C 55.1536 1.04398 1.33407 0
M  V30 544 O 56.3596 1.22828 1.3158 0
M  V30 545 H 52.7346 0.676222 0.32898 0
M  V30 546 H 54.7056 2.94455 0.483614 0
M  V30 547 C 53.4546 2.66207 2.23672 0
M  V30 548 H 52.7776 3.48378 1.96145 0
M  V30 549 H 54.2176 3.07685 2.9173 0
M  V30 550 C 52.6766 1.59151 2.96939 0
M  V30 551 O 53.2066 0.993858 3.89211 0
M  V30 552 N 51.4126 1.31093 2.59351 0
M  V30 553 H 50.9596 1.7988 1.84393 0
M  V30 554 H 50.9176 0.596889 3.08682 0
M  V30 555 N 54.6897 -0.239769 1.55765 0
M  V30 556 C 56.1007 -0.808263 1.68297 0
M  V30 557 C 56.4517 -1.85736 0.632181 0
M  V30 558 O 55.5767 -2.15277 -0.220204 0
M  V30 559 C 56.1717 -1.47284 3.05111 0
M  V30 560 C 54.7307 -1.98895 3.19559 0
M  V30 561 C 53.8777 -0.842575 2.64189 0
M  V30 562 H 56.8287 -0.0154422 1.58692 0
M  V30 563 H 56.8497 -2.34111 2.99954 0
M  V30 564 H 56.3617 -0.709053 3.81568 0
M  V30 565 H 54.4627 -2.78132 2.47938 0
M  V30 566 H 54.5757 -2.18143 4.26556 0
M  V30 567 H 52.9397 -1.24501 2.22197 0
M  V30 568 H 53.7227 -0.0917552 3.43177 0
M  V30 569 N 56.1678 -1.49265 -0.50573 0
M  V30 570 C 57.4148 -1.58513 -1.26015 0
M  V30 571 C 57.7428 -0.26972 -1.92621 0
M  V30 572 O 56.9978 0.741997 -1.81088 0
M  V30 573 C 57.2968 -2.69008 -2.35308 0
M  V30 574 C 56.9628 -4.10662 -1.86192 0
M  V30 575 C 55.6248 -4.49212 -1.72516 0
M  V30 576 C 57.9768 -4.99336 -1.49375 0
M  V30 577 C 55.3048 -5.74214 -1.20394 0
M  V30 578 C 57.6568 -6.24852 -0.987072 0
M  V30 579 C 56.3208 -6.62236 -0.836669 0
M  V30 580 H 55.5908 -0.580041 -0.461122 0
M  V30 581 H 58.2378 -1.83078 -0.561665 0
M  V30 582 H 56.5428 -2.38396 -3.10926 0
M  V30 583 H 58.2398 -2.73373 -2.93374 0
M  V30 584 H 54.8298 -3.8023 -1.97795 0
M  V30 585 H 59.0138 -4.70212 -1.5879 0
M  V30 586 H 54.2698 -6.01883 -1.07458 0
M  V30 587 H 58.4438 -6.92944 -0.692983 0
M  V30 588 H 56.0708 -7.58979 -0.430607 0
M  V30 589 N 57.6459 0.756429 -1.3826 0
M  V30 590 C 59.0619 1.0591 -1.19395 0
M  V30 591 C 59.2619 2.01459 -0.0406567 0
M  V30 592 O 58.3179 2.44909 0.614467 0
M  V30 593 C 59.6309 1.64191 -2.51916 0
M  V30 594 C 61.1789 1.76376 -2.58574 0
M  V30 595 C 61.6539 2.38069 -3.91264 0
M  V30 596 N 63.1449 2.45503 -3.92788 0
M  V30 597 C 63.8799 2.94126 -4.92217 0
M  V30 598 N 63.3759 3.42805 -6.02043 0
M  V30 599 N 65.1689 2.9314 -4.7961 0
M  V30 600 H 57.3199 0.122313 -2.12048 0
M  V30 601 H 59.5829 0.116892 -0.940766 0
M  V30 602 H 59.2889 1.01451 -3.3675 0
M  V30 603 H 59.1629 2.6329 -2.70108 0
M  V30 604 H 61.5499 2.38244 -1.74137 0
M  V30 605 H 61.6309 0.759894 -2.44252 0
M  V30 606 H 61.2749 1.76835 -4.76121 0
M  V30 607 H 61.2049 3.39091 -4.02895 0
M  V30 608 H 63.6959 2.1107 -3.13461 0
M  V30 609 H 64.0089 3.78354 -6.73846 0
M  V30 610 H 62.3539 3.4087 -6.05667 0
M  V30 611 H 65.5449 2.54419 -3.92923 0
M  V30 612 H 65.7179 3.30721 -5.5725 0
M  V30 613 N 59.124 1.23083 0.984299 0
M  V30 614 C 60.535 1.05609 1.5396 0
M  V30 615 C 60.886 -0.377793 1.92528 0
M  V30 616 O 60.011 -1.26398 1.75649 0
M  V30 617 C 60.606 1.91087 2.7977 0
M  V30 618 C 59.165 1.77885 3.31713 0
M  V30 619 C 58.312 1.87028 2.04733 0
M  V30 620 H 61.263 1.36802 0.804419 0
M  V30 621 H 61.284 1.43336 3.5247 0
M  V30 622 H 60.796 2.9544 2.51668 0
M  V30 623 H 58.897 0.762995 3.64704 0
M  V30 624 H 59.01 2.61047 4.01735 0
M  V30 625 H 57.374 1.30565 2.18689 0
M  V30 626 H 58.157 2.92929 1.79017 0
M  V30 627 N 60.6021 -1.18246 1.0419 0
M  V30 628 C 61.8501 -1.87886 0.744543 0
M  V30 629 C 62.1711 -1.8082 -0.730006 0
M  V30 630 O 61.4411 -1.22736 -1.52685 0
M  V30 631 H 60.0211 -0.695556 0.272417 0
M  V30 632 H 62.6831 -1.43494 1.31892 0
M  V30 633 H 61.7791 -2.9389 1.05049 0
M  V30 634 N 62.0802 -0.821533 -1.34494 0
M  V30 635 C 63.3572 -0.33159 -1.92769 0
M  V30 636 C 63.7372 1.18088 -1.74981 0
M  V30 637 O 63.0852 1.98733 -1.12772 0
M  V30 638 C 63.2952 -0.759398 -3.40638 0
M  V30 639 C 64.6432 -0.757433 -4.1779 0
M  V30 640 O 65.6672 -0.70189 -3.49216 0
M  V30 641 O 64.5262 -0.829361 -5.4017 0
M  V30 642 H 61.6202 -0.0902502 -0.822061 0
M  V30 643 H 64.1662 -0.906231 -1.43477 0
M  V30 644 H 62.9382 -1.8012 -3.47379 0
M  V30 645 H 62.5612 -0.160378 -3.97276 0
M  V30 646 N 63.5583 1.46682 -0.576371 0
M  V30 647 C 64.7833 2.07304 -0.0630475 0
M  V30 648 C 65.2083 1.42329 1.2298 0
M  V30 649 O 64.5663 0.504865 1.74129 0
M  V30 650 C 64.6143 3.60472 0.095895 0
M  V30 651 O 63.7183 3.95927 1.15394 0
M  V30 652 H 63.0593 0.661288 -0.0599463 0
M  V30 653 H 65.5893 1.88417 -0.797511 0
M  V30 654 H 65.5993 4.06865 0.304071 0
M  V30 655 H 64.2743 4.07157 -0.84828 0
M  V30 656 H 62.8513 3.61252 0.924724 0
M  V30 657 N 65.0364 0.313813 1.54444 0
M  V30 658 C 65.9464 -0.565714 2.27677 0
M  V30 659 C 66.9624 -1.13754 1.31666 0
M  V30 660 O 68.1384 -1.15959 1.64668 0
M  V30 661 C 65.2034 -1.71528 3.01296 0
M  V30 662 C 64.2644 -1.17624 4.12872 0
M  V30 663 C 63.4974 -2.27102 4.8297 0
M  V30 664 O 63.7204 -3.47256 4.52514 0
M  V30 665 O 62.6544 -1.9307 5.70094 0
M  V30 666 H 66.4804 0.0287296 3.03686 0
M  V30 667 H 64.0654 0.0798312 1.49187 0
M  V30 668 H 65.9474 -2.38476 3.4743 0
M  V30 669 H 64.6224 -2.29608 2.2817 0
M  V30 670 H 63.5294 -0.472124 3.71109 0
M  V30 671 H 64.8624 -0.640695 4.88012 0
M  V30 672 N 66.5145 -1.57545 0.0417849 0
M  V30 673 C 67.9255 -1.80011 -0.495259 0
M  V30 674 C 68.2765 -0.953199 -1.71489 0
M  V30 675 O 67.4015 -0.167138 -2.15754 0
M  V30 676 C 67.9965 -3.26482 -0.905265 0
M  V30 677 C 66.5555 -3.499 -1.38734 0
M  V30 678 C 65.7025 -2.74979 -0.358056 0
M  V30 679 H 68.6535 -1.56425 0.267736 0
M  V30 680 H 68.6745 -3.36887 -1.76882 0
M  V30 681 H 68.1865 -3.88096 -0.017401 0
M  V30 682 H 66.2875 -2.93553 -2.29471 0
M  V30 683 H 66.4005 -4.58615 -1.38598 0
M  V30 684 H 64.7645 -2.40834 -0.828912 0
M  V30 685 H 65.5475 -3.39315 0.521561 0
M  V30 686 N 67.9926 0.231505 -1.5589 0
M  V30 687 C 69.4036 0.799327 -1.68724 0
M  V30 688 C 69.7546 1.85398 -0.642022 0
M  V30 689 O 68.8796 2.1539 0.208784 0
M  V30 690 C 69.4746 1.45664 -3.05888 0
M  V30 691 C 68.0336 1.97197 -3.20609 0
M  V30 692 C 67.1806 0.828552 -2.64632 0
M  V30 693 H 70.1316 0.00702616 -1.58698 0
M  V30 694 H 70.1526 2.32517 -3.01191 0
M  V30 695 H 69.6646 0.688808 -3.81939 0
M  V30 696 H 67.7656 2.76813 -2.4941 0
M  V30 697 H 67.8786 2.15878 -4.27707 0
M  V30 698 H 66.2426 1.23321 -2.22854 0
M  V30 699 H 67.0256 0.0735544 -3.43221 0
M  V30 700 N 69.4707 1.49531 0.497807 0
M  V30 701 C 70.8817 1.52344 1.07927 0
M  V30 702 C 71.2327 0.311469 1.93712 0
M  V30 703 O 70.3577 -0.578405 2.08527 0
M  V30 704 C 70.9527 2.76062 1.96405 0
M  V30 705 C 69.5117 2.81643 2.49709 0
M  V30 706 C 68.6587 2.46299 1.27404 0
M  V30 707 H 71.6097 1.56182 0.281576 0
M  V30 708 H 71.6307 2.56405 2.81135 0
M  V30 709 H 71.1427 3.64254 1.33943 0
M  V30 710 H 69.2437 1.97739 3.15801 0
M  V30 711 H 69.3567 3.83891 2.86643 0
M  V30 712 H 67.7207 1.98148 1.60029 0
M  V30 713 H 68.5037 3.36769 0.66645 0
M  V30 714 N 70.9488 -0.749086 1.3866 0
M  V30 715 C 71.9118 -1.84457 1.36045 0
M  V30 716 C 72.9118 -1.58682 0.260122 0
M  V30 717 O 74.1018 -1.66343 0.517261 0
M  V30 718 C 71.2338 -3.22008 1.11911 0
M  V30 719 H 72.4268 -1.88182 2.33512 0
M  V30 720 H 69.9798 -0.951266 1.24019 0
M  V30 721 H 70.7148 -3.2395 0.150686 0
M  V30 722 H 70.4998 -3.42111 1.91579 0
M  V30 723 H 71.9898 -4.0208 1.12788 0
M  V30 724 N 72.4269 -1.23603 -0.977757 0
M  V30 725 C 73.8379 -1.06424 -1.53398 0
M  V30 726 C 74.1889 0.367578 -1.92726 0
M  V30 727 O 73.3139 1.25465 -1.76316 0
M  V30 728 C 73.9089 -1.92568 -2.78753 0
M  V30 729 C 72.4679 -1.79642 -3.30765 0
M  V30 730 C 71.6149 -1.88111 -2.03739 0
M  V30 731 H 74.5659 -1.37227 -0.797152 0
M  V30 732 H 74.5869 -1.45203 -3.51705 0
M  V30 733 H 74.0989 -2.96771 -2.50098 0
M  V30 734 H 72.1999 -0.782325 -3.64294 0
M  V30 735 H 72.3129 -2.63174 -4.00345 0
M  V30 736 H 70.6769 -1.31723 -2.17994 0
M  V30 737 H 71.4599 -2.93875 -1.77461 0
M  V30 738 N 73.905 1.17692 -1.04816 0
M  V30 739 C 75.153 1.87488 -0.754497 0
M  V30 740 C 75.474 1.81205 0.720407 0
M  V30 741 O 74.744 1.23544 1.52032 0
M  V30 742 H 73.324 0.694101 -0.276102 0
M  V30 743 H 75.986 1.42793 -1.32651 0
M  V30 744 H 75.082 2.93328 -1.06606 0
M  V30 745 N 75.3831 0.828654 1.34056 0
M  V30 746 C 76.3461 0.259927 2.27721 0
M  V30 747 C 77.3461 -0.565478 1.50529 0
M  V30 748 O 78.5361 -0.38075 1.69988 0
M  V30 749 C 75.6681 -0.634944 3.34935 0
M  V30 750 H 76.8611 1.0863 2.79534 0
M  V30 751 H 74.4141 0.600951 1.44285 0
M  V30 752 H 75.1491 -1.48416 2.88346 0
M  V30 753 H 74.9341 -0.0444999 3.92075 0
M  V30 754 H 76.4241 -1.02648 4.04788 0
M  V30 755 N 76.8612 -1.46375 0.584142 0
M  V30 756 C 77.7932 -2.28443 -0.186119 0
M  V30 757 C 78.8062 -1.38596 -0.854115 0
M  V30 758 O 79.9952 -1.63183 -0.723438 0
M  V30 759 C 77.0952 -3.13671 -1.28311 0
M  V30 760 C 76.2682 -4.31652 -0.706758 0
M  V30 761 C 75.3272 -4.98267 -1.69163 0
M  V30 762 O 74.3532 -5.55815 -1.22712 0
M  V30 763 N 75.5552 -4.95408 -3.02575 0
M  V30 764 H 78.3202 -2.9519 0.517986 0
M  V30 765 H 75.8812 -1.56303 0.42201 0
M  V30 766 H 77.8732 -3.55101 -1.94128 0
M  V30 767 H 76.4432 -2.48989 -1.89005 0
M  V30 768 H 75.6632 -3.93989 0.128908 0
M  V30 769 H 76.9512 -5.07906 -0.301506 0
M  V30 770 H 76.3492 -4.49902 -3.42936 0
M  V30 771 H 74.9062 -5.40774 -3.63877 0
M  V30 772 N 78.3393 -0.321999 -1.54275 0
M  V30 773 C 79.7553 0.0306999 -1.5957 0
M  V30 774 C 79.9553 1.50614 -1.33857 0
M  V30 775 O 79.0113 2.2619 -1.12223 0
M  V30 776 C 80.3243 -0.386122 -2.98211 0
M  V30 777 C 81.8723 -0.336647 -3.11184 0
M  V30 778 C 82.3473 -0.728607 -4.52167 0
M  V30 779 N 83.8383 -0.681952 -4.58152 0
M  V30 780 C 84.5733 -0.957449 -5.6535 0
M  V30 781 N 84.0693 -1.3 -6.80494 0
M  V30 782 N 85.8623 -0.883113 -5.55119 0
M  V30 783 H 78.0133 -1.28332 -1.69247 0
M  V30 784 H 80.2763 -0.521716 -0.791528 0
M  V30 785 H 79.9823 -1.41404 -3.22022 0
M  V30 786 H 79.8563 0.249662 -3.76373 0
M  V30 787 H 82.2433 0.682058 -2.8711 0
M  V30 788 H 82.3243 -1.00734 -2.3513 0
M  V30 789 H 81.9683 -1.74522 -4.76974 0
M  V30 790 H 81.8983 -0.0356152 -5.26588 0
M  V30 791 H 84.3893 -0.428985 -3.75457 0
M  V30 792 H 84.7023 -1.49563 -7.58189 0
M  V30 793 H 83.0473 -1.33824 -6.81994 0
M  V30 794 H 86.2383 -0.615001 -4.64042 0
M  V30 795 H 86.4113 -1.10118 -6.38575 0
M  V30 796 N 79.8174 1.5752 -0.0501392 0
M  V30 797 C 80.7804 2.1037 0.909786 0
M  V30 798 C 81.7804 1.02308 1.24056 0
M  V30 799 O 82.9704 1.28385 1.17741 0
M  V30 800 C 80.1024 2.58708 2.21998 0
M  V30 801 H 81.2954 2.96479 0.451665 0
M  V30 802 H 78.8484 1.55038 0.198248 0
M  V30 803 H 79.5834 1.75989 2.72394 0
M  V30 804 H 79.3684 3.37675 1.99295 0
M  V30 805 H 80.8584 2.99747 2.9076 0
M  V30 806 N 81.2955 -0.223234 1.56011 0
M  V30 807 C 82.2275 -1.30006 1.88762 0
M  V30 808 C 83.2405 -1.43129 0.775746 0
M  V30 809 O 84.4295 -1.44057 1.05403 0
M  V30 810 C 81.5295 -2.67589 2.07965 0
M  V30 811 C 80.7025 -2.76434 3.38973 0
M  V30 812 C 79.7615 -3.95019 3.47629 0
M  V30 813 O 78.7875 -3.83436 4.20672 0
M  V30 814 N 79.9895 -5.09249 2.78649 0
M  V30 815 H 82.7545 -1.02238 2.81722 0
M  V30 816 H 80.3155 -0.413278 1.56536 0
M  V30 817 H 82.3075 -3.45297 2.11073 0
M  V30 818 H 80.8775 -2.87964 1.21638 0
M  V30 819 H 80.0975 -1.85216 3.47978 0
M  V30 820 H 81.3855 -2.79313 4.25278 0
M  V30 821 H 80.7835 -5.21556 2.19081 0
M  V30 822 H 79.3405 -5.85007 2.8742 0
M  V30 823 N 82.7736 -1.49793 -0.48987 0
M  V30 824 C 83.7066 -1.61898 -1.60823 0
M  V30 825 C 84.6846 -0.467651 -1.5573 0
M  V30 826 O 85.8686 -0.684682 -1.75626 0
M  V30 827 C 82.9956 -1.58422 -2.99366 0
M  V30 828 C 82.0416 -2.78889 -3.22682 0
M  V30 829 S 82.8746 -4.40429 -3.04602 0
M  V30 830 C 84.0306 -4.39617 -4.4552 0
M  V30 831 H 84.2636 -2.56502 -1.50312 0
M  V30 832 H 81.7966 -1.38822 -0.675849 0
M  V30 833 H 83.7546 -1.57103 -3.79248 0
M  V30 834 H 82.4156 -0.650866 -3.07283 0
M  V30 835 H 81.6086 -2.72708 -4.23847 0
M  V30 836 H 81.2106 -2.77678 -2.50541 0
M  V30 837 H 83.5026 -4.12022 -5.37814 0
M  V30 838 H 84.4456 -5.41097 -4.56749 0
M  V30 839 H 84.8536 -3.69554 -4.2672 0
M  V30 840 N 84.2517 0.741722 -1.39055 0
M  V30 841 C 85.4997 1.49818 -1.35643 0
M  V30 842 C 85.8207 1.94938 0.0491642 0
M  V30 843 O 85.0907 1.68505 0.999141 0
M  V30 844 H 83.6707 0.555755 -0.499144 0
M  V30 845 H 86.3327 0.880957 -1.73854 0
M  V30 846 H 85.4287 2.38348 -2.01486 0
M  V30 847 N 85.7298 1.2412 0.971189 0
M  V30 848 C 87.1458 1.00584 1.23916 0
M  V30 849 C 87.3458 -0.287481 1.99439 0
M  V30 850 O 86.4018 -1.00454 2.31658 0
M  V30 851 C 87.7148 2.21864 2.0297 0
M  V30 852 C 89.2628 2.26452 2.16076 0
M  V30 853 C 89.7378 3.47343 2.98524 0
M  V30 854 N 91.2288 3.47639 3.06107 0
M  V30 855 C 91.9638 4.37837 3.70251 0
M  V30 856 N 91.4598 5.38286 4.36142 0
M  V30 857 N 93.2528 4.25558 3.67228 0
M  V30 858 H 85.4038 2.07236 0.465499 0
M  V30 859 H 87.6668 0.909236 0.268315 0
M  V30 860 H 87.3728 3.15771 1.54861 0
M  V30 861 H 87.2468 2.23698 3.03709 0
M  V30 862 H 89.6338 1.33078 2.6339 0
M  V30 863 H 89.7148 2.28645 1.14696 0
M  V30 864 H 89.3588 4.41029 2.51905 0
M  V30 865 H 89.2888 3.42393 4.00093 0
M  V30 866 H 91.7798 2.74966 2.59233 0
M  V30 867 H 92.0928 6.03352 4.82894 0
M  V30 868 H 90.4378 5.42176 4.34822 0
M  V30 869 H 93.6288 3.46322 3.14927 0
M  V30 870 H 93.8018 4.96054 4.16935 0
M  V30 871 N 87.2079 -1.17134 1.05439 0
M  V30 872 C 88.4539 -1.87733 0.767077 0
M  V30 873 C 88.7869 -1.8098 -0.704253 0
M  V30 874 O 88.0619 -1.21951 -1.5152 0
M  V30 875 C 88.3449 -3.37659 1.25133 0
M  V30 876 C 88.1979 -3.53149 2.78578 0
M  V30 877 C 89.5169 -4.31768 0.852324 0
M  V30 878 H 86.6359 -0.681687 0.280129 0
M  V30 879 H 89.2779 -1.37732 1.30881 0
M  V30 880 H 87.4279 -3.80373 0.790469 0
M  V30 881 H 89.0999 -3.19434 3.32806 0
M  V30 882 H 87.3429 -2.95345 3.17732 0
M  V30 883 H 88.0139 -4.58403 3.07523 0
M  V30 884 H 90.4899 -3.96909 1.24911 0
M  V30 885 H 89.3659 -5.35199 1.21873 0
M  V30 886 H 89.6269 -4.41429 -0.243485 0
M  V30 887 N 88.686 -0.835752 -1.33615 0
M  V30 888 C 89.934 -0.429109 -1.97492 0
M  V30 889 C 90.255 1.01433 -1.66543 0
M  V30 890 O 89.525 1.70611 -0.962744 0
M  V30 891 H 88.105 -0.155686 -0.730596 0
M  V30 892 H 90.767 -1.06802 -1.63031 0
M  V30 893 H 89.863 -0.55861 -3.0706 0
M  V30 894 N 90.1641 1.46063 -0.591896 0
M  V30 895 C 91.0741 2.34192 0.13831 0
M  V30 896 C 92.0901 1.50305 0.876608 0
M  V30 897 O 93.2661 1.8315 0.837728 0
M  V30 898 C 90.3311 3.27656 1.13326 0
M  V30 899 C 89.3921 4.27445 0.39863 0
M  V30 900 C 88.6251 5.16443 1.34618 0
M  V30 901 O 88.8481 5.08553 2.58321 0
M  V30 902 O 87.7821 5.95843 0.851768 0
M  V30 903 H 91.6081 2.98002 -0.58552 0
M  V30 904 H 89.1931 1.45188 -0.352239 0
M  V30 905 H 91.0751 3.85291 1.70671 0
M  V30 906 H 89.7501 2.6643 1.83839 0
M  V30 907 H 88.6571 3.73471 -0.216895 0
M  V30 908 H 89.9901 4.91482 -0.265709 0
M  V30 909 N 91.6422 0.330177 1.54103 0
M  V30 910 C 92.8912 -0.271336 1.99867 0
M  V30 911 C 93.2042 -1.52723 1.22209 0
M  V30 912 O 94.4102 -2.20515 1.58383 0
M  V30 913 C 92.8662 -0.534032 3.55916 0
M  V30 914 C 92.4742 0.705193 4.42415 0
M  V30 915 C 94.2182 -1.09514 4.1013 0
M  V30 916 C 92.1252 0.414035 5.89949 0
M  V30 917 H 91.0552 -0.105166 0.74663 0
M  V30 918 H 93.7062 0.443429 1.78062 0
M  V30 919 H 92.0882 -1.30915 3.73734 0
M  V30 920 H 93.2622 1.4804 4.36372 0
M  V30 921 H 91.5772 1.18698 3.99124 0
M  V30 922 H 94.1742 -1.3277 5.17954 0
M  V30 923 H 94.5172 -2.04656 3.62521 0
M  V30 924 H 95.0502 -0.381038 3.95971 0
M  V30 925 H 91.7892 1.33481 6.41766 0
M  V30 926 H 91.3092 -0.323336 5.98928 0
M  V30 927 H 92.9882 0.0263105 6.46995 0
M  V30 928 N 93.1203 -1.57491 0.0584922 0
M  V30 929 C 94.5313 -1.80526 -0.476138 0
M  V30 930 C 94.8823 -0.971334 -1.70469 0
M  V30 931 O 94.0073 -0.190012 -2.15564 0
M  V30 932 C 94.6023 -3.27424 -0.870587 0
M  V30 933 C 93.1613 -3.51351 -1.35015 0
M  V30 934 C 92.3083 -2.75343 -0.32887 0
M  V30 935 H 95.2593 -1.56133 0.284312 0
M  V30 936 H 95.2803 -3.38745 -1.73299 0
M  V30 937 H 94.7923 -3.88093 0.0237627 0
M  V30 938 H 92.8933 -2.95971 -2.26345 0
M  V30 939 H 93.0063 -4.60059 -1.33726 0
M  V30 940 H 91.3703 -2.417 -0.803321 0
M  V30 941 H 92.1533 -3.38743 0.557521 0
M  V30 942 N 94.5984 0.214957 -1.56127 0
M  V30 943 C 96.0094 0.781386 -1.69562 0
M  V30 944 C 96.3604 1.84707 -0.66165 0
M  V30 945 O 95.4854 2.156 0.185927 0
M  V30 946 C 96.0804 1.42411 -3.07416 0
M  V30 947 C 94.6394 1.93786 -3.22683 0
M  V30 948 C 93.7864 0.800438 -2.65496 0
M  V30 949 H 96.7374 -0.00980633 -1.58697 0
M  V30 950 H 96.7584 2.29309 -3.0364 0
M  V30 951 H 96.2704 0.64826 -3.82648 0
M  V30 952 H 94.3714 2.74152 -2.52332 0
M  V30 953 H 94.4844 2.1133 -4.29973 0
M  V30 954 H 92.8484 1.2095 -2.2415 0
M  V30 955 H 93.6314 0.0371471 -3.4328 0
M  V30 956 N 96.0765 1.50051 0.48192 0
M  V30 957 C 97.4875 1.5348 1.06305 0
M  V30 958 C 97.8385 0.331997 1.93371 0
M  V30 959 O 96.9635 -0.556256 2.09129 0
M  V30 960 C 97.5585 2.7813 1.93466 0
M  V30 961 C 96.1175 2.84275 2.46707 0
M  V30 962 C 95.2645 2.47637 1.24785 0
M  V30 963 H 98.2155 1.56472 0.264995 0
M  V30 964 H 98.2365 2.59372 2.78399 0
M  V30 965 H 97.7485 3.65654 1.30072 0
M  V30 966 H 95.8495 2.01077 3.13686 0
M  V30 967 H 95.9625 3.8691 2.82555 0
M  V30 968 H 94.3265 1.99835 1.57918 0
M  V30 969 H 95.1095 3.37457 0.630694 0
M  V30 970 N 97.5546 -0.734337 1.39446 0
M  V30 971 C 98.9656 -1.31264 1.32766 0
M  V30 972 C 99.3166 -1.96198 -0.00767497 0
M  V30 973 O 98.4416 -1.96346 -0.909796 0
M  V30 974 C 99.0366 -2.38682 2.4045 0
M  V30 975 C 97.5956 -2.92184 2.37288 0
M  V30 976 C 96.7426 -1.6576 2.22304 0
M  V30 977 H 99.6936 -0.531799 1.49525 0
M  V30 978 H 99.7146 -3.19087 2.07276 0
M  V30 979 H 99.2266 -1.91392 3.37625 0
M  V30 980 H 97.3276 -3.43752 1.43754 0
M  V30 981 H 97.4406 -3.45253 3.3217 0
M  V30 982 H 95.8046 -1.9012 1.69489 0
M  V30 983 H 96.5876 -1.20521 3.21449 0
M  V30 984 N 99.0327 -1.24633 -0.964593 0
M  V30 985 C 100.444 -1.08045 -1.5226 0
M  V30 986 C 100.795 0.347116 -1.93105 0
M  V30 987 O 99.9197 1.23588 -1.77637 0
M  V30 988 C 100.515 -1.95514 -2.76695 0
M  V30 989 C 99.0737 -1.8314 -3.28841 0
M  V30 990 C 98.2207 -1.90262 -2.01732 0
M  V30 991 H 101.172 -1.38064 -0.782553 0
M  V30 992 H 101.193 -1.48925 -3.50145 0
M  V30 993 H 100.705 -2.99407 -2.46936 0
M  V30 994 H 98.8057 -0.82092 -3.63444 0
M  V30 995 H 98.9187 -2.67406 -3.97531 0
M  V30 996 H 97.2827 -1.34027 -2.16584 0
M  V30 997 H 98.0657 -2.9574 -1.74334 0
M  V30 998 N 100.511 1.16574 -1.06058 0
M  V30 999 C 101.421 2.2452 -0.680282 0
M  V30 1000 C 102.437 1.71348 0.302604 0
M  V30 1001 O 103.613 2.00822 0.152513 0
M  V30 1002 C 100.678 3.46629 -0.0700315 0
M  V30 1003 C 99.7388 4.14849 -1.10448 0
M  V30 1004 C 98.9718 5.31129 -0.523256 0
M  V30 1005 O 99.1948 5.66514 0.664709 0
M  V30 1006 O 98.1288 5.88526 -1.26179 0
M  V30 1007 H 101.955 2.59355 -1.58015 0
M  V30 1008 H 99.5398 1.24043 -0.832694 0
M  V30 1009 H 101.422 4.20543 0.268667 0
M  V30 1010 H 100.097 3.13573 0.803353 0
M  V30 1011 H 99.0038 3.42916 -1.49532 0
M  V30 1012 H 100.337 4.51954 -1.94931 0
M  V30 1013 N 101.989 0.842826 1.3317 0
M  V30 1014 C 103.266 0.362216 1.92217 0
M  V30 1015 C 103.646 -1.15289 1.76838 0
M  V30 1016 O 102.994 -1.96914 1.15919 0
M  V30 1017 C 103.204 0.813495 3.39387 0
M  V30 1018 C 104.552 0.823804 4.16532 0
M  V30 1019 O 105.576 0.757358 3.48055 0
M  V30 1020 O 104.435 0.915193 5.38782 0
M  V30 1021 H 101.529 0.103317 0.820521 0
M  V30 1022 H 104.075 0.928942 1.42017 0
M  V30 1023 H 102.847 1.85624 3.4447 0
M  V30 1024 H 102.47 0.223561 3.96971 0
M  V30 1025 N 103.467 -1.45747 0.599634 0
M  V30 1026 C 104.714 -2.02292 0.0917284 0
M  V30 1027 C 105.042 -1.46906 -1.27472 0
M  V30 1028 O 104.297 -0.630652 -1.8526 0
M  V30 1029 C 104.596 -3.57399 -0.00602758 0
M  V30 1030 C 104.262 -4.31902 1.29503 0
M  V30 1031 C 102.924 -4.51974 1.65144 0
M  V30 1032 C 105.276 -4.74551 2.15525 0
M  V30 1033 C 102.604 -5.11949 2.86574 0
M  V30 1034 C 104.956 -5.35868 3.36196 0
M  V30 1035 C 103.62 -5.54165 3.72099 0
M  V30 1036 H 102.89 -0.740239 0.0335658 0
M  V30 1037 H 105.537 -1.7491 0.779661 0
M  V30 1038 H 103.842 -3.84014 -0.777183 0
M  V30 1039 H 105.539 -3.98846 -0.415038 0
M  V30 1040 H 102.129 -4.16588 1.00761 0
M  V30 1041 H 106.313 -4.58784 1.8929 0
M  V30 1042 H 101.569 -5.24305 3.14507 0
M  V30 1043 H 105.743 -5.6787 4.03109 0
M  V30 1044 H 103.37 -6.00406 4.6628 0
M  V30 1045 N 104.945 -0.338344 -1.53925 0
M  V30 1046 C 106.356 0.146651 -1.86123 0
M  V30 1047 C 106.707 1.5042 -1.2597 0
M  V30 1048 O 105.832 2.08723 -0.571294 0
M  V30 1049 C 106.427 0.272879 -3.37699 0
M  V30 1050 C 104.986 0.702103 -3.69794 0
M  V30 1051 C 104.133 -0.167304 -2.76795 0
M  V30 1052 H 107.084 -0.558123 -1.48562 0
M  V30 1053 H 107.105 1.10128 -3.64214 0
M  V30 1054 H 106.617 -0.715307 -3.81451 0
M  V30 1055 H 104.718 1.6995 -3.31584 0
M  V30 1056 H 104.831 0.495604 -4.7653 0
M  V30 1057 H 103.195 0.359527 -2.5215 0
M  V30 1058 H 103.978 -1.15253 -3.23375 0
M  V30 1059 N 106.423 1.57458 -0.0668435 0
M  V30 1060 C 107.353 2.15468 0.899764 0
M  V30 1061 C 108.334 1.08042 1.31381 0
M  V30 1062 O 109.519 1.36054 1.38574 0
M  V30 1063 C 106.649 2.71232 2.16911 0
M  V30 1064 C 105.603 3.83781 1.89463 0
M  V30 1065 C 104.929 4.26127 3.22986 0
M  V30 1066 C 106.229 5.08238 1.20381 0
M  V30 1067 H 107.923 2.96488 0.416529 0
M  V30 1068 H 105.469 1.4262 0.198908 0
M  V30 1069 H 107.422 3.10458 2.84945 0
M  V30 1070 H 106.146 1.87426 2.67468 0
M  V30 1071 H 104.805 3.45051 1.23836 0
M  V30 1072 H 104.453 3.39249 3.71374 0
M  V30 1073 H 104.153 5.01993 3.05413 0
M  V30 1074 H 105.677 4.67966 3.92225 0
M  V30 1075 H 107.091 5.44811 1.78475 0
M  V30 1076 H 105.488 5.89349 1.13083 0
M  V30 1077 H 106.558 4.84558 0.182153 0
M  V30 1078 N 107.901 -0.206675 1.56239 0
M  V30 1079 C 109.312 -0.772383 1.69974 0
M  V30 1080 C 109.663 -1.84353 0.671436 0
M  V30 1081 O 108.788 -2.15695 -0.174491 0
M  V30 1082 C 109.383 -1.40779 3.08167 0
M  V30 1083 C 107.942 -1.92072 3.23706 0
M  V30 1084 C 107.089 -0.786347 2.65917 0
M  V30 1085 H 110.04 0.0182223 1.5869 0
M  V30 1086 H 110.061 -2.27696 3.04852 0
M  V30 1087 H 109.573 -0.627958 3.82986 0
M  V30 1088 H 107.674 -2.7281 2.53782 0
M  V30 1089 H 107.787 -2.09046 4.31087 0
M  V30 1090 H 106.151 -1.1976 2.24788 0
M  V30 1091 H 106.934 -0.0189416 3.43295 0
M  V30 1092 N 109.379 -1.50304 -0.473955 0
M  V30 1093 C 110.79 -1.54042 -1.0549 0
M  V30 1094 C 111.141 -0.342248 -1.93192 0
M  V30 1095 O 110.266 0.545157 -2.09421 0
M  V30 1096 C 110.861 -2.79152 -1.91989 0
M  V30 1097 C 109.42 -2.8558 -2.45196 0
M  V30 1098 C 108.567 -2.48295 -1.2347 0
M  V30 1099 H 111.518 -1.5661 -0.256693 0
M  V30 1100 H 111.539 -2.60845 -2.7702 0
M  V30 1101 H 111.051 -3.66339 -1.28131 0
M  V30 1102 H 109.152 -2.02738 -3.12615 0
M  V30 1103 H 109.265 -3.88403 -2.80499 0
M  V30 1104 H 107.629 -2.00669 -1.56856 0
M  V30 1105 H 108.412 -3.37787 -0.612789 0
M  V30 1106 N 110.857 0.726932 -1.39834 0
M  V30 1107 C 112.268 1.30558 -1.3346 0
M  V30 1108 C 112.619 1.962 -0.00273003 0
M  V30 1109 O 111.744 1.96826 0.899371 0
M  V30 1110 C 112.339 2.37404 -2.41713 0
M  V30 1111 C 110.898 2.90921 -2.38835 0
M  V30 1112 C 110.045 1.64578 -2.2318 0
M  V30 1113 H 112.996 0.523862 -1.49804 0
M  V30 1114 H 113.017 3.17984 -2.08966 0
M  V30 1115 H 112.529 1.89599 -3.38635 0
M  V30 1116 H 110.63 3.42985 -1.45575 0
M  V30 1117 H 110.743 3.43487 -3.33997 0
M  V30 1118 H 109.107 1.89219 -1.70494 0
M  V30 1119 H 109.89 1.18814 -3.22084 0
M  V30 1120 N 112.336 1.25143 0.95797 0
M  V30 1121 C 113.747 1.08851 1.51685 0
M  V30 1122 C 114.098 -0.33687 1.93286 0
M  V30 1123 O 113.223 -1.22644 1.7829 0
M  V30 1124 C 113.818 1.96978 2.75654 0
M  V30 1125 C 112.377 1.84881 3.27866 0
M  V30 1126 C 111.524 1.91329 2.0072 0
M  V30 1127 H 114.475 1.38478 0.77522 0
M  V30 1128 H 114.496 1.5078 3.4935 0
M  V30 1129 H 114.008 3.00712 2.45345 0
M  V30 1130 H 112.109 0.840182 3.63004 0
M  V30 1131 H 112.222 2.6951 3.96107 0
M  V30 1132 H 110.586 1.35174 2.15871 0
M  V30 1133 H 111.369 2.96661 1.72764 0
M  V30 1134 N 113.814 -1.1601 1.06675 0
M  V30 1135 C 114.744 -2.22688 0.702307 0
M  V30 1136 C 115.725 -1.67306 -0.307032 0
M  V30 1137 O 116.91 -1.93352 -0.181305 0
M  V30 1138 C 114.04 -3.47178 0.092038 0
M  V30 1139 C 112.994 -4.15477 1.02777 0
M  V30 1140 C 112.32 -5.33963 0.28061 0
M  V30 1141 C 113.62 -4.66019 2.35846 0
M  V30 1142 H 115.314 -2.53429 1.59419 0
M  V30 1143 H 112.86 -1.21813 0.767961 0
M  V30 1144 H 114.813 -4.21037 -0.174814 0
M  V30 1145 H 113.537 -3.15749 -0.834877 0
M  V30 1146 H 112.196 -3.43549 1.27944 0
M  V30 1147 H 111.844 -4.98788 -0.649545 0
M  V30 1148 H 111.544 -5.806 0.904258 0
M  V30 1149 H 113.068 -6.10596 0.021396 0
M  V30 1150 H 114.482 -5.3144 2.15045 0
M  V30 1151 H 112.879 -5.23293 2.93743 0
M  V30 1152 H 113.949 -3.82023 2.98641 0
M  V30 1153 N 115.292 -0.849877 -1.32721 0
M  V30 1154 C 116.255 -0.296122 -2.27279 0
M  V30 1155 C 117.255 0.541458 -1.5141 0
M  V30 1156 O 118.445 0.353658 -1.70572 0
M  V30 1157 C 115.577 0.581579 -3.35902 0
M  V30 1158 H 116.77 -1.13064 -2.77771 0
M  V30 1159 H 114.323 -0.62383 -1.43311 0
M  V30 1160 H 115.058 1.43809 -2.9067 0
M  V30 1161 H 114.843 -0.0178814 -3.92096 0
M  V30 1162 H 116.333 0.961951 -4.0637 0
M  V30 1163 N 116.77 1.45427 -0.607355 0
M  V30 1164 C 118.018 2.01841 -0.102253 0
M  V30 1165 C 118.339 1.47832 1.27164 0
M  V30 1166 O 117.609 0.672497 1.83995 0
M  V30 1167 H 116.189 0.746188 -0.0348101 0
M  V30 1168 H 118.851 1.78229 -0.7887 0
M  V30 1169 H 117.947 3.12057 -0.0518585 0
M  V30 1170 N 118.248 0.346503 1.53744 0
M  V30 1171 C 119.525 -0.304532 1.93215 0
M  V30 1172 C 119.905 -1.67993 1.27834 0
M  V30 1173 O 119.253 -2.24411 0.430352 0
M  V30 1174 C 119.463 -0.373852 3.46992 0
M  V30 1175 C 120.811 -0.62329 4.2 0
M  V30 1176 O 121.835 -0.455847 3.53271 0
M  V30 1177 O 120.694 -0.947879 5.38217 0
M  V30 1178 H 117.788 -0.178318 0.807547 0
M  V30 1179 H 120.334 0.397895 1.64969 0
M  V30 1180 H 119.106 0.591224 3.86808 0
M  V30 1181 H 118.729 -1.12294 3.81413 0
M  V30 1182 N 119.726 -1.57421 0.075193 0
M  V30 1183 C 120.974 -1.93236 -0.591974 0
M  V30 1184 C 121.295 -0.956241 -1.69944 0
M  V30 1185 O 120.565 -0.00494792 -1.95899 0
M  V30 1186 H 119.145 -0.713355 -0.22166 0
M  V30 1187 H 121.807 -1.9444 0.133848 0
M  V30 1188 H 120.903 -2.95131 -1.01509 0
M  V30 1189 N 121.204 0.198386 -1.56346 0
M  V30 1190 C 122.481 0.944982 -1.71258 0
M  V30 1191 C 122.861 2.0151 -0.629048 0
M  V30 1192 O 122.209 2.25639 0.360473 0
M  V30 1193 C 122.419 1.5344 -3.1346 0
M  V30 1194 C 123.767 2.01778 -3.73591 0
M  V30 1195 O 124.791 1.63288 -3.16568 0
M  V30 1196 O 123.65 2.72594 -4.73661 0
M  V30 1197 H 120.744 0.442939 -0.69838 0
M  V30 1198 H 123.29 0.188342 -1.68652 0
M  V30 1199 H 122.062 0.762869 -3.83792 0
M  V30 1200 H 121.685 2.35596 -3.20282 0
M  V30 1201 N 122.682 1.50554 0.465978 0
M  V30 1202 C 123.959 1.5232 1.22712 0
M  V30 1203 C 124.339 0.270807 2.09356 0
M  V30 1204 O 123.687 -0.745541 2.15995 0
M  V30 1205 C 123.897 2.82175 2.05374 0
M  V30 1206 C 125.245 3.33033 2.6339 0
M  V30 1207 O 126.269 2.83531 2.15612 0
M  V30 1208 O 125.128 4.19336 3.50456 0
M  V30 1209 H 122.222 0.611183 0.557122 0
M  V30 1210 H 124.768 1.62847 0.477381 0
M  V30 1211 H 123.54 3.64797 1.41558 0
M  V30 1212 H 123.163 2.74675 2.87471 0
M  V30 1213 N 124.16 -0.719506 1.40217 0
M  V30 1214 C 125.123 -1.8153 1.39927 0
M  V30 1215 C 126.123 -1.58095 0.293723 0
M  V30 1216 O 127.313 -1.65209 0.552429 0
M  V30 1217 C 124.445 -3.19561 1.18716 0
M  V30 1218 H 125.638 -1.83186 2.37451 0
M  V30 1219 H 123.191 -0.924746 1.26008 0
M  V30 1220 H 123.926 -3.23557 0.219366 0
M  V30 1221 H 123.711 -3.3797 1.98793 0
M  V30 1222 H 125.201 -3.99598 1.21291 0
M  V30 1223 N 125.638 -1.25649 -0.95132 0
M  V30 1224 C 126.548 -1.08073 -2.08224 0
M  V30 1225 C 127.564 -0.0169666 -1.73992 0
M  V30 1226 O 128.74 -0.218593 -2.0021 0
M  V30 1227 C 125.805 -0.704922 -3.39458 0
M  V30 1228 C 124.866 -1.84699 -3.87537 0
M  V30 1229 C 124.099 -1.48902 -5.12508 0
M  V30 1230 O 124.322 -0.386156 -5.69091 0
M  V30 1231 O 123.256 -2.32033 -5.55378 0
M  V30 1232 H 127.082 -2.02924 -2.25954 0
M  V30 1233 H 124.667 -1.04618 -1.06656 0
M  V30 1234 H 126.549 -0.507609 -4.18332 0
M  V30 1235 H 125.224 0.214291 -3.2299 0
M  V30 1236 H 124.131 -2.09919 -3.09653 0
M  V30 1237 H 125.464 -2.74557 -4.08509 0
M  V30 1238 N 127.117 1.15442 -1.07289 0
M  V30 1239 C 128.365 1.85845 -0.794096 0
M  V30 1240 C 128.686 1.82692 0.681809 0
M  V30 1241 O 127.956 1.26741 1.49377 0
M  V30 1242 H 126.536 0.688089 -0.290763 0
M  V30 1243 H 129.198 1.39947 -1.3565 0
M  V30 1244 H 128.294 2.91001 -1.12804 0
M  V30 1245 N 128.595 0.856903 1.32268 0
M  V30 1246 C 129.558 0.308171 2.27119 0
M  V30 1247 C 130.558 -0.533421 1.51695 0
M  V30 1248 O 131.748 -0.344607 1.70757 0
M  V30 1249 C 128.88 -0.563757 3.36206 0
M  V30 1250 H 130.073 1.14535 2.77167 0
M  V30 1251 H 127.626 0.631421 1.42978 0
M  V30 1252 H 128.361 -1.42266 2.91429 0
M  V30 1253 H 128.146 0.0386749 3.92081 0
M  V30 1254 H 129.636 -0.940386 4.06874 0
M  V30 1255 N 130.073 -1.45103 0.615059 0
M  V30 1256 C 131.003 -2.33339 -0.0865619 0
M  V30 1257 C 131.984 -1.4727 -0.851209 0
M  V30 1258 O 133.169 -1.76026 -0.820281 0
M  V30 1259 C 130.299 -3.30095 -1.07956 0
M  V30 1260 C 129.253 -4.25858 -0.427628 0
M  V30 1261 C 128.579 -5.12361 -1.5294 0
M  V30 1262 C 129.879 -5.18165 0.655944 0
M  V30 1263 H 131.573 -2.92254 0.650224 0
M  V30 1264 H 129.119 -1.40532 0.314138 0
M  V30 1265 H 131.072 -3.90698 -1.57901 0
M  V30 1266 H 129.796 -2.69355 -1.84703 0
M  V30 1267 H 128.455 -3.66564 0.0510292 0
M  V30 1268 H 128.103 -4.47984 -2.28734 0
M  V30 1269 H 127.803 -5.77238 -1.09865 0
M  V30 1270 H 129.327 -5.75833 -2.03098 0
M  V30 1271 H 130.741 -5.72796 0.240257 0
M  V30 1272 H 129.138 -5.91559 1.00888 0
M  V30 1273 H 130.208 -4.60144 1.52957 0
M  V30 1274 N 131.551 -0.354651 -1.53558 0
M  V30 1275 C 132.799 0.237972 -2.00694 0
M  V30 1276 C 133.12 1.50173 -1.24391 0
M  V30 1277 O 132.39 1.92673 -0.354135 0
M  V30 1278 H 130.97 0.0909256 -0.741446 0
M  V30 1279 H 133.632 -0.478368 -1.88938 0
M  V30 1280 H 132.728 0.47264 -3.085 0
M  V30 1281 N 133.029 1.57378 -0.0835403 0
M  V30 1282 C 134.277 1.93547 0.581718 0
M  V30 1283 C 134.598 0.96524 1.69435 0
M  V30 1284 O 133.868 0.0153369 1.95894 0
M  V30 1285 H 132.448 0.714521 0.217874 0
M  V30 1286 H 135.11 1.94366 -0.144158 0
M  V30 1287 H 134.206 2.95665 0.999423 0
M  V30 1288 N 134.507 -0.190092 1.56449 0
M  V30 1289 C 135.47 -1.21925 1.9408 0
M  V30 1290 C 136.47 -1.38176 0.822431 0
M  V30 1291 O 137.66 -1.35903 1.08977 0
M  V30 1292 C 134.792 -2.58773 2.21922 0
M  V30 1293 H 135.985 -0.897464 2.86157 0
M  V30 1294 H 133.538 -0.43181 1.50217 0
M  V30 1295 H 134.273 -2.95998 1.32499 0
M  V30 1296 H 134.058 -2.48348 3.03424 0
M  V30 1297 H 135.548 -3.32978 2.52022 0
M  V30 1298 N 135.985 -1.50799 -0.457987 0
M  V30 1299 C 137.232 -1.62442 -1.20908 0
M  V30 1300 C 137.56 -0.330865 -1.91665 0
M  V30 1301 O 136.815 0.68401 -1.83357 0
M  V30 1302 C 137.114 -2.76358 -2.2663 0
M  V30 1303 C 136.78 -4.16378 -1.73033 0
M  V30 1304 C 135.442 -4.54473 -1.58138 0
M  V30 1305 C 137.794 -5.03836 -1.33413 0
M  V30 1306 C 135.122 -5.77754 -1.02065 0
M  V30 1307 C 137.474 -6.27676 -0.78778 0
M  V30 1308 C 136.138 -6.64562 -0.625561 0
M  V30 1309 H 135.408 -0.594417 -0.442435 0
M  V30 1310 H 138.055 -1.84772 -0.503136 0
M  V30 1311 H 136.36 -2.48167 -3.03184 0
M  V30 1312 H 138.057 -2.82568 -2.84528 0
M  V30 1313 H 134.647 -3.86331 -1.85598 0
M  V30 1314 H 138.831 -4.75026 -1.4375 0
M  V30 1315 H 134.087 -6.04997 -0.882547 0
M  V30 1316 H 138.261 -6.94797 -0.472177 0
M  V30 1317 H 135.888 -7.59965 -0.188926 0
M  V30 1318 N 137.463 0.71206 -1.40597 0
M  V30 1319 C 138.874 1.29135 -1.34837 0
M  V30 1320 C 139.225 1.96186 -0.0235395 0
M  V30 1321 O 138.35 1.97768 0.878444 0
M  V30 1322 C 138.945 2.34827 -2.44217 0
M  V30 1323 C 137.504 2.88371 -2.41907 0
M  V30 1324 C 136.651 1.62202 -2.24913 0
M  V30 1325 H 139.602 0.507944 -1.50352 0
M  V30 1326 H 139.623 3.15749 -2.12327 0
M  V30 1327 H 139.135 1.85996 -3.40627 0
M  V30 1328 H 137.236 3.41422 -1.49204 0
M  V30 1329 H 137.349 3.39925 -3.37621 0
M  V30 1330 H 135.713 1.874 -1.72492 0
M  V30 1331 H 136.496 1.15391 -3.23326 0
M  V30 1332 N 138.941 1.26152 0.944643 0
M  V30 1333 C 140.352 1.10454 1.50522 0
M  V30 1334 C 140.703 -0.31635 1.93633 0
M  V30 1335 O 139.828 -1.20746 1.79581 0
M  V30 1336 C 140.423 1.99891 2.73549 0
M  V30 1337 C 138.982 1.88348 3.25886 0
M  V30 1338 C 138.129 1.93447 1.9868 0
M  V30 1339 H 141.08 1.39292 0.760489 0
M  V30 1340 H 141.101 1.54477 3.47732 0
M  V30 1341 H 140.613 3.03297 2.42141 0
M  V30 1342 H 138.714 0.878636 3.62092 0
M  V30 1343 H 138.827 2.73696 3.93227 0
M  V30 1344 H 137.191 1.37456 2.14425 0
M  V30 1345 H 137.974 2.98476 1.69607 0
M  V30 1346 N 140.419 -1.14872 1.07899 0
M  V30 1347 C 141.83 -1.67367 0.827363 0
M  V30 1348 C 142.181 -1.85236 -0.646693 0
M  V30 1349 O 141.306 -1.55974 -1.50004 0
M  V30 1350 C 141.901 -3.04016 1.49532 0
M  V30 1351 C 140.46 -3.53566 1.29106 0
M  V30 1352 C 139.607 -2.29161 1.56143 0
M  V30 1353 H 142.558 -0.990083 1.24028 0
M  V30 1354 H 142.579 -3.69219 0.919643 0
M  V30 1355 H 142.091 -2.90978 2.56814 0
M  V30 1356 H 140.192 -3.71835 0.238713 0
M  V30 1357 H 140.305 -4.34661 2.01511 0
M  V30 1358 H 138.669 -2.34978 0.982717 0
M  V30 1359 H 139.452 -2.18705 2.64619 0
M  V30 1360 N 141.898 -0.863906 -1.31812 0
M  V30 1361 C 143.309 -0.52522 -1.7916 0
M  V30 1362 C 143.66 0.957518 -1.71248 0
M  V30 1363 O 142.785 1.74734 -1.27659 0
M  V30 1364 C 143.38 -0.9466 -3.25307 0
M  V30 1365 C 141.939 -0.659668 -3.70574 0
M  V30 1366 C 141.086 -1.14126 -2.52726 0
M  V30 1367 H 144.037 -1.05022 -1.1898 0
M  V30 1368 H 144.058 -0.266766 -3.79564 0
M  V30 1369 H 143.57 -2.02579 -3.31034 0
M  V30 1370 H 141.671 0.408416 -3.70355 0
M  V30 1371 H 141.784 -1.23245 -4.62977 0
M  V30 1372 H 140.148 -0.561216 -2.4844 0
M  V30 1373 H 140.931 -2.22775 -2.61201 0
M  V30 1374 N 143.376 1.44774 -0.622745 0
M  V30 1375 C 144.787 1.85546 -0.207226 0
M  V30 1376 C 145.138 1.52093 1.23944 0
M  V30 1377 O 144.263 0.95492 1.94191 0
M  V30 1378 C 144.858 3.36781 -0.369313 0
M  V30 1379 C 143.417 3.76399 -0.00836847 0
M  V30 1380 C 142.564 2.68664 -0.686651 0
M  V30 1381 H 145.515 1.3536 -0.828454 0
M  V30 1382 H 145.536 3.78453 0.394162 0
M  V30 1383 H 145.048 3.61098 -1.42231 0
M  V30 1384 H 143.149 3.57698 1.04322 0
M  V30 1385 H 143.262 4.7732 -0.412584 0
M  V30 1386 H 141.626 2.54404 -0.122777 0
M  V30 1387 H 142.409 2.95815 -1.74208 0
M  V30 1388 N 144.854 0.36279 1.53368 0
M  V30 1389 C 146.265 -0.117022 1.86333 0
M  V30 1390 C 146.616 -1.48397 1.28347 0
M  V30 1391 O 145.741 -2.07787 0.604428 0
M  V30 1392 C 146.336 -0.21912 3.38091 0
M  V30 1393 C 144.895 -0.643184 3.70864 0
M  V30 1394 C 144.042 0.211318 2.76494 0
M  V30 1395 H 146.993 0.581687 1.47655 0
M  V30 1396 H 147.014 -1.04319 3.6592 0
M  V30 1397 H 146.526 0.775902 3.80265 0
M  V30 1398 H 144.627 -1.64654 3.34245 0
M  V30 1399 H 144.74 -0.41973 4.77258 0
M  V30 1400 H 143.104 -0.319367 2.5269 0
M  V30 1401 H 143.887 1.20383 3.21501 0
M  V30 1402 N 146.332 -1.57332 0.0918853 0
M  V30 1403 C 147.581 -1.93412 -0.572249 0
M  V30 1404 C 147.894 -0.975515 -1.69538 0
M  V30 1405 O 149.1 -1.22991 -2.42045 0
M  V30 1406 C 147.556 -3.43648 -1.0693 0
M  V30 1407 C 147.164 -4.47994 0.0239049 0
M  V30 1408 C 148.908 -3.88695 -1.70635 0
M  V30 1409 C 146.815 -5.89381 -0.488319 0
M  V30 1410 H 145.745 -0.721939 -0.217532 0
M  V30 1411 H 148.396 -1.82735 0.167369 0
M  V30 1412 H 146.778 -3.49466 -1.8625 0
M  V30 1413 H 147.952 -4.53815 0.799277 0
M  V30 1414 H 146.267 -4.12536 0.565946 0
M  V30 1415 H 148.864 -4.91725 -2.10025 0
M  V30 1416 H 149.207 -3.27166 -2.57426 0
M  V30 1417 H 149.74 -3.85564 -0.979023 0
M  V30 1418 H 146.479 -6.54602 0.342906 0
M  V30 1419 H 145.999 -5.87037 -1.23077 0
M  V30 1420 H 147.678 -6.39863 -0.958317 0
M  V30 1421 N 147.81 0.181792 -1.56548 0
M  V30 1422 C 148.72 1.24538 -1.98815 0
M  V30 1423 C 149.736 1.49045 -0.897861 0
M  V30 1424 O 150.912 1.61399 -1.20467 0
M  V30 1425 C 147.977 2.56683 -2.33055 0
M  V30 1426 C 147.038 2.40131 -3.55859 0
M  V30 1427 C 146.271 3.65975 -3.88456 0
M  V30 1428 O 146.494 4.70711 -3.22161 0
M  V30 1429 O 145.428 3.6071 -4.81842 0
M  V30 1430 H 149.254 0.916647 -2.89536 0
M  V30 1431 H 146.839 0.387842 -1.44278 0
M  V30 1432 H 148.721 3.34655 -2.56094 0
M  V30 1433 H 147.396 2.89157 -1.45498 0
M  V30 1434 H 146.303 1.60226 -3.38051 0
M  V30 1435 H 147.636 2.12585 -4.43924 0
M  V30 1436 N 149.288 1.51039 0.449983 0
M  V30 1437 C 150.198 1.74261 1.57067 0
M  V30 1438 C 151.214 0.626363 1.62335 0
M  V30 1439 O 152.39 0.907162 1.79812 0
M  V30 1440 C 149.455 1.85114 2.93144 0
M  V30 1441 C 148.516 3.0893 2.98095 0
M  V30 1442 C 147.749 3.19256 4.27681 0
M  V30 1443 O 147.972 2.35835 5.19363 0
M  V30 1444 O 146.906 4.12144 4.38658 0
M  V30 1445 H 150.732 2.69303 1.40391 0
M  V30 1446 H 148.317 1.35389 0.631688 0
M  V30 1447 H 150.199 1.94311 3.73926 0
M  V30 1448 H 148.874 0.932588 3.09975 0
M  V30 1449 H 147.781 3.0522 2.16314 0
M  V30 1450 H 149.114 4.00433 2.86206 0
M  V30 1451 N 150.766 -0.704594 1.40972 0
M  V30 1452 C 151.991 -1.49858 1.43378 0
M  V30 1453 C 152.416 -1.88061 0.038184 0
M  V30 1454 O 151.774 -1.5402 -0.956425 0
M  V30 1455 C 151.822 -2.74333 2.34038 0
M  V30 1456 O 150.926 -3.7147 1.7912 0
M  V30 1457 H 150.267 -0.45139 0.486974 0
M  V30 1458 H 152.797 -0.866832 1.8533 0
M  V30 1459 H 152.807 -3.22741 2.49604 0
M  V30 1460 H 151.482 -2.45863 3.35446 0
M  V30 1461 H 150.059 -3.30363 1.72958 0
M  V30 1462 N 152.244 -1.26651 -0.937939 0
M  V30 1463 C 153.491 -1.12387 -1.6845 0
M  V30 1464 C 153.819 0.332208 -1.91642 0
M  V30 1465 O 153.074 1.2602 -1.49725 0
M  V30 1466 C 153.373 -1.84168 -3.06295 0
M  V30 1467 C 153.039 -3.34056 -3.02849 0
M  V30 1468 C 151.701 -3.74942 -3.01616 0
M  V30 1469 C 154.053 -4.29741 -2.9491 0
M  V30 1470 C 151.381 -5.09894 -2.90215 0
M  V30 1471 C 153.733 -5.64738 -2.8505 0
M  V30 1472 C 152.397 -6.0493 -2.82162 0
M  V30 1473 H 151.667 -0.411252 -0.616403 0
M  V30 1474 H 154.314 -1.57134 -1.09459 0
M  V30 1475 H 152.619 -1.319 -3.6893 0
M  V30 1476 H 154.316 -1.70569 -3.62915 0
M  V30 1477 H 150.906 -3.01534 -3.0459 0
M  V30 1478 H 155.09 -3.99133 -2.94969 0
M  V30 1479 H 150.346 -5.40194 -2.86358 0
M  V30 1480 H 154.52 -6.38561 -2.77872 0
M  V30 1481 H 152.147 -7.09457 -2.73084 0
M  V30 1482 N 153.722 1.14298 -1.08507 0
M  V30 1483 C 155.133 1.66926 -0.836227 0
M  V30 1484 C 155.484 1.85576 0.63686 0
M  V30 1485 O 154.609 1.56767 1.49175 0
M  V30 1486 C 155.204 3.03219 -1.51142 0
M  V30 1487 C 153.763 3.52876 -1.30979 0
M  V30 1488 C 152.91 2.2833 -1.57356 0
M  V30 1489 H 155.861 0.983491 -1.24552 0
M  V30 1490 H 155.882 3.68726 -0.939211 0
M  V30 1491 H 155.394 2.89612 -2.58353 0
M  V30 1492 H 153.495 3.71703 -0.258429 0
M  V30 1493 H 153.608 4.33586 -2.03814 0
M  V30 1494 H 151.972 2.34454 -0.995164 0
M  V30 1495 H 152.755 2.17298 -2.65775 0
M  V30 1496 N 155.201 0.870884 1.31352 0
M  V30 1497 C 156.612 0.534714 1.78879 0
M  V30 1498 C 156.963 -0.948423 1.71754 0
M  V30 1499 O 156.088 -1.74055 1.28584 0
M  V30 1500 C 156.683 0.963839 3.24801 0
M  V30 1501 C 155.242 0.679311 3.70219 0
M  V30 1502 C 154.389 1.15465 2.52117 0
M  V30 1503 H 157.34 1.05651 1.18421 0
M  V30 1504 H 157.361 0.286892 3.79417 0
M  V30 1505 H 156.873 2.04332 3.29955 0
M  V30 1506 H 154.974 -0.388769 3.70566 0
M  V30 1507 H 155.087 1.25698 4.62317 0
M  V30 1508 H 153.451 0.574383 2.48139 0
M  V30 1509 H 154.234 2.24157 2.60016 0
M  V30 1510 N 156.679 -1.44442 0.630414 0
M  V30 1511 C 157.642 -2.29107 -0.0652523 0
M  V30 1512 C 158.642 -1.41002 -0.772995 0
M  V30 1513 O 159.832 -1.62881 -0.617692 0
M  V30 1514 C 156.964 -3.22564 -1.10296 0
M  V30 1515 H 158.157 -2.92103 0.679401 0
M  V30 1516 H 155.71 -1.51343 0.390517 0
M  V30 1517 H 156.445 -2.64416 -1.87762 0
M  V30 1518 H 156.23 -3.87491 -0.59941 0
M  V30 1519 H 157.72 -3.86167 -1.5895 0
M  V30 1520 N 158.157 -0.370918 -1.53173 0
M  V30 1521 C 159.568 0.107139 -1.86392 0
M  V30 1522 C 159.919 1.47714 -1.29132 0
M  V30 1523 O 159.044 2.07464 -0.615439 0
M  V30 1524 C 159.639 0.201187 -3.38202 0
M  V30 1525 C 158.198 0.623507 -3.712 0
M  V30 1526 C 157.345 -0.225978 -2.76378 0
M  V30 1527 H 160.296 -0.58951 -1.47345 0
M  V30 1528 H 160.317 1.02377 -3.66468 0
M  V30 1529 H 159.829 -0.796058 -3.79848 0
M  V30 1530 H 157.93 1.62879 -3.35114 0
M  V30 1531 H 158.043 0.394414 -4.77474 0
M  V30 1532 H 156.407 0.305962 -2.52856 0
M  V30 1533 H 157.19 -1.22086 -3.20858 0
M  V30 1534 N 159.635 1.57281 -0.100228 0
M  V30 1535 C 160.565 2.17328 0.853857 0
M  V30 1536 C 161.546 1.10804 1.2906 0
M  V30 1537 O 162.731 1.38963 1.35657 0
M  V30 1538 C 159.861 2.75772 2.11109 0
M  V30 1539 C 158.815 3.87713 1.81279 0
M  V30 1540 C 158.141 4.32882 3.13874 0
M  V30 1541 C 159.441 5.10677 1.09574 0
M  V30 1542 H 161.135 2.97305 0.353545 0
M  V30 1543 H 158.681 1.43009 0.168612 0
M  V30 1544 H 160.634 3.16433 2.78296 0
M  V30 1545 H 159.358 1.93057 2.63432 0
M  V30 1546 H 158.017 3.476 1.16489 0
M  V30 1547 H 157.665 3.47051 3.64095 0
M  V30 1548 H 157.365 5.08358 2.94696 0
M  V30 1549 H 158.889 4.7618 3.82211 0
M  V30 1550 H 160.303 5.48474 1.66879 0
M  V30 1551 H 158.7 5.91615 1.00557 0
M  V30 1552 H 159.77 4.84835 0.0793299 0
M  V30 1553 N 161.113 -0.173488 1.56642 0
M  V30 1554 C 162.023 -1.23482 1.99473 0
M  V30 1555 C 163.039 -1.48567 0.905752 0
M  V30 1556 O 164.215 -1.60758 1.21321 0
M  V30 1557 C 161.28 -2.55444 2.34413 0
M  V30 1558 C 160.341 -2.38241 3.57127 0
M  V30 1559 C 159.574 -3.63909 3.90392 0
M  V30 1560 O 159.797 -4.68996 3.24653 0
M  V30 1561 O 158.731 -3.58149 4.83749 0
M  V30 1562 H 162.557 -0.901279 2.90018 0
M  V30 1563 H 160.142 -0.380185 1.44482 0
M  V30 1564 H 162.024 -3.33292 2.57865 0
M  V30 1565 H 160.699 -2.88382 1.4703 0
M  V30 1566 H 159.606 -1.58431 3.38896 0
M  V30 1567 H 160.939 -2.10228 4.45045 0
M  V30 1568 N 162.591 -1.51276 -0.441967 0
M  V30 1569 C 163.501 -1.75092 -1.56141 0
M  V30 1570 C 164.517 -0.634963 -1.62001 0
M  V30 1571 O 165.693 -0.916686 -1.79329 0
M  V30 1572 C 162.758 -1.86666 -2.92158 0
M  V30 1573 C 161.819 -3.10506 -2.96453 0
M  V30 1574 C 161.052 -3.21519 -4.25982 0
M  V30 1575 O 161.275 -2.38586 -5.18105 0
M  V30 1576 O 160.209 -4.14465 -4.36466 0
M  V30 1577 H 164.035 -2.70044 -1.38961 0
M  V30 1578 H 161.62 -1.35722 -0.624499 0
M  V30 1579 H 163.502 -1.96292 -3.72891 0
M  V30 1580 H 162.177 -0.949014 -3.09476 0
M  V30 1581 H 161.084 -3.06363 -2.14692 0
M  V30 1582 H 162.417 -4.01945 -2.84079 0
M  V30 1583 N 164.069 0.697108 -1.41344 0
M  V30 1584 C 164.979 1.84088 -1.45427 0
M  V30 1585 C 165.995 1.70545 -0.34501 0
M  V30 1586 O 167.171 1.92488 -0.592492 0
M  V30 1587 C 164.236 3.20056 -1.33286 0
M  V30 1588 C 163.297 3.45718 -2.54514 0
M  V30 1589 C 162.53 4.75199 -2.42944 0
M  V30 1590 O 162.753 5.51579 -1.45318 0
M  V30 1591 O 161.687 5.0161 -3.32672 0
M  V30 1592 H 165.513 1.836 -2.41919 0
M  V30 1593 H 163.098 0.849966 -1.22866 0
M  V30 1594 H 164.98 4.01236 -1.28794 0
M  V30 1595 H 163.655 3.2123 -0.39909 0
M  V30 1596 H 162.562 2.64474 -2.64583 0
M  V30 1597 H 163.895 3.49356 -3.46715 0
M  V30 1598 N 165.547 1.27147 0.931209 0
M  V30 1599 C 166.796 1.12664 1.67302 0
M  V30 1600 C 167.109 -0.327718 1.92835 0
M  V30 1601 O 168.315 -0.593392 2.64936 0
M  V30 1602 C 166.771 1.9683 3.01307 0
M  V30 1603 C 166.379 3.46901 2.83485 0
M  V30 1604 C 168.123 1.90985 3.79111 0
M  V30 1605 C 166.03 4.23279 4.13024 0
M  V30 1606 H 164.96 0.41803 0.627509 0
M  V30 1607 H 167.611 1.51539 1.03481 0
M  V30 1608 H 165.993 1.50797 3.66164 0
M  V30 1609 H 167.167 4.00773 2.27415 0
M  V30 1610 H 165.482 3.54088 2.19113 0
M  V30 1611 H 168.079 2.45328 4.75098 0
M  V30 1612 H 168.422 0.882718 4.06834 0
M  V30 1613 H 168.955 2.34895 3.21044 0
M  V30 1614 H 165.694 5.26503 3.90481 0
M  V30 1615 H 165.214 3.74186 4.6877 0
M  V30 1616 H 166.893 4.32265 4.81411 0
M  V30 1617 N 167.025 -1.13721 1.09112 0
M  V30 1618 C 168.272 -1.84924 0.825192 0
M  V30 1619 C 168.6 -1.83347 -0.649151 0
M  V30 1620 O 167.855 -1.26449 -1.49362 0
M  V30 1621 C 168.154 -3.32861 1.30146 0
M  V30 1622 C 167.82 -3.54621 2.78486 0
M  V30 1623 C 166.482 -3.60268 3.18999 0
M  V30 1624 C 168.834 -3.62855 3.74146 0
M  V30 1625 C 166.162 -3.71679 4.53951 0
M  V30 1626 C 168.514 -3.75793 5.08883 0
M  V30 1627 C 167.178 -3.79692 5.4899 0
M  V30 1628 H 166.448 -0.676684 0.301959 0
M  V30 1629 H 169.095 -1.3428 1.36533 0
M  V30 1630 H 167.4 -3.85835 0.681064 0
M  V30 1631 H 169.097 -3.86395 1.07236 0
M  V30 1632 H 165.687 -3.50879 2.46134 0
M  V30 1633 H 169.871 -3.57775 3.43963 0
M  V30 1634 H 165.127 -3.72963 4.84467 0
M  V30 1635 H 169.301 -3.81107 5.82864 0
M  V30 1636 H 166.928 -3.88287 6.53558 0
M  V30 1637 N 168.503 -0.877838 -1.30888 0
M  V30 1638 C 169.914 -0.544193 -1.78593 0
M  V30 1639 C 170.265 0.939301 -1.72254 0
M  V30 1640 O 169.39 1.7337 -1.29505 0
M  V30 1641 C 169.985 -0.98105 -3.24285 0
M  V30 1642 C 168.544 -0.698935 -3.69854 0
M  V30 1643 C 167.691 -1.168 -2.51502 0
M  V30 1644 H 170.642 -1.06278 -1.17859 0
M  V30 1645 H 170.663 -0.307009 -3.79259 0
M  V30 1646 H 170.175 -2.06079 -3.28866 0
M  V30 1647 H 168.276 0.369112 -3.70767 0
M  V30 1648 H 168.389 -1.28148 -4.61644 0
M  V30 1649 H 166.753 -0.587535 -2.47831 0
M  V30 1650 H 167.536 -2.25533 -2.58824 0
M  V30 1651 N 169.982 1.44106 -0.638065 0
M  V30 1652 C 171.207 2.0685 -0.150916 0
M  V30 1653 C 171.632 1.47417 1.16833 0
M  V30 1654 O 170.99 0.578264 1.71831 0
M  V30 1655 C 171.038 3.60555 -0.05708 0
M  V30 1656 O 170.142 4.00465 0.984972 0
M  V30 1657 H 169.483 0.658151 -0.0879399 0
M  V30 1658 H 172.013 1.84865 -0.876707 0
M  V30 1659 H 172.023 4.07789 0.131232 0
M  V30 1660 H 170.698 4.03193 -1.02021 0
M  V30 1661 H 169.275 3.64849 0.770672 0
M  V30 1662 N 171.46 0.379036 1.52974 0
M  V30 1663 C 172.871 -0.0972525 1.86447 0
M  V30 1664 C 173.222 -1.47027 1.29914 0
M  V30 1665 O 172.347 -2.07135 0.626433 0
M  V30 1666 C 172.942 -0.183248 3.38304 0
M  V30 1667 C 171.501 -0.603812 3.71525 0
M  V30 1668 C 170.648 0.240632 2.76254 0
M  V30 1669 H 173.599 0.597316 1.4703 0
M  V30 1670 H 173.62 -1.00432 3.67006 0
M  V30 1671 H 173.132 0.816191 3.79421 0
M  V30 1672 H 171.233 -1.61099 3.35973 0
M  V30 1673 H 171.346 -0.369086 4.77676 0
M  V30 1674 H 169.71 -0.292548 2.53014 0
M  V30 1675 H 170.493 1.23786 3.20206 0
M  V30 1676 N 172.938 -1.57226 0.108567 0
M  V30 1677 C 174.349 -1.8195 -0.418464 0
M  V30 1678 C 174.7 -1.02508 -1.67292 0
M  V30 1679 O 173.825 -0.258496 -2.14851 0
M  V30 1680 C 174.42 -3.30028 -0.765979 0
M  V30 1681 C 172.979 -3.55469 -1.23769 0
M  V30 1682 C 172.126 -2.7625 -0.241106 0
M  V30 1683 H 175.077 -1.55149 0.33384 0
M  V30 1684 H 175.098 -3.44086 -1.62434 0
M  V30 1685 H 174.61 -3.87821 0.147219 0
M  V30 1686 H 172.711 -3.03022 -2.16814 0
M  V30 1687 H 172.824 -4.6408 -1.19022 0
M  V30 1688 H 171.188 -2.44133 -0.72602 0
M  V30 1689 H 171.971 -3.36797 0.665007 0
M  V30 1690 N 174.416 0.165178 -1.56732 0
M  V30 1691 C 175.827 0.727046 -1.71962 0
M  V30 1692 C 176.178 1.82508 -0.720078 0
M  V30 1693 O 175.303 2.16082 0.117242 0
M  V30 1694 C 175.898 1.32559 -3.11791 0
M  V30 1695 C 174.457 1.83422 -3.28684 0
M  V30 1696 C 173.604 0.715567 -2.67908 0
M  V30 1697 H 176.555 -0.0602896 -1.58585 0
M  V30 1698 H 176.576 2.19533 -3.10782 0
M  V30 1699 H 176.088 0.526195 -3.84516 0
M  V30 1700 H 174.189 2.65986 -2.60926 0
M  V30 1701 H 174.302 1.97543 -4.36478 0
M  V30 1702 H 172.666 1.13758 -2.27884 0
M  V30 1703 H 173.449 -0.0720836 -3.43224 0
M  V30 1704 N 175.894 1.51508 0.433938 0
M  V30 1705 C 177.305 1.56784 1.01369 0
M  V30 1706 C 177.656 0.393349 1.92217 0
M  V30 1707 O 176.781 -0.489441 2.10792 0
M  V30 1708 C 177.376 2.84144 1.8452 0
M  V30 1709 C 175.935 2.9198 2.37539 0
M  V30 1710 C 175.082 2.51482 1.16843 0
M  V30 1711 H 178.033 1.57236 0.215081 0
M  V30 1712 H 178.054 2.68098 2.70007 0
M  V30 1713 H 177.566 3.69607 1.18373 0
M  V30 1714 H 175.667 2.10955 3.0713 0
M  V30 1715 H 175.78 3.95704 2.70103 0
M  V30 1716 H 174.144 2.04758 1.51481 0
M  V30 1717 H 174.927 3.39293 0.523015 0
M  V30 1718 N 177.372 -0.689602 1.41712 0
M  V30 1719 C 178.783 -1.26973 1.36875 0
M  V30 1720 C 179.134 -1.96124 0.054748 0
M  V30 1721 O 178.259 -1.99141 -0.84687 0
M  V30 1722 C 178.854 -2.30912 2.47922 0
M  V30 1723 C 177.413 -2.84486 2.46464 0
M  V30 1724 C 176.56 -1.58603 2.27465 0
M  V30 1725 H 179.511 -0.48396 1.51141 0
M  V30 1726 H 179.532 -3.12331 2.17323 0
M  V30 1727 H 179.044 -1.80554 3.43543 0
M  V30 1728 H 177.145 -3.39005 1.54617 0
M  V30 1729 H 177.258 -3.34511 3.42986 0
M  V30 1730 H 175.622 -1.84632 1.75451 0
M  V30 1731 H 176.405 -1.10233 3.25121 0
M  V30 1732 N 178.85 -1.27639 -0.924453 0
M  V30 1733 C 179.76 -1.12466 -2.05885 0
M  V30 1734 C 180.776 -0.053869 -1.73917 0
M  V30 1735 O 181.952 -0.261012 -1.99702 0
M  V30 1736 C 179.017 -0.776768 -3.37886 0
M  V30 1737 C 178.078 -1.92878 -3.83532 0
M  V30 1738 C 177.311 -1.59739 -5.09234 0
M  V30 1739 O 177.534 -0.506782 -5.68144 0
M  V30 1740 O 176.468 -2.43761 -5.50331 0
M  V30 1741 H 180.294 -2.07671 -2.21599 0
M  V30 1742 H 177.879 -1.06857 -1.04413 0
M  V30 1743 H 179.761 -0.596229 -4.17161 0
M  V30 1744 H 178.436 0.145732 -3.23372 0
M  V30 1745 H 177.343 -2.1644 -3.0513 0
M  V30 1746 H 178.676 -2.8316 -4.02593 0
M  V30 1747 N 180.328 1.1314 -1.09713 0
M  V30 1748 C 181.238 2.22242 -0.751367 0
M  V30 1749 C 182.254 1.72224 0.247938 0
M  V30 1750 O 183.43 2.01205 0.0885463 0
M  V30 1751 C 180.495 3.46231 -0.180274 0
M  V30 1752 C 179.556 4.11125 -1.2359 0
M  V30 1753 C 178.789 5.29195 -0.691966 0
M  V30 1754 O 179.012 5.68342 0.48414 0
M  V30 1755 O 177.946 5.84214 -1.44838 0
M  V30 1756 H 181.772 2.54197 -1.66186 0
M  V30 1757 H 179.357 1.21331 -0.871735 0
M  V30 1758 H 181.239 4.21185 0.134739 0
M  V30 1759 H 179.914 3.1597 0.703185 0
M  V30 1760 H 178.821 3.37985 -1.60366 0
M  V30 1761 H 180.154 4.45524 -2.09211 0
M  V30 1762 N 181.806 0.884767 1.30421 0
M  V30 1763 C 182.716 0.355398 2.31892 0
M  V30 1764 C 183.732 -0.542261 1.65335 0
M  V30 1765 O 184.908 -0.435432 1.96637 0
M  V30 1766 C 181.973 -0.421661 3.44126 0
M  V30 1767 C 181.034 0.505727 4.26311 0
M  V30 1768 C 180.267 -0.234343 5.33185 0
M  V30 1769 O 180.49 -1.46045 5.51386 0
M  V30 1770 O 179.424 0.415443 6.00465 0
M  V30 1771 H 183.25 1.19685 2.79122 0
M  V30 1772 H 180.835 0.648596 1.34587 0
M  V30 1773 H 182.717 -0.861641 4.12497 0
M  V30 1774 H 181.392 -1.23942 2.99032 0
M  V30 1775 H 180.299 0.994513 3.60639 0
M  V30 1776 H 181.632 1.28948 4.75009 0
M  V30 1777 N 183.284 -1.43765 0.645699 0
M  V30 1778 C 184.532 -2.01499 0.155731 0
M  V30 1779 C 184.853 -1.51151 -1.232 0
M  V30 1780 O 184.123 -0.721044 -1.82148 0
M  V30 1781 H 182.703 -0.745003 0.0545817 0
M  V30 1782 H 185.365 -1.76075 0.835677 0
M  V30 1783 H 184.461 -3.1181 0.134577 0
M  V30 1784 N 184.763 -0.387143 -1.52771 0
M  V30 1785 C 186.011 0.195349 -2.01154 0
M  V30 1786 C 186.332 1.475 -1.27549 0
M  V30 1787 O 185.602 1.91878 -0.394924 0
M  V30 1788 H 184.182 0.075178 -0.743207 0
M  V30 1789 H 186.844 -0.518337 -1.87881 0
M  V30 1790 H 185.94 0.407096 -3.09434 0
M  V30 1791 N 186.241 1.57166 -0.116904 0
M  V30 1792 C 187.652 1.82169 0.408809 0
M  V30 1793 C 188.003 1.03393 1.66746 0
M  V30 1794 O 187.128 0.269886 2.1471 0
M  V30 1795 C 187.723 3.30429 0.748466 0
M  V30 1796 C 186.282 3.5612 1.21882 0
M  V30 1797 C 185.429 2.76374 0.226452 0
M  V30 1798 H 188.38 1.5497 -0.342063 0
M  V30 1799 H 188.401 3.44943 1.60607 0
M  V30 1800 H 187.913 3.87737 -0.167784 0
M  V30 1801 H 186.014 3.04168 2.15204 0
M  V30 1802 H 186.127 4.64705 1.16559 0
M  V30 1803 H 184.491 2.44515 0.713063 0
M  V30 1804 H 185.274 3.3644 -0.682859 0
M  V30 1805 N 187.719 -0.156864 1.56817 0
M  V30 1806 C 188.629 -1.2136 2.00771 0
M  V30 1807 C 189.645 -1.47598 0.921459 0
M  V30 1808 O 190.821 -1.59462 1.2302 0
M  V30 1809 C 187.886 -2.52943 2.37109 0
M  V30 1810 C 186.947 -2.34439 3.59634 0
M  V30 1811 C 186.18 -3.59748 3.94229 0
M  V30 1812 O 186.403 -4.65526 3.29609 0
M  V30 1813 O 185.337 -3.52998 4.8752 0
M  V30 1814 H 189.163 -0.870468 2.90958 0
M  V30 1815 H 186.748 -0.36484 1.44877 0
M  V30 1816 H 188.63 -3.30538 2.61386 0
M  V30 1817 H 187.305 -2.86806 1.5008 0
M  V30 1818 H 186.212 -1.54828 3.40557 0
M  V30 1819 H 187.545 -2.05496 4.4725 0
M  V30 1820 N 189.197 -1.51736 -0.425897 0
M  V30 1821 C 190.16 -1.73271 -1.50032 0
M  V30 1822 C 191.16 -0.602639 -1.4908 0
M  V30 1823 O 192.35 -0.87033 -1.509 0
M  V30 1824 C 189.482 -1.79969 -2.89523 0
M  V30 1825 H 190.675 -2.69172 -1.32237 0
M  V30 1826 H 188.228 -1.41899 -0.65532 0
M  V30 1827 H 188.963 -0.859241 -3.1271 0
M  V30 1828 H 188.748 -2.62109 -2.91619 0
M  V30 1829 H 190.238 -1.9843 -3.67444 0
M  V30 1830 N 190.675 0.682077 -1.42076 0
M  V30 1831 C 192.086 1.26246 -1.37546 0
M  V30 1832 C 192.437 1.96092 -0.0651481 0
M  V30 1833 O 191.562 1.99587 0.836297 0
M  V30 1834 C 192.157 2.29594 -2.49143 0
M  V30 1835 C 190.716 2.83175 -2.47969 0
M  V30 1836 C 189.863 1.57395 -2.28303 0
M  V30 1837 H 192.814 0.475937 -1.51395 0
M  V30 1838 H 192.835 3.11175 -2.18976 0
M  V30 1839 H 192.347 1.78729 -3.44496 0
M  V30 1840 H 190.448 3.3818 -1.56413 0
M  V30 1841 H 190.561 3.32687 -3.44755 0
M  V30 1842 H 188.925 1.83699 -1.76428 0
M  V30 1843 H 189.708 1.08507 -3.25701 0
M  V30 1844 N 192.153 1.28127 0.917671 0
M  V30 1845 C 193.402 1.14432 1.66097 0
M  V30 1846 C 193.715 -0.307247 1.93172 0
M  V30 1847 O 194.921 -0.565259 2.65551 0
M  V30 1848 C 193.377 2.00015 2.99202 0
M  V30 1849 C 192.985 3.49889 2.79789 0
M  V30 1850 C 194.729 1.94996 3.77064 0
M  V30 1851 C 192.636 4.27636 4.08511 0
M  V30 1852 H 191.566 0.424662 0.62304 0
M  V30 1853 H 194.217 1.52628 1.01868 0
M  V30 1854 H 192.599 1.54672 3.64544 0
M  V30 1855 H 193.773 4.03162 2.23152 0
M  V30 1856 H 192.088 3.56392 2.15345 0
M  V30 1857 H 194.685 2.50354 4.72469 0
M  V30 1858 H 195.028 0.925819 4.05875 0
M  V30 1859 H 195.561 2.38287 3.18534 0
M  V30 1860 H 192.3 5.30615 3.84874 0
M  V30 1861 H 191.82 3.79137 4.64774 0
M  V30 1862 H 193.499 4.37346 4.76799 0
M  V30 1863 N 193.631 -1.12557 1.10312 0
M  V30 1864 C 195.042 -1.65574 0.862678 0
M  V30 1865 C 195.393 -1.86566 -0.607256 0
M  V30 1866 O 194.518 -1.59121 -1.46662 0
M  V30 1867 C 195.113 -3.00776 1.55947 0
M  V30 1868 C 193.672 -3.50748 1.36576 0
M  V30 1869 C 192.819 -2.25797 1.60968 0
M  V30 1870 H 195.77 -0.963552 1.26101 0
M  V30 1871 H 195.791 -3.67185 0.997753 0
M  V30 1872 H 195.303 -2.85465 2.62928 0
M  V30 1873 H 193.404 -3.71245 0.317531 0
M  V30 1874 H 193.517 -4.30289 2.10686 0
M  V30 1875 H 191.881 -2.32841 1.03234 0
M  V30 1876 H 192.664 -2.13043 2.69198 0
M  V30 1877 N 195.109 -0.891671 -1.2995 0
M  V30 1878 C 196.52 -0.563104 -1.78006 0
M  V30 1879 C 196.871 0.920978 -1.73241 0
M  V30 1880 O 195.996 1.71987 -1.31337 0
M  V30 1881 C 196.591 -1.01539 -3.23226 0
M  V30 1882 C 195.15 -0.738124 -3.69092 0
M  V30 1883 C 194.297 -1.19461 -2.50249 0
M  V30 1884 H 197.248 -1.07522 -1.16725 0
M  V30 1885 H 197.269 -0.347217 -3.78912 0
M  V30 1886 H 196.781 -2.09555 -3.26662 0
M  V30 1887 H 194.882 0.329766 -3.71138 0
M  V30 1888 H 194.995 -1.33037 -4.60259 0
M  V30 1889 H 193.359 -0.613787 -2.47194 0
M  V30 1890 H 194.142 -2.28265 -2.56417 0
M  V30 1891 N 196.587 1.43421 -0.653314 0
M  V30 1892 C 197.998 1.85065 -0.246537 0
M  V30 1893 C 198.349 1.54688 1.2069 0
M  V30 1894 O 197.474 0.995896 1.92122 0
M  V30 1895 C 198.069 3.35922 -0.440666 0
M  V30 1896 C 196.628 3.76297 -0.0882064 0
M  V30 1897 C 195.775 2.67147 -0.743484 0
M  V30 1898 H 198.726 1.33572 -0.856979 0
M  V30 1899 H 198.747 3.79204 0.313798 0
M  V30 1900 H 198.259 3.58 -1.49858 0
M  V30 1901 H 196.36 3.5983 0.96711 0
M  V30 1902 H 196.473 4.76338 -0.513738 0
M  V30 1903 H 194.837 2.54086 -0.176712 0
M  V30 1904 H 195.62 2.92053 -1.80443 0
M  V30 1905 N 198.065 0.39524 1.52563 0
M  V30 1906 C 199.476 -0.0774719 1.86539 0
M  V30 1907 C 199.827 -1.45641 1.31466 0
M  V30 1908 O 198.952 -2.06459 0.648367 0
M  V30 1909 C 199.547 -0.147356 3.38479 0
M  V30 1910 C 198.106 -0.564373 3.72145 0
M  V30 1911 C 197.253 0.269919 2.75983 0
M  V30 1912 H 200.204 0.612876 1.46388 0
M  V30 1913 H 200.225 -0.965343 3.68051 0
M  V30 1914 H 199.737 0.856387 3.78534 0
M  V30 1915 H 197.838 -1.57527 3.37663 0
M  V30 1916 H 197.951 -0.318402 4.78041 0
M  V30 1917 H 196.315 -0.265696 2.5331 0
M  V30 1918 H 197.098 1.27175 3.18875 0
M  V30 1919 N 199.544 -1.57102 0.125237 0
M  V30 1920 C 200.476 -2.12726 -0.853237 0
M  V30 1921 C 201.489 -1.07145 -1.22571 0
M  V30 1922 O 202.678 -1.34497 -1.17358 0
M  V30 1923 C 199.778 -2.61709 -2.15317 0
M  V30 1924 C 198.951 -3.91456 -1.95143 0
M  V30 1925 C 198.01 -4.25973 -3.08923 0
M  V30 1926 O 197.036 -4.94682 -2.81564 0
M  V30 1927 N 198.238 -3.83795 -4.35524 0
M  V30 1928 H 201.003 -2.97307 -0.377964 0
M  V30 1929 H 198.564 -1.61792 -0.0590011 0
M  V30 1930 H 200.556 -2.81826 -2.90441 0
M  V30 1931 H 199.126 -1.81974 -2.54174 0
M  V30 1932 H 198.346 -3.80185 -1.04177 0
M  V30 1933 H 199.634 -4.76283 -1.78976 0
M  V30 1934 H 199.032 -3.2839 -4.60626 0
M  V30 1935 H 197.589 -4.09008 -5.07499 0
M  V30 1936 N 201.022 0.148545 -1.56898 0
M  V30 1937 C 202.433 0.708766 -1.72723 0
M  V30 1938 C 202.784 1.81734 -0.739395 0
M  V30 1939 O 201.909 2.16194 0.0943169 0
M  V30 1940 C 202.504 1.29245 -3.13179 0
M  V30 1941 C 201.063 1.79925 -3.30611 0
M  V30 1942 C 200.21 0.687111 -2.68652 0
M  V30 1943 H 203.161 -0.0771063 -1.58513 0
M  V30 1944 H 203.182 2.16224 -3.13093 0
M  V30 1945 H 202.694 0.485382 -3.85053 0
M  V30 1946 H 200.795 2.63203 -2.63732 0
M  V30 1947 H 200.908 1.92903 -4.38549 0
M  V30 1948 H 199.272 1.11335 -2.29078 0
M  V30 1949 H 200.055 -0.108483 -3.43129 0
M  V30 1950 N 202.5 1.5196 0.417844 0
M  V30 1951 C 203.916 1.40569 0.755816 0
M  V30 1952 C 204.116 0.503316 1.95113 0
M  V30 1953 O 203.172 -0.0341925 2.52477 0
M  V30 1954 C 204.485 2.82947 1.01791 0
M  V30 1955 C 206.033 2.92231 1.12116 0
M  V30 1956 C 206.508 4.35559 1.41608 0
M  V30 1957 N 207.999 4.38753 1.48491 0
M  V30 1958 C 208.734 5.46705 1.7292 0
M  V30 1959 N 208.23 6.64788 1.95011 0
M  V30 1960 N 210.023 5.34209 1.74863 0
M  V30 1961 H 202.174 2.09168 -0.369098 0
M  V30 1962 H 204.437 0.942409 -0.102809 0
M  V30 1963 H 204.143 3.5106 0.212081 0
M  V30 1964 H 204.017 3.23462 1.94042 0
M  V30 1965 H 206.404 2.24304 1.9176 0
M  V30 1966 H 206.485 2.55185 0.177225 0
M  V30 1967 H 206.129 5.04042 0.624848 0
M  V30 1968 H 206.059 4.70133 2.37239 0
M  V30 1969 H 208.55 3.5363 1.33244 0
M  V30 1970 H 208.863 7.42845 2.13076 0
M  V30 1971 H 207.208 6.67869 1.92293 0
M  V30 1972 H 210.399 4.40937 1.57137 0
M  V30 1973 H 210.572 6.18415 1.93563 0
M  V30 1974 N 203.978 -0.674533 1.42435 0
M  V30 1975 C 204.888 -1.81751 1.48337 0
M  V30 1976 C 205.904 -1.69975 0.372099 0
M  V30 1977 O 207.08 -1.91521 0.62304 0
M  V30 1978 C 204.145 -3.17895 1.38361 0
M  V30 1979 C 203.206 -3.41625 2.59982 0
M  V30 1980 C 202.439 -4.71274 2.50473 0
M  V30 1981 O 202.662 -5.49197 1.54075 0
M  V30 1982 O 201.596 -4.96254 3.4061 0
M  V30 1983 H 205.422 -1.79728 2.44809 0
M  V30 1984 H 203.007 -0.830312 1.24202 0
M  V30 1985 H 204.889 -3.99136 1.35161 0
M  V30 1986 H 203.564 -3.20555 0.450144 0
M  V30 1987 H 202.471 -2.60231 2.68757 0
M  V30 1988 H 203.804 -3.43796 3.52229 0
M  V30 1989 N 205.456 -1.28612 -0.910864 0
M  V30 1990 C 206.403 -1.12786 -2.01365 0
M  V30 1991 C 207.373 -0.024201 -1.66082 0
M  V30 1992 O 208.558 -0.189667 -1.89855 0
M  V30 1993 C 205.698 -0.798743 -3.35729 0
M  V30 1994 C 204.811 -1.98173 -3.83864 0
M  V30 1995 C 203.946 -1.59298 -5.06752 0
M  V30 1996 C 202.985 -2.74245 -5.47226 0
M  V30 1997 N 202.122 -2.35842 -6.61304 0
M  V30 1998 H 206.962 -2.07142 -2.14234 0
M  V30 1999 H 204.499 -1.03093 -1.0493 0
M  V30 2000 H 206.457 -0.588662 -4.13026 0
M  V30 2001 H 205.087 0.10789 -3.2262 0
M  V30 2002 H 204.139 -2.30386 -3.02699 0
M  V30 2003 H 205.451 -2.84343 -4.09818 0
M  V30 2004 H 204.605 -1.34513 -5.916 0
M  V30 2005 H 203.344 -0.702618 -4.82612 0
M  V30 2006 H 202.349 -2.99725 -4.60918 0
M  V30 2007 H 203.574 -3.63928 -5.73353 0
M  V30 2008 H 201.52 -1.49279 -6.38789 0
M  V30 2009 H 201.437 -3.15546 -6.86998 0
M  V30 2010 H 202.705 -2.14348 -7.4945 0
M  V30 2011 N 206.934 1.1197 -1.10907 0
M  V30 2012 C 208.18 1.8386 -0.855773 0
M  V30 2013 C 208.513 1.84134 0.617103 0
M  V30 2014 O 207.788 1.29041 1.45529 0
M  V30 2015 C 208.071 3.31305 -1.411 0
M  V30 2016 C 207.924 3.39456 -2.9511 0
M  V30 2017 C 209.243 4.2721 -1.05736 0
M  V30 2018 H 206.362 0.667545 -0.312334 0
M  V30 2019 H 209.004 1.31331 -1.37303 0
M  V30 2020 H 207.154 3.76169 -0.97105 0
M  V30 2021 H 208.826 3.03191 -3.47668 0
M  V30 2022 H 207.069 2.79849 -3.31462 0
M  V30 2023 H 207.74 4.43209 -3.29044 0
M  V30 2024 H 210.216 3.90497 -1.43706 0
M  V30 2025 H 209.092 5.28775 -1.47269 0
M  V30 2026 H 209.353 4.42088 0.0325958 0
M  V30 2027 N 208.412 0.89855 1.29475 0
M  V30 2028 C 209.637 0.538561 2.00285 0
M  V30 2029 C 210.062 -0.869135 1.66816 0
M  V30 2030 O 209.42 -1.57831 0.892145 0
M  V30 2031 C 209.468 0.736475 3.52999 0
M  V30 2032 O 208.572 -0.211537 4.11857 0
M  V30 2033 H 207.913 0.210563 0.62973 0
M  V30 2034 H 210.443 1.20982 1.64998 0
M  V30 2035 H 210.453 0.640685 4.02938 0
M  V30 2036 H 209.128 1.76276 3.76696 0
M  V30 2037 H 207.705 -0.0682991 3.72837 0
M  V30 2038 N 209.89 -1.43072 0.660911 0
M  V30 2039 C 211.115 -2.06584 0.183805 0
M  V30 2040 C 211.54 -1.49257 -1.14472 0
M  V30 2041 O 210.898 -0.605528 -1.70889 0
M  V30 2042 C 210.946 -3.60418 0.114434 0
M  V30 2043 O 210.05 -4.01981 -0.921137 0
M  V30 2044 H 209.391 -0.656669 0.0983994 0
M  V30 2045 H 211.921 -1.83447 0.906006 0
M  V30 2046 H 211.931 -4.07946 -0.0663394 0
M  V30 2047 H 210.606 -4.01519 1.08422 0
M  V30 2048 H 209.183 -3.66029 -0.71253 0
M  V30 2049 N 211.368 -0.403325 -1.52352 0
M  V30 2050 C 212.617 0.175668 -2.00934 0
M  V30 2051 C 212.93 1.46718 -1.29356 0
M  V30 2052 O 214.136 2.12708 -1.68724 0
M  V30 2053 C 212.592 0.363612 -3.58058 0
M  V30 2054 C 212.2 -0.915472 -4.38547 0
M  V30 2055 C 213.944 0.89821 -4.14888 0
M  V30 2056 C 211.851 -0.695035 -5.87302 0
M  V30 2057 H 210.781 0.0694234 -0.750797 0
M  V30 2058 H 213.432 -0.527879 -1.75743 0
M  V30 2059 H 211.814 1.12935 -3.79555 0
M  V30 2060 H 212.988 -1.68691 -4.28812 0
M  V30 2061 H 211.303 -1.37606 -3.93006 0
M  V30 2062 H 213.9 1.07907 -5.23699 0
M  V30 2063 H 214.243 1.87126 -3.71873 0
M  V30 2064 H 214.776 0.191681 -3.97338 0
M  V30 2065 H 211.515 -1.63948 -6.34666 0
M  V30 2066 H 211.035 0.0372116 -5.99788 0
M  V30 2067 H 212.714 -0.33497 -6.46132 0
M  V30 2068 N 212.846 1.57033 -0.133567 0
M  V30 2069 C 214.123 1.87256 0.56522 0
M  V30 2070 C 214.503 1.03726 1.83859 0
M  V30 2071 O 213.851 0.120247 2.28183 0
M  V30 2072 C 214.061 3.3865 0.843636 0
M  V30 2073 C 215.409 4.07574 1.19032 0
M  V30 2074 O 216.433 3.43752 0.933429 0
M  V30 2075 O 215.292 5.20259 1.67312 0
M  V30 2076 H 212.386 0.775678 0.286796 0
M  V30 2077 H 214.932 1.68855 -0.169168 0
M  V30 2078 H 213.704 3.91257 -0.0581149 0
M  V30 2079 H 213.327 3.62532 1.63268 0
M  V30 2080 N 214.325 -0.140222 1.56975 0
M  V30 2081 C 215.255 -1.17456 2.01808 0
M  V30 2082 C 216.236 -1.44415 0.898794 0
M  V30 2083 O 217.421 -1.5522 1.16707 0
M  V30 2084 C 214.551 -2.50607 2.40444 0
M  V30 2085 C 213.505 -2.38155 3.55621 0
M  V30 2086 C 212.831 -3.76078 3.80091 0
M  V30 2087 C 214.131 -1.85991 4.88062 0
M  V30 2088 H 215.825 -0.801743 2.88466 0
M  V30 2089 H 213.371 -0.38422 1.38779 0
M  V30 2090 H 215.324 -3.23197 2.7041 0
M  V30 2091 H 214.048 -2.89737 1.50732 0
M  V30 2092 H 212.707 -1.68016 3.25832 0
M  V30 2093 H 212.355 -4.12656 2.87618 0
M  V30 2094 H 212.055 -3.68606 4.57606 0
M  V30 2095 H 213.579 -4.50206 4.12488 0
M  V30 2096 H 214.993 -2.4838 5.16701 0
M  V30 2097 H 213.39 -1.89393 5.6943 0
M  V30 2098 H 214.46 -0.816023 4.77984 0
M  V30 2099 N 215.803 -1.52179 -0.40978 0
M  V30 2100 C 216.713 -1.78364 -1.52392 0
M  V30 2101 C 217.729 -0.669183 -1.60617 0
M  V30 2102 O 218.905 -0.954518 -1.77344 0
M  V30 2103 C 215.97 -1.92822 -2.88133 0
M  V30 2104 C 215.031 -3.16725 -2.898 0
M  V30 2105 C 214.264 -3.30483 -4.19067 0
M  V30 2106 O 214.487 -2.49522 -5.12928 0
M  V30 2107 O 213.421 -4.2363 -4.27576 0
M  V30 2108 H 217.247 -2.72931 -1.33201 0
M  V30 2109 H 214.832 -1.37016 -0.59557 0
M  V30 2110 H 216.714 -2.04157 -3.68643 0
M  V30 2111 H 215.389 -1.01444 -3.07393 0
M  V30 2112 H 214.296 -3.10848 -2.08146 0
M  V30 2113 H 215.629 -4.07881 -2.75489 0
M  V30 2114 N 217.281 0.66697 -1.42791 0
M  V30 2115 C 218.53 1.42278 -1.42968 0
M  V30 2116 C 218.843 1.9553 -0.0524489 0
M  V30 2117 O 220.049 2.71414 0.068363 0
M  V30 2118 C 218.505 2.57418 -2.51524 0
M  V30 2119 C 218.113 2.10832 -3.9529 0
M  V30 2120 C 219.857 3.34878 -2.60877 0
M  V30 2121 C 217.764 3.23101 -4.95338 0
M  V30 2122 H 216.694 0.534533 -0.531781 0
M  V30 2123 H 219.345 0.721302 -1.68729 0
M  V30 2124 H 217.727 3.29971 -2.18941 0
M  V30 2125 H 218.901 1.4538 -4.37266 0
M  V30 2126 H 217.216 1.46289 -3.89857 0
M  V30 2127 H 219.813 4.18505 -3.32802 0
M  V30 2128 H 220.156 3.81993 -1.6549 0
M  V30 2129 H 220.689 2.69398 -2.92693 0
M  V30 2130 H 217.428 2.80969 -5.9223 0
M  V30 2131 H 216.948 3.87309 -4.57987 0
M  V30 2132 H 218.627 3.88447 -5.17415 0
M  V30 2133 N 218.759 1.29093 0.90403 0
M  V30 2134 C 220.036 1.075 1.63411 0
M  V30 2135 C 220.416 -0.382346 2.07609 0
M  V30 2136 O 219.764 -1.37031 1.82851 0
M  V30 2137 C 219.974 2.05858 2.81822 0
M  V30 2138 C 221.322 2.36539 3.52611 0
M  V30 2139 O 222.346 2.04019 2.91984 0
M  V30 2140 O 221.205 2.92085 4.61897 0
M  V30 2141 H 218.299 0.411547 0.717327 0
M  V30 2142 H 220.845 1.40449 0.952479 0
M  V30 2143 H 219.617 3.04037 2.46327 0
M  V30 2144 H 219.24 1.73613 3.57693 0
M  V30 2145 N 220.237 -1.11381 1.11499 0
M  V30 2146 C 221.462 -1.87475 0.887019 0
M  V30 2147 C 221.887 -1.79639 -0.557796 0
M  V30 2148 O 221.245 -1.15924 -1.39396 0
M  V30 2149 C 221.293 -3.34213 1.35403 0
M  V30 2150 O 220.397 -4.0903 0.526146 0
M  V30 2151 H 219.738 -0.582099 0.319463 0
M  V30 2152 H 222.268 -1.40785 1.48461 0
M  V30 2153 H 222.278 -3.8506 1.34881 0
M  V30 2154 H 220.953 -3.39232 2.40612 0
M  V30 2155 H 219.53 -3.68082 0.597522 0
M  V30 2156 N 221.715 -0.905404 -1.28997 0
M  V30 2157 C 222.645 -0.404212 -2.29975 0
M  V30 2158 C 223.626 0.523784 -1.61835 0
M  V30 2159 O 224.811 0.433298 -1.89304 0
M  V30 2160 C 221.941 0.364042 -3.45387 0
M  V30 2161 C 220.895 -0.474048 -4.25367 0
M  V30 2162 C 220.221 0.422045 -5.33032 0
M  V30 2163 C 221.521 -1.72696 -4.92923 0
M  V30 2164 H 223.215 -1.24807 -2.72146 0
M  V30 2165 H 220.761 -0.601585 -1.30832 0
M  V30 2166 H 222.714 0.725447 -4.15109 0
M  V30 2167 H 221.438 1.24174 -3.02074 0
M  V30 2168 H 220.097 -0.81786 -3.57361 0
M  V30 2169 H 219.745 1.29804 -4.85963 0
M  V30 2170 H 219.445 -0.135057 -5.87445 0
M  V30 2171 H 220.969 0.779517 -6.05604 0
M  V30 2172 H 222.383 -1.43495 -5.55051 0
M  V30 2173 H 220.78 -2.22582 -5.57295 0
M  V30 2174 H 221.85 -2.45964 -4.17887 0
M  V30 2175 N 223.193 1.4272 -0.668489 0
M  V30 2176 C 224.418 2.06484 -0.194758 0
M  V30 2177 C 224.843 1.49862 1.13679 0
M  V30 2178 O 224.201 0.614582 1.70565 0
M  V30 2179 C 224.249 3.60353 -0.133546 0
M  V30 2180 O 223.353 4.02464 0.899806 0
M  V30 2181 H 222.694 0.656137 -0.10188 0
M  V30 2182 H 225.224 1.82964 -0.915722 0
M  V30 2183 H 225.234 4.07976 0.0447041 0
M  V30 2184 H 223.909 4.00938 -1.1055 0
M  V30 2185 H 222.486 3.66402 0.693109 0
M  V30 2186 N 224.671 0.411399 1.52136 0
M  V30 2187 C 225.896 -0.165538 2.06738 0
M  V30 2188 C 226.321 -1.379 1.27926 0
M  V30 2189 O 225.679 -1.78628 0.310114 0
M  V30 2190 C 225.727 -0.492124 3.57226 0
M  V30 2191 O 224.831 -1.58276 3.80818 0
M  V30 2192 H 224.172 -0.0132132 0.663869 0
M  V30 2193 H 226.702 0.585253 1.96051 0
M  V30 2194 H 226.712 -0.750104 4.01045 0
M  V30 2195 H 225.387 0.394922 4.14021 0
M  V30 2196 H 223.964 -1.31677 3.48877 0
M  V30 2197 N 226.149 -1.5696 0.141893 0
M  V30 2198 C 227.079 -2.19516 -0.795936 0
M  V30 2199 C 228.06 -1.14187 -1.26077 0
M  V30 2200 O 229.245 -1.42511 -1.31925 0
M  V30 2201 C 226.375 -2.81272 -2.03723 0
M  V30 2202 C 225.329 -3.92384 -1.70936 0
M  V30 2203 C 224.655 -4.41052 -3.02287 0
M  V30 2204 C 225.955 -5.13403 -0.959954 0
M  V30 2205 H 227.649 -2.98138 -0.274596 0
M  V30 2206 H 225.195 -1.43406 -0.130636 0
M  V30 2207 H 227.148 -3.237 -2.69808 0
M  V30 2208 H 225.872 -1.99973 -2.58221 0
M  V30 2209 H 224.531 -3.50566 -1.07232 0
M  V30 2210 H 224.179 -3.56582 -3.54765 0
M  V30 2211 H 223.879 -5.15993 -2.81114 0
M  V30 2212 H 225.403 -4.86146 -3.69451 0
M  V30 2213 H 226.817 -5.52706 -1.52279 0
M  V30 2214 H 225.214 -5.94073 -0.848357 0
M  V30 2215 H 226.284 -4.84875 0.0492434 0
M  V30 2216 N 227.627 0.131896 -1.57047 0
M  V30 2217 C 228.557 1.16384 -2.02428 0
M  V30 2218 C 229.538 1.43936 -0.90644 0
M  V30 2219 O 230.723 1.54599 -1.17528 0
M  V30 2220 C 227.853 2.49328 -2.4177 0
M  V30 2221 C 226.807 2.36266 -3.56879 0
M  V30 2222 C 226.133 3.74057 -3.8208 0
M  V30 2223 C 227.433 1.834 -4.89042 0
M  V30 2224 H 229.127 0.786433 -2.88887 0
M  V30 2225 H 226.673 0.376855 -1.38981 0
M  V30 2226 H 228.626 3.21759 -2.7212 0
M  V30 2227 H 227.35 2.88934 -1.52266 0
M  V30 2228 H 226.009 1.66286 -3.26718 0
M  V30 2229 H 225.657 4.11125 -2.89803 0
M  V30 2230 H 225.357 3.66174 -4.59554 0
M  V30 2231 H 226.881 4.48012 -4.1487 0
M  V30 2232 H 228.295 2.45636 -5.18011 0
M  V30 2233 H 226.692 1.8637 -5.70426 0
M  V30 2234 H 227.762 0.790662 -4.7841 0
M  V30 2235 N 229.106 1.52395 0.401703 0
M  V30 2236 C 230.383 1.57387 1.16141 0
M  V30 2237 C 230.763 0.359359 2.08019 0
M  V30 2238 O 230.111 -0.65326 2.18963 0
M  V30 2239 C 230.321 2.90631 1.93221 0
M  V30 2240 C 231.669 3.43904 2.49028 0
M  V30 2241 O 232.693 2.92421 2.03393 0
M  V30 2242 O 231.552 4.33823 3.32356 0
M  V30 2243 H 228.646 0.634262 0.530698 0
M  V30 2244 H 231.192 1.64725 0.407883 0
M  V30 2245 H 229.964 3.70473 1.25958 0
M  V30 2246 H 229.587 2.8662 2.75563 0
M  V30 2247 N 230.584 -0.659388 1.43143 0
M  V30 2248 C 231.861 -1.41627 1.34912 0
M  V30 2249 C 232.241 -2.11099 -0.00607785 0
M  V30 2250 O 231.589 -2.04353 -1.02236 0
M  V30 2251 C 231.799 -2.40604 2.52805 0
M  V30 2252 C 233.147 -3.04789 2.95616 0
M  V30 2253 O 234.171 -2.50932 2.52807 0
M  V30 2254 O 233.03 -4.02421 3.69756 0
M  V30 2255 H 230.124 -0.63246 0.532844 0
M  V30 2256 H 232.67 -0.686814 1.5518 0
M  V30 2257 H 231.442 -1.88174 3.43083 0
M  V30 2258 H 231.065 -3.21009 2.34604 0
M  V30 2259 N 232.062 -1.29571 -0.897171 0
M  V30 2260 C 232.995 -1.0924 -2.00354 0
M  V30 2261 C 233.973 -0.00354011 -1.626 0
M  V30 2262 O 235.157 -0.15473 -1.87864 0
M  V30 2263 C 232.284 -0.66352 -3.32137 0
M  V30 2264 C 231.33 -1.75146 -3.88878 0
M  V30 2265 S 232.163 -3.35124 -4.17674 0
M  V30 2266 C 233.319 -2.9411 -5.52494 0
M  V30 2267 H 233.552 -2.02907 -2.17292 0
M  V30 2268 H 231.085 -1.13746 -1.04408 0
M  V30 2269 H 233.043 -0.422791 -4.08317 0
M  V30 2270 H 231.704 0.253588 -3.13075 0
M  V30 2271 H 230.897 -1.40337 -4.84068 0
M  V30 2272 H 230.499 -1.94584 -3.19395 0
M  V30 2273 H 232.791 -2.41312 -6.33068 0
M  V30 2274 H 233.734 -3.88161 -5.9223 0
M  V30 2275 H 234.142 -2.32332 -5.14473 0
M  V30 2276 N 233.54 1.10788 -1.12088 0
M  V30 2277 C 234.768 1.86461 -0.896651 0
M  V30 2278 C 235.183 1.80492 0.553912 0
M  V30 2279 O 234.54 1.19102 1.38278 0
M  V30 2280 C 234.591 3.35006 -1.35843 0
M  V30 2281 O 234.312 3.40866 -2.75213 0
M  V30 2282 C 235.813 4.27565 -1.1706 0
M  V30 2283 H 233.033 0.589425 -0.320654 0
M  V30 2284 H 235.577 1.40076 -1.48993 0
M  V30 2285 H 233.732 3.7887 -0.808458 0
M  V30 2286 H 234.146 4.33411 -2.9539 0
M  V30 2287 H 235.62 5.30007 -1.54263 0
M  V30 2288 H 236.097 4.3906 -0.110814 0
M  V30 2289 H 236.703 3.89501 -1.70789 0
M  V30 2290 N 235.018 0.912232 1.28515 0
M  V30 2291 C 235.965 0.397954 2.27343 0
M  V30 2292 C 236.935 -0.526766 1.57526 0
M  V30 2293 O 238.12 -0.449292 1.85435 0
M  V30 2294 C 235.26 -0.357263 3.43246 0
M  V30 2295 C 234.373 0.599788 4.27816 0
M  V30 2296 C 233.508 -0.173725 5.30916 0
M  V30 2297 C 232.547 0.777039 6.07148 0
M  V30 2298 N 231.684 0.0371398 7.0209 0
M  V30 2299 H 236.524 1.24577 2.70711 0
M  V30 2300 H 234.061 0.625612 1.33133 0
M  V30 2301 H 236.019 -0.8113 4.09236 0
M  V30 2302 H 234.649 -1.16943 3.00872 0
M  V30 2303 H 233.701 1.17235 3.61884 0
M  V30 2304 H 235.013 1.32704 4.80823 0
M  V30 2305 H 234.167 -0.688394 6.02782 0
M  V30 2306 H 232.906 -0.934041 4.78672 0
M  V30 2307 H 231.911 1.3031 5.34134 0
M  V30 2308 H 233.136 1.53689 6.61481 0
M  V30 2309 H 231.082 -0.705213 6.52198 0
M  V30 2310 H 230.999 0.704249 7.52713 0
M  V30 2311 H 232.267 -0.457383 7.78157 0
M  V30 2312 N 236.496 -1.42363 0.676048 0
M  V30 2313 C 237.444 -2.32596 -0.0131507 0
M  V30 2314 C 238.438 -1.49891 -0.789238 0
M  V30 2315 O 239.644 -1.65955 -0.697061 0
M  V30 2316 H 236.019 -0.751647 -0.0230481 0
M  V30 2317 H 237.99 -2.88421 0.765243 0
M  V30 2318 C 236.739 -3.34479 -0.949702 0
M  V30 2319 H 236.062 -3.98158 -0.361938 0
M  V30 2320 H 237.502 -4.00199 -1.4006 0
M  V30 2321 C 235.961 -2.66838 -2.05667 0
M  V30 2322 O 236.491 -2.50124 -3.14326 0
M  V30 2323 N 234.697 -2.25843 -1.82875 0
M  V30 2324 H 234.244 -2.39637 -0.945085 0
M  V30 2325 H 234.202 -1.80918 -2.5713 0
M  V30 2326 N 237.974 -0.419461 -1.51915 0
M  V30 2327 C 239.251 0.211999 -1.94448 0
M  V30 2328 C 239.631 1.61703 -1.35703 0
M  V30 2329 O 238.979 2.22102 -0.536931 0
M  V30 2330 C 239.189 0.207872 -3.4838 0
M  V30 2331 C 240.537 0.422192 -4.22496 0
M  V30 2332 O 241.561 0.286778 -3.55044 0
M  V30 2333 O 240.42 0.690009 -5.42126 0
M  V30 2334 H 237.514 0.139586 -0.815135 0
M  V30 2335 H 240.06 -0.476151 -1.62883 0
M  V30 2336 H 238.832 -0.775102 -3.83546 0
M  V30 2337 H 238.455 0.939688 -3.86336 0
M  V30 2338 N 239.452 1.56882 -0.150215 0
M  V30 2339 C 240.863 1.82995 0.370076 0
M  V30 2340 C 241.214 1.06907 1.64515 0
M  V30 2341 O 240.339 0.315369 2.1409 0
M  V30 2342 C 240.934 3.31942 0.678208 0
M  V30 2343 C 239.493 3.58625 1.14301 0
M  V30 2344 C 238.64 2.76792 0.167778 0
M  V30 2345 H 241.591 1.54209 -0.374858 0
M  V30 2346 H 241.612 3.48272 1.53254 0
M  V30 2347 H 241.124 3.87294 -0.249991 0
M  V30 2348 H 239.225 3.08664 2.08704 0
M  V30 2349 H 239.338 4.67073 1.06676 0
M  V30 2350 H 237.702 2.45972 0.661037 0
M  V30 2351 H 238.485 3.34916 -0.754069 0
M  V30 2352 N 240.93 -0.123565 1.57115 0
M  V30 2353 C 242.177 -0.832153 1.84612 0
M  V30 2354 C 242.505 -1.80093 0.734627 0
M  V30 2355 O 241.76 -1.93766 -0.27442 0
M  V30 2356 C 242.059 -1.62016 3.18568 0
M  V30 2357 C 241.725 -0.796084 4.43817 0
M  V30 2358 C 240.387 -0.568816 4.77826 0
M  V30 2359 C 242.739 -0.221364 5.2073 0
M  V30 2360 C 240.067 0.243499 5.86194 0
M  V30 2361 C 242.419 0.578117 6.29953 0
M  V30 2362 C 241.083 0.815744 6.62497 0
M  V30 2363 H 240.353 -0.304507 0.675542 0
M  V30 2364 H 243 -0.0947248 1.91266 0
M  V30 2365 H 241.305 -2.42837 3.0747 0
M  V30 2366 H 243.002 -2.17231 3.37064 0
M  V30 2367 H 239.592 -0.983307 4.17168 0
M  V30 2368 H 243.776 -0.384173 4.94811 0
M  V30 2369 H 239.032 0.436871 6.09837 0
M  V30 2370 H 243.206 1.03046 6.88734 0
M  V30 2371 H 240.833 1.44701 7.46301 0
M  V30 2372 N 242.408 -1.52605 -0.393616 0
M  V30 2373 C 243.355 -1.77055 -1.48054 0
M  V30 2374 C 244.325 -0.61358 -1.54352 0
M  V30 2375 O 245.51 -0.852806 -1.70681 0
M  V30 2376 C 242.65 -1.94108 -2.85335 0
M  V30 2377 C 241.763 -3.21792 -2.88226 0
M  V30 2378 C 240.898 -3.29188 -4.16904 0
M  V30 2379 C 239.937 -4.51013 -4.13828 0
M  V30 2380 N 239.074 -4.55716 -5.34105 0
M  V30 2381 H 243.914 -2.69815 -1.26506 0
M  V30 2382 H 241.451 -1.33683 -0.61379 0
M  V30 2383 H 243.409 -2.01979 -3.65049 0
M  V30 2384 H 242.039 -1.04713 -3.05344 0
M  V30 2385 H 241.091 -3.23015 -2.00911 0
M  V30 2386 H 242.403 -4.11557 -2.8182 0
M  V30 2387 H 241.557 -3.36216 -5.05018 0
M  V30 2388 H 240.296 -2.37389 -4.26026 0
M  V30 2389 H 239.301 -4.44115 -3.24102 0
M  V30 2390 H 240.526 -5.44123 -4.06333 0
M  V30 2391 H 238.472 -3.66807 -5.43865 0
M  V30 2392 H 238.389 -5.39346 -5.29756 0
M  V30 2393 H 239.657 -4.66993 -6.2413 0
M  V30 2394 N 243.887 0.651787 -1.4349 0
M  V30 2395 C 244.85 1.74647 -1.48429 0
M  V30 2396 C 245.85 1.56513 -0.368817 0
M  V30 2397 O 247.04 1.62385 -0.630623 0
M  V30 2398 C 244.172 3.13533 -1.33827 0
M  V30 2399 H 245.365 1.71649 -2.4592 0
M  V30 2400 H 242.918 0.863573 -1.30277 0
M  V30 2401 H 243.653 3.22142 -0.37349 0
M  V30 2402 H 243.438 3.28101 -2.14691 0
M  V30 2403 H 244.928 3.93356 -1.40218 0
M  V30 2404 N 245.365 1.30045 0.890287 0
M  V30 2405 C 246.781 1.08261 1.17268 0
M  V30 2406 C 246.981 -0.160063 2.00863 0
M  V30 2407 O 246.037 -0.855181 2.37577 0
M  V30 2408 C 247.35 2.34323 1.8845 0
M  V30 2409 C 248.898 2.39735 2.01237 0
M  V30 2410 C 249.373 3.65625 2.7583 0
M  V30 2411 N 250.864 3.66402 2.83379 0
M  V30 2412 C 251.599 4.60498 3.41657 0
M  V30 2413 N 251.095 5.64933 4.01026 0
M  V30 2414 N 252.888 4.48051 3.39421 0
M  V30 2415 H 245.039 2.09777 0.332762 0
M  V30 2416 H 247.302 0.92446 0.209948 0
M  V30 2417 H 247.008 3.2498 1.34465 0
M  V30 2418 H 246.882 2.4256 2.88867 0
M  V30 2419 H 249.269 1.4956 2.54393 0
M  V30 2420 H 249.35 2.35476 0.999232 0
M  V30 2421 H 248.994 4.56156 2.23347 0
M  V30 2422 H 248.924 3.67144 3.77509 0
M  V30 2423 H 251.415 2.90896 2.41222 0
M  V30 2424 H 251.728 6.32841 4.43545 0
M  V30 2425 H 250.073 5.68732 3.99461 0
M  V30 2426 H 253.264 3.65649 2.92264 0
M  V30 2427 H 253.437 5.21565 3.84544 0
M  V30 2428 N 246.843 -1.10192 1.12674 0
M  V30 2429 C 248.089 -1.82475 0.884915 0
M  V30 2430 C 248.422 -1.85093 -0.58773 0
M  V30 2431 O 247.697 -1.3134 -1.43457 0
M  V30 2432 C 247.98 -3.29018 1.46353 0
M  V30 2433 C 247.833 -3.34718 3.00473 0
M  V30 2434 C 249.152 -4.25473 1.12519 0
M  V30 2435 H 246.271 -0.662492 0.322915 0
M  V30 2436 H 248.913 -1.2913 1.39375 0
M  V30 2437 H 247.063 -3.74576 1.03077 0
M  V30 2438 H 248.735 -2.97622 3.52447 0
M  V30 2439 H 246.978 -2.74541 3.35872 0
M  V30 2440 H 247.649 -4.37918 3.36053 0
M  V30 2441 H 250.125 -3.88161 1.499 0
M  V30 2442 H 249.001 -5.26365 1.55663 0
M  V30 2443 H 249.262 -4.42084 0.0377407 0
M  V30 2444 N 248.321 -0.919034 -1.28029 0
M  V30 2445 C 249.546 -0.570357 -1.99403 0
M  V30 2446 C 249.971 0.842486 -1.68178 0
M  V30 2447 O 249.329 1.56391 -0.917141 0
M  V30 2448 C 249.377 -0.792541 -3.51783 0
M  V30 2449 O 248.481 0.145988 -4.12142 0
M  V30 2450 H 247.822 -0.220555 -0.6263 0
M  V30 2451 H 250.352 -1.23592 -1.63053 0
M  V30 2452 H 250.362 -0.704708 -4.01868 0
M  V30 2453 H 249.037 -1.82247 -3.73844 0
M  V30 2454 H 247.614 0.00897528 -3.72899 0
M  V30 2455 N 249.799 1.42003 -0.683588 0
M  V30 2456 C 251.024 2.06265 -0.216647 0
M  V30 2457 C 251.449 1.51059 1.12083 0
M  V30 2458 O 250.807 0.632638 1.69904 0
M  V30 2459 C 250.855 3.60191 -0.171759 0
M  V30 2460 O 249.959 4.03396 0.857069 0
M  V30 2461 H 249.3 0.65502 -0.108834 0
M  V30 2462 H 251.83 1.81982 -0.935077 0
M  V30 2463 H 251.84 4.08 0.0014303 0
M  V30 2464 H 250.515 3.99743 -1.14796 0
M  V30 2465 H 249.092 3.67117 0.654208 0
M  V30 2466 N 251.277 0.427512 1.51691 0
M  V30 2467 C 252.525 -0.141948 2.01601 0
M  V30 2468 C 252.846 -1.44067 1.31414 0
M  V30 2469 O 252.116 -1.90763 0.445658 0
M  V30 2470 H 250.696 -0.0554468 0.744939 0
M  V30 2471 H 253.358 0.567968 1.86441 0
M  V30 2472 H 252.454 -0.324913 3.10404 0
M  V30 2473 N 252.755 -1.56801 0.158532 0
M  V30 2474 C 253.985 -2.00568 -0.495583 0
M  V30 2475 C 254.393 -1.03774 -1.58201 0
M  V30 2476 O 253.736 -0.0285797 -1.83678 0
M  V30 2477 C 253.798 -3.40768 -1.14532 0
M  V30 2478 C 253.462 -4.56553 -0.202101 0
M  V30 2479 C 254.459 -5.16714 0.574675 0
M  V30 2480 C 252.144 -5.02197 -0.101648 0
M  V30 2481 C 254.138 -6.20939 1.43924 0
M  V30 2482 C 251.825 -6.06274 0.766508 0
M  V30 2483 C 252.823 -6.65515 1.53555 0
M  V30 2484 O 252.511 -7.67575 2.38922 0
M  V30 2485 H 252.243 -0.662893 -0.13247 0
M  V30 2486 H 254.797 -2.03829 0.253559 0
M  V30 2487 H 253.027 -3.34381 -1.94233 0
M  V30 2488 H 254.716 -3.6857 -1.70033 0
M  V30 2489 H 255.482 -4.82341 0.507167 0
M  V30 2490 H 251.361 -4.55807 -0.689994 0
M  V30 2491 H 254.905 -6.67107 2.03996 0
M  V30 2492 H 250.802 -6.40073 0.835266 0
M  V30 2493 H 251.57 -7.84844 2.32296 0
M  V30 2494 N 254.233 0.115231 -1.57178 0
M  V30 2495 C 255.479 0.82357 -1.85325 0
M  V30 2496 C 255.812 1.79349 -0.744814 0
M  V30 2497 O 255.087 1.92899 0.249024 0
M  V30 2498 C 255.37 1.57014 -3.24066 0
M  V30 2499 C 255.223 0.619565 -4.45513 0
M  V30 2500 C 256.542 2.52545 -3.60429 0
M  V30 2501 H 253.661 0.297948 -0.674089 0
M  V30 2502 H 256.303 0.0877138 -1.89797 0
M  V30 2503 H 254.453 2.19742 -3.20383 0
M  V30 2504 H 256.125 0.000837639 -4.613 0
M  V30 2505 H 254.368 -0.0686174 -4.33746 0
M  V30 2506 H 255.039 1.17866 -5.3927 0
M  V30 2507 H 257.515 1.9992 -3.64926 0
M  V30 2508 H 256.391 3.01811 -4.58477 0
M  V30 2509 H 256.652 3.35383 -2.88047 0
M  V30 2510 N 255.711 1.52812 0.385517 0
M  V30 2511 C 257.122 1.5993 0.963293 0
M  V30 2512 C 257.473 0.454302 1.90868 0
M  V30 2513 O 256.598 -0.422132 2.12243 0
M  V30 2514 C 257.193 2.89871 1.75387 0
M  V30 2515 C 255.752 2.99389 2.28129 0
M  V30 2516 C 254.899 2.55071 1.08783 0
M  V30 2517 H 257.85 1.5784 0.164948 0
M  V30 2518 H 257.871 2.76553 2.61341 0
M  V30 2519 H 257.383 3.73186 1.06554 0
M  V30 2520 H 255.484 2.20619 3.00263 0
M  V30 2521 H 255.597 4.04096 2.57377 0
M  V30 2522 H 253.961 2.09473 1.4489 0
M  V30 2523 H 254.744 3.40785 0.414807 0
M  V30 2524 N 257.189 -0.644168 1.43834 0
M  V30 2525 C 258.6 -1.22554 1.40845 0
M  V30 2526 C 258.951 -1.9585 0.117115 0
M  V30 2527 O 258.076 -2.01734 -0.783086 0
M  V30 2528 C 258.671 -2.22907 2.55143 0
M  V30 2529 C 257.23 -2.76501 2.5539 0
M  V30 2530 C 256.377 -1.51287 2.32396 0
M  V30 2531 H 259.328 -0.43563 1.52604 0
M  V30 2532 H 259.349 -3.05259 2.2715 0
M  V30 2533 H 258.861 -1.69533 3.49114 0
M  V30 2534 H 256.962 -3.33914 1.65324 0
M  V30 2535 H 257.075 -3.23429 3.53455 0
M  V30 2536 H 255.439 -1.78957 1.81236 0
M  V30 2537 H 256.222 -0.998336 3.28463 0
M  V30 2538 N 258.668 -1.30515 -0.883378 0
M  V30 2539 C 260.079 -1.17509 -1.45081 0
M  V30 2540 C 260.43 0.223605 -1.94922 0
M  V30 2541 O 259.555 1.12041 -1.85137 0
M  V30 2542 C 260.15 -2.12715 -2.63701 0
M  V30 2543 C 258.709 -2.03682 -3.16529 0
M  V30 2544 C 257.856 -2.02706 -1.89224 0
M  V30 2545 H 260.807 -1.42762 -0.693165 0
M  V30 2546 H 260.828 -1.70891 -3.39965 0
M  V30 2547 H 260.34 -3.14505 -2.27395 0
M  V30 2548 H 258.441 -1.05039 -3.57488 0
M  V30 2549 H 258.554 -2.92146 -3.7972 0
M  V30 2550 H 256.918 -1.4753 -2.07622 0
M  V30 2551 H 257.701 -3.06229 -1.55174 0
M  V30 2552 N 260.146 1.09593 -1.13257 0
M  V30 2553 C 261.392 1.82003 -0.89458 0
M  V30 2554 C 261.725 1.85402 0.577906 0
M  V30 2555 O 261 1.32099 1.42759 0
M  V30 2556 C 261.283 3.28237 -1.48096 0
M  V30 2557 C 261.136 3.3312 -3.02244 0
M  V30 2558 C 262.455 4.24871 -1.14774 0
M  V30 2559 H 259.574 0.66077 -0.326424 0
M  V30 2560 H 262.216 1.28389 -1.40058 0
M  V30 2561 H 260.366 3.74024 -1.05062 0
M  V30 2562 H 262.038 2.95748 -3.54021 0
M  V30 2563 H 260.281 2.72756 -3.37323 0
M  V30 2564 H 260.952 4.3613 -3.38371 0
M  V30 2565 H 263.428 3.87361 -1.51957 0
M  V30 2566 H 262.304 5.25532 -1.58452 0
M  V30 2567 H 262.565 4.42058 -0.0611849 0
M  V30 2568 N 261.624 0.925811 1.2754 0
M  V30 2569 C 262.587 0.428129 2.25166 0
M  V30 2570 C 263.587 -0.452261 1.54309 0
M  V30 2571 O 264.777 -0.253608 1.72344 0
M  V30 2572 C 261.909 -0.384749 3.38722 0
M  V30 2573 H 263.102 1.29066 2.70706 0
M  V30 2574 H 260.655 0.706323 1.3943 0
M  V30 2575 H 261.39 -1.26618 2.98561 0
M  V30 2576 H 261.175 0.246454 3.91325 0
M  V30 2577 H 262.665 -0.723389 4.11287 0
M  V30 2578 N 263.102 -1.41638 0.69111 0
M  V30 2579 C 264.33 -2.05628 0.22909 0
M  V30 2580 C 264.745 -1.51992 -1.11999 0
M  V30 2581 O 264.102 -0.666322 -1.69901 0
M  V30 2582 C 264.153 -3.61084 0.173283 0
M  V30 2583 O 263.874 -4.12735 1.46907 0
M  V30 2584 C 265.375 -4.42213 -0.310266 0
M  V30 2585 H 262.595 -0.662327 0.107534 0
M  V30 2586 H 265.139 -1.81489 0.942438 0
M  V30 2587 H 263.294 -3.84278 -0.490858 0
M  V30 2588 H 263.708 -5.06743 1.35322 0
M  V30 2589 H 265.182 -5.51194 -0.298196 0
M  V30 2590 H 265.659 -4.1799 -1.34838 0
M  V30 2591 H 266.265 -4.24074 0.322716 0
M  V30 2592 N 264.58 -0.43555 -1.51462 0
M  V30 2593 C 265.991 0.0279871 -1.86679 0
M  V30 2594 C 266.342 1.42104 -1.35281 0
M  V30 2595 O 265.467 2.04667 -0.702878 0
M  V30 2596 C 266.062 0.0575626 -3.38751 0
M  V30 2597 C 264.621 0.465507 -3.7351 0
M  V30 2598 C 263.768 -0.342996 -2.75171 0
M  V30 2599 H 266.719 -0.651473 -1.44712 0
M  V30 2600 H 266.74 0.867421 -3.70481 0
M  V30 2601 H 266.252 -0.956448 -3.7613 0
M  V30 2602 H 264.353 1.48519 -3.41721 0
M  V30 2603 H 264.466 0.191546 -4.78717 0
M  V30 2604 H 262.83 0.198442 -2.53926 0
M  V30 2605 H 263.613 -1.35585 -3.15391 0
M  V30 2606 N 266.058 1.56714 -0.166846 0
M  V30 2607 C 267.305 1.96747 0.479252 0
M  V30 2608 C 267.633 1.05263 1.63554 0
M  V30 2609 O 266.888 0.0858098 1.95512 0
M  V30 2610 C 267.187 3.42889 1.00806 0
M  V30 2611 C 266.853 4.50889 -0.0318574 0
M  V30 2612 C 265.515 4.8015 -0.317675 0
M  V30 2613 C 267.867 5.15949 -0.737956 0
M  V30 2614 C 265.195 5.71772 -1.31506 0
M  V30 2615 C 267.547 6.08647 -1.72429 0
M  V30 2616 C 266.211 6.36277 -2.0176 0
M  V30 2617 H 265.481 0.719949 0.175371 0
M  V30 2618 H 268.128 1.89756 -0.257864 0
M  V30 2619 H 266.433 3.4681 1.82291 0
M  V30 2620 H 268.13 3.71203 1.51689 0
M  V30 2621 H 264.72 4.28128 0.201088 0
M  V30 2622 H 268.904 4.93458 -0.530351 0
M  V30 2623 H 264.16 5.91465 -1.54853 0
M  V30 2624 H 268.334 6.58129 -2.27682 0
M  V30 2625 H 265.961 7.07075 -2.79194 0
M  V30 2626 N 267.536 -0.106894 1.57237 0
M  V30 2627 C 268.761 -0.830287 1.90055 0
M  V30 2628 C 269.186 -1.72064 0.75998 0
M  V30 2629 O 268.544 -1.78982 -0.288991 0
M  V30 2630 C 268.592 -1.6295 3.21683 0
M  V30 2631 O 267.696 -2.73748 3.08441 0
M  V30 2632 H 267.037 -0.228855 0.623315 0
M  V30 2633 H 269.567 -0.085658 2.04421 0
M  V30 2634 H 269.577 -2.01621 3.54701 0
M  V30 2635 H 268.252 -0.975989 4.04286 0
M  V30 2636 H 266.829 -2.38192 2.86913 0
M  V30 2637 N 269.014 -1.53014 -0.377408 0
M  V30 2638 C 270.239 -1.72818 -1.14668 0
M  V30 2639 C 270.664 -0.450725 -1.8262 0
M  V30 2640 O 270.022 0.59439 -1.7128 0
M  V30 2641 C 270.07 -2.88627 -2.16164 0
M  V30 2642 O 269.174 -2.56409 -3.22998 0
M  V30 2643 H 268.515 -0.574301 -0.333278 0
M  V30 2644 H 271.045 -1.99853 -0.438152 0
M  V30 2645 H 271.055 -3.14455 -2.59966 0
M  V30 2646 H 269.73 -3.81294 -1.66095 0
M  V30 2647 H 268.307 -2.4136 -2.84253 0
M  V30 2648 N 270.492 0.636531 -1.44174 0
M  V30 2649 C 271.439 1.74875 -1.50624 0
M  V30 2650 C 272.409 1.62275 -0.35442 0
M  V30 2651 O 273.594 1.82276 -0.563908 0
M  V30 2652 C 270.734 3.13102 -1.45125 0
M  V30 2653 C 269.847 3.36717 -2.7064 0
M  V30 2654 C 268.982 4.64885 -2.57013 0
M  V30 2655 C 268.021 4.8166 -3.77717 0
M  V30 2656 N 267.158 6.01101 -3.62798 0
M  V30 2657 H 271.998 1.68697 -2.45653 0
M  V30 2658 H 269.535 0.823004 -1.21922 0
M  V30 2659 H 271.493 3.93034 -1.39929 0
M  V30 2660 H 270.123 3.18308 -0.536671 0
M  V30 2661 H 269.175 2.50763 -2.86046 0
M  V30 2662 H 270.487 3.44993 -3.60252 0
M  V30 2663 H 269.641 5.52969 -2.49619 0
M  V30 2664 H 268.38 4.58957 -1.64953 0
M  V30 2665 H 267.385 3.92007 -3.85501 0
M  V30 2666 H 268.61 4.89406 -4.70807 0
M  V30 2667 H 266.556 5.96273 -2.73486 0
M  V30 2668 H 266.473 6.10409 -4.46023 0
M  V30 2669 H 267.741 6.91761 -3.59286 0
M  V30 2670 N 271.97 1.30982 0.876444 0
M  V30 2671 C 273.195 1.23373 1.66715 0
M  V30 2672 C 273.62 -0.19885 1.87046 0
M  V30 2673 O 272.978 -1.1427 1.40756 0
M  V30 2674 C 273.026 1.97644 3.01611 0
M  V30 2675 O 272.13 1.30935 3.91062 0
M  V30 2676 H 271.471 0.426279 0.509099 0
M  V30 2677 H 274.001 1.72944 1.09323 0
M  V30 2678 H 274.011 2.06992 3.51594 0
M  V30 2679 H 272.686 3.01829 2.86133 0
M  V30 2680 H 271.263 1.29996 3.49507 0
M  V30 2681 N 273.449 -1.08991 1.13837 0
M  V30 2682 C 274.674 -1.85551 0.926585 0
M  V30 2683 C 275.099 -1.80782 -0.519566 0
M  V30 2684 O 274.457 -1.18855 -1.36906 0
M  V30 2685 C 274.505 -3.31266 1.42462 0
M  V30 2686 O 273.609 -4.07822 0.612789 0
M  V30 2687 H 272.95 -0.575192 0.331738 0
M  V30 2688 H 275.48 -1.37604 1.51414 0
M  V30 2689 H 275.49 -3.82112 1.43019 0
M  V30 2690 H 274.165 -3.34052 2.47754 0
M  V30 2691 H 272.742 -3.66731 0.675463 0
M  V30 2692 N 274.927 -0.932562 -1.27047 0
M  V30 2693 C 276.155 -0.592031 -1.98249 0
M  V30 2694 C 276.57 0.831062 -1.69525 0
M  V30 2695 O 275.927 1.55299 -0.958561 0
M  V30 2696 C 275.978 -0.814279 -3.5221 0
M  V30 2697 O 275.699 -2.18139 -3.7993 0
M  V30 2698 C 277.2 -0.483121 -4.4066 0
M  V30 2699 H 274.42 -0.223896 -0.632544 0
M  V30 2700 H 276.964 -1.25091 -1.61779 0
M  V30 2701 H 275.119 -0.20213 -3.86872 0
M  V30 2702 H 275.533 -2.235 -4.74498 0
M  V30 2703 H 277.007 -0.689298 -5.47679 0
M  V30 2704 H 277.484 0.581546 -4.35333 0
M  V30 2705 H 278.09 -1.07362 -4.11526 0
M  V30 2706 N 276.405 1.4127 -0.698611 0
M  V30 2707 C 277.352 2.30773 -0.0352094 0
M  V30 2708 C 278.322 1.47273 0.768111 0
M  V30 2709 O 279.507 1.76053 0.735524 0
M  V30 2710 C 276.647 3.33346 0.893 0
M  V30 2711 C 275.76 4.31924 0.0809695 0
M  V30 2712 C 274.895 5.21566 1.0071 0
M  V30 2713 C 273.934 6.11811 0.188155 0
M  V30 2714 N 273.071 6.93926 1.06825 0
M  V30 2715 H 277.911 2.86943 -0.804207 0
M  V30 2716 H 275.448 1.4132 -0.408294 0
M  V30 2717 H 277.406 3.91368 1.44523 0
M  V30 2718 H 276.036 2.78719 1.62836 0
M  V30 2719 H 275.088 3.75825 -0.588224 0
M  V30 2720 H 276.4 4.95716 -0.553801 0
M  V30 2721 H 275.554 5.84437 1.62845 0
M  V30 2722 H 274.293 4.58008 1.67572 0
M  V30 2723 H 273.298 5.47986 -0.446254 0
M  V30 2724 H 274.523 6.77425 -0.476716 0
M  V30 2725 H 272.469 6.32973 1.72283 0
M  V30 2726 H 272.386 7.54416 0.489123 0
M  V30 2727 H 273.654 7.61262 1.67632 0
M  V30 2728 N 277.883 0.443576 1.51229 0
M  V30 2729 C 279.294 -0.0180867 1.86691 0
M  V30 2730 C 279.645 -1.41384 1.36033 0
M  V30 2731 O 278.77 -2.04291 0.713722 0
M  V30 2732 C 279.365 -0.039597 3.38777 0
M  V30 2733 C 277.924 -0.445692 3.73752 0
M  V30 2734 C 277.071 0.357584 2.74985 0
M  V30 2735 H 280.022 0.659138 1.44364 0
M  V30 2736 H 280.043 -0.847761 3.70936 0
M  V30 2737 H 279.555 0.976382 3.75617 0
M  V30 2738 H 277.656 -1.46704 3.42503 0
M  V30 2739 H 277.769 -0.166155 4.78812 0
M  V30 2740 H 276.133 -0.184973 2.54027 0
M  V30 2741 H 276.916 1.37256 3.14668 0
M  V30 2742 N 279.361 -1.56624 0.175154 0
M  V30 2743 C 280.324 -2.16934 -0.739738 0
M  V30 2744 C 281.324 -1.11842 -1.15533 0
M  V30 2745 O 282.514 -1.37335 -1.07167 0
M  V30 2746 C 279.646 -2.75531 -2.00738 0
M  V30 2747 H 280.839 -2.99131 -0.214639 0
M  V30 2748 H 278.392 -1.56123 -0.0744197 0
M  V30 2749 H 279.127 -1.97078 -2.57548 0
M  V30 2750 H 278.912 -3.52444 -1.71831 0
M  V30 2751 H 280.402 -3.21904 -2.66021 0
M  V30 2752 N 280.839 0.0985539 -1.57292 0
M  V30 2753 C 281.802 1.10402 -2.00858 0
M  V30 2754 C 282.802 1.33146 -0.901593 0
M  V30 2755 O 283.992 1.29318 -1.16716 0
M  V30 2756 C 281.124 2.45394 -2.36632 0
M  V30 2757 H 282.317 0.729099 -2.90902 0
M  V30 2758 H 279.87 0.343495 -1.52479 0
M  V30 2759 H 280.605 2.87769 -1.49531 0
M  V30 2760 H 280.39 2.30235 -3.17387 0
M  V30 2761 H 281.88 3.17718 -2.71007 0
M  V30 2762 N 282.317 1.53212 0.369288 0
M  V30 2763 C 283.565 1.68881 1.11012 0
M  V30 2764 C 283.886 0.441285 1.89941 0
M  V30 2765 O 283.156 -0.544623 1.88177 0
M  V30 2766 H 281.736 0.622569 0.412816 0
M  V30 2767 H 284.398 1.90391 0.416802 0
M  V30 2768 H 283.494 2.54822 1.80201 0
M  V30 2769 N 283.795 -0.628877 1.44509 0
M  V30 2770 C 285.043 -1.38565 1.4712 0
M  V30 2771 C 285.364 -1.94712 0.105899 0
M  V30 2772 O 284.634 -1.75912 -0.862079 0
M  V30 2773 H 283.214 -0.514333 0.541729 0
M  V30 2774 H 285.876 -0.740018 1.80305 0
M  V30 2775 H 284.972 -2.21583 2.19789 0
M  V30 2776 N 285.273 -1.31445 -0.869486 0
M  V30 2777 C 286.501 -1.24122 -1.65534 0
M  V30 2778 C 286.916 0.193387 -1.87807 0
M  V30 2779 O 286.273 1.12557 -1.43656 0
M  V30 2780 C 286.324 -1.98229 -3.02304 0
M  V30 2781 O 286.045 -3.3609 -2.81026 0
M  V30 2782 C 287.546 -1.97751 -3.96749 0
M  V30 2783 H 284.766 -0.428868 -0.516055 0
M  V30 2784 H 287.31 -1.73328 -1.08525 0
M  V30 2785 H 285.465 -1.52782 -3.56001 0
M  V30 2786 H 285.879 -3.7383 -3.67902 0
M  V30 2787 H 287.353 -2.54114 -4.90031 0
M  V30 2788 H 287.83 -0.960137 -4.28577 0
M  V30 2789 H 288.436 -2.43079 -3.48988 0
M  V30 2790 N 286.751 1.08385 -1.14413 0
M  V30 2791 C 287.714 2.13486 -0.834048 0
M  V30 2792 C 288.714 1.59988 0.161418 0
M  V30 2793 O 289.904 1.74071 -0.0669575 0
M  V30 2794 C 287.036 3.4003 -0.243354 0
M  V30 2795 H 288.229 2.42425 -1.7655 0
M  V30 2796 H 285.782 1.24101 -0.950189 0
M  V30 2797 H 286.517 3.16726 0.696807 0
M  V30 2798 H 286.302 3.80157 -0.960367 0
M  V30 2799 H 287.792 4.17577 -0.0436242 0
M  V30 2800 N 288.23 0.939286 1.26551 0
M  V30 2801 C 289.641 0.628782 1.75793 0
M  V30 2802 C 289.992 -0.856046 1.7654 0
M  V30 2803 O 289.117 -1.66994 1.3763 0
M  V30 2804 C 289.712 1.13465 3.19235 0
M  V30 2805 C 288.271 0.874601 3.66098 0
M  V30 2806 C 287.418 1.28667 2.45642 0
M  V30 2807 H 290.369 1.1178 1.12654 0
M  V30 2808 H 290.39 0.487609 3.77363 0
M  V30 2809 H 289.902 2.21535 3.1866 0
M  V30 2810 H 288.003 -0.191793 3.72106 0
M  V30 2811 H 288.116 1.50028 4.55004 0
M  V30 2812 H 286.48 0.705109 2.44745 0
M  V30 2813 H 287.263 2.37625 2.47769 0
M  V30 2814 N 289.708 -1.40897 0.706093 0
M  V30 2815 C 290.638 -2.33418 0.0620085 0
M  V30 2816 C 291.619 -1.52385 -0.755827 0
M  V30 2817 O 292.804 -1.80886 -0.706674 0
M  V30 2818 C 289.934 -3.36293 -0.867445 0
M  V30 2819 C 288.888 -4.27716 -0.155932 0
M  V30 2820 C 288.214 -5.2105 -1.20046 0
M  V30 2821 C 289.514 -5.12944 0.984149 0
M  V30 2822 H 291.208 -2.87527 0.83477 0
M  V30 2823 H 288.754 -1.38249 0.402875 0
M  V30 2824 H 290.707 -3.99949 -1.32735 0
M  V30 2825 H 289.431 -2.80556 -1.67199 0
M  V30 2826 H 288.09 -3.65498 0.284047 0
M  V30 2827 H 287.738 -4.61624 -1.99781 0
M  V30 2828 H 287.438 -5.83056 -0.729328 0
M  V30 2829 H 288.962 -5.87584 -1.66066 0
M  V30 2830 H 290.376 -5.70109 0.604048 0
M  V30 2831 H 288.773 -5.83945 1.38304 0
M  V30 2832 H 289.843 -4.49485 1.81911 0
M  V30 2833 N 291.186 -0.45159 -1.50991 0
M  V30 2834 C 292.597 0.00818571 -1.86698 0
M  V30 2835 C 292.948 1.40661 -1.3678 0
M  V30 2836 O 292.073 2.0391 -0.724546 0
M  V30 2837 C 292.668 0.0216303 -3.38793 0
M  V30 2838 C 291.227 0.425865 -3.73983 0
M  V30 2839 C 290.374 -0.372163 -2.74791 0
M  V30 2840 H 293.325 -0.666785 -1.44013 0
M  V30 2841 H 293.346 0.828078 -3.7138 0
M  V30 2842 H 292.858 -0.996288 -3.75094 0
M  V30 2843 H 290.959 1.44886 -3.43277 0
M  V30 2844 H 291.072 0.140761 -4.78893 0
M  V30 2845 H 289.436 0.171498 -2.54122 0
M  V30 2846 H 290.219 -1.38922 -3.13935 0
M  V30 2847 N 292.664 1.56529 -0.183458 0
M  V30 2848 C 294.075 1.83739 0.331177 0
M  V30 2849 C 294.426 1.10373 1.62211 0
M  V30 2850 O 293.551 0.36071 2.13373 0
M  V30 2851 C 294.146 3.33306 0.607646 0
M  V30 2852 C 292.705 3.60969 1.06668 0
M  V30 2853 C 291.852 2.77086 0.109029 0
M  V30 2854 H 294.803 1.53379 -0.407484 0
M  V30 2855 H 294.824 3.51444 1.45832 0
M  V30 2856 H 294.336 3.86677 -0.332086 0
M  V30 2857 H 292.437 3.13021 2.0211 0
M  V30 2858 H 292.55 4.69231 0.967447 0
M  V30 2859 H 290.914 2.47319 0.608714 0
M  V30 2860 H 291.697 3.33241 -0.82494 0
M  V30 2861 N 294.142 -0.090211 1.57342 0
M  V30 2862 C 295.388 -0.788838 1.8748 0
M  V30 2863 C 295.743 -1.76105 0.7749 0
M  V30 2864 O 295.036 -1.90302 -0.222663 0
M  V30 2865 C 295.23 -1.55222 3.21933 0
M  V30 2866 C 295.059 -0.655441 4.44898 0
M  V30 2867 C 293.829 -0.299325 5.04413 0
M  V30 2868 C 296.027 0.0397458 5.14285 0
M  V30 2869 N 294.009 0.605108 6.10911 0
M  V30 2870 C 295.38 0.802061 6.1479 0
M  V30 2871 C 297.435 0.113154 4.97771 0
M  V30 2872 C 296.138 1.63093 7.00566 0
M  V30 2873 C 298.164 0.928942 5.84059 0
M  V30 2874 C 297.526 1.67936 6.84088 0
M  V30 2875 H 293.625 -0.26467 0.735849 0
M  V30 2876 H 296.209 -0.0511453 1.94633 0
M  V30 2877 H 294.38 -2.26076 3.15823 0
M  V30 2878 H 296.112 -2.19843 3.39781 0
M  V30 2879 H 292.867 -0.648079 4.69145 0
M  V30 2880 H 293.291 1.05002 6.68808 0
M  V30 2881 H 297.933 -0.452676 4.2037 0
M  V30 2882 H 295.651 2.20781 7.77355 0
M  V30 2883 H 299.237 0.988478 5.73341 0
M  V30 2884 H 298.117 2.30044 7.49699 0
M  V30 2885 N 295.62 -1.53406 -0.361157 0
M  V30 2886 C 296.567 -1.80156 -1.44265 0
M  V30 2887 C 297.537 -0.646183 -1.53015 0
M  V30 2888 O 298.722 -0.888818 -1.68833 0
M  V30 2889 C 295.862 -2.00116 -2.81154 0
M  V30 2890 C 294.975 -3.27833 -2.81335 0
M  V30 2891 C 294.11 -3.37957 -4.09828 0
M  V30 2892 C 293.149 -4.59689 -4.04168 0
M  V30 2893 N 292.286 -4.66942 -5.24318 0
M  V30 2894 H 297.126 -2.72438 -1.20754 0
M  V30 2895 H 294.663 -1.34954 -0.585296 0
M  V30 2896 H 296.621 -2.09677 -3.60682 0
M  V30 2897 H 295.251 -1.11167 -3.03054 0
M  V30 2898 H 294.303 -3.27204 -1.94014 0
M  V30 2899 H 295.615 -4.17442 -2.73027 0
M  V30 2900 H 294.769 -3.46853 -4.97773 0
M  V30 2901 H 293.508 -2.46372 -4.20894 0
M  V30 2902 H 292.513 -4.50889 -3.14609 0
M  V30 2903 H 293.738 -5.5262 -3.947 0
M  V30 2904 H 291.684 -3.7826 -5.35962 0
M  V30 2905 H 291.601 -5.50462 -5.18197 0
M  V30 2906 H 292.869 -4.80127 -6.14084 0
M  V30 2907 N 297.098 0.621204 -1.44841 0
M  V30 2908 C 298.323 1.41244 -1.51871 0
M  V30 2909 C 298.748 1.87519 -0.147764 0
M  V30 2910 O 298.106 1.59334 0.865 0
M  V30 2911 C 298.154 2.60221 -2.49634 0
M  V30 2912 O 297.258 3.60395 -2.00473 0
M  V30 2913 H 296.599 0.42223 -0.512463 0
M  V30 2914 H 299.129 0.757305 -1.90069 0
M  V30 2915 H 299.139 3.0764 -2.67996 0
M  V30 2916 H 297.814 2.25887 -3.4921 0
M  V30 2917 H 296.391 3.19717 -1.91925 0
M  V30 2918 N 298.576 1.31904 0.862503 0
M  V30 2919 C 299.987 1.19803 1.43193 0
M  V30 2920 C 300.338 -0.192567 1.95253 0
M  V30 2921 O 299.463 -1.09081 1.86896 0
M  V30 2922 C 300.058 2.16883 2.60283 0
M  V30 2923 C 298.617 2.08692 3.13248 0
M  V30 2924 C 297.764 2.05691 1.85975 0
M  V30 2925 H 300.715 1.43846 0.670365 0
M  V30 2926 H 300.736 1.76278 3.37204 0
M  V30 2927 H 300.248 3.18083 2.22363 0
M  V30 2928 H 298.349 1.10713 3.55771 0
M  V30 2929 H 298.462 2.9815 3.75025 0
M  V30 2930 H 296.826 1.50814 2.05249 0
M  V30 2931 H 297.609 3.08659 1.50282 0
M  V30 2932 N 300.054 -1.07777 1.14986 0
M  V30 2933 C 301.279 -1.84558 0.946213 0
M  V30 2934 C 301.704 -1.81323 -0.500362 0
M  V30 2935 O 301.062 -1.20301 -1.35637 0
M  V30 2936 C 301.11 -3.29736 1.45968 0
M  V30 2937 O 300.214 -4.07149 0.65601 0
M  V30 2938 H 299.555 -0.571641 0.33782 0
M  V30 2939 H 302.085 -1.35991 1.52865 0
M  V30 2940 H 302.095 -3.80574 1.47063 0
M  V30 2941 H 300.77 -3.31406 2.51283 0
M  V30 2942 H 299.347 -3.65994 0.714322 0
M  V30 2943 N 301.532 -0.945985 -1.26051 0
M  V30 2944 C 302.757 -0.612525 -1.98149 0
M  V30 2945 C 303.182 0.806623 -1.69927 0
M  V30 2946 O 302.54 1.54411 -0.950108 0
M  V30 2947 C 302.588 -0.866981 -3.50023 0
M  V30 2948 O 301.692 0.0585333 -4.12358 0
M  V30 2949 H 301.033 -0.23379 -0.621481 0
M  V30 2950 H 303.563 -1.27023 -1.60395 0
M  V30 2951 H 303.573 -0.789792 -4.00283 0
M  V30 2952 H 302.248 -1.90135 -3.69894 0
M  V30 2953 H 300.825 -0.0701241 -3.72834 0
M  V30 2954 N 303.011 1.40521 -0.713556 0
M  V30 2955 C 304.236 2.05759 -0.26035 0
M  V30 2956 C 304.661 1.53403 1.08854 0
M  V30 2957 O 304.019 0.668535 1.68524 0
M  V30 2958 C 304.067 3.59745 -0.248122 0
M  V30 2959 O 303.171 4.05123 0.77131 0
M  V30 2960 H 302.512 0.652564 -0.122703 0
M  V30 2961 H 305.042 1.79958 -0.973467 0
M  V30 2962 H 305.052 4.07911 -0.0851129 0
M  V30 2963 H 303.727 3.97218 -1.2325 0
M  V30 2964 H 302.304 3.68422 0.57619 0
M  V30 2965 N 304.489 0.459591 1.5075 0
M  V30 2966 C 305.421 -0.37665 2.26084 0
M  V30 2967 C 306.434 -0.967109 1.30961 0
M  V30 2968 O 307.623 -0.857468 1.56556 0
M  V30 2969 C 304.723 -1.54112 3.01832 0
M  V30 2970 C 303.896 -1.06553 4.24223 0
M  V30 2971 C 302.955 -2.1027 4.82362 0
M  V30 2972 O 301.981 -1.68798 5.43595 0
M  V30 2973 N 303.183 -3.42974 4.68347 0
M  V30 2974 H 305.948 0.269124 2.98489 0
M  V30 2975 H 303.509 0.28972 1.59287 0
M  V30 2976 H 305.501 -2.23165 3.37608 0
M  V30 2977 H 304.071 -2.0918 2.32298 0
M  V30 2978 H 303.291 -0.201274 3.93686 0
M  V30 2979 H 304.579 -0.725516 5.03601 0
M  V30 2980 H 303.977 -3.79385 4.19623 0
M  V30 2981 H 302.534 -4.07858 5.08424 0
M  V30 2982 N 305.967 -1.56429 0.191757 0
M  V30 2983 C 307.378 -1.83912 -0.321428 0
M  V30 2984 C 307.729 -1.11231 -1.61623 0
M  V30 2985 O 306.854 -0.37202 -2.13178 0
M  V30 2986 C 307.449 -3.33624 -0.589961 0
M  V30 2987 C 306.008 -3.6153 -1.04753 0
M  V30 2988 C 305.155 -2.7714 -0.0943327 0
M  V30 2989 H 308.106 -1.53161 0.415612 0
M  V30 2990 H 308.127 -3.52213 -1.43966 0
M  V30 2991 H 307.639 -3.86495 0.352588 0
M  V30 2992 H 305.74 -3.14089 -2.00447 0
M  V30 2993 H 305.853 -4.69737 -0.942549 0
M  V30 2994 H 304.217 -2.47638 -0.595589 0
M  V30 2995 H 305 -3.32799 0.842601 0
M  V30 2996 N 307.445 0.0818655 -1.57387 0
M  V30 2997 C 308.375 1.09885 -2.06028 0
M  V30 2998 C 309.356 1.4098 -0.951774 0
M  V30 2999 O 310.541 1.50781 -1.22387 0
M  V30 3000 C 307.671 2.4151 -2.4958 0
M  V30 3001 C 306.625 2.24792 -3.64215 0
M  V30 3002 C 305.951 3.61712 -3.93787 0
M  V30 3003 C 307.251 1.67749 -4.94629 0
M  V30 3004 H 308.945 0.694128 -2.91243 0
M  V30 3005 H 306.491 0.332448 -1.4011 0
M  V30 3006 H 308.444 3.12939 -2.82219 0
M  V30 3007 H 307.168 2.83943 -1.61381 0
M  V30 3008 H 305.827 1.55807 -3.31843 0
M  V30 3009 H 305.475 4.01697 -3.02735 0
M  V30 3010 H 305.175 3.51368 -4.70971 0
M  V30 3011 H 306.699 4.34587 -4.28913 0
M  V30 3012 H 308.113 2.29032 -5.25564 0
M  V30 3013 H 306.51 1.68128 -5.76067 0
M  V30 3014 H 307.58 0.638059 -4.80684 0
M  V30 3015 N 308.923 1.53595 0.353017 0
M  V30 3016 C 310.334 1.61937 0.929153 0
M  V30 3017 C 310.685 0.494686 1.89861 0
M  V30 3018 O 309.81 -0.377017 2.1309 0
M  V30 3019 C 310.405 2.93526 1.69199 0
M  V30 3020 C 308.964 3.04161 2.21727 0
M  V30 3021 C 308.111 2.57322 1.03348 0
M  V30 3022 H 311.062 1.58155 0.131431 0
M  V30 3023 H 311.083 2.82034 2.55416 0
M  V30 3024 H 310.595 3.75362 0.986144 0
M  V30 3025 H 308.696 2.26938 2.95516 0
M  V30 3026 H 308.809 4.09465 2.48748 0
M  V30 3027 H 307.173 2.12499 1.40414 0
M  V30 3028 H 307.956 3.41588 0.342428 0
M  V30 3029 N 310.401 -0.613514 1.45168 0
M  V30 3030 C 311.333 -1.73825 1.4939 0
M  V30 3031 C 312.346 -1.58175 0.385304 0
M  V30 3032 O 313.535 -1.66165 0.652036 0
M  V30 3033 C 310.635 -3.11758 1.32891 0
M  V30 3034 C 309.808 -3.53704 2.57317 0
M  V30 3035 C 308.867 -4.70579 2.35462 0
M  V30 3036 O 307.893 -4.77996 3.09044 0
M  V30 3037 N 309.095 -5.63454 1.39644 0
M  V30 3038 H 311.86 -1.70669 2.46358 0
M  V30 3039 H 309.421 -0.79862 1.40832 0
M  V30 3040 H 311.413 -3.87692 1.1609 0
M  V30 3041 H 309.983 -3.09456 0.442218 0
M  V30 3042 H 309.203 -2.67794 2.89275 0
M  V30 3043 H 310.491 -3.78486 3.40038 0
M  V30 3044 H 309.889 -5.6017 0.789062 0
M  V30 3045 H 308.446 -6.38944 1.28816 0
M  V30 3046 N 311.879 -1.3236 -0.855495 0
M  V30 3047 C 313.125 -1.23054 -1.612 0
M  V30 3048 C 313.458 0.207404 -1.93089 0
M  V30 3049 O 312.733 1.14432 -1.57275 0
M  V30 3050 C 313.016 -2.08937 -2.93287 0
M  V30 3051 C 312.869 -3.61105 -2.68185 0
M  V30 3052 C 314.188 -1.94986 -3.94549 0
M  V30 3053 H 311.307 -0.448364 -0.584926 0
M  V30 3054 H 313.949 -1.62297 -0.987917 0
M  V30 3055 H 312.099 -1.75599 -3.46551 0
M  V30 3056 H 313.771 -4.04652 -2.21483 0
M  V30 3057 H 312.014 -3.83813 -2.02164 0
M  V30 3058 H 312.685 -4.16522 -3.62234 0
M  V30 3059 H 315.161 -2.24189 -3.5054 0
M  V30 3060 H 314.037 -2.57356 -4.84829 0
M  V30 3061 H 314.298 -0.917263 -4.3248 0
M  V30 3062 N 313.357 1.07166 -1.15556 0
M  V30 3063 C 314.768 1.6127 -0.940693 0
M  V30 3064 C 315.119 1.89251 0.517551 0
M  V30 3065 O 314.244 1.65937 1.38903 0
M  V30 3066 C 314.839 2.92993 -1.7012 0
M  V30 3067 C 313.398 3.43832 -1.53156 0
M  V30 3068 C 312.545 2.1786 -1.71558 0
M  V30 3069 H 315.496 0.90229 -1.30554 0
M  V30 3070 H 315.517 3.62007 -1.17181 0
M  V30 3071 H 315.029 2.72596 -2.76248 0
M  V30 3072 H 313.13 3.69307 -0.494294 0
M  V30 3073 H 313.243 4.19747 -2.30975 0
M  V30 3074 H 311.607 2.2765 -1.14225 0
M  V30 3075 H 312.39 1.99956 -2.79056 0
M  V30 3076 N 314.835 0.952656 1.25548 0
M  V30 3077 C 315.798 0.475794 2.24207 0
M  V30 3078 C 316.798 -0.419428 1.55234 0
M  V30 3079 O 317.988 -0.216994 1.72843 0
M  V30 3080 C 315.12 -0.312814 3.39462 0
M  V30 3081 H 316.313 1.34779 2.67908 0
M  V30 3082 H 313.866 0.735739 1.37901 0
M  V30 3083 H 314.601 -1.20257 3.01179 0
M  V30 3084 H 314.386 0.329404 3.90714 0
M  V30 3085 H 315.876 -0.635986 4.12729 0
M  V30 3086 N 316.313 -1.40141 0.720998 0
M  V30 3087 C 317.724 -1.83678 0.334553 0
M  V30 3088 C 318.075 -1.6027 -1.13173 0
M  V30 3089 O 317.2 -1.08643 -1.87152 0
M  V30 3090 C 317.795 -3.33437 0.600437 0
M  V30 3091 C 316.354 -3.75447 0.267642 0
M  V30 3092 C 315.501 -2.63296 0.870097 0
M  V30 3093 H 318.452 -1.29331 0.919732 0
M  V30 3094 H 318.473 -3.80269 -0.132517 0
M  V30 3095 H 317.985 -3.50442 1.66768 0
M  V30 3096 H 316.086 -3.64035 -0.794329 0
M  V30 3097 H 316.199 -4.73344 0.74042 0
M  V30 3098 H 314.563 -2.52954 0.297739 0
M  V30 3099 H 315.346 -2.83112 1.94172 0
M  V30 3100 N 317.792 -0.46758 -1.50504 0
M  V30 3101 C 318.755 0.317059 -2.26996 0
M  V30 3102 C 319.755 0.923513 -1.31635 0
M  V30 3103 O 320.945 0.793239 -1.55091 0
M  V30 3104 C 318.077 1.45134 -3.08462 0
M  V30 3105 H 319.27 -0.353723 -2.97807 0
M  V30 3106 H 316.823 -0.221545 -1.54722 0
M  V30 3107 H 317.558 2.15728 -2.4214 0
M  V30 3108 H 317.343 1.02232 -3.78538 0
M  V30 3109 H 318.833 2.00493 -3.66323 0
M  V30 3110 N 319.27 1.56325 -0.20005 0
M  V30 3111 C 320.202 2.16555 0.750771 0
M  V30 3112 C 321.215 1.12871 1.1732 0
M  V30 3113 O 322.404 1.39943 1.10807 0
M  V30 3114 C 319.504 2.71684 2.02586 0
M  V30 3115 C 318.677 4.00321 1.76244 0
M  V30 3116 C 317.736 4.40227 2.88248 0
M  V30 3117 O 316.762 5.07552 2.57642 0
M  V30 3118 N 317.964 4.04138 4.16717 0
M  V30 3119 H 320.729 2.98772 0.235685 0
M  V30 3120 H 318.29 1.6189 -0.0182594 0
M  V30 3121 H 320.282 2.95363 2.76664 0
M  V30 3122 H 318.852 1.93893 2.45202 0
M  V30 3123 H 318.072 3.84723 0.85919 0
M  V30 3124 H 319.36 4.84279 1.56048 0
M  V30 3125 H 318.758 3.49993 4.44434 0
M  V30 3126 H 317.315 4.32756 4.87407 0
M  V30 3127 N 320.748 -0.0735177 1.57428 0
M  V30 3128 C 321.973 -0.789787 1.91774 0
M  V30 3129 C 322.398 -1.70413 0.796306 0
M  V30 3130 O 321.756 -1.79555 -0.250961 0
M  V30 3131 C 321.804 -1.5609 3.25067 0
M  V30 3132 O 320.908 -2.67144 3.14178 0
M  V30 3133 H 320.249 -0.215582 0.628029 0
M  V30 3134 H 322.779 -0.0422781 2.04556 0
M  V30 3135 H 322.789 -1.94052 3.58898 0
M  V30 3136 H 321.464 -0.890015 4.06265 0
M  V30 3137 H 320.041 -2.32052 2.91901 0
M  V30 3138 N 322.226 -1.5378 -0.344866 0
M  V30 3139 C 323.158 -1.77988 -1.44406 0
M  V30 3140 C 324.171 -0.661138 -1.48771 0
M  V30 3141 O 325.36 -0.937842 -1.51877 0
M  V30 3142 C 322.46 -1.86345 -2.8307 0
M  V30 3143 C 321.633 -3.16256 -3.0216 0
M  V30 3144 C 320.692 -3.15588 -4.21059 0
M  V30 3145 O 319.718 -3.89314 -4.15239 0
M  V30 3146 N 320.92 -2.37864 -5.29529 0
M  V30 3147 H 323.685 -2.72839 -1.24012 0
M  V30 3148 H 321.246 -1.52814 -0.534737 0
M  V30 3149 H 323.238 -1.83351 -3.60783 0
M  V30 3150 H 321.808 -0.986858 -2.96614 0
M  V30 3151 H 321.028 -3.32385 -2.11929 0
M  V30 3152 H 322.316 -4.0207 -3.11797 0
M  V30 3153 H 321.714 -1.77514 -5.37127 0
M  V30 3154 H 320.271 -2.40668 -6.05741 0
M  V30 3155 N 323.704 0.605807 -1.45491 0
M  V30 3156 C 324.932 1.39136 -1.5313 0
M  V30 3157 C 325.347 1.88082 -0.164507 0
M  V30 3158 O 324.704 1.62316 0.834247 0
M  V30 3159 C 324.755 2.59463 -2.51716 0
M  V30 3160 O 324.476 2.12551 -3.83084 0
M  V30 3161 C 325.977 3.52301 -2.6907 0
M  V30 3162 H 323.197 0.425849 -0.51855 0
M  V30 3163 H 325.741 0.73865 -1.90694 0
M  V30 3164 H 323.896 3.20772 -2.17219 0
M  V30 3165 H 324.31 2.90744 -4.36541 0
M  V30 3166 H 325.784 4.33271 -3.42024 0
M  V30 3167 H 326.261 4.02757 -1.75167 0
M  V30 3168 H 326.867 2.96845 -3.04571 0
M  V30 3169 N 325.182 1.32811 0.848464 0
M  V30 3170 C 326.114 1.18095 1.96433 0
M  V30 3171 C 327.127 0.114354 1.62398 0
M  V30 3172 O 328.316 0.363892 1.74751 0
M  V30 3173 C 325.416 0.786798 3.2964 0
M  V30 3174 C 324.589 1.943 3.91875 0
M  V30 3175 C 323.648 1.53138 5.03423 0
M  V30 3176 O 322.674 2.24432 5.23086 0
M  V30 3177 N 323.876 0.430915 5.78898 0
M  V30 3178 H 326.641 2.14218 2.09597 0
M  V30 3179 H 324.202 1.2543 1.02367 0
M  V30 3180 H 326.194 0.493715 4.01677 0
M  V30 3181 H 324.764 -0.0834541 3.12489 0
M  V30 3182 H 323.984 2.40224 3.12547 0
M  V30 3183 H 325.272 2.71689 4.30189 0
M  V30 3184 H 324.67 -0.162333 5.65467 0
M  V30 3185 H 323.227 0.197466 6.51501 0
M  V30 3186 N 326.66 -1.06551 1.16123 0
M  V30 3187 C 327.907 -1.79302 0.941126 0
M  V30 3188 C 328.235 -1.87105 -0.531235 0
M  V30 3189 O 327.49 -1.35692 -1.41018 0
M  V30 3190 C 327.789 -3.23911 1.51052 0
M  V30 3191 C 327.455 -3.36193 3.00475 0
M  V30 3192 C 326.117 -3.39252 3.41265 0
M  V30 3193 C 328.469 -3.38326 3.96465 0
M  V30 3194 C 325.797 -3.42057 4.76669 0
M  V30 3195 C 328.149 -3.4267 5.31752 0
M  V30 3196 C 326.813 -3.4401 5.72026 0
M  V30 3197 H 326.083 -0.656111 0.344382 0
M  V30 3198 H 328.73 -1.25325 1.44796 0
M  V30 3199 H 327.035 -3.80723 0.925063 0
M  V30 3200 H 328.732 -3.78793 1.31593 0
M  V30 3201 H 325.322 -3.34516 2.6795 0
M  V30 3202 H 329.506 -3.35176 3.6602 0
M  V30 3203 H 324.762 -3.41398 5.07206 0
M  V30 3204 H 328.936 -3.43268 6.05921 0
M  V30 3205 H 326.563 -3.45937 6.76928 0
M  V30 3206 N 328.138 -0.959301 -1.25041 0
M  V30 3207 C 329.088 -0.453888 -2.23436 0
M  V30 3208 C 330.072 0.459461 -1.542 0
M  V30 3209 O 331.264 0.291752 -1.74579 0
M  V30 3210 C 328.393 0.262667 -3.42294 0
M  V30 3211 C 327.479 -0.669022 -4.1879 0
M  V30 3212 N 327.87 -1.80267 -4.72586 0
M  V30 3213 C 326.168 -0.47814 -4.4343 0
M  V30 3214 C 326.869 -2.38475 -5.3057 0
M  V30 3215 N 325.845 -1.67078 -5.17287 0
M  V30 3216 H 329.647 -1.319 -2.6264 0
M  V30 3217 H 327.161 -0.817358 -1.40332 0
M  V30 3218 H 329.158 0.641911 -4.11929 0
M  V30 3219 H 327.818 1.12432 -3.04613 0
M  V30 3220 H 328.829 -2.18442 -4.69578 0
M  V30 3221 H 325.506 0.340249 -4.16111 0
M  V30 3222 H 326.896 -3.34094 -5.8295 0
M  V30 3223 N 329.616 1.39756 -0.72842 0
M  V30 3224 C 330.862 2.00942 -0.273892 0
M  V30 3225 C 331.195 1.57656 1.13394 0
M  V30 3226 O 330.47 0.802434 1.77176 0
M  V30 3227 C 330.753 3.58211 -0.368346 0
M  V30 3228 C 330.606 4.11534 -1.81548 0
M  V30 3229 C 331.925 4.39372 0.253054 0
M  V30 3230 H 329.044 0.730047 -0.100996 0
M  V30 3231 H 331.686 1.66056 -0.923337 0
M  V30 3232 H 329.836 3.88061 0.184588 0
M  V30 3233 H 331.508 3.92431 -2.42478 0
M  V30 3234 H 329.751 3.65341 -2.33898 0
M  V30 3235 H 330.422 5.20682 -1.83288 0
M  V30 3236 H 332.898 4.15527 -0.218224 0
M  V30 3237 H 331.774 5.48677 0.156585 0
M  V30 3238 H 332.035 4.21358 1.33826 0
M  V30 3239 N 331.094 0.475555 1.50254 0
M  V30 3240 C 332.026 -0.352649 2.26471 0
M  V30 3241 C 333.039 -0.953165 1.3198 0
M  V30 3242 O 334.228 -0.840815 1.57457 0
M  V30 3243 C 331.328 -1.50902 3.0345 0
M  V30 3244 C 330.501 -1.02047 4.25329 0
M  V30 3245 C 329.56 -2.05142 4.84565 0
M  V30 3246 O 328.586 -1.63023 5.45355 0
M  V30 3247 N 329.788 -3.37987 4.71959 0
M  V30 3248 H 332.553 0.300767 2.98187 0
M  V30 3249 H 330.114 0.306598 1.5897 0
M  V30 3250 H 332.106 -2.19572 3.39956 0
M  V30 3251 H 330.676 -2.06705 2.34504 0
M  V30 3252 H 329.896 -0.159507 3.93877 0
M  V30 3253 H 331.184 -0.672061 5.04342 0
M  V30 3254 H 330.582 -3.74913 4.23623 0
M  V30 3255 H 329.139 -4.02443 5.12721 0
M  V30 3256 N 332.573 -1.56217 0.208337 0
M  V30 3257 C 333.984 -1.84243 -0.301904 0
M  V30 3258 C 334.335 -1.12939 -1.60434 0
M  V30 3259 O 333.46 -0.39461 -2.12772 0
M  V30 3260 C 334.055 -3.34231 -0.554543 0
M  V30 3261 C 332.614 -3.62621 -1.00912 0
M  V30 3262 C 331.761 -2.77224 -0.064933 0
M  V30 3263 H 334.712 -1.52712 0.431833 0
M  V30 3264 H 334.733 -3.5372 -1.40223 0
M  V30 3265 H 334.245 -3.86099 0.393561 0
M  V30 3266 H 332.346 -3.16197 -1.97104 0
M  V30 3267 H 332.459 -4.7071 -0.892674 0
M  V30 3268 H 330.823 -2.48256 -0.56929 0
M  V30 3269 H 331.606 -3.31887 0.877851 0
M  V30 3270 N 334.051 0.0651679 -1.57465 0
M  V30 3271 C 334.983 1.10359 -2.00882 0
M  V30 3272 C 335.996 1.346 -0.915788 0
M  V30 3273 O 337.185 1.32723 -1.1936 0
M  V30 3274 C 334.285 2.45312 -2.33828 0
M  V30 3275 C 333.458 2.40934 -3.65061 0
M  V30 3276 C 332.517 3.58047 -3.85602 0
M  V30 3277 O 331.543 3.39175 -4.57109 0
M  V30 3278 N 332.745 4.78637 -3.28462 0
M  V30 3279 H 335.51 0.733807 -2.90578 0
M  V30 3280 H 333.071 0.253719 -1.599 0
M  V30 3281 H 335.063 3.22314 -2.44737 0
M  V30 3282 H 333.633 2.74267 -1.49988 0
M  V30 3283 H 332.853 1.49273 -3.64844 0
M  V30 3284 H 334.141 2.35117 -4.51218 0
M  V30 3285 H 333.539 4.96872 -2.70433 0
M  V30 3286 H 332.096 5.53127 -3.44809 0
M  V30 3287 N 335.529 1.53961 0.336706 0
M  V30 3288 C 336.94 1.62914 0.911925 0
M  V30 3289 C 337.291 0.514795 1.89326 0
M  V30 3290 O 336.416 -0.354395 2.13478 0
M  V30 3291 C 337.011 2.95304 1.66076 0
M  V30 3292 C 335.57 3.06496 2.18489 0
M  V30 3293 C 334.717 2.58403 1.00613 0
M  V30 3294 H 337.668 1.58285 0.114649 0
M  V30 3295 H 337.689 2.84727 2.5241 0
M  V30 3296 H 337.201 3.76387 0.946276 0
M  V30 3297 H 335.302 2.3006 2.93092 0
M  V30 3298 H 335.415 4.1208 2.44391 0
M  V30 3299 H 333.779 2.13977 1.38152 0
M  V30 3300 H 334.562 3.41932 0.306179 0
M  V30 3301 N 337.007 -0.598083 1.45811 0
M  V30 3302 C 337.939 -1.72231 1.51225 0
M  V30 3303 C 338.952 -1.57757 0.402059 0
M  V30 3304 O 340.141 -1.65464 0.669624 0
M  V30 3305 C 337.241 -3.10331 1.3619 0
M  V30 3306 C 336.414 -3.50955 2.61054 0
M  V30 3307 C 335.473 -4.68055 2.40439 0
M  V30 3308 O 334.499 -4.74691 3.14097 0
M  V30 3309 N 335.701 -5.61941 1.45612 0
M  V30 3310 H 338.466 -1.68046 2.48154 0
M  V30 3311 H 336.027 -0.783637 1.41671 0
M  V30 3312 H 338.019 -3.86439 1.20195 0
M  V30 3313 H 336.589 -3.0897 0.475015 0
M  V30 3314 H 335.809 -2.64711 2.92099 0
M  V30 3315 H 337.097 -3.74858 3.44034 0
M  V30 3316 H 336.495 -5.59301 0.848431 0
M  V30 3317 H 335.052 -6.37542 1.35585 0
M  V30 3318 N 338.485 -1.33259 -0.841409 0
M  V30 3319 C 339.896 -1.22066 -1.41269 0
M  V30 3320 C 340.247 0.161479 -1.95534 0
M  V30 3321 O 339.372 1.06094 -1.88608 0
M  V30 3322 C 339.967 -2.20996 -2.568 0
M  V30 3323 C 338.526 -2.13649 -3.09888 0
M  V30 3324 C 337.673 -2.08623 -1.82679 0
M  V30 3325 H 340.624 -1.44895 -0.647395 0
M  V30 3326 H 340.645 -1.81621 -3.34356 0
M  V30 3327 H 340.157 -3.2158 -2.17274 0
M  V30 3328 H 338.258 -1.16359 -3.53965 0
M  V30 3329 H 338.371 -3.04079 -3.70234 0
M  V30 3330 H 336.735 -1.54061 -2.02824 0
M  V30 3331 H 337.518 -3.1101 -1.45353 0
M  V30 3332 N 339.963 1.05934 -1.16686 0
M  V30 3333 C 340.91 2.13499 -0.876748 0
M  V30 3334 C 341.88 1.65162 0.176299 0
M  V30 3335 O 343.065 1.90757 0.0407143 0
M  V30 3336 C 340.205 3.42912 -0.387967 0
M  V30 3337 C 339.318 4.04964 -1.50426 0
M  V30 3338 C 338.453 5.22266 -0.970125 0
M  V30 3339 C 337.492 5.76309 -2.06238 0
M  V30 3340 N 336.629 6.84922 -1.54356 0
M  V30 3341 H 341.469 2.37654 -1.7979 0
M  V30 3342 H 339.006 1.16598 -0.896843 0
M  V30 3343 H 340.964 4.17111 -0.086186 0
M  V30 3344 H 339.594 3.18963 0.496235 0
M  V30 3345 H 338.646 3.28277 -1.92193 0
M  V30 3346 H 339.958 4.41122 -2.32836 0
M  V30 3347 H 339.112 6.03506 -0.621743 0
M  V30 3348 H 337.851 4.87564 -0.115377 0
M  V30 3349 H 336.856 4.93704 -2.41942 0
M  V30 3350 H 338.081 6.13062 -2.92115 0
M  V30 3351 H 336.027 6.52131 -0.711406 0
M  V30 3352 H 335.944 7.20043 -2.30379 0
M  V30 3353 H 337.212 7.69832 -1.22387 0
M  V30 3354 N 341.441 0.965919 1.2453 0
M  V30 3355 C 342.852 0.665929 1.7442 0
M  V30 3356 C 343.203 -0.818407 1.78316 0
M  V30 3357 O 342.328 -1.64037 1.41141 0
M  V30 3358 C 342.923 1.20211 3.16757 0
M  V30 3359 C 341.482 0.952059 3.6416 0
M  V30 3360 C 340.629 1.33848 2.42858 0
M  V30 3361 H 343.58 1.14144 1.10258 0
M  V30 3362 H 343.601 0.567544 3.76244 0
M  V30 3363 H 343.113 2.28244 3.13889 0
M  V30 3364 H 341.214 -0.112821 3.72429 0
M  V30 3365 H 341.327 1.59645 4.51719 0
M  V30 3366 H 339.691 0.756864 2.43195 0
M  V30 3367 H 340.474 2.42827 2.42673 0
M  V30 3368 N 342.919 -1.39368 0.735821 0
M  V30 3369 C 343.851 -2.2913 0.0567723 0
M  V30 3370 C 344.864 -1.46859 -0.702589 0
M  V30 3371 O 346.053 -1.69925 -0.546616 0
M  V30 3372 C 343.153 -3.25492 -0.943823 0
M  V30 3373 C 342.326 -4.36709 -0.24581 0
M  V30 3374 C 341.385 -5.13376 -1.15463 0
M  V30 3375 O 340.411 -5.65683 -0.631803 0
M  V30 3376 N 341.613 -5.24656 -2.48427 0
M  V30 3377 H 344.378 -2.88047 0.827582 0
M  V30 3378 H 341.939 -1.50957 0.585112 0
M  V30 3379 H 343.931 -3.73657 -1.55443 0
M  V30 3380 H 342.501 -2.676 -1.61583 0
M  V30 3381 H 341.721 -3.9041 0.545286 0
M  V30 3382 H 343.009 -5.08244 0.237891 0
M  V30 3383 H 342.407 -4.83679 -2.93379 0
M  V30 3384 H 340.964 -5.76258 -3.04582 0
M  V30 3385 N 344.397 -0.483516 -1.5 0
M  V30 3386 C 345.643 0.0672592 -2.02688 0
M  V30 3387 C 345.976 1.38247 -1.36387 0
M  V30 3388 O 345.251 1.88131 -0.493675 0
M  V30 3389 C 345.534 0.238109 -3.59312 0
M  V30 3390 C 345.387 -1.099 -4.36168 0
M  V30 3391 C 346.706 0.986916 -4.28892 0
M  V30 3392 H 343.825 0.0229696 -0.736642 0
M  V30 3393 H 346.467 -0.631527 -1.79197 0
M  V30 3394 H 344.617 0.8333 -3.79458 0
M  V30 3395 H 346.289 -1.73172 -4.27562 0
M  V30 3396 H 344.532 -1.69261 -3.99416 0
M  V30 3397 H 345.203 -0.932954 -5.44059 0
M  V30 3398 H 347.679 0.482302 -4.13295 0
M  V30 3399 H 346.555 1.07527 -5.38265 0
M  V30 3400 H 346.816 2.0265 -3.92919 0
M  V30 3401 N 345.875 1.56104 -0.216619 0
M  V30 3402 C 346.807 2.17339 0.72776 0
M  V30 3403 C 347.82 1.14109 1.16116 0
M  V30 3404 O 349.009 1.4111 1.09317 0
M  V30 3405 C 346.109 2.73818 1.99693 0
M  V30 3406 C 345.282 4.02168 1.71988 0
M  V30 3407 C 344.341 4.43259 2.83562 0
M  V30 3408 O 343.367 5.10257 2.52244 0
M  V30 3409 N 344.569 4.08535 4.12407 0
M  V30 3410 H 347.334 2.99005 0.203983 0
M  V30 3411 H 344.895 1.61861 -0.0354289 0
M  V30 3412 H 346.887 2.9828 2.73516 0
M  V30 3413 H 345.457 1.96483 2.43132 0
M  V30 3414 H 344.677 3.85612 0.818337 0
M  V30 3415 H 345.965 4.85907 1.50903 0
M  V30 3416 H 345.363 3.54687 4.40696 0
M  V30 3417 H 343.92 4.37901 4.8279 0
M  V30 3418 N 347.353 -0.0568162 1.57498 0
M  V30 3419 C 348.283 -1.06593 2.0775 0
M  V30 3420 C 349.264 -1.39448 0.974082 0
M  V30 3421 O 350.449 -1.48815 1.24771 0
M  V30 3422 C 347.579 -2.37509 2.5339 0
M  V30 3423 C 346.533 -2.1897 3.67745 0
M  V30 3424 C 345.859 -3.55402 3.99492 0
M  V30 3425 C 347.159 -1.59859 4.97235 0
M  V30 3426 H 348.853 -0.647706 2.9231 0
M  V30 3427 H 346.399 -0.310116 1.40621 0
M  V30 3428 H 348.352 -3.08409 2.87162 0
M  V30 3429 H 347.076 -2.8134 1.65878 0
M  V30 3430 H 345.735 -1.50508 3.3428 0
M  V30 3431 H 345.383 -3.9683 3.09088 0
M  V30 3432 H 345.083 -3.43831 4.76502 0
M  V30 3433 H 346.607 -4.27708 4.35773 0
M  V30 3434 H 348.021 -2.20642 5.29141 0
M  V30 3435 H 346.418 -1.58942 5.78669 0
M  V30 3436 H 347.488 -0.561506 4.81638 0
M  V30 3437 N 348.832 -1.54138 -0.328536 0
M  V30 3438 C 349.782 -1.79557 -1.4051 0
M  V30 3439 C 350.766 -0.651373 -1.47126 0
M  V30 3440 O 351.958 -0.911226 -1.51742 0
M  V30 3441 C 349.087 -2.02196 -2.77438 0
M  V30 3442 C 348.173 -3.22724 -2.75155 0
M  V30 3443 N 348.564 -4.43881 -2.42494 0
M  V30 3444 C 346.862 -3.24196 -3.06289 0
M  V30 3445 C 347.563 -5.25797 -2.48822 0
M  V30 3446 N 346.539 -4.62862 -2.8506 0
M  V30 3447 H 350.341 -2.70814 -1.1418 0
M  V30 3448 H 347.855 -1.53265 -0.536991 0
M  V30 3449 H 349.852 -2.18546 -3.55026 0
M  V30 3450 H 348.512 -1.12191 -3.04702 0
M  V30 3451 H 349.523 -4.70969 -2.15428 0
M  V30 3452 H 346.2 -2.44208 -3.38627 0
M  V30 3453 H 347.59 -6.32535 -2.26603 0
M  V30 3454 N 350.31 0.590341 -1.46126 0
M  V30 3455 C 351.556 1.35082 -1.51264 0
M  V30 3456 C 351.889 1.93534 -0.160711 0
M  V30 3457 O 351.164 1.76045 0.826956 0
M  V30 3458 C 351.447 2.48588 -2.6053 0
M  V30 3459 C 351.3 1.95221 -4.05227 0
M  V30 3460 C 352.619 3.50662 -2.6594 0
M  V30 3461 H 349.738 0.489803 -0.550692 0
M  V30 3462 H 352.38 0.663887 -1.78024 0
M  V30 3463 H 350.53 3.07186 -2.37843 0
M  V30 3464 H 352.202 1.41139 -4.39178 0
M  V30 3465 H 350.445 1.26101 -4.15068 0
M  V30 3466 H 351.116 2.77121 -4.77397 0
M  V30 3467 H 353.592 3.01934 -2.86313 0
M  V30 3468 H 352.468 4.27551 -3.44226 0
M  V30 3469 H 352.729 4.07399 -1.71694 0
M  V30 3470 N 351.788 1.33704 0.83433 0
M  V30 3471 C 352.72 1.20172 1.9517 0
M  V30 3472 C 353.733 0.131572 1.62267 0
M  V30 3473 O 354.922 0.382406 1.74356 0
M  V30 3474 C 352.022 0.821716 3.28787 0
M  V30 3475 C 351.195 1.98446 3.89792 0
M  V30 3476 C 350.254 1.58469 5.01771 0
M  V30 3477 O 349.28 2.29968 5.20676 0
M  V30 3478 N 350.482 0.492291 5.78409 0
M  V30 3479 H 353.247 2.16429 2.07313 0
M  V30 3480 H 350.808 1.26509 1.0103 0
M  V30 3481 H 352.8 0.536291 4.01131 0
M  V30 3482 H 351.37 -0.0503058 3.1256 0
M  V30 3483 H 350.59 2.43526 3.09982 0
M  V30 3484 H 351.878 2.76236 4.27283 0
M  V30 3485 H 351.276 -0.102349 5.65607 0
M  V30 3486 H 349.833 0.266555 6.51255 0
M  V30 3487 N 353.266 -1.05314 1.17247 0
M  V30 3488 C 354.491 -1.82509 0.985148 0
M  V30 3489 C 354.916 -1.82343 -0.461788 0
M  V30 3490 O 354.274 -1.23151 -1.33055 0
M  V30 3491 C 354.322 -3.26566 1.52929 0
M  V30 3492 O 353.426 -4.05666 0.742225 0
M  V30 3493 H 352.767 -0.564347 0.349869 0
M  V30 3494 H 355.297 -1.32718 1.55715 0
M  V30 3495 H 355.307 -3.77369 1.55103 0
M  V30 3496 H 353.982 -3.26001 2.58256 0
M  V30 3497 H 352.559 -3.64397 0.791794 0
M  V30 3498 N 354.744 -0.972509 -1.24016 0
M  V30 3499 C 355.676 -0.464375 -2.24446 0
M  V30 3500 C 356.689 0.4295 -1.57032 0
M  V30 3501 O 357.878 0.234902 -1.76948 0
M  V30 3502 C 354.978 0.348385 -3.37105 0
M  V30 3503 C 354.151 -0.53673 -4.34094 0
M  V30 3504 C 353.21 0.220838 -5.25736 0
M  V30 3505 O 352.236 -0.386867 -5.67884 0
M  V30 3506 N 353.438 1.50907 -5.60542 0
M  V30 3507 H 356.203 -1.32788 -2.68677 0
M  V30 3508 H 353.764 -0.844877 -1.38107 0
M  V30 3509 H 355.756 0.863341 -3.95384 0
M  V30 3510 H 354.326 1.11285 -2.92121 0
M  V30 3511 H 353.546 -1.23261 -3.74433 0
M  V30 3512 H 354.834 -1.14022 -4.95859 0
M  V30 3513 H 354.232 2.02444 -5.28236 0
M  V30 3514 H 352.789 1.96962 -6.21329 0
M  V30 3515 N 356.222 1.38976 -0.743202 0
M  V30 3516 C 357.45 2.04636 -0.30525 0
M  V30 3517 C 357.865 1.56044 1.06281 0
M  V30 3518 O 357.222 0.728921 1.67311 0
M  V30 3519 C 357.273 3.60193 -0.307177 0
M  V30 3520 O 356.994 4.06998 -1.62124 0
M  V30 3521 C 358.495 4.4306 0.145928 0
M  V30 3522 H 355.715 0.65788 -0.132041 0
M  V30 3523 H 358.259 1.77866 -1.00915 0
M  V30 3524 H 356.414 3.85835 0.347898 0
M  V30 3525 H 356.828 5.01371 -1.54036 0
M  V30 3526 H 358.302 5.51921 0.0934183 0
M  V30 3527 H 358.779 4.22706 1.19231 0
M  V30 3528 H 359.385 4.22584 -0.479886 0
M  V30 3529 N 357.7 0.491464 1.49741 0
M  V30 3530 C 358.632 -0.328609 2.26832 0
M  V30 3531 C 359.645 -0.939113 1.32983 0
M  V30 3532 O 360.834 -0.824067 1.58339 0
M  V30 3533 C 357.934 -1.47675 3.05033 0
M  V30 3534 C 357.107 -0.975305 4.26388 0
M  V30 3535 C 356.166 -1.99991 4.86714 0
M  V30 3536 O 355.192 -1.57229 5.47054 0
M  V30 3537 N 356.394 -3.32962 4.75517 0
M  V30 3538 H 359.159 0.332377 2.97851 0
M  V30 3539 H 356.72 0.323441 1.58636 0
M  V30 3540 H 358.712 -2.15954 3.42266 0
M  V30 3541 H 357.282 -2.04206 2.36683 0
M  V30 3542 H 356.502 -0.117723 3.94024 0
M  V30 3543 H 357.79 -0.618531 5.05026 0
M  V30 3544 H 357.188 -3.70399 4.27576 0
M  V30 3545 H 355.745 -3.96982 5.16961 0
M  V30 3546 N 359.178 -1.55987 0.224894 0
M  V30 3547 C 360.589 -1.84553 -0.282345 0
M  V30 3548 C 360.94 -1.14634 -1.59227 0
M  V30 3549 O 360.065 -0.417155 -2.12341 0
M  V30 3550 C 360.66 -3.348 -0.519062 0
M  V30 3551 C 359.219 -3.63671 -0.970604 0
M  V30 3552 C 358.366 -2.77277 -0.0355261 0
M  V30 3553 H 361.317 -1.52245 0.448006 0
M  V30 3554 H 361.338 -3.55187 -1.36463 0
M  V30 3555 H 360.85 -3.8566 0.43449 0
M  V30 3556 H 358.951 -3.1827 -1.9374 0
M  V30 3557 H 359.064 -4.71631 -0.842698 0
M  V30 3558 H 357.428 -2.48846 -0.542927 0
M  V30 3559 H 358.211 -3.30937 0.913003 0
M  V30 3560 N 360.656 0.0484629 -1.57525 0
M  V30 3561 C 361.902 0.744226 -1.88651 0
M  V30 3562 C 362.235 1.76029 -0.820212 0
M  V30 3563 O 361.51 1.93782 0.166985 0
M  V30 3564 C 361.793 1.43128 -3.30434 0
M  V30 3565 C 361.646 0.43005 -4.47739 0
M  V30 3566 C 362.965 2.37031 -3.70816 0
M  V30 3567 H 360.084 0.269089 -0.68612 0
M  V30 3568 H 362.726 0.00713532 -1.89999 0
M  V30 3569 H 360.876 2.05956 -3.29415 0
M  V30 3570 H 362.548 -0.194816 -4.60888 0
M  V30 3571 H 360.791 -0.252522 -4.33064 0
M  V30 3572 H 361.462 0.948874 -5.43783 0
M  V30 3573 H 363.938 1.84263 -3.73077 0
M  V30 3574 H 362.814 2.82094 -4.70865 0
M  V30 3575 H 363.075 3.22864 -3.02012 0
M  V30 3576 N 362.134 1.5431 0.320358 0
M  V30 3577 C 363.359 1.76954 1.08175 0
M  V30 3578 C 363.784 0.518193 1.80821 0
M  V30 3579 O 363.142 -0.530411 1.73368 0
M  V30 3580 C 363.19 2.96451 2.05303 0
M  V30 3581 O 362.294 2.68221 3.13259 0
M  V30 3582 H 361.635 0.586275 0.311733 0
M  V30 3583 H 364.165 2.01342 0.363676 0
M  V30 3584 H 364.175 3.23887 2.48116 0
M  V30 3585 H 362.85 3.87196 1.51829 0
M  V30 3586 H 361.427 2.51744 2.75099 0
M  V30 3587 N 363.613 -0.582584 1.46437 0
M  V30 3588 C 364.543 -1.70187 1.59871 0
M  V30 3589 C 365.524 -1.64066 0.449042 0
M  V30 3590 O 366.709 -1.82081 0.6753 0
M  V30 3591 C 363.839 -3.08827 1.58881 0
M  V30 3592 C 362.793 -3.29779 2.72819 0
M  V30 3593 C 362.119 -4.68947 2.5689 0
M  V30 3594 C 363.419 -3.17601 4.1464 0
M  V30 3595 H 365.113 -1.592 2.53566 0
M  V30 3596 H 362.659 -0.764472 1.22032 0
M  V30 3597 H 364.612 -3.86951 1.66873 0
M  V30 3598 H 363.336 -3.20713 0.617306 0
M  V30 3599 H 361.995 -2.54054 2.64296 0
M  V30 3600 H 361.643 -4.77599 1.57823 0
M  V30 3601 H 361.343 -4.83919 3.33312 0
M  V30 3602 H 362.867 -5.4924 2.66773 0
M  V30 3603 H 364.281 -3.8557 4.24274 0
M  V30 3604 H 362.678 -3.44094 4.9165 0
M  V30 3605 H 363.748 -2.14681 4.34788 0
M  V30 3606 N 365.091 -1.34144 -0.827227 0
M  V30 3607 C 366.054 -1.25264 -1.91942 0
M  V30 3608 C 367.054 -0.168866 -1.59911 0
M  V30 3609 O 368.244 -0.421198 -1.69031 0
M  V30 3610 C 365.376 -0.932952 -3.27885 0
M  V30 3611 H 366.569 -2.22357 -2.0124 0
M  V30 3612 H 364.122 -1.1837 -1.0207 0
M  V30 3613 H 364.857 0.0349917 -3.24281 0
M  V30 3614 H 364.642 -1.71682 -3.52516 0
M  V30 3615 H 366.132 -0.895874 -4.07877 0
M  V30 3616 N 366.569 1.04691 -1.17803 0
M  V30 3617 C 367.517 2.14665 -0.895635 0
M  V30 3618 C 368.511 1.68806 0.141679 0
M  V30 3619 O 369.717 1.79999 -0.00587914 0
M  V30 3620 H 366.092 0.701038 -0.272121 0
M  V30 3621 H 368.063 2.35685 -1.83017 0
M  V30 3622 C 366.812 3.45019 -0.430962 0
M  V30 3623 H 366.135 3.8071 -1.22064 0
M  V30 3624 H 367.575 4.23125 -0.272301 0
M  V30 3625 C 366.034 3.25943 0.852207 0
M  V30 3626 O 366.564 3.5296 1.91786 0
M  V30 3627 N 364.77 2.79304 0.802346 0
M  V30 3628 H 364.317 2.57518 -0.0650788 0
M  V30 3629 H 364.275 2.66921 1.66134 0
M  V30 3630 N 368.047 0.979072 1.23499 0
M  V30 3631 C 369.275 0.665202 1.95915 0
M  V30 3632 C 369.69 -0.767571 1.72493 0
M  V30 3633 O 369.047 -1.51635 1.01554 0
M  V30 3634 C 369.098 0.944438 3.48945 0
M  V30 3635 O 368.819 2.3209 3.71572 0
M  V30 3636 C 370.32 0.646336 4.38563 0
M  V30 3637 H 367.54 0.247218 0.623798 0
M  V30 3638 H 370.084 1.31009 1.57025 0
M  V30 3639 H 368.239 0.345575 3.85856 0
M  V30 3640 H 368.653 2.40957 4.65876 0
M  V30 3641 H 370.127 0.892091 5.44744 0
M  V30 3642 H 370.604 -0.419575 4.37191 0
M  V30 3643 H 371.21 1.22562 4.07258 0
M  V30 3644 N 369.525 -1.3858 0.750561 0
M  V30 3645 C 370.457 -2.29057 0.0810714 0
M  V30 3646 C 371.47 -1.47596 -0.686973 0
M  V30 3647 O 372.659 -1.70495 -0.528563 0
M  V30 3648 C 369.759 -3.26475 -0.909247 0
M  V30 3649 C 368.932 -4.36945 -0.199478 0
M  V30 3650 C 367.991 -5.14572 -1.10011 0
M  V30 3651 O 367.017 -5.66321 -0.57177 0
M  V30 3652 N 368.219 -5.27262 -2.42849 0
M  V30 3653 H 370.984 -2.87153 0.858087 0
M  V30 3654 H 368.545 -1.50328 0.60109 0
M  V30 3655 H 370.537 -3.75285 -1.51471 0
M  V30 3656 H 369.107 -2.69298 -1.58736 0
M  V30 3657 H 368.327 -3.8981 0.586664 0
M  V30 3658 H 369.615 -5.07963 0.291783 0
M  V30 3659 H 369.013 -4.86763 -2.88233 0
M  V30 3660 H 367.57 -5.79456 -2.98453 0
M  V30 3661 N 371.003 -0.499398 -1.49478 0
M  V30 3662 C 372.414 -0.051215 -1.8663 0
M  V30 3663 C 372.765 1.36238 -1.41186 0
M  V30 3664 O 371.89 2.01502 -0.789051 0
M  V30 3665 C 372.485 -0.0861651 -3.3869 0
M  V30 3666 C 371.044 0.30667 -3.75149 0
M  V30 3667 C 370.191 -0.459397 -2.73468 0
M  V30 3668 H 373.142 -0.712264 -1.41818 0
M  V30 3669 H 373.163 0.709507 -3.73826 0
M  V30 3670 H 372.675 -1.11512 -3.71735 0
M  V30 3671 H 370.776 1.33892 -3.47712 0
M  V30 3672 H 370.889 -0.0116669 -4.79099 0
M  V30 3673 H 369.253 0.0905645 -2.54539 0
M  V30 3674 H 370.036 -1.4884 -3.09357 0
M  V30 3675 N 372.481 1.55866 -0.233164 0
M  V30 3676 C 373.897 1.59133 0.121988 0
M  V30 3677 C 374.097 1.25016 1.58029 0
M  V30 3678 O 373.153 0.990922 2.32243 0
M  V30 3679 C 374.466 2.99932 -0.214792 0
M  V30 3680 C 376.014 3.12601 -0.157971 0
M  V30 3681 C 376.489 4.55597 -0.46859 0
M  V30 3682 N 377.98 4.61305 -0.418585 0
M  V30 3683 C 378.715 5.69903 -0.63227 0
M  V30 3684 N 378.211 6.86819 -0.90835 0
M  V30 3685 N 380.004 5.59264 -0.563913 0
M  V30 3686 H 372.155 1.76315 -1.18434 0
M  V30 3687 H 374.418 0.820093 -0.475553 0
M  V30 3688 H 374.124 3.29588 -1.22739 0
M  V30 3689 H 373.998 3.74327 0.464691 0
M  V30 3690 H 376.385 2.82735 0.845283 0
M  V30 3691 H 376.466 2.40511 -0.871102 0
M  V30 3692 H 376.11 4.86182 -1.46934 0
M  V30 3693 H 376.04 5.25928 0.265865 0
M  V30 3694 H 378.531 3.77297 -0.213368 0
M  V30 3695 H 378.844 7.65507 -1.05919 0
M  V30 3696 H 377.189 6.88536 -0.945673 0
M  V30 3697 H 380.38 4.66802 -0.348372 0
M  V30 3698 H 380.553 6.43831 -0.733847 0
M  V30 3699 N 373.959 -0.0401083 1.57549 0
M  V30 3700 C 375.207 -0.731677 1.8839 0
M  V30 3701 C 375.528 -1.76481 0.829425 0
M  V30 3702 O 374.798 -1.95411 -0.1383 0
M  V30 3703 H 373.378 -0.273225 0.695239 0
M  V30 3704 H 376.04 -0.00867725 1.94898 0
M  V30 3705 H 375.136 -1.22816 2.86919 0
M  V30 3706 N 375.437 -1.54477 -0.31217 0
M  V30 3707 C 376.848 -1.64344 -0.885891 0
M  V30 3708 C 377.199 -0.54485 -1.88483 0
M  V30 3709 O 376.324 0.320387 -2.14015 0
M  V30 3710 C 376.919 -2.97908 -1.61357 0
M  V30 3711 C 375.478 -3.09933 -2.13585 0
M  V30 3712 C 374.625 -2.59971 -0.964897 0
M  V30 3713 H 377.576 -1.58448 -0.0894528 0
M  V30 3714 H 377.597 -2.88706 -2.47848 0
M  V30 3715 H 377.109 -3.77845 -0.886277 0
M  V30 3716 H 375.21 -2.34694 -2.89395 0
M  V30 3717 H 375.323 -4.15916 -2.37804 0
M  V30 3718 H 373.687 -2.16147 -1.34731 0
M  V30 3719 H 374.47 -3.42376 -0.251742 0
M  V30 3720 N 376.915 0.57481 -1.46744 0
M  V30 3721 C 378.326 1.15695 -1.46532 0
M  V30 3722 C 378.677 1.95068 -0.210425 0
M  V30 3723 O 377.802 2.05241 0.685944 0
M  V30 3724 C 378.397 2.1048 -2.65487 0
M  V30 3725 C 376.956 2.64002 -2.68291 0
M  V30 3726 C 376.103 1.40026 -2.39349 0
M  V30 3727 H 379.054 0.362325 -1.54509 0
M  V30 3728 H 379.075 2.94074 -2.41455 0
M  V30 3729 H 378.587 1.52683 -3.56805 0
M  V30 3730 H 376.688 3.25646 -1.81067 0
M  V30 3731 H 376.801 3.06197 -3.68483 0
M  V30 3732 H 375.165 1.70106 -1.89568 0
M  V30 3733 H 375.948 0.840485 -3.32852 0
M  V30 3734 N 378.394 1.34581 0.820102 0
M  V30 3735 C 379.357 1.2628 1.91275 0
M  V30 3736 C 380.357 0.177344 1.59819 0
M  V30 3737 O 381.547 0.430156 1.68806 0
M  V30 3738 C 378.679 0.950327 3.27386 0
M  V30 3739 H 379.872 2.23421 2.00057 0
M  V30 3740 H 377.425 1.1891 1.0144 0
M  V30 3741 H 378.16 -0.0177938 3.24295 0
M  V30 3742 H 377.945 1.73549 3.51601 0
M  V30 3743 H 379.435 0.917492 4.07396 0
M  V30 3744 N 379.872 -1.04064 1.18357 0
M  V30 3745 C 381.097 -1.81454 1.00445 0
M  V30 3746 C 381.522 -1.82823 -0.442423 0
M  V30 3747 O 380.88 -1.24555 -1.31741 0
M  V30 3748 C 380.928 -3.24925 1.56384 0
M  V30 3749 O 380.032 -4.04856 0.785209 0
M  V30 3750 H 379.373 -0.560604 0.355835 0
M  V30 3751 H 381.903 -1.31059 1.57114 0
M  V30 3752 H 381.913 -3.75702 1.59097 0
M  V30 3753 H 380.588 -3.23244 2.61699 0
M  V30 3754 H 379.165 -3.63537 0.830399 0
M  V30 3755 N 381.35 -0.985608 -1.22978 0
M  V30 3756 C 382.575 -0.675254 -1.961 0
M  V30 3757 C 383 0.752154 -1.72407 0
M  V30 3758 O 382.358 1.5131 -0.998751 0
M  V30 3759 C 382.406 -0.977899 -3.47087 0
M  V30 3760 O 381.51 -0.072685 -4.12336 0
M  V30 3761 H 380.851 -0.253443 -0.613728 0
M  V30 3762 H 383.381 -1.32061 -1.56272 0
M  V30 3763 H 383.391 -0.916739 -3.97567 0
M  V30 3764 H 382.066 -2.01807 -3.63657 0
M  V30 3765 H 380.643 -0.188703 -3.72422 0
M  V30 3766 N 382.828 1.3818 -0.7579 0
M  V30 3767 C 384.239 1.82726 -0.383134 0
M  V30 3768 C 384.59 1.63214 1.08884 0
M  V30 3769 O 383.715 1.13566 1.84205 0
M  V30 3770 C 384.31 3.31728 -0.688631 0
M  V30 3771 C 382.869 3.74606 -0.367091 0
M  V30 3772 C 382.016 2.60896 -0.939599 0
M  V30 3773 H 384.967 1.26847 -0.953699 0
M  V30 3774 H 384.988 3.80487 0.0316492 0
M  V30 3775 H 384.5 3.45898 -1.76001 0
M  V30 3776 H 382.601 3.66013 0.697532 0
M  V30 3777 H 382.714 4.71215 -0.865658 0
M  V30 3778 H 381.078 2.52075 -0.3647 0
M  V30 3779 H 381.861 2.77864 -2.0161 0
M  V30 3780 N 384.306 0.507319 1.49211 0
M  V30 3781 C 385.269 -0.256763 2.27757 0
M  V30 3782 C 386.269 -0.888287 1.34038 0
M  V30 3783 O 387.459 -0.751841 1.5714 0
M  V30 3784 C 384.591 -1.36905 3.12202 0
M  V30 3785 H 385.784 0.432557 2.96764 0
M  V30 3786 H 383.337 0.262488 1.5408 0
M  V30 3787 H 384.072 -2.09233 2.47775 0
M  V30 3788 H 383.857 -0.921599 3.81115 0
M  V30 3789 H 385.347 -1.9071 3.7151 0
M  V30 3790 N 385.784 -1.5574 0.241426 0
M  V30 3791 C 387.195 -1.84842 -0.262755 0
M  V30 3792 C 387.546 -1.16317 -1.58003 0
M  V30 3793 O 386.671 -0.439653 -2.11887 0
M  V30 3794 C 387.266 -3.35332 -0.483523 0
M  V30 3795 C 385.825 -3.6468 -0.931977 0
M  V30 3796 C 384.972 -2.77299 -0.0061151 0
M  V30 3797 H 387.923 -1.51761 0.464129 0
M  V30 3798 H 387.944 -3.56615 -1.32688 0
M  V30 3799 H 387.456 -3.85178 0.47537 0
M  V30 3800 H 385.557 -3.20307 -1.90353 0
M  V30 3801 H 385.67 -4.72498 -0.792628 0
M  V30 3802 H 384.034 -2.49408 -0.516503 0
M  V30 3803 H 384.817 -3.2995 0.948052 0
M  V30 3804 N 387.262 0.0317525 -1.57568 0
M  V30 3805 C 388.225 1.01783 -2.0536 0
M  V30 3806 C 389.225 1.29203 -0.957253 0
M  V30 3807 O 390.415 1.24251 -1.22095 0
M  V30 3808 C 387.547 2.35137 -2.46827 0
M  V30 3809 H 388.74 0.605062 -2.93733 0
M  V30 3810 H 386.293 0.278514 -1.53799 0
M  V30 3811 H 387.028 2.81168 -1.61602 0
M  V30 3812 H 386.813 2.16566 -3.26866 0
M  V30 3813 H 388.303 3.05938 -2.84239 0
M  V30 3814 N 388.74 1.54641 0.303973 0
M  V30 3815 C 390.151 1.64811 0.877163 0
M  V30 3816 C 390.502 0.554838 1.88191 0
M  V30 3817 O 389.627 -0.309033 2.14182 0
M  V30 3818 C 390.222 2.9876 1.59775 0
M  V30 3819 C 388.781 3.11061 2.11938 0
M  V30 3820 C 387.928 2.60479 0.951097 0
M  V30 3821 H 390.879 1.58493 0.0810486 0
M  V30 3822 H 390.9 2.90017 2.46314 0
M  V30 3823 H 390.412 3.7831 0.866226 0
M  V30 3824 H 388.513 2.36225 2.88146 0
M  V30 3825 H 388.626 4.17171 2.35595 0
M  V30 3826 H 386.99 2.16859 1.33583 0
M  V30 3827 H 387.773 3.42504 0.233581 0
M  V30 3828 N 390.218 -0.567019 1.47046 0
M  V30 3829 C 391.165 -1.67489 1.58796 0
M  V30 3830 C 392.135 -1.60399 0.43144 0
M  V30 3831 O 393.32 -1.79378 0.650233 0
M  V30 3832 C 390.46 -3.05821 1.59899 0
M  V30 3833 C 389.573 -3.2342 2.86397 0
M  V30 3834 C 388.708 -4.52093 2.789 0
M  V30 3835 C 387.747 -4.6309 4.00267 0
M  V30 3836 N 386.884 -5.83106 3.91064 0
M  V30 3837 H 391.724 -1.56785 2.53422 0
M  V30 3838 H 389.261 -0.763896 1.2571 0
M  V30 3839 H 391.219 -3.8591 1.58522 0
M  V30 3840 H 389.849 -3.15384 0.687929 0
M  V30 3841 H 388.901 -2.3683 2.97684 0
M  V30 3842 H 390.213 -3.27412 3.76301 0
M  V30 3843 H 389.367 -5.4043 2.75718 0
M  V30 3844 H 388.106 -4.50565 1.86662 0
M  V30 3845 H 387.111 -3.73168 4.03765 0
M  V30 3846 H 388.336 -4.66386 4.93621 0
M  V30 3847 H 386.282 -5.82546 3.01623 0
M  V30 3848 H 386.199 -5.88434 4.74638 0
M  V30 3849 H 387.467 -6.73831 3.91882 0
M  V30 3850 N 391.696 -1.35014 -0.812953 0
M  V30 3851 C 392.943 -1.27931 -1.56971 0
M  V30 3852 C 393.271 0.148034 -1.93936 0
M  V30 3853 O 392.526 1.11175 -1.61054 0
M  V30 3854 C 392.825 -2.12524 -2.87347 0
M  V30 3855 C 392.491 -3.61401 -2.6963 0
M  V30 3856 C 391.153 -4.01983 -2.64506 0
M  V30 3857 C 393.505 -4.55894 -2.52607 0
M  V30 3858 C 390.833 -5.35235 -2.40293 0
M  V30 3859 C 393.185 -5.89336 -2.29925 0
M  V30 3860 C 391.849 -6.2907 -2.23219 0
M  V30 3861 H 391.119 -0.468131 -0.574399 0
M  V30 3862 H 393.766 -1.66851 -0.939836 0
M  V30 3863 H 392.071 -1.66463 -3.54679 0
M  V30 3864 H 393.768 -2.04383 -3.45005 0
M  V30 3865 H 390.358 -3.29193 -2.74463 0
M  V30 3866 H 394.542 -4.25431 -2.55583 0
M  V30 3867 H 389.798 -5.65028 -2.33566 0
M  V30 3868 H 393.972 -6.62139 -2.15743 0
M  V30 3869 H 391.599 -7.32256 -2.04219 0
M  V30 3870 N 393.175 1.03435 -1.18907 0
M  V30 3871 C 394.4 1.80919 -1.01406 0
M  V30 3872 C 394.825 1.83055 0.432721 0
M  V30 3873 O 394.183 1.25252 1.31079 0
M  V30 3874 C 394.231 3.24091 -1.58105 0
M  V30 3875 O 393.335 4.04434 -0.806669 0
M  V30 3876 H 392.676 0.558709 -0.358803 0
M  V30 3877 H 395.206 1.30223 -1.57807 0
M  V30 3878 H 395.216 3.74853 -1.61087 0
M  V30 3879 H 393.891 3.21851 -2.6341 0
M  V30 3880 H 392.468 3.63091 -0.849666 0
M  V30 3881 N 394.653 0.992116 1.22453 0
M  V30 3882 C 396.064 0.702776 1.72968 0
M  V30 3883 C 396.415 -0.780399 1.80012 0
M  V30 3884 O 395.54 -1.61007 1.44589 0
M  V30 3885 C 396.135 1.26903 3.14135 0
M  V30 3886 C 394.694 1.02909 3.62059 0
M  V30 3887 C 393.841 1.38969 2.39964 0
M  V30 3888 H 396.792 1.16457 1.07812 0
M  V30 3889 H 396.813 0.647223 3.74955 0
M  V30 3890 H 396.325 2.34851 3.08977 0
M  V30 3891 H 394.426 -0.0337979 3.72585 0
M  V30 3892 H 394.539 1.69191 4.48231 0
M  V30 3893 H 392.903 0.808279 2.41535 0
M  V30 3894 H 393.686 2.4792 2.37467 0
M  V30 3895 N 396.131 -1.37776 0.765217 0
M  V30 3896 C 397.377 -2.00145 0.327072 0
M  V30 3897 C 397.71 -1.60607 -1.09175 0
M  V30 3898 O 396.985 -0.849127 -1.74986 0
M  V30 3899 C 397.268 -3.57109 0.46319 0
M  V30 3900 C 397.121 -4.06576 1.92395 0
M  V30 3901 C 398.44 -4.39888 -0.136473 0
M  V30 3902 H 395.559 -0.727113 0.120316 0
M  V30 3903 H 398.201 -1.63549 0.967039 0
M  V30 3904 H 396.351 -3.88414 -0.0816358 0
M  V30 3905 H 398.023 -3.85864 2.52798 0
M  V30 3906 H 396.266 -3.59011 2.43503 0
M  V30 3907 H 396.937 -5.15639 1.97028 0
M  V30 3908 H 399.413 -4.14803 0.328317 0
M  V30 3909 H 398.289 -5.48899 -0.0110582 0
M  V30 3910 H 398.55 -4.24758 -1.22608 0
M  V30 3911 N 397.609 -0.515225 -1.4894 0
M  V30 3912 C 398.837 0.0206034 -2.0689 0
M  V30 3913 C 399.252 1.29514 -1.37374 0
M  V30 3914 O 398.609 1.76698 -0.456529 0
M  V30 3915 C 398.66 0.26351 -3.60538 0
M  V30 3916 O 398.381 -0.960517 -4.27441 0
M  V30 3917 C 399.882 0.841383 -4.35242 0
M  V30 3918 H 397.102 -0.0268608 -0.670462 0
M  V30 3919 H 399.646 -0.716651 -1.91532 0
M  V30 3920 H 397.801 0.950777 -3.75552 0
M  V30 3921 H 398.215 -0.73212 -5.19365 0
M  V30 3922 H 399.689 0.96085 -5.43573 0
M  V30 3923 H 400.166 1.8427 -3.98674 0
M  V30 3924 H 400.772 0.191143 -4.2487 0
M  V30 3925 N 399.087 1.5561 -0.249682 0
M  V30 3926 C 400.498 1.84979 0.252949 0
M  V30 3927 C 400.849 1.17153 1.57384 0
M  V30 3928 O 399.974 0.450884 2.11651 0
M  V30 3929 C 400.569 3.35584 0.465732 0
M  V30 3930 C 399.128 3.65169 0.912624 0
M  V30 3931 C 398.275 2.77299 -0.00859085 0
M  V30 3932 H 401.226 1.51513 -0.47217 0
M  V30 3933 H 401.247 3.57313 1.30795 0
M  V30 3934 H 400.759 3.8492 -0.49579 0
M  V30 3935 H 398.86 3.21312 1.88652 0
M  V30 3936 H 398.973 4.72912 0.767559 0
M  V30 3937 H 397.337 2.49678 0.50327 0
M  V30 3938 H 398.12 3.29442 -0.965537 0
M  V30 3939 N 400.565 -0.0233959 1.57583 0
M  V30 3940 C 401.512 -1.02224 2.06927 0
M  V30 3941 C 402.482 -1.35575 0.959617 0
M  V30 3942 O 403.667 -1.45815 1.23055 0
M  V30 3943 C 400.807 -2.31636 2.5581 0
M  V30 3944 C 399.92 -2.04394 3.80588 0
M  V30 3945 C 399.055 -3.27717 4.18061 0
M  V30 3946 C 398.094 -2.96056 5.3574 0
M  V30 3947 N 397.231 -4.11847 5.68618 0
M  V30 3948 H 402.071 -0.594504 2.9201 0
M  V30 3949 H 399.608 -0.281921 1.44373 0
M  V30 3950 H 401.566 -3.07258 2.82221 0
M  V30 3951 H 400.196 -2.72122 1.73636 0
M  V30 3952 H 399.248 -1.19244 3.61227 0
M  V30 3953 H 400.56 -1.77042 4.66323 0
M  V30 3954 H 399.714 -4.11702 4.4563 0
M  V30 3955 H 398.453 -3.58188 3.30988 0
M  V30 3956 H 397.458 -2.10474 5.07918 0
M  V30 3957 H 398.683 -2.66857 6.24471 0
M  V30 3958 H 396.629 -4.42258 4.84504 0
M  V30 3959 H 396.546 -3.87938 6.48876 0
M  V30 3960 H 397.814 -4.96689 6.00766 0
M  V30 3961 N 402.043 -1.548 -0.295768 0
M  V30 3962 C 403.29 -1.74329 -1.03032 0
M  V30 3963 C 403.618 -0.531915 -1.87085 0
M  V30 3964 O 402.873 0.486052 -1.89568 0
M  V30 3965 C 403.172 -2.98797 -1.961 0
M  V30 3966 C 402.838 -4.32356 -1.2798 0
M  V30 3967 C 401.5 -4.68661 -1.09135 0
M  V30 3968 C 403.852 -5.15128 -0.793243 0
M  V30 3969 C 401.18 -5.85312 -0.403269 0
M  V30 3970 C 403.532 -6.32488 -0.118854 0
M  V30 3971 C 402.196 -6.6745 0.0815043 0
M  V30 3972 H 401.466 -0.637916 -0.37702 0
M  V30 3973 H 404.113 -1.8906 -0.304696 0
M  V30 3974 H 402.418 -2.78869 -2.75207 0
M  V30 3975 H 404.115 -3.11102 -2.53015 0
M  V30 3976 H 400.705 -4.03808 -1.43655 0
M  V30 3977 H 404.889 -4.87575 -0.92653 0
M  V30 3978 H 400.145 -6.1094 -0.237098 0
M  V30 3979 H 404.319 -6.95892 0.266035 0
M  V30 3980 H 401.946 -7.57695 0.616685 0
M  V30 3981 N 403.521 0.559213 -1.47345 0
M  V30 3982 C 404.749 1.34194 -1.57479 0
M  V30 3983 C 405.164 1.87463 -0.224261 0
M  V30 3984 O 404.521 1.64888 0.782185 0
M  V30 3985 C 404.572 2.51324 -2.59843 0
M  V30 3986 O 404.293 2.00256 -3.89653 0
M  V30 3987 C 405.794 3.43563 -2.80142 0
M  V30 3988 H 403.014 0.409136 -0.531835 0
M  V30 3989 H 405.558 0.677609 -1.92947 0
M  V30 3990 H 403.713 3.13699 -2.27314 0
M  V30 3991 H 404.127 2.76708 -4.4557 0
M  V30 3992 H 405.601 4.2217 -3.55635 0
M  V30 3993 H 406.078 3.9698 -1.87892 0
M  V30 3994 H 406.684 2.87005 -3.1386 0
M  V30 3995 N 404.999 1.35443 0.805782 0
M  V30 3996 C 406.41 1.25768 1.37983 0
M  V30 3997 C 406.761 -0.10958 1.95894 0
M  V30 3998 O 405.886 -1.01056 1.91355 0
M  V30 3999 C 406.481 2.27727 2.5085 0
M  V30 4000 C 405.04 2.2179 3.04115 0
M  V30 4001 C 404.187 2.13393 1.77084 0
M  V30 4002 H 407.138 1.4656 0.608752 0
M  V30 4003 H 407.159 1.90422 3.29424 0
M  V30 4004 H 406.671 3.27227 2.08671 0
M  V30 4005 H 404.772 1.25703 3.50756 0
M  V30 4006 H 404.885 3.13788 3.62042 0
M  V30 4007 H 403.249 1.59384 1.98668 0
M  V30 4008 H 404.032 3.14755 1.37056 0
M  V30 4009 N 406.477 -1.02803 1.19454 0
M  V30 4010 C 407.723 -1.76478 0.999171 0
M  V30 4011 C 408.056 -1.88456 -0.468828 0
M  V30 4012 O 407.331 -1.40198 -1.34814 0
M  V30 4013 C 407.614 -3.19044 1.66981 0
M  V30 4014 C 407.467 -3.14932 3.21151 0
M  V30 4015 C 408.786 -4.17456 1.39349 0
M  V30 4016 H 405.905 -0.640614 0.364393 0
M  V30 4017 H 408.547 -1.20005 1.47305 0
M  V30 4018 H 406.697 -3.67263 1.2669 0
M  V30 4019 H 408.369 -2.74605 3.70661 0
M  V30 4020 H 406.612 -2.52625 3.52652 0
M  V30 4021 H 407.283 -4.1566 3.63223 0
M  V30 4022 H 409.759 -3.77842 1.74283 0
M  V30 4023 H 408.635 -5.154 1.88823 0
M  V30 4024 H 408.896 -4.40949 0.318813 0
M  V30 4025 N 407.956 -0.998596 -1.21925 0
M  V30 4026 C 408.919 -0.558679 -2.22287 0
M  V30 4027 C 409.919 0.361525 -1.56683 0
M  V30 4028 O 411.109 0.152695 -1.73529 0
M  V30 4029 C 408.241 0.18661 -3.40389 0
M  V30 4030 H 409.434 -1.4463 -2.62721 0
M  V30 4031 H 406.987 -0.786413 -1.35075 0
M  V30 4032 H 407.722 1.08996 -3.05435 0
M  V30 4033 H 407.507 -0.474188 -3.89222 0
M  V30 4034 H 408.997 0.482367 -4.14805 0
M  V30 4035 N 409.434 1.37368 -0.772513 0
M  V30 4036 C 410.659 2.0447 -0.347386 0
M  V30 4037 C 411.084 1.57882 1.0225 0
M  V30 4038 O 410.442 0.73941 1.65537 0
M  V30 4039 C 410.49 3.58369 -0.400479 0
M  V30 4040 O 409.594 4.0803 0.598789 0
M  V30 4041 H 408.935 0.646773 -0.15027 0
M  V30 4042 H 411.465 1.75667 -1.04892 0
M  V30 4043 H 411.475 4.07183 -0.258045 0
M  V30 4044 H 410.15 3.91633 -1.39986 0
M  V30 4045 H 408.727 3.70534 0.419411 0
M  V30 4046 N 410.912 0.523116 1.48665 0
M  V30 4047 C 411.859 -0.243398 2.29513 0
M  V30 4048 C 412.829 -0.940139 1.36933 0
M  V30 4049 O 414.014 -0.942503 1.65896 0
M  V30 4050 C 411.154 -1.28855 3.20141 0
M  V30 4051 C 410.267 -0.60135 4.27794 0
M  V30 4052 C 409.402 -1.62884 5.05611 0
M  V30 4053 C 408.441 -0.924726 6.05075 0
M  V30 4054 N 407.578 -1.89744 6.75975 0
M  V30 4055 H 412.418 0.452234 2.94549 0
M  V30 4056 H 409.955 0.234858 1.45213 0
M  V30 4057 H 411.913 -1.90674 3.71079 0
M  V30 4058 H 410.543 -1.95266 2.57043 0
M  V30 4059 H 409.595 0.130623 3.80176 0
M  V30 4060 H 410.907 -0.0481585 4.98777 0
M  V30 4061 H 410.061 -2.32149 5.60528 0
M  V30 4062 H 408.8 -2.21592 4.34452 0
M  V30 4063 H 407.805 -0.217966 5.49368 0
M  V30 4064 H 409.03 -0.343851 6.78229 0
M  V30 4065 H 406.976 -2.47373 6.07571 0
M  V30 4066 H 406.893 -1.3955 7.43009 0
M  V30 4067 H 408.161 -2.58229 7.35485 0
M  V30 4068 N 412.39 -1.55475 0.257931 0
M  V30 4069 C 413.637 -1.99207 -0.363728 0
M  V30 4070 C 413.965 -1.1462 -1.57139 0
M  V30 4071 O 413.22 -0.199653 -1.94679 0
M  V30 4072 C 413.519 -3.48183 -0.806433 0
M  V30 4073 C 413.185 -4.49936 0.294684 0
M  V30 4074 C 411.847 -4.77481 0.597076 0
M  V30 4075 C 414.199 -5.10769 1.03751 0
M  V30 4076 C 411.527 -5.63132 1.64618 0
M  V30 4077 C 413.879 -5.97558 2.07622 0
M  V30 4078 C 412.543 -6.23432 2.38514 0
M  V30 4079 H 411.813 -0.728949 -0.133097 0
M  V30 4080 H 414.46 -1.8793 0.368059 0
M  V30 4081 H 412.765 -3.56848 -1.61761 0
M  V30 4082 H 414.462 -3.79415 -1.29789 0
M  V30 4083 H 411.052 -4.28572 0.0488649 0
M  V30 4084 H 415.236 -4.89527 0.817149 0
M  V30 4085 H 410.492 -5.8143 1.89074 0
M  V30 4086 H 414.666 -6.43735 2.65666 0
M  V30 4087 H 412.293 -6.89594 3.19943 0
M  V30 4088 N 413.868 0.0150385 -1.57593 0
M  V30 4089 C 415.093 0.718067 -1.94573 0
M  V30 4090 C 415.518 1.6734 -0.859005 0
M  V30 4091 O 414.876 1.80362 0.184147 0
M  V30 4092 C 414.924 1.43918 -3.30636 0
M  V30 4093 O 414.028 2.55299 -3.23876 0
M  V30 4094 H 413.369 0.192125 -0.635597 0
M  V30 4095 H 415.899 -0.0336708 -2.04572 0
M  V30 4096 H 415.909 1.80598 -3.65853 0
M  V30 4097 H 414.584 0.738619 -4.09289 0
M  V30 4098 H 413.161 2.21058 -3.00312 0
M  V30 4099 N 415.346 1.54954 0.287554 0
M  V30 4100 C 416.757 1.65732 0.859634 0
M  V30 4101 C 417.108 0.574767 1.87592 0
M  V30 4102 O 416.233 -0.286299 2.14498 0
M  V30 4103 C 416.828 3.00438 1.56597 0
M  V30 4104 C 415.387 3.13292 2.08627 0
M  V30 4105 C 414.534 2.61473 0.923416 0
M  V30 4106 H 417.485 1.5857 0.0642338 0
M  V30 4107 H 417.506 2.92613 2.43224 0
M  V30 4108 H 417.018 3.79207 0.826053 0
M  V30 4109 H 415.119 2.39268 2.85625 0
M  V30 4110 H 415.232 4.19647 2.31157 0
M  V30 4111 H 413.596 2.18264 1.31275 0
M  V30 4112 H 414.379 3.42733 0.197241 0
M  V30 4113 N 416.824 -0.551391 1.4764 0
M  V30 4114 C 418.072 -1.30572 1.54258 0
M  V30 4115 C 418.393 -1.93877 0.208963 0
M  V30 4116 O 417.663 -1.80234 -0.767619 0
M  V30 4117 H 416.243 -0.484894 0.568231 0
M  V30 4118 H 418.905 -0.643402 1.83974 0
M  V30 4119 H 418.001 -2.09621 2.31226 0
M  V30 4120 N 418.302 -1.35869 -0.798587 0
M  V30 4121 C 419.265 -1.29307 -1.89242 0
M  V30 4122 C 420.265 -0.202747 -1.59517 0
M  V30 4123 O 421.455 -0.456957 -1.681 0
M  V30 4124 C 418.587 -1.00229 -3.25833 0
M  V30 4125 H 419.78 -2.26576 -1.96478 0
M  V30 4126 H 417.333 -1.20509 -0.995358 0
M  V30 4127 H 418.068 -0.033801 -3.24282 0
M  V30 4128 H 417.853 -1.79121 -3.48795 0
M  V30 4129 H 419.343 -0.98219 -4.05885 0
M  V30 4130 N 419.78 1.02168 -1.19998 0
M  V30 4131 C 421.191 1.57135 -1.00825 0
M  V30 4132 C 421.542 1.91276 0.436818 0
M  V30 4133 O 420.667 1.71679 1.3174 0
M  V30 4134 C 421.262 2.85514 -1.82393 0
M  V30 4135 C 419.821 3.37027 -1.67601 0
M  V30 4136 C 418.968 2.10388 -1.80644 0
M  V30 4137 H 421.919 0.846106 -1.34264 0
M  V30 4138 H 421.94 3.56711 -1.32429 0
M  V30 4139 H 421.452 2.60634 -2.87561 0
M  V30 4140 H 419.553 3.66878 -0.650485 0
M  V30 4141 H 419.666 4.09572 -2.4857 0
M  V30 4142 H 418.03 2.22601 -1.23778 0
M  V30 4143 H 418.813 1.8794 -2.87286 0
M  V30 4144 N 421.258 1.00505 1.21394 0
M  V30 4145 C 422.506 0.686415 1.90086 0
M  V30 4146 C 422.827 -0.785264 1.7849 0
M  V30 4147 O 422.097 -1.56387 1.17983 0
M  V30 4148 H 420.677 0.2509 0.703604 0
M  V30 4149 H 423.339 1.27417 1.47482 0
M  V30 4150 H 422.435 0.959621 2.96981 0
M  V30 4151 N 422.737 -1.36956 0.779787 0
M  V30 4152 C 423.985 -1.99097 0.347079 0
M  V30 4153 C 424.306 -1.62206 -1.08232 0
M  V30 4154 O 423.576 -0.891373 -1.74446 0
M  V30 4155 H 422.156 -0.736409 0.125342 0
M  V30 4156 H 424.818 -1.67308 0.999696 0
M  V30 4157 H 423.914 -3.09107 0.431162 0
M  V30 4158 N 424.215 -0.530993 -1.48385 0
M  V30 4159 C 425.44 0.000729535 -2.074 0
M  V30 4160 C 425.865 1.27298 -1.3848 0
M  V30 4161 O 425.223 1.75599 -0.451081 0
M  V30 4162 C 425.271 0.206697 -3.60007 0
M  V30 4163 O 424.375 1.27514 -3.92191 0
M  V30 4164 H 423.716 -0.039583 -0.662819 0
M  V30 4165 H 426.246 -0.739194 -1.9078 0
M  V30 4166 H 426.256 0.42904 -4.05738 0
M  V30 4167 H 424.931 -0.722675 -4.09573 0
M  V30 4168 H 423.508 1.03537 -3.58238 0
M  V30 4169 N 425.693 1.55336 -0.266172 0
M  V30 4170 C 426.941 1.99003 0.35246 0
M  V30 4171 C 427.262 1.15591 1.57047 0
M  V30 4172 O 426.532 0.243268 1.94384 0
M  V30 4173 H 425.112 0.735025 0.133217 0
M  V30 4174 H 427.774 1.91367 -0.369434 0
M  V30 4175 H 426.87 3.05289 0.648453 0
M  V30 4176 N 427.171 -0.0066808 1.57599 0
M  V30 4177 C 428.396 -0.707738 1.94951 0
M  V30 4178 C 428.821 -1.66882 0.867868 0
M  V30 4179 O 428.179 -1.80457 -0.17458 0
M  V30 4180 C 428.227 -1.42162 3.31394 0
M  V30 4181 O 427.331 -2.53578 3.25226 0
M  V30 4182 H 426.672 -0.188752 0.636607 0
M  V30 4183 H 429.202 0.0445193 2.04552 0
M  V30 4184 H 429.212 -1.78655 3.66806 0
M  V30 4185 H 427.887 -0.716903 4.09675 0
M  V30 4186 H 426.464 -2.19463 3.01481 0
M  V30 4187 N 428.649 -1.55105 -0.279332 0
M  V30 4188 C 429.581 -1.83952 -1.36727 0
M  V30 4189 C 430.594 -0.723642 -1.45833 0
M  V30 4190 O 431.783 -1.00141 -1.47763 0
M  V30 4191 C 428.883 -1.98183 -2.74912 0
M  V30 4192 C 428.056 -3.28787 -2.88475 0
M  V30 4193 C 427.115 -3.33162 -4.07295 0
M  V30 4194 O 426.141 -4.06576 -3.98353 0
M  V30 4195 N 427.343 -2.60109 -5.18964 0
M  V30 4196 H 430.108 -2.77853 -1.12328 0
M  V30 4197 H 427.669 -1.54945 -0.469442 0
M  V30 4198 H 429.661 -1.98488 -3.52682 0
M  V30 4199 H 428.231 -1.11177 -2.92162 0
M  V30 4200 H 427.451 -3.41075 -1.97641 0
M  V30 4201 H 428.739 -4.14933 -2.94463 0
M  V30 4202 H 428.137 -2.00136 -5.29115 0
M  V30 4203 H 426.694 -2.66143 -5.94988 0
M  V30 4204 N 430.127 0.543554 -1.4793 0
M  V30 4205 C 431.538 1.12561 -1.48953 0
M  V30 4206 C 431.889 1.94578 -0.251754 0
M  V30 4207 O 431.014 2.0665 0.642255 0
M  V30 4208 C 431.609 2.04801 -2.69892 0
M  V30 4209 C 430.168 2.58251 -2.73831 0
M  V30 4210 C 429.315 1.34918 -2.42265 0
M  V30 4211 H 432.266 0.32947 -1.55242 0
M  V30 4212 H 432.287 2.88886 -2.47639 0
M  V30 4213 H 431.799 1.4508 -3.59963 0
M  V30 4214 H 429.9 3.21732 -1.87934 0
M  V30 4215 H 430.013 2.98312 -3.74895 0
M  V30 4216 H 428.377 1.66046 -1.93134 0
M  V30 4217 H 429.16 0.769693 -3.3456 0
M  V30 4218 N 431.605 1.3629 0.791371 0
M  V30 4219 C 432.553 1.30514 1.92533 0
M  V30 4220 C 433.547 0.197285 1.68247 0
M  V30 4221 O 434.753 0.364176 1.76278 0
M  V30 4222 H 431.128 0.406263 0.632815 0
M  V30 4223 H 433.099 2.26282 1.94523 0
M  V30 4224 C 431.848 1.10933 3.29529 0
M  V30 4225 H 431.171 1.95427 3.48781 0
M  V30 4226 H 432.611 1.10937 4.0923 0
M  V30 4227 C 431.07 -0.186123 3.36385 0
M  V30 4228 O 431.6 -1.17664 3.84081 0
M  V30 4229 N 429.806 -0.230128 2.89687 0
M  V30 4230 H 429.353 0.576545 2.51065 0
M  V30 4231 H 429.311 -1.09658 2.94657 0
M  V30 4232 N 433.083 -1.0153 1.20538 0
M  V30 4233 C 434.015 -2.10224 0.913155 0
M  V30 4234 C 435.028 -1.62495 -0.0995998 0
M  V30 4235 O 436.217 -1.78014 0.131582 0
M  V30 4236 C 433.317 -3.37111 0.347717 0
M  V30 4237 C 432.49 -4.13971 1.41233 0
M  V30 4238 C 431.549 -5.19158 0.857976 0
M  V30 4239 O 430.575 -5.48 1.53897 0
M  V30 4240 N 431.777 -5.7955 -0.331966 0
M  V30 4241 H 434.542 -2.35879 1.84881 0
M  V30 4242 H 432.103 -1.17931 1.10923 0
M  V30 4243 H 434.095 -4.04683 -0.0373026 0
M  V30 4244 H 432.665 -3.08696 -0.492527 0
M  V30 4245 H 431.885 -3.41351 1.97163 0
M  V30 4246 H 433.173 -4.62103 2.12928 0
M  V30 4247 H 432.571 -5.58455 -0.902478 0
M  V30 4248 H 431.128 -6.48464 -0.65861 0
M  V30 4249 N 434.561 -1.01147 -1.20859 0
M  V30 4250 C 435.508 -0.577354 -2.23462 0
M  V30 4251 C 436.478 0.399922 -1.61214 0
M  V30 4252 O 437.663 0.300515 -1.88419 0
M  V30 4253 C 434.803 0.083372 -3.44999 0
M  V30 4254 C 433.916 -0.937856 -4.21697 0
M  V30 4255 C 433.051 -0.248717 -5.30617 0
M  V30 4256 C 432.09 -1.25705 -5.99053 0
M  V30 4257 N 431.227 -0.594939 -6.99575 0
M  V30 4258 H 436.067 -1.45695 -2.59956 0
M  V30 4259 H 433.604 -0.729428 -1.27741 0
M  V30 4260 H 435.562 0.483535 -4.14388 0
M  V30 4261 H 434.192 0.926645 -3.09214 0
M  V30 4262 H 433.244 -1.45622 -3.51423 0
M  V30 4263 H 434.556 -1.70493 -4.68757 0
M  V30 4264 H 433.71 0.207215 -6.06346 0
M  V30 4265 H 432.449 0.55071 -4.84581 0
M  V30 4266 H 431.454 -1.72343 -5.2209 0
M  V30 4267 H 432.679 -2.05767 -6.47176 0
M  V30 4268 H 430.625 0.184713 -6.5574 0
M  V30 4269 H 430.542 -1.30017 -7.44736 0
M  V30 4270 H 431.81 -0.162427 -7.79331 0
M  V30 4271 N 436.039 1.36541 -0.78704 0
M  V30 4272 C 436.969 2.32659 -0.197992 0
M  V30 4273 C 437.95 1.56533 0.665697 0
M  V30 4274 O 439.135 1.84698 0.60001 0
M  V30 4275 C 436.265 3.40778 0.669901 0
M  V30 4276 C 435.219 4.27897 -0.0937039 0
M  V30 4277 C 434.545 5.27163 0.894629 0
M  V30 4278 C 435.845 5.06334 -1.28154 0
M  V30 4279 H 437.539 2.82171 -1.00099 0
M  V30 4280 H 435.085 1.35665 -0.482793 0
M  V30 4281 H 437.038 4.07008 1.09191 0
M  V30 4282 H 435.762 2.89827 1.50558 0
M  V30 4283 H 434.421 3.6322 -0.49666 0
M  V30 4284 H 434.069 4.72486 1.72527 0
M  V30 4285 H 433.769 5.86317 0.388149 0
M  V30 4286 H 435.293 5.96266 1.31525 0
M  V30 4287 H 436.707 5.65617 -0.93541 0
M  V30 4288 H 435.104 5.74888 -1.72115 0
M  V30 4289 H 436.174 4.38114 -2.07807 0
M  V30 4290 N 437.518 0.538854 1.48102 0
M  V30 4291 C 438.766 0.00798599 2.02098 0
M  V30 4292 C 439.087 -1.33922 1.41739 0
M  V30 4293 O 438.357 -1.86932 0.585934 0
M  V30 4294 H 436.937 -3.62179e-05 0.747 0
M  V30 4295 H 439.599 0.7047 1.81714 0
M  V30 4296 H 438.695 -0.0937672 3.11959 0
M  V30 4297 N 438.996 -1.55193 0.274407 0
M  V30 4298 C 439.946 -2.19184 -0.627882 0
M  V30 4299 C 440.93 -1.15625 -1.11892 0
M  V30 4300 O 442.122 -1.41441 -1.06411 0
M  V30 4301 C 439.251 -2.91591 -1.81189 0
M  V30 4302 C 438.337 -4.02438 -1.33807 0
M  V30 4303 N 438.728 -5.0246 -0.580349 0
M  V30 4304 C 437.026 -4.15496 -1.62109 0
M  V30 4305 C 437.727 -5.80756 -0.331344 0
M  V30 4306 N 436.703 -5.36038 -0.903556 0
M  V30 4307 H 440.505 -2.93871 -0.0411216 0
M  V30 4308 H 438.019 -1.62213 0.0779348 0
M  V30 4309 H 440.016 -3.35883 -2.46957 0
M  V30 4310 H 438.676 -2.18414 -2.40261 0
M  V30 4311 H 439.687 -5.17399 -0.227762 0
M  V30 4312 H 436.364 -3.53509 -2.22121 0
M  V30 4313 H 437.754 -6.71335 0.275454 0
M  V30 4314 N 440.474 -0.00167713 -1.576 0
M  V30 4315 C 441.885 0.54091 -1.78693 0
M  V30 4316 C 442.236 1.7386 -0.909247 0
M  V30 4317 O 441.361 2.16109 -0.112176 0
M  V30 4318 C 441.956 0.98806 -3.24072 0
M  V30 4319 C 440.515 1.47594 -3.46256 0
M  V30 4320 C 439.662 0.42792 -2.73978 0
M  V30 4321 H 442.613 -0.22784 -1.57056 0
M  V30 4322 H 442.634 1.85398 -3.32277 0
M  V30 4323 H 442.146 0.116164 -3.87926 0
M  V30 4324 H 440.247 2.36868 -2.87618 0
M  V30 4325 H 440.36 1.50225 -4.54939 0
M  V30 4326 H 438.724 0.889934 -2.38647 0
M  V30 4327 H 439.507 -0.435038 -3.40532 0
M  V30 4328 N 441.952 1.55251 0.271103 0
M  V30 4329 C 442.862 1.9136 1.35714 0
M  V30 4330 C 443.878 0.811075 1.5394 0
M  V30 4331 O 445.054 1.11031 1.6803 0
M  V30 4332 C 442.119 2.1798 2.69603 0
M  V30 4333 C 441.18 3.4153 2.60107 0
M  V30 4334 C 440.413 3.66871 3.8761 0
M  V30 4335 O 440.636 2.94689 4.8838 0
M  V30 4336 O 439.57 4.60405 3.87699 0
M  V30 4337 H 443.396 2.83815 1.08088 0
M  V30 4338 H 440.981 1.41821 0.469792 0
M  V30 4339 H 442.863 2.36518 3.48765 0
M  V30 4340 H 441.538 1.28708 2.97012 0
M  V30 4341 H 440.445 3.28325 1.79314 0
M  V30 4342 H 441.778 4.31027 2.37647 0
M  V30 4343 N 443.43 -0.535701 1.48216 0
M  V30 4344 C 444.393 -1.623 1.61838 0
M  V30 4345 C 445.393 -1.53087 0.492024 0
M  V30 4346 O 446.583 -1.5686 0.757668 0
M  V30 4347 C 443.715 -3.01907 1.58319 0
M  V30 4348 H 444.908 -1.51564 2.58783 0
M  V30 4349 H 442.461 -0.757317 1.36727 0
M  V30 4350 H 443.196 -3.18155 0.628299 0
M  V30 4351 H 442.981 -3.10003 2.40085 0
M  V30 4352 H 444.471 -3.80969 1.71033 0
M  V30 4353 N 444.908 -1.36708 -0.784132 0
M  V30 4354 C 445.838 -1.34153 -1.91116 0
M  V30 4355 C 446.819 -0.212121 -1.68772 0
M  V30 4356 O 448.004 -0.410581 -1.8981 0
M  V30 4357 C 445.134 -1.13535 -3.28218 0
M  V30 4358 C 444.088 -2.23356 -3.65097 0
M  V30 4359 C 443.414 -1.87875 -5.00607 0
M  V30 4360 C 444.714 -3.65473 -3.73131 0
M  V30 4361 H 446.408 -2.28459 -1.93512 0
M  V30 4362 H 443.954 -1.09973 -0.929618 0
M  V30 4363 H 445.907 -1.10381 -4.06687 0
M  V30 4364 H 444.631 -0.156804 -3.26223 0
M  V30 4365 H 443.29 -2.25645 -2.88929 0
M  V30 4366 H 442.938 -0.885814 -4.95139 0
M  V30 4367 H 442.638 -2.61406 -5.26252 0
M  V30 4368 H 444.162 -1.86286 -5.81489 0
M  V30 4369 H 445.576 -3.65382 -4.41779 0
M  V30 4370 H 443.973 -4.37953 -4.10265 0
M  V30 4371 H 445.043 -3.99995 -2.74102 0
M  V30 4372 N 446.386 1.0089 -1.21074 0
M  V30 4373 C 447.611 1.78727 -1.05221 0
M  V30 4374 C 448.036 1.83932 0.393795 0
M  V30 4375 O 447.394 1.28004 1.28393 0
M  V30 4376 C 447.442 3.20665 -1.64944 0
M  V30 4377 O 446.546 4.02632 -0.892273 0
M  V30 4378 H 445.887 0.550973 -0.370574 0
M  V30 4379 H 448.417 1.26847 -1.60534 0
M  V30 4380 H 448.427 3.71352 -1.69002 0
M  V30 4381 H 447.102 3.16191 -2.70177 0
M  V30 4382 H 445.679 3.61207 -0.926492 0
M  V30 4383 N 447.864 1.01787 1.20321 0
M  V30 4384 C 448.827 0.593972 2.2137 0
M  V30 4385 C 449.827 -0.336553 1.57239 0
M  V30 4386 O 451.017 -0.125069 1.7375 0
M  V30 4387 C 448.149 -0.132433 3.40643 0
M  V30 4388 H 449.342 1.48791 2.60387 0
M  V30 4389 H 446.895 0.807803 1.33807 0
M  V30 4390 H 447.63 -1.04123 3.0713 0
M  V30 4391 H 447.415 0.53605 3.88418 0
M  V30 4392 H 448.905 -0.416314 4.1552 0
M  V30 4393 N 449.342 -1.36122 0.79427 0
M  V30 4394 C 450.59 -1.98718 0.368177 0
M  V30 4395 C 450.911 -1.63345 -1.06506 0
M  V30 4396 O 450.181 -0.909825 -1.73491 0
M  V30 4397 H 448.761 -0.735038 0.133146 0
M  V30 4398 H 451.423 -1.66239 1.01739 0
M  V30 4399 H 450.519 -3.08633 0.463923 0
M  V30 4400 N 450.82 -0.546701 -1.47814 0
M  V30 4401 C 452.048 -0.0232857 -2.06887 0
M  V30 4402 C 452.463 1.26571 -1.4009 0
M  V30 4403 O 451.82 1.7569 -0.493906 0
M  V30 4404 C 451.871 0.186975 -3.61016 0
M  V30 4405 O 451.592 -1.05097 -4.25307 0
M  V30 4406 C 453.093 0.748872 -4.36929 0
M  V30 4407 H 450.313 -0.0410763 -0.669742 0
M  V30 4408 H 452.857 -0.757117 -1.89968 0
M  V30 4409 H 451.012 0.870903 -3.77484 0
M  V30 4410 H 451.426 -0.842121 -5.17695 0
M  V30 4411 H 452.9 0.845334 -5.45489 0
M  V30 4412 H 453.377 1.75772 -4.02493 0
M  V30 4413 H 453.983 0.100979 -4.2518 0
M  V30 4414 N 452.299 1.55045 -0.282633 0
M  V30 4415 C 453.547 1.99365 0.331334 0
M  V30 4416 C 453.868 1.1725 1.55812 0
M  V30 4417 O 453.138 0.263871 1.94115 0
M  V30 4418 H 451.718 0.736397 0.125414 0
M  V30 4419 H 454.38 1.90964 -0.389711 0
M  V30 4420 H 453.476 3.0596 0.616036 0
M  V30 4421 N 453.777 0.010035 1.57597 0
M  V30 4422 C 455.002 -0.687021 1.95691 0
M  V30 4423 C 455.427 -1.65952 0.885519 0
M  V30 4424 O 454.785 -1.80633 -0.15543 0
M  V30 4425 C 454.833 -1.3864 3.32884 0
M  V30 4426 O 453.937 -2.50115 3.27897 0
M  V30 4427 H 453.278 -0.181989 0.638573 0
M  V30 4428 H 455.808 0.0662122 2.04493 0
M  V30 4429 H 455.818 -1.74754 3.6868 0
M  V30 4430 H 454.493 -0.673411 4.10412 0
M  V30 4431 H 453.07 -2.16253 3.03791 0
M  V30 4432 N 455.255 -1.55392 -0.262866 0
M  V30 4433 C 456.666 -1.67079 -0.833158 0
M  V30 4434 C 457.017 -0.604539 -1.86654 0
M  V30 4435 O 456.142 0.252138 -2.14926 0
M  V30 4436 C 456.737 -3.02891 -1.51797 0
M  V30 4437 C 455.296 -3.16571 -2.03617 0
M  V30 4438 C 454.443 -2.62909 -0.881701 0
M  V30 4439 H 457.394 -1.58652 -0.0389986 0
M  V30 4440 H 457.415 -2.96445 -2.38538 0
M  V30 4441 H 456.927 -3.80473 -0.765619 0
M  V30 4442 H 455.028 -2.43782 -2.81782 0
M  V30 4443 H 455.141 -4.23271 -2.24452 0
M  V30 4444 H 453.505 -2.20324 -1.27786 0
M  V30 4445 H 454.288 -3.43003 -0.14269 0
M  V30 4446 N 456.733 0.527833 -1.48498 0
M  V30 4447 C 457.665 1.6482 -1.5927 0
M  V30 4448 C 458.678 1.55659 -0.476869 0
M  V30 4449 O 459.867 1.62081 -0.747806 0
M  V30 4450 C 456.967 3.0348 -1.50842 0
M  V30 4451 C 456.14 3.381 -2.77502 0
M  V30 4452 C 455.199 4.5605 -2.62497 0
M  V30 4453 O 454.225 4.59165 -3.36387 0
M  V30 4454 N 455.427 5.54353 -1.72257 0
M  V30 4455 H 458.192 1.56015 -2.55889 0
M  V30 4456 H 455.753 0.715152 -1.45249 0
M  V30 4457 H 457.745 3.80264 -1.38496 0
M  V30 4458 H 456.315 3.06352 -0.621887 0
M  V30 4459 H 455.535 2.50473 -3.04396 0
M  V30 4460 H 456.823 3.58017 -3.61527 0
M  V30 4461 H 456.221 5.54617 -1.11431 0
M  V30 4462 H 454.778 6.30347 -1.65849 0
M  V30 4463 N 458.211 1.37122 0.776871 0
M  V30 4464 C 459.622 1.28667 1.35284 0
M  V30 4465 C 459.973 -0.0680035 1.96082 0
M  V30 4466 O 459.098 -0.969743 1.93455 0
M  V30 4467 C 459.693 2.32997 2.45963 0
M  V30 4468 C 458.252 2.28191 2.99342 0
M  V30 4469 C 457.399 2.17101 1.72517 0
M  V30 4470 H 460.35 1.47819 0.577527 0
M  V30 4471 H 460.371 1.97366 3.2531 0
M  V30 4472 H 459.883 3.3158 2.01684 0
M  V30 4473 H 457.984 1.33115 3.4801 0
M  V30 4474 H 458.097 3.21397 3.55304 0
M  V30 4475 H 456.461 1.63562 1.95242 0
M  V30 4476 H 457.244 3.17591 1.30348 0
M  V30 4477 N 459.689 -1.00246 1.21608 0
M  V30 4478 C 461.1 -1.55511 1.03312 0
M  V30 4479 C 461.451 -1.91946 -0.406332 0
M  V30 4480 O 460.576 -1.73753 -1.28992 0
M  V30 4481 C 461.171 -2.82576 1.86913 0
M  V30 4482 C 459.73 -3.34318 1.72941 0
M  V30 4483 C 458.877 -2.07487 1.83968 0
M  V30 4484 H 461.828 -0.824638 1.35593 0
M  V30 4485 H 461.849 -3.54559 1.38087 0
M  V30 4486 H 461.361 -2.56026 2.91672 0
M  V30 4487 H 459.462 -3.65797 0.70877 0
M  V30 4488 H 459.575 -4.05566 2.55055 0
M  V30 4489 H 457.939 -2.20603 1.27304 0
M  V30 4490 H 458.722 -1.83346 2.9024 0
M  V30 4491 N 461.167 -1.02423 -1.1978 0
M  V30 4492 C 462.392 -0.7373 -1.93852 0
M  V30 4493 C 462.817 0.696923 -1.74713 0
M  V30 4494 O 462.175 1.48056 -1.04638 0
M  V30 4495 C 462.223 -1.08783 -3.438 0
M  V30 4496 O 461.327 -0.20383 -4.11896 0
M  V30 4497 H 460.668 -0.27284 -0.605355 0
M  V30 4498 H 463.198 -1.36966 -1.51992 0
M  V30 4499 H 463.208 -1.04276 -3.9445 0
M  V30 4500 H 461.883 -2.13274 -3.57053 0
M  V30 4501 H 460.46 -0.307091 -3.71633 0
M  V30 4502 N 462.645 1.35699 -0.801477 0
M  V30 4503 C 463.892 1.98913 -0.379459 0
M  V30 4504 C 464.22 1.63592 1.05204 0
M  V30 4505 O 463.475 0.888563 1.74365 0
M  V30 4506 C 463.774 3.53828 -0.504041 0
M  V30 4507 C 463.44 4.09002 -1.8981 0
M  V30 4508 C 462.102 4.23783 -2.27951 0
M  V30 4509 C 464.454 4.38939 -2.81038 0
M  V30 4510 C 461.782 4.65816 -3.56696 0
M  V30 4511 C 464.134 4.82409 -4.09224 0
M  V30 4512 C 462.798 4.95395 -4.4737 0
M  V30 4513 H 462.068 0.727874 -0.138854 0
M  V30 4514 H 464.715 1.61994 -1.02128 0
M  V30 4515 H 463.02 3.91175 0.221242 0
M  V30 4516 H 464.717 4.00687 -0.158361 0
M  V30 4517 H 461.307 3.97946 -1.59176 0
M  V30 4518 H 465.491 4.27077 -2.52821 0
M  V30 4519 H 460.747 4.74059 -3.86106 0
M  V30 4520 H 464.921 5.04535 -4.80018 0
M  V30 4521 H 462.548 5.27724 -5.47185 0
M  V30 4522 N 464.123 0.554532 1.47522 0
M  V30 4523 C 465.351 0.034257 2.06872 0
M  V30 4524 C 465.766 -1.25826 1.40759 0
M  V30 4525 O 465.123 -1.75425 0.503217 0
M  V30 4526 C 465.174 -0.167827 3.6111 0
M  V30 4527 O 464.895 1.07351 4.24744 0
M  V30 4528 C 466.396 -0.72569 4.3732 0
M  V30 4529 H 463.616 0.0446275 0.669514 0
M  V30 4530 H 466.16 0.767181 1.89564 0
M  V30 4531 H 464.315 -0.850872 3.7794 0
M  V30 4532 H 464.729 0.869563 5.17242 0
M  V30 4533 H 466.203 -0.816394 5.45929 0
M  V30 4534 H 466.68 -1.73635 4.0342 0
M  V30 4535 H 467.286 -0.0784292 4.25228 0
M  V30 4536 N 465.601 -1.54893 0.290851 0
M  V30 4537 C 466.831 -2.04047 -0.323818 0
M  V30 4538 C 467.239 -1.16809 -1.48837 0
M  V30 4539 O 466.582 -0.184145 -1.82775 0
M  V30 4540 C 466.644 -3.49248 -0.852395 0
M  V30 4541 C 466.308 -4.56623 0.185557 0
M  V30 4542 C 467.305 -5.09985 1.01053 0
M  V30 4543 C 464.99 -5.01252 0.324332 0
M  V30 4544 C 466.984 -6.06507 1.96031 0
M  V30 4545 C 464.671 -5.97596 1.27757 0
M  V30 4546 C 465.669 -6.50107 2.09405 0
M  V30 4547 O 465.357 -7.44565 3.03114 0
M  V30 4548 H 465.089 -0.671735 -0.0758129 0
M  V30 4549 H 467.643 -2.00947 0.425393 0
M  V30 4550 H 465.873 -3.49639 -1.65195 0
M  V30 4551 H 467.562 -3.81654 -1.38185 0
M  V30 4552 H 468.328 -4.76307 0.914129 0
M  V30 4553 H 464.207 -4.60015 -0.301213 0
M  V30 4554 H 467.751 -6.47418 2.598 0
M  V30 4555 H 463.648 -6.30691 1.37473 0
M  V30 4556 H 464.416 -7.62334 2.97976 0
M  V30 4557 N 467.08 -0.0183926 -1.57589 0
M  V30 4558 C 468.043 0.951986 -2.08494 0
M  V30 4559 C 469.043 1.26092 -0.997874 0
M  V30 4560 O 470.233 1.20304 -1.25987 0
M  V30 4561 C 467.365 2.27165 -2.54182 0
M  V30 4562 H 468.558 0.511307 -2.95509 0
M  V30 4563 H 466.111 0.229444 -1.54607 0
M  V30 4564 H 466.846 2.75884 -1.70465 0
M  V30 4565 H 466.631 2.06057 -3.33591 0
M  V30 4566 H 468.121 2.9674 -2.93828 0
M  V30 4567 N 468.558 1.5553 0.254621 0
M  V30 4568 C 469.49 1.86104 1.33783 0
M  V30 4569 C 470.503 0.746752 1.44663 0
M  V30 4570 O 471.692 1.0248 1.46151 0
M  V30 4571 C 468.792 2.02532 2.71724 0
M  V30 4572 C 467.965 3.33335 2.83208 0
M  V30 4573 C 467.024 3.396 4.01943 0
M  V30 4574 O 466.05 4.12862 3.91834 0
M  V30 4575 N 467.252 2.68332 5.1476 0
M  V30 4576 H 470.017 2.79605 1.07893 0
M  V30 4577 H 467.578 1.55672 0.444732 0
M  V30 4578 H 469.57 2.04074 3.4948 0
M  V30 4579 H 468.14 1.15811 2.90356 0
M  V30 4580 H 467.36 3.44176 1.92189 0
M  V30 4581 H 468.648 4.19565 2.87824 0
M  V30 4582 H 468.046 2.08528 5.25864 0
M  V30 4583 H 466.603 2.75575 5.90679 0
M  V30 4584 N 470.036 -0.519951 1.48776 0
M  V30 4585 C 470.968 -1.63973 1.60142 0
M  V30 4586 C 471.981 -1.55404 0.485117 0
M  V30 4587 O 473.17 -1.61682 0.756391 0
M  V30 4588 C 470.27 -3.02676 1.52449 0
M  V30 4589 C 469.443 -3.36624 2.79291 0
M  V30 4590 C 468.502 -4.54652 2.64912 0
M  V30 4591 O 467.528 -4.57374 3.38818 0
M  V30 4592 N 468.73 -5.53432 1.75195 0
M  V30 4593 H 471.495 -1.54656 2.56713 0
M  V30 4594 H 469.056 -0.707439 1.45626 0
M  V30 4595 H 471.048 -3.79525 1.4051 0
M  V30 4596 H 469.618 -3.06018 0.638125 0
M  V30 4597 H 468.838 -2.48855 3.0572 0
M  V30 4598 H 470.126 -3.56094 3.6342 0
M  V30 4599 H 469.524 -5.54018 1.14371 0
M  V30 4600 H 468.081 -6.29459 1.69189 0
M  V30 4601 N 471.514 -1.37532 -0.769588 0
M  V30 4602 C 472.93 -1.18379 -1.07045 0
M  V30 4603 C 473.13 -0.0214312 -2.01489 0
M  V30 4604 O 472.186 0.637809 -2.44312 0
M  V30 4605 C 473.499 -2.50338 -1.66588 0
M  V30 4606 C 475.047 -2.56879 -1.78835 0
M  V30 4607 C 475.522 -3.88974 -2.41792 0
M  V30 4608 N 477.013 -3.90428 -2.4924 0
M  V30 4609 C 477.748 -4.89388 -2.98809 0
M  V30 4610 N 477.244 -5.98745 -3.48535 0
M  V30 4611 N 479.037 -4.76791 -2.97703 0
M  V30 4612 H 471.188 -2.11921 -0.142541 0
M  V30 4613 H 473.451 -0.939608 -0.125863 0
M  V30 4614 H 473.157 -3.35767 -1.0466 0
M  V30 4615 H 473.031 -2.67583 -2.65856 0
M  V30 4616 H 475.418 -1.71856 -2.39895 0
M  V30 4617 H 475.499 -2.43516 -0.783166 0
M  V30 4618 H 475.143 -4.74412 -1.81371 0
M  V30 4619 H 475.073 -3.99641 -3.4292 0
M  V30 4620 H 477.564 -3.11433 -2.14052 0
M  V30 4621 H 477.877 -6.70205 -3.84767 0
M  V30 4622 H 476.222 -6.02387 -3.46634 0
M  V30 4623 H 479.413 -3.90478 -2.58157 0
M  V30 4624 H 479.586 -5.54069 -3.36024 0
M  V30 4625 N 472.992 0.995999 -1.22138 0
M  V30 4626 C 473.902 2.11985 -1.00496 0
M  V30 4627 C 474.918 1.7394 0.0457701 0
M  V30 4628 O 476.094 2.00868 -0.146273 0
M  V30 4629 C 473.159 3.41779 -0.582086 0
M  V30 4630 C 472.22 3.93943 -1.70608 0
M  V30 4631 C 471.453 5.17542 -1.30328 0
M  V30 4632 O 471.676 5.70114 -0.180743 0
M  V30 4633 O 470.61 5.63382 -2.11861 0
M  V30 4634 H 474.436 2.33123 -1.94647 0
M  V30 4635 H 472.021 1.10358 -1.00705 0
M  V30 4636 H 473.903 4.1989 -0.356467 0
M  V30 4637 H 472.578 3.22007 0.330592 0
M  V30 4638 H 471.485 3.17019 -1.98619 0
M  V30 4639 H 472.818 4.18141 -2.59651 0
M  V30 4640 N 474.47 1.03057 1.19235 0
M  V30 4641 C 475.417 0.612832 2.22515 0
M  V30 4642 C 476.387 -0.374224 1.61829 0
M  V30 4643 O 477.572 -0.270501 1.88873 0
M  V30 4644 C 474.712 -0.028475 3.45088 0
M  V30 4645 C 473.825 1.00483 4.20151 0
M  V30 4646 C 472.96 0.333102 5.30155 0
M  V30 4647 C 471.999 1.3522 5.96977 0
M  V30 4648 N 471.136 0.70616 6.9854 0
M  V30 4649 H 475.976 1.49812 2.57605 0
M  V30 4650 H 473.513 0.749658 1.26564 0
M  V30 4651 H 475.471 -0.417548 4.15105 0
M  V30 4652 H 474.101 -0.877334 3.10649 0
M  V30 4653 H 473.153 1.51194 3.49062 0
M  V30 4654 H 474.465 1.77929 4.65986 0
M  V30 4655 H 473.619 -0.110725 6.06599 0
M  V30 4656 H 472.358 -0.473547 4.85396 0
M  V30 4657 H 471.363 1.80627 5.19282 0
M  V30 4658 H 472.588 2.16037 6.4382 0
M  V30 4659 H 470.534 -0.0803667 6.55951 0
M  V30 4660 H 470.451 1.41848 7.42573 0
M  V30 4661 H 471.719 0.286391 7.78974 0
M  V30 4662 N 475.948 -1.35272 0.808662 0
M  V30 4663 C 477.359 -1.81179 0.450688 0
M  V30 4664 C 477.71 -1.67143 -1.02751 0
M  V30 4665 O 476.835 -1.20325 -1.79864 0
M  V30 4666 C 477.43 -3.28943 0.811275 0
M  V30 4667 C 475.989 -3.72985 0.505871 0
M  V30 4668 C 475.136 -2.57229 1.03578 0
M  V30 4669 H 478.087 -1.2322 1.00012 0
M  V30 4670 H 478.108 -3.80342 0.109588 0
M  V30 4671 H 477.62 -3.39127 1.88718 0
M  V30 4672 H 475.721 -3.68349 -0.561209 0
M  V30 4673 H 475.834 -4.67677 1.03995 0
M  V30 4674 H 474.198 -2.50548 0.458005 0
M  V30 4675 H 474.981 -2.7019 2.11784 0
M  V30 4676 N 477.426 -0.562348 -1.47226 0
M  V30 4677 C 478.842 -0.222492 -1.58042 0
M  V30 4678 C 479.042 1.27505 -1.56028 0
M  V30 4679 O 478.098 2.05555 -1.46641 0
M  V30 4680 C 479.411 -0.853694 -2.88327 0
M  V30 4681 C 480.959 -0.825397 -3.01921 0
M  V30 4682 C 481.434 -1.43576 -4.34914 0
M  V30 4683 N 482.925 -1.39918 -4.41562 0
M  V30 4684 C 483.66 -1.84103 -5.43041 0
M  V30 4685 N 483.156 -2.36167 -6.51304 0
M  V30 4686 N 484.949 -1.75142 -5.34118 0
M  V30 4687 H 477.1 -1.53525 -1.46778 0
M  V30 4688 H 479.363 -0.640527 -0.698877 0
M  V30 4689 H 479.069 -1.90635 -2.95552 0
M  V30 4690 H 478.943 -0.34977 -3.75575 0
M  V30 4691 H 481.33 0.218583 -2.94289 0
M  V30 4692 H 481.411 -1.36713 -2.16202 0
M  V30 4693 H 481.055 -2.47884 -4.43301 0
M  V30 4694 H 480.985 -0.869427 -5.19373 0
M  V30 4695 H 483.476 -1.0184 -3.63919 0
M  V30 4696 H 483.789 -2.67793 -7.24919 0
M  V30 4697 H 482.134 -2.40181 -6.52179 0
M  V30 4698 H 485.325 -1.34241 -4.48439 0
M  V30 4699 H 485.498 -2.09895 -6.13065 0
M  V30 4700 N 478.904 1.54736 -0.299062 0
M  V30 4701 C 480.15 2.00397 0.311244 0
M  V30 4702 C 480.483 1.18716 1.53688 0
M  V30 4703 O 479.758 0.263154 1.92712 0
M  V30 4704 C 480.041 3.53817 0.669761 0
M  V30 4705 C 479.894 4.46239 -0.564882 0
M  V30 4706 C 481.213 4.13856 1.49702 0
M  V30 4707 H 478.332 0.728493 0.111653 0
M  V30 4708 H 480.974 1.85506 -0.410774 0
M  V30 4709 H 479.124 3.66637 1.28491 0
M  V30 4710 H 480.796 4.45328 -1.20337 0
M  V30 4711 H 479.039 4.16916 -1.19849 0
M  V30 4712 H 479.71 5.5134 -0.269918 0
M  V30 4713 H 482.186 4.04461 0.977284 0
M  V30 4714 H 481.062 5.21365 1.71666 0
M  V30 4715 H 481.323 3.65608 2.48563 0
M  V30 4716 N 480.382 0.0267497 1.57577 0
M  V30 4717 C 481.314 -0.984594 2.06974 0
M  V30 4718 C 482.327 -1.29032 0.992705 0
M  V30 4719 O 483.516 -1.25539 1.26895 0
M  V30 4720 C 480.616 -2.31262 2.47732 0
M  V30 4721 C 479.789 -2.1924 3.78487 0
M  V30 4722 C 478.848 -3.34956 4.05821 0
M  V30 4723 O 477.874 -3.11948 4.76106 0
M  V30 4724 N 479.076 -4.58672 3.55809 0
M  V30 4725 H 481.841 -0.563143 2.94362 0
M  V30 4726 H 479.402 -0.160061 1.61107 0
M  V30 4727 H 481.394 -3.07496 2.63112 0
M  V30 4728 H 479.964 -2.65056 1.65723 0
M  V30 4729 H 479.184 -1.27747 3.72927 0
M  V30 4730 H 480.472 -2.08409 4.64158 0
M  V30 4731 H 479.87 -4.8026 2.98942 0
M  V30 4732 H 478.427 -5.32083 3.76472 0
M  V30 4733 N 481.861 -1.55662 -0.24637 0
M  V30 4734 C 482.771 -1.93495 -1.32653 0
M  V30 4735 C 483.787 -0.835462 -1.5263 0
M  V30 4736 O 484.963 -1.1369 -1.66242 0
M  V30 4737 C 482.028 -2.22242 -2.66101 0
M  V30 4738 C 481.089 -3.45625 -2.54641 0
M  V30 4739 C 480.322 -3.72991 -3.81724 0
M  V30 4740 O 480.545 -3.02421 -4.8363 0
M  V30 4741 O 479.479 -4.66515 -3.80325 0
M  V30 4742 H 483.305 -2.85498 -1.03559 0
M  V30 4743 H 480.89 -1.42551 -0.44717 0
M  V30 4744 H 482.772 -2.42037 -3.44958 0
M  V30 4745 H 481.447 -1.33417 -2.94926 0
M  V30 4746 H 480.354 -3.31136 -1.74067 0
M  V30 4747 H 481.687 -4.34754 -2.3076 0
M  V30 4748 N 483.339 0.512053 -1.4905 0
M  V30 4749 C 484.286 1.6148 -1.64902 0
M  V30 4750 C 485.256 1.58687 -0.490673 0
M  V30 4751 O 486.441 1.76842 -0.71636 0
M  V30 4752 C 483.581 2.99676 -1.71139 0
M  V30 4753 C 482.694 3.12568 -2.98203 0
M  V30 4754 C 481.829 4.4143 -2.95487 0
M  V30 4755 C 480.868 4.47916 -4.17179 0
M  V30 4756 N 480.005 5.68191 -4.12437 0
M  V30 4757 H 484.845 1.47271 -2.59066 0
M  V30 4758 H 482.382 0.716713 -1.28459 0
M  V30 4759 H 484.34 3.79761 -1.72736 0
M  V30 4760 H 482.97 3.12614 -0.804508 0
M  V30 4761 H 482.022 2.25618 -3.06269 0
M  V30 4762 H 483.334 3.1322 -3.88194 0
M  V30 4763 H 482.488 5.29825 -2.95585 0
M  V30 4764 H 481.227 4.43326 -2.03256 0
M  V30 4765 H 480.232 3.57925 -4.17337 0
M  V30 4766 H 481.457 4.47744 -5.1059 0
M  V30 4767 H 479.403 5.7095 -3.23036 0
M  V30 4768 H 479.32 5.70413 -4.96151 0
M  V30 4769 H 480.588 6.58823 -4.16621 0
M  V30 4770 N 484.817 1.37938 0.762283 0
M  V30 4771 C 485.749 1.30349 1.88525 0
M  V30 4772 C 486.762 0.217402 1.61342 0
M  V30 4773 O 487.951 0.474291 1.72084 0
M  V30 4774 C 485.051 0.994844 3.23969 0
M  V30 4775 C 484.224 2.18829 3.78725 0
M  V30 4776 C 483.283 1.84844 4.92665 0
M  V30 4777 O 482.309 2.57244 5.07754 0
M  V30 4778 N 483.511 0.798201 5.74986 0
M  V30 4779 H 486.276 2.27114 1.95549 0
M  V30 4780 H 483.837 1.31686 0.941825 0
M  V30 4781 H 485.829 0.748168 3.97724 0
M  V30 4782 H 484.399 0.115446 3.12387 0
M  V30 4783 H 483.619 2.59615 2.96637 0
M  V30 4784 H 484.907 2.98497 4.1204 0
M  V30 4785 H 484.305 0.197611 5.65355 0
M  V30 4786 H 482.862 0.611396 6.48926 0
M  V30 4787 N 486.295 -0.989507 1.22664 0
M  V30 4788 C 487.245 -2.06478 0.967005 0
M  V30 4789 C 488.229 -1.60682 -0.0836374 0
M  V30 4790 O 489.421 -1.76541 0.127322 0
M  V30 4791 C 486.55 -3.38861 0.550313 0
M  V30 4792 C 485.636 -3.9128 1.63587 0
M  V30 4793 N 486.027 -4.16884 2.86429 0
M  V30 4794 C 484.325 -4.1972 1.50834 0
M  V30 4795 C 485.026 -4.5954 3.56648 0
M  V30 4796 N 484.002 -4.63434 2.84131 0
M  V30 4797 H 487.804 -2.24219 1.90008 0
M  V30 4798 H 485.318 -1.17153 1.12467 0
M  V30 4799 H 487.315 -4.15465 0.345612 0
M  V30 4800 H 485.975 -3.22518 -0.375822 0
M  V30 4801 H 486.986 -4.04976 3.22823 0
M  V30 4802 H 483.663 -4.1243 0.648643 0
M  V30 4803 H 485.053 -4.87944 4.61909 0
M  V30 4804 N 487.773 -1.03688 -1.18687 0
M  V30 4805 C 489.184 -0.766488 -1.70241 0
M  V30 4806 C 489.535 0.713052 -1.82784 0
M  V30 4807 O 488.66 1.55529 -1.50465 0
M  V30 4808 C 489.255 -1.38475 -3.09209 0
M  V30 4809 C 487.814 -1.16276 -3.5799 0
M  V30 4810 C 486.961 -1.4778 -2.34641 0
M  V30 4811 H 489.912 -1.20378 -1.03415 0
M  V30 4812 H 489.933 -0.785939 -3.72295 0
M  V30 4813 H 489.445 -2.46157 -3.00048 0
M  V30 4814 H 487.546 -0.104508 -3.72453 0
M  V30 4815 H 487.659 -1.8571 -4.41643 0
M  V30 4816 H 486.023 -0.897366 -2.38368 0
M  V30 4817 H 486.806 -2.56562 -2.28102 0
M  V30 4818 N 489.251 1.34841 -0.815825 0
M  V30 4819 C 490.497 1.98793 -0.401129 0
M  V30 4820 C 490.83 1.64548 1.03139 0
M  V30 4821 O 490.105 0.913487 1.71714 0
M  V30 4822 C 490.388 3.55143 -0.595409 0
M  V30 4823 C 490.241 3.99155 -2.07352 0
M  V30 4824 C 491.56 4.40092 -0.0268823 0
M  V30 4825 H 488.679 0.722146 -0.14722 0
M  V30 4826 H 491.321 1.59847 -1.02707 0
M  V30 4827 H 489.471 3.8845 -0.0625779 0
M  V30 4828 H 491.143 3.76216 -2.66945 0
M  V30 4829 H 489.386 3.49726 -2.56659 0
M  V30 4830 H 490.057 5.07971 -2.1603 0
M  V30 4831 H 492.533 4.13298 -0.482042 0
M  V30 4832 H 491.409 5.48562 -0.19267 0
M  V30 4833 H 491.67 4.29016 1.06759 0
M  V30 4834 N 490.729 0.570148 1.46925 0
M  V30 4835 C 492.14 0.1402 1.86173 0
M  V30 4836 C 492.491 -1.29347 1.47526 0
M  V30 4837 O 491.616 -1.97508 0.884292 0
M  V30 4838 C 492.211 0.247661 3.37894 0
M  V30 4839 C 490.77 -0.127332 3.76185 0
M  V30 4840 C 489.917 0.589349 2.70965 0
M  V30 4841 H 492.868 0.779117 1.38259 0
M  V30 4842 H 492.889 -0.530341 3.76786 0
M  V30 4843 H 492.401 1.29121 3.65991 0
M  V30 4844 H 490.502 -1.17149 3.53704 0
M  V30 4845 H 490.615 0.240238 4.78497 0
M  V30 4846 H 488.979 0.0309824 2.54681 0
M  V30 4847 H 489.762 1.6343 3.01903 0
M  V30 4848 N 492.207 -1.54576 0.307264 0
M  V30 4849 C 493.618 -1.8579 -0.184121 0
M  V30 4850 C 493.969 -1.22914 -1.52927 0
M  V30 4851 O 493.094 -0.529126 -2.09831 0
M  V30 4852 C 493.689 -3.37081 -0.340862 0
M  V30 4853 C 492.248 -3.68304 -0.776465 0
M  V30 4854 C 491.395 -2.77076 0.111503 0
M  V30 4855 H 494.346 -1.49656 0.528078 0
M  V30 4856 H 494.367 -3.61922 -1.17443 0
M  V30 4857 H 493.879 -3.82815 0.638309 0
M  V30 4858 H 491.98 -3.28092 -1.76596 0
M  V30 4859 H 492.093 -4.75434 -0.591512 0
M  V30 4860 H 490.457 -2.51374 -0.410256 0
M  V30 4861 H 491.24 -3.25632 1.08714 0
M  V30 4862 N 493.685 -0.035106 -1.57561 0
M  V30 4863 C 495.096 0.502885 -1.798 0
M  V30 4864 C 495.447 1.71892 -0.945921 0
M  V30 4865 O 494.572 2.15822 -0.157991 0
M  V30 4866 C 495.167 0.919097 -3.26095 0
M  V30 4867 C 493.726 1.40216 -3.49308 0
M  V30 4868 C 492.873 0.369709 -2.74824 0
M  V30 4869 H 495.824 -0.261102 -1.56537 0
M  V30 4870 H 495.845 1.78308 -3.36135 0
M  V30 4871 H 495.357 0.0338526 -3.88085 0
M  V30 4872 H 493.458 2.30714 -2.92578 0
M  V30 4873 H 493.571 1.40541 -4.58023 0
M  V30 4874 H 491.935 0.839113 -2.40481 0
M  V30 4875 H 492.718 -0.507173 -3.39533 0
M  V30 4876 N 495.163 1.55791 0.238111 0
M  V30 4877 C 496.126 1.90239 1.27835 0
M  V30 4878 C 497.126 0.779552 1.4064 0
M  V30 4879 O 498.316 1.04747 1.3919 0
M  V30 4880 C 495.448 2.13859 2.65475 0
M  V30 4881 H 496.641 2.83262 0.985034 0
M  V30 4882 H 494.194 1.48818 0.477799 0
M  V30 4883 H 494.929 1.23334 2.99932 0
M  V30 4884 H 494.714 2.95643 2.57561 0
M  V30 4885 H 496.204 2.41664 3.40571 0
M  V30 4886 N 496.642 -0.504142 1.49319 0
M  V30 4887 C 497.574 -1.62265 1.61872 0
M  V30 4888 C 498.587 -1.54881 0.501573 0
M  V30 4889 O 499.776 -1.6087 0.773497 0
M  V30 4890 C 496.876 -3.01042 1.55651 0
M  V30 4891 C 496.049 -3.33642 2.82845 0
M  V30 4892 C 495.108 -4.51816 2.69719 0
M  V30 4893 O 494.134 -4.53755 3.4365 0
M  V30 4894 N 495.336 -5.51543 1.81055 0
M  V30 4895 H 498.101 -1.51924 2.58339 0
M  V30 4896 H 495.662 -0.691954 1.46368 0
M  V30 4897 H 497.654 -3.78013 1.44528 0
M  V30 4898 H 496.224 -3.05323 0.670546 0
M  V30 4899 H 495.444 -2.45598 3.08343 0
M  V30 4900 H 496.732 -3.5222 3.67177 0
M  V30 4901 H 496.13 -5.52774 1.20241 0
M  V30 4902 H 494.687 -6.27629 1.75856 0
M  V30 4903 N 498.12 -1.38341 -0.754957 0
M  V30 4904 C 499.068 -1.35573 -1.89005 0
M  V30 4905 C 500.062 -0.241824 -1.67665 0
M  V30 4906 O 501.268 -0.410785 -1.7525 0
M  V30 4907 H 497.643 -0.422898 -0.621821 0
M  V30 4908 H 499.614 -2.31359 -1.88455 0
M  V30 4909 C 498.363 -1.19631 -3.26471 0
M  V30 4910 H 497.686 -2.04605 -3.43477 0
M  V30 4911 H 499.126 -1.21748 -4.06144 0
M  V30 4912 C 497.585 0.0968705 -3.36761 0
M  V30 4913 O 498.115 1.07439 -3.87066 0
M  V30 4914 N 496.321 0.153242 -2.90196 0
M  V30 4915 H 495.868 -0.642908 -2.49448 0
M  V30 4916 H 495.826 1.01807 -2.9746 0
M  V30 4917 N 499.598 0.982988 -1.23187 0
M  V30 4918 C 500.53 2.07729 -0.968572 0
M  V30 4919 C 501.543 1.62702 0.0564821 0
M  V30 4920 O 502.732 1.77603 -0.178733 0
M  V30 4921 C 499.832 3.36071 -0.436974 0
M  V30 4922 C 499.005 4.10081 -1.52159 0
M  V30 4923 C 498.064 5.16701 -0.99532 0
M  V30 4924 O 497.09 5.43727 -1.68373 0
M  V30 4925 N 498.292 5.80226 0.178192 0
M  V30 4926 H 501.057 2.30894 -1.9107 0
M  V30 4927 H 498.618 1.14949 -1.1401 0
M  V30 4928 H 500.61 4.04639 -0.0700051 0
M  V30 4929 H 499.18 3.09893 0.410509 0
M  V30 4930 H 498.4 3.36004 -2.06144 0
M  V30 4931 H 499.688 4.56295 -2.25105 0
M  V30 4932 H 499.086 5.60651 0.754096 0
M  V30 4933 H 497.643 6.49982 0.486449 0
M  V30 4934 N 501.076 1.04316 1.18135 0
M  V30 4935 C 502.024 0.630175 2.23901 0
M  V30 4936 C 503.018 -0.344254 1.65865 0
M  V30 4937 O 504.224 -0.211273 1.78756 0
M  V30 4938 H 500.599 0.185578 0.728742 0
M  V30 4939 H 502.57 1.53253 2.56039 0
M  V30 4940 C 501.319 0.011666 3.47698 0
M  V30 4941 H 500.642 0.752526 3.92654 0
M  V30 4942 H 502.082 -0.240046 4.2332 0
M  V30 4943 C 500.541 -1.23913 3.13285 0
M  V30 4944 O 501.071 -2.32959 3.27251 0
M  V30 4945 N 499.277 -1.13338 2.67587 0
M  V30 4946 H 498.824 -0.246006 2.56423 0
M  V30 4947 H 498.782 -1.97116 2.44934 0
M  V30 4948 N 502.554 -1.34406 0.822964 0
M  V30 4949 C 503.486 -2.28305 0.202375 0
M  V30 4950 C 504.499 -1.5103 -0.60777 0
M  V30 4951 O 505.688 -1.73057 -0.437444 0
M  V30 4952 C 502.788 -3.30836 -0.734911 0
M  V30 4953 C 501.961 -4.37388 0.0324177 0
M  V30 4954 C 501.02 -5.1968 -0.825803 0
M  V30 4955 O 500.046 -5.68556 -0.270771 0
M  V30 4956 N 501.248 -5.39393 -2.14558 0
M  V30 4957 H 504.013 -2.82201 1.00909 0
M  V30 4958 H 501.574 -1.4693 0.67993 0
M  V30 4959 H 503.566 -3.82786 -1.31365 0
M  V30 4960 H 502.136 -2.77334 -1.44238 0
M  V30 4961 H 501.356 -3.86152 0.792469 0
M  V30 4962 H 502.644 -5.05702 0.560633 0
M  V30 4963 H 502.042 -5.01357 -2.62025 0
M  V30 4964 H 500.599 -5.94461 -2.67318 0
M  V30 4965 N 504.032 -0.577932 -1.46621 0
M  V30 4966 C 505.278 -0.0617793 -2.02706 0
M  V30 4967 C 505.611 1.29294 -1.44903 0
M  V30 4968 O 504.886 1.8461 -0.61232 0
M  V30 4969 C 505.169 0.00911824 -3.60099 0
M  V30 4970 C 505.022 -1.37416 -4.28295 0
M  V30 4971 C 506.341 0.712159 -4.343 0
M  V30 4972 H 503.46 -0.0239246 -0.736612 0
M  V30 4973 H 506.102 -0.744211 -1.74818 0
M  V30 4974 H 504.252 0.590292 -3.83989 0
M  V30 4975 H 505.924 -2.00013 -4.15683 0
M  V30 4976 H 504.167 -1.94319 -3.87843 0
M  V30 4977 H 504.838 -1.27707 -5.37024 0
M  V30 4978 H 507.314 0.218486 -4.15526 0
M  V30 4979 H 506.19 0.730782 -5.44014 0
M  V30 4980 H 506.451 1.77251 -4.05012 0
M  V30 4981 N 505.51 1.54411 -0.315457 0
M  V30 4982 C 506.926 1.59556 0.037464 0
M  V30 4983 C 507.126 1.33217 1.5118 0
M  V30 4984 O 506.182 1.11264 2.26664 0
M  V30 4985 C 507.495 2.98372 -0.373477 0
M  V30 4986 C 509.043 3.11324 -0.323452 0
M  V30 4987 C 509.518 4.52472 -0.709433 0
M  V30 4988 N 511.009 4.58437 -0.662524 0
M  V30 4989 C 511.744 5.65751 -0.933474 0
M  V30 4990 N 511.24 6.81039 -1.27114 0
M  V30 4991 N 513.033 5.55489 -0.859573 0
M  V30 4992 H 505.184 1.6979 -1.27614 0
M  V30 4993 H 507.447 0.793732 -0.518356 0
M  V30 4994 H 507.153 3.22618 -1.40037 0
M  V30 4995 H 507.027 3.76264 0.265615 0
M  V30 4996 H 509.414 2.86818 0.694223 0
M  V30 4997 H 509.495 2.35555 -0.997367 0
M  V30 4998 H 509.139 4.7771 -1.72498 0
M  V30 4999 H 509.069 5.26598 -0.0132923 0
M  V30 5000 H 511.56 3.75636 -0.413065 0
M  V30 5001 H 511.873 7.58816 -1.46348 0
M  V30 5002 H 510.218 6.82555 -1.30932 0
M  V30 5003 H 513.409 4.64299 -0.595324 0
M  V30 5004 H 513.582 6.39036 -1.0741 0
M  V30 5005 N 506.988 0.0434614 1.5754 0
M  V30 5006 C 508.213 -0.645358 1.97104 0
M  V30 5007 C 508.638 -1.64037 0.920521 0
M  V30 5008 O 507.996 -1.80922 -0.11708 0
M  V30 5009 C 508.044 -1.31547 3.35749 0
M  V30 5010 O 507.148 -2.43103 3.33129 0
M  V30 5011 H 506.489 -0.168403 0.64229 0
M  V30 5012 H 509.019 0.109573 2.04306 0
M  V30 5013 H 509.029 -1.66895 3.72304 0
M  V30 5014 H 507.704 -0.586205 4.11748 0
M  V30 5015 H 506.281 -2.0976 3.0831 0
M  V30 5016 N 508.466 -1.55915 -0.229846 0
M  V30 5017 C 509.877 -1.68809 -0.797531 0
M  V30 5018 C 510.228 -0.643995 -1.8533 0
M  V30 5019 O 509.353 0.206492 -2.15413 0
M  V30 5020 C 509.948 -3.06043 -1.45338 0
M  V30 5021 C 508.507 -3.20819 -1.96856 0
M  V30 5022 C 507.654 -2.6472 -0.825736 0
M  V30 5023 H 510.605 -1.58699 -0.00533733 0
M  V30 5024 H 510.626 -3.01438 -2.32196 0
M  V30 5025 H 510.138 -3.82012 -0.684743 0
M  V30 5026 H 508.239 -2.49704 -2.76548 0
M  V30 5027 H 508.352 -4.27937 -2.15423 0
M  V30 5028 H 506.716 -2.22985 -1.23084 0
M  V30 5029 H 507.499 -3.43229 -0.0699019 0
M  V30 5030 N 509.944 0.496216 -1.49584 0
M  V30 5031 C 511.192 1.24756 -1.58998 0
M  V30 5032 C 511.513 1.92968 -0.280775 0
M  V30 5033 O 510.783 1.82959 0.700198 0
M  V30 5034 H 509.363 0.463471 -0.585836 0
M  V30 5035 H 512.025 0.574678 -1.86235 0
M  V30 5036 H 511.121 2.00895 -2.38847 0
M  V30 5037 N 511.423 1.38739 0.74761 0
M  V30 5038 C 512.386 1.36241 1.84312 0
M  V30 5039 C 513.386 0.261811 1.58654 0
M  V30 5040 O 514.576 0.519031 1.66288 0
M  V30 5041 C 511.708 1.12253 3.21888 0
M  V30 5042 H 512.901 2.33712 1.87933 0
M  V30 5043 H 510.454 1.2412 0.949946 0
M  V30 5044 H 511.189 0.154133 3.23934 0
M  V30 5045 H 510.974 1.91943 3.41907 0
M  V30 5046 H 512.464 1.13215 4.0196 0
M  V30 5047 N 512.901 -0.976442 1.23707 0
M  V30 5048 C 514.312 -1.53284 1.06587 0
M  V30 5049 C 514.663 -1.92765 -0.365526 0
M  V30 5050 O 513.788 -1.7645 -1.25277 0
M  V30 5051 C 514.383 -2.78548 1.92864 0
M  V30 5052 C 512.942 -3.30574 1.79994 0
M  V30 5053 C 512.089 -2.03538 1.88328 0
M  V30 5054 H 515.04 -0.795692 1.37311 0
M  V30 5055 H 515.061 -3.5155 1.45577 0
M  V30 5056 H 514.573 -2.49782 2.97037 0
M  V30 5057 H 512.674 -3.64211 0.786202 0
M  V30 5058 H 512.787 -4.00065 2.636 0
M  V30 5059 H 511.151 -2.17853 1.31954 0
M  V30 5060 H 511.934 -1.77149 2.94063 0
M  V30 5061 N 514.379 -1.04941 -1.1758 0
M  V30 5062 C 515.627 -0.756492 -1.87408 0
M  V30 5063 C 515.948 0.718478 -1.81281 0
M  V30 5064 O 515.218 1.519 -1.23706 0
M  V30 5065 H 513.798 -0.276841 -0.693807 0
M  V30 5066 H 516.46 -1.32803 -1.42652 0
M  V30 5067 H 515.556 -1.06918 -2.93215 0
M  V30 5068 N 515.857 1.33968 -0.830081 0
M  V30 5069 C 517.268 1.80439 -0.479455 0
M  V30 5070 C 517.619 1.68756 1.00079 0
M  V30 5071 O 516.744 1.23171 1.77927 0
M  V30 5072 C 517.339 3.27611 -0.863505 0
M  V30 5073 C 515.898 3.72133 -0.565145 0
M  V30 5074 C 515.045 2.55549 -1.07657 0
M  V30 5075 H 517.996 1.21614 -1.0196 0
M  V30 5076 H 518.017 3.8012 -0.170083 0
M  V30 5077 H 517.529 3.36082 -1.94089 0
M  V30 5078 H 515.63 3.69196 0.502536 0
M  V30 5079 H 515.743 4.65963 -1.11422 0
M  V30 5080 H 514.107 2.49788 -0.497807 0
M  V30 5081 H 514.89 2.66786 -2.16055 0
M  V30 5082 N 517.335 0.585699 1.46312 0
M  V30 5083 C 518.265 -0.133556 2.33118 0
M  V30 5084 C 519.246 -0.880707 1.45525 0
M  V30 5085 O 520.431 -0.855579 1.74337 0
M  V30 5086 C 517.561 -1.14585 3.27853 0
M  V30 5087 C 516.515 -0.513341 4.2491 0
M  V30 5088 C 515.841 -1.63231 5.09175 0
M  V30 5089 C 517.141 0.551413 5.19381 0
M  V30 5090 H 518.835 0.59121 2.93505 0
M  V30 5091 H 516.381 0.285761 1.41136 0
M  V30 5092 H 518.334 -1.65741 3.87438 0
M  V30 5093 H 517.058 -1.90093 2.65579 0
M  V30 5094 H 515.717 -0.0228349 3.66593 0
M  V30 5095 H 515.365 -2.37713 4.43285 0
M  V30 5096 H 515.065 -1.21473 5.74907 0
M  V30 5097 H 516.589 -2.14658 5.71624 0
M  V30 5098 H 518.003 0.124804 5.73164 0
M  V30 5099 H 516.4 0.889486 5.93471 0
M  V30 5100 H 517.47 1.43655 4.63132 0
M  V30 5101 N 518.813 -1.54241 0.323641 0
M  V30 5102 C 520.041 -2.04985 -0.280871 0
M  V30 5103 C 520.456 -1.19978 -1.45777 0
M  V30 5104 O 519.813 -0.230471 -1.81039 0
M  V30 5105 C 519.864 -3.54353 -0.715258 0
M  V30 5106 O 519.585 -4.36132 0.414817 0
M  V30 5107 C 521.086 -4.21189 -1.38257 0
M  V30 5108 H 518.306 -0.66851 -0.0577502 0
M  V30 5109 H 520.85 -1.99029 0.469852 0
M  V30 5110 H 519.005 -3.60596 -1.41596 0
M  V30 5111 H 519.419 -5.2445 0.0725227 0
M  V30 5112 H 520.893 -5.27154 -1.63745 0
M  V30 5113 H 521.37 -3.72307 -2.32989 0
M  V30 5114 H 521.976 -4.19085 -0.724447 0
M  V30 5115 N 520.291 -0.0518155 -1.57515 0
M  V30 5116 C 521.221 0.920283 -2.146 0
M  V30 5117 C 522.202 1.32406 -1.06783 0
M  V30 5118 O 523.387 1.39866 -1.34726 0
M  V30 5119 C 520.517 2.1949 -2.6915 0
M  V30 5120 C 519.471 1.93116 -3.81956 0
M  V30 5121 C 518.797 3.27037 -4.23026 0
M  V30 5122 C 520.097 1.25225 -5.07066 0
M  V30 5123 H 521.791 0.444801 -2.96077 0
M  V30 5124 H 519.337 0.212508 -1.42423 0
M  V30 5125 H 521.29 2.87894 -3.07725 0
M  V30 5126 H 520.014 2.69244 -1.84865 0
M  V30 5127 H 518.673 1.27123 -3.43854 0
M  V30 5128 H 518.321 3.74595 -3.3569 0
M  V30 5129 H 518.021 3.10189 -4.99056 0
M  V30 5130 H 519.545 3.96673 -4.64202 0
M  V30 5131 H 520.959 1.83666 -5.43083 0
M  V30 5132 H 519.356 1.18702 -5.88243 0
M  V30 5133 H 520.426 0.228382 -4.84362 0
M  V30 5134 N 521.769 1.56035 0.221574 0
M  V30 5135 C 522.716 1.92413 1.27459 0
M  V30 5136 C 523.686 0.781323 1.46576 0
M  V30 5137 O 524.871 1.03721 1.60145 0
M  V30 5138 C 522.011 2.24617 2.61995 0
M  V30 5139 C 521.124 3.51831 2.50677 0
M  V30 5140 C 520.259 3.73482 3.77736 0
M  V30 5141 C 519.298 4.94211 3.6114 0
M  V30 5142 N 518.435 5.12252 4.80148 0
M  V30 5143 H 523.275 2.82203 0.957355 0
M  V30 5144 H 520.812 1.39676 0.461415 0
M  V30 5145 H 522.77 2.41298 3.40339 0
M  V30 5146 H 521.4 1.38 2.91815 0
M  V30 5147 H 520.452 3.43343 1.63767 0
M  V30 5148 H 521.764 4.40328 2.34334 0
M  V30 5149 H 520.918 3.9026 4.64523 0
M  V30 5150 H 519.657 2.83266 3.97003 0
M  V30 5151 H 518.662 4.77384 2.72736 0
M  V30 5152 H 519.887 5.85912 3.43343 0
M  V30 5153 H 517.833 4.24978 4.99729 0
M  V30 5154 H 517.75 5.94881 4.66532 0
M  V30 5155 H 519.018 5.33465 5.68362 0
M  V30 5156 N 523.247 -0.488276 1.49845 0
M  V30 5157 C 524.157 -1.61451 1.70207 0
M  V30 5158 C 525.173 -1.63877 0.584846 0
M  V30 5159 O 526.349 -1.82063 0.861107 0
M  V30 5160 C 523.414 -2.9776 1.77594 0
M  V30 5161 C 522.475 -3.05861 3.01243 0
M  V30 5162 C 521.708 -4.35668 3.08268 0
M  V30 5163 O 521.931 -5.25197 2.22541 0
M  V30 5164 O 520.865 -4.49005 4.00847 0
M  V30 5165 H 524.691 -1.47199 2.65643 0
M  V30 5166 H 522.276 -0.665939 1.33737 0
M  V30 5167 H 524.158 -3.7875 1.84732 0
M  V30 5168 H 522.833 -3.12248 0.8534 0
M  V30 5169 H 521.74 -2.24012 2.99616 0
M  V30 5170 H 523.073 -2.96304 3.9302 0
M  V30 5171 N 524.725 -1.39134 -0.740242 0
M  V30 5172 C 525.971 -1.36273 -1.50192 0
M  V30 5173 C 526.304 0.0430136 -1.94152 0
M  V30 5174 O 525.579 1.00691 -1.66408 0
M  V30 5175 C 525.862 -2.33041 -2.74525 0
M  V30 5176 C 525.715 -3.82535 -2.36617 0
M  V30 5177 C 527.034 -2.27723 -3.76604 0
M  V30 5178 H 524.153 -0.496323 -0.544823 0
M  V30 5179 H 526.795 -1.70085 -0.846815 0
M  V30 5180 H 524.945 -2.04337 -3.30422 0
M  V30 5181 H 526.617 -4.21967 -1.86391 0
M  V30 5182 H 524.86 -3.99565 -1.68909 0
M  V30 5183 H 525.531 -4.45723 -3.2563 0
M  V30 5184 H 528.007 -2.53091 -3.30279 0
M  V30 5185 H 526.883 -2.97519 -4.61274 0
M  V30 5186 H 527.144 -1.28049 -4.2315 0
M  V30 5187 N 526.204 0.969867 -1.24223 0
M  V30 5188 C 527.114 2.09806 -1.0497 0
M  V30 5189 C 528.13 1.73998 0.00886455 0
M  V30 5190 O 529.306 2.00513 -0.188848 0
M  V30 5191 C 526.371 3.40467 -0.654452 0
M  V30 5192 C 525.432 3.90236 -1.78926 0
M  V30 5193 C 524.665 5.14662 -1.41277 0
M  V30 5194 O 524.888 5.69602 -0.301632 0
M  V30 5195 O 523.822 5.58761 -2.23763 0
M  V30 5196 H 527.648 2.28942 -1.99548 0
M  V30 5197 H 525.233 1.08197 -1.03023 0
M  V30 5198 H 527.115 4.19039 -0.445452 0
M  V30 5199 H 525.79 3.22636 0.262216 0
M  V30 5200 H 524.697 3.12735 -2.05299 0
M  V30 5201 H 526.03 4.1254 -2.68462 0
M  V30 5202 N 527.682 1.05563 1.17022 0
M  V30 5203 C 528.592 0.670758 2.24807 0
M  V30 5204 C 529.608 -0.309865 1.71219 0
M  V30 5205 O 530.784 -0.161025 2.00755 0
M  V30 5206 C 527.849 0.055337 3.46656 0
M  V30 5207 C 526.91 1.08688 4.15314 0
M  V30 5208 C 526.143 0.500736 5.31346 0
M  V30 5209 O 526.366 -0.688718 5.66227 0
M  V30 5210 O 525.3 1.23683 5.89055 0
M  V30 5211 H 529.126 1.56914 2.60023 0
M  V30 5212 H 526.711 0.827428 1.24395 0
M  V30 5213 H 528.593 -0.286492 4.20425 0
M  V30 5214 H 527.268 -0.816638 3.13229 0
M  V30 5215 H 526.175 1.48077 3.43546 0
M  V30 5216 H 527.508 1.93014 4.52777 0
M  V30 5217 N 529.16 -1.33526 0.837174 0
M  V30 5218 C 530.09 -2.31764 0.284206 0
M  V30 5219 C 531.071 -1.58896 -0.607142 0
M  V30 5220 O 532.256 -1.86798 -0.531047 0
M  V30 5221 C 529.386 -3.43029 -0.542962 0
M  V30 5222 C 528.34 -4.27255 0.252451 0
M  V30 5223 C 527.666 -5.3012 -0.69836 0
M  V30 5224 C 528.966 -5.01229 1.46858 0
M  V30 5225 H 530.66 -2.78262 1.10502 0
M  V30 5226 H 528.206 -1.3378 0.532812 0
M  V30 5227 H 530.159 -4.1078 -0.940096 0
M  V30 5228 H 528.883 -2.95216 -1.39697 0
M  V30 5229 H 527.542 -3.61127 0.631124 0
M  V30 5230 H 527.19 -4.78564 -1.54872 0
M  V30 5231 H 526.89 -5.87353 -0.170274 0
M  V30 5232 H 528.414 -6.00737 -1.09305 0
M  V30 5233 H 529.828 -5.61756 1.14469 0
M  V30 5234 H 528.225 -5.68104 1.93333 0
M  V30 5235 H 529.295 -4.301 2.23924 0
M  V30 5236 N 530.638 -0.59345 -1.46 0
M  V30 5237 C 531.548 0.135817 -2.34207 0
M  V30 5238 C 532.564 0.875008 -1.50398 0
M  V30 5239 O 533.74 0.835778 -1.83239 0
M  V30 5240 C 530.805 1.12977 -3.27776 0
M  V30 5241 C 529.866 0.394081 -4.27487 0
M  V30 5242 C 529.099 1.34068 -5.16586 0
M  V30 5243 O 529.322 2.5778 -5.08828 0
M  V30 5244 O 528.256 0.845426 -5.95933 0
M  V30 5245 H 532.082 -0.588691 -2.9794 0
M  V30 5246 H 529.667 -0.353784 -1.45151 0
M  V30 5247 H 531.549 1.70261 -3.85473 0
M  V30 5248 H 530.224 1.83556 -2.66625 0
M  V30 5249 H 529.131 -0.220869 -3.73447 0
M  V30 5250 H 530.464 -0.270939 -4.91454 0
M  V30 5251 N 532.116 1.54067 -0.331816 0
M  V30 5252 C 533.048 2.22139 0.564538 0
M  V30 5253 C 534.061 1.22408 1.07332 0
M  V30 5254 O 535.25 1.4883 0.985481 0
M  V30 5255 C 532.35 2.87876 1.78831 0
M  V30 5256 C 531.523 4.13817 1.41682 0
M  V30 5257 C 530.582 4.63072 2.49901 0
M  V30 5258 O 529.608 5.27562 2.13699 0
M  V30 5259 N 530.81 4.38001 3.80967 0
M  V30 5260 H 533.575 2.99694 -0.0183736 0
M  V30 5261 H 531.136 1.61153 -0.155396 0
M  V30 5262 H 533.128 3.17747 2.50637 0
M  V30 5263 H 531.698 2.13977 2.27887 0
M  V30 5264 H 530.918 3.9062 0.530044 0
M  V30 5265 H 532.206 4.95762 1.14443 0
M  V30 5266 H 531.604 3.864 4.13173 0
M  V30 5267 H 530.161 4.72507 4.48977 0
M  V30 5268 N 533.594 0.0601682 1.57485 0
M  V30 5269 C 534.524 -0.90889 2.15085 0
M  V30 5270 C 535.505 -1.31838 1.07484 0
M  V30 5271 O 536.69 -1.3915 1.35466 0
M  V30 5272 C 533.82 -2.18059 2.7031 0
M  V30 5273 C 532.774 -1.91088 3.82974 0
M  V30 5274 C 532.1 -3.24789 4.24754 0
M  V30 5275 C 533.4 -1.22535 5.07723 0
M  V30 5276 H 535.094 -0.429093 2.96309 0
M  V30 5277 H 532.64 -0.204952 1.42534 0
M  V30 5278 H 534.593 -2.86258 3.09248 0
M  V30 5279 H 533.317 -2.6826 1.8629 0
M  V30 5280 H 531.976 -1.25297 3.44523 0
M  V30 5281 H 531.624 -3.72809 3.37672 0
M  V30 5282 H 531.324 -3.07538 5.00694 0
M  V30 5283 H 532.848 -3.94205 4.66299 0
M  V30 5284 H 534.262 -1.80783 5.4405 0
M  V30 5285 H 532.659 -1.1558 5.88864 0
M  V30 5286 H 533.729 -0.202692 4.84476 0
M  V30 5287 N 535.072 -1.5615 -0.213296 0
M  V30 5288 C 536.3 -1.83638 -0.953139 0
M  V30 5289 C 536.715 -0.640362 -1.77609 0
M  V30 5290 O 536.072 0.391071 -1.78261 0
M  V30 5291 C 536.123 -3.09735 -1.86405 0
M  V30 5292 O 535.844 -4.24723 -1.07435 0
M  V30 5293 C 537.345 -3.5027 -2.71709 0
M  V30 5294 H 534.565 -0.610263 -0.278962 0
M  V30 5295 H 537.109 -2.03247 -0.226035 0
M  V30 5296 H 535.264 -2.92077 -2.545 0
M  V30 5297 H 535.678 -4.9641 -1.69343 0
M  V30 5298 H 537.152 -4.41515 -3.31313 0
M  V30 5299 H 537.629 -2.72406 -3.44516 0
M  V30 5300 H 538.235 -3.70396 -2.09015 0
M  V30 5301 N 536.55 0.480323 -1.50102 0
M  V30 5302 C 537.482 1.59669 -1.64433 0
M  V30 5303 C 538.495 1.54063 -0.52615 0
M  V30 5304 O 539.684 1.59619 -0.798992 0
M  V30 5305 C 536.784 2.98527 -1.6042 0
M  V30 5306 C 535.957 3.291 -2.88117 0
M  V30 5307 C 535.016 4.47468 -2.76873 0
M  V30 5308 O 534.042 4.4823 -3.50825 0
M  V30 5309 N 535.244 5.48593 -1.89806 0
M  V30 5310 H 538.009 1.47795 -2.60723 0
M  V30 5311 H 535.57 0.66858 -1.4745 0
M  V30 5312 H 537.562 3.75666 -1.50523 0
M  V30 5313 H 536.132 3.04218 -0.719036 0
M  V30 5314 H 535.352 2.40662 -3.12211 0
M  V30 5315 H 536.64 3.46334 -3.72734 0
M  V30 5316 H 536.038 5.50791 -1.2902 0
M  V30 5317 H 534.595 6.24752 -1.85819 0
M  V30 5318 N 538.028 1.39524 0.732853 0
M  V30 5319 C 538.96 1.34318 1.85718 0
M  V30 5320 C 539.973 0.251576 1.60844 0
M  V30 5321 O 541.162 0.510685 1.71039 0
M  V30 5322 C 538.262 1.06334 3.21786 0
M  V30 5323 C 537.435 2.26813 3.73998 0
M  V30 5324 C 536.494 1.95253 4.88634 0
M  V30 5325 O 535.52 2.67957 5.02183 0
M  V30 5326 N 536.722 0.919984 5.73164 0
M  V30 5327 H 539.487 2.3121 1.90688 0
M  V30 5328 H 537.048 1.33654 0.91368 0
M  V30 5329 H 539.04 0.832363 3.96048 0
M  V30 5330 H 537.61 0.181682 3.12072 0
M  V30 5331 H 536.83 2.65849 2.91064 0
M  V30 5332 H 538.118 3.0717 4.05616 0
M  V30 5333 H 537.516 0.317487 5.64808 0
M  V30 5334 H 536.073 0.748905 6.47483 0
M  V30 5335 N 539.506 -0.963266 1.24736 0
M  V30 5336 C 540.436 -2.07628 1.06832 0
M  V30 5337 C 541.417 -1.70088 -0.0200566 0
M  V30 5338 O 542.602 -1.93636 0.147854 0
M  V30 5339 C 539.732 -3.40636 0.677069 0
M  V30 5340 C 538.686 -3.9215 1.71471 0
M  V30 5341 C 538.012 -5.21553 1.1784 0
M  V30 5342 C 539.312 -4.19493 3.11164 0
M  V30 5343 H 541.006 -2.22864 1.9993 0
M  V30 5344 H 538.552 -1.07093 0.96266 0
M  V30 5345 H 540.505 -4.17941 0.538792 0
M  V30 5346 H 539.229 -3.25313 -0.289612 0
M  V30 5347 H 537.888 -3.17005 1.84128 0
M  V30 5348 H 537.536 -5.02593 0.202195 0
M  V30 5349 H 537.236 -5.56988 1.87185 0
M  V30 5350 H 538.76 -6.01463 1.05233 0
M  V30 5351 H 540.174 -4.87487 3.01711 0
M  V30 5352 H 538.571 -4.66165 3.77902 0
M  V30 5353 H 539.641 -3.26097 3.58871 0
M  V30 5354 N 540.985 -1.06182 -1.16461 0
M  V30 5355 C 541.918 -0.615859 -2.19733 0
M  V30 5356 C 542.896 0.360766 -1.58547 0
M  V30 5357 O 544.08 0.270009 -1.86556 0
M  V30 5358 C 541.207 0.097312 -3.3856 0
M  V30 5359 C 540.253 -0.835889 -4.18229 0
M  V30 5360 S 541.086 -2.33052 -4.82128 0
M  V30 5361 C 542.242 -1.62881 -6.04335 0
M  V30 5362 H 542.475 -1.49079 -2.57221 0
M  V30 5363 H 540.008 -0.874692 -1.27234 0
M  V30 5364 H 541.966 0.502563 -4.07412 0
M  V30 5365 H 540.627 0.948418 -2.99439 0
M  V30 5366 H 539.82 -0.283426 -5.03202 0
M  V30 5367 H 539.422 -1.18097 -3.54865 0
M  V30 5368 H 541.714 -0.933764 -6.71034 0
M  V30 5369 H 542.657 -2.45641 -6.64128 0
M  V30 5370 H 543.065 -1.11189 -5.53441 0
M  V30 5371 N 542.463 1.3308 -0.844243 0
M  V30 5372 C 543.395 2.27954 -0.238671 0
M  V30 5373 C 544.408 1.51978 0.583665 0
M  V30 5374 O 545.597 1.73731 0.409857 0
M  V30 5375 C 542.697 3.31963 0.682185 0
M  V30 5376 C 541.87 4.37281 -0.101998 0
M  V30 5377 C 540.929 5.20928 0.743022 0
M  V30 5378 O 539.955 5.68914 0.180285 0
M  V30 5379 N 541.157 5.42738 2.0595 0
M  V30 5380 H 543.922 2.8056 -1.05386 0
M  V30 5381 H 541.483 1.4583 -0.70322 0
M  V30 5382 H 543.475 3.84828 1.25259 0
M  V30 5383 H 542.045 2.79594 1.39808 0
M  V30 5384 H 541.265 3.84843 -0.853802 0
M  V30 5385 H 542.553 5.04746 -0.641015 0
M  V30 5386 H 541.951 5.05463 2.54016 0
M  V30 5387 H 540.508 5.98639 2.57827 0
M  V30 5388 N 543.941 0.601185 1.45683 0
M  V30 5389 C 545.218 0.0261659 1.95582 0
M  V30 5390 C 545.598 -1.4399 1.5437 0
M  V30 5391 O 544.946 -2.13919 0.80318 0
M  V30 5392 C 545.156 0.217557 3.48321 0
M  V30 5393 C 546.504 0.0950076 4.24494 0
M  V30 5394 O 547.528 0.147345 3.55895 0
M  V30 5395 O 546.387 -0.025261 5.46494 0
M  V30 5396 H 543.481 -0.0393688 0.826062 0
M  V30 5397 H 546.027 0.670798 1.55879 0
M  V30 5398 H 544.799 1.23601 3.71266 0
M  V30 5399 H 544.422 -0.46264 3.94899 0
M  V30 5400 N 545.419 -1.53889 0.339982 0
M  V30 5401 C 546.352 -2.21187 -0.561405 0
M  V30 5402 C 547.33 -1.19463 -1.10306 0
M  V30 5403 O 548.514 -1.48268 -1.164 0
M  V30 5404 C 545.641 -2.8865 -1.77198 0
M  V30 5405 C 544.687 -4.04232 -1.3601 0
M  V30 5406 S 545.52 -5.34129 -0.382909 0
M  V30 5407 C 546.676 -6.05094 -1.60039 0
M  V30 5408 H 546.909 -2.97298 0.0102092 0
M  V30 5409 H 544.442 -1.53901 0.124056 0
M  V30 5410 H 546.4 -3.28138 -2.4665 0
M  V30 5411 H 545.061 -2.12311 -2.3148 0
M  V30 5412 H 544.254 -4.50358 -2.2626 0
M  V30 5413 H 543.856 -3.66503 -0.745098 0
M  V30 5414 H 546.148 -6.2827 -2.53541 0
M  V30 5415 H 547.091 -6.98182 -1.18099 0
M  V30 5416 H 547.499 -5.35207 -1.79483 0
M  V30 5417 N 546.897 -0.0685191 -1.57451 0
M  V30 5418 C 547.807 0.914677 -2.16034 0
M  V30 5419 C 548.823 1.32938 -1.12265 0
M  V30 5420 O 549.999 1.40275 -1.44516 0
M  V30 5421 C 547.064 2.16519 -2.70777 0
M  V30 5422 C 546.125 1.80721 -3.89408 0
M  V30 5423 C 545.358 2.9981 -4.41531 0
M  V30 5424 O 545.581 4.13727 -3.92666 0
M  V30 5425 O 544.515 2.79817 -5.32903 0
M  V30 5426 H 548.341 0.446364 -3.00402 0
M  V30 5427 H 545.926 0.154367 -1.486 0
M  V30 5428 H 547.808 2.89856 -3.05878 0
M  V30 5429 H 546.483 2.62454 -1.89471 0
M  V30 5430 H 545.39 1.04646 -3.59166 0
M  V30 5431 H 546.723 1.39571 -4.71997 0
M  V30 5432 N 548.375 1.56261 0.205012 0
M  V30 5433 C 549.325 1.90155 1.25798 0
M  V30 5434 C 550.309 0.766227 1.41484 0
M  V30 5435 O 551.501 1.02893 1.44021 0
M  V30 5436 C 548.63 2.23603 2.60493 0
M  V30 5437 C 547.716 3.43568 2.48639 0
M  V30 5438 N 548.107 4.61747 2.06455 0
M  V30 5439 C 546.405 3.4751 2.79558 0
M  V30 5440 C 547.106 5.43907 2.06253 0
M  V30 5441 N 546.082 4.84051 2.47377 0
M  V30 5442 H 549.884 2.79031 0.922986 0
M  V30 5443 H 547.398 1.57048 0.413501 0
M  V30 5444 H 549.395 2.46067 3.36537 0
M  V30 5445 H 548.055 1.36049 2.94823 0
M  V30 5446 H 549.066 4.86598 1.77321 0
M  V30 5447 H 545.743 2.70345 3.18151 0
M  V30 5448 H 547.133 6.48542 1.75622 0
M  V30 5449 N 549.853 -0.472356 1.50355 0
M  V30 5450 C 551.264 -1.05326 1.54154 0
M  V30 5451 C 551.615 -1.93155 0.344303 0
M  V30 5452 O 550.74 -2.09479 -0.542928 0
M  V30 5453 C 551.335 -1.91691 2.79356 0
M  V30 5454 C 549.894 -2.44892 2.8584 0
M  V30 5455 C 549.041 -1.23205 2.48426 0
M  V30 5456 H 551.992 -0.255027 1.56637 0
M  V30 5457 H 552.013 -2.76742 2.6114 0
M  V30 5458 H 551.525 -1.27741 3.66475 0
M  V30 5459 H 549.626 -3.12399 2.0307 0
M  V30 5460 H 549.739 -2.80086 3.88701 0
M  V30 5461 H 548.103 -1.56643 2.00836 0
M  V30 5462 H 548.886 -0.609194 3.37852 0
M  V30 5463 N 551.331 -1.39911 -0.725443 0
M  V30 5464 C 552.263 -1.35301 -1.85003 0
M  V30 5465 C 553.276 -0.260102 -1.60709 0
M  V30 5466 O 554.465 -0.519749 -1.70766 0
M  V30 5467 C 551.565 -1.08039 -3.21218 0
M  V30 5468 C 550.738 -2.28793 -3.7279 0
M  V30 5469 C 549.797 -1.97841 -4.87591 0
M  V30 5470 O 548.823 -2.70616 -5.00755 0
M  V30 5471 N 550.025 -0.950367 -5.72668 0
M  V30 5472 H 552.79 -2.32218 -1.89459 0
M  V30 5473 H 550.351 -1.34137 -0.90658 0
M  V30 5474 H 552.343 -0.853354 -3.95601 0
M  V30 5475 H 550.913 -0.198229 -3.11971 0
M  V30 5476 H 550.133 -2.67388 -2.8965 0
M  V30 5477 H 551.421 -3.09317 -4.03981 0
M  V30 5478 H 550.819 -0.347436 -5.64632 0
M  V30 5479 H 549.376 -0.783232 -6.47077 0
M  V30 5480 N 552.809 0.956637 -1.25245 0
M  V30 5481 C 554.225 1.22733 -1.02023 0
M  V30 5482 C 554.425 1.99761 0.264186 0
M  V30 5483 O 553.481 2.32814 0.977436 0
M  V30 5484 C 554.794 2.00367 -2.24217 0
M  V30 5485 C 556.342 2.13418 -2.28958 0
M  V30 5486 C 556.817 2.9445 -3.50803 0
M  V30 5487 N 558.308 3.02029 -3.51187 0
M  V30 5488 C 559.043 3.65116 -4.42129 0
M  V30 5489 N 558.539 4.2983 -5.43339 0
M  V30 5490 N 560.332 3.62237 -4.29815 0
M  V30 5491 H 552.483 0.441282 -2.07765 0
M  V30 5492 H 554.746 0.257686 -0.912306 0
M  V30 5493 H 554.452 1.51165 -3.17556 0
M  V30 5494 H 554.326 3.01077 -2.27228 0
M  V30 5495 H 556.713 2.61819 -1.36143 0
M  V30 5496 H 556.794 1.1202 -2.29968 0
M  V30 5497 H 556.438 2.46741 -4.43939 0
M  V30 5498 H 556.368 3.9607 -3.47039 0
M  V30 5499 H 558.859 2.56007 -2.77973 0
M  V30 5500 H 559.172 4.75819 -6.08947 0
M  V30 5501 H 557.517 4.28465 -5.47214 0
M  V30 5502 H 560.708 3.10863 -3.49974 0
M  V30 5503 H 560.881 4.11117 -5.00886 0
M  V30 5504 N 554.287 1.06798 1.15896 0
M  V30 5505 C 555.219 0.641263 2.20046 0
M  V30 5506 C 556.232 -0.303355 1.59949 0
M  V30 5507 O 557.421 -0.0935478 1.78255 0
M  V30 5508 C 554.521 -0.0794029 3.38807 0
M  V30 5509 C 553.694 0.879986 4.28457 0
M  V30 5510 C 552.753 0.197638 5.25829 0
M  V30 5511 O 551.779 0.836913 5.63014 0
M  V30 5512 N 552.981 -1.05886 5.70761 0
M  V30 5513 H 555.746 1.53718 2.57276 0
M  V30 5514 H 553.307 0.951951 1.30956 0
M  V30 5515 H 555.299 -0.546418 4.00994 0
M  V30 5516 H 553.869 -0.877193 3.0004 0
M  V30 5517 H 553.089 1.52625 3.63454 0
M  V30 5518 H 554.377 1.53065 4.8523 0
M  V30 5519 H 553.775 -1.59828 5.42652 0
M  V30 5520 H 552.332 -1.46965 6.35015 0
M  V30 5521 N 555.766 -1.3263 0.851289 0
M  V30 5522 C 556.714 -2.30882 0.282202 0
M  V30 5523 C 557.708 -1.58697 -0.592589 0
M  V30 5524 O 558.914 -1.73461 -0.480768 0
M  V30 5525 H 555.289 -0.748492 0.0725487 0
M  V30 5526 H 557.26 -2.76374 1.12516 0
M  V30 5527 C 556.009 -3.43828 -0.517449 0
M  V30 5528 H 555.332 -3.99532 0.146392 0
M  V30 5529 H 556.772 -4.1474 -0.88128 0
M  V30 5530 C 555.231 -2.90786 -1.70133 0
M  V30 5531 O 555.761 -2.88 -2.80034 0
M  V30 5532 N 553.967 -2.4723 -1.52728 0
M  V30 5533 H 553.514 -2.49695 -0.633257 0
M  V30 5534 H 553.472 -2.12094 -2.32085 0
M  V30 5535 N 557.244 -0.608902 -1.45362 0
M  V30 5536 C 558.49 -0.104762 -2.02529 0
M  V30 5537 C 558.823 1.26191 -1.47613 0
M  V30 5538 O 558.098 1.8327 -0.65134 0
M  V30 5539 C 558.381 -0.0672661 -3.60037 0
M  V30 5540 C 558.234 -1.4647 -4.25284 0
M  V30 5541 C 559.553 0.619877 -4.35713 0
M  V30 5542 H 556.672 -0.0395438 -0.735938 0
M  V30 5543 H 559.314 -0.781126 -1.73201 0
M  V30 5544 H 557.464 0.50871 -3.85155 0
M  V30 5545 H 559.136 -2.08785 -4.11347 0
M  V30 5546 H 557.379 -2.02502 -3.83634 0
M  V30 5547 H 558.05 -1.39069 -5.34195 0
M  V30 5548 H 560.526 0.130297 -4.15896 0
M  V30 5549 H 559.402 0.615224 -5.45441 0
M  V30 5550 H 559.663 1.68621 -4.0868 0
M  V30 5551 N 558.722 1.53707 -0.348139 0
M  V30 5552 C 559.685 2.23812 0.494058 0
M  V30 5553 C 560.685 1.23989 1.02388 0
M  V30 5554 O 561.875 1.48395 0.912396 0
M  V30 5555 C 559.007 2.96133 1.68872 0
M  V30 5556 H 560.2 2.99663 -0.119141 0
M  V30 5557 H 557.753 1.55983 -0.0995539 0
M  V30 5558 H 558.488 2.24481 2.34049 0
M  V30 5559 H 558.273 3.69357 1.31596 0
M  V30 5560 H 559.763 3.49475 2.28597 0
M  V30 5561 N 560.2 0.0768682 1.57412 0
M  V30 5562 C 561.446 -0.591961 1.93968 0
M  V30 5563 C 561.779 -1.68954 0.9575 0
M  V30 5564 O 561.054 -1.94496 -0.0124675 0
M  V30 5565 C 561.337 -1.16418 3.40762 0
M  V30 5566 C 561.19 -0.0728933 4.49741 0
M  V30 5567 C 562.509 -2.06814 3.88479 0
M  V30 5568 H 559.628 -0.213716 0.705333 0
M  V30 5569 H 562.27 0.14387 1.89455 0
M  V30 5570 H 560.42 -1.79128 3.4474 0
M  V30 5571 H 562.092 0.560446 4.57883 0
M  V30 5572 H 560.335 0.595859 4.29688 0
M  V30 5573 H 561.006 -0.513755 5.49604 0
M  V30 5574 H 563.482 -1.54033 3.8654 0
M  V30 5575 H 562.358 -2.43785 4.91793 0
M  V30 5576 H 562.619 -2.97844 3.26713 0
M  V30 5577 N 561.678 -1.56367 -0.196722 0
M  V30 5578 C 562.626 -1.95304 -1.2633 0
M  V30 5579 C 563.62 -0.838252 -1.47206 0
M  V30 5580 O 564.826 -1.02325 -1.48087 0
M  V30 5581 H 561.201 -0.621013 -0.424083 0
M  V30 5582 H 563.172 -2.84254 -0.907879 0
M  V30 5583 C 561.921 -2.3074 -2.60104 0
M  V30 5584 H 561.244 -3.16047 -2.44856 0
M  V30 5585 H 562.684 -2.61849 -3.33484 0
M  V30 5586 C 561.143 -1.14143 -3.16975 0
M  V30 5587 O 561.673 -0.415602 -3.99544 0
M  V30 5588 N 559.879 -0.91867 -2.75697 0
M  V30 5589 H 559.426 -1.51065 -2.08656 0
M  V30 5590 H 559.384 -0.140321 -3.14087 0
M  V30 5591 N 563.156 0.464375 -1.50603 0
M  V30 5592 C 564.066 1.58723 -1.72754 0
M  V30 5593 C 565.082 1.62925 -0.610844 0
M  V30 5594 O 566.258 1.8067 -0.889963 0
M  V30 5595 C 563.323 2.94897 -1.82309 0
M  V30 5596 C 562.384 3.0103 -3.06071 0
M  V30 5597 C 561.617 4.30708 -3.1516 0
M  V30 5598 O 561.84 5.2159 -2.30868 0
M  V30 5599 O 560.774 4.42571 -4.0794 0
M  V30 5600 H 564.6 1.42954 -2.67951 0
M  V30 5601 H 562.185 0.644579 -1.3478 0
M  V30 5602 H 564.067 3.75764 -1.90735 0
M  V30 5603 H 562.742 3.10851 -0.902967 0
M  V30 5604 H 561.649 2.19217 -3.03142 0
M  V30 5605 H 562.982 2.90014 -3.97684 0
M  V30 5606 N 564.634 1.40294 0.718013 0
M  V30 5607 C 565.564 1.43118 1.84498 0
M  V30 5608 C 566.545 0.292403 1.67568 0
M  V30 5609 O 567.73 0.500675 1.87635 0
M  V30 5610 C 564.86 1.29065 3.22427 0
M  V30 5611 C 563.814 2.40521 3.54025 0
M  V30 5612 C 563.14 2.11546 4.91073 0
M  V30 5613 C 564.44 3.82859 3.55269 0
M  V30 5614 H 566.134 2.37432 1.82391 0
M  V30 5615 H 563.68 1.14283 0.87609 0
M  V30 5616 H 565.633 1.29658 4.00957 0
M  V30 5617 H 564.357 0.312271 3.25104 0
M  V30 5618 H 563.016 2.39173 2.77834 0
M  V30 5619 H 562.664 1.12104 4.90348 0
M  V30 5620 H 562.364 2.86216 5.1318 0
M  V30 5621 H 563.888 2.13817 5.71939 0
M  V30 5622 H 565.302 3.86044 4.23843 0
M  V30 5623 H 563.699 4.57029 3.88902 0
M  V30 5624 H 564.769 4.12617 2.54706 0
M  V30 5625 N 566.112 -0.949982 1.2575 0
M  V30 5626 C 567.352 -1.70994 1.11984 0
M  V30 5627 C 567.716 -1.89095 -0.332746 0
M  V30 5628 O 568.917 -2.62192 -0.592331 0
M  V30 5629 C 567.188 -3.05286 1.85837 0
M  V30 5630 S 568.747 -3.96477 1.88019 0
M  V30 5631 H 565.565 -0.587689 0.400178 0
M  V30 5632 H 568.167 -1.13271 1.59342 0
M  V30 5633 H 566.871 -2.89785 2.90608 0
M  V30 5634 H 566.402 -3.68069 1.38885 0
M  V30 5635 H 568.417 -4.86814 0.96057 0
M  V30 5636 N 567.59 -1.07411 -1.15328 0
M  V30 5637 C 568.838 -0.796073 -1.85761 0
M  V30 5638 C 569.159 0.679864 -1.82764 0
M  V30 5639 O 568.429 1.49242 -1.269 0
M  V30 5640 H 567.009 -0.291495 -0.687779 0
M  V30 5641 H 569.671 -1.35799 -1.39802 0
M  V30 5642 H 568.767 -1.13114 -2.90881 0
M  V30 5643 N 569.068 1.32177 -0.85831 0
M  V30 5644 C 570.484 1.49873 -0.548656 0
M  V30 5645 C 570.684 1.79278 0.919874 0
M  V30 5646 O 569.74 1.86451 1.70271 0
M  V30 5647 C 571.053 2.64043 -1.4388 0
M  V30 5648 C 572.601 2.77928 -1.43961 0
M  V30 5649 C 573.076 3.95182 -2.31506 0
M  V30 5650 N 574.567 4.0245 -2.29321 0
M  V30 5651 C 575.302 4.9242 -2.93786 0
M  V30 5652 N 574.798 5.87373 -3.67376 0
M  V30 5653 N 576.591 4.85572 -2.83155 0
M  V30 5654 H 568.742 1.11357 -1.80868 0
M  V30 5655 H 571.005 0.549175 -0.772729 0
M  V30 5656 H 570.711 2.49055 -2.48324 0
M  V30 5657 H 570.585 3.59912 -1.12885 0
M  V30 5658 H 572.972 2.92338 -0.402813 0
M  V30 5659 H 573.053 1.82762 -1.78974 0
M  V30 5660 H 572.697 3.81531 -3.35256 0
M  V30 5661 H 572.627 4.89633 -1.93823 0
M  V30 5662 H 575.118 3.34507 -1.75822 0
M  V30 5663 H 575.431 6.52728 -4.13722 0
M  V30 5664 H 573.776 5.87388 -3.71484 0
M  V30 5665 H 576.967 4.10363 -2.25211 0
M  V30 5666 H 577.14 5.55486 -3.33676 0
M  V30 5667 N 570.547 0.616602 1.45037 0
M  V30 5668 C 571.787 0.118453 2.04056 0
M  V30 5669 C 572.151 -1.23104 1.47341 0
M  V30 5670 O 573.352 -1.82044 1.97771 0
M  V30 5671 C 571.623 0.0892842 3.57288 0
M  V30 5672 S 573.182 -0.346361 4.37431 0
M  V30 5673 H 570 0.0539728 0.708948 0
M  V30 5674 H 572.602 0.816731 1.77623 0
M  V30 5675 H 571.306 1.07481 3.96076 0
M  V30 5676 H 570.837 -0.630703 3.88311 0
M  V30 5677 H 572.852 -1.59389 4.69904 0
M  V30 5678 N 572.025 -1.5352 0.356285 0
M  V30 5679 C 572.975 -2.22204 -0.510815 0
M  V30 5680 C 573.959 -1.21393 -1.05605 0
M  V30 5681 O 575.151 -1.46883 -0.987639 0
M  V30 5682 C 572.28 -3.00786 -1.65478 0
M  V30 5683 C 571.366 -4.08965 -1.12287 0
M  V30 5684 N 571.757 -5.04829 -0.313191 0
M  V30 5685 C 570.055 -4.23505 -1.39856 0
M  V30 5686 C 570.756 -5.81695 -0.0230322 0
M  V30 5687 N 569.732 -5.40074 -0.618144 0
M  V30 5688 H 573.534 -2.93676 0.114711 0
M  V30 5689 H 571.048 -1.61572 0.163811 0
M  V30 5690 H 573.045 -3.48502 -2.28806 0
M  V30 5691 H 571.705 -2.30843 -2.28345 0
M  V30 5692 H 572.716 -5.17879 0.0468202 0
M  V30 5693 H 569.393 -3.64786 -2.0307 0
M  V30 5694 H 570.783 -6.68931 0.630927 0
M  V30 5695 N 573.503 -0.0852151 -1.57369 0
M  V30 5696 C 574.435 0.907099 -2.10486 0
M  V30 5697 C 575.448 1.25259 -1.03991 0
M  V30 5698 O 576.637 1.20743 -1.31467 0
M  V30 5699 C 573.737 2.21908 -2.56145 0
M  V30 5700 C 572.91 2.05042 -3.86363 0
M  V30 5701 C 571.969 3.19664 -4.17973 0
M  V30 5702 O 570.995 2.94062 -4.87356 0
M  V30 5703 N 572.197 4.45151 -3.72587 0
M  V30 5704 H 574.962 0.453505 -2.96249 0
M  V30 5705 H 572.523 0.100157 -1.6159 0
M  V30 5706 H 574.515 2.97519 -2.74343 0
M  V30 5707 H 573.085 2.58723 -1.75446 0
M  V30 5708 H 572.305 1.13819 -3.77411 0
M  V30 5709 H 573.593 1.91039 -4.71574 0
M  V30 5710 H 572.991 4.68834 -3.16561 0
M  V30 5711 H 571.548 5.17744 -3.9596 0
M  V30 5712 N 574.981 1.5647 0.188427 0
M  V30 5713 C 576.392 1.70864 0.752494 0
M  V30 5714 C 576.743 0.692905 1.83557 0
M  V30 5715 O 575.868 -0.149307 2.15884 0
M  V30 5716 C 576.463 3.09789 1.37173 0
M  V30 5717 C 575.022 3.25925 1.88281 0
M  V30 5718 C 574.169 2.66817 0.755259 0
M  V30 5719 H 577.12 1.58657 -0.0367408 0
M  V30 5720 H 577.141 3.07489 2.24122 0
M  V30 5721 H 576.653 3.83693 0.583219 0
M  V30 5722 H 574.754 2.56948 2.6983 0
M  V30 5723 H 574.867 4.33498 2.04001 0
M  V30 5724 H 573.231 2.2617 1.17128 0
M  V30 5725 H 574.014 3.43294 -0.0211237 0
M  V30 5726 N 576.459 -0.456382 1.50847 0
M  V30 5727 C 577.389 -1.56025 1.73719 0
M  V30 5728 C 578.37 -1.5967 0.586473 0
M  V30 5729 O 579.555 -1.75702 0.827185 0
M  V30 5730 C 576.685 -2.94251 1.84483 0
M  V30 5731 C 575.639 -3.05471 2.99786 0
M  V30 5732 C 574.965 -4.45489 2.95709 0
M  V30 5733 C 576.265 -2.81318 4.40065 0
M  V30 5734 H 577.959 -1.37138 2.66146 0
M  V30 5735 H 575.505 -0.658299 1.28072 0
M  V30 5736 H 577.458 -3.71417 1.99067 0
M  V30 5737 H 576.182 -3.14328 0.886891 0
M  V30 5738 H 574.841 -2.30741 2.84876 0
M  V30 5739 H 574.489 -4.62505 1.97732 0
M  V30 5740 H 574.189 -4.53929 3.73125 0
M  V30 5741 H 575.713 -5.24655 3.12362 0
M  V30 5742 H 577.127 -3.48226 4.55425 0
M  V30 5743 H 575.524 -3.01188 5.19043 0
M  V30 5744 H 576.594 -1.7706 4.51418 0
M  V30 5745 N 577.937 -1.40673 -0.710563 0
M  V30 5746 C 578.9 -1.4108 -1.80635 0
M  V30 5747 C 579.9 -0.303783 -1.57904 0
M  V30 5748 O 581.09 -0.562937 -1.64853 0
M  V30 5749 C 578.222 -1.20748 -3.18799 0
M  V30 5750 H 579.415 -2.38612 -1.81671 0
M  V30 5751 H 576.968 -1.26595 -0.916704 0
M  V30 5752 H 577.703 -0.239964 -3.23411 0
M  V30 5753 H 577.488 -2.00941 -3.36698 0
M  V30 5754 H 578.978 -1.23833 -3.98817 0
M  V30 5755 N 579.415 0.9433 -1.26252 0
M  V30 5756 C 580.831 1.21644 -1.03319 0
M  V30 5757 C 581.031 2.0003 0.242983 0
M  V30 5758 O 580.087 2.33838 0.952688 0
M  V30 5759 C 581.4 1.97978 -2.2633 0
M  V30 5760 C 582.948 2.10978 -2.31209 0
M  V30 5761 C 583.423 2.90713 -3.53907 0
M  V30 5762 N 584.914 2.98287 -3.54371 0
M  V30 5763 C 585.649 3.60406 -4.45976 0
M  V30 5764 N 585.145 4.24043 -5.47868 0
M  V30 5765 N 586.938 3.57658 -4.33633 0
M  V30 5766 H 579.089 0.419221 -2.08222 0
M  V30 5767 H 581.352 0.247995 -0.914988 0
M  V30 5768 H 581.058 1.47788 -3.19142 0
M  V30 5769 H 580.932 2.9865 -2.30408 0
M  V30 5770 H 583.319 2.6036 -1.38913 0
M  V30 5771 H 583.4 1.09575 -2.31143 0
M  V30 5772 H 583.044 2.42018 -4.46531 0
M  V30 5773 H 582.974 3.92367 -3.5122 0
M  V30 5774 H 585.465 2.53044 -2.80673 0
M  V30 5775 H 585.778 4.69334 -6.13959 0
M  V30 5776 H 584.123 4.22637 -5.51728 0
M  V30 5777 H 587.314 3.07134 -3.53251 0
M  V30 5778 H 587.487 4.05782 -5.05218 0
M  V30 5779 N 580.893 1.08022 1.14757 0
M  V30 5780 C 581.856 0.71048 2.1791 0
M  V30 5781 C 582.856 -0.252731 1.58801 0
M  V30 5782 O 584.046 -0.0327915 1.74169 0
M  V30 5783 C 581.178 0.0483203 3.40866 0
M  V30 5784 H 582.371 1.62384 2.52134 0
M  V30 5785 H 579.924 0.877595 1.29337 0
M  V30 5786 H 580.659 -0.876959 3.12218 0
M  V30 5787 H 580.444 0.741189 3.85031 0
M  V30 5788 H 581.934 -0.195471 4.17142 0
M  V30 5789 N 582.371 -1.3172 0.865308 0
M  V30 5790 C 583.303 -2.27545 0.274906 0
M  V30 5791 C 584.316 -1.52887 -0.559413 0
M  V30 5792 O 585.505 -1.74361 -0.382166 0
M  V30 5793 C 582.605 -3.33006 -0.629286 0
M  V30 5794 C 581.778 -4.37063 0.171553 0
M  V30 5795 C 580.837 -5.22044 -0.660052 0
M  V30 5796 O 579.863 -5.69129 -0.0897527 0
M  V30 5797 N 581.065 -5.45946 -1.97289 0
M  V30 5798 H 583.83 -2.78848 1.09836 0
M  V30 5799 H 581.391 -1.44693 0.726331 0
M  V30 5800 H 583.383 -3.86772 -1.19121 0
M  V30 5801 H 581.953 -2.81782 -1.35342 0
M  V30 5802 H 581.173 -3.83436 0.914919 0
M  V30 5803 H 582.461 -5.03662 0.721235 0
M  V30 5804 H 581.859 -5.0944 -2.45942 0
M  V30 5805 H 580.416 -6.02665 -2.4827 0
M  V30 5806 N 583.85 -0.624285 -1.44708 0
M  V30 5807 C 585.26 -0.2092 -1.85524 0
M  V30 5808 C 585.611 1.23783 -1.52225 0
M  V30 5809 O 584.736 1.94089 -0.956986 0
M  V30 5810 C 585.332 -0.372897 -3.36742 0
M  V30 5811 C 583.891 -0.012374 -3.76398 0
M  V30 5812 C 583.038 -0.68951 -2.68591 0
M  V30 5813 H 585.989 -0.829894 -1.35272 0
M  V30 5814 H 586.01 0.390134 -3.78495 0
M  V30 5815 H 585.522 -1.42615 -3.60947 0
M  V30 5816 H 583.623 1.03941 -3.57809 0
M  V30 5817 H 583.736 -0.417663 -4.77276 0
M  V30 5818 H 582.1 -0.125484 -2.54391 0
M  V30 5819 H 582.883 -1.74522 -2.9563 0
M  V30 5820 N 585.328 1.53329 -0.364422 0
M  V30 5821 C 586.291 2.24323 0.470292 0
M  V30 5822 C 587.291 1.25068 1.01067 0
M  V30 5823 O 588.481 1.49354 0.896605 0
M  V30 5824 C 585.613 2.97908 1.65722 0
M  V30 5825 H 586.806 2.9952 -0.150917 0
M  V30 5826 H 584.359 1.55868 -0.116092 0
M  V30 5827 H 585.094 2.2695 2.31655 0
M  V30 5828 H 584.879 3.70732 1.27671 0
M  V30 5829 H 586.369 3.5188 2.24878 0
M  V30 5830 N 586.806 0.0935595 1.57322 0
M  V30 5831 C 588.052 -0.571355 1.94585 0
M  V30 5832 C 588.385 -1.67929 0.975366 0
M  V30 5833 O 587.66 -1.94498 0.00816206 0
M  V30 5834 C 587.943 -1.12797 3.41978 0
M  V30 5835 C 587.796 -0.0251881 4.49793 0
M  V30 5836 C 589.115 -2.02682 3.90651 0
M  V30 5837 H 586.234 -0.206223 0.70756 0
M  V30 5838 H 588.876 0.163956 1.89291 0
M  V30 5839 H 587.026 -1.75461 3.4662 0
M  V30 5840 H 588.698 0.608979 4.57263 0
M  V30 5841 H 586.941 0.641399 4.29032 0
M  V30 5842 H 587.612 -0.455433 5.50118 0
M  V30 5843 H 590.088 -1.49925 3.88152 0
M  V30 5844 H 588.964 -2.38555 4.94351 0
M  V30 5845 H 589.225 -2.94362 3.29854 0
M  V30 5846 N 588.284 -1.56567 -0.180126 0
M  V30 5847 C 589.7 -1.50488 -0.531559 0
M  V30 5848 C 589.9 -0.796267 -1.851 0
M  V30 5849 O 588.956 -0.352978 -2.50021 0
M  V30 5850 C 590.269 -2.95201 -0.572456 0
M  V30 5851 C 591.817 -3.05957 -0.660264 0
M  V30 5852 C 592.292 -4.5211 -0.732135 0
M  V30 5853 N 593.783 -4.56322 -0.795262 0
M  V30 5854 C 594.518 -5.66742 -0.871296 0
M  V30 5855 N 594.014 -6.86815 -0.908708 0
M  V30 5856 N 595.807 -5.54691 -0.909639 0
M  V30 5857 H 587.958 -2.01045 0.685165 0
M  V30 5858 H 590.221 -0.915536 0.245962 0
M  V30 5859 H 589.927 -3.50165 0.328208 0
M  V30 5860 H 589.801 -3.49369 -1.422 0
M  V30 5861 H 592.188 -2.51032 -1.55136 0
M  V30 5862 H 592.269 -2.54888 0.215783 0
M  V30 5863 H 591.913 -5.07664 0.154664 0
M  V30 5864 H 591.843 -5.00926 -1.6242 0
M  V30 5865 H 594.334 -3.69868 -0.77499 0
M  V30 5866 H 594.647 -7.66718 -0.967654 0
M  V30 5867 H 592.992 -6.89443 -0.877132 0
M  V30 5868 H 596.183 -4.59804 -0.877353 0
M  V30 5869 H 596.356 -6.40768 -0.965434 0
M  V30 5870 N 589.762 0.448376 -1.51087 0
M  V30 5871 C 590.725 1.52588 -1.71025 0
M  V30 5872 C 591.725 1.49958 -0.580442 0
M  V30 5873 O 592.915 1.52176 -0.847833 0
M  V30 5874 C 590.047 2.92163 -1.75652 0
M  V30 5875 H 591.24 1.36218 -2.67179 0
M  V30 5876 H 588.793 0.676313 -1.4091 0
M  V30 5877 H 589.528 3.13951 -0.812724 0
M  V30 5878 H 589.313 2.95478 -2.57751 0
M  V30 5879 H 590.803 3.70349 -1.92953 0
M  V30 5880 N 591.24 1.41047 0.703093 0
M  V30 5881 C 592.17 1.45067 1.82969 0
M  V30 5882 C 593.151 0.31016 1.67248 0
M  V30 5883 O 594.336 0.520548 1.87093 0
M  V30 5884 C 591.466 1.32478 3.2104 0
M  V30 5885 C 590.42 2.44262 3.51454 0
M  V30 5886 C 589.746 2.16742 4.88801 0
M  V30 5887 C 591.046 3.86606 3.51189 0
M  V30 5888 H 592.74 2.39353 1.79863 0
M  V30 5889 H 590.286 1.15206 0.863919 0
M  V30 5890 H 592.239 1.33904 3.99559 0
M  V30 5891 H 590.963 0.346735 3.24754 0
M  V30 5892 H 589.622 2.42107 2.75282 0
M  V30 5893 H 589.27 1.17299 4.89132 0
M  V30 5894 H 588.97 2.91643 5.10116 0
M  V30 5895 H 590.494 2.19872 5.69639 0
M  V30 5896 H 591.908 3.90517 4.19725 0
M  V30 5897 H 590.305 4.61128 3.84033 0
M  V30 5898 H 591.375 4.15296 2.50315 0
M  V30 5899 N 592.718 -0.936591 1.26751 0
M  V30 5900 C 593.966 -1.67998 1.12343 0
M  V30 5901 C 594.287 -1.92137 -0.332938 0
M  V30 5902 O 593.557 -1.52132 -1.23421 0
M  V30 5903 H 592.137 -0.622609 0.412756 0
M  V30 5904 H 594.799 -1.12509 1.59147 0
M  V30 5905 H 593.895 -2.65185 1.64571 0
M  V30 5906 N 594.196 -1.08629 -1.14182 0
M  V30 5907 C 595.128 -0.676189 -2.18998 0
M  V30 5908 C 596.141 0.277871 -1.60411 0
M  V30 5909 O 597.33 0.0651771 -1.78381 0
M  V30 5910 C 594.43 0.0254916 -3.3889 0
M  V30 5911 C 593.603 -0.948039 -4.27002 0
M  V30 5912 C 592.662 -0.281268 -5.25448 0
M  V30 5913 O 591.688 -0.926378 -5.61611 0
M  V30 5914 N 592.89 0.967923 -5.72374 0
M  V30 5915 H 595.655 -1.57792 -2.54798 0
M  V30 5916 H 593.216 -0.972665 -1.29425 0
M  V30 5917 H 595.208 0.482554 -4.01813 0
M  V30 5918 H 593.778 0.829348 -3.01398 0
M  V30 5919 H 592.998 -1.58388 -3.6098 0
M  V30 5920 H 594.286 -1.60765 -4.82734 0
M  V30 5921 H 593.684 1.51175 -5.45126 0
M  V30 5922 H 592.241 1.36844 -6.37273 0
M  V30 5923 N 595.674 1.31259 -0.872281 0
M  V30 5924 C 596.604 2.30929 -0.345554 0
M  V30 5925 C 597.585 1.60449 0.5648 0
M  V30 5926 O 598.77 1.8814 0.481335 0
M  V30 5927 C 595.9 3.44348 0.451823 0
M  V30 5928 C 594.854 4.26435 -0.365641 0
M  V30 5929 C 594.18 5.31785 0.557562 0
M  V30 5930 C 595.48 4.97159 -1.60095 0
M  V30 5931 H 597.174 2.75234 -1.17841 0
M  V30 5932 H 594.72 1.3232 -0.568094 0
M  V30 5933 H 596.673 4.13128 0.830854 0
M  V30 5934 H 595.397 2.98816 1.31821 0
M  V30 5935 H 594.056 3.59326 -0.726649 0
M  V30 5936 H 593.704 4.82502 1.4213 0
M  V30 5937 H 593.404 5.87598 0.0144878 0
M  V30 5938 H 594.928 6.03424 0.933387 0
M  V30 5939 H 596.342 5.58523 -1.29323 0
M  V30 5940 H 594.739 5.62779 -2.08327 0
M  V30 5941 H 595.809 4.24012 -2.35249 0
M  V30 5942 N 597.152 0.631951 1.44375 0
M  V30 5943 C 598.399 0.136767 2.02038 0
M  V30 5944 C 598.727 -1.24168 1.49709 0
M  V30 5945 O 597.982 -1.83809 0.671763 0
M  V30 5946 C 598.281 0.0735861 3.57324 0
M  V30 5947 C 597.947 1.39092 4.28911 0
M  V30 5948 C 596.609 1.75171 4.48184 0
M  V30 5949 C 598.961 2.26042 4.69632 0
M  V30 5950 C 596.289 2.97907 5.05439 0
M  V30 5951 C 598.641 3.4805 5.28246 0
M  V30 5952 C 597.305 3.84351 5.45738 0
M  V30 5953 H 596.575 0.0500466 0.739308 0
M  V30 5954 H 599.222 0.818429 1.7313 0
M  V30 5955 H 597.527 -0.691449 3.8565 0
M  V30 5956 H 599.224 -0.326091 3.99672 0
M  V30 5957 H 595.814 1.10015 4.1424 0
M  V30 5958 H 599.998 1.99463 4.54454 0
M  V30 5959 H 595.254 3.26108 5.17169 0
M  V30 5960 H 599.428 4.15658 5.5875 0
M  V30 5961 H 597.055 4.79538 5.8987 0
M  V30 5962 N 598.631 -1.53133 0.372548 0
M  V30 5963 C 599.581 -2.22733 -0.487218 0
M  V30 5964 C 600.565 -1.22506 -1.04312 0
M  V30 5965 O 601.757 -1.47923 -0.972005 0
M  V30 5966 C 598.886 -3.02524 -1.62278 0
M  V30 5967 C 597.972 -4.10133 -1.07943 0
M  V30 5968 N 598.363 -5.05133 -0.259629 0
M  V30 5969 C 596.661 -4.24964 -1.35356 0
M  V30 5970 C 597.362 -5.81687 0.0386656 0
M  V30 5971 N 596.338 -5.40699 -0.560827 0
M  V30 5972 H 600.14 -2.93538 0.145853 0
M  V30 5973 H 597.654 -1.61389 0.180938 0
M  V30 5974 H 599.651 -3.50909 -2.25096 0
M  V30 5975 H 598.311 -2.33252 -2.25884 0
M  V30 5976 H 599.322 -5.178 0.101746 0
M  V30 5977 H 595.999 -3.66919 -1.9919 0
M  V30 5978 H 597.389 -6.68224 0.701841 0
M  V30 5979 N 600.109 -0.101901 -1.5727 0
M  V30 5980 C 601.358 0.559922 -1.93772 0
M  V30 5981 C 601.671 1.68913 -0.98629 0
M  V30 5982 O 602.877 2.41256 -1.24529 0
M  V30 5983 C 601.333 1.04739 -3.44322 0
M  V30 5984 C 600.941 -0.05243 -4.47969 0
M  V30 5985 C 602.685 1.68157 -3.89774 0
M  V30 5986 C 600.592 0.450781 -5.8968 0
M  V30 5987 H 599.522 0.212931 -0.723309 0
M  V30 5988 H 602.173 -0.179001 -1.82625 0
M  V30 5989 H 600.555 1.84021 -3.50645 0
M  V30 5990 H 601.729 -0.828157 -4.53297 0
M  V30 5991 H 600.044 -0.592202 -4.12167 0
M  V30 5992 H 602.641 2.0689 -4.93052 0
M  V30 5993 H 602.984 2.55338 -3.28798 0
M  V30 5994 H 603.517 0.954453 -3.8618 0
M  V30 5995 H 600.256 -0.38458 -6.54371 0
M  V30 5996 H 599.776 1.19336 -5.87809 0
M  V30 5997 H 601.455 0.917555 -6.40461 0
M  V30 5998 N 601.587 1.56661 0.17182 0
M  V30 5999 C 602.55 1.9549 1.19651 0
M  V30 6000 C 603.55 0.838501 1.37207 0
M  V30 6001 O 604.74 1.10556 1.34622 0
M  V30 6002 C 601.872 2.24927 2.56166 0
M  V30 6003 H 603.065 2.87184 0.864007 0
M  V30 6004 H 600.618 1.50711 0.41425 0
M  V30 6005 H 601.353 1.35944 2.94431 0
M  V30 6006 H 601.138 3.06301 2.4479 0
M  V30 6007 H 602.628 2.55891 3.30014 0
M  V30 6008 N 603.065 -0.440357 1.51323 0
M  V30 6009 C 604.305 -1.19956 1.65499 0
M  V30 6010 C 604.669 -1.88559 0.361878 0
M  V30 6011 O 605.87 -2.66109 0.379383 0
M  V30 6012 C 604.141 -2.1918 2.82303 0
M  V30 6013 S 605.7 -3.03627 3.1679 0
M  V30 6014 H 602.518 -0.406833 0.583102 0
M  V30 6015 H 605.12 -0.491596 1.89218 0
M  V30 6016 H 603.824 -1.67414 3.74701 0
M  V30 6017 H 603.355 -2.94561 2.60763 0
M  V30 6018 H 605.37 -4.20773 2.62991 0
M  V30 6019 N 604.543 -1.41418 -0.695603 0
M  V30 6020 C 605.79 -1.40774 -1.45564 0
M  V30 6021 C 606.118 -0.0168604 -1.94493 0
M  V30 6022 O 605.373 0.971259 -1.69897 0
M  V30 6023 C 605.672 -2.36112 -2.68302 0
M  V30 6024 C 605.338 -3.82952 -2.38031 0
M  V30 6025 C 604 -4.22954 -2.29486 0
M  V30 6026 C 606.352 -4.75662 -2.13061 0
M  V30 6027 C 603.68 -5.53674 -1.94067 0
M  V30 6028 C 606.032 -6.06702 -1.79151 0
M  V30 6029 C 604.696 -6.45725 -1.69102 0
M  V30 6030 H 603.966 -0.515128 -0.532658 0
M  V30 6031 H 606.613 -1.74216 -0.795047 0
M  V30 6032 H 604.918 -1.95924 -3.39295 0
M  V30 6033 H 606.615 -2.32887 -3.26442 0
M  V30 6034 H 603.205 -3.5127 -2.45576 0
M  V30 6035 H 607.389 -4.45561 -2.18608 0
M  V30 6036 H 602.645 -5.8279 -1.8484 0
M  V30 6037 H 606.819 -6.78041 -1.5885 0
M  V30 6038 H 604.446 -7.46929 -1.41426 0
M  V30 6039 N 606.021 0.929856 -1.27246 0
M  V30 6040 C 607.249 1.71144 -1.16265 0
M  V30 6041 C 607.664 1.867 0.280786 0
M  V30 6042 O 607.021 1.38249 1.19136 0
M  V30 6043 C 607.072 3.11222 -1.83911 0
M  V30 6044 O 606.793 2.96398 -3.22614 0
M  V30 6045 C 608.294 4.05541 -1.79028 0
M  V30 6046 H 605.514 0.535499 -0.404328 0
M  V30 6047 H 608.058 1.16492 -1.68077 0
M  V30 6048 H 606.213 3.6274 -1.36009 0
M  V30 6049 H 606.627 3.8494 -3.56261 0
M  V30 6050 H 608.101 5.01351 -2.30978 0
M  V30 6051 H 608.578 4.32589 -0.759168 0
M  V30 6052 H 609.184 3.59947 -2.26535 0
M  V30 6053 N 607.499 1.09233 1.13605 0
M  V30 6054 C 608.739 0.836786 1.86487 0
M  V30 6055 C 609.103 -0.626191 1.81502 0
M  V30 6056 O 610.304 -0.99758 2.49603 0
M  V30 6057 C 608.575 1.35476 3.30728 0
M  V30 6058 S 610.134 1.2328 4.21126 0
M  V30 6059 H 606.952 0.302702 0.643345 0
M  V30 6060 H 609.554 1.3953 1.36936 0
M  V30 6061 H 608.258 2.41381 3.31909 0
M  V30 6062 H 607.789 0.792286 3.85339 0
M  V30 6063 H 609.804 0.182468 4.95864 0
M  V30 6064 N 608.977 -1.30795 0.87923 0
M  V30 6065 C 609.927 -2.25838 0.313276 0
M  V30 6066 C 610.911 -1.51025 -0.55499 0
M  V30 6067 O 612.103 -1.72413 -0.400353 0
M  V30 6068 C 609.232 -3.39981 -0.476204 0
M  V30 6069 C 608.318 -4.22154 0.405826 0
M  V30 6070 N 608.709 -4.82934 1.50362 0
M  V30 6071 C 607.007 -4.45552 0.199909 0
M  V30 6072 C 607.708 -5.44444 2.0483 0
M  V30 6073 N 606.684 -5.26723 1.34403 0
M  V30 6074 H 610.486 -2.70374 1.15218 0
M  V30 6075 H 608 -1.45168 0.728003 0
M  V30 6076 H 609.997 -4.07108 -0.898251 0
M  V30 6077 H 608.657 -2.96986 -1.31261 0
M  V30 6078 H 609.668 -4.82319 1.8865 0
M  V30 6079 H 606.345 -4.13169 -0.599795 0
M  V30 6080 H 607.735 -6.02701 2.96986 0
M  V30 6081 N 610.455 -0.639598 -1.44038 0
M  V30 6082 C 611.387 0.0987684 -2.28987 0
M  V30 6083 C 612.4 0.80058 -1.41755 0
M  V30 6084 O 613.589 0.660611 -1.65826 0
M  V30 6085 C 610.689 1.16242 -3.18341 0
M  V30 6086 C 609.862 0.541447 -4.34036 0
M  V30 6087 C 608.921 1.50017 -5.04362 0
M  V30 6088 O 607.947 1.01403 -5.60095 0
M  V30 6089 N 609.149 2.83441 -5.06598 0
M  V30 6090 H 611.914 -0.630305 -2.92997 0
M  V30 6091 H 609.475 -0.481376 -1.54578 0
M  V30 6092 H 611.467 1.80429 -3.62253 0
M  V30 6093 H 610.037 1.79362 -2.56024 0
M  V30 6094 H 609.257 -0.27923 -3.9321 0
M  V30 6095 H 610.545 0.107379 -5.08687 0
M  V30 6096 H 609.943 3.2551 -4.62666 0
M  V30 6097 H 608.5 3.42966 -5.54272 0
M  V30 6098 N 611.933 1.52934 -0.380664 0
M  V30 6099 C 613.173 2.03378 0.204161 0
M  V30 6100 C 613.537 1.26132 1.44758 0
M  V30 6101 O 614.738 1.66657 2.109 0
M  V30 6102 C 613.009 3.54241 0.474118 0
M  V30 6103 S 614.568 4.26529 1.03046 0
M  V30 6104 H 611.386 0.708608 0.0582719 0
M  V30 6105 H 613.988 1.88263 -0.527017 0
M  V30 6106 H 612.692 4.08055 -0.438088 0
M  V30 6107 H 612.223 3.73547 1.23396 0
M  V30 6108 H 614.238 4.38964 2.31354 0
M  V30 6109 N 613.412 0.11024 1.57214 0
M  V30 6110 C 614.375 -0.828808 2.1369 0
M  V30 6111 C 615.375 -1.20059 1.06969 0
M  V30 6112 O 616.565 -1.12754 1.32786 0
M  V30 6113 C 613.697 -2.11959 2.66994 0
M  V30 6114 H 614.89 -0.338146 2.97988 0
M  V30 6115 H 612.443 -0.138913 1.55681 0
M  V30 6116 H 613.178 -2.65476 1.8626 0
M  V30 6117 H 612.963 -1.86258 3.45037 0
M  V30 6118 H 614.453 -2.79105 3.10629 0
M  V30 6119 N 614.89 -1.56749 -0.16351 0
M  V30 6120 C 615.822 -1.93587 -1.22705 0
M  V30 6121 C 616.835 -0.829824 -1.40063 0
M  V30 6122 O 618.024 -1.10826 -1.39928 0
M  V30 6123 C 615.124 -2.1803 -2.59454 0
M  V30 6124 C 614.297 -3.4928 -2.63292 0
M  V30 6125 C 613.356 -3.62457 -3.8146 0
M  V30 6126 O 612.382 -4.35004 -3.67096 0
M  V30 6127 N 613.584 -2.97888 -4.9824 0
M  V30 6128 H 616.349 -2.8542 -0.914081 0
M  V30 6129 H 613.91 -1.58 -0.353214 0
M  V30 6130 H 615.902 -2.24102 -3.36987 0
M  V30 6131 H 614.472 -1.32543 -2.8311 0
M  V30 6132 H 613.692 -3.54795 -1.71796 0
M  V30 6133 H 614.98 -4.35632 -2.62873 0
M  V30 6134 H 614.378 -2.38833 -5.12811 0
M  V30 6135 H 612.935 -3.09545 -5.73607 0
M  V30 6136 N 616.368 0.432326 -1.51554 0
M  V30 6137 C 617.3 1.54357 -1.6943 0
M  V30 6138 C 618.313 1.52311 -0.574897 0
M  V30 6139 O 619.502 1.56997 -0.849369 0
M  V30 6140 C 616.602 2.93273 -1.69836 0
M  V30 6141 C 615.775 3.19768 -2.98442 0
M  V30 6142 C 614.834 4.38433 -2.90969 0
M  V30 6143 O 613.86 4.36842 -3.64908 0
M  V30 6144 N 615.062 5.42276 -2.07163 0
M  V30 6145 H 617.827 1.39426 -2.65293 0
M  V30 6146 H 615.388 0.621331 -1.49503 0
M  V30 6147 H 617.38 3.70687 -1.62399 0
M  V30 6148 H 615.95 3.01777 -0.815456 0
M  V30 6149 H 615.17 2.30607 -3.19709 0
M  V30 6150 H 616.458 3.343 -3.83563 0
M  V30 6151 H 615.856 5.46407 -1.46477 0
M  V30 6152 H 614.413 6.18524 -2.05601 0
M  V30 6153 N 617.846 1.41785 0.688094 0
M  V30 6154 C 618.776 1.47 1.8142 0
M  V30 6155 C 619.757 0.327881 1.6691 0
M  V30 6156 O 620.942 0.540362 1.86531 0
M  V30 6157 C 618.072 1.35876 3.19617 0
M  V30 6158 C 617.026 2.47976 3.48844 0
M  V30 6159 C 616.352 2.21915 4.86475 0
M  V30 6160 C 617.652 3.90309 3.47068 0
M  V30 6161 H 619.346 2.41247 1.77314 0
M  V30 6162 H 616.892 1.16116 0.851651 0
M  V30 6163 H 618.845 1.38134 3.98117 0
M  V30 6164 H 617.569 0.38116 3.24368 0
M  V30 6165 H 616.228 2.45013 2.72698 0
M  V30 6166 H 615.876 1.2248 4.8786 0
M  V30 6167 H 615.576 2.97037 5.06994 0
M  V30 6168 H 617.1 2.25901 5.67275 0
M  V30 6169 H 618.514 3.94947 4.1556 0
M  V30 6170 H 616.911 4.65175 3.7912 0
M  V30 6171 H 617.981 4.17927 2.45896 0
M  V30 6172 N 619.324 -0.923095 1.27737 0
M  V30 6173 C 620.256 -2.02871 1.06658 0
M  V30 6174 C 621.269 -1.62786 0.0212095 0
M  V30 6175 O 622.458 -1.76548 0.263267 0
M  V30 6176 C 619.558 -3.33603 0.59682 0
M  V30 6177 C 618.731 -4.02354 1.71551 0
M  V30 6178 C 617.79 -5.11364 1.24071 0
M  V30 6179 O 616.816 -5.35075 1.94123 0
M  V30 6180 N 618.018 -5.80416 0.0988444 0
M  V30 6181 H 620.783 -2.21515 2.01869 0
M  V30 6182 H 618.344 -1.09378 1.19365 0
M  V30 6183 H 620.336 -4.03845 0.262984 0
M  V30 6184 H 618.906 -3.11499 -0.262187 0
M  V30 6185 H 618.126 -3.25786 2.2194 0
M  V30 6186 H 619.414 -4.45035 2.46619 0
M  V30 6187 H 618.812 -5.63611 -0.485743 0
M  V30 6188 H 617.369 -6.51563 -0.17578 0
M  V30 6189 N 620.802 -1.09834 -1.13024 0
M  V30 6190 C 622.05 -0.835297 -1.8403 0
M  V30 6191 C 622.371 0.640944 -1.84165 0
M  V30 6192 O 621.641 1.46517 -1.30037 0
M  V30 6193 H 620.221 -0.306018 -0.681441 0
M  V30 6194 H 622.883 -1.38734 -1.36891 0
M  V30 6195 H 621.979 -1.19258 -2.88416 0
M  V30 6196 N 622.28 1.30327 -0.886154 0
M  V30 6197 C 623.212 2.27079 -0.311072 0
M  V30 6198 C 624.225 1.53758 0.53502 0
M  V30 6199 O 625.414 1.74947 0.354378 0
M  V30 6200 C 622.514 3.33965 0.576228 0
M  V30 6201 C 621.687 4.36735 -0.241064 0
M  V30 6202 C 620.746 5.23028 0.576916 0
M  V30 6203 O 619.772 5.692 -0.000802231 0
M  V30 6204 N 620.974 5.49016 1.88579 0
M  V30 6205 H 623.739 2.77065 -1.14259 0
M  V30 6206 H 621.3 1.43519 -0.749258 0
M  V30 6207 H 623.292 3.88618 1.12953 0
M  V30 6208 H 621.862 2.839 1.30842 0
M  V30 6209 H 621.082 3.81932 -0.975805 0
M  V30 6210 H 622.37 5.02451 -0.801272 0
M  V30 6211 H 621.768 5.13288 2.37806 0
M  V30 6212 H 620.325 6.06539 2.38651 0
M  V30 6213 N 623.758 0.647228 1.43697 0
M  V30 6214 C 624.69 -0.0866232 2.29036 0
M  V30 6215 C 625.703 -0.793051 1.42178 0
M  V30 6216 O 626.892 -0.651807 1.66174 0
M  V30 6217 C 623.992 -1.14552 3.18953 0
M  V30 6218 C 623.165 -0.518422 4.34317 0
M  V30 6219 C 622.224 -1.4734 5.05151 0
M  V30 6220 O 621.25 -0.984312 5.60625 0
M  V30 6221 N 622.452 -2.8075 5.08094 0
M  V30 6222 H 625.217 0.645834 2.92659 0
M  V30 6223 H 622.778 0.489567 1.54321 0
M  V30 6224 H 624.77 -1.78505 3.63205 0
M  V30 6225 H 623.34 -1.78001 2.56971 0
M  V30 6226 H 622.56 0.300079 3.93056 0
M  V30 6227 H 623.848 -0.080401 5.08736 0
M  V30 6228 H 623.246 -3.23052 4.64386 0
M  V30 6229 H 621.803 -3.40022 5.56083 0
M  V30 6230 N 625.236 -1.5273 0.388769 0
M  V30 6231 C 626.483 -2.01573 -0.19359 0
M  V30 6232 C 626.811 -1.27525 -1.46859 0
M  V30 6233 O 626.066 -0.363926 -1.92286 0
M  V30 6234 C 626.365 -3.53765 -0.508445 0
M  V30 6235 C 626.031 -4.4582 0.674947 0
M  V30 6236 C 624.693 -4.70703 0.999596 0
M  V30 6237 C 627.045 -5.00138 1.46666 0
M  V30 6238 C 624.373 -5.47155 2.11751 0
M  V30 6239 C 626.725 -5.77812 2.57518 0
M  V30 6240 C 625.389 -6.00975 2.90492 0
M  V30 6241 H 624.659 -0.737606 -0.0708397 0
M  V30 6242 H 627.306 -1.84134 0.526006 0
M  V30 6243 H 625.611 -3.69274 -1.30936 0
M  V30 6244 H 627.308 -3.8905 -0.971664 0
M  V30 6245 H 623.898 -4.26616 0.411906 0
M  V30 6246 H 628.082 -4.8084 1.22909 0
M  V30 6247 H 623.338 -5.63314 2.3767 0
M  V30 6248 H 627.512 -6.18904 3.19267 0
M  V30 6249 H 625.139 -6.59998 3.77236 0
M  V30 6250 N 626.714 -0.118576 -1.57153 0
M  V30 6251 C 627.944 0.546466 -1.99242 0
M  V30 6252 C 628.352 1.60791 -0.997148 0
M  V30 6253 O 627.695 1.83691 0.0181745 0
M  V30 6254 C 627.757 1.23167 -3.37743 0
M  V30 6255 C 627.421 0.318226 -4.55891 0
M  V30 6256 C 628.418 -0.442988 -5.18009 0
M  V30 6257 C 626.103 0.229421 -5.01776 0
M  V30 6258 C 628.097 -1.28074 -6.244 0
M  V30 6259 C 625.784 -0.611966 -6.08028 0
M  V30 6260 C 626.782 -1.36568 -6.69207 0
M  V30 6261 O 626.47 -2.1931 -7.73407 0
M  V30 6262 H 626.202 0.149297 -0.659307 0
M  V30 6263 H 628.756 -0.201603 -2.04408 0
M  V30 6264 H 626.986 2.0268 -3.29329 0
M  V30 6265 H 628.675 1.79358 -3.64123 0
M  V30 6266 H 629.441 -0.38425 -4.83475 0
M  V30 6267 H 625.32 0.805771 -4.53903 0
M  V30 6268 H 628.864 -1.86952 -6.72082 0
M  V30 6269 H 624.761 -0.6721 -6.41991 0
M  V30 6270 H 625.529 -2.12247 -7.90502 0
M  V30 6271 N 628.193 1.56834 0.155195 0
M  V30 6272 C 629.418 1.87412 0.888337 0
M  V30 6273 C 629.843 0.70671 1.74319 0
M  V30 6274 O 629.201 -0.343892 1.78009 0
M  V30 6275 C 629.249 3.1652 1.72765 0
M  V30 6276 O 628.353 2.99877 2.83103 0
M  V30 6277 H 627.694 0.615983 0.247914 0
M  V30 6278 H 630.224 2.04061 0.148478 0
M  V30 6279 H 630.234 3.48334 2.12433 0
M  V30 6280 H 628.909 4.01094 1.09985 0
M  V30 6281 H 627.486 2.79453 2.46902 0
M  V30 6282 N 629.671 -0.424282 1.51781 0
M  V30 6283 C 630.601 -1.52305 1.7699 0
M  V30 6284 C 631.582 -1.5839 0.620209 0
M  V30 6285 O 632.767 -1.73908 0.864268 0
M  V30 6286 C 629.897 -2.90271 1.90683 0
M  V30 6287 C 628.851 -2.99043 3.06198 0
M  V30 6288 C 628.177 -4.39116 3.05092 0
M  V30 6289 C 629.477 -2.7192 4.45934 0
M  V30 6290 H 631.171 -1.31461 2.68995 0
M  V30 6291 H 628.717 -0.630985 1.29439 0
M  V30 6292 H 630.67 -3.6711 2.06901 0
M  V30 6293 H 629.394 -3.12376 0.953365 0
M  V30 6294 H 628.053 -2.24646 2.89706 0
M  V30 6295 H 627.701 -4.58207 2.07498 0
M  V30 6296 H 627.401 -4.45912 3.82669 0
M  V30 6297 H 628.925 -5.17911 3.2342 0
M  V30 6298 H 630.339 -3.38487 4.62709 0
M  V30 6299 H 628.736 -2.90111 5.25315 0
M  V30 6300 H 629.806 -1.67445 4.55072 0
M  V30 6301 N 631.149 -1.42148 -0.680565 0
M  V30 6302 C 632.059 -1.47565 -1.82378 0
M  V30 6303 C 633.075 -0.36489 -1.70131 0
M  V30 6304 O 634.251 -0.614916 -1.91783 0
M  V30 6305 C 631.316 -1.37013 -3.18478 0
M  V30 6306 C 630.377 -2.58532 -3.42724 0
M  V30 6307 C 629.61 -2.48473 -4.72331 0
M  V30 6308 O 629.833 -1.51745 -5.49845 0
M  V30 6309 O 628.767 -3.38503 -4.97694 0
M  V30 6310 H 632.593 -2.44045 -1.80764 0
M  V30 6311 H 630.178 -1.23849 -0.835569 0
M  V30 6312 H 632.06 -1.33468 -3.99705 0
M  V30 6313 H 630.735 -0.436552 -3.20743 0
M  V30 6314 H 629.642 -2.67652 -2.61368 0
M  V30 6315 H 630.975 -3.50769 -3.45286 0
M  V30 6316 N 632.627 0.916307 -1.28225 0
M  V30 6317 C 633.875 1.6619 -1.15002 0
M  V30 6318 C 634.196 1.92642 0.302329 0
M  V30 6319 O 633.466 1.54076 1.20985 0
M  V30 6320 H 632.046 0.615964 -0.422608 0
M  V30 6321 H 634.708 1.09963 -1.60917 0
M  V30 6322 H 633.804 2.62533 -1.68769 0
M  V30 6323 N 634.105 1.10431 1.1244 0
M  V30 6324 C 635.068 0.756542 2.16354 0
M  V30 6325 C 636.068 -0.21899 1.59302 0
M  V30 6326 O 637.258 0.00415969 1.742 0
M  V30 6327 C 634.39 0.120612 3.40687 0
M  V30 6328 H 635.583 1.67696 2.48632 0
M  V30 6329 H 633.136 0.904832 1.27446 0
M  V30 6330 H 633.871 -0.810536 3.14008 0
M  V30 6331 H 633.656 0.822693 3.83372 0
M  V30 6332 H 635.146 -0.106945 4.17463 0
M  V30 6333 N 635.583 -1.29855 0.893053 0
M  V30 6334 C 636.994 -1.77946 0.564998 0
M  V30 6335 C 637.345 -1.73339 -0.919134 0
M  V30 6336 O 636.47 -1.3152 -1.71847 0
M  V30 6337 C 637.065 -3.23118 1.01883 0
M  V30 6338 C 635.624 -3.69013 0.742051 0
M  V30 6339 C 634.771 -2.50121 1.19727 0
M  V30 6340 H 637.722 -1.16611 1.07646 0
M  V30 6341 H 637.743 -3.78875 0.351249 0
M  V30 6342 H 637.255 -3.26439 2.09903 0
M  V30 6343 H 635.356 -3.71173 -0.325816 0
M  V30 6344 H 635.469 -4.60117 1.33527 0
M  V30 6345 H 633.833 -2.47128 0.616418 0
M  V30 6346 H 634.616 -2.56174 2.28538 0
M  V30 6347 N 637.061 -0.65484 -1.43351 0
M  V30 6348 C 638.291 -0.176429 -2.05845 0
M  V30 6349 C 638.699 1.16375 -1.49176 0
M  V30 6350 O 638.042 1.72981 -0.618322 0
M  V30 6351 C 638.104 -0.0125844 -3.59498 0
M  V30 6352 C 637.768 -1.27831 -4.38758 0
M  V30 6353 C 638.765 -2.2074 -4.70712 0
M  V30 6354 C 636.45 -1.52035 -4.78739 0
M  V30 6355 C 638.444 -3.36145 -5.41558 0
M  V30 6356 C 636.131 -2.67732 -5.49329 0
M  V30 6357 C 637.129 -3.59612 -5.80662 0
M  V30 6358 O 636.817 -4.73289 -6.4981 0
M  V30 6359 H 636.549 -0.0879682 -0.670252 0
M  V30 6360 H 639.103 -0.896193 -1.84818 0
M  V30 6361 H 637.333 0.762567 -3.79107 0
M  V30 6362 H 639.022 0.423392 -4.03686 0
M  V30 6363 H 639.788 -2.03284 -4.40341 0
M  V30 6364 H 635.667 -0.813987 -4.53757 0
M  V30 6365 H 639.211 -4.07881 -5.65932 0
M  V30 6366 H 635.108 -2.85122 -5.79116 0
M  V30 6367 H 635.876 -4.72575 -6.68293 0
M  V30 6368 N 638.539 1.52521 -0.396863 0
M  V30 6369 C 639.779 2.03583 0.182578 0
M  V30 6370 C 640.143 1.2766 1.43412 0
M  V30 6371 O 641.344 1.68884 2.09121 0
M  V30 6372 C 639.615 3.54724 0.436519 0
M  V30 6373 S 641.174 4.27598 0.985163 0
M  V30 6374 H 637.992 0.709186 0.0507529 0
M  V30 6375 H 640.594 1.87693 -0.546955 0
M  V30 6376 H 639.298 4.07567 -0.481343 0
M  V30 6377 H 638.829 3.74834 1.19427 0
M  V30 6378 H 640.844 4.41393 2.26686 0
M  V30 6379 N 640.017 0.126909 1.57088 0
M  V30 6380 C 640.927 -0.833867 2.1928 0
M  V30 6381 C 641.943 -1.2868 1.17122 0
M  V30 6382 O 643.119 -1.34815 1.49622 0
M  V30 6383 C 640.184 -2.0632 2.78627 0
M  V30 6384 C 639.245 -1.66143 3.95847 0
M  V30 6385 C 638.478 -2.83217 4.52354 0
M  V30 6386 O 638.701 -3.98868 4.0775 0
M  V30 6387 O 637.635 -2.59846 5.42922 0
M  V30 6388 H 641.461 -0.334564 3.01852 0
M  V30 6389 H 639.046 -0.0991091 1.49071 0
M  V30 6390 H 640.928 -2.78304 3.16425 0
M  V30 6391 H 639.603 -2.55242 1.99082 0
M  V30 6392 H 638.51 -0.912435 3.62802 0
M  V30 6393 H 639.843 -1.21957 4.76852 0
M  V30 6394 N 641.495 -1.56914 -0.146875 0
M  V30 6395 C 642.743 -1.82994 -0.85777 0
M  V30 6396 C 643.064 -0.707814 -1.817 0
M  V30 6397 O 642.334 0.270521 -1.94023 0
M  V30 6398 H 640.914 -0.675106 -0.319751 0
M  V30 6399 H 643.576 -1.9439 -0.140849 0
M  V30 6400 H 642.672 -2.77928 -1.41994 0
M  V30 6401 N 642.974 0.416227 -1.52004 0
M  V30 6402 C 644.214 1.17307 -1.67387 0
M  V30 6403 C 644.578 1.87959 -0.39183 0
M  V30 6404 O 645.779 2.65472 -0.421671 0
M  V30 6405 C 644.05 2.14661 -2.85754 0
M  V30 6406 S 645.609 2.98549 -3.21581 0
M  V30 6407 H 642.427 0.397505 -0.5895 0
M  V30 6408 H 645.029 0.461431 -1.89976 0
M  V30 6409 H 643.733 1.61431 -3.77317 0
M  V30 6410 H 643.264 2.90375 -2.65417 0
M  V30 6411 H 645.279 4.16536 -2.69652 0
M  V30 6412 N 644.452 1.42507 0.673017 0
M  V30 6413 C 645.682 1.46261 1.45916 0
M  V30 6414 C 646.09 0.0729724 1.89059 0
M  V30 6415 O 645.433 -0.922987 1.58829 0
M  V30 6416 C 645.495 2.32853 2.73898 0
M  V30 6417 C 645.159 3.80699 2.52819 0
M  V30 6418 C 646.156 4.72307 2.17306 0
M  V30 6419 C 643.841 4.24983 2.67758 0
M  V30 6420 C 645.835 6.06192 1.97003 0
M  V30 6421 C 643.522 5.58927 2.4707 0
M  V30 6422 C 644.52 6.49348 2.11746 0
M  V30 6423 O 644.208 7.80817 1.91259 0
M  V30 6424 H 643.94 0.499561 0.455428 0
M  V30 6425 H 646.494 1.87697 0.834196 0
M  V30 6426 H 644.724 1.86268 3.38882 0
M  V30 6427 H 646.413 2.28041 3.35786 0
M  V30 6428 H 647.179 4.39378 2.05359 0
M  V30 6429 H 643.058 3.54893 2.94231 0
M  V30 6430 H 646.602 6.76731 1.69355 0
M  V30 6431 H 642.499 5.91429 2.58615 0
M  V30 6432 H 643.267 7.92194 2.05843 0
M  V30 6433 N 645.93 -0.909495 1.28709 0
M  V30 6434 C 647.158 -1.69272 1.18973 0
M  V30 6435 C 647.573 -1.87123 -0.251048 0
M  V30 6436 O 646.93 -1.40127 -1.16922 0
M  V30 6437 C 646.981 -3.08257 1.88839 0
M  V30 6438 O 646.702 -2.91228 3.27289 0
M  V30 6439 C 648.203 -4.02642 1.85457 0
M  V30 6440 H 645.423 -0.528999 0.412797 0
M  V30 6441 H 647.967 -1.13803 1.69909 0
M  V30 6442 H 646.122 -3.6053 1.41762 0
M  V30 6443 H 646.536 -3.79223 3.6234 0
M  V30 6444 H 648.01 -4.97613 2.38925 0
M  V30 6445 H 648.487 -4.31327 0.827893 0
M  V30 6446 H 649.093 -3.56298 2.32233 0
M  V30 6447 N 647.408 -1.11026 -1.11852 0
M  V30 6448 C 648.685 -0.768347 -1.79877 0
M  V30 6449 C 649.065 0.744261 -1.97545 0
M  V30 6450 O 648.413 1.67271 -1.55669 0
M  V30 6451 C 648.623 -1.52648 -3.13846 0
M  V30 6452 C 649.971 -1.70297 -3.88953 0
M  V30 6453 O 650.995 -1.49037 -3.23522 0
M  V30 6454 O 649.854 -2.05593 -5.06353 0
M  V30 6455 H 646.948 -0.277891 -0.778913 0
M  V30 6456 H 649.494 -1.21343 -1.18633 0
M  V30 6457 H 648.266 -2.55564 -2.96315 0
M  V30 6458 H 647.889 -1.07466 -3.82801 0
M  V30 6459 N 648.886 1.2938 -0.899927 0
M  V30 6460 C 650.114 1.99691 -0.541386 0
M  V30 6461 C 650.529 1.67355 0.873936 0
M  V30 6462 O 649.886 0.918728 1.57688 0
M  V30 6463 C 649.937 3.54168 -0.72438 0
M  V30 6464 O 649.658 3.85359 -2.08399 0
M  V30 6465 C 651.159 4.41746 -0.370819 0
M  V30 6466 H 648.379 0.638037 -0.207726 0
M  V30 6467 H 650.923 1.6491 -1.20934 0
M  V30 6468 H 649.078 3.87261 -0.103607 0
M  V30 6469 H 649.492 4.80032 -2.11352 0
M  V30 6470 H 650.966 5.49256 -0.549693 0
M  V30 6471 H 651.443 4.33712 0.692148 0
M  V30 6472 H 652.049 4.14125 -0.968543 0
M  V30 6473 N 650.364 0.662433 1.43002 0
M  V30 6474 C 651.294 -0.00979809 2.33498 0
M  V30 6475 C 652.275 -0.802329 1.49989 0
M  V30 6476 O 653.46 -0.761964 1.78627 0
M  V30 6477 C 650.59 -0.970446 3.33466 0
M  V30 6478 C 649.544 -0.287383 4.27034 0
M  V30 6479 C 648.87 -1.36012 5.17112 0
M  V30 6480 C 650.17 0.82595 5.15728 0
M  V30 6481 H 651.864 0.745959 2.89958 0
M  V30 6482 H 649.41 0.360172 1.39423 0
M  V30 6483 H 651.363 -1.44971 3.95679 0
M  V30 6484 H 650.087 -1.75748 2.75282 0
M  V30 6485 H 648.746 0.17152 3.66199 0
M  V30 6486 H 648.394 -2.13882 4.55262 0
M  V30 6487 H 648.094 -0.908276 5.80538 0
M  V30 6488 H 649.618 -1.84056 5.82199 0
M  V30 6489 H 651.032 0.42845 5.71697 0
M  V30 6490 H 649.429 1.20282 5.87922 0
M  V30 6491 H 650.499 1.68003 4.54866 0
M  V30 6492 N 651.842 -1.52309 0.404946 0
M  V30 6493 C 652.752 -2.30634 -0.429555 0
M  V30 6494 C 653.768 -1.38187 -1.05737 0
M  V30 6495 O 654.944 -1.71261 -1.05979 0
M  V30 6496 C 652.009 -3.10947 -1.53339 0
M  V30 6497 C 651.07 -4.19126 -0.929065 0
M  V30 6498 C 650.303 -4.95601 -1.9803 0
M  V30 6499 O 650.526 -4.72331 -3.1978 0
M  V30 6500 O 649.46 -5.80551 -1.58886 0
M  V30 6501 H 653.286 -3.0298 0.208963 0
M  V30 6502 H 650.871 -1.4845 0.168255 0
M  V30 6503 H 652.753 -3.60974 -2.1743 0
M  V30 6504 H 651.428 -2.41399 -2.15658 0
M  V30 6505 H 650.335 -3.73257 -0.250982 0
M  V30 6506 H 651.668 -4.90955 -0.349855 0
M  V30 6507 N 653.32 -0.135238 -1.57019 0
M  V30 6508 C 654.267 0.808908 -2.1616 0
M  V30 6509 C 655.237 1.25234 -1.09113 0
M  V30 6510 O 656.422 1.32697 -1.37099 0
M  V30 6511 C 653.562 2.04729 -2.77813 0
M  V30 6512 C 652.675 1.65074 -3.99218 0
M  V30 6513 C 651.81 2.84002 -4.48906 0
M  V30 6514 C 650.849 2.40663 -5.62803 0
M  V30 6515 N 649.986 3.5256 -6.07162 0
M  V30 6516 H 654.826 0.297751 -2.96509 0
M  V30 6517 H 652.363 0.135264 -1.46477 0
M  V30 6518 H 654.321 2.7731 -3.11697 0
M  V30 6519 H 652.951 2.53275 -2.00128 0
M  V30 6520 H 652.003 0.823029 -3.7139 0
M  V30 6521 H 653.315 1.29236 -4.81767 0
M  V30 6522 H 652.469 3.64788 -4.84783 0
M  V30 6523 H 651.208 3.23076 -3.65339 0
M  V30 6524 H 650.213 1.58314 -5.26514 0
M  V30 6525 H 651.438 2.02687 -6.48147 0
M  V30 6526 H 649.384 3.91278 -5.26534 0
M  V30 6527 H 649.301 3.20699 -6.84608 0
M  V30 6528 H 650.569 4.33738 -6.47682 0
M  V30 6529 N 654.798 1.5699 0.138552 0
M  V30 6530 C 656.038 1.85619 0.855849 0
M  V30 6531 C 656.402 0.720663 1.77962 0
M  V30 6532 O 657.603 0.888221 2.53701 0
M  V30 6533 C 655.874 3.19447 1.60275 0
M  V30 6534 S 657.433 3.69656 2.36431 0
M  V30 6535 H 654.251 0.650926 0.286035 0
M  V30 6536 H 656.853 1.9516 0.115331 0
M  V30 6537 H 655.557 4.00053 0.915737 0
M  V30 6538 H 655.088 3.12935 2.38402 0
M  V30 6539 H 657.103 3.39595 3.61787 0
M  V30 6540 N 656.276 -0.40816 1.52223 0
M  V30 6541 C 657.224 -1.51788 1.76248 0
M  V30 6542 C 658.218 -1.57264 0.629638 0
M  V30 6543 O 659.424 -1.60659 0.811704 0
M  V30 6544 H 655.799 -0.504823 0.557367 0
M  V30 6545 H 657.77 -1.2871 2.69214 0
M  V30 6546 C 656.519 -2.89145 1.93107 0
M  V30 6547 H 655.842 -2.85674 2.79697 0
M  V30 6548 H 657.282 -3.66082 2.13916 0
M  V30 6549 C 655.741 -3.29581 0.698431 0
M  V30 6550 O 656.271 -4.01479 -0.133238 0
M  V30 6551 N 654.477 -2.85651 0.53405 0
M  V30 6552 H 654.024 -2.2731 1.21194 0
M  V30 6553 H 653.982 -3.13065 -0.289387 0
M  V30 6554 N 657.755 -1.42862 -0.66545 0
M  V30 6555 C 658.983 -1.47246 -1.45349 0
M  V30 6556 C 659.398 -0.0865944 -1.88601 0
M  V30 6557 O 658.755 0.900652 -1.58728 0
M  V30 6558 C 658.806 -2.40772 -2.6965 0
M  V30 6559 O 658.527 -3.73968 -2.2821 0
M  V30 6560 C 660.028 -2.54272 -3.63126 0
M  V30 6561 H 657.248 -0.500497 -0.446927 0
M  V30 6562 H 659.792 -1.87477 -0.816871 0
M  V30 6563 H 657.947 -2.0377 -3.29479 0
M  V30 6564 H 658.361 -4.24146 -3.08546 0
M  V30 6565 H 659.835 -3.23815 -4.47043 0
M  V30 6566 H 660.312 -1.58364 -4.09656 0
M  V30 6567 H 660.918 -2.92036 -3.09185 0
M  V30 6568 N 659.233 0.902656 -1.29189 0
M  V30 6569 C 660.473 1.6672 -1.18254 0
M  V30 6570 C 660.837 1.90199 0.262336 0
M  V30 6571 O 662.038 2.6421 0.494612 0
M  V30 6572 C 660.309 2.98178 -1.9704 0
M  V30 6573 S 661.868 3.89226 -2.02605 0
M  V30 6574 H 658.686 0.572432 -0.421714 0
M  V30 6575 H 661.288 1.07279 -1.63436 0
M  V30 6576 H 659.992 2.788 -3.01163 0
M  V30 6577 H 659.523 3.62661 -1.5245 0
M  V30 6578 H 661.538 4.82913 -1.14059 0
M  V30 6579 N 660.711 1.11618 1.11262 0
M  V30 6580 C 661.959 0.864469 1.82678 0
M  V30 6581 C 662.28 -0.611564 1.85162 0
M  V30 6582 O 661.55 -1.44429 1.32352 0
M  V30 6583 H 660.13 0.316821 0.676486 0
M  V30 6584 H 662.792 1.40894 1.34666 0
M  V30 6585 H 661.888 1.23832 2.86482 0
M  V30 6586 N 662.189 -1.289 0.906776 0
M  V30 6587 C 663.099 -2.31256 0.394707 0
M  V30 6588 C 664.115 -1.66231 -0.514121 0
M  V30 6589 O 665.291 -1.97347 -0.401994 0
M  V30 6590 C 662.356 -3.44792 -0.363191 0
M  V30 6591 C 661.417 -4.25391 0.578012 0
M  V30 6592 C 660.65 -5.33506 -0.143811 0
M  V30 6593 O 660.873 -5.53786 -1.36665 0
M  V30 6594 O 659.807 -5.99673 0.5173 0
M  V30 6595 H 663.633 -2.77051 1.24405 0
M  V30 6596 H 661.218 -1.33466 0.671346 0
M  V30 6597 H 663.1 -4.139 -0.791503 0
M  V30 6598 H 661.775 -3.01093 -1.18848 0
M  V30 6599 H 660.682 -3.58899 1.05558 0
M  V30 6600 H 662.015 -4.72752 1.36992 0
M  V30 6601 N 663.667 -0.670007 -1.42649 0
M  V30 6602 C 665.078 -0.268118 -1.84765 0
M  V30 6603 C 665.429 1.18877 -1.56086 0
M  V30 6604 O 664.554 1.90947 -1.01825 0
M  V30 6605 C 665.149 -0.47984 -3.35385 0
M  V30 6606 C 663.708 -0.132116 -3.76168 0
M  V30 6607 C 662.855 -0.774611 -2.66261 0
M  V30 6608 H 665.806 -0.872509 -1.32563 0
M  V30 6609 H 665.827 0.269522 -3.79544 0
M  V30 6610 H 665.339 -1.54026 -3.56227 0
M  V30 6611 H 663.44 0.92505 -3.60934 0
M  V30 6612 H 663.553 -0.569294 -4.75706 0
M  V30 6613 H 661.917 -0.206353 -2.53863 0
M  V30 6614 H 662.7 -1.83839 -2.89928 0
M  V30 6615 N 665.145 1.52092 -0.413018 0
M  V30 6616 C 666.394 2.01041 0.16287 0
M  V30 6617 C 666.707 1.30288 1.45892 0
M  V30 6618 O 667.913 1.70075 2.11629 0
M  V30 6619 C 666.369 3.58283 0.340806 0
M  V30 6620 C 665.977 4.37955 -0.943377 0
M  V30 6621 C 667.721 4.15452 0.871774 0
M  V30 6622 C 665.628 5.86847 -0.732417 0
M  V30 6623 H 664.558 0.751224 0.0646414 0
M  V30 6624 H 667.209 1.75404 -0.539059 0
M  V30 6625 H 665.591 3.80266 1.10516 0
M  V30 6626 H 666.765 4.2773 -1.71418 0
M  V30 6627 H 665.08 3.92122 -1.40105 0
M  V30 6628 H 667.677 5.24375 1.0457 0
M  V30 6629 H 668.02 3.73057 1.84755 0
M  V30 6630 H 668.553 3.97452 0.166377 0
M  V30 6631 H 665.292 6.33609 -1.67986 0
M  V30 6632 H 664.812 5.998 -0.000980058 0
M  V30 6633 H 666.491 6.45906 -0.376105 0
M  V30 6634 N 666.623 0.143563 1.56945 0
M  V30 6635 C 667.851 -0.515447 2.00377 0
M  V30 6636 C 668.266 -1.58643 1.02361 0
M  V30 6637 O 667.623 -1.82489 0.0201039 0
M  V30 6638 C 667.674 -1.11923 3.43737 0
M  V30 6639 O 667.395 -0.0910318 4.38005 0
M  V30 6640 C 668.896 -1.85918 4.02429 0
M  V30 6641 H 666.116 -0.134478 0.657386 0
M  V30 6642 H 668.66 0.237135 2.0312 0
M  V30 6643 H 666.815 -1.82245 3.41856 0
M  V30 6644 H 667.229 -0.532916 5.21786 0
M  V30 6645 H 668.703 -2.2346 5.04747 0
M  V30 6646 H 669.18 -2.7438 3.42947 0
M  V30 6647 H 669.786 -1.20303 4.07931 0
M  V30 6648 N 668.101 -1.57061 -0.130224 0
M  V30 6649 C 669.378 -1.75205 -0.869631 0
M  V30 6650 C 669.758 -0.716063 -1.98584 0
M  V30 6651 O 669.106 0.262032 -2.26993 0
M  V30 6652 C 669.316 -3.19835 -1.39666 0
M  V30 6653 C 670.664 -3.82011 -1.85345 0
M  V30 6654 O 671.688 -3.23368 -1.49371 0
M  V30 6655 O 670.547 -4.85064 -2.51744 0
M  V30 6656 H 667.641 -0.716977 -0.412157 0
M  V30 6657 H 670.187 -1.69311 -0.11484 0
M  V30 6658 H 668.959 -3.86745 -0.595288 0
M  V30 6659 H 668.582 -3.30222 -2.21448 0
M  V30 6660 N 669.579 0.400081 -1.52437 0
M  V30 6661 C 670.995 0.739359 -1.41441 0
M  V30 6662 C 671.195 1.94512 -0.526053 0
M  V30 6663 O 670.251 2.525 0.00472502 0
M  V30 6664 C 671.564 0.984824 -2.84116 0
M  V30 6665 C 673.112 1.08698 -2.93519 0
M  V30 6666 C 673.587 1.36515 -4.37181 0
M  V30 6667 N 675.078 1.43361 -4.40457 0
M  V30 6668 C 675.813 1.66528 -5.48686 0
M  V30 6669 N 675.309 1.87239 -6.67018 0
M  V30 6670 N 677.102 1.68617 -5.36213 0
M  V30 6671 H 669.253 -0.393484 -2.08723 0
M  V30 6672 H 671.516 -0.1138 -0.941145 0
M  V30 6673 H 671.222 0.171096 -3.51284 0
M  V30 6674 H 671.096 1.90253 -3.25705 0
M  V30 6675 H 673.483 1.89129 -2.26526 0
M  V30 6676 H 673.564 0.147432 -2.55375 0
M  V30 6677 H 673.208 0.565982 -5.04737 0
M  V30 6678 H 673.138 2.31737 -4.7287 0
M  V30 6679 H 675.629 1.29108 -3.55161 0
M  V30 6680 H 675.942 2.04392 -7.45281 0
M  V30 6681 H 674.287 1.84486 -6.70067 0
M  V30 6682 H 677.478 1.5198 -4.42741 0
M  V30 6683 H 677.651 1.86332 -6.20632 0
M  V30 6684 N 671.057 1.43213 0.657864 0
M  V30 6685 C 671.99 1.42456 1.78273 0
M  V30 6686 C 672.968 0.286598 1.60054 0
M  V30 6687 O 674.152 0.479467 1.823 0
M  V30 6688 C 671.279 1.23169 3.15511 0
M  V30 6689 C 670.325 2.40181 3.52442 0
M  V30 6690 S 671.158 4.02729 3.52944 0
M  V30 6691 C 672.314 3.85816 4.92846 0
M  V30 6692 H 672.547 2.37642 1.78644 0
M  V30 6693 H 670.08 1.30188 0.830084 0
M  V30 6694 H 672.038 1.12728 3.94719 0
M  V30 6695 H 670.699 0.295398 3.12708 0
M  V30 6696 H 669.892 2.22478 4.52239 0
M  V30 6697 H 669.494 2.47224 2.80636 0
M  V30 6698 H 671.786 3.47853 5.81381 0
M  V30 6699 H 672.729 4.85348 5.15599 0
M  V30 6700 H 673.137 3.18361 4.66162 0
M  V30 6701 N 672.536 -0.895792 1.29666 0
M  V30 6702 C 673.466 -2.01673 1.17688 0
M  V30 6703 C 674.447 -1.69955 0.0701317 0
M  V30 6704 O 675.632 -1.9258 0.250289 0
M  V30 6705 C 672.762 -3.36568 0.856681 0
M  V30 6706 C 671.716 -3.82509 1.92017 0
M  V30 6707 C 671.042 -5.14574 1.4532 0
M  V30 6708 C 672.342 -4.02409 3.32963 0
M  V30 6709 H 674.036 -2.11953 2.11463 0
M  V30 6710 H 671.582 -1.01839 1.01807 0
M  V30 6711 H 673.535 -4.14498 0.759577 0
M  V30 6712 H 672.259 -3.26391 -0.116763 0
M  V30 6713 H 670.918 -3.068 2.00673 0
M  V30 6714 H 670.566 -5.00815 0.468325 0
M  V30 6715 H 670.266 -5.46283 2.16447 0
M  V30 6716 H 671.79 -5.9504 1.36968 0
M  V30 6717 H 673.204 -4.70808 3.27127 0
M  V30 6718 H 671.601 -4.45478 4.02082 0
M  V30 6719 H 672.671 -3.06616 3.75652 0
M  V30 6720 N 674.014 -1.12206 -1.10668 0
M  V30 6721 C 675.43 -0.857619 -1.346 0
M  V30 6722 C 675.63 0.513542 -1.94846 0
M  V30 6723 O 674.686 1.26273 -2.18658 0
M  V30 6724 C 675.999 -1.97212 -2.26998 0
M  V30 6725 C 677.547 -2.00272 -2.40542 0
M  V30 6726 C 678.022 -3.10948 -3.36267 0
M  V30 6727 N 679.513 -3.10375 -3.43834 0
M  V30 6728 C 680.248 -3.92651 -4.17867 0
M  V30 6729 N 679.744 -4.84911 -4.94807 0
M  V30 6730 N 681.537 -3.80798 -4.1346 0
M  V30 6731 H 673.688 -2.00558 -0.699306 0
M  V30 6732 H 675.951 -0.872612 -0.370477 0
M  V30 6733 H 675.657 -2.96002 -1.89936 0
M  V30 6734 H 675.531 -1.87521 -3.27286 0
M  V30 6735 H 677.918 -1.02103 -2.76874 0
M  V30 6736 H 677.999 -2.14037 -1.40077 0
M  V30 6737 H 677.643 -4.09348 -3.00661 0
M  V30 6738 H 677.573 -2.94421 -4.36605 0
M  V30 6739 H 680.064 -2.43536 -2.88961 0
M  V30 6740 H 680.377 -5.44207 -5.48688 0
M  V30 6741 H 678.722 -4.88926 -4.93939 0
M  V30 6742 H 681.913 -3.08058 -3.52445 0
M  V30 6743 H 682.086 -4.4515 -4.70898 0
M  V30 6744 N 675.492 1.28418 -0.913599 0
M  V30 6745 C 676.455 2.25564 -0.406624 0
M  V30 6746 C 677.455 1.5387 0.466965 0
M  V30 6747 O 678.645 1.72094 0.270042 0
M  V30 6748 C 675.777 3.38339 0.417053 0
M  V30 6749 H 676.97 2.71926 -1.26477 0
M  V30 6750 H 674.523 1.40098 -0.692986 0
M  V30 6751 H 675.258 2.97339 1.29461 0
M  V30 6752 H 675.043 3.91542 -0.209102 0
M  V30 6753 H 676.533 4.10578 0.762602 0
M  V30 6754 N 676.97 0.677563 1.42291 0
M  V30 6755 C 678.198 0.209459 2.05837 0
M  V30 6756 C 678.613 -1.13444 1.50917 0
M  V30 6757 O 677.97 -1.70529 0.65008 0
M  V30 6758 C 678.021 0.138819 3.61233 0
M  V30 6759 O 677.742 1.42962 4.14118 0
M  V30 6760 C 679.243 -0.352449 4.41897 0
M  V30 6761 H 676.463 0.101209 0.663323 0
M  V30 6762 H 679.007 0.925077 1.8238 0
M  V30 6763 H 677.162 -0.527505 3.83792 0
M  V30 6764 H 677.576 1.3048 5.08011 0
M  V30 6765 H 679.05 -0.350778 5.50884 0
M  V30 6766 H 679.527 -1.3882 4.16684 0
M  V30 6767 H 680.133 0.282236 4.24362 0
M  V30 6768 N 678.448 -1.51871 0.421078 0
M  V30 6769 C 679.696 -2.01539 -0.150492 0
M  V30 6770 C 680.017 -1.30803 -1.44623 0
M  V30 6771 O 679.287 -0.437568 -1.90951 0
M  V30 6772 H 677.867 -0.744698 -0.0586041 0
M  V30 6773 H 680.529 -1.8668 0.560059 0
M  V30 6774 H 679.625 -3.10264 -0.338068 0
M  V30 6775 N 679.926 -0.151884 -1.56866 0
M  V30 6776 C 680.873 0.785936 -2.17006 0
M  V30 6777 C 681.843 1.2407 -1.10435 0
M  V30 6778 O 683.028 1.31235 -1.38499 0
M  V30 6779 C 680.168 2.01771 -2.79969 0
M  V30 6780 C 679.281 1.6083 -4.00946 0
M  V30 6781 C 678.416 2.79224 -4.51893 0
M  V30 6782 C 677.455 2.3468 -5.65324 0
M  V30 6783 N 676.592 3.461 -6.10867 0
M  V30 6784 H 681.432 0.266286 -2.96808 0
M  V30 6785 H 678.969 0.11972 -1.46612 0
M  V30 6786 H 680.927 2.73989 -3.14621 0
M  V30 6787 H 679.557 2.51139 -2.02803 0
M  V30 6788 H 678.609 0.783592 -3.72242 0
M  V30 6789 H 679.921 1.24119 -4.83111 0
M  V30 6790 H 679.075 3.59625 -4.88625 0
M  V30 6791 H 677.814 3.19183 -3.68746 0
M  V30 6792 H 676.819 1.52721 -5.28163 0
M  V30 6793 H 678.044 1.95801 -6.5026 0
M  V30 6794 H 675.99 3.85671 -5.30654 0
M  V30 6795 H 675.907 3.1342 -6.87971 0
M  V30 6796 H 677.175 4.26844 -6.52246 0
M  V30 6797 N 681.404 1.57128 0.121893 0
M  V30 6798 C 682.367 1.99197 1.13372 0
M  V30 6799 C 683.367 0.881728 1.3447 0
M  V30 6800 O 684.557 1.14783 1.31036 0
M  V30 6801 C 681.689 2.32963 2.4888 0
M  V30 6802 H 682.882 2.89788 0.772204 0
M  V30 6803 H 680.435 1.51952 0.366093 0
M  V30 6804 H 681.17 1.45243 2.89957 0
M  V30 6805 H 680.955 3.13934 2.34921 0
M  V30 6806 H 682.445 2.66261 3.21706 0
M  V30 6807 N 682.882 -0.391992 1.52647 0
M  V30 6808 C 684.112 -1.15692 1.71169 0
M  V30 6809 C 684.52 -1.84285 0.428444 0
M  V30 6810 O 683.863 -1.73393 -0.606669 0
M  V30 6811 C 683.925 -2.25033 2.80357 0
M  V30 6812 C 683.589 -1.76433 4.21569 0
M  V30 6813 C 684.586 -1.2427 5.0483 0
M  V30 6814 C 682.271 -1.82746 4.67877 0
M  V30 6815 C 684.265 -0.790657 6.32477 0
M  V30 6816 C 681.952 -1.37153 5.9551 0
M  V30 6817 C 682.95 -0.853997 6.7764 0
M  V30 6818 O 682.638 -0.404708 8.02881 0
M  V30 6819 H 682.37 -0.35297 0.576531 0
M  V30 6820 H 684.924 -0.464994 2.00067 0
M  V30 6821 H 683.154 -2.97641 2.46874 0
M  V30 6822 H 684.843 -2.86718 2.87311 0
M  V30 6823 H 685.609 -1.18752 4.70237 0
M  V30 6824 H 681.488 -2.21971 4.04042 0
M  V30 6825 H 685.032 -0.386024 6.96531 0
M  V30 6826 H 680.929 -1.42356 6.29607 0
M  V30 6827 H 681.697 -0.526459 8.16805 0
M  V30 6828 N 684.36 -1.4356 -0.65026 0
M  V30 6829 C 685.31 -1.45392 -1.75628 0
M  V30 6830 C 686.294 -0.322006 -1.57645 0
M  V30 6831 O 687.486 -0.565996 -1.67707 0
M  V30 6832 C 684.615 -1.38254 -3.1423 0
M  V30 6833 C 683.701 -2.56487 -3.3775 0
M  V30 6834 N 684.092 -3.81824 -3.31729 0
M  V30 6835 C 682.39 -2.51274 -3.6848 0
M  V30 6836 C 683.091 -4.60497 -3.55412 0
M  V30 6837 N 682.067 -3.91274 -3.77367 0
M  V30 6838 H 685.869 -2.40167 -1.69402 0
M  V30 6839 H 683.383 -1.38254 -0.852037 0
M  V30 6840 H 685.38 -1.3765 -3.9352 0
M  V30 6841 H 684.04 -0.445019 -3.21636 0
M  V30 6842 H 685.051 -4.14069 -3.11074 0
M  V30 6843 H 681.728 -1.66223 -3.82983 0
M  V30 6844 H 683.118 -5.69518 -3.5651 0
M  V30 6845 N 685.838 0.888903 -1.30139 0
M  V30 6846 C 687.249 1.45578 -1.16893 0
M  V30 6847 C 687.6 1.94825 0.231866 0
M  V30 6848 O 686.725 1.84661 1.12824 0
M  V30 6849 C 687.32 2.646 -2.11595 0
M  V30 6850 C 685.879 3.17389 -2.02339 0
M  V30 6851 C 685.026 1.90081 -2.01902 0
M  V30 6852 H 687.977 0.69921 -1.42467 0
M  V30 6853 H 687.998 3.40687 -1.69449 0
M  V30 6854 H 687.51 2.28726 -3.13538 0
M  V30 6855 H 685.611 3.5793 -1.03523 0
M  V30 6856 H 685.724 3.80955 -2.90534 0
M  V30 6857 H 684.088 2.08246 -1.46648 0
M  V30 6858 H 684.871 1.5647 -3.05568 0
M  V30 6859 N 687.317 1.12792 1.10072 0
M  V30 6860 C 688.267 0.768086 2.14673 0
M  V30 6861 C 689.251 -0.234716 1.59179 0
M  V30 6862 O 690.443 -0.039643 1.76956 0
M  V30 6863 C 687.572 0.228472 3.42539 0
M  V30 6864 C 686.658 1.25979 4.04957 0
M  V30 6865 N 687.049 2.4586 4.42025 0
M  V30 6866 C 685.347 1.10602 4.32069 0
M  V30 6867 C 686.048 3.11747 4.9111 0
M  V30 6868 N 685.024 2.39185 4.88151 0
M  V30 6869 H 688.826 1.68029 2.4113 0
M  V30 6870 H 686.34 1.00925 1.27232 0
M  V30 6871 H 688.337 -0.0475216 4.16873 0
M  V30 6872 H 686.997 -0.678136 3.1754 0
M  V30 6873 H 688.008 2.83215 4.33601 0
M  V30 6874 H 684.685 0.257021 4.16708 0
M  V30 6875 H 686.075 4.13862 5.29309 0
M  V30 6876 N 688.795 -1.27931 0.920396 0
M  V30 6877 C 690.035 -1.96459 0.564198 0
M  V30 6878 C 690.399 -1.70802 -0.876967 0
M  V30 6879 O 691.6 -2.32956 -1.34107 0
M  V30 6880 C 689.871 -3.46583 0.872641 0
M  V30 6881 S 691.43 -4.34343 0.623859 0
M  V30 6882 H 688.248 -0.679735 0.208523 0
M  V30 6883 H 690.85 -1.55319 1.18727 0
M  V30 6884 H 689.554 -3.62753 1.91933 0
M  V30 6885 H 689.085 -3.92677 0.238479 0
M  V30 6886 H 691.1 -4.93449 -0.521744 0
M  V30 6887 N 690.273 -0.685099 -1.4193 0
M  V30 6888 C 691.52 -0.211658 -2.01391 0
M  V30 6889 C 691.848 1.18526 -1.54214 0
M  V30 6890 O 691.103 1.81189 -0.739519 0
M  V30 6891 C 691.402 -0.206154 -3.56805 0
M  V30 6892 C 691.068 -1.54915 -4.23453 0
M  V30 6893 C 689.73 -1.91684 -4.41373 0
M  V30 6894 C 692.082 -2.43317 -4.60919 0
M  V30 6895 C 689.41 -3.16461 -4.94034 0
M  V30 6896 C 691.762 -3.67415 -5.14965 0
M  V30 6897 C 690.426 -4.04341 -5.31098 0
M  V30 6898 H 689.696 -0.0774511 -0.736941 0
M  V30 6899 H 692.343 -0.882121 -1.69973 0
M  V30 6900 H 690.648 0.547841 -3.87951 0
M  V30 6901 H 692.345 0.17753 -4.00607 0
M  V30 6902 H 688.935 -1.25314 -4.09871 0
M  V30 6903 H 693.119 -2.16192 -4.46738 0
M  V30 6904 H 688.375 -3.45078 -5.04709 0
M  V30 6905 H 692.549 -4.3611 -5.42938 0
M  V30 6906 H 690.176 -5.01101 -5.71666 0
M  V30 6907 N 691.751 1.51645 -0.429126 0
M  V30 6908 C 692.979 2.06433 0.138994 0
M  V30 6909 C 693.394 1.29735 1.37165 0
M  V30 6910 O 692.751 0.354638 1.79021 0
M  V30 6911 C 692.802 3.58439 0.469452 0
M  V30 6912 O 692.523 4.32238 -0.714273 0
M  V30 6913 C 694.024 4.29712 1.08914 0
M  V30 6914 H 691.244 0.6709 0.0115608 0
M  V30 6915 H 693.788 1.9532 -0.605843 0
M  V30 6916 H 691.943 3.69494 1.16419 0
M  V30 6917 H 692.357 5.22704 -0.433633 0
M  V30 6918 H 693.831 5.37182 1.27042 0
M  V30 6919 H 694.308 3.87473 2.06788 0
M  V30 6920 H 694.914 4.2308 0.434028 0
M  V30 6921 N 693.229 0.160201 1.56784 0
M  V30 6922 C 694.469 -0.490179 1.98435 0
M  V30 6923 C 694.833 -1.61164 1.04355 0
M  V30 6924 O 696.034 -2.3238 1.35103 0
M  V30 6925 C 694.305 -0.971106 3.43954 0
M  V30 6926 S 695.864 -1.62423 4.07632 0
M  V30 6927 H 692.682 -0.158056 0.693209 0
M  V30 6928 H 695.284 0.255036 1.93829 0
M  V30 6929 H 693.988 -0.144323 4.10146 0
M  V30 6930 H 693.519 -1.75063 3.52302 0
M  V30 6931 H 695.534 -2.91199 4.01768 0
M  V30 6932 N 694.707 -1.5719 -0.113559 0
M  V30 6933 C 695.953 -1.85412 -0.821597 0
M  V30 6934 C 696.286 -0.746722 -1.7927 0
M  V30 6935 O 695.561 0.246971 -1.92926 0
M  V30 6936 C 695.844 -3.24233 -1.56669 0
M  V30 6937 C 695.697 -4.45578 -0.614823 0
M  V30 6938 C 697.016 -3.60697 -2.52161 0
M  V30 6939 H 694.135 -0.674406 -0.29723 0
M  V30 6940 H 696.777 -1.89807 -0.085694 0
M  V30 6941 H 694.927 -3.20617 -2.19401 0
M  V30 6942 H 696.599 -4.613 0.00407137 0
M  V30 6943 H 694.842 -4.33738 0.0732332 0
M  V30 6944 H 695.513 -5.39395 -1.17292 0
M  V30 6945 H 697.989 -3.65139 -1.99532 0
M  V30 6946 H 696.865 -4.58798 -3.01323 0
M  V30 6947 H 697.126 -2.88403 -3.35076 0
M  V30 6948 N 696.185 0.383891 -1.52853 0
M  V30 6949 C 697.431 1.13009 -1.68395 0
M  V30 6950 C 697.764 1.89488 -0.425195 0
M  V30 6951 O 697.039 1.8574 0.577136 0
M  V30 6952 C 697.322 2.10419 -2.92226 0
M  V30 6953 C 697.175 1.3767 -4.28214 0
M  V30 6954 C 698.494 3.10781 -3.11614 0
M  V30 6955 H 695.613 0.409463 -0.612788 0
M  V30 6956 H 698.255 0.412895 -1.85459 0
M  V30 6957 H 696.405 2.71579 -2.77808 0
M  V30 6958 H 698.077 0.794352 -4.54409 0
M  V30 6959 H 696.32 0.678533 -4.2846 0
M  V30 6960 H 696.991 2.08874 -5.10956 0
M  V30 6961 H 699.467 2.59715 -3.25096 0
M  V30 6962 H 698.343 3.76179 -3.99725 0
M  V30 6963 H 698.604 3.79933 -2.2606 0
M  V30 6964 N 697.663 1.43903 0.642637 0
M  V30 6965 C 698.903 1.47591 1.41408 0
M  V30 6966 C 699.267 0.101313 1.91733 0
M  V30 6967 O 700.468 0.0128797 2.68797 0
M  V30 6968 C 698.739 2.4977 2.55636 0
M  V30 6969 S 700.298 2.72417 3.43998 0
M  V30 6970 H 697.116 0.522163 0.482563 0
M  V30 6971 H 699.718 1.80745 0.745085 0
M  V30 6972 H 698.422 3.48365 2.16956 0
M  V30 6973 H 697.953 2.1815 3.27375 0
M  V30 6974 H 699.968 2.03142 4.52712 0
M  V30 6975 N 699.141 -0.881989 1.30609 0
M  V30 6976 C 700.104 -1.96957 1.1722 0
M  V30 6977 C 701.104 -1.60472 0.102598 0
M  V30 6978 O 702.294 -1.70628 0.350943 0
M  V30 6979 C 699.426 -3.31463 0.796572 0
M  V30 6980 H 700.619 -2.10262 2.13846 0
M  V30 6981 H 698.172 -1.06877 1.14048 0
M  V30 6982 H 698.907 -3.23859 -0.169053 0
M  V30 6983 H 698.692 -3.59314 1.56959 0
M  V30 6984 H 700.182 -4.11233 0.72645 0
M  V30 6985 N 700.619 -1.13374 -1.09472 0
M  V30 6986 C 702.035 -0.871846 -1.33682 0
M  V30 6987 C 702.235 0.492847 -1.9538 0
M  V30 6988 O 701.291 1.23946 -2.19985 0
M  V30 6989 C 702.604 -1.99608 -2.24893 0
M  V30 6990 C 704.152 -2.02812 -2.38404 0
M  V30 6991 C 704.627 -3.14497 -3.3295 0
M  V30 6992 N 706.118 -3.14004 -3.40523 0
M  V30 6993 C 706.853 -3.97061 -4.13679 0
M  V30 6994 N 706.349 -4.90131 -4.89636 0
M  V30 6995 N 708.142 -3.85162 -4.09398 0
M  V30 6996 H 700.293 -2.01288 -0.677995 0
M  V30 6997 H 702.556 -0.876492 -0.361201 0
M  V30 6998 H 702.262 -2.98 -1.86786 0
M  V30 6999 H 702.136 -1.90981 -3.25278 0
M  V30 7000 H 704.523 -1.05034 -2.75775 0
M  V30 7001 H 704.604 -2.15511 -1.37799 0
M  V30 7002 H 704.248 -4.12514 -2.96302 0
M  V30 7003 H 704.178 -2.99035 -4.33458 0
M  V30 7004 H 706.669 -2.46587 -2.86362 0
M  V30 7005 H 706.982 -5.49996 -5.42885 0
M  V30 7006 H 705.327 -4.94138 -4.88726 0
M  V30 7007 H 708.518 -3.11779 -3.49158 0
M  V30 7008 H 708.691 -4.5012 -4.6615 0
M  V30 7009 N 702.098 1.27442 -0.927168 0
M  V30 7010 C 703.509 1.76385 -0.611979 0
M  V30 7011 C 703.86 1.75715 0.872853 0
M  V30 7012 O 702.985 1.3603 1.683 0
M  V30 7013 C 703.58 3.20303 -1.10414 0
M  V30 7014 C 702.139 3.66916 -0.839628 0
M  V30 7015 C 701.286 2.46859 -1.26317 0
M  V30 7016 H 704.237 1.13716 -1.107 0
M  V30 7017 H 704.258 3.77811 -0.451578 0
M  V30 7018 H 703.77 3.20759 -2.18484 0
M  V30 7019 H 701.871 3.71906 0.227292 0
M  V30 7020 H 701.984 4.56415 -1.45679 0
M  V30 7021 H 700.348 2.45407 -0.681723 0
M  V30 7022 H 701.131 2.50025 -2.3525 0
M  V30 7023 N 703.576 0.692616 1.41565 0
M  V30 7024 C 704.506 0.0397325 2.33466 0
M  V30 7025 C 705.487 -0.770334 1.51657 0
M  V30 7026 O 706.672 -0.723903 1.80203 0
M  V30 7027 C 703.802 -0.899495 3.3545 0
M  V30 7028 C 702.756 -0.196738 4.27548 0
M  V30 7029 C 702.082 -1.25012 5.19881 0
M  V30 7030 C 703.382 0.935158 5.1386 0
M  V30 7031 H 705.076 0.807296 2.88311 0
M  V30 7032 H 702.622 0.389665 1.38628 0
M  V30 7033 H 704.575 -1.36545 3.98665 0
M  V30 7034 H 703.299 -1.69869 2.78948 0
M  V30 7035 H 701.958 0.249158 3.65752 0
M  V30 7036 H 701.606 -2.04177 4.59696 0
M  V30 7037 H 701.306 -0.784931 5.82334 0
M  V30 7038 H 702.83 -1.71665 5.85972 0
M  V30 7039 H 704.244 0.549619 5.70659 0
M  V30 7040 H 702.641 1.32726 5.85238 0
M  V30 7041 H 703.711 1.77613 4.512 0
M  V30 7042 N 705.054 -1.51416 0.437162 0
M  V30 7043 C 705.964 -2.31493 -0.380537 0
M  V30 7044 C 706.98 -1.40399 -1.02782 0
M  V30 7045 O 708.156 -1.73471 -1.02323 0
M  V30 7046 C 705.221 -3.1413 -1.46709 0
M  V30 7047 C 704.282 -4.21003 -0.839953 0
M  V30 7048 C 703.515 -4.9969 -1.87473 0
M  V30 7049 O 703.738 -4.79008 -3.09689 0
M  V30 7050 O 702.672 -5.8379 -1.46536 0
M  V30 7051 H 706.498 -3.02469 0.273183 0
M  V30 7052 H 704.083 -1.48059 0.199706 0
M  V30 7053 H 705.965 -3.65505 -2.09724 0
M  V30 7054 H 704.64 -2.45919 -2.10489 0
M  V30 7055 H 703.547 -3.73706 -0.171752 0
M  V30 7056 H 704.88 -4.91587 -0.245638 0
M  V30 7057 N 706.532 -0.168513 -1.56696 0
M  V30 7058 C 707.78 0.476216 -1.96409 0
M  V30 7059 C 708.101 1.63968 -1.05544 0
M  V30 7060 O 707.371 1.95525 -0.121235 0
M  V30 7061 H 705.951 0.178921 -0.725256 0
M  V30 7062 H 708.613 -0.249042 -1.93302 0
M  V30 7063 H 707.709 0.838094 -3.00637 0
M  V30 7064 N 708.01 1.57248 0.105221 0
M  V30 7065 C 709.238 1.89768 0.82437 0
M  V30 7066 C 709.653 0.761192 1.72775 0
M  V30 7067 O 709.01 -0.267342 1.80531 0
M  V30 7068 C 709.061 3.2184 1.64625 0
M  V30 7069 O 708.782 4.31115 0.779217 0
M  V30 7070 C 710.283 3.68155 2.46935 0
M  V30 7071 H 707.503 0.628031 0.236259 0
M  V30 7072 H 710.047 2.04321 0.085485 0
M  V30 7073 H 708.202 3.08915 2.33775 0
M  V30 7074 H 708.616 5.06897 1.34745 0
M  V30 7075 H 710.09 4.6329 3.00111 0
M  V30 7076 H 710.567 2.95492 3.24932 0
M  V30 7077 H 711.173 3.83914 1.83002 0
M  V30 7078 N 709.488 -0.375779 1.53054 0
M  V30 7079 C 710.713 -1.14484 1.7294 0
M  V30 7080 C 711.138 -1.82572 0.452668 0
M  V30 7081 O 710.496 -1.71343 -0.592567 0
M  V30 7082 C 710.544 -2.15857 2.88857 0
M  V30 7083 O 709.648 -3.22725 2.56753 0
M  V30 7084 H 708.989 -0.332666 0.574656 0
M  V30 7085 H 711.519 -0.436025 1.999 0
M  V30 7086 H 711.529 -2.59631 3.14731 0
M  V30 7087 H 710.204 -1.65689 3.81471 0
M  V30 7088 H 708.781 -2.83996 2.41663 0
M  V30 7089 N 710.966 -1.44241 -0.634997 0
M  V30 7090 C 712.213 -1.46821 -1.39463 0
M  V30 7091 C 712.541 -0.0993362 -1.94246 0
M  V30 7092 O 711.796 0.898325 -1.73864 0
M  V30 7093 C 712.095 -2.47279 -2.58046 0
M  V30 7094 C 711.761 -3.92703 -2.21574 0
M  V30 7095 C 710.423 -4.32306 -2.1134 0
M  V30 7096 C 712.775 -4.84271 -1.92695 0
M  V30 7097 C 710.103 -5.61407 -1.70409 0
M  V30 7098 C 712.455 -6.13755 -1.53258 0
M  V30 7099 C 711.119 -6.52316 -1.41562 0
M  V30 7100 H 710.389 -0.537256 -0.51033 0
M  V30 7101 H 713.036 -1.77431 -0.720441 0
M  V30 7102 H 711.341 -2.10138 -3.3068 0
M  V30 7103 H 713.038 -2.46523 -3.16271 0
M  V30 7104 H 709.628 -3.61369 -2.30456 0
M  V30 7105 H 713.812 -4.54432 -1.99513 0
M  V30 7106 H 709.068 -5.90105 -1.59955 0
M  V30 7107 H 713.242 -6.84168 -1.29949 0
M  V30 7108 H 710.869 -7.52255 -1.09619 0
M  V30 7109 N 712.444 0.87505 -1.31075 0
M  V30 7110 C 713.693 1.62245 -1.19831 0
M  V30 7111 C 714.006 1.94078 0.24357 0
M  V30 7112 O 715.212 2.67265 0.477646 0
M  V30 7113 C 713.668 2.92464 -2.09744 0
M  V30 7114 C 713.276 2.68134 -3.58898 0
M  V30 7115 C 715.02 3.70449 -2.07287 0
M  V30 7116 C 712.927 3.9423 -4.40836 0
M  V30 7117 H 711.857 0.608741 -0.444916 0
M  V30 7118 H 714.508 0.967947 -1.55894 0
M  V30 7119 H 712.89 3.59262 -1.66574 0
M  V30 7120 H 714.064 2.09776 -4.10281 0
M  V30 7121 H 712.379 2.03511 -3.6328 0
M  V30 7122 H 714.976 4.63983 -2.65752 0
M  V30 7123 H 715.319 4.02611 -1.05876 0
M  V30 7124 H 715.852 3.10528 -2.48631 0
M  V30 7125 H 712.591 3.67221 -5.42982 0
M  V30 7126 H 712.111 4.52058 -3.94213 0
M  V30 7127 H 713.79 4.62162 -4.52786 0
M  V30 7128 N 713.922 1.13953 1.08869 0
M  V30 7129 C 715.168 0.906151 1.8143 0
M  V30 7130 C 715.501 -0.566089 1.85766 0
M  V30 7131 O 714.776 -1.41915 1.33006 0
M  V30 7132 C 715.059 1.50183 3.27287 0
M  V30 7133 C 714.912 3.04359 3.31189 0
M  V30 7134 C 716.231 1.17477 4.24131 0
M  V30 7135 H 713.35 0.330624 0.658678 0
M  V30 7136 H 715.992 1.40873 1.27495 0
M  V30 7137 H 714.142 1.07442 3.73348 0
M  V30 7138 H 715.814 3.55896 2.93488 0
M  V30 7139 H 714.057 3.39053 2.70602 0
M  V30 7140 H 714.728 3.41141 4.33966 0
M  V30 7141 H 717.204 1.5442 3.86385 0
M  V30 7142 H 716.08 1.61795 5.24513 0
M  V30 7143 H 716.341 0.0893312 4.4201 0
M  V30 7144 N 715.4 -1.26948 0.933913 0
M  V30 7145 C 716.677 -1.89212 0.495784 0
M  V30 7146 C 717.057 -1.84469 -1.02637 0
M  V30 7147 O 716.405 -1.29409 -1.88323 0
M  V30 7148 C 716.615 -3.32865 1.0489 0
M  V30 7149 C 717.963 -4.09749 1.11315 0
M  V30 7150 O 718.987 -3.41905 0.998966 0
M  V30 7151 O 717.846 -5.31061 1.28983 0
M  V30 7152 H 714.94 -0.811284 0.160459 0
M  V30 7153 H 717.486 -1.35171 1.02601 0
M  V30 7154 H 716.258 -3.30642 2.09265 0
M  V30 7155 H 715.881 -3.94435 0.500692 0
M  V30 7156 N 716.879 -0.700114 -1.41195 0
M  V30 7157 C 717.811 0.00155823 -2.292 0
M  V30 7158 C 718.824 0.739736 -1.45023 0
M  V30 7159 O 720.013 0.589684 -1.68478 0
M  V30 7160 C 717.113 1.02635 -3.22985 0
M  V30 7161 C 716.286 0.356871 -4.35942 0
M  V30 7162 C 715.345 1.28491 -5.10271 0
M  V30 7163 O 714.371 0.775562 -5.63892 0
M  V30 7164 N 715.573 2.61699 -5.18164 0
M  V30 7165 H 718.338 -0.754008 -2.9006 0
M  V30 7166 H 715.899 -0.546504 -1.52397 0
M  V30 7167 H 717.891 1.64902 -3.6958 0
M  V30 7168 H 716.461 1.68341 -2.63401 0
M  V30 7169 H 715.681 -0.445753 -3.91672 0
M  V30 7170 H 716.969 -0.108469 -5.08684 0
M  V30 7171 H 716.367 3.05594 -4.76056 0
M  V30 7172 H 714.924 3.19149 -5.6832 0
M  V30 7173 N 718.357 1.51182 -0.445186 0
M  V30 7174 C 719.32 2.26501 0.350722 0
M  V30 7175 C 720.32 1.3025 0.942952 0
M  V30 7176 O 721.51 1.53897 0.816175 0
M  V30 7177 C 718.642 3.06274 1.49697 0
M  V30 7178 H 719.835 2.98299 -0.309474 0
M  V30 7179 H 717.388 1.55034 -0.198551 0
M  V30 7180 H 718.123 2.38911 2.19299 0
M  V30 7181 H 717.908 3.76979 1.0784 0
M  V30 7182 H 719.398 3.63306 2.05909 0
M  V30 7183 N 719.835 0.176821 1.56605 0
M  V30 7184 C 720.783 -0.768159 2.1955 0
M  V30 7185 C 721.777 -1.23343 1.16116 0
M  V30 7186 O 722.983 -1.19844 1.34303 0
M  V30 7187 H 719.358 -0.266013 0.703378 0
M  V30 7188 H 721.329 -0.213374 2.97636 0
M  V30 7189 C 720.078 -1.98492 2.85475 0
M  V30 7190 H 719.401 -1.63595 3.64797 0
M  V30 7191 H 720.841 -2.62489 3.3298 0
M  V30 7192 C 719.3 -2.81207 1.85538 0
M  V30 7193 O 719.83 -3.7854 1.34427 0
M  V30 7194 N 718.036 -2.46331 1.54173 0
M  V30 7195 H 717.583 -1.67241 1.95929 0
M  V30 7196 H 717.541 -3.01961 0.875595 0
M  V30 7197 N 721.313 -1.57302 -0.09688 0
M  V30 7198 C 722.729 -1.53094 -0.451041 0
M  V30 7199 C 722.929 -0.893265 -1.80618 0
M  V30 7200 O 721.985 -0.485013 -2.47798 0
M  V30 7201 C 723.298 -2.9782 -0.415172 0
M  V30 7202 C 724.846 -3.09026 -0.497155 0
M  V30 7203 C 725.321 -4.55356 -0.491452 0
M  V30 7204 N 726.812 -4.59896 -0.552258 0
M  V30 7205 C 727.547 -5.70563 -0.569654 0
M  V30 7206 N 727.043 -6.90666 -0.543365 0
M  V30 7207 N 728.836 -5.58733 -0.614331 0
M  V30 7208 H 720.987 -1.97131 0.790771 0
M  V30 7209 H 723.25 -0.901211 0.294147 0
M  V30 7210 H 722.956 -3.47933 0.513362 0
M  V30 7211 H 722.83 -3.56416 -1.23481 0
M  V30 7212 H 725.217 -2.58902 -1.41611 0
M  V30 7213 H 725.298 -2.53386 0.35059 0
M  V30 7214 H 724.942 -5.06131 0.423549 0
M  V30 7215 H 724.872 -5.08832 -1.35639 0
M  V30 7216 H 727.363 -3.73456 -0.577842 0
M  V30 7217 H 727.676 -7.70769 -0.559873 0
M  V30 7218 H 726.021 -6.93123 -0.510441 0
M  V30 7219 H 729.212 -4.63809 -0.632387 0
M  V30 7220 H 729.385 -6.44984 -0.62442 0
M  V30 7221 N 722.791 0.367657 -1.53252 0
M  V30 7222 C 724.202 0.944563 -1.61043 0
M  V30 7223 C 724.553 1.90325 -0.476546 0
M  V30 7224 O 723.678 2.12721 0.397333 0
M  V30 7225 C 724.273 1.71992 -2.91898 0
M  V30 7226 C 722.832 2.2462 -3.02031 0
M  V30 7227 C 721.979 1.05799 -2.56324 0
M  V30 7228 H 724.93 0.146516 -1.58022 0
M  V30 7229 H 724.951 2.58095 -2.79584 0
M  V30 7230 H 724.463 1.02192 -3.74404 0
M  V30 7231 H 722.564 2.97668 -2.24108 0
M  V30 7232 H 722.677 2.52644 -4.07073 0
M  V30 7233 H 721.041 1.42435 -2.1115 0
M  V30 7234 H 721.824 0.375008 -3.41246 0
M  V30 7235 N 724.269 1.44576 0.627338 0
M  V30 7236 C 725.219 1.48168 1.73293 0
M  V30 7237 C 726.203 0.347045 1.57113 0
M  V30 7238 O 727.395 0.592605 1.66785 0
M  V30 7239 C 724.524 1.43236 3.11991 0
M  V30 7240 C 723.61 2.61828 3.33627 0
M  V30 7241 N 724.001 3.87053 3.25612 0
M  V30 7242 C 722.299 2.57104 3.64436 0
M  V30 7243 C 723 4.66093 3.48041 0
M  V30 7244 N 721.976 3.97228 3.71095 0
M  V30 7245 H 725.778 2.42832 1.6556 0
M  V30 7246 H 723.292 1.39592 0.829934 0
M  V30 7247 H 725.289 1.43893 3.91281 0
M  V30 7248 H 723.949 0.496133 3.20887 0
M  V30 7249 H 724.96 4.18966 3.04447 0
M  V30 7250 H 721.637 1.72295 3.8029 0
M  V30 7251 H 723.027 5.75117 3.47404 0
M  V30 7252 N 725.747 -0.868086 1.31537 0
M  V30 7253 C 726.987 -1.63526 1.22632 0
M  V30 7254 C 727.351 -1.90828 -0.211815 0
M  V30 7255 O 728.552 -2.65429 -0.424387 0
M  V30 7256 C 726.823 -2.92849 2.04876 0
M  V30 7257 S 728.382 -3.83717 2.12853 0
M  V30 7258 H 725.2 -0.56105 0.436743 0
M  V30 7259 H 727.802 -1.02908 1.66223 0
M  V30 7260 H 726.506 -2.70717 3.08449 0
M  V30 7261 H 726.037 -3.58491 1.62011 0
M  V30 7262 H 728.052 -4.79719 1.26822 0
M  V30 7263 N 727.225 -1.14528 -1.08264 0
M  V30 7264 C 728.471 -0.91576 -1.80947 0
M  V30 7265 C 728.804 0.55623 -1.86064 0
M  V30 7266 O 728.079 1.41207 -1.33756 0
M  V30 7267 C 728.362 -1.51917 -3.26486 0
M  V30 7268 C 728.215 -3.06111 -3.2957 0
M  V30 7269 C 729.534 -1.19724 -4.23502 0
M  V30 7270 H 726.653 -0.334113 -0.656915 0
M  V30 7271 H 729.295 -1.41547 -1.26746 0
M  V30 7272 H 727.445 -1.0942 -3.72773 0
M  V30 7273 H 729.117 -3.57448 -2.91597 0
M  V30 7274 H 727.36 -3.40483 -2.688 0
M  V30 7275 H 728.031 -3.43438 -4.32151 0
M  V30 7276 H 730.507 -1.56467 -3.85561 0
M  V30 7277 H 729.383 -1.64575 -5.23647 0
M  V30 7278 H 729.644 -0.112771 -4.41956 0
M  V30 7279 N 728.703 1.26451 -0.940633 0
M  V30 7280 C 730.114 1.75726 -0.630653 0
M  V30 7281 C 730.465 1.76631 0.854167 0
M  V30 7282 O 729.59 1.37807 1.66848 0
M  V30 7283 C 730.185 3.19114 -1.13805 0
M  V30 7284 C 728.744 3.66005 -0.878497 0
M  V30 7285 C 727.891 2.45505 -1.28928 0
M  V30 7286 H 730.842 1.12535 -1.119 0
M  V30 7287 H 730.863 3.77311 -0.491625 0
M  V30 7288 H 730.375 3.18424 -2.21874 0
M  V30 7289 H 728.476 3.72126 0.187833 0
M  V30 7290 H 728.589 4.54844 -1.50512 0
M  V30 7291 H 726.953 2.4467 -0.707713 0
M  V30 7292 H 727.736 2.47516 -2.37888 0
M  V30 7293 N 730.181 0.707592 1.40822 0
M  V30 7294 C 731.458 0.171172 1.9485 0
M  V30 7295 C 731.838 -1.32143 1.64625 0
M  V30 7296 O 731.186 -2.07372 0.959647 0
M  V30 7297 C 731.396 0.475334 3.45748 0
M  V30 7298 C 732.744 0.409625 4.22619 0
M  V30 7299 O 733.768 0.410934 3.53822 0
M  V30 7300 O 732.627 0.380185 5.45176 0
M  V30 7301 H 729.721 0.022015 0.826707 0
M  V30 7302 H 732.267 0.784577 1.50474 0
M  V30 7303 H 731.039 1.50801 3.61075 0
M  V30 7304 H 730.662 -0.168439 3.97243 0
M  V30 7305 N 731.66 -1.50943 0.453197 0
M  V30 7306 C 732.89 -2.06328 -0.105981 0
M  V30 7307 C 733.298 -1.31909 -1.35634 0
M  V30 7308 O 732.641 -0.376607 -1.79798 0
M  V30 7309 C 732.703 -3.5631 -0.477868 0
M  V30 7310 C 732.367 -4.52093 0.667925 0
M  V30 7311 C 733.364 -4.96421 1.54475 0
M  V30 7312 C 731.049 -4.95001 0.853168 0
M  V30 7313 C 733.043 -5.82346 2.59138 0
M  V30 7314 C 730.73 -5.80713 1.90305 0
M  V30 7315 C 731.728 -6.24284 2.77053 0
M  V30 7316 O 731.416 -7.08291 3.80236 0
M  V30 7317 H 731.148 -0.675986 -0.00427247 0
M  V30 7318 H 733.702 -1.95314 0.635738 0
M  V30 7319 H 731.932 -3.65163 -1.27252 0
M  V30 7320 H 733.621 -3.94138 -0.970039 0
M  V30 7321 H 734.387 -4.63953 1.41324 0
M  V30 7322 H 730.266 -4.60619 0.187482 0
M  V30 7323 H 733.81 -6.16276 3.2688 0
M  V30 7324 H 729.707 -6.12593 2.03469 0
M  V30 7325 H 730.475 -7.26504 3.77007 0
M  V30 7326 N 733.138 -0.185124 -1.56509 0
M  V30 7327 C 734.088 0.752315 -2.15231 0
M  V30 7328 C 735.072 1.18327 -1.0903 0
M  V30 7329 O 736.264 1.14333 -1.35119 0
M  V30 7330 C 733.393 1.97583 -2.80742 0
M  V30 7331 C 732.479 1.56623 -3.94119 0
M  V30 7332 N 732.87 0.867008 -4.98314 0
M  V30 7333 C 731.168 1.85626 -4.05535 0
M  V30 7334 C 731.869 0.663228 -5.77907 0
M  V30 7335 N 730.845 1.20891 -5.29987 0
M  V30 7336 H 734.647 0.209267 -2.93154 0
M  V30 7337 H 732.161 0.0150444 -1.62393 0
M  V30 7338 H 734.158 2.65779 -3.21197 0
M  V30 7339 H 732.818 2.52369 -2.04303 0
M  V30 7340 H 733.829 0.52355 -5.15247 0
M  V30 7341 H 730.506 2.41992 -3.40215 0
M  V30 7342 H 731.896 0.109273 -6.71811 0
M  V30 7343 N 734.616 1.57351 0.0885366 0
M  V30 7344 C 735.563 2.02523 1.10693 0
M  V30 7345 C 736.533 0.902736 1.39427 0
M  V30 7346 O 737.718 1.16921 1.50779 0
M  V30 7347 C 734.858 2.46013 2.42016 0
M  V30 7348 C 733.971 3.7181 2.19957 0
M  V30 7349 C 733.106 4.04152 3.44724 0
M  V30 7350 C 732.145 5.2304 3.17956 0
M  V30 7351 N 731.282 5.51102 4.35007 0
M  V30 7352 H 736.122 2.89302 0.714742 0
M  V30 7353 H 733.659 1.43084 0.341378 0
M  V30 7354 H 735.617 2.69274 3.18665 0
M  V30 7355 H 734.247 1.62235 2.79069 0
M  V30 7356 H 733.299 3.55987 1.34079 0
M  V30 7357 H 734.611 4.58604 1.96173 0
M  V30 7358 H 733.765 4.28225 4.29777 0
M  V30 7359 H 732.504 3.15893 3.71568 0
M  V30 7360 H 731.509 4.98781 2.31296 0
M  V30 7361 H 732.734 6.12902 2.92451 0
M  V30 7362 H 730.68 4.65802 4.61914 0
M  V30 7363 H 730.597 6.3228 4.14437 0
M  V30 7364 H 731.865 5.79714 5.21106 0
M  V30 7365 N 736.094 -0.359525 1.53444 0
M  V30 7366 C 737.026 -1.46098 1.76602 0
M  V30 7367 C 738.039 -1.49395 0.646912 0
M  V30 7368 O 739.228 -1.52765 0.923307 0
M  V30 7369 C 736.328 -2.84836 1.83635 0
M  V30 7370 C 735.501 -3.05164 3.13358 0
M  V30 7371 C 734.56 -4.24051 3.11556 0
M  V30 7372 O 733.586 -4.18935 3.85334 0
M  V30 7373 N 734.788 -5.31775 2.328 0
M  V30 7374 H 737.553 -1.2661 2.71643 0
M  V30 7375 H 735.114 -0.549294 1.52297 0
M  V30 7376 H 737.106 -3.62516 1.799 0
M  V30 7377 H 735.676 -2.97542 0.958509 0
M  V30 7378 H 734.896 -2.15091 3.30348 0
M  V30 7379 H 736.184 -3.15619 3.99076 0
M  V30 7380 H 735.582 -5.38796 1.7238 0
M  V30 7381 H 734.139 -6.0801 2.34877 0
M  V30 7382 N 737.572 -1.44907 -0.619662 0
M  V30 7383 C 738.802 -1.51575 -1.40387 0
M  V30 7384 C 739.21 -0.14309 -1.88658 0
M  V30 7385 O 738.553 0.863403 -1.62145 0
M  V30 7386 C 738.615 -2.42858 -2.65067 0
M  V30 7387 C 738.279 -3.8982 -2.38515 0
M  V30 7388 C 739.276 -4.80047 -1.99627 0
M  V30 7389 C 736.961 -4.34628 -2.51801 0
M  V30 7390 C 738.955 -6.13086 -1.74369 0
M  V30 7391 C 736.642 -5.67712 -2.26156 0
M  V30 7392 C 737.64 -6.56759 -1.875 0
M  V30 7393 O 737.328 -7.87377 -1.62148 0
M  V30 7394 H 737.06 -0.51612 -0.436573 0
M  V30 7395 H 739.614 -1.90664 -0.763959 0
M  V30 7396 H 737.844 -1.98717 -3.31735 0
M  V30 7397 H 739.533 -2.40346 -3.27091 0
M  V30 7398 H 740.299 -4.46697 -1.8891 0
M  V30 7399 H 736.178 -3.65568 -2.80857 0
M  V30 7400 H 739.722 -6.8255 -1.44122 0
M  V30 7401 H 735.619 -6.0062 -2.36486 0
M  V30 7402 H 736.387 -7.99288 -1.763 0
M  V30 7403 N 739.05 0.861098 -1.31996 0
M  V30 7404 C 740.013 1.95068 -1.20338 0
M  V30 7405 C 741.013 1.60289 -0.128114 0
M  V30 7406 O 742.203 1.70048 -0.378044 0
M  V30 7407 C 739.335 3.30153 -0.849205 0
M  V30 7408 H 740.528 2.06833 -2.17164 0
M  V30 7409 H 738.081 1.05049 -1.15734 0
M  V30 7410 H 738.816 3.24087 0.117508 0
M  V30 7411 H 738.601 3.56771 -1.62655 0
M  V30 7412 H 740.091 4.10025 -0.791782 0
M  V30 7413 N 740.528 1.15101 1.07655 0
M  V30 7414 C 741.939 0.933848 1.61667 0
M  V30 7415 C 742.29 -0.525569 1.8903 0
M  V30 7416 O 741.415 -1.39605 1.65346 0
M  V30 7417 C 742.01 1.68876 2.93711 0
M  V30 7418 C 740.569 1.51697 3.44478 0
M  V30 7419 C 739.716 1.70633 2.18586 0
M  V30 7420 H 742.667 1.30171 0.907816 0
M  V30 7421 H 742.688 1.15645 3.625 0
M  V30 7422 H 742.2 2.7509 2.73764 0
M  V30 7423 H 740.301 0.478635 3.69513 0
M  V30 7424 H 740.414 2.29194 4.20722 0
M  V30 7425 H 738.778 1.13259 2.28132 0
M  V30 7426 H 739.561 2.78206 2.01137 0
M  V30 7427 N 742.006 -1.2595 0.947325 0
M  V30 7428 C 743.422 -1.45737 0.650597 0
M  V30 7429 C 743.622 -1.85189 -0.794188 0
M  V30 7430 O 742.678 -1.97738 -1.57022 0
M  V30 7431 C 743.991 -2.53505 1.61728 0
M  V30 7432 C 745.539 -2.67351 1.62765 0
M  V30 7433 C 746.014 -3.78296 2.58179 0
M  V30 7434 N 747.505 -3.85696 2.56501 0
M  V30 7435 C 748.24 -4.71012 3.2701 0
M  V30 7436 N 747.736 -5.60669 4.06966 0
M  V30 7437 N 749.529 -4.64912 3.15932 0
M  V30 7438 H 741.68 -0.986327 1.8811 0
M  V30 7439 H 743.943 -0.494639 0.808725 0
M  V30 7440 H 743.649 -2.31357 2.6489 0
M  V30 7441 H 743.523 -3.51281 1.3741 0
M  V30 7442 H 745.91 -2.88869 0.603241 0
M  V30 7443 H 745.991 -1.69998 1.91139 0
M  V30 7444 H 745.635 -3.5753 3.60742 0
M  V30 7445 H 745.565 -4.75117 2.27093 0
M  V30 7446 H 748.056 -3.21601 1.98447 0
M  V30 7447 H 748.369 -6.22677 4.57704 0
M  V30 7448 H 746.714 -5.60402 4.11066 0
M  V30 7449 H 749.905 -3.93874 2.52945 0
M  V30 7450 H 750.078 -5.3118 3.71149 0
M  V30 7451 N 743.484 -0.715051 -1.40445 0
M  V30 7452 C 744.724 -0.258742 -2.02756 0
M  V30 7453 C 745.088 1.12661 -1.55472 0
M  V30 7454 O 746.289 1.67988 -2.09842 0
M  V30 7455 C 744.56 -0.335201 -3.55825 0
M  V30 7456 S 746.119 0.044201 -4.38778 0
M  V30 7457 H 742.937 -0.102683 -0.703546 0
M  V30 7458 H 745.539 -0.937151 -1.71574 0
M  V30 7459 H 744.243 -1.34511 -3.87731 0
M  V30 7460 H 743.774 0.361705 -3.91734 0
M  V30 7461 H 745.789 1.26639 -4.79768 0
M  V30 7462 N 744.962 1.50701 -0.461195 0
M  V30 7463 C 746.187 2.07171 0.0974773 0
M  V30 7464 C 746.612 1.32391 1.3362 0
M  V30 7465 O 745.97 0.368676 1.77512 0
M  V30 7466 C 746.018 3.58651 0.374409 0
M  V30 7467 O 745.122 3.85816 1.4567 0
M  V30 7468 H 744.463 0.663944 -0.00862047 0
M  V30 7469 H 746.993 1.94021 -0.649394 0
M  V30 7470 H 747.003 4.03295 0.617843 0
M  V30 7471 H 745.678 4.12498 -0.530829 0
M  V30 7472 H 744.255 3.53018 1.20136 0
M  V30 7473 N 746.441 0.193421 1.56409 0
M  V30 7474 C 747.687 -0.446449 1.97825 0
M  V30 7475 C 748.02 -1.61386 1.08019 0
M  V30 7476 O 747.295 -1.94053 0.131839 0
M  V30 7477 C 747.578 -0.908199 3.48459 0
M  V30 7478 C 747.431 0.260914 4.49043 0
M  V30 7479 C 748.75 -1.77428 4.0275 0
M  V30 7480 H 745.869 -0.160807 0.719243 0
M  V30 7481 H 748.511 0.284006 1.87865 0
M  V30 7482 H 746.661 -1.53062 3.57077 0
M  V30 7483 H 748.333 0.898548 4.52464 0
M  V30 7484 H 746.576 0.912949 4.24085 0
M  V30 7485 H 747.247 -0.104657 5.51901 0
M  V30 7486 H 749.723 -1.24936 3.96901 0
M  V30 7487 H 748.599 -2.06633 5.08521 0
M  V30 7488 H 748.86 -2.72788 3.47907 0
M  V30 7489 N 747.919 -1.57396 -0.0801906 0
M  V30 7490 C 749.159 -1.88668 -0.786367 0
M  V30 7491 C 749.523 -0.786216 -1.75165 0
M  V30 7492 O 750.724 -0.981769 -2.50229 0
M  V30 7493 C 748.995 -3.25176 -1.48308 0
M  V30 7494 S 750.554 -3.78177 -2.22549 0
M  V30 7495 H 747.372 -0.661094 -0.261679 0
M  V30 7496 H 749.974 -1.95453 -0.0428196 0
M  V30 7497 H 748.678 -4.03176 -0.766629 0
M  V30 7498 H 748.209 -3.21567 -2.26623 0
M  V30 7499 H 750.224 -3.52789 -3.48934 0
M  V30 7500 N 749.397 0.351382 -1.53633 0
M  V30 7501 C 750.622 1.11718 -1.74739 0
M  V30 7502 C 751.047 1.81829 -0.481657 0
M  V30 7503 O 750.405 1.72264 0.565233 0
M  V30 7504 C 750.453 2.11234 -2.92254 0
M  V30 7505 O 749.557 3.186 -2.61855 0
M  V30 7506 H 748.898 0.323482 -0.579875 0
M  V30 7507 H 751.428 0.404167 -2.00568 0
M  V30 7508 H 751.438 2.54591 -3.18822 0
M  V30 7509 H 750.113 1.59599 -3.84058 0
M  V30 7510 H 748.69 2.80115 -2.4615 0
M  V30 7511 N 750.875 1.45233 0.611969 0
M  V30 7512 C 751.785 1.56098 1.7513 0
M  V30 7513 C 752.801 0.445646 1.68196 0
M  V30 7514 O 753.977 0.705718 1.88631 0
M  V30 7515 C 751.042 1.52052 3.11579 0
M  V30 7516 C 750.103 2.74589 3.29999 0
M  V30 7517 C 749.336 2.70726 4.59938 0
M  V30 7518 O 749.559 1.77806 5.41979 0
M  V30 7519 O 748.493 3.61864 4.80976 0
M  V30 7520 H 752.319 2.52392 1.68914 0
M  V30 7521 H 749.904 1.27695 0.775528 0
M  V30 7522 H 751.786 1.52387 3.92882 0
M  V30 7523 H 750.461 0.589085 3.18295 0
M  V30 7524 H 749.368 2.79817 2.48301 0
M  V30 7525 H 750.701 3.66843 3.28157 0
M  V30 7526 N 752.353 -0.854086 1.3245 0
M  V30 7527 C 753.764 -1.42427 1.20712 0
M  V30 7528 C 754.115 -1.95371 -0.18013 0
M  V30 7529 O 753.24 -1.87587 -1.07889 0
M  V30 7530 C 753.835 -2.58897 2.18536 0
M  V30 7531 C 752.394 -3.11913 2.10683 0
M  V30 7532 C 751.541 -1.84661 2.06871 0
M  V30 7533 H 754.492 -0.661192 1.4427 0
M  V30 7534 H 754.513 -3.36074 1.78422 0
M  V30 7535 H 754.025 -2.20333 3.19492 0
M  V30 7536 H 752.126 -3.55059 1.12977 0
M  V30 7537 H 752.239 -3.73119 3.00532 0
M  V30 7538 H 750.603 -2.04285 1.52118 0
M  V30 7539 H 751.386 -1.48314 3.09609 0
M  V30 7540 N 753.831 -1.1567 -1.07043 0
M  V30 7541 C 755.08 -0.928039 -1.79082 0
M  V30 7542 C 755.393 0.545968 -1.87826 0
M  V30 7543 O 756.599 0.892308 -2.56418 0
M  V30 7544 C 755.055 -1.61103 -3.21829 0
M  V30 7545 C 754.663 -3.12228 -3.21275 0
M  V30 7546 C 756.407 -1.46404 -3.98455 0
M  V30 7547 C 754.314 -3.733 -4.58695 0
M  V30 7548 H 753.244 -0.34357 -0.671175 0
M  V30 7549 H 755.895 -1.38718 -1.20123 0
M  V30 7550 H 754.277 -1.07958 -3.81 0
M  V30 7551 H 755.451 -3.72155 -2.71731 0
M  V30 7552 H 753.766 -3.26725 -2.58147 0
M  V30 7553 H 756.363 -1.8942 -5.00024 0
M  V30 7554 H 756.706 -0.41195 -4.14257 0
M  V30 7555 H 757.239 -1.96663 -3.45787 0
M  V30 7556 H 753.978 -4.78423 -4.48098 0
M  V30 7557 H 753.498 -3.18157 -5.08465 0
M  V30 7558 H 755.177 -3.7441 -5.27661 0
M  V30 7559 N 755.309 1.25446 -0.953992 0
M  V30 7560 C 756.242 2.24341 -0.417912 0
M  V30 7561 C 757.22 1.54709 0.5004 0
M  V30 7562 O 758.404 1.83414 0.434923 0
M  V30 7563 C 755.531 3.36352 0.398155 0
M  V30 7564 C 754.577 4.24007 -0.460461 0
M  V30 7565 S 755.41 5.00951 -1.89231 0
M  V30 7566 C 756.566 6.1643 -1.08465 0
M  V30 7567 H 756.799 2.69465 -1.25602 0
M  V30 7568 H 754.332 1.34512 -0.758018 0
M  V30 7569 H 756.29 4.01325 0.863059 0
M  V30 7570 H 754.951 2.89813 1.21108 0
M  V30 7571 H 754.144 5.03728 0.165415 0
M  V30 7572 H 753.746 3.63965 -0.860549 0
M  V30 7573 H 756.038 6.76681 -0.333017 0
M  V30 7574 H 756.981 6.8335 -1.85577 0
M  V30 7575 H 757.389 5.61139 -0.615062 0
M  V30 7576 N 756.787 0.722489 1.40064 0
M  V30 7577 C 758.198 0.336507 1.83642 0
M  V30 7578 C 758.549 -1.13002 1.6039 0
M  V30 7579 O 757.674 -1.87036 1.08842 0
M  V30 7580 C 758.269 0.603985 3.33373 0
M  V30 7581 C 756.828 0.271637 3.75419 0
M  V30 7582 C 755.975 0.872898 2.63203 0
M  V30 7583 H 758.926 0.921108 1.29233 0
M  V30 7584 H 758.947 -0.128471 3.80283 0
M  V30 7585 H 758.459 1.67141 3.50265 0
M  V30 7586 H 756.56 -0.790455 3.64119 0
M  V30 7587 H 756.673 0.745457 4.73265 0
M  V30 7588 H 755.037 0.300431 2.52922 0
M  V30 7589 H 755.82 1.94473 2.82905 0
M  V30 7590 N 758.265 -1.50454 0.469181 0
M  V30 7591 C 759.175 -2.32248 -0.331349 0
M  V30 7592 C 760.191 -1.42548 -0.997807 0
M  V30 7593 O 761.367 -1.75602 -0.9862 0
M  V30 7594 C 758.432 -3.17171 -1.40012 0
M  V30 7595 C 757.493 -4.2269 -0.750463 0
M  V30 7596 C 756.726 -5.03554 -1.76831 0
M  V30 7597 O 756.949 -4.85469 -2.99459 0
M  V30 7598 O 755.883 -5.86767 -1.3412 0
M  V30 7599 H 759.709 -3.01821 0.337279 0
M  V30 7600 H 757.294 -1.47602 0.231066 0
M  V30 7601 H 759.176 -3.69871 -2.01924 0
M  V30 7602 H 757.851 -2.50328 -2.05226 0
M  V30 7603 H 756.758 -3.73986 -0.0924446 0
M  V30 7604 H 758.091 -4.91997 -0.14131 0
M  V30 7605 N 759.743 -0.201713 -1.56304 0
M  V30 7606 C 761.154 0.309711 -1.84113 0
M  V30 7607 C 761.505 1.60912 -1.12258 0
M  V30 7608 O 760.63 2.12937 -0.385587 0
M  V30 7609 C 761.225 0.568706 -3.33993 0
M  V30 7610 C 759.784 1.02448 -3.6219 0
M  V30 7611 C 758.931 0.0766842 -2.77194 0
M  V30 7612 H 761.882 -0.425356 -1.52893 0
M  V30 7613 H 761.903 1.41721 -3.53122 0
M  V30 7614 H 761.415 -0.37719 -3.86263 0
M  V30 7615 H 759.516 1.98443 -3.15359 0
M  V30 7616 H 759.629 0.912619 -4.70328 0
M  V30 7617 H 757.993 0.579809 -2.48013 0
M  V30 7618 H 758.776 -0.863774 -3.32256 0
M  V30 7619 N 761.222 1.57436 0.0718424 0
M  V30 7620 C 762.47 1.86878 0.769484 0
M  V30 7621 C 762.791 0.7937 1.78116 0
M  V30 7622 O 762.061 -0.177642 1.95093 0
M  V30 7623 H 760.641 0.689593 0.287177 0
M  V30 7624 H 763.303 1.94841 0.0479427 0
M  V30 7625 H 762.399 2.84387 1.28572 0
M  V30 7626 N 762.7 -0.34323 1.53817 0
M  V30 7627 C 764.116 -0.686355 1.44088 0
M  V30 7628 C 764.316 -1.92426 0.597882 0
M  V30 7629 O 763.372 -2.52343 0.0889918 0
M  V30 7630 C 764.685 -0.878698 2.87575 0
M  V30 7631 C 766.233 -0.977296 2.97352 0
M  V30 7632 C 766.708 -1.20195 4.41947 0
M  V30 7633 N 768.199 -1.26915 4.45474 0
M  V30 7634 C 768.934 -1.46049 5.54488 0
M  V30 7635 N 768.43 -1.62354 6.73508 0
M  V30 7636 N 770.223 -1.48599 5.42102 0
M  V30 7637 H 762.374 0.470679 2.07119 0
M  V30 7638 H 764.637 0.148652 0.936273 0
M  V30 7639 H 764.343 -0.040602 3.51677 0
M  V30 7640 H 764.217 -1.78034 3.32541 0
M  V30 7641 H 766.604 -1.80591 2.3339 0
M  V30 7642 H 766.685 -0.0525498 2.55746 0
M  V30 7643 H 766.329 -0.378262 5.06489 0
M  V30 7644 H 766.259 -2.14027 4.81145 0
M  V30 7645 H 768.75 -1.15837 3.59708 0
M  V30 7646 H 769.063 -1.76591 7.52353 0
M  V30 7647 H 767.408 -1.5949 6.76453 0
M  V30 7648 H 770.599 -1.35443 4.48077 0
M  V30 7649 H 770.772 -1.6317 6.2712 0
M  V30 7650 N 764.178 -1.45556 -0.604258 0
M  V30 7651 C 765.455 -1.40221 -1.36373 0
M  V30 7652 C 765.835 -0.0745195 -2.10968 0
M  V30 7653 O 765.183 0.943594 -2.08107 0
M  V30 7654 C 765.393 -2.61807 -2.30777 0
M  V30 7655 C 766.741 -3.07037 -2.93281 0
M  V30 7656 O 767.765 -2.62203 -2.41097 0
M  V30 7657 O 766.624 -3.8485 -3.88011 0
M  V30 7658 H 763.718 -0.556602 -0.611656 0
M  V30 7659 H 766.264 -1.57689 -0.627069 0
M  V30 7660 H 765.036 -3.50017 -1.74939 0
M  V30 7661 H 764.659 -2.46688 -3.11818 0
M  V30 7662 N 765.656 0.84705 -1.32902 0
M  V30 7663 C 766.566 1.98845 -1.2449 0
M  V30 7664 C 767.582 1.7329 -0.15702 0
M  V30 7665 O 768.758 1.978 -0.379104 0
M  V30 7666 C 765.823 3.32679 -0.975985 0
M  V30 7667 C 764.884 3.71405 -2.15306 0
M  V30 7668 C 764.117 4.98853 -1.89688 0
M  V30 7669 O 764.34 5.64134 -0.843168 0
M  V30 7670 O 763.274 5.34889 -2.76002 0
M  V30 7671 H 767.1 2.0888 -2.2046 0
M  V30 7672 H 764.685 0.978852 -1.12867 0
M  V30 7673 H 766.567 4.12885 -0.842826 0
M  V30 7674 H 765.242 3.23667 -0.0464954 0
M  V30 7675 H 764.149 2.91743 -2.34172 0
M  V30 7676 H 765.482 3.85073 -3.06561 0
M  V30 7677 N 767.134 1.16236 1.06428 0
M  V30 7678 C 768.362 0.967184 1.82902 0
M  V30 7679 C 768.777 -0.484601 1.82475 0
M  V30 7680 O 768.134 -1.33631 1.24294 0
M  V30 7681 C 768.185 1.48534 3.29576 0
M  V30 7682 O 767.906 2.88026 3.3011 0
M  V30 7683 C 769.407 1.33298 4.22784 0
M  V30 7684 H 766.627 0.342923 0.576754 0
M  V30 7685 H 769.171 1.54232 1.34286 0
M  V30 7686 H 767.326 0.952513 3.75508 0
M  V30 7687 H 767.74 3.11721 4.21818 0
M  V30 7688 H 769.214 1.74385 5.23731 0
M  V30 7689 H 769.691 0.278356 4.38317 0
M  V30 7690 H 770.297 1.85535 3.82697 0
M  V30 7691 N 768.612 -1.24939 0.960631 0
M  V30 7692 C 769.858 -1.93104 0.61958 0
M  V30 7693 C 770.191 -1.74991 -0.84212 0
M  V30 7694 O 769.466 -1.09867 -1.60498 0
M  V30 7695 C 769.749 -3.46326 0.986422 0
M  V30 7696 C 769.602 -3.73638 2.50429 0
M  V30 7697 C 770.921 -4.37067 0.515827 0
M  V30 7698 H 768.04 -0.701311 0.226566 0
M  V30 7699 H 770.682 -1.47442 1.19836 0
M  V30 7700 H 768.832 -3.85348 0.493907 0
M  V30 7701 H 770.504 -3.44217 3.07103 0
M  V30 7702 H 768.747 -3.19035 2.93937 0
M  V30 7703 H 769.418 -4.80815 2.71147 0
M  V30 7704 H 771.894 -4.05381 0.938389 0
M  V30 7705 H 770.77 -5.43022 0.80114 0
M  V30 7706 H 771.031 -4.38224 -0.584171 0
M  V30 7707 N 770.09 -0.729906 -1.39679 0
M  V30 7708 C 771.506 -0.404951 -1.54377 0
M  V30 7709 C 771.706 1.08476 -1.6981 0
M  V30 7710 O 770.762 1.87087 -1.69572 0
M  V30 7711 C 772.075 -1.18352 -2.76429 0
M  V30 7712 C 773.623 -1.17124 -2.9026 0
M  V30 7713 C 774.098 -1.93227 -4.15244 0
M  V30 7714 N 775.589 -1.90368 -4.22273 0
M  V30 7715 C 776.324 -2.46065 -5.17918 0
M  V30 7716 N 775.82 -3.10378 -6.19385 0
M  V30 7717 N 777.613 -2.36127 -5.10099 0
M  V30 7718 H 769.764 -1.69567 -1.27909 0
M  V30 7719 H 772.027 -0.717527 -0.619564 0
M  V30 7720 H 771.733 -2.23743 -2.71352 0
M  V30 7721 H 771.607 -0.784589 -3.6895 0
M  V30 7722 H 773.994 -0.125478 -2.94833 0
M  V30 7723 H 774.075 -1.60951 -1.98817 0
M  V30 7724 H 773.719 -2.97802 -4.11432 0
M  V30 7725 H 773.649 -1.4681 -5.05722 0
M  V30 7726 H 776.14 -1.4351 -3.4959 0
M  V30 7727 H 776.453 -3.50358 -6.88817 0
M  V30 7728 H 774.798 -3.14467 -6.19787 0
M  V30 7729 H 777.989 -1.85529 -4.29763 0
M  V30 7730 H 778.162 -2.79833 -5.84463 0
M  V30 7731 N 771.568 1.50203 -0.477153 0
M  V30 7732 C 772.814 2.02658 0.0758507 0
M  V30 7733 C 773.147 1.358 1.38824 0
M  V30 7734 O 772.422 0.485696 1.88338 0
M  V30 7735 C 772.705 3.59208 0.253339 0
M  V30 7736 C 772.558 4.36629 -1.0805 0
M  V30 7737 C 773.877 4.28469 1.00509 0
M  V30 7738 H 770.996 0.736538 0.0260921 0
M  V30 7739 H 773.638 1.79464 -0.623925 0
M  V30 7740 H 771.788 3.79101 0.849378 0
M  V30 7741 H 773.46 4.28292 -1.71358 0
M  V30 7742 H 771.703 4.0013 -1.67566 0
M  V30 7743 H 772.374 5.44449 -0.909883 0
M  V30 7744 H 774.85 4.13087 0.499818 0
M  V30 7745 H 773.726 5.37804 1.09808 0
M  V30 7746 H 773.987 3.92057 2.04314 0
M  V30 7747 N 773.046 0.209999 1.56195 0
M  V30 7748 C 774.292 -0.425442 1.98287 0
M  V30 7749 C 774.625 -1.60232 1.09724 0
M  V30 7750 O 773.9 -1.93902 0.152414 0
M  V30 7751 C 774.183 -0.871189 3.49403 0
M  V30 7752 C 774.036 0.308527 4.48741 0
M  V30 7753 C 775.355 -1.73146 4.04609 0
M  V30 7754 H 772.474 -0.153169 0.720908 0
M  V30 7755 H 775.116 0.303916 1.87554 0
M  V30 7756 H 773.266 -1.49266 3.58681 0
M  V30 7757 H 774.938 0.946487 4.51486 0
M  V30 7758 H 773.181 0.957878 4.23092 0
M  V30 7759 H 773.852 -0.0461143 5.51981 0
M  V30 7760 H 776.328 -1.2072 3.98203 0
M  V30 7761 H 775.204 -2.01228 5.10684 0
M  V30 7762 H 775.465 -2.69083 3.5078 0
M  V30 7763 N 774.524 -1.57472 -0.0634922 0
M  V30 7764 C 775.487 -2.03268 -1.059 0
M  V30 7765 C 776.487 -0.931028 -1.31105 0
M  V30 7766 O 777.677 -1.19567 -1.26686 0
M  V30 7767 C 774.809 -2.42039 -2.40062 0
M  V30 7768 H 776.002 -2.92454 -0.664119 0
M  V30 7769 H 773.555 -1.53206 -0.309444 0
M  V30 7770 H 774.29 -1.55904 -2.84367 0
M  V30 7771 H 774.075 -3.22437 -2.23108 0
M  V30 7772 H 775.565 -2.78017 -3.11603 0
M  V30 7773 N 776.003 0.335068 -1.53997 0
M  V30 7774 C 776.933 1.41727 -1.85568 0
M  V30 7775 C 777.914 1.54505 -0.7115 0
M  V30 7776 O 779.099 1.68573 -0.964191 0
M  V30 7777 C 776.229 2.7866 -2.07282 0
M  V30 7778 C 775.183 2.80682 -3.23112 0
M  V30 7779 C 774.509 4.20581 -3.30175 0
M  V30 7780 C 775.809 2.45458 -4.61029 0
M  V30 7781 H 777.503 1.15555 -2.76202 0
M  V30 7782 H 775.049 0.554445 -1.32898 0
M  V30 7783 H 777.002 3.54423 -2.27952 0
M  V30 7784 H 775.726 3.06286 -1.13387 0
M  V30 7785 H 774.385 2.07373 -3.02311 0
M  V30 7786 H 774.033 4.4533 -2.33859 0
M  V30 7787 H 773.733 4.22843 -4.08016 0
M  V30 7788 H 775.257 4.98174 -3.53066 0
M  V30 7789 H 776.671 3.10934 -4.81656 0
M  V30 7790 H 775.068 2.5899 -5.41336 0
M  V30 7791 H 776.138 1.40628 -4.6406 0
M  V30 7792 N 777.481 1.45874 0.596531 0
M  V30 7793 C 778.758 1.40942 1.35627 0
M  V30 7794 C 779.138 0.0857066 2.10926 0
M  V30 7795 O 778.486 -0.932544 2.08605 0
M  V30 7796 C 778.696 2.63027 2.29386 0
M  V30 7797 C 780.044 3.08588 2.91649 0
M  V30 7798 O 781.068 2.63478 2.39704 0
M  V30 7799 O 779.927 3.86902 3.85965 0
M  V30 7800 H 777.021 0.559838 0.608696 0
M  V30 7801 H 779.567 1.5802 0.618698 0
M  V30 7802 H 778.339 3.5094 1.7308 0
M  V30 7803 H 777.962 2.48338 3.10506 0
M  V30 7804 N 778.959 -0.83999 1.33349 0
M  V30 7805 C 779.906 -1.94972 1.23509 0
M  V30 7806 C 780.876 -1.65709 0.113967 0
M  V30 7807 O 782.061 -1.88552 0.292045 0
M  V30 7808 C 779.201 -3.30919 0.979105 0
M  V30 7809 C 778.314 -3.72587 2.18639 0
M  V30 7810 C 777.449 -4.97397 1.86465 0
M  V30 7811 C 776.488 -5.31597 3.03432 0
M  V30 7812 N 775.625 -6.47584 2.71254 0
M  V30 7813 H 780.465 -2.0272 2.18423 0
M  V30 7814 H 778.002 -0.992017 1.08616 0
M  V30 7815 H 779.96 -4.09239 0.811126 0
M  V30 7816 H 778.59 -3.22731 0.0667099 0
M  V30 7817 H 777.642 -2.89799 2.46416 0
M  V30 7818 H 778.954 -3.93844 3.06086 0
M  V30 7819 H 778.108 -5.83462 1.66305 0
M  V30 7820 H 776.847 -4.78107 0.96254 0
M  V30 7821 H 775.852 -4.44037 3.24208 0
M  V30 7822 H 777.077 -5.52836 3.94397 0
M  V30 7823 H 775.023 -6.29783 1.836 0
M  V30 7824 H 774.94 -6.68931 3.52231 0
M  V30 7825 H 776.208 -7.36764 2.54558 0
M  V30 7826 N 780.437 -1.16799 -1.0581 0
M  V30 7827 C 781.385 -0.875111 -2.1551 0
M  V30 7828 C 782.379 0.157781 -1.68664 0
M  V30 7829 O 783.585 0.011297 -1.79996 0
M  V30 7830 H 779.96 -0.26542 -0.703602 0
M  V30 7831 H 781.931 -1.8076 -2.37421 0
M  V30 7832 C 780.68 -0.39802 -3.45414 0
M  V30 7833 H 780.003 -1.18425 -3.81858 0
M  V30 7834 H 781.443 -0.231913 -4.23365 0
M  V30 7835 C 779.902 0.88327 -3.25115 0
M  V30 7836 O 780.432 1.95145 -3.51114 0
M  V30 7837 N 778.638 0.828961 -2.78526 0
M  V30 7838 H 778.185 -0.0405029 -2.57568 0
M  V30 7839 H 778.143 1.68673 -2.65324 0
M  V30 7840 N 781.915 1.24427 -0.967243 0
M  V30 7841 C 783.162 1.92487 -0.62888 0
M  V30 7842 C 783.49 1.75623 0.835871 0
M  V30 7843 O 782.745 1.1027 1.61675 0
M  V30 7844 C 783.044 3.44568 -0.949096 0
M  V30 7845 C 782.71 3.816 -2.40192 0
M  V30 7846 C 781.372 3.9142 -2.799 0
M  V30 7847 C 783.724 3.99715 -3.34481 0
M  V30 7848 C 781.052 4.16771 -4.12939 0
M  V30 7849 C 783.404 4.26562 -4.67148 0
M  V30 7850 C 782.068 4.34601 -5.06634 0
M  V30 7851 H 781.338 0.704361 -0.230124 0
M  V30 7852 H 783.985 1.4772 -1.21864 0
M  V30 7853 H 782.29 3.90819 -0.277085 0
M  V30 7854 H 783.987 3.95436 -0.665692 0
M  V30 7855 H 780.577 3.74522 -2.08402 0
M  V30 7856 H 784.761 3.91531 -3.04987 0
M  V30 7857 H 780.017 4.21214 -4.43158 0
M  V30 7858 H 784.191 4.39523 -5.40178 0
M  V30 7859 H 781.818 4.53998 -6.09746 0
M  V30 7860 N 783.393 0.737304 1.3929 0
M  V30 7861 C 784.343 0.0748537 2.27877 0
M  V30 7862 C 785.327 -0.71022 1.44377 0
M  V30 7863 O 786.519 -0.578851 1.67267 0
M  V30 7864 C 783.648 -0.82991 3.33118 0
M  V30 7865 C 782.734 -0.0388619 4.24082 0
M  V30 7866 N 783.125 0.989182 4.96033 0
M  V30 7867 C 781.423 -0.268167 4.45193 0
M  V30 7868 C 782.124 1.46639 5.62914 0
M  V30 7869 N 781.1 0.784581 5.37908 0
M  V30 7870 H 784.902 0.862457 2.80961 0
M  V30 7871 H 782.416 0.571845 1.51999 0
M  V30 7872 H 784.413 -1.31999 3.95452 0
M  V30 7873 H 783.073 -1.61665 2.81593 0
M  V30 7874 H 784.084 1.3706 4.99435 0
M  V30 7875 H 780.761 -1.02953 4.04607 0
M  V30 7876 H 782.151 2.32182 6.30508 0
M  V30 7877 N 784.871 -1.49948 0.485112 0
M  V30 7878 C 785.804 -2.25531 -0.348027 0
M  V30 7879 C 786.782 -1.29433 -0.984172 0
M  V30 7880 O 787.966 -1.58687 -1.01738 0
M  V30 7881 C 785.093 -3.04225 -1.48878 0
M  V30 7882 C 784.139 -4.15355 -0.968616 0
M  V30 7883 S 784.972 -5.35347 0.127934 0
M  V30 7884 C 786.128 -6.17593 -1.01637 0
M  V30 7885 H 786.361 -2.95847 0.293529 0
M  V30 7886 H 783.894 -1.52018 0.27018 0
M  V30 7887 H 785.852 -3.50153 -2.14251 0
M  V30 7888 H 784.513 -2.33407 -2.1019 0
M  V30 7889 H 783.706 -4.69873 -1.82305 0
M  V30 7890 H 783.308 -3.71936 -0.392377 0
M  V30 7891 H 785.6 -6.49576 -1.92503 0
M  V30 7892 H 786.543 -7.0626 -0.510149 0
M  V30 7893 H 786.951 -5.49877 -1.27653 0
M  V30 7894 N 786.349 -0.21828 -1.56081 0
M  V30 7895 C 787.296 0.693189 -2.20144 0
M  V30 7896 C 788.266 1.19274 -1.15598 0
M  V30 7897 O 789.451 1.25243 -1.4394 0
M  V30 7898 C 786.591 1.89715 -2.88275 0
M  V30 7899 C 785.704 1.4368 -4.07407 0
M  V30 7900 C 784.839 2.59807 -4.63329 0
M  V30 7901 C 783.878 2.10492 -5.74769 0
M  V30 7902 N 783.015 3.1988 -6.24997 0
M  V30 7903 H 787.855 0.14016 -2.9767 0
M  V30 7904 H 785.392 0.0574292 -1.46988 0
M  V30 7905 H 787.35 2.60398 -3.25958 0
M  V30 7906 H 785.98 2.42311 -2.13273 0
M  V30 7907 H 785.032 0.625007 -3.7523 0
M  V30 7908 H 786.344 1.03517 -4.8794 0
M  V30 7909 H 785.498 3.38577 -5.03438 0
M  V30 7910 H 784.237 3.03256 -3.81951 0
M  V30 7911 H 783.242 1.30182 -5.34165 0
M  V30 7912 H 784.467 1.68045 -6.5798 0
M  V30 7913 H 782.413 3.62817 -5.46534 0
M  V30 7914 H 782.33 2.83958 -7.00645 0
M  V30 7915 H 783.598 3.98796 -6.69763 0
M  V30 7916 N 787.827 1.57504 0.0551401 0
M  V30 7917 C 789.067 1.89895 0.756252 0
M  V30 7918 C 789.431 0.813983 1.73892 0
M  V30 7919 O 790.632 1.02145 2.48636 0
M  V30 7920 C 788.903 3.27494 1.43116 0
M  V30 7921 S 790.462 3.81669 2.16504 0
M  V30 7922 H 787.28 0.665173 0.251129 0
M  V30 7923 H 789.882 1.95496 0.0117193 0
M  V30 7924 H 788.586 4.04345 0.702391 0
M  V30 7925 H 788.117 3.25132 2.21479 0
M  V30 7926 H 790.132 3.58295 3.43277 0
M  V30 7927 N 789.305 -0.326896 1.54172 0
M  V30 7928 C 790.535 -1.08328 1.75922 0
M  V30 7929 C 790.943 -1.82302 0.50622 0
M  V30 7930 O 790.286 -1.7581 -0.532581 0
M  V30 7931 C 790.348 -2.1294 2.8965 0
M  V30 7932 C 790.012 -1.58394 4.28673 0
M  V30 7933 C 791.009 -1.02747 5.09646 0
M  V30 7934 C 788.694 -1.62737 4.75207 0
M  V30 7935 C 790.688 -0.52169 6.35261 0
M  V30 7936 C 788.375 -1.11772 6.00791 0
M  V30 7937 C 789.373 -0.565819 6.80652 0
M  V30 7938 O 789.061 -0.0638146 8.03875 0
M  V30 7939 H 788.793 -0.3282 0.590983 0
M  V30 7940 H 791.347 -0.37972 2.0186 0
M  V30 7941 H 789.577 -2.86903 2.59275 0
M  V30 7942 H 791.266 -2.74274 2.99213 0
M  V30 7943 H 792.032 -0.987007 4.74851 0
M  V30 7944 H 787.911 -2.04635 4.13093 0
M  V30 7945 H 791.455 -0.0902544 6.97542 0
M  V30 7946 H 787.352 -1.15524 6.35078 0
M  V30 7947 H 788.12 -0.17955 8.18303 0
M  V30 7948 N 790.784 -1.46188 -0.588786 0
M  V30 7949 C 791.731 -1.56292 -1.69828 0
M  V30 7950 C 792.701 -0.407581 -1.61022 0
M  V30 7951 O 793.886 -0.623532 -1.80324 0
M  V30 7952 C 791.026 -1.55341 -3.08161 0
M  V30 7953 C 790.139 -2.81564 -3.27636 0
M  V30 7954 C 789.274 -2.72158 -4.56183 0
M  V30 7955 C 788.313 -3.93348 -4.68981 0
M  V30 7956 N 787.45 -3.82365 -5.88848 0
M  V30 7957 H 792.29 -2.51066 -1.6053 0
M  V30 7958 H 789.827 -1.24562 -0.782474 0
M  V30 7959 H 791.785 -1.52776 -3.88221 0
M  V30 7960 H 790.415 -0.641034 -3.16371 0
M  V30 7961 H 789.467 -2.94136 -2.41223 0
M  V30 7962 H 790.779 -3.714 -3.32962 0
M  V30 7963 H 789.933 -2.67665 -5.44464 0
M  V30 7964 H 788.672 -1.79953 -4.53286 0
M  V30 7965 H 787.677 -3.98181 -3.7912 0
M  V30 7966 H 788.902 -4.86643 -4.73662 0
M  V30 7967 H 786.848 -2.92942 -5.86959 0
M  V30 7968 H 786.765 -4.65851 -5.95415 0
M  V30 7969 H 788.033 -3.81836 -6.79575 0
M  V30 7970 N 792.262 0.832906 -1.33792 0
M  V30 7971 C 793.502 1.60217 -1.26925 0
M  V30 7972 C 793.866 1.91323 0.161146 0
M  V30 7973 O 795.067 2.66461 0.353864 0
M  V30 7974 C 793.338 2.87314 -2.12568 0
M  V30 7975 S 794.897 3.77939 -2.22952 0
M  V30 7976 H 791.715 0.549273 -0.451464 0
M  V30 7977 H 794.317 0.984648 -1.68893 0
M  V30 7978 H 793.021 2.62444 -3.15518 0
M  V30 7979 H 792.552 3.5407 -1.71459 0
M  V30 7980 H 794.567 4.76188 -1.39496 0
M  V30 7981 N 793.74 1.17359 1.05189 0
M  V30 7982 C 794.65 0.904984 2.16442 0
M  V30 7983 C 795.666 -0.12686 1.73537 0
M  V30 7984 O 796.842 0.0524127 2.01332 0
M  V30 7985 C 793.907 0.422019 3.44122 0
M  V30 7986 C 792.968 1.52045 4.01473 0
M  V30 7987 C 792.201 1.06044 5.23059 0
M  V30 7988 O 792.424 -0.0854023 5.70336 0
M  V30 7989 O 791.358 1.85349 5.72651 0
M  V30 7990 H 795.184 1.8356 2.41949 0
M  V30 7991 H 792.769 0.95447 1.14936 0
M  V30 7992 H 794.651 0.160208 4.21095 0
M  V30 7993 H 793.326 -0.480444 3.20115 0
M  V30 7994 H 792.233 1.83615 3.25939 0
M  V30 7995 H 793.566 2.39863 4.29798 0
M  V30 7996 N 795.218 -1.23913 0.973828 0
M  V30 7997 C 796.495 -1.87539 0.555729 0
M  V30 7998 C 796.875 -1.87641 -0.967162 0
M  V30 7999 O 796.223 -1.35335 -1.84111 0
M  V30 8000 C 796.433 -3.29359 1.15427 0
M  V30 8001 C 797.781 -4.06 1.24294 0
M  V30 8002 O 798.805 -3.38554 1.10723 0
M  V30 8003 O 797.664 -5.26689 1.45813 0
M  V30 8004 H 794.758 -0.805769 0.186188 0
M  V30 8005 H 797.304 -1.31838 1.06849 0
M  V30 8006 H 796.076 -3.23817 2.19678 0
M  V30 8007 H 795.699 -3.92642 0.625925 0
M  V30 8008 N 796.696 -0.74468 -1.38897 0
M  V30 8009 C 797.936 -0.301691 -2.02161 0
M  V30 8010 C 798.3 1.09338 -1.57826 0
M  V30 8011 O 799.501 1.63499 -2.13358 0
M  V30 8012 C 797.772 -0.410601 -3.55034 0
M  V30 8013 S 799.331 -0.0488802 -4.38773 0
M  V30 8014 H 796.149 -0.117583 -0.70121 0
M  V30 8015 H 798.751 -0.973334 -1.69548 0
M  V30 8016 H 797.455 -1.42705 -3.8479 0
M  V30 8017 H 796.986 0.278531 -3.92413 0
M  V30 8018 H 799.001 1.16434 -4.82346 0
M  V30 8019 N 798.174 1.49689 -0.493057 0
M  V30 8020 C 799.422 2.02027 0.0541642 0
M  V30 8021 C 799.743 1.37554 1.38217 0
M  V30 8022 O 799.013 0.528174 1.88646 0
M  V30 8023 H 797.593 0.746646 0.0230069 0
M  V30 8024 H 800.255 1.83795 -0.648489 0
M  V30 8025 H 799.351 3.11523 0.189652 0
M  V30 8026 N 799.652 0.226554 1.55963 0
M  V30 8027 C 800.599 -0.681504 2.20509 0
M  V30 8028 C 801.569 -1.1866 1.16229 0
M  V30 8029 O 802.754 -1.24478 1.44602 0
M  V30 8030 C 799.894 -1.88183 2.89277 0
M  V30 8031 C 799.007 -1.41517 4.08163 0
M  V30 8032 C 798.142 -2.57346 4.647 0
M  V30 8033 C 797.181 -2.07441 5.75877 0
M  V30 8034 N 796.318 -3.16561 6.26685 0
M  V30 8035 H 801.158 -0.124372 2.9774 0
M  V30 8036 H 798.695 -0.0496333 1.47016 0
M  V30 8037 H 800.653 -2.58666 3.27335 0
M  V30 8038 H 799.283 -2.41177 2.14555 0
M  V30 8039 H 798.335 -0.605099 3.75557 0
M  V30 8040 H 799.647 -1.00928 4.88482 0
M  V30 8041 H 798.801 -3.35903 5.05227 0
M  V30 8042 H 797.54 -3.01227 3.83554 0
M  V30 8043 H 796.545 -1.27347 5.34848 0
M  V30 8044 H 797.77 -1.64554 6.58862 0
M  V30 8045 H 795.716 -3.59914 5.48451 0
M  V30 8046 H 795.633 -2.80239 7.02141 0
M  V30 8047 H 796.901 -3.95238 6.71868 0
M  V30 8048 N 801.13 -1.57531 -0.0467866 0
M  V30 8049 C 802.541 -1.76945 -0.595603 0
M  V30 8050 C 802.892 -0.855354 -1.76573 0
M  V30 8051 O 802.017 -0.045668 -2.16352 0
M  V30 8052 C 802.612 -3.20881 -1.08725 0
M  V30 8053 C 801.171 -3.41553 -1.58172 0
M  V30 8054 C 800.318 -2.72533 -0.511968 0
M  V30 8055 H 803.269 -1.57682 0.179436 0
M  V30 8056 H 803.29 -3.26419 -1.95528 0
M  V30 8057 H 802.802 -3.87385 -0.235398 0
M  V30 8058 H 800.903 -2.80199 -2.456 0
M  V30 8059 H 801.016 -4.50104 -1.64143 0
M  V30 8060 H 799.38 -2.35797 -0.962899 0
M  V30 8061 H 800.163 -3.41709 0.330117 0
M  V30 8062 N 802.608 0.318715 -1.54344 0
M  V30 8063 C 803.538 1.39751 -1.87061 0
M  V30 8064 C 804.519 1.53741 -0.727848 0
M  V30 8065 O 805.704 1.67541 -0.982016 0
M  V30 8066 C 802.834 2.76446 -2.10226 0
M  V30 8067 C 801.788 2.77239 -3.26071 0
M  V30 8068 C 801.114 4.17056 -3.34617 0
M  V30 8069 C 802.414 2.40555 -4.63606 0
M  V30 8070 H 804.108 1.12619 -2.77412 0
M  V30 8071 H 801.654 0.540318 -1.33479 0
M  V30 8072 H 803.607 3.51985 -2.31699 0
M  V30 8073 H 802.331 3.05066 -1.16629 0
M  V30 8074 H 800.99 2.04155 -3.04493 0
M  V30 8075 H 800.638 4.42824 -2.3857 0
M  V30 8076 H 800.338 4.18492 -4.12478 0
M  V30 8077 H 801.862 4.94401 -3.5833 0
M  V30 8078 H 803.276 3.05808 -4.84927 0
M  V30 8079 H 801.673 2.53234 -5.44052 0
M  V30 8080 H 802.743 1.35698 -4.65526 0
M  V30 8081 N 804.086 1.46499 0.581025 0
M  V30 8082 C 805.311 1.55708 1.37002 0
M  V30 8083 C 805.736 0.19942 1.8704 0
M  V30 8084 O 805.094 -0.820731 1.61659 0
M  V30 8085 C 805.142 2.56716 2.53238 0
M  V30 8086 O 804.246 2.10336 3.54729 0
M  V30 8087 H 803.587 0.523912 0.407937 0
M  V30 8088 H 806.117 1.92085 0.704602 0
M  V30 8089 H 806.127 2.76378 3.00132 0
M  V30 8090 H 804.802 3.55307 2.16171 0
M  V30 8091 H 803.379 2.00669 3.14303 0
M  V30 8092 N 805.565 -0.825799 1.34232 0
M  V30 8093 C 806.814 -1.57686 1.2577 0
M  V30 8094 C 807.127 -1.94848 -0.171372 0
M  V30 8095 O 808.333 -2.68854 -0.378123 0
M  V30 8096 C 806.789 -2.84478 2.20454 0
M  V30 8097 C 806.397 -2.54629 3.68603 0
M  V30 8098 C 808.141 -3.625 2.20893 0
M  V30 8099 C 806.048 -3.77597 4.55164 0
M  V30 8100 H 804.978 -0.591809 0.467203 0
M  V30 8101 H 807.629 -0.909421 1.59379 0
M  V30 8102 H 806.011 -3.52832 1.79793 0
M  V30 8103 H 807.185 -1.94404 4.17784 0
M  V30 8104 H 805.5 -1.89888 3.70582 0
M  V30 8105 H 808.097 -4.538 2.82789 0
M  V30 8106 H 808.44 -3.98404 1.20746 0
M  V30 8107 H 808.973 -3.01086 2.59985 0
M  V30 8108 H 805.712 -3.46815 5.56237 0
M  V30 8109 H 805.232 -4.37116 4.10719 0
M  V30 8110 H 806.911 -4.45039 4.69627 0
M  V30 8111 N 807.043 -1.17915 -1.04565 0
M  V30 8112 C 807.953 -0.916449 -2.15959 0
M  V30 8113 C 808.969 0.117655 -1.73602 0
M  V30 8114 O 810.145 -0.063089 -2.01301 0
M  V30 8115 C 807.21 -0.440262 -3.43893 0
M  V30 8116 C 806.271 -1.54172 -4.00661 0
M  V30 8117 C 805.504 -1.08816 -5.22489 0
M  V30 8118 O 805.727 0.0551547 -5.70373 0
M  V30 8119 O 804.661 -1.88383 -5.7166 0
M  V30 8120 H 808.487 -1.8484 -2.40972 0
M  V30 8121 H 806.072 -0.960552 -1.14428 0
M  V30 8122 H 807.954 -0.182537 -4.21004 0
M  V30 8123 H 806.629 0.46346 -3.20365 0
M  V30 8124 H 805.536 -1.85341 -3.24961 0
M  V30 8125 H 806.869 -2.42139 -4.2852 0
M  V30 8126 N 808.521 1.23394 -0.980386 0
M  V30 8127 C 809.484 2.23092 -0.525619 0
M  V30 8128 C 810.484 1.56129 0.384745 0
M  V30 8129 O 811.674 1.73284 0.178439 0
M  V30 8130 C 808.806 3.40074 0.23712 0
M  V30 8131 H 809.999 2.64839 -1.40714 0
M  V30 8132 H 807.552 1.36227 -0.766275 0
M  V30 8133 H 808.287 3.03783 1.13518 0
M  V30 8134 H 808.072 3.89883 -0.416356 0
M  V30 8135 H 809.562 4.14043 0.543892 0
M  V30 8136 N 809.999 0.752036 1.385 0
M  V30 8137 C 811.276 0.233075 1.94206 0
M  V30 8138 C 811.656 -1.26838 1.68746 0
M  V30 8139 O 811.004 -2.04214 1.02513 0
M  V30 8140 C 811.214 0.58509 3.44061 0
M  V30 8141 C 812.562 0.543871 4.21102 0
M  V30 8142 O 813.586 0.523291 3.52335 0
M  V30 8143 O 812.445 0.553436 5.4369 0
M  V30 8144 H 809.539 0.0483049 0.825588 0
M  V30 8145 H 812.085 0.832053 1.47902 0
M  V30 8146 H 810.857 1.62212 3.56094 0
M  V30 8147 H 810.48 -0.0419738 3.97578 0
M  V30 8148 N 811.477 -1.49425 0.500989 0
M  V30 8149 C 812.754 -1.9531 -0.106551 0
M  V30 8150 C 813.134 -1.44248 -1.54129 0
M  V30 8151 O 812.482 -0.656237 -2.18874 0
M  V30 8152 C 812.692 -3.48995 -0.0191972 0
M  V30 8153 C 814.04 -4.24161 -0.193129 0
M  V30 8154 O 815.064 -3.56075 -0.0943843 0
M  V30 8155 O 813.923 -5.45064 -0.395869 0
M  V30 8156 H 811.017 -0.82149 -0.0953068 0
M  V30 8157 H 813.563 -1.6007 0.563526 0
M  V30 8158 H 812.335 -3.78794 0.981353 0
M  V30 8159 H 811.958 -3.90852 -0.72942 0
M  V30 8160 N 812.955 -0.234822 -1.55841 0
M  V30 8161 C 813.903 0.686145 -2.22249 0
M  V30 8162 C 814.897 1.18948 -1.20614 0
M  V30 8163 O 816.103 1.14777 -1.38659 0
M  V30 8164 H 812.478 0.239724 -0.712767 0
M  V30 8165 H 814.449 0.102762 -2.98223 0
M  V30 8166 C 813.198 1.8776 -2.92646 0
M  V30 8167 H 812.521 1.49943 -3.70617 0
M  V30 8168 H 813.961 2.4995 -3.42493 0
M  V30 8169 C 812.42 2.74127 -1.95847 0
M  V30 8170 O 812.95 3.7329 -1.48384 0
M  V30 8171 N 811.156 2.4044 -1.63209 0
M  V30 8172 H 810.703 1.59854 -2.02001 0
M  V30 8173 H 810.661 2.98504 -0.987063 0
M  V30 8174 N 814.433 1.57553 0.0384317 0
M  V30 8175 C 815.681 1.88468 0.729672 0
M  V30 8176 C 816.002 0.831302 1.76393 0
M  V30 8177 O 815.272 -0.13622 1.95426 0
M  V30 8178 H 813.852 0.695529 0.272485 0
M  V30 8179 H 816.514 1.94899 0.0066032 0
M  V30 8180 H 815.61 2.8705 1.22511 0
M  V30 8181 N 815.911 -0.310526 1.54511 0
M  V30 8182 C 817.151 -1.05498 1.7507 0
M  V30 8183 C 817.515 -1.84814 0.520381 0
M  V30 8184 O 818.716 -2.61937 0.603547 0
M  V30 8185 C 816.987 -1.94466 2.99863 0
M  V30 8186 S 818.546 -2.75686 3.41383 0
M  V30 8187 H 815.364 -0.355951 0.615483 0
M  V30 8188 H 817.966 -0.329464 1.92704 0
M  V30 8189 H 816.67 -1.35055 3.87541 0
M  V30 8190 H 816.201 -2.71401 2.84789 0
M  V30 8191 H 818.216 -3.96971 2.97706 0
M  V30 8192 N 817.389 -1.46805 -0.573248 0
M  V30 8193 C 818.636 -1.52604 -1.3311 0
M  V30 8194 C 818.964 -0.181633 -1.9365 0
M  V30 8195 O 818.219 0.823775 -1.77517 0
M  V30 8196 C 818.518 -2.58001 -2.47326 0
M  V30 8197 C 818.184 -4.01747 -2.04719 0
M  V30 8198 C 816.846 -4.40881 -1.92814 0
M  V30 8199 C 819.198 -4.92008 -1.71982 0
M  V30 8200 C 816.526 -5.68129 -1.46445 0
M  V30 8201 C 818.878 -6.19703 -1.27089 0
M  V30 8202 C 817.542 -6.57733 -1.13768 0
M  V30 8203 H 816.812 -0.558417 -0.487084 0
M  V30 8204 H 819.459 -1.80327 -0.644538 0
M  V30 8205 H 817.764 -2.23974 -3.2147 0
M  V30 8206 H 819.461 -2.59715 -3.05531 0
M  V30 8207 H 816.051 -3.70819 -2.14922 0
M  V30 8208 H 820.235 -4.62485 -1.8006 0
M  V30 8209 H 815.491 -5.96359 -1.34783 0
M  V30 8210 H 819.665 -6.89064 -1.00814 0
M  V30 8211 H 817.292 -7.56228 -0.776142 0
M  V30 8212 N 818.867 0.818669 -1.34668 0
M  V30 8213 C 820.278 1.39177 -1.24446 0
M  V30 8214 C 820.629 1.9578 0.128268 0
M  V30 8215 O 819.754 1.90382 1.02877 0
M  V30 8216 C 820.349 2.53012 -2.25323 0
M  V30 8217 C 818.908 3.06218 -2.18878 0
M  V30 8218 C 818.055 1.79112 -2.11694 0
M  V30 8219 H 821.006 0.622709 -1.45973 0
M  V30 8220 H 821.027 3.31226 -1.8727 0
M  V30 8221 H 820.539 2.11784 -3.25221 0
M  V30 8222 H 818.64 3.51939 -1.22351 0
M  V30 8223 H 818.753 3.65019 -3.10319 0
M  V30 8224 H 817.117 2.0018 -1.57481 0
M  V30 8225 H 817.9 1.40053 -3.13433 0
M  V30 8226 N 820.346 1.18468 1.03938 0
M  V30 8227 C 821.276 0.936389 2.13902 0
M  V30 8228 C 822.257 -0.126381 1.6963 0
M  V30 8229 O 823.442 0.0264757 1.94182 0
M  V30 8230 C 820.572 0.462729 3.44204 0
M  V30 8231 C 819.526 1.46613 4.02105 0
M  V30 8232 C 818.852 0.84994 5.27902 0
M  V30 8233 C 820.152 2.84323 4.3813 0
M  V30 8234 H 821.846 1.85602 2.3493 0
M  V30 8235 H 819.392 0.893806 1.12903 0
M  V30 8236 H 821.345 0.276382 4.20493 0
M  V30 8237 H 820.069 -0.492477 3.22866 0
M  V30 8238 H 818.728 1.63944 3.27899 0
M  V30 8239 H 818.376 -0.112493 5.02874 0
M  V30 8240 H 818.076 1.51988 5.67603 0
M  V30 8241 H 819.6 0.674152 6.06867 0
M  V30 8242 H 821.014 2.70636 5.054 0
M  V30 8243 H 819.411 3.48012 4.88884 0
M  V30 8244 H 820.481 3.37776 3.47901 0
M  V30 8245 N 821.824 -1.22873 0.986916 0
M  V30 8246 C 823.101 -1.86939 0.575589 0
M  V30 8247 C 823.481 -1.88656 -0.947205 0
M  V30 8248 O 822.829 -1.3728 -1.82665 0
M  V30 8249 C 823.039 -3.28117 1.18914 0
M  V30 8250 C 824.387 -4.04659 1.28593 0
M  V30 8251 O 825.411 -3.3736 1.14308 0
M  V30 8252 O 824.27 -5.25112 1.51391 0
M  V30 8253 H 821.364 -0.803748 0.194724 0
M  V30 8254 H 823.91 -1.30698 1.08241 0
M  V30 8255 H 822.682 -3.21468 2.231 0
M  V30 8256 H 822.305 -3.91956 0.667535 0
M  V30 8257 N 823.302 -0.75937 -1.38099 0
M  V30 8258 C 824.55 -0.317485 -1.99591 0
M  V30 8259 C 824.871 1.10628 -1.60581 0
M  V30 8260 O 824.141 1.7575 -0.865378 0
M  V30 8261 H 822.721 -0.114397 -0.738189 0
M  V30 8262 H 825.383 -0.974749 -1.68774 0
M  V30 8263 H 824.479 -0.385227 -3.09713 0
M  V30 8264 N 824.78 1.49157 -0.508906 0
M  V30 8265 C 825.73 2.26215 0.284705 0
M  V30 8266 C 826.714 1.31401 0.928586 0
M  V30 8267 O 827.906 1.56073 0.834877 0
M  V30 8268 C 825.035 3.15906 1.34382 0
M  V30 8269 C 824.121 4.18186 0.705785 0
M  V30 8270 N 824.512 5.05419 -0.196214 0
M  V30 8271 C 822.81 4.35425 0.965457 0
M  V30 8272 C 823.511 5.78977 -0.562222 0
M  V30 8273 N 822.487 5.43553 0.0717389 0
M  V30 8274 H 826.289 2.91033 -0.409543 0
M  V30 8275 H 823.803 1.59104 -0.325508 0
M  V30 8276 H 825.8 3.6975 1.92589 0
M  V30 8277 H 824.46 2.52642 2.03966 0
M  V30 8278 H 825.471 5.14781 -0.567526 0
M  V30 8279 H 822.148 3.83363 1.65346 0
M  V30 8280 H 823.538 6.59192 -1.30062 0
M  V30 8281 N 826.258 0.243083 1.55714 0
M  V30 8282 C 827.504 -0.383287 1.99145 0
M  V30 8283 C 827.837 -1.57868 1.13098 0
M  V30 8284 O 827.112 -1.93535 0.193509 0
M  V30 8285 C 827.395 -0.796879 3.51172 0
M  V30 8286 C 827.248 0.403642 4.47985 0
M  V30 8287 C 828.567 -1.64525 4.08191 0
M  V30 8288 H 825.686 -0.137843 0.723995 0
M  V30 8289 H 828.328 0.343631 1.86867 0
M  V30 8290 H 826.478 -1.41625 3.61766 0
M  V30 8291 H 828.15 1.04204 4.49376 0
M  V30 8292 H 826.393 1.04741 4.20965 0
M  V30 8293 H 827.064 0.0709794 5.51954 0
M  V30 8294 H 829.54 -1.12246 4.00674 0
M  V30 8295 H 828.416 -1.9035 5.14838 0
M  V30 8296 H 828.677 -2.61582 3.56409 0
M  V30 8297 N 827.736 -1.57571 -0.0300757 0
M  V30 8298 C 828.666 -2.0953 -1.03051 0
M  V30 8299 C 829.647 -0.99761 -1.37774 0
M  V30 8300 O 830.832 -1.27279 -1.46676 0
M  V30 8301 C 827.962 -2.57385 -2.33174 0
M  V30 8302 C 826.916 -3.71409 -2.12696 0
M  V30 8303 C 826.242 -4.05467 -3.4857 0
M  V30 8304 C 827.542 -4.99877 -1.51396 0
M  V30 8305 H 829.236 -2.93367 -0.597999 0
M  V30 8306 H 826.782 -1.41127 -0.286203 0
M  V30 8307 H 828.735 -2.92355 -3.03491 0
M  V30 8308 H 827.459 -1.70629 -2.78484 0
M  V30 8309 H 826.118 -3.36786 -1.44813 0
M  V30 8310 H 825.766 -3.15779 -3.91526 0
M  V30 8311 H 825.466 -4.82269 -3.35694 0
M  V30 8312 H 826.99 -4.4297 -4.2025 0
M  V30 8313 H 828.404 -5.3281 -2.11629 0
M  V30 8314 H 826.801 -5.81283 -1.49098 0
M  V30 8315 H 827.871 -4.82522 -0.479676 0
M  V30 8316 N 829.214 0.302327 -1.54673 0
M  V30 8317 C 830.454 1.04568 -1.75627 0
M  V30 8318 C 830.818 1.84535 -0.530175 0
M  V30 8319 O 832.019 2.61613 -0.61743 0
M  V30 8320 C 830.29 1.92873 -3.0089 0
M  V30 8321 S 831.849 2.73872 -3.4284 0
M  V30 8322 H 828.667 0.352682 -0.617362 0
M  V30 8323 H 831.269 0.319239 -1.92876 0
M  V30 8324 H 829.973 1.32998 -3.88252 0
M  V30 8325 H 829.504 2.69887 -2.86225 0
M  V30 8326 H 831.519 3.95386 -2.99807 0
M  V30 8327 N 830.692 1.47107 0.565454 0
M  V30 8328 C 832.108 1.32443 0.890566 0
M  V30 8329 C 832.308 0.308735 1.99121 0
M  V30 8330 O 831.364 -0.28265 2.50913 0
M  V30 8331 C 832.677 2.71548 1.2916 0
M  V30 8332 C 834.225 2.7977 1.40349 0
M  V30 8333 C 834.7 4.19497 1.83811 0
M  V30 8334 N 836.191 4.21998 1.90975 0
M  V30 8335 C 836.926 5.2702 2.25916 0
M  V30 8336 N 836.422 6.42353 2.59527 0
M  V30 8337 N 838.215 5.14393 2.26619 0
M  V30 8338 H 830.366 2.11786 -0.161328 0
M  V30 8339 H 832.629 0.947952 -0.00950631 0
M  V30 8340 H 832.335 3.47265 0.556753 0
M  V30 8341 H 832.209 3.02782 2.24951 0
M  V30 8342 H 834.596 2.0433 2.12916 0
M  V30 8343 H 834.677 2.522 0.427655 0
M  V30 8344 H 834.321 4.95439 1.11816 0
M  V30 8345 H 834.251 4.44486 2.82382 0
M  V30 8346 H 836.742 3.38791 1.6742 0
M  V30 8347 H 837.055 7.18252 2.85191 0
M  V30 8348 H 835.4 6.45687 2.57126 0
M  V30 8349 H 838.591 4.2332 1.99794 0
M  V30 8350 H 838.764 5.96349 2.5352 0
M  V30 8351 N 832.17 -0.811516 1.35101 0
M  V30 8352 C 833.117 -1.92308 1.27617 0
M  V30 8353 C 834.087 -1.6543 0.149091 0
M  V30 8354 O 835.272 -1.8789 0.331974 0
M  V30 8355 C 832.412 -3.28768 1.04908 0
M  V30 8356 C 831.525 -3.67865 2.26493 0
M  V30 8357 C 830.66 -4.9333 1.96974 0
M  V30 8358 C 829.699 -5.25041 3.1464 0
M  V30 8359 N 828.836 -6.41685 2.84929 0
M  V30 8360 H 833.676 -1.98041 2.22674 0
M  V30 8361 H 831.213 -0.968755 1.10696 0
M  V30 8362 H 833.171 -4.07426 0.897749 0
M  V30 8363 H 831.801 -3.22517 0.135151 0
M  V30 8364 H 830.853 -2.84507 2.52507 0
M  V30 8365 H 832.165 -3.87263 3.14371 0
M  V30 8366 H 831.319 -5.79803 1.78643 0
M  V30 8367 H 830.058 -4.75958 1.06374 0
M  V30 8368 H 829.063 -4.3706 3.33554 0
M  V30 8369 H 830.288 -5.44346 4.06035 0
M  V30 8370 H 828.234 -6.25747 1.96918 0
M  V30 8371 H 828.151 -6.6131 3.66341 0
M  V30 8372 H 829.419 -7.31198 2.70128 0
M  V30 8373 N 833.648 -1.19017 -1.03309 0
M  V30 8374 C 834.888 -1.00129 -1.78195 0
M  V30 8375 C 835.252 0.460236 -1.86402 0
M  V30 8376 O 836.453 0.768802 -2.57571 0
M  V30 8377 C 834.724 -1.64703 -3.17187 0
M  V30 8378 S 836.283 -1.60695 -4.08317 0
M  V30 8379 H 833.101 -0.359395 -0.613479 0
M  V30 8380 H 835.703 -1.51293 -1.23818 0
M  V30 8381 H 834.407 -2.70283 -3.08829 0
M  V30 8382 H 833.938 -1.136 -3.76641 0
M  V30 8383 H 835.953 -0.628171 -4.92208 0
M  V30 8384 N 835.127 1.22348 -0.993418 0
M  V30 8385 C 836.077 2.221 -0.515333 0
M  V30 8386 C 837.061 1.55409 0.416762 0
M  V30 8387 O 838.253 1.75317 0.243497 0
M  V30 8388 C 835.382 3.42888 0.168173 0
M  V30 8389 C 834.468 4.16786 -0.784257 0
M  V30 8390 N 834.859 4.67435 -1.93231 0
M  V30 8391 C 833.157 4.41942 -0.600243 0
M  V30 8392 C 833.858 5.23792 -2.53016 0
M  V30 8393 N 832.834 5.12483 -1.8128 0
M  V30 8394 H 836.636 2.58902 -1.39093 0
M  V30 8395 H 834.15 1.38024 -0.855747 0
M  V30 8396 H 836.147 4.13542 0.528069 0
M  V30 8397 H 834.807 3.07598 1.03989 0
M  V30 8398 H 835.818 4.63375 -2.31309 0
M  V30 8399 H 832.495 4.16891 0.225369 0
M  V30 8400 H 833.885 5.73515 -3.50043 0
M  V30 8401 N 836.605 0.766683 1.37694 0
M  V30 8402 C 837.833 0.339939 2.04088 0
M  V30 8403 C 838.248 -1.03617 1.57826 0
M  V30 8404 O 837.605 -1.6605 0.757214 0
M  V30 8405 C 837.656 0.368269 3.59619 0
M  V30 8406 O 837.377 1.69009 4.04188 0
M  V30 8407 C 838.878 -0.0707053 4.43244 0
M  V30 8408 H 836.098 0.143189 0.655544 0
M  V30 8409 H 838.642 1.03919 1.76128 0
M  V30 8410 H 836.797 -0.282359 3.8637 0
M  V30 8411 H 837.211 1.62523 4.98685 0
M  V30 8412 H 838.685 0.000273538 5.52 0
M  V30 8413 H 839.162 -1.1204 4.24669 0
M  V30 8414 H 839.768 0.551543 4.21709 0
M  V30 8415 N 838.083 -1.48885 0.516809 0
M  V30 8416 C 839.046 -2.27916 -0.242256 0
M  V30 8417 C 840.046 -1.34601 -0.879735 0
M  V30 8418 O 841.236 -1.57616 -0.74182 0
M  V30 8419 C 838.368 -3.13067 -1.34914 0
M  V30 8420 H 839.561 -2.96483 0.451444 0
M  V30 8421 H 837.114 -1.5391 0.272294 0
M  V30 8422 H 837.849 -2.49102 -2.07651 0
M  V30 8423 H 837.634 -3.81695 -0.897313 0
M  V30 8424 H 839.124 -3.72716 -1.88341 0
M  V30 8425 N 839.561 -0.251338 -1.55583 0
M  V30 8426 C 840.977 0.103409 -1.59265 0
M  V30 8427 C 841.177 1.56559 -1.26852 0
M  V30 8428 O 840.233 2.31071 -1.01796 0
M  V30 8429 C 841.546 -0.249781 -2.99661 0
M  V30 8430 C 843.094 -0.194442 -3.12395 0
M  V30 8431 C 843.569 -0.521728 -4.55019 0
M  V30 8432 N 845.06 -0.472393 -4.60785 0
M  V30 8433 C 845.795 -0.698737 -5.69127 0
M  V30 8434 N 845.291 -0.988443 -6.85713 0
M  V30 8435 N 847.084 -0.629143 -5.58568 0
M  V30 8436 H 839.235 -1.20484 -1.74921 0
M  V30 8437 H 841.498 -0.485092 -0.814488 0
M  V30 8438 H 841.204 -1.26577 -3.28133 0
M  V30 8439 H 841.078 0.420973 -3.74844 0
M  V30 8440 H 843.465 0.812229 -2.83702 0
M  V30 8441 H 843.546 -0.899111 -2.39478 0
M  V30 8442 H 843.19 -1.52597 -4.84434 0
M  V30 8443 H 843.12 0.204468 -5.26203 0
M  V30 8444 H 845.611 -0.257386 -3.77022 0
M  V30 8445 H 845.924 -1.14846 -7.64219 0
M  V30 8446 H 844.269 -1.02596 -6.87386 0
M  V30 8447 H 847.46 -0.402826 -4.66364 0
M  V30 8448 H 847.633 -0.808935 -6.42931 0
M  V30 8449 N 841.039 1.57585 0.0217189 0
M  V30 8450 C 842.002 2.06004 1.00474 0
M  V30 8451 C 843.002 0.965461 1.2859 0
M  V30 8452 O 844.192 1.22884 1.23471 0
M  V30 8453 C 841.324 2.48319 2.33561 0
M  V30 8454 H 842.517 2.94112 0.586346 0
M  V30 8455 H 840.07 1.53973 0.268716 0
M  V30 8456 H 840.805 1.63389 2.80133 0
M  V30 8457 H 840.59 3.28239 2.1448 0
M  V30 8458 H 842.08 2.86181 3.04122 0
M  V30 8459 N 842.517 -0.29412 1.54831 0
M  V30 8460 C 843.449 -1.38476 1.82639 0
M  V30 8461 C 844.462 -1.46517 0.709694 0
M  V30 8462 O 845.651 -1.48712 0.987269 0
M  V30 8463 C 842.751 -2.76791 1.95551 0
M  V30 8464 C 841.924 -2.91599 3.26019 0
M  V30 8465 C 840.983 -4.10456 3.29261 0
M  V30 8466 O 840.009 -4.02214 4.02756 0
M  V30 8467 N 841.211 -5.21422 2.55145 0
M  V30 8468 H 843.976 -1.14974 2.76769 0
M  V30 8469 H 841.537 -0.484206 1.5449 0
M  V30 8470 H 843.529 -3.5456 1.95113 0
M  V30 8471 H 842.099 -2.93209 1.08384 0
M  V30 8472 H 841.319 -2.00886 3.39173 0
M  V30 8473 H 842.607 -2.98409 4.12104 0
M  V30 8474 H 842.005 -5.31 1.95078 0
M  V30 8475 H 840.562 -5.97501 2.60454 0
M  V30 8476 N 843.995 -1.47404 -0.557645 0
M  V30 8477 C 845.223 -1.57622 -1.34026 0
M  V30 8478 C 845.638 -0.226256 -1.87439 0
M  V30 8479 O 844.995 0.78043 -1.64971 0
M  V30 8480 C 845.046 -2.60111 -2.51047 0
M  V30 8481 O 844.767 -3.89866 -1.99841 0
M  V30 8482 C 846.268 -2.80508 -3.43264 0
M  V30 8483 H 843.488 -0.532271 -0.40857 0
M  V30 8484 H 846.032 -1.93019 -0.675555 0
M  V30 8485 H 844.187 -2.27648 -3.13457 0
M  V30 8486 H 844.601 -4.45864 -2.76234 0
M  V30 8487 H 846.075 -3.56084 -4.21792 0
M  V30 8488 H 846.552 -1.88314 -3.9678 0
M  V30 8489 H 847.158 -3.14166 -2.86671 0
M  V30 8490 O 845.512 0.702284 -1.45431 0
M  V30 8491 H 846.203 1.35379 -1.38536 0
M  V30 END ATOM
M  V30 BEGIN BOND
M  V30 END BOND
M  V30 END CTAB
M  END
$$$$
